data_POSCAR
  _audit_creation_date              2014-09-24
  _audit_creation_method            'ToBaCCo'
  _symmetry_space_group_name_H-M    'P1'
  _symmetry_Int_Tables_number       1
  _symmetry_cell_setting            triclinic
  loop_
  _symmetry_equiv_pos_as_xyz
 x,y,z
_cell_length_a 63.1595
_cell_length_b 63.9019
_cell_length_c 69.6328
_cell_angle_alpha 91.148800
_cell_angle_beta 88.913700
_cell_angle_gamma 89.820200
loop_
  _atom_site_label
  _atom_site_type_symbol
  _atom_site_fract_x
  _atom_site_fract_y
  _atom_site_fract_z
N1 N 0.28336 0.42515 0.89913
 N2 N 0.29443 0.44238 0.89701
 C3 C 0.28696 0.45304 0.88207
 C4 C 0.27015 0.44196 0.87462
 C5 C 0.26821 0.42442 0.88581
 H6 H 0.29299 0.46789 0.87723
 H7 H 0.25674 0.41199 0.88429
 Cu8 Cu 0.31670 0.44986 0.91468
 Cu9 Cu 0.28933 0.40502 0.91911
 Cu10 Cu 0.33798 0.41192 0.94028
 N11 N 0.33540 0.45633 0.93588
 N12 N 0.34393 0.44118 0.94565
 C13 C 0.35686 0.44939 0.95887
 C14 C 0.35635 0.47091 0.95738
 C15 C 0.34258 0.47486 0.94263
 H16 H 0.36612 0.44028 0.96861
 H17 H 0.33848 0.48996 0.93698
 N18 N 0.32227 0.38567 0.94135
 N19 N 0.30320 0.38313 0.93426
 C20 C 0.29593 0.36410 0.93921
 C21 C 0.31125 0.35446 0.94998
 C22 C 0.32770 0.36851 0.95094
 H23 H 0.28056 0.35791 0.93559
 H24 H 0.34221 0.36677 0.95877
 H25 H 0.30811 0.42258 0.93752
 H26 H 0.32022 0.41164 0.91482
 N27 N 0.45921 0.84340 0.44502
 N28 N 0.47608 0.83848 0.43448
 C29 C 0.49127 0.85274 0.43761
 C30 C 0.48352 0.86752 0.45071
 C31 C 0.46309 0.86114 0.45521
 H32 H 0.50668 0.85260 0.43054
 H33 H 0.45188 0.86881 0.46498
 Cu34 Cu 0.47680 0.81434 0.41697
 Cu35 Cu 0.43381 0.82590 0.44424
 Cu36 Cu 0.42972 0.80238 0.39915
 N37 N 0.47420 0.79498 0.39518
 N38 N 0.45566 0.79096 0.38770
 C39 C 0.45838 0.77880 0.37181
 C40 C 0.47977 0.77469 0.36946
 C41 C 0.48937 0.78521 0.38451
 H42 H 0.44576 0.77355 0.36261
 H43 H 0.50618 0.78635 0.38702
 N44 N 0.40572 0.80543 0.41752
 N45 N 0.40735 0.81316 0.43517
 C46 C 0.38955 0.80861 0.44528
 C47 C 0.37629 0.79740 0.43330
 C48 C 0.38693 0.79592 0.41587
 H49 H 0.38714 0.81182 0.46048
 H50 H 0.38221 0.78677 0.40344
 H51 H 0.44250 0.80019 0.42598
 H52 H 0.44027 0.82712 0.41622
 N53 N 0.94630 0.91396 0.81114
 N54 N 0.95915 0.91429 0.82584
 C55 C 0.97726 0.90433 0.82085
 C56 C 0.97572 0.89716 0.80213
 C57 C 0.95585 0.90346 0.79633
 H58 H 0.99039 0.90189 0.83031
 H59 H 0.94883 0.90050 0.78250
 Cu60 Cu 0.95110 0.92673 0.85060
 Cu61 Cu 0.91835 0.92775 0.81246
 Cu62 Cu 0.90026 0.93682 0.85872
 N63 N 0.94179 0.94298 0.87328
 N64 N 0.92164 0.94775 0.87555
 C65 C 0.91905 0.96088 0.89065
 C66 C 0.93854 0.96427 0.89860
 C67 C 0.95275 0.95240 0.88750
 H68 H 0.90399 0.96738 0.89553
 H69 H 0.96976 0.95166 0.88896
 N70 N 0.88149 0.93669 0.83692
 N71 N 0.88836 0.93554 0.81891
 C72 C 0.87284 0.94273 0.80758
 C73 C 0.85569 0.94871 0.81930
 C74 C 0.86167 0.94420 0.83762
 H75 H 0.87469 0.94550 0.79237
 H76 H 0.85336 0.94889 0.85075
 H77 H 0.92108 0.94514 0.83754
 H78 H 0.91621 0.91641 0.83882
 N79 N 0.43527 -0.10470 0.31960
 N80 N 0.44644 -0.10706 0.33515
 C81 C 0.45790 -0.12466 0.33360
 C82 C 0.45408 -0.13403 0.31609
 C83 C 0.43940 -0.12112 0.30745
 H84 H 0.46956 -0.12941 0.34384
 H85 H 0.43324 -0.12284 0.29312
 Cu86 Cu 0.44962 -0.08513 0.35412
 Cu87 Cu 0.41762 -0.07939 0.31704
 Cu88 Cu 0.43356 -0.03672 0.34546
 N89 N 0.46225 -0.06160 0.36698
 N90 N 0.45588 -0.04235 0.36408
 C91 C 0.46786 -0.02915 0.37469
 C92 C 0.48277 -0.04099 0.38412
 C93 C 0.47868 -0.06143 0.37892
 H94 H 0.46626 -0.01229 0.37510
 H95 H 0.48705 -0.07521 0.38347
 N96 N 0.41130 -0.03480 0.32575
 N97 N 0.40519 -0.05086 0.31491
 C98 C 0.38898 -0.04464 0.30396
 C99 C 0.38477 -0.02373 0.30812
 C100 C 0.39922 -0.01805 0.32191
 H101 H 0.38040 -0.05471 0.29418
 H102 H 0.40028 -0.00295 0.32910
 H103 H 0.44175 -0.06219 0.32798
 H104 H 0.41843 -0.06557 0.34437
 N105 N 0.78584 0.31032 0.35450
 N106 N 0.79749 0.29322 0.35498
 C107 C 0.78695 0.27855 0.36487
 C108 C 0.76790 0.28700 0.37128
 C109 C 0.76772 0.30728 0.36466
 H110 H 0.79292 0.26304 0.36766
 H111 H 0.75522 0.31876 0.36671
 Cu112 Cu 0.82604 0.29198 0.34396
 Cu113 Cu 0.79504 0.33464 0.33981
 Cu114 Cu 0.83785 0.32471 0.30868
 N115 N 0.85109 0.28751 0.32762
 N116 N 0.85554 0.30049 0.31373
 C117 C 0.87341 0.29412 0.30450
 C118 C 0.88053 0.27611 0.31300
 C119 C 0.86599 0.27231 0.32766
 H120 H 0.88069 0.30197 0.29246
 H121 H 0.86623 0.25947 0.33754
 N122 N 0.81836 0.34852 0.30595
 N123 N 0.80252 0.35301 0.31801
 C124 C 0.79218 0.37008 0.31166
 C125 C 0.80204 0.37630 0.29476
 C126 C 0.81845 0.36233 0.29168
 H127 H 0.77801 0.37678 0.31826
 H128 H 0.82940 0.36205 0.27955
 H129 H 0.80935 0.31421 0.32081
 H130 H 0.82745 0.32955 0.33646
 N131 N -0.18680 0.87156 0.82477
 N132 N -0.20250 0.86292 0.83433
 C133 C -0.22087 0.87155 0.82910
 C134 C -0.21636 0.88640 0.81554
 C135 C -0.19456 0.88632 0.81329
 H136 H -0.23635 0.86689 0.83437
 H137 H -0.18515 0.89546 0.80341
 Cu138 Cu -0.19782 0.84001 0.85141
 Cu139 Cu -0.15817 0.86068 0.82646
 Cu140 Cu -0.15742 0.80799 0.83819
 N141 N -0.19656 0.81174 0.85997
 N142 N -0.18185 0.79860 0.85358
 C143 C -0.18633 0.77944 0.86026
 C144 C -0.20464 0.78097 0.87148
 C145 C -0.21060 0.80167 0.87111
 H146 H -0.17674 0.76559 0.85759
 H147 H -0.22444 0.80877 0.87797
 N148 N -0.13421 0.82174 0.82353
 N149 N -0.13425 0.84207 0.82045
 C150 C -0.11707 0.84708 0.80999
 C151 C -0.10560 0.82913 0.80603
 C152 C -0.11675 0.81323 0.81489
 H153 H -0.11393 0.86248 0.80447
 H154 H -0.11291 0.79672 0.81440
 H155 H -0.17291 0.83218 0.82541
 H156 H -0.15903 0.83801 0.84828
 N157 N 0.96535 0.34490 0.42710
 N158 N 0.94744 0.34938 0.43648
 C159 C 0.95033 0.36702 0.44724
 C160 C 0.97097 0.37380 0.44419
 C161 C 0.97989 0.35939 0.43145
 H162 H 0.93819 0.37474 0.45598
 H163 H 0.99580 0.35975 0.42545
 Cu164 Cu 0.92112 0.33277 0.43235
 Cu165 Cu 0.96917 0.32110 0.40901
 Cu166 Cu 0.92470 0.29812 0.39532
 N167 N 0.89736 0.31431 0.42519
 N168 N 0.89882 0.30213 0.40976
 C169 C 0.88097 0.29115 0.40775
 C170 C 0.86746 0.29628 0.42279
 C171 C 0.87822 0.31115 0.43371
 H172 H 0.87855 0.27918 0.39680
 H173 H 0.87281 0.31858 0.44702
 N174 N 0.95187 0.28690 0.38754
 N175 N 0.96950 0.29658 0.39186
 C176 C 0.98589 0.28638 0.38315
 C177 C 0.97790 0.26911 0.37347
 C178 C 0.95631 0.26993 0.37652
 H179 H 1.00228 0.29117 0.38373
 H180 H 0.94462 0.25957 0.37037
 H181 H 0.93762 0.33174 0.40671
 H182 H 0.94246 0.31016 0.42389
 N183 N 0.43895 0.45749 0.86316
 N184 N 0.41902 0.46360 0.86385
 C185 C 0.41596 0.47657 0.87913
 C186 C 0.43490 0.47845 0.88860
 C187 C 0.44918 0.46614 0.87813
 H188 H 0.40099 0.48370 0.88335
 H189 H 0.46578 0.46382 0.88105
 Cu190 Cu 0.39881 0.45308 0.84528
 Cu191 Cu 0.45015 0.43972 0.84216
 Cu192 Cu 0.41159 0.41033 0.81941
 N193 N 0.38066 0.44285 0.82480
 N194 N 0.38549 0.42550 0.81521
 C195 C 0.37044 0.42138 0.80229
 C196 C 0.35552 0.43715 0.80367
 C197 C 0.36238 0.45054 0.81813
 H198 H 0.37070 0.40823 0.79225
 H199 H 0.35482 0.46487 0.82322
 N200 N 0.44193 0.40406 0.81702
 N201 N 0.45682 0.41558 0.82501
 C202 C 0.47591 0.40847 0.81875
 C203 C 0.47267 0.39196 0.80602
 C204 C 0.45102 0.38951 0.80537
 H205 H 0.49096 0.41518 0.82268
 H206 H 0.44244 0.37847 0.79651
 H207 H 0.42518 0.43894 0.82279
 H208 H 0.42337 0.42332 0.84514
 N209 N 0.79454 0.89014 0.93026
 N210 N 0.81426 0.88879 0.93584
 C211 C 0.81710 0.87040 0.94459
 C212 C 0.79813 0.85968 0.94447
 C213 C 0.78411 0.87277 0.93549
 H214 H 0.83113 0.86623 0.95235
 H215 H 0.76721 0.87057 0.93428
 Cu216 Cu 0.83246 0.91320 0.93543
 Cu217 Cu 0.78314 0.91565 0.91938
 Cu218 Cu 0.81875 0.95588 0.91126
 N219 N 0.84455 0.94041 0.94142
 N220 N 0.83944 0.95733 0.93206
 C221 C 0.84880 0.97405 0.94050
 C222 C 0.86022 0.96705 0.95594
 C223 C 0.85704 0.94573 0.95613
 H224 H 0.84630 0.99014 0.93654
 H225 H 0.86243 0.93502 0.96686
 N226 N 0.79119 0.95409 0.89832
 N227 N 0.77734 0.93923 0.90221
 C228 C 0.76030 0.94168 0.89117
 C229 C 0.76355 0.95876 0.87967
 C230 C 0.78333 0.96631 0.88452
 H231 H 0.74692 0.93117 0.89079
 H232 H 0.79158 0.97937 0.87820
 H233 H 0.81196 0.92350 0.90779
 H234 H 0.80370 0.93792 0.93026
 N235 N 0.30877 0.86015 0.33360
 N236 N 0.32731 0.85749 0.32496
 C237 C 0.33060 0.87279 0.31241
 C238 C 0.31319 0.88576 0.31290
 C239 C 0.29953 0.87749 0.32663
 H240 H 0.34420 0.87369 0.30278
 H241 H 0.28381 0.88302 0.33057
 Cu242 Cu 0.34461 0.83290 0.32814
 Cu243 Cu 0.29839 0.83925 0.35184
 Cu244 Cu 0.31671 0.78996 0.33774
 N245 N 0.35652 0.80544 0.32361
 N246 N 0.34554 0.78848 0.32720
 C247 C 0.35691 0.77161 0.32132
 C248 C 0.37586 0.77854 0.31350
 C249 C 0.37514 0.80007 0.31521
 H250 H 0.35152 0.75559 0.32210
 H251 H 0.38693 0.81103 0.31021
 N252 N 0.29201 0.79460 0.35520
 N253 N 0.28602 0.81324 0.36189
 C254 C 0.27171 0.81076 0.37631
 C255 C 0.26830 0.78953 0.37839
 C256 C 0.28127 0.77983 0.36475
 H257 H 0.26487 0.82336 0.38500
 H258 H 0.28405 0.76317 0.36310
 H259 H 0.32321 0.81676 0.35313
 H260 H 0.30836 0.82005 0.33044
 N261 N 0.79517 0.39386 0.41631
 N262 N 0.80915 0.38795 0.42886
 C263 C 0.80065 0.37337 0.44020
 C264 C 0.78015 0.37003 0.43458
 C265 C 0.77708 0.38316 0.41930
 H266 H 0.80862 0.36629 0.45207
 H267 H 0.76286 0.38479 0.41103
 Cu268 Cu 0.83605 0.40158 0.43132
 Cu269 Cu 0.80236 0.41460 0.39709
 Cu270 Cu 0.84742 0.44414 0.40613
 N271 N 0.85574 0.42219 0.44051
 N272 N 0.85995 0.43922 0.43092
 C273 C 0.87320 0.45130 0.44120
 C274 C 0.87705 0.44128 0.45821
 C275 C 0.86586 0.42286 0.45728
 H276 H 0.87928 0.46630 0.43676
 H277 H 0.86485 0.41097 0.46810
 N278 N 0.82787 0.45010 0.38528
 N279 N 0.81065 0.43904 0.38181
 C280 C 0.80083 0.44715 0.36664
 C281 C 0.81243 0.46409 0.36046
 C282 C 0.82939 0.46556 0.37254
 H283 H 0.78643 0.44113 0.36048
 H284 H 0.84199 0.47696 0.37198
 H285 H 0.83493 0.41516 0.39850
 H286 H 0.81988 0.43143 0.41657
 N287 N 0.93375 0.84038 -0.05507
 N288 N 0.94707 0.84915 -0.06718
 C289 C 0.95158 0.86866 -0.06066
 C290 C 0.94026 0.87211 -0.04366
 C291 C 0.92923 0.85387 -0.04055
 H292 H 0.96176 0.87966 -0.06795
 H293 H 0.91849 0.85070 -0.02868
 Cu294 Cu 0.95588 0.83408 -0.09060
 Cu295 Cu 0.92314 0.81208 -0.05873
 Cu296 Cu 0.92687 0.79329 -0.10570
 N297 N 0.96495 0.81670 -0.11254
 N298 N 0.95300 0.80130 -0.11887
 C299 C 0.96166 0.79314 -0.13516
 C300 C 0.98019 0.80378 -0.13905
 C301 C 0.98188 0.81858 -0.12442
 H302 H 0.95488 0.78053 -0.14360
 H303 H 0.99407 0.83033 -0.12297
 N304 N 0.90780 0.78114 -0.08620
 N305 N 0.90679 0.78808 -0.06823
 C306 C 0.89223 0.77697 -0.05849
 C307 C 0.88385 0.76221 -0.07090
 C308 C 0.89408 0.76520 -0.08834
 H309 H 0.88768 0.77978 -0.04361
 H310 H 0.89138 0.75674 -0.10167
 H311 H 0.94230 0.80001 -0.08133
 H312 H 0.92062 0.81873 -0.08685
 N313 N 0.28356 0.35544 0.82046
 N314 N 0.29838 0.35895 0.80739
 C315 C 0.29021 0.37033 0.79329
 C316 C 0.26925 0.37449 0.79791
 C317 C 0.26549 0.36501 0.81532
 H318 H 0.29879 0.37498 0.78048
 H319 H 0.25051 0.36405 0.82304
 Cu320 Cu 0.32694 0.34800 0.80975
 Cu321 Cu 0.28874 0.33613 0.84139
 Cu322 Cu 0.32762 0.29992 0.82708
 N323 N 0.35272 0.33138 0.80913
 N324 N 0.35294 0.31203 0.81518
 C325 C 0.37243 0.30375 0.81199
 C326 C 0.38509 0.31904 0.80394
 C327 C 0.37207 0.33632 0.80236
 H328 H 0.37714 0.28806 0.81567
 H329 H 0.37628 0.35128 0.79640
 N330 N 0.30530 0.29432 0.84659
 N331 N 0.29171 0.30860 0.85326
 C332 C 0.28001 0.30039 0.86764
 C333 C 0.28639 0.27988 0.86976
 C334 C 0.30233 0.27655 0.85624
 H335 H 0.26745 0.30852 0.87552
 H336 H 0.31150 0.26236 0.85399
 H337 H 0.32152 0.32856 0.83922
 H338 H 0.30333 0.32001 0.81985
 N339 N 0.14440 0.57423 0.56517
 N340 N 0.14286 0.55604 0.57363
 C341 C 0.12697 0.54506 0.56547
 C342 C 0.11845 0.55723 0.55118
 C343 C 0.12964 0.57561 0.55171
 H344 H 0.12277 0.52915 0.56891
 H345 H 0.12828 0.58845 0.54190
 Cu346 Cu 0.16352 0.54868 0.59318
 Cu347 Cu 0.16859 0.59263 0.56796
 Cu348 Cu 0.21221 0.56395 0.57955
 N349 N 0.18816 0.54308 0.60914
 N350 N 0.20720 0.54820 0.60286
 C351 C 0.22136 0.54448 0.61647
 C352 C 0.21082 0.53713 0.63244
 C353 C 0.18966 0.53620 0.62734
 H354 H 0.23795 0.54857 0.61542
 H355 H 0.17632 0.53221 0.63651
 N356 N 0.21395 0.58929 0.56414
 N357 N 0.19734 0.60131 0.56125
 C358 C 0.20352 0.61841 0.55174
 C359 C 0.22507 0.61691 0.54843
 C360 C 0.23125 0.59835 0.55650
 H361 H 0.19302 0.63075 0.54732
 H362 H 0.24718 0.59217 0.55722
 H363 H 0.18306 0.56441 0.56655
 H364 H 0.18652 0.57910 0.58967
 N365 N 0.59387 0.69319 0.04560
 N366 N 0.59035 0.71102 0.05493
 C367 C 0.60699 0.72371 0.05232
 C368 C 0.62180 0.71348 0.04066
 C369 C 0.61297 0.69410 0.03651
 H370 H 0.60851 0.73909 0.05892
 H371 H 0.62022 0.68135 0.02829
 Cu372 Cu 0.56499 0.71612 0.07072
 Cu373 Cu 0.57359 0.67003 0.04787
 Cu374 Cu 0.54750 0.67347 0.09225
 N375 N 0.54400 0.71808 0.09156
 N376 N 0.53748 0.70118 0.10030
 C377 C 0.52477 0.70675 0.11530
 C378 C 0.52305 0.72834 0.11585
 C379 C 0.53547 0.73505 0.10057
 H380 H 0.51789 0.69593 0.12539
 H381 H 0.53892 0.75107 0.09693
 N382 N 0.55021 0.64732 0.07688
 N383 N 0.55865 0.64605 0.05938
 C384 C 0.55475 0.62683 0.05181
 C385 C 0.54341 0.61562 0.06537
 C386 C 0.54100 0.62903 0.08101
 H387 H 0.55927 0.62165 0.03743
 H388 H 0.53191 0.62613 0.09400
 H389 H 0.54774 0.68273 0.06425
 H390 H 0.57415 0.67937 0.07533
 N391 N 0.70928 0.20069 0.63256
 N392 N 0.72235 0.18527 0.63626
 C393 C 0.73913 0.18616 0.62401
 C394 C 0.73623 0.20297 0.61204
 C395 C 0.71715 0.21176 0.61785
 H396 H 0.75227 0.17526 0.62362
 H397 H 0.70946 0.22512 0.61168
 Cu398 Cu 0.71603 0.16538 0.65659
 Cu399 Cu 0.68295 0.20543 0.64677
 Cu400 Cu 0.67160 0.17202 0.68376
 N401 N 0.71205 0.15141 0.68117
 N402 N 0.69519 0.15540 0.69200
 C403 C 0.69633 0.14471 0.70830
 C404 C 0.71467 0.13305 0.70767
 C405 C 0.72437 0.13746 0.69019
 H406 H 0.68426 0.14483 0.71954
 H407 H 0.73920 0.13117 0.68458
 N408 N 0.65265 0.19486 0.67696
 N409 N 0.65704 0.20763 0.66280
 C410 C 0.64165 0.22214 0.66210
 C411 C 0.62703 0.21841 0.67660
 C412 C 0.63440 0.20099 0.68579
 H413 H 0.64130 0.23487 0.65212
 H414 H 0.62734 0.19367 0.69822
 H415 H 0.69326 0.19197 0.67175
 H416 H 0.67842 0.17513 0.65439
 N417 N 1.09333 0.04565 0.20962
 N418 N 1.08651 0.02782 0.20228
 C419 C 1.10068 0.01263 0.20536
 C420 C 1.11738 0.02119 0.21520
 C421 C 1.11225 0.04223 0.21782
 H422 H 1.09924 -0.00339 0.20025
 H423 H 1.12185 0.05423 0.22448
 Cu424 Cu 1.06050 0.02567 0.18810
 Cu425 Cu 1.07698 0.07168 0.20648
 Cu426 Cu 1.04846 0.06859 0.16440
 N427 N 1.04019 0.02484 0.16760
 N428 N 1.03563 0.04183 0.15818
 C429 C 1.02330 0.03674 0.14329
 C430 C 1.02001 0.01537 0.14340
 C431 C 1.03092 0.00827 0.15903
 H432 H 1.01826 0.04757 0.13254
 H433 H 1.03315 -0.00784 0.16306
 N434 N 1.05454 0.09517 0.17790
 N435 N 1.06436 0.09662 0.19446
 C436 C 1.06243 0.11649 0.20135
 C437 C 1.05079 0.12785 0.18840
 C438 C 1.04626 0.11387 0.17376
 H439 H 1.06800 0.12193 0.21516
 H440 H 1.03617 0.11672 0.16170
 H441 H 1.04877 0.06174 0.19320
 H442 H 1.07474 0.05995 0.18003
 N443 N 0.05813 0.14673 1.06516
 N444 N 0.04457 0.15130 1.07922
 C445 C 0.03052 0.13578 1.08093
 C446 C 0.03531 0.12043 1.06737
 C447 C 0.05301 0.12779 1.05746
 H448 H 0.01768 0.13562 1.09144
 H449 H 0.06159 0.11995 1.04579
 Cu450 Cu 0.04604 0.17664 1.09490
 Cu451 Cu 0.08144 0.16623 1.05929
 Cu452 Cu 0.06854 0.21726 1.07362
 N453 N 0.04228 0.20483 1.10526
 N454 N 0.05082 0.22094 1.09666
 C455 C 0.04586 0.23855 1.10674
 C456 C 0.03365 0.23309 1.12257
 C457 C 0.03167 0.21156 1.12117
 H458 H 0.05137 0.25404 1.10321
 H459 H 0.02354 0.20150 1.13120
 N460 N 0.09264 0.21017 1.05624
 N461 N 0.09821 0.19089 1.05103
 C462 C 0.11738 0.19152 1.04202
 C463 C 0.12409 0.21218 1.04187
 C464 C 0.10800 0.22342 1.05090
 H465 H 0.12648 0.17791 1.03739
 H466 H 0.10827 0.23991 1.05472
 H467 H 0.07990 0.18841 1.08203
 H468 H 0.05895 0.18766 1.06345
 N469 N 0.16022 0.69970 0.67010
 N470 N 0.15777 0.69215 0.68744
 C471 C 0.13998 0.70053 0.69563
 C472 C 0.13109 0.71401 0.68257
 C473 C 0.14429 0.71291 0.66660
 H474 H 0.13443 0.69767 0.71012
 H475 H 0.14289 0.72177 0.65360
 Cu476 Cu 0.17907 0.67287 0.69726
 Cu477 Cu 0.18469 0.69351 0.65363
 Cu478 Cu 0.22849 0.67943 0.67924
 N479 N 0.20307 0.65681 0.70675
 N480 N 0.22237 0.66043 0.70020
 C481 C 0.23613 0.64818 0.70928
 C482 C 0.22494 0.63582 0.72191
 C483 C 0.20391 0.64162 0.71996
 H484 H 0.25299 0.64762 0.70625
 H485 H 0.19034 0.63520 0.72746
 N486 N 0.23048 0.69085 0.65310
 N487 N 0.21359 0.69573 0.64324
 C488 C 0.21972 0.70273 0.62592
 C489 C 0.24156 0.70198 0.62470
 C490 C 0.24792 0.69427 0.64212
 H491 H 0.20905 0.70786 0.61498
 H492 H 0.26399 0.69129 0.64643
 H493 H 0.20103 0.66970 0.66798
 H494 H 0.20062 0.69689 0.67831
 N495 N 1.19944 0.16224 0.20566
 N496 N 1.21353 0.15525 0.19295
 C497 C 1.22075 0.13647 0.19856
 C498 C 1.21039 0.13165 0.21559
 C499 C 1.19716 0.14833 0.21970
 H500 H 1.23172 0.12655 0.19043
 H501 H 1.18580 0.14962 0.23147
 Cu502 Cu 1.21866 0.17066 0.16950
 Cu503 Cu 1.18226 0.18683 0.20187
 Cu504 Cu 1.19049 0.21400 0.15981
 N505 N 1.22392 0.18645 0.14635
 N506 N 1.21269 0.20317 0.14243
 C507 C 1.21851 0.21003 0.12494
 C508 C 1.23421 0.19689 0.11763
 C509 C 1.23733 0.18221 0.13155
 H510 H 1.21146 0.22318 0.11787
 H511 H 1.24807 0.16900 0.13059
 N512 N 1.16895 0.22219 0.17948
 N513 N 1.16620 0.21185 0.19556
 C514 C 1.14925 0.21962 0.20521
 C515 C 1.14089 0.23556 0.19476
 C516 C 1.15376 0.23701 0.17859
 H517 H 1.14269 0.21339 0.21834
 H518 H 1.15142 0.24717 0.16657
 H519 H 1.18332 0.18584 0.17196
 H520 H 1.20365 0.20241 0.18402
 N521 N 0.65242 1.05562 0.58494
 N522 N 0.65277 1.06459 0.56800
 C523 C 0.63463 1.05991 0.55890
 C524 C 0.62249 1.04744 0.57079
 C525 C 0.63418 1.04513 0.58710
 H526 H 0.63102 1.06428 0.54440
 H527 H 0.63027 1.03534 0.59915
 Cu528 Cu 0.67795 1.07960 0.55814
 Cu529 Cu 0.67682 1.05430 0.60204
 Cu530 Cu 0.72176 1.07274 0.58379
 N531 N 0.70406 1.09516 0.55291
 N532 N 0.72151 1.09137 0.56230
 C533 C 0.73707 1.10372 0.55574
 C534 C 0.72902 1.11602 0.54162
 C535 C 0.70797 1.11034 0.54013
 H536 H 0.75288 1.10451 0.56140
 H537 H 0.69640 1.11685 0.53065
 N538 N 0.72196 1.05400 0.60531
 N539 N 0.70408 1.04704 0.61269
 C540 C 0.70811 1.03680 0.62892
 C541 C 0.72970 1.03744 0.63179
 C542 C 0.73801 1.04844 0.61659
 H543 H 0.69614 1.03053 0.63849
 H544 H 0.75431 1.05324 0.61470
 H545 H 0.68405 1.08130 0.58635
 H546 H 0.68956 1.05534 0.57449
 N547 N 0.55977 0.52872 0.14823
 N548 N 0.54960 0.54455 0.14081
 C549 C 0.53567 0.53729 0.12797
 C550 C 0.53709 0.51578 0.12733
 C551 C 0.55249 0.51072 0.14034
 H552 H 0.52472 0.54689 0.12021
 H553 H 0.55780 0.49521 0.14397
 Cu554 Cu 0.55342 0.57306 0.14996
 Cu555 Cu 0.58161 0.53322 0.16750
 Cu556 Cu 0.57992 0.58202 0.19027
 N557 N 0.54901 0.59854 0.16509
 N558 N 0.55929 0.60183 0.18109
 C559 C 0.55263 0.61993 0.18934
 C560 C 0.53715 0.62825 0.17799
 C561 C 0.53521 0.61433 0.16269
 H562 H 0.55813 0.62621 0.20289
 H563 H 0.52421 0.61530 0.15102
 N564 N 0.59660 0.55850 0.19968
 N565 N 0.59827 0.54016 0.19065
 C566 C 0.61233 0.52825 0.19998
 C567 C 0.61934 0.53963 0.21574
 C568 C 0.60898 0.55857 0.21515
 H569 H 0.61717 0.51259 0.19561
 H570 H 0.61103 0.57175 0.22490
 H571 H 0.56336 0.55662 0.17952
 H572 H 0.58715 0.56477 0.16542
 N573 N 0.64878 0.69352 0.17868
 N574 N 0.65266 0.70664 0.16473
 C575 C 0.63768 0.72157 0.16483
 C576 C 0.62353 0.71762 0.17955
 C577 C 0.63088 0.69964 0.18808
 H578 H 0.63722 0.73445 0.15499
 H579 H 0.62405 0.69190 0.20039
 Cu580 Cu 0.67684 0.70345 0.14760
 Cu581 Cu 0.66836 0.67039 0.18373
 Cu582 Cu 0.71908 0.68385 0.16869
 N583 N 0.70431 0.70403 0.13510
 N584 N 0.72103 0.69633 0.14345
 C585 C 0.73784 0.69764 0.13141
 C586 C 0.73115 0.70651 0.11463
 C587 C 0.70981 0.71050 0.11746
 H588 H 0.75347 0.69164 0.13428
 H589 H 0.69893 0.71663 0.10715
 N590 N 0.71318 0.66298 0.18847
 N591 N 0.69400 0.65635 0.19313
 C592 C 0.69577 0.63954 0.20448
 C593 C 0.71713 0.63575 0.20711
 C594 C 0.72758 0.65095 0.19692
 H595 H 0.68260 0.63058 0.21005
 H596 H 0.74452 0.65224 0.19471
 H597 H 0.68934 0.69307 0.17904
 H598 H 0.69082 0.67128 0.16087
 N599 N 0.13498 0.04696 1.06875
 N600 N 0.13969 0.03267 1.08128
 C601 C 0.12668 0.01622 1.07898
 C602 C 0.11295 0.02065 1.06437
 C603 C 0.11853 0.04034 1.05824
 H604 H 0.12679 0.00235 1.08763
 H605 H 0.11127 0.04917 1.04701
 Cu606 Cu 0.16122 0.03793 1.10029
 Cu607 Cu 0.15080 0.07284 1.06730
 Cu608 Cu 0.19915 0.07345 1.09084
 N609 N 0.18688 0.03935 1.11492
 N610 N 0.20157 0.05352 1.11184
 C611 C 0.21768 0.05024 1.12397
 C612 C 0.21269 0.03295 1.13485
 C613 C 0.19320 0.02642 1.12864
 H614 H 0.23231 0.05899 1.12412
 H615 H 0.18451 0.01288 1.13345
 N616 N 0.19263 0.09212 1.06922
 N617 N 0.17400 0.09190 1.06088
 C618 C 0.17455 0.10458 1.04579
 C619 C 0.19434 0.11335 1.04443
 C620 C 0.20550 0.10535 1.05960
 H621 H 0.16174 0.10650 1.03587
 H622 H 0.22197 0.10813 1.06274
 H623 H 0.17786 0.05652 1.07430
 H624 H 0.16738 0.07506 1.09319
 N625 N 0.60170 0.20112 0.57362
 N626 N 0.60132 0.18928 0.55795
 C627 C 0.62059 0.18956 0.54926
 C628 C 0.63365 0.20206 0.56032
 C629 C 0.62123 0.20894 0.57570
 H630 H 0.62469 0.18155 0.53586
 H631 H 0.62579 0.21964 0.58712
 Cu632 Cu 0.57554 0.17472 0.55085
 Cu633 Cu 0.57663 0.20692 0.58954
 Cu634 Cu 0.52961 0.19478 0.56753
 N635 N 0.54915 0.15927 0.54846
 N636 N 0.53110 0.16753 0.55463
 C637 C 0.51547 0.15361 0.55202
 C638 C 0.52420 0.13559 0.54399
 C639 C 0.54561 0.13967 0.54179
 H640 H 0.49913 0.15608 0.55647
 H641 H 0.55777 0.12898 0.53646
 N642 N 0.53133 0.21493 0.58900
 N643 N 0.54911 0.21879 0.59806
 C644 C 0.54483 0.23127 0.61345
 C645 C 0.52328 0.23522 0.61415
 C646 C 0.51522 0.22470 0.59841
 H647 H 0.55637 0.23635 0.62382
 H648 H 0.49872 0.22315 0.59477
 H649 H 0.55570 0.18409 0.58020
 H650 H 0.56056 0.20716 0.56474
 N651 N 0.09220 0.58400 0.70041
 N652 N 0.09442 0.56559 0.69188
 C653 C 0.10850 0.55417 0.70146
 C654 C 0.11534 0.56615 0.71681
 C655 C 0.10472 0.58498 0.71579
 H656 H 0.11375 0.53857 0.69732
 H657 H 0.10654 0.59862 0.72506
 Cu658 Cu 0.08007 0.55888 0.66830
 Cu659 Cu 0.07484 0.60572 0.68974
 Cu660 Cu 0.03593 0.58670 0.65956
 N661 N 0.06088 0.55061 0.64838
 N662 N 0.04367 0.56133 0.64469
 C663 C 0.03368 0.55178 0.62999
 C664 C 0.04540 0.53423 0.62438
 C665 C 0.06247 0.53401 0.63633
 H666 H 0.01922 0.55732 0.62371
 H667 H 0.07527 0.52272 0.63607
 N668 N 0.03465 0.61491 0.67205
 N669 N 0.04985 0.62196 0.68320
 C670 C 0.04485 0.64126 0.68977
 C671 C 0.02559 0.64680 0.68243
 C672 C 0.01951 0.62982 0.67116
 H673 H 0.05445 0.65050 0.69942
 H674 H 0.00513 0.62842 0.66305
 H675 H 0.05410 0.58224 0.68380
 H676 H 0.06675 0.59411 0.66219
 N677 N 0.64927 0.51971 0.05745
 N678 N 0.64168 0.53685 0.05003
 C679 C 0.62302 0.53259 0.04184
 C680 C 0.61886 0.51156 0.04422
 C681 C 0.63587 0.50381 0.05406
 H682 H 0.61317 0.54397 0.03492
 H683 H 0.63800 0.48801 0.05898
 Cu684 Cu 0.65731 0.56277 0.05155
 Cu685 Cu 0.67547 0.51997 0.07162
 Cu686 Cu 0.69655 0.56870 0.08309
 N687 N 0.67926 0.58347 0.04820
 N688 N 0.69458 0.58650 0.06048
 C689 C 0.70755 0.60162 0.05375
 C690 C 0.69988 0.60785 0.03621
 C691 C 0.68201 0.59606 0.03325
 H692 H 0.72180 0.60697 0.06065
 H693 H 0.67189 0.59634 0.02089
 N694 N 0.70202 0.54353 0.09833
 N695 N 0.69489 0.52491 0.09301
 C696 C 0.69864 0.51125 0.10690
 C697 C 0.70836 0.52163 0.12180
 C698 C 0.71052 0.54212 0.11592
 H699 H 0.69276 0.49536 0.10701
 H700 H 0.71616 0.55526 0.12439
 H701 H 0.66899 0.54973 0.08207
 H702 H 0.69010 0.54725 0.06305
 N703 N 0.04520 0.72941 0.58508
 N704 N 0.03428 0.71464 0.59354
 C705 C 0.02143 0.72342 0.60710
 C706 C 0.02435 0.74487 0.60684
 C707 C 0.03941 0.74814 0.59259
 H708 H 0.01209 0.71475 0.61739
 H709 H 0.04735 0.76272 0.58957
 Cu710 Cu 0.04043 0.68519 0.58825
 Cu711 Cu 0.06972 0.72250 0.56913
 Cu712 Cu 0.07575 0.67420 0.55037
 N713 N 0.04108 0.65827 0.57383
 N714 N 0.05352 0.65425 0.55871
 C715 C 0.04784 0.63567 0.55078
 C716 C 0.03104 0.62781 0.56154
 C717 C 0.02732 0.64246 0.57599
 H718 H 0.05512 0.62860 0.53803
 H719 H 0.01480 0.64210 0.58679
 N720 N 0.10009 0.69343 0.55276
 N721 N 0.09731 0.71196 0.56104
 C722 C 0.11605 0.72146 0.56299
 C723 C 0.13157 0.70856 0.55518
 C724 C 0.12098 0.69085 0.54859
 H725 H 0.11825 0.73667 0.56976
 H726 H 0.12800 0.67687 0.54212
 H727 H 0.04894 0.69201 0.56039
 H728 H 0.07082 0.68540 0.57688
 N729 N 0.53855 1.04759 0.64833
 N730 N 0.52114 1.05697 0.65459
 C731 C 0.50493 1.05109 0.64346
 C732 C 0.51271 1.03757 0.62924
 C733 C 0.53414 1.03559 0.63279
 H734 H 0.48889 1.05696 0.64511
 H735 H 0.54569 1.02648 0.62453
 Cu736 Cu 0.52134 1.07717 0.67588
 Cu737 Cu 0.56517 1.05214 0.66130
 Cu738 Cu 0.57055 1.09237 0.69269
 N739 N 0.52596 1.10334 0.69064
 N740 N 0.54466 1.10979 0.69654
 C741 C 0.54268 1.12965 0.70346
 C742 C 0.52176 1.13587 0.70149
 C743 C 0.51170 1.11877 0.69351
 H744 H 0.55563 1.13915 0.70858
 H745 H 0.49542 1.11805 0.68898
 N746 N 0.59029 1.06841 0.69229
 N747 N 0.58768 1.05283 0.67992
 C748 C 0.60283 1.03844 0.68227
 C749 C 0.61587 1.04518 0.69679
 C750 C 0.60755 1.06439 0.70292
 H751 H 0.60433 1.02404 0.67391
 H752 H 0.61353 1.07459 0.71413
 H753 H 0.54947 1.06970 0.68964
 H754 H 0.55152 1.08711 0.66848
 N755 N 0.44174 0.35268 0.93141
 N756 N 0.42273 0.34819 0.93814
 C757 C 0.41543 0.36437 0.94901
 C758 C 0.43079 0.37974 0.94931
 C759 C 0.44733 0.37185 0.93798
 H760 H 0.40039 0.36466 0.95671
 H761 H 0.46238 0.37927 0.93499
 Cu762 Cu 0.40992 0.32095 0.93360
 Cu763 Cu 0.45785 0.33267 0.91535
 Cu764 Cu 0.42855 0.29084 0.89739
 N765 N 0.40094 0.29197 0.93046
 N766 N 0.40792 0.28026 0.91593
 C767 C 0.39792 0.26167 0.91614
 C768 C 0.38410 0.26169 0.93178
 C769 C 0.38643 0.28115 0.94056
 H770 H 0.40019 0.24927 0.90549
 H771 H 0.37763 0.28725 0.95293
 N772 N 0.45573 0.29965 0.88602
 N773 N 0.46727 0.31506 0.89313
 C774 C 0.48463 0.31745 0.88182
 C775 C 0.48386 0.30284 0.86693
 C776 C 0.46539 0.29181 0.87007
 H777 H 0.49643 0.32950 0.88376
 H778 H 0.45915 0.27936 0.86112
 H779 H 0.43021 0.32321 0.90352
 H780 H 0.44209 0.30437 0.92043
 N781 N 0.94179 0.44720 0.36460
 N782 N 0.92770 0.46116 0.35952
 C783 C 0.92738 0.47700 0.37259
 C784 C 0.94210 0.47270 0.38647
 C785 C 0.95098 0.45370 0.38094
 H786 H 0.91719 0.49061 0.37207
 H787 H 0.96299 0.44510 0.38838
 Cu788 Cu 0.91107 0.45758 0.33628
 Cu789 Cu 0.94674 0.42131 0.35014
 Cu790 Cu 0.92348 0.41733 0.30598
 N791 N 0.90091 0.45621 0.30992
 N792 N 0.90681 0.44093 0.29805
 C793 C 0.89766 0.44346 0.28102
 C794 C 0.88506 0.46106 0.28223
 C795 C 0.88738 0.46887 0.30079
 H796 H 0.89907 0.43264 0.26891
 H797 H 0.87942 0.48233 0.30726
 N798 N 0.94071 0.39490 0.31638
 N799 N 0.94969 0.39637 0.33329
 C800 C 0.96110 0.37890 0.33607
 C801 C 0.95910 0.36593 0.32013
 C802 C 0.94605 0.37645 0.30795
 H803 H 0.97061 0.37602 0.34850
 H804 H 0.94135 0.37130 0.29378
 H805 H 0.94061 0.43612 0.32485
 H806 H 0.91859 0.42016 0.33562
 N807 N 0.30304 0.93122 0.39097
 N808 N 0.32092 0.94122 0.38795
 C809 C 0.31750 0.95765 0.37676
 C810 C 0.29644 0.95786 0.37225
 C811 C 0.28757 0.94074 0.38122
 H812 H 0.32944 0.96882 0.37246
 H813 H 0.27106 0.93629 0.38154
 Cu814 Cu 0.34700 0.93321 0.39968
 Cu815 Cu 0.30175 0.90859 0.40956
 Cu816 Cu 0.33979 0.91719 0.44440
 N817 N 0.37007 0.93296 0.41725
 N818 N 0.36722 0.92746 0.43520
 C819 C 0.38453 0.93277 0.44519
 C820 C 0.39868 0.94233 0.43270
 C821 C 0.38915 0.94183 0.41506
 H822 H 0.38594 0.93135 0.46057
 H823 H 0.39474 0.94919 0.40206
 N824 N 0.31411 0.90003 0.44852
 N825 N 0.30046 0.89547 0.43491
 C826 C 0.28629 0.88154 0.44165
 C827 C 0.29115 0.87754 0.46049
 C828 C 0.30874 0.88951 0.46438
 H829 H 0.27348 0.87485 0.43348
 H830 H 0.31762 0.88966 0.47752
 H831 H 0.31963 0.92885 0.42431
 H832 H 0.33363 0.90383 0.41812
 O833 O 0.25148 0.55499 0.74013
 O834 O 0.28359 0.53894 0.74183
 O835 O 0.21308 0.51198 0.70746
 O836 O 0.20078 0.47983 0.71010
 O837 O 0.18875 0.54078 0.76140
 O838 O 0.19444 0.53485 0.79400
 O839 O 0.24641 0.43931 0.75338
 O840 O 0.24651 0.44932 0.72191
 O841 O 0.28599 0.47949 0.78372
 O842 O 0.28971 0.51712 0.78736
 O843 O 0.22483 0.46812 0.80571
 O844 O 0.18956 0.47946 0.79827
 O845 O 0.22283 0.44399 0.77820
 O846 O 0.18557 0.46162 0.77368
 O847 O 0.25682 0.48383 0.80884
 O848 O 0.26542 0.52281 0.80625
 O849 O 0.28023 0.45756 0.75826
 O850 O 0.27799 0.47006 0.72426
 O851 O 0.22494 0.56044 0.76229
 O852 O 0.22464 0.54889 0.79617
 O853 O 0.18292 0.51985 0.73528
 O854 O 0.18025 0.48038 0.73441
 O855 O 0.24461 0.52865 0.71061
 O856 O 0.27986 0.51389 0.71900
 Zr857 Zr 0.25488 0.52234 0.73851
 O858 O 0.26803 0.49765 0.75390
 Zr859 Zr 0.20840 0.49829 0.73450
 O860 O 0.22014 0.47191 0.74865
 Zr861 Zr 0.21743 0.52999 0.77191
 O862 O 0.22814 0.50474 0.78828
 Zr863 Zr 0.25318 0.46985 0.74525
 O864 O 0.24110 0.49428 0.72863
 Zr865 Zr 0.26083 0.50104 0.78340
 O866 O 0.25039 0.52747 0.76830
 Zr867 Zr 0.21509 0.47634 0.77830
 O868 O 0.20166 0.50212 0.76407
 O869 O 0.22242 0.52636 0.74244
 O870 O 0.24759 0.47280 0.77473
 C871 C 0.23884 0.56697 0.75001
 C872 C 0.22845 0.52302 0.70082
 C873 C 0.17784 0.53503 0.74693
 C874 C 0.23524 0.43251 0.76748
 C875 C 0.29074 0.46349 0.77302
 C876 C 0.24187 0.47183 0.81487
 H877 H 0.28348 0.49695 0.75133
 H878 H 0.22460 0.50744 0.80200
 H879 H 0.21680 0.53806 0.73493
 H880 H 0.21330 0.45902 0.74375
 H881 H 0.24444 0.45820 0.71061
 H882 H 0.20961 0.46707 0.71060
 H883 H 0.25294 0.52216 0.81501
 H884 H 0.23970 0.55294 0.79474
 H885 H 0.28453 0.45593 0.72374
 H886 H 0.28180 0.52521 0.70959
 H887 H 0.19281 0.49145 0.80692
 H888 H 0.18440 0.52303 0.79298
 H889 H 0.28488 0.54210 0.75573
 H890 H 0.29805 0.51574 0.77524
 H891 H 0.17191 0.48464 0.74603
 H892 H 0.18794 0.44959 0.76473
 O893 O 0.19400 0.01510 0.24959
 O894 O 0.19666 0.01359 0.28295
 O895 O 0.24317 0.05522 0.23099
 O896 O 0.27825 0.05704 0.23143
 O897 O 0.23583 -0.00698 0.20375
 O898 O 0.24376 -0.04130 0.21275
 O899 O 0.30497 0.01586 0.28645
 O900 O 0.29117 0.04878 0.28045
 O901 O 0.25721 -0.02128 0.30805
 O902 O 0.22112 -0.03007 0.29855
 O903 O 0.29484 -0.04363 0.26246
 O904 O 0.29638 -0.03810 0.22763
 O905 O 0.31419 -0.01044 0.26540
 O906 O 0.31140 -0.00997 0.22866
 O907 O 0.26827 -0.04902 0.28422
 O908 O 0.22890 -0.05207 0.27795
 O909 O 0.27485 0.00967 0.30887
 O910 O 0.25975 0.04435 0.29988
 O911 O 0.20292 -0.01164 0.22884
 O912 O 0.21979 -0.04577 0.23272
 O913 O 0.25192 0.02479 0.20427
 O914 O 0.28935 0.03058 0.21493
 O915 O 0.21595 0.04953 0.25205
 O916 O 0.21688 0.04294 0.28663
 Zr917 Zr 0.22237 0.02050 0.26417
 O918 O 0.24266 0.00802 0.28467
 Zr919 Zr 0.26213 0.02818 0.23294
 O920 O 0.28423 0.01681 0.25261
 Zr921 Zr 0.23573 -0.01672 0.23234
 O922 O 0.25717 -0.03052 0.25120
 Zr923 Zr 0.27283 0.02111 0.28090
 O924 O 0.25211 0.03516 0.26145
 Zr925 Zr 0.24694 -0.02424 0.27962
 O926 O 0.22436 -0.01227 0.26062
 Zr927 Zr 0.28683 -0.01578 0.24896
 O928 O 0.26619 -0.00420 0.22797
 O929 O 0.23211 0.01545 0.23573
 O930 O 0.27688 -0.01104 0.27729
 C931 C 0.18950 0.00151 0.23643
 C932 C 0.22591 0.06076 0.23981
 C933 C 0.24246 0.00965 0.19554
 C934 C 0.31823 0.00231 0.27940
 C935 C 0.26812 -0.00715 0.31668
 C936 C 0.28619 -0.05381 0.27621
 H937 H 0.23686 0.01113 0.29771
 H938 H 0.25821 -0.04570 0.24835
 H939 H 0.22228 0.02168 0.22651
 H940 H 0.29803 0.02384 0.25086
 H941 H 0.28217 0.05971 0.27483
 H942 H 0.28762 0.05778 0.24263
 H943 H 0.23572 -0.06150 0.26822
 H944 H 0.21099 -0.04575 0.24464
 H945 H 0.27011 0.04711 0.31015
 H946 H 0.20340 0.05041 0.28426
 H947 H 0.28618 -0.04980 0.22805
 H948 H 0.25857 -0.03877 0.20852
 H949 H 0.19441 -0.00172 0.28212
 H950 H 0.21743 -0.01672 0.30524
 H951 H 0.29067 0.01721 0.20757
 H952 H 0.31863 0.00309 0.23261
 O953 O 0.55146 0.72904 0.22009
 O954 O 0.55468 0.72099 0.25206
 O955 O 0.49080 0.70407 0.20478
 O956 O 0.45645 0.70900 0.21382
 O957 O 0.50886 0.76671 0.18854
 O958 O 0.50921 0.79930 0.20475
 O959 O 0.45113 0.73805 0.27840
 O960 O 0.45811 0.70585 0.26540
 O961 O 0.51232 0.76091 0.29556
 O962 O 0.54540 0.76659 0.28000
 O963 O 0.47042 0.80039 0.26570
 O964 O 0.46079 0.80419 0.23374
 O965 O 0.44434 0.76987 0.26572
 O966 O 0.44169 0.77865 0.22932
 O967 O 0.50166 0.79506 0.28050
 O968 O 0.53915 0.79238 0.26524
 O969 O 0.48493 0.73796 0.29583
 O970 O 0.49220 0.70261 0.27897
 O971 O 0.54498 0.76049 0.20646
 O972 O 0.53677 0.79558 0.22051
 O973 O 0.48583 0.73947 0.18735
 O974 O 0.44985 0.73974 0.20487
 O975 O 0.52265 0.69941 0.21879
 O976 O 0.52839 0.69679 0.25406
 Zr977 Zr 0.52524 0.72480 0.23846
 O978 O 0.51324 0.73613 0.26504
 Zr979 Zr 0.47963 0.73256 0.21656
 O980 O 0.46522 0.74282 0.24266
 Zr981 Zr 0.51528 0.77041 0.21788
 O982 O 0.50162 0.78326 0.24333
 Zr983 Zr 0.48065 0.73027 0.26638
 O984 O 0.49287 0.71726 0.24018
 Zr985 Zr 0.51567 0.76884 0.26669
 O986 O 0.53062 0.75728 0.24130
 Zr987 Zr 0.46936 0.77528 0.24569
 O988 O 0.48232 0.76535 0.21858
 O989 O 0.51184 0.73827 0.21469
 O990 O 0.48346 0.76258 0.26954
 C991 C 0.55645 0.74408 0.20892
 C992 C 0.50807 0.69386 0.20709
 C993 C 0.49773 0.75325 0.17930
 C994 C 0.43973 0.75452 0.27680
 C995 C 0.49858 0.74969 0.30431
 C996 C 0.48422 0.80507 0.27838
 H997 H 0.52072 0.72932 0.27561
 H998 H 0.50361 0.79859 0.24366
 H999 H 0.51841 0.73261 0.20266
 H1000 H 0.45011 0.73883 0.24261
 H1001 H 0.46380 0.69510 0.25623
 H1002 H 0.45215 0.70529 0.22703
 H1003 H 0.53239 0.80537 0.26083
 H1004 H 0.54819 0.79084 0.22896
 H1005 H 0.48384 0.70036 0.29094
 H1006 H 0.53853 0.68736 0.24705
 H1007 H 0.47406 0.81112 0.22970
 H1008 H 0.49371 0.79998 0.20294
 H1009 H 0.56047 0.73519 0.25427
 H1010 H 0.54816 0.75156 0.28206
 H1011 H 0.45110 0.75376 0.19917
 H1012 H 0.43210 0.76693 0.23244
 O1013 O -0.00680 0.73184 0.70099
 O1014 O -0.03916 0.74540 0.71146
 O1015 O 0.02530 0.78650 0.67891
 O1016 O 0.03878 0.81628 0.68934
 O1017 O 0.05795 0.74337 0.71790
 O1018 O 0.05573 0.73933 0.75175
 O1019 O -0.00493 0.83825 0.74830
 O1020 O -0.00593 0.83896 0.71444
 O1021 O -0.03868 0.78942 0.76838
 O1022 O -0.04094 0.75148 0.75998
 O1023 O 0.02374 0.79697 0.78576
 O1024 O 0.05832 0.79002 0.77212
 O1025 O 0.02359 0.82864 0.76559
 O1026 O 0.06012 0.81414 0.75342
 O1027 O -0.00717 0.77895 0.78732
 O1028 O -0.01514 0.74238 0.77483
 O1029 O -0.03605 0.81788 0.74943
 O1030 O -0.03699 0.81671 0.71349
 O1031 O 0.02165 0.72189 0.71827
 O1032 O 0.02719 0.72272 0.75293
 O1033 O 0.05919 0.77169 0.69868
 O1034 O 0.06104 0.80959 0.70972
 O1035 O -0.00310 0.76472 0.67978
 O1036 O -0.03751 0.77607 0.69502
 Zr1037 Zr -0.01113 0.76338 0.70926
 O1038 O -0.02344 0.78173 0.73237
 Zr1039 Zr 0.03357 0.79084 0.70774
 O1040 O 0.02285 0.81091 0.73018
 Zr1041 Zr 0.03016 0.74865 0.73470
 O1042 O 0.01994 0.76692 0.75875
 Zr1043 Zr -0.01031 0.81176 0.73091
 O1044 O 0.00044 0.79415 0.70670
 Zr1045 Zr -0.01325 0.77002 0.75863
 O1046 O -0.00313 0.74996 0.73559
 Zr1047 Zr 0.03119 0.79775 0.75633
 O1048 O 0.04392 0.77861 0.73374
 O1049 O 0.02172 0.76062 0.70845
 O1050 O -0.00157 0.80025 0.75734
 C1051 C 0.00694 0.71824 0.70606
 C1052 C 0.01118 0.77518 0.67076
 C1053 C 0.06653 0.75416 0.70444
 C1054 C 0.00868 0.84153 0.76148
 C1055 C -0.04459 0.80776 0.76324
 C1056 C 0.00781 0.78958 0.79505
 H1057 H -0.03906 0.78233 0.73172
 H1058 H 0.02487 0.76040 0.77062
 H1059 H 0.02685 0.75191 0.69739
 H1060 H 0.02873 0.82512 0.72862
 H1061 H -0.00533 0.83424 0.70081
 H1062 H 0.02931 0.82768 0.69404
 H1063 H -0.00153 0.74065 0.78143
 H1064 H 0.01194 0.71919 0.75353
 H1065 H -0.04358 0.83022 0.71761
 H1066 H -0.04055 0.76705 0.68365
 H1067 H 0.05631 0.77565 0.77682
 H1068 H 0.06544 0.75144 0.75246
 H1069 H -0.03822 0.73740 0.72344
 H1070 H -0.05119 0.75728 0.75092
 H1071 H 0.07087 0.80234 0.71829
 H1072 H 0.05715 0.82763 0.74727
 O1073 O 0.03861 0.01157 0.02770
 O1074 O 0.03456 0.01673 -0.00534
 O1075 O -0.01368 0.04309 0.05424
 O1076 O -0.04892 0.04213 0.05466
 O1077 O 0.00119 -0.02126 0.06943
 O1078 O -0.00430 -0.05409 0.05431
 O1079 O -0.07333 0.00791 -0.00744
 O1080 O -0.06301 0.04099 0.00533
 O1081 O -0.02422 -0.02027 -0.03528
 O1082 O 0.01231 -0.02645 -0.02984
 O1083 O -0.05669 -0.05264 0.00638
 O1084 O -0.05734 -0.05354 0.04120
 O1085 O -0.07970 -0.02035 0.01117
 O1086 O -0.07448 -0.02748 0.04643
 O1087 O -0.02961 -0.05311 -0.01556
 O1088 O 0.01082 -0.05089 -0.01131
 O1089 O -0.04469 0.00865 -0.03001
 O1090 O -0.03211 0.04263 -0.01589
 O1091 O 0.03280 -0.01871 0.04367
 O1092 O 0.01950 -0.05277 0.03336
 O1093 O -0.01840 0.00827 0.07470
 O1094 O -0.05671 0.01281 0.06617
 O1095 O 0.01377 0.04450 0.03273
 O1096 O 0.01104 0.04405 -0.00285
 Zr1097 Zr 0.00917 0.01754 0.01499
 O1098 O -0.01065 0.00658 -0.00718
 Zr1099 Zr -0.03011 0.01562 0.04746
 O1100 O -0.05176 0.00583 0.02655
 Zr1101 Zr 0.00073 -0.02592 0.03952
 O1102 O -0.01993 -0.03821 0.01887
 Zr1103 Zr -0.04194 0.01577 -0.00071
 O1104 O -0.02198 0.02841 0.02065
 Zr1105 Zr -0.01159 -0.02632 -0.00814
 O1106 O 0.01048 -0.01545 0.01233
 Zr1107 Zr -0.05081 -0.02692 0.02450
 O1108 O -0.03061 -0.01725 0.04682
 O1109 O 0.00096 0.00654 0.04200
 O1110 O -0.04264 -0.01676 -0.00277
 C1111 C 0.04470 -0.00351 0.03834
 C1112 C 0.00289 0.05189 0.04718
 C1113 C -0.00678 -0.00684 0.08047
 C1114 C -0.08527 -0.00689 -0.00128
 C1115 C -0.03737 -0.00631 -0.04076
 C1116 C -0.04675 -0.06066 -0.00821
 H1117 H -0.00587 0.01230 -0.01963
 H1118 H -0.01917 -0.05365 0.01902
 H1119 H 0.01050 0.01193 0.05205
 H1120 H -0.06610 0.01121 0.02985
 H1121 H -0.05467 0.05197 0.01195
 H1122 H -0.05806 0.04455 0.04356
 H1123 H 0.00555 -0.06280 -0.00374
 H1124 H 0.02853 -0.04950 0.02205
 H1125 H -0.04344 0.04620 -0.02493
 H1126 H 0.02370 0.05233 0.00068
 H1127 H -0.04564 -0.06366 0.03889
 H1128 H -0.01889 -0.05333 0.05972
 H1129 H 0.03838 0.00183 -0.00754
 H1130 H 0.01657 -0.01176 -0.03178
 H1131 H -0.05629 -0.00149 0.07135
 H1132 H -0.08228 -0.01404 0.04629
 O1133 O 0.04404 0.53925 0.50603
 O1134 O 0.02977 0.54453 0.47542
 O1135 O -0.00895 0.54612 0.54431
 O1136 O -0.04172 0.53168 0.54730
 O1137 O 0.03275 0.49360 0.54973
 O1138 O 0.03763 0.46117 0.53161
 O1139 O -0.06235 0.49154 0.48864
 O1140 O -0.06445 0.52489 0.50358
 O1141 O -0.01372 0.48821 0.45103
 O1142 O 0.02470 0.49943 0.45166
 O1143 O -0.01974 0.44314 0.49100
 O1144 O -0.01014 0.44062 0.52568
 O1145 O -0.05202 0.46258 0.50457
 O1146 O -0.03638 0.45524 0.53577
 O1147 O 0.00114 0.45567 0.46696
 O1148 O 0.03518 0.47331 0.46376
 O1149 O -0.04211 0.50710 0.46211
 O1150 O -0.04265 0.54124 0.47923
 O1151 O 0.05452 0.51000 0.52153
 O1152 O 0.05541 0.47442 0.50872
 O1153 O 0.00387 0.51192 0.56063
 O1154 O -0.03311 0.50065 0.55865
 O1155 O 0.01113 0.55860 0.51963
 O1156 O -0.00134 0.55993 0.48598
 Zr1157 Zr 0.01219 0.53367 0.49941
 O1158 O -0.00612 0.51690 0.47944
 Zr1159 Zr -0.01515 0.51469 0.53642
 O1160 O -0.03460 0.49709 0.51801
 Zr1161 Zr 0.02812 0.48992 0.51994
 O1162 O 0.01060 0.47128 0.50073
 Zr1163 Zr -0.03634 0.51172 0.49140
 O1164 O -0.01892 0.53074 0.51062
 Zr1165 Zr 0.00678 0.48697 0.47474
 O1166 O 0.02665 0.50453 0.49313
 Zr1167 Zr -0.02038 0.46787 0.51169
 O1168 O -0.00207 0.48451 0.53208
 O1169 O 0.01519 0.51924 0.52566
 O1170 O -0.02372 0.48208 0.48529
 C1171 C 0.05768 0.52859 0.51531
 C1172 C 0.00210 0.56055 0.53627
 C1173 C 0.02194 0.50320 0.56306
 C1174 C -0.06545 0.47300 0.49496
 C1175 C -0.03185 0.49705 0.44879
 C1176 C -0.00990 0.44117 0.47471
 H1177 H -0.00702 0.52487 0.46745
 H1178 H 0.01787 0.45766 0.49877
 H1179 H 0.02384 0.52747 0.53473
 H1180 H -0.04884 0.49558 0.52395
 H1181 H -0.06019 0.53774 0.51067
 H1182 H -0.05437 0.52604 0.54087
 H1183 H 0.03972 0.46277 0.47306
 H1184 H 0.05921 0.48137 0.49655
 H1185 H -0.05645 0.54037 0.47270
 H1186 H 0.00769 0.57232 0.48848
 H1187 H 0.00273 0.43532 0.51884
 H1188 H 0.02555 0.45627 0.53957
 H1189 H 0.03837 0.53258 0.47045
 H1190 H 0.01717 0.51191 0.44707
 H1191 H -0.02643 0.48694 0.56107
 H1192 H -0.04740 0.46542 0.54006
 O1193 O 0.48949 0.05092 0.53068
 O1194 O 0.45791 0.04075 0.51685
 O1195 O 0.51009 -0.00291 0.56077
 O1196 O 0.51364 -0.03774 0.55290
 O1197 O 0.55440 0.02862 0.52615
 O1198 O 0.56131 0.03012 0.49245
 O1199 O 0.48706 -0.05842 0.48922
 O1200 O 0.47661 -0.05590 0.52165
 O1201 O 0.46642 -0.00577 0.46198
 O1202 O 0.46696 0.03300 0.47014
 O1203 O 0.52626 -0.02433 0.45486
 O1204 O 0.56010 -0.01878 0.47380
 O1205 O 0.52043 -0.05378 0.47716
 O1206 O 0.55463 -0.04325 0.49115
 O1207 O 0.50107 -0.00018 0.44838
 O1208 O 0.49666 0.03734 0.45870
 O1209 O 0.45931 -0.03332 0.48119
 O1210 O 0.44982 -0.02973 0.51619
 O1211 O 0.52272 0.05547 0.51813
 O1212 O 0.53705 0.05112 0.48598
 O1213 O 0.54727 0.00111 0.54543
 O1214 O 0.54486 -0.03630 0.53757
 O1215 O 0.48332 0.01953 0.55406
 O1216 O 0.45169 0.01163 0.53425
 Zr1217 Zr 0.48236 0.01961 0.52381
 O1218 O 0.47298 0.00180 0.49969
 Zr1219 Zr 0.52090 -0.01366 0.53347
 O1220 O 0.51302 -0.03317 0.50994
 Zr1221 Zr 0.53087 0.02643 0.50502
 O1222 O 0.52355 0.00876 0.48013
 Zr1223 Zr 0.48077 -0.02976 0.50379
 O1224 O 0.48807 -0.01226 0.52901
 Zr1225 Zr 0.49085 0.01066 0.47554
 O1226 O 0.49854 0.03017 0.49911
 Zr1227 Zr 0.52908 -0.02309 0.48507
 O1228 O 0.53898 -0.00510 0.50915
 O1229 O 0.51446 0.01780 0.52963
 O1230 O 0.49716 -0.02094 0.47911
 C1231 C 0.50590 0.06216 0.52706
 C1232 C 0.49544 0.01022 0.56585
 C1233 C 0.55814 0.01723 0.54076
 C1234 C 0.50354 -0.06470 0.47955
 C1235 C 0.45649 -0.02266 0.46599
 C1236 C 0.51405 -0.01479 0.44327
 H1237 H 0.45759 0.00350 0.49777
 H1238 H 0.53188 0.01376 0.46899
 H1239 H 0.51847 0.02679 0.54070
 H1240 H 0.51642 -0.04787 0.51283
 H1241 H 0.47468 -0.05028 0.53493
 H1242 H 0.50888 -0.04994 0.54520
 H1243 H 0.51157 0.03670 0.45410
 H1244 H 0.52309 0.05653 0.48212
 H1245 H 0.44242 -0.04237 0.51131
 H1246 H 0.44755 0.02159 0.54478
 H1247 H 0.55967 -0.00719 0.46461
 H1248 H 0.56834 0.01629 0.49296
 H1249 H 0.46247 0.04763 0.50487
 H1250 H 0.45347 0.02784 0.47570
 H1251 H 0.55692 -0.03259 0.52903
 H1252 H 0.54956 -0.05323 0.50087
 O1253 O 0.49169 0.54154 0.05060
 O1254 O 0.45497 0.54463 0.04827
 O1255 O 0.50522 0.47852 0.05986
 O1256 O 0.49604 0.44731 0.04655
 O1257 O 0.53943 0.51018 0.01707
 O1258 O 0.53268 0.52020 -0.01483
 O1259 O 0.43930 0.45231 -0.00036
 O1260 O 0.44283 0.44849 0.03240
 O1261 O 0.42499 0.51574 -0.00922
 O1262 O 0.44043 0.54872 0.00089
 O1263 O 0.47110 0.48583 -0.04248
 O1264 O 0.50796 0.47726 -0.03908
 O1265 O 0.46484 0.45225 -0.02386
 O1266 O 0.50537 0.45174 -0.02245
 O1267 O 0.45240 0.51536 -0.03490
 O1268 O 0.46498 0.54952 -0.01855
 O1269 O 0.41938 0.48421 0.00444
 O1270 O 0.42496 0.48071 0.04040
 O1271 O 0.51650 0.54413 0.02657
 O1272 O 0.51358 0.54657 -0.00852
 O1273 O 0.53352 0.47912 0.03157
 O1274 O 0.51603 0.44641 0.02099
 O1275 O 0.48477 0.50684 0.06798
 O1276 O 0.44654 0.51318 0.06148
 Zr1277 Zr 0.47227 0.51684 0.04180
 O1278 O 0.44883 0.50949 0.02169
 Zr1279 Zr 0.50064 0.47445 0.03016
 O1280 O 0.47787 0.46456 0.01030
 Zr1281 Zr 0.50941 0.51895 0.00731
 O1282 O 0.48777 0.51042 -0.01422
 Zr1283 Zr 0.44795 0.47693 0.01797
 O1284 O 0.47012 0.48405 0.03953
 Zr1285 Zr 0.45748 0.52079 -0.00544
 O1286 O 0.47942 0.53089 0.01531
 Zr1287 Zr 0.48506 0.47757 -0.01648
 O1288 O 0.50914 0.48612 0.00302
 O1289 O 0.50255 0.50661 0.03398
 O1290 O 0.45500 0.48850 -0.00908
 C1291 C 0.50801 0.55010 0.04280
 C1292 C 0.49768 0.49206 0.07208
 C1293 C 0.54571 0.49395 0.02601
 C1294 C 0.44781 0.44496 -0.01597
 C1295 C 0.41344 0.49977 -0.00560
 C1296 C 0.45847 0.50077 -0.04673
 H1297 H 0.43492 0.51503 0.02618
 H1298 H 0.49219 0.51653 -0.02659
 H1299 H 0.51333 0.51064 0.04347
 H1300 H 0.47759 0.44909 0.00974
 H1301 H 0.44815 0.45060 0.04559
 H1302 H 0.48284 0.44075 0.04205
 H1303 H 0.47451 0.54649 -0.02971
 H1304 H 0.50203 0.55626 -0.00440
 H1305 H 0.41237 0.47239 0.03679
 H1306 H 0.45011 0.52023 0.07382
 H1307 H 0.51155 0.49196 -0.04180
 H1308 H 0.53540 0.50553 -0.01903
 H1309 H 0.45726 0.55406 0.03732
 H1310 H 0.43249 0.54667 0.01308
 H1311 H 0.52511 0.44987 0.00976
 H1312 H 0.49992 0.43974 -0.01510
 O1313 O 0.72801 0.26887 0.44189
 O1314 O 0.69673 0.26126 0.46092
 O1315 O 0.76800 0.30275 0.47688
 O1316 O 0.78108 0.30054 0.50710
 O1317 O 0.79146 0.24936 0.44695
 O1318 O 0.78914 0.21187 0.45207
 O1319 O 0.74561 0.24470 0.54590
 O1320 O 0.74516 0.28136 0.53919
 O1321 O 0.70301 0.21469 0.51275
 O1322 O 0.69498 0.21309 0.47852
 O1323 O 0.76651 0.19304 0.51287
 O1324 O 0.80027 0.20525 0.49763
 O1325 O 0.77216 0.22226 0.53683
 O1326 O 0.80507 0.22778 0.51760
 O1327 O 0.73261 0.18901 0.50309
 O1328 O 0.71866 0.19356 0.46961
 O1329 O 0.71125 0.24133 0.53336
 O1330 O 0.71067 0.27892 0.52451
 O1331 O 0.75283 0.24422 0.43348
 O1332 O 0.75894 0.20837 0.44090
 O1333 O 0.79899 0.27627 0.46758
 O1334 O 0.80585 0.27624 0.50174
 O1335 O 0.73466 0.29847 0.46565
 O1336 O 0.70282 0.28746 0.48373
 Zr1337 Zr 0.72702 0.26748 0.47226
 O1338 O 0.71786 0.24903 0.49576
 Zr1339 Zr 0.77558 0.27394 0.48935
 O1340 O 0.76847 0.25578 0.51356
 Zr1341 Zr 0.76529 0.23405 0.45948
 O1342 O 0.75773 0.21413 0.48224
 Zr1343 Zr 0.73592 0.25733 0.51975
 O1344 O 0.74336 0.27766 0.49696
 Zr1345 Zr 0.72547 0.21753 0.48996
 O1346 O 0.73255 0.23563 0.46549
 Zr1347 Zr 0.77419 0.22409 0.50671
 O1348 O 0.78375 0.24248 0.48321
 O1349 O 0.75903 0.26539 0.46505
 O1350 O 0.74224 0.22579 0.51429
 C1351 C 0.73923 0.25838 0.42936
 C1352 C 0.75153 0.30925 0.46809
 C1353 C 0.80251 0.26532 0.45216
 C1354 C 0.75957 0.23065 0.54953
 C1355 C 0.70038 0.22521 0.52860
 C1356 C 0.74951 0.18231 0.51096
 H1357 H 0.70257 0.25105 0.49856
 H1358 H 0.76137 0.19960 0.47830
 H1359 H 0.76305 0.27418 0.45405
 H1360 H 0.77665 0.26058 0.52477
 H1361 H 0.74490 0.29456 0.53198
 H1362 H 0.77883 0.29626 0.52055
 H1363 H 0.73167 0.18510 0.46748
 H1364 H 0.74335 0.20680 0.44087
 H1365 H 0.70654 0.27857 0.53831
 H1366 H 0.69785 0.29661 0.47337
 H1367 H 0.79504 0.19480 0.48820
 H1368 H 0.80134 0.21506 0.46034
 H1369 H 0.69755 0.24738 0.45438
 H1370 H 0.68673 0.22602 0.48122
 H1371 H 0.81338 0.26298 0.49854
 H1372 H 0.80513 0.24053 0.52589
 O1373 O 0.75412 0.75675 -0.06435
 O1374 O 0.71868 0.75955 -0.05199
 O1375 O 0.79222 0.77912 -0.01872
 O1376 O 0.80214 0.76955 0.01022
 O1377 O 0.80482 0.71882 -0.05020
 O1378 O 0.79008 0.68423 -0.04538
 O1379 O 0.74233 0.73245 0.04087
 O1380 O 0.75254 0.76647 0.03438
 O1381 O 0.69805 0.71457 0.00002
 O1382 O 0.69601 0.71526 -0.03367
 O1383 O 0.74856 0.67524 0.01128
 O1384 O 0.78679 0.67437 0.00050
 O1385 O 0.76254 0.70326 0.03566
 O1386 O 0.79605 0.69474 0.02080
 O1387 O 0.72010 0.68082 -0.00743
 O1388 O 0.71487 0.69104 -0.04208
 O1389 O 0.70951 0.73864 0.02186
 O1390 O 0.72314 0.77381 0.01426
 O1391 O 0.77035 0.72517 -0.06925
 O1392 O 0.76302 0.68960 -0.06167
 O1393 O 0.81544 0.74369 -0.02870
 O1394 O 0.81575 0.73995 0.00700
 O1395 O 0.76328 0.78440 -0.03699
 O1396 O 0.72602 0.78278 -0.02770
 Zr1397 Zr 0.74577 0.75665 -0.03471
 O1398 O 0.72643 0.74270 -0.01357
 Zr1399 Zr 0.78933 0.74788 -0.00968
 O1400 O 0.77169 0.73355 0.01229
 Zr1401 Zr 0.77325 0.71275 -0.04185
 O1402 O 0.75485 0.69684 -0.02132
 Zr1403 Zr 0.74069 0.74539 0.01336
 O1404 O 0.75898 0.76152 -0.00728
 Zr1405 Zr 0.72452 0.71046 -0.01890
 O1406 O 0.74210 0.72463 -0.04132
 Zr1407 Zr 0.76804 0.70147 0.00588
 O1408 O 0.78800 0.71536 -0.01512
 O1409 O 0.77639 0.74478 -0.03664
 O1410 O 0.73729 0.71330 0.00838
 C1411 C 0.76366 0.74285 -0.07514
 C1412 C 0.78036 0.79062 -0.02904
 C1413 C 0.81857 0.73174 -0.04358
 C1414 C 0.75218 0.71615 0.04667
 C1415 C 0.69527 0.72648 0.01501
 C1416 C 0.73077 0.66972 0.00408
 H1417 H 0.71227 0.74936 -0.01332
 H1418 H 0.75426 0.68188 -0.02514
 H1419 H 0.78498 0.75236 -0.04626
 H1420 H 0.77888 0.73607 0.02461
 H1421 H 0.75838 0.77855 0.02736
 H1422 H 0.79260 0.76973 0.02164
 H1423 H 0.72422 0.67858 -0.04254
 H1424 H 0.74840 0.69343 -0.06513
 H1425 H 0.71615 0.77525 0.02710
 H1426 H 0.72693 0.79294 -0.03828
 H1427 H 0.77987 0.66587 -0.00959
 H1428 H 0.80040 0.68378 -0.03486
 H1429 H 0.71651 0.74587 -0.05857
 H1430 H 0.69421 0.73053 -0.03498
 H1431 H 0.82077 0.72602 0.00233
 H1432 H 0.80101 0.70802 0.02667
 O1433 O 1.00785 0.20712 0.20949
 O1434 O 0.97216 0.20803 0.22006
 O1435 O 1.02161 0.27130 0.19796
 O1436 O 1.01763 0.30210 0.21448
 O1437 O 1.06483 0.23628 0.23010
 O1438 O 1.06539 0.22451 0.26302
 O1439 O 0.97670 0.29779 0.27457
 O1440 O 0.97273 0.30420 0.24178
 O1441 O 0.96029 0.23607 0.28375
 O1442 O 0.97005 0.20197 0.26762
 O1443 O 1.01573 0.25908 0.30506
 O1444 O 1.05218 0.26488 0.29097
 O1445 O 1.00699 0.29290 0.29113
 O1446 O 1.04470 0.29315 0.28009
 O1447 O 0.99439 0.23082 0.30127
 O1448 O 0.99738 0.19783 0.28147
 O1449 O 0.95246 0.26769 0.27128
 O1450 O 0.95058 0.27408 0.23627
 O1451 O 1.03817 0.20284 0.22622
 O1452 O 1.04577 0.19895 0.25898
 O1453 O 1.05635 0.26764 0.21731
 O1454 O 1.04533 0.29995 0.23362
 O1455 O 1.00076 0.24262 0.19415
 O1456 O 0.96434 0.24066 0.20891
 Zr1457 Zr 0.99324 0.23361 0.22245
 O1458 O 0.97608 0.24177 0.24780
 Zr1459 Zr 1.02571 0.27384 0.22789
 O1460 O 1.01006 0.28375 0.25344
 Zr1461 Zr 1.03783 0.22777 0.24656
 O1462 O 1.02255 0.23556 0.27290
 Zr1463 Zr 0.97835 0.27418 0.25299
 O1464 O 0.99339 0.26644 0.22627
 Zr1465 Zr 0.99021 0.22807 0.27150
 O1466 O 1.00605 0.21795 0.24594
 Zr1467 Zr 1.02300 0.26821 0.27686
 O1468 O 1.04045 0.26021 0.25155
 O1469 O 1.02505 0.24171 0.22284
 O1470 O 0.99115 0.26013 0.27687
 C1471 C 1.02511 0.19729 0.21310
 C1472 C 1.01216 0.25756 0.18746
 C1473 C 1.06912 0.25236 0.21983
 C1474 C 0.98933 0.30224 0.28838
 C1475 C 0.94823 0.25221 0.28217
 C1476 C 1.00411 0.24435 0.31171
 H1477 H 0.96111 0.23755 0.24651
 H1478 H 1.02958 0.22827 0.28342
 H1479 H 1.03288 0.23723 0.21101
 H1480 H 1.01105 0.29913 0.25494
 H1481 H 0.97432 0.30276 0.22764
 H1482 H 1.00941 0.31067 0.22397
 H1483 H 1.01125 0.19857 0.28781
 H1484 H 1.03244 0.19092 0.26000
 H1485 H 0.94019 0.28381 0.24255
 H1486 H 0.96432 0.23354 0.19612
 H1487 H 1.05298 0.25045 0.29580
 H1488 H 1.07063 0.23884 0.26569
 H1489 H 0.97614 0.19801 0.23004
 H1490 H 0.95779 0.20653 0.26010
 H1491 H 1.05591 0.29539 0.24299
 H1492 H 1.03894 0.30538 0.27342
 O1493 O 0.74730 1.05845 0.73458
 O1494 O 0.78027 1.05192 0.74793
 O1495 O 0.73190 1.00364 0.70272
 O1496 O 0.73039 0.96904 0.70767
 O1497 O 0.68627 1.03053 0.74178
 O1498 O 0.68163 1.02862 0.77630
 O1499 O 0.76514 0.94920 0.76921
 O1500 O 0.77183 0.95288 0.73565
 O1501 O 0.78319 1.00163 0.79732
 O1502 O 0.77626 1.04019 0.79410
 O1503 O 0.72331 0.97715 0.80705
 O1504 O 0.68895 0.97947 0.79010
 O1505 O 0.73190 0.94939 0.78245
 O1506 O 0.69590 0.95696 0.77024
 O1507 O 0.74892 1.00082 0.81404
 O1508 O 0.74744 1.03982 0.80783
 O1509 O 0.79130 0.97585 0.77543
 O1510 O 0.79643 0.98171 0.74061
 O1511 O 0.71625 1.05944 0.75178
 O1512 O 0.70321 1.05197 0.78283
 O1513 O 0.69438 1.00392 0.72076
 O1514 O 0.70169 0.96665 0.72499
 O1515 O 0.75706 1.02781 0.70982
 O1516 O 0.78978 1.02454 0.72806
 Zr1517 Zr 0.75873 1.02809 0.73994
 O1518 O 0.77176 1.01002 0.76181
 Zr1519 Zr 0.72325 0.99149 0.72958
 O1520 O 0.73490 0.97175 0.75080
 Zr1521 Zr 0.71127 1.02898 0.76170
 O1522 O 0.72234 1.01096 0.78458
 Zr1523 Zr 0.76701 0.97814 0.75540
 O1524 O 0.75603 0.99608 0.73237
 Zr1525 Zr 0.75508 1.01552 0.78773
 O1526 O 0.74345 1.03543 0.76641
 Zr1527 Zr 0.71955 0.97913 0.77714
 O1528 O 0.70606 0.99715 0.75533
 O1529 O 0.72660 1.02326 0.73549
 O1530 O 0.75160 0.98389 0.78163
 C1531 C 0.73072 1.06799 0.74137
 C1532 C 0.74563 1.01748 0.69792
 C1533 C 0.68228 1.01884 0.72699
 C1534 C 0.75011 0.94094 0.77922
 C1535 C 0.79470 0.98621 0.79103
 C1536 C 0.73625 0.98600 0.81869
 H1537 H 0.78701 1.01321 0.76290
 H1538 H 0.71437 1.01455 0.79654
 H1539 H 0.72103 1.03212 0.72522
 H1540 H 0.73292 0.95692 0.74693
 H1541 H 0.77252 0.95901 0.72270
 H1542 H 0.73832 0.95761 0.71368
 H1543 H 0.73370 1.03642 0.81405
 H1544 H 0.71673 1.05668 0.78839
 H1545 H 0.80543 0.96944 0.74342
 H1546 H 0.79223 1.03560 0.71847
 H1547 H 0.68789 0.99195 0.79869
 H1548 H 0.67530 1.01476 0.77350
 H1549 H 0.77486 1.05825 0.76016
 H1550 H 0.78914 1.03804 0.78598
 H1551 H 0.68985 0.96873 0.73436
 H1552 H 0.70185 0.94728 0.76026
 O1553 O 0.74903 0.55476 0.21797
 O1554 O 0.78265 0.54693 0.21102
 O1555 O 0.71869 0.49444 0.20150
 O1556 O 0.71567 0.46236 0.21306
 O1557 O 0.69919 0.52983 0.25409
 O1558 O 0.71405 0.53263 0.28496
 O1559 O 0.78268 0.44767 0.24575
 O1560 O 0.77120 0.44931 0.21460
 O1561 O 0.81429 0.50181 0.25987
 O1562 O 0.80699 0.53992 0.25454
 O1563 O 0.76914 0.48191 0.29668
 O1564 O 0.73140 0.48202 0.29900
 O1565 O 0.76412 0.45059 0.27401
 O1566 O 0.72429 0.45917 0.27917
 O1567 O 0.79262 0.50751 0.28932
 O1568 O 0.78865 0.54425 0.27852
 O1569 O 0.80954 0.47468 0.23882
 O1570 O 0.79458 0.47703 0.20584
 O1571 O 0.72915 0.55857 0.24547
 O1572 O 0.73768 0.55412 0.27891
 O1573 O 0.69398 0.50273 0.23313
 O1574 O 0.70312 0.46508 0.24052
 O1575 O 0.74049 0.52148 0.19422
 O1576 O 0.78002 0.51670 0.19419
 Zr1577 Zr 0.76014 0.52384 0.21840
 O1578 O 0.78440 0.50791 0.23251
 Zr1579 Zr 0.72406 0.48839 0.23044
 O1580 O 0.74705 0.47030 0.24410
 Zr1581 Zr 0.73191 0.52939 0.25909
 O1582 O 0.75458 0.51286 0.27477
 Zr1583 Zr 0.77721 0.47595 0.23220
 O1584 O 0.75381 0.49154 0.21660
 Zr1585 Zr 0.78453 0.51665 0.26170
 O1586 O 0.76216 0.53469 0.24710
 Zr1587 Zr 0.74906 0.48037 0.27290
 O1588 O 0.72442 0.49732 0.25965
 O1589 O 0.72997 0.52038 0.23035
 O1590 O 0.77912 0.48456 0.26109
 C1591 C 0.73780 0.56570 0.23005
 C1592 C 0.72612 0.50807 0.18990
 C1593 C 0.68735 0.51855 0.24326
 C1594 C 0.77661 0.44065 0.26209
 C1595 C 0.82094 0.48562 0.25032
 C1596 C 0.78525 0.49344 0.30044
 H1597 H 0.79823 0.51048 0.22608
 H1598 H 0.75426 0.51806 0.28824
 H1599 H 0.71948 0.52859 0.22322
 H1600 H 0.74336 0.45531 0.24289
 H1601 H 0.76347 0.45435 0.20334
 H1602 H 0.72855 0.45363 0.21153
 H1603 H 0.77897 0.54352 0.28982
 H1604 H 0.75087 0.56101 0.27451
 H1605 H 0.80485 0.46526 0.20551
 H1606 H 0.77570 0.52538 0.18327
 H1607 H 0.73143 0.49680 0.30347
 H1608 H 0.70795 0.51869 0.28756
 H1609 H 0.78889 0.55183 0.22323
 H1610 H 0.81489 0.53513 0.24286
 H1611 H 0.69660 0.47053 0.25267
 H1612 H 0.72552 0.44724 0.26993
 O1613 O 0.49201 0.22199 0.71330
 O1614 O 0.45950 0.23371 0.72533
 O1615 O 0.51781 0.27482 0.68404
 O1616 O 0.52267 0.30918 0.69176
 O1617 O 0.55680 0.24101 0.72077
 O1618 O 0.55976 0.24022 0.75562
 O1619 O 0.49015 0.33143 0.75402
 O1620 O 0.48408 0.32962 0.72033
 O1621 O 0.46199 0.28108 0.77903
 O1622 O 0.46314 0.24231 0.77248
 O1623 O 0.52497 0.29573 0.79037
 O1624 O 0.55949 0.28857 0.77279
 O1625 O 0.52165 0.32553 0.76835
 O1626 O 0.55676 0.31343 0.75524
 O1627 O 0.49651 0.27475 0.79542
 O1628 O 0.49073 0.23715 0.78584
 O1629 O 0.46095 0.30922 0.75962
 O1630 O 0.45499 0.30536 0.72442
 O1631 O 0.52345 0.21581 0.72771
 O1632 O 0.53409 0.21982 0.76015
 O1633 O 0.55322 0.26895 0.70139
 O1634 O 0.55201 0.30612 0.70871
 O1635 O 0.48924 0.25398 0.68936
 O1636 O 0.45611 0.26274 0.70752
 Zr1637 Zr 0.48537 0.25376 0.71948
 O1638 O 0.47417 0.27269 0.74261
 Zr1639 Zr 0.52646 0.28498 0.71172
 O1640 O 0.51723 0.30528 0.73453
 Zr1641 Zr 0.53120 0.24475 0.74089
 O1642 O 0.52169 0.26320 0.76513
 Zr1643 Zr 0.48437 0.30355 0.73861
 O1644 O 0.49329 0.28518 0.71421
 Zr1645 Zr 0.48838 0.26351 0.76804
 O1646 O 0.49809 0.24304 0.74524
 Zr1647 Zr 0.52982 0.29456 0.76032
 O1648 O 0.54137 0.27572 0.73700
 O1649 O 0.51805 0.25390 0.71534
 O1650 O 0.49716 0.29443 0.76443
 C1651 C 0.50736 0.20988 0.71794
 C1652 C 0.50285 0.26278 0.67823
 C1653 C 0.56273 0.25229 0.70648
 C1654 C 0.50523 0.33681 0.76524
 C1655 C 0.45440 0.29892 0.77414
 C1656 C 0.51081 0.28746 0.80132
 H1657 H 0.45854 0.27196 0.74350
 H1658 H 0.52844 0.25786 0.77675
 H1659 H 0.52272 0.24462 0.70451
 H1660 H 0.52163 0.31978 0.73182
 H1661 H 0.48302 0.32393 0.70705
 H1662 H 0.51825 0.32192 0.69909
 H1663 H 0.50521 0.23683 0.79099
 H1664 H 0.51949 0.21604 0.76411
 H1665 H 0.44801 0.31868 0.72853
 H1666 H 0.45267 0.25283 0.69688
 H1667 H 0.55790 0.27626 0.78107
 H1668 H 0.56831 0.25299 0.75371
 H1669 H 0.46262 0.22665 0.73748
 H1670 H 0.45103 0.24708 0.76487
 H1671 H 0.56258 0.30230 0.71836
 H1672 H 0.55282 0.32420 0.74594
 O1673 O 0.30228 0.74903 0.45940
 O1674 O 0.29919 0.71295 0.46315
 O1675 O 0.24138 0.77349 0.45463
 O1676 O 0.21048 0.77233 0.47126
 O1677 O 0.28311 0.80204 0.49657
 O1678 O 0.29751 0.79282 0.52514
 O1679 O 0.20839 0.71682 0.51919
 O1680 O 0.20249 0.72002 0.48722
 O1681 O 0.27075 0.69014 0.52222
 O1682 O 0.30477 0.69849 0.51077
 O1683 O 0.25203 0.74076 0.55706
 O1684 O 0.25160 0.77958 0.55238
 O1685 O 0.21682 0.74147 0.54175
 O1686 O 0.22312 0.78022 0.53971
 O1687 O 0.27798 0.71763 0.54830
 O1688 O 0.31240 0.72290 0.52836
 O1689 O 0.23687 0.69026 0.51176
 O1690 O 0.23020 0.69698 0.47648
 O1691 O 0.31145 0.77370 0.48178
 O1692 O 0.31813 0.76886 0.51659
 O1693 O 0.25138 0.80219 0.48167
 O1694 O 0.21660 0.79209 0.49599
 O1695 O 0.26423 0.74743 0.44546
 O1696 O 0.26537 0.70987 0.45296
 Zr1697 Zr 0.27526 0.73495 0.47111
 O1698 O 0.26535 0.71425 0.49252
 Zr1699 Zr 0.24008 0.77124 0.48485
 O1700 O 0.22779 0.75141 0.50621
 Zr1701 Zr 0.28803 0.77089 0.50392
 O1702 O 0.27750 0.75220 0.52682
 Zr1703 Zr 0.23319 0.71972 0.49889
 O1704 O 0.24259 0.73945 0.47613
 Zr1705 Zr 0.28104 0.72078 0.51826
 O1706 O 0.29326 0.73946 0.49600
 Zr1707 Zr 0.24470 0.75607 0.53158
 O1708 O 0.25592 0.77726 0.51072
 O1709 O 0.27187 0.76655 0.47846
 O1710 O 0.24887 0.72459 0.52459
 C1711 C 0.31420 0.76388 0.46553
 C1712 C 0.25140 0.76238 0.44179
 C1713 C 0.26810 0.81130 0.48796
 C1714 C 0.20490 0.72678 0.53516
 C1715 C 0.25280 0.68139 0.51958
 C1716 C 0.26527 0.72618 0.56079
 H1717 H 0.26784 0.69968 0.48792
 H1718 H 0.28559 0.75554 0.53849
 H1719 H 0.27661 0.77616 0.46829
 H1720 H 0.21248 0.75426 0.50807
 H1721 H 0.20408 0.72531 0.47400
 H1722 H 0.20192 0.76082 0.47659
 H1723 H 0.31242 0.73287 0.53940
 H1724 H 0.32532 0.75643 0.51076
 H1725 H 0.22016 0.68617 0.48101
 H1726 H 0.27179 0.71159 0.43997
 H1727 H 0.26594 0.77685 0.55723
 H1728 H 0.28459 0.79628 0.53284
 H1729 H 0.31046 0.71422 0.47279
 H1730 H 0.30121 0.69252 0.49802
 H1731 H 0.22312 0.80015 0.50662
 H1732 H 0.21003 0.77801 0.53237
 O1733 O 0.25786 0.25741 0.94102
 O1734 O 0.22386 0.26327 0.95513
 O1735 O 0.30023 0.27234 0.98638
 O1736 O 0.30642 0.26199 1.01637
 O1737 O 0.30757 0.21553 0.95273
 O1738 O 0.29070 0.18160 0.95502
 O1739 O 0.24484 0.22571 1.04440
 O1740 O 0.25761 0.25939 1.04043
 O1741 O 0.20023 0.21439 1.00197
 O1742 O 0.19986 0.21858 0.96698
 O1743 O 0.24694 0.17171 1.01210
 O1744 O 0.28484 0.16760 1.00040
 O1745 O 0.26296 0.19568 1.03705
 O1746 O 0.29662 0.18629 1.02126
 O1747 O 0.21913 0.18047 0.99366
 O1748 O 0.21542 0.19208 0.95951
 O1749 O 0.21270 0.23600 1.02543
 O1750 O 0.22927 0.27071 1.02073
 O1751 O 0.27270 0.22550 0.93421
 O1752 O 0.26396 0.18968 0.93946
 O1753 O 0.31959 0.23726 0.97634
 O1754 O 0.31909 0.23079 1.01151
 O1755 O 0.27209 0.28168 0.96851
 O1756 O 0.23503 0.28354 0.98060
 Zr1757 Zr 0.25123 0.25605 0.97087
 O1758 O 0.23059 0.24167 0.99075
 Zr1759 Zr 0.29355 0.24181 0.99520
 O1760 O 0.27468 0.22713 1.01609
 Zr1761 Zr 0.27549 0.21065 0.96063
 O1762 O 0.25574 0.19442 0.97993
 Zr1763 Zr 0.24460 0.24116 1.01786
 O1764 O 0.26443 0.25770 0.99853
 Zr1765 Zr 0.22653 0.21006 0.98309
 O1766 O 0.24538 0.22489 0.96197
 Zr1767 Zr 0.26886 0.19603 1.00738
 O1768 O 0.29004 0.21002 0.98749
 O1769 O 0.28069 0.24179 0.96805
 O1770 O 0.23912 0.20995 1.01048
 C1771 C 0.26604 0.24361 0.92929
 C1772 C 0.29034 0.28522 0.97577
 C1773 C 0.32204 0.22691 0.96043
 C1774 C 0.25327 0.20814 1.04895
 C1775 C 0.19789 0.22526 1.01761
 C1776 C 0.22844 0.16836 1.00532
 H1777 H 0.21699 0.24938 0.99138
 H1778 H 0.25397 0.17983 0.97532
 H1779 H 0.28967 0.24910 0.95855
 H1780 H 0.28186 0.22802 1.02857
 H1781 H 0.26466 0.27147 1.03436
 H1782 H 0.29819 0.25989 1.02838
 H1783 H 0.22400 0.17911 0.95849
 H1784 H 0.24931 0.19421 0.93683
 H1785 H 0.22205 0.27146 1.03350
 H1786 H 0.23678 0.29443 0.97074
 H1787 H 0.27679 0.16017 0.99032
 H1788 H 0.30004 0.17912 0.96601
 H1789 H 0.21946 0.25017 0.94853
 H1790 H 0.19589 0.23309 0.97078
 H1791 H 0.32310 0.21685 1.00611
 H1792 H 0.30163 0.19827 1.02913
 N1793 N 0.24293 0.39652 0.75889
 N1794 N 0.25264 0.38049 0.76668
 C1795 C 0.25416 0.38500 0.78558
 C1796 C 0.24501 0.40437 0.78914
 N1797 N 0.23812 0.41103 0.77210
 H1798 H 0.24632 0.41398 0.80205
 N1799 N 0.31663 -0.07675 0.27606
 N1800 N 0.32443 -0.09251 0.28569
 C1801 C 0.31006 -0.09712 0.29951
 C1802 C 0.29300 -0.08367 0.29803
 N1803 N 0.29781 -0.07125 0.28314
 H1804 H 0.27875 -0.08285 0.30690
 N1805 N 0.73922 0.91110 0.79779
 N1806 N 0.74787 0.89652 0.80837
 C1807 C 0.76899 0.89817 0.80580
 C1808 C 0.77309 0.91395 0.79305
 N1809 N 0.75406 0.92164 0.78846
 H1810 H 0.78830 0.92027 0.78872
 N1811 N 0.49181 0.82558 0.30680
 N1812 N 0.48408 0.84139 0.31723
 C1813 C 0.46667 0.84824 0.30835
 C1814 C 0.46389 0.83601 0.29195
 N1815 N 0.48001 0.82206 0.29161
 H1816 H 0.45142 0.83697 0.28155
 N1817 N 0.01967 0.86566 0.78678
 N1818 N 0.01118 0.88042 0.79815
 C1819 C -0.00844 0.88415 0.79168
 C1820 C -0.01166 0.87134 0.77584
 N1821 N 0.00624 0.86002 0.77328
 H1822 H -0.02622 0.86906 0.76812
 N1823 N -0.07266 -0.08833 -0.00887
 N1824 N -0.07654 -0.10629 -0.01782
 C1825 C -0.06127 -0.10896 -0.03141
 C1826 C -0.04778 -0.09193 -0.03059
 N1827 N -0.05549 -0.07948 -0.01622
 H1828 H -0.03350 -0.08926 -0.03902
 N1829 N 0.00547 0.41507 0.45319
 N1830 N 0.00086 0.39696 0.44484
 C1831 C -0.01874 0.39169 0.45099
 C1832 C -0.02603 0.40722 0.46370
 N1833 N -0.01033 0.42148 0.46459
 H1834 H -0.04126 0.40838 0.47105
 N1835 N 0.51950 -0.09250 0.46002
 N1836 N 0.51457 -0.11067 0.45188
 C1837 C 0.49441 -0.11484 0.45720
 C1838 C 0.48708 -0.09858 0.46903
 N1839 N 0.50329 -0.08496 0.47035
 H1840 H 0.47146 -0.09651 0.47546
 N1841 N 0.41805 0.42159 -0.01979
 N1842 N 0.41294 0.40400 -0.02885
 C1843 C 0.42978 0.39841 -0.04001
 C1844 C 0.44542 0.41336 -0.03766
 N1845 N 0.43742 0.42748 -0.02482
 H1846 H 0.46126 0.41345 -0.04387
 N1847 N 0.73760 0.33681 0.44821
 N1848 N 0.74483 0.35301 0.43847
 C1849 C 0.76527 0.35532 0.44325
 C1850 C 0.77030 0.34031 0.45630
 N1851 N 0.75267 0.32906 0.45901
 H1852 H 0.78568 0.33690 0.46213
 N1853 N 0.77638 0.82692 -0.01969
 N1854 N 0.78027 0.84570 -0.02660
 C1855 C 0.79213 0.84271 -0.04270
 C1856 C 0.79537 0.82148 -0.04557
 N1857 N 0.78548 0.81223 -0.03070
 H1858 H 0.80303 0.81353 -0.05770
 N1859 N 0.73749 0.24931 0.39571
 N1860 N 0.74573 0.25651 0.37952
 C1861 C 0.75203 0.27628 0.38321
 C1862 C 0.74734 0.28093 0.40228
 N1863 N 0.73815 0.26373 0.40959
 H1864 H 0.75330 0.29401 0.41069
 N1865 N 0.77842 0.73416 -0.10658
 N1866 N 0.78798 0.74384 -0.12095
 C1867 C 0.78487 0.76446 -0.11769
 C1868 C 0.77288 0.76715 -0.10106
 N1869 N 0.76925 0.74784 -0.09449
 H1870 H 0.76934 0.78169 -0.09338
 N1871 N 0.23116 0.44667 0.83876
 N1872 N 0.23829 0.43807 0.85453
 C1873 C 0.25676 0.44755 0.85850
 C1874 C 0.26079 0.46230 0.84465
 N1875 N 0.24439 0.46122 0.83261
 H1876 H 0.27452 0.47227 0.84313
 N1877 N 0.28441 0.00320 0.34655
 N1878 N 0.29217 -0.00574 0.36188
 C1879 C 0.28631 -0.02600 0.36104
 C1880 C 0.27478 -0.02929 0.34470
 N1881 N 0.27404 -0.01068 0.33602
 H1882 H 0.26980 -0.04414 0.33854
 N1883 N -0.06450 0.00032 -0.06355
 N1884 N -0.07205 -0.00799 -0.07952
 C1885 C -0.05785 -0.02243 -0.08583
 C1886 C -0.04116 -0.02268 -0.07330
 N1887 N -0.04613 -0.00835 -0.05945
 H1888 H -0.02794 -0.03350 -0.07321
 N1889 N -0.05671 0.50845 0.42492
 N1890 N -0.06420 0.50228 0.40811
 C1891 C -0.05358 0.48467 0.40288
 C1892 C -0.03909 0.48036 0.41695
 N1893 N -0.04161 0.49558 0.43042
 H1894 H -0.02847 0.46708 0.41775
 N1895 N 0.52493 -0.03810 0.41694
 N1896 N 0.51667 -0.04577 0.40095
 C1897 C 0.49923 -0.03429 0.39750
 C1898 C 0.49714 -0.01923 0.41182
 N1899 N 0.51341 -0.02219 0.42375
 H1900 H 0.48361 -0.00912 0.41468
 N1901 N 0.43325 0.51235 -0.07022
 N1902 N 0.42619 0.50658 -0.08731
 C1903 C 0.43858 0.49058 -0.09366
 C1904 C 0.45351 0.48671 -0.07994
 N1905 N 0.44960 0.50062 -0.06552
 H1906 H 0.46516 0.47424 -0.07993
 N1907 N 0.51593 0.75283 0.33484
 N1908 N 0.51157 0.76007 0.35243
 C1909 C 0.49050 0.76337 0.35345
 C1910 C 0.48200 0.75760 0.33599
 N1911 N 0.49841 0.75105 0.32480
 H1912 H 0.46599 0.76014 0.33122
 N1913 N 0.02028 0.80600 0.82450
 N1914 N 0.01333 0.81039 0.84220
 C1915 C -0.00572 0.80115 0.84410
 C1916 C -0.01024 0.79087 0.82706
 N1917 N 0.00637 0.79432 0.81521
 H1918 H -0.02470 0.78284 0.82328
 N1919 N 0.41158 0.73913 0.29607
 N1920 N 0.39438 0.74488 0.30602
 C1921 C 0.39265 0.76578 0.30434
 C1922 C 0.40920 0.77271 0.29295
 N1923 N 0.42060 0.75558 0.28807
 H1924 H 0.41274 0.78858 0.28878
 N1925 N -0.06489 0.83863 0.77163
 N1926 N -0.08070 0.84494 0.78299
 C1927 C -0.08733 0.82811 0.79273
 C1928 C -0.07496 0.81107 0.78700
 N1929 N -0.06120 0.81842 0.77373
 H1930 H -0.07601 0.79507 0.79174
 N1931 N 0.82240 0.26319 0.42215
 N1932 N 0.83934 0.27138 0.41384
 C1933 C 0.84731 0.28550 0.42639
 C1934 C 0.83466 0.28576 0.44280
 N1935 N 0.81937 0.27150 0.43953
 H1936 H 0.83674 0.29478 0.45595
 N1937 N 0.84231 0.72462 -0.07097
 N1938 N 0.85964 0.73262 -0.07894
 C1939 C 0.86640 0.74776 -0.06679
 C1940 C 0.85281 0.74874 -0.05110
 N1941 N 0.83798 0.73410 -0.05426
 H1942 H 0.85285 0.75995 -0.03923
 N1943 N -0.12272 -0.01454 0.00120
 N1944 N -0.13793 -0.02151 -0.01005
 C1945 C -0.13051 -0.02066 -0.02830
 C1946 C -0.11004 -0.01308 -0.02782
 N1947 N -0.10588 -0.00925 -0.00917
 H1948 H -0.09848 -0.01311 -0.03949
 N1949 N -0.09192 0.44629 0.49985
 N1950 N -0.10727 0.43712 0.49019
 C1951 C -0.10959 0.44805 0.47402
 C1952 C -0.09545 0.46440 0.47411
 N1953 N -0.08472 0.46269 0.49047
 H1954 H -0.09196 0.47520 0.46269
 N1955 N 0.44271 -0.02519 0.43382
 N1956 N 0.42760 -0.03489 0.42427
 C1957 C 0.41692 -0.04662 0.43708
 C1958 C 0.42604 -0.04398 0.45482
 N1959 N 0.44196 -0.03037 0.45213
 H1960 H 0.42131 -0.05076 0.46836
 N1961 N 0.38470 0.51349 -0.02465
 N1962 N 0.36924 0.50595 -0.03539
 C1963 C 0.36846 0.48520 -0.03229
 C1964 C 0.38351 0.48035 -0.01903
 N1965 N 0.39337 0.49835 -0.01468
 H1966 H 0.38826 0.46497 -0.01442
 N1967 N 0.31489 0.43384 0.76896
 N1968 N 0.33212 0.42625 0.77690
 C1969 C 0.33704 0.43951 0.79145
 C1970 C 0.32235 0.45547 0.79222
 N1971 N 0.30884 0.45137 0.77794
 H1972 H 0.32162 0.46881 0.80205
 N1973 N 0.34624 0.01581 0.29964
 N1974 N 0.36393 0.00935 0.30758
 C1975 C 0.36753 -0.01040 0.30112
 C1976 C 0.35146 -0.01583 0.28874
 N1977 N 0.33853 0.00100 0.28823
 H1978 H 0.34879 -0.03082 0.28169
 N1979 N 0.15332 0.56369 0.75358
 N1980 N 0.13660 0.57258 0.74593
 C1981 C 0.13185 0.56089 0.73030
 C1982 C 0.14608 0.54456 0.72853
 N1983 N 0.15923 0.54692 0.74332
 H1984 H 0.14733 0.53272 0.71722
 N1985 N 0.16039 -0.01453 0.21931
 N1986 N 0.14116 -0.00979 0.21351
 C1987 C 0.13691 0.00989 0.21985
 C1988 C 0.15415 0.01709 0.22991
 N1989 N 0.16843 0.00133 0.22922
 H1990 H 0.15639 0.03239 0.23651
 N1991 N 0.58225 0.75543 0.18490
 N1992 N 0.60013 0.74872 0.17663
 C1993 C 0.60502 0.73045 0.18490
 C1994 C 0.58967 0.72614 0.19849
 N1995 N 0.57577 0.74209 0.19804
 H1996 H 0.58849 0.71260 0.20756
 N1997 N 0.09233 0.75407 0.67835
 N1998 N 0.10930 0.74369 0.67208
 C1999 C 0.11303 0.72855 0.68479
 C2000 C 0.09762 0.72992 0.69920
 N2001 N 0.08502 0.74610 0.69455
 H2002 H 0.09576 0.72025 0.71170
 N2003 N 0.68444 0.22545 0.56037
 N2004 N 0.66693 0.21950 0.56935
 C2005 C 0.65549 0.20870 0.55641
 C2006 C 0.66662 0.20807 0.53909
 N2007 N 0.68457 0.21885 0.54223
 H2008 H 0.66155 0.20183 0.52537
 N2009 N 0.67004 0.74185 0.03763
 N2010 N 0.65069 0.73903 0.04462
 C2011 C 0.64304 0.72166 0.03600
 C2012 C 0.65847 0.71383 0.02329
 N2013 N 0.67507 0.72701 0.02481
 H2014 H 0.65776 0.70004 0.01404
 N2015 N 0.07376 -0.01811 0.05608
 N2016 N 0.09197 -0.01215 0.06351
 C2017 C 0.09544 0.00755 0.05770
 C2018 C 0.07887 0.01349 0.04635
 N2019 N 0.06566 -0.00297 0.04574
 H2020 H 0.07601 0.02866 0.04022
 N2021 N 0.08331 0.55633 0.51195
 N2022 N 0.09923 0.56461 0.52148
 C2023 C 0.10297 0.55203 0.53637
 C2024 C 0.08898 0.53551 0.53555
 N2025 N 0.07698 0.53885 0.52008
 H2026 H 0.08672 0.52323 0.54588
 N2027 N 0.57718 0.01471 0.57040
 N2028 N 0.59399 0.02255 0.57892
 C2029 C 0.60274 0.03632 0.56673
 C2030 C 0.59071 0.03675 0.55035
 N2031 N 0.57494 0.02296 0.55328
 H2032 H 0.59336 0.04576 0.53753
 N2033 N 0.57648 0.47574 0.03799
 N2034 N 0.59616 0.47986 0.04305
 C2035 C 0.59968 0.50011 0.03900
 C2036 C 0.58164 0.50829 0.03119
 N2037 N 0.56755 0.49258 0.03084
 H2038 H 0.57864 0.52429 0.02716
 N2039 N 0.00539 -0.02378 0.10927
 N2040 N 0.01266 -0.01838 0.12639
 C2041 C 0.01057 0.00259 0.12811
 C2042 C 0.00160 0.00987 0.11164
 N2043 N -0.00135 -0.00704 0.10027
 H2044 H -0.00088 0.02597 0.10763
 N2045 N 0.04852 0.49570 0.58684
 N2046 N 0.05532 0.50379 0.60326
 C2047 C 0.04192 0.51954 0.60831
 C2048 C 0.02657 0.52074 0.59463
 N2049 N 0.03126 0.50563 0.58149
 H2050 H 0.01417 0.53238 0.59358
 N2051 N 0.47658 0.02566 0.59342
 N2052 N 0.48092 0.03363 0.61061
 C2053 C 0.50149 0.02939 0.61376
 C2054 C 0.50953 0.01815 0.59809
 N2055 N 0.49350 0.01624 0.58571
 H2056 H 0.52582 0.01356 0.59518
 N2057 N 0.49385 0.48924 0.10678
 N2058 N 0.50446 0.49514 0.12222
 C2059 C 0.52360 0.50184 0.11602
 C2060 C 0.52422 0.50016 0.09627
 N2061 N 0.50561 0.49190 0.09111
 H2062 H 0.53602 0.50652 0.08654
 N2063 N 0.24473 0.53790 0.67262
 N2064 N 0.24071 0.54151 0.65444
 C2065 C 0.22078 0.53501 0.65126
 C2066 C 0.21256 0.52721 0.66827
 N2067 N 0.22813 0.52935 0.68121
 H2068 H 0.19703 0.52063 0.67093
 N2069 N 0.23483 -0.00535 0.16435
 N2070 N 0.22706 0.00037 0.14776
 C2071 C 0.22575 0.02142 0.14828
 C2072 C 0.23294 0.02851 0.16589
 N2073 N 0.23842 0.01124 0.17547
 H2074 H 0.23185 0.04422 0.17195
 N2075 N 0.77445 0.20886 0.57423
 N2076 N 0.76853 0.20068 0.59083
 C2077 C 0.74971 0.20944 0.59577
 C2078 C 0.74439 0.22343 0.58177
 N2079 N 0.76022 0.22261 0.56858
 H2080 H 0.72967 0.23197 0.58048
 N2081 N 0.76717 0.70129 0.07514
 N2082 N 0.76228 0.69867 0.09349
 C2083 C 0.74338 0.70807 0.09668
 C2084 C 0.73682 0.71668 0.07977
 N2085 N 0.75212 0.71204 0.06672
 H2086 H 0.72203 0.72456 0.07698
 N2087 N 0.50618 0.76878 0.14858
 N2088 N 0.51354 0.76261 0.13143
 C2089 C 0.51278 0.74153 0.13093
 C2090 C 0.50436 0.73498 0.14825
 N2091 N 0.50043 0.75246 0.15885
 H2092 H 0.50347 0.71913 0.15342
 N2093 N 0.02031 0.78813 0.63922
 N2094 N 0.02396 0.78046 0.62166
 C2095 C 0.01799 0.76022 0.62178
 C2096 C 0.01031 0.75576 0.63989
 N2097 N 0.01212 0.77354 0.65033
 H2098 H 0.00634 0.74057 0.64554
 N2099 N 0.49962 0.66992 0.18070
 N2100 N 0.50711 0.65257 0.17230
 C2101 C 0.52437 0.64703 0.18213
 C2102 C 0.52727 0.66146 0.19680
 N2103 N 0.51149 0.67545 0.19542
 H2104 H 0.53958 0.66179 0.20741
 N2105 N -0.00840 0.69155 0.68490
 N2106 N -0.00394 0.67244 0.67815
 C2107 C 0.01433 0.66665 0.68627
 C2108 C 0.02088 0.68271 0.69823
 N2109 N 0.00630 0.69793 0.69700
 H2110 H 0.03507 0.68348 0.70669
 N2111 N -0.00067 0.07819 0.07224
 N2112 N 0.00745 0.09620 0.07795
 C2113 C 0.02327 0.10078 0.06550
 C2114 C 0.02466 0.08471 0.05177
 N2115 N 0.00929 0.07097 0.05659
 H2116 H 0.03533 0.08337 0.03945
 N2117 N -0.00381 0.58407 0.56377
 N2118 N 0.00378 0.60177 0.57102
 C2119 C 0.01861 0.60861 0.55844
 C2120 C 0.01975 0.59461 0.54311
 N2121 N 0.00547 0.57956 0.54700
 H2122 H 0.03018 0.59505 0.53061
 N2123 N 0.48836 0.09286 0.54116
 N2124 N 0.49260 0.11261 0.54565
 C2125 C 0.51304 0.11582 0.54063
 C2126 C 0.52127 0.09744 0.53291
 N2127 N 0.50535 0.08352 0.53353
 H2128 H 0.53721 0.09440 0.52756
 N2129 N 0.51382 0.56925 0.07237
 N2130 N 0.52320 0.58632 0.07892
 C2131 C 0.53335 0.59495 0.06387
 C2132 C 0.53000 0.58246 0.04770
 N2133 N 0.51759 0.56664 0.05372
 H2134 H 0.53501 0.58518 0.03301
 N2135 N 0.76684 0.15252 0.52477
 N2136 N 0.76196 0.13469 0.53304
 C2137 C 0.74080 0.13252 0.53186
 C2138 C 0.73278 0.14955 0.52250
 N2139 N 0.74959 0.16167 0.51841
 H2140 H 0.71635 0.15344 0.52011
 N2141 N 0.70971 0.63972 -0.00390
 N2142 N 0.70117 0.62319 0.00417
 C2143 C 0.70837 0.62264 0.02223
 C2144 C 0.72193 0.63939 0.02501
 N2145 N 0.72216 0.64967 0.00828
 H2146 H 0.72941 0.64450 0.03815
 N2147 N 0.25842 0.59843 0.74324
 N2148 N 0.25529 0.61686 0.73544
 C2149 C 0.23424 0.61906 0.73334
 C2150 C 0.22445 0.60134 0.74037
 N2151 N 0.24017 0.58889 0.74643
 H2152 H 0.20797 0.59696 0.73922
 N2153 N 0.20092 0.08888 0.24623
 N2154 N 0.19654 0.10793 0.24039
 C2155 C 0.21052 0.11208 0.22612
 C2156 C 0.22365 0.09496 0.22329
 N2157 N 0.21708 0.08085 0.23618
 H2158 H 0.23661 0.09298 0.21302
 N2159 N 0.71750 1.10253 0.74931
 N2160 N 0.71306 1.12024 0.74077
 C2161 C 0.72078 1.11851 0.72263
 C2162 C 0.73030 1.09906 0.72029
 N2163 N 0.72778 1.08961 0.73732
 H2164 H 0.73620 1.09170 0.70710
 N2165 N 0.75369 0.59935 0.22543
 N2166 N 0.74879 0.61819 0.21940
 C2167 C 0.72773 0.61839 0.21662
 C2168 C 0.71973 0.59892 0.22128
 N2169 N 0.73655 0.58760 0.22672
 H2170 H 0.70380 0.59310 0.21946
 N2171 N 0.48888 0.17981 0.70478
 N2172 N 0.49219 0.15980 0.70046
 C2173 C 0.51243 0.15548 0.70485
 C2174 C 0.52151 0.17360 0.71212
 N2175 N 0.50622 0.18839 0.71177
 H2176 H 0.53754 0.17587 0.71696
 N2177 N 1.02129 0.17510 0.18473
 N2178 N 1.02802 0.15684 0.17766
 C2179 C 1.04161 0.14900 0.19041
 C2180 C 1.04312 0.16315 0.20559
 N2181 N 1.03013 0.17917 0.20145
 H2182 H 1.05200 0.16160 0.21863
 N2183 N 0.26680 0.64831 0.53026
 N2184 N 0.26001 0.63082 0.53811
 C2185 C 0.23873 0.63220 0.53906
 C2186 C 0.23259 0.65093 0.53139
 N2187 N 0.25059 0.66049 0.52610
 H2188 H 0.21679 0.65746 0.53068
 N2189 N 0.19956 0.14392 1.00266
 N2190 N 0.18989 0.12947 1.01286
 C2191 C 0.20141 0.12674 1.02870
 C2192 C 0.21872 0.13991 1.02786
 N2193 N 0.21687 0.15039 1.01135
 H2194 H 0.23048 0.14271 1.03872
 N2195 N 0.28094 0.70810 0.58777
 N2196 N 0.27516 0.70144 0.60502
 C2197 C 0.25488 0.70759 0.60803
 C2198 C 0.24848 0.71836 0.59220
 N2199 N 0.26516 0.71839 0.57994
 H2200 H 0.23296 0.72481 0.58951
 N2201 N 0.26340 0.18563 1.07466
 N2202 N 0.25890 0.18222 1.09293
 C2203 C 0.24440 0.19668 1.09855
 C2204 C 0.24011 0.20922 1.08311
 N2205 N 0.25233 0.20169 1.06848
 H2206 H 0.22876 0.22190 1.08236
 N2207 N 0.70677 0.49169 0.16416
 N2208 N 0.70216 0.49454 0.14598
 C2209 C 0.71088 0.51289 0.14094
 C2210 C 0.72108 0.52133 0.15668
 N2211 N 0.71807 0.50753 0.17086
 H2212 H 0.72976 0.53588 0.15773
 N2213 N 0.76493 1.03107 0.67039
 N2214 N 0.76125 1.03653 0.65251
 C2215 C 0.74103 1.03126 0.64895
 C2216 C 0.73244 1.02220 0.66509
 N2217 N 0.74786 1.02241 0.67811
 H2218 H 0.71623 1.01736 0.66763
 N2219 N 0.48482 0.25151 0.64927
 N2220 N 0.48977 0.24399 0.63189
 C2221 C 0.51101 0.24522 0.62992
 C2222 C 0.51893 0.25397 0.64654
 N2223 N 0.50210 0.25767 0.65821
 H2224 H 0.53536 0.25573 0.65043
 N2225 N 1.02516 0.27345 0.15797
 N2226 N 1.03139 0.26732 0.14044
 C2227 C 1.02647 0.24687 0.13860
 C2228 C 1.01676 0.24072 0.15546
 N2229 N 1.01624 0.25772 0.16717
 H2230 H 1.01234 0.22501 0.15947
 N2231 N 0.58643 0.25679 0.67940
 N2232 N 0.60333 0.24825 0.67096
 C2233 C 0.60849 0.23151 0.68132
 C2234 C 0.59414 0.22998 0.69655
 N2235 N 0.58065 0.24618 0.69476
 H2236 H 0.59368 0.21852 0.70779
 N2237 N 1.09414 0.26676 0.19660
 N2238 N 1.11336 0.26281 0.18942
 C2239 C 1.12068 0.24612 0.19881
 C2240 C 1.10544 0.23988 0.21187
 N2241 N 1.08916 0.25312 0.21002
 H2242 H 1.10587 0.22671 0.22139
 N2243 N 0.18247 0.72973 0.56371
 N2244 N 0.16308 0.72495 0.56959
 C2245 C 0.15434 0.71327 0.55549
 C2246 C 0.16909 0.71105 0.54064
 N2247 N 0.18639 0.72169 0.54634
 H2248 H 0.16680 0.70409 0.52653
 N2249 N 0.17139 0.24207 1.03817
 N2250 N 0.15182 0.23924 1.04464
 C2251 C 0.14515 0.22081 1.03725
 C2252 C 0.16137 0.21235 1.02584
 N2253 N 0.17743 0.22621 1.02684
 H2254 H 0.16156 0.19768 1.01779
 N2255 N 0.65666 0.53918 0.25316
 N2256 N 0.63834 0.54522 0.24617
 C2257 C 0.63572 0.53442 0.22957
 C2258 C 0.65301 0.52139 0.22660
 N2259 N 0.66574 0.52494 0.24163
 H2260 H 0.65694 0.51197 0.21393
 N2261 N 0.65745 1.00853 0.70286
 N2262 N 0.64003 1.01494 0.69460
 C2263 C 0.63450 1.03334 0.70304
 C2264 C 0.64928 1.03808 0.71703
 N2265 N 0.66335 1.02206 0.71634
 H2266 H 0.64993 1.05176 0.72641
 N2267 N 0.85232 0.46535 0.24161
 N2268 N 0.86967 0.45844 0.24979
 C2269 C 0.87034 0.46757 0.26740
 C2270 C 0.85292 0.48050 0.26973
 N2271 N 0.84209 0.47861 0.25332
 H2272 H 0.84758 0.48879 0.28266
 N2273 N 0.81386 0.98612 0.82075
 N2274 N 0.82964 0.97612 0.82877
 C2275 C 0.83801 0.96291 0.81530
 C2276 C 0.82681 0.96512 0.79860
 N2277 N 0.81185 0.97977 0.80269
 H2278 H 0.82882 0.95649 0.78515
 N2279 N 0.43752 0.32956 0.78798
 N2280 N 0.41916 0.33561 0.79562
 C2281 C 0.40762 0.31820 0.79827
 C2282 C 0.41968 0.30105 0.79212
 N2283 N 0.43826 0.30895 0.78576
 H2284 H 0.41475 0.28489 0.79069
 N2285 N 0.92325 0.23957 0.30662
 N2286 N 0.90528 0.24555 0.31532
 C2287 C 0.89954 0.26379 0.30744
 C2288 C 0.91453 0.26878 0.29364
 N2289 N 0.92904 0.25330 0.29354
 H2290 H 0.91503 0.28246 0.28472
 N2291 N 0.33212 0.76330 0.43465
 N2292 N 0.34810 0.77221 0.42549
 C2293 C 0.35712 0.78555 0.43810
 C2294 C 0.34614 0.78454 0.45546
 N2295 N 0.33068 0.77038 0.45261
 H2296 H 0.34912 0.79304 0.46873
 N2297 N 0.34733 0.21946 0.93408
 N2298 N 0.36399 0.22854 0.92589
 C2299 C 0.36859 0.24549 0.93689
 C2300 C 0.35444 0.24639 0.95214
 N2301 N 0.34146 0.22992 0.94992
 H2302 H 0.35273 0.25868 0.96299
 N2303 N 0.81256 0.50152 0.32344
 N2304 N 0.82037 0.49406 0.33944
 C2305 C 0.80834 0.47749 0.34415
 C2306 C 0.79286 0.47498 0.33062
 N2307 N 0.79607 0.49030 0.31797
 H2308 H 0.78098 0.46284 0.32966
 N2309 N 0.72329 0.96486 0.84503
 N2310 N 0.73020 0.95713 0.86128
 C2311 C 0.74943 0.96554 0.86434
 C2312 C 0.75404 0.97889 0.84947
 N2313 N 0.73730 0.97800 0.83774
 H2314 H 0.76873 0.98708 0.84667
 N2315 N 0.24527 0.75196 0.40893
 N2316 N 0.24989 0.75871 0.39151
 C2317 C 0.25655 0.77862 0.39359
 C2318 C 0.25577 0.78393 0.41294
 N2319 N 0.24857 0.76685 0.42199
 H2320 H 0.26252 0.79762 0.41987
 N2321 N 0.27500 0.23447 0.89633
 N2322 N 0.28083 0.24359 0.88022
 C2323 C 0.27847 0.26434 0.88328
 C2324 C 0.27086 0.26775 0.90184
 N2325 N 0.26902 0.24863 0.90950
 H2326 H 0.26885 0.28255 0.90951
 N2327 N 0.52259 0.30767 0.82932
 N2328 N 0.51569 0.31240 0.84701
 C2329 C 0.49815 0.30085 0.85009
 C2330 C 0.49460 0.28884 0.83386
 N2331 N 0.51012 0.29354 0.82123
 H2332 H 0.48123 0.27875 0.83102
 N2333 N 0.99030 0.22830 0.34051
 N2334 N 0.98295 0.23453 0.35761
 C2335 C 0.98876 0.25467 0.36004
 C2336 C 0.99994 0.26061 0.34389
 N2337 N 1.00044 0.24376 0.33199
 H2338 H 1.00415 0.27639 0.33995
 N2339 N 0.51775 0.36480 0.78652
 N2340 N 0.50948 0.37963 0.79800
 C2341 C 0.48848 0.37978 0.79485
 C2342 C 0.48418 0.36492 0.78093
 N2343 N 0.50279 0.35592 0.77608
 H2344 H 0.46884 0.36003 0.77584
 N2345 N 0.99293 0.32143 0.31854
 N2346 N 0.98512 0.33822 0.32762
 C2347 C 0.97027 0.34616 0.31617
 C2348 C 0.96909 0.33371 0.29981
 N2349 N 0.98355 0.31851 0.30186
 H2350 H 0.95932 0.33587 0.28739
 N2351 N 0.27728 0.84567 0.49967
 N2352 N 0.28396 0.86366 0.49278
 C2353 C 0.28141 0.86258 0.47363
 C2354 C 0.27276 0.84334 0.46894
 N2355 N 0.27041 0.83330 0.48566
 H2356 H 0.27090 0.83641 0.45476
 N2357 N 0.31997 0.30914 0.97760
 N2358 N 0.32617 0.32735 0.97082
 C2359 C 0.31041 0.33438 0.95984
 C2360 C 0.29422 0.31988 0.96011
 N2361 N 0.30087 0.30439 0.97141
 H2362 H 0.27926 0.32045 0.95279
 N2363 N 0.79719 0.40960 0.25487
 N2364 N 0.80431 0.39258 0.26305
 C2365 C 0.79624 0.39255 0.28108
 C2366 C 0.78370 0.41031 0.28376
 N2367 N 0.78485 0.42053 0.26695
 H2368 H 0.77543 0.41566 0.29671
   
