data_POSCAR
  _audit_creation_date              2014-09-24
  _audit_creation_method            'ToBaCCo'
  _symmetry_space_group_name_H-M    'P1'
  _symmetry_Int_Tables_number       1
  _symmetry_cell_setting            triclinic
  loop_
  _symmetry_equiv_pos_as_xyz
 x,y,z
_cell_length_a 55.9374
_cell_length_b 59.5698
_cell_length_c 57.2925
_cell_angle_alpha 91.107000
_cell_angle_beta 90.756800
_cell_angle_gamma 89.849200
loop_
  _atom_site_label
  _atom_site_type_symbol
  _atom_site_fract_x
  _atom_site_fract_y
  _atom_site_fract_z
N1 N 0.36811 0.32637 0.30853
 N2 N 0.36163 0.34337 0.29562
 C3 C 0.37847 0.34674 0.27941
 C4 C 0.39641 0.33101 0.28264
 C5 C 0.38924 0.31841 0.30124
 H6 H 0.37758 0.35939 0.26614
 H7 H 0.39830 0.30400 0.30843
 Cu8 Cu 0.33161 0.35892 0.30131
 Cu9 Cu 0.34775 0.31420 0.33218
 Cu10 Cu 0.30096 0.34819 0.35022
 N11 N 0.30820 0.37980 0.31393
 N12 N 0.29651 0.37598 0.33323
 C13 C 0.28141 0.39323 0.33745
 C14 C 0.28394 0.40858 0.31984
 C15 C 0.30108 0.39956 0.30528
 H16 H 0.26921 0.39432 0.35192
 H17 H 0.30773 0.40672 0.28944
 N18 N 0.31139 0.32137 0.36749
 N19 N 0.32900 0.30840 0.36004
 C20 C 0.33236 0.29158 0.37496
 C21 C 0.31617 0.29394 0.39270
 C22 C 0.30305 0.31300 0.38757
 H23 H 0.34594 0.27872 0.37334
 H24 H 0.28876 0.32029 0.39777
 H25 H 0.31475 0.32830 0.32423
 H26 H 0.33639 0.34618 0.34109
 N27 N 0.35094 0.81861 -0.20830
 N28 N 0.34567 0.83170 -0.22606
 C29 C 0.36418 0.83181 -0.24079
 C30 C 0.38188 0.81795 -0.23216
 C31 C 0.37302 0.80990 -0.21146
 H32 H 0.36443 0.84063 -0.25711
 H33 H 0.38166 0.79805 -0.20000
 Cu34 Cu 0.31426 0.84632 -0.23056
 Cu35 Cu 0.32785 0.81253 -0.18302
 Cu36 Cu 0.27229 0.83104 -0.19391
 N37 N 0.28418 0.86304 -0.22788
 N38 N 0.26743 0.85627 -0.21381
 C39 C 0.24910 0.87083 -0.21404
 C40 C 0.25456 0.88774 -0.22911
 C41 C 0.27687 0.88223 -0.23792
 H42 H 0.23346 0.86970 -0.20321
 H43 H 0.28739 0.89185 -0.24987
 N44 N 0.27990 0.81526 -0.16594
 N45 N 0.30177 0.80884 -0.16060
 C46 C 0.30208 0.80182 -0.13826
 C47 C 0.27917 0.80448 -0.12948
 C48 C 0.26571 0.81282 -0.14756
 H49 H 0.31790 0.79653 -0.12878
 H50 H 0.24726 0.81825 -0.14687
 H51 H 0.30785 0.81619 -0.21318
 H52 H 0.31376 0.84208 -0.19527
 N53 N 0.86517 0.29585 -0.15697
 N54 N 0.86649 0.30599 -0.17708
 C55 C 0.88672 0.29999 -0.18785
 C56 C 0.89892 0.28518 -0.17388
 C57 C 0.88480 0.28281 -0.15433
 H58 H 0.89225 0.30615 -0.20456
 H59 H 0.88850 0.27240 -0.13944
 Cu60 Cu 0.84266 0.32698 -0.18733
 Cu61 Cu 0.83761 0.30065 -0.13643
 Cu62 Cu 0.79575 0.34037 -0.15480
 N63 N 0.82568 0.35474 -0.19182
 N64 N 0.80695 0.36003 -0.17925
 C65 C 0.79802 0.37973 -0.18660
 C66 C 0.81223 0.38711 -0.20455
 C67 C 0.82965 0.37091 -0.20733
 H68 H 0.78241 0.38796 -0.17945
 H69 H 0.84391 0.37069 -0.21992
 N70 N 0.79225 0.32308 -0.12600
 N71 N 0.80812 0.30816 -0.11879
 C72 C 0.80031 0.29925 -0.09880
 C73 C 0.77862 0.30911 -0.09324
 C74 C 0.77410 0.32413 -0.11080
 H75 H 0.80956 0.28640 -0.08910
 H76 H 0.75863 0.33493 -0.11242
 H77 H 0.81340 0.30996 -0.16146
 H78 H 0.83075 0.33311 -0.14713
 N79 N 0.87893 0.80259 0.34085
 N80 N 0.88017 0.81489 0.32210
 C81 C 0.89948 0.80873 0.30973
 C82 C 0.91101 0.79169 0.32142
 C83 C 0.89755 0.78821 0.34111
 H84 H 0.90485 0.81620 0.29357
 H85 H 0.90087 0.77588 0.35439
 Cu86 Cu 0.85694 0.83825 0.31594
 Cu87 Cu 0.85238 0.80529 0.36259
 Cu88 Cu 0.81168 0.84831 0.35227
 N89 N 0.84018 0.86679 0.31622
 N90 N 0.82235 0.87094 0.33041
 C91 C 0.81332 0.89148 0.32590
 C92 C 0.82636 0.90054 0.30794
 C93 C 0.84329 0.88446 0.30236
 H94 H 0.79811 0.89895 0.33459
 H95 H 0.85650 0.88531 0.28878
 N96 N 0.80831 0.82682 0.37793
 N97 N 0.82400 0.81073 0.38218
 C98 C 0.81621 0.79848 0.40013
 C99 C 0.79461 0.80726 0.40741
 C100 C 0.79018 0.82521 0.39304
 H101 H 0.82509 0.78377 0.40686
 H102 H 0.77457 0.83596 0.39326
 H103 H 0.82780 0.81883 0.34002
 H104 H 0.84663 0.83924 0.35702
 N105 N 0.61599 0.67669 0.33968
 N106 N 0.61320 0.66524 0.31985
 C107 C 0.59460 0.67402 0.30786
 C108 C 0.58549 0.69188 0.32078
 C109 C 0.59937 0.69302 0.34080
 H110 H 0.58889 0.66863 0.29055
 H111 H 0.59823 0.70566 0.35454
 Cu112 Cu 0.63564 0.64124 0.30991
 Cu113 Cu 0.64296 0.67209 0.36148
 Cu114 Cu 0.68452 0.63503 0.34373
 N115 N 0.65671 0.61512 0.30659
 N116 N 0.67606 0.61312 0.31966
 C117 C 0.68821 0.59466 0.31293
 C118 C 0.67587 0.58451 0.29461
 C119 C 0.65589 0.59787 0.29100
 H120 H 0.70497 0.58922 0.32057
 H121 H 0.64224 0.59558 0.27762
 N122 N 0.68738 0.65088 0.37341
 N123 N 0.67097 0.66520 0.38049
 C124 C 0.67809 0.67465 0.40095
 C125 C 0.70008 0.66565 0.40690
 C126 C 0.70543 0.65058 0.38913
 H127 H 0.66848 0.68769 0.41031
 H128 H 0.72161 0.64076 0.38739
 H129 H 0.65666 0.66361 0.32935
 H130 H 0.64156 0.64062 0.34511
 N131 N 0.62310 0.16106 -0.16025
 N132 N 0.63253 0.15020 -0.17810
 C133 C 0.61829 0.15263 -0.19699
 C134 C 0.59896 0.16576 -0.19061
 C135 C 0.60248 0.17077 -0.16715
 H136 H 0.62190 0.14575 -0.21419
 H137 H 0.59114 0.18095 -0.15602
 Cu138 Cu 0.66280 0.13441 -0.17499
 Cu139 Cu 0.63858 0.16156 -0.12954
 Cu140 Cu 0.69917 0.14881 -0.13049
 N141 N 0.69159 0.11730 -0.16815
 N142 N 0.70624 0.12341 -0.15105
 C143 C 0.72503 0.10927 -0.15050
 C144 C 0.72175 0.09331 -0.16805
 C145 C 0.70039 0.09890 -0.17896
 H146 H 0.73971 0.11034 -0.13804
 H147 H 0.69188 0.09028 -0.19362
 N148 N 0.68420 0.16553 -0.10478
 N149 N 0.66094 0.16919 -0.10378
 C150 C 0.65607 0.18007 -0.08362
 C151 C 0.67729 0.18341 -0.07150
 C152 C 0.69481 0.17405 -0.08535
 H153 H 0.63851 0.18582 -0.07850
 H154 H 0.71380 0.17347 -0.08161
 H155 H 0.66970 0.16485 -0.14652
 H156 H 0.66531 0.13712 -0.13259
 N157 N 0.11259 0.66963 -0.14910
 N158 N 0.11003 0.65899 -0.16930
 C159 C 0.08849 0.66408 -0.17867
 C160 C 0.07694 0.67852 -0.16336
 C161 C 0.09266 0.68161 -0.14478
 H162 H 0.08200 0.65823 -0.19557
 H163 H 0.09027 0.69275 -0.12986
 Cu164 Cu 0.13553 0.64041 -0.18190
 Cu165 Cu 0.14269 0.66961 -0.13150
 Cu166 Cu 0.18635 0.63261 -0.15067
 N167 N 0.15779 0.61632 -0.18927
 N168 N 0.17791 0.61360 -0.17751
 C169 C 0.18996 0.59603 -0.18681
 C170 C 0.17648 0.58727 -0.20518
 C171 C 0.15620 0.60046 -0.20622
 H172 H 0.20703 0.58991 -0.18049
 H173 H 0.14142 0.59867 -0.21848
 N174 N 0.19115 0.65328 -0.12377
 N175 N 0.17443 0.66724 -0.11628
 C176 C 0.18345 0.67982 -0.09846
 C177 C 0.20690 0.67339 -0.09461
 C178 C 0.21119 0.65653 -0.11088
 H179 H 0.17399 0.69318 -0.08946
 H180 H 0.22794 0.64782 -0.11358
 H181 H 0.16548 0.66041 -0.15823
 H182 H 0.15082 0.63713 -0.14226
 N183 N 0.14578 0.19513 0.34775
 N184 N 0.13860 0.17952 0.33276
 C185 C 0.11967 0.18729 0.32056
 C186 C 0.11485 0.20889 0.32844
 C187 C 0.13170 0.21334 0.34572
 H188 H 0.11061 0.17822 0.30652
 H189 H 0.13384 0.22881 0.35570
 Cu190 Cu 0.15594 0.15131 0.32877
 Cu191 Cu 0.17319 0.19036 0.36789
 Cu192 Cu 0.20725 0.14421 0.36325
 N193 N 0.17632 0.12435 0.32698
 N194 N 0.19653 0.12205 0.33894
 C195 C 0.20734 0.10285 0.33178
 C196 C 0.19309 0.09273 0.31466
 C197 C 0.17364 0.10672 0.31218
 H198 H 0.22434 0.09680 0.33835
 H199 H 0.15909 0.10458 0.29973
 N200 N 0.20835 0.16372 0.39133
 N201 N 0.19387 0.18107 0.39325
 C202 C 0.19673 0.19083 0.41440
 C203 C 0.21434 0.17942 0.42630
 C204 C 0.22157 0.16231 0.41119
 H205 H 0.18690 0.20537 0.42061
 H206 H 0.23481 0.14947 0.41463
 H207 H 0.18890 0.16340 0.33877
 H208 H 0.17141 0.15000 0.36211
 N209 N 0.62009 0.30464 0.69455
 N210 N 0.62546 0.32212 0.70794
 C211 C 0.61042 0.32290 0.72615
 C212 C 0.59485 0.30497 0.72382
 C213 C 0.60147 0.29378 0.70360
 H214 H 0.61095 0.33534 0.74015
 H215 H 0.59378 0.27849 0.69635
 Cu216 Cu 0.65211 0.34161 0.70059
 Cu217 Cu 0.63893 0.29589 0.66772
 Cu218 Cu 0.67628 0.33691 0.64695
 N219 N 0.67226 0.36497 0.68813
 N220 N 0.68115 0.36333 0.66703
 C221 C 0.69455 0.38158 0.66309
 C222 C 0.69406 0.39531 0.68278
 C223 C 0.67975 0.38430 0.69836
 H224 H 0.70451 0.38437 0.64736
 H225 H 0.67542 0.38979 0.71590
 N226 N 0.66917 0.30875 0.62951
 N227 N 0.65487 0.29315 0.63750
 C228 C 0.65406 0.27574 0.62217
 C229 C 0.66876 0.28051 0.60380
 C230 C 0.67807 0.30153 0.60894
 H231 H 0.64399 0.26048 0.62443
 H232 H 0.69071 0.31067 0.59866
 H233 H 0.67013 0.31472 0.67287
 H234 H 0.64327 0.32928 0.66068
 N235 N 0.62884 0.82247 1.16643
 N236 N 0.62874 0.83100 1.18776
 C237 C 0.61406 0.81864 1.20084
 C238 C 0.60489 0.80143 1.18682
 C239 C 0.61456 0.80440 1.16515
 H240 H 0.61044 0.82179 1.21911
 H241 H 0.61120 0.79440 1.14949
 Cu242 Cu 0.64815 0.85729 1.19591
 Cu243 Cu 0.64659 0.83593 1.14167
 Cu244 Cu 0.69343 0.86979 1.16037
 N245 N 0.66858 0.88329 1.20196
 N246 N 0.68622 0.88811 1.18794
 C247 C 0.69841 0.90582 1.19682
 C248 C 0.68783 0.91244 1.21750
 C249 C 0.66896 0.89784 1.22026
 H250 H 0.71420 0.91288 1.18916
 H251 H 0.65690 0.89746 1.23485
 N252 N 0.69203 0.85538 1.12912
 N253 N 0.67366 0.84307 1.12201
 C254 C 0.67847 0.83368 1.10112
 C255 C 0.70093 0.84041 1.09471
 C256 C 0.70903 0.85437 1.11266
 H257 H 0.66716 0.82158 1.09206
 H258 H 0.72655 0.86190 1.11434
 H259 H 0.67327 0.84090 1.16563
 H260 H 0.65799 0.86709 1.15591
 N261 N 0.13796 0.31582 1.15143
 N262 N 0.13180 0.33083 1.16735
 C263 C 0.11595 0.32165 1.18181
 C264 C 0.11204 0.29972 1.17445
 C265 C 0.12622 0.29655 1.15511
 H266 H 0.10797 0.33025 1.19659
 H267 H 0.12793 0.28140 1.14454
 Cu268 Cu 0.14501 0.36091 1.16750
 Cu269 Cu 0.16054 0.32280 1.12718
 Cu270 Cu 0.19928 0.36594 1.14335
 N271 N 0.16457 0.38724 1.17312
 N272 N 0.18609 0.38911 1.16439
 C273 C 0.19631 0.40800 1.17322
 C274 C 0.18013 0.41840 1.18809
 C275 C 0.16022 0.40482 1.18750
 H276 H 0.21429 0.41344 1.16959
 H277 H 0.14421 0.40702 1.19767
 N278 N 0.20600 0.34411 1.11750
 N279 N 0.19084 0.32798 1.11149
 C280 C 0.19986 0.31572 1.09377
 C281 C 0.22176 0.32449 1.08812
 C282 C 0.22516 0.34258 1.10341
 H283 H 0.19114 0.30133 1.08569
 H284 H 0.24045 0.35365 1.10424
 H285 H 0.17873 0.33885 1.15334
 H286 H 0.16640 0.35782 1.13058
 N287 N 0.12840 0.79543 0.69516
 N288 N 0.11866 0.81352 0.70455
 C289 C 0.09993 0.80727 0.71760
 C290 C 0.09801 0.78405 0.71594
 C291 C 0.11637 0.77722 0.70169
 H292 H 0.08802 0.81875 0.72661
 H293 H 0.12003 0.76028 0.69556
 Cu294 Cu 0.13098 0.84336 0.69698
 Cu295 Cu 0.15416 0.79672 0.67309
 Cu296 Cu 0.15456 0.84278 0.64101
 N297 N 0.13756 0.87105 0.67975
 N298 N 0.14511 0.87059 0.65798
 C299 C 0.14958 0.89171 0.65144
 C300 C 0.14510 0.90611 0.67001
 C301 C 0.13747 0.89250 0.68775
 H302 H 0.15782 0.89608 0.63517
 H303 H 0.13359 0.89764 0.70551
 N304 N 0.17123 0.81541 0.63111
 N305 N 0.17125 0.79746 0.64410
 C306 C 0.18182 0.78040 0.63257
 C307 C 0.18890 0.78802 0.61117
 C308 C 0.18203 0.81037 0.61075
 H309 H 0.18298 0.76337 0.63870
 H310 H 0.18345 0.82165 0.59626
 H311 H 0.16129 0.83699 0.67587
 H312 H 0.13061 0.83009 0.66475
 N313 N 0.38374 0.66956 0.65786
 N314 N 0.37616 0.65631 0.67429
 C315 C 0.38944 0.65992 0.69377
 C316 C 0.40615 0.67627 0.68921
 C317 C 0.40214 0.68196 0.66624
 H318 H 0.38680 0.65172 0.71022
 H319 H 0.41143 0.69457 0.65652
 Cu320 Cu 0.34910 0.63624 0.66881
 Cu321 Cu 0.36857 0.67020 0.62715
 Cu322 Cu 0.31173 0.64703 0.62431
 N323 N 0.32172 0.61700 0.66174
 N324 N 0.30722 0.62129 0.64412
 C325 C 0.28910 0.60648 0.64378
 C326 C 0.29241 0.59214 0.66219
 C327 C 0.31327 0.59925 0.67326
 H328 H 0.27429 0.60651 0.63144
 H329 H 0.32133 0.59232 0.68881
 N330 N 0.32373 0.66786 0.60104
 N331 N 0.34546 0.67645 0.60194
 C332 C 0.34760 0.69144 0.58481
 C333 C 0.32623 0.69215 0.57252
 C334 C 0.31155 0.67691 0.58313
 H335 H 0.36303 0.70198 0.58232
 H336 H 0.29297 0.67362 0.57894
 H337 H 0.33678 0.66646 0.64325
 H338 H 0.34718 0.64112 0.62655
 N339 N 0.38101 0.17873 1.17237
 N340 N 0.37305 0.16776 1.19038
 C341 C 0.38583 0.17380 1.20952
 C342 C 0.40268 0.18936 1.20313
 C343 C 0.39925 0.19207 1.17941
 H344 H 0.38307 0.16745 1.22683
 H345 H 0.40907 0.20302 1.16816
 Cu346 Cu 0.34696 0.14643 1.18700
 Cu347 Cu 0.36698 0.17456 1.14128
 Cu348 Cu 0.31106 0.14938 1.13999
 N349 N 0.32307 0.12348 1.18035
 N350 N 0.30894 0.12466 1.16188
 C351 C 0.29372 0.10718 1.16175
 C352 C 0.29867 0.09441 1.18115
 C353 C 0.31738 0.10522 1.19260
 H354 H 0.27997 0.10411 1.14863
 H355 H 0.32608 0.10022 1.20865
 N356 N 0.32262 0.16833 1.11464
 N357 N 0.34445 0.17673 1.11467
 C358 C 0.34733 0.18856 1.09516
 C359 C 0.32628 0.18777 1.08233
 C360 C 0.31093 0.17480 1.09514
 H361 H 0.36322 0.19794 1.09107
 H362 H 0.29261 0.17056 1.09070
 H363 H 0.33452 0.17237 1.15664
 H364 H 0.34643 0.14542 1.14436
 N365 N 0.88043 0.67802 1.17590
 N366 N 0.87722 0.66080 1.18967
 C367 C 0.89591 0.65940 1.20464
 C368 C 0.91142 0.67670 1.20019
 C369 C 0.90114 0.68819 1.18191
 H370 H 0.89786 0.64705 1.21812
 H371 H 0.90810 0.70302 1.17383
 Cu372 Cu 0.84873 0.64160 1.18774
 Cu373 Cu 0.85707 0.68647 1.15164
 Cu374 Cu 0.80816 0.65400 1.14566
 N375 N 0.82291 0.62140 1.17910
 N376 N 0.80720 0.62582 1.16252
 C377 C 0.79140 0.60878 1.16084
 C378 C 0.79753 0.59313 1.17745
 C379 C 0.81754 0.60167 1.18870
 H380 H 0.77629 0.60804 1.14888
 H381 H 0.82740 0.59417 1.20293
 N382 N 0.81453 0.67843 1.12435
 N383 N 0.83425 0.69034 1.12623
 C384 C 0.83438 0.70578 1.10942
 C385 C 0.81355 0.70362 1.09643
 C386 C 0.80128 0.68611 1.10632
 H387 H 0.84828 0.71811 1.10717
 H388 H 0.78408 0.67949 1.10082
 H389 H 0.83515 0.67128 1.17513
 H390 H 0.85080 0.65231 1.15396
 N391 N 0.86142 0.18604 0.68246
 N392 N 0.85854 0.17188 0.69952
 C393 C 0.87789 0.17210 0.71355
 C394 C 0.89382 0.18739 0.70520
 C395 C 0.88283 0.19626 0.68551
 H396 H 0.88049 0.16136 0.72840
 H397 H 0.89027 0.20834 0.67378
 Cu398 Cu 0.83140 0.15229 0.70088
 Cu399 Cu 0.83733 0.18802 0.65712
 Cu400 Cu 0.79830 0.14220 0.65360
 N401 N 0.81314 0.12508 0.69770
 N402 N 0.80051 0.12054 0.67871
 C403 C 0.79245 0.09925 0.67964
 C404 C 0.80085 0.09018 0.70024
 C405 C 0.81395 0.10693 0.71117
 H406 H 0.78289 0.09054 0.66566
 H407 H 0.82477 0.10547 0.72686
 N408 N 0.80215 0.16374 0.62821
 N409 N 0.81587 0.18180 0.62969
 C410 C 0.81357 0.19324 0.60960
 C411 C 0.79809 0.18143 0.59487
 C412 C 0.79140 0.16289 0.60714
 H413 H 0.82302 0.20849 0.60568
 H414 H 0.77937 0.14978 0.60108
 H415 H 0.80812 0.17196 0.67060
 H416 H 0.83269 0.15420 0.65894
 N417 N 0.34986 0.39294 0.65888
 N418 N 0.35033 0.38880 0.68134
 C419 C 0.33926 0.40567 0.69296
 C420 C 0.33149 0.42111 0.67677
 C421 C 0.33867 0.41260 0.65540
 H422 H 0.33607 0.40613 0.71154
 H423 H 0.33480 0.41950 0.63843
 Cu424 Cu 0.36420 0.36109 0.69272
 Cu425 Cu 0.36145 0.37147 0.63562
 Cu426 Cu 0.37141 0.31767 0.65518
 N427 N 0.38359 0.33524 0.70084
 N428 N 0.38674 0.31830 0.68610
 C429 C 0.40113 0.30299 0.69614
 C430 C 0.40720 0.31085 0.71832
 C431 C 0.39574 0.33128 0.72075
 H432 H 0.40673 0.28738 0.68792
 H433 H 0.39647 0.34257 0.73576
 N434 N 0.36468 0.32415 0.62211
 N435 N 0.36231 0.34488 0.61465
 C436 C 0.35604 0.34419 0.59192
 C437 C 0.35410 0.32202 0.58473
 C438 C 0.35985 0.30967 0.60427
 H439 H 0.35106 0.35873 0.58190
 H440 H 0.35902 0.29163 0.60579
 H441 H 0.34892 0.34609 0.65558
 H442 H 0.38209 0.34956 0.65563
 N443 N 0.33164 0.89096 0.16339
 N444 N 0.35158 0.88789 0.17538
 C445 C 0.35222 0.90239 0.19367
 C446 C 0.33160 0.91515 0.19320
 C447 C 0.31887 0.90750 0.17378
 H448 H 0.36655 0.90352 0.20649
 H449 H 0.30175 0.91361 0.16761
 Cu450 Cu 0.37505 0.86521 0.16659
 Cu451 Cu 0.32410 0.87359 0.13496
 Cu452 Cu 0.36112 0.82862 0.12343
 N453 N 0.39386 0.83807 0.16109
 N454 N 0.38863 0.82407 0.14376
 C455 C 0.40365 0.80643 0.14445
 C456 C 0.41901 0.80945 0.16328
 C457 C 0.41239 0.82971 0.17351
 H458 H 0.40283 0.79197 0.13276
 H459 H 0.41990 0.83739 0.18921
 N460 N 0.33460 0.83675 0.10252
 N461 N 0.32005 0.85371 0.10711
 C462 C 0.30269 0.85408 0.09056
 C463 C 0.30667 0.83657 0.07486
 C464 C 0.32706 0.82602 0.08290
 H465 H 0.28786 0.86576 0.09027
 H466 H 0.33522 0.81109 0.07547
 H467 H 0.34087 0.84669 0.14867
 H468 H 0.35805 0.86372 0.12738
 N469 N 0.84152 0.38811 0.17329
 N470 N 0.86009 0.38440 0.18701
 C471 C 0.86103 0.40074 0.20368
 C472 C 0.84188 0.41515 0.20013
 C473 C 0.82999 0.40665 0.18071
 H474 H 0.87397 0.40161 0.21786
 H475 H 0.81371 0.41312 0.17297
 Cu476 Cu 0.87948 0.35729 0.18242
 Cu477 Cu 0.83205 0.36766 0.14818
 Cu478 Cu 0.86824 0.32178 0.13687
 N479 N 0.89917 0.33066 0.17662
 N480 N 0.89445 0.31696 0.15885
 C481 C 0.90972 0.29950 0.15932
 C482 C 0.92485 0.30237 0.17832
 C483 C 0.91777 0.32232 0.18895
 H484 H 0.90954 0.28548 0.14705
 H485 H 0.92519 0.32979 0.20478
 N486 N 0.84074 0.32975 0.11682
 N487 N 0.82746 0.34771 0.12091
 C488 C 0.80991 0.34860 0.10474
 C489 C 0.81193 0.33016 0.09004
 C490 C 0.83164 0.31847 0.09809
 H491 H 0.79591 0.36114 0.10428
 H492 H 0.83834 0.30265 0.09125
 H493 H 0.84758 0.33809 0.16060
 H494 H 0.86640 0.35610 0.14184
 N495 N 0.82025 0.88192 0.66206
 N496 N 0.83443 0.88134 0.68048
 C497 C 0.82628 0.89602 0.69675
 C498 C 0.80569 0.90584 0.68790
 C499 C 0.80245 0.89659 0.66590
 H500 H 0.83421 0.89872 0.71389
 H501 H 0.78786 0.89979 0.65382
 Cu502 Cu 0.86144 0.86059 0.68136
 Cu503 Cu 0.82492 0.86218 0.63562
 Cu504 Cu 0.85495 0.81404 0.64377
 N505 N 0.88106 0.83332 0.68374
 N506 N 0.87830 0.81513 0.67037
 C507 C 0.89501 0.79983 0.67667
 C508 C 0.90889 0.80920 0.69452
 C509 C 0.89956 0.83030 0.69844
 H510 H 0.89782 0.78375 0.66804
 H511 H 0.90620 0.84278 0.71085
 N512 N 0.83113 0.81750 0.61841
 N513 N 0.82035 0.83685 0.61508
 C514 C 0.80381 0.83465 0.59810
 C515 C 0.80409 0.81280 0.59012
 C516 C 0.82178 0.80221 0.60315
 H517 H 0.79142 0.84768 0.59295
 H518 H 0.82647 0.78458 0.60251
 H519 H 0.83924 0.83745 0.66574
 H520 H 0.86408 0.84718 0.64717
 N521 N 0.68805 0.61476 0.68660
 N522 N 0.67455 0.62072 0.70424
 C523 C 0.67439 0.60425 0.71991
 C524 C 0.68886 0.58714 0.71180
 C525 C 0.69741 0.59429 0.69065
 H526 H 0.66447 0.60469 0.73599
 H527 H 0.70905 0.58512 0.67892
 Cu528 Cu 0.65820 0.64917 0.70503
 Cu529 Cu 0.69113 0.63397 0.65964
 Cu530 Cu 0.65265 0.68011 0.65677
 N531 N 0.63346 0.67138 0.70207
 N532 N 0.63033 0.68344 0.68328
 C533 C 0.61075 0.69660 0.68645
 C534 C 0.60149 0.69218 0.70836
 C535 C 0.61641 0.67619 0.71755
 H536 H 0.60373 0.70828 0.67384
 H537 H 0.61468 0.66823 0.73426
 N538 N 0.67711 0.67298 0.63243
 N539 N 0.69148 0.65537 0.63396
 C540 C 0.70697 0.65543 0.61629
 C541 C 0.70242 0.67383 0.60279
 C542 C 0.68329 0.68470 0.61339
 H543 H 0.72119 0.64334 0.61374
 H544 H 0.67515 0.70033 0.60815
 H545 H 0.68096 0.66537 0.67376
 H546 H 0.65638 0.64660 0.66286
 N547 N 0.68657 0.11688 0.18910
 N548 N 0.66563 0.11462 0.19891
 C549 C 0.66691 0.09865 0.21508
 C550 C 0.68983 0.09014 0.21537
 C551 C 0.70194 0.10194 0.19856
 H552 H 0.65247 0.09414 0.22644
 H553 H 0.72070 0.10055 0.19442
 Cu554 Cu 0.63933 0.13435 0.19182
 Cu555 Cu 0.69209 0.14061 0.16643
 Cu556 Cu 0.64462 0.17762 0.15622
 N557 N 0.61772 0.15954 0.19362
 N558 N 0.61957 0.17676 0.17976
 C559 C 0.60296 0.19223 0.18578
 C560 C 0.59051 0.18418 0.20462
 C561 C 0.60033 0.16346 0.20907
 H562 H 0.60084 0.20843 0.17777
 H563 H 0.59571 0.15236 0.22303
 N564 N 0.67549 0.17943 0.13991
 N565 N 0.69358 0.16566 0.14411
 C566 C 0.71198 0.17127 0.13050
 C567 C 0.70519 0.18930 0.11712
 C568 C 0.68196 0.19409 0.12348
 H569 H 0.72902 0.16268 0.13003
 H570 H 0.67063 0.20720 0.11661
 H571 H 0.66701 0.16294 0.17981
 H572 H 0.65751 0.14468 0.15472
 N573 N 0.20919 0.64100 0.17312
 N574 N 0.18976 0.63898 0.18556
 C575 C 0.19038 0.61885 0.19611
 C576 C 0.21111 0.60781 0.18927
 C577 C 0.22247 0.62235 0.17476
 H578 H 0.17652 0.61248 0.20716
 H579 H 0.23912 0.61945 0.16576
 Cu580 Cu 0.16536 0.66281 0.18537
 Cu581 Cu 0.21552 0.66700 0.15477
 Cu582 Cu 0.16891 0.69746 0.13707
 N583 N 0.13935 0.68364 0.17593
 N584 N 0.14043 0.69597 0.15702
 C585 C 0.12047 0.70853 0.15541
 C586 C 0.10625 0.70413 0.17424
 C587 C 0.11868 0.68825 0.18694
 H588 H 0.11694 0.72080 0.14213
 H589 H 0.11327 0.68096 0.20318
 N590 N 0.19901 0.69680 0.12011
 N591 N 0.21763 0.68554 0.12782
 C592 C 0.23597 0.68795 0.11320
 C593 C 0.22846 0.70147 0.09529
 C594 C 0.20493 0.70691 0.10016
 H595 H 0.25325 0.67995 0.11511
 H596 H 0.19303 0.71725 0.08990
 H597 H 0.18222 0.68979 0.16970
 H598 H 0.17237 0.66563 0.15091
 N599 N 0.19474 0.14490 0.67499
 N600 N 0.17354 0.14082 0.68354
 C601 C 0.17190 0.11864 0.68779
 C602 C 0.19311 0.10856 0.68091
 C603 C 0.20710 0.12568 0.67296
 H604 H 0.15614 0.11039 0.69418
 H605 H 0.22481 0.12421 0.66571
 Cu606 Cu 0.14980 0.16504 0.68576
 Cu607 Cu 0.20424 0.17446 0.66557
 Cu608 Cu 0.15968 0.20430 0.64256
 N609 N 0.12559 0.18724 0.67623
 N610 N 0.12899 0.20163 0.65930
 C611 C 0.10984 0.21534 0.65792
 C612 C 0.09385 0.20937 0.67488
 C613 C 0.10433 0.19148 0.68612
 H614 H 0.10831 0.22950 0.64646
 H615 H 0.09743 0.18275 0.70097
 N616 N 0.19315 0.21018 0.63506
 N617 N 0.21049 0.19952 0.64591
 C618 C 0.23156 0.20531 0.63700
 C619 C 0.22733 0.21996 0.61910
 C620 C 0.20271 0.22286 0.61828
 H621 H 0.24846 0.19752 0.64146
 H622 H 0.19250 0.23227 0.60561
 H623 H 0.16813 0.19468 0.67608
 H624 H 0.16230 0.17168 0.65415
 N625 N 0.30634 0.63554 0.32337
 N626 N 0.32588 0.63503 0.31059
 C627 C 0.32910 0.61410 0.30205
 C628 C 0.31055 0.60087 0.30929
 C629 C 0.29634 0.61492 0.32276
 H630 H 0.34299 0.60910 0.29006
 H631 H 0.27965 0.61062 0.33087
 Cu632 Cu 0.34352 0.66220 0.30191
 Cu633 Cu 0.29451 0.66357 0.33872
 Cu634 Cu 0.32009 0.71058 0.32029
 N635 N 0.36002 0.69067 0.29766
 N636 N 0.34984 0.70975 0.30380
 C637 C 0.36499 0.72672 0.30031
 C638 C 0.38582 0.71788 0.29146
 C639 C 0.38213 0.69492 0.28973
 H640 H 0.36166 0.74405 0.30528
 H641 H 0.39491 0.68227 0.28430
 N642 N 0.29958 0.71093 0.34701
 N643 N 0.29076 0.69244 0.35560
 C644 C 0.28114 0.69743 0.37661
 C645 C 0.28454 0.72020 0.38120
 C646 C 0.29601 0.72815 0.36197
 H647 H 0.27355 0.68528 0.38816
 H648 H 0.30302 0.74489 0.35986
 H649 H 0.30835 0.67281 0.30687
 H650 H 0.32865 0.67297 0.33290
 N651 N 0.29315 0.10330 0.81358
 N652 N 0.31264 0.10183 0.80110
 C653 C 0.31247 0.08255 0.78863
 C654 C 0.29146 0.07147 0.79294
 C655 C 0.27938 0.08510 0.80881
 H656 H 0.32611 0.07743 0.77642
 H657 H 0.26201 0.08209 0.81619
 Cu658 Cu 0.33501 0.12631 0.79972
 Cu659 Cu 0.28807 0.12927 0.83452
 Cu660 Cu 0.33755 0.16478 0.84280
 N661 N 0.36239 0.14553 0.80375
 N662 N 0.36361 0.16099 0.82041
 C663 C 0.38423 0.17250 0.81820
 C664 C 0.39632 0.16351 0.79918
 C665 C 0.38197 0.14646 0.79058
 H666 H 0.38973 0.18658 0.82919
 H667 H 0.38531 0.13586 0.77543
 N668 N 0.30915 0.16565 0.86319
 N669 N 0.29055 0.15220 0.85998
 C670 C 0.27453 0.15652 0.87683
 C671 C 0.28330 0.17356 0.89116
 C672 C 0.30523 0.17903 0.88204
 H673 H 0.25775 0.14781 0.87868
 H674 H 0.31748 0.19163 0.88883
 H675 H 0.31051 0.15373 0.82137
 H676 H 0.32435 0.13207 0.84019
 N677 N 0.80433 0.60764 0.84434
 N678 N 0.81891 0.61073 0.82686
 C679 C 0.81980 0.59152 0.81385
 C680 C 0.80548 0.57570 0.82441
 C681 C 0.79622 0.58651 0.84368
 H682 H 0.83000 0.58925 0.79807
 H683 H 0.78348 0.57978 0.85572
 Cu684 Cu 0.83506 0.63992 0.82354
 Cu685 Cu 0.79388 0.63177 0.86470
 Cu686 Cu 0.83350 0.67214 0.87498
 N687 N 0.85639 0.66626 0.82973
 N688 N 0.85550 0.67800 0.84951
 C689 C 0.87069 0.69533 0.84867
 C690 C 0.88206 0.69456 0.82756
 C691 C 0.87277 0.67581 0.81585
 H692 H 0.87298 0.70797 0.86232
 H693 H 0.87713 0.66996 0.79843
 N694 N 0.80467 0.66988 0.89314
 N695 N 0.78901 0.65382 0.88930
 C696 C 0.77121 0.65591 0.90478
 C697 C 0.77610 0.67437 0.91896
 C698 C 0.79746 0.68283 0.91117
 H699 H 0.75589 0.64493 0.90564
 H700 H 0.80710 0.69726 0.91808
 H701 H 0.81536 0.66170 0.84526
 H702 H 0.83581 0.64047 0.85827
 N703 N 0.83303 0.13071 0.32964
 N704 N 0.85121 0.13269 0.31529
 C705 C 0.85344 0.11361 0.30259
 C706 C 0.83577 0.09896 0.30896
 C707 C 0.82311 0.11024 0.32620
 H708 H 0.86628 0.11090 0.28887
 H709 H 0.80731 0.10433 0.33481
 Cu710 Cu 0.86960 0.16062 0.31182
 Cu711 Cu 0.82220 0.15576 0.35048
 Cu712 Cu 0.84909 0.20498 0.34103
 N713 N 0.88870 0.18792 0.31572
 N714 N 0.88028 0.20540 0.32728
 C715 C 0.89637 0.22207 0.32734
 C716 C 0.91591 0.21479 0.31491
 C717 C 0.91053 0.19304 0.30762
 H718 H 0.89387 0.23840 0.33554
 H719 H 0.92151 0.18190 0.29714
 N720 N 0.82492 0.20225 0.36428
 N721 N 0.81467 0.18304 0.36895
 C722 C 0.80090 0.18604 0.38801
 C723 C 0.80314 0.20827 0.39550
 C724 C 0.81837 0.21792 0.37999
 H725 H 0.79116 0.17289 0.39648
 H726 H 0.82535 0.23484 0.38092
 H727 H 0.83503 0.17067 0.32120
 H728 H 0.85714 0.16530 0.34504
 N729 N 0.70276 0.37680 0.33848
 N730 N 0.69188 0.37773 0.31802
 C731 C 0.69981 0.39563 0.30652
 C732 C 0.71658 0.40653 0.32046
 C733 C 0.71811 0.39416 0.34064
 H734 H 0.69360 0.40050 0.28939
 H735 H 0.72947 0.39754 0.35572
 Cu736 Cu 0.66770 0.35620 0.30815
 Cu737 Cu 0.69623 0.35275 0.36023
 Cu738 Cu 0.64367 0.32393 0.34843
 N739 N 0.63666 0.34234 0.30309
 N740 N 0.62683 0.33027 0.31934
 C741 C 0.60576 0.32225 0.31127
 C742 C 0.60227 0.32975 0.28878
 C743 C 0.62219 0.34249 0.28412
 H744 H 0.59424 0.31116 0.32072
 H745 H 0.62609 0.35082 0.26801
 N746 N 0.66131 0.32163 0.37829
 N747 N 0.68196 0.33174 0.38252
 C748 C 0.69086 0.32469 0.40318
 C749 C 0.67487 0.30957 0.41227
 C750 C 0.65639 0.30818 0.39616
 H751 H 0.70794 0.32961 0.41066
 H752 H 0.64111 0.29715 0.39690
 H753 H 0.67862 0.32977 0.33906
 H754 H 0.66134 0.35451 0.34987
 N755 N 0.67795 0.88338 0.85102
 N756 N 0.66605 0.88694 0.83148
 C757 C 0.67606 0.90440 0.82059
 C758 C 0.69517 0.91195 0.83413
 C759 C 0.69580 0.89831 0.85325
 H760 H 0.67048 0.91063 0.80376
 H761 H 0.70893 0.89869 0.86728
 Cu762 Cu 0.63964 0.86742 0.82188
 Cu763 Cu 0.67118 0.85859 0.87127
 Cu764 Cu 0.62557 0.82276 0.85399
 N765 N 0.61234 0.84838 0.81381
 N766 N 0.60654 0.83129 0.82679
 C767 C 0.58778 0.82050 0.81684
 C768 C 0.58162 0.83134 0.79650
 C769 C 0.59751 0.84895 0.79509
 H770 H 0.57991 0.80533 0.82334
 H771 H 0.59858 0.86082 0.78111
 N772 N 0.64403 0.81901 0.88332
 N773 N 0.66177 0.83255 0.88946
 C774 C 0.67227 0.82501 0.90906
 C775 C 0.66047 0.80597 0.91574
 C776 C 0.64255 0.80263 0.89919
 H777 H 0.68763 0.83257 0.91770
 H778 H 0.63000 0.78885 0.89835
 H779 H 0.65762 0.83781 0.84535
 H780 H 0.63540 0.85515 0.86184
 N781 N 0.19327 0.38217 0.83089
 N782 N 0.18326 0.37951 0.81014
 C783 C 0.19165 0.39520 0.79578
 C784 C 0.20787 0.40831 0.80827
 C785 C 0.20845 0.39963 0.83048
 H786 H 0.18631 0.39699 0.77769
 H787 H 0.21901 0.40563 0.84526
 Cu788 Cu 0.15985 0.35612 0.80432
 Cu789 Cu 0.18498 0.36318 0.85694
 Cu790 Cu 0.15744 0.31296 0.84082
 N791 N 0.13304 0.33560 0.80374
 N792 N 0.13236 0.31801 0.81725
 C793 C 0.11208 0.30645 0.81252
 C794 C 0.09940 0.31779 0.79546
 C795 C 0.11320 0.33613 0.79032
 H796 H 0.10670 0.29138 0.82126
 H797 H 0.10914 0.34892 0.77770
 N798 N 0.17510 0.31727 0.87064
 N799 N 0.18363 0.33703 0.87744
 C800 C 0.19249 0.33549 0.89928
 C801 C 0.18984 0.31367 0.90638
 C802 C 0.17886 0.30244 0.88782
 H803 H 0.20085 0.34910 0.90911
 H804 H 0.17325 0.28507 0.88721
 H805 H 0.18407 0.33702 0.83382
 H806 H 0.15450 0.34640 0.84506
 N807 N 0.19014 0.88622 0.34657
 N808 N 0.18028 0.88684 0.32559
 C809 C 0.19104 0.90284 0.31322
 C810 C 0.20850 0.91280 0.32718
 C811 C 0.20745 0.90190 0.34825
 H812 H 0.18655 0.90694 0.29539
 H813 H 0.21840 0.90515 0.36365
 Cu814 Cu 0.15442 0.86655 0.31646
 Cu815 Cu 0.17916 0.86546 0.37025
 Cu816 Cu 0.14411 0.82169 0.34848
 N817 N 0.12744 0.84677 0.30929
 N818 N 0.12408 0.82892 0.32196
 C819 C 0.10584 0.81687 0.31298
 C820 C 0.09705 0.82779 0.29371
 C821 C 0.11107 0.84679 0.29177
 H822 H 0.09961 0.80121 0.31991
 H823 H 0.10985 0.85924 0.27831
 N824 N 0.15783 0.82222 0.37996
 N825 N 0.17147 0.83854 0.38850
 C826 C 0.17859 0.83311 0.41029
 C827 C 0.16841 0.81268 0.41559
 C828 C 0.15536 0.80637 0.39607
 H829 H 0.19051 0.84306 0.42131
 H830 H 0.14535 0.79099 0.39353
 H831 H 0.17433 0.84246 0.34479
 H832 H 0.14620 0.85529 0.35614
 O833 O 0.25278 1.02870 0.27999
 O834 O 0.29584 0.98870 0.25471
 O835 O 0.28064 1.02900 0.24397
 O836 O 0.26540 0.98759 0.28894
 O837 O 0.23754 0.97355 0.26527
 O838 O 0.25243 1.01464 0.22092
 O839 O 0.26794 0.97462 0.23111
 O840 O 0.22452 1.01461 0.25680
 Cu841 Cu 0.27657 1.00983 0.26917
 Cu842 Cu 0.24283 0.99293 0.24121
 C843 C 0.23129 1.02851 0.27268
 C844 C 0.28939 0.97487 0.23875
 C845 C 0.26880 1.02895 0.22483
 C846 C 0.24869 0.97358 0.28470
 O847 O 0.28123 0.48726 0.72745
 O848 O 0.23833 0.52546 0.75748
 O849 O 0.25617 0.48558 0.76599
 O850 O 0.26773 0.52863 0.72290
 O851 O 0.23771 0.51630 0.70075
 O852 O 0.22747 0.47146 0.74346
 O853 O 0.20953 0.51232 0.73430
 O854 O 0.25198 0.47671 0.70339
 Cu855 Cu 0.26374 0.50787 0.74587
 Cu856 Cu 0.22872 0.49211 0.71911
 C857 C 0.27380 0.47630 0.70947
 C858 C 0.21658 0.52553 0.75052
 C859 C 0.23994 0.47117 0.76221
 C860 C 0.25487 0.52995 0.70457
 O861 O 0.79454 0.02171 0.25799
 O862 O 0.74877 -0.02032 0.24200
 O863 O 0.75114 0.02346 0.24117
 O864 O 0.79256 -0.02187 0.25751
 O865 O 0.77901 -0.02105 0.29355
 O866 O 0.73727 0.02427 0.27709
 O867 O 0.73533 -0.01900 0.27808
 O868 O 0.78085 0.02356 0.29395
 Cu869 Cu 0.77314 0.00064 0.24610
 Cu870 Cu 0.75695 0.00216 0.28939
 C871 C 0.79529 0.03004 0.27855
 C872 C 0.73428 -0.02687 0.25735
 C873 C 0.73696 0.03145 0.25635
 C874 C 0.79262 -0.02946 0.27806
 O875 O 0.78054 0.51082 0.75864
 O876 O 0.75207 0.47323 0.71449
 O877 O 0.74466 0.51455 0.72943
 O878 O 0.78601 0.46871 0.74558
 O879 O 0.75998 0.45715 0.77138
 O880 O 0.71950 0.50283 0.75593
 O881 O 0.72648 0.46160 0.74065
 O882 O 0.75548 0.49825 0.78482
 Cu883 Cu 0.76835 0.49302 0.73433
 Cu884 Cu 0.73766 0.47896 0.76574
 C885 C 0.77291 0.51067 0.77941
 C886 C 0.73476 0.46077 0.72010
 C887 C 0.72509 0.51658 0.74032
 C888 C 0.77985 0.45506 0.76120
 O889 O 0.22128 0.53574 0.24633
 O890 O 0.23510 0.49166 0.28907
 O891 O 0.25025 0.53278 0.28202
 O892 O 0.20792 0.49406 0.25166
 O893 O 0.23702 0.48137 0.22927
 O894 O 0.27908 0.51917 0.25986
 O895 O 0.26374 0.47875 0.26627
 O896 O 0.25036 0.52264 0.22415
 Cu897 Cu 0.22569 0.51478 0.26958
 Cu898 Cu 0.26045 0.49925 0.24268
 C899 C 0.23372 0.53673 0.22800
 C900 C 0.25165 0.47759 0.28480
 C901 C 0.27200 0.53255 0.27583
 C902 C 0.21531 0.48111 0.23534
 O903 O 0.75896 1.01798 0.73947
 O904 O 0.73157 0.97787 0.77968
 O905 O 0.73960 1.02107 0.78008
 O906 O 0.75015 0.97520 0.73828
 O907 O 0.78510 0.96820 0.75507
 O908 O 0.77530 1.01582 0.79602
 O909 O 0.76684 0.97298 0.79664
 O910 O 0.79433 1.01057 0.75519
 Cu911 Cu 0.74144 0.99856 0.75778
 Cu912 Cu 0.78391 0.99119 0.77745
 C913 C 0.78146 1.02091 0.74050
 C914 C 0.74466 0.96882 0.79520
 C915 C 0.75571 1.02661 0.79486
 C916 C 0.76941 0.96399 0.73935
 O917 O 0.75379 0.51026 0.21326
 O918 O 0.73962 0.46966 0.25867
 O919 O 0.72139 0.50765 0.24484
 O920 O 0.77254 0.47240 0.22706
 O921 O 0.79597 0.49022 0.25256
 O922 O 0.74495 0.52587 0.26992
 O923 O 0.76301 0.48786 0.28391
 O924 O 0.77771 0.52816 0.23825
 Cu925 Cu 0.74454 0.48808 0.23346
 Cu926 Cu 0.77277 0.50988 0.26365
 C927 C 0.76799 0.52631 0.21813
 C928 C 0.74887 0.47177 0.27896
 C929 C 0.72457 0.52299 0.26025
 C930 C 0.79287 0.47511 0.23689
 O931 O 0.19613 0.02505 0.71800
 O932 O 0.20799 -0.02670 0.75060
 O933 O 0.22411 0.01462 0.75299
 O934 O 0.17967 -0.01667 0.71645
 O935 O 0.20798 -0.02487 0.69112
 O936 O 0.25229 0.00368 0.72861
 O937 O 0.23576 -0.03659 0.72530
 O938 O 0.22512 0.01554 0.69392
 Cu939 Cu 0.19904 0.00013 0.73698
 Cu940 Cu 0.23306 -0.01142 0.70719
 C941 C 0.20908 0.02924 0.70056
 C942 C 0.22367 -0.04055 0.74333
 C943 C 0.24592 0.01414 0.74701
 C944 C 0.18649 -0.02628 0.69768
 O945 O 0.25243 0.27453 0.96672
 O946 O 0.29481 0.24279 1.00287
 O947 O 0.27585 0.23675 0.96117
 O948 O 0.27098 0.28016 1.00820
 O949 O 0.24098 0.26139 1.02307
 O950 O 0.24568 0.21854 0.97642
 O951 O 0.26501 0.22420 1.01833
 O952 O 0.22225 0.25633 0.98207
 Cu953 Cu 0.27658 0.26028 0.98315
 Cu954 Cu 0.24055 0.23805 1.00138
 C955 C 0.23016 0.27122 0.96863
 C956 C 0.28722 0.22840 1.01703
 C957 C 0.26137 0.22033 0.96076
 C958 C 0.25488 0.27821 1.02350
 O959 O 0.22580 0.78397 0.48525
 O960 O 0.27737 0.75890 0.51536
 O961 O 0.26504 0.76562 0.47200
 O962 O 0.23584 0.77476 0.52874
 O963 O 0.22002 0.74091 0.52529
 O964 O 0.24843 0.73209 0.46849
 O965 O 0.26079 0.72536 0.51195
 O966 O 0.20892 0.75053 0.48214
 Cu967 Cu 0.25274 0.77417 0.50082
 Cu968 Cu 0.23283 0.73388 0.49668
 C969 C 0.20886 0.77144 0.47804
 C970 C 0.27788 0.73795 0.51884
 C971 C 0.26133 0.74752 0.46040
 C972 C 0.22310 0.75911 0.53675
 O973 O 0.23181 0.73757 -0.03057
 O974 O 0.24741 0.78683 0.00632
 O975 O 0.24290 0.77888 -0.03825
 O976 O 0.23781 0.74512 0.01420
 O977 O 0.27602 0.73607 0.01165
 O978 O 0.28104 0.76977 -0.04135
 O979 O 0.28563 0.77778 0.00404
 O980 O 0.27001 0.72844 -0.03291
 Cu981 Cu 0.23616 0.76301 -0.01184
 Cu982 Cu 0.28207 0.75221 -0.01490
 C983 C 0.24823 0.72473 -0.03820
 C984 C 0.26912 0.79049 0.01179
 C985 C 0.26256 0.77981 -0.04898
 C986 C 0.25614 0.73497 0.02199
 O987 O 0.24897 0.23894 0.49294
 O988 O 0.28818 0.28244 0.51836
 O989 O 0.27902 0.26806 0.47619
 O990 O 0.25831 0.25362 0.53524
 O991 O 0.28732 0.22849 0.53748
 O992 O 0.30860 0.24372 0.48002
 O993 O 0.31707 0.25746 0.52288
 O994 O 0.27840 0.21418 0.49435
 Cu995 Cu 0.26561 0.26320 0.50532
 Cu996 Cu 0.30070 0.23336 0.50891
 C997 C 0.25699 0.21932 0.48895
 C998 C 0.30908 0.27736 0.52537
 C999 C 0.29760 0.25840 0.46826
 C1000 C 0.26974 0.23877 0.54650
 O1001 O 0.77301 0.75556 1.01784
 O1002 O 0.72585 0.77582 0.97785
 O1003 O 0.74594 0.79087 1.01643
 O1004 O 0.75531 0.74195 0.97798
 O1005 O 0.72835 0.72252 0.99682
 O1006 O 0.71851 0.77195 1.03520
 O1007 O 0.69902 0.75613 0.99657
 O1008 O 0.74605 0.73631 1.03686
 Cu1009 Cu 0.75269 0.76796 0.99558
 Cu1010 Cu 0.72027 0.74489 1.01840
 C1011 C 0.76754 0.74242 1.03414
 C1012 C 0.70444 0.76917 0.98022
 C1013 C 0.73063 0.78974 1.03245
 C1014 C 0.74363 0.72399 0.98072
 O1015 O 0.70348 0.22929 0.52089
 O1016 O 0.74321 0.21944 0.47041
 O1017 O 0.74268 0.20665 0.51347
 O1018 O 0.70332 0.24119 0.47761
 O1019 O 0.72497 0.27128 0.48615
 O1020 O 0.76254 0.23666 0.52588
 O1021 O 0.76449 0.24881 0.48217
 O1022 O 0.72343 0.26024 0.53002
 Cu1023 Cu 0.72110 0.22111 0.49458
 Cu1024 Cu 0.74601 0.25724 0.50711
 C1025 C 0.70658 0.24666 0.53383
 C1026 C 0.76076 0.23264 0.46787
 C1027 C 0.75897 0.21556 0.52610
 C1028 C 0.70747 0.26195 0.47540
 O1029 O 0.73570 0.28884 0.03471
 O1030 O 0.70001 0.24770 0.00299
 O1031 O 0.71876 0.24835 0.04546
 O1032 O 0.72608 0.28134 -0.00859
 O1033 O 0.75988 0.26324 -0.01536
 O1034 O 0.75203 0.23021 0.03679
 O1035 O 0.73246 0.22846 -0.00621
 O1036 O 0.76893 0.26969 0.02833
 Cu1037 Cu 0.71713 0.26806 0.01986
 Cu1038 Cu 0.75602 0.24572 0.01005
 C1039 C 0.75811 0.28679 0.03686
 C1040 C 0.70986 0.23136 -0.00748
 C1041 C 0.73441 0.23339 0.05008
 C1042 C 0.74458 0.27791 -0.02104
 O1043 O 0.77357 0.75049 0.47851
 O1044 O 0.75855 0.71150 0.52565
 O1045 O 0.75966 0.70872 0.48027
 O1046 O 0.77651 0.75152 0.52409
 O1047 O 0.73950 0.76456 0.52380
 O1048 O 0.72237 0.72099 0.48030
 O1049 O 0.72154 0.72448 0.52615
 O1050 O 0.73625 0.76266 0.47869
 Cu1051 Cu 0.77074 0.72925 0.50209
 Cu1052 Cu 0.72616 0.74436 0.50222
 C1053 C 0.75726 0.76337 0.47066
 C1054 C 0.73763 0.71159 0.53414
 C1055 C 0.73830 0.70751 0.47275
 C1056 C 0.76095 0.76536 0.53138
 O1057 O 0.99760 0.24454 0.22332
 O1058 O 1.04310 0.23017 0.26786
 O1059 O 0.99625 0.23038 0.26584
 O1060 O 1.04396 0.24246 0.22441
 O1061 O 1.04444 0.27787 0.23656
 O1062 O 0.99718 0.26564 0.27847
 O1063 O 1.04365 0.26558 0.27999
 O1064 O 0.99794 0.27976 0.23613
 Cu1065 Cu 1.02023 0.23330 0.24418
 Cu1066 Cu 1.02097 0.27575 0.25907
 C1067 C 0.98990 0.26460 0.22231
 C1068 C 1.05116 0.24555 0.28148
 C1069 C 0.98838 0.24603 0.27900
 C1070 C 1.05215 0.26223 0.22323
 O1071 O 0.47496 0.25010 0.74161
 O1072 O 0.52238 0.20913 0.75411
 O1073 O 0.47615 0.20828 0.75385
 O1074 O 0.52147 0.25101 0.74329
 O1075 O 0.52113 0.26129 0.78053
 O1076 O 0.47463 0.21871 0.79101
 O1077 O 0.52182 0.21896 0.79147
 O1078 O 0.47469 0.26067 0.77877
 Cu1079 Cu 0.49872 0.22863 0.74450
 Cu1080 Cu 0.49798 0.24084 0.78925
 C1081 C 0.46686 0.26249 0.75797
 C1082 C 0.53034 0.20715 0.77481
 C1083 C 0.46753 0.20625 0.77407
 C1084 C 0.52919 0.26333 0.76006
 O1085 O -0.03113 0.26934 0.76454
 O1086 O 0.00991 0.25523 0.71651
 O1087 O -0.03280 0.24279 0.72827
 O1088 O 0.01022 0.28443 0.75078
 O1089 O 0.02795 0.25901 0.77262
 O1090 O -0.01590 0.21723 0.75057
 O1091 O 0.02686 0.22951 0.73855
 O1092 O -0.01351 0.24414 0.78673
 Cu1093 Cu -0.01261 0.26559 0.73791
 Cu1094 Cu 0.00809 0.23492 0.76433
 C1095 C -0.02956 0.25891 0.78367
 C1096 C 0.02544 0.23989 0.71945
 C1097 C -0.03189 0.22295 0.73581
 C1098 C 0.02659 0.27892 0.76510
 O1099 O 0.52312 0.28178 0.26881
 O1100 O 0.47494 0.24132 0.25762
 O1101 O 0.52085 0.23952 0.25700
 O1102 O 0.47632 0.28368 0.26732
 O1103 O 0.47654 0.29220 0.22998
 O1104 O 0.52179 0.24798 0.21965
 O1105 O 0.47504 0.24917 0.22010
 O1106 O 0.52346 0.29039 0.23151
 Cu1107 Cu 0.49887 0.26094 0.26647
 Cu1108 Cu 0.49924 0.27086 0.22154
 C1109 C 0.53176 0.29276 0.25217
 C1110 C 0.46680 0.23821 0.23706
 C1111 C 0.52882 0.23610 0.23659
 C1112 C 0.46842 0.29513 0.25040
 O1113 O 1.01904 0.76379 0.76805
 O1114 O 0.96216 0.75144 0.79722
 O1115 O 1.00670 0.74181 0.80485
 O1116 O 0.97537 0.77611 0.76236
 O1117 O 0.96813 0.74654 0.73955
 O1118 O 1.00308 0.71192 0.78166
 O1119 O 0.95734 0.72096 0.77515
 O1120 O 1.01278 0.73429 0.74484
 Cu1121 Cu 0.99117 0.76123 0.78543
 Cu1122 Cu 0.98459 0.72542 0.75803
 C1123 C 1.02548 0.75095 0.75129
 C1124 C 0.95035 0.73391 0.79151
 C1125 C 1.01087 0.72127 0.80045
 C1126 C 0.96669 0.76758 0.74372
 O1127 O 0.52972 0.77545 0.23619
 O1128 O 0.47540 0.76380 0.26827
 O1129 O 0.52076 0.75710 0.27595
 O1130 O 0.48401 0.77967 0.22769
 O1131 O 0.48246 0.74570 0.21159
 O1132 O 0.51953 0.72343 0.25916
 O1133 O 0.47332 0.72979 0.25233
 O1134 O 0.52793 0.74189 0.21919
 Cu1135 Cu 0.50274 0.77235 0.25373
 Cu1136 Cu 0.50070 0.73172 0.23406
 C1137 C 0.53798 0.76089 0.22202
 C1138 C 0.46482 0.74515 0.26557
 C1139 C 0.52660 0.73645 0.27559
 C1140 C 0.47684 0.76634 0.21147
 O1141 O 0.03630 0.76228 0.26604
 O1142 O -0.00388 0.71542 0.24935
 O1143 O 0.03832 0.72861 0.23630
 O1144 O -0.00382 0.74653 0.28162
 O1145 O -0.02239 0.76864 0.25670
 O1146 O 0.02007 0.75053 0.21100
 O1147 O -0.02202 0.73757 0.22418
 O1148 O 0.01790 0.78406 0.24070
 Cu1149 Cu 0.01862 0.73606 0.26083
 Cu1150 Cu -0.00343 0.76238 0.23063
 C1151 C 0.03397 0.78111 0.25612
 C1152 C -0.02000 0.71872 0.23393
 C1153 C 0.03647 0.73649 0.21595
 C1154 C -0.02038 0.76038 0.27697
 O1155 O 0.51112 0.77549 0.76783
 O1156 O 0.47119 0.72939 0.75043
 O1157 O 0.51720 0.73445 0.75347
 O1158 O 0.46481 0.77145 0.76139
 O1159 O 0.46801 0.78146 0.72465
 O1160 O 0.52013 0.74421 0.71664
 O1161 O 0.47349 0.73903 0.71350
 O1162 O 0.51416 0.78557 0.73110
 Cu1163 Cu 0.49084 0.75175 0.76193
 Cu1164 Cu 0.49414 0.76358 0.71778
 C1165 C 0.51977 0.78816 0.75258
 C1166 C 0.46540 0.72631 0.72916
 C1167 C 0.52767 0.73308 0.73391
 C1168 C 0.45743 0.78273 0.74411
 N1169 N 0.44115 0.32540 0.23912
 N1170 N 0.42172 0.33553 0.24729
 C1171 C 0.41763 0.32677 0.26841
 C1172 C 0.43515 0.31118 0.27301
 N1173 N 0.44942 0.31079 0.25440
 H1174 H 0.43666 0.30029 0.28787
 N1175 N 0.42965 0.81085 0.72986
 N1176 N 0.40927 0.82062 0.73575
 C1177 C 0.40318 0.81246 0.75665
 C1178 C 0.42067 0.79741 0.76353
 N1179 N 0.43679 0.79688 0.74624
 H1180 H 0.42123 0.78730 0.77903
 N1181 N -0.04712 0.25322 0.82202
 N1182 N -0.06622 0.25969 0.83394
 C1183 C -0.07815 0.27440 0.82046
 C1184 C -0.06577 0.27682 0.80003
 N1185 N -0.04657 0.26338 0.80166
 H1186 H -0.07060 0.28682 0.78511
 N1187 N -0.03740 0.75694 0.31557
 N1188 N -0.05558 0.76474 0.32792
 C1189 C -0.06726 0.77956 0.31440
 C1190 C -0.05567 0.78064 0.29330
 N1191 N -0.03715 0.76625 0.29477
 H1192 H -0.06045 0.79052 0.27827
 N1193 N 0.54679 0.73889 0.31346
 N1194 N 0.56237 0.72732 0.32607
 C1195 C 0.56731 0.70837 0.31377
 C1196 C 0.55419 0.70858 0.29323
 N1197 N 0.54167 0.72791 0.29373
 H1198 H 0.55440 0.69640 0.27897
 N1199 N 0.55888 0.17854 0.76271
 N1200 N 0.57732 0.16724 0.77128
 C1201 C 0.57961 0.17349 0.79393
 C1202 C 0.56194 0.18899 0.79906
 N1203 N 0.54944 0.19166 0.77908
 H1204 H 0.55899 0.19796 0.81539
 N1205 N 1.02680 0.71509 0.83923
 N1206 N 1.04448 0.70410 0.84952
 C1207 C 1.05431 0.69065 0.83307
 C1208 C 1.04188 0.69356 0.81229
 N1209 N 1.02489 0.70901 0.81694
 H1210 H 1.04620 0.68684 0.79516
 N1211 N 1.07724 0.25513 0.31443
 N1212 N 1.09426 0.24591 0.32739
 C1213 C 1.09687 0.22460 0.31945
 C1214 C 1.08089 0.22097 0.30123
 N1215 N 1.06903 0.24045 0.29867
 H1216 H 1.07849 0.20591 0.29059
 N1217 N 0.55504 0.29512 0.77072
 N1218 N 0.57261 0.30682 0.76149
 C1219 C 0.57613 0.29807 0.73990
 C1220 C 0.56023 0.28077 0.73615
 N1221 N 0.54743 0.27944 0.75571
 H1222 H 0.55844 0.26987 0.72088
 N1223 N 0.56576 0.75463 0.19017
 N1224 N 0.58363 0.76517 0.18013
 C1225 C 0.58776 0.78404 0.19294
 C1226 C 0.57195 0.78482 0.21109
 N1227 N 0.55852 0.76623 0.20871
 H1228 H 0.56968 0.79807 0.22409
 N1229 N 1.07836 0.25211 0.19109
 N1230 N 1.09439 0.26157 0.17760
 C1231 C 1.09627 0.28316 0.18488
 C1232 C 1.08095 0.28670 0.20323
 N1233 N 1.07013 0.26693 0.20653
 H1234 H 1.07781 0.30211 0.21306
 N1235 N 1.05812 0.73921 0.72667
 N1236 N 1.07760 0.74740 0.71722
 C1237 C 1.07926 0.76907 0.72427
 C1238 C 1.06014 0.77398 0.73858
 N1239 N 1.04742 0.75482 0.73953
 H1240 H 1.05559 0.78986 0.74690
 N1241 N 0.44151 0.69376 0.73831
 N1242 N 0.42564 0.68008 0.72831
 C1243 C 0.42328 0.68638 0.70594
 C1244 C 0.43829 0.70437 0.70245
 N1245 N 0.44929 0.70843 0.72311
 H1246 H 0.44039 0.71400 0.68677
 N1247 N 0.43905 0.21005 0.25016
 N1248 N 0.42190 0.19678 0.24180
 C1249 C 0.42007 0.20064 0.21874
 C1250 C 0.43668 0.21674 0.21315
 N1251 N 0.44811 0.22214 0.23329
 H1252 H 0.44000 0.22391 0.19628
 N1253 N -0.03802 0.68178 0.23847
 N1254 N -0.05638 0.67005 0.22993
 C1255 C -0.06667 0.68263 0.21322
 C1256 C -0.05414 0.70236 0.21174
 N1257 N -0.03646 0.70121 0.22776
 H1258 H -0.05798 0.71652 0.20072
 N1259 N -0.05129 0.18666 0.73709
 N1260 N -0.07106 0.17675 0.72934
 C1261 C -0.08221 0.19134 0.71511
 C1262 C -0.06865 0.21059 0.71432
 N1263 N -0.04956 0.20697 0.72837
 H1264 H -0.07295 0.22611 0.70566
 N1265 N 0.24515 0.45631 0.32032
 N1266 N 0.25334 0.43781 0.33027
 C1267 C 0.27061 0.42953 0.31627
 C1268 C 0.27279 0.44346 0.29757
 N1269 N 0.25665 0.45990 0.30070
 H1270 H 0.28455 0.44156 0.28280
 N1271 N 0.21266 -0.06887 0.77113
 N1272 N 0.22039 -0.08851 0.77864
 C1273 C 0.24079 -0.09316 0.76718
 C1274 C 0.24538 -0.07581 0.75234
 N1275 N 0.22740 -0.06103 0.75539
 H1276 H 0.26019 -0.07403 0.74054
 N1277 N 0.81504 0.43118 0.75631
 N1278 N 0.82416 0.41258 0.76518
 C1279 C 0.80940 0.40635 0.78234
 C1280 C 0.79103 0.42167 0.78380
 N1281 N 0.79517 0.43682 0.76727
 H1282 H 0.77580 0.42154 0.79527
 N1283 N 0.82625 -0.05415 0.27032
 N1284 N 0.83571 -0.07309 0.27791
 C1285 C 0.82278 -0.07928 0.29641
 C1286 C 0.80517 -0.06329 0.30016
 N1287 N 0.80799 -0.04796 0.28342
 H1288 H 0.79106 -0.06336 0.31291
 N1289 N 0.24713 0.55076 0.66891
 N1290 N 0.25672 0.56732 0.65707
 C1291 C 0.27642 0.57399 0.66913
 C1292 C 0.27860 0.56110 0.68873
 N1293 N 0.25999 0.54686 0.68797
 H1294 H 0.29234 0.56195 0.70220
 N1295 N 0.26149 1.04650 0.18746
 N1296 N 0.26885 1.06382 0.17534
 C1297 C 0.28619 1.07397 0.18818
 C1298 C 0.28930 1.06230 0.20863
 N1299 N 0.27351 1.04529 0.20746
 H1300 H 0.30142 1.06603 0.22307
 N1301 N 0.76045 0.54473 0.18106
 N1302 N 0.76764 0.56266 0.16973
 C1303 C 0.78498 0.57234 0.18301
 C1304 C 0.78821 0.55985 0.20281
 N1305 N 0.77259 0.54281 0.20094
 H1306 H 0.80025 0.56313 0.21742
 N1307 N 0.81617 1.03747 0.72307
 N1308 N 0.82204 1.05582 0.71189
 C1309 C 0.80148 1.06664 0.70685
 C1310 C 0.78272 1.05446 0.71546
 N1311 N 0.79271 1.03639 0.72546
 H1312 H 0.76415 1.05946 0.71666
 N1313 N 0.68398 0.53765 0.25572
 N1314 N 0.67041 0.55406 0.26433
 C1315 C 0.68356 0.56463 0.28107
 C1316 C 0.70557 0.55424 0.28248
 N1317 N 0.70512 0.53753 0.26641
 H1318 H 0.72065 0.55874 0.29363
 N1319 N 0.76638 1.05246 0.82698
 N1320 N 0.75759 1.07072 0.83740
 C1321 C 0.73665 1.07532 0.82649
 C1322 C 0.73281 1.05937 0.80920
 N1323 N 0.75168 1.04546 0.81008
 H1324 H 0.71790 1.05805 0.79700
 N1325 N 0.17733 0.54261 0.75281
 N1326 N 0.16608 0.55900 0.76407
 C1327 C 0.18193 0.56801 0.77945
 C1328 C 0.20338 0.55661 0.77733
 N1329 N 0.19969 0.54091 0.76046
 H1330 H 0.22005 0.55975 0.78661
 N1331 N 0.19205 1.04605 0.27483
 N1332 N 0.18132 1.06302 0.28571
 C1333 C 0.19761 1.07234 0.30050
 C1334 C 0.21875 1.06054 0.29835
 N1335 N 0.21451 1.04432 0.28212
 H1336 H 0.23570 1.06386 0.30707
 N1337 N 0.73198 0.44327 0.68136
 N1338 N 0.72150 0.42583 0.67081
 C1339 C 0.70745 0.41627 0.68677
 C1340 C 0.70953 0.42844 0.70741
 N1341 N 0.72501 0.44511 0.70330
 H1342 H 0.70148 0.42495 0.72403
 N1343 N 0.69940 -0.04980 0.26531
 N1344 N 0.68648 -0.06596 0.25518
 C1345 C 0.69604 -0.06996 0.23401
 C1346 C 0.71518 -0.05573 0.23141
 N1347 N 0.71667 -0.04346 0.25132
 H1348 H 0.72715 -0.05472 0.21678
 N1349 N 0.17619 0.46399 0.22911
 N1350 N 0.16624 0.44739 0.21674
 C1351 C 0.18351 0.43838 0.20324
 C1352 C 0.20442 0.45000 0.20769
 N1353 N 0.19908 0.46579 0.22395
 H1354 H 0.22192 0.44680 0.20048
 N1355 N 0.17035 -0.04032 0.66093
 N1356 N 0.15945 -0.05861 0.65281
 C1357 C 0.15245 -0.07022 0.67149
 C1358 C 0.15919 -0.05826 0.69140
 N1359 N 0.17027 -0.03971 0.68402
 H1360 H 0.15898 -0.06392 0.70924
 N1361 N 0.32419 0.25250 0.43582
 N1362 N 0.32958 0.26146 0.41565
 C1363 C 0.31483 0.27915 0.41279
 C1364 C 0.30003 0.28077 0.43189
 N1365 N 0.30656 0.26379 0.44582
 H1366 H 0.28638 0.29321 0.43553
 N1367 N 0.24519 0.80426 -0.07766
 N1368 N 0.24894 0.81089 -0.09916
 C1369 C 0.27017 0.80226 -0.10570
 C1370 C 0.27956 0.79018 -0.08738
 N1371 N 0.26327 0.79184 -0.07027
 H1372 H 0.29569 0.78010 -0.08703
 N1373 N 0.73362 0.30627 -0.04962
 N1374 N 0.74223 0.31498 -0.06893
 C1375 C 0.76319 0.30450 -0.07323
 C1376 C 0.76716 0.28907 -0.05597
 N1377 N 0.74834 0.29069 -0.04162
 H1378 H 0.78222 0.27777 -0.05403
 N1379 N 0.74705 0.79465 0.44581
 N1380 N 0.75642 0.80680 0.42913
 C1381 C 0.77855 0.79863 0.42531
 C1382 C 0.78251 0.78099 0.44028
 N1383 N 0.76237 0.77909 0.45275
 H1384 H 0.79828 0.77052 0.44183
 N1385 N 0.67420 0.23730 0.56016
 N1386 N 0.66369 0.24585 0.57896
 C1387 C 0.67436 0.26573 0.58378
 C1388 C 0.69173 0.26910 0.56745
 N1389 N 0.69109 0.25102 0.55307
 H1390 H 0.70394 0.28311 0.56635
 N1391 N 0.74223 0.82573 1.05014
 N1392 N 0.73495 0.83977 1.06686
 C1393 C 0.71455 0.83114 1.07512
 C1394 C 0.70958 0.81142 1.06315
 N1395 N 0.72725 0.80862 1.04779
 H1396 H 0.69500 0.79987 1.06580
 N1397 N 0.26610 0.31272 1.04505
 N1398 N 0.25780 0.32557 1.06238
 C1399 C 0.23756 0.31577 1.06967
 C1400 C 0.23379 0.29656 1.05639
 N1401 N 0.25190 0.29522 1.04128
 H1402 H 0.21911 0.28482 1.05736
 N1403 N 0.20571 0.74423 0.57167
 N1404 N 0.19688 0.75128 0.59183
 C1405 C 0.19812 0.77388 0.59207
 C1406 C 0.20812 0.78056 0.57142
 N1407 N 0.21255 0.76149 0.55923
 H1408 H 0.21160 0.79745 0.56574
 N1409 N 0.31839 0.73861 0.53507
 N1410 N 0.33202 0.72660 0.54927
 C1411 C 0.31921 0.70832 0.55471
 C1412 C 0.29742 0.70936 0.54332
 N1413 N 0.29762 0.72848 0.53132
 H1414 H 0.28239 0.69808 0.54469
 N1415 N 0.32741 0.22085 1.03130
 N1416 N 0.33843 0.21033 1.04852
 C1417 C 0.32142 0.19978 1.06059
 C1418 C 0.29949 0.20410 1.05017
 N1419 N 0.30407 0.21736 1.03198
 H1420 H 0.28196 0.19908 1.05587
 N1421 N 0.80808 0.74231 1.05000
 N1422 N 0.82088 0.73235 1.06645
 C1423 C 0.80624 0.71771 1.07679
 C1424 C 0.78397 0.71903 1.06622
 N1425 N 0.78591 0.73460 1.04963
 H1426 H 0.76795 0.70983 1.07033
 N1427 N 0.77322 0.17919 0.53775
 N1428 N 0.78360 0.16949 0.55578
 C1429 C 0.79028 0.18600 0.57085
 C1430 C 0.78369 0.20638 0.56140
 N1431 N 0.77297 0.20127 0.54074
 H1432 H 0.78438 0.22286 0.56968
 N1433 N 0.74736 0.67517 0.44792
 N1434 N 0.73770 0.66352 0.43029
 C1435 C 0.71583 0.67236 0.42642
 C1436 C 0.71227 0.68973 0.44225
 N1437 N 0.73238 0.69094 0.45528
 H1438 H 0.69711 0.70102 0.44347
 N1439 N 0.67145 0.21651 -0.01981
 N1440 N 0.66199 0.20393 -0.03679
 C1441 C 0.68035 0.19586 -0.04941
 C1442 C 0.70148 0.20370 -0.03957
 N1443 N 0.69506 0.21657 -0.02118
 H1444 H 0.71945 0.20164 -0.04608
 N1445 N 0.25787 0.69117 -0.06120
 N1446 N 0.24743 0.67713 -0.07637
 C1447 C 0.22437 0.68357 -0.07822
 C1448 C 0.22092 0.70197 -0.06365
 N1449 N 0.24225 0.70617 -0.05339
 H1450 H 0.20481 0.71184 -0.06141
 N1451 N 0.21874 0.20116 0.48384
 N1452 N 0.20666 0.19016 0.46727
 C1453 C 0.22225 0.18487 0.45028
 C1454 C 0.24444 0.19316 0.45700
 N1455 N 0.24145 0.20310 0.47810
 H1456 H 0.26011 0.19468 0.44626
 N1457 N 0.28933 0.46541 0.67184
 N1458 N 0.30469 0.45106 0.66247
 C1459 C 0.31549 0.44041 0.68028
 C1460 C 0.30642 0.44884 0.70104
 N1461 N 0.29016 0.46439 0.69488
 H1462 H 0.31012 0.44332 0.71861
 N1463 N 0.32846 0.95699 0.23832
 N1464 N 0.34022 0.94113 0.22670
 C1465 C 0.32523 0.93315 0.20992
 C1466 C 0.30379 0.94461 0.21160
 N1467 N 0.30660 0.95932 0.22957
 H1468 H 0.28778 0.94241 0.20099
 N1469 N 0.83317 0.45974 0.24175
 N1470 N 0.84682 0.44370 0.23252
 C1471 C 0.83407 0.43425 0.21479
 C1472 C 0.81222 0.44494 0.21344
 N1473 N 0.81234 0.46068 0.23052
 H1474 H 0.79744 0.44127 0.20159
 N1475 N 0.75859 0.94256 0.70451
 N1476 N 0.76781 0.92724 0.69023
 C1477 C 0.78938 0.92174 0.69922
 C1478 C 0.79317 0.93407 0.71952
 N1479 N 0.77351 0.94686 0.72213
 H1480 H 0.80885 0.93428 0.73080
 N1481 N 0.69026 0.53960 0.74826
 N1482 N 0.68021 0.55849 0.74129
 C1483 C 0.69342 0.56591 0.72353
 C1484 C 0.71194 0.55101 0.71974
 N1485 N 0.70931 0.53487 0.73561
 H1486 H 0.72632 0.55219 0.70736
 N1487 N 0.70113 0.05362 0.26273
 N1488 N 0.68802 0.06903 0.25219
 C1489 C 0.69911 0.07381 0.23213
 C1490 C 0.71950 0.06077 0.23062
 N1491 N 0.72002 0.04840 0.25007
 H1492 H 0.73241 0.06009 0.21670
 N1493 N 0.24225 0.55595 0.19232
 N1494 N 0.23670 0.57473 0.18159
 C1495 C 0.21988 0.58519 0.19448
 C1496 C 0.21517 0.57217 0.21358
 N1497 N 0.22964 0.55411 0.21155
 H1498 H 0.20353 0.57602 0.22808
 N1499 N 0.22014 0.05540 0.67090
 N1500 N 0.21645 0.07655 0.66526
 C1501 C 0.19975 0.08476 0.67988
 C1502 C 0.19319 0.06794 0.69474
 N1503 N 0.20646 0.04992 0.68856
 H1504 H 0.18134 0.06912 0.70951
 N1505 N 0.31208 0.54680 0.28225
 N1506 N 0.32301 0.56478 0.29105
 C1507 C 0.30608 0.57772 0.30111
 C1508 C 0.28429 0.56704 0.29828
 N1509 N 0.28887 0.54784 0.28631
 H1510 H 0.26674 0.57344 0.30265
 N1511 N 0.28697 0.02207 0.75770
 N1512 N 0.29968 0.03699 0.76984
 C1513 C 0.28404 0.05052 0.78103
 C1514 C 0.26112 0.04334 0.77541
 N1515 N 0.26384 0.02559 0.76070
 H1516 H 0.24435 0.05133 0.77986
 N1517 N 0.78076 0.52115 0.81970
 N1518 N 0.78969 0.53805 0.83224
 C1519 C 0.79883 0.55275 0.81715
 C1520 C 0.79526 0.54424 0.79473
 N1521 N 0.78379 0.52454 0.79719
 H1522 H 0.79851 0.55246 0.77839
 N1523 N 0.83141 0.05103 0.27113
 N1524 N 0.84269 0.06927 0.27883
 C1525 C 0.83035 0.07734 0.29724
 C1526 C 0.81113 0.06332 0.30075
 N1527 N 0.81248 0.04715 0.28404
 H1528 H 0.79690 0.06535 0.31325
 N1529 N 0.75313 0.45540 0.31759
 N1530 N 0.74501 0.43802 0.32925
 C1531 C 0.72971 0.42698 0.31474
 C1532 C 0.72867 0.43807 0.29388
 N1533 N 0.74350 0.45567 0.29635
 H1534 H 0.71833 0.43371 0.27835
 N1535 N 0.74570 0.94765 0.83085
 N1536 N 0.73291 0.93259 0.84181
 C1537 C 0.71302 0.92898 0.82875
 C1538 C 0.71388 0.94241 0.80942
 N1539 N 0.73460 0.95375 0.81144
 H1540 H 0.70125 0.94326 0.79498
 N1541 N 0.24680 0.45456 0.80007
 N1542 N 0.23865 0.43810 0.81294
 C1543 C 0.22164 0.42749 0.80006
 C1544 C 0.21958 0.43795 0.77881
 N1545 N 0.23561 0.45476 0.77957
 H1546 H 0.20749 0.43397 0.76441
 N1547 N 0.25203 0.95632 0.32303
 N1548 N 0.24166 0.94022 0.33496
 C1549 C 0.22460 0.93116 0.32085
 C1550 C 0.22483 0.94217 0.29992
 N1551 N 0.24215 0.95771 0.30197
 H1552 H 0.21343 0.93930 0.28475
 N1553 N 0.44134 0.29430 0.76805
 N1554 N 0.42542 0.30764 0.75800
 C1555 C 0.42283 0.30026 0.73571
 C1556 C 0.43766 0.28201 0.73233
 N1557 N 0.44889 0.27887 0.75292
 H1558 H 0.44034 0.27224 0.71645
 N1559 N 0.45622 0.76217 0.17412
 N1560 N 0.44084 0.77317 0.16079
 C1561 C 0.43671 0.79309 0.17158
 C1562 C 0.45013 0.79404 0.19199
 N1563 N 0.46200 0.77438 0.19289
 H1564 H 0.45047 0.80721 0.20528
 N1565 N 0.96431 0.25644 0.18850
 N1566 N 0.94696 0.26607 0.17628
 C1567 C 0.94335 0.28656 0.18607
 C1568 C 0.95906 0.28927 0.20463
 N1569 N 0.97179 0.27011 0.20553
 H1570 H 0.96079 0.30353 0.21653
 N1571 N 0.96324 0.80365 0.72601
 N1572 N 0.94829 0.81528 0.71294
 C1573 C 0.93103 0.80105 0.70551
 C1574 C 0.93593 0.78002 0.71442
 N1575 N 0.95622 0.78253 0.72722
 H1576 H 0.92472 0.76523 0.71374
 N1577 N 0.56180 0.32012 0.24099
 N1578 N 0.58084 0.33033 0.25023
 C1579 C 0.58261 0.32377 0.27260
 C1580 C 0.56406 0.30933 0.27684
 N1581 N 0.55152 0.30748 0.25673
 H1582 H 0.56054 0.30036 0.29268
 N1583 N 0.54466 0.82110 0.74618
 N1584 N 0.56123 0.83311 0.75748
 C1585 C 0.56368 0.82425 0.77889
 C1586 C 0.54806 0.80655 0.78042
 N1587 N 0.53655 0.80512 0.75971
 H1588 H 0.54586 0.79528 0.79484
 N1589 N 0.04431 0.31593 0.76384
 N1590 N 0.06363 0.32675 0.77138
 C1591 C 0.07603 0.31242 0.78489
 C1592 C 0.06368 0.29240 0.78549
 N1593 N 0.04401 0.29533 0.77207
 H1594 H 0.06891 0.27704 0.79399
 N1595 N 0.05073 0.81853 0.25130
 N1596 N 0.06759 0.83156 0.26078
 C1597 C 0.07754 0.81988 0.27835
 C1598 C 0.06635 0.79936 0.27937
 N1599 N 0.04978 0.79917 0.26225
 H1600 H 0.06997 0.78582 0.29126
 N1601 N 0.55572 0.70583 0.74882
 N1602 N 0.57525 0.69488 0.74260
 C1603 C 0.58051 0.70118 0.72078
 C1604 C 0.56334 0.71648 0.71366
 N1605 N 0.54822 0.71884 0.73177
 H1606 H 0.56205 0.72509 0.69723
 N1607 N 0.54972 0.20236 0.24813
 N1608 N 0.56591 0.18808 0.24007
 C1609 C 0.57239 0.19542 0.21897
 C1610 C 0.55959 0.21468 0.21421
 N1611 N 0.54566 0.21837 0.23288
 H1612 H 0.56035 0.22496 0.19886
 N1613 N 0.05372 0.73804 0.17721
 N1614 N 0.07215 0.72974 0.16556
 C1615 C 0.08374 0.71565 0.18003
 C1616 C 0.07184 0.71558 0.20096
 N1617 N 0.05326 0.72980 0.19848
 H1618 H 0.07665 0.70670 0.21666
 N1619 N 0.04356 0.24574 0.68154
 N1620 N 0.06178 0.23804 0.66912
 C1621 C 0.07191 0.22138 0.68146
 C1622 C 0.05939 0.21909 0.70182
 N1623 N 0.04190 0.23459 0.70122
 H1624 H 0.06318 0.20790 0.71608
 N1625 N 0.43210 0.75833 0.28925
 N1626 N 0.41080 0.75182 0.29612
 C1627 C 0.40774 0.73065 0.28794
 C1628 C 0.42791 0.72424 0.27584
 N1629 N 0.44263 0.74209 0.27709
 H1630 H 0.43122 0.70861 0.26648
 N1631 N 0.44577 0.17281 0.76238
 N1632 N 0.42699 0.16104 0.76860
 C1633 C 0.41852 0.17079 0.78825
 C1634 C 0.43288 0.18897 0.79408
 N1635 N 0.44962 0.18959 0.77740
 H1636 H 0.43074 0.20107 0.80825
 N1637 N 0.92120 0.74105 0.82170
 N1638 N 0.90308 0.73098 0.83172
 C1639 C 0.89952 0.71132 0.82012
 C1640 C 0.91610 0.70963 0.80251
 N1641 N 0.92931 0.72854 0.80419
 H1642 H 0.91903 0.69568 0.79049
 N1643 N 0.96020 0.25693 0.30904
 N1644 N 0.94073 0.24915 0.31892
 C1645 C 0.93701 0.22835 0.30991
 C1646 C 0.95487 0.22352 0.29423
 N1647 N 0.96891 0.24182 0.29419
 H1648 H 0.95679 0.20872 0.28314
 N1649 N 0.32236 0.31579 0.53086
 N1650 N 0.33437 0.32823 0.54637
 C1651 C 0.34319 0.31417 0.56254
 C1652 C 0.33640 0.29255 0.55630
 N1653 N 0.32345 0.29436 0.53644
 H1654 H 0.33883 0.27738 0.56617
 N1655 N 0.25981 0.82484 0.03371
 N1656 N 0.26930 0.83762 0.05061
 C1657 C 0.29113 0.82907 0.05536
 C1658 C 0.29483 0.81075 0.04073
 N1659 N 0.27489 0.80868 0.02754
 H1660 H 0.30989 0.79930 0.04061
 N1661 N 0.76193 0.32472 0.05185
 N1662 N 0.77592 0.33690 0.06584
 C1663 C 0.79445 0.32366 0.07192
 C1664 C 0.79154 0.30290 0.06106
 N1665 N 0.77092 0.30433 0.04881
 H1666 H 0.80224 0.28789 0.06322
 N1667 N 0.75457 0.80038 0.55264
 N1668 N 0.76573 0.81351 0.56812
 C1669 C 0.78652 0.80323 0.57361
 C1670 C 0.78789 0.78338 0.56100
 N1671 N 0.76761 0.78231 0.54812
 H1672 H 0.80224 0.77114 0.56090
 N1673 N 0.28283 0.76117 0.42714
 N1674 N 0.28886 0.75457 0.40585
 C1675 C 0.28077 0.73340 0.40276
 C1676 C 0.26958 0.72710 0.42293
 N1677 N 0.27131 0.74495 0.43768
 H1678 H 0.26092 0.71132 0.42647
 N1679 N 0.24631 0.18751 0.93952
 N1680 N 0.25148 0.17478 0.92105
 C1681 C 0.27162 0.18314 0.91196
 C1682 C 0.27869 0.20151 0.92545
 N1683 N 0.26238 0.20363 0.94245
 H1684 H 0.29402 0.21225 0.92313
 N1685 N 0.73446 0.68694 0.96392
 N1686 N 0.74257 0.67321 0.94730
 C1687 C 0.76167 0.68342 0.93808
 C1688 C 0.76502 0.70371 0.94939
 N1689 N 0.74773 0.70530 0.96533
 H1690 H 0.77852 0.71624 0.94621
 N1691 N 0.79266 0.24527 0.44358
 N1692 N 0.80408 0.23944 0.42437
 C1693 C 0.79481 0.21970 0.41682
 C1694 C 0.77715 0.21350 0.43210
 N1695 N 0.77644 0.23004 0.44852
 H1696 H 0.76581 0.19880 0.43121
 N1697 N 0.66959 0.26853 0.45600
 N1698 N 0.66029 0.28092 0.43927
 C1699 C 0.67742 0.29533 0.43285
 C1700 C 0.69764 0.29152 0.44644
 N1701 N 0.69191 0.27459 0.46060
 H1702 H 0.71517 0.29897 0.44492
 N1703 N 0.66498 0.76659 0.96172
 N1704 N 0.65270 0.77580 0.94438
 C1705 C 0.66685 0.79173 0.93552
 C1706 C 0.68817 0.79199 0.94787
 N1707 N 0.68629 0.77608 0.96402
 H1708 H 0.70368 0.80242 0.94514
 N1709 N 0.20663 0.30502 0.96555
 N1710 N 0.19620 0.31720 0.94921
 C1711 C 0.19698 0.30495 0.92921
 C1712 C 0.20837 0.28487 0.93372
 N1713 N 0.21388 0.28555 0.95665
 H1714 H 0.21368 0.27188 0.92135
 N1715 N 0.17096 0.76929 0.45707
 N1716 N 0.15963 0.77997 0.44014
 C1717 C 0.17229 0.79870 0.43608
 C1718 C 0.19164 0.79932 0.45118
 N1719 N 0.19020 0.78062 0.46389
 H1720 H 0.20657 0.81086 0.45119
 N1721 N 0.74656 0.68020 0.55914
 N1722 N 0.73764 0.66980 0.57726
 C1723 C 0.71709 0.68038 0.58285
 C1724 C 0.71356 0.69767 0.56740
 N1725 N 0.73239 0.69691 0.55290
 H1726 H 0.69905 0.70973 0.56693
 N1727 N 0.74964 0.20595 0.07715
 N1728 N 0.74254 0.19388 0.09491
 C1729 C 0.71986 0.20008 0.09940
 C1730 C 0.71324 0.21655 0.08381
 N1731 N 0.73240 0.21965 0.07023
 H1732 H 0.69605 0.22475 0.08193
 N1733 N 0.27236 0.71087 0.05217
 N1734 N 0.26561 0.70175 0.07192
 C1735 C 0.24265 0.70789 0.07518
 C1736 C 0.23545 0.72099 0.05684
 N1737 N 0.25450 0.72242 0.04289
 H1738 H 0.21823 0.72890 0.05402
 N1739 N 0.27923 0.22531 0.58493
 N1740 N 0.26865 0.22056 0.60470
 C1741 C 0.24544 0.22626 0.60215
 C1742 C 0.24206 0.23486 0.58008
 N1743 N 0.26365 0.23380 0.56995
 H1744 H 0.22548 0.23986 0.57171
   
