data_POSCAR
  _audit_creation_date              2014-09-24
  _audit_creation_method            'ToBaCCo'
  _symmetry_space_group_name_H-M    'P1'
  _symmetry_Int_Tables_number       1
  _symmetry_cell_setting            triclinic
  loop_
  _symmetry_equiv_pos_as_xyz
 x,y,z
_cell_length_a 72.1255
_cell_length_b 72.2149
_cell_length_c 72.1684
_cell_angle_alpha 90.001200
_cell_angle_beta 89.927800
_cell_angle_gamma 90.044000
loop_
  _atom_site_label
  _atom_site_type_symbol
  _atom_site_fract_x
  _atom_site_fract_y
  _atom_site_fract_z
C1 C 0.36012 0.33630 0.33647
 C2 C 0.35226 0.35216 0.32854
 C3 C 0.33642 0.36014 0.33645
 C4 C 0.32845 0.35226 0.35232
 C5 C 0.33630 0.33639 0.36026
 C6 C 0.35215 0.32843 0.35233
 H7 H 0.35832 0.35815 0.31615
 H8 H 0.31608 0.35832 0.35835
 H9 H 0.35813 0.31604 0.35837
 C10 C 0.36016 0.83661 -0.16382
 C11 C 0.35213 0.85242 -0.17175
 C12 C 0.33618 0.86023 -0.16384
 C13 C 0.32829 0.85223 -0.14798
 C14 C 0.33630 0.83644 -0.14005
 C15 C 0.35223 0.82865 -0.14796
 H16 H 0.35816 0.85849 -0.18413
 H17 H 0.31585 0.85813 -0.14192
 H18 H 0.35829 0.81631 -0.14189
 C19 C 0.86019 0.33695 -0.16378
 C20 C 0.85223 0.32906 -0.14793
 C21 C 0.83640 0.33701 -0.13997
 C22 C 0.82855 0.35290 -0.14785
 C23 C 0.83649 0.36082 -0.16373
 C24 C 0.85234 0.35284 -0.17167
 H25 H 0.85820 0.31665 -0.14193
 H26 H 0.81618 0.35893 -0.14176
 H27 H 0.85843 0.35882 -0.18406
 C28 C 0.85978 0.83697 0.33699
 C29 C 0.85188 0.85280 0.32901
 C30 C 0.83599 0.86075 0.33688
 C31 C 0.82802 0.85287 0.35276
 C32 C 0.83591 0.83704 0.36074
 C33 C 0.85180 0.82911 0.35286
 H34 H 0.85799 0.85875 0.31662
 H35 H 0.81562 0.85887 0.35879
 H36 H 0.85780 0.81676 0.35893
 C37 C 0.63980 0.66357 0.33664
 C38 C 0.64771 0.64767 0.32884
 C39 C 0.66344 0.63967 0.33691
 C40 C 0.67124 0.64757 0.35283
 C41 C 0.66334 0.66348 0.36066
 C42 C 0.64761 0.67146 0.35256
 H43 H 0.64178 0.64166 0.31640
 H44 H 0.68352 0.64149 0.35898
 H45 H 0.64160 0.68389 0.35850
 C46 C 0.63953 0.16389 -0.16399
 C47 C 0.64742 0.14804 -0.17193
 C48 C 0.66322 0.14001 -0.16398
 C49 C 0.67108 0.14785 -0.14804
 C50 C 0.66319 0.16371 -0.14010
 C51 C 0.64741 0.17170 -0.14807
 H52 H 0.64140 0.14212 -0.18437
 H53 H 0.68342 0.14180 -0.14195
 H54 H 0.64141 0.18408 -0.14203
 C55 C 0.13939 0.66331 -0.16423
 C56 C 0.14719 0.67123 -0.14832
 C57 C 0.16293 0.66329 -0.14021
 C58 C 0.17086 0.64738 -0.14801
 C59 C 0.16308 0.63943 -0.16393
 C60 C 0.14733 0.64741 -0.17202
 H61 H 0.14116 0.68365 -0.14239
 H62 H 0.18316 0.64136 -0.14181
 H63 H 0.14136 0.64141 -0.18445
 C64 C 0.13978 0.16330 0.33592
 C65 C 0.14778 0.14745 0.32809
 C66 C 0.16356 0.13953 0.33614
 C67 C 0.17132 0.14746 0.35206
 C68 C 0.16334 0.16331 0.35991
 C69 C 0.14756 0.17121 0.35184
 H70 H 0.14187 0.14142 0.31566
 H71 H 0.18365 0.14144 0.35819
 H72 H 0.14148 0.18359 0.35781
 C73 C 0.63986 0.33714 0.66325
 C74 C 0.64787 0.35295 0.67116
 C75 C 0.66384 0.36075 0.66330
 C76 C 0.67177 0.35275 0.64749
 C77 C 0.66378 0.33694 0.63956
 C78 C 0.64781 0.32915 0.64743
 H79 H 0.64182 0.35903 0.68351
 H80 H 0.68424 0.35867 0.64150
 H81 H 0.64172 0.31681 0.64141
 C82 C 0.63989 0.83711 1.16392
 C83 C 0.64785 0.82925 1.14803
 C84 C 0.66374 0.83717 1.14014
 C85 C 0.67168 0.85298 1.14812
 C86 C 0.66376 0.86087 1.16401
 C87 C 0.64785 0.85293 1.17190
 H88 H 0.64184 0.81690 1.14191
 H89 H 0.68410 0.85897 1.14208
 H90 H 0.64181 0.85893 1.18431
 C91 C 0.13977 0.33629 1.16328
 C92 C 0.14777 0.32836 1.14745
 C93 C 0.16367 0.33625 1.13955
 C94 C 0.17157 0.35211 1.14747
 C95 C 0.16360 0.36007 1.16329
 C96 C 0.14770 0.35217 1.17118
 H97 H 0.14178 0.31597 1.14139
 H98 H 0.18399 0.35812 1.14146
 H99 H 0.14166 0.35826 1.18354
 C100 C 0.13976 0.83657 0.66330
 C101 C 0.14772 0.85242 0.67123
 C102 C 0.16367 0.86028 0.66337
 C103 C 0.17164 0.85230 0.64754
 C104 C 0.16370 0.83647 0.63961
 C105 C 0.14776 0.82862 0.64748
 H106 H 0.14163 0.85849 0.68359
 H107 H 0.18409 0.85824 0.64152
 H108 H 0.14175 0.81625 0.64140
 C109 C 0.36035 0.66342 0.66418
 C110 C 0.35259 0.67133 0.64825
 C111 C 0.33678 0.66343 0.64021
 C112 C 0.32875 0.64760 0.64808
 C113 C 0.33651 0.63968 0.66401
 C114 C 0.35232 0.64759 0.67204
 H115 H 0.35869 0.68369 0.64226
 H116 H 0.31641 0.64159 0.64196
 H117 H 0.35822 0.64157 0.68447
 C118 C 0.36037 0.16240 1.16340
 C119 C 0.35253 0.17035 1.14754
 C120 C 0.33669 0.16247 1.13953
 C121 C 0.32870 0.14662 1.14739
 C122 C 0.33652 0.13864 1.16327
 C123 C 0.35238 0.14655 1.17126
 H124 H 0.35860 0.18273 1.14156
 H125 H 0.31633 0.14065 1.14127
 H126 H 0.35838 0.14053 1.18366
 C127 C 0.86013 0.66368 1.16371
 C128 C 0.85228 0.67164 1.14785
 C129 C 0.83645 0.66377 1.13984
 C130 C 0.82848 0.64789 1.14769
 C131 C 0.83631 0.63992 1.16355
 C132 C 0.85215 0.64781 1.17154
 H133 H 0.85835 0.68403 1.14189
 H134 H 0.81611 0.64190 1.14160
 H135 H 0.85811 0.64174 1.18392
 C136 C 0.86048 0.16354 0.66397
 C137 C 0.85241 0.14774 0.67190
 C138 C 0.83652 0.13988 0.66396
 C139 C 0.82871 0.14782 0.64806
 C140 C 0.83675 0.16361 0.64013
 C141 C 0.85264 0.17146 0.64807
 H142 H 0.85837 0.14170 0.68432
 H143 H 0.81630 0.14188 0.64197
 H144 H 0.85873 0.18379 0.64199
 C145 C 0.33571 0.36052 0.66355
 C146 C 0.35161 0.35263 0.67140
 C147 C 0.35954 0.33681 0.66343
 C148 C 0.35159 0.32891 0.64759
 C149 C 0.33569 0.33679 0.63974
 C150 C 0.32776 0.35261 0.64771
 H151 H 0.35766 0.35865 0.68376
 H152 H 0.35762 0.31656 0.64153
 H153 H 0.31535 0.35861 0.64174
 C154 C 0.33672 0.86007 0.16282
 C155 C 0.32876 0.85210 0.14702
 C156 C 0.33668 0.83625 0.13909
 C157 C 0.35259 0.82840 0.14695
 C158 C 0.36057 0.83637 0.16275
 C159 C 0.35263 0.85222 0.17067
 H160 H 0.31634 0.85807 0.14104
 H161 H 0.35862 0.81603 0.14093
 H162 H 0.35870 0.85828 0.18300
 C163 C 0.83665 0.36059 0.16306
 C164 C 0.85255 0.35271 0.17093
 C165 C 0.86049 0.33689 0.16299
 C166 C 0.85255 0.32896 0.14715
 C167 C 0.83665 0.33682 0.13928
 C168 C 0.82872 0.35265 0.14723
 H169 H 0.85859 0.35875 0.18329
 H170 H 0.85859 0.31660 0.14111
 H171 H 0.81630 0.35863 0.14125
 C172 C 0.83639 0.86141 0.66360
 C173 C 0.85231 0.85348 0.67137
 C174 C 0.86012 0.83759 0.66342
 C175 C 0.85202 0.82965 0.64767
 C176 C 0.83609 0.83756 0.63990
 C177 C 0.82830 0.85345 0.64786
 H178 H 0.85847 0.85953 0.68367
 H179 H 0.85795 0.81724 0.64163
 H180 H 0.81587 0.85947 0.64195
 C181 C 0.66349 0.63968 0.66451
 C182 C 0.64766 0.64755 0.67256
 C183 C 0.63963 0.66337 0.66472
 C184 C 0.64744 0.67131 0.64881
 C185 C 0.66327 0.66346 0.64075
 C186 C 0.67128 0.64763 0.64860
 H187 H 0.64173 0.64150 0.68499
 H188 H 0.64133 0.68367 0.64284
 H189 H 0.68364 0.64166 0.64247
 C190 C 0.66384 0.13914 0.16348
 C191 C 0.67170 0.14712 0.14761
 C192 C 0.66371 0.16294 0.13973
 C193 C 0.64783 0.17076 0.14772
 C194 C 0.63995 0.16279 0.16359
 C195 C 0.64796 0.14697 0.17145
 H196 H 0.68410 0.14116 0.14154
 H197 H 0.64174 0.18311 0.14173
 H198 H 0.64197 0.14090 0.18384
 C199 C 0.16316 0.63959 0.16368
 C200 C 0.14735 0.64751 0.17171
 C201 C 0.13938 0.66336 0.16386
 C202 C 0.14722 0.67126 0.14794
 C203 C 0.16303 0.66335 0.13990
 C204 C 0.17098 0.64751 0.14776
 H205 H 0.14139 0.64149 0.18414
 H206 H 0.14116 0.68363 0.14195
 H207 H 0.18333 0.64148 0.14165
 C208 C 0.16329 0.13855 0.66338
 C209 C 0.14743 0.14638 0.67140
 C210 C 0.13941 0.16222 0.66359
 C211 C 0.14725 0.17022 0.64771
 C212 C 0.16311 0.16241 0.63968
 C213 C 0.17112 0.14656 0.64750
 H214 H 0.14147 0.14029 0.68379
 H215 H 0.14116 0.18259 0.64177
 H216 H 0.18350 0.14062 0.64139
 C217 C 0.33713 0.63955 0.33621
 C218 C 0.35296 0.64749 0.32822
 C219 C 0.36092 0.66334 0.33609
 C220 C 0.35304 0.67124 0.35199
 C221 C 0.33721 0.66331 0.36000
 C222 C 0.32927 0.64745 0.35211
 H223 H 0.35894 0.64148 0.31580
 H224 H 0.35909 0.68362 0.35799
 H225 H 0.31691 0.64142 0.35819
 C226 C 0.33664 0.13879 0.83615
 C227 C 0.32875 0.14671 0.85203
 C228 C 0.33663 0.16261 0.85989
 C229 C 0.35244 0.17057 0.85188
 C230 C 0.36035 0.16267 0.83600
 C231 C 0.35245 0.14677 0.82815
 H232 H 0.31640 0.14065 0.85813
 H233 H 0.35845 0.18298 0.85785
 H234 H 0.35846 0.14075 0.81575
 C235 C 0.83701 0.64007 0.83677
 C236 C 0.85281 0.64801 0.82871
 C237 C 0.86071 0.66396 0.83646
 C238 C 0.85281 0.67194 0.85231
 C239 C 0.83701 0.66401 0.86038
 C240 C 0.82913 0.64807 0.85261
 H241 H 0.85881 0.64193 0.81634
 H242 H 0.85881 0.68439 0.85821
 H243 H 0.81679 0.64203 0.85875
 C244 C 0.83701 0.13950 0.33634
 C245 C 0.85282 0.14746 0.32833
 C246 C 0.86074 0.16335 0.33618
 C247 C 0.85285 0.17125 0.35207
 C248 C 0.83704 0.16330 0.36009
 C249 C 0.82913 0.14742 0.35223
 H250 H 0.85882 0.14144 0.31593
 H251 H 0.85887 0.18365 0.35805
 H252 H 0.81678 0.14136 0.35833
 C253 C 0.66344 0.35993 0.33671
 C254 C 0.67134 0.35199 0.35255
 C255 C 0.66344 0.33611 0.36044
 C256 C 0.64759 0.32819 0.35249
 C257 C 0.63967 0.33612 0.33665
 C258 C 0.64759 0.35200 0.32878
 H259 H 0.68371 0.35803 0.35859
 H260 H 0.64157 0.31579 0.35849
 H261 H 0.64157 0.35804 0.31641
 C262 C 0.66339 0.86135 0.83700
 C263 C 0.67137 0.85341 0.85280
 C264 C 0.66349 0.83753 0.86073
 C265 C 0.64761 0.82961 0.85285
 C266 C 0.63962 0.83753 0.83705
 C267 C 0.64751 0.85341 0.82914
 H268 H 0.68376 0.85944 0.85879
 H269 H 0.64161 0.81721 0.85888
 H270 H 0.64143 0.85945 0.81680
 C271 C 0.16313 0.35986 0.83691
 C272 C 0.17109 0.35187 0.85270
 C273 C 0.16324 0.33593 0.86053
 C274 C 0.14741 0.32800 0.85258
 C275 C 0.13944 0.33597 0.83678
 C276 C 0.14730 0.35191 0.82896
 H277 H 0.18345 0.35792 0.85875
 H278 H 0.14143 0.31555 0.85853
 H279 H 0.14124 0.35798 0.81663
 C280 C 0.16379 0.86028 0.33691
 C281 C 0.14787 0.85241 0.32906
 C282 C 0.13991 0.83657 0.33699
 C283 C 0.14786 0.82862 0.35280
 C284 C 0.16378 0.83647 0.36066
 C285 C 0.17173 0.85231 0.35272
 H286 H 0.14182 0.85847 0.31672
 H287 H 0.14181 0.81626 0.35884
 H288 H 0.18416 0.85829 0.35870
 O289 O 0.25209 1.01780 0.22600
 O290 O 0.22671 0.98173 0.25172
 O291 O 0.22669 1.01783 0.25163
 O292 O 0.25209 0.98170 0.22608
 O293 O 0.27387 0.98177 0.24763
 O294 O 0.24846 1.01791 0.27317
 O295 O 0.24848 0.98180 0.27327
 O296 O 0.27386 1.01787 0.24755
 Cu297 Cu 0.23720 0.99976 0.23668
 Cu298 Cu 0.26337 0.99984 0.26258
 C299 C 0.26723 1.02397 0.23247
 C300 C 0.23334 0.97563 0.26680
 C301 C 0.23332 1.02401 0.26668
 C302 C 0.26724 0.97559 0.23257
 O303 O 0.22563 0.48209 0.75250
 O304 O 0.25113 0.51819 0.72692
 O305 O 0.25109 0.48208 0.72694
 O306 O 0.22564 0.51821 0.75246
 O307 O 0.24734 0.51823 0.77408
 O308 O 0.27280 0.48210 0.74855
 O309 O 0.27283 0.51821 0.74854
 O310 O 0.24734 0.48212 0.77412
 Cu311 Cu 0.23618 0.50014 0.73753
 Cu312 Cu 0.26226 0.50017 0.76351
 C313 C 0.23222 0.47596 0.76759
 C314 C 0.26626 0.52433 0.73345
 C315 C 0.26621 0.47595 0.73347
 C316 C 0.23222 0.52436 0.76754
 O317 O 0.72680 0.01762 0.24822
 O318 O 0.75213 -0.01848 0.27383
 O319 O 0.75224 0.01763 0.27373
 O320 O 0.72667 -0.01848 0.24831
 O321 O 0.74840 -0.01859 0.22666
 O322 O 0.77397 0.01752 0.25208
 O323 O 0.77386 -0.01859 0.25218
 O324 O 0.74852 0.01752 0.22657
 Cu325 Cu 0.73727 -0.00042 0.26321
 Cu326 Cu 0.76338 -0.00055 0.23719
 C327 C 0.73342 0.02371 0.23311
 C328 C 0.76724 -0.02467 0.26730
 C329 C 0.76739 0.02372 0.26716
 C330 C 0.73325 -0.02467 0.23323
 O331 O 0.72705 0.51802 0.74861
 O332 O 0.75252 0.48186 0.77400
 O333 O 0.75248 0.51797 0.77414
 O334 O 0.72709 0.48192 0.74846
 O335 O 0.74884 0.48204 0.72683
 O336 O 0.77422 0.51809 0.75250
 O337 O 0.77426 0.48198 0.75236
 O338 O 0.74879 0.51815 0.72697
 Cu339 Cu 0.73759 0.49993 0.76349
 Cu340 Cu 0.76372 0.50008 0.73748
 C341 C 0.73365 0.52422 0.73353
 C342 C 0.76765 0.47577 0.76743
 C343 C 0.76761 0.52416 0.76762
 C344 C 0.73371 0.47586 0.73334
 O345 O 0.22652 0.51796 0.24798
 O346 O 0.25201 0.48186 0.27341
 O347 O 0.25204 0.51796 0.27341
 O348 O 0.22651 0.48185 0.24796
 O349 O 0.24818 0.48186 0.22625
 O350 O 0.27371 0.51797 0.25171
 O351 O 0.27369 0.48186 0.25171
 O352 O 0.24819 0.51797 0.22627
 Cu353 Cu 0.23708 0.49990 0.26288
 Cu354 Cu 0.26313 0.49992 0.23679
 C355 C 0.23308 0.52410 0.23286
 C356 C 0.26712 0.47572 0.26683
 C357 C 0.26716 0.52410 0.26683
 C358 C 0.23307 0.47571 0.23284
 O359 O 0.74779 1.01930 0.77368
 O360 O 0.77343 0.98320 0.74831
 O361 O 0.77337 1.01930 0.74824
 O362 O 0.74786 0.98320 0.77377
 O363 O 0.72624 0.98309 0.75208
 O364 O 0.75175 1.01920 0.72653
 O365 O 0.75180 0.98309 0.72661
 O366 O 0.72616 1.01919 0.75197
 Cu367 Cu 0.76279 1.00126 0.76319
 Cu368 Cu 0.73681 1.00113 0.73711
 C369 C 0.73268 1.02539 0.76707
 C370 C 0.76691 0.97701 0.73321
 C371 C 0.76684 1.02539 0.73311
 C372 C 0.73277 0.97701 0.76721
 O373 O 0.75166 0.51801 0.22657
 O374 O 0.72631 0.48182 0.25215
 O375 O 0.72626 0.51793 0.25220
 O376 O 0.75174 0.48190 0.22655
 O377 O 0.77349 0.48194 0.24811
 O378 O 0.74802 0.51796 0.27376
 O379 O 0.74807 0.48185 0.27372
 O380 O 0.77342 0.51805 0.24814
 Cu381 Cu 0.73680 0.49991 0.23719
 Cu382 Cu 0.76295 0.49995 0.26311
 C383 C 0.76679 0.52418 0.23307
 C384 C 0.73294 0.47569 0.26722
 C385 C 0.73287 0.52407 0.26728
 C386 C 0.76689 0.47580 0.23303
 O387 O 0.22650 0.01699 0.74780
 O388 O 0.25179 -0.01914 0.77339
 O389 O 0.25190 0.01697 0.77336
 O390 O 0.22641 -0.01911 0.74781
 O391 O 0.24818 -0.01917 0.72621
 O392 O 0.27367 0.01691 0.75175
 O393 O 0.27357 -0.01920 0.75179
 O394 O 0.24827 0.01694 0.72620
 Cu395 Cu 0.23695 -0.00107 0.76277
 Cu396 Cu 0.26312 -0.00113 0.73681
 C397 C 0.23314 0.02311 0.73271
 C398 C 0.26692 -0.02531 0.76689
 C399 C 0.26706 0.02308 0.76683
 C400 C 0.23302 -0.02527 0.73273
 O401 O 0.24836 0.27282 0.98180
 O402 O 0.27394 0.24739 1.01787
 O403 O 0.27384 0.24734 0.98173
 O404 O 0.24846 0.27288 1.01793
 O405 O 0.22675 0.25123 1.01804
 O406 O 0.25213 0.22570 0.98185
 O407 O 0.25223 0.22575 1.01798
 O408 O 0.22665 0.25117 0.98191
 Cu409 Cu 0.26334 0.26229 0.99982
 Cu410 Cu 0.23725 0.23627 0.99996
 C411 C 0.23322 0.26626 0.97573
 C412 C 0.26737 0.23231 1.02405
 C413 C 0.26724 0.23224 0.97564
 C414 C 0.23335 0.26633 1.02413
 O415 O 0.25268 0.72619 0.48199
 O416 O 0.22715 0.75163 0.51815
 O417 O 0.22713 0.75161 0.48203
 O418 O 0.25268 0.72621 0.51813
 O419 O 0.27434 0.74791 0.51808
 O420 O 0.24879 0.77331 0.48198
 O421 O 0.24881 0.77333 0.51810
 O422 O 0.27433 0.74789 0.48194
 Cu423 Cu 0.23773 0.73672 0.50008
 Cu424 Cu 0.26375 0.76280 0.50002
 C425 C 0.26778 0.73278 0.47582
 C426 C 0.23370 0.76675 0.52427
 C427 C 0.23367 0.76672 0.47587
 C428 C 0.26779 0.73281 0.52425
 O429 O 0.27300 0.75158 -0.01843
 O430 O 0.24744 0.72617 0.01775
 O431 O 0.24739 0.72618 -0.01839
 O432 O 0.27303 0.75157 0.01770
 O433 O 0.25143 0.77329 0.01775
 O434 O 0.22579 0.74790 -0.01833
 O435 O 0.22583 0.74789 0.01780
 O436 O 0.25140 0.77329 -0.01838
 Cu437 Cu 0.26239 0.73668 -0.00035
 Cu438 Cu 0.23643 0.76278 -0.00029
 C439 C 0.26649 0.76669 -0.02455
 C440 C 0.23235 0.73277 0.02393
 C441 C 0.23230 0.73279 -0.02449
 C442 C 0.26653 0.76669 0.02385
 O443 O 0.22572 0.24798 0.48195
 O444 O 0.25110 0.27348 0.51812
 O445 O 0.25119 0.27350 0.48199
 O446 O 0.22567 0.24791 0.51809
 O447 O 0.24740 0.22632 0.51806
 O448 O 0.27291 0.25191 0.48198
 O449 O 0.27283 0.25189 0.51811
 O450 O 0.24744 0.22639 0.48194
 Cu451 Cu 0.23623 0.26290 0.50004
 Cu452 Cu 0.26234 0.23695 0.50002
 C453 C 0.23232 0.23291 0.47580
 C454 C 0.26622 0.26697 0.52426
 C455 C 0.26633 0.26699 0.47585
 C456 C 0.23226 0.23283 0.52421
 O457 O 0.74851 0.77439 0.98210
 O458 O 0.77396 0.74886 1.01818
 O459 O 0.77398 0.74890 0.98205
 O460 O 0.74850 0.77435 1.01823
 O461 O 0.72679 0.75271 1.01823
 O462 O 0.75227 0.72726 0.98205
 O463 O 0.75225 0.72722 1.01818
 O464 O 0.72680 0.75275 0.98210
 Cu465 Cu 0.76343 0.76381 1.00014
 Cu466 Cu 0.73734 0.73780 1.00014
 C467 C 0.73339 0.76785 0.97597
 C468 C 0.76737 0.73377 1.02432
 C469 C 0.76740 0.73381 0.97590
 C470 C 0.73337 0.76780 1.02438
 O471 O 0.74854 0.27338 0.48192
 O472 O 0.77413 0.24807 0.51806
 O473 O 0.77411 0.24799 0.48192
 O474 O 0.74860 0.27349 0.51804
 O475 O 0.72695 0.25178 0.51815
 O476 O 0.75246 0.22628 0.48202
 O477 O 0.75248 0.22636 0.51816
 O478 O 0.72689 0.25167 0.48203
 Cu479 Cu 0.76353 0.26292 0.49997
 Cu480 Cu 0.73752 0.23683 0.50010
 C481 C 0.73342 0.26677 0.47583
 C482 C 0.76759 0.23297 0.52426
 C483 C 0.76756 0.23286 0.47583
 C484 C 0.73350 0.26691 0.52424
 O485 O 0.74797 0.22645 0.01781
 O486 O 0.77336 0.25205 -0.01836
 O487 O 0.77344 0.25198 0.01777
 O488 O 0.74790 0.22651 -0.01832
 O489 O 0.72618 0.24812 -0.01821
 O490 O 0.75172 0.27359 0.01788
 O491 O 0.75165 0.27365 -0.01825
 O492 O 0.72625 0.24806 0.01792
 Cu493 Cu 0.76286 0.23707 -0.00028
 Cu494 Cu 0.73676 0.26303 -0.00015
 C495 C 0.73286 0.23297 0.02402
 C496 C 0.76676 0.26714 -0.02445
 C497 C 0.76686 0.26706 0.02396
 C498 C 0.73276 0.23305 -0.02440
 O499 O 0.74739 0.72688 0.51873
 O500 O 0.77283 0.75245 0.48258
 O501 O 0.77274 0.75253 0.51871
 O502 O 0.74747 0.72681 0.48259
 O503 O 0.72566 0.74832 0.48253
 O504 O 0.75092 0.77404 0.51864
 O505 O 0.75102 0.77396 0.48251
 O506 O 0.72558 0.74839 0.51866
 Cu507 Cu 0.76231 0.73750 0.50066
 Cu508 Cu 0.73609 0.76335 0.50058
 C509 C 0.73222 0.73335 0.52484
 C510 C 0.76618 0.76749 0.47640
 C511 C 0.76606 0.76759 0.52481
 C512 C 0.73233 0.73326 0.47643
 O513 O 1.01840 0.22661 0.25092
 O514 O 0.98229 0.25225 0.22562
 O515 O 1.01844 0.25220 0.22555
 O516 O 0.98225 0.22667 0.25101
 O517 O 0.98232 0.24823 0.27277
 O518 O 1.01851 0.27376 0.24732
 O519 O 0.98235 0.27381 0.24738
 O520 O 1.01847 0.24817 0.27269
 Cu521 Cu 1.00033 0.23726 0.23608
 Cu522 Cu 1.00041 0.26317 0.26224
 C523 C 1.02457 0.23310 0.26604
 C524 C 0.97618 0.26733 0.23226
 C525 C 1.02463 0.26726 0.23218
 C526 C 0.97613 0.23317 0.26616
 O527 O 0.48168 0.25231 0.72587
 O528 O 0.51795 0.22698 0.75128
 O529 O 0.48179 0.22670 0.75123
 O530 O 0.51783 0.25254 0.72589
 O531 O 0.51765 0.27410 0.74765
 O532 O 0.48160 0.24826 0.77299
 O533 O 0.51776 0.24854 0.77304
 O534 O 0.48150 0.27387 0.74764
 Cu535 Cu 0.49983 0.23745 0.73637
 Cu536 Cu 0.49961 0.26337 0.76253
 C537 C 0.47543 0.26733 0.73250
 C538 C 0.52402 0.23352 0.76642
 C539 C 0.47557 0.23314 0.76636
 C540 C 0.52387 0.26764 0.73252
 O541 O 0.01771 0.25126 0.77370
 O542 O -0.01848 0.22579 0.74828
 O543 O 0.01768 0.22562 0.74838
 O544 O -0.01844 0.25143 0.77359
 O545 O -0.01823 0.27295 0.75178
 O546 O 0.01789 0.24713 0.72657
 O547 O -0.01827 0.24730 0.72647
 O548 O 0.01792 0.27277 0.75189
 Cu549 Cu -0.00040 0.23635 0.76319
 Cu550 Cu -0.00015 0.26221 0.73698
 C551 C 0.02396 0.26629 0.76706
 C552 C -0.02452 0.23228 0.73311
 C553 C 0.02392 0.23205 0.73325
 C554 C -0.02447 0.26652 0.76691
 O555 O 0.51798 0.25127 0.27376
 O556 O 0.48186 0.22564 0.24838
 O557 O 0.51802 0.22566 0.24840
 O558 O 0.48182 0.25126 0.27373
 O559 O 0.48187 0.27280 0.25195
 O560 O 0.51807 0.24721 0.22662
 O561 O 0.48192 0.24718 0.22660
 O562 O 0.51803 0.27281 0.25198
 Cu563 Cu 0.49991 0.23628 0.26327
 Cu564 Cu 0.49998 0.26217 0.23709
 C565 C 0.52414 0.26633 0.26712
 C566 C 0.47576 0.23212 0.23323
 C567 C 0.52419 0.23215 0.23327
 C568 C 0.47570 0.26632 0.26709
 O569 O 0.98217 0.74867 0.77268
 O570 O 1.01835 0.77419 0.74721
 O571 O 0.98219 0.77427 0.74731
 O572 O 1.01832 0.74857 0.77254
 O573 O 1.01820 0.72703 0.75076
 O574 O 0.98208 0.75273 0.72553
 O575 O 1.01824 0.75265 0.72542
 O576 O 0.98205 0.72713 0.75090
 Cu577 Cu 1.00027 0.76360 0.76213
 Cu578 Cu 1.00013 0.73772 0.73595
 C579 C 0.97597 0.73362 0.76607
 C580 C 1.02445 0.76769 0.73205
 C581 C 0.97599 0.76780 0.73219
 C582 C 1.02440 0.73349 0.76588
 O583 O 0.51864 0.77402 0.24756
 O584 O 0.48248 0.74835 0.27289
 O585 O 0.51863 0.74846 0.27295
 O586 O 0.48249 0.77389 0.24747
 O587 O 0.48262 0.75230 0.22573
 O588 O 0.51875 0.72687 0.25121
 O589 O 0.48259 0.72676 0.25116
 O590 O 0.51877 0.75244 0.22582
 Cu591 Cu 0.50055 0.76336 0.26241
 Cu592 Cu 0.50069 0.73741 0.23629
 C593 C 0.52486 0.76753 0.23244
 C594 C 0.47639 0.73325 0.26628
 C595 C 0.52483 0.73340 0.26635
 C596 C 0.47641 0.76735 0.23233
 O597 O -0.01828 0.77374 0.25259
 O598 O 0.01788 0.74819 0.22718
 O599 O -0.01827 0.74821 0.22715
 O600 O 0.01787 0.77372 0.25260
 O601 O 0.01780 0.75212 0.27432
 O602 O -0.01834 0.72661 0.24887
 O603 O 0.01781 0.72658 0.24890
 O604 O -0.01835 0.75214 0.27431
 Cu605 Cu -0.00019 0.76315 0.23769
 Cu606 Cu -0.00028 0.73718 0.26379
 C607 C -0.02447 0.76722 0.26770
 C608 C 0.02399 0.73310 0.23378
 C609 C -0.02444 0.73313 0.23374
 C610 C 0.02398 0.76719 0.26773
 O611 O 0.48172 0.77397 0.75266
 O612 O 0.51796 0.74823 0.72754
 O613 O 0.48181 0.74825 0.72743
 O614 O 0.51787 0.77397 0.75277
 O615 O 0.51776 0.75253 0.77465
 O616 O 0.48169 0.72681 0.74932
 O617 O 0.51784 0.72679 0.74943
 O618 O 0.48160 0.75254 0.77455
 Cu619 Cu 0.49985 0.76327 0.73789
 Cu620 Cu 0.49971 0.73751 0.76420
 C621 C 0.47550 0.76756 0.76781
 C622 C 0.52405 0.73320 0.73427
 C623 C 0.47562 0.73322 0.73413
 C624 C 0.52395 0.76756 0.76796
 C625 C 0.37603 0.32776 0.32798
 C626 C 0.38921 0.32048 0.32073
 C627 C 0.40476 0.31164 0.31190
 C628 C 0.41311 0.29619 0.32015
 C629 C 0.42787 0.28726 0.31129
 C630 C 0.43432 0.29373 0.29415
 C631 C 0.42606 0.30926 0.28597
 C632 C 0.41130 0.31819 0.29483
 C633 C 0.44912 0.28420 0.28476
 C634 C 0.46135 0.27610 0.27676
 H635 H 0.40813 0.29098 0.33332
 H636 H 0.43413 0.27523 0.31771
 H637 H 0.43091 0.31435 0.27270
 H638 H 0.40491 0.33010 0.28831
 C639 C 0.37530 0.82868 0.82816
 C640 C 0.38857 0.82151 0.82095
 C641 C 0.40422 0.81277 0.81221
 C642 C 0.41047 0.81901 0.79491
 C643 C 0.42531 0.81013 0.78613
 C644 C 0.43396 0.79498 0.79461
 C645 C 0.42780 0.78883 0.81198
 C646 C 0.41296 0.79771 0.82076
 C647 C 0.44882 0.78548 0.78531
 C648 C 0.46110 0.77737 0.77739
 H649 H 0.40378 0.83061 0.78815
 H650 H 0.42993 0.81497 0.77268
 H651 H 0.43436 0.77710 0.81864
 H652 H 0.40821 0.79274 0.83411
 C653 C -0.12392 0.32840 0.82770
 C654 C -0.11077 0.32109 0.82044
 C655 C -0.09525 0.31218 0.81163
 C656 C -0.08840 0.31894 0.79476
 C657 C -0.07368 0.30994 0.78591
 C658 C -0.06575 0.29414 0.79391
 C659 C -0.07251 0.28746 0.81085
 C660 C -0.08723 0.29646 0.81969
 C661 C -0.05099 0.28455 0.78452
 C662 C -0.03879 0.27638 0.77655
 H663 H -0.09454 0.33105 0.78838
 H664 H -0.06860 0.31519 0.77279
 H665 H -0.06650 0.27523 0.81713
 H666 H -0.09244 0.29109 0.83271
 C667 C -0.12428 0.82846 0.32856
 C668 C -0.11107 0.82119 0.32135
 C669 C -0.09548 0.81235 0.31258
 C670 C -0.08781 0.81990 0.29641
 C671 C -0.07303 0.81100 0.28757
 C672 C -0.06586 0.79451 0.29486
 C673 C -0.07344 0.78704 0.31110
 C674 C -0.08822 0.79594 0.31995
 C675 C -0.05105 0.78504 0.28543
 C676 C -0.03882 0.77697 0.27740
 H677 H -0.09335 0.83256 0.29057
 H678 H -0.06731 0.81687 0.27498
 H679 H -0.06804 0.77427 0.31683
 H680 H -0.09408 0.78996 0.33242
 C681 C 0.62403 0.67213 0.32797
 C682 C 0.61098 0.67941 0.32052
 C683 C 0.59559 0.68821 0.31142
 C684 C 0.58318 0.69917 0.32158
 C685 C 0.56850 0.70808 0.31260
 C686 C 0.56618 0.70607 0.29343
 C687 C 0.57852 0.69503 0.28330
 C688 C 0.59319 0.68612 0.29227
 C689 C 0.55139 0.71560 0.28407
 C690 C 0.53916 0.72368 0.27607
 H691 H 0.58493 0.70091 0.33639
 H692 H 0.55906 0.71662 0.32057
 H693 H 0.57688 0.69341 0.26846
 H694 H 0.60272 0.67771 0.28427
 C695 C 0.62370 0.17249 0.82749
 C696 C 0.61060 0.17988 0.82024
 C697 C 0.59515 0.18891 0.81147
 C698 C 0.58220 0.17855 0.80137
 C699 C 0.56745 0.18744 0.79248
 C700 C 0.56560 0.20672 0.79367
 C701 C 0.57849 0.21706 0.80386
 C702 C 0.59323 0.20817 0.81274
 C703 C 0.55072 0.21597 0.78417
 C704 C 0.53843 0.22389 0.77612
 H705 H 0.58358 0.16365 0.80027
 H706 H 0.55759 0.17932 0.78461
 H707 H 0.57721 0.23197 0.80484
 H708 H 0.60318 0.21632 0.82048
 C709 C 1.12360 0.67184 0.82710
 C710 C 1.11053 0.67912 0.81968
 C711 C 1.09512 0.68795 0.81064
 C712 C 1.08320 0.69949 0.82073
 C713 C 1.06852 0.70846 0.81181
 C714 C 1.06571 0.70591 0.79276
 C715 C 1.07756 0.69427 0.78271
 C716 C 1.09223 0.68531 0.79163
 C717 C 1.05094 0.71551 0.78345
 C718 C 1.03872 0.72366 0.77550
 H719 H 1.08533 0.70166 0.83543
 H720 H 1.05946 0.71746 0.81970
 H721 H 1.07554 0.69224 0.76798
 H722 H 1.10139 0.67645 0.78369
 C723 C 1.12395 0.17177 0.32728
 C724 C 1.11084 0.17899 0.31987
 C725 C 1.09539 0.18776 0.31085
 C726 C 1.09246 0.18504 0.29185
 C727 C 1.07776 0.19395 0.28293
 C728 C 1.06591 0.20561 0.29297
 C729 C 1.06876 0.20824 0.31199
 C730 C 1.08347 0.19932 0.32092
 C731 C 1.05112 0.21517 0.28365
 C732 C 1.03890 0.22330 0.27569
 H733 H 1.10161 0.17616 0.28393
 H734 H 1.07570 0.19186 0.26821
 H735 H 1.05971 0.21726 0.31988
 H736 H 1.08564 0.20155 0.33560
 C737 C 0.62384 0.32877 0.67170
 C738 C 0.61057 0.32160 0.67892
 C739 C 0.59492 0.31286 0.68770
 C740 C 0.58668 0.29727 0.67961
 C741 C 0.57187 0.28840 0.68845
 C742 C 0.56524 0.29510 0.70543
 C743 C 0.57338 0.31078 0.71346
 C744 C 0.58820 0.31965 0.70461
 C745 C 0.55042 0.28560 0.71485
 C746 C 0.53819 0.27749 0.72285
 H747 H 0.59181 0.29188 0.66656
 H748 H 0.56571 0.27625 0.68215
 H749 H 0.56839 0.31605 0.72661
 H750 H 0.59450 0.33167 0.71102
 C751 C 0.62478 0.82906 0.17191
 C752 C 0.61154 0.82179 0.17909
 C753 C 0.59593 0.81292 0.18781
 C754 C 0.58853 0.82017 0.20424
 C755 C 0.57374 0.81122 0.21303
 C756 C 0.56628 0.79499 0.20543
 C757 C 0.57358 0.78783 0.18892
 C758 C 0.58838 0.79678 0.18013
 C759 C 0.55145 0.78546 0.21480
 C760 C 0.53921 0.77734 0.22278
 H761 H 0.59430 0.83262 0.21032
 H762 H 0.56822 0.81685 0.22581
 H763 H 0.56795 0.77526 0.18295
 H764 H 0.59403 0.79103 0.16746
 C765 C 1.12465 0.32829 0.17130
 C766 C 1.11140 0.32107 0.17852
 C767 C 1.09578 0.31230 0.18730
 C768 C 1.08864 0.31944 0.20389
 C769 C 1.07383 0.31057 0.21274
 C770 C 1.06609 0.29453 0.20503
 C771 C 1.07313 0.28746 0.18836
 C772 C 1.08795 0.29633 0.17952
 C773 C 1.05125 0.28506 0.21445
 C774 C 1.03900 0.27700 0.22247
 H775 H 1.09463 0.33175 0.21005
 H776 H 1.06852 0.31612 0.22564
 H777 H 1.06728 0.27504 0.18231
 H778 H 1.09339 0.29067 0.16672
 C779 C 1.12461 0.82859 0.67128
 C780 C 1.11133 0.82140 0.67848
 C781 C 1.09568 0.81266 0.68724
 C782 C 1.08764 0.79688 0.67929
 C783 C 1.07280 0.78803 0.68812
 C784 C 1.06595 0.79492 0.70494
 C785 C 1.07390 0.81078 0.71281
 C786 C 1.08874 0.81963 0.70399
 C787 C 1.05110 0.78547 0.71433
 C788 C 1.03883 0.77742 0.72234
 H789 H 1.09294 0.79135 0.66638
 H790 H 1.06679 0.77575 0.68193
 H791 H 1.06875 0.81620 0.72584
 H792 H 1.09489 0.83179 0.71028
 C793 C 0.37622 0.67189 0.67278
 C794 C 0.38937 0.67914 0.68012
 C795 C 0.40487 0.68795 0.68903
 C796 C 0.41145 0.68121 0.70599
 C797 C 0.42617 0.69011 0.71493
 C798 C 0.43436 0.70580 0.70694
 C799 C 0.42786 0.71247 0.68991
 C800 C 0.41315 0.70356 0.68098
 C801 C 0.44911 0.71530 0.71640
 C802 C 0.46131 0.72341 0.72444
 H803 H 0.40512 0.66917 0.71237
 H804 H 0.43105 0.68487 0.72811
 H805 H 0.43406 0.72462 0.68363
 H806 H 0.40813 0.70892 0.66789
 C807 C 0.37627 0.17086 0.17196
 C808 C 0.38944 0.17810 0.17927
 C809 C 0.40497 0.18691 0.18813
 C810 C 0.41198 0.17980 0.20477
 C811 C 0.42671 0.18870 0.21369
 C812 C 0.43448 0.20475 0.20601
 C813 C 0.42756 0.21179 0.18930
 C814 C 0.41283 0.20289 0.18038
 C815 C 0.44924 0.21424 0.21548
 C816 C 0.46144 0.22233 0.22353
 H817 H 0.40598 0.16748 0.21091
 H818 H 0.43193 0.18317 0.22662
 H819 H 0.43343 0.22422 0.18327
 H820 H 0.40748 0.20853 0.16755
 C821 C -0.12397 0.67213 0.17229
 C822 C -0.11081 0.67935 0.17961
 C823 C -0.09528 0.68814 0.18851
 C824 C -0.08827 0.68097 0.20512
 C825 C -0.07354 0.68983 0.21407
 C826 C -0.06576 0.70590 0.20644
 C827 C -0.07268 0.71300 0.18976
 C828 C -0.08741 0.70413 0.18081
 C829 C -0.05098 0.71534 0.21594
 C830 C -0.03877 0.72339 0.22401
 H831 H -0.09428 0.66864 0.21122
 H832 H -0.06832 0.68425 0.22699
 H833 H -0.06679 0.72544 0.18376
 H834 H -0.09276 0.70982 0.16800
 C835 C -0.12442 0.17151 0.67203
 C836 C -0.11119 0.17869 0.67928
 C837 C -0.09559 0.18742 0.68811
 C838 C -0.08857 0.18027 0.70472
 C839 C -0.07378 0.18909 0.71361
 C840 C -0.06595 0.20511 0.70592
 C841 C -0.07288 0.21218 0.68923
 C842 C -0.08767 0.20336 0.68034
 C843 C -0.05113 0.21453 0.71536
 C844 C -0.03888 0.22256 0.72340
 H845 H -0.09462 0.16798 0.71087
 H846 H -0.06856 0.18353 0.72653
 H847 H -0.06696 0.22459 0.68318
 H848 H -0.09303 0.20903 0.66752
 C849 C 0.32799 0.37607 0.32796
 C850 C 0.32079 0.38926 0.32070
 C851 C 0.31203 0.40483 0.31188
 C852 C 0.31940 0.41210 0.29544
 C853 C 0.31056 0.42685 0.28655
 C854 C 0.29431 0.43440 0.29406
 C855 C 0.28702 0.42723 0.31057
 C856 C 0.29587 0.41247 0.31946
 C857 C 0.28489 0.44919 0.28459
 C858 C 0.27685 0.46140 0.27654
 H859 H 0.33187 0.40626 0.28943
 H860 H 0.31629 0.43227 0.27376
 H861 H 0.27444 0.43293 0.31647
 H862 H 0.29003 0.40692 0.33214
 C863 C 0.32805 -0.12477 0.82813
 C864 C 0.32070 -0.11163 0.82091
 C865 C 0.31175 -0.09614 0.81215
 C866 C 0.29328 -0.09193 0.81643
 C867 C 0.28437 -0.07721 0.80754
 C868 C 0.29391 -0.06664 0.79432
 C869 C 0.31242 -0.07077 0.79012
 C870 C 0.32133 -0.08549 0.79902
 C871 C 0.28455 -0.05186 0.78478
 C872 C 0.27658 -0.03964 0.77667
 H873 H 0.28573 -0.10010 0.82653
 H874 H 0.27004 -0.07417 0.81085
 H875 H 0.31991 -0.06271 0.77989
 H876 H 0.33560 -0.08866 0.79557
 C877 C 0.82852 0.37592 0.82827
 C878 C 0.82132 0.38915 0.82106
 C879 C 0.81257 0.40475 0.81229
 C880 C 0.81997 0.41211 0.79591
 C881 C 0.81112 0.42690 0.78706
 C882 C 0.79484 0.43438 0.79456
 C883 C 0.78752 0.42710 0.81102
 C884 C 0.79636 0.41232 0.81987
 C885 C 0.78541 0.44919 0.78514
 C886 C 0.77737 0.46142 0.77713
 H887 H 0.83246 0.40633 0.78991
 H888 H 0.81688 0.43238 0.77432
 H889 H 0.77491 0.43275 0.81692
 H890 H 0.79050 0.40670 0.83250
 C891 C 0.82798 -0.12421 0.32878
 C892 C 0.82078 -0.11104 0.32148
 C893 C 0.81203 -0.09550 0.31260
 C894 C 0.81931 -0.08839 0.29605
 C895 C 0.81048 -0.07366 0.28711
 C896 C 0.79433 -0.06597 0.29468
 C897 C 0.78712 -0.07298 0.31130
 C898 C 0.79595 -0.08772 0.32024
 C899 C 0.78492 -0.05120 0.28517
 C900 C 0.77691 -0.03899 0.27708
 H901 H 0.83170 -0.09434 0.29000
 H902 H 0.81614 -0.06837 0.27424
 H903 H 0.77461 -0.06717 0.31725
 H904 H 0.79017 -0.09314 0.33300
 C905 C 0.32790 0.62379 0.67245
 C906 C 0.32056 0.61063 0.67966
 C907 C 0.31164 0.59511 0.68845
 C908 C 0.31903 0.58761 0.70475
 C909 C 0.31005 0.57289 0.71360
 C910 C 0.29365 0.56560 0.70620
 C911 C 0.28633 0.57301 0.68982
 C912 C 0.29531 0.58773 0.68097
 C913 C 0.28410 0.55084 0.71563
 C914 C 0.27601 0.53864 0.72369
 H915 H 0.33163 0.59324 0.71067
 H916 H 0.31581 0.56729 0.72628
 H917 H 0.27363 0.56751 0.68400
 H918 H 0.28945 0.59346 0.66839
 C919 C 0.32842 1.12357 0.17125
 C920 C 0.32113 1.11038 0.17846
 C921 C 0.31227 1.09481 0.18724
 C922 C 0.29554 1.08789 0.18024
 C923 C 0.28663 1.07314 0.18913
 C924 C 0.29443 1.06526 0.20505
 C925 C 0.31124 1.07209 0.21197
 C926 C 0.32014 1.08684 0.20308
 C927 C 0.28497 1.05048 0.21455
 C928 C 0.27693 1.03828 0.22265
 H929 H 0.28931 1.09399 0.16803
 H930 H 0.27361 1.06800 0.18369
 H931 H 0.31737 1.06612 0.22430
 H932 H 0.33306 1.09211 0.20864
 C933 C 0.82777 0.62398 0.17196
 C934 C 0.82050 0.61078 0.17917
 C935 C 0.81168 0.59520 0.18797
 C936 C 0.81929 0.58759 0.20412
 C937 C 0.81042 0.57282 0.21300
 C938 C 0.79391 0.56559 0.20577
 C939 C 0.78638 0.57311 0.18955
 C940 C 0.79525 0.58789 0.18066
 C941 C 0.78448 0.55078 0.21524
 C942 C 0.77647 0.53854 0.22330
 H943 H 0.83197 0.59318 0.20992
 H944 H 0.81634 0.56714 0.22557
 H945 H 0.77359 0.56766 0.18386
 H946 H 0.78922 0.59370 0.16821
 C947 C 0.82836 1.12486 0.67199
 C948 C 0.82104 1.11171 0.67924
 C949 C 0.81215 1.09619 0.68807
 C950 C 0.81907 1.08931 0.70485
 C951 C 0.81011 1.07458 0.71373
 C952 C 0.79421 1.06668 0.70588
 C953 C 0.78737 1.07348 0.68904
 C954 C 0.79633 1.08820 0.68015
 C955 C 0.78468 1.05192 0.71531
 C956 C 0.77659 1.03971 0.72336
 H957 H 0.83127 1.09541 0.71112
 H958 H 0.81549 1.06947 0.72677
 H959 H 0.77506 1.06751 0.68286
 H960 H 0.79084 1.09345 0.66721
 C961 C 0.67193 0.62371 0.32850
 C962 C 0.67916 0.61050 0.32129
 C963 C 0.68794 0.59492 0.31249
 C964 C 0.68033 0.58733 0.29633
 C965 C 0.68919 0.57257 0.28743
 C966 C 0.70569 0.56534 0.29465
 C967 C 0.71322 0.57284 0.31090
 C968 C 0.70436 0.58760 0.31980
 C969 C 0.71512 0.55057 0.28516
 C970 C 0.72316 0.53837 0.27706
 H971 H 0.66767 0.59292 0.29053
 H972 H 0.68327 0.56691 0.27485
 H973 H 0.72600 0.56739 0.31658
 H974 H 0.71039 0.59340 0.33226
 C975 C 0.67125 1.12496 0.82796
 C976 C 0.67850 1.11177 0.82071
 C977 C 0.68733 1.09623 0.81190
 C978 C 0.68060 1.08953 0.79497
 C979 C 0.68954 1.07479 0.78611
 C980 C 0.70524 1.06669 0.79415
 C981 C 0.71188 1.07330 0.81115
 C982 C 0.70295 1.08804 0.82000
 C983 C 0.71477 1.05192 0.78476
 C984 C 0.72288 1.03971 0.77675
 H985 H 0.66857 1.09579 0.78855
 H986 H 0.68431 1.06982 0.77295
 H987 H 0.72404 1.06717 0.81746
 H988 H 0.70830 1.09315 0.83306
 C989 C 0.17114 0.62432 0.82815
 C990 C 0.17839 0.61108 0.82100
 C991 C 0.18720 0.59546 0.81228
 C992 C 0.17983 0.58802 0.79594
 C993 C 0.18871 0.57322 0.78715
 C994 C 0.20500 0.56580 0.79465
 C995 C 0.21229 0.57315 0.81107
 C996 C 0.20341 0.58796 0.81986
 C997 C 0.21446 0.55097 0.78527
 C998 C 0.22251 0.53872 0.77726
 H999 H 0.16733 0.59375 0.78994
 H1000 H 0.18298 0.56767 0.77443
 H1001 H 0.22491 0.56755 0.81696
 H1002 H 0.20925 0.59364 0.83246
 C1003 C 0.17212 1.12362 0.32773
 C1004 C 0.17942 1.11044 0.32053
 C1005 C 0.18829 1.09489 0.31175
 C1006 C 0.18015 1.08654 0.29624
 C1007 C 0.18906 1.07179 0.28737
 C1008 C 0.20613 1.06534 0.29397
 C1009 C 0.21420 1.07361 0.30957
 C1010 C 0.20529 1.08835 0.31844
 C1011 C 0.21558 1.05056 0.28450
 C1012 C 0.22361 1.03834 0.27644
 H1013 H 0.16703 1.09151 0.29092
 H1014 H 0.18272 1.06553 0.27529
 H1015 H 0.22742 1.06876 0.31477
 H1016 H 0.21173 1.09475 0.33040
 C1017 C 0.67241 0.37661 0.67180
 C1018 C 0.67975 0.38974 0.67906
 C1019 C 0.68867 0.40522 0.68788
 C1020 C 0.70650 0.41062 0.68234
 C1021 C 0.71542 0.42531 0.69128
 C1022 C 0.70656 0.43466 0.70581
 C1023 C 0.68868 0.42935 0.71127
 C1024 C 0.67975 0.41466 0.70232
 C1025 C 0.71598 0.44939 0.71538
 C1026 C 0.72400 0.46157 0.72352
 H1027 H 0.71354 0.40339 0.67122
 H1028 H 0.72927 0.42927 0.68698
 H1029 H 0.68171 0.43646 0.72251
 H1030 H 0.66598 0.41057 0.70675
 C1031 C 0.67183 -0.12411 0.17209
 C1032 C 0.67911 -0.11095 0.17936
 C1033 C 0.68798 -0.09542 0.18818
 C1034 C 0.70445 -0.08817 0.18085
 C1035 C 0.71339 -0.07345 0.18974
 C1036 C 0.70588 -0.06593 0.20600
 C1037 C 0.68934 -0.07309 0.21325
 C1038 C 0.68040 -0.08781 0.20436
 C1039 C 0.71539 -0.05117 0.21546
 C1040 C 0.72347 -0.03898 0.22351
 H1041 H 0.71046 -0.09399 0.16838
 H1042 H 0.72620 -0.06805 0.18404
 H1043 H 0.68344 -0.06741 0.22584
 H1044 H 0.66770 -0.09334 0.21017
 C1045 C 0.17207 0.37600 0.17176
 C1046 C 0.17930 0.38919 0.17901
 C1047 C 0.18807 0.40476 0.18784
 C1048 C 0.20391 0.41279 0.17995
 C1049 C 0.21277 0.42756 0.18883
 C1050 C 0.20583 0.43436 0.20564
 C1051 C 0.18991 0.42642 0.21347
 C1052 C 0.18105 0.41165 0.20459
 C1053 C 0.21528 0.44916 0.21509
 C1054 C 0.22333 0.46138 0.22313
 H1055 H 0.20949 0.40754 0.16703
 H1056 H 0.22510 0.43356 0.18268
 H1057 H 0.18445 0.43154 0.22649
 H1058 H 0.16884 0.40552 0.21083
 C1059 C 0.17174 -0.12468 0.67142
 C1060 C 0.17902 -0.11151 0.67867
 C1061 C 0.18788 -0.09598 0.68749
 C1062 C 0.20468 -0.08911 0.68054
 C1063 C 0.21359 -0.07440 0.68945
 C1064 C 0.20575 -0.06650 0.70536
 C1065 C 0.18888 -0.07327 0.71224
 C1066 C 0.17996 -0.08798 0.70332
 C1067 C 0.21522 -0.05175 0.71487
 C1068 C 0.22328 -0.03957 0.72296
 H1069 H 0.21094 -0.09523 0.66833
 H1070 H 0.22665 -0.06930 0.68405
 H1071 H 0.18271 -0.06729 0.72456
 H1072 H 0.16700 -0.09322 0.70884
 C1073 C 0.32776 0.32795 0.37619
 C1074 C 0.32046 0.32075 0.38939
 C1075 C 0.31157 0.31199 0.40495
 C1076 C 0.29474 0.31893 0.41174
 C1077 C 0.28580 0.31008 0.42650
 C1078 C 0.29365 0.29426 0.43453
 C1079 C 0.31054 0.28740 0.42782
 C1080 C 0.31948 0.29625 0.41307
 C1081 C 0.28415 0.28480 0.44931
 C1082 C 0.27607 0.27675 0.46153
 H1083 H 0.28847 0.33106 0.40554
 H1084 H 0.27272 0.31547 0.43155
 H1085 H 0.31671 0.27515 0.43390
 H1086 H 0.33246 0.29074 0.40789
 C1087 C 0.32782 0.82790 -0.12414
 C1088 C 0.32056 0.82061 -0.11097
 C1089 C 0.31172 0.81176 -0.09543
 C1090 C 0.31900 0.79529 -0.08819
 C1091 C 0.31008 0.78639 -0.07345
 C1092 C 0.29384 0.79391 -0.06589
 C1093 C 0.28664 0.81044 -0.07304
 C1094 C 0.29556 0.81935 -0.08778
 C1095 C 0.28434 0.78445 -0.05111
 C1096 C 0.27626 0.77641 -0.03889
 H1097 H 0.33146 0.78928 -0.09404
 H1098 H 0.31574 0.77359 -0.06806
 H1099 H 0.27407 0.81636 -0.06732
 H1100 H 0.28979 0.83205 -0.09330
 C1101 C 0.82787 0.32853 -0.12405
 C1102 C 0.82060 0.32127 -0.11087
 C1103 C 0.81175 0.31243 -0.09532
 C1104 C 0.79488 0.31925 -0.08853
 C1105 C 0.78599 0.31032 -0.07379
 C1106 C 0.79393 0.29454 -0.06578
 C1107 C 0.81088 0.28781 -0.07248
 C1108 C 0.81977 0.29674 -0.08722
 C1109 C 0.78450 0.28502 -0.05100
 C1110 C 0.77646 0.27692 -0.03878
 H1111 H 0.78853 0.33135 -0.09472
 H1112 H 0.77287 0.31562 -0.06875
 H1113 H 0.81712 0.27559 -0.06642
 H1114 H 0.83279 0.29132 -0.09240
 C1115 C 0.82738 0.82859 0.37667
 C1116 C 0.82010 0.82137 0.38987
 C1117 C 0.81124 0.81258 0.40543
 C1118 C 0.81912 0.79675 0.41342
 C1119 C 0.81022 0.78787 0.42818
 C1120 C 0.79340 0.79478 0.43502
 C1121 C 0.78560 0.81069 0.42713
 C1122 C 0.79450 0.81957 0.41236
 C1123 C 0.78395 0.78532 0.44982
 C1124 C 0.77590 0.77725 0.46205
 H1125 H 0.83204 0.79120 0.40814
 H1126 H 0.81635 0.77555 0.43416
 H1127 H 0.77257 0.81613 0.43227
 H1128 H 0.78826 0.83177 0.40626
 C1129 C 0.67229 0.32837 0.62368
 C1130 C 0.67956 0.32106 0.61054
 C1131 C 0.68840 0.31217 0.59503
 C1132 C 0.68094 0.29584 0.58765
 C1133 C 0.68984 0.28690 0.57293
 C1134 C 0.70624 0.29425 0.56553
 C1135 C 0.71363 0.31065 0.57282
 C1136 C 0.70473 0.31959 0.58754
 C1137 C 0.71570 0.28474 0.55076
 C1138 C 0.72376 0.27666 0.53856
 H1139 H 0.66835 0.28996 0.59337
 H1140 H 0.68403 0.27420 0.56743
 H1141 H 0.72633 0.31643 0.56723
 H1142 H 0.71064 0.33218 0.59317
 C1143 C 0.67224 0.82873 1.12419
 C1144 C 0.67950 0.82152 1.11098
 C1145 C 0.68833 0.81274 1.09540
 C1146 C 0.70496 0.81989 1.08832
 C1147 C 0.71384 0.81104 1.07354
 C1148 C 0.70614 0.79500 1.06578
 C1149 C 0.68945 0.78792 1.07277
 C1150 C 0.68056 0.79678 1.08755
 C1151 C 0.71560 0.78555 1.05097
 C1152 C 0.72365 0.77752 1.03873
 H1153 H 0.71111 0.83220 1.09431
 H1154 H 0.72677 0.81660 1.06827
 H1155 H 0.68340 0.77550 1.06691
 H1156 H 0.66773 0.79111 1.09296
 C1157 C 0.17222 0.32774 1.12366
 C1158 C 0.17950 0.32047 1.11050
 C1159 C 0.18835 0.31161 1.09498
 C1160 C 0.20506 0.31863 1.08797
 C1161 C 0.21395 0.30969 1.07324
 C1162 C 0.20617 0.29370 1.06546
 C1163 C 0.18939 0.28676 1.07238
 C1164 C 0.18050 0.29570 1.08711
 C1165 C 0.21561 0.28419 1.05069
 C1166 C 0.22364 0.27610 1.03847
 H1167 H 0.21128 0.33090 1.09398
 H1168 H 0.22695 0.31515 1.06802
 H1169 H 0.18328 0.27438 1.06650
 H1170 H 0.16761 0.29013 1.09246
 C1171 C 0.17225 0.82794 0.62374
 C1172 C 0.17956 0.82066 0.61060
 C1173 C 0.18845 0.81182 0.59509
 C1174 C 0.20499 0.81907 0.58790
 C1175 C 0.21393 0.81017 0.57318
 C1176 C 0.20638 0.79398 0.56559
 C1177 C 0.18977 0.78680 0.57269
 C1178 C 0.18083 0.79570 0.58741
 C1179 C 0.21587 0.78452 0.55082
 C1180 C 0.22395 0.77647 0.53861
 H1181 H 0.21103 0.83149 0.59376
 H1182 H 0.22679 0.81581 0.56783
 H1183 H 0.18383 0.77427 0.56695
 H1184 H 0.16807 0.78995 0.59289
 C1185 C 0.32844 0.67192 0.62422
 C1186 C 0.32131 0.67916 0.61097
 C1187 C 0.31261 0.68796 0.59535
 C1188 C 0.31963 0.70470 0.58848
 C1189 C 0.31083 0.71356 0.57367
 C1190 C 0.29497 0.70570 0.56568
 C1191 C 0.28803 0.68889 0.57246
 C1192 C 0.29683 0.68003 0.58727
 C1193 C 0.28556 0.71512 0.55085
 C1194 C 0.27752 0.72313 0.53860
 H1195 H 0.33179 0.71098 0.59466
 H1196 H 0.31628 0.72658 0.56857
 H1197 H 0.27575 0.68272 0.56642
 H1198 H 0.29126 0.66712 0.59251
 C1199 C 0.32829 0.17101 1.12360
 C1200 C 0.32110 0.17830 1.11042
 C1201 C 0.31235 0.18716 1.09486
 C1202 C 0.31964 0.20368 1.08772
 C1203 C 0.31079 0.21260 1.07298
 C1204 C 0.29463 0.20504 1.06532
 C1205 C 0.28743 0.18845 1.07237
 C1206 C 0.29627 0.17952 1.08711
 C1207 C 0.28519 0.21453 1.05055
 C1208 C 0.27713 0.22259 1.03836
 H1209 H 0.33204 0.20973 1.09364
 H1210 H 0.31645 0.22545 1.06766
 H1211 H 0.27491 0.18251 1.06658
 H1212 H 0.29049 0.16678 1.09256
 C1213 C 0.82804 0.67231 1.12392
 C1214 C 0.82087 0.67962 1.11074
 C1215 C 0.81215 0.68851 1.09518
 C1216 C 0.81933 0.70515 1.08822
 C1217 C 0.81052 0.71409 1.07347
 C1218 C 0.79450 0.70643 1.06562
 C1219 C 0.78740 0.68972 1.07250
 C1220 C 0.79621 0.68078 1.08725
 C1221 C 0.78510 0.71594 1.05085
 C1222 C 0.77708 0.72402 1.03863
 H1223 H 0.83163 0.71127 1.09428
 H1224 H 0.81611 0.72703 1.06829
 H1225 H 0.77498 0.68370 1.06657
 H1226 H 0.79051 0.66794 1.09256
 C1227 C 0.82837 0.17210 0.62417
 C1228 C 0.82119 0.17934 0.61095
 C1229 C 0.81244 0.18813 0.59535
 C1230 C 0.79596 0.18086 0.58809
 C1231 C 0.78714 0.18972 0.57330
 C1232 C 0.79476 0.20588 0.56569
 C1233 C 0.81131 0.21307 0.57286
 C1234 C 0.82014 0.20421 0.58766
 C1235 C 0.78536 0.21531 0.55086
 C1236 C 0.77733 0.22331 0.53861
 H1237 H 0.78986 0.16846 0.59397
 H1238 H 0.77432 0.18407 0.56790
 H1239 H 0.81730 0.22558 0.56712
 H1240 H 0.83285 0.20998 0.59320
 C1241 C 0.67172 0.67195 0.37663
 C1242 C 0.67889 0.67919 0.38986
 C1243 C 0.68761 0.68802 0.40546
 C1244 C 0.70373 0.68043 0.41318
 C1245 C 0.71254 0.68933 0.42795
 C1246 C 0.70528 0.70586 0.43508
 C1247 C 0.68909 0.71337 0.42746
 C1248 C 0.68027 0.70447 0.41268
 C1249 C 0.71469 0.71535 0.44987
 C1250 C 0.72268 0.72345 0.46210
 H1251 H 0.70955 0.66774 0.40767
 H1252 H 0.72508 0.68343 0.43371
 H1253 H 0.68338 0.72617 0.43283
 H1254 H 0.66785 0.71048 0.40679
 C1255 C 0.67165 0.17212 -0.12413
 C1256 C 0.67887 0.17933 -0.11091
 C1257 C 0.68765 0.18811 -0.09532
 C1258 C 0.68054 0.20472 -0.08824
 C1259 C 0.68942 0.21358 -0.07347
 C1260 C 0.70546 0.20586 -0.06573
 C1261 C 0.71249 0.18918 -0.07271
 C1262 C 0.70361 0.18032 -0.08748
 C1263 C 0.71494 0.21529 -0.05094
 C1264 C 0.72301 0.22333 -0.03872
 H1265 H 0.66824 0.21089 -0.09423
 H1266 H 0.68389 0.22650 -0.06821
 H1267 H 0.72491 0.18312 -0.06686
 H1268 H 0.70926 0.16751 -0.09288
 C1269 C 0.17130 0.67180 -0.12425
 C1270 C 0.17846 0.67906 -0.11103
 C1271 C 0.18720 0.68788 -0.09544
 C1272 C 0.20268 0.67971 -0.08705
 C1273 C 0.21154 0.68858 -0.07228
 C1274 C 0.20496 0.70566 -0.06583
 C1275 C 0.18940 0.71377 -0.07413
 C1276 C 0.18054 0.70490 -0.08890
 C1277 C 0.21444 0.71508 -0.05104
 C1278 C 0.22252 0.72310 -0.03882
 H1279 H 0.20798 0.66658 -0.09203
 H1280 H 0.22359 0.68221 -0.06599
 H1281 H 0.18422 0.72699 -0.06929
 H1282 H 0.16861 0.71136 -0.09532
 C1283 C 0.17169 0.17181 0.37589
 C1284 C 0.17884 0.17906 0.38913
 C1285 C 0.18755 0.18788 0.40474
 C1286 C 0.18044 0.20454 0.41170
 C1287 C 0.18925 0.21342 0.42650
 C1288 C 0.20520 0.20568 0.43439
 C1289 C 0.21223 0.18895 0.42751
 C1290 C 0.20342 0.18007 0.41272
 C1291 C 0.21462 0.21513 0.44920
 C1292 C 0.22263 0.22318 0.46144
 H1293 H 0.16820 0.21073 0.40560
 H1294 H 0.18373 0.22638 0.43167
 H1295 H 0.22458 0.18287 0.43348
 H1296 H 0.20906 0.16721 0.40741
 C1297 C 0.32721 0.37641 0.67209
 C1298 C 0.31997 0.38957 0.67939
 C1299 C 0.31116 0.40510 0.68826
 C1300 C 0.31854 0.41239 0.70466
 C1301 C 0.30967 0.42712 0.71359
 C1302 C 0.29339 0.43463 0.70615
 C1303 C 0.28609 0.42742 0.68967
 C1304 C 0.29495 0.41269 0.68074
 C1305 C 0.28395 0.44941 0.71564
 C1306 C 0.27592 0.46162 0.72372
 H1307 H 0.33103 0.40659 0.71062
 H1308 H 0.31541 0.43256 0.72635
 H1309 H 0.27348 0.43309 0.68382
 H1310 H 0.28911 0.40712 0.66809
 C1311 C 0.32823 0.87598 0.17131
 C1312 C 0.32099 0.88916 0.17857
 C1313 C 0.31218 0.90471 0.18740
 C1314 C 0.31986 0.91240 0.20348
 C1315 C 0.31099 0.92715 0.21239
 C1316 C 0.29440 0.93426 0.20525
 C1317 C 0.28680 0.92666 0.18909
 C1318 C 0.29566 0.91192 0.18018
 C1319 C 0.28497 0.94904 0.21473
 C1320 C 0.27694 0.96126 0.22281
 H1321 H 0.33260 0.90690 0.20921
 H1322 H 0.31697 0.93289 0.22490
 H1323 H 0.27395 0.93203 0.18347
 H1324 H 0.28958 0.90604 0.16778
 C1325 C 0.82814 0.37647 0.17159
 C1326 C 0.82087 0.38962 0.17887
 C1327 C 0.81202 0.40513 0.18772
 C1328 C 0.81961 0.41272 0.20390
 C1329 C 0.81070 0.42743 0.21283
 C1330 C 0.79416 0.43460 0.20563
 C1331 C 0.78665 0.42710 0.18938
 C1332 C 0.79556 0.41240 0.18044
 C1333 C 0.78469 0.44934 0.21514
 C1334 C 0.77662 0.46152 0.22324
 H1335 H 0.83231 0.40718 0.20967
 H1336 H 0.81660 0.43310 0.22541
 H1337 H 0.77385 0.43251 0.18371
 H1338 H 0.78955 0.40660 0.16797
 C1339 C 0.82800 0.87735 0.67214
 C1340 C 0.82081 0.89055 0.67941
 C1341 C 0.81205 0.90612 0.68824
 C1342 C 0.81898 0.91295 0.70504
 C1343 C 0.81010 0.92771 0.71392
 C1344 C 0.79426 0.93569 0.70605
 C1345 C 0.78741 0.92895 0.68919
 C1346 C 0.79629 0.91420 0.68030
 C1347 C 0.78478 0.95047 0.71549
 C1348 C 0.77670 0.96269 0.72352
 H1349 H 0.83113 0.90678 0.71132
 H1350 H 0.81549 0.93278 0.72698
 H1351 H 0.77514 0.93499 0.68300
 H1352 H 0.79078 0.90899 0.66735
 C1353 C 0.67208 0.62378 0.67291
 C1354 C 0.67942 0.61062 0.68008
 C1355 C 0.68833 0.59508 0.68880
 C1356 C 0.68063 0.58716 0.70478
 C1357 C 0.68960 0.57242 0.71358
 C1358 C 0.70630 0.56554 0.70644
 C1359 C 0.71394 0.57337 0.69039
 C1360 C 0.70497 0.58811 0.68158
 C1361 C 0.71582 0.55077 0.71583
 C1362 C 0.72390 0.53856 0.72384
 H1363 H 0.66780 0.59247 0.71050
 H1364 H 0.68360 0.56650 0.72601
 H1365 H 0.72687 0.56819 0.68477
 H1366 H 0.71107 0.59416 0.66926
 C1367 C 0.67240 0.12325 0.17192
 C1368 C 0.67968 0.11008 0.17915
 C1369 C 0.68851 0.09455 0.18796
 C1370 C 0.70503 0.08735 0.18071
 C1371 C 0.71390 0.07261 0.18961
 C1372 C 0.70630 0.06502 0.20579
 C1373 C 0.68971 0.07213 0.21296
 C1374 C 0.68083 0.08687 0.20407
 C1375 C 0.71573 0.05024 0.21526
 C1376 C 0.72374 0.03803 0.22333
 H1377 H 0.71111 0.09322 0.16829
 H1378 H 0.72675 0.06725 0.18396
 H1379 H 0.68373 0.06639 0.22549
 H1380 H 0.66809 0.09236 0.20982
 C1381 C 0.17170 0.62368 0.17211
 C1382 C 0.17899 0.61050 0.17930
 C1383 C 0.18786 0.59496 0.18806
 C1384 C 0.18046 0.58749 0.20439
 C1385 C 0.18940 0.57274 0.21321
 C1386 C 0.20576 0.56541 0.20574
 C1387 C 0.21308 0.57280 0.18933
 C1388 C 0.20415 0.58754 0.18051
 C1389 C 0.21526 0.55063 0.21514
 C1390 C 0.22334 0.53842 0.22316
 H1391 H 0.16790 0.59315 0.21037
 H1392 H 0.18364 0.56717 0.22592
 H1393 H 0.22575 0.56726 0.18346
 H1394 H 0.21001 0.59325 0.16791
 C1395 C 0.17187 0.12265 0.67177
 C1396 C 0.17919 0.10948 0.67895
 C1397 C 0.18806 0.09394 0.68771
 C1398 C 0.18034 0.08610 0.70372
 C1399 C 0.18927 0.07136 0.71256
 C1400 C 0.20595 0.06441 0.70544
 C1401 C 0.21360 0.07217 0.68936
 C1402 C 0.20468 0.08690 0.68051
 C1403 C 0.21543 0.04964 0.71488
 C1404 C 0.22346 0.03743 0.72294
 H1405 H 0.16753 0.09147 0.70943
 H1406 H 0.18325 0.06550 0.72502
 H1407 H 0.22652 0.06693 0.68376
 H1408 H 0.21079 0.09289 0.66817
 C1409 C 0.32860 0.62363 0.32776
 C1410 C 0.32132 0.61045 0.32054
 C1411 C 0.31245 0.59491 0.31175
 C1412 C 0.31963 0.58773 0.29520
 C1413 C 0.31069 0.57300 0.28634
 C1414 C 0.29454 0.56538 0.29400
 C1415 C 0.28744 0.57247 0.31063
 C1416 C 0.29638 0.58720 0.31949
 C1417 C 0.28501 0.55062 0.28458
 C1418 C 0.27692 0.53841 0.27655
 H1419 H 0.33203 0.59362 0.28907
 H1420 H 0.31627 0.56765 0.27346
 H1421 H 0.27493 0.56671 0.31666
 H1422 H 0.29069 0.59268 0.33226
 C1423 C 0.32816 0.12283 0.82773
 C1424 C 0.32091 0.10962 0.82054
 C1425 C 0.31208 0.09403 0.81180
 C1426 C 0.29528 0.08719 0.81876
 C1427 C 0.28639 0.07242 0.80992
 C1428 C 0.29428 0.06442 0.79408
 C1429 C 0.31116 0.07116 0.78719
 C1430 C 0.32004 0.08594 0.79604
 C1431 C 0.28483 0.04962 0.78463
 C1432 C 0.27678 0.03740 0.77657
 H1433 H 0.28898 0.09338 0.83091
 H1434 H 0.27332 0.06734 0.81533
 H1435 H 0.31735 0.06511 0.77493
 H1436 H 0.33301 0.09115 0.79051
 C1437 C 0.82854 0.62406 0.82843
 C1438 C 0.82132 0.61081 0.82129
 C1439 C 0.81253 0.59518 0.81258
 C1440 C 0.82031 0.58732 0.79662
 C1441 C 0.81145 0.57252 0.78780
 C1442 C 0.79477 0.56551 0.79491
 C1443 C 0.78706 0.57328 0.81096
 C1444 C 0.79593 0.58808 0.81978
 C1445 C 0.78533 0.55071 0.78547
 C1446 C 0.77730 0.53849 0.77740
 H1447 H 0.83311 0.59273 0.79091
 H1448 H 0.81750 0.56665 0.77537
 H1449 H 0.77415 0.56800 0.81654
 H1450 H 0.78977 0.59409 0.83209
 C1451 C 0.82852 0.12354 0.32792
 C1452 C 0.82128 0.11033 0.32073
 C1453 C 0.81246 0.09474 0.31198
 C1454 C 0.79610 0.08736 0.31942
 C1455 C 0.78721 0.07258 0.31059
 C1456 C 0.79466 0.06511 0.29428
 C1457 C 0.81110 0.07239 0.28692
 C1458 C 0.81999 0.08718 0.29575
 C1459 C 0.78520 0.05030 0.28487
 C1460 C 0.77714 0.03806 0.27686
 H1461 H 0.79014 0.09313 0.33194
 H1462 H 0.77448 0.06708 0.31638
 H1463 H 0.81696 0.06675 0.27429
 H1464 H 0.83261 0.09281 0.28985
 C1465 C 0.67192 0.37588 0.32827
 C1466 C 0.67918 0.38909 0.32106
 C1467 C 0.68801 0.40468 0.31230
 C1468 C 0.70502 0.41126 0.31898
 C1469 C 0.71390 0.42603 0.31011
 C1470 C 0.70581 0.43429 0.29453
 C1471 C 0.68874 0.42780 0.28793
 C1472 C 0.67985 0.41302 0.29680
 C1473 C 0.71524 0.44910 0.28505
 C1474 C 0.72325 0.46133 0.27698
 H1475 H 0.71147 0.40487 0.33093
 H1476 H 0.72712 0.43091 0.31530
 H1477 H 0.68238 0.43405 0.27586
 H1478 H 0.66673 0.40801 0.29149
 C1479 C 0.67184 0.87729 0.82851
 C1480 C 0.67905 0.89050 0.82125
 C1481 C 0.68783 0.90608 0.81242
 C1482 C 0.70424 0.91345 0.81973
 C1483 C 0.71309 0.92822 0.81081
 C1484 C 0.70557 0.93568 0.79456
 C1485 C 0.68907 0.92841 0.78733
 C1486 C 0.68022 0.91364 0.79625
 C1487 C 0.71500 0.95047 0.78505
 C1488 C 0.72304 0.96268 0.77697
 H1489 H 0.71027 0.90769 0.83220
 H1490 H 0.72586 0.93371 0.81649
 H1491 H 0.68316 0.93404 0.77475
 H1492 H 0.66756 0.90802 0.79045
 C1493 C 0.17155 0.37587 0.82852
 C1494 C 0.17874 0.38914 0.82134
 C1495 C 0.18748 0.40479 0.81260
 C1496 C 0.17948 0.41286 0.79687
 C1497 C 0.18829 0.42769 0.78803
 C1498 C 0.20513 0.43451 0.79487
 C1499 C 0.21306 0.42653 0.81068
 C1500 C 0.20426 0.41170 0.81953
 C1501 C 0.21451 0.44935 0.78540
 C1502 C 0.22252 0.46161 0.77734
 H1503 H 0.16654 0.40759 0.79138
 H1504 H 0.18206 0.43372 0.77578
 H1505 H 0.22611 0.43166 0.81606
 H1506 H 0.21059 0.40553 0.83165
 C1507 C 0.17231 0.87618 0.32840
 C1508 C 0.17957 0.88934 0.32112
 C1509 C 0.18839 0.90487 0.31225
 C1510 C 0.20498 0.91202 0.31936
 C1511 C 0.21386 0.92675 0.31041
 C1512 C 0.20618 0.93438 0.29430
 C1513 C 0.18951 0.92732 0.28727
 C1514 C 0.18064 0.91259 0.29623
 C1515 C 0.21562 0.94914 0.28476
 C1516 C 0.22365 0.96133 0.27663
 H1517 H 0.21112 0.90613 0.33172
 H1518 H 0.22677 0.93207 0.31594
 H1519 H 0.18348 0.93309 0.27480
 H1520 H 0.16784 0.90714 0.29058
 C1521 C 0.37551 0.32835 0.67184
 C1522 C 0.38873 0.32110 0.67902
 C1523 C 0.40433 0.31229 0.68775
 C1524 C 0.41158 0.29586 0.68039
 C1525 C 0.42637 0.28698 0.68920
 C1526 C 0.43397 0.29449 0.70540
 C1527 C 0.42681 0.31100 0.71268
 C1528 C 0.41202 0.31988 0.70387
 C1529 C 0.44880 0.28505 0.71479
 C1530 C 0.46105 0.27702 0.72280
 H1531 H 0.40571 0.28985 0.66796
 H1532 H 0.43177 0.27420 0.68348
 H1533 H 0.43256 0.31690 0.72523
 H1534 H 0.40649 0.33255 0.70970
 C1535 C 0.37654 0.82796 0.17119
 C1536 C 0.38978 0.82079 0.17842
 C1537 C 0.40539 0.81208 0.18723
 C1538 C 0.41299 0.79587 0.17973
 C1539 C 0.42778 0.78707 0.18863
 C1540 C 0.43503 0.79445 0.20506
 C1541 C 0.42752 0.81073 0.21248
 C1542 C 0.41273 0.81953 0.20358
 C1543 C 0.44984 0.78506 0.21453
 C1544 C 0.46207 0.77705 0.22259
 H1545 H 0.40739 0.78997 0.16713
 H1546 H 0.43345 0.77446 0.18280
 H1547 H 0.43299 0.81652 0.22520
 H1548 H 0.40692 0.83203 0.20952
 C1549 C 0.87645 0.32845 0.17143
 C1550 C 0.88967 0.32123 0.17864
 C1551 C 0.90525 0.31244 0.18742
 C1552 C 0.91260 0.31979 0.20382
 C1553 C 0.92737 0.31091 0.21267
 C1554 C 0.93485 0.29465 0.20516
 C1555 C 0.92759 0.28739 0.18869
 C1556 C 0.91283 0.29626 0.17984
 C1557 C 0.94964 0.28519 0.21458
 C1558 C 0.96185 0.27711 0.22259
 H1559 H 0.90681 0.33226 0.20982
 H1560 H 0.93284 0.31662 0.22542
 H1561 H 0.93324 0.27480 0.18279
 H1562 H 0.90722 0.29044 0.16719
 C1563 C 0.87610 0.82910 0.67178
 C1564 C 0.88933 0.82185 0.67893
 C1565 C 0.90494 0.81303 0.68763
 C1566 C 0.91254 0.79691 0.67995
 C1567 C 0.92733 0.78801 0.68873
 C1568 C 0.93460 0.79519 0.70524
 C1569 C 0.92709 0.81139 0.71284
 C1570 C 0.91230 0.82029 0.70406
 C1571 C 0.94941 0.78570 0.71460
 C1572 C 0.96165 0.77760 0.72256
 H1573 H 0.90693 0.79115 0.66728
 H1574 H 0.93300 0.77546 0.68275
 H1575 H 0.93257 0.81704 0.72563
 H1576 H 0.90650 0.83273 0.71015
 C1577 C 0.62375 0.32763 0.32814
 C1578 C 0.61057 0.32039 0.32087
 C1579 C 0.59502 0.31157 0.31204
 C1580 C 0.58676 0.29598 0.32014
 C1581 C 0.57201 0.28708 0.31127
 C1582 C 0.56546 0.29372 0.29425
 C1583 C 0.57364 0.30940 0.28621
 C1584 C 0.58839 0.31830 0.29509
 C1585 C 0.55068 0.28421 0.28483
 C1586 C 0.53846 0.27612 0.27681
 H1587 H 0.59181 0.29064 0.33322
 H1588 H 0.56582 0.27494 0.31758
 H1589 H 0.56872 0.31462 0.27304
 H1590 H 0.59470 0.33032 0.28868
 C1591 C 0.62367 0.82904 0.82862
 C1592 C 0.61046 0.82178 0.82141
 C1593 C 0.59488 0.81294 0.81265
 C1594 C 0.58668 0.79733 0.82078
 C1595 C 0.57190 0.78840 0.81197
 C1596 C 0.56527 0.79505 0.79498
 C1597 C 0.57338 0.81074 0.78692
 C1598 C 0.58815 0.81967 0.79573
 C1599 C 0.55048 0.78550 0.78561
 C1600 C 0.53827 0.77738 0.77762
 H1601 H 0.59180 0.79199 0.83384
 H1602 H 0.56577 0.77625 0.81830
 H1603 H 0.56840 0.81596 0.77376
 H1604 H 0.59443 0.83170 0.78930
 C1605 C 0.12354 0.32747 0.82826
 C1606 C 0.11037 0.32021 0.82098
 C1607 C 0.09483 0.31139 0.81213
 C1608 C 0.08701 0.29538 0.81986
 C1609 C 0.07227 0.28649 0.81096
 C1610 C 0.06530 0.29356 0.79429
 C1611 C 0.07303 0.30964 0.78663
 C1612 C 0.08777 0.31853 0.79553
 C1613 C 0.05052 0.28408 0.78483
 C1614 C 0.03830 0.27602 0.77678
 H1615 H 0.09240 0.28972 0.83267
 H1616 H 0.06643 0.27404 0.81698
 H1617 H 0.06777 0.31520 0.77372
 H1618 H 0.09374 0.33087 0.78941
 C1619 C 0.12392 0.82814 0.32855
 C1620 C 0.11069 0.82094 0.32134
 C1621 C 0.09507 0.81219 0.31256
 C1622 C 0.08696 0.79645 0.32054
 C1623 C 0.07216 0.78759 0.31170
 C1624 C 0.06541 0.79444 0.29485
 C1625 C 0.07342 0.81026 0.28694
 C1626 C 0.08823 0.81911 0.29577
 C1627 C 0.05058 0.78498 0.28544
 C1628 C 0.03834 0.77693 0.27743
 H1629 H 0.09218 0.79095 0.33349
 H1630 H 0.06610 0.77535 0.31792
 H1631 H 0.06834 0.81564 0.27388
 H1632 H 0.09442 0.83124 0.28946
 C1633 C 0.62373 0.67180 0.67333
 C1634 C 0.61056 0.67902 0.68066
 C1635 C 0.59501 0.68782 0.68954
 C1636 C 0.58596 0.70262 0.68084
 C1637 C 0.57121 0.71154 0.68972
 C1638 C 0.56545 0.70569 0.70732
 C1639 C 0.57441 0.69081 0.71596
 C1640 C 0.58917 0.68190 0.70708
 C1641 C 0.55065 0.71523 0.71670
 C1642 C 0.53841 0.72336 0.72467
 H1643 H 0.59040 0.70734 0.66730
 H1644 H 0.56441 0.72306 0.68294
 H1645 H 0.57010 0.68621 0.72959
 H1646 H 0.59610 0.67050 0.71395
 C1647 C 0.62401 0.17119 0.17214
 C1648 C 0.61080 0.17836 0.17944
 C1649 C 0.59521 0.18709 0.18832
 C1650 C 0.58917 0.18089 0.20571
 C1651 C 0.57439 0.18974 0.21461
 C1652 C 0.56560 0.20483 0.20615
 C1653 C 0.57155 0.21094 0.18870
 C1654 C 0.58633 0.20209 0.17981
 C1655 C 0.55079 0.21430 0.21558
 C1656 C 0.53855 0.22238 0.22359
 H1657 H 0.59597 0.16934 0.21244
 H1658 H 0.56993 0.18493 0.22812
 H1659 H 0.56488 0.22262 0.18207
 H1660 H 0.59093 0.20702 0.16638
 C1661 C 0.12350 0.67184 0.17245
 C1662 C 0.11035 0.67910 0.17977
 C1663 C 0.09483 0.68794 0.18864
 C1664 C 0.08743 0.70427 0.18123
 C1665 C 0.07270 0.71318 0.19015
 C1666 C 0.06531 0.70579 0.20653
 C1667 C 0.07262 0.68939 0.21386
 C1668 C 0.08735 0.68048 0.20494
 C1669 C 0.05054 0.71526 0.21601
 C1670 C 0.03832 0.72334 0.22406
 H1671 H 0.09314 0.71019 0.16866
 H1672 H 0.06719 0.72588 0.18438
 H1673 H 0.06703 0.68358 0.22654
 H1674 H 0.09299 0.66788 0.21081
 C1675 C 0.12350 0.17063 0.67219
 C1676 C 0.11032 0.17783 0.67951
 C1677 C 0.09477 0.18664 0.68838
 C1678 C 0.08623 0.20194 0.68005
 C1679 C 0.07149 0.21086 0.68894
 C1680 C 0.06523 0.20452 0.70620
 C1681 C 0.07367 0.18913 0.71446
 C1682 C 0.08841 0.18021 0.70557
 C1683 C 0.05045 0.21405 0.71561
 C1684 C 0.03824 0.22219 0.72361
 H1685 H 0.09107 0.20706 0.66678
 H1686 H 0.06510 0.22278 0.68245
 H1687 H 0.06897 0.18414 0.72782
 H1688 H 0.09494 0.16842 0.71215
 C1689 C 0.37681 0.67185 0.32753
 C1690 C 0.38998 0.67912 0.32022
 C1691 C 0.40551 0.68798 0.31135
 C1692 C 0.41278 0.68070 0.29488
 C1693 C 0.42752 0.68962 0.28596
 C1694 C 0.43505 0.70586 0.29348
 C1695 C 0.42787 0.71306 0.31003
 C1696 C 0.41313 0.70414 0.31894
 C1697 C 0.44983 0.71535 0.28401
 C1698 C 0.46205 0.72345 0.27597
 H1699 H 0.40697 0.66824 0.28887
 H1700 H 0.43294 0.68396 0.27315
 H1701 H 0.43355 0.72563 0.31594
 H1702 H 0.40758 0.70991 0.33165
 C1703 C 0.37621 0.17121 0.82742
 C1704 C 0.38936 0.17853 0.82011
 C1705 C 0.40486 0.18743 0.81124
 C1706 C 0.41361 0.20251 0.81977
 C1707 C 0.42832 0.21151 0.81089
 C1708 C 0.43434 0.20547 0.79344
 C1709 C 0.42567 0.19031 0.78497
 C1710 C 0.41096 0.18130 0.79385
 C1711 C 0.44909 0.21509 0.78404
 C1712 C 0.46128 0.22327 0.77604
 H1713 H 0.40897 0.20739 0.83319
 H1714 H 0.43489 0.22325 0.81754
 H1715 H 0.43018 0.18555 0.77145
 H1716 H 0.40426 0.16969 0.78711
 C1717 C 0.87657 0.67245 0.82782
 C1718 C 0.88971 0.67969 0.82044
 C1719 C 0.90520 0.68849 0.81145
 C1720 C 0.91398 0.70365 0.81981
 C1721 C 0.92869 0.71254 0.81081
 C1722 C 0.93468 0.70630 0.79342
 C1723 C 0.92599 0.69106 0.78513
 C1724 C 0.91128 0.68217 0.79413
 C1725 C 0.94944 0.71579 0.78391
 C1726 C 0.96164 0.72386 0.77582
 H1727 H 0.90936 0.70868 0.83318
 H1728 H 0.93528 0.72435 0.81733
 H1729 H 0.93048 0.68614 0.77167
 H1730 H 0.90457 0.67048 0.78752
 C1731 C 0.87662 0.17187 0.32760
 C1732 C 0.88978 0.17914 0.32028
 C1733 C 0.90530 0.18800 0.31139
 C1734 C 0.91271 0.18057 0.29505
 C1735 C 0.92744 0.18949 0.28611
 C1736 C 0.93481 0.20586 0.29347
 C1737 C 0.92748 0.21322 0.30988
 C1738 C 0.91275 0.20430 0.31883
 C1739 C 0.94958 0.21534 0.28397
 C1740 C 0.96180 0.22341 0.27589
 H1741 H 0.90702 0.16799 0.28916
 H1742 H 0.93297 0.18370 0.27340
 H1743 H 0.93304 0.22590 0.31567
 H1744 H 0.90709 0.21019 0.33143
 C1745 C 0.32718 0.32830 0.62384
 C1746 C 0.31992 0.32104 0.61066
 C1747 C 0.31112 0.31219 0.59513
 C1748 C 0.29461 0.31940 0.58790
 C1749 C 0.28575 0.31047 0.57316
 C1750 C 0.29336 0.29430 0.56559
 C1751 C 0.30994 0.28717 0.57273
 C1752 C 0.31880 0.29609 0.58747
 C1753 C 0.28394 0.28480 0.55081
 C1754 C 0.27592 0.27672 0.53859
 H1755 H 0.28853 0.33181 0.59374
 H1756 H 0.27291 0.31608 0.56777
 H1757 H 0.31592 0.27465 0.56702
 H1758 H 0.33153 0.29038 0.59299
 C1759 C 0.32814 0.82773 0.12322
 C1760 C 0.32083 0.82046 0.11008
 C1761 C 0.31192 0.81165 0.09457
 C1762 C 0.29546 0.81899 0.08736
 C1763 C 0.28650 0.81011 0.07265
 C1764 C 0.29396 0.79387 0.06510
 C1765 C 0.31049 0.78661 0.07222
 C1766 C 0.31946 0.79548 0.08693
 C1767 C 0.28443 0.78442 0.05035
 C1768 C 0.27632 0.77639 0.03816
 H1769 H 0.28949 0.83146 0.09320
 H1770 H 0.27370 0.81582 0.06728
 H1771 H 0.31636 0.77403 0.06651
 H1772 H 0.33215 0.78967 0.09243
 C1773 C 0.82814 0.32831 0.12339
 C1774 C 0.82086 0.32105 0.11023
 C1775 C 0.81201 0.31222 0.09471
 C1776 C 0.81984 0.29633 0.08678
 C1777 C 0.81093 0.28741 0.07207
 C1778 C 0.79415 0.29435 0.06521
 C1779 C 0.78639 0.31032 0.07305
 C1780 C 0.79530 0.31923 0.08777
 C1781 C 0.78469 0.28486 0.05046
 C1782 C 0.77662 0.27679 0.03826
 H1783 H 0.83274 0.29076 0.09208
 H1784 H 0.81704 0.27505 0.06614
 H1785 H 0.77339 0.31578 0.06789
 H1786 H 0.78909 0.33148 0.09382
 C1787 C 0.82740 0.82905 0.62410
 C1788 C 0.81995 0.82180 0.61104
 C1789 C 0.81084 0.81301 0.59563
 C1790 C 0.79150 0.81384 0.59406
 C1791 C 0.78256 0.80492 0.57938
 C1792 C 0.79292 0.79513 0.56619
 C1793 C 0.81228 0.79439 0.56769
 C1794 C 0.82122 0.80332 0.58238
 C1795 C 0.78363 0.78555 0.55138
 C1796 C 0.77569 0.77741 0.53915
 H1797 H 0.78334 0.82127 0.60425
 H1798 H 0.76759 0.80555 0.57838
 H1799 H 0.82042 0.78683 0.55759
 H1800 H 0.83618 0.80256 0.58349
 C1801 C 0.32877 0.67178 0.37596
 C1802 C 0.32154 0.67901 0.38918
 C1803 C 0.31275 0.68780 0.40477
 C1804 C 0.29623 0.68056 0.41201
 C1805 C 0.28737 0.68943 0.42679
 C1806 C 0.29499 0.70557 0.43441
 C1807 C 0.31158 0.71274 0.42726
 C1808 C 0.32045 0.70387 0.41248
 C1809 C 0.28556 0.71503 0.44923
 C1810 C 0.27751 0.72307 0.46147
 H1811 H 0.29013 0.66817 0.40612
 H1812 H 0.27452 0.68380 0.43218
 H1813 H 0.31757 0.72524 0.43302
 H1814 H 0.33319 0.70961 0.40696
 C1815 C 0.32816 0.17109 0.87583
 C1816 C 0.32092 0.17833 0.88904
 C1817 C 0.31212 0.18714 0.90461
 C1818 C 0.31984 0.20321 0.91231
 C1819 C 0.31098 0.21210 0.92709
 C1820 C 0.29437 0.20496 0.93423
 C1821 C 0.28673 0.18882 0.92662
 C1822 C 0.29559 0.17993 0.91184
 C1823 C 0.28495 0.21443 0.94904
 C1824 C 0.27693 0.22249 0.96128
 H1825 H 0.33259 0.20893 0.90680
 H1826 H 0.31698 0.22459 0.93284
 H1827 H 0.27387 0.18321 0.93200
 H1828 H 0.28948 0.16755 0.90596
 C1829 C 0.82854 0.67256 0.87628
 C1830 C 0.82131 0.67986 0.88946
 C1831 C 0.81249 0.68872 0.90500
 C1832 C 0.79655 0.68092 0.91293
 C1833 C 0.78766 0.68983 0.92767
 C1834 C 0.79467 0.70657 0.93455
 C1835 C 0.81069 0.71430 0.92672
 C1836 C 0.81958 0.70539 0.91197
 C1837 C 0.78519 0.71603 0.94934
 C1838 C 0.77713 0.72408 0.96156
 H1839 H 0.79093 0.66806 0.90762
 H1840 H 0.77525 0.68376 0.93360
 H1841 H 0.81620 0.72726 0.93190
 H1842 H 0.83187 0.71156 0.90592
 C1843 C 0.82858 0.17178 0.37604
 C1844 C 0.82136 0.17902 0.38925
 C1845 C 0.81256 0.18783 0.40484
 C1846 C 0.82005 0.20412 0.41228
 C1847 C 0.81118 0.21300 0.42706
 C1848 C 0.79479 0.20563 0.43445
 C1849 C 0.78738 0.18927 0.42709
 C1850 C 0.79625 0.18039 0.41232
 C1851 C 0.78534 0.21508 0.44925
 C1852 C 0.77729 0.22313 0.46149
 H1853 H 0.83264 0.21002 0.40657
 H1854 H 0.81701 0.22567 0.43260
 H1855 H 0.77468 0.18348 0.43267
 H1856 H 0.79031 0.16783 0.40664
 C1857 C 0.67193 0.32761 0.37634
 C1858 C 0.67920 0.32037 0.38951
 C1859 C 0.68806 0.31159 0.40504
 C1860 C 0.70411 0.31934 0.41275
 C1861 C 0.71306 0.31050 0.42747
 C1862 C 0.70599 0.29386 0.43456
 C1863 C 0.68987 0.28617 0.42694
 C1864 C 0.68092 0.29502 0.41221
 C1865 C 0.71552 0.28445 0.44932
 C1866 C 0.72363 0.27645 0.46152
 H1867 H 0.70978 0.33212 0.40728
 H1868 H 0.72554 0.31654 0.43323
 H1869 H 0.68431 0.27329 0.43228
 H1870 H 0.66855 0.28888 0.40633
 C1871 C 0.67204 0.82903 0.87660
 C1872 C 0.67932 0.82176 0.88974
 C1873 C 0.68817 0.81291 0.90525
 C1874 C 0.68126 0.79611 0.91209
 C1875 C 0.69019 0.78722 0.92680
 C1876 C 0.70606 0.79509 0.93473
 C1877 C 0.71290 0.81197 0.92799
 C1878 C 0.70397 0.82086 0.91328
 C1879 C 0.71557 0.78565 0.94948
 C1880 C 0.72365 0.77760 0.96167
 H1881 H 0.66909 0.78982 0.90595
 H1882 H 0.68482 0.77415 0.93187
 H1883 H 0.72519 0.81816 0.93399
 H1884 H 0.70945 0.83383 0.90807
 C1885 C 0.17177 0.32740 0.87639
 C1886 C 0.17906 0.32011 0.88953
 C1887 C 0.18792 0.31127 0.90503
 C1888 C 0.20404 0.31894 0.91268
 C1889 C 0.21298 0.31005 0.92739
 C1890 C 0.20583 0.29345 0.93450
 C1891 C 0.18964 0.28586 0.92693
 C1892 C 0.18071 0.29475 0.91223
 C1893 C 0.21535 0.28401 0.94924
 C1894 C 0.22344 0.27597 0.96143
 H1895 H 0.20976 0.33169 0.90719
 H1896 H 0.22551 0.31602 0.93310
 H1897 H 0.18403 0.27301 0.93229
 H1898 H 0.16828 0.28868 0.90638
 C1899 C 0.17230 0.82794 0.37653
 C1900 C 0.17958 0.82065 0.38967
 C1901 C 0.18842 0.81178 0.40517
 C1902 C 0.18152 0.79495 0.41196
 C1903 C 0.19045 0.78604 0.42667
 C1904 C 0.20630 0.79393 0.43464
 C1905 C 0.21311 0.81083 0.42794
 C1906 C 0.20419 0.81974 0.41324
 C1907 C 0.21581 0.78447 0.44938
 C1908 C 0.22390 0.77643 0.46157
 H1909 H 0.16936 0.78866 0.40580
 H1910 H 0.18509 0.77296 0.43171
 H1911 H 0.22538 0.81703 0.43398
 H1912 H 0.20966 0.83273 0.40806
 C1913 C 0.67163 0.67199 0.62477
 C1914 C 0.67878 0.67927 0.61153
 C1915 C 0.68748 0.68814 0.59592
 C1916 C 0.68044 0.70489 0.58911
 C1917 C 0.68924 0.71381 0.57431
 C1918 C 0.70511 0.70602 0.56626
 C1919 C 0.71206 0.68920 0.57297
 C1920 C 0.70326 0.68028 0.58777
 C1921 C 0.71451 0.71551 0.55143
 C1922 C 0.72252 0.72359 0.53919
 H1923 H 0.66828 0.71111 0.59534
 H1924 H 0.68378 0.72684 0.56926
 H1925 H 0.72434 0.68308 0.56688
 H1926 H 0.70884 0.66735 0.59296
 C1927 C 0.67214 0.17148 0.12379
 C1928 C 0.67933 0.17878 0.11059
 C1929 C 0.68807 0.18767 0.09502
 C1930 C 0.68080 0.20420 0.08794
 C1931 C 0.68962 0.21315 0.07316
 C1932 C 0.70575 0.20560 0.06541
 C1933 C 0.71294 0.18899 0.07240
 C1934 C 0.70412 0.18005 0.08717
 C1935 C 0.71516 0.21511 0.05060
 C1936 C 0.72317 0.22320 0.03837
 H1937 H 0.66842 0.21024 0.09393
 H1938 H 0.68397 0.22601 0.06790
 H1939 H 0.72544 0.18305 0.06654
 H1940 H 0.70989 0.16729 0.09257
 C1941 C 0.17143 0.67183 0.12391
 C1942 C 0.17862 0.67907 0.11067
 C1943 C 0.18737 0.68788 0.09505
 C1944 C 0.20325 0.68003 0.08707
 C1945 C 0.21209 0.68890 0.07226
 C1946 C 0.20510 0.70563 0.06538
 C1947 C 0.18915 0.71340 0.07328
 C1948 C 0.18030 0.70454 0.08809
 C1949 C 0.21455 0.71506 0.05055
 C1950 C 0.22260 0.72308 0.03829
 H1951 H 0.20886 0.66718 0.09238
 H1952 H 0.22445 0.68279 0.06629
 H1953 H 0.18365 0.72636 0.06810
 H1954 H 0.16806 0.71075 0.09419
 C1955 C 0.17151 0.17099 0.62375
 C1956 C 0.17868 0.17834 0.61056
 C1957 C 0.18740 0.18729 0.59501
 C1958 C 0.20334 0.17960 0.58700
 C1959 C 0.21216 0.18861 0.57226
 C1960 C 0.20508 0.20534 0.56547
 C1961 C 0.18906 0.21296 0.57339
 C1962 C 0.18024 0.20395 0.58812
 C1963 C 0.21449 0.21491 0.55071
 C1964 C 0.22253 0.22304 0.53852
 H1965 H 0.20902 0.16675 0.59225
 H1966 H 0.22457 0.18262 0.56628
 H1967 H 0.18349 0.22592 0.56828
 H1968 H 0.16795 0.21005 0.59425
   
