data_POSCAR
  _audit_creation_date              2014-09-24
  _audit_creation_method            'ToBaCCo'
  _symmetry_space_group_name_H-M    'P1'
  _symmetry_Int_Tables_number       1
  _symmetry_cell_setting            triclinic
  loop_
  _symmetry_equiv_pos_as_xyz
 x,y,z
_cell_length_a 50.4697
_cell_length_b 50.5829
_cell_length_c 50.5181
_cell_angle_alpha 90.002900
_cell_angle_beta 90.026800
_cell_angle_gamma 90.055800
loop_
  _atom_site_label
  _atom_site_type_symbol
  _atom_site_fract_x
  _atom_site_fract_y
  _atom_site_fract_z
C1 C 0.23143 1.07947 -0.01356
 C2 C 0.23149 1.07975 0.01357
 C3 C 0.24274 1.05606 0.02170
 N4 N 0.24908 1.04114 0.00041
 C5 C 0.24225 1.05550 -0.02110
 C6 C 0.24796 1.04878 0.04830
 C7 C 0.25326 1.02209 0.05521
 C8 C 0.26559 1.01385 0.07837
 C9 C 0.26546 0.98669 0.07816
 C10 C 0.25345 0.97906 0.05471
 N11 N 0.24623 1.00068 0.04073
 C12 C 0.24771 0.95270 0.04761
 C13 C 0.24252 0.94514 0.02126
 C14 C 0.23187 0.92108 0.01365
 C15 C 0.23206 0.92081 -0.01348
 C16 C 0.24321 0.94459 -0.02153
 N17 N 0.24936 0.95956 -0.00021
 C18 C 0.24849 0.95193 -0.04810
 C19 C 0.25370 0.97865 -0.05495
 C20 C 0.26612 0.98699 -0.07803
 C21 C 0.26580 1.01415 -0.07782
 C22 C 0.25360 1.02168 -0.05446
 N23 N 0.24645 0.99999 -0.04052
 C24 C 0.24759 1.04797 -0.04741
 H25 H 0.22419 1.09510 -0.02628
 H26 H 0.22401 1.09558 0.02588
 H27 H 0.23467 0.99986 -0.02359
 H28 H 0.27384 1.02611 0.09388
 H29 H 0.27330 0.97399 0.09352
 H30 H 0.22466 0.90540 0.02633
 H31 H 0.22472 0.90493 -0.02583
 H32 H 0.27363 1.02692 -0.09314
 H33 H 0.23457 1.00071 0.02370
 H34 H 0.27453 0.97480 -0.09349
 C35 C 0.76290 0.48496 0.58044
 C36 C 0.76328 0.51208 0.58105
 C37 C 0.75484 0.52056 0.55636
 N38 N 0.74932 0.49959 0.54072
 C39 C 0.75430 0.47782 0.55538
 C40 C 0.75069 0.54720 0.54913
 C41 C 0.74546 0.55512 0.52280
 C42 C 0.73531 0.57953 0.51553
 C43 C 0.73485 0.58009 0.48832
 C44 C 0.74480 0.55603 0.47971
 N45 N 0.75121 0.54092 0.50085
 C46 C 0.74934 0.54929 0.45292
 C47 C 0.75410 0.52311 0.44447
 C48 C 0.76267 0.51599 0.41940
 C49 C 0.76310 0.48887 0.41880
 C50 C 0.75472 0.48037 0.44350
 N51 N 0.74919 0.50132 0.45914
 C52 C 0.75063 0.45372 0.45075
 C53 C 0.74543 0.44581 0.47708
 C54 C 0.73528 0.42138 0.48436
 C55 C 0.73492 0.42082 0.51157
 C56 C 0.74491 0.44490 0.52016
 N57 N 0.75125 0.46002 0.49900
 C58 C 0.74957 0.45163 0.54692
 H59 H 0.76827 0.47201 0.59662
 H60 H 0.76898 0.52414 0.59781
 H61 H 0.76185 0.47765 0.49949
 H62 H 0.72903 0.59537 0.52849
 H63 H 0.72817 0.59647 0.47625
 H64 H 0.76800 0.52895 0.40321
 H65 H 0.76880 0.47683 0.40204
 H66 H 0.72828 0.40443 0.52365
 H67 H 0.76179 0.52330 0.50035
 H68 H 0.72896 0.40553 0.47142
 C69 C 0.73515 0.92137 0.98572
 C70 C 0.73486 0.92096 1.01285
 C71 C 0.74607 0.94459 1.02124
 N72 N 0.75267 0.95964 1.00011
 C73 C 0.74606 0.94541 0.97844
 C74 C 0.75095 0.95178 1.04793
 C75 C 0.75675 0.97835 1.05491
 C76 C 0.76925 0.98630 1.07809
 C77 C 0.76955 1.01346 1.07799
 C78 C 0.75757 1.02136 1.05462
 N79 N 0.75001 0.99990 1.04054
 C80 C 0.75195 1.04781 1.04780
 C81 C 0.74632 1.05559 1.02161
 C82 C 0.73539 1.07962 1.01442
 C83 C 0.73489 1.08004 0.98730
 C84 C 0.74598 1.05641 0.97881
 N85 N 0.75272 1.04136 0.99989
 C86 C 0.75064 1.04925 0.95207
 C87 C 0.75624 1.02266 0.94500
 C88 C 0.76849 1.01470 0.92171
 C89 C 0.76876 0.98754 0.92180
 C90 C 0.75702 0.97962 0.94528
 N91 N 0.74962 1.00109 0.95943
 C92 C 0.75154 0.95315 0.95221
 H93 H 0.72801 0.90583 0.97282
 H94 H 0.72714 0.90508 1.02495
 H95 H 0.73807 1.00091 0.97651
 H96 H 0.77728 0.97384 1.09354
 H97 H 0.77756 1.02598 1.09343
 H98 H 0.72838 1.09515 1.02738
 H99 H 0.72710 1.09593 0.97525
 H100 H 0.77662 0.97503 0.90630
 H101 H 0.73824 1.00007 1.02359
 H102 H 0.77639 1.02716 0.90618
 C103 C 0.23724 0.41974 0.48564
 C104 C 0.23689 0.41951 0.51280
 C105 C 0.24532 0.44429 0.52096
 N106 N 0.25082 0.45962 0.49975
 C107 C 0.24583 0.44467 0.47814
 C108 C 0.24949 0.45190 0.54753
 C109 C 0.25468 0.47831 0.55509
 C110 C 0.26484 0.48593 0.57943
 C111 C 0.26522 0.51312 0.57963
 C112 C 0.25523 0.52135 0.55542
 N113 N 0.24887 0.50001 0.54057
 C114 C 0.25058 0.54799 0.54832
 C115 C 0.24592 0.55608 0.52198
 C116 C 0.23737 0.58101 0.51446
 C117 C 0.23703 0.58123 0.48730
 C118 C 0.24543 0.55645 0.47916
 N119 N 0.25089 0.54113 0.50038
 C120 C 0.24960 0.54883 0.45260
 C121 C 0.25480 0.52243 0.44507
 C122 C 0.26502 0.51481 0.42077
 C123 C 0.26534 0.48764 0.42057
 C124 C 0.25526 0.47940 0.44475
 N125 N 0.24891 0.50074 0.45958
 C126 C 0.25051 0.45277 0.45181
 H127 H 0.23187 0.40339 0.47289
 H128 H 0.23120 0.40294 0.52511
 H129 H 0.23825 0.50050 0.47719
 H130 H 0.27117 0.47324 0.59547
 H131 H 0.27187 0.52541 0.59587
 H132 H 0.23202 0.59736 0.52720
 H133 H 0.23137 0.59780 0.47498
 H134 H 0.27200 0.47534 0.40436
 H135 H 0.23827 0.50025 0.52291
 H136 H 0.27141 0.52751 0.40475
 C137 C 1.08052 0.22489 -0.01541
 C138 C 1.08092 0.22504 0.01165
 C139 C 1.05641 0.23420 0.01989
 N140 N 1.04054 0.23806 -0.00138
 C141 C 1.05531 0.23277 -0.02311
 C142 C 1.04834 0.23732 0.04666
 C143 C 1.02161 0.23121 0.05259
 C144 C 1.01316 0.21374 0.07199
 C145 C 0.98600 0.21504 0.07251
 C146 C 0.97860 0.23208 0.05239
 N147 N 1.00036 0.24141 0.03982
 C148 C 0.95222 0.23930 0.04698
 C149 C 0.94349 0.24660 0.02149
 C150 C 0.91741 0.25161 0.01476
 C151 C 0.91670 0.25372 -0.01223
 C152 C 0.94261 0.25100 -0.02122
 N153 N 0.95884 0.24653 -0.00042
 C154 C 0.95066 0.25101 -0.04820
 C155 C 0.97767 0.24923 -0.05642
 C156 C 0.98617 0.25475 -0.08196
 C157 C 1.01301 0.25122 -0.08243
 C158 C 1.02078 0.24424 -0.05698
 N159 N 0.99896 0.24272 -0.04130
 C160 C 1.04729 0.23774 -0.04964
 H161 H 1.09719 0.21965 -0.02773
 H162 H 1.09732 0.21852 0.02379
 H163 H 0.99846 0.23556 -0.02208
 H164 H 1.02530 0.20118 0.08438
 H165 H 0.97309 0.20417 0.08571
 H166 H 0.90037 0.25243 0.02771
 H167 H 0.89878 0.25620 -0.02365
 H168 H 1.02517 0.25327 -0.09992
 H169 H 1.00084 0.25602 0.02524
 H170 H 0.97430 0.26090 -0.09870
 C171 C 0.48695 0.75903 0.58291
 C172 C 0.51411 0.75934 0.58269
 C173 C 0.52183 0.75317 0.55710
 N174 N 0.50028 0.74920 0.54170
 C175 C 0.47891 0.75301 0.55736
 C176 C 0.54837 0.74986 0.54879
 C177 C 0.55586 0.74596 0.52209
 C178 C 0.58078 0.73775 0.51398
 C179 C 0.58069 0.73795 0.48680
 C180 C 0.55562 0.74602 0.47893
 N181 N 0.54070 0.75109 0.50060
 C182 C 0.54781 0.75026 0.45235
 C183 C 0.52121 0.75399 0.44442
 C184 C 0.51318 0.76041 0.41896
 C185 C 0.48602 0.76065 0.41919
 C186 C 0.47830 0.75405 0.44468
 N187 N 0.49984 0.74987 0.46001
 C188 C 0.45176 0.75051 0.45291
 C189 C 0.44425 0.74620 0.47955
 C190 C 0.41932 0.73784 0.48752
 C191 C 0.41941 0.73760 0.51471
 C192 C 0.44449 0.74557 0.52271
 N193 N 0.45941 0.75100 0.50112
 C194 C 0.45231 0.74937 0.54937
 H195 H 0.47462 0.76260 0.60005
 H196 H 0.52670 0.76339 0.59956
 H197 H 0.47771 0.76037 0.50113
 H198 H 0.59745 0.73242 0.52636
 H199 H 0.59740 0.73300 0.47435
 H200 H 0.52551 0.76428 0.40189
 H201 H 0.47344 0.76494 0.40238
 H202 H 0.40271 0.73242 0.52708
 H203 H 0.52242 0.76045 0.50075
 H204 H 0.40265 0.73269 0.47506
 C205 C -0.01495 0.73650 -0.07954
 C206 C 0.01215 0.73602 -0.07982
 C207 C 0.02054 0.74592 -0.05563
 N208 N -0.00066 0.75177 -0.04033
 C209 C -0.02246 0.74585 -0.05481
 C210 C 0.04736 0.75042 -0.04838
 C211 C 0.05479 0.75585 -0.02181
 C212 C 0.07873 0.76704 -0.01409
 C213 C 0.07900 0.76731 0.01307
 C214 C 0.05497 0.75690 0.02130
 N215 N 0.04030 0.74998 -0.00005
 C216 C 0.04807 0.75183 0.04789
 C217 C 0.02179 0.74706 0.05603
 C218 C 0.01445 0.73785 0.08077
 C219 C -0.01267 0.73760 0.08117
 C220 C -0.02108 0.74742 0.05691
 N221 N 0.00009 0.75302 0.04150
 C222 C -0.04784 0.75188 0.04956
 C223 C -0.05514 0.75733 0.02293
 C224 C -0.07898 0.76857 0.01522
 C225 C -0.07935 0.76854 -0.01192
 C226 C -0.05537 0.75798 -0.02031
 N227 N -0.04075 0.75121 0.00116
 C228 C -0.04879 0.75170 -0.04692
 H229 H -0.02743 0.73092 -0.09600
 H230 H 0.02423 0.72931 -0.09618
 H231 H -0.02350 0.73995 0.00096
 H232 H 0.09454 0.77412 -0.02670
 H233 H 0.09520 0.77423 0.02527
 H234 H 0.02722 0.73186 0.09689
 H235 H -0.02475 0.73090 0.09754
 H236 H -0.09591 0.77500 -0.02382
 H237 H 0.02283 0.73904 0.00031
 H238 H -0.09478 0.77567 0.02781
 C239 C 0.48515 0.24150 0.41737
 C240 C 0.51232 0.24148 0.41731
 C241 C 0.52026 0.24800 0.44275
 N242 N 0.49886 0.25187 0.45835
 C243 C 0.47735 0.24767 0.44296
 C244 C 0.54682 0.25187 0.45077
 C245 C 0.55431 0.25614 0.47741
 C246 C 0.57870 0.26599 0.48539
 C247 C 0.57883 0.26564 0.51260
 C248 C 0.55454 0.25553 0.52051
 N249 N 0.53971 0.24978 0.49894
 C250 C 0.54734 0.25036 0.54707
 C251 C 0.52094 0.24558 0.55503
 C252 C 0.51338 0.23686 0.57991
 C253 C 0.48621 0.23642 0.58006
 C254 C 0.47808 0.24488 0.55525
 N255 N 0.49935 0.25053 0.54001
 C256 C 0.45144 0.24876 0.54759
 C257 C 0.44364 0.25371 0.52114
 C258 C 0.41869 0.26232 0.51356
 C259 C 0.41844 0.26286 0.48636
 C260 C 0.44336 0.25486 0.47799
 N261 N 0.45852 0.24913 0.49934
 C262 C 0.45082 0.25117 0.45123
 H263 H 0.47265 0.23766 0.40040
 H264 H 0.52475 0.23744 0.40034
 H265 H 0.47677 0.23969 0.49901
 H266 H 0.59480 0.27263 0.47290
 H267 H 0.59506 0.27194 0.52511
 H268 H 0.52609 0.23144 0.59629
 H269 H 0.47386 0.23060 0.59657
 H270 H 0.40162 0.26823 0.47424
 H271 H 0.52204 0.23923 0.49886
 H272 H 0.40220 0.26735 0.52628
 C273 C 1.08226 -0.01181 0.26202
 C274 C 1.08212 0.01525 0.26186
 C275 C 1.05698 0.02302 0.25383
 N276 N 1.04210 0.00138 0.24834
 C277 C 1.05754 -0.01995 0.25322
 C278 C 1.04891 0.04951 0.24903
 C279 C 1.02210 0.05636 0.24377
 C280 C 1.01327 0.08093 0.23508
 C281 C 0.98609 0.08041 0.23578
 C282 C 0.97885 0.05580 0.24536
 N283 N 1.00085 0.04127 0.25012
 C284 C 0.95258 0.04822 0.25150
 C285 C 0.94520 0.02187 0.25687
 C286 C 0.92072 0.01398 0.26651
 C287 C 0.92100 -0.01313 0.26704
 C288 C 0.94561 -0.02082 0.25768
 N289 N 0.96036 0.00057 0.25146
 C290 C 0.95342 -0.04711 0.25285
 C291 C 0.97980 -0.05401 0.24665
 C292 C 0.98725 -0.07749 0.23471
 C293 C 1.01442 -0.07729 0.23340
 C294 C 1.02290 -0.05383 0.24496
 N295 N 1.00159 -0.03959 0.25274
 C296 C 1.04983 -0.04664 0.24894
 H297 H 1.09885 -0.02401 0.26785
 H298 H 1.09891 0.02756 0.26682
 H299 H 1.00200 -0.02246 0.26416
 H300 H 1.02491 0.09802 0.22965
 H301 H 0.97317 0.09668 0.23062
 H302 H 0.90432 0.02645 0.27235
 H303 H 0.90483 -0.02572 0.27332
 H304 H 1.02655 -0.09273 0.22487
 H305 H 1.00143 0.02352 0.26046
 H306 H 0.97444 -0.09312 0.22758
 C307 C 0.48695 0.58140 0.74028
 C308 C 0.51412 0.58134 0.74024
 C309 C 0.52193 0.55577 0.74629
 N310 N 0.50043 0.54037 0.75049
 C311 C 0.47903 0.55596 0.74674
 C312 C 0.54846 0.54752 0.74976
 C313 C 0.55596 0.52077 0.75323
 C314 C 0.58092 0.51238 0.76109
 C315 C 0.58067 0.48523 0.76040
 C316 C 0.55567 0.47769 0.75187
 N317 N 0.54077 0.49947 0.74744
 C318 C 0.54781 0.45128 0.74691
 C319 C 0.52112 0.44362 0.74329
 C320 C 0.51289 0.41881 0.73501
 C321 C 0.48573 0.41894 0.73576
 C322 C 0.47827 0.44383 0.74446
 N323 N 0.49993 0.45886 0.74911
 C324 C 0.45194 0.45178 0.74952
 C325 C 0.44478 0.47832 0.75462
 C326 C 0.42058 0.48625 0.76491
 C327 C 0.42071 0.51342 0.76516
 C328 C 0.44500 0.52137 0.75509
 N329 N 0.45955 0.49985 0.74867
 C330 C 0.45249 0.54796 0.75075
 H331 H 0.47451 0.59836 0.73634
 H332 H 0.52660 0.59832 0.73643
 H333 H 0.47714 0.49991 0.73798
 H334 H 0.59777 0.52447 0.76647
 H335 H 0.59719 0.47251 0.76533
 H336 H 0.52517 0.40229 0.72914
 H337 H 0.47294 0.40255 0.73057
 H338 H 0.40467 0.52592 0.77190
 H339 H 0.52245 0.49983 0.73809
 H340 H 0.40442 0.47377 0.77140
 C341 C 0.92030 0.98665 0.76643
 C342 C 0.92035 1.01377 0.76571
 C343 C 0.94500 1.02130 0.75622
 N344 N 0.95995 0.99979 0.75108
 C345 C 0.94490 0.97860 0.75731
 C346 C 0.95274 1.04755 0.75077
 C347 C 0.97917 1.05477 0.74487
 C348 C 0.98682 1.07923 0.73521
 C349 C 1.01401 1.07940 0.73475
 C350 C 1.02243 1.05478 0.74366
 N351 N 1.00094 1.03999 0.74992
 C352 C 1.04911 1.04758 0.74912
 C353 C 1.05678 1.02101 0.75405
 C354 C 1.08176 1.01292 0.76224
 C355 C 1.08157 0.98587 0.76232
 C356 C 1.05680 0.97806 0.75335
 N357 N 1.04165 0.99958 0.74844
 C358 C 1.04885 0.95150 0.74884
 C359 C 1.02185 0.94459 0.74491
 C360 C 1.01308 0.92123 0.73335
 C361 C 0.98592 0.92136 0.73466
 C362 C 0.97874 0.94495 0.74657
 N363 N 1.00070 0.95909 0.75268
 C364 C 0.95244 0.95218 0.75273
 H365 H 0.90394 0.97429 0.77267
 H366 H 0.90405 1.02646 0.77134
 H367 H 1.00129 0.97624 0.76407
 H368 H 0.97416 1.09563 0.72980
 H369 H 1.02593 1.09629 0.72930
 H370 H 1.09869 1.02500 0.76730
 H371 H 1.09798 0.97343 0.76818
 H372 H 0.97291 0.90590 0.72751
 H373 H 1.00120 1.02229 0.76035
 H374 H 1.02501 0.90565 0.72482
 C375 C 0.41978 0.48665 0.26304
 C376 C 0.41962 0.51376 0.26329
 C377 C 0.44454 0.52184 0.25504
 N378 N 0.45985 0.50061 0.24965
 C379 C 0.44477 0.47907 0.25457
 C380 C 0.45225 0.54840 0.25113
 C381 C 0.47883 0.55620 0.24671
 C382 C 0.48659 0.58113 0.23833
 C383 C 0.51381 0.58142 0.23841
 C384 C 0.52203 0.55651 0.24647
 N385 N 0.50055 0.54134 0.25169
 C386 C 0.54874 0.54903 0.25060
 C387 C 0.55696 0.52250 0.25367
 C388 C 0.58253 0.51459 0.25983
 C389 C 0.58261 0.48748 0.25917
 C390 C 0.55717 0.47971 0.25234
 N391 N 0.54157 0.50114 0.24888
 C392 C 0.54915 0.45330 0.24783
 C393 C 0.52244 0.44587 0.24364
 C394 C 0.51438 0.42165 0.23356
 C395 C 0.48715 0.42147 0.23415
 C396 C 0.47930 0.44558 0.24456
 N397 N 0.50092 0.46033 0.25033
 C398 C 0.45275 0.45273 0.24988
 H399 H 0.40333 0.47398 0.26836
 H400 H 0.40304 0.52611 0.26886
 H401 H 0.50104 0.47786 0.26106
 H402 H 0.47397 0.59761 0.23307
 H403 H 0.52603 0.59825 0.23336
 H404 H 0.59949 0.52698 0.26405
 H405 H 0.59957 0.47498 0.26301
 H406 H 0.47458 0.40534 0.22776
 H407 H 0.50073 0.52308 0.26106
 H408 H 0.52683 0.40568 0.22662
 O409 O 0.24852 0.18280 0.21274
 O410 O 0.27721 0.17499 0.24955
 O411 O 0.17982 0.21606 0.24910
 O412 O 0.17075 0.25015 0.27585
 O413 O 0.21286 0.25201 0.17986
 O414 O 0.25009 0.28025 0.17228
 O415 O 0.25057 0.28844 0.31710
 O416 O 0.21932 0.25453 0.32460
 O417 O 0.31758 0.25111 0.28555
 O418 O 0.32568 0.22174 0.24787
 O419 O 0.28666 0.31940 0.24924
 O420 O 0.24907 0.32802 0.21939
 O421 O 0.25114 0.31997 0.28511
 O422 O 0.22082 0.32820 0.24722
 O423 O 0.31807 0.28731 0.25009
 O424 O 0.32555 0.24930 0.21951
 O425 O 0.28577 0.25369 0.31727
 O426 O 0.24895 0.22256 0.32533
 O427 O 0.24933 0.21426 0.18061
 O428 O 0.27921 0.25062 0.17297
 O429 O 0.18091 0.25335 0.21154
 O430 O 0.17494 0.28372 0.24855
 O431 O 0.21127 0.18388 0.25044
 O432 O 0.24827 0.17598 0.27904
 Zr433 Zr 0.24749 0.20439 0.24836
 O434 O 0.27267 0.22680 0.27284
 Zr435 Zr 0.20169 0.25148 0.24764
 O436 O 0.22470 0.27584 0.27257
 Zr437 Zr 0.24850 0.25030 0.20141
 O438 O 0.27343 0.27495 0.22399
 Zr439 Zr 0.24993 0.25267 0.29608
 O440 O 0.22436 0.22805 0.27372
 Zr441 Zr 0.29648 0.25171 0.24962
 O442 O 0.27364 0.22676 0.22484
 Zr443 Zr 0.25050 0.29872 0.24928
 O444 O 0.22538 0.27642 0.22414
 O445 O 0.22332 0.22636 0.22339
 O446 O 0.27509 0.27697 0.27421
 C447 C 0.24937 0.19003 0.18834
 C448 C 0.18704 0.19171 0.25042
 C449 C 0.18853 0.25346 0.18725
 C450 C 0.25112 0.31266 0.30948
 C451 C 0.31006 0.25249 0.30981
 C452 C 0.31090 0.31168 0.24975
 H453 H 0.28351 0.21472 0.28374
 H454 H 0.28451 0.28568 0.21196
 H455 H 0.21182 0.21514 0.21216
 H456 H 0.21296 0.28687 0.28367
 H457 H 0.20554 0.24174 0.31900
 H458 H 0.17652 0.26065 0.29133
 H459 H 0.32253 0.26404 0.20700
 H460 H 0.29289 0.23816 0.17938
 H461 H 0.26376 0.21021 0.32203
 H462 H 0.23657 0.18276 0.29322
 H463 H 0.26287 0.32378 0.20617
 H464 H 0.23831 0.29461 0.17846
 H465 H 0.29144 0.18093 0.23745
 H466 H 0.32116 0.20825 0.26131
 H467 H 0.18081 0.29638 0.23481
 H468 H 0.20823 0.32512 0.26190
 O469 O 0.75041 0.81980 0.21395
 O470 O 0.72146 0.82790 0.25050
 O471 O 0.81897 0.78741 0.25233
 O472 O 0.82858 0.75307 0.27808
 O473 O 0.78667 0.75051 0.18222
 O474 O 0.74987 0.72183 0.17471
 O475 O 0.74873 0.71551 0.31970
 O476 O 0.77934 0.74994 0.32697
 O477 O 0.68132 0.75164 0.28704
 O478 O 0.67306 0.78063 0.24938
 O479 O 0.71297 0.68343 0.25280
 O480 O 0.75040 0.67461 0.22256
 O481 O 0.74827 0.68360 0.28810
 O482 O 0.77894 0.67517 0.25037
 O483 O 0.68131 0.71530 0.25121
 O484 O 0.67398 0.75345 0.22077
 O485 O 0.71294 0.74986 0.31904
 O486 O 0.74942 0.78153 0.32699
 O487 O 0.74977 0.78793 0.18223
 O488 O 0.72040 0.75103 0.17482
 O489 O 0.81848 0.75060 0.21407
 O490 O 0.82417 0.71963 0.25123
 O491 O 0.78746 0.81948 0.25137
 O492 O 0.75044 0.82739 0.28023
 Zr493 Zr 0.75137 0.79868 0.24983
 O494 O 0.72616 0.77640 0.27439
 Zr495 Zr 0.79743 0.75186 0.25006
 O496 O 0.77447 0.72770 0.27517
 Zr497 Zr 0.75091 0.75215 0.20349
 O498 O 0.72603 0.72760 0.22620
 Zr499 Zr 0.74894 0.75101 0.29817
 O500 O 0.77448 0.77549 0.27567
 Zr501 Zr 0.70266 0.75106 0.25128
 O502 O 0.72548 0.77587 0.22640
 Zr503 Zr 0.74895 0.70436 0.25201
 O504 O 0.77406 0.72648 0.22671
 O505 O 0.77580 0.77653 0.22534
 O506 O 0.72405 0.72630 0.27641
 C507 C 0.74963 0.81225 0.18964
 C508 C 0.81171 0.81178 0.25249
 C509 C 0.81100 0.74998 0.18973
 C510 C 0.74826 0.69120 0.31237
 C511 C 0.68869 0.75063 0.31136
 C512 C 0.68871 0.69102 0.25215
 H513 H 0.71516 0.78852 0.28506
 H514 H 0.71510 0.71665 0.21422
 H515 H 0.78727 0.78778 0.21412
 H516 H 0.78623 0.71692 0.28648
 H517 H 0.79312 0.76263 0.32117
 H518 H 0.82245 0.74346 0.29399
 H519 H 0.67712 0.73865 0.20838
 H520 H 0.70672 0.76376 0.18069
 H521 H 0.73451 0.79368 0.32343
 H522 H 0.76230 0.82089 0.29442
 H523 H 0.73637 0.67844 0.20943
 H524 H 0.76140 0.70749 0.18141
 H525 H 0.70730 0.82169 0.23845
 H526 H 0.67765 0.79447 0.26244
 H527 H 0.81881 0.70725 0.23703
 H528 H 0.79143 0.67852 0.26510
 O529 O 0.75020 0.18152 0.78639
 O530 O 0.72140 0.17333 0.74972
 O531 O 0.81919 0.21346 0.74874
 O532 O 0.82882 0.24731 0.72210
 O533 O 0.78673 0.25163 0.81789
 O534 O 0.74954 0.27966 0.82513
 O535 O 0.74928 0.28520 0.68005
 O536 O 0.78030 0.25082 0.67329
 O537 O 0.68195 0.25009 0.71231
 O538 O 0.67365 0.22031 0.75025
 O539 O 0.71354 0.31772 0.74698
 O540 O 0.75115 0.32654 0.77704
 O541 O 0.74890 0.31726 0.71152
 O542 O 0.77950 0.32592 0.74917
 O543 O 0.68181 0.28590 0.74771
 O544 O 0.67381 0.24833 0.77826
 O545 O 0.71374 0.24987 0.68051
 O546 O 0.75031 0.21929 0.67285
 O547 O 0.74985 0.21353 0.81798
 O548 O 0.72033 0.25026 0.82497
 O549 O 0.81865 0.25073 0.78618
 O550 O 0.82473 0.28116 0.74894
 O551 O 0.78750 0.18150 0.74924
 O552 O 0.75061 0.17344 0.72026
 Zr553 Zr 0.75150 0.20241 0.75041
 O554 O 0.72655 0.22458 0.72550
 Zr555 Zr 0.79775 0.24908 0.75016
 O556 O 0.77501 0.27318 0.72480
 Zr557 Zr 0.75100 0.24922 0.79649
 O558 O 0.72631 0.27366 0.77346
 Zr559 Zr 0.74958 0.24976 0.70173
 O560 O 0.77486 0.22532 0.72455
 Zr561 Zr 0.70304 0.25015 0.74826
 O562 O 0.72560 0.22547 0.77351
 Zr563 Zr 0.74946 0.29670 0.74769
 O564 O 0.77437 0.27467 0.77322
 O565 O 0.77590 0.22466 0.77495
 O566 O 0.72468 0.27469 0.72315
 C567 C 0.74951 0.18917 0.81066
 C568 C 0.81181 0.18912 0.74853
 C569 C 0.81109 0.25202 0.81045
 C570 C 0.74888 0.30956 0.68728
 C571 C 0.68941 0.25004 0.68798
 C572 C 0.68923 0.31019 0.74708
 H573 H 0.71557 0.21242 0.71483
 H574 H 0.71535 0.28470 0.78529
 H575 H 0.78728 0.21354 0.78638
 H576 H 0.78685 0.28390 0.71350
 H577 H 0.79395 0.23805 0.67920
 H578 H 0.82312 0.25751 0.70641
 H579 H 0.67735 0.26280 0.79095
 H580 H 0.70659 0.23767 0.81888
 H581 H 0.73635 0.20628 0.67723
 H582 H 0.76286 0.17959 0.70625
 H583 H 0.73696 0.32296 0.79005
 H584 H 0.76105 0.29406 0.81849
 H585 H 0.70708 0.17984 0.76140
 H586 H 0.67749 0.20716 0.73629
 H587 H 0.81914 0.29386 0.76276
 H588 H 0.79206 0.32242 0.73456
 O589 O 0.25019 0.81848 0.78700
 O590 O 0.27919 0.82601 0.75037
 O591 O 0.18139 0.78605 0.74863
 O592 O 0.17168 0.75149 0.72318
 O593 O 0.21305 0.74968 0.81930
 O594 O 0.24974 0.72101 0.82733
 O595 O 0.25173 0.71287 0.68254
 O596 O 0.22097 0.74725 0.67475
 O597 O 0.31889 0.74931 0.71493
 O598 O 0.32709 0.77857 0.75255
 O599 O 0.28660 0.68146 0.75044
 O600 O 0.24875 0.67327 0.78017
 O601 O 0.25132 0.68133 0.71453
 O602 O 0.22058 0.67353 0.75215
 O603 O 0.31846 0.71318 0.75072
 O604 O 0.32609 0.75132 0.78111
 O605 O 0.28739 0.74730 0.68282
 O606 O 0.25117 0.77870 0.67424
 O607 O 0.25000 0.78697 0.81907
 O608 O 0.27931 0.75022 0.82701
 O609 O 0.18139 0.74966 0.78730
 O610 O 0.17561 0.71835 0.75050
 O611 O 0.21314 0.81796 0.74937
 O612 O 0.25031 0.82533 0.72061
 Zr613 Zr 0.24906 0.79697 0.75132
 O614 O 0.27418 0.77425 0.72712
 Zr615 Zr 0.20263 0.75041 0.75141
 O616 O 0.22554 0.72579 0.72674
 Zr617 Zr 0.24892 0.75099 0.79820
 O618 O 0.27374 0.72605 0.77591
 Zr619 Zr 0.25135 0.74866 0.70357
 O620 O 0.22591 0.77359 0.72564
 Zr621 Zr 0.29739 0.74905 0.75061
 O622 O 0.27465 0.77427 0.77512
 Zr623 Zr 0.25075 0.70259 0.75033
 O624 O 0.22567 0.72517 0.77520
 O625 O 0.22432 0.77525 0.77594
 O626 O 0.27593 0.72406 0.72573
 C627 C 0.25057 0.81120 0.81139
 C628 C 0.18883 0.81038 0.74820
 C629 C 0.18875 0.74919 0.81168
 C630 C 0.25175 0.68864 0.69016
 C631 C 0.31161 0.74812 0.69058
 C632 C 0.31094 0.68890 0.75061
 H633 H 0.28531 0.78620 0.71637
 H634 H 0.28454 0.71519 0.78807
 H635 H 0.21288 0.78669 0.78698
 H636 H 0.21376 0.71492 0.71550
 H637 H 0.20733 0.76019 0.68024
 H638 H 0.17774 0.74150 0.70749
 H639 H 0.32272 0.73667 0.79364
 H640 H 0.29316 0.76267 0.82090
 H641 H 0.26579 0.79117 0.67802
 H642 H 0.23845 0.81875 0.70646
 H643 H 0.26259 0.67728 0.79345
 H644 H 0.23793 0.70674 0.82092
 H645 H 0.29327 0.81989 0.76256
 H646 H 0.32283 0.79218 0.73915
 H647 H 0.18084 0.70607 0.76484
 H648 H 0.20807 0.67690 0.73746
 O649 O 0.24806 0.31814 0.71319
 O650 O 0.21909 0.32562 0.74995
 O651 O 0.31741 0.28672 0.75178
 O652 O 0.32712 0.25235 0.77774
 O653 O 0.28591 0.24903 0.68154
 O654 O 0.24907 0.22041 0.67373
 O655 O 0.24866 0.21307 0.81838
 O656 O 0.27882 0.24920 0.82539
 O657 O 0.18029 0.24812 0.78613
 O658 O 0.17195 0.27825 0.74904
 O659 O 0.21270 0.18127 0.75123
 O660 O 0.25060 0.17339 0.72064
 O661 O 0.24816 0.18141 0.78652
 O662 O 0.27864 0.17349 0.74899
 O663 O 0.18071 0.21282 0.74973
 O664 O 0.17286 0.25117 0.71999
 O665 O 0.21192 0.24615 0.81809
 O666 O 0.24291 0.27792 0.82681
 O667 O 0.24893 0.28642 0.68134
 O668 O 0.21964 0.24964 0.67375
 O669 O 0.31759 0.25001 0.71351
 O670 O 0.32380 0.21937 0.75081
 O671 O 0.28554 0.31836 0.74991
 O672 O 0.24735 0.32628 0.77903
 Zr673 Zr 0.24964 0.29707 0.74911
 O674 O 0.22492 0.27418 0.77369
 Zr675 Zr 0.29631 0.25094 0.74939
 O676 O 0.27367 0.22605 0.77407
 Zr677 Zr 0.25000 0.25066 0.70259
 O678 O 0.22531 0.22575 0.72507
 Zr679 Zr 0.24779 0.24877 0.79720
 O680 O 0.27295 0.27418 0.77512
 Zr681 Zr 0.20167 0.24876 0.75036
 O682 O 0.22418 0.27393 0.72554
 Zr683 Zr 0.24852 0.20255 0.75065
 O684 O 0.27349 0.22526 0.72576
 O685 O 0.27444 0.27532 0.72462
 O686 O 0.22333 0.22395 0.77518
 C687 C 0.24798 0.31069 0.68885
 C688 C 0.30987 0.31100 0.75142
 C689 C 0.31022 0.24894 0.68915
 C690 C 0.24833 0.18881 0.81086
 C691 C 0.18765 0.24650 0.81043
 C692 C 0.18835 0.18861 0.75051
 H693 H 0.21404 0.28595 0.78490
 H694 H 0.21451 0.21479 0.71298
 H695 H 0.28580 0.28666 0.71338
 H696 H 0.28562 0.21536 0.78527
 H697 H 0.29031 0.26447 0.82101
 H698 H 0.32028 0.24396 0.79404
 H699 H 0.17647 0.23687 0.70715
 H700 H 0.20583 0.26217 0.67972
 H701 H 0.25302 0.29354 0.82090
 H702 H 0.26282 0.32386 0.79083
 H703 H 0.23588 0.17657 0.70810
 H704 H 0.26081 0.20617 0.68027
 H705 H 0.20505 0.31917 0.73787
 H706 H 0.17609 0.29149 0.76284
 H707 H 0.31861 0.20671 0.73678
 H708 H 0.29145 0.17729 0.76331
 O709 O 0.75063 0.68052 0.71555
 O710 O 0.77950 0.67321 0.75257
 O711 O 0.68161 0.71319 0.75161
 O712 O 0.67210 0.74732 0.77823
 O713 O 0.71457 0.74941 0.68240
 O714 O 0.75160 0.77790 0.67487
 O715 O 0.75118 0.78669 0.81960
 O716 O 0.72013 0.75239 0.82702
 O717 O 0.81871 0.74979 0.78860
 O718 O 0.82745 0.72051 0.75122
 O719 O 0.78726 0.81765 0.75194
 O720 O 0.74970 0.82562 0.72162
 O721 O 0.75157 0.81803 0.78742
 O722 O 0.72142 0.82580 0.74947
 O723 O 0.81901 0.78591 0.75308
 O724 O 0.82699 0.74775 0.72255
 O725 O 0.78672 0.75209 0.82016
 O726 O 0.75020 0.72089 0.82827
 O727 O 0.75170 0.71197 0.68342
 O728 O 0.78096 0.74869 0.67576
 O729 O 0.68244 0.74945 0.71391
 O730 O 0.67602 0.78073 0.75032
 O731 O 0.71332 0.68127 0.75313
 O732 O 0.75027 0.67381 0.78190
 Zr733 Zr 0.74936 0.70218 0.75118
 O734 O 0.77413 0.72499 0.77574
 Zr735 Zr 0.70311 0.74877 0.75008
 O736 O 0.72567 0.77352 0.77501
 Zr737 Zr 0.75016 0.74803 0.70410
 O738 O 0.77471 0.77300 0.72672
 Zr739 Zr 0.75100 0.75074 0.79877
 O740 O 0.72588 0.72568 0.77637
 Zr741 Zr 0.79781 0.75006 0.75257
 O742 O 0.77540 0.72479 0.72774
 Zr743 Zr 0.75134 0.79658 0.75175
 O744 O 0.72658 0.77392 0.72659
 O745 O 0.72516 0.72385 0.72602
 O746 O 0.77602 0.77520 0.77692
 C747 C 0.75175 0.68775 0.69115
 C748 C 0.68902 0.68891 0.75292
 C749 C 0.69015 0.74987 0.68967
 C750 C 0.75153 0.81088 0.81183
 C751 C 0.81106 0.75112 0.81282
 C752 C 0.81157 0.81019 0.75265
 H753 H 0.78502 0.71307 0.78675
 H754 H 0.78576 0.78379 0.71472
 H755 H 0.71390 0.71241 0.71478
 H756 H 0.71376 0.78448 0.78598
 H757 H 0.70654 0.73943 0.82134
 H758 H 0.67752 0.75833 0.79348
 H759 H 0.82414 0.76263 0.71018
 H760 H 0.79485 0.73654 0.68232
 H761 H 0.76484 0.70838 0.82483
 H762 H 0.73850 0.68054 0.79604
 H763 H 0.76390 0.82171 0.70872
 H764 H 0.73964 0.79216 0.68094
 H765 H 0.79357 0.67918 0.74030
 H766 H 0.82277 0.70682 0.76440
 H767 H 0.68174 0.79316 0.73629
 H768 H 0.70855 0.82238 0.76383
 O769 O 0.24918 0.68210 0.28650
 O770 O 0.22060 0.67441 0.24944
 O771 O 0.31858 0.71408 0.24934
 O772 O 0.32848 0.74823 0.22315
 O773 O 0.28605 0.75126 0.31884
 O774 O 0.24914 0.77986 0.32617
 O775 O 0.24949 0.78709 0.18134
 O776 O 0.28017 0.75248 0.17423
 O777 O 0.18166 0.75068 0.21290
 O778 O 0.17295 0.72182 0.25079
 O779 O 0.21355 0.81891 0.24871
 O780 O 0.25120 0.82710 0.27888
 O781 O 0.24902 0.81876 0.21319
 O782 O 0.27947 0.82682 0.25097
 O783 O 0.18164 0.78726 0.24802
 O784 O 0.17341 0.74959 0.27891
 O785 O 0.21359 0.75276 0.18125
 O786 O 0.24982 0.72121 0.17336
 O787 O 0.24905 0.71385 0.31837
 O788 O 0.21965 0.75060 0.32562
 O789 O 0.31812 0.75062 0.28728
 O790 O 0.32453 0.78171 0.25052
 O791 O 0.28674 0.68225 0.24936
 O792 O 0.24996 0.67472 0.22019
 Zr793 Zr 0.25083 0.70334 0.25067
 O794 O 0.22613 0.72596 0.22592
 Zr795 Zr 0.29735 0.74978 0.25114
 O796 O 0.27485 0.77433 0.22601
 Zr797 Zr 0.25042 0.74967 0.29725
 O798 O 0.22593 0.77448 0.27443
 Zr799 Zr 0.24935 0.75137 0.20256
 O800 O 0.27439 0.72649 0.22518
 Zr801 Zr 0.20264 0.75135 0.24889
 O802 O 0.22498 0.72628 0.27394
 Zr803 Zr 0.24935 0.79771 0.24909
 O804 O 0.27406 0.77525 0.27443
 O805 O 0.27524 0.72519 0.27552
 O806 O 0.22450 0.77614 0.22421
 C807 C 0.24854 0.68956 0.31085
 C808 C 0.31109 0.68977 0.24884
 C809 C 0.31045 0.75143 0.31154
 C810 C 0.24912 0.81135 0.18885
 C811 C 0.18927 0.75185 0.18867
 C812 C 0.18920 0.81153 0.24813
 H813 H 0.21514 0.71396 0.21508
 H814 H 0.21498 0.78545 0.28634
 H815 H 0.28649 0.71382 0.28684
 H816 H 0.28680 0.78513 0.21489
 H817 H 0.29367 0.73951 0.18003
 H818 H 0.32286 0.75864 0.20756
 H819 H 0.17659 0.76440 0.29129
 H820 H 0.20577 0.73830 0.31923
 H821 H 0.23517 0.70876 0.17705
 H822 H 0.26191 0.68125 0.20609
 H823 H 0.23700 0.82338 0.29185
 H824 H 0.26111 0.79405 0.31990
 H825 H 0.20647 0.68056 0.26154
 H826 H 0.17731 0.70814 0.23749
 H827 H 0.31899 0.79420 0.26455
 H828 H 0.29221 0.82327 0.23653
 O829 O 0.75105 0.31942 0.28522
 O830 O 0.78033 0.32641 0.24871
 O831 O 0.68219 0.28715 0.24737
 O832 O 0.67238 0.25260 0.22176
 O833 O 0.71351 0.25098 0.31802
 O834 O 0.74999 0.22223 0.32635
 O835 O 0.75195 0.21310 0.18153
 O836 O 0.72167 0.24769 0.17340
 O837 O 0.81947 0.24790 0.21381
 O838 O 0.82779 0.27871 0.25070
 O839 O 0.78670 0.18184 0.24976
 O840 O 0.74870 0.17407 0.27941
 O841 O 0.75156 0.18175 0.21370
 O842 O 0.72055 0.17440 0.25130
 O843 O 0.81873 0.21338 0.25021
 O844 O 0.82653 0.25196 0.27995
 O845 O 0.78805 0.24702 0.18163
 O846 O 0.75201 0.27896 0.17290
 O847 O 0.75099 0.28810 0.31751
 O848 O 0.77977 0.25107 0.32581
 O849 O 0.68188 0.25121 0.28599
 O850 O 0.67595 0.21954 0.24949
 O851 O 0.71413 0.31887 0.24741
 O852 O 0.75153 0.32576 0.21879
 Zr853 Zr 0.74994 0.29764 0.24970
 O854 O 0.77498 0.27456 0.22569
 Zr855 Zr 0.70320 0.25140 0.25014
 O856 O 0.72596 0.22647 0.22564
 Zr857 Zr 0.74944 0.25196 0.29694
 O858 O 0.77409 0.22667 0.27487
 Zr859 Zr 0.75195 0.24901 0.20233
 O860 O 0.72664 0.27424 0.22420
 Zr861 Zr 0.79790 0.24933 0.24942
 O862 O 0.77532 0.27490 0.27371
 Zr863 Zr 0.75096 0.20320 0.24941
 O864 O 0.72603 0.22614 0.27411
 O865 O 0.72507 0.27626 0.27449
 O866 O 0.77627 0.22436 0.22471
 C867 C 0.75157 0.31229 0.30966
 C868 C 0.68977 0.31142 0.24659
 C869 C 0.68921 0.25076 0.31038
 C870 C 0.75195 0.18892 0.18929
 C871 C 0.81229 0.24672 0.18943
 C872 C 0.81109 0.18915 0.25010
 H873 H 0.78625 0.28626 0.21481
 H874 H 0.78479 0.21584 0.28714
 H875 H 0.71372 0.28786 0.28546
 H876 H 0.71411 0.21561 0.21446
 H877 H 0.70804 0.26065 0.17887
 H878 H 0.67831 0.24225 0.20625
 H879 H 0.82308 0.23749 0.29267
 H880 H 0.79370 0.26344 0.31971
 H881 H 0.76712 0.29096 0.17626
 H882 H 0.73971 0.31912 0.20462
 H883 H 0.76250 0.17810 0.29272
 H884 H 0.73819 0.20793 0.31998
 H885 H 0.79453 0.31994 0.26058
 H886 H 0.82409 0.29166 0.23651
 H887 H 0.68109 0.20733 0.26392
 H888 H 0.70814 0.17774 0.23652
 C889 C 0.24945 0.10823 0.10791
 C890 C 0.23639 0.08409 0.11235
 C891 C 0.23600 0.06451 0.09283
 C892 C 0.24854 0.06858 0.06824
 C893 C 0.26174 0.09278 0.06398
 C894 C 0.26220 0.11229 0.08354
 C895 C 0.24965 0.12918 0.12855
 C896 C 0.24698 0.15593 0.12149
 C897 C 0.24707 0.17565 0.14086
 C898 C 0.24975 0.16911 0.16778
 C899 C 0.25243 0.14235 0.17484
 C900 C 0.25243 0.12263 0.15545
 H901 H 0.22516 0.04642 0.09671
 H902 H 0.27233 0.09640 0.04569
 H903 H 0.24475 0.19603 0.13470
 H904 H 0.25464 0.13659 0.19537
 H905 H 0.27292 0.13044 0.07970
 H906 H 0.24438 0.16161 0.10100
 H907 H 0.22599 0.08051 0.13074
 H908 H 0.25491 0.10225 0.16151
 C909 C 0.75203 0.60674 0.61005
 C910 C 0.73334 0.58612 0.61089
 C911 C 0.73282 0.56685 0.59107
 C912 C 0.75110 0.56774 0.57016
 C913 C 0.76979 0.58826 0.56926
 C914 C 0.77023 0.60762 0.58899
 C915 C 0.75239 0.62739 0.63092
 C916 C 0.75581 0.65411 0.62416
 C917 C 0.75577 0.67364 0.64371
 C918 C 0.75242 0.66690 0.67053
 C919 C 0.74921 0.64011 0.67729
 C920 C 0.74913 0.62059 0.65769
 H921 H 0.71813 0.55126 0.59196
 H922 H 0.78409 0.58920 0.55330
 H923 H 0.75826 0.69405 0.63776
 H924 H 0.74657 0.63419 0.69772
 H925 H 0.78503 0.62309 0.58798
 H926 H 0.75806 0.65997 0.60367
 H927 H 0.71885 0.58514 0.62666
 H928 H 0.74675 0.60012 0.66350
 C929 C 0.74993 0.89284 0.10803
 C930 C 0.76298 0.88824 0.08391
 C931 C 0.76333 0.90756 0.06416
 C932 C 0.75065 0.93208 0.06798
 C933 C 0.73777 0.93666 0.09230
 C934 C 0.73736 0.91728 0.11200
 C935 C 0.74951 0.87222 0.12899
 C936 C 0.75229 0.87917 0.15579
 C937 C 0.75211 0.85976 0.17547
 C938 C 0.74922 0.83291 0.16882
 C939 C 0.74635 0.82598 0.14201
 C940 C 0.74646 0.84541 0.12235
 H941 H 0.77420 0.90355 0.04612
 H942 H 0.72733 0.95503 0.09583
 H943 H 0.75453 0.86582 0.19589
 H944 H 0.74398 0.80552 0.13616
 H945 H 0.72676 0.92129 0.13019
 H946 H 0.75506 0.89961 0.16154
 H947 H 0.77335 0.86984 0.08046
 H948 H 0.74388 0.83944 0.10193
 C949 C 0.24834 0.39184 0.60791
 C950 C 0.26699 0.39077 0.58726
 C951 C 0.26745 0.41033 0.56774
 C952 C 0.24916 0.43119 0.56839
 C953 C 0.23058 0.43237 0.58900
 C954 C 0.23019 0.41290 0.60862
 C955 C 0.24785 0.37104 0.62862
 C956 C 0.24451 0.37778 0.65539
 C957 C 0.24441 0.35821 0.67492
 C958 C 0.24749 0.33143 0.66810
 C959 C 0.25059 0.32471 0.64126
 C960 C 0.25083 0.34430 0.62176
 H961 H 0.28208 0.40924 0.55210
 H962 H 0.21629 0.44832 0.58977
 H963 H 0.24201 0.36412 0.69538
 H964 H 0.25304 0.30430 0.63527
 H965 H 0.21544 0.41408 0.62413
 H966 H 0.24244 0.39826 0.66127
 H967 H 0.28144 0.37499 0.58641
 H968 H 0.25312 0.33849 0.60126
 C969 C 0.74951 0.10846 0.89221
 C970 C 0.76274 0.11291 0.91627
 C971 C 0.76314 0.09349 0.93593
 C972 C 0.75033 0.06901 0.93209
 C973 C 0.73725 0.06459 0.90783
 C974 C 0.73679 0.08407 0.88822
 C975 C 0.74913 0.12914 0.87130
 C976 C 0.75170 0.12222 0.84448
 C977 C 0.75160 0.14166 0.82483
 C978 C 0.74900 0.16853 0.83151
 C979 C 0.74634 0.17544 0.85834
 C980 C 0.74636 0.15598 0.87799
 H981 H 0.77415 0.09739 0.95393
 H982 H 0.72669 0.04627 0.90428
 H983 H 0.75386 0.13559 0.80440
 H984 H 0.74419 0.19592 0.86422
 H985 H 0.72605 0.08017 0.87007
 H986 H 0.75426 0.10178 0.83869
 H987 H 0.77324 0.13127 0.91975
 H988 H 0.74395 0.16194 0.89843
 C989 C 0.24857 0.60867 0.39201
 C990 C 0.23044 0.58757 0.39130
 C991 C 0.23076 0.56819 0.41102
 C992 C 0.24927 0.56951 0.43170
 C993 C 0.26754 0.59042 0.43236
 C994 C 0.26713 0.60989 0.41274
 C995 C 0.24813 0.62938 0.37122
 C996 C 0.25098 0.65616 0.37802
 C997 C 0.25082 0.67568 0.35847
 C998 C 0.24793 0.66886 0.33162
 C999 C 0.24498 0.64205 0.32485
 C1000 C 0.24500 0.62254 0.34445
 H1001 H 0.21649 0.55219 0.41024
 H1002 H 0.28212 0.59161 0.44805
 H1003 H 0.25316 0.69612 0.36442
 H1004 H 0.24274 0.63608 0.30438
 H1005 H 0.28156 0.62572 0.41359
 H1006 H 0.25311 0.66203 0.39852
 H1007 H 0.21576 0.58627 0.37572
 H1008 H 0.24302 0.60203 0.33861
 C1009 C 0.25043 0.89270 0.89209
 C1010 C 0.26309 0.88862 0.91652
 C1011 C 0.26247 0.90805 0.93615
 C1012 C 0.24920 0.93218 0.93191
 C1013 C 0.23673 0.93627 0.90728
 C1014 C 0.23729 0.91678 0.88769
 C1015 C 0.25078 0.87184 0.87139
 C1016 C 0.25364 0.87849 0.84452
 C1017 C 0.25371 0.85884 0.82506
 C1018 C 0.25098 0.83206 0.83202
 C1019 C 0.24824 0.82541 0.85891
 C1020 C 0.24810 0.84506 0.87834
 H1021 H 0.27301 0.90442 0.95448
 H1022 H 0.22583 0.95431 0.90342
 H1023 H 0.25595 0.86468 0.80456
 H1024 H 0.24591 0.80502 0.86500
 H1025 H 0.22695 0.92037 0.86925
 H1026 H 0.25612 0.89890 0.83854
 H1027 H 0.27387 0.87052 0.92034
 H1028 H 0.24544 0.83930 0.89881
 C1029 C 0.75194 0.39385 0.39017
 C1030 C 0.77013 0.39310 0.41125
 C1031 C 0.76973 0.41260 0.43084
 C1032 C 0.75110 0.43313 0.42976
 C1033 C 0.73285 0.43390 0.40881
 C1034 C 0.73333 0.41450 0.38913
 C1035 C 0.75223 0.37304 0.36948
 C1036 C 0.74916 0.37967 0.34264
 C1037 C 0.74922 0.36001 0.32319
 C1038 C 0.75220 0.33325 0.33017
 C1039 C 0.75535 0.32668 0.35704
 C1040 C 0.75543 0.34635 0.37645
 H1041 H 0.78400 0.41175 0.44684
 H1042 H 0.71819 0.44950 0.40779
 H1043 H 0.74672 0.36579 0.30270
 H1044 H 0.75767 0.30629 0.36316
 H1045 H 0.71886 0.41538 0.37332
 H1046 H 0.74694 0.40010 0.33667
 H1047 H 0.78486 0.37760 0.41241
 H1048 H 0.75754 0.34064 0.39700
 C1049 C 0.10643 0.25332 0.10698
 C1050 C 0.11174 0.25881 0.08033
 C1051 C 0.09234 0.25489 0.06098
 C1052 C 0.06717 0.24401 0.06721
 C1053 C 0.06109 0.24251 0.09460
 C1054 C 0.08055 0.24612 0.11397
 C1055 C 0.12779 0.25488 0.12728
 C1056 C 0.12230 0.26333 0.15324
 C1057 C 0.14205 0.26305 0.17264
 C1058 C 0.16786 0.25464 0.16648
 C1059 C 0.17355 0.24684 0.14041
 C1060 C 0.15373 0.24682 0.12109
 H1061 H 0.09726 0.26119 0.04116
 H1062 H 0.04150 0.23866 0.10195
 H1063 H 0.13711 0.26947 0.19248
 H1064 H 0.19320 0.24008 0.13507
 H1065 H 0.07526 0.24274 0.13445
 H1066 H 0.10273 0.27021 0.15863
 H1067 H 0.13090 0.26639 0.07437
 H1068 H 0.15860 0.23977 0.10146
 C1069 C 0.60940 0.74973 0.60828
 C1070 C 0.60888 0.76944 0.58867
 C1071 C 0.58903 0.76947 0.56938
 C1072 C 0.56950 0.74972 0.56926
 C1073 C 0.57016 0.72983 0.58860
 C1074 C 0.58986 0.72990 0.60802
 C1075 C 0.63012 0.74995 0.62908
 C1076 C 0.62339 0.74514 0.65561
 C1077 C 0.64284 0.74535 0.67527
 C1078 C 0.66952 0.75020 0.66881
 C1079 C 0.67624 0.75497 0.64222
 C1080 C 0.65671 0.75496 0.62258
 H1081 H 0.58878 0.78497 0.55458
 H1082 H 0.55535 0.71432 0.58865
 H1083 H 0.63697 0.74150 0.69553
 H1084 H 0.69658 0.75876 0.63657
 H1085 H 0.59000 0.71429 0.62270
 H1086 H 0.60300 0.74150 0.66120
 H1087 H 0.62354 0.78507 0.58856
 H1088 H 0.66247 0.75850 0.60224
 C1089 C 0.10715 0.74931 0.89236
 C1090 C 0.08365 0.76365 0.88845
 C1091 C 0.06399 0.76403 0.90789
 C1092 C 0.06728 0.75005 0.93179
 C1093 C 0.09095 0.73582 0.93566
 C1094 C 0.11058 0.73541 0.91619
 C1095 C 0.12807 0.74895 0.87169
 C1096 C 0.15497 0.75045 0.87873
 C1097 C 0.17464 0.75033 0.85929
 C1098 C 0.16788 0.74875 0.83232
 C1099 C 0.14096 0.74715 0.82530
 C1100 C 0.12129 0.74724 0.84476
 H1101 H 0.04642 0.77585 0.90449
 H1102 H 0.09401 0.72444 0.95357
 H1103 H 0.19515 0.75174 0.86544
 H1104 H 0.13502 0.74583 0.80474
 H1105 H 0.12829 0.72385 0.91962
 H1106 H 0.16081 0.75216 0.89929
 H1107 H 0.08065 0.77500 0.87053
 H1108 H 0.10076 0.74569 0.83872
 C1109 C 0.60777 0.25171 0.39115
 C1110 C 0.60779 0.23274 0.41149
 C1111 C 0.58800 0.23286 0.43082
 C1112 C 0.56792 0.25200 0.43024
 C1113 C 0.56799 0.27116 0.41016
 C1114 C 0.58767 0.27094 0.39070
 C1115 C 0.62861 0.25137 0.37045
 C1116 C 0.62201 0.25530 0.34372
 C1117 C 0.64162 0.25488 0.32420
 C1118 C 0.66832 0.25068 0.33101
 C1119 C 0.67489 0.24680 0.35779
 C1120 C 0.65524 0.24705 0.37727
 H1121 H 0.58821 0.21791 0.44618
 H1122 H 0.55276 0.28622 0.40956
 H1123 H 0.63585 0.25801 0.30380
 H1124 H 0.69524 0.24355 0.36374
 H1125 H 0.58737 0.28600 0.37547
 H1126 H 0.60160 0.25840 0.33787
 H1127 H 0.62287 0.21754 0.41219
 H1128 H 0.66094 0.24424 0.39774
 C1129 C 0.89231 0.75042 0.10876
 C1130 C 0.88889 0.73665 0.08486
 C1131 C 0.90851 0.73722 0.06538
 C1132 C 0.93217 0.75149 0.06932
 C1133 C 0.93542 0.76542 0.09326
 C1134 C 0.91576 0.76487 0.11271
 C1135 C 0.87145 0.74983 0.12948
 C1136 C 0.87832 0.74806 0.15639
 C1137 C 0.85872 0.74788 0.17592
 C1138 C 0.83177 0.74942 0.16899
 C1139 C 0.82492 0.75098 0.14205
 C1140 C 0.84452 0.75120 0.12254
 H1141 H 0.90547 0.72589 0.04742
 H1142 H 0.95297 0.77729 0.09672
 H1143 H 0.86474 0.74656 0.19645
 H1144 H 0.80438 0.75234 0.13598
 H1145 H 0.91875 0.77616 0.13068
 H1146 H 0.89887 0.74658 0.16236
 H1147 H 0.87120 0.72501 0.08138
 H1148 H 0.83861 0.75294 0.10201
 C1149 C 0.39141 0.24793 0.60812
 C1150 C 0.39096 0.22918 0.58757
 C1151 C 0.41050 0.22939 0.56797
 C1152 C 0.43071 0.24844 0.56848
 C1153 C 0.43115 0.26726 0.58888
 C1154 C 0.41173 0.26696 0.60858
 C1155 C 0.37067 0.24778 0.62892
 C1156 C 0.37743 0.25168 0.65562
 C1157 C 0.35787 0.25181 0.67519
 C1158 C 0.33106 0.24820 0.66848
 C1159 C 0.32433 0.24424 0.64175
 C1160 C 0.34393 0.24395 0.62221
 H1161 H 0.40993 0.21467 0.55240
 H1162 H 0.44652 0.28221 0.58947
 H1163 H 0.36378 0.25494 0.69557
 H1164 H 0.30390 0.24141 0.63585
 H1165 H 0.41237 0.28185 0.62396
 H1166 H 0.39792 0.25439 0.66140
 H1167 H 0.37570 0.21413 0.58687
 H1168 H 0.33810 0.24119 0.60176
 C1169 C 0.89208 0.25422 0.89156
 C1170 C 0.89346 0.27426 0.91076
 C1171 C 0.91287 0.27352 0.93053
 C1172 C 0.93103 0.25243 0.93177
 C1173 C 0.92971 0.23257 0.91228
 C1174 C 0.91050 0.23347 0.89244
 C1175 C 0.87144 0.25470 0.87068
 C1176 C 0.87802 0.24881 0.84433
 C1177 C 0.85848 0.24827 0.82476
 C1178 C 0.83186 0.25340 0.83114
 C1179 C 0.82532 0.25951 0.85750
 C1180 C 0.84495 0.26028 0.87705
 H1181 H 0.91392 0.28958 0.94468
 H1182 H 0.94333 0.21603 0.91272
 H1183 H 0.86423 0.24348 0.80467
 H1184 H 0.80503 0.26364 0.86308
 H1185 H 0.90973 0.21762 0.87804
 H1186 H 0.89834 0.24468 0.83884
 H1187 H 0.87974 0.29071 0.91024
 H1188 H 0.83932 0.26466 0.89726
 C1189 C 0.39101 0.75102 0.39314
 C1190 C 0.39142 0.77047 0.41302
 C1191 C 0.41115 0.77027 0.43244
 C1192 C 0.43067 0.75055 0.43240
 C1193 C 0.43012 0.73092 0.41279
 C1194 C 0.41053 0.73122 0.39325
 C1195 C 0.37038 0.75145 0.37225
 C1196 C 0.37719 0.74690 0.34569
 C1197 C 0.35779 0.74718 0.32597
 C1198 C 0.33109 0.75184 0.33240
 C1199 C 0.32430 0.75643 0.35901
 C1200 C 0.34376 0.75634 0.37870
 H1201 H 0.41133 0.78558 0.44743
 H1202 H 0.44493 0.71544 0.41261
 H1203 H 0.36372 0.74350 0.30570
 H1204 H 0.30393 0.76007 0.36466
 H1205 H 0.41047 0.71580 0.37838
 H1206 H 0.39761 0.74337 0.34013
 H1207 H 0.37676 0.78608 0.41326
 H1208 H 0.33794 0.75967 0.39906
 C1209 C 0.10663 0.11032 0.25064
 C1210 C 0.09321 0.10430 0.22705
 C1211 C 0.07437 0.08404 0.22642
 C1212 C 0.06820 0.06975 0.24951
 C1213 C 0.08157 0.07597 0.27314
 C1214 C 0.10075 0.09591 0.27364
 C1215 C 0.12696 0.13141 0.25116
 C1216 C 0.15206 0.12648 0.26205
 C1217 C 0.17156 0.14611 0.26188
 C1218 C 0.16615 0.17121 0.25125
 C1219 C 0.14085 0.17628 0.24078
 C1220 C 0.12151 0.15646 0.24051
 H1221 H 0.06472 0.07935 0.20784
 H1222 H 0.07700 0.06550 0.29129
 H1223 H 0.19085 0.14167 0.27014
 H1224 H 0.13618 0.19539 0.23232
 H1225 H 0.11075 0.10036 0.29210
 H1226 H 0.15674 0.10724 0.27023
 H1227 H 0.09767 0.11496 0.20900
 H1228 H 0.10223 0.16073 0.23213
 C1229 C 0.60857 0.60771 0.75194
 C1230 C 0.59697 0.60027 0.72779
 C1231 C 0.57773 0.58039 0.72704
 C1232 C 0.56944 0.56809 0.75050
 C1233 C 0.58083 0.57566 0.77468
 C1234 C 0.60049 0.59513 0.77537
 C1235 C 0.62900 0.62865 0.75268
 C1236 C 0.65350 0.62404 0.76500
 C1237 C 0.67306 0.64363 0.76508
 C1238 C 0.66822 0.66836 0.75337
 C1239 C 0.64350 0.67307 0.74145
 C1240 C 0.62417 0.65329 0.74087
 H1241 H 0.56909 0.57476 0.70824
 H1242 H 0.57452 0.56640 0.79296
 H1243 H 0.69193 0.63951 0.77444
 H1244 H 0.63932 0.69189 0.73210
 H1245 H 0.60909 0.60070 0.79421
 H1246 H 0.65764 0.60511 0.77412
 H1247 H 0.60304 0.60964 0.70949
 H1248 H 0.60535 0.65726 0.73136
 C1249 C 0.89286 0.10809 0.74926
 C1250 C 0.89191 0.08687 0.73130
 C1251 C 0.91136 0.06724 0.73181
 C1252 C 0.93201 0.06839 0.75037
 C1253 C 0.93301 0.08949 0.76837
 C1254 C 0.91364 0.10922 0.76777
 C1255 C 0.87217 0.12890 0.74873
 C1256 C 0.87904 0.15568 0.75146
 C1257 C 0.85951 0.17526 0.75111
 C1258 C 0.83263 0.16846 0.74815
 C1259 C 0.82581 0.14163 0.74536
 C1260 C 0.84536 0.12210 0.74558
 H1261 H 0.91040 0.05117 0.71767
 H1262 H 0.94878 0.09062 0.78287
 H1263 H 0.86548 0.19570 0.75335
 H1264 H 0.80532 0.13566 0.74309
 H1265 H 0.91470 0.12516 0.78204
 H1266 H 0.89957 0.16152 0.75363
 H1267 H 0.87632 0.08565 0.71662
 H1268 H 0.83945 0.10160 0.74373
 C1269 C 0.39200 0.60860 0.24971
 C1270 C 0.39181 0.58803 0.23099
 C1271 C 0.41136 0.56850 0.23149
 C1272 C 0.43133 0.56907 0.25081
 C1273 C 0.43151 0.58948 0.26962
 C1274 C 0.41206 0.60912 0.26903
 C1275 C 0.37133 0.62943 0.24909
 C1276 C 0.37813 0.65611 0.25282
 C1277 C 0.35865 0.67572 0.25240
 C1278 C 0.33187 0.66907 0.24840
 C1279 C 0.32511 0.64235 0.24460
 C1280 C 0.34463 0.62277 0.24485
 H1281 H 0.41103 0.55298 0.21672
 H1282 H 0.44673 0.59015 0.28473
 H1283 H 0.36457 0.69607 0.25547
 H1284 H 0.30469 0.63651 0.24150
 H1285 H 0.41251 0.62455 0.28388
 H1286 H 0.39859 0.66184 0.25584
 H1287 H 0.37677 0.58730 0.21571
 H1288 H 0.33878 0.60234 0.24218
 C1289 C 0.10751 0.89120 0.74627
 C1290 C 0.11102 0.91486 0.73214
 C1291 C 0.09172 0.93462 0.73283
 C1292 C 0.06835 0.93130 0.74774
 C1293 C 0.06477 0.90737 0.76158
 C1294 C 0.08410 0.88764 0.76089
 C1295 C 0.12834 0.87048 0.74609
 C1296 C 0.12149 0.84357 0.74488
 C1297 C 0.14109 0.82408 0.74531
 C1298 C 0.16803 0.83104 0.74695
 C1299 C 0.17487 0.85799 0.74792
 C1300 C 0.15526 0.87746 0.74751
 H1301 H 0.09484 0.95237 0.72123
 H1302 H 0.04730 0.90422 0.77363
 H1303 H 0.13509 0.80354 0.74445
 H1304 H 0.19539 0.86411 0.74930
 H1305 H 0.08099 0.86980 0.77233
 H1306 H 0.10094 0.83757 0.74341
 H1307 H 0.12859 0.91798 0.72024
 H1308 H 0.16117 0.89800 0.74884
 C1309 C 0.60883 0.39256 0.24553
 C1310 C 0.60914 0.41325 0.22695
 C1311 C 0.58969 0.43290 0.22757
 C1312 C 0.56975 0.43234 0.24692
 C1313 C 0.56937 0.41170 0.26546
 C1314 C 0.58869 0.39195 0.26474
 C1315 C 0.62951 0.37173 0.24503
 C1316 C 0.62266 0.34507 0.24873
 C1317 C 0.64216 0.32548 0.24885
 C1318 C 0.66902 0.33213 0.24543
 C1319 C 0.67583 0.35882 0.24154
 C1320 C 0.65628 0.37838 0.24125
 H1321 H 0.59015 0.44858 0.21298
 H1322 H 0.55416 0.41100 0.28057
 H1323 H 0.63618 0.30515 0.25194
 H1324 H 0.69630 0.36465 0.23886
 H1325 H 0.58813 0.37642 0.27949
 H1326 H 0.60215 0.33933 0.25140
 H1327 H 0.62424 0.41404 0.21175
 H1328 H 0.66216 0.39881 0.23861
 C1329 C 0.89353 0.89222 0.25312
 C1330 C 0.89194 0.91352 0.23532
 C1331 C 0.91147 0.93310 0.23511
 C1332 C 0.93286 0.93184 0.25281
 C1333 C 0.93467 0.91049 0.27045
 C1334 C 0.91519 0.89083 0.27059
 C1335 C 0.87260 0.87160 0.25347
 C1336 C 0.87925 0.84473 0.25582
 C1337 C 0.85952 0.82532 0.25570
 C1338 C 0.83266 0.83236 0.25333
 C1339 C 0.82603 0.85928 0.25124
 C1340 C 0.84577 0.87865 0.25127
 H1341 H 0.90993 0.94928 0.22116
 H1342 H 0.95106 0.90922 0.28424
 H1343 H 0.86536 0.80479 0.25730
 H1344 H 0.80557 0.86545 0.24940
 H1345 H 0.91681 0.87478 0.28468
 H1346 H 0.89978 0.83869 0.25728
 H1347 H 0.87573 0.91489 0.22134
 H1348 H 0.84002 0.89922 0.24978
 C1349 C 0.39104 0.39213 0.75149
 C1350 C 0.38999 0.41275 0.73285
 C1351 C 0.40977 0.43209 0.73221
 C1352 C 0.43089 0.43122 0.75024
 C1353 C 0.43192 0.41078 0.76899
 C1354 C 0.41222 0.39136 0.76957
 C1355 C 0.37020 0.37140 0.75196
 C1356 C 0.37700 0.34468 0.75534
 C1357 C 0.35743 0.32511 0.75534
 C1358 C 0.33058 0.33181 0.75208
 C1359 C 0.32380 0.35860 0.74894
 C1360 C 0.34339 0.37815 0.74882
 H1361 H 0.40872 0.44769 0.71756
 H1362 H 0.44799 0.40993 0.78319
 H1363 H 0.36340 0.30469 0.75776
 H1364 H 0.30334 0.36451 0.74638
 H1365 H 0.41337 0.37591 0.78436
 H1366 H 0.39752 0.33886 0.75751
 H1367 H 0.37408 0.41368 0.71849
 H1368 H 0.33753 0.39861 0.74649
 C1369 C 0.10652 0.24019 0.89093
 C1370 C 0.09245 0.26309 0.89782
 C1371 C 0.07313 0.26226 0.91757
 C1372 C 0.06707 0.23837 0.93053
 C1373 C 0.08112 0.21540 0.92350
 C1374 C 0.10082 0.21637 0.90404
 C1375 C 0.12716 0.24131 0.87016
 C1376 C 0.15252 0.23096 0.87487
 C1377 C 0.17225 0.23285 0.85554
 C1378 C 0.16683 0.24469 0.83095
 C1379 C 0.14130 0.25465 0.82611
 C1380 C 0.12173 0.25320 0.84563
 H1381 H 0.06292 0.28034 0.92286
 H1382 H 0.07668 0.19670 0.93297
 H1383 H 0.19169 0.22481 0.85974
 H1384 H 0.13656 0.26390 0.80736
 H1385 H 0.11133 0.19843 0.89891
 H1386 H 0.15718 0.22183 0.89370
 H1387 H 0.09673 0.28174 0.88819
 H1388 H 0.10225 0.26119 0.84151
 C1389 C 0.60774 0.74999 0.39198
 C1390 C 0.59961 0.72619 0.40379
 C1391 C 0.57993 0.72624 0.42324
 C1392 C 0.56857 0.75014 0.43157
 C1393 C 0.57683 0.77394 0.41996
 C1394 C 0.59609 0.77385 0.40010
 C1395 C 0.62837 0.74994 0.37126
 C1396 C 0.62375 0.76236 0.34685
 C1397 C 0.64324 0.76228 0.32722
 C1398 C 0.66790 0.75029 0.33190
 C1399 C 0.67256 0.73802 0.35642
 C1400 C 0.65284 0.73761 0.37583
 H1401 H 0.57364 0.70770 0.43195
 H1402 H 0.56820 0.79253 0.42618
 H1403 H 0.63919 0.77194 0.30852
 H1404 H 0.69134 0.72849 0.36047
 H1405 H 0.60219 0.79241 0.39132
 H1406 H 0.60494 0.77188 0.34291
 H1407 H 0.60825 0.70758 0.39768
 H1408 H 0.65681 0.72801 0.39458
 C1409 C 0.89139 0.75178 0.89430
 C1410 C 0.89842 0.77533 0.90721
 C1411 C 0.91825 0.77536 0.92654
 C1412 C 0.93103 0.75172 0.93372
 C1413 C 0.92369 0.72811 0.92096
 C1414 C 0.90423 0.72818 0.90128
 C1415 C 0.87086 0.75182 0.87341
 C1416 C 0.87595 0.74009 0.84875
 C1417 C 0.85662 0.74016 0.82894
 C1418 C 0.83165 0.75150 0.83362
 C1419 C 0.82653 0.76312 0.85837
 C1420 C 0.84607 0.76350 0.87800
 H1421 H 0.92386 0.79392 0.93569
 H1422 H 0.93303 0.70957 0.92630
 H1423 H 0.86108 0.73100 0.81008
 H1424 H 0.80751 0.77214 0.86246
 H1425 H 0.89895 0.70975 0.89171
 H1426 H 0.89501 0.73112 0.84474
 H1427 H 0.88894 0.79380 0.90193
 H1428 H 0.84171 0.77257 0.89692
 C1429 C 0.39053 0.25223 0.39112
 C1430 C 0.39858 0.27585 0.40335
 C1431 C 0.41831 0.27554 0.42278
 C1432 C 0.42980 0.25155 0.43067
 C1433 C 0.42155 0.22791 0.41871
 C1434 C 0.40224 0.22827 0.39888
 C1435 C 0.37001 0.25256 0.37023
 C1436 C 0.37472 0.24026 0.34577
 C1437 C 0.35536 0.24056 0.32598
 C1438 C 0.33074 0.25268 0.33052
 C1439 C 0.32600 0.26487 0.35507
 C1440 C 0.34559 0.26505 0.37465
 H1441 H 0.42459 0.29395 0.43177
 H1442 H 0.43027 0.20926 0.42459
 H1443 H 0.35949 0.23096 0.30727
 H1444 H 0.30725 0.27450 0.35902
 H1445 H 0.39620 0.20983 0.38980
 H1446 H 0.39349 0.23065 0.34192
 H1447 H 0.38991 0.29454 0.39753
 H1448 H 0.34154 0.27457 0.39342
 C1449 C 0.10884 0.75220 0.10746
 C1450 C 0.09956 0.77609 0.09679
 C1451 C 0.07966 0.77599 0.07753
 C1452 C 0.06927 0.75199 0.06824
 C1453 C 0.07881 0.72810 0.07860
 C1454 C 0.09826 0.72821 0.09829
 C1455 C 0.12939 0.75229 0.12827
 C1456 C 0.12491 0.73924 0.15236
 C1457 C 0.14425 0.73941 0.17216
 C1458 C 0.16865 0.75212 0.16794
 C1459 C 0.17320 0.76500 0.14371
 C1460 C 0.15359 0.76535 0.12415
 H1461 H 0.07239 0.79459 0.06979
 H1462 H 0.07096 0.70942 0.07160
 H1463 H 0.14030 0.72926 0.19062
 H1464 H 0.19179 0.77508 0.14003
 H1465 H 0.10526 0.70958 0.10621
 H1466 H 0.10630 0.72916 0.15594
 H1467 H 0.10739 0.79480 0.10372
 H1468 H 0.15742 0.77547 0.10565
 C1469 C 0.60822 0.25080 0.60683
 C1470 C 0.60906 0.23248 0.58591
 C1471 C 0.58930 0.23236 0.56651
 C1472 C 0.56843 0.25062 0.56762
 C1473 C 0.56764 0.26908 0.58834
 C1474 C 0.58730 0.26911 0.60782
 C1475 C 0.62903 0.25072 0.62760
 C1476 C 0.62224 0.25377 0.65440
 C1477 C 0.64180 0.25348 0.67399
 C1478 C 0.66863 0.25027 0.66721
 C1479 C 0.67541 0.24737 0.64036
 C1480 C 0.65582 0.24751 0.62080
 H1481 H 0.59016 0.21793 0.55070
 H1482 H 0.55177 0.28344 0.58939
 H1483 H 0.63585 0.25582 0.69445
 H1484 H 0.69587 0.24491 0.63441
 H1485 H 0.58633 0.28367 0.62351
 H1486 H 0.60172 0.25600 0.66025
 H1487 H 0.62477 0.21795 0.58479
 H1488 H 0.66167 0.24543 0.60028
 C1489 C 0.89441 0.23849 0.10960
 C1490 C 0.89282 0.21995 0.08889
 C1491 C 0.91193 0.21961 0.06884
 C1492 C 0.93276 0.23801 0.06902
 C1493 C 0.93484 0.25598 0.09004
 C1494 C 0.91585 0.25625 0.11014
 C1495 C 0.87343 0.23991 0.13016
 C1496 C 0.88004 0.24409 0.15686
 C1497 C 0.86023 0.24629 0.17608
 C1498 C 0.83332 0.24450 0.16902
 C1499 C 0.82674 0.24017 0.14230
 C1500 C 0.84656 0.23785 0.12312
 H1501 H 0.91025 0.20536 0.05292
 H1502 H 0.95086 0.27024 0.09052
 H1503 H 0.86606 0.24947 0.19647
 H1504 H 0.80624 0.23856 0.13615
 H1505 H 0.91751 0.27089 0.12569
 H1506 H 0.90057 0.24547 0.16293
 H1507 H 0.87676 0.20575 0.08819
 H1508 H 0.84084 0.23495 0.10266
 C1509 C 0.39252 0.74809 0.60987
 C1510 C 0.40059 0.72449 0.59767
 C1511 C 0.42020 0.72487 0.57815
 C1512 C 0.43155 0.74890 0.57015
 C1513 C 0.42334 0.77252 0.58215
 C1514 C 0.40414 0.77209 0.60206
 C1515 C 0.37197 0.74772 0.63068
 C1516 C 0.37661 0.75998 0.65518
 C1517 C 0.35714 0.75974 0.67483
 C1518 C 0.33247 0.74774 0.67010
 C1519 C 0.32781 0.73556 0.64552
 C1520 C 0.34751 0.73531 0.62609
 H1521 H 0.42646 0.70647 0.56914
 H1522 H 0.43196 0.79121 0.57618
 H1523 H 0.36119 0.76934 0.69357
 H1524 H 0.30903 0.72602 0.64143
 H1525 H 0.39808 0.79052 0.61114
 H1526 H 0.39541 0.76954 0.65915
 H1527 H 0.39197 0.70577 0.60353
 H1528 H 0.34351 0.72583 0.60728
 C1529 C 0.24777 0.10778 0.89193
 C1530 C 0.26476 0.10987 0.91391
 C1531 C 0.26476 0.09042 0.93353
 C1532 C 0.24770 0.06858 0.93162
 C1533 C 0.23078 0.06638 0.90968
 C1534 C 0.23083 0.08578 0.88999
 C1535 C 0.24774 0.12851 0.87114
 C1536 C 0.24636 0.12161 0.84424
 C1537 C 0.24656 0.14115 0.82467
 C1538 C 0.24810 0.16805 0.83158
 C1539 C 0.24930 0.17492 0.85854
 C1540 C 0.24917 0.15537 0.87807
 H1541 H 0.27813 0.09232 0.95021
 H1542 H 0.21742 0.04969 0.90793
 H1543 H 0.24556 0.13513 0.80413
 H1544 H 0.25035 0.19542 0.86461
 H1545 H 0.21732 0.08379 0.87345
 H1546 H 0.24551 0.10106 0.83829
 H1547 H 0.27830 0.12639 0.91575
 H1548 H 0.24988 0.16131 0.89866
 C1549 C 0.74742 0.61052 0.39376
 C1550 C 0.72918 0.58951 0.39290
 C1551 C 0.72965 0.56978 0.41224
 C1552 C 0.74848 0.57059 0.43268
 C1553 C 0.76661 0.59160 0.43370
 C1554 C 0.76606 0.61143 0.41444
 C1555 C 0.74723 0.63124 0.37297
 C1556 C 0.75047 0.65799 0.37969
 C1557 C 0.75063 0.67746 0.36007
 C1558 C 0.74772 0.67059 0.33324
 C1559 C 0.74434 0.64380 0.32656
 C1560 C 0.74404 0.62437 0.34621
 H1561 H 0.71539 0.55379 0.41128
 H1562 H 0.78133 0.59248 0.44929
 H1563 H 0.75318 0.69790 0.36595
 H1564 H 0.74196 0.63780 0.30612
 H1565 H 0.78053 0.62721 0.41544
 H1566 H 0.75265 0.66389 0.40019
 H1567 H 0.71439 0.58848 0.37740
 H1568 H 0.74177 0.60388 0.34042
 C1569 C 0.75311 0.10736 0.10872
 C1570 C 0.73594 0.08552 0.11062
 C1571 C 0.73561 0.06618 0.09088
 C1572 C 0.75248 0.06827 0.06891
 C1573 C 0.76980 0.08991 0.06704
 C1574 C 0.77008 0.10929 0.08674
 C1575 C 0.75309 0.12819 0.12942
 C1576 C 0.75468 0.15501 0.12236
 C1577 C 0.75434 0.17467 0.14177
 C1578 C 0.75243 0.16799 0.16873
 C1579 C 0.75101 0.14112 0.17579
 C1580 C 0.75128 0.12146 0.15635
 H1581 H 0.72204 0.04966 0.09258
 H1582 H 0.78311 0.09172 0.05033
 H1583 H 0.75551 0.19514 0.13558
 H1584 H 0.74963 0.13524 0.19635
 H1585 H 0.78378 0.12568 0.08491
 H1586 H 0.75577 0.16082 0.10176
 H1587 H 0.72240 0.08366 0.12715
 H1588 H 0.75037 0.10094 0.16241
 C1589 C 0.25228 0.60743 0.60930
 C1590 C 0.23359 0.58681 0.61018
 C1591 C 0.23306 0.56752 0.59039
 C1592 C 0.25126 0.56844 0.56943
 C1593 C 0.27009 0.58885 0.56860
 C1594 C 0.27055 0.60822 0.58831
 C1595 C 0.25255 0.62817 0.63007
 C1596 C 0.25593 0.65488 0.62324
 C1597 C 0.25573 0.67448 0.64272
 C1598 C 0.25223 0.66780 0.66953
 C1599 C 0.24911 0.64103 0.67637
 C1600 C 0.24919 0.62145 0.65685
 H1601 H 0.21835 0.55194 0.59128
 H1602 H 0.28441 0.58974 0.55266
 H1603 H 0.25827 0.69488 0.63674
 H1604 H 0.24645 0.63516 0.69681
 H1605 H 0.28538 0.62367 0.58730
 H1606 H 0.25830 0.66067 0.60274
 H1607 H 0.21909 0.58586 0.62594
 H1608 H 0.24686 0.60099 0.66273
 C1609 C 0.75257 0.89301 0.89184
 C1610 C 0.76965 0.89136 0.91378
 C1611 C 0.76945 0.91098 0.93325
 C1612 C 0.75211 0.93257 0.93121
 C1613 C 0.73516 0.93437 0.90927
 C1614 C 0.73540 0.91480 0.88975
 C1615 C 0.75253 0.87199 0.87133
 C1616 C 0.75070 0.87851 0.84436
 C1617 C 0.75045 0.85871 0.82507
 C1618 C 0.75194 0.83190 0.83230
 C1619 C 0.75385 0.82540 0.85931
 C1620 C 0.75417 0.84522 0.87858
 H1621 H 0.78282 0.90937 0.94994
 H1622 H 0.72156 0.95083 0.90744
 H1623 H 0.74906 0.86446 0.80447
 H1624 H 0.75508 0.80498 0.86562
 H1625 H 0.72180 0.91645 0.87325
 H1626 H 0.74975 0.89898 0.83814
 H1627 H 0.78335 0.87503 0.91575
 H1628 H 0.75530 0.83957 0.89923
 C1629 C 0.25199 0.39358 0.39060
 C1630 C 0.27023 0.39265 0.41163
 C1631 C 0.26983 0.41192 0.43143
 C1632 C 0.25108 0.43237 0.43066
 C1633 C 0.23290 0.43342 0.40967
 C1634 C 0.23338 0.41424 0.38978
 C1635 C 0.25219 0.37294 0.36975
 C1636 C 0.24891 0.37977 0.34299
 C1637 C 0.24875 0.36025 0.32339
 C1638 C 0.25171 0.33344 0.33016
 C1639 C 0.25511 0.32667 0.35695
 C1640 C 0.25540 0.34619 0.37650
 H1641 H 0.28414 0.41094 0.44739
 H1642 H 0.21826 0.44904 0.40882
 H1643 H 0.24615 0.36619 0.30296
 H1644 H 0.25754 0.30623 0.36288
 H1645 H 0.21890 0.41528 0.37400
 H1646 H 0.24670 0.40025 0.33718
 H1647 H 0.28500 0.37716 0.41259
 H1648 H 0.25770 0.34032 0.39698
 C1649 C 0.24815 0.89261 0.10801
 C1650 C 0.26518 0.89076 0.08607
 C1651 C 0.26513 0.91032 0.06656
 C1652 C 0.24795 0.93203 0.06852
 C1653 C 0.23098 0.93400 0.09042
 C1654 C 0.23109 0.91449 0.11001
 C1655 C 0.24821 0.87180 0.12871
 C1656 C 0.24683 0.87861 0.15563
 C1657 C 0.24713 0.85902 0.17514
 C1658 C 0.24875 0.83214 0.16815
 C1659 C 0.24996 0.82536 0.14118
 C1660 C 0.24974 0.84496 0.12170
 H1661 H 0.27853 0.90859 0.04991
 H1662 H 0.21751 0.95057 0.09221
 H1663 H 0.24614 0.86499 0.19570
 H1664 H 0.25109 0.80487 0.13506
 H1665 H 0.21755 0.91630 0.12653
 H1666 H 0.24591 0.89913 0.16165
 H1667 H 0.27881 0.87434 0.08419
 H1668 H 0.25046 0.83911 0.10109
 C1669 C 0.74794 0.39024 0.60591
 C1670 C 0.76656 0.38948 0.58522
 C1671 C 0.76703 0.40937 0.56604
 C1672 C 0.74883 0.43029 0.56713
 C1673 C 0.73003 0.43095 0.58756
 C1674 C 0.72963 0.41115 0.60683
 C1675 C 0.74785 0.36949 0.62667
 C1676 C 0.74463 0.37634 0.65342
 C1677 C 0.74494 0.35690 0.67305
 C1678 C 0.74838 0.33013 0.66638
 C1679 C 0.75140 0.32327 0.63957
 C1680 C 0.75121 0.34275 0.61994
 H1681 H 0.78172 0.40861 0.55043
 H1682 H 0.71571 0.44685 0.58857
 H1683 H 0.74249 0.36291 0.69348
 H1684 H 0.75403 0.30285 0.63370
 H1685 H 0.71484 0.41205 0.62233
 H1686 H 0.74228 0.39681 0.65921
 H1687 H 0.78108 0.37378 0.58418
 H1688 H 0.75344 0.33687 0.59945
 C1689 C 0.10802 0.10721 0.75000
 C1690 C 0.09448 0.10116 0.72649
 C1691 C 0.07521 0.08132 0.72612
 C1692 C 0.06873 0.06749 0.74939
 C1693 C 0.08224 0.07372 0.77295
 C1694 C 0.10184 0.09324 0.77319
 C1695 C 0.12854 0.12809 0.75031
 C1696 C 0.15358 0.12313 0.76136
 C1697 C 0.17310 0.14275 0.76127
 C1698 C 0.16776 0.16783 0.75055
 C1699 C 0.14257 0.17286 0.73982
 C1700 C 0.12323 0.15308 0.73947
 H1701 H 0.06546 0.07659 0.70759
 H1702 H 0.07744 0.06357 0.79122
 H1703 H 0.19230 0.13838 0.76981
 H1704 H 0.13794 0.19198 0.73136
 H1705 H 0.11190 0.09774 0.79159
 H1706 H 0.15813 0.10395 0.76972
 H1707 H 0.09914 0.11151 0.70830
 H1708 H 0.10399 0.15737 0.73100
 C1709 C 0.60823 0.60985 0.25184
 C1710 C 0.59661 0.60205 0.22781
 C1711 C 0.57749 0.58206 0.22735
 C1712 C 0.56927 0.57004 0.25099
 C1713 C 0.58073 0.57792 0.27504
 C1714 C 0.60027 0.59751 0.27544
 C1715 C 0.62869 0.63076 0.25225
 C1716 C 0.65318 0.62628 0.26462
 C1717 C 0.67277 0.64584 0.26447
 C1718 C 0.66797 0.67042 0.25243
 C1719 C 0.64327 0.67503 0.24046
 C1720 C 0.62390 0.65526 0.24012
 H1721 H 0.56892 0.57606 0.20863
 H1722 H 0.57460 0.56877 0.29343
 H1723 H 0.69158 0.64183 0.27398
 H1724 H 0.63910 0.69377 0.23096
 H1725 H 0.60893 0.60331 0.29418
 H1726 H 0.65729 0.60747 0.27401
 H1727 H 0.60263 0.61119 0.20937
 H1728 H 0.60508 0.65914 0.23059
 C1729 C 0.10853 0.89306 0.24712
 C1730 C 0.11214 0.91663 0.23286
 C1731 C 0.09287 0.93645 0.23337
 C1732 C 0.06945 0.93326 0.24822
 C1733 C 0.06583 0.90945 0.26227
 C1734 C 0.08512 0.88968 0.26176
 C1735 C 0.12919 0.87216 0.24694
 C1736 C 0.12210 0.84530 0.24583
 C1737 C 0.14154 0.82564 0.24614
 C1738 C 0.16855 0.83237 0.24755
 C1739 C 0.17562 0.85926 0.24846
 C1740 C 0.15618 0.87890 0.24818
 H1741 H 0.09604 0.95409 0.22162
 H1742 H 0.04832 0.90641 0.27429
 H1743 H 0.13535 0.80515 0.24525
 H1744 H 0.19621 0.86520 0.24959
 H1745 H 0.08192 0.87193 0.27331
 H1746 H 0.10150 0.83947 0.24448
 H1747 H 0.12972 0.91961 0.22095
 H1748 H 0.16228 0.89940 0.24940
 C1749 C 0.60796 0.39098 0.74598
 C1750 C 0.60823 0.41142 0.72711
 C1751 C 0.58863 0.43093 0.72732
 C1752 C 0.56853 0.43042 0.74649
 C1753 C 0.56827 0.41013 0.76542
 C1754 C 0.58774 0.39053 0.76511
 C1755 C 0.62874 0.37026 0.74584
 C1756 C 0.62203 0.34361 0.74989
 C1757 C 0.64161 0.32411 0.75012
 C1758 C 0.66841 0.33084 0.74647
 C1759 C 0.67509 0.35753 0.74229
 C1760 C 0.65546 0.37700 0.74191
 H1761 H 0.58908 0.44642 0.71253
 H1762 H 0.55301 0.40956 0.78047
 H1763 H 0.63574 0.30376 0.75332
 H1764 H 0.69551 0.36342 0.73932
 H1765 H 0.58724 0.37523 0.78010
 H1766 H 0.60155 0.33781 0.75265
 H1767 H 0.62341 0.41211 0.71198
 H1768 H 0.66124 0.39741 0.73898
 C1769 C 0.89199 0.10802 0.25123
 C1770 C 0.89110 0.08700 0.23304
 C1771 C 0.91079 0.06761 0.23314
 C1772 C 0.93161 0.06881 0.25151
 C1773 C 0.93251 0.08967 0.26977
 C1774 C 0.91291 0.10916 0.26960
 C1775 C 0.87124 0.12877 0.25095
 C1776 C 0.87812 0.15553 0.25378
 C1777 C 0.85863 0.17510 0.25344
 C1778 C 0.83175 0.16835 0.25038
 C1779 C 0.82488 0.14154 0.24756
 C1780 C 0.84442 0.12198 0.24779
 H1781 H 0.90989 0.05170 0.21882
 H1782 H 0.94840 0.09081 0.28415
 H1783 H 0.86466 0.19554 0.25561
 H1784 H 0.80440 0.13563 0.24514
 H1785 H 0.91392 0.12495 0.28404
 H1786 H 0.89866 0.16136 0.25592
 H1787 H 0.87541 0.08580 0.21847
 H1788 H 0.83851 0.10149 0.24582
 C1789 C 0.39178 0.60768 0.75122
 C1790 C 0.39153 0.58746 0.73213
 C1791 C 0.41123 0.56807 0.73206
 C1792 C 0.43145 0.56849 0.75112
 C1793 C 0.43158 0.58845 0.77041
 C1794 C 0.41199 0.60796 0.77039
 C1795 C 0.37108 0.62848 0.75107
 C1796 C 0.37788 0.65512 0.75508
 C1797 C 0.35841 0.67474 0.75480
 C1798 C 0.33165 0.66813 0.75069
 C1799 C 0.32486 0.64145 0.74671
 C1800 C 0.34437 0.62186 0.74682
 H1801 H 0.41086 0.55281 0.71702
 H1802 H 0.44691 0.58892 0.78541
 H1803 H 0.36435 0.69508 0.75792
 H1804 H 0.30446 0.63565 0.74343
 H1805 H 0.41246 0.62310 0.78554
 H1806 H 0.39835 0.66082 0.75809
 H1807 H 0.37636 0.58690 0.71698
 H1808 H 0.33853 0.60146 0.74392
 C1809 C 0.89256 0.89148 0.75306
 C1810 C 0.89090 0.91282 0.73529
 C1811 C 0.91035 0.93248 0.73515
 C1812 C 0.93171 0.93129 0.75289
 C1813 C 0.93351 0.90998 0.77058
 C1814 C 0.91412 0.89023 0.77066
 C1815 C 0.87184 0.87064 0.75321
 C1816 C 0.87878 0.84385 0.75555
 C1817 C 0.85926 0.82422 0.75539
 C1818 C 0.83233 0.83097 0.75297
 C1819 C 0.82542 0.85782 0.75082
 C1820 C 0.84495 0.87740 0.75089
 H1821 H 0.90881 0.94863 0.72115
 H1822 H 0.94988 0.90875 0.78439
 H1823 H 0.86531 0.80376 0.75710
 H1824 H 0.80489 0.86377 0.74902
 H1825 H 0.91578 0.87418 0.78474
 H1826 H 0.89936 0.83803 0.75710
 H1827 H 0.87474 0.91410 0.72125
 H1828 H 0.83898 0.89791 0.74941
 C1829 C 0.39283 0.39205 0.24962
 C1830 C 0.39190 0.41286 0.23119
 C1831 C 0.41145 0.43243 0.23115
 C1832 C 0.43218 0.43166 0.24964
 C1833 C 0.43328 0.41085 0.26796
 C1834 C 0.41381 0.39117 0.26793
 C1835 C 0.37188 0.37143 0.24982
 C1836 C 0.37844 0.34464 0.25308
 C1837 C 0.35869 0.32524 0.25305
 C1838 C 0.33189 0.33222 0.24990
 C1839 C 0.32536 0.35908 0.24682
 C1840 C 0.34513 0.37843 0.24672
 H1841 H 0.41043 0.44823 0.21672
 H1842 H 0.44913 0.40998 0.28240
 H1843 H 0.36445 0.30477 0.25550
 H1844 H 0.30495 0.36520 0.24439
 H1845 H 0.41489 0.37553 0.28251
 H1846 H 0.39892 0.33865 0.25527
 H1847 H 0.37619 0.41384 0.21662
 H1848 H 0.33944 0.39895 0.24451
   
