data_POSCAR
  _audit_creation_date              2014-09-24
  _audit_creation_method            'ToBaCCo'
  _symmetry_space_group_name_H-M    'P1'
  _symmetry_Int_Tables_number       1
  _symmetry_cell_setting            triclinic
  loop_
  _symmetry_equiv_pos_as_xyz
 x,y,z
_cell_length_a 54.5541
_cell_length_b 51.8935
_cell_length_c 52.4431
_cell_angle_alpha 89.834600
_cell_angle_beta 89.866600
_cell_angle_gamma 90.014500
loop_
  _atom_site_label
  _atom_site_type_symbol
  _atom_site_fract_x
  _atom_site_fract_y
  _atom_site_fract_z
C1 C 0.38124 0.30884 -0.02649
 C2 C 0.39280 0.30188 -0.00363
 C3 C 0.38160 0.30578 0.02000
 C4 C 0.35922 0.31932 0.02137
 C5 C 0.34760 0.32758 -0.00143
 C6 C 0.35823 0.32165 -0.02547
 C7 C 0.34593 0.32937 -0.04774
 C8 C 0.32354 0.34213 -0.04653
 C9 C 0.31302 0.34910 -0.02300
 C10 C 0.32498 0.34118 -0.00017
 C11 C 0.34790 0.32425 0.04493
 C12 C 0.32582 0.33755 0.04620
 C13 C 0.31417 0.34637 0.02396
 C14 C 0.29158 0.35953 0.02518
 C15 C 0.27981 0.36666 0.00264
 C16 C 0.29012 0.36222 -0.02152
 H17 H 0.35346 0.32561 -0.06646
 H18 H 0.31447 0.34605 -0.06441
 H19 H 0.35605 0.31791 0.06266
 H20 H 0.31778 0.34053 0.06484
 H21 H 0.40981 0.29103 -0.00426
 H22 H 0.26285 0.37750 0.00415
 C23 C 0.71050 0.63704 0.02411
 C24 C 0.72139 0.63027 0.00097
 C25 C 0.71171 0.63793 -0.02264
 C26 C 0.69043 0.65379 -0.02293
 C27 C 0.67930 0.66114 0.00055
 C28 C 0.68929 0.65261 0.02412
 C29 C 0.67851 0.66083 0.04706
 C30 C 0.65843 0.67732 0.04702
 C31 C 0.64841 0.68634 0.02403
 C32 C 0.65882 0.67812 0.00055
 C33 C 0.68124 0.66438 -0.04575
 C34 C 0.66115 0.68085 -0.04572
 C35 C 0.64962 0.68794 -0.02285
 C36 C 0.62997 0.70571 -0.02261
 C37 C 0.61993 0.71348 0.00067
 C38 C 0.62894 0.70429 0.02388
 H39 H 0.68586 0.65508 0.06535
 H40 H 0.65113 0.68334 0.06525
 H41 H 0.68999 0.66088 -0.06391
 H42 H 0.65517 0.68857 -0.06386
 H43 H 0.73736 0.61780 0.00147
 H44 H 0.60521 0.72756 0.00075
 C45 C 0.64092 0.28280 1.02191
 C46 C 0.63278 0.27461 0.99788
 C47 C 0.64099 0.28585 0.97518
 C48 C 0.65863 0.30576 0.97611
 C49 C 0.66737 0.31444 1.00011
 C50 C 0.65857 0.30300 1.02312
 C51 C 0.66920 0.31063 1.04637
 C52 C 0.68692 0.32988 1.04727
 C53 C 0.69533 0.34186 1.02490
 C54 C 0.68573 0.33391 1.00103
 C55 C 0.66854 0.31640 0.95366
 C56 C 0.68645 0.33545 0.95460
 C57 C 0.69521 0.34461 0.97803
 C58 C 0.71398 0.36341 0.97915
 C59 C 0.72280 0.37128 1.00286
 C60 C 0.71399 0.36074 1.02562
 H61 H 0.66458 0.30128 1.06417
 H62 H 0.69444 0.33483 1.06570
 H63 H 0.66298 0.30968 0.93505
 H64 H 0.69369 0.34255 0.93669
 H65 H 0.61876 0.25982 0.99673
 H66 H 0.73719 0.38571 1.00361
 C67 C 0.28323 0.64256 0.97518
 C68 C 0.27249 0.63474 0.99810
 C69 C 0.28340 0.63944 1.02186
 C70 C 0.30581 0.65352 1.02257
 C71 C 0.31656 0.66239 0.99939
 C72 C 0.30520 0.65690 0.97566
 C73 C 0.31565 0.66651 0.95307
 C74 C 0.33721 0.68073 0.95356
 C75 C 0.34918 0.68591 0.97667
 C76 C 0.33858 0.67714 0.99989
 C77 C 0.31704 0.66031 1.04572
 C78 C 0.33890 0.67408 1.04617
 C79 C 0.34974 0.68337 1.02359
 C80 C 0.37197 0.69777 1.02386
 C81 C 0.38253 0.70512 1.00052
 C82 C 0.37120 0.70015 0.97723
 H83 H 0.30705 0.66345 0.93476
 H84 H 0.34432 0.68774 0.93556
 H85 H 0.30900 0.65539 1.06392
 H86 H 0.34720 0.67720 1.06459
 H87 H 0.25599 0.62308 0.99719
 H88 H 0.39914 0.71664 1.00040
 C89 C 0.02296 0.36039 0.28892
 C90 C 0.00106 0.36916 0.27835
 C91 C -0.02192 0.36009 0.28653
 C92 C -0.02272 0.34079 0.30589
 C93 C -0.00051 0.33186 0.31707
 C94 C 0.02238 0.34170 0.30848
 C95 C 0.04414 0.33174 0.31879
 C96 C 0.04359 0.31252 0.33723
 C97 C 0.02125 0.30243 0.34611
 C98 C -0.00108 0.31209 0.33598
 C99 C -0.04472 0.32834 0.31261
 C100 C -0.04526 0.30902 0.33103
 C101 C -0.02384 0.30118 0.34377
 C102 C -0.02418 0.28100 0.36227
 C103 C -0.00173 0.27166 0.37157
 C104 C 0.02073 0.28206 0.36398
 H105 H 0.06192 0.33827 0.31229
 H106 H 0.06098 0.30522 0.34398
 H107 H -0.06172 0.33253 0.30292
 H108 H -0.06264 0.29957 0.33429
 H109 H 0.00207 0.38420 0.26396
 H110 H -0.00158 0.25661 0.38598
 C111 C 0.02103 0.62546 0.70221
 C112 C -0.00167 0.61420 0.70744
 C113 C -0.02367 0.62570 0.69962
 C114 C -0.02275 0.64870 0.68487
 C115 C 0.00033 0.65915 0.67763
 C116 C 0.02229 0.64766 0.68666
 C117 C 0.04491 0.65898 0.68041
 C118 C 0.04607 0.68064 0.66483
 C119 C 0.02467 0.69189 0.65492
 C120 C 0.00150 0.68140 0.66173
 C121 C -0.04418 0.66107 0.67644
 C122 C -0.04305 0.68328 0.66161
 C123 C -0.02047 0.69330 0.65305
 C124 C -0.01910 0.71579 0.63745
 C125 C 0.00413 0.72568 0.63113
 C126 C 0.02584 0.71384 0.63898
 H127 H 0.06198 0.65112 0.68743
 H128 H 0.06398 0.68871 0.66094
 H129 H -0.06217 0.65376 0.68125
 H130 H -0.06024 0.69260 0.65725
 H131 H -0.00224 0.59721 0.71957
 H132 H 0.00545 0.74209 0.61833
 C133 C 1.02723 0.70845 0.36480
 C134 C 1.00523 0.71690 0.37562
 C135 C 0.98251 0.70850 0.36670
 C136 C 0.98156 0.69051 0.34652
 C137 C 1.00373 0.68133 0.33551
 C138 C 1.02665 0.69053 0.34452
 C139 C 1.04821 0.68261 0.33219
 C140 C 1.04745 0.66556 0.31177
 C141 C 1.02510 0.65525 0.30306
 C142 C 1.00293 0.66380 0.31470
 C143 C 0.95908 0.68235 0.33635
 C144 C 0.95827 0.66529 0.31599
 C145 C 0.97990 0.65574 0.30495
 C146 C 0.97910 0.63921 0.28365
 C147 C 1.00094 0.63114 0.27233
 C148 C 1.02404 0.63840 0.28168
 H149 H 1.06593 0.69003 0.33778
 H150 H 1.06462 0.66134 0.30238
 H151 H 0.94181 0.68944 0.34367
 H152 H 0.94043 0.66014 0.30864
 H153 H 1.00580 0.73067 0.39115
 H154 H 0.99978 0.61783 0.25644
 C155 C 1.01979 0.36359 0.71473
 C156 C 0.99749 0.37396 0.72293
 C157 C 0.97507 0.36537 0.71328
 C158 C 0.97482 0.34592 0.69443
 C159 C 0.99732 0.33541 0.68555
 C160 C 1.01985 0.34396 0.69605
 C161 C 1.04167 0.33181 0.68852
 C162 C 1.04158 0.31239 0.67030
 C163 C 1.01972 0.30462 0.65834
 C164 C 0.99723 0.31569 0.66675
 C165 C 0.95269 0.33599 0.68499
 C166 C 0.95257 0.31669 0.66670
 C167 C 0.97457 0.30649 0.65710
 C168 C 0.97448 0.28657 0.63886
 C169 C 0.99664 0.27592 0.63076
 C170 C 1.01940 0.28463 0.63978
 H171 H 1.05906 0.33672 0.69712
 H172 H 1.05886 0.30305 0.66636
 H173 H 0.93515 0.34269 0.69197
 H174 H 0.93494 0.30949 0.66055
 H175 H 0.99756 0.38910 0.73716
 H176 H 0.99606 0.26129 0.61603
 C177 C 0.28875 -0.02135 0.36246
 C178 C 0.28025 0.00243 0.37152
 C179 C 0.29100 0.02578 0.36449
 C180 C 0.31101 0.02581 0.34739
 C181 C 0.32010 0.00207 0.33775
 C182 C 0.30899 -0.02162 0.34528
 C183 C 0.31685 -0.04447 0.33348
 C184 C 0.33575 -0.04437 0.31563
 C185 C 0.34791 -0.02144 0.30876
 C186 C 0.33949 0.00216 0.31948
 C187 C 0.32131 0.04904 0.33872
 C188 C 0.34012 0.04913 0.32086
 C189 C 0.34946 0.02601 0.31095
 C190 C 0.36765 0.02619 0.29177
 C191 C 0.37572 0.00293 0.28147
 C192 C 0.36657 -0.02103 0.28968
 H193 H 0.30778 -0.06265 0.33704
 H194 H 0.33987 -0.06247 0.30647
 H195 H 0.31446 0.06749 0.34510
 H196 H 0.34683 0.06766 0.31443
 H197 H 0.26523 0.00285 0.38514
 H198 H 0.39017 0.00361 0.26722
 C199 C 0.62861 0.02155 0.70426
 C200 C 0.61698 -0.00193 0.70884
 C201 C 0.62581 -0.02528 0.69890
 C202 C 0.64696 -0.02473 0.68292
 C203 C 0.65853 -0.00073 0.67743
 C204 C 0.64936 0.02244 0.68822
 C205 C 0.66141 0.04581 0.68305
 C206 C 0.68162 0.04667 0.66690
 C207 C 0.69073 0.02415 0.65552
 C208 C 0.67938 0.00015 0.66112
 C209 C 0.65611 -0.04711 0.67111
 C210 C 0.67708 -0.04636 0.65595
 C211 C 0.68895 -0.02296 0.65059
 C212 C 0.71027 -0.02193 0.63516
 C213 C 0.72092 0.00195 0.62960
 C214 C 0.71130 0.02492 0.63914
 H215 H 0.65533 0.06373 0.69144
 H216 H 0.69024 0.06518 0.66369
 H217 H 0.64708 -0.06552 0.67316
 H218 H 0.68367 -0.06437 0.64822
 H219 H 0.60137 -0.00205 0.72171
 H220 H 0.73686 0.00269 0.61720
 C221 C 0.28985 0.97696 0.63949
 C222 C 0.27874 1.00023 0.63285
 C223 C 0.28833 1.02418 0.64019
 C224 C 0.30986 1.02469 0.65546
 C225 C 0.32117 1.00106 0.66278
 C226 C 0.31114 0.97715 0.65473
 C227 C 0.32196 0.95407 0.66305
 C228 C 0.34225 0.95429 0.67902
 C229 C 0.35258 0.97761 0.68728
 C230 C 0.34196 1.00125 0.67913
 C231 C 0.31918 1.04785 0.66545
 C232 C 0.33960 1.04802 0.68129
 C233 C 0.35137 1.02501 0.68827
 C234 C 0.37152 1.02498 0.70522
 C235 C 0.38175 1.00153 0.71294
 C236 C 0.37256 0.97794 0.70442
 H237 H 0.31447 0.93553 0.65781
 H238 H 0.34943 0.93590 0.68521
 H239 H 0.31033 1.06613 0.66192
 H240 H 0.34564 1.06643 0.68859
 H241 H 0.26271 0.99959 0.62064
 H242 H 0.39698 1.00162 0.72622
 C243 C 0.62848 0.97421 0.29631
 C244 C 0.61575 0.99705 0.29178
 C245 C 0.62184 1.02035 0.30383
 C246 C 0.64118 1.02021 0.32205
 C247 C 0.65479 0.99721 0.32634
 C248 C 0.64851 0.97421 0.31325
 C249 C 0.66247 0.95184 0.31729
 C250 C 0.68163 0.95163 0.33467
 C251 C 0.68756 0.97379 0.34865
 C252 C 0.67436 0.99697 0.34425
 C253 C 0.64595 1.04162 0.33767
 C254 C 0.66493 1.04131 0.35537
 C255 C 0.68022 1.01966 0.35819
 C256 C 0.69987 1.01919 0.37608
 C257 C 0.71236 0.99582 0.38002
 C258 C 0.70648 0.97338 0.36686
 H259 H 0.65874 0.93424 0.30700
 H260 H 0.69175 0.93386 0.33709
 H261 H 0.63448 1.05859 0.33709
 H262 H 0.66687 1.05805 0.36741
 H263 H 0.60118 0.99662 0.27775
 H264 H 0.72765 0.99502 0.39318
 O265 O 0.86029 0.82353 0.47505
 O266 O 0.82490 0.85942 0.52269
 O267 O 0.86016 0.82633 0.52429
 O268 O 0.82543 0.85721 0.47307
 O269 O 0.79788 0.82607 0.47438
 O270 O 0.83331 0.79453 0.52596
 O271 O 0.79722 0.82836 0.52393
 O272 O 0.83339 0.79179 0.47657
 Cu273 Cu 0.84534 0.84479 0.49860
 Cu274 Cu 0.81266 0.80702 0.50037
 C275 C 0.85315 0.80142 0.46789
 C276 C 0.80501 0.85015 0.53138
 C277 C 0.85296 0.80509 0.53372
 C278 C 0.80574 0.84714 0.46499
 O279 O 0.17777 0.14338 0.52827
 O280 O 0.14431 0.17585 0.47728
 O281 O 0.18009 0.14366 0.47872
 O282 O 0.14257 0.17657 0.52660
 O283 O 0.16920 0.20854 0.52803
 O284 O 0.20704 0.17540 0.47959
 O285 O 0.17030 0.20846 0.47841
 O286 O 0.20513 0.17471 0.52925
 Cu287 Cu 0.15858 0.15666 0.50266
 Cu288 Cu 0.19065 0.19502 0.50390
 C289 C 0.19711 0.15321 0.53745
 C290 C 0.15130 0.19771 0.46924
 C291 C 0.19991 0.15383 0.47093
 C292 C 0.14929 0.19820 0.53544
 O293 O 0.17998 0.85638 0.47558
 O294 O 0.14742 0.82104 0.52564
 O295 O 0.18078 0.85607 0.52520
 O296 O 0.14693 0.82075 0.47619
 O297 O 0.17545 0.79059 0.47564
 O298 O 0.21006 0.82669 0.52453
 O299 O 0.17587 0.79078 0.52524
 O300 O 0.20916 0.82695 0.47475
 Cu301 Cu 0.16097 0.84155 0.50066
 Cu302 Cu 0.19559 0.80575 0.50000
 C303 C 0.20002 0.84794 0.46656
 C304 C 0.15588 0.79986 0.53395
 C305 C 0.20114 0.84751 0.53326
 C306 C 0.15518 0.79957 0.46767
 O307 O 0.85253 0.18033 0.52360
 O308 O 0.81372 0.14305 0.48057
 O309 O 0.85017 0.17583 0.47419
 O310 O 0.81828 0.14750 0.52881
 O311 O 0.79010 0.17802 0.52683
 O312 O 0.82450 0.20865 0.47380
 O313 O 0.78778 0.17558 0.47732
 O314 O 0.82555 0.21204 0.52333
 Cu315 Cu 0.83649 0.15859 0.50149
 Cu316 Cu 0.80429 0.19684 0.50006
 C317 C 0.84544 0.20224 0.53137
 C318 C 0.79390 0.15257 0.47215
 C319 C 0.84345 0.19740 0.46514
 C320 C 0.79862 0.15759 0.53698
 O321 O 0.47494 0.84817 0.81469
 O322 O 0.52553 0.81704 0.84833
 O323 O 0.52168 0.84987 0.81070
 O324 O 0.47794 0.81401 0.85034
 O325 O 0.47697 0.78287 0.82180
 O326 O 0.52341 0.81744 0.78349
 O327 O 0.52464 0.78432 0.82156
 O328 O 0.47589 0.81795 0.78515
 Cu329 Cu 0.50017 0.83530 0.83394
 Cu330 Cu 0.50021 0.79738 0.80020
 C331 C 0.46725 0.83899 0.79382
 C332 C 0.53341 0.79521 0.84123
 C333 C 0.52965 0.83997 0.79020
 C334 C 0.46978 0.79242 0.84280
 O335 O 0.52829 0.17709 0.14897
 O336 O 0.47529 0.15043 0.18267
 O337 O 0.48099 0.18306 0.14623
 O338 O 0.52160 0.14547 0.18751
 O339 O 0.52532 0.17851 0.21373
 O340 O 0.48162 0.21514 0.17375
 O341 O 0.47782 0.18130 0.21145
 O342 O 0.52914 0.21052 0.17483
 Cu343 Cu 0.50163 0.16091 0.16349
 Cu344 Cu 0.50364 0.19970 0.19615
 C345 C 0.53743 0.19855 0.15551
 C346 C 0.46792 0.16072 0.20319
 C347 C 0.47406 0.20537 0.15301
 C348 C 0.52997 0.15530 0.20784
 O349 O 0.47679 0.19184 0.84952
 O350 O 0.52167 0.14976 0.81799
 O351 O 0.52410 0.18629 0.85108
 O352 O 0.47434 0.15417 0.81691
 O353 O 0.47780 0.18193 0.78517
 O354 O 0.52783 0.21487 0.82002
 O355 O 0.52521 0.17769 0.78636
 O356 O 0.48080 0.22036 0.81839
 Cu357 Cu 0.49874 0.16773 0.83699
 Cu358 Cu 0.50312 0.20155 0.79926
 C359 C 0.47169 0.21354 0.83966
 C360 C 0.53107 0.15644 0.79679
 C361 C 0.53443 0.20603 0.84158
 C362 C 0.46786 0.16207 0.79503
 O363 O 0.47488 0.81279 0.14682
 O364 O 0.52016 0.85106 0.18192
 O365 O 0.52206 0.81548 0.14803
 O366 O 0.47260 0.85003 0.18021
 O367 O 0.47290 0.82188 0.21179
 O368 O 0.52148 0.78533 0.17786
 O369 O 0.52070 0.82179 0.21253
 O370 O 0.47402 0.78414 0.17811
 Cu371 Cu 0.49724 0.83529 0.16123
 Cu372 Cu 0.49718 0.80039 0.19825
 C373 C 0.46716 0.79175 0.15625
 C374 C 0.52838 0.84289 0.20310
 C375 C 0.53004 0.79443 0.15711
 C376 C 0.46461 0.84241 0.20168
 O377 O 0.85266 0.52883 0.81432
 O378 O 0.82104 0.48161 0.85506
 O379 O 0.85302 0.47930 0.81891
 O380 O 0.82110 0.53166 0.85141
 O381 O 0.79062 0.52949 0.82391
 O382 O 0.82327 0.47674 0.79052
 O383 O 0.79064 0.47936 0.82744
 O384 O 0.82279 0.52609 0.78603
 Cu385 Cu 0.83985 0.50571 0.83779
 Cu386 Cu 0.80367 0.50280 0.80423
 C387 C 0.84349 0.53481 0.79289
 C388 C 0.80052 0.47235 0.84824
 C389 C 0.84393 0.46930 0.79902
 C390 C 0.80038 0.53940 0.84359
 O391 O 0.14298 0.51982 0.17466
 O392 O 0.17888 0.46914 0.14387
 O393 O 0.14474 0.47004 0.17784
 O394 O 0.17728 0.51919 0.14091
 O395 O 0.20548 0.52222 0.17089
 O396 O 0.17219 0.47290 0.20857
 O397 O 0.20719 0.47209 0.17375
 O398 O 0.17041 0.52293 0.20538
 Cu399 Cu 0.15825 0.49424 0.15628
 Cu400 Cu 0.19168 0.49779 0.19273
 C401 C 0.15035 0.53001 0.19524
 C402 C 0.19913 0.46196 0.15337
 C403 C 0.15267 0.46318 0.19954
 C404 C 0.19682 0.52918 0.14947
 O405 O 0.85842 0.47628 0.17745
 O406 O 0.82261 0.52495 0.14338
 O407 O 0.85722 0.52618 0.17654
 O408 O 0.82381 0.47479 0.14401
 O409 O 0.79570 0.47452 0.17437
 O410 O 0.83029 0.52554 0.20804
 O411 O 0.79475 0.52469 0.17401
 O412 O 0.83103 0.47534 0.20846
 Cu413 Cu 0.84321 0.50055 0.15725
 Cu414 Cu 0.81013 0.49999 0.19436
 C415 C 0.85106 0.46750 0.19875
 C416 C 0.80266 0.53320 0.15277
 C417 C 0.84969 0.53454 0.19787
 C418 C 0.80406 0.46593 0.15341
 O419 O 0.17503 0.52499 0.85819
 O420 O 0.14219 0.47318 0.82552
 O421 O 0.17599 0.47478 0.85998
 O422 O 0.14138 0.52291 0.82388
 O423 O 0.16937 0.52248 0.79339
 O424 O 0.20477 0.47433 0.83034
 O425 O 0.17031 0.47267 0.79519
 O426 O 0.20379 0.52457 0.82850
 Cu427 Cu 0.15591 0.49897 0.84496
 Cu428 Cu 0.19002 0.49846 0.80887
 C429 C 0.19493 0.53369 0.84902
 C430 C 0.15030 0.46436 0.80458
 C431 C 0.19623 0.46632 0.85151
 C432 C 0.14917 0.53070 0.80238
 C433 C 0.25350 0.39190 0.08912
 C434 C 0.27856 0.39777 0.08510
 C435 C 0.29155 0.38577 0.06523
 C436 C 0.27991 0.36779 0.04941
 C437 C 0.25565 0.36068 0.05461
 C438 C 0.24260 0.37241 0.07430
 C439 C 0.23935 0.40772 0.10797
 C440 C 0.21372 0.40576 0.11073
 C441 C 0.20093 0.42287 0.12628
 C442 C 0.21333 0.44198 0.13994
 C443 C 0.23897 0.44332 0.13849
 C444 C 0.25198 0.42678 0.12209
 C445 C 0.29018 0.41631 0.10023
 C446 C 0.27724 0.43024 0.11859
 H447 H 0.30946 0.42051 0.09747
 H448 H 0.28697 0.44474 0.12943
 H449 H 0.31030 0.39140 0.06115
 H450 H 0.24645 0.34673 0.04263
 H451 H 0.18113 0.42150 0.12721
 H452 H 0.24858 0.45835 0.14874
 H453 H 0.22385 0.36645 0.07706
 H454 H 0.20304 0.39188 0.10028
 C455 C 0.74903 0.60242 0.08670
 C456 C 0.72380 0.59711 0.08319
 C457 C 0.71075 0.60951 0.06358
 C458 C 0.72250 0.62744 0.04764
 C459 C 0.74700 0.63389 0.05226
 C460 C 0.76012 0.62170 0.07160
 C461 C 0.76308 0.58650 0.10554
 C462 C 0.78877 0.58792 0.10781
 C463 C 0.80136 0.57102 0.12379
 C464 C 0.78870 0.55267 0.13835
 C465 C 0.76304 0.55172 0.13716
 C466 C 0.75021 0.56802 0.12035
 C467 C 0.71202 0.57893 0.09877
 C468 C 0.72486 0.56500 0.11723
 H469 H 0.69262 0.57513 0.09640
 H470 H 0.71496 0.55089 0.12853
 H471 H 0.69179 0.60447 0.05997
 H472 H 0.75626 0.64783 0.04020
 H473 H 0.82118 0.57203 0.12447
 H474 H 0.75324 0.53722 0.14808
 H475 H 0.77901 0.62727 0.07400
 H476 H 0.79964 0.60123 0.09674
 C477 C 0.75176 0.40227 0.91822
 C478 C 0.72593 0.40426 0.92020
 C479 C 0.71331 0.39063 0.93941
 C480 C 0.72612 0.37461 0.95633
 C481 C 0.75145 0.37146 0.95329
 C482 C 0.76415 0.38499 0.93446
 C483 C 0.76486 0.41913 0.89936
 C484 C 0.79062 0.42095 0.89828
 C485 C 0.80201 0.43803 0.88145
 C486 C 0.78812 0.45344 0.86495
 C487 C 0.76246 0.45148 0.86546
 C488 C 0.75075 0.43492 0.88294
 C489 C 0.71300 0.42021 0.90334
 C490 C 0.72511 0.43485 0.88482
 H491 H 0.69321 0.42150 0.90457
 H492 H 0.71427 0.44697 0.87232
 H493 H 0.69370 0.39312 0.94177
 H494 H 0.76156 0.35901 0.96612
 H495 H 0.82184 0.43925 0.88140
 H496 H 0.75160 0.46368 0.85304
 H497 H 0.78366 0.38192 0.93323
 H498 H 0.80233 0.40989 0.91070
 C499 C 0.24560 0.60721 0.91272
 C500 C 0.27117 0.60359 0.91559
 C501 C 0.28385 0.61661 0.93497
 C502 C 0.27142 0.63349 0.95136
 C503 C 0.24652 0.63852 0.94721
 C504 C 0.23375 0.62569 0.92805
 C505 C 0.23210 0.59026 0.89441
 C506 C 0.20632 0.58978 0.89292
 C507 C 0.19443 0.57183 0.87757
 C508 C 0.20787 0.55428 0.86288
 C509 C 0.23355 0.55528 0.86326
 C510 C 0.24573 0.57264 0.87942
 C511 C 0.28369 0.58629 0.89977
 C512 C 0.27129 0.57146 0.88177
 H513 H 0.30333 0.58383 0.90164
 H514 H 0.28176 0.55804 0.87030
 H515 H 0.30310 0.61258 0.93823
 H516 H 0.23669 0.65162 0.95961
 H517 H 0.17458 0.57139 0.87749
 H518 H 0.24401 0.54145 0.85223
 H519 H 0.21452 0.63001 0.92608
 H520 H 0.19494 0.60238 0.90416
 C521 C 0.08246 0.24611 0.40052
 C522 C 0.07795 0.27273 0.40409
 C523 C 0.05829 0.28471 0.39144
 C524 C 0.04316 0.27050 0.37509
 C525 C 0.04819 0.24443 0.37087
 C526 C 0.06764 0.23236 0.38327
 C527 C 0.10214 0.23350 0.41608
 C528 C 0.10653 0.20677 0.41549
 C529 C 0.12329 0.19551 0.43211
 C530 C 0.13650 0.21056 0.44944
 C531 C 0.13336 0.23738 0.44931
 C532 C 0.11592 0.24889 0.43313
 C533 C 0.09267 0.28703 0.42073
 C534 C 0.11137 0.27541 0.43478
 H535 H 0.08942 0.30747 0.42325
 H536 H 0.12193 0.28724 0.44773
 H537 H 0.05427 0.30488 0.39482
 H538 H 0.03666 0.23325 0.35825
 H539 H 0.12555 0.17477 0.43182
 H540 H 0.14334 0.24907 0.46289
 H541 H 0.07041 0.21219 0.37935
 H542 H 0.09667 0.19401 0.40299
 C543 C 0.08930 0.74618 0.60174
 C544 C 0.07396 0.76173 0.61719
 C545 C 0.05440 0.75064 0.63073
 C546 C 0.04918 0.72431 0.62850
 C547 C 0.06444 0.70884 0.61340
 C548 C 0.08443 0.71952 0.60040
 C549 C 0.10888 0.75913 0.58613
 C550 C 0.12548 0.74554 0.57046
 C551 C 0.14174 0.75875 0.55439
 C552 C 0.14168 0.78574 0.55350
 C553 C 0.12632 0.79939 0.57013
 C554 C 0.11015 0.78637 0.58650
 C555 C 0.07735 0.78845 0.61797
 C556 C 0.09484 0.80054 0.60270
 H557 H 0.06566 0.80033 0.62984
 H558 H 0.09611 0.82138 0.60327
 H559 H 0.04240 0.76272 0.64209
 H560 H 0.06036 0.68857 0.61094
 H561 H 0.15360 0.74785 0.54182
 H562 H 0.12655 0.82029 0.56989
 H563 H 0.09519 0.70680 0.58862
 H564 H 0.12588 0.72476 0.56997
 C565 C 0.92141 0.74452 0.40459
 C566 C 0.93845 0.75933 0.39033
 C567 C 0.95750 0.74715 0.37707
 C568 C 0.96040 0.72037 0.37824
 C569 C 0.94364 0.70561 0.39231
 C570 C 0.92420 0.71747 0.40518
 C571 C 0.90199 0.75850 0.41945
 C572 C 0.88375 0.74575 0.43384
 C573 C 0.86721 0.75975 0.44880
 C574 C 0.86855 0.78670 0.44986
 C575 C 0.88586 0.79958 0.43469
 C576 C 0.90239 0.78578 0.41944
 C577 C 0.93700 0.78625 0.39013
 C578 C 0.91953 0.79920 0.40460
 H579 H 0.95004 0.79753 0.37917
 H580 H 0.91961 0.82009 0.40436
 H581 H 0.97070 0.75859 0.36644
 H582 H 0.94592 0.68492 0.39376
 H583 H 0.85390 0.74939 0.46025
 H584 H 0.88675 0.82046 0.43505
 H585 H 0.91205 0.70524 0.41604
 H586 H 0.88216 0.72504 0.43408
 C587 C 0.91283 0.25481 0.59877
 C588 C 0.92797 0.23894 0.61411
 C589 C 0.94698 0.24982 0.62841
 C590 C 0.95180 0.27628 0.62712
 C591 C 0.93679 0.29210 0.61212
 C592 C 0.91735 0.28158 0.59828
 C593 C 0.89366 0.24214 0.58260
 C594 C 0.87718 0.25603 0.56706
 C595 C 0.86088 0.24312 0.55097
 C596 C 0.86082 0.21615 0.54989
 C597 C 0.87634 0.20219 0.56608
 C598 C 0.89250 0.21488 0.58251
 C599 C 0.92488 0.21217 0.61419
 C600 C 0.90772 0.20038 0.59849
 H601 H 0.93646 0.20007 0.62597
 H602 H 0.90655 0.17952 0.59865
 H603 H 0.95884 0.23753 0.63973
 H604 H 0.94062 0.31252 0.61051
 H605 H 0.84885 0.25425 0.53877
 H606 H 0.87598 0.18129 0.56574
 H607 H 0.90670 0.29456 0.58666
 H608 H 0.87676 0.27681 0.56685
 C609 C 0.40341 0.09241 0.25868
 C610 C 0.38819 0.07629 0.24376
 C611 C 0.37565 0.05563 0.25509
 C612 C 0.37839 0.05021 0.28109
 C613 C 0.39322 0.06622 0.29602
 C614 C 0.40545 0.08723 0.28503
 C615 C 0.41786 0.11315 0.24537
 C616 C 0.43359 0.13035 0.25824
 C617 C 0.44873 0.14730 0.24457
 C618 C 0.44854 0.14740 0.21785
 C619 C 0.43170 0.13173 0.20500
 C620 C 0.41640 0.11475 0.21846
 C621 C 0.38641 0.08009 0.21740
 C622 C 0.40040 0.09873 0.20499
 H623 H 0.37465 0.06782 0.20603
 H624 H 0.39904 0.10026 0.18442
 H625 H 0.36439 0.04304 0.24350
 H626 H 0.39580 0.06203 0.31608
 H627 H 0.46159 0.15927 0.25487
 H628 H 0.43124 0.13199 0.18432
 H629 H 0.41699 0.09862 0.29729
 H630 H 0.43498 0.13049 0.27875
 C631 C 0.59455 0.08314 0.74580
 C632 C 0.59477 0.08368 0.71878
 C633 C 0.60685 0.06415 0.70510
 C634 C 0.61897 0.04426 0.71806
 C635 C 0.61976 0.04447 0.74473
 C636 C 0.60784 0.06369 0.75849
 C637 C 0.57955 0.10283 0.75969
 C638 C 0.57615 0.10227 0.78634
 C639 C 0.56075 0.11998 0.79826
 C640 C 0.54859 0.13896 0.78407
 C641 C 0.55233 0.14020 0.75760
 C642 C 0.56731 0.12200 0.74529
 C643 C 0.58251 0.10336 0.70566
 C644 C 0.56933 0.12229 0.71864
 H645 H 0.58290 0.10399 0.68501
 H646 H 0.55997 0.13695 0.70759
 H647 H 0.60619 0.06391 0.68444
 H648 H 0.62914 0.02923 0.75495
 H649 H 0.55821 0.11868 0.81872
 H650 H 0.54275 0.15463 0.74644
 H651 H 0.60894 0.06266 0.77898
 H652 H 0.58468 0.08794 0.79830
 C653 C 0.40693 0.91147 0.73841
 C654 C 0.39311 0.92896 0.75337
 C655 C 0.38129 0.94992 0.74185
 C656 C 0.38328 0.95421 0.71557
 C657 C 0.39680 0.93696 0.70062
 C658 C 0.40839 0.91571 0.71184
 C659 C 0.42040 0.89013 0.75181
 C660 C 0.43467 0.87155 0.73892
 C661 C 0.44877 0.85368 0.75256
 C662 C 0.44899 0.85401 0.77928
 C663 C 0.43365 0.87129 0.79220
 C664 C 0.41941 0.88921 0.77878
 C665 C 0.39185 0.92601 0.77987
 C666 C 0.40489 0.90671 0.79232
 H667 H 0.38118 0.93934 0.79127
 H668 H 0.40392 0.90575 0.81295
 H669 H 0.37099 0.96345 0.75342
 H670 H 0.39872 0.94024 0.68031
 H671 H 0.46049 0.84049 0.74219
 H672 H 0.43348 0.87141 0.81289
 H673 H 0.41886 0.90324 0.69952
 H674 H 0.43567 0.87093 0.71839
 C675 C 0.59397 0.91070 0.25823
 C676 C 0.60478 0.93103 0.24403
 C677 C 0.61767 0.95062 0.25654
 C678 C 0.61948 0.95078 0.28317
 C679 C 0.60941 0.93037 0.29724
 C680 C 0.59698 0.91041 0.28495
 C681 C 0.57858 0.89137 0.24429
 C682 C 0.56676 0.87054 0.25654
 C683 C 0.55104 0.85433 0.24300
 C684 C 0.54666 0.85849 0.21698
 C685 C 0.55918 0.87844 0.20439
 C686 C 0.57506 0.89478 0.21775
 C687 C 0.60163 0.93245 0.21759
 C688 C 0.58695 0.91481 0.20475
 H689 H 0.61001 0.94793 0.20674
 H690 H 0.58451 0.91719 0.18438
 H691 H 0.62526 0.96659 0.24570
 H692 H 0.61031 0.93045 0.31787
 H693 H 0.54175 0.83892 0.25311
 H694 H 0.55625 0.88157 0.18417
 H695 H 0.58910 0.89553 0.29679
 H696 H 0.56910 0.86667 0.27660
 C697 C 0.41749 0.27725 0.90946
 C698 C 0.39289 0.27049 0.91490
 C699 C 0.38020 0.28289 0.93474
 C700 C 0.39230 0.30054 0.95066
 C701 C 0.41699 0.30638 0.94575
 C702 C 0.42927 0.29542 0.92511
 C703 C 0.43071 0.26297 0.88883
 C704 C 0.45422 0.27009 0.88013
 C705 C 0.46684 0.25459 0.86282
 C706 C 0.45642 0.23162 0.85410
 C707 C 0.43247 0.22512 0.86132
 C708 C 0.41928 0.24106 0.87810
 C709 C 0.38178 0.25007 0.90183
 C710 C 0.39495 0.23515 0.88441
 H711 H 0.36302 0.24469 0.90610
 H712 H 0.38595 0.21875 0.87577
 H713 H 0.36155 0.27714 0.93921
 H714 H 0.42688 0.31946 0.95810
 H715 H 0.48529 0.25989 0.85718
 H716 H 0.42429 0.20754 0.85414
 H717 H 0.44832 0.30040 0.92253
 H718 H 0.46322 0.28736 0.88669
 C719 C 0.59766 0.74473 0.91335
 C720 C 0.59543 0.71763 0.91572
 C721 C 0.60688 0.70466 0.93606
 C722 C 0.62052 0.71842 0.95408
 C723 C 0.62348 0.74504 0.95116
 C724 C 0.61236 0.75807 0.93102
 C725 C 0.58336 0.75818 0.89287
 C726 C 0.58290 0.78521 0.89028
 C727 C 0.56740 0.79701 0.87270
 C728 C 0.55224 0.78226 0.85689
 C729 C 0.55353 0.75528 0.85822
 C730 C 0.56863 0.74317 0.87638
 C731 C 0.58119 0.70380 0.89826
 C732 C 0.56820 0.71628 0.87893
 H733 H 0.57968 0.68304 0.89986
 H734 H 0.55704 0.70474 0.86626
 H735 H 0.60453 0.68403 0.93842
 H736 H 0.63405 0.75587 0.96494
 H737 H 0.56684 0.81786 0.87189
 H738 H 0.54169 0.74376 0.84620
 H739 H 0.61514 0.77861 0.93001
 H740 H 0.59373 0.79770 0.90216
 C741 C 0.40838 0.73160 0.08688
 C742 C 0.42151 0.71678 0.06883
 C743 C 0.40911 0.70465 0.04882
 C744 C 0.38352 0.70664 0.04633
 C745 C 0.37043 0.72056 0.06486
 C746 C 0.38263 0.73278 0.08491
 C747 C 0.42267 0.74616 0.10661
 C748 C 0.41166 0.76300 0.12439
 C749 C 0.42606 0.77746 0.14116
 C750 C 0.45158 0.77517 0.14066
 C751 C 0.46271 0.75807 0.12369
 C752 C 0.44855 0.74374 0.10657
 C753 C 0.44704 0.71468 0.07034
 C754 C 0.46026 0.72775 0.08890
 H755 H 0.45704 0.70309 0.05665
 H756 H 0.48005 0.72584 0.08900
 H757 H 0.41949 0.69378 0.03483
 H758 H 0.35082 0.72334 0.06306
 H759 H 0.41733 0.79080 0.15418
 H760 H 0.48256 0.75657 0.12331
 H761 H 0.37163 0.74362 0.09820
 H762 H 0.39208 0.76573 0.12527
 C763 C 0.60521 0.24451 0.08340
 C764 C 0.60749 0.27168 0.08356
 C765 C 0.62033 0.28436 0.06384
 C766 C 0.63077 0.27034 0.04358
 C767 C 0.62859 0.24333 0.04386
 C768 C 0.61630 0.23061 0.06348
 C769 C 0.58994 0.23181 0.10368
 C770 C 0.58605 0.20499 0.10462
 C771 C 0.56977 0.19429 0.12220
 C772 C 0.55714 0.20989 0.13961
 C773 C 0.56199 0.23647 0.13994
 C774 C 0.57809 0.24755 0.12195
 C775 C 0.59613 0.28608 0.10283
 C776 C 0.58171 0.27429 0.12156
 H777 H 0.59793 0.30688 0.10308
 H778 H 0.57283 0.28637 0.13565
 H779 H 0.62085 0.30525 0.06347
 H780 H 0.63656 0.23188 0.02870
 H781 H 0.56662 0.17368 0.12175
 H782 H 0.55233 0.24872 0.15332
 H783 H 0.61528 0.20991 0.06226
 H784 H 0.59488 0.19190 0.09159
 C785 C 0.24855 0.08595 0.60718
 C786 C 0.27447 0.08590 0.60599
 C787 C 0.28789 0.06634 0.61836
 C788 C 0.27575 0.04644 0.63165
 C789 C 0.25006 0.04734 0.63349
 C790 C 0.23669 0.06685 0.62178
 C791 C 0.23475 0.10533 0.59158
 C792 C 0.20897 0.10559 0.59020
 C793 C 0.19697 0.12193 0.57326
 C794 C 0.21020 0.13884 0.55757
 C795 C 0.23581 0.14000 0.55985
 C796 C 0.24820 0.12305 0.57644
 C797 C 0.28673 0.10466 0.59150
 C798 C 0.27388 0.12288 0.57711
 H799 H 0.30658 0.10485 0.59072
 H800 H 0.28424 0.13653 0.56571
 H801 H 0.30764 0.06558 0.61602
 H802 H 0.24015 0.03257 0.64393
 H803 H 0.17717 0.12095 0.57205
 H804 H 0.24615 0.15297 0.54766
 H805 H 0.21706 0.06608 0.62388
 H806 H 0.19765 0.09281 0.60137
 C807 C 0.73237 0.08144 0.41638
 C808 C 0.72765 0.05758 0.42853
 C809 C 0.71522 0.03804 0.41559
 C810 C 0.70819 0.04097 0.38994
 C811 C 0.71268 0.06483 0.37795
 C812 C 0.72437 0.08487 0.39104
 C813 C 0.74695 0.10128 0.43064
 C814 C 0.75177 0.12627 0.42109
 C815 C 0.76660 0.14343 0.43476
 C816 C 0.77725 0.13575 0.45782
 C817 C 0.77194 0.11138 0.46782
 C818 C 0.75660 0.09437 0.45476
 C819 C 0.73642 0.05270 0.45313
 C820 C 0.75096 0.07052 0.46578
 H821 H 0.73275 0.03439 0.46240
 H822 H 0.75800 0.06549 0.48445
 H823 H 0.71157 0.02001 0.42543
 H824 H 0.70857 0.06757 0.35794
 H825 H 0.77028 0.16242 0.42702
 H826 H 0.77966 0.10575 0.48606
 H827 H 0.72798 0.10245 0.38065
 H828 H 0.74428 0.13284 0.40319
 C829 C 0.75019 0.91686 0.59898
 C830 C 0.72499 0.92030 0.59349
 C831 C 0.71152 0.93958 0.60611
 C832 C 0.72273 0.95498 0.62468
 C833 C 0.74721 0.95035 0.63122
 C834 C 0.76079 0.93151 0.61865
 C835 C 0.76465 0.89831 0.58307
 C836 C 0.79038 0.89641 0.58451
 C837 C 0.80327 0.88032 0.56800
 C838 C 0.79089 0.86527 0.55006
 C839 C 0.76522 0.86638 0.54886
 C840 C 0.75210 0.88334 0.56472
 C841 C 0.71361 0.90484 0.57514
 C842 C 0.72677 0.88639 0.56143
 H843 H 0.69424 0.90713 0.57119
 H844 H 0.71713 0.87503 0.54734
 H845 H 0.69260 0.94321 0.60093
 H846 H 0.75608 0.96201 0.64561
 H847 H 0.82310 0.87980 0.56911
 H848 H 0.75564 0.85517 0.53459
 H849 H 0.77961 0.92902 0.62437
 H850 H 0.80100 0.90783 0.59761
 C851 C 0.24946 0.91686 0.39621
 C852 C 0.27541 0.91617 0.39557
 C853 C 0.28859 0.93569 0.38273
 C854 C 0.27619 0.95635 0.37101
 C855 C 0.25043 0.95619 0.37096
 C856 C 0.23728 0.93669 0.38302
 C857 C 0.23609 0.89738 0.41219
 C858 C 0.21042 0.89757 0.41510
 C859 C 0.19894 0.88089 0.43217
 C860 C 0.21257 0.86323 0.44659
 C861 C 0.23804 0.86177 0.44284
 C862 C 0.24992 0.87896 0.42600
 C863 C 0.28798 0.89674 0.40878
 C864 C 0.27552 0.87853 0.42363
 H865 H 0.30783 0.89600 0.40819
 H866 H 0.28616 0.86433 0.43400
 H867 H 0.30845 0.93582 0.38359
 H868 H 0.24031 0.97158 0.36175
 H869 H 0.17923 0.88215 0.43440
 H870 H 0.24872 0.84817 0.45393
 H871 H 0.21759 0.93810 0.38239
 H872 H 0.19881 0.91085 0.40493
 C873 C 0.08241 0.39906 0.75005
 C874 C 0.06454 0.38608 0.76493
 C875 C 0.04499 0.37336 0.75308
 C876 C 0.04245 0.37390 0.72651
 C877 C 0.06015 0.38658 0.71170
 C878 C 0.08004 0.39883 0.72326
 C879 C 0.10213 0.41379 0.76362
 C880 C 0.12102 0.42714 0.75075
 C881 C 0.13753 0.44257 0.76422
 C882 C 0.13554 0.44508 0.79075
 C883 C 0.11777 0.43065 0.80384
 C884 C 0.10122 0.41501 0.79057
 C885 C 0.06560 0.38680 0.79158
 C886 C 0.08339 0.40119 0.80413
 H887 H 0.05196 0.37678 0.80294
 H888 H 0.08292 0.40185 0.82478
 H889 H 0.03112 0.36380 0.76456
 H890 H 0.05818 0.38757 0.69117
 H891 H 0.15121 0.45342 0.75372
 H892 H 0.11639 0.43213 0.82442
 H893 H 0.09286 0.40870 0.71096
 H894 H 0.12306 0.42636 0.73031
 C895 C 0.08248 0.60104 0.24299
 C896 C 0.08248 0.60227 0.26994
 C897 C 0.06382 0.61576 0.28284
 C898 C 0.04490 0.62808 0.26921
 C899 C 0.04565 0.62743 0.24241
 C900 C 0.06418 0.61441 0.22951
 C901 C 0.10130 0.58459 0.22998
 C902 C 0.10161 0.58080 0.20340
 C903 C 0.11805 0.56362 0.19232
 C904 C 0.13492 0.55000 0.20728
 C905 C 0.13562 0.55445 0.23367
 C906 C 0.11868 0.57133 0.24515
 C907 C 0.10061 0.58926 0.28384
 C908 C 0.11839 0.57426 0.27171
 H909 H 0.10080 0.59033 0.30448
 H910 H 0.13172 0.56423 0.28338
 H911 H 0.06318 0.61523 0.30351
 H912 H 0.03167 0.63707 0.23126
 H913 H 0.11731 0.56071 0.17189
 H914 H 0.14853 0.54387 0.24539
 H915 H 0.06343 0.61470 0.20898
 H916 H 0.08893 0.59032 0.19078
 C917 C 0.91824 0.39899 0.25157
 C918 C 0.93773 0.38897 0.23677
 C919 C 0.95669 0.37516 0.24843
 C920 C 0.95703 0.37103 0.27495
 C921 C 0.93733 0.38044 0.28955
 C922 C 0.91816 0.39413 0.27806
 C923 C 0.89924 0.41522 0.23841
 C924 C 0.87935 0.42680 0.25127
 C925 C 0.86317 0.44316 0.23830
 C926 C 0.86647 0.44838 0.21225
 C927 C 0.88560 0.43612 0.19915
 C928 C 0.90191 0.41976 0.21191
 C929 C 0.93868 0.39338 0.21045
 C930 C 0.92118 0.40848 0.19830
 H931 H 0.95353 0.38551 0.19912
 H932 H 0.92305 0.41179 0.17797
 H933 H 0.97149 0.36769 0.23672
 H934 H 0.93734 0.37846 0.31012
 H935 H 0.84847 0.45230 0.24883
 H936 H 0.88816 0.43973 0.17893
 H937 H 0.90386 0.40138 0.29033
 H938 H 0.87621 0.42383 0.27138
 C939 C 0.91389 0.58890 0.73094
 C940 C 0.91890 0.61499 0.73671
 C941 C 0.93846 0.62778 0.72458
 C942 C 0.95435 0.61433 0.70818
 C943 C 0.94992 0.58812 0.70351
 C944 C 0.92969 0.57570 0.71422
 C945 C 0.89331 0.57572 0.74468
 C946 C 0.88514 0.55083 0.73825
 C947 C 0.86766 0.53831 0.75327
 C948 C 0.85817 0.55021 0.77505
 C949 C 0.86496 0.57556 0.78081
 C950 C 0.88199 0.58867 0.76531
 C951 C 0.90547 0.62754 0.75582
 C952 C 0.88796 0.61441 0.77037
 H953 H 0.90941 0.64745 0.76047
 H954 H 0.87892 0.62458 0.78577
 H955 H 0.94251 0.64764 0.72945
 H956 H 0.96225 0.57718 0.69145
 H957 H 0.86239 0.51875 0.74857
 H958 H 0.85726 0.58487 0.79749
 H959 H 0.92741 0.55548 0.71013
 H960 H 0.89223 0.54066 0.72190
 C961 C 0.75030 0.60630 0.91440
 C962 C 0.72439 0.60491 0.91527
 C963 C 0.71144 0.61663 0.93539
 C964 C 0.72400 0.62933 0.95515
 C965 C 0.74970 0.63084 0.95384
 C966 C 0.76262 0.61982 0.93374
 C967 C 0.76361 0.59185 0.89390
 C968 C 0.78936 0.59157 0.89197
 C969 C 0.80107 0.57540 0.87466
 C970 C 0.78752 0.55940 0.85847
 C971 C 0.76182 0.56094 0.85880
 C972 C 0.74979 0.57684 0.87659
 C973 C 0.71170 0.59084 0.89673
 C974 C 0.72412 0.57701 0.87789
 H975 H 0.69186 0.58985 0.89725
 H976 H 0.71347 0.56577 0.86450
 H977 H 0.69170 0.61436 0.93656
 H978 H 0.75995 0.64066 0.96859
 H979 H 0.82092 0.57490 0.87446
 H980 H 0.75121 0.54865 0.84631
 H981 H 0.78229 0.62157 0.93421
 H982 H 0.80091 0.60307 0.90408
 C983 C 0.24940 0.39798 0.91921
 C984 C 0.27524 0.40032 0.91965
 C985 C 0.28894 0.38754 0.93856
 C986 C 0.27726 0.37210 0.95711
 C987 C 0.25167 0.36909 0.95573
 C988 C 0.23799 0.38157 0.93704
 C989 C 0.23521 0.41387 0.90044
 C990 C 0.20939 0.41471 0.90029
 C991 C 0.19697 0.43131 0.88390
 C992 C 0.20982 0.44722 0.86689
 C993 C 0.23551 0.44590 0.86611
 C994 C 0.24829 0.42974 0.88311
 C995 C 0.28713 0.41603 0.90169
 C996 C 0.27397 0.43019 0.88364
 H997 H 0.30694 0.41766 0.90178
 H998 H 0.28404 0.44229 0.87039
 H999 H 0.30851 0.39097 0.93976
 H1000 H 0.24208 0.35700 0.96937
 H1001 H 0.17713 0.43191 0.88475
 H1002 H 0.24557 0.45840 0.85319
 H1003 H 0.21848 0.37837 0.93723
 H1004 H 0.19838 0.40331 0.91314
 C1005 C 0.24575 0.60110 0.08181
 C1006 C 0.27162 0.59973 0.08041
 C1007 C 0.28433 0.61339 0.06129
 C1008 C 0.27161 0.62884 0.04358
 C1009 C 0.24602 0.63100 0.04605
 C1010 C 0.23331 0.61761 0.06492
 C1011 C 0.23263 0.58415 0.10055
 C1012 C 0.20689 0.58204 0.10126
 C1013 C 0.19550 0.56454 0.11759
 C1014 C 0.20933 0.54900 0.13400
 C1015 C 0.23494 0.55149 0.13419
 C1016 C 0.24670 0.56851 0.11717
 C1017 C 0.28454 0.58412 0.09762
 C1018 C 0.27236 0.56914 0.11584
 H1019 H 0.30437 0.58326 0.09682
 H1020 H 0.28319 0.55720 0.12852
 H1021 H 0.30394 0.61064 0.05925
 H1022 H 0.23566 0.64308 0.03307
 H1023 H 0.17569 0.56298 0.11721
 H1024 H 0.24574 0.53923 0.14662
 H1025 H 0.21373 0.62020 0.06560
 H1026 H 0.19517 0.59309 0.08885
 C1027 C 0.75232 0.39450 0.08836
 C1028 C 0.72665 0.39794 0.08618
 C1029 C 0.71365 0.38540 0.06667
 C1030 C 0.72599 0.36942 0.04938
 C1031 C 0.75103 0.36465 0.05269
 C1032 C 0.76405 0.37683 0.07203
 C1033 C 0.76607 0.41082 0.10703
 C1034 C 0.79187 0.41119 0.10818
 C1035 C 0.80399 0.42861 0.12390
 C1036 C 0.79081 0.44574 0.13929
 C1037 C 0.76511 0.44478 0.13928
 C1038 C 0.75266 0.42790 0.12280
 C1039 C 0.71436 0.41462 0.10284
 C1040 C 0.72705 0.42901 0.12099
 H1041 H 0.69467 0.41698 0.10148
 H1042 H 0.71674 0.44201 0.13308
 H1043 H 0.69425 0.38909 0.06406
 H1044 H 0.76073 0.35222 0.03952
 H1045 H 0.82385 0.42898 0.12370
 H1046 H 0.75483 0.45827 0.15090
 H1047 H 0.78336 0.37269 0.07333
 H1048 H 0.80311 0.39892 0.09645
 C1049 C 0.92215 0.75539 0.60138
 C1050 C 0.92286 0.72813 0.60119
 C1051 C 0.94181 0.71494 0.61387
 C1052 C 0.96021 0.72851 0.62702
 C1053 C 0.95904 0.75558 0.62739
 C1054 C 0.94028 0.76880 0.61504
 C1055 C 0.90279 0.76883 0.58606
 C1056 C 0.90151 0.79586 0.58391
 C1057 C 0.88465 0.80745 0.56761
 C1058 C 0.86831 0.79253 0.55330
 C1059 C 0.86846 0.76565 0.55627
 C1060 C 0.88582 0.75369 0.57222
 C1061 C 0.90511 0.71425 0.58769
 C1062 C 0.88693 0.72675 0.57361
 H1063 H 0.90550 0.69337 0.58765
 H1064 H 0.87391 0.71511 0.56314
 H1065 H 0.94295 0.69414 0.61228
 H1066 H 0.97275 0.76668 0.63748
 H1067 H 0.88473 0.82826 0.56581
 H1068 H 0.85599 0.75397 0.54513
 H1069 H 0.94063 0.78952 0.61616
 H1070 H 0.91375 0.80847 0.59406
 C1071 C 0.91325 0.24758 0.39797
 C1072 C 0.93246 0.23194 0.38854
 C1073 C 0.95245 0.24311 0.37587
 C1074 C 0.95405 0.26995 0.37232
 C1075 C 0.93469 0.28539 0.38128
 C1076 C 0.91454 0.27441 0.39380
 C1077 C 0.89313 0.23491 0.41308
 C1078 C 0.87342 0.24866 0.42399
 C1079 C 0.85649 0.23623 0.43991
 C1080 C 0.85875 0.20984 0.44527
 C1081 C 0.87742 0.19576 0.43327
 C1082 C 0.89457 0.20801 0.41742
 C1083 C 0.93210 0.20525 0.39249
 C1084 C 0.91360 0.19356 0.40668
 H1085 H 0.94672 0.19327 0.38506
 H1086 H 0.91453 0.17292 0.40979
 H1087 H 0.96700 0.23078 0.36880
 H1088 H 0.93566 0.30620 0.37981
 H1089 H 0.84218 0.24754 0.44884
 H1090 H 0.87918 0.17528 0.43701
 H1091 H 0.90057 0.28733 0.40072
 H1092 H 0.87112 0.26908 0.42102
 C1093 C 0.08017 0.25027 0.60199
 C1094 C 0.06093 0.23497 0.61199
 C1095 C 0.04165 0.24644 0.62546
 C1096 C 0.04072 0.27327 0.62917
 C1097 C 0.06008 0.28838 0.61957
 C1098 C 0.07959 0.27708 0.60632
 C1099 C 0.09961 0.23727 0.58629
 C1100 C 0.11946 0.25061 0.57508
 C1101 C 0.13609 0.23779 0.55920
 C1102 C 0.13331 0.21144 0.55408
 C1103 C 0.11422 0.19784 0.56599
 C1104 C 0.09748 0.21045 0.58194
 C1105 C 0.06053 0.20834 0.60785
 C1106 C 0.07835 0.19636 0.59305
 H1107 H 0.04585 0.19664 0.61566
 H1108 H 0.07689 0.17578 0.58991
 H1109 H 0.02706 0.23437 0.63296
 H1110 H 0.05955 0.30919 0.62108
 H1111 H 0.15075 0.24870 0.55034
 H1112 H 0.11208 0.17738 0.56246
 H1113 H 0.09359 0.28975 0.59894
 H1114 H 0.12226 0.27096 0.57800
 C1115 C 0.08929 0.74382 0.40107
 C1116 C 0.07198 0.75884 0.38749
 C1117 C 0.05287 0.74686 0.37424
 C1118 C 0.05011 0.72003 0.37482
 C1119 C 0.06742 0.70502 0.38779
 C1120 C 0.08695 0.71672 0.40060
 C1121 C 0.10833 0.75759 0.41657
 C1122 C 0.12658 0.74467 0.43072
 C1123 C 0.14252 0.75839 0.44655
 C1124 C 0.14055 0.78523 0.44874
 C1125 C 0.12331 0.79834 0.43377
 C1126 C 0.10739 0.78484 0.41768
 C1127 C 0.07302 0.78577 0.38824
 C1128 C 0.09019 0.79849 0.40321
 H1129 H 0.05981 0.79722 0.37775
 H1130 H 0.08973 0.81936 0.40379
 H1131 H 0.03929 0.75848 0.36442
 H1132 H 0.06531 0.68429 0.38875
 H1133 H 0.15582 0.74788 0.45782
 H1134 H 0.12197 0.81916 0.43500
 H1135 H 0.09943 0.70430 0.41077
 H1136 H 0.12856 0.72400 0.43016
 C1137 C 0.58774 0.91043 0.72980
 C1138 C 0.57489 0.93130 0.71869
 C1139 C 0.58772 0.95146 0.70698
 C1140 C 0.61349 0.95193 0.70653
 C1141 C 0.62623 0.93092 0.71713
 C1142 C 0.61356 0.91035 0.72841
 C1143 C 0.57325 0.89028 0.74387
 C1144 C 0.58405 0.86857 0.75568
 C1145 C 0.56979 0.85149 0.77018
 C1146 C 0.54468 0.85588 0.77323
 C1147 C 0.53360 0.87666 0.76084
 C1148 C 0.54757 0.89371 0.74605
 C1149 C 0.54931 0.93266 0.72033
 C1150 C 0.53596 0.91440 0.73394
 H1151 H 0.53951 0.94860 0.71168
 H1152 H 0.51626 0.91675 0.73535
 H1153 H 0.57754 0.96739 0.69872
 H1154 H 0.64606 0.93108 0.71821
 H1155 H 0.57846 0.83530 0.77962
 H1156 H 0.51403 0.87975 0.76308
 H1157 H 0.62434 0.89517 0.73687
 H1158 H 0.60341 0.86466 0.75422
 C1159 C 0.40142 0.91467 0.25472
 C1160 C 0.39230 0.93537 0.23990
 C1161 C 0.38008 0.95592 0.25161
 C1162 C 0.37650 0.95657 0.27817
 C1163 C 0.38510 0.93571 0.29281
 C1164 C 0.39730 0.91502 0.28129
 C1165 C 0.41591 0.89399 0.24146
 C1166 C 0.42667 0.87292 0.25434
 C1167 C 0.44165 0.85541 0.24128
 C1168 C 0.44622 0.85846 0.21510
 C1169 C 0.43457 0.87858 0.20195
 C1170 C 0.41970 0.89631 0.21483
 C1171 C 0.39592 0.93590 0.21348
 C1172 C 0.40932 0.91679 0.20122
 H1173 H 0.38872 0.95165 0.20213
 H1174 H 0.41207 0.91841 0.18080
 H1175 H 0.37330 0.97164 0.23989
 H1176 H 0.38347 0.93593 0.31340
 H1177 H 0.45037 0.84001 0.25187
 H1178 H 0.43771 0.88100 0.18166
 H1179 H 0.40391 0.89985 0.29358
 H1180 H 0.42423 0.86999 0.27455
 C1181 C 0.58359 0.08407 0.27192
 C1182 C 0.57111 0.06114 0.27866
 C1183 C 0.58352 0.04122 0.29118
 C1184 C 0.60882 0.04278 0.29618
 C1185 C 0.62107 0.06585 0.28996
 C1186 C 0.60862 0.08629 0.27823
 C1187 C 0.56990 0.10413 0.25692
 C1188 C 0.58007 0.12819 0.24993
 C1189 C 0.56691 0.14540 0.23450
 C1190 C 0.54367 0.13867 0.22543
 C1191 C 0.53307 0.11535 0.23302
 C1192 C 0.54574 0.09832 0.24897
 C1193 C 0.54662 0.05748 0.27167
 C1194 C 0.53433 0.07547 0.25676
 H1195 H 0.53708 0.03991 0.27692
 H1196 H 0.51567 0.07131 0.25104
 H1197 H 0.57349 0.02390 0.29633
 H1198 H 0.64070 0.06756 0.29254
 H1199 H 0.57515 0.16359 0.22903
 H1200 H 0.51479 0.11051 0.22647
 H1201 H 0.61917 0.10313 0.27313
 H1202 H 0.59811 0.13396 0.25608
 C1203 C 0.40580 0.09094 0.73987
 C1204 C 0.39281 0.07268 0.75483
 C1205 C 0.38077 0.05199 0.74314
 C1206 C 0.38171 0.04878 0.71667
 C1207 C 0.39418 0.06697 0.70171
 C1208 C 0.40599 0.08792 0.71311
 C1209 C 0.41983 0.11175 0.75337
 C1210 C 0.43364 0.13078 0.74049
 C1211 C 0.44826 0.14815 0.75407
 C1212 C 0.44944 0.14696 0.78076
 C1213 C 0.43460 0.12915 0.79375
 C1214 C 0.41992 0.11164 0.78037
 C1215 C 0.39265 0.07455 0.78144
 C1216 C 0.40603 0.09351 0.79394
 H1217 H 0.38258 0.06066 0.79285
 H1218 H 0.40589 0.09365 0.81461
 H1219 H 0.37126 0.03778 0.75471
 H1220 H 0.39528 0.06456 0.68123
 H1221 H 0.45948 0.16179 0.74359
 H1222 H 0.43511 0.12830 0.81441
 H1223 H 0.41568 0.10109 0.70074
 H1224 H 0.43390 0.13216 0.71997
 C1225 C 0.59554 0.74203 0.08789
 C1226 C 0.59112 0.71548 0.08366
 C1227 C 0.60292 0.70272 0.06341
 C1228 C 0.61904 0.71619 0.04734
 C1229 C 0.62419 0.74210 0.05223
 C1230 C 0.61277 0.75488 0.07232
 C1231 C 0.58083 0.75560 0.10795
 C1232 C 0.58232 0.78240 0.11190
 C1233 C 0.56644 0.79464 0.12879
 C1234 C 0.54903 0.78053 0.14264
 C1235 C 0.54821 0.75365 0.14004
 C1236 C 0.56364 0.74116 0.12241
 C1237 C 0.57443 0.70211 0.09915
 C1238 C 0.56112 0.71463 0.11822
 H1239 H 0.57123 0.68173 0.09614
 H1240 H 0.54805 0.70351 0.12930
 H1241 H 0.59896 0.68264 0.05953
 H1242 H 0.63670 0.75265 0.03997
 H1243 H 0.56737 0.81542 0.13060
 H1244 H 0.53450 0.74272 0.15046
 H1245 H 0.61733 0.77490 0.07489
 H1246 H 0.59495 0.79447 0.10151
 C1247 C 0.41468 0.26210 0.08051
 C1248 C 0.41735 0.28927 0.07997
 C1249 C 0.40598 0.30383 0.06062
 C1250 C 0.39186 0.29155 0.04198
 C1251 C 0.38851 0.26486 0.04311
 C1252 C 0.39965 0.25027 0.06214
 C1253 C 0.42851 0.24704 0.10021
 C1254 C 0.42854 0.21989 0.10092
 C1255 C 0.44292 0.20663 0.11850
 C1256 C 0.45741 0.21994 0.13611
 C1257 C 0.45695 0.24700 0.13620
 C1258 C 0.44295 0.26061 0.11811
 C1259 C 0.43166 0.30159 0.09844
 C1260 C 0.44400 0.28759 0.11724
 H1261 H 0.43354 0.32238 0.09823
 H1262 H 0.45502 0.29803 0.13092
 H1263 H 0.40848 0.32454 0.05969
 H1264 H 0.37752 0.25521 0.02883
 H1265 H 0.44288 0.18575 0.11812
 H1266 H 0.46832 0.25744 0.14960
 H1267 H 0.39643 0.22979 0.06185
 H1268 H 0.41811 0.20844 0.08771
 C1269 C 0.60267 0.25568 0.91003
 C1270 C 0.61661 0.23927 0.92603
 C1271 C 0.63051 0.24962 0.94599
 C1272 C 0.63007 0.27610 0.95110
 C1273 C 0.61642 0.29243 0.93523
 C1274 C 0.60310 0.28244 0.91474
 C1275 C 0.58677 0.24359 0.89001
 C1276 C 0.57267 0.25803 0.87254
 C1277 C 0.55648 0.24575 0.85583
 C1278 C 0.55386 0.21889 0.85636
 C1279 C 0.56876 0.20431 0.87265
 C1280 C 0.58531 0.21636 0.88918
 C1281 C 0.61557 0.21250 0.92298
 C1282 C 0.59998 0.20128 0.90522
 H1283 H 0.62628 0.19997 0.93521
 H1284 H 0.59914 0.18044 0.90426
 H1285 H 0.64075 0.23690 0.95849
 H1286 H 0.61539 0.31287 0.93926
 H1287 H 0.54522 0.25734 0.84326
 H1288 H 0.56712 0.18347 0.87276
 H1289 H 0.59249 0.29582 0.90351
 H1290 H 0.57360 0.27878 0.87176
 C1291 C 0.40770 0.73659 0.91389
 C1292 C 0.39610 0.75142 0.93307
 C1293 C 0.38326 0.73921 0.95284
 C1294 C 0.38216 0.71231 0.95430
 C1295 C 0.39342 0.69750 0.93534
 C1296 C 0.40592 0.70946 0.91520
 C1297 C 0.42232 0.75048 0.89382
 C1298 C 0.43440 0.73775 0.87365
 C1299 C 0.44915 0.75149 0.85651
 C1300 C 0.45229 0.77817 0.85914
 C1301 C 0.43952 0.79114 0.87845
 C1302 C 0.42456 0.77761 0.89563
 C1303 C 0.39812 0.77830 0.93302
 C1304 C 0.41222 0.79110 0.91483
 H1305 H 0.38917 0.78960 0.94769
 H1306 H 0.41372 0.81189 0.91601
 H1307 H 0.37474 0.75062 0.96774
 H1308 H 0.39297 0.67666 0.93646
 H1309 H 0.45872 0.74108 0.84165
 H1310 H 0.44151 0.81183 0.88038
 H1311 H 0.41459 0.69715 0.90132
 H1312 H 0.43296 0.71721 0.87098
 C1313 C 0.74990 0.91135 0.39608
 C1314 C 0.72408 0.91081 0.39897
 C1315 C 0.70962 0.93007 0.38759
 C1316 C 0.72061 0.94995 0.37350
 C1317 C 0.74593 0.94952 0.36928
 C1318 C 0.76044 0.93036 0.38021
 C1319 C 0.76495 0.89273 0.41135
 C1320 C 0.79075 0.89365 0.41196
 C1321 C 0.80388 0.87806 0.42874
 C1322 C 0.79176 0.86077 0.44501
 C1323 C 0.76618 0.85852 0.44354
 C1324 C 0.75267 0.87473 0.42725
 C1325 C 0.71301 0.89183 0.41416
 C1326 C 0.72700 0.87403 0.42782
 H1327 H 0.69324 0.89116 0.41608
 H1328 H 0.71756 0.86016 0.43983
 H1329 H 0.69000 0.93053 0.39096
 H1330 H 0.75462 0.96478 0.35839
 H1331 H 0.82365 0.87997 0.42939
 H1332 H 0.75667 0.84533 0.45624
 H1333 H 0.77989 0.93137 0.37670
 H1334 H 0.80116 0.90692 0.40038
 C1335 C 0.25250 0.91396 0.60373
 C1336 C 0.27787 0.91766 0.59930
 C1337 C 0.29052 0.93733 0.61216
 C1338 C 0.27824 0.95310 0.62970
 C1339 C 0.25357 0.94818 0.63536
 C1340 C 0.24085 0.92879 0.62268
 C1341 C 0.23894 0.89518 0.58729
 C1342 C 0.21321 0.89286 0.58779
 C1343 C 0.20118 0.87686 0.57058
 C1344 C 0.21442 0.86235 0.55279
 C1345 C 0.24010 0.86369 0.55268
 C1346 C 0.25240 0.88052 0.56932
 C1347 C 0.29022 0.90226 0.58152
 C1348 C 0.27782 0.88377 0.56717
 H1349 H 0.30972 0.90476 0.57840
 H1350 H 0.28816 0.87258 0.55344
 H1351 H 0.30960 0.94116 0.60771
 H1352 H 0.24389 0.96009 0.64899
 H1353 H 0.18133 0.87606 0.57098
 H1354 H 0.25039 0.85282 0.53864
 H1355 H 0.22181 0.92617 0.62760
 H1356 H 0.20194 0.90388 0.60067
 C1357 C 0.25657 0.08921 0.40310
 C1358 C 0.24308 0.07340 0.38620
 C1359 C 0.25498 0.05414 0.37220
 C1360 C 0.28007 0.04950 0.37544
 C1361 C 0.29356 0.06526 0.39190
 C1362 C 0.28205 0.08511 0.40538
 C1363 C 0.24276 0.10829 0.41909
 C1364 C 0.25430 0.12550 0.43606
 C1365 C 0.24038 0.14122 0.45218
 C1366 C 0.21473 0.13993 0.45188
 C1367 C 0.20310 0.12395 0.43415
 C1368 C 0.21684 0.10842 0.41763
 C1369 C 0.21759 0.07582 0.38444
 C1370 C 0.20471 0.09268 0.40009
 H1371 H 0.20731 0.06373 0.37146
 H1372 H 0.18490 0.09314 0.39869
 H1373 H 0.24447 0.04168 0.35974
 H1374 H 0.31287 0.06158 0.39501
 H1375 H 0.24969 0.15364 0.46561
 H1376 H 0.18324 0.12332 0.43349
 H1377 H 0.29318 0.09625 0.41825
 H1378 H 0.27399 0.12681 0.43742
 C1379 C 0.74822 0.09062 0.60741
 C1380 C 0.72276 0.08724 0.60340
 C1381 C 0.71038 0.06662 0.61515
 C1382 C 0.72309 0.04921 0.63074
 C1383 C 0.74796 0.05332 0.63572
 C1384 C 0.76039 0.07387 0.62441
 C1385 C 0.76139 0.11076 0.59208
 C1386 C 0.78702 0.11389 0.59293
 C1387 C 0.79885 0.13030 0.57583
 C1388 C 0.78548 0.14445 0.55784
 C1389 C 0.75982 0.14305 0.55802
 C1390 C 0.74772 0.12591 0.57464
 C1391 C 0.71009 0.10369 0.58681
 C1392 C 0.72229 0.12271 0.57284
 H1393 H 0.69054 0.10134 0.58401
 H1394 H 0.71177 0.13442 0.55968
 H1395 H 0.69114 0.06329 0.61116
 H1396 H 0.75798 0.04001 0.64778
 H1397 H 0.81869 0.13130 0.57610
 H1398 H 0.74944 0.15380 0.54395
 H1399 H 0.77962 0.07573 0.62865
 H1400 H 0.79843 0.10311 0.60587
 C1401 C 0.91678 0.60451 0.24747
 C1402 C 0.92094 0.60042 0.27382
 C1403 C 0.94058 0.61286 0.28602
 C1404 C 0.95598 0.62955 0.27231
 C1405 C 0.95097 0.63469 0.24664
 C1406 C 0.93155 0.62250 0.23436
 C1407 C 0.89759 0.58862 0.23446
 C1408 C 0.89413 0.58909 0.20785
 C1409 C 0.87787 0.57209 0.19626
 C1410 C 0.86423 0.55452 0.21085
 C1411 C 0.86654 0.55469 0.23747
 C1412 C 0.88354 0.57116 0.24932
 C1413 C 0.90600 0.58335 0.28758
 C1414 C 0.88750 0.56928 0.27565
 H1415 H 0.90892 0.58049 0.30783
 H1416 H 0.87673 0.55599 0.28707
 H1417 H 0.94453 0.60878 0.30588
 H1418 H 0.96266 0.64763 0.23584
 H1419 H 0.87629 0.57231 0.17567
 H1420 H 0.85628 0.54087 0.24880
 H1421 H 0.92883 0.62702 0.21449
 H1422 H 0.90441 0.60174 0.19549
 C1423 C 0.91225 0.40317 0.74617
 C1424 C 0.92864 0.38880 0.76158
 C1425 C 0.94829 0.37556 0.75042
 C1426 C 0.95248 0.37696 0.72410
 C1427 C 0.93643 0.39125 0.70879
 C1428 C 0.91638 0.40402 0.71961
 C1429 C 0.89222 0.41809 0.75909
 C1430 C 0.87446 0.43248 0.74566
 C1431 C 0.85768 0.44802 0.75872
 C1432 C 0.85835 0.44964 0.78538
 C1433 C 0.87488 0.43418 0.79894
 C1434 C 0.89161 0.41834 0.78608
 C1435 C 0.92600 0.38859 0.78813
 C1436 C 0.90809 0.40334 0.80014
 H1437 H 0.93852 0.37755 0.79988
 H1438 H 0.90735 0.40325 0.82080
 H1439 H 0.96094 0.36481 0.76232
 H1440 H 0.93973 0.39294 0.68848
 H1441 H 0.84498 0.45977 0.74791
 H1442 H 0.87518 0.43505 0.81960
 H1443 H 0.90484 0.41507 0.70700
 H1444 H 0.87356 0.43240 0.72512
 C1445 C 0.08026 0.59289 0.74546
 C1446 C 0.07929 0.58903 0.71874
 C1447 C 0.06033 0.60026 0.70433
 C1448 C 0.04243 0.61536 0.71630
 C1449 C 0.04389 0.61986 0.74252
 C1450 C 0.06258 0.60891 0.75696
 C1451 C 0.09952 0.57899 0.76049
 C1452 C 0.10072 0.58006 0.78730
 C1453 C 0.11753 0.56504 0.80064
 C1454 C 0.13390 0.54889 0.78771
 C1455 C 0.13378 0.54857 0.76095
 C1456 C 0.11642 0.56314 0.74728
 C1457 C 0.09691 0.57359 0.70673
 C1458 C 0.11517 0.56107 0.72067
 H1459 H 0.09637 0.57083 0.68626
 H1460 H 0.12812 0.54900 0.71052
 H1461 H 0.05913 0.59685 0.68398
 H1462 H 0.03018 0.63160 0.75193
 H1463 H 0.11739 0.56568 0.82129
 H1464 H 0.14623 0.53590 0.75085
 H1465 H 0.06256 0.61299 0.77709
 H1466 H 0.08840 0.59171 0.79846
 C1467 C 0.08592 0.39735 0.25552
 C1468 C 0.07051 0.38130 0.24073
 C1469 C 0.05098 0.36812 0.25224
 C1470 C 0.04597 0.37116 0.27824
 C1471 C 0.06128 0.38677 0.29303
 C1472 C 0.08119 0.39956 0.28190
 C1473 C 0.10550 0.41253 0.24205
 C1474 C 0.12204 0.42893 0.25483
 C1475 C 0.13833 0.44452 0.24107
 C1476 C 0.13839 0.44417 0.21436
 C1477 C 0.12308 0.42681 0.20158
 C1478 C 0.10683 0.41097 0.21514
 C1479 C 0.07388 0.37943 0.21435
 C1480 C 0.09148 0.39417 0.20178
 H1481 H 0.06214 0.36705 0.20309
 H1482 H 0.09279 0.39272 0.18121
 H1483 H 0.03890 0.35629 0.24076
 H1484 H 0.05735 0.38963 0.31308
 H1485 H 0.15014 0.45768 0.25131
 H1486 H 0.12339 0.42610 0.18091
 H1487 H 0.09207 0.41175 0.29405
 H1488 H 0.12234 0.43038 0.27533
   
