data_POSCAR
  _audit_creation_date              2014-09-24
  _audit_creation_method            'ToBaCCo'
  _symmetry_space_group_name_H-M    'P1'
  _symmetry_Int_Tables_number       1
  _symmetry_cell_setting            triclinic
  loop_
  _symmetry_equiv_pos_as_xyz
 x,y,z
_cell_length_a 73.5752
_cell_length_b 74.8000
_cell_length_c 76.6077
_cell_angle_alpha 88.622700
_cell_angle_beta 88.241000
_cell_angle_gamma 87.848800
loop_
  _atom_site_label
  _atom_site_type_symbol
  _atom_site_fract_x
  _atom_site_fract_y
  _atom_site_fract_z
C1 C 0.40781 0.00418 0.27750
 H2 H 0.41060 0.01456 0.26782
 C3 C 0.41622 0.00421 0.29370
 H4 H 0.42551 0.01462 0.29641
 C5 C 0.39146 -0.02135 0.28631
 H6 H 0.38139 -0.03099 0.28380
 C7 C 0.39939 -0.02172 0.30258
 H8 H 0.39557 -0.03189 0.31218
 N9 N 0.39567 -0.00852 0.27411
 C10 C 0.38875 -0.01018 0.21760
 H11 H 0.37412 -0.01124 0.21802
 C12 C 0.39832 -0.01086 0.20164
 H13 H 0.39093 -0.01240 0.18979
 C14 C 0.41605 -0.00685 0.23262
 H15 H 0.42292 -0.00552 0.24475
 C16 C 0.42620 -0.00726 0.21681
 H17 H 0.44085 -0.00629 0.21690
 Zn18 Zn 0.38231 -0.00773 0.25312
 N19 N 0.39764 -0.00821 0.23268
 C20 C 0.37033 0.02644 0.24013
 N21 N 0.36760 0.01379 0.25292
 C22 C 0.35529 0.01677 0.26624
 C23 C 0.34501 0.03288 0.26693
 C24 C 0.36048 0.04278 0.24040
 C25 C 0.37738 -0.04439 0.25222
 C26 C 0.36841 -0.06047 0.25403
 C27 C 0.33987 -0.04360 0.25585
 C28 C 0.34950 -0.02780 0.25417
 N29 N 0.36796 -0.02846 0.25290
 H30 H 0.38051 0.02410 0.22990
 H31 H 0.35356 0.00666 0.27644
 H32 H 0.33516 0.03482 0.27756
 H33 H 0.36335 0.05279 0.23036
 H34 H 0.39206 -0.04457 0.25078
 H35 H 0.37676 -0.07261 0.25296
 H36 H 0.32532 -0.04207 0.25793
 H37 H 0.34217 -0.01502 0.25445
 C38 C 0.41730 -0.00944 0.20109
 C39 C 0.41173 -0.00871 0.30656
 C40 C 0.34922 -0.06057 0.25636
 C41 C 0.34763 0.04627 0.25397
 C42 C 0.10555 0.01495 0.71166
 H43 H 0.11744 0.02289 0.71205
 C44 C 0.09507 0.01577 0.69674
 H45 H 0.09931 0.02418 0.68577
 C46 C 0.08575 -0.00577 0.72522
 H47 H 0.08197 -0.01392 0.73649
 C48 C 0.07483 -0.00529 0.71058
 H49 H 0.06274 -0.01311 0.71078
 N50 N 0.10087 0.00417 0.72551
 C51 C 0.10177 -0.00908 0.77936
 H52 H 0.11340 -0.01835 0.77901
 C53 C 0.09029 -0.00841 0.79423
 H54 H 0.09330 -0.01718 0.80529
 C55 C 0.08430 0.01424 0.76570
 H56 H 0.08221 0.02315 0.75455
 C57 C 0.07248 0.01535 0.78028
 H58 H 0.06115 0.02501 0.78014
 Zn59 Zn 0.11507 0.00265 0.74599
 N60 N 0.09870 0.00228 0.76556
 C61 C 0.12601 0.03497 0.76055
 N62 N 0.12978 0.02322 0.74750
 C63 C 0.14329 0.02634 0.73539
 C64 C 0.15292 0.04213 0.73563
 C65 C 0.13525 0.05093 0.76125
 C66 C 0.12081 -0.03451 0.74309
 C67 C 0.13055 -0.05080 0.74146
 C68 C 0.15830 -0.03539 0.74544
 C69 C 0.14800 -0.01932 0.74691
 N70 N 0.12958 -0.01910 0.74548
 H71 H 0.11547 0.03229 0.77026
 H72 H 0.14638 0.01672 0.72531
 H73 H 0.16344 0.04440 0.72573
 H74 H 0.13139 0.06036 0.77133
 H75 H 0.10618 -0.03418 0.74230
 H76 H 0.12323 -0.06285 0.73952
 H77 H 0.17296 -0.03523 0.74625
 H78 H 0.15477 -0.00703 0.74905
 C79 C 0.07550 0.00406 0.79489
 C80 C 0.07944 0.00558 0.69603
 C81 C 0.14959 -0.05140 0.74242
 C82 C 0.14868 0.05489 0.74848
 C83 C 0.60714 0.51251 0.21234
 H84 H 0.61912 0.52026 0.21315
 C85 C 0.59719 0.51360 0.19708
 H86 H 0.60193 0.52199 0.18630
 C87 C 0.58659 0.49205 0.22513
 H88 H 0.58231 0.48390 0.23624
 C89 C 0.57616 0.49283 0.21016
 H90 H 0.56394 0.48523 0.20995
 N91 N 0.60185 0.50171 0.22595
 C92 C 0.59998 0.48801 0.27959
 H93 H 0.61114 0.47818 0.27959
 C94 C 0.58793 0.48911 0.29403
 H95 H 0.59000 0.48009 0.30511
 C96 C 0.58432 0.51233 0.26555
 H97 H 0.58318 0.52146 0.25443
 C98 C 0.57199 0.51390 0.27968
 H99 H 0.56121 0.52414 0.27924
 Zn100 Zn 0.61525 0.49973 0.24691
 N101 N 0.59810 0.49969 0.26584
 C102 C 0.62663 0.53140 0.26242
 N103 N 0.63038 0.51989 0.24915
 C104 C 0.64418 0.52297 0.23735
 C105 C 0.65405 0.53856 0.23804
 C106 C 0.63614 0.54714 0.26358
 C107 C 0.62037 0.46245 0.24394
 C108 C 0.62993 0.44605 0.24232
 C109 C 0.65778 0.46102 0.24705
 C110 C 0.64766 0.47719 0.24852
 N111 N 0.62930 0.47769 0.24670
 H112 H 0.61592 0.52870 0.27194
 H113 H 0.64729 0.51350 0.22714
 H114 H 0.66475 0.54087 0.22832
 H115 H 0.63230 0.55643 0.27379
 H116 H 0.60577 0.46301 0.24281
 H117 H 0.62249 0.43414 0.24008
 H118 H 0.67242 0.46099 0.24814
 H119 H 0.65456 0.48935 0.25092
 C120 C 0.57383 0.50235 0.29428
 C121 C 0.58143 0.50368 0.19582
 C122 C 0.64893 0.44518 0.24365
 C123 C 0.64979 0.55114 0.25106
 C124 C 0.91046 0.49740 0.77925
 H125 H 0.91450 0.50743 0.76964
 C126 C 0.91887 0.49630 0.79549
 H127 H 0.92920 0.50575 0.79801
 C128 C 0.89112 0.47406 0.78788
 H129 H 0.88008 0.46555 0.78519
 C130 C 0.89884 0.47270 0.80423
 H131 H 0.89399 0.46243 0.81320
 N132 N 0.89689 0.48627 0.77571
 C133 C 0.88918 0.48623 0.71911
 H134 H 0.87450 0.48572 0.71991
 C135 C 0.89820 0.48577 0.70287
 H136 H 0.89033 0.48496 0.69122
 C137 C 0.91711 0.48811 0.73341
 H138 H 0.92443 0.48882 0.74536
 C139 C 0.92675 0.48786 0.71729
 H140 H 0.94144 0.48831 0.71698
 Zn141 Zn 0.88355 0.48812 0.75465
 N142 N 0.89862 0.48744 0.73398
 C143 C 0.87290 0.52280 0.74205
 N144 N 0.86962 0.51018 0.75475
 C145 C 0.85731 0.51352 0.76800
 C146 C 0.84756 0.52994 0.76867
 C147 C 0.86356 0.53942 0.74227
 C148 C 0.87758 0.45180 0.75283
 C149 C 0.86827 0.43589 0.75432
 C150 C 0.84010 0.45327 0.75748
 C151 C 0.85000 0.46893 0.75597
 N152 N 0.86847 0.46790 0.75412
 H153 H 0.88309 0.52022 0.73190
 H154 H 0.85515 0.50343 0.77813
 H155 H 0.83769 0.53219 0.77922
 H156 H 0.86680 0.54934 0.73226
 H157 H 0.89225 0.45133 0.75124
 H158 H 0.87589 0.42325 0.75351
 H159 H 0.82548 0.45432 0.75956
 H160 H 0.84294 0.48182 0.75678
 C161 C 0.91723 0.48655 0.70177
 C162 C 0.91279 0.48407 0.80857
 C163 C 0.84930 0.43644 0.75705
 C164 C 0.85068 0.54325 0.75572
 C165 C 0.22675 0.38426 1.01384
 H166 H 0.23472 0.38270 1.02543
 C167 C 0.21105 0.39542 1.01413
 H168 H 0.20721 0.40234 1.02600
 C169 C 0.22135 0.37615 0.98486
 H170 H 0.22508 0.36846 0.97350
 C171 C 0.20574 0.38733 0.98449
 H172 H 0.19812 0.38834 0.97262
 N173 N 0.23166 0.37487 0.99933
 C174 C 0.28863 0.36806 0.98901
 H175 H 0.28751 0.35743 0.97989
 C176 C 0.30474 0.37729 0.98915
 H177 H 0.31565 0.37385 0.97988
 C178 C 0.27638 0.38477 1.01273
 H179 H 0.26538 0.38755 1.02202
 C180 C 0.29241 0.39426 1.01344
 H181 H 0.29345 0.40450 1.02307
 Zn182 Zn 0.25278 0.35907 0.99939
 N183 N 0.27460 0.37218 1.00039
 C184 C 0.25676 0.35411 0.96315
 N185 N 0.25347 0.34543 0.97867
 C186 C 0.25052 0.32755 0.97938
 C187 C 0.25102 0.31769 0.96405
 C188 C 0.25760 0.34476 0.94761
 C189 C 0.23641 0.34135 1.02893
 C190 C 0.23651 0.33035 1.04395
 C191 C 0.26844 0.32338 1.03821
 C192 C 0.26771 0.33444 1.02329
 N193 N 0.25194 0.34336 1.01910
 H194 H 0.25886 0.36836 0.96289
 H195 H 0.24776 0.32093 0.99183
 H196 H 0.24884 0.30345 0.96480
 H197 H 0.26033 0.35192 0.93541
 H198 H 0.22396 0.34837 1.02523
 H199 H 0.22415 0.32927 1.05188
 H200 H 0.28116 0.31651 1.04140
 H201 H 0.27982 0.33616 1.01515
 C202 C 0.30673 0.39074 1.00133
 C203 C 0.20026 0.39712 0.99928
 C204 C 0.25275 0.32138 1.04888
 C205 C 0.25481 0.32630 0.94794
 C206 C 0.77595 0.12543 0.98664
 H207 H 0.77203 0.13336 0.97534
 C208 C 0.79275 0.11601 0.98620
 H209 H 0.80140 0.11776 0.97468
 C210 C 0.76945 0.11442 1.01517
 H211 H 0.76022 0.11337 1.02631
 C212 C 0.78608 0.10476 1.01531
 H213 H 0.78879 0.09629 1.02664
 N214 N 0.76486 0.12499 1.00119
 C215 C 0.70590 0.13490 1.00886
 H216 H 0.70540 0.14936 1.00914
 C217 C 0.68994 0.12553 1.01164
 H218 H 0.67719 0.13296 1.01378
 C219 C 0.72316 0.10780 1.00526
 H220 H 0.73614 0.10096 1.00274
 C221 C 0.70752 0.09789 1.00802
 H222 H 0.70873 0.08343 1.00779
 Zn223 Zn 0.74300 0.14000 1.00223
 N224 N 0.72207 0.12598 1.00568
 C225 C 0.72782 0.14985 0.96973
 N226 N 0.74131 0.15337 0.98075
 C227 C 0.75456 0.16489 0.97590
 C228 C 0.75506 0.17267 0.95911
 C229 C 0.72778 0.15735 0.95287
 C230 C 0.74336 0.14756 1.03776
 C231 C 0.74517 0.15762 1.05265
 C232 C 0.74589 0.18434 1.03438
 C233 C 0.74436 0.17368 1.01973
 N234 N 0.74370 0.15554 1.02162
 H235 H 0.71748 0.14058 0.97369
 H236 H 0.76534 0.16726 0.98475
 H237 H 0.76624 0.18104 0.95521
 H238 H 0.71714 0.15402 0.94418
 H239 H 0.74171 0.13333 1.03914
 H240 H 0.74549 0.15095 1.06535
 H241 H 0.74700 0.19868 1.03272
 H242 H 0.74394 0.17994 1.00690
 C243 C 0.69057 0.10674 1.01122
 C244 C 0.79848 0.10575 1.00088
 C245 C 0.74679 0.17618 1.05101
 C246 C 0.74182 0.16852 0.94717
 C247 C 0.26652 0.61414 0.49112
 H248 H 0.25651 0.61204 0.48140
 C249 C 0.28315 0.60436 0.49058
 H250 H 0.28571 0.59451 0.48059
 C251 C 0.27549 0.62974 0.51578
 H252 H 0.27283 0.64002 0.52526
 C253 C 0.29216 0.62021 0.51579
 H254 H 0.30199 0.62322 0.52544
 N255 N 0.26292 0.62645 0.50370
 C256 C 0.20348 0.63514 0.50681
 H257 H 0.20271 0.64957 0.50528
 C258 C 0.18755 0.62573 0.50955
 H259 H 0.17456 0.63304 0.50978
 C260 C 0.22142 0.60823 0.50819
 H261 H 0.23467 0.60149 0.50797
 C262 C 0.20581 0.59827 0.51098
 H263 H 0.20727 0.58390 0.51285
 Zn264 Zn 0.24080 0.64064 0.50317
 N265 N 0.21999 0.62633 0.50605
 C266 C 0.22789 0.64980 0.46946
 N267 N 0.24081 0.65295 0.48121
 C268 C 0.25508 0.66341 0.47689
 C269 C 0.25693 0.67094 0.46006
 C270 C 0.22924 0.65700 0.45250
 C271 C 0.23964 0.64895 0.53822
 C272 C 0.24076 0.65932 0.55299
 C273 C 0.24087 0.68583 0.53434
 C274 C 0.24002 0.67487 0.51981
 N275 N 0.23995 0.65675 0.52200
 H276 H 0.21686 0.64117 0.47299
 H277 H 0.26538 0.66541 0.48636
 H278 H 0.26869 0.67873 0.45668
 H279 H 0.21895 0.65412 0.44327
 H280 H 0.23931 0.63454 0.53960
 H281 H 0.24137 0.65284 0.56577
 H282 H 0.24166 0.70018 0.53248
 H283 H 0.23990 0.68083 0.50682
 C284 C 0.18854 0.60701 0.51169
 C285 C 0.29620 0.60729 0.50312
 C286 C 0.24174 0.67794 0.55110
 C287 C 0.24409 0.66746 0.44750
 C288 C 0.72229 0.88866 0.51390
 H289 H 0.73037 0.88754 0.52543
 C290 C 0.70688 0.90022 0.51384
 H291 H 0.70344 0.90782 0.52540
 C292 C 0.71615 0.87911 0.48556
 H293 H 0.71943 0.87069 0.47460
 C294 C 0.70085 0.89071 0.48481
 H295 H 0.69308 0.89128 0.47303
 N296 N 0.72666 0.87828 0.49991
 C297 C 0.78350 0.86959 0.49014
 H298 H 0.78202 0.85920 0.48082
 C299 C 0.79987 0.87840 0.49031
 H300 H 0.81060 0.87486 0.48088
 C301 C 0.77191 0.88611 0.51423
 H302 H 0.76110 0.88896 0.52369
 C303 C 0.78819 0.89520 0.51495
 H304 H 0.78955 0.90523 0.52474
 Zn305 Zn 0.74727 0.86163 0.50039
 N306 N 0.76965 0.87387 0.50166
 C307 C 0.75130 0.85673 0.46413
 N308 N 0.74775 0.84801 0.47958
 C309 C 0.74455 0.83018 0.48015
 C310 C 0.74528 0.82037 0.46478
 C311 C 0.75232 0.84743 0.44855
 C312 C 0.73087 0.84638 0.53127
 C313 C 0.73034 0.83520 0.54613
 C314 C 0.75984 0.82256 0.53748
 C315 C 0.75992 0.83422 0.52293
 N316 N 0.74561 0.84587 0.52013
 H317 H 0.75355 0.87094 0.46396
 H318 H 0.74149 0.82352 0.49251
 H319 H 0.74304 0.80614 0.46546
 H320 H 0.75531 0.85462 0.43642
 H321 H 0.71950 0.85553 0.52875
 H322 H 0.71869 0.83634 0.55505
 H323 H 0.77127 0.81323 0.53922
 H324 H 0.77144 0.83400 0.51381
 C325 C 0.80230 0.89160 0.50264
 C326 C 0.69584 0.90140 0.49914
 C327 C 0.74497 0.82305 0.54947
 C328 C 0.74947 0.82898 0.44876
 C329 C 0.01226 0.27352 0.40736
 H330 H 0.02568 0.26719 0.40604
 C331 C 0.00913 0.28738 0.41898
 H332 H 0.02033 0.29192 0.42637
 C333 C -0.01845 0.27569 0.39873
 H334 H -0.02913 0.27105 0.39081
 C335 C -0.02218 0.28966 0.41018
 H336 H -0.03575 0.29575 0.41097
 N337 N -0.00135 0.26821 0.39729
 C338 C 0.02082 0.21555 0.38388
 H339 H 0.02223 0.21645 0.36986
 C340 C 0.02525 0.19936 0.39238
 H341 H 0.02966 0.18821 0.38438
 C342 C 0.01144 0.22855 0.41067
 H343 H 0.00555 0.23973 0.41777
 C344 C 0.01569 0.21266 0.41971
 H345 H 0.01380 0.21248 0.43377
 Zn346 Zn 0.00421 0.25016 0.38107
 N347 N 0.01367 0.22962 0.39302
 C348 C 0.02470 0.24816 0.34971
 N349 N 0.02100 0.25846 0.36385
 C350 C 0.02897 0.27443 0.36550
 C351 C 0.04242 0.27976 0.35350
 C352 C 0.03819 0.25288 0.33748
 C353 C -0.02506 0.22852 0.37411
 C354 C -0.04074 0.22403 0.36570
 C355 C -0.03920 0.25173 0.34882
 C356 C -0.02362 0.25571 0.35760
 N357 N -0.01692 0.24414 0.36993
 H358 H 0.01736 0.23612 0.34803
 H359 H 0.02523 0.28296 0.37627
 H360 H 0.04899 0.29227 0.35531
 H361 H 0.04169 0.24391 0.32692
 H362 H -0.01947 0.21958 0.38403
 H363 H -0.04708 0.21153 0.36906
 H364 H -0.04453 0.26119 0.33918
 H365 H -0.01683 0.26805 0.35463
 C366 C 0.02198 0.19739 0.41056
 C367 C -0.00819 0.29582 0.42026
 C368 C -0.04792 0.23570 0.35284
 C369 C 0.04765 0.26860 0.33962
 C370 C 0.01746 0.71705 0.10550
 H371 H 0.02756 0.71679 0.11542
 C372 C 0.01769 0.70344 0.09339
 H373 H 0.02798 0.69272 0.09408
 C374 C -0.00879 0.73074 0.09285
 H375 H -0.01904 0.74149 0.09281
 C376 C -0.00922 0.71727 0.08068
 H377 H -0.01989 0.71757 0.07123
 N378 N 0.00442 0.73040 0.10489
 C379 C 0.00813 0.78577 0.11832
 H380 H 0.00516 0.78520 0.13224
 C381 C 0.01008 0.80223 0.10973
 H382 H 0.00835 0.81439 0.11708
 C383 C 0.01290 0.77054 0.09167
 H384 H 0.01401 0.75816 0.08470
 C385 C 0.01509 0.78666 0.08257
 H386 H 0.01784 0.78656 0.06861
 Zn387 Zn 0.00316 0.74909 0.12076
 N388 N 0.00878 0.77048 0.10908
 C389 C 0.03762 0.74467 0.13372
 N390 N 0.01974 0.74514 0.13863
 C391 C 0.01424 0.74352 0.15571
 C392 C 0.02709 0.74080 0.16863
 C393 C 0.05086 0.74178 0.14612
 C394 C -0.03173 0.76517 0.12760
 C395 C -0.04961 0.76552 0.13414
 C396 C -0.04480 0.73500 0.14451
 C397 C -0.02705 0.73533 0.13778
 N398 N -0.02078 0.75035 0.12984
 H399 H 0.04156 0.74650 0.12008
 H400 H -0.00005 0.74447 0.15936
 H401 H 0.02264 0.73944 0.18219
 H402 H 0.06508 0.74146 0.14201
 H403 H -0.02666 0.77683 0.12076
 H404 H -0.05726 0.77806 0.13282
 H405 H -0.04917 0.72235 0.14992
 H406 H -0.01820 0.72348 0.13872
 C407 C 0.01304 0.80278 0.09153
 C408 C 0.00416 0.70346 0.08091
 C409 C -0.05662 0.75036 0.14310
 C410 C 0.04561 0.73970 0.16379
 C411 C 0.51154 0.22585 0.60143
 H412 H 0.52478 0.23134 0.60291
 C413 C 0.50961 0.21142 0.59058
 H414 H 0.52153 0.20562 0.58393
 C415 C 0.47998 0.22650 0.60881
 H416 H 0.46850 0.23230 0.61605
 C417 C 0.47740 0.21215 0.59801
 H418 H 0.46386 0.20722 0.59685
 N419 N 0.49679 0.23320 0.61007
 C420 C 0.50811 0.28852 0.61703
 H421 H 0.50659 0.28924 0.63109
 C422 C 0.51062 0.30400 0.60698
 H423 H 0.51082 0.31673 0.61341
 C424 C 0.50827 0.27107 0.59156
 H425 H 0.50687 0.25829 0.58559
 C426 C 0.51091 0.28621 0.58100
 H427 H 0.51183 0.28490 0.56695
 Zn428 Zn 0.50076 0.25308 0.62369
 N429 N 0.50680 0.27255 0.60920
 C430 C 0.53583 0.25544 0.63611
 N431 N 0.51995 0.24689 0.63849
 C432 C 0.51821 0.23316 0.65034
 C433 C 0.53280 0.22782 0.66073
 C434 C 0.55079 0.25033 0.64593
 C435 C 0.46519 0.26617 0.62670
 C436 C 0.44848 0.27040 0.63489
 C437 C 0.46192 0.26326 0.66274
 C438 C 0.47839 0.25918 0.65400
 N439 N 0.47949 0.26005 0.63627
 H440 H 0.53709 0.26596 0.62629
 H441 H 0.50554 0.22629 0.65159
 H442 H 0.53139 0.21689 0.67015
 H443 H 0.56342 0.25716 0.64385
 H444 H 0.46664 0.26711 0.61262
 H445 H 0.43695 0.27426 0.62701
 H446 H 0.46101 0.26193 0.67684
 H447 H 0.49011 0.25497 0.66139
 C448 C 0.51175 0.30298 0.58871
 C449 C 0.49234 0.20449 0.58868
 C450 C 0.44661 0.26844 0.65309
 C451 C 0.54933 0.23637 0.65834
 C452 C 0.51167 0.77624 0.90648
 H453 H 0.52524 0.77063 0.90443
 C454 C 0.50875 0.79001 0.91823
 H455 H 0.52026 0.79521 0.92470
 C456 C 0.48023 0.77646 0.90055
 H457 H 0.46909 0.77093 0.89389
 C458 C 0.47671 0.79035 0.91213
 H459 H 0.46290 0.79561 0.91411
 N460 N 0.49756 0.76995 0.89769
 C461 C 0.51779 0.71706 0.88396
 H462 H 0.51854 0.71837 0.86987
 C463 C 0.52260 0.70081 0.89214
 H464 H 0.52678 0.68950 0.88422
 C465 C 0.51002 0.72997 0.91131
 H466 H 0.50469 0.74125 0.91867
 C467 C 0.51482 0.71404 0.92003
 H468 H 0.51330 0.71321 0.93413
 Zn469 Zn 0.50238 0.75148 0.88165
 N470 N 0.51113 0.73099 0.89359
 C471 C 0.53783 0.75812 0.87094
 N472 N 0.52059 0.75804 0.86509
 C473 C 0.51709 0.76109 0.84789
 C474 C 0.53124 0.76465 0.83592
 C475 C 0.55231 0.76169 0.85948
 C476 C 0.47408 0.72950 0.87217
 C477 C 0.45852 0.72529 0.86342
 C478 C 0.45686 0.75557 0.85165
 C479 C 0.47234 0.75924 0.86072
 N480 N 0.48083 0.74616 0.87043
 H481 H 0.54049 0.75460 0.88439
 H482 H 0.50347 0.76034 0.84326
 H483 H 0.52830 0.76690 0.82226
 H484 H 0.56600 0.76112 0.86434
 H485 H 0.48075 0.71940 0.88027
 H486 H 0.45347 0.71189 0.86464
 H487 H 0.45032 0.76609 0.84386
 H488 H 0.47773 0.77250 0.85993
 C489 C 0.52058 0.69904 0.91036
 C490 C 0.49114 0.79737 0.92098
 C491 C 0.44993 0.73836 0.85281
 C492 C 0.54910 0.76492 0.84172
 C493 C -0.24340 0.65498 0.97029
 H494 H -0.23192 0.64572 0.97200
 C495 C -0.24411 0.66601 0.95535
 H496 H -0.23314 0.66495 0.94565
 C497 C -0.27209 0.66668 0.98036
 H498 H -0.28302 0.66667 0.99013
 C499 C -0.27328 0.67808 0.96568
 H500 H -0.28510 0.68702 0.96442
 N501 N -0.25729 0.65546 0.98241
 C502 C -0.25841 0.64195 1.03806
 H503 H -0.25794 0.62751 1.03732
 C504 C -0.25937 0.64997 1.05430
 H505 H -0.25931 0.64133 1.06583
 C506 C -0.25785 0.67024 1.02363
 H507 H -0.25712 0.67806 1.01160
 C508 C -0.25819 0.67888 1.03967
 H509 H -0.25834 0.69335 1.03959
 Zn510 Zn -0.25685 0.63938 1.00189
 N511 N -0.25826 0.65209 1.02313
 C512 C -0.21997 0.63562 1.00733
 N513 N -0.23420 0.62622 1.00210
 C514 C -0.23200 0.60861 0.99816
 C515 C -0.21483 0.59991 0.99921
 C516 C -0.20277 0.62739 1.00897
 C517 C -0.29014 0.62432 1.01346
 C518 C -0.30505 0.61340 1.01276
 C519 C -0.29374 0.60309 0.98472
 C520 C -0.27884 0.61410 0.98607
 N521 N -0.27712 0.62421 1.00045
 H522 H -0.22208 0.64956 1.01056
 H523 H -0.24348 0.60129 0.99416
 H524 H -0.21335 0.58604 0.99556
 H525 H -0.19197 0.63518 1.01379
 H526 H -0.28917 0.63299 1.02441
 H527 H -0.31516 0.61363 1.02334
 H528 H -0.29477 0.59491 0.97335
 H529 H -0.26861 0.61457 0.97563
 C530 C -0.25944 0.66878 1.05544
 C531 C -0.25922 0.67777 0.95282
 C532 C -0.30694 0.60247 0.99835
 C533 C -0.19985 0.60928 1.00478
 C534 C -0.22693 0.34975 0.52162
 H535 H -0.21579 0.35772 0.51688
 C536 C -0.22550 0.34065 0.53678
 H537 H -0.21293 0.34138 0.54364
 C538 C -0.25534 0.33725 0.51588
 H539 H -0.26687 0.33595 0.50764
 C540 C -0.25454 0.32714 0.53268
 H541 H -0.26620 0.31943 0.53645
 N542 N -0.24274 0.34835 0.51131
 C543 C -0.25740 0.34442 0.45969
 H544 H -0.26926 0.35335 0.46052
 C545 C -0.25528 0.33264 0.44578
 H546 H -0.26549 0.33282 0.43589
 C547 C -0.22945 0.33365 0.47122
 H548 H -0.21935 0.33425 0.48115
 C549 C -0.22677 0.32173 0.45757
 H550 H -0.21467 0.31304 0.45720
 Zn551 Zn -0.24502 0.36179 0.49003
 N552 N -0.24433 0.34498 0.47182
 C553 C -0.21486 0.37608 0.47134
 N554 N -0.22504 0.37717 0.48643
 C555 C -0.22100 0.38889 0.49894
 C556 C -0.20550 0.39916 0.49702
 C557 C -0.19943 0.38624 0.46878
 C558 C -0.27856 0.37612 0.50458
 C559 C -0.29482 0.38641 0.50462
 C560 C -0.28691 0.39718 0.47557
 C561 C -0.27083 0.38662 0.47610
 N562 N -0.26708 0.37610 0.49032
 H563 H -0.21860 0.36724 0.46121
 H564 H -0.22946 0.38979 0.51071
 H565 H -0.20208 0.40771 0.50754
 H566 H -0.19159 0.38505 0.45665
 H567 H -0.27523 0.36808 0.51600
 H568 H -0.30380 0.38516 0.51597
 H569 H -0.28890 0.40567 0.46412
 H570 H -0.26125 0.38681 0.46509
 C571 C -0.23962 0.32133 0.44443
 C572 C -0.24043 0.32899 0.54335
 C573 C -0.29955 0.39716 0.48989
 C574 C -0.19425 0.39768 0.48189
 C575 C 0.25959 -0.17038 0.01534
 H576 H 0.26529 -0.17731 0.00411
 C577 C 0.25775 -0.17921 0.03069
 H578 H 0.26266 -0.19299 0.03132
 C579 C 0.24792 -0.14304 0.02724
 H580 H 0.24386 -0.12905 0.02576
 C581 C 0.24524 -0.15227 0.04430
 H582 H 0.23856 -0.14442 0.05441
 N583 N 0.25441 -0.15172 0.01380
 C584 C 0.24416 -0.15789 -0.03773
 H585 H 0.23112 -0.15103 -0.03562
 C586 C 0.24708 -0.16871 -0.05228
 H587 H 0.23622 -0.17005 -0.06133
 C588 C 0.27449 -0.16380 -0.02906
 H589 H 0.28519 -0.16156 -0.02008
 C590 C 0.27803 -0.17456 -0.04349
 H591 H 0.29146 -0.18075 -0.04543
 Zn592 Zn 0.25528 -0.13918 -0.00805
 N593 N 0.25785 -0.15556 -0.02655
 C594 C 0.28075 -0.11784 -0.02581
 N595 N 0.27577 -0.12437 -0.00970
 C596 C 0.28570 -0.12122 0.00452
 C597 C 0.30128 -0.11105 0.00283
 C598 C 0.29632 -0.10780 -0.02812
 C599 C 0.21737 -0.13239 -0.00483
 C600 C 0.20116 -0.12199 -0.00429
 C601 C 0.21799 -0.09660 -0.01474
 C602 C 0.23390 -0.10742 -0.01473
 N603 N 0.23335 -0.12497 -0.00984
 H604 H 0.27271 -0.12066 -0.03694
 H605 H 0.28167 -0.12670 0.01717
 H606 H 0.30914 -0.10884 0.01425
 H607 H 0.30005 -0.10274 -0.04105
 H608 H 0.21728 -0.14638 -0.00092
 H609 H 0.18874 -0.12853 -0.00050
 H610 H 0.21926 -0.08258 -0.01813
 H611 H 0.24675 -0.10163 -0.01832
 C612 C 0.26431 -0.17693 -0.05546
 C613 C 0.24983 -0.16991 0.04642
 C614 C 0.20115 -0.10368 -0.00926
 C615 C 0.30684 -0.10431 -0.01369
 C616 C 0.25272 1.16618 0.48008
 H617 H 0.26405 1.16579 0.48877
 C618 C 0.25286 1.17754 0.46531
 H619 H 0.26438 1.18593 0.46281
 C620 C 0.22369 1.15613 0.47321
 H621 H 0.21221 1.14797 0.47646
 C622 C 0.22333 1.16719 0.45828
 H623 H 0.21172 1.16698 0.44995
 N624 N 0.23825 1.15579 0.48375
 C625 C 0.23324 1.14798 0.54022
 H626 H 0.23400 1.13353 0.54133
 C627 C 0.23114 1.15811 0.55523
 H628 H 0.23019 1.15138 0.56789
 C629 C 0.23391 1.17432 0.52241
 H630 H 0.23493 1.18060 0.50959
 C631 C 0.23217 1.18499 0.53717
 H632 H 0.23177 1.19943 0.53564
 Zn633 Zn 0.23801 1.14123 0.50438
 N634 N 0.23449 1.15614 0.52418
 C635 C 0.27164 1.13248 0.52002
 N636 N 0.26108 1.12852 0.50643
 C637 C 0.26708 1.11628 0.49449
 C638 C 0.28394 1.10713 0.49632
 C639 C 0.28846 1.12367 0.52236
 C640 C 0.20436 1.12655 0.51567
 C641 C 0.18965 1.11534 0.51530
 C642 C 0.20302 1.10187 0.48942
 C643 C 0.21771 1.11317 0.49046
 N644 N 0.21827 1.12513 0.50357
 H645 H 0.26721 1.14265 0.52910
 H646 H 0.25894 1.11368 0.48342
 H647 H 0.28849 1.09757 0.48659
 H648 H 0.29631 1.12688 0.53351
 H649 H 0.20436 1.13659 0.52552
 H650 H 0.17878 1.11669 0.52509
 H651 H 0.20282 1.09240 0.47896
 H652 H 0.22842 1.11263 0.48053
 C653 C 0.23066 1.17684 0.55380
 C654 C 0.23801 1.17816 0.45414
 C655 C 0.18887 1.10276 0.50209
 C656 C 0.29488 1.11076 0.51046
 C657 C 0.13981 0.47922 0.25785
 H658 H 0.14037 0.48826 0.26861
 C659 C 0.14986 0.46296 0.25827
 H660 H 0.15837 0.45975 0.26928
 C661 C 0.12799 0.47248 0.23047
 H662 H 0.11919 0.47604 0.21980
 C663 C 0.13785 0.45613 0.23033
 H664 H 0.13651 0.44731 0.21947
 N665 N 0.12924 0.48373 0.24403
 C666 C 0.12219 0.54223 0.24257
 H667 H 0.10750 0.54351 0.24230
 C668 C 0.13253 0.55755 0.24157
 H669 H 0.12567 0.57060 0.24078
 C670 C 0.14888 0.52363 0.24411
 H671 H 0.15524 0.51040 0.24485
 C672 C 0.15974 0.53861 0.24328
 H673 H 0.17440 0.53671 0.24344
 Zn674 Zn 0.11513 0.50563 0.24488
 N675 N 0.13043 0.52569 0.24396
 C676 C 0.10426 0.51751 0.27856
 N677 N 0.10139 0.50514 0.26632
 C678 C 0.09027 0.49127 0.26986
 C679 C 0.08181 0.48928 0.28639
 C680 C 0.09621 0.51595 0.29524
 C681 C 0.10825 0.51073 0.20955
 C682 C 0.09817 0.51358 0.19453
 C683 C 0.07068 0.51085 0.21221
 C684 C 0.08138 0.50821 0.22693
 N685 N 0.09981 0.50808 0.22534
 H686 H 0.11338 0.52824 0.27567
 H687 H 0.08848 0.48140 0.26003
 H688 H 0.07351 0.47785 0.28918
 H689 H 0.09899 0.52573 0.30492
 H690 H 0.12296 0.51060 0.20863
 H691 H 0.10586 0.51468 0.18235
 H692 H 0.05611 0.51154 0.21448
 H693 H 0.07486 0.50657 0.23967
 C694 C 0.15158 0.55588 0.24205
 C695 C 0.14901 0.45116 0.24434
 C696 C 0.07887 0.51380 0.19541
 C697 C 0.08510 0.50151 0.29944
 C698 C -0.14011 1.01215 0.26627
 H699 H -0.14243 1.00130 0.27558
 C700 C -0.14978 1.02856 0.26813
 H701 H -0.15980 1.03006 0.27868
 C702 C -0.12384 1.02354 0.24157
 H703 H -0.11319 1.02193 0.23166
 C704 C -0.13310 1.04009 0.24296
 H705 H -0.12949 1.05081 0.23392
 N706 N -0.12746 1.00991 0.25308
 C707 C -0.11521 0.95183 0.25236
 H708 H -0.10057 0.95237 0.25291
 C709 C -0.12337 0.93530 0.25223
 H710 H -0.11494 0.92313 0.25277
 C711 C -0.14395 0.96711 0.25093
 H712 H -0.15187 0.97956 0.25030
 C713 C -0.15268 0.95076 0.25039
 H714 H -0.16735 0.95071 0.24965
 Zn715 Zn -0.11218 0.98871 0.25223
 N716 N -0.12551 0.96732 0.25209
 C717 C -0.10064 0.97688 0.28554
 N718 N -0.09767 0.98896 0.27230
 C719 C -0.08637 1.00275 0.27422
 C720 C -0.07793 1.00504 0.29012
 C721 C -0.09259 0.97872 0.30161
 C722 C -0.10818 0.98956 0.21658
 C723 C -0.09995 0.99135 0.20009
 C724 C -0.07064 0.99048 0.21350
 C725 C -0.07958 0.98909 0.22991
 N726 N -0.09807 0.98910 0.23110
 H727 H -0.11006 0.96634 0.28403
 H728 H -0.08459 1.01245 0.26366
 H729 H -0.06960 1.01649 0.29169
 H730 H -0.09558 0.96928 0.31215
 H731 H -0.12284 0.98906 0.21791
 H732 H -0.10861 0.99157 0.18892
 H733 H -0.05598 0.99122 0.21302
 H734 H -0.07176 0.98834 0.24164
 C735 C -0.14233 0.93461 0.25129
 C736 C -0.14625 1.04287 0.25640
 C737 C -0.08087 0.99232 0.19820
 C738 C -0.08146 0.99320 0.30420
 C739 C 0.36023 0.51512 -0.23563
 H740 H 0.35810 0.50436 -0.22618
 C741 C 0.35040 0.53144 -0.23389
 H742 H 0.34044 0.53296 -0.22329
 C743 C 0.37622 0.52639 -0.26057
 H744 H 0.38681 0.52474 -0.27053
 C745 C 0.36672 0.54284 -0.25934
 H746 H 0.37010 0.55350 -0.26854
 N747 N 0.37289 0.51289 -0.24881
 C748 C 0.38618 0.45405 -0.24754
 H749 H 0.40071 0.45472 -0.24597
 C750 C 0.37848 0.43816 -0.24771
 H751 H 0.38718 0.42622 -0.24667
 C752 C 0.35803 0.46998 -0.25222
 H753 H 0.35020 0.48236 -0.25407
 C754 C 0.34898 0.45262 -0.25312
 H755 H 0.33444 0.45293 -0.25492
 Zn756 Zn 0.38846 0.49189 -0.24902
 N757 N 0.37538 0.47035 -0.24940
 C758 C 0.39879 0.48064 -0.21510
 N759 N 0.40220 0.49251 -0.22842
 C760 C 0.41361 0.50620 -0.22641
 C761 C 0.42199 0.50839 -0.21047
 C762 C 0.40675 0.48242 -0.19897
 C763 C 0.39420 0.49216 -0.28472
 C764 C 0.40335 0.49383 -0.30082
 C765 C 0.43175 0.49419 -0.28583
 C766 C 0.42196 0.49272 -0.26988
 N767 N 0.40346 0.49221 -0.26964
 H768 H 0.38921 0.47026 -0.21663
 H769 H 0.41569 0.51579 -0.23701
 H770 H 0.43057 0.51966 -0.20891
 H771 H 0.40354 0.47305 -0.18842
 H772 H 0.37953 0.49146 -0.28416
 H773 H 0.39565 0.49432 -0.31266
 H774 H 0.44639 0.49519 -0.28590
 H775 H 0.42912 0.49232 -0.25776
 C776 C 0.35859 0.43704 -0.25055
 C777 C 0.35370 0.54566 -0.24579
 C778 C 0.42232 0.49523 -0.30151
 C779 C 0.41825 0.49662 -0.19639
 C780 C 0.63808 -0.02679 -0.24244
 H781 H 0.63938 -0.01806 -0.23152
 C782 C 0.64690 -0.04281 -0.24255
 H783 H 0.65562 -0.04634 -0.23180
 C784 C 0.62503 -0.03130 -0.26996
 H785 H 0.61612 -0.02716 -0.28035
 C786 C 0.63466 -0.04895 -0.27078
 H787 H 0.63198 -0.05708 -0.28183
 N788 N 0.62692 -0.02102 -0.25674
 C789 C 0.62209 0.03749 -0.25918
 H790 H 0.60750 0.03912 -0.26039
 C791 C 0.63291 0.05246 -0.26057
 H792 H 0.62616 0.06544 -0.26233
 C793 C 0.64796 0.01843 -0.25471
 H794 H 0.65384 0.00511 -0.25277
 C795 C 0.65929 0.03307 -0.25563
 H796 H 0.67378 0.03042 -0.25468
 Zn797 Zn 0.61370 0.00137 -0.25518
 N798 N 0.62969 0.02088 -0.25630
 C799 C 0.60393 0.01344 -0.22131
 N800 N 0.60059 0.00111 -0.23345
 C801 C 0.58911 -0.01243 -0.22977
 C802 C 0.58064 -0.01407 -0.21323
 C803 C 0.59591 0.01220 -0.20459
 C804 C 0.60523 0.00646 -0.29037
 C805 C 0.59431 0.00932 -0.30483
 C806 C 0.56777 0.00882 -0.28551
 C807 C 0.57923 0.00593 -0.27139
 N808 N 0.59760 0.00464 -0.27406
 H809 H 0.61326 0.02396 -0.22439
 H810 H 0.58692 -0.02224 -0.23957
 H811 H 0.57195 -0.02520 -0.21035
 H812 H 0.59900 0.02194 -0.19498
 H813 H 0.61988 0.00563 -0.29212
 H814 H 0.60072 0.01033 -0.31771
 H815 H 0.55320 0.00997 -0.28309
 H816 H 0.57340 0.00491 -0.25831
 C817 C 0.65193 0.05056 -0.25866
 C818 C 0.64534 -0.05493 -0.25763
 C819 C 0.57528 0.01056 -0.30253
 C820 C 0.58432 -0.00185 -0.20030
 C821 C 0.02346 0.27525 0.87345
 H822 H 0.02249 0.28265 0.88538
 C823 C 0.03963 0.27519 0.86353
 H824 H 0.05083 0.28289 0.86768
 C825 C 0.01064 0.25534 0.85399
 H826 H -0.00060 0.24726 0.85069
 C827 C 0.02650 0.25510 0.84353
 H828 H 0.02747 0.24686 0.83209
 N829 N 0.00934 0.26549 0.86850
 C830 C -0.04900 0.26915 0.87979
 H831 H -0.04928 0.26535 0.89351
 C832 C -0.06524 0.27236 0.87116
 H833 H -0.07805 0.27064 0.87823
 C834 C -0.03186 0.27535 0.85378
 H835 H -0.01883 0.27677 0.84713
 C836 C -0.04775 0.27871 0.84464
 H837 H -0.04682 0.28247 0.83091
 Zn838 Zn -0.01165 0.26406 0.88308
 N839 N -0.03280 0.27005 0.87087
 C840 C -0.00927 0.29758 0.89668
 N841 N -0.01045 0.28004 0.90138
 C842 C -0.01025 0.27444 0.91842
 C843 C -0.00761 0.28668 0.93149
 C844 C -0.00639 0.31017 0.90924
 C845 C -0.02597 0.22963 0.89052
 C846 C -0.02529 0.21252 0.89822
 C847 C 0.00481 0.21813 0.90819
 C848 C 0.00355 0.23505 0.90036
 N849 N -0.01180 0.24059 0.89209
 H850 H -0.00982 0.30161 0.88304
 H851 H -0.01176 0.26049 0.92188
 H852 H -0.00689 0.28211 0.94498
 H853 H -0.00491 0.32405 0.90529
 H854 H -0.03784 0.23416 0.88350
 H855 H -0.03685 0.20408 0.89735
 H856 H 0.01711 0.21400 0.91482
 H857 H 0.01471 0.24399 0.90108
 C858 C -0.06469 0.27674 0.85325
 C859 C 0.04125 0.26499 0.84843
 C860 C -0.00985 0.20676 0.90742
 C861 C -0.00512 0.30464 0.92679
 C862 C 0.48291 0.25693 0.14508
 H863 H 0.48970 0.26942 0.14376
 C864 C 0.46701 0.25611 0.15532
 H865 H 0.46152 0.26812 0.16146
 C866 C 0.48183 0.22608 0.13898
 H867 H 0.48790 0.21429 0.13299
 C868 C 0.46580 0.22468 0.14904
 H869 H 0.45953 0.21184 0.15058
 N870 N 0.48998 0.24208 0.13711
 C871 C 0.54705 0.25276 0.13253
 H872 H 0.54896 0.25382 0.11849
 C873 C 0.56145 0.25566 0.14334
 H874 H 0.57460 0.25865 0.13749
 C875 C 0.52765 0.24672 0.15712
 H876 H 0.51448 0.24304 0.16237
 C877 C 0.54166 0.24961 0.16842
 H878 H 0.53910 0.24833 0.18239
 Zn879 Zn 0.51215 0.24387 0.12420
 N880 N 0.53066 0.24819 0.13956
 C881 C 0.51141 0.27990 0.11511
 N882 N 0.51071 0.26339 0.10820
 C883 C 0.50953 0.26129 0.09066
 C884 C 0.50807 0.27625 0.07946
 C885 C 0.50988 0.29515 0.10446
 C886 C 0.53326 0.21276 0.11587
 C887 C 0.53713 0.19665 0.10749
 C888 C 0.50869 0.20059 0.09262
 C889 C 0.50536 0.21657 0.10127
 N890 N 0.51763 0.22238 0.11255
 H891 H 0.51339 0.28125 0.12892
 H892 H 0.50962 0.24811 0.08527
 H893 H 0.50674 0.27446 0.06558
 H894 H 0.51038 0.30820 0.11022
 H895 H 0.54269 0.21743 0.12511
 H896 H 0.54966 0.18916 0.11018
 H897 H 0.49861 0.19601 0.08392
 H898 H 0.49284 0.22427 0.09922
 C899 C 0.55887 0.25395 0.16153
 C900 C 0.45830 0.23983 0.15741
 C901 C 0.52477 0.19045 0.09568
 C902 C 0.50790 0.29340 0.08645
 C903 C -0.01575 0.75831 0.64395
 H904 H -0.00801 0.77026 0.64300
 C905 C -0.03146 0.75853 0.65306
 H906 H -0.03627 0.77103 0.65867
 C907 C -0.01825 0.72777 0.63648
 H908 H -0.01287 0.71571 0.63047
 C909 C -0.03583 0.72742 0.64622
 H910 H -0.04258 0.71482 0.64716
 N911 N -0.00914 0.74236 0.63545
 C912 C 0.04822 0.75154 0.63257
 H913 H 0.05058 0.75253 0.61858
 C914 C 0.06219 0.75470 0.64379
 H915 H 0.07548 0.75782 0.63833
 C916 C 0.02805 0.74565 0.65662
 H917 H 0.01473 0.74202 0.66150
 C918 C 0.04164 0.74876 0.66834
 H919 H 0.03863 0.74766 0.68224
 Zn920 Zn 0.01347 0.74326 0.62322
 N921 N 0.03162 0.74705 0.63914
 C922 C 0.01445 0.77924 0.61441
 N923 N 0.01291 0.76291 0.60732
 C924 C 0.01087 0.76117 0.58985
 C925 C 0.00921 0.77636 0.57896
 C926 C 0.01279 0.79470 0.60409
 C927 C 0.03398 0.71168 0.61545
 C928 C 0.03769 0.69544 0.60729
 C929 C 0.00983 0.69999 0.59156
 C930 C 0.00666 0.71610 0.60002
 N931 N 0.01870 0.72166 0.61166
 H932 H 0.01691 0.78029 0.62817
 H933 H 0.01020 0.74811 0.58430
 H934 H 0.00702 0.77486 0.56517
 H935 H 0.01381 0.80761 0.61002
 H936 H 0.04324 0.71618 0.62494
 H937 H 0.04992 0.68765 0.61039
 H938 H -0.00011 0.69560 0.58261
 H939 H -0.00562 0.72406 0.59759
 C940 C 0.05896 0.75331 0.66192
 C941 C -0.04240 0.74216 0.65449
 C942 C 0.02552 0.68945 0.59518
 C943 C 0.00973 0.79335 0.58621
 C944 C 0.52398 0.77362 0.37066
 H945 H 0.52291 0.78184 0.38205
 C946 C 0.54029 0.77270 0.36101
 H947 H 0.55154 0.78053 0.36483
 C948 C 0.51112 0.75268 0.35227
 H949 H 0.49976 0.74463 0.34927
 C950 C 0.52715 0.75154 0.34209
 H951 H 0.52816 0.74261 0.33116
 N952 N 0.50977 0.76378 0.36610
 C953 C 0.45150 0.77076 0.37599
 H954 H 0.45078 0.76772 0.38987
 C955 C 0.43563 0.77474 0.36701
 H956 H 0.42262 0.77437 0.37398
 C957 C 0.46942 0.77442 0.34998
 H958 H 0.48263 0.77462 0.34348
 C959 C 0.45390 0.77852 0.34048
 H960 H 0.45530 0.78162 0.32664
 Zn961 Zn 0.48846 0.76397 0.38028
 N962 N 0.46787 0.77014 0.36730
 C963 C 0.49110 0.79832 0.39168
 N964 N 0.49001 0.78111 0.39752
 C965 C 0.49048 0.77668 0.41484
 C966 C 0.49318 0.78983 0.42701
 C967 C 0.49388 0.81182 0.40334
 C968 C 0.47234 0.73072 0.38912
 C969 C 0.47202 0.71393 0.39744
 C970 C 0.50208 0.71864 0.40801
 C971 C 0.50183 0.73525 0.39949
 N972 N 0.48699 0.74109 0.39059
 H973 H 0.49037 0.80141 0.37785
 H974 H 0.48909 0.76296 0.41922
 H975 H 0.49408 0.78613 0.44072
 H976 H 0.49502 0.82546 0.39845
 H977 H 0.46089 0.73545 0.38158
 H978 H 0.46014 0.70593 0.39652
 H979 H 0.51402 0.71422 0.41508
 H980 H 0.51341 0.74368 0.40011
 C981 C 0.43673 0.77835 0.34895
 C982 C 0.54198 0.76154 0.34659
 C983 C 0.48696 0.70785 0.40721
 C984 C 0.49533 0.80755 0.42118
 Zr985 Zr 0.01764 -0.00768 1.02156
 O986 O 0.03669 0.00295 1.03829
 O987 O 0.01477 -0.03345 1.03216
 O988 O 0.00660 -0.00566 1.04737
 O989 O 0.04932 -0.01844 0.98884
 O990 O -0.02032 0.00979 1.04353
 O991 O 0.04359 -0.02062 1.01825
 O992 O -0.00704 -0.04490 1.01562
 O993 O -0.01032 -0.01110 1.01940
 O994 O 0.01454 -0.02250 0.99910
 O995 O 0.00578 0.01832 1.02013
 O996 O 0.02989 0.00720 1.00088
 Zr997 Zr -0.01443 0.01516 0.97348
 Zr998 Zr -0.02191 0.01471 1.01657
 Zr999 Zr 0.02523 -0.00728 0.97843
 Zr1000 Zr -0.01325 -0.02505 0.99650
 O1001 O 0.04785 0.00566 0.96688
 O1002 O -0.03805 -0.03150 1.00957
 O1003 O -0.00252 -0.01098 0.97473
 O1004 O -0.02629 0.00020 0.99417
 O1005 O -0.01138 0.03020 0.99585
 O1006 O 0.01353 0.01840 0.97577
 C1007 C 0.00429 -0.04597 1.02812
 C1008 C 0.05383 -0.02310 1.00445
 C1009 C -0.00848 0.00169 1.05320
 O1010 O -0.04625 0.00296 1.02568
 O1011 O -0.04439 0.02914 1.00649
 O1012 O -0.03984 0.02920 0.97694
 C1013 C -0.04926 0.03330 0.99088
 O1014 O 0.03734 0.03719 1.01634
 Zr1015 Zr 0.01655 0.03244 0.99853
 O1016 O -0.01165 0.04108 0.96304
 O1017 O -0.02483 0.03933 1.02959
 O1018 O 0.00771 0.05473 1.01359
 O1019 O 0.04034 0.04047 0.98458
 O1020 O 0.00840 0.05318 0.98109
 C1021 C -0.00246 0.05414 0.96821
 O1022 O -0.03445 0.00515 0.95742
 O1023 O 0.03022 -0.03286 0.96765
 O1024 O -0.00445 0.01104 0.94760
 O1025 O 0.02137 -0.00636 0.95141
 O1026 O -0.00412 -0.04831 0.98304
 O1027 O -0.03188 -0.03097 0.97697
 C1028 C 0.00939 0.00161 0.94180
 H1029 H 0.02086 -0.03441 0.99961
 H1030 H -0.03942 -0.00126 0.99241
 H1031 H 0.01900 0.02480 0.96556
 H1032 H 0.00780 0.02488 1.03093
 H1033 H -0.03902 -0.04468 1.00933
 H1034 H -0.05248 0.01155 1.03373
 H1035 H -0.03655 0.03915 1.03632
 H1036 H 0.01452 0.06518 1.00920
 H1037 H -0.01127 -0.05841 0.98775
 H1038 H 0.04179 -0.03235 0.96070
 H1039 H 0.05422 -0.00311 0.95912
 H1040 H 0.04081 0.05365 0.98540
 H1041 H -0.03722 -0.04270 0.97973
 H1042 H -0.03759 0.01473 0.94872
 H1043 H 0.03999 -0.00666 1.04690
 H1044 H 0.04081 0.04984 1.01521
 Zr1045 Zr 0.51638 0.49253 0.51905
 O1046 O 0.53559 0.50311 0.53564
 O1047 O 0.51437 0.46641 0.52911
 O1048 O 0.50596 0.49392 0.54511
 O1049 O 0.54715 0.48234 0.48536
 O1050 O 0.47892 0.50948 0.54233
 O1051 O 0.54262 0.48043 0.51492
 O1052 O 0.49224 0.45496 0.51296
 O1053 O 0.48840 0.48877 0.51759
 O1054 O 0.51284 0.47803 0.49648
 O1055 O 0.50413 0.51839 0.51831
 O1056 O 0.52785 0.50789 0.49829
 Zr1057 Zr 0.48268 0.51571 0.47219
 Zr1058 Zr 0.47637 0.51449 0.51544
 Zr1059 Zr 0.52274 0.49369 0.47578
 Zr1060 Zr 0.48500 0.47517 0.49457
 O1061 O 0.54490 0.50715 0.46398
 O1062 O 0.46078 0.46812 0.50835
 O1063 O 0.49494 0.48971 0.47276
 O1064 O 0.47158 0.50028 0.49295
 O1065 O 0.48614 0.53043 0.49468
 O1066 O 0.51065 0.51928 0.47379
 C1067 C 0.50405 0.45376 0.52502
 C1068 C 0.55236 0.47788 0.50082
 C1069 C 0.49114 0.50127 0.55150
 O1070 O 0.45258 0.50215 0.52514
 O1071 O 0.45330 0.52861 0.50610
 O1072 O 0.45722 0.52937 0.47647
 C1073 C 0.44802 0.53298 0.49067
 O1074 O 0.53543 0.53759 0.51394
 Zr1075 Zr 0.51412 0.53299 0.49666
 O1076 O 0.48482 0.54185 0.46207
 O1077 O 0.47340 0.53898 0.52870
 O1078 O 0.50556 0.55490 0.51235
 O1079 O 0.53731 0.54165 0.48215
 O1080 O 0.50508 0.55396 0.47989
 C1081 C 0.49388 0.55498 0.46729
 O1082 O 0.46230 0.50571 0.45653
 O1083 O 0.52776 0.46840 0.46438
 O1084 O 0.49191 0.51201 0.44601
 O1085 O 0.51806 0.49490 0.44892
 O1086 O 0.49394 0.45234 0.48033
 O1087 O 0.46574 0.46937 0.47557
 C1088 C 0.50566 0.50278 0.43975
 H1089 H 0.51936 0.46622 0.49660
 H1090 H 0.45842 0.49866 0.49151
 H1091 H 0.51573 0.52591 0.46353
 H1092 H 0.50640 0.52482 0.52913
 H1093 H 0.45998 0.45495 0.50791
 H1094 H 0.44640 0.51058 0.53338
 H1095 H 0.46190 0.53854 0.53574
 H1096 H 0.51216 0.56549 0.50797
 H1097 H 0.48707 0.44205 0.48501
 H1098 H 0.53912 0.46919 0.45716
 H1099 H 0.55116 0.49862 0.45591
 H1100 H 0.53764 0.55481 0.48323
 H1101 H 0.46060 0.45755 0.47833
 H1102 H 0.45879 0.51537 0.44805
 H1103 H 0.53929 0.49338 0.54397
 H1104 H 0.53878 0.55028 0.51292
 Zr1105 Zr 0.47853 1.01816 0.52737
 O1106 O 0.46386 1.00795 0.54939
 O1107 O 0.47710 1.04562 0.53172
 O1108 O 0.49211 1.02244 0.55082
 O1109 O 0.44221 1.01637 0.49997
 O1110 O 0.52161 1.01399 0.54414
 O1111 O 0.45053 1.02590 0.52656
 O1112 O 0.49348 1.05750 0.50882
 O1113 O 0.50435 1.02627 0.51884
 O1114 O 0.47580 1.02843 0.50192
 O1115 O 0.49574 0.99512 0.52907
 O1116 O 0.46782 0.99733 0.51319
 Zr1117 Zr 0.50909 0.99238 0.47930
 Zr1118 Zr 0.52113 1.00307 0.51917
 Zr1119 Zr 0.46661 1.00753 0.48749
 Zr1120 Zr 0.50159 1.03555 0.49317
 O1121 O 0.44629 0.98868 0.48426
 O1122 O 0.52549 1.04885 0.49915
 O1123 O 0.49194 1.01556 0.47739
 O1124 O 0.51960 1.01316 0.49353
 O1125 O 0.51201 0.98202 0.50471
 O1126 O 0.48333 0.98446 0.48796
 C1127 C 0.48399 1.05884 0.52318
 C1128 C 0.43868 1.02367 0.51479
 C1129 C 0.50906 1.02038 0.55452
 O1130 O 0.54316 1.02044 0.51965
 O1131 O 0.54456 0.99019 0.50814
 O1132 O 0.53633 0.98262 0.48091
 C1133 C 0.54781 0.98282 0.49330
 O1134 O 0.46930 0.97045 0.53614
 Zr1135 Zr 0.48613 0.97507 0.51355
 O1136 O 0.51068 0.96482 0.47509
 O1137 O 0.53068 0.98310 0.53704
 O1138 O 0.50133 0.95836 0.53095
 O1139 O 0.46365 0.95999 0.50677
 O1140 O 0.49674 0.95300 0.49947
 C1141 C 0.50561 0.95155 0.48480
 O1142 O 0.52512 1.00228 0.45803
 O1143 O 0.45527 1.02889 0.47225
 O1144 O 0.49616 0.99016 0.45515
 O1145 O 0.46723 1.00082 0.46105
 O1146 O 0.48624 1.05382 0.47735
 O1147 O 0.51568 1.04048 0.46900
 C1148 C 0.47975 0.99438 0.45065
 H1149 H 0.46722 1.03892 0.50117
 H1150 H 0.53172 1.01641 0.48874
 H1151 H 0.47840 0.97520 0.48059
 H1152 H 0.49646 0.99063 0.54130
 H1153 H 0.52349 1.06167 0.49592
 H1154 H 0.55190 1.01510 0.52806
 H1155 H 0.54267 0.98684 0.54090
 H1156 H 0.49660 0.94616 0.53044
 H1157 H 0.49166 1.06569 0.47816
 H1158 H 0.44347 1.02491 0.46815
 H1159 H 0.43734 0.99430 0.47622
 H1160 H 0.46626 0.94742 0.51057
 H1161 H 0.51895 1.05320 0.46817
 H1162 H 0.52919 0.99184 0.45097
 H1163 H 0.45959 1.01834 0.55642
 H1164 H 0.46864 0.95741 0.53847
 Zr1165 Zr -0.01488 0.51872 1.02498
 O1166 O -0.02953 0.51090 1.04796
 O1167 O -0.01526 0.54658 1.02699
 O1168 O -0.00065 0.52409 1.04783
 O1169 O -0.05211 0.51588 0.99874
 O1170 O 0.02831 0.51375 1.04136
 O1171 O -0.04258 0.52734 1.02414
 O1172 O 0.00146 0.55577 1.00308
 O1173 O 0.01109 0.52516 1.01534
 O1174 O -0.01783 0.52696 0.99890
 O1175 O 0.00139 0.49519 1.02806
 O1176 O -0.02676 0.49720 1.01271
 Zr1177 Zr 0.01361 0.48813 0.97855
 Zr1178 Zr 0.02691 0.50141 1.01717
 Zr1179 Zr -0.02825 0.50533 0.98638
 Zr1180 Zr 0.00808 0.53239 0.98911
 O1181 O -0.04929 0.48691 0.98504
 O1182 O 0.03272 0.54526 0.99328
 O1183 O -0.00279 0.51163 0.97521
 O1184 O 0.02525 0.50952 0.99092
 O1185 O 0.01667 0.47964 1.00455
 O1186 O -0.01232 0.48178 0.98823
 C1187 C -0.00783 0.55870 1.01729
 C1188 C -0.05486 0.52450 1.01298
 C1189 C 0.01626 0.52136 1.05149
 O1190 O 0.04947 0.51818 1.01611
 O1191 O 0.04969 0.48716 1.00664
 O1192 O 0.04066 0.47780 0.98027
 C1193 C 0.05245 0.47868 0.99232
 O1194 O -0.02593 0.47206 1.03744
 Zr1195 Zr -0.00933 0.47433 1.01435
 O1196 O 0.01413 0.46029 0.97654
 O1197 O 0.03620 0.48234 1.03604
 O1198 O 0.00553 0.45848 1.03272
 O1199 O -0.03257 0.45963 1.00907
 O1200 O 0.00023 0.45081 1.00193
 C1201 C 0.00887 0.44797 0.98733
 O1202 O 0.02960 0.49556 0.95628
 O1203 O -0.03924 0.52586 0.96990
 O1204 O 0.00011 0.48491 0.95486
 O1205 O -0.02850 0.49663 0.96052
 O1206 O -0.00696 0.55001 0.97238
 O1207 O 0.02168 0.53464 0.96432
 C1208 C -0.01626 0.48929 0.95037
 H1209 H -0.02602 0.53767 0.99750
 H1210 H 0.03740 0.51198 0.98568
 H1211 H -0.01772 0.47216 0.98165
 H1212 H 0.00219 0.49159 1.04054
 H1213 H 0.03119 0.55779 0.98892
 H1214 H 0.05827 0.51313 1.02461
 H1215 H 0.04841 0.48595 1.03942
 H1216 H 0.00028 0.44646 1.03325
 H1217 H -0.00090 0.56163 0.97201
 H1218 H -0.05130 0.52197 0.96638
 H1219 H -0.05824 0.49217 0.97679
 H1220 H -0.03038 0.44728 1.01372
 H1221 H 0.02541 0.54712 0.96228
 H1222 H 0.03306 0.48442 0.95000
 H1223 H -0.03322 0.52198 1.05421
 H1224 H -0.02716 0.45926 1.04069
 Zr1225 Zr -0.01523 0.48706 0.47535
 O1226 O -0.03048 0.49883 0.45479
 O1227 O -0.01479 0.45996 0.46915
 O1228 O -0.00124 0.48468 0.45083
 O1229 O -0.05185 0.48694 0.50477
 O1230 O 0.02710 0.49408 0.45626
 O1231 O -0.04270 0.47958 0.47704
 O1232 O 0.00209 0.44647 0.49053
 O1233 O 0.01119 0.47840 0.48181
 O1234 O -0.01726 0.47491 0.50017
 O1235 O 0.00006 0.51028 0.47462
 O1236 O -0.02756 0.50662 0.49179
 Zr1237 Zr 0.01331 0.50920 0.52385
 Zr1238 Zr 0.02602 0.50168 0.48244
 Zr1239 Zr -0.02804 0.49450 0.51675
 Zr1240 Zr 0.00905 0.46723 0.50696
 O1241 O -0.04946 0.51314 0.52302
 O1242 O 0.03377 0.45439 0.49831
 O1243 O -0.00206 0.48588 0.52476
 O1244 O 0.02527 0.48963 0.50736
 O1245 O 0.01539 0.52147 0.49906
 O1246 O -0.01312 0.51761 0.51730
 C1247 C -0.00735 0.44611 0.47667
 C1248 C -0.05480 0.48095 0.48954
 C1249 C 0.01529 0.48810 0.44606
 O1250 O 0.04893 0.48409 0.47864
 O1251 O 0.04882 0.51261 0.49337
 O1252 O 0.04014 0.51864 0.52153
 C1253 C 0.05178 0.51864 0.50857
 O1254 O -0.02862 0.53514 0.47126
 Zr1255 Zr -0.01108 0.52892 0.49226
 O1256 O 0.01298 0.53639 0.52989
 O1257 O 0.03439 0.52351 0.46644
 O1258 O 0.00236 0.54703 0.47498
 O1259 O -0.03451 0.54331 0.50190
 O1260 O -0.00160 0.54984 0.50699
 C1261 C 0.00729 0.55030 0.52116
 O1262 O 0.02997 0.49783 0.54358
 O1263 O -0.03830 0.47195 0.53050
 O1264 O 0.00012 0.50924 0.54891
 O1265 O -0.02750 0.49783 0.54383
 O1266 O -0.00493 0.44815 0.52269
 O1267 O 0.02393 0.46035 0.52966
 C1268 C -0.01554 0.50348 0.55407
 H1269 H -0.02513 0.46445 0.50063
 H1270 H 0.03762 0.48594 0.51117
 H1271 H -0.01867 0.52618 0.52576
 H1272 H 0.00041 0.51580 0.46275
 H1273 H 0.03269 0.44138 0.50067
 H1274 H 0.05738 0.49020 0.47034
 H1275 H 0.04658 0.52012 0.46143
 H1276 H -0.00342 0.55907 0.47668
 H1277 H 0.00113 0.43629 0.52068
 H1278 H -0.05036 0.47565 0.53561
 H1279 H -0.05798 0.50686 0.53110
 H1280 H -0.03285 0.55614 0.49899
 H1281 H 0.02790 0.44756 0.52934
 H1282 H 0.03321 0.50770 0.55119
 H1283 H -0.03400 0.48899 0.44727
 H1284 H -0.03067 0.54827 0.47020
 Zr1285 Zr 0.48417 -0.01199 -0.02383
 O1286 O 0.46813 -0.00038 -0.04390
 O1287 O 0.48448 -0.03912 -0.02983
 O1288 O 0.49737 -0.01459 -0.04873
 O1289 O 0.44885 -0.01258 0.00695
 O1290 O 0.52585 -0.00495 -0.04424
 O1291 O 0.45676 -0.01969 -0.02114
 O1292 O 0.50237 -0.05237 -0.00908
 O1293 O 0.51091 -0.02037 -0.01824
 O1294 O 0.48324 -0.02407 0.00108
 O1295 O 0.49927 0.01135 -0.02521
 O1296 O 0.47232 0.00754 -0.00706
 Zr1297 Zr 0.51443 0.01061 0.02348
 Zr1298 Zr 0.52560 0.00304 -0.01823
 Zr1299 Zr 0.47296 -0.00451 0.01792
 Zr1300 Zr 0.50987 -0.03149 0.00696
 O1301 O 0.45159 0.01397 0.02475
 O1302 O 0.53433 -0.04413 -0.00262
 O1303 O 0.49931 -0.01286 0.02504
 O1304 O 0.52591 -0.00894 0.00671
 O1305 O 0.51545 0.02283 -0.00138
 O1306 O 0.48769 0.01876 0.01782
 C1307 C 0.49232 -0.05287 -0.02253
 C1308 C 0.44522 -0.01859 -0.00811
 C1309 C 0.51378 -0.01122 -0.05397
 O1310 O 0.54862 -0.01425 -0.02266
 O1311 O 0.54868 0.01431 -0.00822
 O1312 O 0.54115 0.02015 0.02023
 C1313 C 0.55226 0.02029 0.00686
 O1314 O 0.47032 0.03601 -0.02770
 Zr1315 Zr 0.48866 0.02999 -0.00730
 O1316 O 0.51411 0.03784 0.02936
 O1317 O 0.53307 0.02482 -0.03473
 O1318 O 0.50138 0.04813 -0.02508
 O1319 O 0.46543 0.04421 0.00302
 O1320 O 0.49844 0.05108 0.00703
 C1321 C 0.50788 0.05166 0.02085
 O1322 O 0.53184 -0.00056 0.04270
 O1323 O 0.46345 -0.02706 0.03221
 O1324 O 0.50214 0.01079 0.04894
 O1325 O 0.47450 -0.00107 0.04488
 O1326 O 0.49665 -0.05058 0.02332
 O1327 O 0.52578 -0.03825 0.02902
 C1328 C 0.48675 0.00484 0.05464
 H1329 H 0.47548 -0.03460 0.00190
 H1330 H 0.53844 -0.01250 0.01007
 H1331 H 0.48236 0.02731 0.02640
 H1332 H 0.49915 0.01680 -0.03712
 H1333 H 0.53345 -0.05715 -0.00022
 H1334 H 0.55667 -0.00810 -0.03131
 H1335 H 0.54512 0.02154 -0.04012
 H1336 H 0.49561 0.06015 -0.02323
 H1337 H 0.50263 -0.06243 0.02109
 H1338 H 0.45156 -0.02344 0.03774
 H1339 H 0.44343 0.00766 0.03317
 H1340 H 0.46687 0.05705 -0.00001
 H1341 H 0.52978 -0.05103 0.02858
 H1342 H 0.53531 0.00938 0.05013
 H1343 H 0.46440 -0.01029 -0.05124
 H1344 H 0.46820 0.04913 -0.02879
 Zr1345 Zr 0.51415 0.51125 -0.02425
 O1346 O 0.53238 0.50213 -0.04432
 O1347 O 0.51040 0.53841 -0.03107
 O1348 O 0.50188 0.51258 -0.04900
 O1349 O 0.54731 0.51637 0.00605
 O1350 O 0.47493 0.49905 -0.04375
 O1351 O 0.54020 0.52212 -0.02235
 O1352 O 0.48913 0.54849 -0.01100
 O1353 O 0.48634 0.51577 -0.01854
 O1354 O 0.51210 0.52316 0.00020
 O1355 O 0.50267 0.48590 -0.02457
 O1356 O 0.52764 0.49320 -0.00688
 Zr1357 Zr 0.48506 0.48413 0.02432
 Zr1358 Zr 0.47521 0.49046 -0.01755
 Zr1359 Zr 0.52411 0.50492 0.01765
 Zr1360 Zr 0.48448 0.52672 0.00623
 O1361 O 0.54751 0.48949 0.02483
 O1362 O 0.45886 0.53593 -0.00305
 O1363 O 0.49662 0.50952 0.02490
 O1364 O 0.47186 0.50212 0.00693
 O1365 O 0.48703 0.47196 -0.00002
 O1366 O 0.51285 0.47974 0.01857
 C1367 C 0.49984 0.55071 -0.02440
 C1368 C 0.55104 0.52256 -0.00943
 C1369 C 0.48635 0.50725 -0.05382
 O1370 O 0.45015 0.50434 -0.02216
 O1371 O 0.45378 0.47567 -0.00685
 O1372 O 0.45988 0.47155 0.02196
 C1373 C 0.44991 0.46959 0.00860
 O1374 O 0.53453 0.46508 -0.02659
 Zr1375 Zr 0.51474 0.46855 -0.00604
 O1376 O 0.48873 0.45707 0.03118
 O1377 O 0.47193 0.46810 -0.03342
 O1378 O 0.50531 0.44891 -0.02273
 O1379 O 0.53929 0.45765 0.00427
 O1380 O 0.50772 0.44608 0.00962
 C1381 C 0.49760 0.44421 0.02352
 O1382 O 0.46571 0.49288 0.04360
 O1383 O 0.52941 0.52854 0.03100
 O1384 O 0.49630 0.48466 0.04947
 O1385 O 0.52186 0.50072 0.04476
 O1386 O 0.49406 0.54767 0.02127
 O1387 O 0.46711 0.53089 0.02855
 C1388 C 0.51040 0.49250 0.05478
 H1389 H 0.51823 0.53470 0.00045
 H1390 H 0.45884 0.50392 0.01032
 H1391 H 0.51892 0.47185 0.02735
 H1392 H 0.50414 0.48067 -0.03631
 H1393 H 0.45766 0.54895 -0.00100
 H1394 H 0.44353 0.49716 -0.03044
 H1395 H 0.45981 0.46969 -0.03866
 H1396 H 0.51248 0.43766 -0.02044
 H1397 H 0.48639 0.55854 0.01874
 H1398 H 0.54135 0.52656 0.03652
 H1399 H 0.55422 0.49681 0.03291
 H1400 H 0.53987 0.44468 0.00183
 H1401 H 0.46135 0.54305 0.02784
 H1402 H 0.46323 0.48244 0.05143
 H1403 H 0.53504 0.51261 -0.05204
 H1404 H 0.53826 0.45225 -0.02731
 Zr1405 Zr 0.01043 1.01172 0.47772
 O1406 O 0.02872 1.00261 0.45770
 O1407 O 0.00703 1.03895 0.47108
 O1408 O -0.00161 1.01315 0.45287
 O1409 O 0.04338 1.01642 0.50830
 O1410 O -0.02869 0.99979 0.45787
 O1411 O 0.03659 1.02231 0.47985
 O1412 O -0.01396 1.04929 0.49128
 O1413 O -0.01740 1.01645 0.48324
 O1414 O 0.00830 1.02351 0.50223
 O1415 O -0.00125 0.98649 0.47720
 O1416 O 0.02368 0.99352 0.49509
 Zr1417 Zr -0.01915 0.98452 0.52600
 Zr1418 Zr -0.02873 0.99120 0.48409
 Zr1419 Zr 0.02003 1.00510 0.51967
 Zr1420 Zr -0.01933 1.02727 0.50807
 O1421 O 0.04326 0.98947 0.52696
 O1422 O -0.04463 1.03678 0.49827
 O1423 O -0.00747 1.00985 0.52675
 O1424 O -0.03211 1.00273 0.50862
 O1425 O -0.01712 0.97252 0.50158
 O1426 O 0.00864 0.98001 0.52038
 C1427 C -0.00312 1.05145 0.47794
 C1428 C 0.04731 1.02262 0.49288
 C1429 C -0.01709 1.00786 0.44789
 O1430 O -0.05363 1.00531 0.47937
 O1431 O -0.05036 0.97651 0.49459
 O1432 O -0.04436 0.97210 0.52340
 C1433 C -0.05430 0.97029 0.50998
 O1434 O 0.03045 0.96553 0.47518
 Zr1435 Zr 0.01061 0.96899 0.49570
 O1436 O -0.01558 0.95737 0.53278
 O1437 O -0.03211 0.96893 0.46813
 O1438 O 0.00110 0.94948 0.47890
 O1439 O 0.03509 0.95790 0.50600
 O1440 O 0.00350 0.94654 0.51122
 C1441 C -0.00662 0.94458 0.52510
 O1442 O -0.03861 0.99325 0.54519
 O1443 O 0.02544 1.02861 0.53318
 O1444 O -0.00808 0.98492 0.55126
 O1445 O 0.01756 1.00088 0.54675
 O1446 O -0.00979 1.04781 0.52365
 O1447 O -0.03719 1.03155 0.53003
 C1448 C 0.00600 0.99271 0.55667
 H1449 H 0.01456 1.03497 0.50263
 H1450 H -0.04514 1.00461 0.51194
 H1451 H 0.01463 0.97206 0.52916
 H1452 H 0.00026 0.98130 0.46546
 H1453 H -0.04571 1.04982 0.50030
 H1454 H -0.06023 0.99824 0.47099
 H1455 H -0.04417 0.97065 0.46279
 H1456 H 0.00822 0.93819 0.48115
 H1457 H -0.01720 1.05885 0.52110
 H1458 H 0.03734 1.02652 0.53876
 H1459 H 0.04997 0.99671 0.53510
 H1460 H 0.03563 0.94496 0.50344
 H1461 H -0.04279 1.04377 0.52924
 H1462 H -0.04117 0.98279 0.55297
 H1463 H 0.03153 1.01312 0.45007
 H1464 H 0.03406 0.95269 0.47435
 Zr1465 Zr 0.74802 0.26707 0.22610
 O1466 O 0.75827 0.28651 0.20822
 O1467 O 0.72070 0.26664 0.21932
 O1468 O 0.74730 0.25831 0.19997
 O1469 O 0.74235 0.29599 0.26055
 O1470 O 0.76216 0.23100 0.20115
 O1471 O 0.73715 0.29305 0.23157
 O1472 O 0.70933 0.24461 0.23707
 O1473 O 0.74303 0.23970 0.22827
 O1474 O 0.73496 0.26301 0.25043
 O1475 O 0.77373 0.25388 0.22379
 O1476 O 0.76579 0.27644 0.24474
 Zr1477 Zr 0.77359 0.23028 0.27016
 Zr1478 Zr 0.76870 0.22668 0.22734
 Zr1479 Zr 0.75296 0.27085 0.26897
 Zr1480 Zr 0.73089 0.23572 0.25293
 O1481 O 0.76859 0.29124 0.27899
 O1482 O 0.72152 0.21299 0.24040
 O1483 O 0.74782 0.24359 0.27271
 O1484 O 0.75581 0.22131 0.25151
 O1485 O 0.78693 0.23432 0.24592
 O1486 O 0.77842 0.25766 0.26790
 C1487 C 0.70775 0.25678 0.22499
 C1488 C 0.73664 0.30207 0.24575
 C1489 C 0.75392 0.24391 0.19286
 O1490 O 0.75421 0.20454 0.21934
 O1491 O 0.78270 0.20298 0.23499
 O1492 O 0.78582 0.20483 0.26439
 C1493 C 0.78809 0.19662 0.24978
 O1494 O 0.79513 0.28342 0.22547
 Zr1495 Zr 0.79070 0.26177 0.24339
 O1496 O 0.80097 0.23082 0.27693
 O1497 O 0.79240 0.22330 0.21121
 O1498 O 0.81124 0.25323 0.22508
 O1499 O 0.80157 0.28335 0.25662
 O1500 O 0.81287 0.25107 0.25746
 C1501 C 0.81429 0.23947 0.27007
 O1502 O 0.76385 0.20979 0.28715
 O1503 O 0.72839 0.27634 0.28330
 O1504 O 0.77199 0.23801 0.29662
 O1505 O 0.75603 0.26481 0.29560
 O1506 O 0.70931 0.24480 0.26987
 O1507 O 0.72558 0.21610 0.27278
 C1508 C 0.76392 0.25167 0.30384
 H1509 H 0.72330 0.26996 0.25172
 H1510 H 0.75365 0.20839 0.25322
 H1511 H 0.78615 0.26178 0.27725
 H1512 H 0.77957 0.25644 0.21224
 H1513 H 0.70818 0.21275 0.24253
 H1514 H 0.76185 0.19850 0.21020
 H1515 H 0.79088 0.21242 0.20434
 H1516 H 0.82263 0.25898 0.22803
 H1517 H 0.69819 0.23878 0.26656
 H1518 H 0.73026 0.28711 0.29022
 H1519 H 0.76083 0.29737 0.28799
 H1520 H 0.81485 0.28317 0.25397
 H1521 H 0.71313 0.21177 0.27160
 H1522 H 0.77414 0.20554 0.29443
 H1523 H 0.74794 0.29097 0.20110
 H1524 H 0.80822 0.28609 0.22496
 Zr1525 Zr 0.76559 0.73007 0.72711
 O1526 O 0.75503 0.71118 0.71034
 O1527 O 0.79248 0.73157 0.71746
 O1528 O 0.76506 0.74004 0.70100
 O1529 O 0.77446 0.70002 0.76117
 O1530 O 0.74894 0.76664 0.70316
 O1531 O 0.77709 0.70405 0.73162
 O1532 O 0.80379 0.75363 0.73350
 O1533 O 0.76976 0.75754 0.72847
 O1534 O 0.77977 0.73358 0.74995
 O1535 O 0.73945 0.74251 0.72729
 O1536 O 0.74919 0.71934 0.74763
 Zr1537 Zr 0.74136 0.76415 0.77325
 Zr1538 Zr 0.74372 0.76980 0.73001
 Zr1539 Zr 0.76309 0.72436 0.77042
 Zr1540 Zr 0.78303 0.76094 0.75175
 O1541 O 0.74877 0.70287 0.78198
 O1542 O 0.79093 0.78464 0.73828
 O1543 O 0.76756 0.75166 0.77338
 O1544 O 0.75769 0.77460 0.75273
 O1545 O 0.72692 0.76070 0.75053
 O1546 O 0.73721 0.73673 0.77178
 C1547 C 0.80522 0.74190 0.72147
 C1548 C 0.77910 0.69457 0.74579
 C1549 C 0.75754 0.75440 0.69437
 O1550 O 0.75704 0.79273 0.72030
 O1551 O 0.72931 0.79276 0.73904
 O1552 O 0.72795 0.78930 0.76868
 C1553 C 0.72451 0.79813 0.75440
 O1554 O 0.71948 0.71183 0.73174
 Zr1555 Zr 0.72381 0.73325 0.74869
 O1556 O 0.71442 0.76305 0.78254
 O1557 O 0.71916 0.77302 0.71642
 O1558 O 0.70226 0.74144 0.73219
 O1559 O 0.71396 0.71112 0.76348
 O1560 O 0.70200 0.74331 0.76455
 C1561 C 0.70091 0.75471 0.77692
 O1562 O 0.75167 0.78404 0.78907
 O1563 O 0.78839 0.71933 0.78238
 O1564 O 0.74358 0.75516 0.79954
 O1565 O 0.76077 0.72918 0.79731
 O1566 O 0.80592 0.75191 0.76612
 O1567 O 0.78862 0.77978 0.77103
 C1568 C 0.75234 0.74149 0.80617
 H1569 H 0.79169 0.72699 0.75001
 H1570 H 0.75948 0.78753 0.75415
 H1571 H 0.72998 0.73204 0.78188
 H1572 H 0.73317 0.74017 0.71637
 H1573 H 0.80431 0.78526 0.73904
 H1574 H 0.74873 0.79889 0.71197
 H1575 H 0.71994 0.78424 0.70933
 H1576 H 0.69125 0.73523 0.73643
 H1577 H 0.81651 0.75863 0.76162
 H1578 H 0.78723 0.70826 0.78965
 H1579 H 0.75711 0.69670 0.79028
 H1580 H 0.70061 0.71111 0.76208
 H1581 H 0.80077 0.78468 0.76856
 H1582 H 0.74169 0.78786 0.79733
 H1583 H 0.76510 0.70730 0.70222
 H1584 H 0.70653 0.70866 0.73256
 Zr1585 Zr 0.23166 0.23643 0.77444
 O1586 O 0.24097 0.21607 0.79202
 O1587 O 0.20551 0.24234 0.78484
 O1588 O 0.23442 0.24614 0.79999
 O1589 O 0.21959 0.20795 0.74215
 O1590 O 0.25190 0.27050 0.79556
 O1591 O 0.21824 0.21201 0.77156
 O1592 O 0.19515 0.26554 0.76752
 O1593 O 0.22977 0.26439 0.77157
 O1594 O 0.21704 0.24205 0.75183
 O1595 O 0.25865 0.24488 0.77275
 O1596 O 0.24634 0.22332 0.75403
 Zr1597 Zr 0.25708 0.26661 0.72557
 Zr1598 Zr 0.25661 0.27264 0.76851
 Zr1599 Zr 0.23222 0.23048 0.73140
 Zr1600 Zr 0.21598 0.26973 0.74854
 O1601 O 0.24410 0.20690 0.72050
 O1602 O 0.21052 0.29438 0.76112
 O1603 O 0.22994 0.25823 0.72700
 O1604 O 0.24228 0.27942 0.74597
 O1605 O 0.27192 0.26098 0.74808
 O1606 O 0.25889 0.23873 0.72858
 C1607 C 0.19341 0.25432 0.78041
 C1608 C 0.21521 0.20293 0.75785
 C1609 C 0.24312 0.25948 0.80548
 O1610 O 0.24564 0.29755 0.77717
 O1611 O 0.27261 0.29324 0.75793
 O1612 O 0.27174 0.29015 0.72841
 C1613 C 0.27657 0.29825 0.74212
 O1614 O 0.27597 0.21164 0.76986
 Zr1615 Zr 0.27262 0.23320 0.75151
 O1616 O 0.28372 0.26129 0.71591
 O1617 O 0.28171 0.27208 0.78131
 O1618 O 0.29551 0.23853 0.76648
 O1619 O 0.27955 0.20925 0.73819
 O1620 O 0.29428 0.23888 0.73404
 C1621 C 0.29623 0.25015 0.72124
 O1622 O 0.24816 0.28770 0.70860
 O1623 O 0.20618 0.22945 0.72052
 O1624 O 0.25293 0.25798 0.69988
 O1625 O 0.23407 0.23468 0.70428
 O1626 O 0.19223 0.26408 0.73499
 O1627 O 0.21120 0.28949 0.72864
 C1628 C 0.24292 0.24561 0.69434
 H1629 H 0.20468 0.23723 0.75247
 H1630 H 0.24142 0.29254 0.74394
 H1631 H 0.26526 0.23286 0.71856
 H1632 H 0.26516 0.24167 0.78357
 H1633 H 0.19724 0.29706 0.76070
 H1634 H 0.25464 0.30239 0.78501
 H1635 H 0.28212 0.28337 0.78778
 H1636 H 0.30575 0.23057 0.76237
 H1637 H 0.18226 0.27222 0.73938
 H1638 H 0.20607 0.21825 0.71387
 H1639 H 0.23498 0.20207 0.71280
 H1640 H 0.29283 0.20694 0.73919
 H1641 H 0.19951 0.29604 0.73119
 H1642 H 0.25819 0.28986 0.69993
 H1643 H 0.23085 0.21381 0.80056
 H1644 H 0.28862 0.20668 0.76897
 Zr1645 Zr 0.25712 0.76536 0.27258
 O1646 O 0.24557 0.77897 0.29440
 O1647 O 0.28494 0.76539 0.27752
 O1648 O 0.26083 0.75046 0.29614
 O1649 O 0.25518 0.80290 0.24543
 O1650 O 0.25207 0.72255 0.28961
 O1651 O 0.26422 0.79256 0.27218
 O1652 O 0.29825 0.75040 0.25464
 O1653 O 0.26655 0.74011 0.26416
 O1654 O 0.26824 0.76921 0.24741
 O1655 O 0.23412 0.74940 0.27345
 O1656 O 0.23596 0.77762 0.25798
 Zr1657 Zr 0.23370 0.73937 0.22350
 Zr1658 Zr 0.24344 0.72467 0.26373
 Zr1659 Zr 0.24715 0.78008 0.23259
 Zr1660 Zr 0.27668 0.74409 0.23867
 O1661 O 0.22741 0.80114 0.22951
 O1662 O 0.29091 0.71972 0.24495
 O1663 O 0.25664 0.75550 0.22241
 O1664 O 0.25459 0.72729 0.23836
 O1665 O 0.22232 0.73533 0.24860
 O1666 O 0.22431 0.76446 0.23218
 C1667 C 0.29890 0.75887 0.26903
 C1668 C 0.26206 0.80506 0.26044
 C1669 C 0.25791 0.73395 0.30023
 O1670 O 0.26232 0.70269 0.26525
 O1671 O 0.23218 0.70267 0.25195
 O1672 O 0.22518 0.71261 0.22450
 C1673 C 0.22555 0.70051 0.23682
 O1674 O 0.20771 0.77612 0.27980
 Zr1675 Zr 0.21392 0.76050 0.25743
 O1676 O 0.20596 0.73871 0.21872
 O1677 O 0.22242 0.71460 0.28024
 O1678 O 0.19696 0.74530 0.27452
 O1679 O 0.19792 0.78348 0.25007
 O1680 O 0.19237 0.75128 0.24285
 C1681 C 0.19189 0.74321 0.22820
 O1682 O 0.24523 0.72489 0.20221
 O1683 O 0.26882 0.79122 0.21770
 O1684 O 0.23141 0.75397 0.19946
 O1685 O 0.24069 0.78170 0.20619
 O1686 O 0.29521 0.75930 0.22327
 O1687 O 0.28285 0.73138 0.21457
 C1688 C 0.23481 0.77043 0.19549
 H1689 H 0.27863 0.77726 0.24691
 H1690 H 0.25856 0.71552 0.23363
 H1691 H 0.21491 0.77008 0.22464
 H1692 H 0.22902 0.74819 0.28551
 H1693 H 0.30395 0.72134 0.24195
 H1694 H 0.25677 0.69368 0.27324
 H1695 H 0.22653 0.70246 0.28427
 H1696 H 0.18438 0.75042 0.27366
 H1697 H 0.30741 0.75332 0.22418
 H1698 H 0.26453 0.80330 0.21370
 H1699 H 0.23298 0.81029 0.22168
 H1700 H 0.18510 0.78108 0.25339
 H1701 H 0.29589 0.72757 0.21405
 H1702 H 0.23504 0.72166 0.19485
 H1703 H 0.25576 0.78227 0.30173
 H1704 H 0.19434 0.77724 0.28167
 Zr1705 Zr 0.24696 0.77004 0.72538
 O1706 O 0.25685 0.78900 0.70681
 O1707 O 0.21924 0.77028 0.71996
 O1708 O 0.24463 0.76108 0.69947
 O1709 O 0.24374 0.79954 0.75954
 O1710 O 0.25852 0.73328 0.70037
 O1711 O 0.23705 0.79630 0.73093
 O1712 O 0.20807 0.74898 0.73872
 O1713 O 0.24108 0.74292 0.72831
 O1714 O 0.23518 0.76680 0.75040
 O1715 O 0.27207 0.75597 0.72196
 O1716 O 0.26619 0.77910 0.74278
 Zr1717 Zr 0.27371 0.73308 0.76855
 Zr1718 Zr 0.26625 0.72903 0.72625
 Zr1719 Zr 0.25457 0.77437 0.76773
 Zr1720 Zr 0.23025 0.73974 0.75363
 O1721 O 0.27130 0.79485 0.77583
 O1722 O 0.21933 0.71709 0.74221
 O1723 O 0.24861 0.74737 0.77229
 O1724 O 0.25454 0.72444 0.75109
 O1725 O 0.28585 0.73631 0.74365
 O1726 O 0.27945 0.76022 0.76550
 C1727 C 0.20626 0.76092 0.72644
 C1728 C 0.23735 0.80551 0.74496
 C1729 C 0.25043 0.74642 0.69228
 O1730 O 0.25038 0.70738 0.71945
 O1731 O 0.27993 0.70503 0.73355
 O1732 O 0.28496 0.70728 0.76259
 C1733 C 0.28613 0.69880 0.74808
 O1734 O 0.29487 0.78451 0.72171
 Zr1735 Zr 0.29051 0.76353 0.74041
 O1736 O 0.30143 0.73296 0.77405
 O1737 O 0.28888 0.72450 0.70897
 O1738 O 0.30973 0.75368 0.72145
 O1739 O 0.30282 0.78511 0.75237
 O1740 O 0.31305 0.75261 0.75382
 C1741 C 0.31470 0.74123 0.76661
 O1742 O 0.26425 0.71305 0.78623
 O1743 O 0.23123 0.78021 0.78371
 O1744 O 0.27362 0.74109 0.79489
 O1745 O 0.26035 0.76923 0.79409
 O1746 O 0.20976 0.74974 0.77128
 O1747 O 0.22557 0.72080 0.77425
 C1748 C 0.26766 0.75564 0.80214
 H1749 H 0.22378 0.77407 0.75218
 H1750 H 0.25204 0.71163 0.75315
 H1751 H 0.28790 0.76427 0.77428
 H1752 H 0.27738 0.75817 0.71010
 H1753 H 0.20610 0.71732 0.74511
 H1754 H 0.25728 0.70092 0.71008
 H1755 H 0.28653 0.71360 0.70241
 H1756 H 0.32155 0.75898 0.72372
 H1757 H 0.19834 0.74381 0.76876
 H1758 H 0.23373 0.79113 0.79016
 H1759 H 0.26437 0.80139 0.78512
 H1760 H 0.31596 0.78445 0.74909
 H1761 H 0.21298 0.71663 0.77378
 H1762 H 0.27481 0.70860 0.79307
 H1763 H 0.24628 0.79367 0.70012
 H1764 H 0.30807 0.78653 0.72037
 Zr1765 Zr 0.26525 0.23421 0.22868
 O1766 O 0.25360 0.21710 0.21081
 O1767 O 0.29254 0.23381 0.22001
 O1768 O 0.26641 0.24507 0.20297
 O1769 O 0.26991 0.20206 0.26160
 O1770 O 0.25523 0.27377 0.20606
 O1771 O 0.27449 0.20728 0.23239
 O1772 O 0.30541 0.25343 0.23785
 O1773 O 0.27210 0.26089 0.23159
 O1774 O 0.27872 0.23527 0.25224
 O1775 O 0.24047 0.24918 0.22832
 O1776 O 0.24693 0.22419 0.24796
 Zr1777 Zr 0.24227 0.26813 0.27552
 Zr1778 Zr 0.24736 0.27560 0.23259
 Zr1779 Zr 0.26028 0.22675 0.27152
 Zr1780 Zr 0.28455 0.26192 0.25556
 O1781 O 0.24332 0.20643 0.28146
 O1782 O 0.29530 0.28521 0.24349
 O1783 O 0.26719 0.25319 0.27601
 O1784 O 0.26055 0.27789 0.25621
 O1785 O 0.22871 0.26722 0.25195
 O1786 O 0.23563 0.24144 0.27251
 C1787 C 0.30612 0.24244 0.22514
 C1788 C 0.27508 0.19706 0.24620
 C1789 C 0.26219 0.26087 0.19697
 O1790 O 0.26288 0.29801 0.22538
 O1791 O 0.23413 0.29899 0.24199
 O1792 O 0.23073 0.29423 0.27139
 C1793 C 0.22869 0.30390 0.25733
 O1794 O 0.21728 0.22080 0.23022
 Zr1795 Zr 0.22300 0.24048 0.24863
 O1796 O 0.21501 0.26857 0.28412
 O1797 O 0.22435 0.28142 0.21725
 O1798 O 0.20305 0.25181 0.23184
 O1799 O 0.21041 0.21869 0.26172
 O1800 O 0.20153 0.25150 0.26432
 C1801 C 0.20101 0.26187 0.27753
 O1802 O 0.25343 0.28659 0.29237
 O1803 O 0.28443 0.21853 0.28428
 O1804 O 0.24346 0.25803 0.30159
 O1805 O 0.25770 0.23057 0.29849
 O1806 O 0.30573 0.25004 0.27058
 O1807 O 0.29113 0.27912 0.27594
 C1808 C 0.25080 0.24335 0.30777
 H1809 H 0.28999 0.22762 0.25248
 H1810 H 0.26341 0.29046 0.25838
 H1811 H 0.22764 0.23698 0.28217
 H1812 H 0.23455 0.24810 0.21698
 H1813 H 0.30867 0.28447 0.24480
 H1814 H 0.25577 0.30518 0.21674
 H1815 H 0.22653 0.29291 0.21097
 H1816 H 0.19127 0.24652 0.23526
 H1817 H 0.31718 0.25575 0.26680
 H1818 H 0.28182 0.20738 0.29100
 H1819 H 0.25063 0.19908 0.28979
 H1820 H 0.19718 0.22000 0.25972
 H1821 H 0.30383 0.28287 0.27417
 H1822 H 0.24344 0.29079 0.30044
 H1823 H 0.26358 0.21266 0.20286
 H1824 H 0.20402 0.21899 0.23030
 Zr1825 Zr 0.73388 0.73230 0.27739
 O1826 O 0.74285 0.71275 0.29596
 O1827 O 0.70750 0.73854 0.28695
 O1828 O 0.73588 0.74323 0.30256
 O1829 O 0.72257 0.70255 0.24604
 O1830 O 0.75322 0.76758 0.29746
 O1831 O 0.72046 0.70773 0.27524
 O1832 O 0.69742 0.76087 0.26845
 O1833 O 0.73190 0.76013 0.27330
 O1834 O 0.71984 0.73688 0.25427
 O1835 O 0.76083 0.74088 0.27595
 O1836 O 0.74917 0.71840 0.25790
 Zr1837 Zr 0.76038 0.76052 0.22781
 Zr1838 Zr 0.75871 0.76842 0.27047
 Zr1839 Zr 0.73560 0.72451 0.23472
 Zr1840 Zr 0.71872 0.76440 0.24978
 O1841 O 0.74775 0.70035 0.22534
 O1842 O 0.71286 0.78957 0.26125
 O1843 O 0.73327 0.75203 0.22905
 O1844 O 0.74500 0.77412 0.24735
 O1845 O 0.77465 0.75602 0.25087
 O1846 O 0.76224 0.73279 0.23212
 C1847 C 0.69545 0.75021 0.28177
 C1848 C 0.71767 0.69820 0.26176
 C1849 C 0.74424 0.75697 0.30765
 O1850 O 0.74742 0.79367 0.27781
 O1851 O 0.77479 0.78865 0.25946
 O1852 O 0.77520 0.78412 0.23011
 C1853 C 0.77946 0.79291 0.24362
 O1854 O 0.77871 0.70788 0.27497
 Zr1855 Zr 0.77543 0.72840 0.25552
 O1856 O 0.78699 0.75438 0.21856
 O1857 O 0.78343 0.76861 0.28389
 O1858 O 0.79795 0.73486 0.27050
 O1859 O 0.78265 0.70373 0.24361
 O1860 O 0.79736 0.73315 0.23804
 C1861 C 0.79939 0.74347 0.22450
 O1862 O 0.75196 0.78102 0.20994
 O1863 O 0.70997 0.72304 0.22312
 O1864 O 0.75661 0.75084 0.20234
 O1865 O 0.73845 0.72717 0.20757
 O1866 O 0.69538 0.75800 0.23594
 O1867 O 0.71432 0.78330 0.22903
 C1868 C 0.74717 0.73781 0.19722
 H1869 H 0.70750 0.73204 0.25480
 H1870 H 0.74417 0.78715 0.24476
 H1871 H 0.76880 0.72642 0.22251
 H1872 H 0.76707 0.73824 0.28704
 H1873 H 0.69959 0.79214 0.26047
 H1874 H 0.75618 0.79895 0.28561
 H1875 H 0.78358 0.78020 0.28989
 H1876 H 0.80836 0.72682 0.26695
 H1877 H 0.68526 0.76623 0.23980
 H1878 H 0.71000 0.71150 0.21703
 H1879 H 0.73888 0.69511 0.21762
 H1880 H 0.79592 0.70155 0.24487
 H1881 H 0.70253 0.78986 0.23108
 H1882 H 0.76218 0.78274 0.20138
 H1883 H 0.73254 0.71082 0.30437
 H1884 H 0.79142 0.70305 0.27453
 Zr1885 Zr 0.75965 0.25899 0.76775
 O1886 O 0.74631 0.27457 0.78735
 O1887 O 0.78669 0.25850 0.77560
 O1888 O 0.76027 0.24583 0.79253
 O1889 O 0.76217 0.29420 0.73783
 O1890 O 0.75078 0.21790 0.78710
 O1891 O 0.76750 0.28601 0.76615
 O1892 O 0.80166 0.24088 0.75555
 O1893 O 0.76861 0.23273 0.76226
 O1894 O 0.77384 0.26021 0.74373
 O1895 O 0.73594 0.24412 0.76727
 O1896 O 0.74107 0.27076 0.74996
 Zr1897 Zr 0.74072 0.22985 0.71842
 Zr1898 Zr 0.74497 0.21826 0.76044
 Zr1899 Zr 0.75528 0.27053 0.72583
 Zr1900 Zr 0.78185 0.23405 0.73783
 O1901 O 0.73713 0.29172 0.71821
 O1902 O 0.79395 0.20977 0.74751
 O1903 O 0.76449 0.24476 0.71867
 O1904 O 0.75909 0.21824 0.73630
 O1905 O 0.72633 0.22846 0.74237
 O1906 O 0.73183 0.25601 0.72408
 C1907 C 0.80115 0.25062 0.76919
 C1908 C 0.76702 0.29758 0.75336
 C1909 C 0.75626 0.22978 0.79741
 O1910 O 0.76225 0.19561 0.76553
 O1911 O 0.73405 0.19576 0.74919
 O1912 O 0.73039 0.20383 0.72056
 C1913 C 0.72888 0.19275 0.73366
 O1914 O 0.71042 0.27240 0.76865
 Zr1915 Zr 0.71837 0.25465 0.74831
 O1916 O 0.71386 0.23035 0.71034
 O1917 O 0.72172 0.21069 0.77538
 O1918 O 0.69874 0.24179 0.76457
 O1919 O 0.70462 0.27757 0.73752
 O1920 O 0.69828 0.24503 0.73219
 C1921 C 0.69907 0.23614 0.71797
 O1922 O 0.75382 0.21291 0.69980
 O1923 O 0.77924 0.27991 0.71325
 O1924 O 0.74214 0.24229 0.69325
 O1925 O 0.75338 0.26955 0.69866
 O1926 O 0.80267 0.24718 0.72334
 O1927 O 0.79027 0.21892 0.71568
 C1928 C 0.74806 0.25769 0.68826
 H1929 H 0.78453 0.26785 0.74383
 H1930 H 0.76294 0.20594 0.73291
 H1931 H 0.72380 0.26138 0.71506
 H1932 H 0.72947 0.24414 0.77879
 H1933 H 0.80731 0.21060 0.74589
 H1934 H 0.75537 0.18759 0.77358
 H1935 H 0.72466 0.19876 0.78071
 H1936 H 0.68666 0.24732 0.76191
 H1937 H 0.81441 0.24099 0.72613
 H1938 H 0.77601 0.29167 0.70773
 H1939 H 0.74415 0.29984 0.71040
 H1940 H 0.69140 0.27599 0.73952
 H1941 H 0.80313 0.21477 0.71685
 H1942 H 0.74443 0.20953 0.69159
 H1943 H 0.75575 0.27815 0.79542
 H1944 H 0.69702 0.27433 0.76889
 C1945 C 0.41205 0.99058 0.35581
 C1946 C 0.43074 0.99150 0.35946
 C1947 C 0.44326 0.99277 0.34505
 C1948 C 0.43709 0.99321 0.32778
 C1949 C 0.41852 0.99198 0.32455
 C1950 C 0.40616 0.99078 0.33872
 C1951 C 0.46185 0.99342 0.34795
 C1952 C 0.46840 0.99274 0.36482
 C1953 C 0.45653 0.99155 0.37962
 C1954 C 0.43736 0.99113 0.37686
 C1955 C 0.42539 0.99050 0.39161
 C1956 C 0.43176 0.99043 0.40841
 C1957 C 0.45030 0.99081 0.41134
 C1958 C 0.46308 0.99108 0.39712
 C1959 C 0.48180 0.99099 0.40114
 C1960 C 0.48736 0.99139 0.41849
 C1961 C 0.47449 0.99193 0.43234
 C1962 C 0.45602 0.99124 0.42858
 H1963 H 0.40151 0.98948 0.36578
 H1964 H 0.44675 0.99402 0.31684
 H1965 H 0.39173 0.98999 0.33655
 H1966 H 0.47151 0.99439 0.33702
 H1967 H 0.48292 0.99339 0.36584
 H1968 H 0.41084 0.99032 0.39073
 H1969 H 0.42197 0.99017 0.41928
 H1970 H 0.49249 0.99074 0.39122
 H1971 H 0.50174 0.99181 0.42102
 H1972 H 0.44590 0.99131 0.43919
 C1973 C -0.08460 0.47742 0.85701
 C1974 C -0.06669 0.48219 0.86043
 C1975 C -0.05536 0.48718 0.84597
 C1976 C -0.06218 0.48819 0.82893
 C1977 C -0.08015 0.48348 0.82569
 C1978 C -0.09109 0.47802 0.84012
 C1979 C -0.03722 0.49099 0.84859
 C1980 C -0.03004 0.48991 0.86521
 C1981 C -0.04091 0.48547 0.88009
 C1982 C -0.05969 0.48206 0.87768
 C1983 C -0.07101 0.47915 0.89263
 C1984 C -0.06431 0.47952 0.90931
 C1985 C -0.04602 0.48240 0.91189
 C1986 C -0.03387 0.48492 0.89738
 C1987 C -0.01523 0.48690 0.90093
 C1988 C -0.00929 0.48742 0.91812
 C1989 C -0.02169 0.48610 0.93229
 C1990 C -0.03995 0.48319 0.92902
 H1991 H -0.09401 0.47289 0.86706
 H1992 H -0.05311 0.49188 0.81815
 H1993 H -0.10518 0.47485 0.83867
 H1994 H -0.02840 0.49476 0.83762
 H1995 H -0.01596 0.49318 0.86606
 H1996 H -0.08538 0.47717 0.89197
 H1997 H -0.07365 0.47760 0.92038
 H1998 H -0.00493 0.48812 0.89071
 H1999 H 0.00493 0.48954 0.92033
 H2000 H -0.04960 0.48181 0.93992
 C2001 C 0.04783 0.02431 0.83265
 C2002 C 0.04319 0.00907 0.84295
 C2003 C 0.04890 -0.00797 0.83662
 C2004 C 0.05888 -0.00951 0.82076
 C2005 C 0.06375 0.00572 0.81098
 C2006 C 0.05795 0.02260 0.81700
 C2007 C 0.04495 -0.02342 0.84627
 C2008 C 0.03637 -0.02239 0.86261
 C2009 C 0.03123 -0.00575 0.86995
 C2010 C 0.03372 0.01017 0.85956
 C2011 C 0.02687 0.02662 0.86624
 C2012 C 0.01901 0.02768 0.88294
 C2013 C 0.01797 0.01250 0.89381
 C2014 C 0.02395 -0.00447 0.88743
 C2015 C 0.02331 -0.01935 0.89917
 C2016 C 0.01774 -0.01728 0.91656
 C2017 C 0.01221 -0.00048 0.92283
 C2018 C 0.01175 0.01431 0.91129
 H2019 H 0.04440 0.03777 0.83658
 H2020 H 0.06305 -0.02266 0.81612
 H2021 H 0.06173 0.03463 0.80987
 H2022 H 0.04892 -0.03650 0.84133
 H2023 H 0.03386 -0.03500 0.86914
 H2024 H 0.02734 0.03902 0.85882
 H2025 H 0.01424 0.04064 0.88761
 H2026 H 0.02791 -0.03265 0.89564
 H2027 H 0.01825 -0.02886 0.92534
 H2028 H 0.00774 0.02739 0.91621
 C2029 C 0.54638 0.52392 0.33143
 C2030 C 0.54038 0.50897 0.34142
 C2031 C 0.54504 0.49170 0.33501
 C2032 C 0.55539 0.48965 0.31942
 C2033 C 0.56165 0.50459 0.30999
 C2034 C 0.55683 0.52171 0.31605
 C2035 C 0.53968 0.47648 0.34435
 C2036 C 0.53077 0.47791 0.36050
 C2037 C 0.52673 0.49474 0.36796
 C2038 C 0.53062 0.51052 0.35783
 C2039 C 0.52487 0.52729 0.36458
 C2040 C 0.51689 0.52869 0.38121
 C2041 C 0.51460 0.51354 0.39190
 C2042 C 0.51930 0.49631 0.38536
 C2043 C 0.51737 0.48140 0.39692
 C2044 C 0.51196 0.48366 0.41432
 C2045 C 0.50782 0.50070 0.42076
 C2046 C 0.50850 0.51558 0.40938
 H2047 H 0.54379 0.53751 0.33542
 H2048 H 0.55881 0.47635 0.31473
 H2049 H 0.56168 0.53350 0.30916
 H2050 H 0.54282 0.46326 0.33932
 H2051 H 0.52717 0.46547 0.36682
 H2052 H 0.52637 0.53967 0.35732
 H2053 H 0.51306 0.54188 0.38598
 H2054 H 0.52090 0.46788 0.39325
 H2055 H 0.51160 0.47202 0.42301
 H2056 H 0.50558 0.52883 0.41445
 C2057 C 0.55920 0.52222 0.15484
 C2058 C 0.55166 0.50694 0.14773
 C2059 C 0.55304 0.49065 0.15754
 C2060 C 0.56251 0.48967 0.17325
 C2061 C 0.57061 0.50480 0.17967
 C2062 C 0.56849 0.52110 0.17045
 C2063 C 0.54519 0.47536 0.15149
 C2064 C 0.53626 0.47572 0.13573
 C2065 C 0.53512 0.49139 0.12512
 C2066 C 0.54306 0.50724 0.13119
 C2067 C 0.54275 0.52269 0.12025
 C2068 C 0.53547 0.52262 0.10380
 C2069 C 0.52787 0.50731 0.09764
 C2070 C 0.52698 0.49161 0.10831
 C2071 C 0.51830 0.47676 0.10145
 C2072 C 0.51196 0.47723 0.08434
 C2073 C 0.51417 0.49243 0.07361
 C2074 C 0.52165 0.50755 0.08054
 H2075 H 0.55813 0.53533 0.14878
 H2076 H 0.56399 0.47694 0.18023
 H2077 H 0.57397 0.53317 0.17537
 H2078 H 0.54608 0.46289 0.15897
 H2079 H 0.53084 0.46325 0.13196
 H2080 H 0.54863 0.53503 0.12371
 H2081 H 0.53602 0.53469 0.09570
 H2082 H 0.51637 0.46453 0.10886
 H2083 H 0.50605 0.46545 0.07926
 H2084 H 0.52304 0.51951 0.07238
 C2085 C 0.05536 1.02365 0.65588
 C2086 C 0.04800 1.00818 0.64896
 C2087 C 0.05022 0.99187 0.65861
 C2088 C 0.06020 0.99110 0.67403
 C2089 C 0.06806 1.00645 0.68026
 C2090 C 0.06520 1.02273 0.67117
 C2091 C 0.04274 0.97634 0.65267
 C2092 C 0.03343 0.97646 0.63714
 C2093 C 0.03144 0.99216 0.62666
 C2094 C 0.03883 1.00830 0.63271
 C2095 C 0.03737 1.02390 0.62203
 C2096 C 0.02967 1.02368 0.60577
 C2097 C 0.02280 1.00805 0.59954
 C2098 C 0.02295 0.99217 0.61002
 C2099 C 0.01500 0.97693 0.60309
 C2100 C 0.00842 0.97726 0.58607
 C2101 C 0.00962 0.99270 0.57552
 C2102 C 0.01631 1.00815 0.58255
 H2103 H 0.05381 1.03675 0.64988
 H2104 H 0.06226 0.97840 0.68091
 H2105 H 0.07055 1.03492 0.67594
 H2106 H 0.04427 0.96385 0.66005
 H2107 H 0.02837 0.96382 0.63343
 H2108 H 0.04258 1.03652 0.62555
 H2109 H 0.02938 1.03589 0.59784
 H2110 H 0.01392 0.96448 0.61034
 H2111 H 0.00318 0.96519 0.58089
 H2112 H 0.01696 1.02026 0.57449
 C2113 C -0.07117 0.47281 0.65550
 C2114 C -0.05830 0.48541 0.64964
 C2115 C -0.05227 0.49753 0.66201
 C2116 C -0.05969 0.49749 0.67923
 C2117 C -0.07324 0.48556 0.68439
 C2118 C -0.07851 0.47302 0.67246
 C2119 C -0.03916 0.50982 0.65700
 C2120 C -0.03209 0.51064 0.63992
 C2121 C -0.03808 0.49929 0.62696
 C2122 C -0.05147 0.48651 0.63194
 C2123 C -0.05802 0.47558 0.61893
 C2124 C -0.05194 0.47708 0.60171
 C2125 C -0.03895 0.48937 0.59664
 C2126 C -0.03151 0.50050 0.60910
 C2127 C -0.01793 0.51236 0.60299
 C2128 C -0.01245 0.51329 0.58525
 C2129 C -0.02043 0.50261 0.57304
 C2130 C -0.03352 0.49057 0.57900
 H2131 H -0.07600 0.46259 0.64735
 H2132 H -0.05543 0.50719 0.68842
 H2133 H -0.08855 0.46332 0.67627
 H2134 H -0.03439 0.51906 0.66639
 H2135 H -0.02218 0.52064 0.63717
 H2136 H -0.06827 0.46589 0.62147
 H2137 H -0.05760 0.46852 0.59219
 H2138 H -0.01124 0.52104 0.61157
 H2139 H -0.00216 0.52258 0.58105
 H2140 H -0.03954 0.48190 0.56980
 C2141 C 0.43165 -0.02517 0.15610
 C2142 C 0.44420 -0.01230 0.15012
 C2143 C 0.44868 0.00107 0.16193
 C2144 C 0.44048 0.00162 0.17882
 C2145 C 0.42749 -0.01083 0.18411
 C2146 C 0.42346 -0.02433 0.17270
 C2147 C 0.46098 0.01406 0.15667
 C2148 C 0.46858 0.01445 0.13979
 C2149 C 0.46418 0.00176 0.12737
 C2150 C 0.45202 -0.01201 0.13276
 C2151 C 0.44775 -0.02488 0.12048
 C2152 C 0.45438 -0.02395 0.10341
 C2153 C 0.46569 -0.01034 0.09780
 C2154 C 0.47118 0.00254 0.10964
 C2155 C 0.48317 0.01574 0.10300
 C2156 C 0.48878 0.01634 0.08529
 C2157 C 0.48251 0.00396 0.07368
 C2158 C 0.47129 -0.00951 0.08019
 H2159 H 0.42754 -0.03596 0.14826
 H2160 H 0.44367 0.01214 0.18759
 H2161 H 0.41372 -0.03429 0.17661
 H2162 H 0.46457 0.02425 0.16564
 H2163 H 0.47772 0.02507 0.13678
 H2164 H 0.43906 -0.03584 0.12351
 H2165 H 0.45039 -0.03397 0.09441
 H2166 H 0.48829 0.02589 0.11109
 H2167 H 0.49760 0.02680 0.08059
 H2168 H 0.46669 -0.01945 0.07140
 C2169 C 0.34642 0.41715 -0.01618
 C2170 C 0.35611 0.42066 -0.00100
 C2171 C 0.34902 0.41409 0.01525
 C2172 C 0.33273 0.40470 0.01610
 C2173 C 0.32347 0.40128 0.00085
 C2174 C 0.33049 0.40764 -0.01520
 C2175 C 0.35835 0.41675 0.03052
 C2176 C 0.37471 0.42556 0.03006
 C2177 C 0.38234 0.43239 0.01424
 C2178 C 0.37264 0.43023 -0.00148
 C2179 C 0.37971 0.43781 -0.01719
 C2180 C 0.39583 0.44678 -0.01771
 C2181 C 0.40570 0.44858 -0.00268
 C2182 C 0.39927 0.44144 0.01355
 C2183 C 0.41019 0.44364 0.02828
 C2184 C 0.42660 0.45266 0.02681
 C2185 C 0.43268 0.45979 0.01067
 C2186 C 0.42204 0.45759 -0.00397
 H2187 H 0.35085 0.42127 -0.02912
 H2188 H 0.32750 0.39964 0.02857
 H2189 H 0.32353 0.40530 -0.02715
 H2190 H 0.35303 0.41179 0.04299
 H2191 H 0.38099 0.42697 0.04244
 H2192 H 0.37301 0.43729 -0.02945
 H2193 H 0.40066 0.45236 -0.03013
 H2194 H 0.40653 0.43844 0.04109
 H2195 H 0.43452 0.45404 0.03835
 H2196 H 0.42646 0.46292 -0.01662
 C2197 C -0.15759 0.91744 0.48503
 C2198 C -0.14794 0.92104 0.50020
 C2199 C -0.15514 0.91466 0.51648
 C2200 C -0.17149 0.90535 0.51735
 C2201 C -0.18074 0.90187 0.50211
 C2202 C -0.17360 0.90805 0.48603
 C2203 C -0.14589 0.91746 0.53176
 C2204 C -0.12954 0.92628 0.53131
 C2205 C -0.12181 0.93296 0.51547
 C2206 C -0.13137 0.93057 0.49970
 C2207 C -0.12413 0.93788 0.48394
 C2208 C -0.10802 0.94688 0.48342
 C2209 C -0.09832 0.94897 0.49852
 C2210 C -0.10492 0.94206 0.51479
 C2211 C -0.09418 0.94455 0.52959
 C2212 C -0.07780 0.95360 0.52815
 C2213 C -0.07154 0.96050 0.51197
 C2214 C -0.08199 0.95803 0.49726
 H2215 H -0.15310 0.92145 0.47207
 H2216 H -0.17680 0.90045 0.52985
 H2217 H -0.18054 0.90570 0.47408
 H2218 H -0.15130 0.91263 0.54426
 H2219 H -0.12335 0.92781 0.54371
 H2220 H -0.13067 0.93712 0.47163
 H2221 H -0.10306 0.95226 0.47097
 H2222 H -0.09798 0.93958 0.54245
 H2223 H -0.07003 0.95520 0.53975
 H2224 H -0.07742 0.96317 0.48458
 C2225 C -0.15814 0.08518 1.01811
 C2226 C -0.14789 0.08087 1.00277
 C2227 C -0.15609 0.08473 0.98657
 C2228 C -0.17374 0.09274 0.98594
 C2229 C -0.18385 0.09713 1.00135
 C2230 C -0.17558 0.09307 1.01738
 C2231 C -0.14667 0.08056 0.97100
 C2232 C -0.12925 0.07265 0.97110
 C2233 C -0.12039 0.06859 0.98688
 C2234 C -0.12986 0.07287 1.00298
 C2235 C -0.12098 0.06902 1.01879
 C2236 C -0.10367 0.06108 1.01898
 C2237 C -0.09438 0.05661 1.00349
 C2238 C -0.10243 0.06032 0.98717
 C2239 C -0.09211 0.05544 0.97193
 C2240 C -0.07480 0.04699 0.97301
 C2241 C -0.06714 0.04314 0.98927
 C2242 C -0.07705 0.04825 1.00440
 H2243 H -0.15311 0.08279 1.03103
 H2244 H -0.17967 0.09490 0.97329
 H2245 H -0.18211 0.09668 1.02969
 H2246 H -0.15285 0.08344 0.95853
 H2247 H -0.12305 0.06990 0.95849
 H2248 H -0.12700 0.07195 1.03142
 H2249 H -0.09751 0.05833 1.03149
 H2250 H -0.09705 0.05780 0.95896
 H2251 H -0.06752 0.04327 0.96107
 H2252 H -0.07137 0.04551 1.01713
 C2253 C 0.33816 0.58204 0.51948
 C2254 C 0.34889 0.57921 0.50404
 C2255 C 0.34144 0.58523 0.48799
 C2256 C 0.32414 0.59400 0.48764
 C2257 C 0.31398 0.59709 0.50316
 C2258 C 0.32113 0.59083 0.51898
 C2259 C 0.35136 0.58266 0.47238
 C2260 C 0.36860 0.57433 0.47226
 C2261 C 0.37675 0.56823 0.48787
 C2262 C 0.36671 0.57072 0.50403
 C2263 C 0.37486 0.56478 0.51968
 C2264 C 0.39209 0.55665 0.51965
 C2265 C 0.40201 0.55404 0.50409
 C2266 C 0.39462 0.55974 0.48793
 C2267 C 0.40552 0.55664 0.47260
 C2268 C 0.42282 0.54815 0.47342
 C2269 C 0.42993 0.54251 0.48949
 C2270 C 0.41935 0.54564 0.50475
 H2271 H 0.34245 0.57771 0.53225
 H2272 H 0.31878 0.59886 0.47530
 H2273 H 0.31345 0.59271 0.53113
 H2274 H 0.34575 0.58719 0.46005
 H2275 H 0.37524 0.57294 0.45962
 H2276 H 0.36834 0.56624 0.53235
 H2277 H 0.39772 0.55232 0.53204
 H2278 H 0.40108 0.56051 0.45974
 H2279 H 0.43061 0.54595 0.46139
 H2280 H 0.42454 0.54138 0.51733
 C2281 C 0.14093 0.59420 0.52699
 C2282 C 0.13879 0.57766 0.51877
 C2283 C 0.15372 0.57082 0.50848
 C2284 C 0.16987 0.58025 0.50648
 C2285 C 0.17164 0.59673 0.51448
 C2286 C 0.15703 0.60349 0.52484
 C2287 C 0.15247 0.55466 0.50003
 C2288 C 0.13656 0.54527 0.50108
 C2289 C 0.12106 0.55167 0.51070
 C2290 C 0.12233 0.56788 0.52009
 C2291 C 0.10707 0.57379 0.53035
 C2292 C 0.09094 0.56462 0.53094
 C2293 C 0.08920 0.54926 0.52124
 C2294 C 0.10426 0.54250 0.51104
 C2295 C 0.10168 0.52709 0.50116
 C2296 C 0.08483 0.51921 0.50099
 C2297 C 0.06992 0.52610 0.51080
 C2298 C 0.07230 0.54090 0.52128
 H2299 H 0.13037 0.60046 0.53502
 H2300 H 0.18094 0.57494 0.49825
 H2301 H 0.15806 0.61605 0.53142
 H2302 H 0.16391 0.54925 0.49233
 H2303 H 0.13695 0.53292 0.49414
 H2304 H 0.10710 0.58559 0.53813
 H2305 H 0.07956 0.56982 0.53885
 H2306 H 0.11219 0.52102 0.49296
 H2307 H 0.08339 0.50773 0.49285
 H2308 H 0.06077 0.54645 0.52878
 C2309 C 0.64367 0.09283 0.02768
 C2310 C 0.64054 0.07770 0.01754
 C2311 C 0.65462 0.07209 0.00559
 C2312 C 0.67084 0.08142 0.00380
 C2313 C 0.67360 0.09652 0.01373
 C2314 C 0.65987 0.10201 0.02576
 C2315 C 0.65243 0.05729 -0.00470
 C2316 C 0.63645 0.04801 -0.00375
 C2317 C 0.62178 0.05320 0.00760
 C2318 C 0.62395 0.06812 0.01864
 C2319 C 0.60938 0.07304 0.03022
 C2320 C 0.59312 0.06406 0.03072
 C2321 C 0.59060 0.04984 0.01970
 C2322 C 0.60494 0.04410 0.00807
 C2323 C 0.60164 0.02970 -0.00290
 C2324 C 0.58477 0.02186 -0.00275
 C2325 C 0.57050 0.02780 0.00843
 C2326 C 0.57364 0.04158 0.01995
 H2327 H 0.63387 0.09803 0.03716
 H2328 H 0.68118 0.07712 -0.00574
 H2329 H 0.66168 0.11345 0.03384
 H2330 H 0.66319 0.05286 -0.01376
 H2331 H 0.63609 0.03680 -0.01224
 H2332 H 0.61002 0.08392 0.03909
 H2333 H 0.58229 0.06850 0.03969
 H2334 H 0.61163 0.02429 -0.01208
 H2335 H 0.58282 0.01112 -0.01168
 H2336 H 0.56266 0.04636 0.02860
 C2337 C 0.66259 0.94077 0.50763
 C2338 C 0.64687 0.93598 0.49886
 C2339 C 0.64791 0.91982 0.48953
 C2340 C 0.66370 0.90862 0.48983
 C2341 C 0.67909 0.91338 0.49885
 C2342 C 0.67834 0.92970 0.50754
 C2343 C 0.63315 0.91482 0.47999
 C2344 C 0.61734 0.92553 0.47936
 C2345 C 0.61541 0.94158 0.48869
 C2346 C 0.63024 0.94663 0.49900
 C2347 C 0.62773 0.96183 0.50951
 C2348 C 0.61137 0.97173 0.51002
 C2349 C 0.59697 0.96723 0.49977
 C2350 C 0.59891 0.95243 0.48856
 C2351 C 0.58416 0.94910 0.47775
 C2352 C 0.56792 0.95941 0.47882
 C2353 C 0.56574 0.97333 0.49069
 C2354 C 0.58049 0.97734 0.50091
 H2355 H 0.66333 0.95316 0.51440
 H2356 H 0.66383 0.89601 0.48316
 H2357 H 0.69009 0.93413 0.51417
 H2358 H 0.63385 0.90247 0.47284
 H2359 H 0.60659 0.92052 0.47184
 H2360 H 0.63800 0.96615 0.51802
 H2361 H 0.60999 0.98305 0.51859
 H2362 H 0.58472 0.93867 0.46827
 H2363 H 0.55682 0.95608 0.47066
 H2364 H 0.57908 0.98828 0.50995
 C2365 C 0.16660 0.43589 1.00838
 C2366 C 0.15107 0.43124 0.99922
 C2367 C 0.15231 0.41522 0.98967
 C2368 C 0.16816 0.40413 0.98994
 C2369 C 0.18337 0.40884 0.99924
 C2370 C 0.18239 0.42491 1.00832
 C2371 C 0.13770 0.41027 0.97990
 C2372 C 0.12186 0.42092 0.97922
 C2373 C 0.11977 0.43689 0.98864
 C2374 C 0.13446 0.44191 0.99916
 C2375 C 0.13189 0.45717 1.00958
 C2376 C 0.11561 0.46717 1.00978
 C2377 C 0.10133 0.46267 0.99939
 C2378 C 0.10329 0.44775 0.98833
 C2379 C 0.08858 0.44435 0.97749
 C2380 C 0.07239 0.45477 0.97833
 C2381 C 0.07024 0.46888 0.98999
 C2382 C 0.08494 0.47292 1.00025
 H2383 H 0.16717 0.44810 1.01547
 H2384 H 0.16852 0.39167 0.98300
 H2385 H 0.19401 0.42923 1.01523
 H2386 H 0.13855 0.39802 0.97260
 H2387 H 0.11124 0.41596 0.97149
 H2388 H 0.14205 0.46152 1.01818
 H2389 H 0.11418 0.47858 1.01825
 H2390 H 0.08911 0.43377 0.96817
 H2391 H 0.06134 0.45143 0.97012
 H2392 H 0.08359 0.48400 1.00912
 C2393 C -0.00380 0.32883 0.45624
 C2394 C -0.01194 0.34465 0.44893
 C2395 C -0.02044 0.34337 0.43266
 C2396 C -0.02011 0.32713 0.42393
 C2397 C -0.01107 0.31194 0.43090
 C2398 C -0.00332 0.31281 0.44729
 C2399 C -0.02867 0.35845 0.42481
 C2400 C -0.02779 0.37509 0.43221
 C2401 C -0.01860 0.37731 0.44787
 C2402 C -0.01128 0.36174 0.45679
 C2403 C -0.00320 0.36384 0.47305
 C2404 C -0.00141 0.38061 0.47995
 C2405 C -0.00747 0.39597 0.47092
 C2406 C -0.01628 0.39461 0.45483
 C2407 C -0.02194 0.41071 0.44615
 C2408 C -0.01898 0.42730 0.45322
 C2409 C -0.01024 0.42850 0.46911
 C2410 C -0.00459 0.41273 0.47790
 H2411 H 0.00289 0.32843 0.46855
 H2412 H -0.02599 0.32659 0.41115
 H2413 H 0.00353 0.30112 0.45303
 H2414 H -0.03549 0.35746 0.41254
 H2415 H -0.03445 0.38600 0.42521
 H2416 H 0.00197 0.35275 0.48088
 H2417 H 0.00509 0.38158 0.49239
 H2418 H -0.02843 0.41106 0.43374
 H2419 H -0.02350 0.43926 0.44610
 H2420 H 0.00212 0.41344 0.49027
 C2421 C 0.49665 -0.16993 -0.04305
 C2422 C 0.48737 -0.15438 -0.04962
 C2423 C 0.47774 -0.15581 -0.06526
 C2424 C 0.47804 -0.17197 -0.07413
 C2425 C 0.48824 -0.18683 -0.06799
 C2426 C 0.49713 -0.18583 -0.05219
 C2427 C 0.46847 -0.14095 -0.07240
 C2428 C 0.46949 -0.12429 -0.06505
 C2429 C 0.47984 -0.12189 -0.05013
 C2430 C 0.48806 -0.13732 -0.04172
 C2431 C 0.49703 -0.13511 -0.02593
 C2432 C 0.49897 -0.11830 -0.01917
 C2433 C 0.49222 -0.10304 -0.02791
 C2434 C 0.48244 -0.10454 -0.04343
 C2435 C 0.47620 -0.08854 -0.05191
 C2436 C 0.47949 -0.07189 -0.04516
 C2437 C 0.48914 -0.07054 -0.02980
 C2438 C 0.49539 -0.08622 -0.02121
 H2439 H 0.50431 -0.17016 -0.03130
 H2440 H 0.47125 -0.17264 -0.08646
 H2441 H 0.50490 -0.19728 -0.04712
 H2442 H 0.46075 -0.14208 -0.08414
 H2443 H 0.46200 -0.11352 -0.07147
 H2444 H 0.50276 -0.14614 -0.01839
 H2445 H 0.50618 -0.11722 -0.00713
 H2446 H 0.46906 -0.08833 -0.06397
 H2447 H 0.47452 -0.06000 -0.05212
 H2448 H 0.50282 -0.08539 -0.00927
 C2449 C 0.00034 -0.16186 1.05781
 C2450 C 0.00756 -0.14626 1.06456
 C2451 C 0.01794 -0.14817 1.07984
 C2452 C 0.02020 -0.16489 1.08830
 C2453 C 0.01229 -0.17998 1.08179
 C2454 C 0.00260 -0.17835 1.06637
 C2455 C 0.02585 -0.13338 1.08674
 C2456 C 0.02365 -0.11658 1.07889
 C2457 C 0.01318 -0.11387 1.06384
 C2458 C 0.00478 -0.12892 1.05671
 C2459 C -0.00637 -0.12611 1.04216
 C2460 C -0.00888 -0.10932 1.03448
 C2461 C -0.00038 -0.09465 1.04092
 C2462 C 0.01074 -0.09659 1.05568
 C2463 C 0.01909 -0.08114 1.06150
 C2464 C 0.01667 -0.06468 1.05280
 C2465 C 0.00583 -0.06302 1.03810
 C2466 C -0.00285 -0.07804 1.03241
 H2467 H -0.00720 -0.16189 1.04600
 H2468 H 0.02801 -0.16615 1.10007
 H2469 H -0.00377 -0.18981 1.06113
 H2470 H 0.03383 -0.13479 1.09839
 H2471 H 0.03020 -0.10594 1.08515
 H2472 H -0.01363 -0.13659 1.03639
 H2473 H -0.01751 -0.10784 1.02328
 H2474 H 0.02781 -0.08127 1.07253
 H2475 H 0.02353 -0.05326 1.05752
 H2476 H -0.01124 -0.07696 1.02101
 C2477 C 0.49961 0.33766 0.55412
 C2478 C 0.50907 0.35269 0.55932
 C2479 C 0.52059 0.35046 0.57377
 C2480 C 0.52220 0.33396 0.58270
 C2481 C 0.51210 0.31951 0.57781
 C2482 C 0.50108 0.32142 0.56329
 C2483 C 0.53010 0.36482 0.57957
 C2484 C 0.52786 0.38166 0.57185
 C2485 C 0.51604 0.38478 0.55783
 C2486 C 0.50703 0.36992 0.55104
 C2487 C 0.49615 0.37281 0.53631
 C2488 C 0.49359 0.38968 0.52882
 C2489 C 0.50164 0.40438 0.53571
 C2490 C 0.51297 0.40226 0.55031
 C2491 C 0.52054 0.41780 0.55686
 C2492 C 0.51737 0.43453 0.54888
 C2493 C 0.50645 0.43637 0.53426
 C2494 C 0.49848 0.42123 0.52789
 H2495 H 0.49043 0.33805 0.54344
 H2496 H 0.53096 0.33248 0.59381
 H2497 H 0.49291 0.31053 0.55940
 H2498 H 0.53912 0.36310 0.59047
 H2499 H 0.53570 0.39197 0.57719
 H2500 H 0.48944 0.36226 0.53005
 H2501 H 0.48508 0.39125 0.51753
 H2502 H 0.52889 0.41760 0.56816
 H2503 H 0.52358 0.44605 0.55417
 H2504 H 0.49001 0.42246 0.51656
 C2505 C 0.49846 1.17241 0.55139
 C2506 C 0.48757 1.15804 0.55706
 C2507 C 0.47747 1.15991 0.57303
 C2508 C 0.47874 1.17523 0.58299
 C2509 C 0.49007 1.18899 0.57745
 C2510 C 0.49966 1.18757 0.56146
 C2511 C 0.46642 1.14632 0.57924
 C2512 C 0.46575 1.13044 0.57042
 C2513 C 0.47624 1.12747 0.55494
 C2514 C 0.48683 1.14173 0.54781
 C2515 C 0.49666 1.13902 0.53191
 C2516 C 0.49705 1.12266 0.52378
 C2517 C 0.48769 1.10834 0.53110
 C2518 C 0.47685 1.11058 0.54658
 C2519 C 0.46756 1.09558 0.55336
 C2520 C 0.46960 1.07903 0.54550
 C2521 C 0.48084 1.07678 0.53057
 C2522 C 0.48950 1.09163 0.52320
 H2523 H 0.50650 1.17232 0.53941
 H2524 H 0.47139 1.17612 0.59544
 H2525 H 0.50823 1.19822 0.55673
 H2526 H 0.45844 1.14782 0.59129
 H2527 H 0.45695 1.12067 0.57628
 H2528 H 0.50444 1.14925 0.52541
 H2529 H 0.50511 1.12109 0.51179
 H2530 H 0.45892 1.09596 0.56495
 H2531 H 0.46251 1.06786 0.55139
 H2532 H 0.49814 1.09011 0.51157
 C2533 C 0.01837 0.66744 1.04924
 C2534 C 0.00241 0.65749 1.04862
 C2535 C -0.01320 0.66362 1.05837
 C2536 C -0.01276 0.67919 1.06808
 C2537 C 0.00331 0.68846 1.06897
 C2538 C 0.01879 0.68259 1.05943
 C2539 C -0.02897 0.65386 1.05893
 C2540 C -0.02923 0.63739 1.05105
 C2541 C -0.01376 0.63032 1.04189
 C2542 C 0.00174 0.64116 1.03948
 C2543 C 0.01611 0.63522 1.02819
 C2544 C 0.01603 0.61855 1.02067
 C2545 C 0.00193 0.60703 1.02451
 C2546 C -0.01319 0.61270 1.03518
 C2547 C -0.02665 0.60015 1.03945
 C2548 C -0.02497 0.58270 1.03348
 C2549 C -0.01004 0.57731 1.02289
 C2550 C 0.00317 0.58964 1.01815
 H2551 H 0.03098 0.66340 1.04271
 H2552 H -0.02467 0.68360 1.07575
 H2553 H 0.03135 0.68964 1.06006
 H2554 H -0.04106 0.65869 1.06607
 H2555 H -0.04186 0.63057 1.05218
 H2556 H 0.02755 0.64330 1.02472
 H2557 H 0.02744 0.61441 1.01224
 H2558 H -0.03823 0.60313 1.04798
 H2559 H -0.03535 0.57335 1.03728
 H2560 H 0.01488 0.58545 1.01011
 C2561 C 0.53547 0.65109 -0.07936
 C2562 C 0.52150 0.64558 -0.06748
 C2563 C 0.50807 0.65862 -0.06224
 C2564 C 0.50850 0.67614 -0.06891
 C2565 C 0.52200 0.68118 -0.08108
 C2566 C 0.53561 0.66860 -0.08608
 C2567 C 0.49395 0.65411 -0.05068
 C2568 C 0.49235 0.63669 -0.04458
 C2569 C 0.50490 0.62299 -0.04985
 C2570 C 0.52009 0.62759 -0.06098
 C2571 C 0.53326 0.61406 -0.06526
 C2572 C 0.53155 0.59658 -0.05912
 C2573 C 0.51654 0.59181 -0.04874
 C2574 C 0.50286 0.60486 -0.04415
 C2575 C 0.48759 0.59915 -0.03411
 C2576 C 0.48651 0.58152 -0.02815
 C2577 C 0.50041 0.56888 -0.03215
 C2578 C 0.51524 0.57403 -0.04275
 H2579 H 0.54623 0.64216 -0.08410
 H2580 H 0.49768 0.68569 -0.06524
 H2581 H 0.54625 0.67226 -0.09543
 H2582 H 0.48384 0.66414 -0.04645
 H2583 H 0.48112 0.63449 -0.03556
 H2584 H 0.54526 0.61654 -0.07320
 H2585 H 0.54208 0.58666 -0.06262
 H2586 H 0.47614 0.60788 -0.03068
 H2587 H 0.47471 0.57781 -0.02026
 H2588 H 0.52606 0.56430 -0.04597
 C2589 C 0.03415 1.14908 0.41925
 C2590 C 0.02204 1.14478 0.43329
 C2591 C 0.01112 1.15889 0.44052
 C2592 C 0.01200 1.17634 0.43362
 C2593 C 0.02328 1.18032 0.41898
 C2594 C 0.03466 1.16644 0.41223
 C2595 C -0.00119 1.15553 0.45427
 C2596 C -0.00362 1.13826 0.46053
 C2597 C 0.00631 1.12358 0.45330
 C2598 C 0.01997 1.12695 0.44004
 C2599 C 0.03095 1.11239 0.43392
 C2600 C 0.02836 1.09508 0.44016
 C2601 C 0.01454 1.09151 0.45244
 C2602 C 0.00314 1.10564 0.45903
 C2603 C -0.01118 1.10117 0.47092
 C2604 C -0.01343 1.08357 0.47661
 C2605 C -0.00165 1.06977 0.47059
 C2606 C 0.01214 1.07382 0.45827
 H2607 H 0.04309 1.13928 0.41302
 H2608 H 0.00259 1.18640 0.43895
 H2609 H 0.04424 1.16888 0.40151
 H2610 H -0.00934 1.16635 0.46006
 H2611 H -0.01332 1.13692 0.47125
 H2612 H 0.04189 1.11391 0.42441
 H2613 H 0.03720 1.08433 0.43516
 H2614 H -0.02103 1.11088 0.47596
 H2615 H -0.02439 1.08082 0.48594
 H2616 H 0.02130 1.06325 0.45342
 C2617 C 0.72169 0.70168 0.91261
 C2618 C 0.73743 0.70854 0.90415
 C2619 C 0.75426 0.70556 0.91249
 C2620 C 0.75510 0.69627 0.92862
 C2621 C 0.73948 0.68910 0.93658
 C2622 C 0.72277 0.69208 0.92845
 C2623 C 0.77028 0.71152 0.90453
 C2624 C 0.77021 0.71939 0.88794
 C2625 C 0.75395 0.72194 0.87874
 C2626 C 0.73717 0.71754 0.88743
 C2627 C 0.72076 0.72219 0.87905
 C2628 C 0.72077 0.72972 0.86227
 C2629 C 0.73707 0.73244 0.85297
 C2630 C 0.75392 0.72858 0.86106
 C2631 C 0.77007 0.73055 0.85077
 C2632 C 0.76940 0.73553 0.83315
 C2633 C 0.75275 0.73924 0.82528
 C2634 C 0.73662 0.73821 0.83535
 H2635 H 0.70845 0.70285 0.90698
 H2636 H 0.76808 0.69436 0.93484
 H2637 H 0.71050 0.68645 0.93405
 H2638 H 0.78314 0.70963 0.91099
 H2639 H 0.78318 0.72356 0.88272
 H2640 H 0.70759 0.72032 0.88523
 H2641 H 0.70784 0.73285 0.85628
 H2642 H 0.78341 0.72735 0.85565
 H2643 H 0.78199 0.73602 0.82545
 H2644 H 0.72369 0.74068 0.82913
 C2645 C 0.22143 0.20843 0.41684
 C2646 C 0.23736 0.21037 0.40620
 C2647 C 0.25375 0.20216 0.41230
 C2648 C 0.25392 0.19209 0.42801
 C2649 C 0.23793 0.18984 0.43810
 C2650 C 0.22177 0.19835 0.43245
 C2651 C 0.26991 0.20373 0.40255
 C2652 C 0.27016 0.21262 0.38647
 C2653 C 0.25411 0.22026 0.37931
 C2654 C 0.23754 0.21967 0.38958
 C2655 C 0.22169 0.22806 0.38271
 C2656 C 0.22173 0.23585 0.36603
 C2657 C 0.23748 0.23555 0.35544
 C2658 C 0.25399 0.22802 0.36203
 C2659 C 0.26955 0.22784 0.35069
 C2660 C 0.26843 0.23378 0.33340
 C2661 C 0.25198 0.24051 0.32680
 C2662 C 0.23665 0.24201 0.33801
 H2663 H 0.20840 0.21428 0.41340
 H2664 H 0.26650 0.18546 0.43208
 H2665 H 0.20925 0.19722 0.44013
 H2666 H 0.28254 0.19777 0.40730
 H2667 H 0.28329 0.21309 0.37992
 H2668 H 0.20884 0.22866 0.38983
 H2669 H 0.20911 0.24174 0.36119
 H2670 H 0.28268 0.22252 0.35445
 H2671 H 0.28045 0.23259 0.32490
 H2672 H 0.22384 0.24706 0.33285
 C2673 C 0.78430 0.29840 0.40602
 C2674 C 0.77010 0.28932 0.39837
 C2675 C 0.75262 0.29053 0.40672
 C2676 C 0.74962 0.30059 0.42188
 C2677 C 0.76376 0.30979 0.42902
 C2678 C 0.78113 0.30842 0.42103
 C2679 C 0.73812 0.28193 0.39976
 C2680 C 0.74024 0.27289 0.38418
 C2681 C 0.75711 0.27204 0.37485
 C2682 C 0.77248 0.27967 0.38246
 C2683 C 0.78961 0.27768 0.37372
 C2684 C 0.79145 0.26976 0.35750
 C2685 C 0.77636 0.26359 0.34926
 C2686 C 0.75900 0.26427 0.35793
 C2687 C 0.74408 0.25807 0.34884
 C2688 C 0.74615 0.25268 0.33158
 C2689 C 0.76313 0.25277 0.32294
 C2690 C 0.77834 0.25761 0.33198
 H2691 H 0.79794 0.29847 0.40052
 H2692 H 0.73617 0.30137 0.42807
 H2693 H 0.79227 0.31558 0.42612
 H2694 H 0.72481 0.28250 0.40626
 H2695 H 0.72827 0.26674 0.37976
 H2696 H 0.80195 0.28226 0.37900
 H2697 H 0.80480 0.26899 0.35110
 H2698 H 0.73041 0.25811 0.35428
 H2699 H 0.73421 0.24921 0.32462
 H2700 H 0.79145 0.25803 0.32513
 C2701 C 0.28772 0.80786 0.90248
 C2702 C 0.27528 0.79592 0.89583
 C2703 C 0.25958 0.79216 0.90630
 C2704 C 0.25615 0.80083 0.92224
 C2705 C 0.26832 0.81309 0.92826
 C2706 C 0.28424 0.81625 0.91838
 C2707 C 0.24725 0.77996 0.90073
 C2708 C 0.24982 0.77167 0.88476
 C2709 C 0.26475 0.77554 0.87344
 C2710 C 0.27769 0.78790 0.87906
 C2711 C 0.29220 0.79236 0.86745
 C2712 C 0.29362 0.78570 0.85070
 C2713 C 0.28095 0.77400 0.84490
 C2714 C 0.26673 0.76815 0.85635
 C2715 C 0.25474 0.75560 0.84989
 C2716 C 0.25596 0.75042 0.83246
 C2717 C 0.26921 0.75736 0.82106
 C2718 C 0.28198 0.76872 0.82742
 H2719 H 0.30027 0.81110 0.89577
 H2720 H 0.24394 0.79807 0.92998
 H2721 H 0.29389 0.82565 0.92274
 H2722 H 0.23532 0.77690 0.90875
 H2723 H 0.23945 0.76269 0.88142
 H2724 H 0.30242 0.80157 0.87064
 H2725 H 0.30463 0.79004 0.84207
 H2726 H 0.24402 0.74984 0.85781
 H2727 H 0.24593 0.74166 0.82764
 H2728 H 0.29221 0.77414 0.81848
 C2729 C 0.24443 0.79264 0.07981
 C2730 C 0.24168 0.80186 0.09561
 C2731 C 0.24119 0.82079 0.09458
 C2732 C 0.24424 0.82991 0.07858
 C2733 C 0.24707 0.82072 0.06278
 C2734 C 0.24696 0.80185 0.06383
 C2735 C 0.23780 0.83071 0.10956
 C2736 C 0.23464 0.82230 0.12561
 C2737 C 0.23520 0.80346 0.12747
 C2738 C 0.23938 0.79304 0.11235
 C2739 C 0.24175 0.77429 0.11464
 C2740 C 0.24042 0.76607 0.13114
 C2741 C 0.23605 0.77605 0.14595
 C2742 C 0.23261 0.79480 0.14415
 C2743 C 0.22694 0.80421 0.15924
 C2744 C 0.22672 0.79579 0.17561
 C2745 C 0.23179 0.77765 0.17762
 C2746 C 0.23567 0.76758 0.16265
 H2747 H 0.24422 0.77827 0.07926
 H2748 H 0.24492 0.84430 0.07890
 H2749 H 0.24816 0.79383 0.05230
 H2750 H 0.23750 0.84521 0.10890
 H2751 H 0.23252 0.83106 0.13649
 H2752 H 0.24540 0.76562 0.10396
 H2753 H 0.24297 0.75173 0.13231
 H2754 H 0.22266 0.81814 0.15891
 H2755 H 0.22300 0.80373 0.18691
 H2756 H 0.23933 0.75346 0.16406
 C2757 C 0.77152 0.32026 0.58998
 C2758 C 0.76155 0.30505 0.59481
 C2759 C 0.75056 0.29789 0.58205
 C2760 C 0.75003 0.30556 0.56506
 C2761 C 0.76017 0.32073 0.56032
 C2762 C 0.77083 0.32784 0.57323
 C2763 C 0.74004 0.28316 0.58631
 C2764 C 0.73983 0.27561 0.60310
 C2765 C 0.75044 0.28232 0.61634
 C2766 C 0.76186 0.29699 0.61196
 C2767 C 0.77327 0.30312 0.62484
 C2768 C 0.77291 0.29593 0.64163
 C2769 C 0.76127 0.28228 0.64636
 C2770 C 0.75001 0.27500 0.63386
 C2771 C 0.73866 0.26093 0.63963
 C2772 C 0.73827 0.25485 0.65713
 C2773 C 0.74909 0.26262 0.66939
 C2774 C 0.76078 0.27608 0.66373
 H2775 H 0.77967 0.32709 0.59895
 H2776 H 0.74201 0.29922 0.55554
 H2777 H 0.77817 0.33995 0.57089
 H2778 H 0.73164 0.27753 0.57660
 H2779 H 0.73119 0.26441 0.60528
 H2780 H 0.78285 0.31348 0.62240
 H2781 H 0.78177 0.30129 0.65112
 H2782 H 0.72969 0.25455 0.63106
 H2783 H 0.72914 0.24439 0.66115
 H2784 H 0.76950 0.28201 0.67299
 C2785 C 0.21285 0.19309 0.59752
 C2786 C 0.22557 0.20594 0.60178
 C2787 C 0.23983 0.20947 0.58943
 C2788 C 0.24095 0.20061 0.57340
 C2789 C 0.22847 0.18762 0.56971
 C2790 C 0.21441 0.18406 0.58183
 C2791 C 0.25320 0.22136 0.59339
 C2792 C 0.25330 0.22919 0.60969
 C2793 C 0.23966 0.22578 0.62258
 C2794 C 0.22506 0.21475 0.61817
 C2795 C 0.21047 0.21271 0.63035
 C2796 C 0.21085 0.21980 0.64685
 C2797 C 0.22573 0.22918 0.65192
 C2798 C 0.24022 0.23273 0.63985
 C2799 C 0.25491 0.24245 0.64591
 C2800 C 0.25548 0.24751 0.66341
 C2801 C 0.24147 0.24309 0.67532
 C2802 C 0.22637 0.23450 0.66926
 H2803 H 0.20194 0.18913 0.60629
 H2804 H 0.25202 0.20320 0.56412
 H2805 H 0.20466 0.17402 0.57921
 H2806 H 0.26405 0.22424 0.58397
 H2807 H 0.26429 0.23794 0.61178
 H2808 H 0.19843 0.20570 0.62753
 H2809 H 0.19953 0.21749 0.65592
 H2810 H 0.26648 0.24576 0.63768
 H2811 H 0.26729 0.25417 0.66777
 H2812 H 0.21527 0.23129 0.67830
 C2813 C 0.72765 0.67672 0.10217
 C2814 C 0.73589 0.69301 0.10546
 C2815 C 0.74630 0.70100 0.09173
 C2816 C 0.74730 0.69339 0.07503
 C2817 C 0.73905 0.67707 0.07193
 C2818 C 0.72933 0.66893 0.08587
 C2819 C 0.75597 0.71627 0.09490
 C2820 C 0.75601 0.72343 0.11155
 C2821 C 0.74564 0.71603 0.12557
 C2822 C 0.73461 0.70122 0.12211
 C2823 C 0.72242 0.69519 0.13535
 C2824 C 0.72198 0.70239 0.15181
 C2825 C 0.73381 0.71567 0.15587
 C2826 C 0.74579 0.72285 0.14292
 C2827 C 0.75770 0.73613 0.14814
 C2828 C 0.75794 0.74152 0.16560
 C2829 C 0.74622 0.73399 0.17830
 C2830 C 0.73388 0.72146 0.17307
 H2831 H 0.72026 0.66929 0.11210
 H2832 H 0.75547 0.69971 0.06480
 H2833 H 0.72230 0.65666 0.08417
 H2834 H 0.76399 0.72250 0.08450
 H2835 H 0.76401 0.73505 0.11298
 H2836 H 0.71269 0.68510 0.13327
 H2837 H 0.71251 0.69717 0.16161
 H2838 H 0.76744 0.74209 0.13919
 H2839 H 0.76764 0.75120 0.16923
 H2840 H 0.72451 0.71561 0.18260
 C2841 C 0.18767 0.58837 0.25319
 C2842 C 0.18373 0.60342 0.24215
 C2843 C 0.16927 0.60213 0.23047
 C2844 C 0.15894 0.58665 0.23041
 C2845 C 0.16283 0.57205 0.24170
 C2846 C 0.17741 0.57305 0.25291
 C2847 C 0.16511 0.61632 0.21896
 C2848 C 0.17484 0.63191 0.21881
 C2849 C 0.18910 0.63410 0.23042
 C2850 C 0.19351 0.61966 0.24239
 C2851 C 0.20728 0.62208 0.25446
 C2852 C 0.21625 0.63803 0.25507
 C2853 C 0.21213 0.65220 0.24355
 C2854 C 0.19880 0.65041 0.23079
 C2855 C 0.19570 0.66514 0.21910
 C2856 C 0.20484 0.68111 0.22062
 C2857 C 0.21735 0.68302 0.23382
 C2858 C 0.22113 0.66831 0.24501
 H2859 H 0.19861 0.58791 0.26221
 H2860 H 0.14788 0.58592 0.22144
 H2861 H 0.18070 0.56202 0.26182
 H2862 H 0.15412 0.61541 0.20995
 H2863 H 0.17055 0.64221 0.20961
 H2864 H 0.21126 0.61201 0.26401
 H2865 H 0.22649 0.63931 0.26480
 H2866 H 0.18623 0.66485 0.20867
 H2867 H 0.20171 0.69217 0.21171
 H2868 H 0.23097 0.66946 0.25513
 C2869 C 0.69016 0.08087 0.74940
 C2870 C 0.68503 0.09670 0.74003
 C2871 C 0.66909 0.09642 0.73016
 C2872 C 0.65824 0.08128 0.73068
 C2873 C 0.66315 0.06572 0.74049
 C2874 C 0.67953 0.06576 0.74952
 C2875 C 0.66401 0.11126 0.71980
 C2876 C 0.67434 0.12647 0.71903
 C2877 C 0.69002 0.12769 0.72905
 C2878 C 0.69517 0.11272 0.74008
 C2879 C 0.70991 0.11447 0.75123
 C2880 C 0.71923 0.13024 0.75168
 C2881 C 0.71465 0.14478 0.74077
 C2882 C 0.70035 0.14360 0.72890
 C2883 C 0.69698 0.15850 0.71748
 C2884 C 0.70675 0.17413 0.71854
 C2885 C 0.72009 0.17553 0.73104
 C2886 C 0.72415 0.16065 0.74191
 H2887 H 0.70244 0.07961 0.75670
 H2888 H 0.64628 0.08153 0.72277
 H2889 H 0.68394 0.05440 0.75752
 H2890 H 0.65187 0.11113 0.71213
 H2891 H 0.66928 0.13735 0.71086
 H2892 H 0.71421 0.10406 0.76031
 H2893 H 0.73017 0.13106 0.76076
 H2894 H 0.68693 0.15850 0.70755
 H2895 H 0.70341 0.18539 0.70992
 H2896 H 0.73467 0.16148 0.75144
 C2897 C 0.83327 0.08557 0.27639
 C2898 C 0.82896 0.09630 0.26146
 C2899 C 0.83233 0.08860 0.24488
 C2900 C 0.83971 0.07108 0.24345
 C2901 C 0.84436 0.06081 0.25830
 C2902 C 0.84086 0.06819 0.27478
 C2903 C 0.82851 0.09842 0.22968
 C2904 C 0.82184 0.11596 0.23042
 C2905 C 0.81857 0.12450 0.24652
 C2906 C 0.82165 0.11438 0.26232
 C2907 C 0.81720 0.12266 0.27838
 C2908 C 0.81005 0.14017 0.27899
 C2909 C 0.80738 0.15035 0.26371
 C2910 C 0.81196 0.14275 0.24728
 C2911 C 0.80984 0.15382 0.23221
 C2912 C 0.80257 0.17121 0.23334
 C2913 C 0.79721 0.17850 0.24948
 C2914 C 0.80001 0.16805 0.26472
 H2915 H 0.83136 0.09033 0.28950
 H2916 H 0.84198 0.06547 0.23061
 H2917 H 0.84449 0.06070 0.28651
 H2918 H 0.83086 0.09251 0.21698
 H2919 H 0.81909 0.12235 0.21800
 H2920 H 0.81881 0.11582 0.29080
 H2921 H 0.80664 0.14582 0.29162
 H2922 H 0.81378 0.14958 0.21927
 H2923 H 0.80106 0.17897 0.22131
 H2924 H 0.79614 0.17353 0.27733
 C2925 C 0.33339 0.58839 0.77423
 C2926 C 0.32853 0.59893 0.75933
 C2927 C 0.33146 0.59106 0.74277
 C2928 C 0.33908 0.57363 0.74131
 C2929 C 0.34424 0.56356 0.75612
 C2930 C 0.34111 0.57107 0.77259
 C2931 C 0.32694 0.60064 0.72761
 C2932 C 0.31989 0.61805 0.72836
 C2933 C 0.31700 0.62676 0.74443
 C2934 C 0.32104 0.61695 0.76022
 C2935 C 0.31743 0.62550 0.77629
 C2936 C 0.31017 0.64296 0.77694
 C2937 C 0.30641 0.65279 0.76168
 C2938 C 0.31000 0.64489 0.74520
 C2939 C 0.30649 0.65556 0.73010
 C2940 C 0.29912 0.67290 0.73132
 C2941 C 0.29500 0.68056 0.74757
 C2942 C 0.29897 0.67046 0.76277
 H2943 H 0.33172 0.59322 0.78733
 H2944 H 0.34108 0.56791 0.72849
 H2945 H 0.34512 0.56372 0.78429
 H2946 H 0.32899 0.59462 0.71493
 H2947 H 0.31667 0.62423 0.71596
 H2948 H 0.31992 0.61897 0.78871
 H2949 H 0.30752 0.64886 0.78960
 H2950 H 0.30934 0.65103 0.71705
 H2951 H 0.29661 0.68035 0.71928
 H2952 H 0.29600 0.67621 0.77545
 C2953 C 0.34968 0.38899 0.76007
 C2954 C 0.33436 0.38572 0.75009
 C2955 C 0.32756 0.39988 0.73924
 C2956 C 0.33513 0.41694 0.73943
 C2957 C 0.35036 0.42010 0.74955
 C2958 C 0.35755 0.40570 0.75964
 C2959 C 0.31337 0.39689 0.72809
 C2960 C 0.30591 0.38010 0.72732
 C2961 C 0.31184 0.36571 0.73826
 C2962 C 0.32576 0.36882 0.75036
 C2963 C 0.33024 0.35515 0.76270
 C2964 C 0.32153 0.33898 0.76317
 C2965 C 0.30847 0.33547 0.75102
 C2966 C 0.30385 0.34850 0.73800
 C2967 C 0.29142 0.34368 0.72528
 C2968 C 0.28324 0.32704 0.72615
 C2969 C 0.28694 0.31480 0.73980
 C2970 C 0.29980 0.31902 0.75204
 H2971 H 0.35623 0.37878 0.76809
 H2972 H 0.32966 0.42745 0.73091
 H2973 H 0.36897 0.40737 0.76794
 H2974 H 0.30810 0.40761 0.71969
 H2975 H 0.29495 0.37897 0.71844
 H2976 H 0.33994 0.35681 0.77272
 H2977 H 0.32512 0.32908 0.77316
 H2978 H 0.28786 0.35242 0.71442
 H2979 H 0.27347 0.32402 0.71644
 H2980 H 0.30301 0.30947 0.76247
 C2981 C 0.84549 0.88778 0.26588
 C2982 C 0.83352 0.88259 0.25292
 C2983 C 0.82979 0.89503 0.23910
 C2984 C 0.83718 0.91218 0.23885
 C2985 C 0.84893 0.91701 0.25187
 C2986 C 0.85306 0.90461 0.26526
 C2987 C 0.81886 0.89022 0.22553
 C2988 C 0.81163 0.87328 0.22522
 C2989 C 0.81464 0.86052 0.23882
 C2990 C 0.82534 0.86547 0.25314
 C2991 C 0.82716 0.85332 0.26743
 C2992 C 0.81892 0.83694 0.26777
 C2993 C 0.80882 0.83173 0.25379
 C2994 C 0.80686 0.84317 0.23889
 C2995 C 0.79711 0.83668 0.22478
 C2996 C 0.78890 0.82004 0.22594
 C2997 C 0.79004 0.80936 0.24118
 C2998 C 0.80037 0.81521 0.25488
 H2999 H 0.84965 0.87902 0.27650
 H3000 H 0.83421 0.92162 0.22826
 H3001 H 0.86224 0.90801 0.27537
 H3002 H 0.81595 0.89962 0.21490
 H3003 H 0.80328 0.87075 0.21431
 H3004 H 0.83442 0.85629 0.27894
 H3005 H 0.82043 0.82824 0.27921
 H3006 H 0.79556 0.84415 0.21269
 H3007 H 0.78112 0.81580 0.21511
 H3008 H 0.80164 0.80692 0.26662
 C3009 C 0.66810 0.90290 0.72540
 C3010 C 0.67318 0.89350 0.74084
 C3011 C 0.66881 0.90177 0.75694
 C3012 C 0.65983 0.91876 0.75738
 C3013 C 0.65465 0.92798 0.74191
 C3014 C 0.65908 0.91963 0.72596
 C3015 C 0.67331 0.89301 0.77260
 C3016 C 0.68206 0.87620 0.77271
 C3017 C 0.68680 0.86736 0.75704
 C3018 C 0.68239 0.87623 0.74083
 C3019 C 0.68738 0.86756 0.72512
 C3020 C 0.69633 0.85092 0.72516
 C3021 C 0.70065 0.84208 0.74078
 C3022 C 0.69591 0.85001 0.75699
 C3023 C 0.70051 0.84014 0.77239
 C3024 C 0.70960 0.82336 0.77159
 C3025 C 0.71446 0.81577 0.75548
 C3026 C 0.70979 0.82527 0.74014
 H3027 H 0.67089 0.89780 0.71255
 H3028 H 0.65623 0.92430 0.76999
 H3029 H 0.65628 0.92621 0.71356
 H3030 H 0.67001 0.89924 0.78500
 H3031 H 0.68503 0.87052 0.78539
 H3032 H 0.68469 0.87330 0.71241
 H3033 H 0.69993 0.84490 0.71273
 H3034 H 0.69729 0.84496 0.78529
 H3035 H 0.71292 0.81635 0.78368
 H3036 H 0.71331 0.81962 0.72753
 C3037 C 0.17827 0.41153 0.22856
 C3038 C 0.17999 0.40051 0.24378
 C3039 C 0.17130 0.40670 0.25940
 C3040 C 0.16139 0.42320 0.25958
 C3041 C 0.15974 0.43384 0.24432
 C3042 C 0.16834 0.42780 0.22889
 C3043 C 0.17243 0.39634 0.27475
 C3044 C 0.18187 0.37988 0.27502
 C3045 C 0.19072 0.37301 0.25984
 C3046 C 0.18988 0.38360 0.24400
 C3047 C 0.19894 0.37690 0.22887
 C3048 C 0.20823 0.36044 0.22904
 C3049 C 0.20897 0.34986 0.24424
 C3050 C 0.20034 0.35591 0.25992
 C3051 C 0.20167 0.34445 0.27492
 C3052 C 0.21098 0.32776 0.27419
 C3053 C 0.21932 0.32186 0.25856
 C3054 C 0.21828 0.33315 0.24369
 H3055 H 0.18433 0.40802 0.21609
 H3056 H 0.15464 0.42760 0.27159
 H3057 H 0.16755 0.43582 0.21695
 H3058 H 0.16584 0.40099 0.28674
 H3059 H 0.18196 0.37282 0.28743
 H3060 H 0.19916 0.38406 0.21652
 H3061 H 0.21489 0.35589 0.21704
 H3062 H 0.19556 0.34788 0.28740
 H3063 H 0.21147 0.31937 0.28590
 H3064 H 0.22468 0.32890 0.23146
 C3065 C 0.07546 0.26661 0.81075
 C3066 C 0.09216 0.26325 0.81919
 C3067 C 0.09148 0.25961 0.83744
 C3068 C 0.07486 0.26035 0.84684
 C3069 C 0.05858 0.26413 0.83831
 C3070 C 0.05895 0.26697 0.82021
 C3071 C 0.10737 0.25524 0.84627
 C3072 C 0.12403 0.25407 0.83735
 C3073 C 0.12551 0.25771 0.81921
 C3074 C 0.10942 0.26313 0.81014
 C3075 C 0.11117 0.26866 0.79244
 C3076 C 0.12797 0.26847 0.78375
 C3077 C 0.14360 0.26232 0.79216
 C3078 C 0.14261 0.25652 0.80990
 C3079 C 0.15878 0.24950 0.81747
 C3080 C 0.17521 0.24874 0.80789
 C3081 C 0.17611 0.25508 0.79057
 C3082 C 0.16025 0.26186 0.78280
 H3083 H 0.07462 0.26867 0.79683
 H3084 H 0.07451 0.25772 0.86083
 H3085 H 0.04643 0.26971 0.81340
 H3086 H 0.10691 0.25254 0.86025
 H3087 H 0.13563 0.25077 0.84520
 H3088 H 0.09983 0.27376 0.78502
 H3089 H 0.12869 0.27301 0.77020
 H3090 H 0.15915 0.24410 0.83062
 H3091 H 0.18729 0.24326 0.81411
 H3092 H 0.16077 0.26645 0.76926
 C3093 C 0.57676 0.76118 0.30935
 C3094 C 0.59332 0.75854 0.31820
 C3095 C 0.59234 0.75580 0.33657
 C3096 C 0.57555 0.75676 0.34566
 C3097 C 0.55943 0.75996 0.33673
 C3098 C 0.56009 0.76182 0.31854
 C3099 C 0.60809 0.75218 0.34585
 C3100 C 0.62493 0.75098 0.33729
 C3101 C 0.62672 0.75382 0.31905
 C3102 C 0.61075 0.75838 0.30946
 C3103 C 0.61276 0.76310 0.29157
 C3104 C 0.62974 0.76297 0.28321
 C3105 C 0.64530 0.75767 0.29217
 C3106 C 0.64404 0.75266 0.31012
 C3107 C 0.66016 0.74644 0.31831
 C3108 C 0.67679 0.74567 0.30909
 C3109 C 0.67794 0.75120 0.29154
 C3110 C 0.66215 0.75722 0.28317
 H3111 H 0.57616 0.76252 0.29535
 H3112 H 0.57498 0.75488 0.35975
 H3113 H 0.54768 0.76411 0.31143
 H3114 H 0.60738 0.75015 0.35992
 H3115 H 0.63640 0.74834 0.34548
 H3116 H 0.60148 0.76753 0.28373
 H3117 H 0.63066 0.76688 0.26950
 H3118 H 0.66036 0.74165 0.33167
 H3119 H 0.68882 0.74078 0.31577
 H3120 H 0.66290 0.76117 0.26945
 C3121 C 0.59254 0.24367 0.19688
 C3122 C 0.60630 0.25598 0.19288
 C3123 C 0.60339 0.26849 0.17895
 C3124 C 0.58744 0.26842 0.16944
 C3125 C 0.57439 0.25561 0.17310
 C3126 C 0.57693 0.24348 0.18708
 C3127 C 0.61665 0.28063 0.17416
 C3128 C 0.63333 0.27992 0.18214
 C3129 C 0.63726 0.26714 0.19548
 C3130 C 0.62314 0.25574 0.20165
 C3131 C 0.62641 0.24430 0.21623
 C3132 C 0.64330 0.24307 0.22373
 C3133 C 0.65762 0.25299 0.21693
 C3134 C 0.65486 0.26527 0.20280
 C3135 C 0.67004 0.27470 0.19622
 C3136 C 0.68712 0.27198 0.20343
 C3137 C 0.68968 0.25980 0.21739
 C3138 C 0.67478 0.25047 0.22414
 H3139 H 0.59372 0.23345 0.20696
 H3140 H 0.58543 0.27803 0.15879
 H3141 H 0.56717 0.23326 0.19002
 H3142 H 0.61434 0.29044 0.16374
 H3143 H 0.64286 0.28969 0.17757
 H3144 H 0.61613 0.23616 0.22229
 H3145 H 0.64527 0.23393 0.23477
 H3146 H 0.66934 0.28393 0.18524
 H3147 H 0.69840 0.27935 0.19790
 H3148 H 0.67653 0.24103 0.23497
 C3149 C 0.09173 0.74513 0.69845
 C3150 C 0.10503 0.75796 0.69460
 C3151 C 0.10198 0.77014 0.68043
 C3152 C 0.08641 0.76919 0.67049
 C3153 C 0.07391 0.75582 0.67395
 C3154 C 0.07650 0.74407 0.68821
 C3155 C 0.11477 0.78282 0.67582
 C3156 C 0.13123 0.78288 0.68413
 C3157 C 0.13540 0.77034 0.69761
 C3158 C 0.12162 0.75850 0.70370
 C3159 C 0.12504 0.74738 0.71847
 C3160 C 0.14186 0.74671 0.72612
 C3161 C 0.15596 0.75691 0.71928
 C3162 C 0.15296 0.76903 0.70506
 C3163 C 0.16791 0.77875 0.69843
 C3164 C 0.18508 0.77627 0.70550
 C3165 C 0.18794 0.76410 0.71941
 C3166 C 0.17321 0.75470 0.72640
 H3167 H 0.09306 0.73513 0.70872
 H3168 H 0.08432 0.77854 0.65963
 H3169 H 0.06712 0.73349 0.69103
 H3170 H 0.11230 0.79243 0.66526
 H3171 H 0.14044 0.79299 0.67967
 H3172 H 0.11493 0.73900 0.72451
 H3173 H 0.14400 0.73773 0.73725
 H3174 H 0.16700 0.78793 0.68742
 H3175 H 0.19621 0.78375 0.69982
 H3176 H 0.17519 0.74527 0.73722
 C3177 C 0.92130 0.75519 0.68723
 C3178 C 0.90680 0.74440 0.68294
 C3179 C 0.90986 0.73226 0.66916
 C3180 C 0.92672 0.73118 0.66010
 C3181 C 0.94091 0.74236 0.66419
 C3182 C 0.93788 0.75420 0.67804
 C3183 C 0.89598 0.72143 0.66423
 C3184 C 0.87894 0.72255 0.67246
 C3185 C 0.87508 0.73457 0.68613
 C3186 C 0.88936 0.74543 0.69168
 C3187 C 0.88572 0.75702 0.70574
 C3188 C 0.86872 0.75825 0.71392
 C3189 C 0.85460 0.74810 0.70843
 C3190 C 0.85744 0.73611 0.69447
 C3191 C 0.84241 0.72630 0.68944
 C3192 C 0.82549 0.72824 0.69809
 C3193 C 0.82294 0.74002 0.71195
 C3194 C 0.83759 0.74994 0.71697
 H3195 H 0.92038 0.76471 0.69756
 H3196 H 0.92827 0.72225 0.64920
 H3197 H 0.94853 0.76249 0.68235
 H3198 H 0.89826 0.71204 0.65374
 H3199 H 0.86908 0.71369 0.66778
 H3200 H 0.89575 0.76537 0.71093
 H3201 H 0.86659 0.76736 0.72465
 H3202 H 0.84317 0.71708 0.67885
 H3203 H 0.81439 0.72045 0.69386
 H3204 H 0.83585 0.75912 0.72768
 C3205 C 0.42391 0.24744 0.19422
 C3206 C 0.40831 0.23926 0.18816
 C3207 C 0.40992 0.23046 0.17195
 C3208 C 0.42642 0.23015 0.16227
 C3209 C 0.44146 0.23882 0.16828
 C3210 C 0.44013 0.24723 0.18439
 C3211 C 0.39498 0.22235 0.16525
 C3212 C 0.37818 0.22328 0.17395
 C3213 C 0.37566 0.23233 0.18985
 C3214 C 0.39111 0.23995 0.19735
 C3215 C 0.38882 0.24820 0.21370
 C3216 C 0.37193 0.24974 0.22207
 C3217 C 0.35663 0.24314 0.21457
 C3218 C 0.35818 0.23418 0.19847
 C3219 C 0.34207 0.22776 0.19156
 C3220 C 0.32526 0.23033 0.20025
 C3221 C 0.32390 0.23940 0.21603
 C3222 C 0.33969 0.24564 0.22315
 H3223 H 0.42404 0.25448 0.20629
 H3224 H 0.42736 0.22375 0.14971
 H3225 H 0.45171 0.25381 0.18937
 H3226 H 0.39620 0.21545 0.15296
 H3227 H 0.36739 0.21673 0.16776
 H3228 H 0.39984 0.25368 0.22049
 H3229 H 0.37081 0.25637 0.23451
 H3230 H 0.34186 0.22092 0.17937
 H3231 H 0.31325 0.22537 0.19443
 H3232 H 0.33886 0.25255 0.23545
 C3233 C 0.38843 0.79079 0.33668
 C3234 C 0.38670 0.78135 0.32103
 C3235 C 0.40235 0.77191 0.31427
 C3236 C 0.41876 0.77173 0.32305
 C3237 C 0.41999 0.78055 0.33883
 C3238 C 0.40480 0.79030 0.34542
 C3239 C 0.40147 0.76223 0.29905
 C3240 C 0.38514 0.76083 0.29078
 C3241 C 0.36894 0.76920 0.29742
 C3242 C 0.36991 0.78035 0.31227
 C3243 C 0.35400 0.78990 0.31800
 C3244 C 0.33750 0.78785 0.31018
 C3245 C 0.33610 0.77609 0.29650
 C3246 C 0.35178 0.76667 0.28980
 C3247 C 0.34948 0.75469 0.27607
 C3248 C 0.33239 0.75226 0.26937
 C3249 C 0.31699 0.76156 0.27612
 C3250 C 0.31899 0.77357 0.28962
 H3251 H 0.37730 0.79823 0.34285
 H3252 H 0.43039 0.76392 0.31799
 H3253 H 0.40551 0.79738 0.35753
 H3254 H 0.41350 0.75528 0.29367
 H3255 H 0.38572 0.75305 0.27913
 H3256 H 0.35382 0.79919 0.32853
 H3257 H 0.32560 0.79531 0.31514
 H3258 H 0.36049 0.74667 0.27041
 H3259 H 0.33124 0.74285 0.25897
 H3260 H 0.30718 0.78097 0.29488
 C3261 C 0.88613 0.28495 0.84133
 C3262 C 0.88533 0.27570 0.82545
 C3263 C 0.90172 0.26770 0.81859
 C3264 C 0.91801 0.26884 0.82737
 C3265 C 0.91842 0.27756 0.84328
 C3266 C 0.90243 0.28576 0.85009
 C3267 C 0.90179 0.25818 0.80320
 C3268 C 0.88577 0.25566 0.79476
 C3269 C 0.86894 0.26271 0.80136
 C3270 C 0.86882 0.27361 0.81647
 C3271 C 0.85221 0.28196 0.82211
 C3272 C 0.83614 0.27923 0.81371
 C3273 C 0.83589 0.26784 0.79960
 C3274 C 0.85223 0.25931 0.79326
 C3275 C 0.85109 0.24739 0.77930
 C3276 C 0.83454 0.24451 0.77172
 C3277 C 0.81851 0.25329 0.77778
 C3278 C 0.81930 0.26490 0.79180
 H3279 H 0.87437 0.29124 0.84764
 H3280 H 0.93028 0.26216 0.82218
 H3281 H 0.90248 0.29264 0.86237
 H3282 H 0.91436 0.25231 0.79777
 H3283 H 0.88711 0.24822 0.78291
 H3284 H 0.85115 0.29093 0.83290
 H3285 H 0.82371 0.28593 0.81849
 H3286 H 0.86264 0.23978 0.77408
 H3287 H 0.83436 0.23532 0.76102
 H3288 H 0.80699 0.27174 0.79668
 C3289 C 0.53656 1.00649 0.66620
 C3290 C 0.54195 1.01757 0.65183
 C3291 C 0.55830 1.02683 0.65321
 C3292 C 0.56869 1.02493 0.66826
 C3293 C 0.56344 1.01351 0.68215
 C3294 C 0.54716 1.00451 0.68102
 C3295 C 0.56444 1.03772 0.63942
 C3296 C 0.55534 1.03887 0.62382
 C3297 C 0.53950 1.02924 0.62142
 C3298 C 0.53210 1.01926 0.63596
 C3299 C 0.51525 1.01117 0.63406
 C3300 C 0.50656 1.01173 0.61817
 C3301 C 0.51444 1.02001 0.60345
 C3302 C 0.53097 1.02901 0.60487
 C3303 C 0.53882 1.03655 0.58940
 C3304 C 0.53104 1.03447 0.57325
 C3305 C 0.51497 1.02528 0.57192
 C3306 C 0.50635 1.01860 0.58712
 H3307 H 0.52456 0.99868 0.66618
 H3308 H 0.58107 1.03224 0.66907
 H3309 H 0.54285 0.99543 0.69143
 H3310 H 0.57672 1.04514 0.64053
 H3311 H 0.56105 1.04758 0.61386
 H3312 H 0.50834 1.00429 0.64469
 H3313 H 0.49381 1.00505 0.61727
 H3314 H 0.55151 1.04330 0.58913
 H3315 H 0.53797 1.03960 0.56159
 H3316 H 0.49407 1.01117 0.58607
 C3317 C 0.04051 0.51353 1.16480
 C3318 C 0.04816 0.52119 1.14933
 C3319 C 0.06619 0.52703 1.15003
 C3320 C 0.07611 0.52486 1.16537
 C3321 C 0.06872 0.51665 1.18071
 C3322 C 0.05048 0.51140 1.18004
 C3323 C 0.07442 0.53500 1.13533
 C3324 C 0.06555 0.53650 1.11963
 C3325 C 0.04792 0.53004 1.11791
 C3326 C 0.03878 0.52288 1.13316
 C3327 C 0.02072 0.51744 1.13161
 C3328 C 0.01226 0.51797 1.11560
 C3329 C 0.02143 0.52376 1.10041
 C3330 C 0.03931 0.53013 1.10136
 C3331 C 0.04816 0.53552 1.08553
 C3332 C 0.04005 0.53361 1.06951
 C3333 C 0.02272 0.52670 1.06860
 C3334 C 0.01315 0.52242 1.08414
 H3335 H 0.02695 0.50858 1.16550
 H3336 H 0.08948 0.53040 1.16526
 H3337 H 0.04385 0.50452 1.19089
 H3338 H 0.08808 0.53987 1.13585
 H3339 H 0.07302 0.54280 1.10902
 H3340 H 0.01272 0.51251 1.14258
 H3341 H -0.00147 0.51328 1.11503
 H3342 H 0.06170 0.54048 1.08488
 H3343 H 0.04768 0.53699 1.05763
 H3344 H -0.00020 0.51683 1.08350
 C3345 C -0.07446 0.00891 1.15216
 C3346 C -0.05681 0.00230 1.14747
 C3347 C -0.04721 -0.00815 1.16007
 C3348 C -0.05483 -0.01097 1.17702
 C3349 C -0.07257 -0.00442 1.18147
 C3350 C -0.08212 0.00555 1.16867
 C3351 C -0.03025 -0.01604 1.15553
 C3352 C -0.02289 -0.01426 1.13861
 C3353 C -0.03194 -0.00388 1.12565
 C3354 C -0.04870 0.00529 1.13051
 C3355 C -0.05678 0.01731 1.11831
 C3356 C -0.04956 0.01937 1.10154
 C3357 C -0.03410 0.00945 1.09614
 C3358 C -0.02489 -0.00225 1.10802
 C3359 C -0.00935 -0.01209 1.10150
 C3360 C -0.00362 -0.01058 1.08387
 C3361 C -0.01310 0.00084 1.07224
 C3362 C -0.02808 0.01106 1.07870
 H3363 H -0.08304 0.01635 1.14321
 H3364 H -0.04725 -0.01918 1.18632
 H3365 H -0.09550 0.01150 1.17146
 H3366 H -0.02275 -0.02405 1.16507
 H3367 H -0.00988 -0.02095 1.13612
 H3368 H -0.06862 0.02567 1.12141
 H3369 H -0.05639 0.02863 1.09258
 H3370 H -0.00169 -0.02147 1.10954
 H3371 H 0.00796 -0.01870 1.07927
 H3372 H -0.03551 0.02011 1.06998
 C3373 C 0.43273 0.51593 0.65410
 C3374 C 0.44779 0.50538 0.64777
 C3375 C 0.45477 0.49149 0.65889
 C3376 C 0.44694 0.48856 0.67572
 C3377 C 0.43176 0.49893 0.68149
 C3378 C 0.42489 0.51266 0.67058
 C3379 C 0.46921 0.48035 0.65300
 C3380 C 0.47650 0.48224 0.63609
 C3381 C 0.46984 0.49565 0.62440
 C3382 C 0.45571 0.50783 0.63060
 C3383 C 0.44985 0.52201 0.61940
 C3384 C 0.45656 0.52360 0.60239
 C3385 C 0.46944 0.51124 0.59578
 C3386 C 0.47660 0.49725 0.60665
 C3387 C 0.48986 0.48526 0.59904
 C3388 C 0.49514 0.48685 0.58132
 C3389 C 0.48739 0.50036 0.57064
 C3390 C 0.47488 0.51271 0.57815
 H3391 H 0.42624 0.52651 0.64652
 H3392 H 0.45222 0.47779 0.68407
 H3393 H 0.41324 0.52091 0.67482
 H3394 H 0.47469 0.46977 0.66144
 H3395 H 0.48743 0.47292 0.63255
 H3396 H 0.44002 0.53225 0.62335
 H3397 H 0.45135 0.53454 0.59420
 H3398 H 0.49608 0.47426 0.60629
 H3399 H 0.50485 0.47711 0.57585
 H3400 H 0.46899 0.52343 0.57011
 C3401 C 0.41848 0.50190 -0.14747
 C3402 C 0.43680 0.50566 -0.14432
 C3403 C 0.44914 0.50632 -0.15890
 C3404 C 0.44308 0.50375 -0.17592
 C3405 C 0.42488 0.49991 -0.17867
 C3406 C 0.41273 0.49908 -0.16430
 C3407 C 0.46750 0.50924 -0.15635
 C3408 C 0.47404 0.51095 -0.13962
 C3409 C 0.46234 0.51022 -0.12467
 C3410 C 0.44330 0.50826 -0.12717
 C3411 C 0.43133 0.50893 -0.11244
 C3412 C 0.43774 0.51014 -0.09574
 C3413 C 0.45631 0.51076 -0.09295
 C3414 C 0.46896 0.51117 -0.10727
 C3415 C 0.48768 0.51199 -0.10340
 C3416 C 0.49344 0.51157 -0.08608
 C3417 C 0.48077 0.51033 -0.07212
 C3418 C 0.46222 0.51051 -0.07576
 H3419 H 0.40825 0.50060 -0.13723
 H3420 H 0.45262 0.50425 -0.18698
 H3421 H 0.39857 0.49629 -0.16608
 H3422 H 0.47702 0.50985 -0.16742
 H3423 H 0.48841 0.51293 -0.13883
 H3424 H 0.41677 0.50863 -0.11331
 H3425 H 0.42801 0.51023 -0.08481
 H3426 H 0.49825 0.51241 -0.11344
 H3427 H 0.50786 0.51148 -0.08362
 H3428 H 0.45222 0.50990 -0.06507
 C3429 C -0.08238 0.99927 0.35303
 C3430 C -0.06429 1.00360 0.35645
 C3431 C -0.05164 1.00425 0.34212
 C3432 C -0.05724 1.00119 0.32502
 C3433 C -0.07524 0.99684 0.32199
 C3434 C -0.08766 0.99595 0.33615
 C3435 C -0.03345 1.00764 0.34498
 C3436 C -0.02736 1.00985 0.36181
 C3437 C -0.03939 1.00920 0.37652
 C3438 C -0.05829 1.00678 0.37367
 C3439 C -0.07063 1.00761 0.38812
 C3440 C -0.06467 1.00935 0.40492
 C3441 C -0.04622 1.01035 0.40809
 C3442 C -0.03323 1.01066 0.39404
 C3443 C -0.01466 1.01187 0.39829
 C3444 C -0.00934 1.01187 0.41574
 C3445 C -0.02231 1.01070 0.42945
 C3446 C -0.04074 1.01055 0.42542
 H3447 H -0.09277 0.99787 0.36311
 H3448 H -0.04749 1.00174 0.31413
 H3449 H -0.10168 0.99277 0.33415
 H3450 H -0.02370 1.00824 0.33410
 H3451 H -0.01308 1.01217 0.36286
 H3452 H -0.08513 1.00706 0.38692
 H3453 H -0.07466 1.00953 0.41563
 H3454 H -0.00387 1.01223 0.38848
 H3455 H 0.00501 1.01202 0.41849
 H3456 H -0.05097 1.00997 0.43590
 C3457 C 0.08421 0.49747 0.34876
 C3458 C 0.06608 0.49284 0.35298
 C3459 C 0.05405 0.49139 0.33901
 C3460 C 0.06026 0.49394 0.32156
 C3461 C 0.07829 0.49853 0.31771
 C3462 C 0.09010 0.50026 0.33149
 C3463 C 0.03584 0.48763 0.34257
 C3464 C 0.02914 0.48575 0.35969
 C3465 C 0.04054 0.48714 0.37406
 C3466 C 0.05947 0.49005 0.37058
 C3467 C 0.07122 0.49001 0.38480
 C3468 C 0.06465 0.48837 0.40186
 C3469 C 0.04612 0.48676 0.40555
 C3470 C 0.03373 0.48586 0.39182
 C3471 C 0.01505 0.48421 0.39658
 C3472 C 0.00903 0.48418 0.41415
 C3473 C 0.02140 0.48571 0.42755
 C3474 C 0.03998 0.48647 0.42304
 H3475 H 0.09416 0.49946 0.35847
 H3476 H 0.05096 0.49277 0.31097
 H3477 H 0.10413 0.50365 0.32888
 H3478 H 0.02656 0.48642 0.33198
 H3479 H 0.01490 0.48305 0.36125
 H3480 H 0.08573 0.49107 0.38322
 H3481 H 0.07420 0.48870 0.41234
 H3482 H 0.00466 0.48348 0.38705
 H3483 H -0.00540 0.48357 0.41721
 H3484 H 0.04980 0.48741 0.43322
 C3485 C 0.58308 -0.00584 -0.15101
 C3486 C 0.56471 -0.00962 -0.14688
 C3487 C 0.55261 -0.01038 -0.16088
 C3488 C 0.55901 -0.00812 -0.17830
 C3489 C 0.57731 -0.00445 -0.18207
 C3490 C 0.58917 -0.00330 -0.16825
 C3491 C 0.53417 -0.01314 -0.15739
 C3492 C 0.52733 -0.01466 -0.14028
 C3493 C 0.53880 -0.01397 -0.12588
 C3494 C 0.55792 -0.01218 -0.12932
 C3495 C 0.56968 -0.01310 -0.11510
 C3496 C 0.56301 -0.01443 -0.09806
 C3497 C 0.54437 -0.01483 -0.09440
 C3498 C 0.53191 -0.01487 -0.10814
 C3499 C 0.51310 -0.01531 -0.10340
 C3500 C 0.50710 -0.01493 -0.08582
 C3501 C 0.51960 -0.01419 -0.07245
 C3502 C 0.53822 -0.01472 -0.07694
 H3503 H 0.59308 -0.00432 -0.14124
 H3504 H 0.54969 -0.00880 -0.18893
 H3505 H 0.60337 -0.00056 -0.17081
 H3506 H 0.52484 -0.01381 -0.16801
 H3507 H 0.51292 -0.01657 -0.13875
 H3508 H 0.58427 -0.01301 -0.11667
 H3509 H 0.57259 -0.01478 -0.08757
 H3510 H 0.50266 -0.01533 -0.11295
 H3511 H 0.49262 -0.01453 -0.08275
 H3512 H 0.54812 -0.01446 -0.06675
 C3513 C 0.65796 0.56922 0.01318
 C3514 C 0.64658 0.56849 -0.00135
 C3515 C 0.65119 0.57899 -0.01640
 C3516 C 0.66669 0.58958 -0.01675
 C3517 C 0.67753 0.59035 -0.00205
 C3518 C 0.67304 0.57999 0.01279
 C3519 C 0.64011 0.57915 -0.03088
 C3520 C 0.62426 0.56953 -0.03065
 C3521 C 0.61892 0.55904 -0.01593
 C3522 C 0.63060 0.55808 -0.00126
 C3523 C 0.62590 0.54676 0.01306
 C3524 C 0.61001 0.53738 0.01348
 C3525 C 0.59805 0.53884 -0.00026
 C3526 C 0.60228 0.54952 -0.01527
 C3527 C 0.58942 0.55042 -0.02876
 C3528 C 0.57305 0.54139 -0.02712
 C3529 C 0.56890 0.53114 -0.01206
 C3530 C 0.58170 0.52977 0.00116
 H3531 H 0.65543 0.56200 0.02528
 H3532 H 0.66995 0.59771 -0.02825
 H3533 H 0.68126 0.58026 0.02427
 H3534 H 0.64358 0.58706 -0.04247
 H3535 H 0.61648 0.57054 -0.04233
 H3536 H 0.63429 0.54471 0.02424
 H3537 H 0.60693 0.52903 0.02488
 H3538 H 0.59140 0.55827 -0.04058
 H3539 H 0.56345 0.54278 -0.03755
 H3540 H 0.57883 0.52182 0.01287
 C3541 C 0.15270 1.07092 0.51750
 C3542 C 0.14232 1.06898 0.50243
 C3543 C 0.14787 1.07831 0.48694
 C3544 C 0.16342 1.08878 0.48665
 C3545 C 0.17332 1.09069 0.50181
 C3546 C 0.16782 1.08163 0.51714
 C3547 C 0.13766 1.07743 0.47195
 C3548 C 0.12173 1.06794 0.47206
 C3549 C 0.11551 1.05855 0.48717
 C3550 C 0.12639 1.05853 0.50238
 C3551 C 0.12102 1.04803 0.51706
 C3552 C 0.10515 1.03862 0.51729
 C3553 C 0.09386 1.03932 0.50301
 C3554 C 0.09880 1.04916 0.48766
 C3555 C 0.08654 1.04943 0.47368
 C3556 C 0.07007 1.04056 0.47513
 C3557 C 0.06526 1.03106 0.49048
 C3558 C 0.07747 1.03035 0.50422
 H3559 H 0.14927 1.06479 0.52996
 H3560 H 0.16746 1.09598 0.47479
 H3561 H 0.17526 1.08291 0.52901
 H3562 H 0.14185 1.08445 0.46003
 H3563 H 0.11463 1.06809 0.45996
 H3564 H 0.12891 1.04658 0.52864
 H3565 H 0.10154 1.03088 0.52896
 H3566 H 0.08905 1.05673 0.46161
 H3567 H 0.06093 1.04145 0.46431
 H3568 H 0.07408 1.02302 0.51620
 C3569 C 0.16685 -0.06683 0.98061
 C3570 C 0.15221 -0.07055 0.99237
 C3571 C 0.15447 -0.08538 1.00404
 C3572 C 0.17041 -0.09641 1.00327
 C3573 C 0.18488 -0.09271 0.99136
 C3574 C 0.18277 -0.07760 0.98020
 C3575 C 0.14084 -0.08910 1.01654
 C3576 C 0.12497 -0.07844 1.01776
 C3577 C 0.12183 -0.06376 1.00618
 C3578 C 0.13550 -0.06002 0.99300
 C3579 C 0.13184 -0.04619 0.98059
 C3580 C 0.11547 -0.03638 0.98096
 C3581 C 0.10218 -0.03961 0.99388
 C3582 C 0.10526 -0.05300 1.00698
 C3583 C 0.09151 -0.05504 1.02021
 C3584 C 0.07513 -0.04485 1.01983
 C3585 C 0.07186 -0.03240 1.00625
 C3586 C 0.08563 -0.02965 0.99352
 H3587 H 0.16660 -0.05556 0.97160
 H3588 H 0.17175 -0.10741 1.01265
 H3589 H 0.19312 -0.07427 0.97045
 H3590 H 0.14247 -0.10040 1.02556
 H3591 H 0.11514 -0.08240 1.02769
 H3592 H 0.14115 -0.04291 0.96999
 H3593 H 0.11317 -0.02613 0.97093
 H3594 H 0.09297 -0.06438 1.03104
 H3595 H 0.06477 -0.04716 1.02990
 H3596 H 0.08338 -0.01981 0.98310
 C3597 C 0.65931 0.42230 0.47271
 C3598 C 0.64949 0.42731 0.48809
 C3599 C 0.65705 0.42201 0.50426
 C3600 C 0.67385 0.41234 0.50482
 C3601 C 0.68362 0.40736 0.48940
 C3602 C 0.67588 0.41261 0.47338
 C3603 C 0.64781 0.42634 0.51987
 C3604 C 0.63105 0.43557 0.51985
 C3605 C 0.62282 0.44111 0.50411
 C3606 C 0.63239 0.43721 0.48797
 C3607 C 0.62459 0.44342 0.47223
 C3608 C 0.60792 0.45271 0.47215
 C3609 C 0.59821 0.45617 0.48767
 C3610 C 0.60541 0.45048 0.50391
 C3611 C 0.59470 0.45430 0.51920
 C3612 C 0.57767 0.46328 0.51826
 C3613 C 0.57069 0.46884 0.50212
 C3614 C 0.58120 0.46526 0.48691
 H3615 H 0.65443 0.42527 0.45982
 H3616 H 0.67942 0.40929 0.51750
 H3617 H 0.68206 0.40861 0.46104
 H3618 H 0.65354 0.42240 0.53231
 H3619 H 0.62492 0.43828 0.53249
 H3620 H 0.63109 0.44149 0.45961
 H3621 H 0.60252 0.45715 0.45970
 H3622 H 0.59895 0.45034 0.53210
 H3623 H 0.56991 0.46575 0.53026
 H3624 H 0.57606 0.46939 0.47426
 C3625 C -0.14513 0.40814 0.47007
 C3626 C -0.14336 0.42541 0.47683
 C3627 C -0.15885 0.43342 0.48542
 C3628 C -0.17542 0.42459 0.48670
 C3629 C -0.17692 0.40744 0.47995
 C3630 C -0.16154 0.39937 0.47169
 C3631 C -0.15770 0.45014 0.49288
 C3632 C -0.14134 0.45884 0.49265
 C3633 C -0.12541 0.45130 0.48458
 C3634 C -0.12667 0.43474 0.47579
 C3635 C -0.11124 0.42813 0.46622
 C3636 C -0.09486 0.43681 0.46601
 C3637 C -0.09302 0.45224 0.47558
 C3638 C -0.10825 0.45972 0.48503
 C3639 C -0.10545 0.47496 0.49510
 C3640 C -0.08825 0.48208 0.49601
 C3641 C -0.07328 0.47459 0.48671
 C3642 C -0.07586 0.45990 0.47617
 H3643 H -0.13393 0.40075 0.46393
 H3644 H -0.18717 0.43112 0.49302
 H3645 H -0.16201 0.38595 0.46677
 H3646 H -0.16953 0.45646 0.49928
 H3647 H -0.14170 0.47169 0.49872
 H3648 H -0.11142 0.41629 0.45851
 H3649 H -0.08335 0.43113 0.45859
 H3650 H -0.11607 0.48127 0.50303
 H3651 H -0.08659 0.49340 0.50432
 H3652 H -0.06427 0.45381 0.46916
 C3653 C 0.35212 -0.08790 -0.03163
 C3654 C 0.35630 -0.07459 -0.01966
 C3655 C 0.34338 -0.07094 -0.00595
 C3656 C 0.32739 -0.08062 -0.00411
 C3657 C 0.32365 -0.09393 -0.01589
 C3658 C 0.33608 -0.09732 -0.02975
 C3659 C 0.34646 -0.05769 0.00595
 C3660 C 0.36217 -0.04799 0.00476
 C3661 C 0.37570 -0.05127 -0.00838
 C3662 C 0.37281 -0.06489 -0.02073
 C3663 C 0.38669 -0.06862 -0.03343
 C3664 C 0.40295 -0.05968 -0.03387
 C3665 C 0.40603 -0.04646 -0.02189
 C3666 C 0.39228 -0.04174 -0.00924
 C3667 C 0.39588 -0.02784 0.00223
 C3668 C 0.41274 -0.01995 0.00193
 C3669 C 0.42665 -0.02532 -0.00992
 C3670 C 0.42300 -0.03824 -0.02219
 H3671 H 0.36090 -0.09138 -0.04262
 H3672 H 0.31769 -0.07767 0.00648
 H3673 H 0.33354 -0.10756 -0.03904
 H3674 H 0.33661 -0.05481 0.01643
 H3675 H 0.36342 -0.03823 0.01469
 H3676 H 0.38562 -0.07874 -0.04306
 H3677 H 0.41333 -0.06331 -0.04363
 H3678 H 0.38606 -0.02281 0.01177
 H3679 H 0.41500 -0.00974 0.01135
 H3680 H 0.43362 -0.04249 -0.03148
 C3681 C 0.34441 1.10185 0.52180
 C3682 C 0.34724 1.08339 0.51852
 C3683 C 0.33248 1.07421 0.51191
 C3684 C 0.31555 1.08313 0.50927
 C3685 C 0.31292 1.10136 0.51285
 C3686 C 0.32760 1.11059 0.51899
 C3687 C 0.33466 1.05616 0.50793
 C3688 C 0.35133 1.04707 0.50981
 C3689 C 0.36656 1.05563 0.51605
 C3690 C 0.36426 1.07387 0.52119
 C3691 C 0.37903 1.08192 0.52890
 C3692 C 0.39575 1.07287 0.53064
 C3693 C 0.39861 1.05555 0.52454
 C3694 C 0.38405 1.04662 0.51721
 C3695 C 0.38786 1.02929 0.51067
 C3696 C 0.40542 1.02159 0.51078
 C3697 C 0.41978 1.03061 0.51773
 C3698 C 0.41617 1.04738 0.52510
 H3699 H 0.35500 1.11006 0.52619
 H3700 H 0.30432 1.07576 0.50462
 H3701 H 0.32619 1.12478 0.52144
 H3702 H 0.32339 1.04899 0.50307
 H3703 H 0.35173 1.03317 0.50644
 H3704 H 0.37806 1.09526 0.53392
 H3705 H 0.40673 1.07971 0.53645
 H3706 H 0.37779 1.02161 0.50462
 H3707 H 0.40792 1.00865 0.50492
 H3708 H 0.42730 1.05458 0.53020
 C3709 C -0.14831 0.60262 1.00606
 C3710 C -0.14591 0.58433 1.01083
 C3711 C -0.16165 0.57400 1.01247
 C3712 C -0.17911 0.58210 1.01066
 C3713 C -0.18134 0.60043 1.00638
 C3714 C -0.16564 0.61040 1.00374
 C3715 C -0.15987 0.55561 1.01586
 C3716 C -0.14279 0.54712 1.01704
 C3717 C -0.12671 0.55686 1.01557
 C3718 C -0.12839 0.57589 1.01349
 C3719 C -0.11256 0.58589 1.01448
 C3720 C -0.09553 0.57754 1.01646
 C3721 C -0.09348 0.55892 1.01690
 C3722 C -0.10900 0.54827 1.01626
 C3723 C -0.10606 0.52947 1.01553
 C3724 C -0.08845 0.52174 1.01510
 C3725 C -0.07329 0.53237 1.01601
 C3726 C -0.07588 0.55091 1.01732
 H3727 H -0.13701 0.61115 1.00345
 H3728 H -0.19095 0.57407 1.01277
 H3729 H -0.16663 0.62434 0.99964
 H3730 H -0.17183 0.54760 1.01726
 H3731 H -0.14260 0.53289 1.01964
 H3732 H -0.11298 0.60031 1.01423
 H3733 H -0.08376 0.58577 1.01714
 H3734 H -0.11701 0.52045 1.01434
 H3735 H -0.08663 0.50740 1.01371
 H3736 H -0.06409 0.55919 1.01751
 C3737 C 0.03495 0.63998 0.58912
 C3738 C 0.03026 0.63781 0.57152
 C3739 C 0.02541 0.65341 0.56157
 C3740 C 0.02492 0.67026 0.56913
 C3741 C 0.02863 0.67200 0.58678
 C3742 C 0.03407 0.65682 0.59659
 C3743 C 0.02047 0.65212 0.54427
 C3744 C 0.01887 0.63555 0.53691
 C3745 C 0.02233 0.61958 0.54661
 C3746 C 0.02933 0.62072 0.56374
 C3747 C 0.03485 0.60473 0.57257
 C3748 C 0.03240 0.58814 0.56544
 C3749 C 0.02402 0.58681 0.54948
 C3750 C 0.01888 0.60250 0.53981
 C3751 C 0.00976 0.60045 0.52404
 C3752 C 0.00606 0.58356 0.51815
 C3753 C 0.01129 0.56810 0.52768
 C3754 C 0.02044 0.56984 0.54329
 H3755 H 0.03855 0.62889 0.59772
 H3756 H 0.02102 0.68204 0.56139
 H3757 H 0.03688 0.65785 0.61032
 H3758 H 0.01724 0.66404 0.53648
 H3759 H 0.01494 0.63574 0.52348
 H3760 H 0.04125 0.60457 0.58503
 H3761 H 0.03666 0.57620 0.57276
 H3762 H 0.00477 0.61160 0.51618
 H3763 H -0.00107 0.58270 0.50605
 H3764 H 0.02455 0.55799 0.55082
 C3765 C 0.53539 0.14130 0.08879
 C3766 C 0.53029 0.13923 0.07129
 C3767 C 0.52474 0.15482 0.06166
 C3768 C 0.52398 0.17156 0.06944
 C3769 C 0.52812 0.17319 0.08700
 C3770 C 0.53425 0.15803 0.09648
 C3771 C 0.51937 0.15361 0.04448
 C3772 C 0.51803 0.13709 0.03696
 C3773 C 0.52220 0.12108 0.04638
 C3774 C 0.52962 0.12220 0.06333
 C3775 C 0.53580 0.10626 0.07183
 C3776 C 0.53357 0.08968 0.06460
 C3777 C 0.52478 0.08832 0.04886
 C3778 C 0.51901 0.10398 0.03947
 C3779 C 0.50956 0.10186 0.02390
 C3780 C 0.50605 0.08494 0.01797
 C3781 C 0.51184 0.06952 0.02726
 C3782 C 0.52141 0.07133 0.04262
 H3783 H 0.53953 0.13020 0.09715
 H3784 H 0.51955 0.18334 0.06195
 H3785 H 0.53741 0.15897 0.11014
 H3786 H 0.51559 0.16554 0.03693
 H3787 H 0.51371 0.13733 0.02365
 H3788 H 0.54255 0.10612 0.08411
 H3789 H 0.53832 0.07776 0.07168
 H3790 H 0.50413 0.11297 0.01625
 H3791 H 0.49861 0.08401 0.00606
 H3792 H 0.52596 0.05950 0.04996
 C3793 C -0.00022 0.17097 0.94170
 C3794 C -0.00557 0.15524 0.93365
 C3795 C -0.01345 0.15706 0.91701
 C3796 C -0.01502 0.17387 0.90856
 C3797 C -0.00898 0.18913 0.91650
 C3798 C -0.00187 0.18755 0.93320
 C3799 C -0.01962 0.14210 0.90882
 C3800 C -0.01823 0.12528 0.91678
 C3801 C -0.01025 0.12268 0.93323
 C3802 C -0.00341 0.13786 0.94159
 C3803 C 0.00570 0.13514 0.95743
 C3804 C 0.00771 0.11830 0.96511
 C3805 C 0.00062 0.10350 0.95747
 C3806 C -0.00859 0.10537 0.94150
 C3807 C -0.01583 0.08981 0.93463
 C3808 C -0.01380 0.07322 0.94322
 C3809 C -0.00447 0.07155 0.95886
 C3810 C 0.00271 0.08678 0.96585
 H3811 H 0.00507 0.17105 0.95464
 H3812 H -0.02059 0.17502 0.89562
 H3813 H 0.00235 0.19927 0.93983
 H3814 H -0.02565 0.14342 0.89609
 H3815 H -0.02326 0.11448 0.90948
 H3816 H 0.01186 0.14572 0.96415
 H3817 H 0.01488 0.11687 0.97726
 H3818 H -0.02337 0.08999 0.92279
 H3819 H -0.01958 0.06166 0.93755
 H3820 H 0.00981 0.08573 0.97806
 C3821 C 0.49466 0.67229 0.44218
 C3822 C 0.48927 0.65658 0.43411
 C3823 C 0.48185 0.65842 0.41726
 C3824 C 0.48077 0.67518 0.40867
 C3825 C 0.48694 0.69038 0.41661
 C3826 C 0.49357 0.68883 0.43351
 C3827 C 0.47577 0.64350 0.40895
 C3828 C 0.47700 0.62665 0.41689
 C3829 C 0.48467 0.62399 0.43347
 C3830 C 0.49110 0.63920 0.44213
 C3831 C 0.49956 0.63647 0.45832
 C3832 C 0.50162 0.61958 0.46588
 C3833 C 0.49522 0.60471 0.45777
 C3834 C 0.48646 0.60661 0.44157
 C3835 C 0.47991 0.59096 0.43423
 C3836 C 0.48228 0.57425 0.44254
 C3837 C 0.49128 0.57255 0.45836
 C3838 C 0.49764 0.58789 0.46589
 H3839 H 0.49973 0.67239 0.45520
 H3840 H 0.47559 0.67632 0.39558
 H3841 H 0.49792 0.70051 0.44010
 H3842 H 0.47004 0.64484 0.39609
 H3843 H 0.47211 0.61589 0.40945
 H3844 H 0.50516 0.64710 0.46543
 H3845 H 0.50835 0.61815 0.47826
 H3846 H 0.47276 0.59111 0.42217
 H3847 H 0.47711 0.56261 0.43648
 H3848 H 0.50441 0.58681 0.47827
 C3849 C 0.49137 0.83814 0.45968
 C3850 C 0.50386 0.85147 0.45478
 C3851 C 0.51460 0.84897 0.43929
 C3852 C 0.51240 0.83408 0.42898
 C3853 C 0.49920 0.82168 0.43347
 C3854 C 0.48908 0.82351 0.44911
 C3855 C 0.52701 0.86168 0.43373
 C3856 C 0.52789 0.87767 0.44235
 C3857 C 0.51644 0.88145 0.45700
 C3858 C 0.50527 0.86764 0.46409
 C3859 C 0.49549 0.87070 0.47993
 C3860 C 0.49517 0.88728 0.48766
 C3861 C 0.50433 0.90146 0.47979
 C3862 C 0.51537 0.89874 0.46452
 C3863 C 0.52399 0.91372 0.45682
 C3864 C 0.52117 0.93071 0.46367
 C3865 C 0.50984 0.93335 0.47847
 C3866 C 0.50192 0.91854 0.48677
 H3867 H 0.48253 0.83901 0.47112
 H3868 H 0.52054 0.83246 0.41704
 H3869 H 0.47880 0.81403 0.45279
 H3870 H 0.53564 0.85955 0.42218
 H3871 H 0.53768 0.88687 0.43711
 H3872 H 0.48782 0.86053 0.48669
 H3873 H 0.48709 0.88919 0.49959
 H3874 H 0.53236 0.91297 0.44506
 H3875 H 0.52760 0.94189 0.45707
 H3876 H 0.49316 0.92038 0.49828
 C3877 C -0.00924 0.33473 0.96554
 C3878 C 0.00462 0.34698 0.96159
 C3879 C 0.01655 0.34339 0.94709
 C3880 C 0.01394 0.32878 0.93657
 C3881 C -0.00072 0.31774 0.93986
 C3882 C -0.01186 0.32033 0.95474
 C3883 C 0.03046 0.35489 0.94258
 C3884 C 0.03167 0.37097 0.95096
 C3885 C 0.01894 0.37605 0.96423
 C3886 C 0.00626 0.36326 0.97066
 C3887 C -0.00483 0.36754 0.98544
 C3888 C -0.00493 0.38445 0.99251
 C3889 C 0.00568 0.39776 0.98491
 C3890 C 0.01802 0.39371 0.97086
 C3891 C 0.02799 0.40783 0.96318
 C3892 C 0.02525 0.42529 0.96882
 C3893 C 0.01273 0.42926 0.98242
 C3894 C 0.00343 0.41532 0.99080
 H3895 H -0.01890 0.33640 0.97628
 H3896 H 0.02280 0.32648 0.92519
 H3897 H -0.02321 0.31178 0.95749
 H3898 H 0.04002 0.35183 0.93192
 H3899 H 0.04265 0.37926 0.94658
 H3900 H -0.01375 0.35813 0.99176
 H3901 H -0.01405 0.38736 1.00355
 H3902 H 0.03733 0.40606 0.95221
 H3903 H 0.03273 0.43579 0.96220
 H3904 H -0.00631 0.41825 1.00136
 C3905 C 0.51523 0.32773 0.05019
 C3906 C 0.50382 0.34231 0.05583
 C3907 C 0.49278 0.33969 0.07111
 C3908 C 0.49372 0.32346 0.08054
 C3909 C 0.50569 0.30957 0.07523
 C3910 C 0.51610 0.31163 0.05980
 C3911 C 0.48113 0.35338 0.07723
 C3912 C 0.48079 0.37007 0.06906
 C3913 C 0.49222 0.37378 0.05438
 C3914 C 0.50337 0.35949 0.04721
 C3915 C 0.51390 0.36297 0.03186
 C3916 C 0.51419 0.37995 0.02421
 C3917 C 0.50418 0.39419 0.03159
 C3918 C 0.49298 0.39135 0.04673
 C3919 C 0.48340 0.40637 0.05385
 C3920 C 0.48492 0.42335 0.04626
 C3921 C 0.49602 0.42607 0.03133
 C3922 C 0.50552 0.41136 0.02399
 H3923 H 0.52403 0.32842 0.03873
 H3924 H 0.48535 0.32174 0.09233
 H3925 H 0.52546 0.30099 0.05549
 H3926 H 0.47241 0.35127 0.08870
 H3927 H 0.47136 0.37982 0.07468
 H3928 H 0.52217 0.35282 0.02538
 H3929 H 0.52262 0.38202 0.01253
 H3930 H 0.47486 0.40563 0.06549
 H3931 H 0.47739 0.43443 0.05227
 H3932 H 0.51417 0.41326 0.01243
 C3933 C 0.01406 0.82822 0.54997
 C3934 C 0.00298 0.84263 0.55650
 C3935 C -0.00672 0.83980 0.57256
 C3936 C -0.00485 0.82350 0.58177
 C3937 C 0.00674 0.80975 0.57546
 C3938 C 0.01587 0.81206 0.55935
 C3939 C -0.01796 0.85332 0.57960
 C3940 C -0.01922 0.87005 0.57153
 C3941 C -0.00919 0.87395 0.55600
 C3942 C 0.00157 0.85984 0.54800
 C3943 C 0.01079 0.86351 0.53196
 C3944 C 0.01025 0.88052 0.52437
 C3945 C 0.00064 0.89458 0.53246
 C3946 C -0.00937 0.89154 0.54830
 C3947 C -0.01873 0.90640 0.55599
 C3948 C -0.01795 0.92346 0.54836
 C3949 C -0.00786 0.92637 0.53284
 C3950 C 0.00124 0.91179 0.52487
 H3951 H 0.02189 0.82908 0.53789
 H3952 H -0.01225 0.82159 0.59410
 H3953 H 0.02491 0.80153 0.55426
 H3954 H -0.02564 0.85106 0.59171
 H3955 H -0.02821 0.87968 0.57794
 H3956 H 0.01867 0.85351 0.52487
 H3957 H 0.01774 0.88275 0.51215
 H3958 H -0.02652 0.90549 0.56808
 H3959 H -0.02516 0.93445 0.55483
 H3960 H 0.00906 0.91382 0.51280
 C3961 C 0.23976 0.28975 0.08633
 C3962 C 0.25439 0.29109 0.09780
 C3963 C 0.26866 0.30244 0.09252
 C3964 C 0.26821 0.31186 0.07644
 C3965 C 0.25352 0.31056 0.06539
 C3966 C 0.23936 0.29937 0.07047
 C3967 C 0.28319 0.30463 0.10341
 C3968 C 0.28356 0.29646 0.11985
 C3969 C 0.26940 0.28553 0.12604
 C3970 C 0.25505 0.28207 0.11450
 C3971 C 0.24182 0.26981 0.12011
 C3972 C 0.24189 0.26208 0.13679
 C3973 C 0.25493 0.26643 0.14865
 C3974 C 0.26898 0.27812 0.14346
 C3975 C 0.28151 0.28256 0.15621
 C3976 C 0.27969 0.27618 0.17342
 C3977 C 0.26568 0.26489 0.17838
 C3978 C 0.25357 0.25970 0.16593
 H3979 H 0.22817 0.28174 0.08939
 H3980 H 0.27909 0.32073 0.07279
 H3981 H 0.22789 0.29805 0.06213
 H3982 H 0.29428 0.31307 0.09932
 H3983 H 0.29530 0.29889 0.12737
 H3984 H 0.23118 0.26580 0.11185
 H3985 H 0.23129 0.25296 0.14059
 H3986 H 0.29236 0.29161 0.15360
 H3987 H 0.28897 0.28051 0.18305
 H3988 H 0.24248 0.25121 0.16995
 C3989 C 0.72769 0.79534 0.58834
 C3990 C 0.74365 0.79151 0.59781
 C3991 C 0.76044 0.79669 0.59006
 C3992 C 0.76086 0.80669 0.57426
 C3993 C 0.74476 0.81131 0.56554
 C3994 C 0.72831 0.80500 0.57254
 C3995 C 0.77669 0.79217 0.59829
 C3996 C 0.77669 0.78289 0.61424
 C3997 C 0.76028 0.77828 0.62297
 C3998 C 0.74347 0.78297 0.61474
 C3999 C 0.72702 0.77984 0.62409
 C4000 C 0.72692 0.77287 0.64102
 C4001 C 0.74313 0.76818 0.64917
 C4002 C 0.76005 0.77003 0.64007
 C4003 C 0.77599 0.76391 0.64872
 C4004 C 0.77513 0.75764 0.66611
 C4005 C 0.75846 0.75742 0.67532
 C4006 C 0.74250 0.76223 0.66666
 H4007 H 0.71451 0.79090 0.59266
 H4008 H 0.77377 0.81132 0.56909
 H4009 H 0.71573 0.80754 0.56578
 H4010 H 0.78960 0.79595 0.59237
 H4011 H 0.78981 0.78023 0.61981
 H4012 H 0.71387 0.78347 0.61900
 H4013 H 0.71395 0.77134 0.64791
 H4014 H 0.78931 0.76392 0.64246
 H4015 H 0.78761 0.75381 0.67262
 H4016 H 0.72953 0.76179 0.67378
 C4017 C 0.26526 0.69351 0.59058
 C4018 C 0.25286 0.70660 0.59757
 C4019 C 0.23658 0.71046 0.58852
 C4020 C 0.23324 0.70172 0.57287
 C4021 C 0.24561 0.68857 0.56647
 C4022 C 0.26158 0.68465 0.57540
 C4023 C 0.22353 0.72259 0.59543
 C4024 C 0.22587 0.73038 0.61151
 C4025 C 0.24168 0.72671 0.62117
 C4026 C 0.25576 0.71534 0.61361
 C4027 C 0.27228 0.71290 0.62239
 C4028 C 0.27442 0.71989 0.63872
 C4029 C 0.26030 0.72965 0.64695
 C4030 C 0.24386 0.73370 0.63826
 C4031 C 0.23018 0.74400 0.64742
 C4032 C 0.23251 0.74911 0.66473
 C4033 C 0.24847 0.74407 0.67334
 C4034 C 0.26247 0.73490 0.66413
 H4035 H 0.27763 0.68924 0.59685
 H4036 H 0.22072 0.70459 0.56607
 H4037 H 0.27122 0.67444 0.57066
 H4038 H 0.21110 0.72571 0.58856
 H4039 H 0.21499 0.73930 0.61606
 H4040 H 0.28395 0.70564 0.61698
 H4041 H 0.28720 0.71723 0.64516
 H4042 H 0.21731 0.74778 0.64181
 H4043 H 0.22151 0.75623 0.67163
 H4044 H 0.27501 0.73125 0.67066
 C4045 C 0.76966 0.19027 0.09148
 C4046 C 0.75773 0.20397 0.09808
 C4047 C 0.74204 0.20873 0.08843
 C4048 C 0.73885 0.20027 0.07261
 C4049 C 0.75071 0.18651 0.06659
 C4050 C 0.76609 0.18169 0.07610
 C4051 C 0.72941 0.22150 0.09491
 C4052 C 0.73154 0.22909 0.11113
 C4053 C 0.74675 0.22454 0.12136
 C4054 C 0.76048 0.21247 0.11427
 C4055 C 0.77651 0.20914 0.12365
 C4056 C 0.77843 0.21600 0.14007
 C4057 C 0.76455 0.22649 0.14782
 C4058 C 0.74865 0.23137 0.13856
 C4059 C 0.73517 0.24231 0.14727
 C4060 C 0.73714 0.24728 0.16467
 C4061 C 0.75252 0.24152 0.17384
 C4062 C 0.76638 0.23166 0.16508
 H4063 H 0.78153 0.18531 0.09820
 H4064 H 0.72677 0.20384 0.06535
 H4065 H 0.77534 0.17100 0.07168
 H4066 H 0.71744 0.22531 0.08759
 H4067 H 0.72099 0.23855 0.11531
 H4068 H 0.78797 0.20127 0.11864
 H4069 H 0.79081 0.21268 0.14696
 H4070 H 0.72270 0.24670 0.14123
 H4071 H 0.72625 0.25494 0.17118
 H4072 H 0.77851 0.22742 0.17200
 C4073 C 0.74213 0.16740 0.89779
 C4074 C 0.74769 0.18470 0.89260
 C4075 C 0.75082 0.19694 0.90595
 C4076 C 0.74884 0.19173 0.92370
 C4077 C 0.74347 0.17445 0.92853
 C4078 C 0.74012 0.16245 0.91537
 C4079 C 0.75585 0.21431 0.90153
 C4080 C 0.75764 0.21996 0.88414
 C4081 C 0.75471 0.20832 0.87033
 C4082 C 0.75005 0.19027 0.87467
 C4083 C 0.74800 0.17833 0.86094
 C4084 C 0.74968 0.18389 0.84362
 C4085 C 0.75345 0.20154 0.83915
 C4086 C 0.75620 0.21406 0.85233
 C4087 C 0.76002 0.23182 0.84680
 C4088 C 0.76056 0.23686 0.82905
 C4089 C 0.75739 0.22443 0.81619
 C4090 C 0.75420 0.20670 0.82145
 H4091 H 0.73905 0.15731 0.88866
 H4092 H 0.75130 0.20122 0.93377
 H4093 H 0.73620 0.14893 0.91866
 H4094 H 0.75829 0.22374 0.91165
 H4095 H 0.76148 0.23360 0.88195
 H4096 H 0.74518 0.16443 0.86306
 H4097 H 0.74780 0.17422 0.83356
 H4098 H 0.76229 0.24225 0.85585
 H4099 H 0.76308 0.25066 0.82542
 H4100 H 0.75185 0.19682 0.81172
 C4101 C 0.24616 0.66746 0.39805
 C4102 C 0.25198 0.68484 0.39347
 C4103 C 0.25491 0.69663 0.40726
 C4104 C 0.25248 0.69094 0.42481
 C4105 C 0.24671 0.67366 0.42903
 C4106 C 0.24360 0.66206 0.41546
 C4107 C 0.26009 0.71408 0.40345
 C4108 C 0.26202 0.72032 0.38626
 C4109 C 0.25913 0.70919 0.37205
 C4110 C 0.25461 0.69098 0.37574
 C4111 C 0.25288 0.67949 0.36159
 C4112 C 0.25448 0.68570 0.34445
 C4113 C 0.25781 0.70359 0.34062
 C4114 C 0.26044 0.71562 0.35425
 C4115 C 0.26377 0.73367 0.34940
 C4116 C 0.26373 0.73949 0.33187
 C4117 C 0.26049 0.72758 0.31856
 C4118 C 0.25806 0.70953 0.32311
 H4119 H 0.24316 0.65773 0.38853
 H4120 H 0.25474 0.70011 0.43522
 H4121 H 0.23935 0.64857 0.41832
 H4122 H 0.26245 0.72315 0.41391
 H4123 H 0.26593 0.73399 0.38456
 H4124 H 0.25036 0.66546 0.36325
 H4125 H 0.25275 0.67639 0.33404
 H4126 H 0.26593 0.74376 0.35883
 H4127 H 0.26567 0.75352 0.32882
 H4128 H 0.25567 0.70005 0.31301
 C4129 C 0.76827 0.81324 0.40508
 C4130 C 0.75528 0.80104 0.39993
 C4131 C 0.74031 0.79787 0.41157
 C4132 C 0.73867 0.80657 0.42770
 C4133 C 0.75154 0.81886 0.43233
 C4134 C 0.76635 0.82195 0.42093
 C4135 C 0.72689 0.78634 0.40689
 C4136 C 0.72763 0.77826 0.39068
 C4137 C 0.74207 0.78119 0.37850
 C4138 C 0.75641 0.79232 0.38346
 C4139 C 0.77138 0.79451 0.37174
 C4140 C 0.77188 0.78710 0.35536
 C4141 C 0.75759 0.77712 0.34993
 C4142 C 0.74261 0.77362 0.36141
 C4143 C 0.72869 0.76307 0.35503
 C4144 C 0.72942 0.75699 0.33781
 C4145 C 0.74396 0.76126 0.32645
 C4146 C 0.75817 0.77093 0.33282
 H4147 H 0.77992 0.81674 0.39706
 H4148 H 0.72707 0.80422 0.43640
 H4149 H 0.77657 0.83124 0.42429
 H4150 H 0.71546 0.78378 0.41574
 H4151 H 0.71659 0.76976 0.38807
 H4152 H 0.78308 0.80194 0.37477
 H4153 H 0.78352 0.78948 0.34670
 H4154 H 0.71686 0.75963 0.36284
 H4155 H 0.71828 0.74948 0.33320
 H4156 H 0.76970 0.77404 0.32425
 C4157 C 0.27233 0.31051 0.90390
 C4158 C 0.25878 0.29888 0.89883
 C4159 C 0.24392 0.29603 0.91069
 C4160 C 0.24296 0.30444 0.92698
 C4161 C 0.25635 0.31621 0.93151
 C4162 C 0.27104 0.31901 0.91989
 C4163 C 0.22990 0.28518 0.90605
 C4164 C 0.22988 0.27761 0.88962
 C4165 C 0.24416 0.28032 0.87721
 C4166 C 0.25919 0.29054 0.88219
 C4167 C 0.27410 0.29224 0.87032
 C4168 C 0.27384 0.28542 0.85371
 C4169 C 0.25882 0.27656 0.84822
 C4170 C 0.24387 0.27345 0.85987
 C4171 C 0.22915 0.26404 0.85340
 C4172 C 0.22908 0.25876 0.83593
 C4173 C 0.24361 0.26272 0.82444
 C4174 C 0.25860 0.27116 0.83087
 H4175 H 0.28389 0.31382 0.89566
 H4176 H 0.23143 0.30237 0.93586
 H4177 H 0.28160 0.32796 0.92316
 H4178 H 0.21856 0.28284 0.91508
 H4179 H 0.21840 0.26966 0.88703
 H4180 H 0.28632 0.29880 0.87342
 H4181 H 0.28546 0.28744 0.84492
 H4182 H 0.21727 0.26099 0.86132
 H4183 H 0.21736 0.25219 0.83126
 H4184 H 0.27009 0.27398 0.82215
 C4185 C 0.83807 0.38929 0.77232
 C4186 C 0.82129 0.38653 0.76441
 C4187 C 0.81370 0.40089 0.75421
 C4188 C 0.82263 0.41717 0.75214
 C4189 C 0.83939 0.41952 0.75982
 C4190 C 0.84689 0.40545 0.77002
 C4191 C 0.79733 0.39888 0.74593
 C4192 C 0.78856 0.38275 0.74696
 C4193 C 0.79577 0.36784 0.75648
 C4194 C 0.81204 0.36996 0.76589
 C4195 C 0.81854 0.35541 0.77635
 C4196 C 0.81003 0.33910 0.77696
 C4197 C 0.79482 0.33646 0.76705
 C4198 C 0.78737 0.35081 0.75674
 C4199 C 0.77221 0.34729 0.74658
 C4200 C 0.76529 0.33021 0.74621
 C4201 C 0.77292 0.31601 0.75611
 C4202 C 0.78738 0.31934 0.76691
 H4203 H 0.84497 0.37916 0.78015
 H4204 H 0.81674 0.42787 0.74408
 H4205 H 0.85969 0.40694 0.77635
 H4206 H 0.79132 0.40985 0.73831
 H4207 H 0.77601 0.38248 0.74014
 H4208 H 0.83027 0.35616 0.78432
 H4209 H 0.81571 0.32828 0.78500
 H4210 H 0.76574 0.35723 0.73823
 H4211 H 0.75408 0.32799 0.73776
 H4212 H 0.79353 0.30837 0.77445
 C4213 C 0.34050 0.89198 0.26838
 C4214 C 0.32175 0.89076 0.26542
 C4215 C 0.31239 0.90634 0.25907
 C4216 C 0.32143 0.92249 0.25629
 C4217 C 0.34026 0.92372 0.25920
 C4218 C 0.34947 0.90793 0.26530
 C4219 C 0.29401 0.90573 0.25523
 C4220 C 0.28485 0.88985 0.25695
 C4221 C 0.29365 0.87385 0.26293
 C4222 C 0.31214 0.87452 0.26807
 C4223 C 0.32036 0.85895 0.27568
 C4224 C 0.31127 0.84301 0.27725
 C4225 C 0.29376 0.84176 0.27101
 C4226 C 0.28464 0.85716 0.26380
 C4227 C 0.26719 0.85499 0.25701
 C4228 C 0.25957 0.83819 0.25678
 C4229 C 0.26877 0.82303 0.26366
 C4230 C 0.28563 0.82499 0.27127
 H4231 H 0.34880 0.88073 0.27288
 H4232 H 0.31369 0.93371 0.25078
 H4233 H 0.36361 0.90773 0.26870
 H4234 H 0.28665 0.91763 0.25054
 H4235 H 0.27070 0.89064 0.25370
 H4236 H 0.33386 0.85868 0.28075
 H4237 H 0.31824 0.83137 0.28298
 H4238 H 0.25941 0.86581 0.25098
 H4239 H 0.24658 0.83696 0.25071
 H4240 H 0.29299 0.81323 0.27631
 C4241 C 0.16496 0.90305 0.72529
 C4242 C 0.17959 0.89787 0.73614
 C4243 C 0.18427 0.91002 0.74908
 C4244 C 0.17473 0.92658 0.75087
 C4245 C 0.16016 0.93138 0.74013
 C4246 C 0.15548 0.91945 0.72731
 C4247 C 0.19833 0.90552 0.76034
 C4248 C 0.20766 0.88907 0.75939
 C4249 C 0.20341 0.87634 0.74695
 C4250 C 0.18950 0.88100 0.73481
 C4251 C 0.18596 0.86865 0.72176
 C4252 C 0.19524 0.85215 0.72089
 C4253 C 0.20830 0.84708 0.73305
 C4254 C 0.21259 0.85907 0.74627
 C4255 C 0.22565 0.85307 0.75851
 C4256 C 0.23378 0.83593 0.75774
 C4257 C 0.22945 0.82410 0.74471
 C4258 C 0.21684 0.82991 0.73222
 H4259 H 0.16028 0.89467 0.71525
 H4260 H 0.17836 0.93559 0.76098
 H4261 H 0.14442 0.92286 0.71869
 H4262 H 0.20207 0.91479 0.77017
 H4263 H 0.21831 0.88684 0.76860
 H4264 H 0.17611 0.87137 0.71185
 H4265 H 0.19195 0.84312 0.71068
 H4266 H 0.22963 0.86107 0.76913
 H4267 H 0.24348 0.83189 0.76757
 H4268 H 0.21321 0.82085 0.72216
 C4269 C 0.66423 0.39967 0.22629
 C4270 C 0.67881 0.39439 0.23717
 C4271 C 0.68340 0.40642 0.25025
 C4272 C 0.67384 0.42295 0.25215
 C4273 C 0.65937 0.42788 0.24134
 C4274 C 0.65474 0.41607 0.22840
 C4275 C 0.69742 0.40186 0.26152
 C4276 C 0.70680 0.38545 0.26045
 C4277 C 0.70262 0.37282 0.24789
 C4278 C 0.68875 0.37756 0.23573
 C4279 C 0.68531 0.36531 0.22256
 C4280 C 0.69463 0.34882 0.22160
 C4281 C 0.70763 0.34367 0.23378
 C4282 C 0.71183 0.35558 0.24712
 C4283 C 0.72482 0.34952 0.25939
 C4284 C 0.73297 0.33241 0.25857
 C4285 C 0.72872 0.32065 0.24545
 C4286 C 0.71621 0.32651 0.23289
 H4287 H 0.65962 0.39139 0.21614
 H4288 H 0.67742 0.43185 0.26237
 H4289 H 0.64376 0.41957 0.21971
 H4290 H 0.70111 0.41105 0.27145
 H4291 H 0.71743 0.38318 0.26968
 H4292 H 0.67549 0.36810 0.21263
 H4293 H 0.69141 0.33987 0.21130
 H4294 H 0.72874 0.35745 0.27010
 H4295 H 0.74261 0.32832 0.26843
 H4296 H 0.71266 0.31749 0.22277
 C4297 C 0.66912 0.59482 0.23437
 C4298 C 0.67325 0.60362 0.24986
 C4299 C 0.67029 0.59429 0.26596
 C4300 C 0.66295 0.57712 0.26635
 C4301 C 0.65857 0.56881 0.25083
 C4302 C 0.66190 0.57784 0.23491
 C4303 C 0.67462 0.60216 0.28158
 C4304 C 0.68187 0.61910 0.28165
 C4305 C 0.68489 0.62907 0.26600
 C4306 C 0.68023 0.62126 0.24987
 C4307 C 0.68252 0.63142 0.23426
 C4308 C 0.68956 0.64831 0.23422
 C4309 C 0.69467 0.65588 0.24967
 C4310 C 0.69239 0.64657 0.26585
 C4311 C 0.69790 0.65523 0.28105
 C4312 C 0.70569 0.67213 0.27998
 C4313 C 0.70820 0.68097 0.26380
 C4314 C 0.70228 0.67276 0.24880
 H4315 H 0.67129 0.60060 0.22151
 H4316 H 0.66070 0.57019 0.27878
 H4317 H 0.65850 0.57194 0.22272
 H4318 H 0.67243 0.59510 0.29395
 H4319 H 0.68485 0.62411 0.29426
 H4320 H 0.67887 0.62681 0.22169
 H4321 H 0.69114 0.65551 0.22184
 H4322 H 0.69667 0.64918 0.29391
 H4323 H 0.71009 0.67811 0.29180
 H4324 H 0.70383 0.67942 0.23614
 C4325 C 0.16806 0.09838 0.73110
 C4326 C 0.17218 0.10742 0.74645
 C4327 C 0.16895 0.09843 0.76269
 C4328 C 0.16163 0.08126 0.76334
 C4329 C 0.15738 0.07263 0.74795
 C4330 C 0.16079 0.08140 0.73190
 C4331 C 0.17295 0.10665 0.77822
 C4332 C 0.18007 0.12364 0.77808
 C4333 C 0.18345 0.13326 0.76229
 C4334 C 0.17935 0.12501 0.74622
 C4335 C 0.18248 0.13466 0.73042
 C4336 C 0.18953 0.15156 0.73019
 C4337 C 0.19382 0.15968 0.74563
 C4338 C 0.19082 0.15082 0.76196
 C4339 C 0.19547 0.15999 0.77715
 C4340 C 0.20304 0.17697 0.77599
 C4341 C 0.20621 0.18542 0.75971
 C4342 C 0.20129 0.17664 0.74465
 H4343 H 0.17014 0.10399 0.71816
 H4344 H 0.15930 0.07457 0.77587
 H4345 H 0.15741 0.07531 0.71980
 H4346 H 0.17054 0.09985 0.79069
 H4347 H 0.18275 0.12892 0.79066
 H4348 H 0.17959 0.12957 0.71783
 H4349 H 0.19175 0.15835 0.71768
 H4350 H 0.19361 0.15436 0.79013
 H4351 H 0.20666 0.18337 0.78787
 H4352 H 0.20345 0.18295 0.73190
 C4353 C 0.32491 0.08863 0.27222
 C4354 C 0.31947 0.09835 0.25704
 C4355 C 0.32353 0.09046 0.24067
 C4356 C 0.33229 0.07342 0.23974
 C4357 C 0.33760 0.06398 0.25494
 C4358 C 0.33381 0.07185 0.27113
 C4359 C 0.31899 0.09966 0.22526
 C4360 C 0.31084 0.11674 0.22564
 C4361 C 0.30657 0.12527 0.24157
 C4362 C 0.31047 0.11569 0.25754
 C4363 C 0.30511 0.12369 0.27348
 C4364 C 0.29680 0.14063 0.27391
 C4365 C 0.29361 0.15044 0.25855
 C4366 C 0.29844 0.14303 0.24212
 C4367 C 0.29515 0.15388 0.22701
 C4368 C 0.28745 0.17124 0.22828
 C4369 C 0.28265 0.17841 0.24459
 C4370 C 0.28570 0.16777 0.25964
 H4371 H 0.32294 0.09375 0.28518
 H4372 H 0.33495 0.06751 0.22710
 H4373 H 0.33813 0.06522 0.28310
 H4374 H 0.32197 0.09368 0.21269
 H4375 H 0.30785 0.12283 0.21313
 H4376 H 0.30691 0.11710 0.28598
 H4377 H 0.29297 0.14619 0.28650
 H4378 H 0.29866 0.14951 0.21400
 H4379 H 0.28536 0.17910 0.21641
 H4380 H 0.28221 0.17309 0.27241
 C4381 C 0.82917 0.58639 0.77350
 C4382 C 0.82400 0.59609 0.75820
 C4383 C 0.82770 0.58783 0.74195
 C4384 C 0.83601 0.57058 0.74123
 C4385 C 0.84112 0.56120 0.75653
 C4386 C 0.83756 0.56935 0.77262
 C4387 C 0.82321 0.59686 0.72644
 C4388 C 0.81536 0.61405 0.72659
 C4389 C 0.81145 0.62297 0.74238
 C4390 C 0.81553 0.61369 0.75847
 C4391 C 0.81090 0.62227 0.77430
 C4392 C 0.80288 0.63935 0.77449
 C4393 C 0.79921 0.64873 0.75898
 C4394 C 0.80348 0.64081 0.74267
 C4395 C 0.79966 0.65121 0.72738
 C4396 C 0.79184 0.66854 0.72837
 C4397 C 0.78748 0.67617 0.74457
 C4398 C 0.79127 0.66608 0.75981
 H4399 H 0.82726 0.59165 0.78641
 H4400 H 0.83845 0.56443 0.72867
 H4401 H 0.84167 0.56271 0.78465
 H4402 H 0.82593 0.59060 0.71396
 H4403 H 0.81236 0.61995 0.71400
 H4404 H 0.81311 0.61608 0.78692
 H4405 H 0.79956 0.64533 0.78700
 H4406 H 0.80269 0.64645 0.71442
 H4407 H 0.78918 0.67596 0.71635
 H4408 H 0.78813 0.67176 0.77248
 C4409 C 0.89499 0.76347 0.15226
 C4410 C 0.89015 0.75140 0.16593
 C4411 C 0.90367 0.73877 0.17153
 C4412 C 0.92115 0.73840 0.16380
 C4413 C 0.92607 0.75056 0.15024
 C4414 C 0.91246 0.76306 0.14466
 C4415 C 0.89985 0.72660 0.18505
 C4416 C 0.88296 0.72684 0.19346
 C4417 C 0.86907 0.73937 0.18868
 C4418 C 0.87255 0.75158 0.17440
 C4419 C 0.85834 0.76357 0.16914
 C4420 C 0.84147 0.76391 0.17773
 C4421 C 0.83807 0.75249 0.19199
 C4422 C 0.85180 0.74008 0.19772
 C4423 C 0.84773 0.72905 0.21248
 C4424 C 0.83079 0.73024 0.22098
 C4425 C 0.81725 0.74243 0.21520
 C4426 C 0.82099 0.75352 0.20063
 H4427 H 0.88563 0.77349 0.14705
 H4428 H 0.93112 0.72917 0.16944
 H4429 H 0.91472 0.77225 0.13378
 H4430 H 0.91011 0.71678 0.18929
 H4431 H 0.88128 0.71684 0.20365
 H4432 H 0.85974 0.77289 0.15831
 H4433 H 0.83100 0.77336 0.17323
 H4434 H 0.85732 0.71949 0.21803
 H4435 H 0.82839 0.72151 0.23223
 H4436 H 0.81064 0.76307 0.19606
 C4437 C 0.39798 0.28345 0.66394
 C4438 C 0.39223 0.26967 0.67564
 C4439 C 0.40527 0.25609 0.68033
 C4440 C 0.42311 0.25637 0.67354
 C4441 C 0.42840 0.26980 0.66168
 C4442 C 0.41577 0.28340 0.65703
 C4443 C 0.40044 0.24201 0.69150
 C4444 C 0.38271 0.24066 0.69776
 C4445 C 0.36904 0.25350 0.69315
 C4446 C 0.37400 0.26864 0.68251
 C4447 C 0.36059 0.28221 0.67921
 C4448 C 0.34291 0.28097 0.68588
 C4449 C 0.33775 0.26600 0.69574
 C4450 C 0.35063 0.25187 0.69920
 C4451 C 0.34450 0.23660 0.70852
 C4452 C 0.32674 0.23596 0.71512
 C4453 C 0.31434 0.25036 0.71249
 C4454 C 0.31980 0.26518 0.70241
 H4455 H 0.38900 0.29417 0.65946
 H4456 H 0.43272 0.24557 0.67690
 H4457 H 0.41961 0.29393 0.64784
 H4458 H 0.41045 0.23175 0.69530
 H4459 H 0.38028 0.22946 0.70650
 H4460 H 0.36341 0.29425 0.67178
 H4461 H 0.33315 0.29183 0.68322
 H4462 H 0.35300 0.22481 0.71089
 H4463 H 0.32276 0.22413 0.72250
 H4464 H 0.31025 0.27634 0.70016
 C4465 C 0.40374 0.72224 0.84172
 C4466 C 0.40204 0.72835 0.82416
 C4467 C 0.41707 0.73693 0.81605
 C4468 C 0.43276 0.73966 0.82535
 C4469 C 0.43387 0.73414 0.84285
 C4470 C 0.41943 0.72511 0.85086
 C4471 C 0.41628 0.74313 0.79881
 C4472 C 0.40048 0.74202 0.78962
 C4473 C 0.38472 0.73463 0.79739
 C4474 C 0.38579 0.72687 0.81461
 C4475 C 0.37044 0.71827 0.82183
 C4476 C 0.35420 0.71837 0.81311
 C4477 C 0.35254 0.72712 0.79695
 C4478 C 0.36782 0.73511 0.78868
 C4479 C 0.36527 0.74398 0.77235
 C4480 C 0.34819 0.74542 0.76502
 C4481 C 0.33306 0.73800 0.77356
 C4482 C 0.33546 0.72841 0.78930
 H4483 H 0.39305 0.71566 0.84897
 H4484 H 0.44410 0.74636 0.81903
 H4485 H 0.42005 0.72076 0.86442
 H4486 H 0.42791 0.74932 0.79246
 H4487 H 0.40107 0.74723 0.77641
 H4488 H 0.37045 0.71139 0.83434
 H4489 H 0.34265 0.71195 0.81934
 H4490 H 0.37600 0.75053 0.76512
 H4491 H 0.34680 0.75278 0.75275
 H4492 H 0.32387 0.72254 0.79603
 C4493 C 0.90400 0.22253 0.34488
 C4494 C 0.90234 0.22637 0.32679
 C4495 C 0.91795 0.23232 0.31734
 C4496 C 0.93426 0.23460 0.32580
 C4497 C 0.93539 0.23144 0.34380
 C4498 C 0.92028 0.22506 0.35320
 C4499 C 0.91714 0.23641 0.29955
 C4500 C 0.90084 0.23590 0.29105
 C4501 C 0.88464 0.23115 0.30005
 C4502 C 0.88561 0.22527 0.31792
 C4503 C 0.86976 0.21880 0.32637
 C4504 C 0.85325 0.21923 0.31808
 C4505 C 0.85179 0.22637 0.30119
 C4506 C 0.86746 0.23233 0.29186
 C4507 C 0.86512 0.23999 0.27497
 C4508 C 0.84794 0.24192 0.26790
 C4509 C 0.83251 0.23619 0.27726
 C4510 C 0.83459 0.22806 0.29377
 H4511 H 0.89283 0.21818 0.35315
 H4512 H 0.94605 0.23924 0.31841
 H4513 H 0.92083 0.22265 0.36717
 H4514 H 0.92916 0.24053 0.29220
 H4515 H 0.90144 0.23930 0.27731
 H4516 H 0.86964 0.21325 0.33947
 H4517 H 0.84137 0.21438 0.32517
 H4518 H 0.87613 0.24526 0.26709
 H4519 H 0.84676 0.24818 0.25506
 H4520 H 0.82271 0.22367 0.30119
 C4521 C 0.08125 0.26871 0.30127
 C4522 C 0.09747 0.27352 0.30919
 C4523 C 0.09616 0.27895 0.32680
 C4524 C 0.07961 0.27834 0.33626
 C4525 C 0.06403 0.27225 0.32859
 C4526 C 0.06486 0.26802 0.31088
 C4527 C 0.11150 0.28429 0.33518
 C4528 C 0.12846 0.28340 0.32685
 C4529 C 0.13080 0.27688 0.30976
 C4530 C 0.11498 0.27241 0.30056
 C4531 C 0.11728 0.26632 0.28331
 C4532 C 0.13444 0.26372 0.27561
 C4533 C 0.14998 0.26715 0.28471
 C4534 C 0.14846 0.27415 0.30175
 C4535 C 0.16477 0.27761 0.31023
 C4536 C 0.18171 0.27378 0.30229
 C4537 C 0.18305 0.26636 0.28568
 C4538 C 0.16710 0.26332 0.27688
 H4539 H 0.08075 0.26494 0.28783
 H4540 H 0.07919 0.28155 0.35000
 H4541 H 0.05288 0.26373 0.30452
 H4542 H 0.11047 0.28881 0.34854
 H4543 H 0.13955 0.28760 0.33442
 H4544 H 0.10609 0.26304 0.27541
 H4545 H 0.13554 0.25864 0.26247
 H4546 H 0.16503 0.28303 0.32310
 H4547 H 0.19383 0.27637 0.30936
 H4548 H 0.16797 0.25786 0.26388
 C4549 C 0.58190 0.75643 0.80385
 C4550 C 0.59742 0.76547 0.80890
 C4551 C 0.59565 0.77622 0.82390
 C4552 C 0.57933 0.77709 0.83376
 C4553 C 0.56466 0.76694 0.82931
 C4554 C 0.56584 0.75712 0.81399
 C4555 C 0.61040 0.78546 0.82949
 C4556 C 0.62737 0.78323 0.82134
 C4557 C 0.63020 0.77164 0.80716
 C4558 C 0.61479 0.76348 0.80018
 C4559 C 0.61739 0.75324 0.78500
 C4560 C 0.63458 0.75010 0.77755
 C4561 C 0.64986 0.75683 0.78500
 C4562 C 0.64795 0.76778 0.79985
 C4563 C 0.66399 0.77389 0.80711
 C4564 C 0.68107 0.76949 0.79976
 C4565 C 0.68281 0.75878 0.78501
 C4566 C 0.66711 0.75252 0.77770
 H4567 H 0.58192 0.74800 0.79266
 H4568 H 0.57832 0.78499 0.84546
 H4569 H 0.55465 0.74912 0.81033
 H4570 H 0.60897 0.79406 0.84068
 H4571 H 0.63804 0.79077 0.82656
 H4572 H 0.60637 0.74740 0.77849
 H4573 H 0.63595 0.74197 0.76602
 H4574 H 0.66392 0.78181 0.81866
 H4575 H 0.69296 0.77447 0.80575
 H4576 H 0.66826 0.74428 0.76624
 C4577 C 0.58086 0.22984 0.69585
 C4578 C 0.59789 0.22680 0.68701
 C4579 C 0.59783 0.22430 0.66872
 C4580 C 0.58166 0.22636 0.65964
 C4581 C 0.56531 0.23086 0.66844
 C4582 C 0.56482 0.23188 0.68662
 C4583 C 0.61397 0.22052 0.65939
 C4584 C 0.63049 0.22026 0.66757
 C4585 C 0.63153 0.22414 0.68545
 C4586 C 0.61494 0.22696 0.69546
 C4587 C 0.61600 0.23071 0.71337
 C4588 C 0.63261 0.23264 0.72104
 C4589 C 0.64882 0.23075 0.71128
 C4590 C 0.64861 0.22597 0.69349
 C4591 C 0.66556 0.22381 0.68436
 C4592 C 0.68181 0.22695 0.69239
 C4593 C 0.68182 0.23235 0.70975
 C4594 C 0.66528 0.23394 0.71921
 H4595 H 0.57946 0.23122 0.70979
 H4596 H 0.58188 0.22524 0.64554
 H4597 H 0.55215 0.23517 0.69359
 H4598 H 0.61390 0.21820 0.64548
 H4599 H 0.64226 0.21750 0.65925
 H4600 H 0.60418 0.23276 0.72181
 H4601 H 0.63274 0.23601 0.73472
 H4602 H 0.66684 0.21989 0.67094
 H4603 H 0.69443 0.22542 0.68482
 H4604 H 0.66517 0.23777 0.73278
 C4605 C 0.07473 0.74759 0.20227
 C4606 C 0.09025 0.73636 0.19856
 C4607 C 0.08946 0.72459 0.18437
 C4608 C 0.07421 0.72485 0.17392
 C4609 C 0.05969 0.73706 0.17695
 C4610 C 0.05972 0.74793 0.19154
 C4611 C 0.10424 0.71320 0.18010
 C4612 C 0.12051 0.71437 0.18852
 C4613 C 0.12255 0.72703 0.20161
 C4614 C 0.10684 0.73718 0.20765
 C4615 C 0.10847 0.74822 0.22218
 C4616 C 0.12519 0.75043 0.22960
 C4617 C 0.14094 0.74208 0.22261
 C4618 C 0.13986 0.73016 0.20859
 C4619 C 0.15628 0.72263 0.20146
 C4620 C 0.17299 0.72689 0.20791
 C4621 C 0.17400 0.73866 0.22176
 C4622 C 0.15787 0.74597 0.22926
 H4623 H 0.07411 0.75694 0.21276
 H4624 H 0.07401 0.71617 0.16279
 H4625 H 0.04855 0.75745 0.19409
 H4626 H 0.10346 0.70375 0.16965
 H4627 H 0.13133 0.70518 0.18438
 H4628 H 0.09703 0.75540 0.22813
 H4629 H 0.12589 0.75928 0.24054
 H4630 H 0.15680 0.71393 0.19044
 H4631 H 0.18522 0.72099 0.20185
 H4632 H 0.15848 0.75516 0.23995
   
