data_POSCAR
  _audit_creation_date              2014-09-24
  _audit_creation_method            'ToBaCCo'
  _symmetry_space_group_name_H-M    'P1'
  _symmetry_Int_Tables_number       1
  _symmetry_cell_setting            triclinic
  loop_
  _symmetry_equiv_pos_as_xyz
 x,y,z
_cell_length_a 75.4755
_cell_length_b 75.5465
_cell_length_c 75.5979
_cell_angle_alpha 90.001500
_cell_angle_beta 89.984500
_cell_angle_gamma 89.985300
loop_
  _atom_site_label
  _atom_site_type_symbol
  _atom_site_fract_x
  _atom_site_fract_y
  _atom_site_fract_z
N1 N 0.36455 0.31576 0.32799
 N2 N 0.36410 0.32749 0.31515
 C3 C 0.37765 0.32440 0.30397
 C4 C 0.38705 0.30992 0.31015
 C5 C 0.37838 0.30481 0.32540
 H6 H 0.38039 0.33207 0.29221
 H7 H 0.38185 0.29383 0.33391
 Cu8 Cu 0.34576 0.34554 0.31421
 Cu9 Cu 0.34703 0.31536 0.34691
 Cu10 Cu 0.31441 0.34763 0.34577
 N11 N 0.32770 0.36388 0.31405
 N12 N 0.31543 0.36454 0.32638
 C13 C 0.30471 0.37841 0.32325
 C14 C 0.31062 0.38695 0.30816
 C15 C 0.32522 0.37739 0.30268
 H16 H 0.29358 0.38203 0.33148
 H17 H 0.33344 0.38019 0.29130
 N18 N 0.31563 0.32938 0.36432
 N19 N 0.32811 0.31714 0.36481
 C20 C 0.32543 0.30675 0.37905
 C21 C 0.31055 0.31277 0.38792
 C22 C 0.30471 0.32709 0.37823
 H23 H 0.33374 0.29568 0.38267
 H24 H 0.29331 0.33525 0.38119
 H25 H 0.32683 0.32705 0.33271
 H26 H 0.34127 0.34212 0.34596
 N27 N 0.36349 0.81543 -0.17400
 N28 N 0.36319 0.82754 -0.18650
 C29 C 0.37657 0.82446 -0.19790
 C30 C 0.38570 0.80957 -0.19221
 C31 C 0.37702 0.80423 -0.17703
 H32 H 0.37938 0.83245 -0.20942
 H33 H 0.38033 0.79299 -0.16880
 Cu34 Cu 0.34529 0.84609 -0.18645
 Cu35 Cu 0.34621 0.81494 -0.15483
 Cu36 Cu 0.31413 0.84789 -0.15481
 N37 N 0.32731 0.86455 -0.18642
 N38 N 0.31515 0.86519 -0.17397
 C39 C 0.30446 0.87915 -0.17693
 C40 C 0.31029 0.88778 -0.19206
 C41 C 0.32479 0.87813 -0.19770
 H42 H 0.29337 0.88271 -0.16859
 H43 H 0.33292 0.88090 -0.20916
 N44 N 0.31535 0.82917 -0.13659
 N45 N 0.32758 0.81667 -0.13661
 C46 C 0.32474 0.80577 -0.12279
 C47 C 0.30998 0.81168 -0.11366
 C48 C 0.30441 0.82653 -0.12274
 H49 H 0.33275 0.79433 -0.11972
 H50 H 0.29308 0.83468 -0.11952
 H51 H 0.32604 0.82742 -0.16844
 H52 H 0.34079 0.84175 -0.15480
 N53 N 0.86392 0.31748 -0.17227
 N54 N 0.86371 0.32989 -0.18446
 C55 C 0.87746 0.32734 -0.19556
 C56 C 0.88675 0.31258 -0.19002
 C57 C 0.87777 0.30664 -0.17518
 H58 H 0.88060 0.33561 -0.20681
 H59 H 0.88105 0.29538 -0.16701
 Cu60 Cu 0.84553 0.34818 -0.18445
 Cu61 Cu 0.84635 0.31634 -0.15340
 Cu62 Cu 0.81355 0.34847 -0.15344
 N63 N 0.82682 0.36596 -0.18450
 N64 N 0.81442 0.36600 -0.17229
 C65 C 0.80341 0.37973 -0.17512
 C66 C 0.80917 0.38879 -0.18991
 C67 C 0.82409 0.37965 -0.19559
 H68 H 0.79209 0.38298 -0.16696
 H69 H 0.83242 0.38277 -0.20678
 N70 N 0.81491 0.32964 -0.13548
 N71 N 0.82741 0.31742 -0.13545
 C72 C 0.82491 0.30666 -0.12145
 C73 C 0.81014 0.31243 -0.11225
 C74 C 0.80415 0.32699 -0.12151
 H75 H 0.83332 0.29557 -0.11815
 H76 H 0.79283 0.33510 -0.11817
 H77 H 0.82632 0.32867 -0.16738
 H78 H 0.84038 0.34305 -0.15301
 N79 N 0.86393 0.81577 0.32700
 N80 N 0.86356 0.82781 0.31445
 C81 C 0.87732 0.82512 0.30342
 C82 C 0.88678 0.81065 0.30935
 C83 C 0.87790 0.80500 0.32437
 H84 H 0.88039 0.83315 0.29197
 H85 H 0.88136 0.79404 0.33287
 Cu86 Cu 0.84532 0.84596 0.31413
 Cu87 Cu 0.84646 0.81514 0.34604
 Cu88 Cu 0.81389 0.84763 0.34546
 N89 N 0.82715 0.86421 0.31383
 N90 N 0.81485 0.86472 0.32613
 C91 C 0.80409 0.87860 0.32309
 C92 C 0.81005 0.88732 0.30807
 C93 C 0.82468 0.87780 0.30256
 H94 H 0.79293 0.88208 0.33135
 H95 H 0.83297 0.88071 0.29125
 N96 N 0.81523 0.82914 0.36386
 N97 N 0.82761 0.81679 0.36407
 C98 C 0.82499 0.80624 0.37820
 C99 C 0.81027 0.81226 0.38732
 C100 C 0.80444 0.82677 0.37787
 H101 H 0.83325 0.79506 0.38159
 H102 H 0.79314 0.83498 0.38105
 H103 H 0.82624 0.82718 0.33217
 H104 H 0.84066 0.84187 0.34578
 N105 N 0.63554 0.68593 0.32944
 N106 N 0.63536 0.67339 0.31738
 C107 C 0.62139 0.67594 0.30659
 C108 C 0.61235 0.69087 0.31225
 C109 C 0.62169 0.69684 0.32676
 H110 H 0.61804 0.66752 0.29553
 H111 H 0.61859 0.70828 0.33479
 Cu112 Cu 0.65332 0.65488 0.31701
 Cu113 Cu 0.65366 0.68723 0.34770
 Cu114 Cu 0.68624 0.65494 0.34699
 N115 N 0.67211 0.63722 0.31649
 N116 N 0.68487 0.63730 0.32832
 C117 C 0.69609 0.62388 0.32499
 C118 C 0.69007 0.61489 0.31021
 C119 C 0.67483 0.62370 0.30517
 H120 H 0.70777 0.62099 0.33273
 H121 H 0.66643 0.62047 0.29405
 N122 N 0.68545 0.67389 0.36484
 N123 N 0.67311 0.68627 0.36505
 C124 C 0.67634 0.69740 0.37860
 C125 C 0.69139 0.69175 0.38730
 C126 C 0.69682 0.67679 0.37825
 H127 H 0.66838 0.70882 0.38193
 H128 H 0.70824 0.66866 0.38113
 H129 H 0.67310 0.67463 0.33311
 H130 H 0.65944 0.66055 0.34818
 N131 N 0.63765 0.18365 -0.16980
 N132 N 0.63742 0.17131 -0.18207
 C133 C 0.62340 0.17405 -0.19278
 C134 C 0.61441 0.18892 -0.18685
 C135 C 0.62381 0.19462 -0.17227
 H136 H 0.62001 0.16583 -0.20397
 H137 H 0.62076 0.20594 -0.16405
 Cu138 Cu 0.65565 0.15307 -0.18275
 Cu139 Cu 0.65581 0.18457 -0.15148
 Cu140 Cu 0.68824 0.15201 -0.15259
 N141 N 0.67388 0.13482 -0.18339
 N142 N 0.68661 0.13457 -0.17153
 C143 C 0.69757 0.12094 -0.17493
 C144 C 0.69139 0.11215 -0.18980
 C145 C 0.67633 0.12131 -0.19479
 H146 H 0.70914 0.11778 -0.16712
 H147 H 0.66788 0.11836 -0.20596
 N148 N 0.68759 0.17080 -0.13447
 N149 N 0.67527 0.18321 -0.13410
 C150 C 0.67830 0.19394 -0.12019
 C151 C 0.69323 0.18796 -0.11138
 C152 C 0.69876 0.17331 -0.12079
 H153 H 0.67015 0.20515 -0.11669
 H154 H 0.71006 0.16505 -0.11776
 H155 H 0.67545 0.17218 -0.16588
 H156 H 0.66153 0.15786 -0.15140
 N157 N 0.13712 0.68473 -0.17124
 N158 N 0.13738 0.67225 -0.18335
 C159 C 0.12350 0.67455 -0.19433
 C160 C 0.11409 0.68926 -0.18871
 C161 C 0.12310 0.69535 -0.17405
 H162 H 0.12042 0.66607 -0.20542
 H163 H 0.11962 0.70666 -0.16599
 Cu164 Cu 0.15571 0.65411 -0.18338
 Cu165 Cu 0.15476 0.68620 -0.15257
 Cu166 Cu 0.18720 0.65371 -0.15193
 N167 N 0.17378 0.63575 -0.18264
 N168 N 0.18606 0.63568 -0.17031
 C169 C 0.19675 0.62162 -0.17275
 C170 C 0.19089 0.61239 -0.18739
 C171 C 0.17626 0.62172 -0.19336
 H172 H 0.20795 0.61829 -0.16448
 H173 H 0.16800 0.61854 -0.20459
 N174 N 0.18609 0.67309 -0.13448
 N175 N 0.17371 0.68543 -0.13473
 C176 C 0.17630 0.69651 -0.12102
 C177 C 0.19098 0.69091 -0.11171
 C178 C 0.19689 0.67601 -0.12061
 H179 H 0.16806 0.70779 -0.11787
 H180 H 0.20808 0.66779 -0.11715
 H181 H 0.17489 0.67357 -0.16618
 H182 H 0.16042 0.65945 -0.15195
 N183 N 0.13608 0.18611 0.33028
 N184 N 0.13578 0.17376 0.31803
 C185 C 0.12177 0.17652 0.30736
 C186 C 0.11282 0.19140 0.31328
 C187 C 0.12227 0.19712 0.32784
 H188 H 0.11830 0.16825 0.29622
 H189 H 0.11924 0.20843 0.33607
 Cu190 Cu 0.15365 0.15520 0.31727
 Cu191 Cu 0.15419 0.18679 0.34861
 Cu192 Cu 0.18655 0.15429 0.34725
 N193 N 0.17224 0.13734 0.31640
 N194 N 0.18504 0.13709 0.32819
 C195 C 0.19608 0.12359 0.32460
 C196 C 0.18988 0.11490 0.30972
 C197 C 0.17474 0.12397 0.30488
 H198 H 0.20774 0.12042 0.33227
 H199 H 0.16622 0.12098 0.29377
 N200 N 0.18588 0.17284 0.36552
 N201 N 0.17359 0.18526 0.36599
 C202 C 0.17665 0.19586 0.37999
 C203 C 0.19157 0.18978 0.38874
 C204 C 0.19706 0.17520 0.37921
 H205 H 0.16854 0.20709 0.38356
 H206 H 0.20837 0.16692 0.38214
 H207 H 0.17364 0.17439 0.33379
 H208 H 0.15983 0.16007 0.34851
 N209 N 0.63636 0.31404 0.67237
 N210 N 0.63600 0.32663 0.68437
 C211 C 0.62220 0.32379 0.69533
 C212 C 0.61346 0.30862 0.68982
 C213 C 0.62282 0.30282 0.67524
 H214 H 0.61874 0.33219 0.70637
 H215 H 0.61990 0.29129 0.66728
 Cu216 Cu 0.65352 0.34558 0.68442
 Cu217 Cu 0.65423 0.31320 0.65384
 Cu218 Cu 0.68600 0.34628 0.65388
 N219 N 0.67187 0.36373 0.68460
 N220 N 0.68445 0.36395 0.67258
 C221 C 0.69538 0.37765 0.67575
 C222 C 0.68936 0.38650 0.69063
 C223 C 0.67441 0.37732 0.69588
 H224 H 0.70687 0.38083 0.66784
 H225 H 0.66611 0.38032 0.70715
 N226 N 0.68539 0.32723 0.63608
 N227 N 0.67333 0.31458 0.63615
 C228 C 0.67654 0.30345 0.62260
 C229 C 0.69134 0.30940 0.61358
 C230 C 0.69658 0.32448 0.62246
 H231 H 0.66870 0.29188 0.61958
 H232 H 0.70780 0.33277 0.61922
 H233 H 0.67365 0.32638 0.66803
 H234 H 0.65938 0.34005 0.65316
 N235 N 0.63542 0.81464 1.17174
 N236 N 0.63554 0.82728 1.18369
 C237 C 0.62210 0.82459 1.19511
 C238 C 0.61311 0.80949 1.19005
 C239 C 0.62191 0.80351 1.17512
 H240 H 0.61907 0.83291 1.20636
 H241 H 0.61885 0.79192 1.16733
 Cu242 Cu 0.65339 0.84587 1.18335
 Cu243 Cu 0.65294 0.81333 1.15288
 Cu244 Cu 0.68549 0.84564 1.15241
 N245 N 0.67211 0.86358 1.18315
 N246 N 0.68458 0.86343 1.17101
 C247 C 0.69587 0.87688 1.17405
 C248 C 0.69023 0.88591 1.18889
 C249 C 0.67507 0.87713 1.19435
 H250 H 0.70743 0.87985 1.16613
 H251 H 0.66688 0.88027 1.20565
 N252 N 0.68420 0.82654 1.13470
 N253 N 0.67180 0.81423 1.13488
 C254 C 0.67462 0.80301 1.12131
 C255 C 0.68949 0.80848 1.11219
 C256 C 0.69523 0.82347 1.12102
 H257 H 0.66654 0.79159 1.11827
 H258 H 0.70663 0.83150 1.11782
 H259 H 0.67282 0.82608 1.16679
 H260 H 0.65871 0.84004 1.15204
 N261 N 0.13506 0.31361 1.17145
 N262 N 0.13514 0.32589 1.18377
 C263 C 0.12125 0.32329 1.19465
 C264 C 0.11199 0.30859 1.18878
 C265 C 0.12113 0.30280 1.17406
 H266 H 0.11808 0.33155 1.20588
 H267 H 0.11781 0.29157 1.16583
 Cu268 Cu 0.15326 0.34417 1.18427
 Cu269 Cu 0.15287 0.31267 1.15286
 Cu270 Cu 0.18482 0.34564 1.15289
 N271 N 0.17115 0.36271 1.18403
 N272 N 0.18339 0.36323 1.17166
 C273 C 0.19420 0.37705 1.17472
 C274 C 0.18847 0.38564 1.18979
 C275 C 0.17376 0.37622 1.19537
 H276 H 0.20554 0.38053 1.16669
 H277 H 0.16570 0.37885 1.20689
 N278 N 0.18406 0.32660 1.13506
 N279 N 0.17196 0.31399 1.13516
 C280 C 0.17515 0.30281 1.12165
 C281 C 0.18999 0.30868 1.11264
 C282 C 0.19526 0.32377 1.12148
 H283 H 0.16731 0.29123 1.11870
 H284 H 0.20655 0.33198 1.11826
 H285 H 0.17282 0.32537 1.16674
 H286 H 0.15815 0.33952 1.15275
 N287 N 0.13616 0.81449 0.67111
 N288 N 0.13606 0.82708 0.68312
 C289 C 0.12265 0.82414 0.69450
 C290 C 0.11391 0.80894 0.68933
 C291 C 0.12282 0.80315 0.67441
 H292 H 0.11947 0.83234 0.70579
 H293 H 0.11994 0.79156 0.66655
 Cu294 Cu 0.15376 0.84575 0.68273
 Cu295 Cu 0.15369 0.81359 0.65221
 Cu296 Cu 0.18552 0.84675 0.65168
 N297 N 0.17148 0.86440 0.68241
 N298 N 0.18399 0.86456 0.67030
 C299 C 0.19462 0.87859 0.67306
 C300 C 0.18841 0.88772 0.68769
 C301 C 0.17372 0.87836 0.69327
 H302 H 0.20591 0.88189 0.66492
 H303 H 0.16536 0.88152 0.70445
 N304 N 0.18466 0.82752 0.63401
 N305 N 0.17249 0.81497 0.63420
 C306 C 0.17522 0.80405 0.62039
 C307 C 0.18977 0.80996 0.61107
 C308 C 0.19547 0.82488 0.62007
 H309 H 0.16718 0.79264 0.61720
 H310 H 0.20654 0.83327 0.61666
 H311 H 0.17357 0.82677 0.66576
 H312 H 0.15899 0.84051 0.65133
 N313 N 0.36296 0.68329 0.67102
 N314 N 0.36270 0.67064 0.68295
 C315 C 0.37640 0.67294 0.69415
 C316 C 0.38571 0.68780 0.68894
 C317 C 0.37679 0.69405 0.67420
 H318 H 0.37949 0.66445 0.70524
 H319 H 0.38011 0.70548 0.66627
 Cu320 Cu 0.34455 0.65238 0.68250
 Cu321 Cu 0.34545 0.68488 0.65219
 Cu322 Cu 0.31266 0.65273 0.65145
 N323 N 0.32591 0.63460 0.68212
 N324 N 0.31354 0.63474 0.66989
 C325 C 0.30254 0.62096 0.67252
 C326 C 0.30830 0.61171 0.68719
 C327 C 0.32318 0.62075 0.69299
 H328 H 0.29121 0.61782 0.66435
 H329 H 0.33145 0.61745 0.70417
 N330 N 0.31404 0.67203 0.63396
 N331 N 0.32656 0.68423 0.63421
 C332 C 0.32387 0.69555 0.62071
 C333 C 0.30891 0.69022 0.61158
 C334 C 0.30305 0.67529 0.62032
 H335 H 0.33213 0.70687 0.61783
 H336 H 0.29156 0.66745 0.61694
 H337 H 0.32537 0.67225 0.66584
 H338 H 0.33949 0.65821 0.65118
 N339 N 0.36513 0.18452 1.17285
 N340 N 0.36486 0.17192 1.18485
 C341 C 0.37863 0.17419 1.19597
 C342 C 0.38800 0.18896 1.19064
 C343 C 0.37906 0.19519 1.17590
 H344 H 0.38167 0.16578 1.20714
 H345 H 0.38243 0.20654 1.16787
 Cu346 Cu 0.34629 0.15410 1.18481
 Cu347 Cu 0.34758 0.18604 1.15398
 Cu348 Cu 0.31463 0.15400 1.15370
 N349 N 0.32776 0.13623 1.18466
 N350 N 0.31539 0.13633 1.17243
 C351 C 0.30407 0.12292 1.17541
 C352 C 0.30960 0.11396 1.19040
 C353 C 0.32465 0.12276 1.19593
 H354 H 0.29263 0.12003 1.16731
 H355 H 0.33264 0.11959 1.20737
 N356 N 0.31616 0.17299 1.13591
 N357 N 0.32865 0.18522 1.13601
 C358 C 0.32613 0.19614 1.12214
 C359 C 0.31139 0.19051 1.11291
 C360 C 0.30538 0.17581 1.12201
 H361 H 0.33444 0.20732 1.11886
 H362 H 0.29409 0.16766 1.11873
 H363 H 0.32736 0.17374 1.16761
 H364 H 0.34147 0.15940 1.15333
 N365 N 0.86441 0.68477 1.17158
 N366 N 0.86382 0.67261 1.18401
 C367 C 0.87734 0.67525 1.19536
 C368 C 0.88683 0.68989 1.18973
 C369 C 0.87827 0.69555 1.17461
 H370 H 0.87993 0.66724 1.20692
 H371 H 0.88180 0.70682 1.16652
 Cu372 Cu 0.84522 0.65476 1.18428
 Cu373 Cu 0.84683 0.68614 1.15273
 Cu374 Cu 0.81380 0.65426 1.15277
 N375 N 0.82688 0.63665 1.18380
 N376 N 0.81465 0.63655 1.17143
 C377 C 0.80378 0.62268 1.17403
 C378 C 0.80946 0.61359 1.18881
 C379 C 0.82418 0.62282 1.19472
 H380 H 0.79257 0.61937 1.16575
 H381 H 0.83238 0.61967 1.20600
 N382 N 0.81517 0.67323 1.13497
 N383 N 0.82780 0.68532 1.13483
 C384 C 0.82498 0.69642 1.12115
 C385 C 0.80988 0.69108 1.11232
 C386 C 0.80401 0.67632 1.12143
 H387 H 0.83321 0.70766 1.11787
 H388 H 0.79244 0.66844 1.11851
 H389 H 0.82650 0.67426 1.16660
 H390 H 0.84069 0.65951 1.15273
 N391 N 0.86454 0.18321 0.67329
 N392 N 0.86386 0.17077 0.68542
 C393 C 0.87752 0.17291 0.69670
 C394 C 0.88723 0.18747 0.69135
 C395 C 0.87859 0.19370 0.67643
 H396 H 0.88031 0.16451 0.70794
 H397 H 0.88225 0.20491 0.66835
 Cu398 Cu 0.84525 0.15292 0.68512
 Cu399 Cu 0.84736 0.18484 0.65415
 Cu400 Cu 0.81456 0.15278 0.65284
 N401 N 0.82697 0.13479 0.68394
 N402 N 0.81503 0.13481 0.67128
 C403 C 0.80414 0.12087 0.67348
 C404 C 0.80951 0.11162 0.68828
 C405 C 0.82407 0.12083 0.69462
 H406 H 0.79312 0.11763 0.66492
 H407 H 0.83201 0.11758 0.70606
 N408 N 0.81630 0.17205 0.63536
 N409 N 0.82880 0.18426 0.63582
 C410 C 0.82649 0.19540 0.62209
 C411 C 0.81187 0.18996 0.61256
 C412 C 0.80572 0.17510 0.62135
 H413 H 0.83484 0.20665 0.61913
 H414 H 0.79447 0.16703 0.61778
 H415 H 0.82679 0.17252 0.66729
 H416 H 0.84144 0.15812 0.65352
 N417 N 0.31699 0.36426 0.67382
 N418 N 0.32908 0.36403 0.68634
 C419 C 0.32634 0.37785 0.69729
 C420 C 0.31176 0.38717 0.69133
 C421 C 0.30614 0.37815 0.67639
 H422 H 0.33437 0.38103 0.70869
 H423 H 0.29512 0.38148 0.66789
 Cu424 Cu 0.34738 0.34592 0.68663
 Cu425 Cu 0.31635 0.34673 0.65489
 Cu426 Cu 0.34905 0.31442 0.65539
 N427 N 0.36570 0.32780 0.68692
 N428 N 0.36626 0.31554 0.67460
 C429 C 0.38024 0.30489 0.67756
 C430 C 0.38896 0.31084 0.69256
 C431 C 0.37937 0.32538 0.69814
 H432 H 0.38382 0.29379 0.66929
 H433 H 0.38228 0.33362 0.70947
 N434 N 0.33044 0.31557 0.63710
 N435 N 0.31799 0.32785 0.63694
 C436 C 0.30737 0.32517 0.62289
 C437 C 0.31345 0.31049 0.61375
 C438 C 0.32806 0.30477 0.62311
 H439 H 0.29613 0.33336 0.61953
 H440 H 0.33635 0.29354 0.61988
 H441 H 0.32855 0.32666 0.66880
 H442 H 0.34309 0.34112 0.65505
 N443 N 0.31588 0.86602 0.17338
 N444 N 0.32816 0.86566 0.18569
 C445 C 0.32573 0.87948 0.19670
 C446 C 0.31112 0.88890 0.19101
 C447 C 0.30517 0.87997 0.17616
 H448 H 0.33396 0.88254 0.20800
 H449 H 0.29400 0.88337 0.16790
 Cu450 Cu 0.34621 0.84731 0.18602
 Cu451 Cu 0.31477 0.84859 0.15448
 Cu452 Cu 0.34724 0.81617 0.15420
 N453 N 0.36458 0.82929 0.18538
 N454 N 0.36486 0.81713 0.17296
 C455 C 0.37886 0.80641 0.17557
 C456 C 0.38788 0.81225 0.19042
 C457 C 0.37847 0.82678 0.19628
 H458 H 0.38221 0.79530 0.16721
 H459 H 0.38158 0.83490 0.20764
 N460 N 0.32826 0.81746 0.13635
 N461 N 0.31591 0.82983 0.13645
 C462 C 0.30505 0.82729 0.12254
 C463 C 0.31082 0.81266 0.11327
 C464 C 0.32557 0.80672 0.12239
 H465 H 0.29378 0.83551 0.11927
 H466 H 0.33382 0.79551 0.11907
 H467 H 0.32717 0.82839 0.16807
 H468 H 0.34165 0.84300 0.15438
 N469 N 0.81618 0.36594 0.17370
 N470 N 0.82831 0.36542 0.18617
 C471 C 0.82584 0.37916 0.19726
 C472 C 0.81140 0.38876 0.19145
 C473 C 0.80557 0.38000 0.17644
 H474 H 0.83396 0.38209 0.20867
 H475 H 0.79455 0.38357 0.16804
 Cu476 Cu 0.84629 0.34699 0.18624
 Cu477 Cu 0.81507 0.34845 0.15472
 Cu478 Cu 0.84730 0.31565 0.15489
 N479 N 0.86441 0.32872 0.18629
 N480 N 0.86473 0.31652 0.17389
 C481 C 0.87863 0.30573 0.17663
 C482 C 0.88754 0.31151 0.19156
 C483 C 0.87817 0.32611 0.19734
 H484 H 0.88203 0.29465 0.16825
 H485 H 0.88129 0.33426 0.20868
 N486 N 0.82851 0.31706 0.13684
 N487 N 0.81625 0.32953 0.13674
 C488 C 0.80526 0.32671 0.12298
 C489 C 0.81084 0.31179 0.11403
 C490 C 0.82564 0.30601 0.12315
 H491 H 0.79390 0.33481 0.11972
 H492 H 0.83367 0.29455 0.12017
 H493 H 0.82710 0.32810 0.16846
 H494 H 0.84176 0.34240 0.15467
 N495 N 0.81712 0.86430 0.67282
 N496 N 0.82919 0.86389 0.68535
 C497 C 0.82658 0.87765 0.69639
 C498 C 0.81210 0.88714 0.69048
 C499 C 0.80640 0.87828 0.67547
 H500 H 0.83463 0.88067 0.70782
 H501 H 0.79541 0.88175 0.66701
 Cu502 Cu 0.84729 0.84558 0.68556
 Cu503 Cu 0.81627 0.84686 0.65380
 Cu504 Cu 0.84867 0.81424 0.65421
 N505 N 0.86547 0.82737 0.68575
 N506 N 0.86590 0.81513 0.67339
 C507 C 0.87982 0.80438 0.67627
 C508 C 0.88862 0.81025 0.69124
 C509 C 0.87916 0.82484 0.69690
 H510 H 0.88332 0.79330 0.66794
 H511 H 0.88221 0.83306 0.70821
 N512 N 0.83008 0.81560 0.63594
 N513 N 0.81774 0.82799 0.63579
 C514 C 0.80711 0.82539 0.62171
 C515 C 0.81309 0.81067 0.61257
 C516 C 0.82764 0.80482 0.62195
 H517 H 0.79594 0.83367 0.61834
 H518 H 0.83583 0.79353 0.61873
 H519 H 0.82823 0.82669 0.66763
 H520 H 0.84292 0.84106 0.65395
 N521 N 0.68353 0.63607 0.67160
 N522 N 0.67098 0.63614 0.68367
 C523 C 0.67331 0.62222 0.69455
 C524 C 0.68809 0.61295 0.68904
 C525 C 0.69427 0.62213 0.67441
 H526 H 0.66490 0.61895 0.70567
 H527 H 0.70564 0.61892 0.66633
 Cu528 Cu 0.65294 0.65453 0.68379
 Cu529 Cu 0.68487 0.65390 0.65294
 Cu530 Cu 0.65255 0.68663 0.65321
 N531 N 0.63495 0.67297 0.68407
 N532 N 0.63491 0.68551 0.67201
 C533 C 0.62129 0.69658 0.67510
 C534 C 0.61232 0.69068 0.68995
 C535 C 0.62133 0.67569 0.69529
 H536 H 0.61825 0.70807 0.66714
 H537 H 0.61814 0.66742 0.70652
 N538 N 0.67151 0.68550 0.63531
 N539 N 0.68385 0.67311 0.63524
 C540 C 0.69478 0.67593 0.62143
 C541 C 0.68902 0.69081 0.61241
 C542 C 0.67427 0.69650 0.62156
 H543 H 0.70602 0.66769 0.61815
 H544 H 0.66613 0.70783 0.61833
 H545 H 0.67250 0.67377 0.66688
 H546 H 0.65819 0.65978 0.65243
 N547 N 0.68484 0.13614 0.17198
 N548 N 0.67226 0.13597 0.18401
 C549 C 0.67509 0.12232 0.19513
 C550 C 0.69021 0.11348 0.18977
 C551 C 0.69605 0.12262 0.17500
 H552 H 0.66685 0.11903 0.20637
 H553 H 0.70761 0.11977 0.16706
 Cu554 Cu 0.65361 0.15382 0.18412
 Cu555 Cu 0.68601 0.15398 0.15348
 Cu556 Cu 0.65380 0.18659 0.15386
 N557 N 0.63601 0.17270 0.18445
 N558 N 0.63620 0.18544 0.17259
 C559 C 0.62280 0.19672 0.17587
 C560 C 0.61373 0.19077 0.19063
 C561 C 0.62246 0.17551 0.19571
 H562 H 0.61998 0.20840 0.16811
 H563 H 0.61916 0.16715 0.20685
 N564 N 0.67270 0.18554 0.13597
 N565 N 0.68501 0.17313 0.13584
 C566 C 0.69592 0.17593 0.12202
 C567 C 0.69015 0.19081 0.11303
 C568 C 0.67544 0.19654 0.12222
 H569 H 0.70712 0.16766 0.11871
 H570 H 0.66731 0.20788 0.11901
 H571 H 0.67338 0.17352 0.16793
 H572 H 0.65929 0.15980 0.15291
 N573 N 0.18421 0.63557 0.17184
 N574 N 0.17141 0.63573 0.18364
 C575 C 0.17376 0.62210 0.19489
 C576 C 0.18883 0.61299 0.18988
 C577 C 0.19511 0.62189 0.17516
 H578 H 0.16529 0.61906 0.20602
 H579 H 0.20674 0.61875 0.16743
 Cu580 Cu 0.15338 0.65418 0.18322
 Cu581 Cu 0.18607 0.65320 0.15315
 Cu582 Cu 0.15396 0.68607 0.15229
 N583 N 0.13528 0.67255 0.18259
 N584 N 0.13571 0.68506 0.17051
 C585 C 0.12197 0.69614 0.17307
 C586 C 0.11244 0.69032 0.18753
 C587 C 0.12125 0.67527 0.19327
 H588 H 0.11907 0.70760 0.16500
 H589 H 0.11776 0.66695 0.20435
 N590 N 0.17351 0.68472 0.13499
 N591 N 0.18568 0.67217 0.13528
 C592 C 0.19694 0.67469 0.12167
 C593 C 0.19162 0.68949 0.11239
 C594 C 0.17672 0.69555 0.12120
 H595 H 0.20815 0.66632 0.11859
 H596 H 0.16870 0.70689 0.11778
 H597 H 0.17337 0.67334 0.16666
 H598 H 0.15937 0.65932 0.15193
 N599 N 0.18401 0.13611 0.67107
 N600 N 0.17161 0.13592 0.68328
 C601 C 0.17420 0.12183 0.69392
 C602 C 0.18902 0.11274 0.68799
 C603 C 0.19486 0.12218 0.67348
 H604 H 0.16589 0.11842 0.70506
 H605 H 0.20617 0.11907 0.66527
 Cu606 Cu 0.15326 0.15409 0.68387
 Cu607 Cu 0.18517 0.15427 0.65283
 Cu608 Cu 0.15272 0.18672 0.65354
 N609 N 0.13509 0.17246 0.68410
 N610 N 0.13501 0.18513 0.67217
 C611 C 0.12107 0.19585 0.67509
 C612 C 0.11192 0.18964 0.68962
 C613 C 0.12118 0.17475 0.69505
 H614 H 0.11774 0.20730 0.66717
 H615 H 0.11798 0.16616 0.70602
 N616 N 0.17176 0.18607 0.63573
 N617 N 0.18413 0.17371 0.63549
 C618 C 0.19501 0.17667 0.62168
 C619 C 0.18917 0.19159 0.61279
 C620 C 0.17444 0.19719 0.62205
 H621 H 0.20620 0.16844 0.61826
 H622 H 0.16622 0.20848 0.61889
 H623 H 0.17261 0.17388 0.66725
 H624 H 0.15837 0.16000 0.65256
 N625 N 0.31416 0.63459 0.32575
 N626 N 0.32672 0.63447 0.31370
 C627 C 0.32375 0.62100 0.30241
 C628 C 0.30860 0.61221 0.30770
 C629 C 0.30284 0.62120 0.32259
 H630 H 0.33201 0.61771 0.29119
 H631 H 0.29132 0.61827 0.33056
 Cu632 Cu 0.34593 0.65169 0.31409
 Cu633 Cu 0.31338 0.65204 0.34465
 Cu634 Cu 0.34630 0.68385 0.34510
 N635 N 0.36395 0.67014 0.31427
 N636 N 0.36403 0.68260 0.32643
 C637 C 0.37797 0.69335 0.32370
 C638 C 0.38716 0.68732 0.30902
 C639 C 0.37787 0.67260 0.30337
 H640 H 0.38120 0.70461 0.33190
 H641 H 0.38114 0.66427 0.29221
 N642 N 0.32722 0.68289 0.36287
 N643 N 0.31470 0.67070 0.36271
 C644 C 0.30371 0.67349 0.37647
 C645 C 0.30954 0.68811 0.38571
 C646 C 0.32450 0.69377 0.37673
 H647 H 0.29226 0.66549 0.37961
 H648 H 0.33284 0.70492 0.38004
 H649 H 0.32675 0.67157 0.33066
 H650 H 0.34047 0.65719 0.34546
 N651 N 0.31526 0.13461 0.82642
 N652 N 0.32779 0.13502 0.81434
 C653 C 0.32510 0.12171 0.80278
 C654 C 0.31013 0.11252 0.80793
 C655 C 0.30423 0.12106 0.82302
 H656 H 0.33334 0.11886 0.79143
 H657 H 0.29284 0.11772 0.83100
 Cu658 Cu 0.34614 0.15310 0.81502
 Cu659 Cu 0.31407 0.15161 0.84572
 Cu660 Cu 0.34696 0.18365 0.84727
 N661 N 0.36455 0.17111 0.81589
 N662 N 0.36483 0.18296 0.82864
 C663 C 0.37868 0.19390 0.82613
 C664 C 0.38750 0.18873 0.81098
 C665 C 0.37819 0.17419 0.80480
 H666 H 0.38205 0.20491 0.83463
 H667 H 0.38104 0.16649 0.79309
 N668 N 0.32768 0.18209 0.86485
 N669 N 0.31514 0.16993 0.86422
 C670 C 0.30398 0.17236 0.87791
 C671 C 0.30973 0.18672 0.88761
 C672 C 0.32481 0.19259 0.87897
 H673 H 0.29248 0.16430 0.88072
 H674 H 0.33310 0.20363 0.88267
 H675 H 0.32696 0.17204 0.83276
 H676 H 0.34090 0.15707 0.84660
 N677 N 0.81647 0.63540 0.82673
 N678 N 0.82878 0.63570 0.81443
 C679 C 0.82625 0.62197 0.80334
 C680 C 0.81160 0.61259 0.80898
 C681 C 0.80569 0.62150 0.82389
 H682 H 0.83446 0.61892 0.79202
 H683 H 0.79450 0.61813 0.83214
 Cu684 Cu 0.84694 0.65395 0.81428
 Cu685 Cu 0.81547 0.65289 0.84568
 Cu686 Cu 0.84796 0.68537 0.84568
 N687 N 0.86502 0.67229 0.81432
 N688 N 0.86533 0.68454 0.82666
 C689 C 0.87899 0.69557 0.82361
 C690 C 0.88771 0.68995 0.80858
 C691 C 0.87851 0.67511 0.80299
 H692 H 0.88236 0.70689 0.83170
 H693 H 0.88134 0.66701 0.79156
 N694 N 0.82923 0.68403 0.86378
 N695 N 0.81678 0.67175 0.86372
 C696 C 0.80594 0.67443 0.87763
 C697 C 0.81189 0.68910 0.88688
 C698 C 0.82665 0.69481 0.87774
 H699 H 0.79462 0.66628 0.88079
 H700 H 0.83486 0.70604 0.88109
 H701 H 0.82773 0.67300 0.83190
 H702 H 0.84214 0.65860 0.84582
 N703 N 0.81454 0.13480 0.32642
 N704 N 0.82697 0.13526 0.31424
 C705 C 0.82433 0.12185 0.30278
 C706 C 0.80947 0.11256 0.30805
 C707 C 0.80359 0.12114 0.32314
 H708 H 0.83253 0.11902 0.29139
 H709 H 0.79221 0.11781 0.33114
 Cu710 Cu 0.84519 0.15351 0.31460
 Cu711 Cu 0.81335 0.15193 0.34562
 Cu712 Cu 0.84597 0.18423 0.34673
 N713 N 0.86354 0.17160 0.31540
 N714 N 0.86374 0.18355 0.32804
 C715 C 0.87751 0.19457 0.32544
 C716 C 0.88641 0.18928 0.31038
 C717 C 0.87720 0.17462 0.30432
 H718 H 0.88077 0.20572 0.33380
 H719 H 0.88013 0.16682 0.29270
 N720 N 0.82682 0.18267 0.36443
 N721 N 0.81439 0.17039 0.36399
 C722 C 0.80331 0.17286 0.37776
 C723 C 0.80901 0.18736 0.38728
 C724 C 0.82397 0.19327 0.37847
 H725 H 0.79190 0.16473 0.38071
 H726 H 0.83220 0.20442 0.38201
 H727 H 0.82596 0.17236 0.33244
 H728 H 0.84017 0.15754 0.34620
 N729 N 0.68594 0.36474 0.32805
 N730 N 0.67348 0.36492 0.31590
 C731 C 0.67644 0.37852 0.30476
 C732 C 0.69159 0.38730 0.31026
 C733 C 0.69723 0.37821 0.32506
 H734 H 0.66825 0.38171 0.29349
 H735 H 0.70878 0.38115 0.33301
 Cu736 Cu 0.65476 0.34719 0.31565
 Cu737 Cu 0.68678 0.34691 0.34664
 Cu738 Cu 0.65411 0.31471 0.34612
 N739 N 0.63678 0.32870 0.31528
 N740 N 0.63662 0.31610 0.32727
 C741 C 0.62310 0.30499 0.32394
 C742 C 0.61429 0.31093 0.30901
 C743 C 0.62332 0.32600 0.30388
 H744 H 0.62004 0.29343 0.33177
 H745 H 0.62029 0.33429 0.29261
 N746 N 0.67296 0.31551 0.36411
 N747 N 0.68542 0.32776 0.36431
 C748 C 0.69648 0.32456 0.37793
 C749 C 0.69069 0.30954 0.38669
 C750 C 0.67577 0.30419 0.37760
 H751 H 0.70794 0.33250 0.38113
 H752 H 0.66768 0.29276 0.38057
 H753 H 0.67405 0.32734 0.33228
 H754 H 0.65995 0.34137 0.34697
 N755 N 0.68296 0.86381 0.82703
 N756 N 0.67054 0.86381 0.81483
 C757 C 0.67306 0.87775 0.80400
 C758 C 0.68781 0.88694 0.80970
 C759 C 0.69379 0.87771 0.82437
 H760 H 0.66481 0.88106 0.79278
 H761 H 0.70506 0.88087 0.83260
 Cu762 Cu 0.65248 0.84544 0.81439
 Cu763 Cu 0.68407 0.84592 0.84563
 Cu764 Cu 0.65173 0.81326 0.84490
 N765 N 0.63441 0.82706 0.81394
 N766 N 0.63429 0.81449 0.82596
 C767 C 0.62075 0.80338 0.82270
 C768 C 0.61192 0.80928 0.80777
 C769 C 0.62093 0.82434 0.80257
 H770 H 0.61767 0.79187 0.83061
 H771 H 0.61787 0.83260 0.79130
 N772 N 0.67050 0.81427 0.86300
 N773 N 0.68284 0.82665 0.86325
 C774 C 0.69360 0.82381 0.87718
 C775 C 0.68771 0.80893 0.88612
 C776 C 0.67308 0.80325 0.87677
 H777 H 0.70478 0.83204 0.88060
 H778 H 0.66490 0.79193 0.87989
 H779 H 0.67186 0.82612 0.83147
 H780 H 0.65740 0.84007 0.84582
 N781 N 0.18473 0.36385 0.82756
 N782 N 0.17234 0.36361 0.81533
 C783 C 0.17510 0.37712 0.80402
 C784 C 0.19003 0.38627 0.80951
 C785 C 0.19576 0.37748 0.82446
 H786 H 0.16694 0.38000 0.79264
 H787 H 0.20717 0.38078 0.83246
 Cu788 Cu 0.15413 0.34536 0.81533
 Cu789 Cu 0.18581 0.34641 0.84651
 Cu790 Cu 0.15328 0.31397 0.84675
 N791 N 0.13583 0.32722 0.81561
 N792 N 0.13564 0.31496 0.82796
 C793 C 0.12192 0.30396 0.82509
 C794 C 0.11305 0.30960 0.81008
 C795 C 0.12222 0.32439 0.80443
 H796 H 0.11874 0.29270 0.83331
 H797 H 0.11919 0.33238 0.79295
 N798 N 0.17227 0.31526 0.86462
 N799 N 0.18462 0.32764 0.86458
 C800 C 0.19551 0.32501 0.87845
 C801 C 0.18979 0.31030 0.88763
 C802 C 0.17502 0.30442 0.87851
 H803 H 0.20680 0.33318 0.88172
 H804 H 0.16682 0.29316 0.88174
 H805 H 0.17337 0.32625 0.83284
 H806 H 0.15904 0.34068 0.84687
 N807 N 0.18412 0.86525 0.32641
 N808 N 0.17147 0.86513 0.31445
 C809 C 0.17417 0.87857 0.30303
 C810 C 0.18935 0.88752 0.30816
 C811 C 0.19528 0.87871 0.32301
 H812 H 0.16579 0.88153 0.29183
 H813 H 0.20693 0.88187 0.33072
 Cu814 Cu 0.15289 0.84723 0.31478
 Cu815 Cu 0.18531 0.84790 0.34538
 Cu816 Cu 0.15317 0.81519 0.34576
 N817 N 0.13530 0.82837 0.31493
 N818 N 0.13549 0.81588 0.32704
 C819 C 0.12209 0.80453 0.32397
 C820 C 0.11301 0.81021 0.30910
 C821 C 0.12175 0.82536 0.30373
 H822 H 0.11927 0.79300 0.33195
 H823 H 0.11845 0.83350 0.29244
 N824 N 0.17213 0.81671 0.36360
 N825 N 0.18433 0.82921 0.36351
 C826 C 0.19524 0.82676 0.37741
 C827 C 0.18965 0.81202 0.38664
 C828 C 0.17496 0.80595 0.37752
 H829 H 0.20644 0.83507 0.38065
 H830 H 0.16686 0.79463 0.38079
 H831 H 0.17270 0.82795 0.33142
 H832 H 0.15855 0.84198 0.34610
 C833 C 0.24202 1.00133 0.25583
 C834 C 0.25509 1.00120 0.24339
 C835 C 0.26248 1.01779 0.23584
 C836 C 0.26287 0.98448 0.23657
 C837 C 0.23422 0.98472 0.26294
 C838 C 0.23488 1.01808 0.26325
 C839 C 0.25155 1.03039 0.22763
 C840 C 0.25887 1.04573 0.22029
 C841 C 0.27734 1.04856 0.22072
 C842 C 0.28814 1.03591 0.22901
 C843 C 0.28082 1.02066 0.23640
 C844 C 0.26351 0.98158 0.21826
 C845 C 0.27104 0.96615 0.21147
 C846 C 0.27797 0.95317 0.22291
 C847 C 0.27776 0.95633 0.24122
 C848 C 0.27032 0.97187 0.24801
 C849 C 0.23402 0.98189 0.28126
 C850 C 0.22654 0.96653 0.28829
 C851 C 0.21892 0.95374 0.27717
 C852 C 0.21922 0.95655 0.25873
 C853 C 0.22665 0.97199 0.25172
 C854 C 0.24607 1.03068 0.27108
 C855 C 0.23905 1.04624 0.27823
 C856 C 0.22063 1.04929 0.27803
 C857 C 0.20953 1.03665 0.27016
 C858 C 0.21655 1.02116 0.26294
 H859 H 0.23738 1.02832 0.22688
 H860 H 0.24996 1.05530 0.21449
 H861 H 0.30236 1.03776 0.22964
 H862 H 0.28948 1.01107 0.24263
 H863 H 0.25815 0.99131 0.20920
 H864 H 0.27163 0.96466 0.19726
 H865 H 0.27043 0.97409 0.26216
 H866 H 0.23978 0.99156 0.29014
 H867 H 0.22663 0.96469 0.30250
 H868 H 0.21396 0.94686 0.24963
 H869 H 0.22651 0.97401 0.23754
 H870 H 0.26023 1.02846 0.27165
 H871 H 0.24815 1.05585 0.28368
 H872 H 0.19532 1.03868 0.26973
 H873 H 0.20768 1.01157 0.25702
 H874 H 0.28329 0.94671 0.25029
 C875 C 0.24298 0.49976 0.75660
 C876 C 0.25553 0.49965 0.74361
 C877 C 0.26253 0.51627 0.73571
 C878 C 0.26311 0.48288 0.73662
 C879 C 0.23531 0.48313 0.76382
 C880 C 0.23609 0.51650 0.76437
 C881 C 0.25118 0.52905 0.72838
 C882 C 0.25810 0.54455 0.72101
 C883 C 0.27647 0.54753 0.72070
 C884 C 0.28783 0.53442 0.72752
 C885 C 0.28090 0.51900 0.73497
 C886 C 0.26319 0.47982 0.71833
 C887 C 0.27058 0.46436 0.71142
 C888 C 0.27796 0.45150 0.72273
 C889 C 0.27819 0.45479 0.74103
 C890 C 0.27091 0.47036 0.74791
 C891 C 0.23557 0.48018 0.78213
 C892 C 0.22806 0.46489 0.78925
 C893 C 0.21993 0.45229 0.77827
 C894 C 0.21979 0.45521 0.75985
 C895 C 0.22726 0.47059 0.75273
 C896 C 0.24754 0.52926 0.77156
 C897 C 0.24072 0.54486 0.77887
 C898 C 0.22236 0.54793 0.77925
 C899 C 0.21092 0.53480 0.77258
 C900 C 0.21774 0.51932 0.76516
 H901 H 0.23698 0.52700 0.72836
 H902 H 0.24907 0.55430 0.71560
 H903 H 0.30207 0.53581 0.72690
 H904 H 0.28991 0.50915 0.74022
 H905 H 0.25752 0.48947 0.70936
 H906 H 0.27072 0.46279 0.69721
 H907 H 0.27143 0.47268 0.76204
 H908 H 0.24168 0.48971 0.79091
 H909 H 0.22848 0.46295 0.80345
 H910 H 0.21414 0.44567 0.75083
 H911 H 0.22673 0.47271 0.73858
 H912 H 0.26173 0.52714 0.77154
 H913 H 0.24982 0.55458 0.78417
 H914 H 0.19668 0.53622 0.77328
 H915 H 0.20866 0.50950 0.75999
 H916 H 0.28402 0.44528 0.75003
 C917 C 0.74386 -0.00066 0.24128
 C918 C 0.75674 -0.00070 0.25393
 C919 C 0.76430 -0.01740 0.26114
 C920 C 0.76394 0.01598 0.26149
 C921 C 0.73656 0.01605 0.23384
 C922 C 0.73616 -0.01731 0.23417
 C923 C 0.76457 -0.02007 0.27950
 C924 C 0.77172 -0.03554 0.28665
 C925 C 0.77866 -0.04879 0.27552
 C926 C 0.77882 -0.04587 0.25717
 C927 C 0.77175 -0.03030 0.25003
 C928 C 0.75282 0.02861 0.26940
 C929 C 0.75994 0.04405 0.27672
 C930 C 0.77840 0.04695 0.27662
 C931 C 0.78941 0.03428 0.26863
 C932 C 0.78228 0.01892 0.26124
 C933 C 0.74759 0.02879 0.22600
 C934 C 0.74039 0.04435 0.21897
 C935 C 0.72194 0.04728 0.21936
 C936 C 0.71101 0.03444 0.22718
 C937 C 0.71821 0.01897 0.23424
 C938 C 0.73613 -0.02021 0.21585
 C939 C 0.72864 -0.03556 0.20882
 C940 C 0.72084 -0.04826 0.21991
 C941 C 0.72098 -0.04539 0.23833
 C942 C 0.72841 -0.02995 0.24536
 H943 H 0.75919 -0.01015 0.28834
 H944 H 0.77200 -0.03686 0.30088
 H945 H 0.78435 -0.05570 0.24832
 H946 H 0.77213 -0.02831 0.23585
 H947 H 0.73864 0.02649 0.26991
 H948 H 0.75089 0.05366 0.28225
 H949 H 0.79109 0.00931 0.25526
 H950 H 0.76177 0.02671 0.22535
 H951 H 0.74938 0.05404 0.21350
 H952 H 0.69679 0.03634 0.22773
 H953 H 0.70946 0.00927 0.24016
 H954 H 0.74199 -0.01059 0.20699
 H955 H 0.72883 -0.03745 0.19461
 H956 H 0.71559 -0.05503 0.24742
 H957 H 0.72811 -0.02787 0.25953
 H958 H 0.80363 0.03619 0.26825
 C959 C 0.74277 0.50047 0.74305
 C960 C 0.75576 0.50039 0.75562
 C961 C 0.76290 0.48366 0.76315
 C962 C 0.76362 0.51702 0.76264
 C963 C 0.73525 0.51723 0.73592
 C964 C 0.73538 0.48380 0.73561
 C965 C 0.75174 0.47106 0.77104
 C966 C 0.75881 0.45548 0.77814
 C967 C 0.77714 0.45226 0.77760
 C968 C 0.78832 0.46522 0.77021
 C969 C 0.78124 0.48069 0.76301
 C970 C 0.76416 0.51976 0.78099
 C971 C 0.77162 0.53515 0.78797
 C972 C 0.77863 0.54823 0.77671
 C973 C 0.77851 0.54524 0.75836
 C974 C 0.77114 0.52975 0.75138
 C975 C 0.73495 0.51999 0.71758
 C976 C 0.72788 0.53554 0.71052
 C977 C 0.72102 0.54878 0.72172
 C978 C 0.72097 0.54579 0.74007
 C979 C 0.72795 0.53015 0.74711
 C980 C 0.74639 0.47092 0.72796
 C981 C 0.73917 0.45536 0.72101
 C982 C 0.72069 0.45258 0.72117
 C983 C 0.70977 0.46552 0.72884
 C984 C 0.71701 0.48100 0.73589
 H985 H 0.73759 0.47331 0.77174
 H986 H 0.74992 0.44590 0.78405
 H987 H 0.80256 0.46370 0.77018
 H988 H 0.79012 0.49040 0.75730
 H989 H 0.75877 0.50993 0.78993
 H990 H 0.77210 0.53652 0.80220
 H991 H 0.77133 0.52768 0.73721
 H992 H 0.74026 0.51007 0.70868
 H993 H 0.72759 0.53692 0.69629
 H994 H 0.71556 0.55563 0.74899
 H995 H 0.72765 0.52811 0.76129
 H996 H 0.76059 0.47290 0.72742
 H997 H 0.74816 0.44555 0.71575
 H998 H 0.69553 0.46372 0.72926
 H999 H 0.70827 0.49079 0.74167
 H1000 H 0.78407 0.55495 0.74940
 C1001 C 0.24160 0.49904 0.24246
 C1002 C 0.25480 0.49894 0.25477
 C1003 C 0.26260 0.48225 0.26163
 C1004 C 0.26217 0.51558 0.26226
 C1005 C 0.23434 0.51579 0.23515
 C1006 C 0.23374 0.48245 0.23539
 C1007 C 0.26355 0.47958 0.27996
 C1008 C 0.27114 0.46423 0.28683
 C1009 C 0.27784 0.45108 0.27546
 C1010 C 0.27736 0.45400 0.25711
 C1011 C 0.26985 0.46947 0.25024
 C1012 C 0.25121 0.52816 0.27046
 C1013 C 0.25846 0.54357 0.27769
 C1014 C 0.27691 0.54649 0.27724
 C1015 C 0.28777 0.53386 0.26897
 C1016 C 0.28050 0.51854 0.26165
 C1017 C 0.24543 0.52847 0.22731
 C1018 C 0.23834 0.54409 0.22039
 C1019 C 0.21991 0.54712 0.22080
 C1020 C 0.20890 0.53438 0.22866
 C1021 C 0.21601 0.51885 0.23568
 C1022 C 0.23335 0.47974 0.21705
 C1023 C 0.22567 0.46450 0.20999
 C1024 C 0.21803 0.45170 0.22109
 C1025 C 0.21849 0.45440 0.23954
 C1026 C 0.22614 0.46973 0.24659
 H1027 H 0.25839 0.48945 0.28900
 H1028 H 0.27199 0.46293 0.30105
 H1029 H 0.28274 0.44425 0.24808
 H1030 H 0.26975 0.47151 0.23606
 H1031 H 0.23704 0.52603 0.27126
 H1032 H 0.24949 0.55314 0.28341
 H1033 H 0.28919 0.50898 0.25542
 H1034 H 0.25959 0.52627 0.22658
 H1035 H 0.24739 0.55375 0.21496
 H1036 H 0.19470 0.53640 0.22923
 H1037 H 0.20721 0.50921 0.24162
 H1038 H 0.23908 0.48943 0.20817
 H1039 H 0.22561 0.46276 0.19577
 H1040 H 0.21318 0.44472 0.24863
 H1041 H 0.22610 0.47168 0.26079
 H1042 H 0.30198 0.53579 0.26829
 C1043 C 0.74276 0.99930 0.75594
 C1044 C 0.75558 0.99934 0.74320
 C1045 C 0.76266 1.01605 0.73557
 C1046 C 0.76342 0.98269 0.73619
 C1047 C 0.73524 0.98257 0.76312
 C1048 C 0.73563 1.01600 0.76358
 C1049 C 0.75146 1.02867 0.72778
 C1050 C 0.75851 1.04419 0.72054
 C1051 C 0.77686 1.04734 0.72087
 C1052 C 0.78807 1.03437 0.72820
 C1053 C 0.78101 1.01895 0.73551
 C1054 C 0.76399 0.97991 0.71785
 C1055 C 0.77155 0.96455 0.71090
 C1056 C 0.77862 0.95152 0.72220
 C1057 C 0.77845 0.95456 0.74054
 C1058 C 0.77100 0.97003 0.74748
 C1059 C 0.73503 0.97979 0.78147
 C1060 C 0.72801 0.96423 0.78855
 C1061 C 0.72109 0.95101 0.77737
 C1062 C 0.72096 0.95401 0.75902
 C1063 C 0.72789 0.96966 0.75196
 C1064 C 0.74688 1.02871 0.77117
 C1065 C 0.73989 1.04422 0.77849
 C1066 C 0.72143 1.04711 0.77873
 C1067 C 0.71028 1.03435 0.77110
 C1068 C 0.71728 1.01893 0.76370
 H1069 H 0.73729 1.02648 0.72725
 H1070 H 0.74960 1.05380 0.71470
 H1071 H 0.80231 1.03586 0.72808
 H1072 H 0.78992 1.00923 0.74116
 H1073 H 0.75855 0.98969 0.70888
 H1074 H 0.77205 0.96317 0.69668
 H1075 H 0.77119 0.97214 0.76164
 H1076 H 0.74039 0.98969 0.79035
 H1077 H 0.72779 0.96282 0.80278
 H1078 H 0.71553 0.94418 0.75011
 H1079 H 0.72753 0.97171 0.73779
 H1080 H 0.76107 1.02662 0.77141
 H1081 H 0.74903 1.05390 0.78372
 H1082 H 0.69605 1.03626 0.77100
 H1083 H 0.70837 1.00926 0.75798
 H1084 H 0.78405 0.94490 0.74954
 C1085 C 0.74363 0.50138 0.25741
 C1086 C 0.75639 0.50145 0.24462
 C1087 C 0.76337 0.51816 0.23693
 C1088 C 0.76417 0.48481 0.23755
 C1089 C 0.73622 0.48464 0.26463
 C1090 C 0.73630 0.51802 0.26495
 C1091 C 0.75206 0.53077 0.22926
 C1092 C 0.75900 0.54634 0.22203
 C1093 C 0.77734 0.54953 0.22221
 C1094 C 0.78866 0.53658 0.22940
 C1095 C 0.78171 0.52111 0.23672
 C1096 C 0.76428 0.48188 0.21923
 C1097 C 0.77164 0.46645 0.21223
 C1098 C 0.77897 0.45351 0.22347
 C1099 C 0.77929 0.45671 0.24178
 C1100 C 0.77202 0.47224 0.24877
 C1101 C 0.73644 0.48173 0.28295
 C1102 C 0.72934 0.46622 0.29005
 C1103 C 0.72167 0.45338 0.27903
 C1104 C 0.72155 0.45627 0.26061
 C1105 C 0.72860 0.47185 0.25352
 C1106 C 0.74736 0.53095 0.27242
 C1107 C 0.74015 0.54645 0.27954
 C1108 C 0.72166 0.54911 0.27968
 C1109 C 0.71069 0.53611 0.27220
 C1110 C 0.71791 0.52070 0.26500
 H1111 H 0.73790 0.52854 0.22885
 H1112 H 0.75001 0.55594 0.21631
 H1113 H 0.80289 0.53810 0.22916
 H1114 H 0.79069 0.51140 0.24227
 H1115 H 0.75862 0.49159 0.21032
 H1116 H 0.77178 0.46493 0.19801
 H1117 H 0.77253 0.47447 0.26291
 H1118 H 0.74222 0.49145 0.29175
 H1119 H 0.72972 0.46432 0.30425
 H1120 H 0.71627 0.44653 0.25157
 H1121 H 0.72813 0.47393 0.23935
 H1122 H 0.76158 0.52906 0.27271
 H1123 H 0.74916 0.55631 0.28468
 H1124 H 0.69643 0.53783 0.27203
 H1125 H 0.70913 0.51087 0.25934
 H1126 H 0.78513 0.44713 0.25070
 C1127 C 0.24377 -0.00015 0.74119
 C1128 C 0.25684 -0.00027 0.75367
 C1129 C 0.26443 -0.01701 0.76080
 C1130 C 0.26414 0.01635 0.76122
 C1131 C 0.23640 0.01661 0.73387
 C1132 C 0.23600 -0.01678 0.73414
 C1133 C 0.26501 -0.01961 0.77917
 C1134 C 0.27218 -0.03509 0.78627
 C1135 C 0.27883 -0.04845 0.77510
 C1136 C 0.27872 -0.04560 0.75673
 C1137 C 0.27164 -0.03001 0.74963
 C1138 C 0.25310 0.02900 0.76918
 C1139 C 0.26030 0.04437 0.77654
 C1140 C 0.27877 0.04715 0.77647
 C1141 C 0.28972 0.03444 0.76847
 C1142 C 0.28250 0.01917 0.76100
 C1143 C 0.24738 0.02950 0.72621
 C1144 C 0.24012 0.04514 0.71944
 C1145 C 0.22175 0.04817 0.72007
 C1146 C 0.21074 0.03494 0.72724
 C1147 C 0.21802 0.01938 0.73409
 C1148 C 0.23567 -0.01960 0.71582
 C1149 C 0.22836 -0.03505 0.70884
 C1150 C 0.22128 -0.04810 0.72010
 C1151 C 0.22122 -0.04504 0.73843
 C1152 C 0.22845 -0.02949 0.74541
 H1153 H 0.25987 -0.00960 0.78806
 H1154 H 0.27271 -0.03633 0.80050
 H1155 H 0.28405 -0.05551 0.74784
 H1156 H 0.27181 -0.02808 0.73544
 H1157 H 0.23890 0.02697 0.76970
 H1158 H 0.25129 0.05402 0.78207
 H1159 H 0.29126 0.00953 0.75499
 H1160 H 0.26156 0.02744 0.72545
 H1161 H 0.24890 0.05494 0.71373
 H1162 H 0.19649 0.03631 0.72736
 H1163 H 0.20927 0.00947 0.73964
 H1164 H 0.24114 -0.00980 0.70689
 H1165 H 0.22805 -0.03652 0.69461
 H1166 H 0.21563 -0.05474 0.74739
 H1167 H 0.22817 -0.02737 0.75957
 H1168 H 0.30396 0.03625 0.76812
 C1169 C 0.25600 0.24197 0.99983
 C1170 C 0.24331 0.25483 0.99964
 C1171 C 0.23573 0.26221 1.01624
 C1172 C 0.23623 0.26231 0.98287
 C1173 C 0.26306 0.23394 0.98330
 C1174 C 0.26369 0.23521 1.01663
 C1175 C 0.22792 0.25121 1.02901
 C1176 C 0.22064 0.25845 1.04442
 C1177 C 0.22071 0.27691 1.04713
 C1178 C 0.22856 0.28782 1.03430
 C1179 C 0.23590 0.28056 1.01898
 C1180 C 0.21786 0.26284 0.98015
 C1181 C 0.21086 0.26998 0.96463
 C1182 C 0.22214 0.27668 0.95139
 C1183 C 0.24052 0.27653 0.95434
 C1184 C 0.24751 0.26949 0.96996
 C1185 C 0.28144 0.23319 0.98067
 C1186 C 0.28845 0.22570 0.96532
 C1187 C 0.27716 0.21888 0.95216
 C1188 C 0.25878 0.21908 0.95509
 C1189 C 0.25178 0.22648 0.97055
 C1190 C 0.27156 0.24667 1.02896
 C1191 C 0.27885 0.23998 1.04459
 C1192 C 0.27851 0.22172 1.04813
 C1193 C 0.27116 0.21024 1.03543
 C1194 C 0.26377 0.21695 1.01990
 H1195 H 0.22746 0.23701 1.02706
 H1196 H 0.21520 0.24948 1.05414
 H1197 H 0.22890 0.30204 1.03607
 H1198 H 0.24181 0.28929 1.00927
 H1199 H 0.20889 0.25767 0.99008
 H1200 H 0.19661 0.27047 0.96330
 H1201 H 0.26171 0.26967 0.97199
 H1202 H 0.29041 0.23847 0.99054
 H1203 H 0.30270 0.22505 0.96401
 H1204 H 0.24982 0.21360 0.94534
 H1205 H 0.23757 0.22638 0.97256
 H1206 H 0.27210 0.26078 1.02645
 H1207 H 0.28472 0.24909 1.05397
 H1208 H 0.27131 0.19604 1.03720
 H1209 H 0.25810 0.20785 1.01039
 H1210 H 0.24950 0.28184 0.94450
 C1211 C 0.25662 0.74361 0.49816
 C1212 C 0.24394 0.75648 0.49833
 C1213 C 0.23654 0.76362 0.51512
 C1214 C 0.23668 0.76421 0.48175
 C1215 C 0.26359 0.73597 0.48141
 C1216 C 0.26434 0.73638 0.51473
 C1217 C 0.22893 0.75245 0.52787
 C1218 C 0.22196 0.75950 0.54350
 C1219 C 0.22235 0.77783 0.54663
 C1220 C 0.22946 0.78902 0.53353
 C1221 C 0.23653 0.78195 0.51800
 C1222 C 0.21828 0.76461 0.47915
 C1223 C 0.21112 0.77185 0.46375
 C1224 C 0.22227 0.77881 0.45053
 C1225 C 0.24067 0.77882 0.45338
 C1226 C 0.24782 0.77166 0.46887
 C1227 C 0.28195 0.73542 0.47859
 C1228 C 0.28888 0.72813 0.46309
 C1229 C 0.27752 0.72136 0.44995
 C1230 C 0.25916 0.72148 0.45303
 C1231 C 0.25225 0.72864 0.46864
 C1232 C 0.27244 0.74744 0.52727
 C1233 C 0.27989 0.74027 0.54263
 C1234 C 0.27967 0.72183 0.54553
 C1235 C 0.27158 0.71088 0.53289
 C1236 C 0.26408 0.71806 0.51763
 H1237 H 0.22834 0.73829 0.52569
 H1238 H 0.21627 0.75060 0.55319
 H1239 H 0.22936 0.80325 0.53499
 H1240 H 0.24203 0.79083 0.50818
 H1241 H 0.20944 0.75925 0.48909
 H1242 H 0.19686 0.77222 0.46247
 H1243 H 0.26203 0.77194 0.47082
 H1244 H 0.29096 0.74067 0.48842
 H1245 H 0.30312 0.72761 0.46168
 H1246 H 0.25013 0.71608 0.44330
 H1247 H 0.23806 0.72846 0.47077
 H1248 H 0.27300 0.76161 0.52516
 H1249 H 0.28557 0.74928 0.55217
 H1250 H 0.27114 0.69667 0.53478
 H1251 H 0.25798 0.70929 0.50807
 H1252 H 0.24954 0.78433 0.44355
 C1253 C 0.24564 0.74511 0.00040
 C1254 C 0.25813 0.75816 0.00042
 C1255 C 0.26560 0.76552 -0.01626
 C1256 C 0.26515 0.76582 0.01712
 C1257 C 0.23860 0.73727 0.01704
 C1258 C 0.23812 0.73791 -0.01630
 C1259 C 0.27331 0.75451 -0.02910
 C1260 C 0.28033 0.76172 -0.04464
 C1261 C 0.28018 0.78017 -0.04743
 C1262 C 0.27249 0.79110 -0.03450
 C1263 C 0.26537 0.78387 -0.01906
 C1264 C 0.28351 0.76627 0.01995
 C1265 C 0.29044 0.77341 0.03550
 C1266 C 0.27909 0.78018 0.04866
 C1267 C 0.26074 0.78019 0.04555
 C1268 C 0.25381 0.77313 0.02991
 C1269 C 0.22022 0.73659 0.01971
 C1270 C 0.21321 0.72911 0.03507
 C1271 C 0.22449 0.72222 0.04821
 C1272 C 0.24288 0.72244 0.04528
 C1273 C 0.24989 0.72986 0.02983
 C1274 C 0.23020 0.74901 -0.02893
 C1275 C 0.22309 0.74189 -0.04445
 C1276 C 0.22364 0.72357 -0.04759
 C1277 C 0.23109 0.71245 -0.03462
 C1278 C 0.23830 0.71958 -0.01920
 H1279 H 0.27386 0.74033 -0.02710
 H1280 H 0.28564 0.75272 -0.05440
 H1281 H 0.27211 0.80532 -0.03630
 H1282 H 0.25956 0.79262 -0.00930
 H1283 H 0.29250 0.76101 0.01009
 H1284 H 0.30468 0.77381 0.03697
 H1285 H 0.23963 0.77336 0.02779
 H1286 H 0.21126 0.74188 0.00985
 H1287 H 0.19896 0.72852 0.03640
 H1288 H 0.25184 0.71695 0.05503
 H1289 H 0.26409 0.72977 0.02782
 H1290 H 0.22949 0.76316 -0.02674
 H1291 H 0.21718 0.75073 -0.05407
 H1292 H 0.23114 0.69822 -0.03609
 H1293 H 0.24406 0.71076 -0.00948
 H1294 H 0.25172 0.78559 0.05531
 C1295 C 0.24541 0.24509 0.50097
 C1296 C 0.25801 0.25805 0.50101
 C1297 C 0.26494 0.26598 0.48437
 C1298 C 0.26571 0.26501 0.51774
 C1299 C 0.23774 0.23798 0.51766
 C1300 C 0.23839 0.23733 0.48429
 C1301 C 0.28330 0.26688 0.48165
 C1302 C 0.29017 0.27434 0.46622
 C1303 C 0.27877 0.28096 0.45305
 C1304 C 0.26040 0.28061 0.45606
 C1305 C 0.25353 0.27325 0.47160
 C1306 C 0.27349 0.25368 0.53025
 C1307 C 0.28079 0.26055 0.54580
 C1308 C 0.28057 0.27885 0.54910
 C1309 C 0.27327 0.29020 0.53625
 C1310 C 0.26588 0.28332 0.52078
 C1311 C 0.22996 0.24920 0.53027
 C1312 C 0.22258 0.24219 0.54572
 C1313 C 0.22272 0.22385 0.54882
 C1314 C 0.23006 0.21262 0.53588
 C1315 C 0.23753 0.21964 0.52052
 C1316 C 0.22001 0.23645 0.48169
 C1317 C 0.21302 0.22899 0.46632
 C1318 C 0.22432 0.22233 0.45307
 C1319 C 0.24271 0.22277 0.45591
 C1320 C 0.24970 0.23014 0.47139
 H1321 H 0.29236 0.26175 0.49150
 H1322 H 0.30441 0.27509 0.46484
 H1323 H 0.25134 0.28594 0.44631
 H1324 H 0.23934 0.27323 0.47367
 H1325 H 0.27395 0.23954 0.52794
 H1326 H 0.28659 0.25153 0.55532
 H1327 H 0.26026 0.29233 0.51114
 H1328 H 0.22952 0.26336 0.52811
 H1329 H 0.21676 0.25112 0.55532
 H1330 H 0.22980 0.19838 0.53732
 H1331 H 0.24314 0.21072 0.51079
 H1332 H 0.21102 0.24158 0.49163
 H1333 H 0.19877 0.22822 0.46509
 H1334 H 0.25171 0.21747 0.44607
 H1335 H 0.26391 0.23019 0.47334
 H1336 H 0.27348 0.30442 0.53786
 C1337 C 0.75564 0.74284 0.99859
 C1338 C 0.74262 0.75539 0.99860
 C1339 C 0.73539 0.76287 1.01531
 C1340 C 0.73489 0.76251 0.98194
 C1341 C 0.76333 0.73574 0.98190
 C1342 C 0.76299 0.73545 1.01528
 C1343 C 0.71707 0.76239 1.01837
 C1344 C 0.70993 0.76962 1.03379
 C1345 C 0.72091 0.77769 1.04643
 C1346 C 0.73934 0.77807 1.04340
 C1347 C 0.74647 0.77089 1.02789
 C1348 C 0.72764 0.75128 0.96903
 C1349 C 0.72053 0.75832 0.95346
 C1350 C 0.72040 0.77669 0.95054
 C1351 C 0.72713 0.78793 0.96379
 C1352 C 0.73433 0.78088 0.97928
 C1353 C 0.77062 0.74696 0.96901
 C1354 C 0.77781 0.73992 0.95346
 C1355 C 0.77798 0.72154 0.95056
 C1356 C 0.77113 0.71032 0.96377
 C1357 C 0.76385 0.71737 0.97922
 C1358 C 0.78134 0.73597 1.01819
 C1359 C 0.78860 0.72890 1.03363
 C1360 C 0.77773 0.72097 1.04645
 C1361 C 0.75927 0.72052 1.04356
 C1362 C 0.75202 0.72753 1.02803
 H1363 H 0.70828 0.75632 1.00880
 H1364 H 0.69573 0.76904 1.03579
 H1365 H 0.74837 0.78369 1.05297
 H1366 H 0.76063 0.77160 1.02570
 H1367 H 0.72749 0.73709 0.97100
 H1368 H 0.71519 0.74938 0.94361
 H1369 H 0.73954 0.78980 0.98922
 H1370 H 0.77077 0.76116 0.97099
 H1371 H 0.78321 0.74886 0.94364
 H1372 H 0.77160 0.69608 0.96245
 H1373 H 0.75858 0.70845 0.98912
 H1374 H 0.79005 0.74196 1.00850
 H1375 H 0.80282 0.72952 1.03551
 H1376 H 0.75032 0.71499 1.05324
 H1377 H 0.73784 0.72680 1.02597
 H1378 H 0.72664 0.80217 0.96247
 C1379 C 0.75651 0.24299 0.49993
 C1380 C 0.74381 0.25585 0.49994
 C1381 C 0.73643 0.26321 0.51664
 C1382 C 0.73652 0.26336 0.48326
 C1383 C 0.76333 0.23506 0.48325
 C1384 C 0.76440 0.23605 0.51658
 C1385 C 0.72894 0.25218 0.52959
 C1386 C 0.72189 0.25939 0.54510
 C1387 C 0.72185 0.27786 0.54778
 C1388 C 0.72938 0.28880 0.53480
 C1389 C 0.73650 0.28158 0.51936
 C1390 C 0.71813 0.26353 0.48058
 C1391 C 0.71096 0.27080 0.46518
 C1392 C 0.72198 0.27827 0.45222
 C1393 C 0.74047 0.27797 0.45486
 C1394 C 0.74763 0.27075 0.47033
 C1395 C 0.78166 0.23453 0.48028
 C1396 C 0.78847 0.22697 0.46487
 C1397 C 0.77702 0.21988 0.45199
 C1398 C 0.75869 0.21993 0.45524
 C1399 C 0.75189 0.22740 0.47076
 C1400 C 0.77225 0.24737 0.52906
 C1401 C 0.77972 0.24047 0.54454
 C1402 C 0.77958 0.22216 0.54777
 C1403 C 0.77229 0.21082 0.53491
 C1404 C 0.76474 0.21773 0.51954
 H1405 H 0.72857 0.23798 0.52768
 H1406 H 0.71672 0.25041 0.55496
 H1407 H 0.72963 0.30304 0.53654
 H1408 H 0.74217 0.29034 0.50953
 H1409 H 0.70931 0.25793 0.49040
 H1410 H 0.69671 0.27074 0.46347
 H1411 H 0.76185 0.27094 0.47220
 H1412 H 0.79074 0.24001 0.48993
 H1413 H 0.80270 0.22647 0.46332
 H1414 H 0.74961 0.21425 0.44571
 H1415 H 0.73773 0.22718 0.47304
 H1416 H 0.77264 0.26152 0.52681
 H1417 H 0.78556 0.24947 0.55405
 H1418 H 0.77262 0.19660 0.53644
 H1419 H 0.75912 0.20873 0.50990
 H1420 H 0.74950 0.28308 0.44500
 C1421 C 0.74596 0.24408 0.00101
 C1422 C 0.75841 0.25717 0.00086
 C1423 C 0.76532 0.26481 -0.01592
 C1424 C 0.76587 0.26467 0.01747
 C1425 C 0.73841 0.23708 0.01777
 C1426 C 0.73905 0.23600 -0.01557
 C1427 C 0.78367 0.26556 -0.01875
 C1428 C 0.79049 0.27279 -0.03433
 C1429 C 0.77905 0.27934 -0.04751
 C1430 C 0.76069 0.27899 -0.04442
 C1431 C 0.75388 0.27187 -0.02875
 C1432 C 0.77379 0.25381 0.03029
 C1433 C 0.78094 0.26118 0.04569
 C1434 C 0.78063 0.27965 0.04837
 C1435 C 0.77263 0.29041 0.03551
 C1436 C 0.76543 0.28303 0.02019
 C1437 C 0.73045 0.24831 0.03026
 C1438 C 0.72320 0.24135 0.04580
 C1439 C 0.72364 0.22305 0.04909
 C1440 C 0.73113 0.21180 0.03626
 C1441 C 0.73849 0.21877 0.02083
 C1442 C 0.72068 0.23508 -0.01827
 C1443 C 0.71382 0.22746 -0.03363
 C1444 C 0.72522 0.22066 -0.04671
 C1445 C 0.74359 0.22108 -0.04372
 C1446 C 0.75046 0.22862 -0.02827
 H1447 H 0.79275 0.26049 -0.00888
 H1448 H 0.80473 0.27343 -0.03577
 H1449 H 0.75158 0.28419 -0.05419
 H1450 H 0.73969 0.27187 -0.02663
 H1451 H 0.77445 0.23962 0.02837
 H1452 H 0.78646 0.25230 0.05545
 H1453 H 0.75940 0.29166 0.01046
 H1454 H 0.72977 0.26244 0.02793
 H1455 H 0.71723 0.25029 0.05530
 H1456 H 0.73109 0.19758 0.03782
 H1457 H 0.74426 0.20984 0.01121
 H1458 H 0.71163 0.24031 -0.00846
 H1459 H 0.69958 0.22670 -0.03500
 H1460 H 0.75265 0.21564 -0.05341
 H1461 H 0.76465 0.22869 -0.02621
 H1462 H 0.77208 0.30464 0.03726
 C1463 C 0.74500 0.74440 0.50050
 C1464 C 0.75780 0.75716 0.50032
 C1465 C 0.76473 0.76476 0.48353
 C1466 C 0.76561 0.76433 0.51691
 C1467 C 0.73744 0.73733 0.51726
 C1468 C 0.73773 0.73670 0.48392
 C1469 C 0.78307 0.76507 0.48053
 C1470 C 0.78995 0.77240 0.46504
 C1471 C 0.77858 0.77949 0.45208
 C1472 C 0.76025 0.77957 0.45531
 C1473 C 0.75337 0.77233 0.47091
 C1474 C 0.77318 0.75315 0.52968
 C1475 C 0.78043 0.76022 0.54516
 C1476 C 0.78038 0.77858 0.54813
 C1477 C 0.77334 0.78978 0.53500
 C1478 C 0.76601 0.78270 0.51960
 C1479 C 0.73005 0.74858 0.53008
 C1480 C 0.72282 0.74156 0.54562
 C1481 C 0.72269 0.72319 0.54857
 C1482 C 0.72959 0.71195 0.53540
 C1483 C 0.73694 0.71897 0.51998
 C1484 C 0.71937 0.73672 0.48116
 C1485 C 0.71217 0.72920 0.46591
 C1486 C 0.72315 0.72132 0.45315
 C1487 C 0.74163 0.72135 0.45591
 C1488 C 0.74881 0.72882 0.47125
 H1489 H 0.79209 0.75961 0.49025
 H1490 H 0.80419 0.77273 0.46351
 H1491 H 0.75120 0.78522 0.44573
 H1492 H 0.73921 0.77270 0.47316
 H1493 H 0.77348 0.73896 0.52765
 H1494 H 0.78603 0.75132 0.55490
 H1495 H 0.76058 0.79159 0.50975
 H1496 H 0.72983 0.76276 0.52805
 H1497 H 0.71734 0.75051 0.55538
 H1498 H 0.72910 0.69771 0.53672
 H1499 H 0.74225 0.71003 0.51011
 H1500 H 0.71058 0.74264 0.49082
 H1501 H 0.69793 0.72944 0.46415
 H1502 H 0.75066 0.71584 0.44628
 H1503 H 0.76302 0.72843 0.47325
 H1504 H 0.77370 0.80403 0.53637
 C1505 C 0.99976 0.25618 0.24514
 C1506 C 0.99976 0.24370 0.25818
 C1507 C 1.01646 0.23684 0.26604
 C1508 C 0.98306 0.23603 0.26527
 C1509 C 0.98306 0.26373 0.23795
 C1510 C 1.01646 0.26311 0.23734
 C1511 C 1.01936 0.21851 0.26671
 C1512 C 1.03488 0.21171 0.27406
 C1513 C 1.04796 0.22315 0.28082
 C1514 C 1.04478 0.24148 0.28065
 C1515 C 1.02915 0.24827 0.27337
 C1516 C 0.97049 0.22816 0.25406
 C1517 C 0.95507 0.22066 0.26105
 C1518 C 0.95214 0.22052 0.27947
 C1519 C 0.96475 0.22846 0.29058
 C1520 C 0.98007 0.23605 0.28357
 C1521 C 0.97036 0.27150 0.24908
 C1522 C 0.95483 0.27866 0.24200
 C1523 C 0.95175 0.27835 0.22367
 C1524 C 0.96481 0.27106 0.21251
 C1525 C 0.98024 0.26378 0.21961
 C1526 C 1.01925 0.28145 0.23664
 C1527 C 1.03470 0.28833 0.22921
 C1528 C 1.04780 0.27694 0.22238
 C1529 C 1.04475 0.25860 0.22264
 C1530 C 1.02920 0.25173 0.22999
 H1531 H 1.00957 0.20944 0.26145
 H1532 H 1.03639 0.19749 0.27463
 H1533 H 1.05445 0.25057 0.28606
 H1534 H 1.02695 0.26244 0.27345
 H1535 H 0.97264 0.22781 0.23990
 H1536 H 0.94550 0.21519 0.25193
 H1537 H 0.98962 0.24200 0.29246
 H1538 H 0.97251 0.27205 0.26323
 H1539 H 0.94516 0.28444 0.25088
 H1540 H 0.96340 0.27118 0.19829
 H1541 H 0.99003 0.25817 0.21076
 H1542 H 1.00941 0.29048 0.24190
 H1543 H 1.03612 0.30255 0.22860
 H1544 H 1.05446 0.24955 0.21718
 H1545 H 1.02708 0.23755 0.22993
 H1546 H 0.96281 0.22867 0.30478
 C1547 C 0.50139 0.25512 0.74600
 C1548 C 0.50141 0.24239 0.75882
 C1549 C 0.51817 0.23532 0.76641
 C1550 C 0.48472 0.23466 0.76594
 C1551 C 0.48469 0.26288 0.73895
 C1552 C 0.51810 0.26215 0.73827
 C1553 C 0.52119 0.21700 0.76642
 C1554 C 0.53677 0.21004 0.77354
 C1555 C 0.54976 0.22131 0.78076
 C1556 C 0.54646 0.23962 0.78118
 C1557 C 0.53081 0.24657 0.77411
 C1558 C 0.47184 0.22734 0.75471
 C1559 C 0.45638 0.21991 0.76170
 C1560 C 0.45371 0.21923 0.78015
 C1561 C 0.46667 0.22654 0.79130
 C1562 C 0.48202 0.23410 0.78429
 C1563 C 0.47195 0.27044 0.75019
 C1564 C 0.45649 0.27788 0.74320
 C1565 C 0.45351 0.27802 0.72485
 C1566 C 0.46661 0.27096 0.71360
 C1567 C 0.48195 0.26341 0.72060
 C1568 C 0.52092 0.28049 0.73785
 C1569 C 0.53634 0.28747 0.73041
 C1570 C 0.54937 0.27620 0.72328
 C1571 C 0.54630 0.25785 0.72328
 C1572 C 0.53079 0.25088 0.73065
 H1573 H 0.51146 0.20807 0.76085
 H1574 H 0.53839 0.19582 0.77360
 H1575 H 0.55607 0.24857 0.78694
 H1576 H 0.52854 0.26072 0.77466
 H1577 H 0.47376 0.22739 0.74051
 H1578 H 0.44659 0.21493 0.75254
 H1579 H 0.49181 0.23959 0.79321
 H1580 H 0.47402 0.27063 0.76437
 H1581 H 0.44679 0.28348 0.75215
 H1582 H 0.46529 0.27147 0.69937
 H1583 H 0.49176 0.25797 0.71166
 H1584 H 0.51113 0.28945 0.74329
 H1585 H 0.53776 0.30171 0.73000
 H1586 H 0.55595 0.24889 0.71759
 H1587 H 0.52865 0.23671 0.73035
 H1588 H 0.46497 0.22631 0.80553
 C1589 C -0.00049 0.24276 0.74534
 C1590 C -0.00068 0.25595 0.75768
 C1591 C -0.01747 0.26375 0.76445
 C1592 C 0.01594 0.26336 0.76523
 C1593 C 0.01635 0.23559 0.73798
 C1594 C -0.01708 0.23484 0.73828
 C1595 C -0.03018 0.27099 0.75297
 C1596 C -0.04573 0.27850 0.75971
 C1597 C -0.04885 0.27900 0.77804
 C1598 C -0.03579 0.27225 0.78951
 C1599 C -0.02034 0.26467 0.78276
 C1600 C 0.01876 0.28171 0.76483
 C1601 C 0.03411 0.28900 0.77211
 C1602 C 0.04691 0.27815 0.78010
 C1603 C 0.04411 0.25970 0.78040
 C1604 C 0.02866 0.25243 0.77323
 C1605 C 0.01932 0.21726 0.73814
 C1606 C 0.03482 0.21016 0.73095
 C1607 C 0.04780 0.22132 0.72353
 C1608 C 0.04460 0.23964 0.72306
 C1609 C 0.02901 0.24672 0.73014
 C1610 C -0.02997 0.22758 0.74955
 C1611 C -0.04542 0.22012 0.74254
 C1612 C -0.04822 0.21970 0.72417
 C1613 C -0.03497 0.22643 0.71292
 C1614 C -0.01962 0.23395 0.71992
 H1615 H -0.02802 0.27089 0.73881
 H1616 H -0.05540 0.28388 0.75059
 H1617 H -0.03722 0.27305 0.80371
 H1618 H -0.01055 0.25949 0.79187
 H1619 H 0.00907 0.29039 0.75879
 H1620 H 0.03592 0.30322 0.77159
 H1621 H 0.02664 0.23825 0.77390
 H1622 H 0.00958 0.20840 0.74384
 H1623 H 0.03632 0.19594 0.73100
 H1624 H 0.05420 0.24853 0.71719
 H1625 H 0.02677 0.26086 0.72942
 H1626 H -0.02806 0.22766 0.76374
 H1627 H -0.05526 0.21477 0.75149
 H1628 H -0.03622 0.22569 0.69869
 H1629 H -0.00967 0.23912 0.71098
 H1630 H 0.05380 0.25075 0.78594
 C1631 C 0.50043 0.24399 0.24423
 C1632 C 0.50056 0.25695 0.25680
 C1633 C 0.48393 0.26452 0.26411
 C1634 C 0.51733 0.26433 0.26400
 C1635 C 0.51705 0.23677 0.23653
 C1636 C 0.48368 0.23633 0.23729
 C1637 C 0.47104 0.27208 0.25306
 C1638 C 0.45556 0.27927 0.26026
 C1639 C 0.45288 0.27937 0.27871
 C1640 C 0.46581 0.27173 0.28966
 C1641 C 0.48121 0.26448 0.28245
 C1642 C 0.52013 0.28268 0.26362
 C1643 C 0.53566 0.28996 0.27053
 C1644 C 0.54865 0.27908 0.27816
 C1645 C 0.54589 0.26062 0.27843
 C1646 C 0.53028 0.25336 0.27159
 C1647 C 0.52004 0.21846 0.23690
 C1648 C 0.53538 0.21131 0.22949
 C1649 C 0.54800 0.22228 0.22137
 C1650 C 0.54503 0.24071 0.22109
 C1651 C 0.52959 0.24784 0.22843
 C1652 C 0.47100 0.22876 0.24860
 C1653 C 0.45541 0.22153 0.24168
 C1654 C 0.45225 0.22164 0.22336
 C1655 C 0.46526 0.22873 0.21206
 C1656 C 0.48075 0.23605 0.21898
 H1657 H 0.47296 0.27239 0.23886
 H1658 H 0.44572 0.28448 0.25127
 H1659 H 0.46406 0.27149 0.30389
 H1660 H 0.49101 0.25872 0.29120
 H1661 H 0.51028 0.29139 0.25787
 H1662 H 0.53745 0.30418 0.27006
 H1663 H 0.52832 0.23918 0.27219
 H1664 H 0.51048 0.20969 0.24303
 H1665 H 0.53733 0.19711 0.22999
 H1666 H 0.55457 0.24974 0.21543
 H1667 H 0.52742 0.26200 0.22779
 H1668 H 0.47321 0.22842 0.26275
 H1669 H 0.44575 0.21590 0.25066
 H1670 H 0.46375 0.22843 0.19784
 H1671 H 0.49049 0.24154 0.21000
 H1672 H 0.55575 0.25169 0.28369
 C1673 C 1.00148 0.75526 0.74382
 C1674 C 1.00169 0.74230 0.75636
 C1675 C 1.01849 0.73515 0.76369
 C1676 C 0.98513 0.73447 0.76351
 C1677 C 0.98469 0.76286 0.73693
 C1678 C 1.01804 0.76257 0.73613
 C1679 C 1.02145 0.71682 0.76355
 C1680 C 1.03704 0.70976 0.77052
 C1681 C 1.05012 0.72096 0.77768
 C1682 C 1.04693 0.73928 0.77816
 C1683 C 1.03123 0.74632 0.77131
 C1684 C 0.97247 0.72673 0.75233
 C1685 C 0.95706 0.71927 0.75938
 C1686 C 0.95424 0.71907 0.77782
 C1687 C 0.96699 0.72681 0.78890
 C1688 C 0.98231 0.73435 0.78184
 C1689 C 0.97201 0.77031 0.74830
 C1690 C 0.95641 0.77758 0.74145
 C1691 C 0.95326 0.77763 0.72313
 C1692 C 0.96631 0.77070 0.71176
 C1693 C 0.98179 0.76333 0.71862
 C1694 C 1.02083 0.78092 0.73634
 C1695 C 1.03605 0.78816 0.72878
 C1696 C 1.04874 0.77724 0.72070
 C1697 C 1.04601 0.75877 0.72067
 C1698 C 1.03068 0.75156 0.72812
 H1699 H 1.01165 0.70795 0.75799
 H1700 H 1.03854 0.69554 0.77049
 H1701 H 1.05662 0.74820 0.78384
 H1702 H 1.02901 0.76046 0.77198
 H1703 H 0.97452 0.72648 0.73816
 H1704 H 0.94742 0.71391 0.75028
 H1705 H 0.99196 0.74020 0.79068
 H1706 H 0.97422 0.77055 0.76245
 H1707 H 0.94675 0.78312 0.75049
 H1708 H 0.96485 0.77117 0.69754
 H1709 H 0.99157 0.75795 0.70960
 H1710 H 1.01119 0.78964 0.74241
 H1711 H 1.03783 0.80238 0.72912
 H1712 H 1.05564 0.74978 0.71509
 H1713 H 1.02867 0.73737 0.72762
 H1714 H 0.96515 0.72696 0.80311
 C1715 C 0.49980 0.75663 0.24422
 C1716 C 0.49977 0.74370 0.25682
 C1717 C 0.51647 0.73666 0.26452
 C1718 C 0.48305 0.73583 0.26368
 C1719 C 0.48311 0.76424 0.23706
 C1720 C 0.51654 0.76384 0.23671
 C1721 C 0.51951 0.71835 0.26454
 C1722 C 0.53503 0.71140 0.27178
 C1723 C 0.54795 0.72269 0.27908
 C1724 C 0.54465 0.74099 0.27948
 C1725 C 0.52903 0.74792 0.27233
 C1726 C 0.47041 0.72836 0.25227
 C1727 C 0.45485 0.72095 0.25908
 C1728 C 0.45168 0.72076 0.27740
 C1729 C 0.46464 0.72779 0.28881
 C1730 C 0.48010 0.73528 0.28199
 C1731 C 0.47020 0.77157 0.24825
 C1732 C 0.45462 0.77868 0.24118
 C1733 C 0.45174 0.77876 0.22282
 C1734 C 0.46498 0.77188 0.21163
 C1735 C 0.48044 0.76466 0.21871
 C1736 C 0.51940 0.78219 0.23676
 C1737 C 0.53482 0.78929 0.22944
 C1738 C 0.54763 0.77825 0.22171
 C1739 C 0.54482 0.75980 0.22182
 C1740 C 0.52931 0.75271 0.22906
 H1741 H 0.50984 0.70940 0.25887
 H1742 H 0.53663 0.69718 0.27184
 H1743 H 0.55420 0.74997 0.28529
 H1744 H 0.52673 0.76206 0.27290
 H1745 H 0.47262 0.72822 0.23812
 H1746 H 0.44522 0.71543 0.25001
 H1747 H 0.48982 0.74069 0.29103
 H1748 H 0.47218 0.77179 0.26243
 H1749 H 0.44477 0.78410 0.25009
 H1750 H 0.46369 0.77228 0.19740
 H1751 H 0.49037 0.75932 0.20983
 H1752 H 0.50969 0.79102 0.24254
 H1753 H 0.53667 0.80351 0.22966
 H1754 H 0.55454 0.75074 0.21651
 H1755 H 0.52727 0.73853 0.22869
 H1756 H 0.46311 0.72731 0.30302
 C1757 C -0.00007 0.74335 0.24335
 C1758 C -0.00027 0.75607 0.25616
 C1759 C -0.01710 0.76345 0.26327
 C1760 C 0.01633 0.76347 0.26376
 C1761 C 0.01673 0.73645 0.23570
 C1762 C -0.01664 0.73553 0.23614
 C1763 C -0.02989 0.77095 0.25208
 C1764 C -0.04552 0.77800 0.25909
 C1765 C -0.04862 0.77782 0.27743
 C1766 C -0.03548 0.77079 0.28864
 C1767 C -0.01995 0.76363 0.28161
 C1768 C 0.01896 0.78184 0.26374
 C1769 C 0.03430 0.78914 0.27102
 C1770 C 0.04728 0.77826 0.27868
 C1771 C 0.04469 0.75977 0.27858
 C1772 C 0.02925 0.75249 0.27137
 C1773 C 0.01968 0.71813 0.23531
 C1774 C 0.03512 0.71125 0.22785
 C1775 C 0.04809 0.72259 0.22072
 C1776 C 0.04489 0.74092 0.22072
 C1777 C 0.02933 0.74780 0.22808
 C1778 C -0.02921 0.72744 0.24720
 C1779 C -0.04450 0.71981 0.24003
 C1780 C -0.04732 0.71982 0.22158
 C1781 C -0.03467 0.72794 0.21064
 C1782 C -0.01948 0.73562 0.21782
 H1783 H -0.02774 0.77141 0.23792
 H1784 H -0.05524 0.78360 0.25016
 H1785 H -0.03690 0.77101 0.30287
 H1786 H -0.01010 0.75820 0.29051
 H1787 H 0.00912 0.79056 0.25798
 H1788 H 0.03596 0.80338 0.27078
 H1789 H 0.02739 0.73828 0.27171
 H1790 H 0.00997 0.70912 0.24081
 H1791 H 0.03660 0.69702 0.22743
 H1792 H 0.05448 0.74995 0.21504
 H1793 H 0.02709 0.76196 0.22777
 H1794 H -0.02715 0.72700 0.26137
 H1795 H -0.05404 0.71413 0.24905
 H1796 H -0.03648 0.72824 0.19643
 H1797 H -0.00990 0.74171 0.20905
 H1798 H 0.05453 0.75082 0.28384
 C1799 C 0.49808 0.74274 0.74286
 C1800 C 0.49814 0.75565 0.75548
 C1801 C 0.48150 0.76335 0.76268
 C1802 C 0.51490 0.76296 0.76278
 C1803 C 0.51477 0.73563 0.73519
 C1804 C 0.48137 0.73505 0.73584
 C1805 C 0.46869 0.77090 0.75153
 C1806 C 0.45330 0.77839 0.75863
 C1807 C 0.45063 0.77881 0.77708
 C1808 C 0.46347 0.77118 0.78814
 C1809 C 0.47878 0.76363 0.78103
 C1810 C 0.51783 0.78128 0.76226
 C1811 C 0.53334 0.78850 0.76927
 C1812 C 0.54616 0.77759 0.77714
 C1813 C 0.54325 0.75916 0.77757
 C1814 C 0.52768 0.75196 0.77060
 C1815 C 0.51791 0.71734 0.73556
 C1816 C 0.53334 0.71032 0.72820
 C1817 C 0.54590 0.72139 0.72011
 C1818 C 0.54274 0.73979 0.71978
 C1819 C 0.52722 0.74679 0.72708
 C1820 C 0.46859 0.72759 0.74710
 C1821 C 0.45302 0.72038 0.74012
 C1822 C 0.44998 0.72039 0.72178
 C1823 C 0.46311 0.72734 0.71052
 C1824 C 0.47858 0.73463 0.71750
 H1825 H 0.47062 0.77101 0.73733
 H1826 H 0.44353 0.78361 0.74957
 H1827 H 0.46173 0.77119 0.80236
 H1828 H 0.48852 0.75792 0.78987
 H1829 H 0.50812 0.79001 0.75632
 H1830 H 0.53525 0.80270 0.76867
 H1831 H 0.52560 0.73779 0.77129
 H1832 H 0.50841 0.70849 0.74166
 H1833 H 0.53542 0.69614 0.72872
 H1834 H 0.55221 0.74889 0.71411
 H1835 H 0.52493 0.76093 0.72642
 H1836 H 0.47069 0.72733 0.76126
 H1837 H 0.44328 0.71484 0.74907
 H1838 H 0.46170 0.72694 0.69629
 H1839 H 0.48842 0.74002 0.70856
 H1840 H 0.55298 0.75020 0.78304
 C1841 C 0.40280 0.30129 0.30248
 C1842 C 0.41046 0.30700 0.28752
 C1843 C 0.42624 0.29885 0.27920
 C1844 C 0.43680 0.28694 0.28711
 H1845 H 0.40479 0.31813 0.28053
 H1846 H 0.42952 0.30371 0.26616
 H1847 H 0.40785 0.28986 0.30941
 H1848 H 0.43428 0.28311 0.30065
 C1849 C 0.40049 0.80126 0.80034
 C1850 C 0.40848 0.80705 0.78554
 C1851 C 0.42416 0.79860 0.77730
 C1852 C 0.43463 0.78671 0.78537
 H1853 H 0.40322 0.81841 0.77860
 H1854 H 0.42751 0.80326 0.76420
 H1855 H 0.40531 0.78955 0.80699
 H1856 H 0.43210 0.78314 0.79898
 C1857 C -0.09710 0.30530 0.80166
 C1858 C -0.08888 0.29089 0.80797
 C1859 C -0.07236 0.28325 0.80068
 C1860 C -0.06551 0.28708 0.78473
 H1861 H -0.09403 0.28443 0.81966
 H1862 H -0.06606 0.27339 0.80890
 H1863 H -0.09185 0.31231 0.79035
 H1864 H -0.07259 0.29579 0.77585
 C1865 C -0.09696 0.80348 0.30122
 C1866 C -0.08854 0.78928 0.30771
 C1867 C -0.07191 0.78187 0.30044
 C1868 C -0.06537 0.78552 0.28432
 H1869 H -0.09359 0.78288 0.31947
 H1870 H -0.06529 0.77236 0.30882
 H1871 H -0.09180 0.81045 0.28984
 H1872 H -0.07281 0.79389 0.27540
 C1873 C 0.59614 0.69897 0.30496
 C1874 C 0.58801 0.69263 0.29053
 C1875 C 0.57152 0.69995 0.28290
 C1876 C 0.56464 0.71585 0.28692
 H1877 H 0.59326 0.68099 0.28405
 H1878 H 0.56525 0.69180 0.27295
 H1879 H 0.59083 0.71025 0.31197
 H1880 H 0.57171 0.72463 0.29574
 C1881 C 0.59820 0.19722 0.80602
 C1882 C 0.59007 0.19125 0.79142
 C1883 C 0.57354 0.19872 0.78397
 C1884 C 0.56649 0.21442 0.78848
 H1885 H 0.59536 0.17980 0.78464
 H1886 H 0.56736 0.19088 0.77372
 H1887 H 0.59289 0.20833 0.81330
 H1888 H 0.57343 0.22298 0.79761
 C1889 C 1.09778 0.69704 0.80392
 C1890 C 1.08999 0.69076 0.78928
 C1891 C 1.07339 0.69789 0.78173
 C1892 C 1.06690 0.71407 0.78528
 H1893 H 1.09553 0.67932 0.78268
 H1894 H 1.06682 0.68944 0.77226
 H1895 H 1.09205 0.70803 0.81108
 H1896 H 1.07439 0.72303 0.79355
 C1897 C 1.09655 0.19959 0.30620
 C1898 C 1.08824 0.19328 0.29185
 C1899 C 1.07163 0.20056 0.28444
 C1900 C 1.06473 0.21643 0.28857
 H1901 H 1.09341 0.18166 0.28527
 H1902 H 1.06528 0.19243 0.27453
 H1903 H 1.09131 0.21085 0.31331
 H1904 H 1.07184 0.22524 0.29732
 C1905 C 0.59747 0.30018 0.69726
 C1906 C 0.58918 0.30652 0.71161
 C1907 C 0.57284 0.29896 0.71939
 C1908 C 0.56591 0.28313 0.71520
 H1909 H 0.59418 0.31834 0.71794
 H1910 H 0.56669 0.30690 0.72959
 H1911 H 0.59246 0.28868 0.69040
 H1912 H 0.57277 0.27450 0.70607
 C1913 C 0.59760 0.80179 0.19910
 C1914 C 0.58970 0.78692 0.19346
 C1915 C 0.57412 0.77857 0.20198
 C1916 C 0.56367 0.78657 0.21394
 H1917 H 0.59500 0.78002 0.18210
 H1918 H 0.57082 0.76548 0.19727
 H1919 H 0.59293 0.80858 0.21079
 H1920 H 0.56624 0.80016 0.21760
 C1921 C 1.09576 0.30056 0.19610
 C1922 C 1.08772 0.30694 0.21057
 C1923 C 1.07123 0.29969 0.21825
 C1924 C 1.06442 0.28373 0.21438
 H1925 H 1.09302 0.31855 0.21703
 H1926 H 1.06495 0.30789 0.22815
 H1927 H 1.09035 0.28935 0.18906
 H1928 H 1.07150 0.27488 0.20565
 C1929 C 1.09849 0.80101 0.69829
 C1930 C 1.09067 0.78619 0.69244
 C1931 C 1.07521 0.77768 0.70094
 C1932 C 1.06458 0.78570 0.71272
 H1933 H 1.09599 0.77945 0.68098
 H1934 H 1.07219 0.76447 0.69640
 H1935 H 1.09383 0.80758 0.71010
 H1936 H 1.06688 0.79941 0.71610
 C1937 C 0.40182 0.69487 0.69744
 C1938 C 0.41002 0.70944 0.69149
 C1939 C 0.42651 0.71688 0.69900
 C1940 C 0.43331 0.71260 0.71485
 H1941 H 0.40488 0.71620 0.67997
 H1942 H 0.43285 0.72695 0.69106
 H1943 H 0.40704 0.68757 0.70858
 H1944 H 0.42619 0.70367 0.72348
 C1945 C 0.40417 0.19599 0.19905
 C1946 C 0.41218 0.21072 0.19325
 C1947 C 0.42866 0.21819 0.20072
 C1948 C 0.43559 0.21379 0.21648
 H1949 H 0.40686 0.21762 0.18190
 H1950 H 0.43486 0.22840 0.19285
 H1951 H 0.40956 0.18858 0.21003
 H1952 H 0.42860 0.20471 0.22506
 C1953 C -0.09753 0.69836 0.19781
 C1954 C -0.08981 0.69222 0.21258
 C1955 C -0.07421 0.70046 0.22118
 C1956 C -0.06323 0.71190 0.21313
 H1957 H -0.09538 0.68082 0.21921
 H1958 H -0.07144 0.69604 0.23448
 H1959 H -0.09261 0.71017 0.19140
 H1960 H -0.06536 0.71512 0.19936
 C1961 C -0.09658 0.19436 0.69989
 C1962 C -0.08807 0.20869 0.69379
 C1963 C -0.07159 0.21608 0.70137
 C1964 C -0.06478 0.21174 0.71720
 H1965 H -0.09301 0.21537 0.68214
 H1966 H -0.06526 0.22623 0.69350
 H1967 H -0.09163 0.18717 0.71122
 H1968 H -0.07181 0.20270 0.72577
 C1969 C 0.30349 0.40297 0.29960
 C1970 C 0.28906 0.41130 0.30572
 C1971 C 0.28155 0.42771 0.29818
 C1972 C 0.28578 0.43449 0.28231
 H1973 H 0.28246 0.40632 0.31740
 H1974 H 0.27146 0.43403 0.30613
 H1975 H 0.31060 0.40799 0.28824
 H1976 H 0.29472 0.42743 0.27364
 C1977 C 0.30356 -0.09701 0.79976
 C1978 C 0.28943 -0.08816 0.80594
 C1979 C 0.28213 -0.07172 0.79812
 C1980 C 0.28646 -0.06515 0.78218
 H1981 H 0.28288 -0.09265 0.81785
 H1982 H 0.27216 -0.06514 0.80601
 H1983 H 0.31044 -0.09235 0.78811
 H1984 H 0.29532 -0.07241 0.77360
 C1985 C 0.80133 0.40403 0.80308
 C1986 C 0.80758 0.41235 0.78867
 C1987 C 0.80002 0.42878 0.78114
 C1988 C 0.78413 0.43561 0.78538
 H1989 H 0.81931 0.40740 0.78211
 H1990 H 0.80801 0.43509 0.77108
 H1991 H 0.78991 0.40919 0.80999
 H1992 H 0.77549 0.42856 0.79434
 C1993 C 0.80338 -0.09740 0.29999
 C1994 C 0.78917 -0.08865 0.30616
 C1995 C 0.78195 -0.07212 0.29850
 C1996 C 0.78629 -0.06548 0.28259
 H1997 H 0.78251 -0.09330 0.31794
 H1998 H 0.77199 -0.06558 0.30643
 H1999 H 0.81038 -0.09257 0.28849
 H2000 H 0.79516 -0.07273 0.27401
 C2001 C 0.30015 0.59554 0.69450
 C2002 C 0.30654 0.58741 0.70892
 C2003 C 0.29923 0.57095 0.71660
 C2004 C 0.28329 0.56411 0.71266
 H2005 H 0.31820 0.59263 0.71538
 H2006 H 0.30739 0.56469 0.72657
 H2007 H 0.28885 0.59024 0.68751
 H2008 H 0.27449 0.57113 0.70384
 C2009 C 0.30150 1.09848 0.19909
 C2010 C 0.28687 1.09059 0.19283
 C2011 C 0.27818 1.07508 0.20106
 C2012 C 0.28592 1.06446 0.21300
 H2013 H 0.28044 1.09588 0.18119
 H2014 H 0.26509 1.07201 0.19615
 H2015 H 0.30778 1.09382 0.21107
 H2016 H 0.29954 1.06682 0.21677
 C2017 C 0.80131 0.59742 0.19611
 C2018 C 0.80746 0.58948 0.21072
 C2019 C 0.80009 0.57304 0.21839
 C2020 C 0.78421 0.56614 0.21427
 H2021 H 0.81898 0.59483 0.21734
 H2022 H 0.80814 0.56686 0.22847
 H2023 H 0.79019 0.59198 0.18895
 H2024 H 0.77549 0.57312 0.20532
 C2025 C 0.80124 1.09538 0.69528
 C2026 C 0.80715 1.08731 0.70993
 C2027 C 0.79966 1.07082 0.71739
 C2028 C 0.78385 1.06394 0.71301
 H2029 H 0.81856 1.09260 0.71677
 H2030 H 0.80755 1.06461 0.72757
 H2031 H 0.79022 1.08999 0.68790
 H2032 H 0.77527 1.07094 0.70394
 C2033 C 0.69785 0.59931 0.30137
 C2034 C 0.71281 0.59161 0.30711
 C2035 C 0.72121 0.57592 0.29890
 C2036 C 0.71324 0.56521 0.28719
 H2037 H 0.71972 0.59716 0.31834
 H2038 H 0.73434 0.57277 0.30366
 H2039 H 0.69104 0.59440 0.28981
 H2040 H 0.69961 0.56764 0.28351
 C2041 C 0.69844 1.09729 0.80165
 C2042 C 0.71330 1.08915 0.80712
 C2043 C 0.72135 1.07343 0.79859
 C2044 C 0.71326 1.06321 0.78652
 H2045 H 0.72051 1.09430 0.81835
 H2046 H 0.73436 1.06985 0.80336
 H2047 H 0.69146 1.09257 0.79009
 H2048 H 0.69974 1.06602 0.78275
 C2049 C 0.19883 0.59604 0.80544
 C2050 C 0.19240 0.58792 0.79104
 C2051 C 0.19954 0.57132 0.78352
 C2052 C 0.21563 0.56463 0.78714
 H2053 H 0.18080 0.59323 0.78454
 H2054 H 0.19115 0.56487 0.77390
 H2055 H 0.21001 0.59058 0.81252
 H2056 H 0.22463 0.57191 0.79557
 C2057 C 0.19738 1.09932 0.30065
 C2058 C 0.21210 1.09119 0.30638
 C2059 C 0.22024 1.07543 0.29804
 C2060 C 0.21244 1.06545 0.28559
 H2061 H 0.21900 1.09636 0.31780
 H2062 H 0.23300 1.07159 0.30327
 H2063 H 0.19049 1.09475 0.28899
 H2064 H 0.19913 1.06850 0.28132
 C2065 C 0.69693 0.40223 0.69944
 C2066 C 0.71179 0.41010 0.69366
 C2067 C 0.72014 0.42582 0.70186
 C2068 C 0.71226 0.43643 0.71375
 H2069 H 0.71872 0.40462 0.68240
 H2070 H 0.73319 0.42908 0.69696
 H2071 H 0.69010 0.40708 0.71103
 H2072 H 0.69871 0.43388 0.71763
 C2073 C 0.69900 -0.09855 0.19681
 C2074 C 0.69281 -0.09043 0.21133
 C2075 C 0.70115 -0.07478 0.21969
 C2076 C 0.71305 -0.06430 0.21166
 H2077 H 0.68118 -0.09562 0.21789
 H2078 H 0.69636 -0.07146 0.23274
 H2079 H 0.71100 -0.09403 0.19045
 H2080 H 0.71670 -0.06687 0.19807
 C2081 C 0.19692 0.40126 0.19788
 C2082 C 0.19060 0.40912 0.21249
 C2083 C 0.19878 0.42479 0.22098
 C2084 C 0.21014 0.43574 0.21278
 H2085 H 0.17908 0.40367 0.21903
 H2086 H 0.19436 0.42768 0.23426
 H2087 H 0.20884 0.40606 0.19159
 H2088 H 0.21331 0.43354 0.19901
 C2089 C 0.19545 -0.09601 0.69587
 C2090 C 0.21021 -0.08809 0.68999
 C2091 C 0.21770 -0.07159 0.69739
 C2092 C 0.21339 -0.06470 0.71319
 H2093 H 0.21712 -0.09352 0.67870
 H2094 H 0.22789 -0.06538 0.68947
 H2095 H 0.18802 -0.09049 0.70678
 H2096 H 0.20437 -0.07171 0.72181
 C2097 C 0.30237 0.30591 0.40428
 C2098 C 0.30881 0.29179 0.41288
 C2099 C 0.30148 0.28455 0.42953
 C2100 C 0.28557 0.28870 0.43633
 H2101 H 0.32055 0.28525 0.40791
 H2102 H 0.30962 0.27471 0.43600
 H2103 H 0.29098 0.31298 0.40929
 H2104 H 0.27675 0.29740 0.42915
 C2105 C 0.30144 0.80400 -0.09785
 C2106 C 0.30729 0.78908 -0.09018
 C2107 C 0.29923 0.78067 -0.07442
 C2108 C 0.28759 0.78861 -0.06357
 H2109 H 0.31845 0.78215 -0.09588
 H2110 H 0.30400 0.76753 -0.07138
 H2111 H 0.28990 0.81080 -0.09280
 H2112 H 0.28389 0.80223 -0.06595
 C2113 C 0.80226 0.30526 -0.09588
 C2114 C 0.80891 0.29104 -0.08760
 C2115 C 0.80188 0.28362 -0.07090
 C2116 C 0.78572 0.28708 -0.06429
 H2117 H 0.82061 0.28465 -0.09282
 H2118 H 0.81043 0.27424 -0.06431
 H2119 H 0.79097 0.31223 -0.09050
 H2120 H 0.77661 0.29527 -0.07171
 C2121 C 0.80219 0.80522 0.40365
 C2122 C 0.80857 0.79089 0.41196
 C2123 C 0.80131 0.78342 0.42854
 C2124 C 0.78537 0.78738 0.43539
 H2125 H 0.82021 0.78435 0.40678
 H2126 H 0.80953 0.77355 0.43487
 H2127 H 0.79092 0.81231 0.40892
 H2128 H 0.77653 0.79612 0.42829
 C2129 C 0.70011 0.30165 0.59794
 C2130 C 0.69426 0.28679 0.59016
 C2131 C 0.70245 0.27841 0.57446
 C2132 C 0.71438 0.28627 0.56389
 H2133 H 0.68296 0.27994 0.59567
 H2134 H 0.69752 0.26539 0.57118
 H2135 H 0.71174 0.30841 0.59306
 H2136 H 0.71827 0.29981 0.56642
 C2137 C 0.69724 0.79970 1.09656
 C2138 C 0.71194 0.80569 1.08855
 C2139 C 0.72033 0.79744 1.07287
 C2140 C 0.71256 0.78524 1.06254
 H2141 H 0.71864 0.81718 1.09385
 H2142 H 0.73324 0.80253 1.06940
 H2143 H 0.69065 0.78790 1.09190
 H2144 H 0.69911 0.78116 1.06529
 C2145 C 0.19880 0.30080 1.09710
 C2146 C 0.19282 0.28603 1.08926
 C2147 C 0.20113 0.27751 1.07371
 C2148 C 0.21303 0.28539 1.06311
 H2149 H 0.18135 0.27935 1.09462
 H2150 H 0.19632 0.26442 1.07056
 H2151 H 0.21061 0.30736 1.09237
 H2152 H 0.21674 0.29899 1.06553
 C2153 C 0.19697 0.80181 0.59487
 C2154 C 0.21127 0.80819 0.58652
 C2155 C 0.21872 0.80079 0.56999
 C2156 C 0.21471 0.78478 0.56334
 H2157 H 0.21773 0.81992 0.59158
 H2158 H 0.22852 0.80895 0.56351
 H2159 H 0.18995 0.79046 0.58972
 H2160 H 0.20604 0.77601 0.57061
 C2161 C 0.30050 0.69834 0.59596
 C2162 C 0.30707 0.71277 0.58798
 C2163 C 0.29904 0.72134 0.57230
 C2164 C 0.28733 0.71342 0.56153
 H2165 H 0.31875 0.71911 0.59331
 H2166 H 0.30389 0.73444 0.56923
 H2167 H 0.28844 0.69223 0.59127
 H2168 H 0.28369 0.69979 0.56391
 C2169 C 0.30421 0.19860 1.09666
 C2170 C 0.28970 0.19232 1.08861
 C2171 C 0.28215 0.19943 1.07203
 C2172 C 0.28640 0.21513 1.06486
 H2173 H 0.28305 0.18083 1.09398
 H2174 H 0.27205 0.19132 1.06595
 H2175 H 0.31139 0.20972 1.09124
 H2176 H 0.29538 0.22392 1.07171
 C2177 C 0.80198 0.69972 1.09667
 C2178 C 0.78709 0.69374 1.08901
 C2179 C 0.77850 0.70180 1.07333
 C2180 C 0.78625 0.71363 1.06258
 H2181 H 0.78036 0.68241 1.09459
 H2182 H 0.76544 0.69683 1.07026
 H2183 H 0.80861 0.71139 1.09172
 H2184 H 0.79980 0.71755 1.06500
 C2185 C 0.80488 0.19838 0.59637
 C2186 C 0.79048 0.19223 0.58799
 C2187 C 0.78304 0.19966 0.57148
 C2188 C 0.78755 0.21532 0.56438
 H2189 H 0.78379 0.18064 0.59307
 H2190 H 0.77276 0.19181 0.56537
 H2191 H 0.81207 0.20966 0.59129
 H2192 H 0.79676 0.22389 0.57119
 C2193 C 0.69953 0.70031 0.40283
 C2194 C 0.71412 0.69394 0.41070
 C2195 C 0.72274 0.70209 0.42629
 C2196 C 0.71471 0.71360 0.43719
 H2197 H 0.72058 0.68235 0.40533
 H2198 H 0.73598 0.69748 0.42918
 H2199 H 0.69330 0.71230 0.40755
 H2200 H 0.70096 0.71698 0.43497
 C2201 C 0.70159 0.19507 -0.09521
 C2202 C 0.69519 0.20930 -0.08674
 C2203 C 0.70257 0.21680 -0.07023
 C2204 C 0.71842 0.21265 -0.06331
 H2205 H 0.68342 0.21576 -0.09172
 H2206 H 0.69450 0.22682 -0.06395
 H2207 H 0.71303 0.18808 -0.09020
 H2208 H 0.72718 0.20372 -0.07028
 C2209 C 0.19810 0.69921 -0.09556
 C2210 C 0.21266 0.69315 -0.08740
 C2211 C 0.22014 0.70065 -0.07095
 C2212 C 0.21584 0.71652 -0.06418
 H2213 H 0.21938 0.68162 -0.09259
 H2214 H 0.23024 0.69271 -0.06466
 H2215 H 0.19085 0.71036 -0.09029
 H2216 H 0.20684 0.72511 -0.07125
 C2217 C 0.20004 0.19678 0.40489
 C2218 C 0.19377 0.21102 0.41342
 C2219 C 0.20134 0.21846 0.42986
 C2220 C 0.21736 0.21441 0.43649
 H2221 H 0.18197 0.21752 0.40856
 H2222 H 0.19329 0.22838 0.43632
 H2223 H 0.21147 0.18971 0.40983
 H2224 H 0.22608 0.20563 0.42930
 C2225 C 0.30442 0.40339 0.69935
 C2226 C 0.29012 0.41160 0.69277
 C2227 C 0.28237 0.42809 0.69995
 C2228 C 0.28602 0.43488 0.71597
 H2229 H 0.28382 0.40642 0.68101
 H2230 H 0.27261 0.43438 0.69161
 H2231 H 0.31128 0.40865 0.71074
 H2232 H 0.29469 0.42779 0.72487
 C2233 C 0.30397 0.90510 0.19921
 C2234 C 0.28936 0.91310 0.19310
 C2235 C 0.28182 0.92962 0.20035
 C2236 C 0.28592 0.93653 0.21619
 H2237 H 0.28263 0.90774 0.18167
 H2238 H 0.27180 0.93585 0.19225
 H2239 H 0.31122 0.91053 0.21029
 H2240 H 0.29477 0.92950 0.22497
 C2241 C 0.80433 0.40499 0.19971
 C2242 C 0.79005 0.41342 0.19337
 C2243 C 0.78256 0.42994 0.20078
 C2244 C 0.78685 0.43687 0.21657
 H2245 H 0.78353 0.40838 0.18168
 H2246 H 0.77247 0.43619 0.19279
 H2247 H 0.81137 0.41003 0.21109
 H2248 H 0.79587 0.42991 0.22521
 C2249 C 0.80486 0.90335 0.69864
 C2250 C 0.79068 0.91176 0.69205
 C2251 C 0.78300 0.92823 0.69935
 C2252 C 0.78674 0.93497 0.71537
 H2253 H 0.78440 0.90674 0.68021
 H2254 H 0.77318 0.93457 0.69110
 H2255 H 0.81170 0.90842 0.71013
 H2256 H 0.79546 0.92787 0.72422
 C2257 C 0.69519 0.59671 0.69728
 C2258 C 0.70978 0.58857 0.69124
 C2259 C 0.71722 0.57204 0.69868
 C2260 C 0.71331 0.56549 0.71474
 H2261 H 0.71650 0.59379 0.67973
 H2262 H 0.72699 0.56551 0.69052
 H2263 H 0.68792 0.59135 0.70837
 H2264 H 0.70472 0.57286 0.72351
 C2265 C 0.69810 0.09782 0.19838
 C2266 C 0.71276 0.08990 0.19217
 C2267 C 0.72127 0.07414 0.20016
 C2268 C 0.71351 0.06350 0.21210
 H2269 H 0.71935 0.09531 0.18067
 H2270 H 0.73423 0.07086 0.19504
 H2271 H 0.69163 0.09302 0.21019
 H2272 H 0.70003 0.06609 0.21616
 C2273 C 0.19629 0.59725 0.19871
 C2274 C 0.21123 0.58942 0.19308
 C2275 C 0.21941 0.57357 0.20119
 C2276 C 0.21164 0.56335 0.21347
 H2277 H 0.21829 0.59492 0.18192
 H2278 H 0.23223 0.56994 0.19597
 H2279 H 0.18924 0.59233 0.21013
 H2280 H 0.19832 0.56627 0.21779
 C2281 C 0.19722 0.09644 0.69500
 C2282 C 0.19100 0.08801 0.70932
 C2283 C 0.19852 0.07143 0.71662
 C2284 C 0.21459 0.06491 0.71257
 H2285 H 0.17932 0.09305 0.71591
 H2286 H 0.19040 0.06482 0.72637
 H2287 H 0.20849 0.09130 0.68783
 H2288 H 0.22329 0.07232 0.70396
 C2289 C 0.30079 0.59655 0.29905
 C2290 C 0.28599 0.58874 0.30502
 C2291 C 0.27756 0.57303 0.29687
 C2292 C 0.28540 0.56248 0.28490
 H2293 H 0.27921 0.59424 0.31636
 H2294 H 0.26453 0.56980 0.30181
 H2295 H 0.30748 0.59167 0.28739
 H2296 H 0.29896 0.56498 0.28105
 C2297 C 0.30250 0.09696 0.79897
 C2298 C 0.28761 0.08909 0.80467
 C2299 C 0.27926 0.07349 0.79629
 C2300 C 0.28719 0.06308 0.78428
 H2301 H 0.28067 0.09448 0.81596
 H2302 H 0.26619 0.07019 0.80110
 H2303 H 0.30933 0.09222 0.78733
 H2304 H 0.30078 0.06563 0.78055
 C2305 C 0.80441 0.59645 0.80065
 C2306 C 0.79008 0.58809 0.80697
 C2307 C 0.78248 0.57165 0.79949
 C2308 C 0.78663 0.56480 0.78362
 H2309 H 0.78362 0.59311 0.81871
 H2310 H 0.77240 0.56538 0.80750
 H2311 H 0.81142 0.59139 0.78925
 H2312 H 0.79561 0.57179 0.77495
 C2313 C 0.80186 0.09696 0.29910
 C2314 C 0.78712 0.08890 0.30492
 C2315 C 0.77881 0.07328 0.29651
 C2316 C 0.78673 0.06296 0.28439
 H2317 H 0.78028 0.09414 0.31635
 H2318 H 0.76581 0.06983 0.30140
 H2319 H 0.80857 0.09238 0.28733
 H2320 H 0.80026 0.06565 0.28055
 C2321 C 0.70031 0.40291 0.30240
 C2322 C 0.69409 0.41097 0.28786
 C2323 C 0.70224 0.42670 0.27948
 C2324 C 0.71426 0.43719 0.28733
 H2325 H 0.68251 0.40570 0.28130
 H2326 H 0.69718 0.43012 0.26655
 H2327 H 0.71224 0.40753 0.30880
 H2328 H 0.71824 0.43453 0.30080
 C2329 C 0.69504 0.90320 0.80162
 C2330 C 0.70969 0.91117 0.80771
 C2331 C 0.71720 0.92772 0.80038
 C2332 C 0.71337 0.93431 0.78433
 H2333 H 0.71640 0.90580 0.81915
 H2334 H 0.72696 0.93421 0.80859
 H2335 H 0.68778 0.90872 0.79060
 H2336 H 0.70480 0.92697 0.77552
 C2337 C 0.19854 0.40193 0.80156
 C2338 C 0.19212 0.41001 0.78713
 C2339 C 0.20028 0.42572 0.77870
 C2340 C 0.21216 0.43630 0.78663
 H2341 H 0.18048 0.40474 0.78068
 H2342 H 0.19541 0.42896 0.76565
 H2343 H 0.21053 0.40658 0.80783
 H2344 H 0.21585 0.43379 0.80022
 C2345 C 0.19791 0.90306 0.30000
 C2346 C 0.19138 0.91121 0.28566
 C2347 C 0.19960 0.92690 0.27724
 C2348 C 0.21115 0.93767 0.28540
 H2349 H 0.17964 0.90602 0.27931
 H2350 H 0.19499 0.93001 0.26407
 H2351 H 0.21006 0.90759 0.30605
 H2352 H 0.21452 0.93527 0.29910
 C2353 C 0.40516 0.30379 0.70092
 C2354 C 0.41374 0.28965 0.69449
 C2355 C 0.43025 0.28215 0.70192
 C2356 C 0.43693 0.28604 0.71792
 H2357 H 0.40886 0.28326 0.68266
 H2358 H 0.43669 0.27232 0.69375
 H2359 H 0.41010 0.31074 0.71240
 H2360 H 0.42975 0.29478 0.72670
 C2361 C 0.40411 0.80504 0.19854
 C2362 C 0.41215 0.79048 0.19235
 C2363 C 0.42865 0.78292 0.19969
 C2364 C 0.43510 0.78659 0.21584
 H2365 H 0.40687 0.78387 0.18081
 H2366 H 0.43520 0.77327 0.19141
 H2367 H 0.40955 0.81221 0.20966
 H2368 H 0.42767 0.79504 0.22469
 C2369 C 0.90375 0.30430 0.19972
 C2370 C 0.91201 0.28995 0.19333
 C2371 C 0.92851 0.28237 0.20068
 C2372 C 0.93514 0.28621 0.21671
 H2373 H 0.90690 0.28350 0.18163
 H2374 H 0.93494 0.27259 0.19246
 H2375 H 0.90896 0.31131 0.21104
 H2376 H 0.92789 0.29488 0.22550
 C2377 C 0.90484 0.80316 0.69948
 C2378 C 0.91320 0.78886 0.69312
 C2379 C 0.92980 0.78146 0.70040
 C2380 C 0.93652 0.78541 0.71636
 H2381 H 0.90811 0.78232 0.68145
 H2382 H 0.93625 0.77170 0.69217
 H2383 H 0.91002 0.81024 0.71077
 H2384 H 0.92928 0.79402 0.72522
 C2385 C 0.59873 0.30317 0.30008
 C2386 C 0.59090 0.28832 0.30588
 C2387 C 0.57523 0.27987 0.29767
 C2388 C 0.56483 0.28753 0.28546
 H2389 H 0.59630 0.28152 0.31725
 H2390 H 0.57178 0.26699 0.30284
 H2391 H 0.59395 0.30991 0.28841
 H2392 H 0.56752 0.30094 0.28125
 C2393 C 0.59629 0.80155 0.79896
 C2394 C 0.58843 0.78675 0.80485
 C2395 C 0.57267 0.77836 0.79674
 C2396 C 0.56235 0.78600 0.78446
 H2397 H 0.59385 0.77997 0.81622
 H2398 H 0.56915 0.76554 0.80200
 H2399 H 0.59148 0.80828 0.78730
 H2400 H 0.56513 0.79935 0.78015
 C2401 C 0.09730 0.30186 0.80150
 C2402 C 0.08935 0.28721 0.80764
 C2403 C 0.07361 0.27879 0.79953
 C2404 C 0.06297 0.28663 0.78765
 H2405 H 0.09478 0.28052 0.81906
 H2406 H 0.07040 0.26576 0.80447
 H2407 H 0.09251 0.30839 0.78972
 H2408 H 0.06547 0.30018 0.78379
 C2409 C 0.09746 0.80224 0.30034
 C2410 C 0.08969 0.78742 0.30630
 C2411 C 0.07410 0.77886 0.29801
 C2412 C 0.06328 0.78679 0.28635
 H2413 H 0.09515 0.78073 0.31770
 H2414 H 0.07114 0.76566 0.30264
 H2415 H 0.09264 0.80878 0.28857
 H2416 H 0.06552 0.80049 0.28285
 C2417 C 0.59656 0.69832 0.69863
 C2418 C 0.58845 0.71290 0.69253
 C2419 C 0.57263 0.72115 0.70066
 C2420 C 0.56209 0.71316 0.71254
 H2421 H 0.59377 0.71963 0.68107
 H2422 H 0.56924 0.73414 0.69573
 H2423 H 0.59188 0.69174 0.71042
 H2424 H 0.56479 0.69964 0.71638
 C2425 C 0.59817 0.19862 0.19946
 C2426 C 0.59027 0.21337 0.19350
 C2427 C 0.57464 0.22183 0.20180
 C2428 C 0.56404 0.21389 0.21366
 H2429 H 0.59561 0.22009 0.18205
 H2430 H 0.57146 0.23493 0.19702
 H2431 H 0.59344 0.19202 0.21123
 H2432 H 0.56653 0.20029 0.21734
 C2433 C 0.09630 0.69867 0.19475
 C2434 C 0.08799 0.69237 0.20911
 C2435 C 0.07155 0.69982 0.21674
 C2436 C 0.06472 0.71576 0.21274
 H2437 H 0.09304 0.68063 0.21555
 H2438 H 0.06527 0.69172 0.22671
 H2439 H 0.09119 0.71006 0.18778
 H2440 H 0.07178 0.72451 0.20388
 C2441 C 0.09566 0.19753 0.69705
 C2442 C 0.08757 0.19100 0.71143
 C2443 C 0.07106 0.19825 0.71916
 C2444 C 0.06443 0.21437 0.71560
 H2445 H 0.09285 0.17928 0.71774
 H2446 H 0.06465 0.18988 0.72882
 H2447 H 0.09025 0.20885 0.69016
 H2448 H 0.07169 0.22327 0.70705
 C2449 C 0.40348 0.69448 0.30097
 C2450 C 0.41152 0.70903 0.30719
 C2451 C 0.42806 0.71667 0.29997
 C2452 C 0.43507 0.71265 0.28414
 H2453 H 0.40614 0.71566 0.31868
 H2454 H 0.43420 0.72674 0.30808
 H2455 H 0.40896 0.68730 0.28988
 H2456 H 0.42816 0.70370 0.27537
 C2457 C 0.40331 0.19739 0.80342
 C2458 C 0.41073 0.19209 0.78819
 C2459 C 0.42647 0.20041 0.77995
 C2460 C 0.43766 0.21135 0.78840
 H2461 H 0.40478 0.18134 0.78085
 H2462 H 0.42915 0.19646 0.76648
 H2463 H 0.40856 0.20858 0.81061
 H2464 H 0.43560 0.21414 0.80227
 C2465 C 0.90342 0.69837 0.80066
 C2466 C 0.91145 0.69195 0.78619
 C2467 C 0.92725 0.69999 0.77785
 C2468 C 0.93817 0.71133 0.78608
 H2469 H 0.90604 0.68044 0.77963
 H2470 H 0.93026 0.69545 0.76464
 H2471 H 0.90819 0.71030 0.80696
 H2472 H 0.93586 0.71460 0.79982
 C2473 C 0.90212 0.19802 0.30275
 C2474 C 0.90996 0.19234 0.28787
 C2475 C 0.92564 0.20076 0.27960
 C2476 C 0.93615 0.21258 0.28771
 H2477 H 0.90448 0.18111 0.28089
 H2478 H 0.92889 0.19616 0.26646
 H2479 H 0.90695 0.20960 0.30961
 H2480 H 0.93362 0.21609 0.30134
 C2481 C 0.30637 0.30241 0.59744
 C2482 C 0.29183 0.30862 0.58934
 C2483 C 0.28429 0.30137 0.57279
 C2484 C 0.28854 0.28562 0.56573
 H2485 H 0.28513 0.32009 0.59468
 H2486 H 0.27413 0.30940 0.56668
 H2487 H 0.31359 0.29130 0.59205
 H2488 H 0.29759 0.27692 0.57261
 C2489 C 0.30278 0.80556 0.09698
 C2490 C 0.30905 0.79110 0.08882
 C2491 C 0.30185 0.78376 0.07217
 C2492 C 0.28589 0.78779 0.06543
 H2493 H 0.32054 0.78441 0.09413
 H2494 H 0.31008 0.77400 0.06571
 H2495 H 0.29168 0.81279 0.09156
 H2496 H 0.27702 0.79636 0.07270
 C2497 C 0.80226 0.30393 0.09834
 C2498 C 0.80834 0.28916 0.09057
 C2499 C 0.80019 0.28056 0.07496
 C2500 C 0.78818 0.28826 0.06435
 H2501 H 0.81976 0.28250 0.09607
 H2502 H 0.80519 0.26753 0.07182
 H2503 H 0.79051 0.31049 0.09348
 H2504 H 0.78425 0.30180 0.06677
 C2505 C 0.80602 0.80260 0.59626
 C2506 C 0.79154 0.80881 0.58807
 C2507 C 0.78407 0.80144 0.57153
 C2508 C 0.78827 0.78556 0.56471
 H2509 H 0.78486 0.82033 0.59332
 H2510 H 0.77401 0.80945 0.56523
 H2511 H 0.81324 0.79146 0.59093
 H2512 H 0.79719 0.77689 0.57177
 C2513 C 0.30128 0.69550 0.40179
 C2514 C 0.30775 0.70978 0.41008
 C2515 C 0.30040 0.71736 0.42658
 C2516 C 0.28434 0.71357 0.43325
 H2517 H 0.31956 0.71611 0.40504
 H2518 H 0.30869 0.72706 0.43305
 H2519 H 0.28983 0.68861 0.40692
 H2520 H 0.27544 0.70502 0.42599
 C2521 C 0.30125 0.19377 0.90372
 C2522 C 0.30758 0.20793 0.91232
 C2523 C 0.29996 0.21539 0.92874
 C2524 C 0.28412 0.21102 0.93557
 H2525 H 0.31943 0.21437 0.90751
 H2526 H 0.30785 0.22551 0.93507
 H2527 H 0.28969 0.18682 0.90852
 H2528 H 0.27551 0.20200 0.92856
 C2529 C 0.80455 0.69725 0.90304
 C2530 C 0.78990 0.69110 0.91098
 C2531 C 0.78220 0.69849 0.92741
 C2532 C 0.78595 0.71458 0.93399
 H2533 H 0.78331 0.67956 0.90566
 H2534 H 0.77238 0.69029 0.93381
 H2535 H 0.81169 0.70837 0.90852
 H2536 H 0.79459 0.72339 0.92673
 C2537 C 0.80063 0.19448 0.40342
 C2538 C 0.80694 0.20877 0.41182
 C2539 C 0.79950 0.21632 0.42827
 C2540 C 0.78378 0.21191 0.43536
 H2541 H 0.81867 0.21528 0.40680
 H2542 H 0.80742 0.22654 0.43439
 H2543 H 0.78920 0.18747 0.40843
 H2544 H 0.77514 0.20276 0.42856
 C2545 C 0.69844 0.30059 0.40221
 C2546 C 0.71326 0.30636 0.41014
 C2547 C 0.72162 0.29790 0.42572
 C2548 C 0.71363 0.28597 0.43619
 H2549 H 0.72010 0.31776 0.40483
 H2550 H 0.73471 0.30265 0.42902
 H2551 H 0.69175 0.28883 0.40686
 H2552 H 0.70002 0.28228 0.43365
 C2553 C 0.69486 0.80068 0.90231
 C2554 C 0.70919 0.80701 0.91066
 C2555 C 0.71663 0.79963 0.92721
 C2556 C 0.71266 0.78362 0.93386
 H2557 H 0.71571 0.81870 0.90560
 H2558 H 0.72642 0.80780 0.93370
 H2559 H 0.68779 0.78936 0.90746
 H2560 H 0.70402 0.77483 0.92659
 C2561 C 0.19798 0.30295 0.90375
 C2562 C 0.19171 0.28843 0.91180
 C2563 C 0.19907 0.28082 0.92825
 C2564 C 0.21524 0.28445 0.93472
 H2565 H 0.18006 0.28193 0.90660
 H2566 H 0.19075 0.27120 0.93479
 H2567 H 0.20922 0.31000 0.90912
 H2568 H 0.22415 0.29287 0.92732
 C2569 C 0.19786 0.80484 0.40284
 C2570 C 0.19176 0.79025 0.41090
 C2571 C 0.19921 0.78268 0.42734
 C2572 C 0.21522 0.78669 0.43398
 H2573 H 0.18023 0.78357 0.40564
 H2574 H 0.19114 0.77273 0.43372
 H2575 H 0.20898 0.81207 0.40822
 H2576 H 0.22392 0.79547 0.42678
 C2577 C 0.69640 0.69908 0.59633
 C2578 C 0.71082 0.69275 0.58815
 C2579 C 0.71847 0.70015 0.57172
 C2580 C 0.71476 0.71626 0.56516
 H2581 H 0.71724 0.68101 0.59325
 H2582 H 0.72822 0.69190 0.56525
 H2583 H 0.68941 0.71043 0.59111
 H2584 H 0.70617 0.72511 0.57244
 C2585 C 0.69751 0.19907 0.09695
 C2586 C 0.71207 0.19285 0.08891
 C2587 C 0.71980 0.20029 0.07255
 C2588 C 0.71567 0.21616 0.06566
 H2589 H 0.71859 0.18122 0.09412
 H2590 H 0.72993 0.19226 0.06639
 H2591 H 0.69044 0.21032 0.09166
 H2592 H 0.70665 0.22483 0.07261
 C2593 C 0.20016 0.69663 0.09633
 C2594 C 0.19408 0.71108 0.08802
 C2595 C 0.20167 0.71859 0.07161
 C2596 C 0.21751 0.71425 0.06475
 H2597 H 0.18241 0.71770 0.09304
 H2598 H 0.19380 0.72879 0.06536
 H2599 H 0.21148 0.68947 0.09126
 H2600 H 0.22610 0.70516 0.07171
 C2601 C 0.19646 0.19987 0.59667
 C2602 C 0.21098 0.19364 0.58857
 C2603 C 0.21870 0.20105 0.57218
 C2604 C 0.21462 0.21693 0.56531
 H2605 H 0.21754 0.18203 0.59377
 H2606 H 0.22882 0.19302 0.56601
 H2607 H 0.18937 0.21113 0.59140
 H2608 H 0.20560 0.22561 0.57226
   
