data_POSCAR
  _audit_creation_date              2014-09-24
  _audit_creation_method            'ToBaCCo'
  _symmetry_space_group_name_H-M    'P1'
  _symmetry_Int_Tables_number       1
  _symmetry_cell_setting            triclinic
  loop_
  _symmetry_equiv_pos_as_xyz
 x,y,z
_cell_length_a 104.6004
_cell_length_b 104.4670
_cell_length_c 104.5575
_cell_angle_alpha 90.059900
_cell_angle_beta 90.045000
_cell_angle_gamma 90.017500
loop_
  _atom_site_label
  _atom_site_type_symbol
  _atom_site_fract_x
  _atom_site_fract_y
  _atom_site_fract_z
N1 N 0.31339 0.42758 0.90143
 N2 N 0.32268 0.43607 0.90112
 C3 C 0.32096 0.44378 0.89094
 C4 C 0.31000 0.43992 0.88461
 C5 C 0.30546 0.42961 0.89150
 H6 H 0.32701 0.45180 0.88846
 H7 H 0.29686 0.42418 0.88960
 Cu8 Cu 0.33570 0.43660 0.91445
 Cu9 Cu 0.31179 0.41520 0.91520
 Cu10 Cu 0.33664 0.41366 0.93706
 N11 N 0.34899 0.43631 0.92750
 N12 N 0.34939 0.42722 0.93619
 C13 C 0.35929 0.42939 0.94413
 C14 C 0.36540 0.44045 0.94022
 C15 C 0.35865 0.44458 0.92962
 H16 H 0.36173 0.42349 0.95227
 H17 H 0.36054 0.45307 0.92401
 N18 N 0.32271 0.40094 0.93641
 N19 N 0.31318 0.40160 0.92815
 C20 C 0.30493 0.39198 0.93050
 C21 C 0.30946 0.38501 0.94076
 C22 C 0.32075 0.39091 0.94426
 H23 H 0.29614 0.39029 0.92531
 H24 H 0.32687 0.38826 0.95216
 H25 H 0.32237 0.42449 0.92936
 H26 H 0.33128 0.41401 0.91796
 N27 N 0.42765 0.84944 0.43646
 N28 N 0.43661 0.84923 0.42765
 C29 C 0.44486 0.85891 0.42983
 C30 C 0.44080 0.86550 0.44057
 C31 C 0.42983 0.85926 0.44451
 H32 H 0.45324 0.86095 0.42415
 H33 H 0.42400 0.86158 0.45272
 Cu34 Cu 0.43669 0.83607 0.41444
 Cu35 Cu 0.41409 0.83666 0.43722
 Cu36 Cu 0.41412 0.81323 0.41364
 N37 N 0.43662 0.82296 0.40118
 N38 N 0.42769 0.81410 0.40091
 C39 C 0.42991 0.80613 0.39104
 C40 C 0.44083 0.81017 0.38482
 C41 C 0.44485 0.82089 0.39148
 H42 H 0.42412 0.79788 0.38866
 H43 H 0.45322 0.82661 0.38947
 N44 N 0.40122 0.81398 0.42737
 N45 N 0.40121 0.82289 0.43634
 C46 C 0.39155 0.82055 0.44453
 C47 C 0.38524 0.80965 0.44054
 C48 C 0.39157 0.80574 0.42963
 H49 H 0.38939 0.82619 0.45293
 H50 H 0.38942 0.79737 0.42393
 H51 H 0.42411 0.82212 0.42827
 H52 H 0.41393 0.83251 0.41794
 N53 N 0.92731 0.90111 0.81389
 N54 N 0.93621 0.90122 0.82277
 C55 C 0.94447 0.89158 0.82052
 C56 C 0.94049 0.88512 0.80968
 C57 C 0.92957 0.89140 0.80572
 H58 H 0.95283 0.88946 0.82624
 H59 H 0.92380 0.88915 0.79744
 Cu60 Cu 0.93634 0.91410 0.83625
 Cu61 Cu 0.91369 0.91378 0.81332
 Cu62 Cu 0.91397 0.93731 0.83666
 N63 N 0.93656 0.92771 0.84900
 N64 N 0.92774 0.93667 0.84916
 C65 C 0.93025 0.94492 0.85875
 C66 C 0.94127 0.94094 0.86487
 C67 C 0.94502 0.92997 0.85846
 H68 H 0.92458 0.95328 0.86099
 H69 H 0.95336 0.92419 0.86047
 N70 N 0.90082 0.93638 0.82319
 N71 N 0.90072 0.92741 0.81429
 C72 C 0.89087 0.92958 0.80628
 C73 C 0.88450 0.94042 0.81033
 C74 C 0.89103 0.94449 0.82108
 H75 H 0.88858 0.92385 0.79797
 H76 H 0.88890 0.95286 0.82677
 H77 H 0.92404 0.92816 0.82226
 H78 H 0.91362 0.91799 0.83262
 N79 N 0.42688 -0.09927 0.31376
 N80 N 0.43599 -0.09895 0.32243
 C81 C 0.44437 -0.10845 0.32006
 C82 C 0.44025 -0.11504 0.30936
 C83 C 0.42913 -0.10898 0.30560
 H84 H 0.45287 -0.11041 0.32562
 H85 H 0.42325 -0.11134 0.29742
 Cu86 Cu 0.43596 -0.08621 0.33600
 Cu87 Cu 0.41313 -0.08673 0.31322
 Cu88 Cu 0.41488 -0.06198 0.33515
 N89 N 0.43602 -0.07276 0.34890
 N90 N 0.42761 -0.06341 0.34861
 C91 C 0.42981 -0.05540 0.35846
 C92 C 0.44017 -0.05998 0.36525
 C93 C 0.44389 -0.07100 0.35895
 H94 H 0.42443 -0.04678 0.36040
 H95 H 0.45182 -0.07715 0.36145
 N96 N 0.40107 -0.06341 0.32246
 N97 N 0.40032 -0.07294 0.31419
 C98 C 0.39016 -0.07101 0.30650
 C99 C 0.38427 -0.05976 0.31015
 C100 C 0.39138 -0.05520 0.32030
 H101 H 0.38742 -0.07713 0.29861
 H102 H 0.38975 -0.04642 0.32552
 H103 H 0.42420 -0.07269 0.32111
 H104 H 0.41348 -0.08150 0.33241
 N105 N 0.81375 0.32291 0.34932
 N106 N 0.82252 0.31390 0.34906
 C107 C 0.82033 0.30563 0.35869
 C108 C 0.80964 0.30971 0.36530
 C109 C 0.80572 0.32071 0.35912
 H110 H 0.82597 0.29719 0.36070
 H111 H 0.79752 0.32655 0.36149
 Cu112 Cu 0.83567 0.31378 0.33592
 Cu113 Cu 0.81307 0.33657 0.33667
 Cu114 Cu 0.83657 0.33647 0.31324
 N115 N 0.84888 0.31380 0.32283
 N116 N 0.84919 0.32277 0.31402
 C117 C 0.85902 0.32051 0.30604
 C118 C 0.86517 0.30952 0.31005
 C119 C 0.85851 0.30550 0.32072
 H120 H 0.86144 0.32631 0.29783
 H121 H 0.86048 0.29709 0.32641
 N122 N 0.82296 0.34948 0.31410
 N123 N 0.81403 0.34953 0.32302
 C124 C 0.80592 0.35928 0.32076
 C125 C 0.80993 0.36562 0.30991
 C126 C 0.82076 0.35920 0.30594
 H127 H 0.79755 0.36149 0.32641
 H128 H 0.82644 0.36135 0.29757
 H129 H 0.82190 0.32654 0.32206
 H130 H 0.83233 0.33660 0.33250
 N131 N -0.17747 0.84961 0.81355
 N132 N -0.18654 0.84929 0.82225
 C133 C -0.19491 0.85882 0.81993
 C134 C -0.19083 0.86543 0.80922
 C135 C -0.17972 0.85935 0.80543
 H136 H -0.20337 0.86077 0.82554
 H137 H -0.17384 0.86170 0.79725
 Cu138 Cu -0.18657 0.83641 0.83571
 Cu139 Cu -0.16374 0.83702 0.81294
 Cu140 Cu -0.16545 0.81223 0.83477
 N141 N -0.18671 0.82282 0.84849
 N142 N -0.17829 0.81347 0.84815
 C143 C -0.18063 0.80530 0.85781
 C144 C -0.19109 0.80974 0.86454
 C145 C -0.19471 0.82088 0.85840
 H146 H -0.17529 0.79663 0.85966
 H147 H -0.20268 0.82698 0.86088
 N148 N -0.15159 0.81372 0.82213
 N149 N -0.15088 0.82324 0.81386
 C150 C -0.14065 0.82140 0.80626
 C151 C -0.13465 0.81021 0.80995
 C152 C -0.14180 0.80561 0.82005
 H153 H -0.13789 0.82756 0.79843
 H154 H -0.14008 0.79687 0.82532
 H155 H -0.17485 0.82292 0.82070
 H156 H -0.16412 0.83174 0.83200
 N157 N 0.93661 0.34908 0.42755
 N158 N 0.92786 0.34875 0.43658
 C159 C 0.93026 0.35813 0.44511
 C160 C 0.94109 0.36465 0.44119
 C161 C 0.94485 0.35868 0.43000
 H162 H 0.92466 0.36001 0.45359
 H163 H 0.95309 0.36099 0.42421
 Cu164 Cu 0.91424 0.33605 0.43634
 Cu165 Cu 0.93718 0.33661 0.41371
 Cu166 Cu 0.91519 0.31191 0.41512
 N167 N 0.90129 0.32264 0.43620
 N168 N 0.90164 0.31331 0.42777
 C169 C 0.89183 0.30525 0.42992
 C170 C 0.88499 0.30977 0.44027
 C171 C 0.89122 0.32082 0.44404
 H172 H 0.88994 0.29663 0.42450
 H173 H 0.88871 0.32694 0.45200
 N174 N 0.92794 0.31341 0.40137
 N175 N 0.93622 0.32292 0.40075
 C176 C 0.94389 0.32109 0.39057
 C177 C 0.94024 0.30991 0.38453
 C178 C 0.93008 0.30530 0.39158
 H179 H 0.95177 0.32724 0.38790
 H180 H 0.92483 0.29656 0.38981
 H181 H 0.91808 0.33137 0.41391
 H182 H 0.92925 0.32250 0.42470
 N183 N 0.43647 0.42755 0.84850
 N184 N 0.42716 0.43600 0.84890
 C185 C 0.42906 0.44387 0.85894
 C186 C 0.44011 0.44011 0.86512
 C187 C 0.44456 0.42972 0.85828
 H188 H 0.42298 0.45184 0.86153
 H189 H 0.45319 0.42434 0.86011
 Cu190 Cu 0.41364 0.43604 0.83611
 Cu191 Cu 0.43776 0.41486 0.83499
 Cu192 Cu 0.41294 0.41333 0.81317
 N193 N 0.40084 0.43618 0.82262
 N194 N 0.40044 0.42714 0.81387
 C195 C 0.39069 0.42950 0.80580
 C196 C 0.38469 0.44061 0.80969
 C197 C 0.39135 0.44461 0.82039
 H198 H 0.38828 0.42371 0.79757
 H199 H 0.38944 0.45308 0.82603
 N200 N 0.42668 0.40045 0.81398
 N201 N 0.43622 0.40111 0.82223
 C202 C 0.44435 0.39138 0.82000
 C203 C 0.43974 0.38432 0.80983
 C204 C 0.42853 0.39030 0.80624
 H205 H 0.45313 0.38967 0.82519
 H206 H 0.42237 0.38761 0.79838
 H207 H 0.42708 0.42437 0.82102
 H208 H 0.41830 0.41358 0.83227
 N209 N 0.81300 0.90167 0.92788
 N210 N 0.82223 0.90153 0.93641
 C211 C 0.82047 0.89153 0.94434
 C212 C 0.80954 0.88513 0.94056
 C213 C 0.80505 0.89179 0.93008
 H214 H 0.82646 0.88923 0.95246
 H215 H 0.79647 0.88977 0.92465
 Cu216 Cu 0.83521 0.91487 0.93673
 Cu217 Cu 0.81146 0.91522 0.91522
 Cu218 Cu 0.83632 0.93706 0.91345
 N219 N 0.84839 0.92798 0.93643
 N220 N 0.84889 0.93649 0.92719
 C221 C 0.85869 0.94455 0.92939
 C222 C 0.86462 0.94090 0.94062
 C223 C 0.85788 0.93035 0.94484
 H224 H 0.86118 0.95262 0.92342
 H225 H 0.85965 0.92497 0.95350
 N226 N 0.82255 0.93610 0.90060
 N227 N 0.81298 0.92788 0.90137
 C228 C 0.80482 0.93003 0.89164
 C229 C 0.80943 0.94013 0.88449
 C230 C 0.82069 0.94373 0.89039
 H231 H 0.79602 0.92484 0.89001
 H232 H 0.82686 0.95157 0.88763
 H233 H 0.83090 0.91798 0.91413
 H234 H 0.82194 0.92959 0.92435
 N235 N 0.31387 0.84914 0.32254
 N236 N 0.32249 0.84869 0.31341
 C237 C 0.32028 0.85827 0.30509
 C238 C 0.30974 0.86505 0.30925
 C239 C 0.30592 0.85903 0.32035
 H240 H 0.32578 0.86012 0.29656
 H241 H 0.29782 0.86155 0.32625
 Cu242 Cu 0.33561 0.83551 0.31323
 Cu243 Cu 0.31306 0.83649 0.33617
 Cu244 Cu 0.33500 0.81174 0.33477
 N245 N 0.34897 0.82258 0.31380
 N246 N 0.34873 0.81337 0.32237
 C247 C 0.35875 0.80553 0.32044
 C248 C 0.36558 0.81003 0.31009
 C249 C 0.35915 0.82085 0.30611
 H250 H 0.36077 0.79701 0.32594
 H251 H 0.36159 0.82683 0.29806
 N252 N 0.32204 0.81312 0.34831
 N253 N 0.31378 0.82265 0.34894
 C254 C 0.30591 0.82068 0.35894
 C255 C 0.30939 0.80939 0.36483
 C256 C 0.31967 0.80487 0.35791
 H257 H 0.29801 0.82679 0.36158
 H258 H 0.32482 0.79608 0.35959
 H259 H 0.33215 0.83115 0.33577
 H260 H 0.32080 0.82209 0.32534
 N261 N 0.81376 0.40074 0.42742
 N262 N 0.82271 0.40094 0.43628
 C263 C 0.82055 0.39137 0.44462
 C264 C 0.80971 0.38486 0.44078
 C265 C 0.80565 0.39104 0.42983
 H266 H 0.82633 0.38934 0.45296
 H267 H 0.79732 0.38873 0.42414
 Cu268 Cu 0.83614 0.41383 0.43623
 Cu269 Cu 0.81305 0.41329 0.41373
 Cu270 Cu 0.83629 0.43689 0.41372
 N271 N 0.84876 0.42752 0.43632
 N272 N 0.84883 0.43643 0.42744
 C273 C 0.85835 0.44475 0.42986
 C274 C 0.86454 0.44087 0.44086
 C275 C 0.85824 0.42991 0.44472
 H276 H 0.86051 0.45311 0.42416
 H277 H 0.86033 0.42422 0.45310
 N278 N 0.82280 0.43580 0.40065
 N279 N 0.81391 0.42683 0.40066
 C280 C 0.80580 0.42896 0.39087
 C281 C 0.80979 0.43978 0.38445
 C282 C 0.82059 0.44386 0.39085
 H283 H 0.79746 0.42323 0.38871
 H284 H 0.82624 0.45225 0.38866
 H285 H 0.83232 0.41754 0.41353
 H286 H 0.82200 0.42775 0.42397
 N287 N 0.92802 0.84786 -0.06292
 N288 N 0.93667 0.84800 -0.07205
 C289 C 0.94484 0.85775 -0.06993
 C290 C 0.94107 0.86399 -0.05891
 C291 C 0.93036 0.85751 -0.05471
 H292 H 0.95303 0.86000 -0.07582
 H293 H 0.92482 0.85954 -0.04621
 Cu294 Cu 0.93657 0.83530 -0.08571
 Cu295 Cu 0.91508 0.83455 -0.06186
 Cu296 Cu 0.91503 0.81141 -0.08528
 N297 N 0.93656 0.82187 -0.09865
 N298 N 0.92791 0.81272 -0.09863
 C299 C 0.93015 0.80471 -0.10846
 C300 C 0.94079 0.80906 -0.11493
 C301 C 0.94463 0.81996 -0.10849
 H302 H 0.92457 0.79626 -0.11063
 H303 H 0.95279 0.82591 -0.11070
 N304 N 0.90157 0.81258 -0.07218
 N305 N 0.90158 0.82148 -0.06319
 C306 C 0.89162 0.81945 -0.05530
 C307 C 0.88510 0.80875 -0.05949
 C308 C 0.89160 0.80465 -0.07023
 H309 H 0.88946 0.82510 -0.04690
 H310 H 0.88941 0.79631 -0.07596
 H311 H 0.92562 0.82069 -0.07135
 H312 H 0.91440 0.83065 -0.08118
 N313 N 0.31358 0.34913 0.82255
 N314 N 0.32256 0.34900 0.81376
 C315 C 0.32041 0.35860 0.80542
 C316 C 0.30954 0.36506 0.80925
 C317 C 0.30546 0.35883 0.82014
 H318 H 0.32620 0.36066 0.79712
 H319 H 0.29710 0.36109 0.82579
 Cu320 Cu 0.33601 0.33613 0.81387
 Cu321 Cu 0.31276 0.33644 0.83612
 Cu322 Cu 0.33614 0.31296 0.83623
 N323 N 0.34885 0.32264 0.81390
 N324 N 0.34890 0.31369 0.82273
 C325 C 0.35860 0.30554 0.82043
 C326 C 0.36492 0.30958 0.80957
 C327 C 0.35850 0.32045 0.80565
 H328 H 0.36082 0.29720 0.82614
 H329 H 0.36064 0.32622 0.79735
 N330 N 0.32242 0.31383 0.84910
 N331 N 0.31352 0.32278 0.84906
 C332 C 0.30530 0.32054 0.85872
 C333 C 0.30921 0.30964 0.86507
 C334 C 0.32010 0.30565 0.85878
 H335 H 0.29695 0.32624 0.86085
 H336 H 0.32575 0.29728 0.86097
 H337 H 0.33198 0.33224 0.83650
 H338 H 0.32181 0.32204 0.82591
 N339 N 0.15133 0.57230 0.56319
 N340 N 0.15103 0.56384 0.57249
 C341 C 0.14092 0.55603 0.57074
 C342 C 0.13462 0.55980 0.55974
 C343 C 0.14145 0.57017 0.55522
 H344 H 0.13844 0.54805 0.57683
 H345 H 0.13952 0.57556 0.54661
 Cu346 Cu 0.16431 0.56364 0.58555
 Cu347 Cu 0.16497 0.58492 0.56170
 Cu348 Cu 0.18703 0.58633 0.58644
 N349 N 0.17759 0.56347 0.59858
 N350 N 0.18636 0.57249 0.59895
 C351 C 0.19452 0.57006 0.60860
 C352 C 0.19067 0.55893 0.61459
 C353 C 0.17987 0.55500 0.60803
 H354 H 0.20279 0.57581 0.61096
 H355 H 0.17425 0.54653 0.60991
 N356 N 0.18612 0.59924 0.57271
 N357 N 0.17782 0.59863 0.56321
 C358 C 0.17996 0.60844 0.55514
 C359 C 0.19013 0.61550 0.55976
 C360 C 0.19379 0.60945 0.57091
 H361 H 0.17467 0.61022 0.54643
 H362 H 0.20165 0.61213 0.57708
 H363 H 0.17920 0.57558 0.57207
 H364 H 0.16796 0.58612 0.58107
 N365 N 0.59874 0.67757 0.06335
 N366 N 0.59869 0.68642 0.07229
 C367 C 0.60839 0.69464 0.07014
 C368 C 0.61482 0.69066 0.05929
 C369 C 0.60847 0.67981 0.05523
 H370 H 0.61056 0.70296 0.07590
 H371 H 0.61070 0.67405 0.04693
 Cu372 Cu 0.58581 0.68655 0.08570
 Cu373 Cu 0.58599 0.66405 0.06260
 Cu374 Cu 0.56252 0.66429 0.08592
 N375 N 0.57226 0.68675 0.09844
 N376 N 0.56326 0.67797 0.09853
 C377 C 0.55504 0.68046 0.10811
 C378 C 0.55909 0.69142 0.11431
 C379 C 0.57004 0.69517 0.10796
 H380 H 0.54666 0.67483 0.11033
 H381 H 0.57583 0.70350 0.11004
 N382 N 0.56334 0.65125 0.07235
 N383 N 0.57228 0.65118 0.06344
 C384 C 0.56995 0.64148 0.05526
 C385 C 0.55905 0.63519 0.05921
 C386 C 0.55511 0.64159 0.07007
 H387 H 0.57560 0.63928 0.04688
 H388 H 0.54670 0.63950 0.07570
 H389 H 0.57173 0.67443 0.07159
 H390 H 0.58184 0.66387 0.08188
 N391 N 0.67778 0.18710 0.65163
 N392 N 0.68663 0.17817 0.65170
 C393 C 0.69494 0.18045 0.64212
 C394 C 0.69106 0.19136 0.63576
 C395 C 0.68013 0.19533 0.64201
 H396 H 0.70328 0.17471 0.64001
 H397 H 0.67443 0.20369 0.63983
 Cu398 Cu 0.68667 0.16461 0.66444
 Cu399 Cu 0.66418 0.18773 0.66429
 Cu400 Cu 0.66433 0.16424 0.68765
 N401 N 0.68680 0.15179 0.67794
 N402 N 0.67799 0.15164 0.68691
 C403 C 0.68045 0.14200 0.69508
 C404 C 0.69140 0.13582 0.69104
 C405 C 0.69519 0.14225 0.68014
 H406 H 0.67482 0.13976 0.70346
 H407 H 0.70351 0.14021 0.67437
 N408 N 0.65130 0.17781 0.68682
 N409 N 0.65124 0.18677 0.67793
 C410 C 0.64152 0.19490 0.68023
 C411 C 0.63520 0.19087 0.69109
 C412 C 0.64161 0.18001 0.69502
 H413 H 0.63932 0.20329 0.67460
 H414 H 0.63950 0.17432 0.70339
 H415 H 0.67451 0.17867 0.67859
 H416 H 0.66400 0.16843 0.66836
 N417 N 1.09889 0.07214 0.18671
 N418 N 1.09862 0.06310 0.17793
 C419 C 1.10811 0.05472 0.18024
 C420 C 1.11461 0.05869 0.19105
 C421 C 1.10854 0.06978 0.19489
 H422 H 1.11006 0.04623 0.17462
 H423 H 1.11081 0.07552 0.20319
 Cu424 Cu 1.08561 0.06316 0.16465
 Cu425 Cu 1.08624 0.08583 0.18741
 Cu426 Cu 1.06153 0.08415 0.16533
 N427 N 1.07259 0.06321 0.15136
 N428 N 1.06319 0.07160 0.15166
 C429 C 1.05528 0.06941 0.14175
 C430 C 1.05995 0.05912 0.13489
 C431 C 1.07096 0.05544 0.14121
 H432 H 1.04664 0.07473 0.13980
 H433 H 1.07716 0.04753 0.13871
 N434 N 1.06287 0.09785 0.17819
 N435 N 1.07236 0.09857 0.18651
 C436 C 1.07037 0.10869 0.19425
 C437 C 1.05912 0.11456 0.19062
 C438 C 1.05464 0.10750 0.18040
 H439 H 1.07646 0.11141 0.20216
 H440 H 1.04589 0.10915 0.17514
 H441 H 1.07201 0.07493 0.17957
 H442 H 1.08087 0.08558 0.16833
 N443 N 0.07274 0.15066 1.06379
 N444 N 0.06389 0.15088 1.07271
 C445 C 0.05556 0.14127 1.07056
 C446 C 0.05943 0.13473 1.05975
 C447 C 0.07037 0.14092 1.05569
 H448 H 0.04723 0.13924 1.07633
 H449 H 0.07607 0.13859 1.04739
 Cu450 Cu 0.06393 0.16382 1.08611
 Cu451 Cu 0.08642 0.16326 1.06306
 Cu452 Cu 0.08641 0.18694 1.08627
 N453 N 0.06387 0.17750 1.09877
 N454 N 0.07272 0.18644 1.09884
 C455 C 0.07030 0.19474 1.10839
 C456 C 0.05933 0.19082 1.11459
 C457 C 0.05549 0.17985 1.10827
 H458 H 0.07598 0.20312 1.11056
 H459 H 0.04714 0.17412 1.11037
 N460 N 0.09946 0.18587 1.07274
 N461 N 0.09945 0.17684 1.06389
 C462 C 0.10923 0.17895 1.05577
 C463 C 0.11565 0.18981 1.05970
 C464 C 0.10924 0.19395 1.07048
 H465 H 0.11141 0.17317 1.04747
 H466 H 0.11143 0.20236 1.07610
 H467 H 0.08663 0.16759 1.08233
 H468 H 0.07619 0.17775 1.07197
 N469 N 0.15150 0.68711 0.67780
 N470 N 0.15168 0.67817 0.68664
 C471 C 0.14221 0.68044 0.69508
 C472 C 0.13579 0.69135 0.69128
 C473 C 0.14191 0.69533 0.68028
 H474 H 0.14020 0.67469 0.70343
 H475 H 0.13966 0.70370 0.67462
 Cu476 Cu 0.16443 0.66461 0.68651
 Cu477 Cu 0.16396 0.68771 0.66403
 Cu478 Cu 0.18738 0.66430 0.66389
 N479 N 0.17800 0.65187 0.68649
 N480 N 0.18687 0.65174 0.67760
 C481 C 0.19511 0.64213 0.67997
 C482 C 0.19119 0.63594 0.69096
 C483 C 0.18031 0.64234 0.69485
 H484 H 0.20343 0.63992 0.67425
 H485 H 0.17461 0.64026 0.70322
 N486 N 0.18632 0.67783 0.65083
 N487 N 0.17739 0.68675 0.65088
 C488 C 0.17950 0.69486 0.64109
 C489 C 0.19028 0.69085 0.63462
 C490 C 0.19435 0.68003 0.64100
 H491 H 0.17380 0.70322 0.63896
 H492 H 0.20271 0.67436 0.63878
 H493 H 0.16808 0.66841 0.66379
 H494 H 0.17839 0.67868 0.67419
 N495 N 1.17770 0.15131 0.18647
 N496 N 1.18651 0.15142 0.17751
 C497 C 1.19489 0.14188 0.17974
 C498 C 1.19109 0.13550 0.19066
 C499 C 1.18014 0.14170 0.19468
 H500 H 1.20321 0.13981 0.17397
 H501 H 1.17450 0.13948 0.20305
 Cu502 Cu 1.18636 0.16417 0.16395
 Cu503 Cu 1.16406 0.16393 0.18718
 Cu504 Cu 1.16392 0.18731 0.16372
 N505 N 1.18631 0.17764 0.15111
 N506 N 1.17748 0.18659 0.15102
 C507 C 1.17978 0.19471 0.14131
 C508 C 1.19066 0.19066 0.13502
 C509 C 1.19457 0.17981 0.14147
 H510 H 1.17407 0.20305 0.13907
 H511 H 1.20288 0.17403 0.13934
 N512 N 1.15101 0.18645 0.17739
 N513 N 1.15106 0.17752 0.18632
 C514 C 1.14139 0.17977 0.19452
 C515 C 1.13501 0.19064 0.19058
 C516 C 1.14132 0.19462 0.17969
 H517 H 1.13928 0.17411 0.20291
 H518 H 1.13914 0.20300 0.17404
 H519 H 1.16370 0.16801 0.16787
 H520 H 1.17424 0.17829 0.17804
 N521 N 0.65185 1.06283 0.57165
 N522 N 0.65164 1.07211 0.56317
 C523 C 0.64158 1.07039 0.55531
 C524 C 0.63524 1.05941 0.55904
 C525 C 0.64197 1.05487 0.56946
 H526 H 0.63919 1.07646 0.54728
 H527 H 0.63999 1.04627 0.57486
 Cu528 Cu 0.66494 1.08516 0.56295
 Cu529 Cu 0.66541 1.06130 0.58428
 Cu530 Cu 0.68740 1.08611 0.58597
 N531 N 0.67807 1.09834 0.56315
 N532 N 0.68674 1.09873 0.57227
 C533 C 0.69481 1.10851 0.57001
 C534 C 0.69098 1.11456 0.55890
 C535 C 0.68031 1.10791 0.55481
 H536 H 0.70299 1.11091 0.57587
 H537 H 0.67477 1.10979 0.54628
 N538 N 0.68652 1.07222 0.59873
 N539 N 0.67821 1.06272 0.59802
 C540 C 0.68044 1.05447 0.60765
 C541 C 0.69066 1.05896 0.61469
 C542 C 0.69429 1.07022 0.60882
 H543 H 0.67522 1.04568 0.60928
 H544 H 0.70224 1.07628 0.61150
 H545 H 0.66824 1.08077 0.58562
 H546 H 0.67964 1.07179 0.57529
 N547 N 0.57189 0.56269 0.15182
 N548 N 0.56320 0.57179 0.15170
 C549 C 0.55511 0.56972 0.14188
 C550 C 0.55899 0.55877 0.13554
 C551 C 0.56966 0.55458 0.14207
 H552 H 0.54693 0.57560 0.13955
 H553 H 0.57518 0.54606 0.14007
 Cu554 Cu 0.56321 0.58543 0.16444
 Cu555 Cu 0.58482 0.56160 0.16514
 Cu556 Cu 0.58472 0.58492 0.18838
 N557 N 0.56307 0.59821 0.17803
 N558 N 0.57172 0.59817 0.18718
 C559 C 0.56940 0.60793 0.19525
 C560 C 0.55871 0.61439 0.19097
 C561 C 0.55492 0.60800 0.18003
 H562 H 0.57486 0.60999 0.20379
 H563 H 0.54676 0.61026 0.17411
 N564 N 0.59829 0.57191 0.18714
 N565 N 0.59832 0.56295 0.17821
 C566 C 0.60834 0.55510 0.18020
 C567 C 0.61485 0.55929 0.19091
 C568 C 0.60828 0.56998 0.19504
 H569 H 0.61054 0.54673 0.17453
 H570 H 0.61043 0.57569 0.20340
 H571 H 0.57417 0.57096 0.17901
 H572 H 0.58536 0.58088 0.16913
 N573 N 0.65204 0.67837 0.18708
 N574 N 0.65160 0.68677 0.17773
 C575 C 0.64166 0.69473 0.17970
 C576 C 0.63560 0.69108 0.19086
 C577 C 0.64241 0.68067 0.19529
 H578 H 0.63912 0.70270 0.17362
 H579 H 0.64065 0.67534 0.20397
 Cu580 Cu 0.66431 0.68673 0.16413
 Cu581 Cu 0.66557 0.66569 0.18834
 Cu582 Cu 0.68730 0.66410 0.16349
 N583 N 0.67769 0.68678 0.15122
 N584 N 0.68647 0.67777 0.15088
 C585 C 0.69452 0.68010 0.14112
 C586 C 0.69058 0.69116 0.13505
 C587 C 0.67988 0.69515 0.14168
 H588 H 0.70275 0.67432 0.13873
 H589 H 0.67422 0.70360 0.13975
 N590 N 0.68659 0.65131 0.17731
 N591 N 0.67836 0.65197 0.18686
 C592 C 0.68068 0.64230 0.19505
 C593 C 0.69089 0.63530 0.19047
 C594 C 0.69439 0.64123 0.17920
 H595 H 0.67552 0.64061 0.20385
 H596 H 0.70226 0.63857 0.17305
 H597 H 0.67951 0.67522 0.17759
 H598 H 0.66829 0.66432 0.16886
 N599 N 0.15149 0.07202 1.06321
 N600 N 0.15112 0.06357 1.07251
 C601 C 0.14108 0.05570 1.07064
 C602 C 0.13489 0.05946 1.05958
 C603 C 0.14172 0.06985 1.05511
 H604 H 0.13860 0.04770 1.07670
 H605 H 0.13984 0.07529 1.04651
 Cu606 Cu 0.16405 0.06337 1.08591
 Cu607 Cu 0.16507 0.08466 1.06188
 Cu608 Cu 0.18702 0.08601 1.08659
 N609 N 0.17766 0.06311 1.09860
 N610 N 0.18643 0.07212 1.09897
 C611 C 0.19468 0.06961 1.10853
 C612 C 0.19088 0.05841 1.11442
 C613 C 0.18005 0.05453 1.10791
 H614 H 0.20293 0.07539 1.11091
 H615 H 0.17444 0.04603 1.10973
 N616 N 0.18609 0.09903 1.07300
 N617 N 0.17782 0.09842 1.06347
 C618 C 0.17999 0.10823 1.05542
 C619 C 0.19015 0.11528 1.06008
 C620 C 0.19377 0.10923 1.07124
 H621 H 0.17476 0.11001 1.04667
 H622 H 0.20164 0.11187 1.07740
 H623 H 0.17907 0.07503 1.07243
 H624 H 0.16791 0.08584 1.08132
 N625 N 0.59858 0.18726 0.57175
 N626 N 0.59842 0.17828 0.56294
 C627 C 0.60792 0.18049 0.55453
 C628 C 0.61433 0.19142 0.55831
 C629 C 0.60818 0.19547 0.56927
 H630 H 0.60995 0.17470 0.54620
 H631 H 0.61040 0.20388 0.57490
 Cu632 Cu 0.58565 0.16472 0.56306
 Cu633 Cu 0.58603 0.18801 0.58544
 Cu634 Cu 0.56260 0.16459 0.58557
 N635 N 0.57206 0.15198 0.56309
 N636 N 0.56317 0.15192 0.57196
 C637 C 0.55492 0.14231 0.56962
 C638 C 0.55883 0.13605 0.55866
 C639 C 0.56974 0.14240 0.55476
 H640 H 0.54657 0.14016 0.57532
 H641 H 0.57544 0.14027 0.54640
 N642 N 0.56358 0.17822 0.59854
 N643 N 0.57250 0.18716 0.59849
 C644 C 0.57028 0.19537 0.60817
 C645 C 0.55944 0.19142 0.61457
 C646 C 0.55545 0.18051 0.60826
 H647 H 0.57594 0.20378 0.61028
 H648 H 0.54706 0.17487 0.61043
 H649 H 0.58193 0.16873 0.58575
 H650 H 0.57168 0.17892 0.57524
 N651 N 0.09878 0.57230 0.68679
 N652 N 0.09865 0.56341 0.67787
 C653 C 0.10824 0.55509 0.68008
 C654 C 0.11466 0.55898 0.69097
 C655 C 0.10844 0.56993 0.69496
 H656 H 0.11030 0.54671 0.67435
 H657 H 0.11065 0.57561 0.70333
 Cu658 Cu 0.08560 0.56343 0.66461
 Cu659 Cu 0.08605 0.58589 0.68755
 Cu660 Cu 0.06271 0.58589 0.66391
 N661 N 0.07254 0.56345 0.65135
 N662 N 0.06363 0.57232 0.65114
 C663 C 0.05565 0.57004 0.64129
 C664 C 0.05978 0.55915 0.63503
 C665 C 0.07053 0.55522 0.64163
 H666 H 0.04736 0.57574 0.63894
 H667 H 0.07633 0.54689 0.63957
 N668 N 0.06344 0.59877 0.67767
 N669 N 0.07233 0.59878 0.68665
 C670 C 0.06999 0.60845 0.69485
 C671 C 0.05912 0.61477 0.69083
 C672 C 0.05523 0.60843 0.67992
 H673 H 0.07561 0.61062 0.70325
 H674 H 0.04689 0.61058 0.67419
 H675 H 0.07159 0.57588 0.67850
 H676 H 0.08196 0.58616 0.66826
 N677 N 0.65137 0.56308 0.07196
 N678 N 0.65146 0.57206 0.06316
 C679 C 0.64193 0.56981 0.05478
 C680 C 0.63556 0.55886 0.05856
 C681 C 0.64178 0.55484 0.06950
 H682 H 0.63984 0.57560 0.04646
 H683 H 0.63959 0.54644 0.07513
 Cu684 Cu 0.66420 0.58566 0.06333
 Cu685 Cu 0.66400 0.56240 0.08562
 Cu686 Cu 0.68731 0.58597 0.08581
 N687 N 0.67762 0.59858 0.06341
 N688 N 0.68655 0.59870 0.07226
 C689 C 0.69464 0.60846 0.07000
 C690 C 0.69057 0.61477 0.05913
 C691 C 0.67975 0.60827 0.05518
 H692 H 0.70295 0.61072 0.07572
 H693 H 0.67398 0.61040 0.04687
 N694 N 0.68648 0.57226 0.09871
 N695 N 0.67759 0.56329 0.09865
 C696 C 0.67987 0.55508 0.10832
 C697 C 0.69072 0.55907 0.11472
 C698 C 0.69465 0.56999 0.10842
 H699 H 0.67424 0.54666 0.11042
 H700 H 0.70301 0.57568 0.11061
 H701 H 0.66806 0.58176 0.08601
 H702 H 0.67835 0.57162 0.07548
 N703 N 0.07272 0.68648 0.59892
 N704 N 0.06380 0.67760 0.59876
 C705 C 0.05549 0.67987 0.60833
 C706 C 0.05941 0.69074 0.61477
 C707 C 0.07039 0.69468 0.60857
 H708 H 0.04709 0.67419 0.61037
 H709 H 0.07611 0.70301 0.61081
 Cu710 Cu 0.06369 0.66428 0.58573
 Cu711 Cu 0.08637 0.68712 0.58629
 Cu712 Cu 0.08635 0.66349 0.56295
 N713 N 0.06381 0.65107 0.57260
 N714 N 0.07271 0.65083 0.56372
 C715 C 0.07041 0.64102 0.55568
 C716 C 0.05948 0.63481 0.55973
 C717 C 0.05554 0.64140 0.57049
 H718 H 0.07614 0.63867 0.54740
 H719 H 0.04718 0.63939 0.57622
 N720 N 0.09933 0.67714 0.56377
 N721 N 0.09935 0.68613 0.57267
 C722 C 0.10912 0.69422 0.57044
 C723 C 0.11552 0.69013 0.55964
 C724 C 0.10910 0.67929 0.55566
 H725 H 0.11133 0.70260 0.57610
 H726 H 0.11129 0.67354 0.54734
 H727 H 0.07634 0.67812 0.57180
 H728 H 0.08648 0.66779 0.58225
 N729 N 0.57166 1.06314 0.65126
 N730 N 0.56273 1.07199 0.65145
 C731 C 0.55443 1.06978 0.64182
 C732 C 0.55840 1.05894 0.63531
 C733 C 0.56939 1.05500 0.64154
 H734 H 0.54604 1.07547 0.63980
 H735 H 0.57514 1.04669 0.63931
 Cu736 Cu 0.56267 1.08520 0.66461
 Cu737 Cu 0.58526 1.06243 0.66401
 Cu738 Cu 0.58521 1.08597 0.68746
 N739 N 0.56267 1.09842 0.67774
 N740 N 0.57157 1.09867 0.68663
 C741 C 0.56924 1.10843 0.69471
 C742 C 0.55825 1.11461 0.69070
 C743 C 0.55434 1.10804 0.67988
 H744 H 0.57495 1.11072 0.70304
 H745 H 0.54596 1.11000 0.67414
 N746 N 0.59817 1.07227 0.68666
 N747 N 0.59819 1.06332 0.67772
 C748 C 0.60791 1.05517 0.68000
 C749 C 0.61425 1.05916 0.69087
 C750 C 0.60787 1.07003 0.69484
 H751 H 0.61010 1.04680 0.67432
 H752 H 0.61002 1.07572 0.70321
 H753 H 0.57523 1.07138 0.67857
 H754 H 0.58540 1.08175 0.66822
 N755 N 0.43641 0.34923 0.92746
 N756 N 0.42764 0.34890 0.93646
 C757 C 0.42978 0.35853 0.94478
 C758 C 0.44045 0.36522 0.94075
 C759 C 0.44441 0.35908 0.92971
 H760 H 0.42412 0.36046 0.95321
 H761 H 0.45258 0.36151 0.92387
 Cu762 Cu 0.41459 0.33562 0.93655
 Cu763 Cu 0.43715 0.33657 0.91376
 Cu764 Cu 0.41380 0.31293 0.91383
 N765 N 0.40151 0.32236 0.93657
 N766 N 0.40125 0.31355 0.92758
 C767 C 0.39157 0.30538 0.92992
 C768 C 0.38548 0.30926 0.94098
 C769 C 0.39200 0.32007 0.94495
 H770 H 0.38925 0.29711 0.92414
 H771 H 0.39006 0.32569 0.95341
 N772 N 0.42734 0.31394 0.90076
 N773 N 0.43625 0.32291 0.90075
 C774 C 0.44434 0.32071 0.89097
 C775 C 0.44034 0.30985 0.88458
 C776 C 0.42954 0.30582 0.89099
 H777 H 0.45267 0.32642 0.88876
 H778 H 0.42388 0.29743 0.88882
 H779 H 0.41795 0.33224 0.91373
 H780 H 0.42845 0.32188 0.92375
 N781 N 0.93681 0.42763 0.34900
 N782 N 0.92791 0.43652 0.34890
 C783 C 0.93027 0.44493 0.35840
 C784 C 0.94122 0.44108 0.36475
 C785 C 0.94510 0.43004 0.35856
 H786 H 0.92455 0.45330 0.36048
 H787 H 0.95344 0.42432 0.36072
 Cu788 Cu 0.91425 0.43643 0.33624
 Cu789 Cu 0.93730 0.41390 0.33641
 Cu790 Cu 0.91366 0.41385 0.31320
 N791 N 0.90132 0.43644 0.32283
 N792 N 0.90109 0.42755 0.31392
 C793 C 0.89135 0.42989 0.30584
 C794 C 0.88517 0.44085 0.30989
 C795 C 0.89172 0.44477 0.32069
 H796 H 0.88903 0.42417 0.29754
 H797 H 0.88968 0.45312 0.32646
 N798 N 0.92721 0.40080 0.31403
 N799 N 0.93623 0.40081 0.32287
 C800 C 0.94428 0.39100 0.32062
 C801 C 0.94014 0.38457 0.30984
 C802 C 0.92930 0.39099 0.30592
 H803 H 0.95269 0.38881 0.32623
 H804 H 0.92353 0.38880 0.29762
 H805 H 0.92815 0.42410 0.32209
 H806 H 0.91799 0.41369 0.33246
 N807 N 0.31380 0.92782 0.40132
 N808 N 0.32295 0.93648 0.40115
 C809 C 0.32102 0.94441 0.39119
 C810 C 0.31012 0.94048 0.38481
 C811 C 0.30579 0.92992 0.39146
 H812 H 0.32700 0.95250 0.38880
 H813 H 0.29736 0.92430 0.38937
 Cu814 Cu 0.33644 0.93655 0.41405
 Cu815 Cu 0.31259 0.91503 0.41477
 Cu816 Cu 0.33587 0.91519 0.43803
 N817 N 0.34929 0.93672 0.42759
 N818 N 0.34921 0.92810 0.43676
 C819 C 0.35903 0.93034 0.44478
 C820 C 0.36557 0.94099 0.44043
 C821 C 0.35916 0.94479 0.42949
 H822 H 0.36116 0.92476 0.45323
 H823 H 0.36145 0.95287 0.42347
 N824 N 0.32278 0.90168 0.43688
 N825 N 0.31383 0.90162 0.42796
 C826 C 0.30596 0.89163 0.42998
 C827 C 0.31013 0.88515 0.44071
 C828 C 0.32083 0.89172 0.44482
 H829 H 0.29761 0.88939 0.42431
 H830 H 0.32654 0.88957 0.45316
 H831 H 0.32207 0.92561 0.42855
 H832 H 0.33195 0.91432 0.41871
 O833 O 0.21596 0.51657 0.74912
 O834 O 0.22037 0.51444 0.77162
 O835 O 0.24899 0.53426 0.73380
 O836 O 0.27030 0.53076 0.73366
 O837 O 0.23340 0.50080 0.71602
 O838 O 0.23477 0.47837 0.72063
 O839 O 0.28336 0.49953 0.76699
 O840 O 0.27968 0.52155 0.76425
 O841 O 0.25141 0.48323 0.78325
 O842 O 0.22928 0.48529 0.78011
 O843 O 0.26690 0.46692 0.75106
 O844 O 0.26592 0.47131 0.72792
 O845 O 0.28346 0.48409 0.75157
 O846 O 0.27897 0.48566 0.72772
 O847 O 0.25144 0.46666 0.76636
 O848 O 0.22763 0.47139 0.76452
 O849 O 0.26687 0.49857 0.78324
 O850 O 0.26240 0.52182 0.77955
 O851 O 0.21591 0.50092 0.73389
 O852 O 0.22080 0.47813 0.73527
 O853 O 0.24872 0.51631 0.71595
 O854 O 0.27195 0.51437 0.72101
 O855 O 0.23321 0.53407 0.74882
 O856 O 0.23748 0.52932 0.77187
 Zr857 Zr 0.23446 0.51570 0.75706
 O858 O 0.24569 0.50423 0.76923
 Zr859 Zr 0.25683 0.51569 0.73440
 O860 O 0.26919 0.50465 0.74588
 Zr861 Zr 0.23446 0.49304 0.73457
 O862 O 0.24596 0.48082 0.74569
 Zr863 Zr 0.26506 0.50757 0.76532
 O864 O 0.25390 0.52001 0.75387
 Zr865 Zr 0.24282 0.48481 0.76513
 O866 O 0.23028 0.49616 0.75401
 Zr867 Zr 0.26537 0.48516 0.74270
 O868 O 0.25386 0.49620 0.73018
 O869 O 0.23762 0.51236 0.73773
 O870 O 0.26215 0.48816 0.76205
 C871 C 0.21058 0.51011 0.74012
 C872 C 0.23968 0.53952 0.73989
 C873 C 0.23964 0.50992 0.71063
 C874 C 0.28862 0.49019 0.76095
 C875 C 0.26085 0.48919 0.78841
 C876 C 0.26085 0.46158 0.76032
 H877 H 0.24360 0.50613 0.77827
 H878 H 0.24401 0.47181 0.74357
 H879 H 0.23214 0.51777 0.73225
 H880 H 0.27818 0.50685 0.74400
 H881 H 0.27549 0.52965 0.76168
 H882 H 0.27710 0.52868 0.73989
 H883 H 0.22954 0.46509 0.75772
 H884 H 0.21622 0.47905 0.74350
 H885 H 0.26981 0.52143 0.78546
 H886 H 0.23100 0.53621 0.77114
 H887 H 0.25810 0.46603 0.72862
 H888 H 0.24330 0.47875 0.71655
 H889 H 0.21468 0.52201 0.77104
 H890 H 0.22247 0.49124 0.77734
 H891 H 0.27044 0.50651 0.71593
 H892 H 0.28501 0.49272 0.72951
 O893 O 0.21600 0.01639 0.24899
 O894 O 0.22043 0.01441 0.27147
 O895 O 0.24905 0.03386 0.23346
 O896 O 0.27034 0.03029 0.23332
 O897 O 0.23335 0.00035 0.21593
 O898 O 0.23451 -0.02207 0.22071
 O899 O 0.28334 -0.00080 0.26677
 O900 O 0.27976 0.02122 0.26392
 O901 O 0.25142 -0.01689 0.28322
 O902 O 0.22927 -0.01476 0.28015
 O903 O 0.26669 -0.03344 0.25106
 O904 O 0.26571 -0.02917 0.22792
 O905 O 0.28331 -0.01637 0.25149
 O906 O 0.27881 -0.01488 0.22762
 O907 O 0.25131 -0.03355 0.26644
 O908 O 0.22751 -0.02873 0.26465
 O909 O 0.26693 -0.00160 0.28306
 O910 O 0.26253 0.02164 0.27928
 O911 O 0.21584 0.00068 0.23383
 O912 O 0.22062 -0.02212 0.23537
 O913 O 0.24871 0.01580 0.21572
 O914 O 0.27192 0.01379 0.22077
 O915 O 0.23331 0.03383 0.24854
 O916 O 0.23762 0.02919 0.27162
 Zr917 Zr 0.23451 0.01551 0.25688
 O918 O 0.24571 0.00406 0.26910
 Zr919 Zr 0.25683 0.01527 0.23417
 O920 O 0.26915 0.00424 0.24568
 Zr921 Zr 0.23435 -0.00729 0.23453
 O922 O 0.24583 -0.01949 0.24570
 Zr923 Zr 0.26509 0.00731 0.26511
 O924 O 0.25395 0.01972 0.25362
 Zr925 Zr 0.24276 -0.01538 0.26513
 O926 O 0.23023 -0.00403 0.25398
 Zr927 Zr 0.26523 -0.01524 0.24262
 O928 O 0.25374 -0.00423 0.23007
 O929 O 0.23761 0.01204 0.23757
 O930 O 0.26208 -0.01211 0.26197
 C931 C 0.21056 0.00991 0.24004
 C932 C 0.23978 0.03919 0.23955
 C933 C 0.23961 0.00940 0.21046
 C934 C 0.28853 -0.01022 0.26080
 C935 C 0.26091 -0.01094 0.28831
 C936 C 0.26067 -0.03870 0.26038
 H937 H 0.24366 0.00603 0.27814
 H938 H 0.24383 -0.02850 0.24364
 H939 H 0.23213 0.01743 0.23206
 H940 H 0.27816 0.00639 0.24377
 H941 H 0.27559 0.02932 0.26132
 H942 H 0.27716 0.02820 0.23954
 H943 H 0.22934 -0.03504 0.25784
 H944 H 0.21604 -0.02111 0.24360
 H945 H 0.26996 0.02126 0.28516
 H946 H 0.23120 0.03612 0.27085
 H947 H 0.25784 -0.03437 0.22863
 H948 H 0.24301 -0.02176 0.21656
 H949 H 0.21479 0.02202 0.27086
 H950 H 0.22251 -0.00874 0.27741
 H951 H 0.27040 0.00587 0.21579
 H952 H 0.28495 -0.00791 0.22943
 O953 O 0.50085 0.71634 0.23301
 O954 O 0.47839 0.72081 0.23526
 O955 O 0.51631 0.74958 0.21579
 O956 O 0.51659 0.77085 0.21953
 O957 O 0.53398 0.73347 0.24890
 O958 O 0.52959 0.73472 0.27128
 O959 O 0.48326 0.78370 0.25073
 O960 O 0.48594 0.78016 0.22874
 O961 O 0.46689 0.75155 0.26675
 O962 O 0.47001 0.72940 0.26449
 O963 O 0.49912 0.76693 0.28324
 O964 O 0.52171 0.76611 0.27933
 O965 O 0.49866 0.78363 0.26617
 O966 O 0.52288 0.77858 0.26422
 O967 O 0.48370 0.75156 0.28331
 O968 O 0.48552 0.72772 0.27846
 O969 O 0.46696 0.76720 0.25161
 O970 O 0.47061 0.76289 0.22835
 O971 O 0.51601 0.71606 0.24871
 O972 O 0.51470 0.72091 0.27166
 O973 O 0.53414 0.74903 0.23365
 O974 O 0.52912 0.77236 0.23596
 O975 O 0.50125 0.73380 0.21579
 O976 O 0.47822 0.73810 0.22058
 Zr977 Zr 0.49300 0.73487 0.23415
 O978 O 0.48088 0.74602 0.24575
 Zr979 Zr 0.51574 0.75722 0.23444
 O980 O 0.50429 0.76952 0.24558
 Zr981 Zr 0.51549 0.73457 0.25678
 O982 O 0.50441 0.74602 0.26910
 Zr983 Zr 0.48486 0.76543 0.24258
 O984 O 0.49628 0.75436 0.23005
 Zr985 Zr 0.48498 0.74297 0.26513
 O986 O 0.49603 0.73048 0.25363
 Zr987 Zr 0.50746 0.76548 0.26499
 O988 O 0.51995 0.75402 0.25387
 O989 O 0.51232 0.73796 0.23753
 O990 O 0.48811 0.76234 0.26195
 C991 C 0.50980 0.71085 0.23942
 C992 C 0.51021 0.74031 0.21044
 C993 C 0.53940 0.73981 0.23986
 C994 C 0.48933 0.78889 0.26009
 C995 C 0.46177 0.76108 0.26091
 C996 C 0.48979 0.76092 0.28849
 H997 H 0.47184 0.74397 0.24383
 H998 H 0.50651 0.74397 0.27808
 H999 H 0.51776 0.73250 0.23205
 H1000 H 0.50622 0.77854 0.24348
 H1001 H 0.48848 0.77601 0.22060
 H1002 H 0.51025 0.77756 0.22158
 H1003 H 0.49229 0.72961 0.28480
 H1004 H 0.50650 0.71628 0.27065
 H1005 H 0.46471 0.77030 0.22881
 H1006 H 0.47893 0.73170 0.21362
 H1007 H 0.52177 0.75769 0.28365
 H1008 H 0.53380 0.74319 0.27085
 H1009 H 0.47891 0.71521 0.22761
 H1010 H 0.47283 0.72259 0.25854
 H1011 H 0.53449 0.77055 0.24355
 H1012 H 0.52060 0.78541 0.25808
 O1013 O 0.00080 0.71613 0.73330
 O1014 O -0.02167 0.72065 0.73552
 O1015 O 0.01631 0.74924 0.71591
 O1016 O 0.01641 0.77058 0.71952
 O1017 O 0.03399 0.73347 0.74919
 O1018 O 0.02937 0.73461 0.77163
 O1019 O -0.01673 0.78359 0.75094
 O1020 O -0.01407 0.78004 0.72887
 O1021 O -0.03311 0.75155 0.76697
 O1022 O -0.03010 0.72940 0.76469
 O1023 O -0.00088 0.76681 0.78332
 O1024 O 0.02230 0.76576 0.77886
 O1025 O -0.00132 0.78352 0.76636
 O1026 O 0.02245 0.77902 0.76474
 O1027 O -0.01622 0.75136 0.78348
 O1028 O -0.01452 0.72757 0.77855
 O1029 O -0.03305 0.76714 0.75178
 O1030 O -0.02942 0.76280 0.72850
 O1031 O 0.01602 0.71595 0.74893
 O1032 O 0.01473 0.72069 0.77174
 O1033 O 0.03413 0.74889 0.73381
 O1034 O 0.02914 0.77212 0.73592
 O1035 O 0.00119 0.73351 0.71599
 O1036 O -0.02182 0.73787 0.72076
 Zr1037 Zr -0.00704 0.73469 0.73434
 O1038 O -0.01915 0.74590 0.74590
 Zr1039 Zr 0.01570 0.75703 0.73450
 O1040 O 0.00429 0.76936 0.74565
 Zr1041 Zr 0.01546 0.73447 0.75696
 O1042 O 0.00439 0.74595 0.76927
 Zr1043 Zr -0.01516 0.76532 0.74273
 O1044 O -0.00378 0.75418 0.73019
 Zr1045 Zr -0.01505 0.74288 0.76528
 O1046 O -0.00400 0.73036 0.75383
 Zr1047 Zr 0.00747 0.76539 0.76508
 O1048 O 0.01992 0.75391 0.75395
 O1049 O 0.01230 0.73778 0.73769
 O1050 O -0.01189 0.76225 0.76209
 C1051 C 0.00977 0.71067 0.73972
 C1052 C 0.01018 0.73996 0.71060
 C1053 C 0.03942 0.73976 0.74013
 C1054 C -0.01067 0.78876 0.76031
 C1055 C -0.03824 0.76106 0.76111
 C1056 C -0.01015 0.76074 0.78861
 H1057 H -0.02820 0.74386 0.74400
 H1058 H 0.00652 0.74391 0.77825
 H1059 H 0.01776 0.73230 0.73225
 H1060 H 0.00620 0.77838 0.74352
 H1061 H -0.01149 0.77589 0.72075
 H1062 H 0.01030 0.77745 0.72172
 H1063 H -0.00764 0.72936 0.78479
 H1064 H 0.00649 0.71613 0.77079
 H1065 H -0.03532 0.77022 0.72899
 H1066 H -0.02113 0.73141 0.71384
 H1067 H 0.02150 0.75795 0.78415
 H1068 H 0.03350 0.74314 0.77132
 H1069 H -0.02113 0.71499 0.72792
 H1070 H -0.02737 0.72260 0.75870
 H1071 H 0.03417 0.77059 0.74380
 H1072 H 0.02073 0.78507 0.75768
 O1073 O -0.01643 -0.03447 -0.00101
 O1074 O -0.01430 -0.03012 0.02150
 O1075 O -0.03391 -0.00124 -0.01624
 O1076 O -0.03030 0.02006 -0.01634
 O1077 O -0.00061 -0.01696 -0.03404
 O1078 O 0.02180 -0.01570 -0.02942
 O1079 O 0.00094 0.03286 0.01713
 O1080 O -0.02106 0.02930 0.01437
 O1081 O 0.01703 0.00066 0.03329
 O1082 O 0.01490 -0.02145 0.03002
 O1083 O 0.03340 0.01634 0.00128
 O1084 O 0.02908 0.01544 -0.02191
 O1085 O 0.01635 0.03297 0.00174
 O1086 O 0.01482 0.02856 -0.02211
 O1087 O 0.03357 0.00080 0.01652
 O1088 O 0.02880 -0.02304 0.01448
 O1089 O 0.00182 0.01623 0.03328
 O1090 O -0.02143 0.01194 0.02955
 O1091 O -0.00078 -0.03453 -0.01620
 O1092 O 0.02205 -0.02969 -0.01483
 O1093 O -0.01604 -0.00158 -0.03409
 O1094 O -0.01386 0.02169 -0.02892
 O1095 O -0.03378 -0.01713 -0.00130
 O1096 O -0.02904 -0.01288 0.02176
 Zr1097 Zr -0.01545 -0.01597 0.00698
 O1098 O -0.00394 -0.00485 0.01921
 Zr1099 Zr -0.01532 0.00651 -0.01560
 O1100 O -0.00424 0.01878 -0.00405
 Zr1101 Zr 0.00718 -0.01600 -0.01548
 O1102 O 0.01945 -0.00458 -0.00428
 Zr1103 Zr -0.00718 0.01458 0.01536
 O1104 O -0.01966 0.00351 0.00384
 Zr1105 Zr 0.01544 -0.00780 0.01512
 O1106 O 0.00404 -0.02026 0.00394
 Zr1107 Zr 0.01521 0.01488 -0.00719
 O1108 O 0.00414 0.00346 -0.01979
 O1109 O -0.01209 -0.01275 -0.01233
 O1110 O 0.01219 0.01158 0.01213
 C1111 C -0.00999 -0.03986 -0.01001
 C1112 C -0.03919 -0.01058 -0.01020
 C1113 C -0.00971 -0.01069 -0.03943
 C1114 C 0.01027 0.03812 0.01112
 C1115 C 0.01114 0.01012 0.03846
 C1116 C 0.03868 0.01024 0.01056
 H1117 H -0.00585 -0.00696 0.02824
 H1118 H 0.02844 -0.00656 -0.00639
 H1119 H -0.01752 -0.01821 -0.01783
 H1120 H -0.00640 0.02781 -0.00588
 H1121 H -0.02916 0.02517 0.01170
 H1122 H -0.02821 0.02682 -0.01006
 H1123 H 0.03514 -0.02109 0.00774
 H1124 H 0.02111 -0.03432 -0.00663
 H1125 H -0.02098 0.01931 0.03552
 H1126 H -0.03598 -0.01930 0.02099
 H1127 H 0.03428 0.00756 -0.02124
 H1128 H 0.02147 -0.00713 -0.03345
 H1129 H -0.02192 -0.03574 0.02091
 H1130 H 0.00888 -0.02820 0.02722
 H1131 H -0.00606 0.02011 -0.03403
 H1132 H 0.00774 0.03458 -0.02036
 O1133 O -0.01677 0.46579 0.49900
 O1134 O -0.01442 0.47011 0.52151
 O1135 O -0.03414 0.49908 0.48387
 O1136 O -0.03045 0.52040 0.48383
 O1137 O -0.00098 0.48327 0.46592
 O1138 O 0.02147 0.48442 0.47048
 O1139 O 0.00097 0.53307 0.51707
 O1140 O -0.02105 0.52956 0.51443
 O1141 O 0.01698 0.50075 0.53324
 O1142 O 0.01482 0.47868 0.52992
 O1143 O 0.03327 0.51644 0.50117
 O1144 O 0.02891 0.51551 0.47797
 O1145 O 0.01629 0.53313 0.50159
 O1146 O 0.01470 0.52867 0.47777
 O1147 O 0.03348 0.50091 0.51642
 O1148 O 0.02865 0.47708 0.51430
 O1149 O 0.00185 0.51641 0.53327
 O1150 O -0.02140 0.51224 0.52964
 O1151 O -0.00119 0.46566 0.48374
 O1152 O 0.02168 0.47039 0.48506
 O1153 O -0.01636 0.49871 0.46596
 O1154 O -0.01409 0.52194 0.47111
 O1155 O -0.03402 0.48322 0.49885
 O1156 O -0.02911 0.48740 0.52189
 Zr1157 Zr -0.01563 0.48427 0.50702
 O1158 O -0.00403 0.49536 0.51920
 Zr1159 Zr -0.01552 0.50677 0.48445
 O1160 O -0.00434 0.51900 0.49595
 Zr1161 Zr 0.00689 0.48417 0.48446
 O1162 O 0.01925 0.49554 0.49561
 Zr1163 Zr -0.00722 0.51481 0.51537
 O1164 O -0.01978 0.50378 0.50391
 Zr1165 Zr 0.01533 0.49234 0.51504
 O1166 O 0.00383 0.47992 0.50390
 Zr1167 Zr 0.01507 0.51502 0.49272
 O1168 O 0.00390 0.50364 0.48017
 O1169 O -0.01236 0.48750 0.48769
 O1170 O 0.01213 0.51174 0.51207
 C1171 C -0.01040 0.46037 0.48997
 C1172 C -0.03944 0.48977 0.48995
 C1173 C -0.01009 0.48959 0.46058
 C1174 C 0.01027 0.53831 0.51099
 C1175 C 0.01113 0.51024 0.53844
 C1176 C 0.03857 0.51036 0.51045
 H1177 H -0.00591 0.49325 0.52824
 H1178 H 0.02823 0.49353 0.49347
 H1179 H -0.01783 0.48207 0.48221
 H1180 H -0.00647 0.52803 0.49412
 H1181 H -0.02917 0.52545 0.51180
 H1182 H -0.02824 0.52719 0.49003
 H1183 H 0.03498 0.47904 0.50755
 H1184 H 0.02075 0.46578 0.49328
 H1185 H -0.02090 0.51962 0.53559
 H1186 H -0.03607 0.48100 0.52116
 H1187 H 0.03413 0.50766 0.47866
 H1188 H 0.02118 0.49300 0.46648
 H1189 H -0.02206 0.46450 0.52096
 H1190 H 0.00880 0.47192 0.52713
 H1191 H -0.00631 0.52034 0.46597
 H1192 H 0.00763 0.53471 0.47952
 O1193 O 0.53385 0.01680 0.50094
 O1194 O 0.52952 0.01450 0.47843
 O1195 O 0.50070 0.03428 0.51615
 O1196 O 0.47938 0.03065 0.51615
 O1197 O 0.51639 0.00106 0.53405
 O1198 O 0.51519 -0.02140 0.52952
 O1199 O 0.46665 -0.00082 0.48291
 O1200 O 0.47017 0.02123 0.48562
 O1201 O 0.49876 -0.01694 0.46679
 O1202 O 0.52089 -0.01474 0.47002
 O1203 O 0.48322 -0.03326 0.49886
 O1204 O 0.48413 -0.02881 0.52204
 O1205 O 0.46659 -0.01624 0.49832
 O1206 O 0.47099 -0.01455 0.52220
 O1207 O 0.49873 -0.03345 0.48361
 O1208 O 0.52251 -0.02861 0.48563
 O1209 O 0.48319 -0.00172 0.46673
 O1210 O 0.48750 0.02158 0.47040
 O1211 O 0.53396 0.00120 0.51619
 O1212 O 0.52920 -0.02166 0.51493
 O1213 O 0.50097 0.01646 0.53404
 O1214 O 0.47780 0.01429 0.52890
 O1215 O 0.51651 0.03413 0.50114
 O1216 O 0.51229 0.02925 0.47810
 Zr1217 Zr 0.51539 0.01573 0.49296
 O1218 O 0.50429 0.00412 0.48077
 Zr1219 Zr 0.49294 0.01566 0.51555
 O1220 O 0.48071 0.00446 0.50406
 Zr1221 Zr 0.51546 -0.00683 0.51551
 O1222 O 0.50409 -0.01919 0.50436
 Zr1223 Zr 0.48488 0.00736 0.48463
 O1224 O 0.49592 0.01992 0.49609
 Zr1225 Zr 0.50727 -0.01526 0.48493
 O1226 O 0.51970 -0.00377 0.49607
 Zr1227 Zr 0.48464 -0.01499 0.50727
 O1228 O 0.49602 -0.00380 0.51981
 O1229 O 0.51218 0.01245 0.51228
 O1230 O 0.48792 -0.01203 0.48793
 C1231 C 0.53925 0.01041 0.50996
 C1232 C 0.51000 0.03957 0.51006
 C1233 C 0.51008 0.01018 0.53940
 C1234 C 0.46144 -0.01019 0.48892
 C1235 C 0.48930 -0.01107 0.46159
 C1236 C 0.48931 -0.03857 0.48959
 H1237 H 0.50639 0.00600 0.47174
 H1238 H 0.50610 -0.02818 0.50650
 H1239 H 0.51762 0.01792 0.51777
 H1240 H 0.47169 0.00660 0.50589
 H1241 H 0.47429 0.02936 0.48821
 H1242 H 0.47256 0.02843 0.50998
 H1243 H 0.52056 -0.03496 0.49236
 H1244 H 0.53375 -0.02080 0.50669
 H1245 H 0.48013 0.02111 0.46444
 H1246 H 0.51868 0.03622 0.47884
 H1247 H 0.49197 -0.03406 0.52134
 H1248 H 0.50663 -0.02110 0.53352
 H1249 H 0.53512 0.02214 0.47897
 H1250 H 0.52768 -0.00877 0.47284
 H1251 H 0.47931 0.00643 0.53396
 H1252 H 0.46491 -0.00753 0.52037
 O1253 O 0.50060 0.53392 0.01656
 O1254 O 0.47812 0.52953 0.01432
 O1255 O 0.51597 0.50076 0.03394
 O1256 O 0.51600 0.47941 0.03033
 O1257 O 0.53368 0.51646 0.00067
 O1258 O 0.52902 0.51531 -0.02177
 O1259 O 0.48270 0.46655 -0.00102
 O1260 O 0.48542 0.47008 0.02100
 O1261 O 0.46641 0.49872 -0.01701
 O1262 O 0.46960 0.52083 -0.01486
 O1263 O 0.49853 0.48321 -0.03343
 O1264 O 0.52171 0.48418 -0.02905
 O1265 O 0.49809 0.46652 -0.01644
 O1266 O 0.52190 0.47097 -0.01488
 O1267 O 0.48324 0.49870 -0.03358
 O1268 O 0.48516 0.52252 -0.02872
 O1269 O 0.46644 0.48311 -0.00184
 O1270 O 0.47018 0.48742 0.02141
 O1271 O 0.51580 0.53404 0.00093
 O1272 O 0.51442 0.52929 -0.02189
 O1273 O 0.53378 0.50106 0.01607
 O1274 O 0.52867 0.47782 0.01391
 O1275 O 0.50093 0.51655 0.03387
 O1276 O 0.47788 0.51231 0.02909
 Zr1277 Zr 0.49267 0.51541 0.01552
 O1278 O 0.48048 0.50425 0.00397
 Zr1279 Zr 0.51531 0.49297 0.01535
 O1280 O 0.50381 0.48069 0.00422
 Zr1281 Zr 0.51512 0.51552 -0.00711
 O1282 O 0.50397 0.50409 -0.01941
 Zr1283 Zr 0.48438 0.48482 0.00716
 O1284 O 0.49585 0.49591 0.01968
 Zr1285 Zr 0.48455 0.50724 -0.01541
 O1286 O 0.49569 0.51972 -0.00397
 Zr1287 Zr 0.50695 0.48463 -0.01522
 O1288 O 0.51950 0.49607 -0.00410
 O1289 O 0.51198 0.51223 0.01216
 O1290 O 0.48761 0.48786 -0.01221
 C1291 C 0.50958 0.53934 0.01014
 C1292 C 0.50989 0.51007 0.03925
 C1293 C 0.53909 0.51018 0.00975
 C1294 C 0.48872 0.46133 -0.01038
 C1295 C 0.46124 0.48924 -0.01114
 C1296 C 0.48925 0.48929 -0.03871
 H1297 H 0.47144 0.50634 0.00588
 H1298 H 0.50608 0.50610 -0.02839
 H1299 H 0.51747 0.51769 0.01760
 H1300 H 0.50567 0.47166 0.00635
 H1301 H 0.48802 0.47421 0.02913
 H1302 H 0.50980 0.47260 0.02816
 H1303 H 0.49197 0.52065 -0.03500
 H1304 H 0.50621 0.53390 -0.02093
 H1305 H 0.46424 0.48003 0.02095
 H1306 H 0.47862 0.51875 0.03601
 H1307 H 0.52097 0.49202 -0.03429
 H1308 H 0.53310 0.50676 -0.02147
 H1309 H 0.47868 0.53517 0.02194
 H1310 H 0.47239 0.52762 -0.00887
 H1311 H 0.53372 0.47937 0.00606
 H1312 H 0.52015 0.46492 -0.00783
 O1313 O 0.74922 0.21583 0.51652
 O1314 O 0.77171 0.22017 0.51441
 O1315 O 0.73388 0.24897 0.53402
 O1316 O 0.73383 0.27030 0.53050
 O1317 O 0.71620 0.23339 0.50054
 O1318 O 0.72095 0.23455 0.47815
 O1319 O 0.76721 0.28323 0.49939
 O1320 O 0.76442 0.27959 0.52139
 O1321 O 0.78350 0.25119 0.48320
 O1322 O 0.78036 0.22901 0.48531
 O1323 O 0.75148 0.26667 0.46678
 O1324 O 0.72827 0.26571 0.47109
 O1325 O 0.75187 0.28330 0.48390
 O1326 O 0.72806 0.27887 0.48532
 O1327 O 0.76674 0.25115 0.46660
 O1328 O 0.76482 0.22734 0.47137
 O1329 O 0.78344 0.26672 0.49849
 O1330 O 0.77970 0.26228 0.52172
 O1331 O 0.73404 0.21577 0.50084
 O1332 O 0.73556 0.22057 0.47803
 O1333 O 0.71610 0.24874 0.51602
 O1334 O 0.72124 0.27195 0.51405
 O1335 O 0.74890 0.23315 0.53393
 O1336 O 0.77197 0.23736 0.52923
 Zr1337 Zr 0.75719 0.23433 0.51560
 O1338 O 0.76942 0.24551 0.50416
 Zr1339 Zr 0.73458 0.25678 0.51546
 O1340 O 0.74611 0.26909 0.50444
 Zr1341 Zr 0.73479 0.23430 0.49288
 O1342 O 0.74599 0.24576 0.48068
 Zr1343 Zr 0.76551 0.26493 0.50744
 O1344 O 0.75401 0.25381 0.51985
 Zr1345 Zr 0.76539 0.24259 0.48475
 O1346 O 0.75422 0.23008 0.49608
 Zr1347 Zr 0.74300 0.26520 0.48497
 O1348 O 0.73043 0.25374 0.49598
 O1349 O 0.73788 0.23753 0.51219
 O1350 O 0.76233 0.26195 0.48804
 C1351 C 0.74023 0.21044 0.51005
 C1352 C 0.73995 0.23966 0.53932
 C1353 C 0.71077 0.23968 0.50961
 C1354 C 0.76121 0.28848 0.49003
 C1355 C 0.78864 0.26067 0.48914
 C1356 C 0.76074 0.26058 0.46149
 H1357 H 0.77845 0.24342 0.50609
 H1358 H 0.74390 0.24378 0.47168
 H1359 H 0.73237 0.23207 0.51758
 H1360 H 0.74424 0.27811 0.50661
 H1361 H 0.76178 0.27542 0.52946
 H1362 H 0.74002 0.27713 0.52839
 H1363 H 0.75804 0.22923 0.46505
 H1364 H 0.74377 0.21596 0.47902
 H1365 H 0.78561 0.26969 0.52134
 H1366 H 0.77120 0.23091 0.53613
 H1367 H 0.72906 0.25792 0.46576
 H1368 H 0.71691 0.24311 0.47844
 H1369 H 0.77110 0.21451 0.52199
 H1370 H 0.77756 0.22221 0.49126
 H1371 H 0.71622 0.27046 0.50616
 H1372 H 0.72979 0.28489 0.49242
 O1373 O 0.75076 0.76700 -0.03393
 O1374 O 0.72823 0.76476 -0.02953
 O1375 O 0.76631 0.78405 -0.00072
 O1376 O 0.76650 0.78034 0.02055
 O1377 O 0.78368 0.75078 -0.01681
 O1378 O 0.77910 0.72844 -0.01565
 O1379 O 0.73295 0.74937 0.03333
 O1380 O 0.73579 0.77133 0.02982
 O1381 O 0.71643 0.73342 0.00115
 O1382 O 0.71958 0.73558 -0.02095
 O1383 O 0.74858 0.71667 0.01649
 O1384 O 0.77116 0.72045 0.01579
 O1385 O 0.74821 0.73380 0.03326
 O1386 O 0.77247 0.73560 0.02820
 O1387 O 0.73317 0.71670 0.00111
 O1388 O 0.73501 0.72154 -0.02266
 O1389 O 0.71662 0.74858 0.01680
 O1390 O 0.72047 0.77182 0.01256
 O1391 O 0.76581 0.75120 -0.03423
 O1392 O 0.76416 0.72818 -0.02947
 O1393 O 0.78395 0.76607 -0.00126
 O1394 O 0.77890 0.76377 0.02205
 O1395 O 0.75120 0.78416 -0.01646
 O1396 O 0.72812 0.77950 -0.01224
 Zr1397 Zr 0.74282 0.76584 -0.01544
 O1398 O 0.73061 0.75432 -0.00433
 Zr1399 Zr 0.76554 0.76541 0.00692
 O1400 O 0.75400 0.75435 0.01917
 Zr1401 Zr 0.76513 0.74305 -0.01577
 O1402 O 0.75396 0.73080 -0.00434
 Zr1403 Zr 0.73460 0.75747 0.01508
 O1404 O 0.74612 0.76993 0.00404
 Zr1405 Zr 0.73455 0.73490 -0.00739
 O1406 O 0.74569 0.74632 -0.01987
 Zr1407 Zr 0.75702 0.73489 0.01511
 O1408 O 0.76959 0.74593 0.00368
 O1409 O 0.76211 0.76233 -0.01233
 O1410 O 0.73769 0.73805 0.01197
 C1411 C 0.75971 0.76057 -0.03941
 C1412 C 0.76024 0.78943 -0.00998
 C1413 C 0.78917 0.75980 -0.01047
 C1414 C 0.73895 0.73998 0.03852
 C1415 C 0.71134 0.73933 0.01065
 C1416 C 0.73924 0.71146 0.01043
 H1417 H 0.72158 0.75630 -0.00638
 H1418 H 0.75600 0.72180 -0.00640
 H1419 H 0.76760 0.76777 -0.01776
 H1420 H 0.75595 0.75644 0.02819
 H1421 H 0.73842 0.77944 0.02570
 H1422 H 0.76018 0.77831 0.02727
 H1423 H 0.74178 0.71520 -0.02082
 H1424 H 0.75600 0.72932 -0.03413
 H1425 H 0.71456 0.77140 0.01997
 H1426 H 0.72888 0.78645 -0.01864
 H1427 H 0.77124 0.71614 0.00736
 H1428 H 0.78331 0.72882 -0.00716
 H1429 H 0.72881 0.77240 -0.03513
 H1430 H 0.72242 0.74151 -0.02775
 H1431 H 0.78425 0.75617 0.02019
 H1432 H 0.77022 0.74173 0.03505
 O1433 O 1.00063 0.21582 0.23322
 O1434 O 0.97814 0.22022 0.23554
 O1435 O 1.01594 0.24901 0.21582
 O1436 O 1.01612 0.27031 0.21945
 O1437 O 1.03374 0.23315 0.24898
 O1438 O 1.02939 0.23449 0.27132
 O1439 O 0.98281 0.28318 0.25081
 O1440 O 0.98547 0.27963 0.22880
 O1441 O 0.96660 0.25099 0.26689
 O1442 O 0.96981 0.22888 0.26475
 O1443 O 0.99886 0.26658 0.28326
 O1444 O 1.02152 0.26576 0.27920
 O1445 O 0.99828 0.28322 0.26618
 O1446 O 1.02247 0.27831 0.26415
 O1447 O 0.98348 0.25117 0.28340
 O1448 O 0.98541 0.22731 0.27865
 O1449 O 0.96657 0.26660 0.25171
 O1450 O 0.97023 0.26229 0.22843
 O1451 O 1.01582 0.21565 0.24888
 O1452 O 1.01455 0.22057 0.27180
 O1453 O 1.03380 0.24863 0.23366
 O1454 O 1.02868 0.27196 0.23589
 O1455 O 1.00091 0.23319 0.21592
 O1456 O 0.97787 0.23742 0.22075
 Zr1457 Zr 0.99271 0.23433 0.23430
 O1458 O 0.98057 0.24548 0.24588
 Zr1459 Zr 1.01536 0.25676 0.23443
 O1460 O 1.00390 0.26905 0.24557
 Zr1461 Zr 1.01525 0.23420 0.25687
 O1462 O 1.00417 0.24564 0.26918
 Zr1463 Zr 0.98447 0.26491 0.24266
 O1464 O 0.99589 0.25382 0.23013
 Zr1465 Zr 0.98473 0.24251 0.26526
 O1466 O 0.99580 0.23002 0.25378
 Zr1467 Zr 1.00714 0.26510 0.26499
 O1468 O 1.01963 0.25364 0.25387
 O1469 O 1.01203 0.23750 0.23761
 O1470 O 0.98778 0.26188 0.26202
 C1471 C 1.00960 0.21037 0.23964
 C1472 C 1.00986 0.23969 0.21053
 C1473 C 1.03912 0.23947 0.23992
 C1474 C 0.98889 0.28842 0.26014
 C1475 C 0.96141 0.26047 0.26103
 C1476 C 0.98956 0.26054 0.28854
 H1477 H 0.97153 0.24339 0.24400
 H1478 H 1.00629 0.24363 0.27816
 H1479 H 1.01748 0.23203 0.23216
 H1480 H 1.00579 0.27808 0.24343
 H1481 H 0.98804 0.27550 0.22068
 H1482 H 1.00980 0.27703 0.22152
 H1483 H 0.99212 0.22930 0.28501
 H1484 H 1.00636 0.21593 0.27084
 H1485 H 0.96428 0.26967 0.22891
 H1486 H 0.97858 0.23097 0.21383
 H1487 H 1.02138 0.25749 0.28380
 H1488 H 1.03349 0.24303 0.27090
 H1489 H 0.97867 0.21457 0.22793
 H1490 H 0.97264 0.22205 0.25883
 H1491 H 1.03410 0.27017 0.24345
 H1492 H 1.02017 0.28505 0.25792
 O1493 O 0.74902 1.03373 0.73313
 O1494 O 0.77150 1.02922 0.73545
 O1495 O 0.73353 1.00048 0.71589
 O1496 O 0.73331 0.97921 0.71961
 O1497 O 0.71583 1.01661 0.74897
 O1498 O 0.72023 1.01545 0.77133
 O1499 O 0.76659 0.96640 0.75104
 O1500 O 0.76391 0.96984 0.72899
 O1501 O 0.78296 0.99865 0.76697
 O1502 O 0.77981 1.02077 0.76470
 O1503 O 0.75064 0.98333 0.78342
 O1504 O 0.72801 0.98414 0.77936
 O1505 O 0.75119 0.96654 0.76644
 O1506 O 0.72700 0.97149 0.76434
 O1507 O 0.76608 0.99869 0.78348
 O1508 O 0.76426 1.02249 0.77860
 O1509 O 0.78290 0.98294 0.75187
 O1510 O 0.77924 0.98709 0.72858
 O1511 O 0.73384 1.03406 0.74878
 O1512 O 0.73509 1.02928 0.77172
 O1513 O 0.71569 1.00103 0.73371
 O1514 O 0.72073 0.97771 0.73605
 O1515 O 0.74863 1.01622 0.71592
 O1516 O 0.77163 1.01190 0.72074
 Zr1517 Zr 0.75685 1.01518 0.73430
 O1518 O 0.76896 1.00406 0.74593
 Zr1519 Zr 0.73411 0.99285 0.73453
 O1520 O 0.74555 0.98058 0.74573
 Zr1521 Zr 0.73433 1.01556 0.75686
 O1522 O 0.74540 1.00415 0.76922
 Zr1523 Zr 0.76499 0.98463 0.74281
 O1524 O 0.75358 0.99568 0.73023
 Zr1525 Zr 0.76484 1.00719 0.76529
 O1526 O 0.75380 1.01965 0.75376
 Zr1527 Zr 0.74236 0.98468 0.76513
 O1528 O 0.72989 0.99611 0.75396
 O1529 O 0.73752 1.01212 0.73762
 O1530 O 0.76172 0.98780 0.76216
 C1531 C 0.74008 1.03926 0.73953
 C1532 C 0.73966 1.00972 0.71055
 C1533 C 0.71041 1.01025 0.73994
 C1534 C 0.76054 0.96126 0.76041
 C1535 C 0.78811 0.98912 0.76114
 C1536 C 0.75996 0.98938 0.78868
 H1537 H 0.77801 1.00611 0.74403
 H1538 H 0.74329 1.00624 0.77819
 H1539 H 0.73208 1.01757 0.73214
 H1540 H 0.74363 0.97155 0.74364
 H1541 H 0.76136 0.97394 0.72085
 H1542 H 0.73957 0.97245 0.72173
 H1543 H 0.75750 1.02061 0.78494
 H1544 H 0.74331 1.03388 0.77076
 H1545 H 0.78516 0.97970 0.72910
 H1546 H 0.77095 1.01831 0.71379
 H1547 H 0.72812 0.99248 0.78386
 H1548 H 0.71610 1.00693 0.77097
 H1549 H 0.77099 1.03481 0.72781
 H1550 H 0.77699 1.02757 0.75875
 H1551 H 0.71535 0.97955 0.74362
 H1552 H 0.72929 0.96468 0.75817
 O1553 O 0.71632 0.51682 0.24900
 O1554 O 0.72069 0.51462 0.27152
 O1555 O 0.74945 0.53419 0.23367
 O1556 O 0.77077 0.53059 0.23368
 O1557 O 0.73376 0.50083 0.21595
 O1558 O 0.73492 0.47841 0.22060
 O1559 O 0.78356 0.49933 0.26704
 O1560 O 0.78002 0.52136 0.26429
 O1561 O 0.75138 0.48332 0.28328
 O1562 O 0.72933 0.48543 0.28004
 O1563 O 0.76692 0.46679 0.25117
 O1564 O 0.76606 0.47110 0.22804
 O1565 O 0.78360 0.48384 0.25168
 O1566 O 0.77915 0.48541 0.22779
 O1567 O 0.75145 0.46668 0.26646
 O1568 O 0.72766 0.47152 0.26447
 O1569 O 0.76699 0.49851 0.28326
 O1570 O 0.76272 0.52177 0.27952
 O1571 O 0.71620 0.50115 0.23379
 O1572 O 0.72094 0.47827 0.23524
 O1573 O 0.74915 0.51626 0.21588
 O1574 O 0.77235 0.51414 0.22101
 O1575 O 0.73366 0.53414 0.24870
 O1576 O 0.73790 0.52942 0.27176
 Zr1577 Zr 0.73479 0.51579 0.25698
 O1578 O 0.74591 0.50427 0.26919
 Zr1579 Zr 0.75722 0.51559 0.23436
 O1580 O 0.76947 0.50449 0.24590
 Zr1581 Zr 0.73469 0.49310 0.23452
 O1582 O 0.74609 0.48082 0.24569
 Zr1583 Zr 0.76532 0.50748 0.26532
 O1584 O 0.75426 0.51997 0.25382
 Zr1585 Zr 0.74292 0.48486 0.26511
 O1586 O 0.73047 0.49628 0.25395
 Zr1587 Zr 0.76553 0.48502 0.24275
 O1588 O 0.75412 0.49611 0.23018
 O1589 O 0.73798 0.51239 0.23766
 O1590 O 0.76228 0.48808 0.26209
 C1591 C 0.71091 0.51040 0.23999
 C1592 C 0.74015 0.53951 0.23974
 C1593 C 0.74005 0.50991 0.21055
 C1594 C 0.78878 0.48994 0.26104
 C1595 C 0.76084 0.48922 0.28846
 C1596 C 0.76083 0.46152 0.26044
 H1597 H 0.74381 0.50620 0.27822
 H1598 H 0.74408 0.47182 0.24359
 H1599 H 0.73254 0.51782 0.23215
 H1600 H 0.77849 0.50663 0.24404
 H1601 H 0.77589 0.52948 0.26169
 H1602 H 0.77756 0.52844 0.23991
 H1603 H 0.72960 0.46514 0.25775
 H1604 H 0.71634 0.47926 0.24345
 H1605 H 0.77007 0.52130 0.28549
 H1606 H 0.73146 0.53634 0.27102
 H1607 H 0.75818 0.46593 0.22869
 H1608 H 0.74347 0.47870 0.21657
 H1609 H 0.71506 0.52224 0.27096
 H1610 H 0.72255 0.49140 0.27723
 H1611 H 0.77080 0.50628 0.21594
 H1612 H 0.78526 0.49240 0.22960
 O1613 O 0.50066 0.21592 0.73294
 O1614 O 0.47817 0.22034 0.73515
 O1615 O 0.51614 0.24920 0.71591
 O1616 O 0.51630 0.27047 0.71969
 O1617 O 0.53372 0.23317 0.74920
 O1618 O 0.52897 0.23414 0.77159
 O1619 O 0.48295 0.28322 0.75091
 O1620 O 0.48577 0.27980 0.72887
 O1621 O 0.46647 0.25108 0.76664
 O1622 O 0.46956 0.22894 0.76440
 O1623 O 0.49865 0.26631 0.78335
 O1624 O 0.52178 0.26532 0.77905
 O1625 O 0.49826 0.28307 0.76644
 O1626 O 0.52211 0.27853 0.76486
 O1627 O 0.48322 0.25095 0.78332
 O1628 O 0.48506 0.22712 0.77833
 O1629 O 0.46663 0.26675 0.75153
 O1630 O 0.47042 0.26255 0.72830
 O1631 O 0.51580 0.21562 0.74865
 O1632 O 0.51428 0.22020 0.77154
 O1633 O 0.53392 0.24869 0.73392
 O1634 O 0.52890 0.27189 0.73617
 O1635 O 0.50104 0.23345 0.71579
 O1636 O 0.47801 0.23770 0.72053
 Zr1637 Zr 0.49276 0.23444 0.73413
 O1638 O 0.48058 0.24557 0.74570
 Zr1639 Zr 0.51548 0.25680 0.73457
 O1640 O 0.50400 0.26905 0.74572
 Zr1641 Zr 0.51513 0.23408 0.75686
 O1642 O 0.50399 0.24549 0.76919
 Zr1643 Zr 0.48458 0.26500 0.74264
 O1644 O 0.49604 0.25395 0.73012
 Zr1645 Zr 0.48457 0.24246 0.76510
 O1646 O 0.49568 0.23000 0.75361
 Zr1647 Zr 0.50708 0.26496 0.76514
 O1648 O 0.51959 0.25354 0.75401
 O1649 O 0.51208 0.23753 0.73759
 O1650 O 0.48773 0.26184 0.76201
 C1651 C 0.50962 0.21042 0.73933
 C1652 C 0.51002 0.23998 0.71049
 C1653 C 0.53919 0.23954 0.74022
 C1654 C 0.48895 0.28834 0.76036
 C1655 C 0.46137 0.26061 0.76079
 C1656 C 0.48931 0.26028 0.78855
 H1657 H 0.47155 0.24353 0.74373
 H1658 H 0.50607 0.24341 0.77817
 H1659 H 0.51757 0.23211 0.73213
 H1660 H 0.50592 0.27808 0.74365
 H1661 H 0.48838 0.27570 0.72074
 H1662 H 0.51015 0.27731 0.72189
 H1663 H 0.49178 0.22899 0.78473
 H1664 H 0.50603 0.21568 0.77051
 H1665 H 0.46453 0.26997 0.72876
 H1666 H 0.47874 0.23132 0.71355
 H1667 H 0.52102 0.25744 0.78423
 H1668 H 0.53304 0.24270 0.77141
 H1669 H 0.47873 0.21478 0.72748
 H1670 H 0.47231 0.22220 0.75834
 H1671 H 0.53392 0.27029 0.74404
 H1672 H 0.52030 0.28475 0.75797
 O1673 O 0.25100 0.76694 0.46605
 O1674 O 0.22851 0.76471 0.47046
 O1675 O 0.26646 0.78426 0.49924
 O1676 O 0.26661 0.78064 0.52052
 O1677 O 0.28405 0.75107 0.48329
 O1678 O 0.27959 0.72867 0.48457
 O1679 O 0.23321 0.74945 0.53334
 O1680 O 0.23593 0.77145 0.52979
 O1681 O 0.21683 0.73337 0.50114
 O1682 O 0.22005 0.73550 0.47904
 O1683 O 0.24899 0.71685 0.51667
 O1684 O 0.27163 0.72074 0.51589
 O1685 O 0.24857 0.73398 0.53334
 O1686 O 0.27278 0.73590 0.52837
 O1687 O 0.23360 0.71677 0.50128
 O1688 O 0.23558 0.72152 0.47744
 O1689 O 0.21692 0.74854 0.51679
 O1690 O 0.22064 0.77181 0.51251
 O1691 O 0.26612 0.75121 0.46584
 O1692 O 0.26473 0.72828 0.47070
 O1693 O 0.28421 0.76639 0.49880
 O1694 O 0.27910 0.76411 0.52213
 O1695 O 0.25140 0.78423 0.48345
 O1696 O 0.22834 0.77950 0.48771
 Zr1697 Zr 0.24310 0.76588 0.48455
 O1698 O 0.23091 0.75434 0.49567
 Zr1699 Zr 0.26578 0.76565 0.50695
 O1700 O 0.25427 0.75455 0.51921
 Zr1701 Zr 0.26553 0.74320 0.48435
 O1702 O 0.25439 0.73092 0.49577
 Zr1703 Zr 0.23485 0.75755 0.51508
 O1704 O 0.24633 0.77004 0.50403
 Zr1705 Zr 0.23497 0.73493 0.49266
 O1706 O 0.24609 0.74637 0.48020
 Zr1707 Zr 0.25740 0.73509 0.51522
 O1708 O 0.26994 0.74617 0.50379
 O1709 O 0.26240 0.76248 0.48770
 O1710 O 0.23805 0.73815 0.51202
 C1711 C 0.25995 0.76049 0.46060
 C1712 C 0.26040 0.78959 0.48994
 C1713 C 0.28948 0.76013 0.48961
 C1714 C 0.23924 0.74010 0.53856
 C1715 C 0.21169 0.73925 0.51063
 C1716 C 0.23965 0.71160 0.51065
 H1717 H 0.22188 0.75626 0.49359
 H1718 H 0.25647 0.72192 0.49374
 H1719 H 0.26787 0.76792 0.48224
 H1720 H 0.25618 0.75668 0.52823
 H1721 H 0.23852 0.77957 0.52565
 H1722 H 0.26030 0.77859 0.52724
 H1723 H 0.24225 0.71511 0.47942
 H1724 H 0.25654 0.72929 0.46606
 H1725 H 0.21471 0.77135 0.51988
 H1726 H 0.22908 0.78643 0.48129
 H1727 H 0.27165 0.71633 0.50751
 H1728 H 0.28376 0.72911 0.49307
 H1729 H 0.22906 0.77234 0.46485
 H1730 H 0.22291 0.74140 0.47222
 H1731 H 0.28451 0.75656 0.52029
 H1732 H 0.27050 0.74209 0.53517
 O1733 O 0.28412 0.25082 0.98333
 O1734 O 0.27978 0.22825 0.98550
 O1735 O 0.25090 0.26610 0.96600
 O1736 O 0.22960 0.26609 0.96964
 O1737 O 0.26665 0.28384 0.99933
 O1738 O 0.26554 0.27918 1.02174
 O1739 O 0.21688 0.23275 1.00086
 O1740 O 0.22040 0.23553 0.97884
 O1741 O 0.24900 0.21649 1.01687
 O1742 O 0.27111 0.21966 1.01465
 O1743 O 0.23357 0.24858 1.03336
 O1744 O 0.23447 0.27180 1.02902
 O1745 O 0.21687 0.24812 1.01635
 O1746 O 0.22127 0.27198 1.01483
 O1747 O 0.24906 0.23329 1.03347
 O1748 O 0.27282 0.23523 1.02860
 O1749 O 0.23342 0.21651 1.00167
 O1750 O 0.23769 0.22023 0.97843
 O1751 O 0.28423 0.26601 0.99902
 O1752 O 0.27952 0.26455 1.02186
 O1753 O 0.25124 0.28391 0.98393
 O1754 O 0.22806 0.27880 0.98608
 O1755 O 0.26672 0.25108 0.96602
 O1756 O 0.26253 0.22799 0.97077
 Zr1757 Zr 0.26565 0.24280 0.98437
 O1758 O 0.25454 0.23057 0.99589
 Zr1759 Zr 0.24319 0.26542 0.98460
 O1760 O 0.23096 0.25389 0.99571
 Zr1761 Zr 0.26575 0.26526 1.00706
 O1762 O 0.25438 0.25407 1.01934
 Zr1763 Zr 0.23512 0.23446 0.99270
 O1764 O 0.24616 0.24596 0.98022
 Zr1765 Zr 0.25754 0.23463 1.01529
 O1766 O 0.26998 0.24581 1.00387
 Zr1767 Zr 0.23494 0.25703 1.01516
 O1768 O 0.24632 0.26960 1.00406
 O1769 O 0.26244 0.26213 0.98778
 O1770 O 0.23818 0.23767 1.01209
 C1771 C 0.28952 0.25984 0.98977
 C1772 C 0.26019 0.26003 0.96066
 C1773 C 0.26035 0.28924 0.99025
 C1774 C 0.21168 0.23876 1.01024
 C1775 C 0.23952 0.21132 1.01098
 C1776 C 0.23967 0.23930 1.03863
 H1777 H 0.25662 0.22153 0.99396
 H1778 H 0.25641 0.25617 1.02833
 H1779 H 0.26786 0.26764 0.98235
 H1780 H 0.22194 0.25575 0.99359
 H1781 H 0.22453 0.23813 0.97072
 H1782 H 0.22278 0.25993 0.97184
 H1783 H 0.27094 0.24201 1.03493
 H1784 H 0.28412 0.25633 1.02088
 H1785 H 0.23030 0.21430 0.97887
 H1786 H 0.26894 0.22875 0.96382
 H1787 H 0.24230 0.27105 1.03428
 H1788 H 0.25698 0.28322 1.02146
 H1789 H 0.28540 0.22885 0.97789
 H1790 H 0.27791 0.22250 1.00871
 H1791 H 0.22960 0.28382 0.99396
 H1792 H 0.21518 0.27018 1.00781
 N1793 N 0.28705 0.39124 0.80221
 C1794 C 0.29201 0.39618 0.79130
 N1795 N 0.30275 0.39093 0.78630
 N1796 N 0.30836 0.38100 0.79202
 C1797 C 0.30341 0.37602 0.80294
 N1798 N 0.29265 0.38132 0.80793
 C1799 C 0.28605 0.40696 0.78524
 C1800 C 0.28111 0.41613 0.78027
 C1801 C 0.27538 0.42722 0.77458
 N1802 N 0.28080 0.43283 0.76422
 N1803 N 0.27591 0.44357 0.75940
 C1804 C 0.26542 0.44905 0.76475
 N1805 N 0.25995 0.44333 0.77505
 N1806 N 0.26484 0.43260 0.77987
 N1807 N 0.28748 -0.10851 0.30255
 C1808 C 0.29208 -0.10389 0.29135
 N1809 N 0.30255 -0.10942 0.28606
 N1810 N 0.30822 -0.11930 0.29178
 C1811 C 0.30360 -0.12398 0.30298
 N1812 N 0.29314 -0.11839 0.30826
 C1813 C 0.28605 -0.09318 0.28527
 C1814 C 0.28105 -0.08407 0.28029
 C1815 C 0.27525 -0.07303 0.27459
 N1816 N 0.28057 -0.06747 0.26417
 N1817 N 0.27565 -0.05673 0.25937
 C1818 C 0.26523 -0.05122 0.26482
 N1819 N 0.25985 -0.05689 0.27518
 N1820 N 0.26477 -0.06763 0.27998
 N1821 N 0.80269 0.89115 0.78705
 C1822 C 0.79161 0.89593 0.79177
 N1823 N 0.78642 0.89055 0.80237
 N1824 N 0.79213 0.88067 0.80805
 C1825 C 0.80323 0.87582 0.80334
 N1826 N 0.80840 0.88126 0.79273
 C1827 C 0.78554 0.90668 0.78573
 C1828 C 0.78058 0.91582 0.78074
 C1829 C 0.77487 0.92691 0.77496
 N1830 N 0.76442 0.93244 0.78028
 N1831 N 0.75959 0.94317 0.77537
 C1832 C 0.76503 0.94873 0.76497
 N1833 N 0.77544 0.94310 0.75961
 N1834 N 0.78027 0.93237 0.76452
 N1835 N 0.44722 0.85893 0.28666
 C1836 C 0.45832 0.85418 0.29137
 N1837 N 0.46344 0.85949 0.30205
 N1838 N 0.45767 0.86930 0.30779
 C1839 C 0.44657 0.87410 0.30308
 N1840 N 0.44144 0.86874 0.29240
 C1841 C 0.46443 0.84351 0.28529
 C1842 C 0.46943 0.83441 0.28027
 C1843 C 0.47513 0.82334 0.27448
 N1844 N 0.48559 0.81783 0.27980
 N1845 N 0.49038 0.80706 0.27494
 C1846 C 0.48489 0.80145 0.26458
 N1847 N 0.47447 0.80706 0.25920
 N1848 N 0.46968 0.81783 0.26407
 N1849 N -0.05271 0.85899 0.78701
 C1850 C -0.04179 0.85398 0.79189
 N1851 N -0.03672 0.85916 0.80266
 N1852 N -0.04238 0.86908 0.80835
 C1853 C -0.05331 0.87413 0.80347
 N1854 N -0.05837 0.86890 0.79270
 C1855 C -0.03577 0.84322 0.78582
 C1856 C -0.03082 0.83409 0.78080
 C1857 C -0.02510 0.82303 0.77498
 N1858 N -0.01462 0.81752 0.78028
 N1859 N -0.00976 0.80682 0.77534
 C1860 C -0.01518 0.80127 0.76490
 N1861 N -0.02561 0.80688 0.75956
 N1862 N -0.03048 0.81758 0.76450
 N1863 N -0.05142 -0.11049 -0.03582
 C1864 C -0.04065 -0.10538 -0.04089
 N1865 N -0.03595 -0.11025 -0.05195
 N1866 N -0.04182 -0.11998 -0.05774
 C1867 C -0.05260 -0.12513 -0.05267
 N1868 N -0.05729 -0.12022 -0.04160
 C1869 C -0.03444 -0.09479 -0.03474
 C1870 C -0.02938 -0.08575 -0.02967
 C1871 C -0.02365 -0.07471 -0.02387
 N1872 N -0.01320 -0.06919 -0.02919
 N1873 N -0.00851 -0.05832 -0.02443
 C1874 C -0.01411 -0.05262 -0.01419
 N1875 N -0.02449 -0.05826 -0.00880
 N1876 N -0.02918 -0.06912 -0.01355
 N1877 N -0.03645 0.38999 0.44815
 C1878 C -0.04113 0.39466 0.45931
 N1879 N -0.05180 0.38932 0.46438
 N1880 N -0.05758 0.37959 0.45850
 C1881 C -0.05291 0.37487 0.44732
 N1882 N -0.04222 0.38026 0.44227
 C1883 C -0.03502 0.40529 0.46551
 C1884 C -0.03000 0.41439 0.47055
 C1885 C -0.02425 0.42548 0.47627
 N1886 N -0.02971 0.43113 0.48659
 N1887 N -0.02498 0.44201 0.49128
 C1888 C -0.01461 0.44761 0.48582
 N1889 N -0.00908 0.44185 0.47557
 N1890 N -0.01381 0.43097 0.47088
 N1891 N 0.44716 -0.10872 0.46275
 C1892 C 0.45817 -0.10382 0.45798
 N1893 N 0.46333 -0.10912 0.44732
 N1894 N 0.45768 -0.11905 0.44164
 C1895 C 0.44666 -0.12401 0.44640
 N1896 N 0.44151 -0.11864 0.45706
 C1897 C 0.46421 -0.09307 0.46408
 C1898 C 0.46916 -0.08395 0.46914
 C1899 C 0.47488 -0.07289 0.47499
 N1900 N 0.48546 -0.06748 0.46981
 N1901 N 0.49032 -0.05677 0.47475
 C1902 C 0.48478 -0.05111 0.48506
 N1903 N 0.47425 -0.05662 0.49029
 N1904 N 0.46939 -0.06734 0.48535
 N1905 N 0.44690 0.39056 -0.03658
 C1906 C 0.45751 0.39599 -0.04170
 N1907 N 0.46235 0.39117 -0.05272
 N1908 N 0.45679 0.38121 -0.05843
 C1909 C 0.44618 0.37572 -0.05333
 N1910 N 0.44134 0.38060 -0.04229
 C1911 C 0.46347 0.40678 -0.03561
 C1912 C 0.46842 0.41593 -0.03061
 C1913 C 0.47418 0.42701 -0.02486
 N1914 N 0.48465 0.43248 -0.03021
 N1915 N 0.48955 0.44320 -0.02533
 C1916 C 0.48416 0.44881 -0.01492
 N1917 N 0.47374 0.44325 -0.00953
 N1918 N 0.46884 0.43252 -0.01441
 N1919 N 0.78725 0.35872 0.44801
 C1920 C 0.79226 0.35384 0.45892
 N1921 N 0.80304 0.35911 0.46385
 N1922 N 0.80862 0.36900 0.45806
 C1923 C 0.80361 0.37392 0.44713
 N1924 N 0.79282 0.36861 0.44221
 C1925 C 0.78633 0.34309 0.46506
 C1926 C 0.78140 0.33395 0.47007
 C1927 C 0.77567 0.32286 0.47578
 N1928 N 0.78106 0.31731 0.48618
 N1929 N 0.77619 0.30656 0.49100
 C1930 C 0.76574 0.30102 0.48560
 N1931 N 0.76031 0.30668 0.47524
 N1932 N 0.76518 0.31742 0.47043
 N1933 N 0.78673 0.85940 -0.05184
 C1934 C 0.79197 0.85426 -0.04115
 N1935 N 0.80308 0.85913 -0.03658
 N1936 N 0.80875 0.86892 -0.04247
 C1937 C 0.80350 0.87412 -0.05314
 N1938 N 0.79239 0.86918 -0.05773
 C1939 C 0.78586 0.84373 -0.03484
 C1940 C 0.78074 0.83478 -0.02970
 C1941 C 0.77477 0.82388 -0.02388
 N1942 N 0.78006 0.81829 -0.01345
 N1943 N 0.77509 0.80757 -0.00866
 C1944 C 0.76464 0.80211 -0.01413
 N1945 N 0.75928 0.80783 -0.02448
 N1946 N 0.76425 0.81855 -0.02927
 N1947 N 0.78717 0.30290 0.39151
 C1948 C 0.79198 0.29188 0.39637
 N1949 N 0.80265 0.28675 0.39108
 N1950 N 0.80831 0.29245 0.38119
 C1951 C 0.80350 0.30348 0.37628
 N1952 N 0.79283 0.30860 0.38163
 C1953 C 0.78594 0.28582 0.40709
 C1954 C 0.78095 0.28084 0.41620
 C1955 C 0.77519 0.27509 0.42724
 N1956 N 0.78045 0.26454 0.43264
 N1957 N 0.77557 0.25965 0.44334
 C1958 C 0.76524 0.26513 0.44899
 N1959 N 0.75992 0.27564 0.44349
 N1960 N 0.76481 0.28052 0.43279
 N1961 N 0.78634 0.80315 -0.10922
 C1962 C 0.79091 0.79197 -0.10451
 N1963 N 0.80146 0.78669 -0.10988
 N1964 N 0.80723 0.79239 -0.11971
 C1965 C 0.80265 0.80358 -0.12448
 N1966 N 0.79210 0.80886 -0.11905
 C1967 C 0.78474 0.78584 -0.09388
 C1968 C 0.77967 0.78076 -0.08485
 C1969 C 0.77385 0.77491 -0.07387
 N1970 N 0.77908 0.76430 -0.06854
 N1971 N 0.77424 0.75940 -0.05782
 C1972 C 0.76397 0.76492 -0.05208
 N1973 N 0.75867 0.77547 -0.05753
 N1974 N 0.76352 0.78036 -0.06825
 N1975 N 0.28719 0.44704 0.85873
 C1976 C 0.29254 0.45750 0.85324
 N1977 N 0.30374 0.46208 0.85794
 N1978 N 0.30936 0.45643 0.86789
 C1979 C 0.30399 0.44598 0.87344
 N1980 N 0.29281 0.44139 0.86867
 C1981 C 0.28648 0.46359 0.84253
 C1982 C 0.28144 0.46862 0.83346
 C1983 C 0.27560 0.47445 0.82248
 N1984 N 0.28093 0.48494 0.81702
 N1985 N 0.27597 0.48989 0.80638
 C1986 C 0.26550 0.48454 0.80084
 N1987 N 0.26013 0.47409 0.80640
 N1988 N 0.26509 0.46914 0.81704
 N1989 N 0.30366 -0.03718 0.35834
 C1990 C 0.29269 -0.04203 0.35339
 N1991 N 0.28753 -0.05269 0.35867
 N1992 N 0.29314 -0.05831 0.36864
 C1993 C 0.30410 -0.05346 0.37365
 N1994 N 0.30927 -0.04280 0.36832
 C1995 C 0.28666 -0.03602 0.34262
 C1996 C 0.28163 -0.03110 0.33348
 C1997 C 0.27580 -0.02542 0.32242
 N1998 N 0.26526 -0.03077 0.31708
 N1999 N 0.26026 -0.02591 0.30640
 C2000 C 0.26563 -0.01553 0.30073
 N2001 N 0.27614 -0.01015 0.30616
 N2002 N 0.28114 -0.01501 0.31683
 N2003 N -0.05160 -0.03656 -0.10984
 C2004 C -0.04061 -0.04146 -0.10502
 N2005 N -0.03571 -0.05230 -0.11022
 N2006 N -0.04161 -0.05803 -0.11997
 C2007 C -0.05261 -0.05314 -0.12486
 N2008 N -0.05749 -0.04229 -0.11959
 C2009 C -0.03437 -0.03538 -0.09438
 C2010 C -0.02929 -0.03037 -0.08530
 C2011 C -0.02352 -0.02459 -0.07424
 N2012 N -0.01315 -0.03002 -0.06867
 N2013 N -0.00841 -0.02526 -0.05783
 C2014 C -0.01387 -0.01489 -0.05219
 N2015 N -0.02417 -0.00940 -0.05788
 N2016 N -0.02891 -0.01416 -0.06873
 N2017 N -0.03619 0.44797 0.39000
 C2018 C -0.04100 0.45898 0.39489
 N2019 N -0.05181 0.46398 0.38974
 N2020 N -0.05759 0.45816 0.37997
 C2021 C -0.05278 0.44714 0.37502
 N2022 N -0.04196 0.44216 0.38022
 C2023 C -0.03487 0.46513 0.40555
 C2024 C -0.02982 0.47014 0.41465
 C2025 C -0.02404 0.47585 0.42575
 N2026 N -0.02941 0.48625 0.43134
 N2027 N -0.02463 0.49096 0.44219
 C2028 C -0.01430 0.48544 0.44781
 N2029 N -0.00886 0.47510 0.44210
 N2030 N -0.01364 0.47039 0.43125
 N2031 N 0.44742 -0.03739 0.39129
 C2032 C 0.45788 -0.04282 0.39669
 N2033 N 0.46244 -0.05397 0.39186
 N2034 N 0.45674 -0.05948 0.38187
 C2035 C 0.44629 -0.05404 0.37641
 N2036 N 0.44173 -0.04290 0.38130
 C2037 C 0.46401 -0.03686 0.40743
 C2038 C 0.46903 -0.03186 0.41652
 C2039 C 0.47477 -0.02601 0.42753
 N2040 N 0.48526 -0.03127 0.43303
 N2041 N 0.49015 -0.02626 0.44369
 C2042 C 0.48472 -0.01580 0.44918
 N2043 N 0.47427 -0.01049 0.44357
 N2044 N 0.46939 -0.01551 0.43292
 N2045 N 0.46302 0.44726 -0.10910
 C2046 C 0.45772 0.45777 -0.10364
 N2047 N 0.44656 0.46239 -0.10834
 N2048 N 0.44091 0.45672 -0.11827
 C2049 C 0.44622 0.44624 -0.12380
 N2050 N 0.45737 0.44160 -0.11903
 C2051 C 0.46380 0.46386 -0.09295
 C2052 C 0.46884 0.46888 -0.08388
 C2053 C 0.47467 0.47468 -0.07289
 N2054 N 0.46945 0.48527 -0.06752
 N2055 N 0.47438 0.49019 -0.05684
 C2056 C 0.48473 0.48472 -0.05121
 N2057 N 0.49001 0.47419 -0.05670
 N2058 N 0.48507 0.46926 -0.06737
 N2059 N 0.46374 0.80330 0.35895
 C2060 C 0.45864 0.79261 0.35361
 N2061 N 0.44764 0.78777 0.35847
 N2062 N 0.44195 0.79340 0.36838
 C2063 C 0.44704 0.80409 0.37377
 N2064 N 0.45805 0.80893 0.36887
 C2065 C 0.46472 0.78656 0.34287
 C2066 C 0.46970 0.78153 0.33376
 C2067 C 0.47543 0.77567 0.32273
 N2068 N 0.47003 0.76518 0.31730
 N2069 N 0.47488 0.76020 0.30662
 C2070 C 0.48532 0.76551 0.30101
 N2071 N 0.49077 0.77595 0.30654
 N2072 N 0.48592 0.78093 0.31723
 N2073 N -0.05195 0.78655 0.85898
 C2074 C -0.04125 0.79177 0.85388
 N2075 N -0.03650 0.80274 0.85895
 N2076 N -0.04228 0.80830 0.86886
 C2077 C -0.05299 0.80308 0.87400
 N2078 N -0.05772 0.79210 0.86889
 C2079 C -0.03512 0.78584 0.84316
 C2080 C -0.03010 0.78091 0.83403
 C2081 C -0.02437 0.77517 0.82298
 N2082 N -0.01401 0.78061 0.81741
 N2083 N -0.00919 0.77575 0.80666
 C2084 C -0.01456 0.76526 0.80115
 N2085 N -0.02487 0.75978 0.80682
 N2086 N -0.02969 0.76465 0.81756
 N2087 N 0.39181 0.78751 0.30339
 C2088 C 0.39717 0.79274 0.29281
 N2089 N 0.39228 0.80375 0.28801
 N2090 N 0.38226 0.80933 0.29358
 C2091 C 0.37683 0.80409 0.30414
 N2092 N 0.38180 0.79309 0.30895
 C2093 C 0.40788 0.78668 0.28677
 C2094 C 0.41694 0.78165 0.28173
 C2095 C 0.42787 0.77584 0.27586
 N2096 N 0.43330 0.78122 0.26540
 N2097 N 0.44389 0.77625 0.26038
 C2098 C 0.44940 0.76572 0.26562
 N2099 N 0.44385 0.76028 0.27603
 N2100 N 0.43325 0.76525 0.28106
 N2101 N -0.10899 0.78713 0.80286
 C2102 C -0.10319 0.79264 0.79266
 N2103 N -0.10764 0.80399 0.78823
 N2104 N -0.11762 0.80964 0.79378
 C2105 C -0.12348 0.80413 0.80398
 N2106 N -0.11897 0.79278 0.80842
 C2107 C -0.09242 0.78657 0.78668
 C2108 C -0.08330 0.78156 0.78171
 C2109 C -0.07228 0.77578 0.77592
 N2110 N -0.06681 0.78116 0.76547
 N2111 N -0.05616 0.77622 0.76051
 C2112 C -0.05063 0.76572 0.76581
 N2113 N -0.05620 0.76030 0.77622
 N2114 N -0.06684 0.76524 0.78118
 N2115 N 0.85828 0.30352 0.46235
 C2116 C 0.85351 0.29238 0.45767
 N2117 N 0.85901 0.28703 0.44721
 N2118 N 0.86901 0.29262 0.44164
 C2119 C 0.87383 0.30375 0.44631
 N2120 N 0.86828 0.30911 0.45677
 C2121 C 0.84275 0.28636 0.46367
 C2122 C 0.83363 0.28135 0.46863
 C2123 C 0.82262 0.27554 0.47439
 N2124 N 0.81721 0.26500 0.46908
 N2125 N 0.80659 0.26000 0.47403
 C2126 C 0.80103 0.26536 0.48448
 N2127 N 0.80653 0.27586 0.48983
 N2128 N 0.81715 0.28085 0.48488
 N2129 N 0.85944 0.80153 -0.03654
 C2130 C 0.85445 0.79061 -0.04146
 N2131 N 0.85941 0.78574 -0.05240
 N2132 N 0.86914 0.79157 -0.05820
 C2133 C 0.87419 0.80249 -0.05327
 N2134 N 0.86916 0.80736 -0.04233
 C2135 C 0.84389 0.78442 -0.03530
 C2136 C 0.83487 0.77935 -0.03024
 C2137 C 0.82386 0.77358 -0.02445
 N2138 N 0.81819 0.76329 -0.02996
 N2139 N 0.80738 0.75855 -0.02518
 C2140 C 0.80189 0.76393 -0.01471
 N2141 N 0.80768 0.77416 -0.00913
 N2142 N 0.81849 0.77889 -0.01392
 N2143 N -0.10924 -0.03651 -0.05247
 C2144 C -0.10477 -0.04099 -0.04116
 N2145 N -0.11028 -0.05148 -0.03588
 N2146 N -0.12002 -0.05728 -0.04171
 C2147 C -0.12455 -0.05280 -0.05303
 N2148 N -0.11899 -0.04231 -0.05830
 C2149 C -0.09415 -0.03487 -0.03498
 C2150 C -0.08508 -0.02986 -0.02991
 C2151 C -0.07403 -0.02417 -0.02411
 N2152 N -0.06843 -0.02978 -0.01385
 N2153 N -0.05757 -0.02512 -0.00908
 C2154 C -0.05194 -0.01468 -0.01440
 N2155 N -0.05766 -0.00901 -0.02460
 N2156 N -0.06853 -0.01367 -0.02936
 N2157 N -0.11008 0.44835 0.46413
 C2158 C -0.10501 0.45921 0.45916
 N2159 N -0.10990 0.46400 0.44815
 N2160 N -0.11960 0.45814 0.44231
 C2161 C -0.12471 0.44728 0.44727
 N2162 N -0.11978 0.44249 0.45829
 C2163 C -0.09443 0.46540 0.46533
 C2164 C -0.08538 0.47045 0.47038
 C2165 C -0.07432 0.47617 0.47616
 N2166 N -0.06881 0.48665 0.47085
 N2167 N -0.05794 0.49132 0.47559
 C2168 C -0.05221 0.48569 0.48580
 N2169 N -0.05784 0.47528 0.49117
 N2170 N -0.06871 0.47061 0.48644
 N2171 N 0.39130 -0.03672 0.44645
 C2172 C 0.39637 -0.04152 0.45737
 N2173 N 0.39124 -0.05224 0.46255
 N2174 N 0.38128 -0.05795 0.45701
 C2175 C 0.37612 -0.05316 0.44609
 N2176 N 0.38134 -0.04244 0.44090
 C2177 C 0.40712 -0.03540 0.46335
 C2178 C 0.41623 -0.03041 0.46836
 C2179 C 0.42726 -0.02467 0.47418
 N2180 N 0.43267 -0.03004 0.48467
 N2181 N 0.44336 -0.02516 0.48964
 C2182 C 0.44897 -0.01473 0.48430
 N2183 N 0.44346 -0.00933 0.47384
 N2184 N 0.43278 -0.01420 0.46888
 N2185 N 0.39126 0.44698 -0.03779
 C2186 C 0.39600 0.45806 -0.04255
 N2187 N 0.39059 0.46320 -0.05316
 N2188 N 0.38069 0.45746 -0.05879
 C2189 C 0.37587 0.44637 -0.05401
 N2190 N 0.38136 0.44124 -0.04341
 C2191 C 0.40674 0.46418 -0.03655
 C2192 C 0.41587 0.46917 -0.03155
 C2193 C 0.42693 0.47489 -0.02576
 N2194 N 0.43243 0.48538 -0.03103
 N2195 N 0.44317 0.49020 -0.02612
 C2196 C 0.44876 0.48470 -0.01576
 N2197 N 0.44316 0.47426 -0.01044
 N2198 N 0.43242 0.46944 -0.01535
 N2199 N 0.35850 0.44783 0.78727
 C2200 C 0.35383 0.45893 0.79210
 N2201 N 0.35926 0.46398 0.80275
 N2202 N 0.36910 0.45814 0.80836
 C2203 C 0.37383 0.44705 0.80352
 N2204 N 0.36834 0.44199 0.79288
 C2205 C 0.34313 0.46512 0.78614
 C2206 C 0.33401 0.47016 0.78120
 C2207 C 0.32296 0.47590 0.77545
 N2208 N 0.31739 0.48629 0.78085
 N2209 N 0.30665 0.49113 0.77597
 C2210 C 0.30114 0.48574 0.76549
 N2211 N 0.30682 0.47539 0.76004
 N2212 N 0.31755 0.47056 0.76492
 N2213 N 0.35900 -0.03637 0.30276
 C2214 C 0.35327 -0.04181 0.29247
 N2215 N 0.35762 -0.05322 0.28808
 N2216 N 0.36746 -0.05898 0.29376
 C2217 C 0.37326 -0.05354 0.30404
 N2218 N 0.36885 -0.04213 0.30844
 C2219 C 0.34265 -0.03564 0.28637
 C2220 C 0.33363 -0.03055 0.28132
 C2221 C 0.32268 -0.02473 0.27546
 N2222 N 0.31724 -0.03009 0.26497
 N2223 N 0.30658 -0.02519 0.26002
 C2224 C 0.30101 -0.01473 0.26537
 N2225 N 0.30655 -0.00932 0.27581
 N2226 N 0.31722 -0.01422 0.28076
 N2227 N 0.14001 0.53568 0.69845
 C2228 C 0.14502 0.54062 0.70936
 N2229 N 0.14012 0.55164 0.71415
 N2230 N 0.13047 0.55750 0.70826
 C2231 C 0.12541 0.55257 0.69735
 N2232 N 0.13035 0.54154 0.69255
 C2233 C 0.15557 0.53444 0.71559
 C2234 C 0.16461 0.52941 0.72067
 C2235 C 0.17566 0.52369 0.72644
 N2236 N 0.18127 0.52923 0.73675
 N2237 N 0.19215 0.52456 0.74145
 C2238 C 0.19779 0.51419 0.73601
 N2239 N 0.19206 0.50858 0.72577
 N2240 N 0.18118 0.51325 0.72107
 N2241 N 0.13966 0.03518 0.19884
 C2242 C 0.14481 0.04027 0.20961
 N2243 N 0.14010 0.05145 0.21422
 N2244 N 0.13048 0.05732 0.20828
 C2245 C 0.12529 0.05224 0.19750
 N2246 N 0.13005 0.04105 0.19289
 C2247 C 0.15539 0.03414 0.21583
 C2248 C 0.16446 0.02914 0.22087
 C2249 C 0.17557 0.02346 0.22656
 N2250 N 0.18125 0.02903 0.23681
 N2251 N 0.19217 0.02438 0.24143
 C2252 C 0.19777 0.01400 0.23597
 N2253 N 0.19198 0.00837 0.22578
 N2254 N 0.18106 0.01302 0.22116
 N2255 N 0.60931 0.71356 0.19753
 C2256 C 0.60468 0.70897 0.20873
 N2257 N 0.61012 0.69844 0.21399
 N2258 N 0.61995 0.69271 0.20825
 C2259 C 0.62464 0.69730 0.19705
 N2260 N 0.61914 0.70782 0.19179
 C2261 C 0.59406 0.71509 0.21489
 C2262 C 0.58502 0.72010 0.21998
 C2263 C 0.57402 0.72585 0.22582
 N2264 N 0.56842 0.72030 0.23611
 N2265 N 0.55764 0.72507 0.24093
 C2266 C 0.55210 0.73557 0.23564
 N2267 N 0.55782 0.74118 0.22542
 N2268 N 0.56860 0.73641 0.22060
 N2269 N 0.11034 0.69838 0.71457
 C2270 C 0.10516 0.70922 0.70967
 N2271 N 0.11000 0.71414 0.69870
 N2272 N 0.11976 0.70843 0.69284
 C2273 C 0.12499 0.69759 0.69772
 N2274 N 0.12010 0.69267 0.70870
 C2275 C 0.09451 0.71526 0.71587
 C2276 C 0.08541 0.72025 0.72090
 C2277 C 0.07432 0.72597 0.72659
 N2278 N 0.06884 0.73640 0.72118
 N2279 N 0.05796 0.74112 0.72583
 C2280 C 0.05220 0.73558 0.73607
 N2281 N 0.05780 0.72522 0.74155
 N2282 N 0.06868 0.72050 0.73690
 N2283 N 0.64007 0.21426 0.55083
 C2284 C 0.64489 0.20933 0.53985
 N2285 N 0.63972 0.19847 0.53496
 N2286 N 0.62998 0.19274 0.54085
 C2287 C 0.62512 0.19767 0.55185
 N2288 N 0.63034 0.20854 0.55672
 C2289 C 0.65552 0.21539 0.53364
 C2290 C 0.66461 0.22037 0.52861
 C2291 C 0.67573 0.22607 0.52294
 N2292 N 0.68138 0.22058 0.51264
 N2293 N 0.69231 0.22525 0.50804
 C2294 C 0.69795 0.23557 0.51359
 N2295 N 0.69218 0.24113 0.52382
 N2296 N 0.68125 0.23647 0.52841
 N2297 N 0.64100 0.69740 0.03678
 C2298 C 0.64602 0.70830 0.04171
 N2299 N 0.64086 0.71336 0.05248
 N2300 N 0.63093 0.70772 0.05812
 C2301 C 0.62585 0.69682 0.05318
 N2302 N 0.63107 0.69176 0.04241
 C2303 C 0.65680 0.71430 0.03572
 C2304 C 0.66595 0.71923 0.03076
 C2305 C 0.67703 0.72494 0.02505
 N2306 N 0.68259 0.73533 0.03049
 N2307 N 0.69333 0.74017 0.02565
 C2308 C 0.69886 0.73479 0.01520
 N2309 N 0.69320 0.72445 0.00970
 N2310 N 0.68246 0.71961 0.01455
 N2311 N 0.10907 0.05226 0.03675
 C2312 C 0.10365 0.04175 0.04206
 N2313 N 0.10840 0.03713 0.05320
 N2314 N 0.11832 0.04283 0.05884
 C2315 C 0.12378 0.05335 0.05353
 N2316 N 0.11898 0.05796 0.04238
 C2317 C 0.09295 0.03565 0.03600
 C2318 C 0.08387 0.03062 0.03097
 C2319 C 0.07286 0.02483 0.02516
 N2320 N 0.06745 0.01428 0.03041
 N2321 N 0.05677 0.00937 0.02548
 C2322 C 0.05116 0.01482 0.01511
 N2323 N 0.05666 0.02532 0.00981
 N2324 N 0.06734 0.03024 0.01474
 N2325 N 0.10815 0.53744 0.55313
 C2326 C 0.10349 0.54206 0.54194
 N2327 N 0.10895 0.55259 0.53670
 N2328 N 0.11882 0.55828 0.54243
 C2329 C 0.12353 0.55366 0.55362
 N2330 N 0.11802 0.54314 0.55887
 C2331 C 0.09280 0.53599 0.53580
 C2332 C 0.08372 0.53098 0.53075
 C2333 C 0.07271 0.52516 0.52497
 N2334 N 0.06713 0.53053 0.51457
 N2335 N 0.05646 0.52555 0.50967
 C2336 C 0.05103 0.51500 0.51498
 N2337 N 0.05670 0.50960 0.52535
 N2338 N 0.06737 0.51458 0.53024
 N2339 N 0.60987 0.03621 0.55142
 C2340 C 0.60456 0.04141 0.54081
 N2341 N 0.60914 0.05269 0.53633
 N2342 N 0.61884 0.05853 0.54221
 C2343 C 0.62424 0.05328 0.55279
 N2344 N 0.61956 0.04203 0.55730
 C2345 C 0.59405 0.03517 0.53457
 C2346 C 0.58506 0.03004 0.52949
 C2347 C 0.57406 0.02421 0.52371
 N2348 N 0.56847 0.02968 0.51337
 N2349 N 0.55761 0.02495 0.50866
 C2350 C 0.55200 0.01458 0.51411
 N2351 N 0.55772 0.00904 0.52438
 N2352 N 0.56857 0.01377 0.52909
 N2353 N 0.60976 0.53600 0.05119
 C2354 C 0.60488 0.54089 0.04022
 N2355 N 0.61003 0.55174 0.03531
 N2356 N 0.61980 0.55748 0.04116
 C2357 C 0.62473 0.55259 0.05213
 N2358 N 0.61953 0.54174 0.05704
 C2359 C 0.59421 0.53480 0.03404
 C2360 C 0.58511 0.52978 0.02903
 C2361 C 0.57400 0.52402 0.02334
 N2362 N 0.56839 0.52943 0.01298
 N2363 N 0.55751 0.52469 0.00832
 C2364 C 0.55188 0.51436 0.01384
 N2365 N 0.55762 0.50888 0.02413
 N2366 N 0.56850 0.51362 0.02879
 N2367 N 0.03716 0.05188 0.10905
 C2368 C 0.04252 0.04142 0.10357
 N2369 N 0.05371 0.03684 0.10827
 N2370 N 0.05933 0.04253 0.11822
 C2371 C 0.05397 0.05299 0.12375
 N2372 N 0.04278 0.05756 0.11898
 C2373 C 0.03650 0.03538 0.09281
 C2374 C 0.03152 0.03043 0.08368
 C2375 C 0.02577 0.02470 0.07262
 N2376 N 0.03108 0.01420 0.06715
 N2377 N 0.02617 0.00930 0.05645
 C2378 C 0.01577 0.01471 0.05089
 N2379 N 0.01042 0.02518 0.05644
 N2380 N 0.01533 0.03008 0.06713
 N2381 N 0.03732 0.55217 0.60881
 C2382 C 0.04228 0.54127 0.60383
 N2383 N 0.05305 0.53627 0.60905
 N2384 N 0.05866 0.54198 0.61898
 C2385 C 0.05370 0.55289 0.62400
 N2386 N 0.04293 0.55788 0.61874
 C2387 C 0.03632 0.53522 0.59304
 C2388 C 0.03138 0.53027 0.58387
 C2389 C 0.02566 0.52459 0.57276
 N2390 N 0.03100 0.51413 0.56724
 N2391 N 0.02613 0.50929 0.55649
 C2392 C 0.01574 0.51475 0.55091
 N2393 N 0.01037 0.52517 0.55653
 N2394 N 0.01524 0.53000 0.56727
 N2395 N 0.53563 0.05203 0.61021
 C2396 C 0.54066 0.04124 0.60503
 N2397 N 0.55167 0.03644 0.60991
 N2398 N 0.55743 0.04221 0.61972
 C2399 C 0.55242 0.05300 0.62497
 N2400 N 0.54140 0.05780 0.62002
 C2401 C 0.53453 0.03508 0.59438
 C2402 C 0.52952 0.02999 0.58530
 C2403 C 0.52381 0.02416 0.57423
 N2404 N 0.52928 0.01376 0.56870
 N2405 N 0.52458 0.00897 0.55786
 C2406 C 0.51423 0.01439 0.55217
 N2407 N 0.50869 0.02470 0.55782
 N2408 N 0.51339 0.02949 0.56867
 N2409 N 0.55176 0.53579 0.10980
 C2410 C 0.54098 0.54083 0.10467
 N2411 N 0.53619 0.55185 0.10958
 N2412 N 0.54195 0.55759 0.11940
 C2413 C 0.55271 0.55252 0.12462
 N2414 N 0.55752 0.54153 0.11962
 C2415 C 0.53482 0.53471 0.09404
 C2416 C 0.52977 0.52968 0.08497
 C2417 C 0.52396 0.52393 0.07394
 N2418 N 0.51363 0.52944 0.06839
 N2419 N 0.50882 0.52469 0.05758
 C2420 C 0.51416 0.51425 0.05197
 N2421 N 0.52442 0.50866 0.05765
 N2422 N 0.52923 0.51341 0.06847
 N2423 N 0.21366 0.55163 0.64025
 C2424 C 0.20899 0.54048 0.64495
 N2425 N 0.19825 0.53541 0.63972
 N2426 N 0.19239 0.54129 0.63005
 C2427 C 0.19705 0.55245 0.62531
 N2428 N 0.20780 0.55751 0.63059
 C2429 C 0.21515 0.53431 0.65556
 C2430 C 0.22018 0.52929 0.66464
 C2431 C 0.22590 0.52358 0.67574
 N2432 N 0.22043 0.51323 0.68132
 N2433 N 0.22513 0.50854 0.69221
 C2434 C 0.23546 0.51403 0.69786
 N2435 N 0.24099 0.52431 0.69216
 N2436 N 0.23629 0.52900 0.68128
 N2437 N 0.19823 0.03476 0.13945
 C2438 C 0.20893 0.03979 0.14480
 N2439 N 0.21365 0.05096 0.14021
 N2440 N 0.20788 0.05691 0.13053
 C2441 C 0.19717 0.05190 0.12515
 N2442 N 0.19246 0.04071 0.12977
 C2443 C 0.21501 0.03353 0.15539
 C2444 C 0.22004 0.02847 0.16444
 C2445 C 0.22581 0.02277 0.17550
 N2446 N 0.23625 0.02820 0.18095
 N2447 N 0.24098 0.02359 0.19184
 C2448 C 0.23544 0.01338 0.19765
 N2449 N 0.22506 0.00787 0.19209
 N2450 N 0.22033 0.01249 0.18120
 N2451 N 0.69822 0.21423 0.60996
 C2452 C 0.70919 0.20937 0.60505
 N2453 N 0.71417 0.19855 0.61019
 N2454 N 0.70838 0.19279 0.61997
 C2455 C 0.69740 0.19765 0.62492
 N2456 N 0.69243 0.20847 0.61974
 C2457 C 0.71531 0.21546 0.59439
 C2458 C 0.72032 0.22042 0.58528
 C2459 C 0.72607 0.22607 0.57417
 N2460 N 0.73634 0.22048 0.56858
 N2461 N 0.74109 0.22513 0.55771
 C2462 C 0.73574 0.23554 0.55207
 N2463 N 0.72553 0.24120 0.55778
 N2464 N 0.72079 0.23655 0.56865
 N2465 N 0.69755 0.71437 0.10951
 C2466 C 0.70817 0.70925 0.10410
 N2467 N 0.71297 0.69817 0.10883
 N2468 N 0.70735 0.69240 0.11870
 C2469 C 0.69672 0.69750 0.12414
 N2470 N 0.69193 0.70859 0.11937
 C2471 C 0.71412 0.71535 0.09335
 C2472 C 0.71904 0.72031 0.08419
 C2473 C 0.72473 0.72595 0.07306
 N2474 N 0.73512 0.72050 0.06756
 N2475 N 0.73992 0.72523 0.05675
 C2476 C 0.73450 0.73560 0.05110
 N2477 N 0.72416 0.74111 0.05670
 N2478 N 0.71936 0.73637 0.06751
 N2479 N 0.53624 0.69888 0.14002
 C2480 C 0.54114 0.70988 0.14487
 N2481 N 0.55200 0.71477 0.13975
 N2482 N 0.55775 0.70886 0.13002
 C2483 C 0.55285 0.69786 0.12512
 N2484 N 0.54199 0.69298 0.13030
 C2485 C 0.53505 0.71610 0.15547
 C2486 C 0.53000 0.72114 0.16454
 C2487 C 0.52417 0.72681 0.17559
 N2488 N 0.52947 0.73726 0.18118
 N2489 N 0.52469 0.74189 0.19205
 C2490 C 0.51443 0.73624 0.19768
 N2491 N 0.50906 0.72587 0.19196
 N2492 N 0.51385 0.72124 0.18109
 N2493 N 0.03615 0.69816 0.64015
 C2494 C 0.04108 0.70906 0.64520
 N2495 N 0.05208 0.71387 0.64032
 N2496 N 0.05794 0.70800 0.63064
 C2497 C 0.05301 0.69711 0.62554
 N2498 N 0.04201 0.69229 0.63047
 C2499 C 0.03490 0.71527 0.65577
 C2500 C 0.02985 0.72035 0.66480
 C2501 C 0.02406 0.72612 0.67583
 N2502 N 0.02938 0.73662 0.68132
 N2503 N 0.02462 0.74137 0.69215
 C2504 C 0.01438 0.73578 0.69786
 N2505 N 0.00900 0.72535 0.69225
 N2506 N 0.01375 0.72061 0.68142
 N2507 N 0.53574 0.64025 0.19766
 C2508 C 0.54046 0.64524 0.20868
 N2509 N 0.55125 0.64020 0.21379
 N2510 N 0.55708 0.63038 0.20812
 C2511 C 0.55234 0.62530 0.19714
 N2512 N 0.54158 0.63043 0.19200
 C2513 C 0.53425 0.65588 0.21472
 C2514 C 0.52919 0.66497 0.21971
 C2515 C 0.52347 0.67603 0.22547
 N2516 N 0.52875 0.68139 0.23604
 N2517 N 0.52406 0.69225 0.24081
 C2518 C 0.51390 0.69808 0.23520
 N2519 N 0.50854 0.69259 0.22471
 N2520 N 0.51323 0.68173 0.21993
 N2521 N 0.03582 0.64017 0.69809
 C2522 C 0.04063 0.64516 0.70906
 N2523 N 0.05158 0.64026 0.71397
 N2524 N 0.05751 0.63060 0.70813
 C2525 C 0.05270 0.62555 0.69716
 N2526 N 0.04175 0.63051 0.69225
 C2527 C 0.03435 0.65569 0.71524
 C2528 C 0.02923 0.66470 0.72030
 C2529 C 0.02341 0.67573 0.72605
 N2530 N 0.02869 0.68118 0.73658
 N2531 N 0.02399 0.69207 0.74127
 C2532 C 0.01384 0.69786 0.73560
 N2533 N 0.00847 0.69228 0.72515
 N2534 N 0.01318 0.68139 0.72047
 N2535 N 0.05233 0.10846 0.03733
 C2536 C 0.04143 0.10353 0.04232
 N2537 N 0.03646 0.10882 0.05307
 N2538 N 0.04221 0.11876 0.05865
 C2539 C 0.05312 0.12373 0.05366
 N2540 N 0.05807 0.11839 0.04290
 C2541 C 0.03534 0.09274 0.03638
 C2542 C 0.03035 0.08357 0.03145
 C2543 C 0.02464 0.07247 0.02570
 N2544 N 0.01422 0.06693 0.03105
 N2545 N 0.00937 0.05619 0.02615
 C2546 C 0.01476 0.05065 0.01571
 N2547 N 0.02515 0.05628 0.01032
 N2548 N 0.03000 0.06702 0.01522
 N2549 N 0.03648 0.60896 0.55292
 C2550 C 0.04143 0.60375 0.54212
 N2551 N 0.05234 0.60869 0.53716
 N2552 N 0.05810 0.61857 0.54280
 C2553 C 0.05317 0.62383 0.55360
 N2554 N 0.04225 0.61885 0.55856
 C2555 C 0.03533 0.59299 0.53611
 C2556 C 0.03034 0.58384 0.53115
 C2557 C 0.02462 0.57274 0.52541
 N2558 N 0.02997 0.56726 0.51495
 N2559 N 0.02513 0.55649 0.51009
 C2560 C 0.01476 0.55086 0.51551
 N2561 N 0.00936 0.55645 0.52593
 N2562 N 0.01420 0.56721 0.53078
 N2563 N 0.55139 0.11047 0.53554
 C2564 C 0.54056 0.10541 0.54055
 N2565 N 0.53578 0.11036 0.55154
 N2566 N 0.54163 0.12012 0.55732
 C2567 C 0.55246 0.12523 0.55232
 N2568 N 0.55724 0.12023 0.54132
 C2569 C 0.53438 0.09476 0.53445
 C2570 C 0.52934 0.08565 0.52946
 C2571 C 0.52364 0.07453 0.52376
 N2572 N 0.51320 0.06903 0.52912
 N2573 N 0.50852 0.05812 0.52443
 C2574 C 0.51412 0.05236 0.51421
 N2575 N 0.52449 0.05798 0.50879
 N2576 N 0.52917 0.06889 0.51348
 N2577 N 0.53576 0.60978 0.05185
 C2578 C 0.54060 0.60478 0.04090
 N2579 N 0.55155 0.60970 0.03603
 N2580 N 0.55746 0.61937 0.04189
 C2581 C 0.55263 0.62442 0.05284
 N2582 N 0.54167 0.61945 0.05771
 C2583 C 0.53433 0.59426 0.03469
 C2584 C 0.52919 0.58526 0.02961
 C2585 C 0.52336 0.57425 0.02383
 N2586 N 0.52867 0.56874 0.01336
 N2587 N 0.52393 0.55787 0.00866
 C2588 C 0.51371 0.55214 0.01427
 N2589 N 0.50832 0.55777 0.02466
 N2590 N 0.51306 0.56864 0.02936
 N2591 N 0.69864 0.13969 0.53542
 C2592 C 0.70943 0.14483 0.54046
 N2593 N 0.71404 0.14016 0.55164
 N2594 N 0.70810 0.13056 0.55755
 C2595 C 0.69733 0.12534 0.55250
 N2596 N 0.69270 0.13008 0.54133
 C2597 C 0.71569 0.15535 0.53425
 C2598 C 0.72080 0.16437 0.52921
 C2599 C 0.72659 0.17543 0.52351
 N2600 N 0.73688 0.18104 0.52907
 N2601 N 0.74155 0.19196 0.52445
 C2602 C 0.73610 0.19764 0.51412
 N2603 N 0.72588 0.19191 0.50849
 N2604 N 0.72121 0.18099 0.51310
 N2605 N 0.71308 0.64099 0.05229
 C2606 C 0.70815 0.64599 0.04139
 N2607 N 0.69738 0.64078 0.03635
 N2608 N 0.69175 0.63084 0.04202
 C2609 C 0.69669 0.62580 0.05293
 N2610 N 0.70746 0.63106 0.05795
 C2611 C 0.71415 0.65677 0.03536
 C2612 C 0.71912 0.66593 0.03042
 C2613 C 0.72485 0.67704 0.02472
 N2614 N 0.71949 0.68256 0.01429
 N2615 N 0.72434 0.69331 0.00946
 C2616 C 0.73475 0.69890 0.01490
 N2617 N 0.74016 0.69328 0.02529
 N2618 N 0.73530 0.68253 0.03011
 N2619 N 0.19841 0.61040 0.71412
 C2620 C 0.20923 0.60527 0.70916
 N2621 N 0.21409 0.61017 0.69819
 N2622 N 0.20832 0.61994 0.69238
 C2623 C 0.19750 0.62512 0.69733
 N2624 N 0.19264 0.62017 0.70831
 C2625 C 0.21533 0.59461 0.71530
 C2626 C 0.22031 0.58550 0.72033
 C2627 C 0.22598 0.57439 0.72608
 N2628 N 0.23651 0.56894 0.72083
 N2629 N 0.24119 0.55806 0.72556
 C2630 C 0.23552 0.55228 0.73571
 N2631 N 0.22506 0.55786 0.74102
 N2632 N 0.22038 0.56873 0.73630
 N2633 N 0.21436 0.11003 0.19782
 C2634 C 0.20943 0.10488 0.20865
 N2635 N 0.19845 0.10974 0.21352
 N2636 N 0.19259 0.11949 0.20776
 C2637 C 0.19751 0.12468 0.19693
 N2638 N 0.20850 0.11978 0.19206
 C2639 C 0.21560 0.09424 0.21473
 C2640 C 0.22059 0.08514 0.21977
 C2641 C 0.22623 0.07405 0.22556
 N2642 N 0.22065 0.06850 0.23585
 N2643 N 0.22528 0.05762 0.24063
 C2644 C 0.23566 0.05194 0.23529
 N2645 N 0.24131 0.05760 0.22506
 N2646 N 0.23668 0.06848 0.22028
 N2647 N 0.71465 1.11027 0.69805
 C2648 C 0.70972 1.10507 0.70885
 N2649 N 0.69875 1.10993 0.71376
 N2650 N 0.69291 1.11972 0.70807
 C2651 C 0.69782 1.12497 0.69726
 N2652 N 0.70880 1.12007 0.69235
 C2653 C 0.71589 1.09439 0.71489
 C2654 C 0.72090 1.08528 0.71989
 C2655 C 0.72657 1.07417 0.72563
 N2656 N 0.72127 1.06882 0.73618
 N2657 N 0.72591 1.05793 0.74093
 C2658 C 0.73603 1.05205 0.73531
 N2659 N 0.74142 1.05752 0.72484
 N2660 N 0.73677 1.06840 0.72009
 N2661 N 0.71340 0.60901 0.19699
 C2662 C 0.70917 0.60466 0.20844
 N2663 N 0.69884 0.61027 0.21391
 N2664 N 0.69296 0.61999 0.20814
 C2665 C 0.69720 0.62440 0.19668
 N2666 N 0.70752 0.61874 0.19121
 C2667 C 0.71542 0.59412 0.21461
 C2668 C 0.72052 0.58512 0.21971
 C2669 C 0.72630 0.57416 0.22559
 N2670 N 0.72081 0.56864 0.23595
 N2671 N 0.72556 0.55785 0.24079
 C2672 C 0.73598 0.55223 0.23546
 N2673 N 0.74155 0.55787 0.22518
 N2674 N 0.73680 0.56866 0.22033
 N2675 N 0.53536 0.13965 0.69740
 C2676 C 0.54032 0.14489 0.70819
 N2677 N 0.55132 0.14006 0.71306
 N2678 N 0.55715 0.13026 0.70736
 C2679 C 0.55220 0.12495 0.69657
 N2680 N 0.54120 0.12985 0.69169
 C2681 C 0.53412 0.15553 0.71429
 C2682 C 0.52909 0.16461 0.71936
 C2683 C 0.52337 0.17567 0.72518
 N2684 N 0.52868 0.18102 0.73575
 N2685 N 0.52397 0.19185 0.74058
 C2686 C 0.51377 0.19768 0.73503
 N2687 N 0.50838 0.19220 0.72454
 N2688 N 0.51309 0.18137 0.71971
 N2689 N 1.05226 0.14090 0.21302
 C2690 C 1.04079 0.14514 0.20870
 N2691 N 1.03544 0.13945 0.19833
 N2692 N 1.04133 0.12976 0.19251
 C2693 C 1.05279 0.12546 0.19684
 N2694 N 1.05815 0.13121 0.20720
 C2695 C 1.03449 0.15564 0.21490
 C2696 C 1.02932 0.16461 0.21999
 C2697 C 1.02345 0.17558 0.22580
 N2698 N 1.01317 0.18121 0.22025
 N2699 N 1.00840 0.19204 0.22500
 C2700 C 1.01373 0.19760 0.23547
 N2701 N 1.02393 0.19184 0.24110
 N2702 N 1.02870 0.18101 0.23634
 N2703 N 0.21221 0.64226 0.55361
 C2704 C 0.20787 0.64675 0.54224
 N2705 N 0.19759 0.64108 0.53672
 N2706 N 0.19187 0.63118 0.54235
 C2707 C 0.19623 0.62663 0.55371
 N2708 N 0.20650 0.63236 0.55924
 C2709 C 0.21402 0.65743 0.53618
 C2710 C 0.21911 0.66649 0.53116
 C2711 C 0.22497 0.67747 0.52533
 N2712 N 0.21972 0.68286 0.51477
 N2713 N 0.22468 0.69350 0.50981
 C2714 C 0.23509 0.69911 0.51523
 N2715 N 0.24039 0.69361 0.52574
 N2716 N 0.23542 0.68296 0.53070
 N2717 N 0.21227 0.14200 1.05397
 C2718 C 0.20794 0.14648 1.04260
 N2719 N 0.19769 0.14080 1.03704
 N2720 N 0.19196 0.13090 1.04266
 C2721 C 0.19629 0.12637 1.05403
 N2722 N 0.20654 0.13210 1.05959
 C2723 C 0.21407 0.15717 1.03657
 C2724 C 0.21911 0.16624 1.03156
 C2725 C 0.22490 0.17723 1.02574
 N2726 N 0.21953 0.18267 1.01526
 N2727 N 0.22445 0.19333 1.01030
 C2728 C 0.23492 0.19889 1.01563
 N2729 N 0.24033 0.19335 1.02607
 N2730 N 0.23541 0.18269 1.03102
 N2731 N 0.21301 0.69801 0.60872
 C2732 C 0.20804 0.70890 0.60373
 N2733 N 0.19718 0.71381 0.60882
 N2734 N 0.19148 0.70802 0.61864
 C2735 C 0.19645 0.69712 0.62368
 N2736 N 0.20732 0.69222 0.61854
 C2737 C 0.21410 0.71504 0.59306
 C2738 C 0.21910 0.72007 0.58398
 C2739 C 0.22486 0.72583 0.57294
 N2740 N 0.21946 0.73623 0.56739
 N2741 N 0.22432 0.74106 0.55665
 C2742 C 0.23475 0.73566 0.55110
 N2743 N 0.24020 0.72531 0.55676
 N2744 N 0.23535 0.72049 0.56751
 N2745 N 0.21354 0.19748 1.10916
 C2746 C 0.20856 0.20827 1.10396
 N2747 N 0.19766 0.21323 1.10891
 N2748 N 0.19194 0.20759 1.11880
 C2749 C 0.19692 0.19680 1.12405
 N2750 N 0.20782 0.19185 1.11905
 C2751 C 0.21463 0.21426 1.09321
 C2752 C 0.21960 0.21922 1.08407
 C2753 C 0.22532 0.22495 1.07299
 N2754 N 0.21990 0.23535 1.06746
 N2755 N 0.22474 0.24020 1.05671
 C2756 C 0.23518 0.23483 1.05116
 N2757 N 0.24064 0.22447 1.05680
 N2758 N 0.23580 0.21962 1.06754
 N2759 N 0.71388 0.55168 0.14022
 C2760 C 0.70902 0.54072 0.14516
 N2761 N 0.69807 0.53585 0.14018
 N2762 N 0.69221 0.54172 0.13050
 C2763 C 0.69708 0.55269 0.12551
 N2764 N 0.70802 0.55756 0.13055
 C2765 C 0.71523 0.53448 0.15570
 C2766 C 0.72033 0.52939 0.16471
 C2767 C 0.72615 0.52361 0.17572
 N2768 N 0.72075 0.51322 0.18130
 N2769 N 0.72552 0.50851 0.19214
 C2770 C 0.73586 0.51401 0.19777
 N2771 N 0.74134 0.52432 0.19206
 N2772 N 0.73657 0.52903 0.18122
 N2773 N 0.69818 1.03538 0.63972
 C2774 C 0.70852 1.04073 0.64542
 N2775 N 0.71291 1.05216 0.64113
 N2776 N 0.70717 1.05803 0.63138
 C2777 C 0.69683 1.05266 0.62562
 N2778 N 0.69243 1.04124 0.62997
 C2779 C 0.71470 1.03443 0.65592
 C2780 C 0.71980 1.02927 0.66487
 C2781 C 0.72567 1.02344 0.67581
 N2782 N 0.73609 1.02888 0.68130
 N2783 N 0.74089 1.02416 0.69211
 C2784 C 0.73545 1.01381 0.69779
 N2785 N 0.72512 1.00828 0.69217
 N2786 N 0.72032 1.01301 0.68135
 N2787 N 0.55207 0.21469 0.63998
 C2788 C 0.54112 0.20982 0.64494
 N2789 N 0.53628 0.19884 0.64000
 N2790 N 0.54215 0.19294 0.63035
 C2791 C 0.55309 0.19782 0.62534
 N2792 N 0.55794 0.20880 0.63033
 C2793 C 0.53491 0.21604 0.65547
 C2794 C 0.52979 0.22106 0.66449
 C2795 C 0.52392 0.22671 0.67553
 N2796 N 0.51361 0.22110 0.68102
 N2797 N 0.50884 0.22566 0.69192
 C2798 C 0.51422 0.23600 0.69769
 N2799 N 0.52445 0.24170 0.69208
 N2800 N 0.52922 0.23713 0.68118
 N2801 N 1.03608 0.19812 0.14001
 C2802 C 1.04100 0.20899 0.14512
 N2803 N 1.05198 0.21386 0.14024
 N2804 N 1.05783 0.20805 0.13052
 C2805 C 1.05291 0.19717 0.12537
 N2806 N 1.04193 0.19231 0.13029
 C2807 C 1.03481 0.21514 0.15572
 C2808 C 1.02972 0.22016 0.16477
 C2809 C 1.02390 0.22589 0.17581
 N2810 N 1.02913 0.23643 0.18129
 N2811 N 1.02432 0.24115 0.19211
 C2812 C 1.01409 0.23552 0.19779
 N2813 N 1.00879 0.22505 0.19219
 N2814 N 1.01360 0.22032 0.18137
 N2815 N 0.60968 0.21395 0.69861
 C2816 C 0.60479 0.20903 0.70955
 N2817 N 0.60979 0.19807 0.71436
 N2818 N 0.61946 0.19225 0.70844
 C2819 C 0.62441 0.19717 0.69750
 N2820 N 0.61935 0.20813 0.69269
 C2821 C 0.59424 0.21518 0.71582
 C2822 C 0.58522 0.22021 0.72093
 C2823 C 0.57417 0.22595 0.72670
 N2824 N 0.56851 0.22037 0.73694
 N2825 N 0.55760 0.22503 0.74161
 C2826 C 0.55201 0.23544 0.73619
 N2827 N 0.55780 0.24109 0.72604
 N2828 N 0.56870 0.23643 0.72138
 N2829 N 1.10955 0.19785 0.21379
 C2830 C 1.10456 0.20881 0.20898
 N2831 N 1.10949 0.21374 0.19805
 N2832 N 1.11918 0.20792 0.19216
 C2833 C 1.12423 0.19696 0.19698
 N2834 N 1.11924 0.19203 0.20790
 C2835 C 1.09399 0.21495 0.21521
 C2836 C 1.08496 0.21997 0.22031
 C2837 C 1.07392 0.22571 0.22611
 N2838 N 1.06844 0.23619 0.22080
 N2839 N 1.05759 0.24090 0.22553
 C2840 C 1.05187 0.23530 0.23576
 N2841 N 1.05748 0.22489 0.24115
 N2842 N 1.06833 0.22018 0.23641
 N2843 N 0.14156 0.71280 0.55267
 C2844 C 0.14660 0.70780 0.54181
 N2845 N 0.14148 0.69694 0.53686
 N2846 N 0.13160 0.69128 0.54257
 C2847 C 0.12651 0.69628 0.55343
 N2848 N 0.13168 0.70714 0.55837
 C2849 C 0.15732 0.71382 0.53574
 C2850 C 0.16643 0.71882 0.53076
 C2851 C 0.17748 0.72461 0.52504
 N2852 N 0.18294 0.71933 0.51453
 N2853 N 0.19364 0.72425 0.50968
 C2854 C 0.19923 0.73463 0.51517
 N2855 N 0.19367 0.73996 0.52564
 N2856 N 0.18297 0.73503 0.53048
 N2857 N 0.14148 0.19659 1.03677
 C2858 C 0.14659 0.20748 1.04164
 N2859 N 0.14160 0.21252 1.05250
 N2860 N 0.13176 0.20686 1.05828
 C2861 C 0.12660 0.19596 1.05342
 N2862 N 0.13164 0.19093 1.04255
 C2863 C 0.15729 0.21350 1.03550
 C2864 C 0.16638 0.21848 1.03046
 C2865 C 0.17741 0.22425 1.02468
 N2866 N 0.18286 0.23476 1.03001
 N2867 N 0.19356 0.23965 1.02513
 C2868 C 0.19917 0.23421 1.01475
 N2869 N 0.19362 0.22375 1.00937
 N2870 N 0.18291 0.21886 1.01425
 N2871 N 0.64058 0.55223 0.21390
 C2872 C 0.64560 0.54131 0.20900
 N2873 N 0.64064 0.53640 0.19806
 N2874 N 0.63089 0.54219 0.19224
 C2875 C 0.62582 0.55310 0.19714
 N2876 N 0.63084 0.55802 0.20807
 C2877 C 0.65616 0.53512 0.21521
 C2878 C 0.66518 0.53005 0.22029
 C2879 C 0.67617 0.52426 0.22610
 N2880 N 0.68165 0.51378 0.22076
 N2881 N 0.69247 0.50902 0.22552
 C2882 C 0.69817 0.51458 0.23580
 N2883 N 0.69258 0.52499 0.24122
 N2884 N 0.68175 0.52974 0.23645
 N2885 N 0.63993 1.03614 0.69811
 C2886 C 0.64491 1.04104 0.70904
 N2887 N 0.63989 1.05196 0.71395
 N2888 N 0.63015 1.05777 0.70813
 C2889 C 0.62512 1.05286 0.69720
 N2890 N 0.63019 1.04194 0.69229
 C2891 C 0.65552 1.03488 0.71523
 C2892 C 0.66457 1.02984 0.72030
 C2893 C 0.67561 1.02408 0.72610
 N2894 N 0.68122 1.02960 0.73641
 N2895 N 0.69206 1.02487 0.74116
 C2896 C 0.69765 1.01445 0.73576
 N2897 N 0.69191 1.00885 0.72552
 N2898 N 0.68107 1.01358 0.72078
 N2899 N 0.85929 0.46380 0.30315
 C2900 C 0.85401 0.45878 0.29241
 N2901 N 0.85893 0.44785 0.28745
 N2902 N 0.86886 0.44213 0.29304
 C2903 C 0.87418 0.44714 0.30378
 N2904 N 0.86922 0.45809 0.30874
 C2905 C 0.84324 0.46485 0.28644
 C2906 C 0.83409 0.46982 0.28147
 C2907 C 0.82302 0.47553 0.27570
 N2908 N 0.81757 0.47013 0.26522
 N2909 N 0.80688 0.47499 0.26029
 C2910 C 0.80127 0.48543 0.26564
 N2911 N 0.80681 0.49087 0.27607
 N2912 N 0.81751 0.48601 0.28101
 N2913 N 0.85847 0.96317 0.80353
 C2914 C 0.85336 0.95821 0.79269
 N2915 N 0.85841 0.94734 0.78770
 N2916 N 0.86831 0.94165 0.79335
 C2917 C 0.87348 0.94662 0.80420
 N2918 N 0.86838 0.95748 0.80918
 C2919 C 0.84260 0.96425 0.78666
 C2920 C 0.83346 0.96919 0.78167
 C2921 C 0.82238 0.97485 0.77586
 N2922 N 0.81690 0.96934 0.76547
 N2923 N 0.80617 0.97413 0.76053
 C2924 C 0.80057 0.98461 0.76581
 N2925 N 0.80615 0.99016 0.77616
 N2926 N 0.81688 0.98537 0.78109
 N2927 N 0.39098 0.30272 0.78689
 C2928 C 0.39620 0.29199 0.79199
 N2929 N 0.39116 0.28707 0.80287
 N2930 N 0.38119 0.29269 0.80847
 C2931 C 0.37593 0.30343 0.80339
 N2932 N 0.38101 0.30834 0.79249
 C2933 C 0.40700 0.28599 0.78603
 C2934 C 0.41617 0.28102 0.78111
 C2935 C 0.42724 0.27528 0.77539
 N2936 N 0.43261 0.26470 0.78064
 N2937 N 0.44329 0.25978 0.77573
 C2938 C 0.44894 0.26524 0.76540
 N2939 N 0.44347 0.27577 0.76010
 N2940 N 0.43279 0.28070 0.76501
 N2941 N 0.89100 0.28653 0.30328
 C2942 C 0.89636 0.29162 0.29264
 N2943 N 0.89152 0.30263 0.28777
 N2944 N 0.88160 0.30834 0.29334
 C2945 C 0.87619 0.30326 0.30400
 N2946 N 0.88107 0.29225 0.30887
 C2947 C 0.90711 0.28554 0.28666
 C2948 C 0.91624 0.28057 0.28168
 C2949 C 0.92728 0.27488 0.27586
 N2950 N 0.93269 0.28031 0.26541
 N2951 N 0.94336 0.27547 0.26043
 C2952 C 0.94898 0.26501 0.26572
 N2953 N 0.94348 0.25954 0.27613
 N2954 N 0.93280 0.26439 0.28111
 N2955 N 0.35978 0.78639 0.44777
 C2956 C 0.35478 0.79123 0.45871
 N2957 N 0.35973 0.80218 0.46364
 N2958 N 0.36942 0.80808 0.45782
 C2959 C 0.37446 0.80323 0.44687
 N2960 N 0.36946 0.79228 0.44195
 C2961 C 0.34422 0.78499 0.46487
 C2962 C 0.33519 0.77989 0.46991
 C2963 C 0.32418 0.77406 0.47568
 N2964 N 0.31875 0.77936 0.48619
 N2965 N 0.30794 0.77458 0.49095
 C2966 C 0.30221 0.76432 0.48538
 N2967 N 0.30776 0.75896 0.47493
 N2968 N 0.31857 0.76374 0.47017
 N2969 N 0.36007 0.30189 0.96424
 C2970 C 0.35485 0.29114 0.95916
 N2971 N 0.35964 0.28640 0.94807
 N2972 N 0.36939 0.29221 0.94228
 C2973 C 0.37465 0.30296 0.94735
 N2974 N 0.36982 0.30770 0.95844
 C2975 C 0.34425 0.28495 0.96530
 C2976 C 0.33521 0.27984 0.97030
 C2977 C 0.32419 0.27397 0.97601
 N2978 N 0.31864 0.26363 0.97044
 N2979 N 0.30784 0.25879 0.97515
 C2980 C 0.30224 0.26409 0.98560
 N2981 N 0.30791 0.27435 0.99124
 N2982 N 0.31871 0.27919 0.98653
 N2983 N 0.80274 0.46262 0.35860
 C2984 C 0.79184 0.45769 0.35358
 N2985 N 0.78689 0.44682 0.35863
 N2986 N 0.79264 0.44108 0.36845
 C2987 C 0.80354 0.44600 0.37352
 N2988 N 0.80849 0.45687 0.36842
 C2989 C 0.78576 0.46379 0.34291
 C2990 C 0.78079 0.46883 0.33381
 C2991 C 0.77510 0.47464 0.32277
 N2992 N 0.76460 0.46938 0.31727
 N2993 N 0.75980 0.47428 0.30653
 C2994 C 0.76533 0.48463 0.30095
 N2995 N 0.77579 0.48994 0.30655
 N2996 N 0.78058 0.48503 0.31729
 N2997 N 0.78601 0.94770 0.85932
 C2998 C 0.79152 0.95791 0.85353
 N2999 N 0.80299 0.96219 0.85781
 N3000 N 0.80875 0.95647 0.86764
 C3001 C 0.80324 0.94626 0.87348
 N3002 N 0.79177 0.94198 0.86914
 C3003 C 0.78534 0.96403 0.84292
 C3004 C 0.78024 0.96908 0.83390
 C3005 C 0.77439 0.97491 0.82294
 N3006 N 0.77972 0.98540 0.81750
 N3007 N 0.77482 0.99030 0.80681
 C3008 C 0.76440 0.98490 0.80122
 N3009 N 0.75902 0.97446 0.80677
 N3010 N 0.76392 0.96956 0.81747
 N3011 N 0.30131 0.78580 0.38971
 C3012 C 0.29096 0.79126 0.39529
 N3013 N 0.28674 0.80273 0.39095
 N3014 N 0.29265 0.80854 0.38127
 C3015 C 0.30300 0.80309 0.37564
 N3016 N 0.30722 0.79161 0.38003
 C3017 C 0.28472 0.78510 0.40583
 C3018 C 0.27961 0.78005 0.41484
 C3019 C 0.27379 0.77430 0.42584
 N3020 N 0.26354 0.77988 0.43149
 N3021 N 0.25878 0.77515 0.44231
 C3022 C 0.26409 0.76466 0.44785
 N3023 N 0.27426 0.75901 0.44208
 N3024 N 0.27902 0.76374 0.43125
 N3025 N 0.28585 0.30222 0.89034
 C3026 C 0.29068 0.29125 0.89530
 N3027 N 0.30165 0.28638 0.89039
 N3028 N 0.30758 0.29227 0.88078
 C3029 C 0.30277 0.30326 0.87579
 N3030 N 0.29179 0.30812 0.88073
 C3031 C 0.28445 0.28503 0.90582
 C3032 C 0.27940 0.27993 0.91483
 C3033 C 0.27371 0.27407 0.92586
 N3034 N 0.27928 0.26374 0.93138
 N3035 N 0.27465 0.25894 0.94223
 C3036 C 0.26426 0.26428 0.94791
 N3037 N 0.25861 0.27453 0.94226
 N3038 N 0.26325 0.27933 0.93141
 N3039 N 0.44734 0.28690 0.85876
 C3040 C 0.45821 0.29182 0.85370
 N3041 N 0.46317 0.30271 0.85873
 N3042 N 0.45745 0.30849 0.86855
 C3043 C 0.44656 0.30358 0.87364
 N3044 N 0.44162 0.29267 0.86857
 C3045 C 0.46429 0.28568 0.84302
 C3046 C 0.46927 0.28063 0.83393
 C3047 C 0.47500 0.27480 0.82290
 N3048 N 0.48548 0.28010 0.81741
 N3049 N 0.49031 0.27519 0.80669
 C3050 C 0.48485 0.26480 0.80109
 N3051 N 0.47442 0.25945 0.80668
 N3052 N 0.46959 0.26436 0.81741
 N3053 N 0.94776 0.28674 0.35905
 C3054 C 0.95804 0.29225 0.35339
 N3055 N 0.96237 0.30365 0.35786
 N3056 N 0.95664 0.30932 0.36773
 C3057 C 0.94637 0.30381 0.37345
 N3058 N 0.94203 0.29241 0.36892
 C3059 C 0.96420 0.28616 0.34274
 C3060 C 0.96927 0.28111 0.33370
 C3061 C 0.97510 0.27525 0.32274
 N3062 N 0.98552 0.28061 0.31720
 N3063 N 0.99042 0.27565 0.30654
 C3064 C 0.98509 0.26513 0.30106
 N3065 N 0.97472 0.25971 0.30670
 N3066 N 0.96982 0.26468 0.31736
 N3067 N 0.44610 0.35766 0.78766
 C3068 C 0.45749 0.35325 0.79202
 N3069 N 0.46298 0.35895 0.80230
 N3070 N 0.45727 0.36882 0.80802
 C3071 C 0.44589 0.37329 0.80367
 N3072 N 0.44040 0.36753 0.79338
 C3073 C 0.46359 0.34258 0.78591
 C3074 C 0.46863 0.33352 0.78086
 C3075 C 0.47443 0.32253 0.77503
 N3076 N 0.48483 0.31698 0.78043
 N3077 N 0.48974 0.30630 0.77548
 C3078 C 0.48442 0.30083 0.76495
 N3079 N 0.47407 0.30648 0.75951
 N3080 N 0.46917 0.31716 0.76446
 N3081 N 0.94693 0.35872 0.28684
 C3082 C 0.95781 0.35361 0.29170
 N3083 N 0.96283 0.35860 0.30257
 N3084 N 0.95717 0.36844 0.30838
 C3085 C 0.94629 0.37360 0.30353
 N3086 N 0.94127 0.36856 0.29265
 C3087 C 0.96382 0.34292 0.28552
 C3088 C 0.96879 0.33382 0.28044
 C3089 C 0.97452 0.32278 0.27462
 N3090 N 0.98506 0.31735 0.27987
 N3091 N 0.98990 0.30662 0.27497
 C3092 C 0.98439 0.30096 0.26465
 N3093 N 0.97389 0.30649 0.25935
 N3094 N 0.96905 0.31722 0.26425
 N3095 N 0.30302 0.85954 0.46380
 C3096 C 0.29209 0.85453 0.45894
 N3097 N 0.28719 0.85945 0.44799
 N3098 N 0.29301 0.86915 0.44212
 C3099 C 0.30393 0.87422 0.44698
 N3100 N 0.30884 0.86924 0.45793
 C3101 C 0.28586 0.84403 0.46520
 C3102 C 0.28071 0.83507 0.47030
 C3103 C 0.27476 0.82414 0.47608
 N3104 N 0.26437 0.81867 0.47057
 N3105 N 0.25945 0.80791 0.47532
 C3106 C 0.26474 0.80228 0.48577
 N3107 N 0.27507 0.80787 0.49135
 N3108 N 0.27998 0.81863 0.48659
 N3109 N 0.30289 0.35873 0.96326
 C3110 C 0.29144 0.35437 0.95901
 N3111 N 0.28598 0.35997 0.94867
 N3112 N 0.29176 0.36970 0.94281
 C3113 C 0.30321 0.37412 0.94707
 N3114 N 0.30867 0.36846 0.95740
 C3115 C 0.28525 0.34384 0.96528
 C3116 C 0.28015 0.33487 0.97044
 C3117 C 0.27431 0.32393 0.97631
 N3118 N 0.26384 0.31845 0.97098
 N3119 N 0.25904 0.30766 0.97578
 C3120 C 0.26454 0.30200 0.98610
 N3121 N 0.27493 0.30762 0.99153
 N3122 N 0.27973 0.31841 0.98672
 N3123 N 0.80287 0.39132 0.28690
 C3124 C 0.79198 0.39637 0.29179
 N3125 N 0.78704 0.39138 0.30268
 N3126 N 0.79278 0.38160 0.30848
 C3127 C 0.80368 0.37650 0.30360
 N3128 N 0.80862 0.38153 0.29270
 C3129 C 0.78590 0.40702 0.28564
 C3130 C 0.78091 0.41611 0.28060
 C3131 C 0.77517 0.42714 0.27481
 N3132 N 0.76468 0.43260 0.28010
 N3133 N 0.75984 0.44334 0.27524
 C3134 C 0.76532 0.44898 0.26491
 N3135 N 0.77577 0.44342 0.25956
 N3136 N 0.78061 0.43268 0.26443
   
