data_POSCAR
  _audit_creation_date              2014-09-24
  _audit_creation_method            'ToBaCCo'
  _symmetry_space_group_name_H-M    'P1'
  _symmetry_Int_Tables_number       1
  _symmetry_cell_setting            triclinic
  loop_
  _symmetry_equiv_pos_as_xyz
 x,y,z
_cell_length_a 57.1475
_cell_length_b 54.9128
_cell_length_c 57.6653
_cell_angle_alpha 89.569300
_cell_angle_beta 89.344200
_cell_angle_gamma 91.300400
loop_
  _atom_site_label
  _atom_site_type_symbol
  _atom_site_fract_x
  _atom_site_fract_y
  _atom_site_fract_z
N1 N 0.37837 0.30703 0.33974
 N2 N 0.38192 0.32184 0.32196
 C3 C 0.40033 0.31403 0.30939
 C4 C 0.40852 0.29321 0.31989
 C5 C 0.39420 0.28933 0.33907
 H6 H 0.40694 0.32245 0.29354
 H7 H 0.39497 0.27447 0.35142
 Cu8 Cu 0.36159 0.34936 0.31683
 Cu9 Cu 0.35313 0.31098 0.36216
 Cu10 Cu 0.31459 0.35734 0.35137
 N11 N 0.34174 0.37756 0.31344
 N12 N 0.32326 0.38040 0.32687
 C13 C 0.31222 0.40072 0.32041
 C14 C 0.32453 0.41125 0.30207
 C15 C 0.34318 0.39615 0.29808
 H16 H 0.29641 0.40734 0.32843
 H17 H 0.35658 0.39839 0.28480
 N18 N 0.31201 0.33584 0.37877
 N19 N 0.32644 0.31789 0.38274
 C20 C 0.31974 0.30624 0.40247
 C21 C 0.30043 0.31768 0.41142
 C22 C 0.29602 0.33639 0.39606
 H23 H 0.32830 0.29071 0.40991
 H24 H 0.28203 0.34926 0.39727
 H25 H 0.33135 0.32661 0.33887
 H26 H 0.34882 0.34815 0.35715
 N27 N 0.37973 0.81017 -0.15336
 N28 N 0.38154 0.81768 -0.17503
 C29 C 0.40192 0.81052 -0.18417
 C30 C 0.41372 0.79794 -0.16735
 C31 C 0.39921 0.79800 -0.14788
 H32 H 0.40763 0.81408 -0.20185
 H33 H 0.40235 0.78949 -0.13126
 Cu34 Cu 0.35718 0.83544 -0.19043
 Cu35 Cu 0.35116 0.81599 -0.13552
 Cu36 Cu 0.31720 0.86152 -0.15309
 N37 N 0.33727 0.86231 -0.19973
 N38 N 0.32202 0.87234 -0.18557
 C39 C 0.31166 0.89068 -0.19684
 C40 C 0.32129 0.89254 -0.21893
 C41 C 0.33746 0.87427 -0.22021
 H42 H 0.29857 0.90227 -0.18935
 H43 H 0.34880 0.87020 -0.23474
 N44 N 0.31004 0.84256 -0.12503
 N45 N 0.32335 0.82485 -0.11782
 C46 C 0.31408 0.81527 -0.09806
 C47 C 0.29393 0.82768 -0.09269
 C48 C 0.29195 0.84491 -0.11014
 H49 H 0.32117 0.80017 -0.08849
 H50 H 0.27825 0.85801 -0.11206
 H51 H 0.32799 0.83069 -0.16803
 H52 H 0.35197 0.85248 -0.15982
 N53 N 0.86032 0.29558 -0.17542
 N54 N 0.86412 0.30758 -0.19499
 C55 C 0.88287 0.29823 -0.20589
 C56 C 0.89102 0.27930 -0.19244
 C57 C 0.87634 0.27818 -0.17323
 H58 H 0.88973 0.30428 -0.22257
 H59 H 0.87714 0.26558 -0.15877
 Cu60 Cu 0.84335 0.33353 -0.20442
 Cu61 Cu 0.83529 0.30372 -0.15378
 Cu62 Cu 0.79129 0.33762 -0.17780
 N63 N 0.82279 0.36074 -0.21063
 N64 N 0.80222 0.36171 -0.20026
 C65 C 0.79108 0.38160 -0.20743
 C66 C 0.80546 0.39400 -0.22302
 C67 C 0.82550 0.38027 -0.22483
 H68 H 0.77392 0.38683 -0.20141
 H69 H 0.84087 0.38425 -0.23543
 N70 N 0.78775 0.32053 -0.14808
 N71 N 0.80455 0.30782 -0.13865
 C72 C 0.79700 0.29929 -0.11786
 C73 C 0.77462 0.30749 -0.11402
 C74 C 0.76926 0.32086 -0.13348
 H75 H 0.80714 0.28830 -0.10621
 H76 H 0.75324 0.33038 -0.13669
 H77 H 0.81510 0.30897 -0.18149
 H78 H 0.82483 0.33742 -0.16649
 N79 N 0.86825 0.80206 0.34740
 N80 N 0.87672 0.81811 0.33232
 C81 C 0.89704 0.81008 0.32359
 C82 C 0.90135 0.78776 0.33367
 C83 C 0.88274 0.78315 0.34868
 H84 H 0.90756 0.81939 0.31041
 H85 H 0.87977 0.76718 0.35950
 Cu86 Cu 0.85947 0.84690 0.32424
 Cu87 Cu 0.83861 0.80636 0.36338
 Cu88 Cu 0.81439 0.86352 0.35784
 N89 N 0.83756 0.87105 0.31389
 N90 N 0.82028 0.87820 0.32727
 C91 C 0.80862 0.89581 0.31619
 C92 C 0.81902 0.89954 0.29460
 C93 C 0.83732 0.88350 0.29372
 H94 H 0.79352 0.90490 0.32317
 H95 H 0.84965 0.88114 0.27959
 N96 N 0.80471 0.83987 0.38226
 N97 N 0.81388 0.81809 0.38411
 C98 C 0.80383 0.80613 0.40220
 C99 C 0.78733 0.82091 0.41201
 C100 C 0.78823 0.84218 0.39896
 H101 H 0.80801 0.78789 0.40770
 H102 H 0.77760 0.85804 0.40132
 H103 H 0.82289 0.83239 0.34224
 H104 H 0.84455 0.84318 0.36409
 N105 N 0.62143 0.69005 0.33639
 N106 N 0.61762 0.67713 0.31764
 C107 C 0.59696 0.68327 0.30856
 C108 C 0.58743 0.70115 0.32216
 C109 C 0.60339 0.70504 0.33973
 H110 H 0.58998 0.67642 0.29246
 H111 H 0.60253 0.71857 0.35323
 Cu112 Cu 0.64164 0.65631 0.30522
 Cu113 Cu 0.65086 0.68830 0.35330
 Cu114 Cu 0.68582 0.63931 0.33856
 N115 N 0.66556 0.63506 0.29331
 N116 N 0.68283 0.62792 0.30641
 C117 C 0.69599 0.61222 0.29424
 C118 C 0.68648 0.60973 0.27232
 C119 C 0.66726 0.62453 0.27240
 H120 H 0.71117 0.60317 0.30087
 H121 H 0.65512 0.62699 0.25839
 N122 N 0.69046 0.65912 0.36698
 N123 N 0.67731 0.67776 0.37248
 C124 C 0.68515 0.68764 0.39240
 C125 C 0.70425 0.67476 0.39970
 C126 C 0.70712 0.65683 0.38316
 H127 H 0.67775 0.70327 0.40082
 H128 H 0.72059 0.64333 0.38276
 H129 H 0.67341 0.67216 0.32915
 H130 H 0.65235 0.65233 0.34590
 N131 N 0.62122 0.18024 -0.19756
 N132 N 0.62841 0.16843 -0.21592
 C133 C 0.61107 0.16712 -0.23145
 C134 C 0.59214 0.17924 -0.22250
 C135 C 0.59917 0.18756 -0.20104
 H136 H 0.61238 0.15859 -0.24825
 H137 H 0.58897 0.19789 -0.18881
 Cu138 Cu 0.66010 0.15715 -0.21820
 Cu139 Cu 0.64144 0.18473 -0.17085
 Cu140 Cu 0.69053 0.14774 -0.16962
 N141 N 0.68647 0.13598 -0.21787
 N142 N 0.69798 0.13099 -0.19887
 C143 C 0.71331 0.11319 -0.20364
 C144 C 0.71094 0.10687 -0.22684
 C145 C 0.69391 0.12194 -0.23521
 H146 H 0.72459 0.10487 -0.19105
 H147 H 0.68636 0.12179 -0.25230
 N148 N 0.67960 0.16681 -0.14239
 N149 N 0.66053 0.18000 -0.14305
 C150 C 0.65689 0.18999 -0.12219
 C151 C 0.67467 0.18334 -0.10768
 C152 C 0.68895 0.16877 -0.12101
 H153 H 0.64260 0.20180 -0.11794
 H154 H 0.70478 0.16013 -0.11546
 H155 H 0.67514 0.17755 -0.18355
 H156 H 0.65529 0.15108 -0.17675
 N157 N 0.12595 0.68313 -0.15132
 N158 N 0.12559 0.67158 -0.17125
 C159 C 0.10644 0.67809 -0.18307
 C160 C 0.09413 0.69438 -0.16969
 C161 C 0.10698 0.69707 -0.14965
 H162 H 0.10177 0.67146 -0.20005
 H163 H 0.10308 0.70863 -0.13507
 Cu164 Cu 0.15014 0.64885 -0.17942
 Cu165 Cu 0.15129 0.67989 -0.12909
 Cu166 Cu 0.20166 0.65826 -0.15404
 N167 N 0.17593 0.62646 -0.18428
 N168 N 0.19624 0.63101 -0.17453
 C169 C 0.21066 0.61258 -0.17862
 C170 C 0.19887 0.59531 -0.19144
 C171 C 0.17683 0.60468 -0.19502
 H172 H 0.22800 0.61117 -0.17147
 H173 H 0.16218 0.59565 -0.20333
 N174 N 0.20154 0.67605 -0.12488
 N175 N 0.18233 0.68348 -0.11449
 C176 C 0.18805 0.69244 -0.09348
 C177 C 0.21192 0.68993 -0.09061
 C178 C 0.21985 0.67967 -0.11089
 H179 H 0.17571 0.69938 -0.08094
 H180 H 0.23751 0.67425 -0.11486
 H181 H 0.17170 0.67980 -0.15737
 H182 H 0.16898 0.64995 -0.14174
 N183 N 0.13850 0.21132 0.31496
 N184 N 0.12851 0.19315 0.30383
 C185 C 0.10891 0.20121 0.29373
 C186 C 0.10680 0.22570 0.29899
 C187 C 0.12603 0.23152 0.31219
 H188 H 0.09683 0.19004 0.28390
 H189 H 0.13013 0.24880 0.32023
 Cu190 Cu 0.14240 0.16086 0.30458
 Cu191 Cu 0.16532 0.20693 0.33440
 Cu192 Cu 0.17913 0.14773 0.34808
 N193 N 0.16222 0.13233 0.30370
 N194 N 0.17670 0.12718 0.32055
 C195 C 0.18837 0.10688 0.31509
 C196 C 0.18077 0.09897 0.29367
 C197 C 0.16416 0.11552 0.28700
 H198 H 0.20157 0.09870 0.32575
 H199 H 0.15453 0.11565 0.27097
 N200 N 0.18699 0.17550 0.36833
 N201 N 0.18252 0.19813 0.36222
 C202 C 0.18618 0.21283 0.38033
 C203 C 0.19334 0.19894 0.39870
 C204 C 0.19398 0.17531 0.39060
 H205 H 0.18177 0.23188 0.38078
 H206 H 0.19709 0.15905 0.40071
 H207 H 0.17854 0.17352 0.32393
 H208 H 0.15234 0.17295 0.34367
 N209 N 0.61192 0.31417 0.64122
 N210 N 0.60779 0.32926 0.65833
 C211 C 0.58891 0.32116 0.67057
 C212 C 0.58059 0.30002 0.66040
 C213 C 0.59552 0.29616 0.64174
 H214 H 0.58172 0.33004 0.68565
 H215 H 0.59486 0.28110 0.62976
 Cu216 Cu 0.62723 0.35841 0.66267
 Cu217 Cu 0.63913 0.31876 0.62036
 Cu218 Cu 0.68325 0.35011 0.64885
 N219 N 0.65117 0.38316 0.66913
 N220 N 0.67340 0.37861 0.66556
 C221 C 0.68662 0.39742 0.67304
 C222 C 0.67185 0.41507 0.68086
 C223 C 0.64941 0.40559 0.67823
 H224 H 0.70552 0.39866 0.67172
 H225 H 0.63317 0.41416 0.68287
 N226 N 0.68894 0.32980 0.62159
 N227 N 0.67215 0.31888 0.60972
 C228 C 0.68149 0.30995 0.59002
 C229 C 0.70520 0.31590 0.58953
 C230 C 0.70927 0.32828 0.60985
 H231 H 0.67165 0.30070 0.57667
 H232 H 0.72556 0.33685 0.61512
 H233 H 0.65410 0.32670 0.65035
 H234 H 0.65345 0.35300 0.62969
 N235 N 0.63253 0.78501 1.16304
 N236 N 0.62507 0.79945 1.17950
 C237 C 0.60633 0.78906 1.19010
 C238 C 0.60188 0.76687 1.17989
 C239 C 0.61888 0.76465 1.16282
 H240 H 0.59652 0.79706 1.20415
 H241 H 0.62086 0.74976 1.15084
 Cu242 Cu 0.64043 0.83035 1.18589
 Cu243 Cu 0.65891 0.79460 1.14299
 Cu244 Cu 0.67362 0.85647 1.14454
 N245 N 0.65915 0.85933 1.19213
 N246 N 0.67222 0.86985 1.17587
 C247 C 0.68275 0.88991 1.18470
 C248 C 0.67588 0.89184 1.20771
 C249 C 0.66093 0.87213 1.21183
 H250 H 0.69452 0.90210 1.17512
 H251 H 0.65203 0.86743 1.22795
 N252 N 0.68150 0.83525 1.11830
 N253 N 0.67716 0.81151 1.11828
 C254 C 0.68515 0.80219 1.09820
 C255 C 0.69463 0.82106 1.08494
 C256 C 0.69210 0.84172 1.09820
 H257 H 0.68346 0.78328 1.09327
 H258 H 0.69772 0.86008 1.09362
 H259 H 0.67432 0.82400 1.16075
 H260 H 0.64703 0.82930 1.14415
 N261 N 0.12791 0.32325 1.15618
 N262 N 0.12437 0.33663 1.17483
 C263 C 0.10325 0.33012 1.18413
 C264 C 0.09324 0.31196 1.17052
 C265 C 0.10932 0.30835 1.15298
 H266 H 0.09617 0.33716 1.20014
 H267 H 0.10817 0.29470 1.13963
 Cu268 Cu 0.14888 0.36004 1.18653
 Cu269 Cu 0.15777 0.32248 1.13904
 Cu270 Cu 0.20138 0.35582 1.16007
 N271 N 0.17438 0.38451 1.19125
 N272 N 0.19497 0.38173 1.18129
 C273 C 0.20888 0.40111 1.18553
 C274 C 0.19673 0.41705 1.19906
 C275 C 0.17477 0.40606 1.20258
 H276 H 0.22616 0.40413 1.17803
 H277 H 0.15989 0.41378 1.21138
 N278 N 0.20461 0.33967 1.13074
 N279 N 0.18711 0.32700 1.12200
 C280 C 0.19380 0.31802 1.10137
 C281 C 0.21660 0.32583 1.09702
 C282 C 0.22295 0.33953 1.11599
 H283 H 0.18302 0.30654 1.09046
 H284 H 0.23963 0.34861 1.11895
 H285 H 0.16694 0.33156 1.17291
 H286 H 0.15979 0.35710 1.15305
 N287 N 0.10239 0.82627 0.67506
 N288 N 0.11012 0.84257 0.69004
 C289 C 0.09689 0.84091 0.70948
 C290 C 0.08042 0.82240 0.70660
 C291 C 0.08441 0.81346 0.68469
 H292 H 0.09926 0.85203 0.72470
 H293 H 0.07494 0.79872 0.67637
 Cu294 Cu 0.13712 0.86467 0.68345
 Cu295 Cu 0.11629 0.82215 0.64417
 Cu296 Cu 0.15830 0.86271 0.62900
 N297 N 0.15923 0.88922 0.67132
 N298 N 0.16684 0.88888 0.64973
 C299 C 0.18268 0.90704 0.64635
 C300 C 0.18533 0.91924 0.66705
 C301 C 0.17021 0.90752 0.68256
 H302 H 0.19257 0.91015 0.63046
 H303 H 0.16798 0.91147 0.70079
 N304 N 0.15580 0.83120 0.61418
 N305 N 0.13914 0.81535 0.61998
 C306 C 0.14204 0.79478 0.60788
 C307 C 0.16176 0.79792 0.59399
 C308 C 0.17004 0.82123 0.59833
 H309 H 0.13123 0.77845 0.60987
 H310 H 0.18571 0.82995 0.59117
 H311 H 0.14422 0.83663 0.66064
 H312 H 0.12211 0.85941 0.65197
 N313 N 0.39009 0.67689 0.69601
 N314 N 0.38723 0.65801 0.70993
 C315 C 0.40521 0.65716 0.72468
 C316 C 0.42012 0.67667 0.71980
 C317 C 0.41003 0.68894 0.70157
 H318 H 0.40680 0.64386 0.73848
 H319 H 0.41650 0.70556 0.69334
 Cu320 Cu 0.35917 0.63775 0.70977
 Cu321 Cu 0.36665 0.68423 0.67298
 Cu322 Cu 0.32456 0.64233 0.66083
 N323 N 0.33553 0.61326 0.70137
 N324 N 0.32198 0.61463 0.68303
 C325 C 0.30814 0.59433 0.68241
 C326 C 0.31395 0.57954 0.70094
 C327 C 0.33129 0.59208 0.71245
 H328 H 0.29551 0.59023 0.66908
 H329 H 0.34043 0.58600 0.72769
 N330 N 0.32487 0.67504 0.64703
 N331 N 0.34086 0.69150 0.65268
 C332 C 0.33686 0.71236 0.64131
 C333 C 0.31759 0.70881 0.62744
 C334 C 0.31040 0.68486 0.63132
 H335 H 0.34752 0.72880 0.64260
 H336 H 0.29570 0.67539 0.62353
 H337 H 0.33574 0.65822 0.68994
 H338 H 0.35836 0.64035 0.67440
 N339 N 0.38102 0.19718 1.15128
 N340 N 0.38815 0.18147 1.16699
 C341 C 0.40687 0.19105 1.17791
 C342 C 0.41174 0.21385 1.16868
 C343 C 0.39508 0.21720 1.15180
 H344 H 0.41567 0.18255 1.19226
 H345 H 0.39297 0.23330 1.14119
 Cu346 Cu 0.37118 0.15087 1.17463
 Cu347 Cu 0.35321 0.19105 1.13191
 Cu348 Cu 0.32024 0.14222 1.14771
 N349 N 0.34811 0.12659 1.18531
 N350 N 0.32809 0.12258 1.17481
 C351 C 0.31577 0.10518 1.18669
 C352 C 0.32882 0.09820 1.20562
 C353 C 0.34924 0.11208 1.20410
 H354 H 0.29834 0.09870 1.18243
 H355 H 0.36367 0.11210 1.21607
 N356 N 0.31245 0.16181 1.12061
 N357 N 0.32538 0.18104 1.11464
 C358 C 0.31575 0.19205 1.09620
 C359 C 0.29565 0.17914 1.09040
 C360 C 0.29407 0.16006 1.10624
 H361 H 0.32248 0.20861 1.08803
 H362 H 0.28028 0.14630 1.10750
 H363 H 0.34538 0.17390 1.16343
 H364 H 0.36048 0.15628 1.14027
 N365 N 0.88313 0.72240 1.18191
 N366 N 0.88596 0.70194 1.19339
 C367 C 0.90745 0.70254 1.20298
 C368 C 0.91854 0.72428 1.19633
 C369 C 0.90255 0.73636 1.18316
 H370 H 0.91468 0.68804 1.21326
 H371 H 0.90490 0.75397 1.17482
 Cu372 Cu 0.86148 0.67624 1.19309
 Cu373 Cu 0.85562 0.72884 1.16436
 Cu374 Cu 0.82243 0.68244 1.14730
 N375 N 0.83974 0.64964 1.18316
 N376 N 0.82600 0.65178 1.16496
 C377 C 0.81521 0.63022 1.16111
 C378 C 0.82202 0.61389 1.17786
 C379 C 0.83754 0.62669 1.19166
 H380 H 0.80330 0.62651 1.14707
 H381 H 0.84728 0.61954 1.20606
 N382 N 0.82440 0.71299 1.12958
 N383 N 0.83672 0.73167 1.13724
 C384 C 0.83605 0.75014 1.12192
 C385 C 0.82252 0.74268 1.10355
 C386 C 0.81517 0.71907 1.10897
 H387 H 0.84561 0.76725 1.12357
 H388 H 0.80461 0.70701 1.09841
 H389 H 0.83272 0.69365 1.17996
 H390 H 0.85631 0.68529 1.15931
 N391 N 0.87143 0.18937 0.64371
 N392 N 0.87809 0.17193 0.65796
 C393 C 0.89683 0.18004 0.66991
 C394 C 0.90218 0.20362 0.66282
 C395 C 0.88579 0.20894 0.64619
 H396 H 0.90580 0.16973 0.68301
 H397 H 0.88420 0.22598 0.63691
 Cu398 Cu 0.86198 0.13962 0.66022
 Cu399 Cu 0.84377 0.18616 0.62352
 Cu400 Cu 0.81395 0.13367 0.62769
 N401 N 0.84351 0.10917 0.65914
 N402 N 0.82601 0.10657 0.64471
 C403 C 0.81711 0.08382 0.64630
 C404 C 0.82923 0.07155 0.66302
 C405 C 0.84578 0.08814 0.67111
 H406 H 0.80190 0.07715 0.63710
 H407 H 0.85823 0.08524 0.68479
 N408 N 0.80708 0.15695 0.60378
 N409 N 0.81898 0.17761 0.60164
 C410 C 0.80964 0.19079 0.58435
 C411 C 0.79088 0.17754 0.57551
 C412 C 0.78984 0.15618 0.58818
 H413 H 0.81537 0.20899 0.57929
 H414 H 0.77714 0.14141 0.58655
 H415 H 0.83618 0.16288 0.65124
 H416 H 0.85360 0.15039 0.62682
 N417 N 0.30073 0.36921 0.65279
 N418 N 0.30992 0.37346 0.67322
 C419 C 0.29714 0.39031 0.68416
 C420 C 0.27916 0.39694 0.66968
 C421 C 0.28203 0.38330 0.64989
 H422 H 0.30075 0.39744 0.70121
 H423 H 0.27135 0.38351 0.63453
 Cu424 Cu 0.33824 0.35711 0.68288
 Cu425 Cu 0.31385 0.34604 0.63129
 Cu426 Cu 0.34990 0.30421 0.65712
 N427 N 0.36620 0.33898 0.69050
 N428 N 0.37013 0.31797 0.68056
 C429 C 0.38969 0.30850 0.68916
 C430 C 0.39876 0.32452 0.70516
 C431 C 0.38346 0.34375 0.70570
 H432 H 0.39690 0.29131 0.68396
 H433 H 0.38470 0.35979 0.71642
 N434 N 0.33541 0.29893 0.62693
 N435 N 0.32185 0.31497 0.61696
 C436 C 0.31442 0.30600 0.59663
 C437 C 0.32419 0.28350 0.59358
 C438 C 0.33746 0.27953 0.61301
 H439 H 0.30267 0.31508 0.58500
 H440 H 0.34753 0.26361 0.61690
 H441 H 0.31974 0.32536 0.65947
 H442 H 0.34672 0.33877 0.64538
 N443 N 0.33062 0.88335 0.18726
 N444 N 0.35003 0.87801 0.19805
 C445 C 0.35206 0.89213 0.21700
 C446 C 0.33285 0.90704 0.21801
 C447 C 0.31968 0.90102 0.19890
 H448 H 0.36640 0.89159 0.22906
 H449 H 0.30321 0.90879 0.19405
 Cu450 Cu 0.37136 0.85353 0.18602
 Cu451 Cu 0.32127 0.86629 0.15934
 Cu452 Cu 0.34747 0.81511 0.14436
 N453 N 0.38603 0.82287 0.17620
 N454 N 0.37665 0.80823 0.16060
 C455 C 0.38992 0.78844 0.15836
 C456 C 0.40848 0.79061 0.17334
 C457 C 0.40554 0.81262 0.18439
 H458 H 0.38606 0.77331 0.14703
 H459 H 0.41636 0.82018 0.19794
 N460 N 0.32369 0.82950 0.12506
 N461 N 0.31290 0.84946 0.13095
 C462 C 0.29559 0.85345 0.11578
 C463 C 0.29572 0.83497 0.09961
 C464 C 0.31379 0.82018 0.10596
 H465 H 0.28324 0.86803 0.11694
 H466 H 0.31857 0.80319 0.09800
 H467 H 0.34342 0.83318 0.17612
 H468 H 0.35961 0.84911 0.15198
 N469 N 0.81484 0.37430 0.15508
 N470 N 0.83506 0.37387 0.16597
 C471 C 0.83668 0.39308 0.18013
 C472 C 0.81658 0.40640 0.17835
 C473 C 0.80307 0.39411 0.16213
 H474 H 0.85094 0.39629 0.19195
 H475 H 0.78555 0.39850 0.15686
 Cu476 Cu 0.85679 0.34643 0.16524
 Cu477 Cu 0.80461 0.34729 0.13441
 Cu478 Cu 0.83567 0.29665 0.14008
 N479 N 0.87080 0.31479 0.17026
 N480 N 0.86183 0.29508 0.16077
 C481 C 0.87524 0.27602 0.16564
 C482 C 0.89379 0.28422 0.17886
 C483 C 0.89044 0.30893 0.18158
 H484 H 0.87227 0.25782 0.15912
 H485 H 0.90180 0.32178 0.19042
 N486 N 0.81747 0.30261 0.11275
 N487 N 0.80475 0.32208 0.11007
 C488 C 0.79482 0.32116 0.08886
 C489 C 0.80230 0.30019 0.07791
 C490 C 0.81658 0.28904 0.09357
 H491 H 0.78411 0.33521 0.08154
 H492 H 0.82621 0.27253 0.09093
 H493 H 0.82318 0.33170 0.16215
 H494 H 0.83854 0.34063 0.13455
 N495 N 0.82156 0.85683 0.69170
 N496 N 0.83778 0.84825 0.70531
 C497 C 0.84177 0.86397 0.72270
 C498 C 0.82711 0.88340 0.71999
 C499 C 0.81443 0.87828 0.70021
 H500 H 0.85462 0.86157 0.73610
 H501 H 0.80147 0.88963 0.69229
 Cu502 Cu 0.85294 0.81796 0.69858
 Cu503 Cu 0.81208 0.83985 0.66337
 Cu504 Cu 0.84397 0.78892 0.64861
 N505 N 0.87502 0.79466 0.68709
 N506 N 0.87203 0.78361 0.66715
 C507 C 0.89006 0.76858 0.66355
 C508 C 0.90497 0.77048 0.68231
 C509 C 0.89488 0.78716 0.69684
 H510 H 0.89197 0.75691 0.64865
 H511 H 0.90152 0.79338 0.71332
 N512 N 0.81773 0.80076 0.62961
 N513 N 0.80545 0.81992 0.63552
 C514 C 0.78802 0.82260 0.62024
 C515 C 0.78936 0.80438 0.60386
 C516 C 0.80846 0.79091 0.61027
 H517 H 0.77498 0.83653 0.62118
 H518 H 0.81463 0.77469 0.60186
 H519 H 0.82163 0.80519 0.67224
 H520 H 0.84459 0.82481 0.65789
 N521 N 0.66431 0.61624 0.68648
 N522 N 0.64491 0.62163 0.69760
 C523 C 0.64304 0.60810 0.71715
 C524 C 0.66239 0.59352 0.71828
 C525 C 0.67552 0.59916 0.69861
 H526 H 0.62866 0.60873 0.72947
 H527 H 0.69170 0.59092 0.69322
 Cu528 Cu 0.62416 0.64591 0.68545
 Cu529 Cu 0.67226 0.63033 0.65617
 Cu530 Cu 0.63800 0.67755 0.63686
 N531 N 0.61034 0.67701 0.67869
 N532 N 0.61549 0.68928 0.65957
 C533 C 0.60304 0.70981 0.65916
 C534 C 0.58966 0.71044 0.67928
 C535 C 0.59474 0.68943 0.69128
 H536 H 0.60381 0.72328 0.64538
 H537 H 0.58747 0.68352 0.70785
 N538 N 0.66649 0.66716 0.62030
 N539 N 0.67981 0.64950 0.62786
 C540 C 0.69843 0.64763 0.61347
 C541 C 0.69668 0.66493 0.59607
 C542 C 0.67627 0.67698 0.60092
 H543 H 0.71244 0.63495 0.61569
 H544 H 0.66942 0.69222 0.59136
 H545 H 0.65698 0.66326 0.66344
 H546 H 0.63985 0.64120 0.64571
 N547 N 0.67289 0.11240 0.17453
 N548 N 0.65656 0.12004 0.18881
 C549 C 0.65603 0.10569 0.20789
 C550 C 0.67292 0.08820 0.20528
 C551 C 0.68320 0.09294 0.18393
 H552 H 0.64485 0.10825 0.22288
 H553 H 0.69777 0.08353 0.17626
 Cu554 Cu 0.63912 0.14924 0.18164
 Cu555 Cu 0.68132 0.12953 0.14585
 Cu556 Cu 0.65105 0.18205 0.13356
 N557 N 0.62161 0.17836 0.17429
 N558 N 0.62691 0.19135 0.15562
 C559 C 0.61338 0.21105 0.15493
 C560 C 0.59872 0.21037 0.17412
 C561 C 0.60431 0.18937 0.18604
 H562 H 0.61420 0.22491 0.14151
 H563 H 0.59668 0.18297 0.20229
 N564 N 0.67596 0.16963 0.11332
 N565 N 0.68731 0.14948 0.11780
 C566 C 0.70343 0.14616 0.10094
 C567 C 0.70208 0.16516 0.08524
 C568 C 0.68454 0.17966 0.09355
 H569 H 0.71553 0.13133 0.10032
 H570 H 0.67874 0.19644 0.08583
 H571 H 0.67152 0.16351 0.15689
 H572 H 0.64927 0.14515 0.14075
 N573 N 0.18124 0.63335 0.19612
 N574 N 0.15981 0.63440 0.20481
 C575 C 0.15677 0.61704 0.22121
 C576 C 0.17730 0.60445 0.22303
 C577 C 0.19243 0.61513 0.20681
 H578 H 0.14108 0.61444 0.23169
 H579 H 0.21037 0.61027 0.20338
 Cu580 Cu 0.13813 0.66024 0.19692
 Cu581 Cu 0.19323 0.65616 0.17179
 Cu582 Cu 0.15726 0.70107 0.15739
 N583 N 0.12592 0.69290 0.19566
 N584 N 0.13395 0.70944 0.18081
 C585 C 0.12311 0.73057 0.18479
 C586 C 0.10740 0.72681 0.20302
 C587 C 0.10952 0.70272 0.20935
 H588 H 0.12633 0.74731 0.17516
 H589 H 0.10019 0.69315 0.22321
 N590 N 0.18320 0.69242 0.13709
 N591 N 0.19718 0.67470 0.14283
 C592 C 0.21411 0.67302 0.12655
 C593 C 0.21048 0.69053 0.10962
 C594 C 0.19070 0.70253 0.11687
 H595 H 0.22823 0.66025 0.12722
 H596 H 0.18272 0.71779 0.10832
 H597 H 0.16960 0.67694 0.19047
 H598 H 0.15869 0.65740 0.16639
 N599 N 0.17307 0.10874 0.67594
 N600 N 0.15830 0.11695 0.69151
 C601 C 0.16217 0.10585 0.71198
 C602 C 0.18042 0.08998 0.70889
 C603 C 0.18683 0.09220 0.68585
 H604 H 0.15244 0.10903 0.72783
 H605 H 0.20041 0.08243 0.67689
 Cu606 Cu 0.13526 0.14105 0.68320
 Cu607 Cu 0.17323 0.12013 0.64403
 Cu608 Cu 0.15148 0.17820 0.63898
 N609 N 0.11729 0.16957 0.67536
 N610 N 0.12393 0.18428 0.65829
 C611 C 0.10960 0.20339 0.65769
 C612 C 0.09299 0.20036 0.67521
 C613 C 0.09835 0.17868 0.68605
 H614 H 0.11138 0.21852 0.64564
 H615 H 0.08961 0.17062 0.70107
 N616 N 0.17345 0.16419 0.61616
 N617 N 0.18069 0.14158 0.61765
 C618 C 0.19556 0.13726 0.59999
 C619 C 0.19793 0.15824 0.58679
 C620 C 0.18363 0.17493 0.59741
 H621 H 0.20484 0.12049 0.59764
 H622 H 0.18125 0.19365 0.59214
 H623 H 0.16889 0.15292 0.65895
 H624 H 0.14348 0.14230 0.64137
 N625 N 0.31569 0.63562 0.36373
 N626 N 0.32627 0.63584 0.34320
 C627 C 0.31946 0.61569 0.33152
 C628 C 0.30415 0.60214 0.34553
 C629 C 0.30230 0.61526 0.36579
 H630 H 0.32473 0.61147 0.31396
 H631 H 0.29118 0.61081 0.38057
 Cu632 Cu 0.34681 0.66347 0.33234
 Cu633 Cu 0.31759 0.66290 0.38586
 Cu634 Cu 0.34470 0.71289 0.36613
 N635 N 0.36525 0.69338 0.32535
 N636 N 0.36215 0.71313 0.33763
 C637 C 0.37643 0.73107 0.32985
 C638 C 0.38969 0.72224 0.31189
 C639 C 0.38220 0.69818 0.30929
 H640 H 0.37843 0.74863 0.33804
 H641 H 0.38901 0.68506 0.29720
 N642 N 0.33874 0.70839 0.39871
 N643 N 0.32749 0.68899 0.40684
 C644 C 0.32355 0.69202 0.42975
 C645 C 0.33344 0.71428 0.43608
 C646 C 0.34295 0.72408 0.41596
 H647 H 0.31344 0.67954 0.44071
 H648 H 0.35092 0.74200 0.41366
 H649 H 0.32102 0.67843 0.35253
 H650 H 0.34806 0.66905 0.36769
 N651 N 0.31542 0.11642 0.82848
 N652 N 0.33382 0.11697 0.81460
 C653 C 0.33582 0.09476 0.80487
 C654 C 0.31814 0.07970 0.81411
 C655 C 0.30565 0.09405 0.82891
 H656 H 0.34913 0.08991 0.79235
 H657 H 0.28996 0.08887 0.83859
 Cu658 Cu 0.35324 0.14702 0.81203
 Cu659 Cu 0.30417 0.14487 0.84362
 Cu660 Cu 0.34609 0.18274 0.86156
 N661 N 0.37575 0.17329 0.82090
 N662 N 0.37341 0.18608 0.84011
 C663 C 0.39132 0.20236 0.84135
 C664 C 0.40553 0.19984 0.82199
 C665 C 0.39515 0.18128 0.80936
 H666 H 0.39342 0.21567 0.85493
 H667 H 0.40120 0.17423 0.79294
 N668 N 0.31455 0.18242 0.87545
 N669 N 0.29797 0.16796 0.86738
 C670 C 0.27850 0.16980 0.88034
 C671 C 0.28304 0.18615 0.89777
 C672 C 0.30607 0.19400 0.89420
 H673 H 0.26269 0.15894 0.87800
 H674 H 0.31609 0.20644 0.90487
 H675 H 0.33377 0.17411 0.82913
 H676 H 0.34655 0.14874 0.84603
 N677 N 0.81031 0.60765 0.85338
 N678 N 0.82165 0.60396 0.83379
 C679 C 0.81216 0.58447 0.82315
 C680 C 0.79407 0.57541 0.83690
 C681 C 0.79333 0.59044 0.85600
 H682 H 0.81787 0.57750 0.80658
 H683 H 0.78085 0.58950 0.87024
 Cu684 Cu 0.84768 0.62472 0.82370
 Cu685 Cu 0.81692 0.63598 0.87248
 Cu686 Cu 0.86835 0.66772 0.85935
 N687 N 0.87896 0.63861 0.81971
 N688 N 0.88691 0.65571 0.83357
 C689 C 0.90792 0.66381 0.82568
 C690 C 0.91350 0.65088 0.80602
 C691 C 0.89482 0.63493 0.80270
 H692 H 0.91800 0.67864 0.83314
 H693 H 0.89237 0.62263 0.78833
 N694 N 0.84941 0.67390 0.88738
 N695 N 0.82941 0.66233 0.89220
 C696 C 0.81971 0.67224 0.91127
 C697 C 0.83448 0.69073 0.91883
 C698 C 0.85314 0.69117 0.90338
 H699 H 0.80288 0.66695 0.91871
 H700 H 0.86779 0.70397 0.90316
 H701 H 0.83501 0.65783 0.84914
 H702 H 0.85198 0.63419 0.86449
 N703 N 0.82241 0.11986 0.31262
 N704 N 0.84195 0.12376 0.30077
 C705 C 0.84332 0.10703 0.28383
 C706 C 0.82362 0.09193 0.28536
 C707 C 0.81081 0.10051 0.30384
 H708 H 0.85725 0.10622 0.27104
 H709 H 0.79383 0.09381 0.30980
 Cu710 Cu 0.86301 0.15107 0.30802
 Cu711 Cu 0.81203 0.14179 0.33663
 Cu712 Cu 0.85209 0.18537 0.35516
 N713 N 0.88452 0.17709 0.31761
 N714 N 0.88038 0.18981 0.33639
 C715 C 0.89706 0.20730 0.33841
 C716 C 0.91248 0.20555 0.31991
 C717 C 0.90409 0.18614 0.30706
 H718 H 0.89724 0.22110 0.35169
 H719 H 0.91114 0.17985 0.29074
 N720 N 0.82214 0.17836 0.37141
 N721 N 0.80673 0.16203 0.36401
 C722 C 0.78729 0.16288 0.37731
 C723 C 0.79055 0.18074 0.39375
 C724 C 0.81283 0.19014 0.38963
 H725 H 0.77160 0.15192 0.37476
 H726 H 0.82115 0.20518 0.39859
 H727 H 0.83222 0.17298 0.32836
 H728 H 0.84583 0.14915 0.34681
 N729 N 0.68095 0.39449 0.31037
 N730 N 0.66045 0.39122 0.30060
 C731 C 0.65778 0.40846 0.28424
 C732 C 0.67774 0.42321 0.28357
 C733 C 0.69212 0.41385 0.30039
 H734 H 0.64294 0.40946 0.27284
 H735 H 0.70972 0.41999 0.30441
 Cu736 Cu 0.64071 0.36273 0.30772
 Cu737 Cu 0.69228 0.37175 0.33356
 Cu738 Cu 0.64974 0.33221 0.35706
 N739 N 0.62193 0.33389 0.31603
 N740 N 0.62589 0.32166 0.33523
 C741 C 0.61116 0.30220 0.33652
 C742 C 0.59727 0.30226 0.31704
 C743 C 0.60449 0.32263 0.30445
 H744 H 0.61076 0.28893 0.35049
 H745 H 0.59789 0.32844 0.28785
 N746 N 0.68008 0.33871 0.37179
 N747 N 0.69642 0.35335 0.36266
 C748 C 0.71544 0.35302 0.37620
 C749 C 0.71085 0.33726 0.39458
 C750 C 0.68833 0.32850 0.39126
 H751 H 0.73159 0.36309 0.37269
 H752 H 0.67892 0.31514 0.40187
 H753 H 0.67033 0.34099 0.32928
 H754 H 0.65900 0.36764 0.34546
 N755 N 0.69593 0.89582 0.85186
 N756 N 0.68233 0.90208 0.83469
 C757 C 0.69017 0.92354 0.82579
 C758 C 0.70943 0.93112 0.83832
 C759 C 0.71252 0.91322 0.85482
 H760 H 0.68333 0.93229 0.81052
 H761 H 0.72715 0.91180 0.86644
 Cu762 Cu 0.65710 0.88060 0.82413
 Cu763 Cu 0.69475 0.86329 0.86494
 Cu764 Cu 0.64778 0.82598 0.85081
 N765 N 0.63016 0.85972 0.81722
 N766 N 0.62680 0.83846 0.82754
 C767 C 0.60732 0.82769 0.81921
 C768 C 0.59791 0.84305 0.80295
 C769 C 0.61274 0.86326 0.80207
 H770 H 0.60053 0.80993 0.82447
 H771 H 0.61112 0.87912 0.79103
 N772 N 0.67118 0.81687 0.87392
 N773 N 0.68897 0.83136 0.87943
 C774 C 0.70182 0.82034 0.89563
 C775 C 0.69171 0.79786 0.90046
 C776 C 0.67229 0.79613 0.88648
 H777 H 0.71739 0.82804 0.90344
 H778 H 0.65990 0.78101 0.88563
 H779 H 0.67672 0.84464 0.83887
 H780 H 0.65877 0.86001 0.86154
 N781 N 0.15553 0.37452 0.82257
 N782 N 0.13310 0.37354 0.81737
 C783 C 0.12862 0.39141 0.80201
 C784 C 0.14930 0.40416 0.79743
 C785 C 0.16594 0.39307 0.81080
 H786 H 0.11181 0.39427 0.79412
 H787 H 0.18436 0.39792 0.81156
 Cu788 Cu 0.11194 0.34724 0.82858
 Cu789 Cu 0.17005 0.35169 0.84419
 Cu790 Cu 0.13554 0.30607 0.86432
 N791 N 0.09867 0.31450 0.83216
 N792 N 0.10795 0.29806 0.84575
 C793 C 0.09618 0.27670 0.84311
 C794 C 0.07864 0.28015 0.82705
 C795 C 0.08066 0.30435 0.82064
 H796 H 0.10056 0.25978 0.85156
 H797 H 0.07047 0.31364 0.80773
 N798 N 0.16372 0.31646 0.88100
 N799 N 0.17713 0.33433 0.87269
 C800 C 0.19608 0.33712 0.88606
 C801 C 0.19458 0.32018 0.90389
 C802 C 0.17378 0.30730 0.90019
 H803 H 0.21014 0.35022 0.88272
 H804 H 0.16693 0.29201 0.91028
 H805 H 0.14316 0.33065 0.82951
 H806 H 0.13665 0.34972 0.85537
 N807 N 0.18416 0.88171 0.35018
 N808 N 0.16506 0.87907 0.33763
 C809 C 0.16725 0.89275 0.31834
 C810 C 0.18867 0.90472 0.31843
 C811 C 0.19903 0.89750 0.33898
 H812 H 0.15418 0.89393 0.30500
 H813 H 0.21629 0.90276 0.34494
 Cu814 Cu 0.13821 0.85783 0.34643
 Cu815 Cu 0.18825 0.86325 0.37988
 Cu816 Cu 0.14005 0.83260 0.39850
 N817 N 0.11155 0.83941 0.35935
 N818 N 0.11225 0.82933 0.38005
 C819 C 0.09439 0.81309 0.38251
 C820 C 0.08195 0.81296 0.36213
 C821 C 0.09303 0.83014 0.34797
 H822 H 0.09242 0.80031 0.39680
 H823 H 0.08968 0.83324 0.32978
 N824 N 0.17033 0.82564 0.41079
 N825 N 0.18965 0.83693 0.40352
 C826 C 0.20808 0.82605 0.41348
 C827 C 0.19948 0.80689 0.42723
 C828 C 0.17561 0.80725 0.42505
 H829 H 0.22626 0.83071 0.40987
 H830 H 0.16303 0.79418 0.43230
 H831 H 0.16473 0.84154 0.36508
 H832 H 0.15250 0.86978 0.37748
 O833 O 0.23443 0.97420 0.25301
 O834 O 0.27488 1.02429 0.23520
 O835 O 0.27754 0.97703 0.23906
 O836 O 0.23096 1.02089 0.24724
 O837 O 0.24101 1.02625 0.28374
 O838 O 0.28794 0.98115 0.27563
 O839 O 0.28539 1.02828 0.27174
 O840 O 0.24435 0.97862 0.28966
 Cu841 Cu 0.25341 0.99867 0.24002
 Cu842 Cu 0.26564 1.00411 0.28389
 C843 C 0.23258 0.96774 0.27418
 C844 C 0.28720 1.03470 0.25057
 C845 C 0.29054 0.97140 0.25584
 C846 C 0.22801 1.03118 0.26663
 O847 O 0.18996 0.48130 0.73707
 O848 O 0.24188 0.51782 0.71730
 O849 O 0.22226 0.47670 0.70464
 O850 O 0.20996 0.52251 0.74964
 O851 O 0.23218 0.50210 0.77373
 O852 O 0.24420 0.45669 0.72933
 O853 O 0.26354 0.49687 0.74150
 O854 O 0.21233 0.46136 0.76138
 Cu855 Cu 0.21366 0.50155 0.72467
 Cu856 Cu 0.24013 0.47723 0.75403
 C857 C 0.19246 0.46517 0.75271
 C858 C 0.26163 0.51320 0.72602
 C859 C 0.23570 0.45922 0.70929
 C860 C 0.21934 0.52008 0.76936
 O861 O 0.77431 0.01649 0.23240
 O862 O 0.72936 -0.03160 0.22477
 O863 O 0.72922 0.01622 0.22473
 O864 O 0.77344 -0.03061 0.23519
 O865 O 0.76513 -0.02970 0.27269
 O866 O 0.72089 0.01642 0.26223
 O867 O 0.72122 -0.03091 0.26231
 O868 O 0.76591 0.01787 0.26985
 Cu869 Cu 0.75232 -0.00736 0.22548
 Cu870 Cu 0.74246 -0.00639 0.27052
 C871 C 0.77792 0.02524 0.25237
 C872 C 0.71792 -0.03973 0.24226
 C873 C 0.71744 0.02416 0.24181
 C874 C 0.77666 -0.03816 0.25578
 O875 O 0.69982 0.50953 0.76770
 O876 O 0.74558 0.46276 0.76982
 O877 O 0.73432 0.50007 0.79539
 O878 O 0.70741 0.46898 0.74652
 O879 O 0.72783 0.49222 0.72178
 O880 O 0.75686 0.52200 0.77144
 O881 O 0.76693 0.48468 0.74485
 O882 O 0.72273 0.53153 0.74407
 Cu883 Cu 0.71976 0.48311 0.77235
 Cu884 Cu 0.74611 0.50953 0.74318
 C885 C 0.70358 0.52837 0.75504
 C886 C 0.76399 0.46582 0.75739
 C887 C 0.74988 0.51648 0.79190
 C888 C 0.71217 0.47589 0.72601
 O889 O 0.26264 0.47922 0.28689
 O890 O 0.21588 0.52368 0.27722
 O891 O 0.22580 0.48131 0.26080
 O892 O 0.25031 0.51985 0.30672
 O893 O 0.27294 0.54003 0.28155
 O894 O 0.24773 0.50165 0.23511
 O895 O 0.23887 0.54361 0.25213
 O896 O 0.28483 0.49932 0.26128
 Cu897 Cu 0.23653 0.49916 0.28563
 Cu898 Cu 0.26348 0.52302 0.25505
 C899 C 0.28166 0.48168 0.27535
 C900 C 0.21939 0.54093 0.26262
 C901 C 0.23231 0.48523 0.24001
 C902 C 0.26556 0.53643 0.30221
 O903 O 0.77880 0.99917 0.71635
 O904 O 0.74969 0.97759 0.76991
 O905 O 0.74654 1.01596 0.74303
 O906 O 0.78061 0.96057 0.74112
 O907 O 0.80852 0.97894 0.76118
 O908 O 0.77265 1.03441 0.76519
 O909 O 0.77748 0.99530 0.79060
 O910 O 0.80521 1.01921 0.73697
 Cu911 Cu 0.76099 0.98652 0.74071
 Cu912 Cu 0.79374 1.00876 0.76566
 C913 C 0.79684 1.01300 0.71754
 C914 C 0.75882 0.98247 0.78935
 C915 C 0.75361 1.03459 0.75403
 C916 C 0.80064 0.96046 0.75026
 O917 O 0.76521 0.52857 0.18836
 O918 O 0.72021 0.48937 0.21521
 O919 O 0.72527 0.53593 0.20947
 O920 O 0.76176 0.48226 0.19731
 O921 O 0.77939 0.48900 0.23059
 O922 O 0.74089 0.53957 0.24417
 O923 O 0.73740 0.49237 0.24921
 O924 O 0.78094 0.53614 0.22243
 Cu925 Cu 0.74145 0.50857 0.19923
 Cu926 Cu 0.76143 0.51461 0.23998
 C927 C 0.78047 0.53937 0.20055
 C928 C 0.72096 0.48405 0.23659
 C929 C 0.72659 0.54654 0.22902
 C930 C 0.77727 0.47693 0.21202
 O931 O 0.28533 0.01984 0.75123
 O932 O 0.25412 -0.01165 0.70485
 O933 O 0.24687 0.02771 0.72806
 O934 O 0.28874 -0.02276 0.73163
 O935 O 0.26526 -0.04110 0.75736
 O936 O 0.22488 0.00927 0.75494
 O937 O 0.23067 -0.03015 0.73047
 O938 O 0.26328 0.00030 0.77738
 Cu939 Cu 0.27106 0.00520 0.72639
 Cu940 Cu 0.24365 -0.01718 0.75759
 C941 C 0.27998 0.01515 0.77218
 C942 C 0.23711 -0.02607 0.70957
 C943 C 0.22869 0.02690 0.74104
 C944 C 0.28396 -0.04046 0.74541
 O945 O 0.25758 0.28111 0.97401
 O946 O 0.27297 0.23543 1.01861
 O947 O 0.26981 0.23613 0.97312
 O948 O 0.26437 0.28174 1.01854
 O949 O 0.22693 0.27175 1.02325
 O950 O 0.23227 0.22617 0.97710
 O951 O 0.23547 0.22527 1.02213
 O952 O 0.22013 0.27093 0.97826
 Cu953 Cu 0.26993 0.25957 0.99570
 Cu954 Cu 0.22494 0.24753 1.00078
 C955 C 0.23628 0.28343 0.96829
 C956 C 0.25660 0.22252 1.02793
 C957 C 0.25193 0.22387 0.96694
 C958 C 0.24487 0.28447 1.02871
 O959 O 0.24784 0.78049 0.49922
 O960 O 0.27742 0.76826 0.55377
 O961 O 0.28920 0.76643 0.51000
 O962 O 0.23445 0.77709 0.54247
 O963 O 0.22534 0.73790 0.53993
 O964 O 0.27947 0.72734 0.50761
 O965 O 0.26857 0.72898 0.55172
 O966 O 0.23853 0.74136 0.49635
 Cu967 Cu 0.26321 0.77693 0.52678
 Cu968 Cu 0.25193 0.72998 0.52380
 C969 C 0.23844 0.76302 0.48827
 C970 C 0.27825 0.74688 0.56207
 C971 C 0.29320 0.74508 0.50273
 C972 C 0.22052 0.75915 0.54657
 O973 O 0.27449 0.77804 -0.01588
 O974 O 0.26331 0.73381 0.03146
 O975 O 0.26285 0.73249 -0.01344
 O976 O 0.27394 0.78006 0.02955
 O977 O 0.23654 0.78942 0.02941
 O978 O 0.22533 0.74133 -0.01380
 O979 O 0.22587 0.74292 0.03222
 O980 O 0.23704 0.78722 -0.01559
 Cu981 Cu 0.27239 0.75524 0.00801
 Cu982 Cu 0.22737 0.76601 0.00815
 C983 C 0.25761 0.78992 -0.02401
 C984 C 0.24287 0.73087 0.04000
 C985 C 0.24240 0.72911 -0.02131
 C986 C 0.25718 0.79284 0.03681
 O987 O 0.27684 0.24977 0.47334
 O988 O 0.25700 0.19779 0.51047
 O989 O 0.24592 0.21467 0.46998
 O990 O 0.29095 0.23019 0.51242
 O991 O 0.26644 0.25460 0.53021
 O992 O 0.22093 0.23818 0.48827
 O993 O 0.23272 0.22209 0.52873
 O994 O 0.25172 0.27313 0.49159
 Cu995 Cu 0.27028 0.22075 0.48980
 Cu996 Cu 0.24053 0.24939 0.51157
 C997 C 0.26718 0.27024 0.47599
 C998 C 0.24132 0.20126 0.52588
 C999 C 0.22583 0.22378 0.47185
 C1000 C 0.28636 0.24493 0.52855
 O1001 O 0.73661 0.76814 1.01955
 O1002 O 0.77812 0.73213 0.98399
 O1003 O 0.77622 0.74778 1.02662
 O1004 O 0.73545 0.74816 0.97809
 O1005 O 0.75263 0.78182 0.96441
 O1006 O 0.79180 0.78294 1.01461
 O1007 O 0.79516 0.76680 0.97269
 O1008 O 0.75245 0.80188 1.00455
 Cu1009 Cu 0.75484 0.74556 1.00316
 Cu1010 Cu 0.77473 0.78661 0.98753
 C1011 C 0.73781 0.79132 1.01807
 C1012 C 0.79429 0.74376 0.97293
 C1013 C 0.79045 0.76553 1.02927
 C1014 C 0.73693 0.76513 0.96312
 O1015 O 0.76401 0.28676 0.46554
 O1016 O 0.77235 0.23762 0.50774
 O1017 O 0.77144 0.24001 0.46271
 O1018 O 0.76174 0.28269 0.51083
 O1019 O 0.72385 0.27375 0.51030
 O1020 O 0.73345 0.23158 0.46234
 O1021 O 0.73450 0.22840 0.50694
 O1022 O 0.72609 0.27814 0.46468
 Cu1023 Cu 0.77116 0.26282 0.48661
 Cu1024 Cu 0.72560 0.25229 0.48593
 C1025 C 0.74380 0.29073 0.45776
 C1026 C 0.75491 0.22474 0.51460
 C1027 C 0.75398 0.22823 0.45462
 C1028 C 0.74121 0.28479 0.51922
 O1029 O 0.75727 0.25089 -0.04373
 O1030 O 0.74901 0.20384 0.00127
 O1031 O 0.73128 0.21209 -0.03987
 O1032 O 0.77357 0.24471 -0.00262
 O1033 O 0.74516 0.26571 0.01333
 O1034 O 0.70293 0.23269 -0.02330
 O1035 O 0.72081 0.22512 0.01727
 O1036 O 0.72851 0.27192 -0.02837
 Cu1037 Cu 0.75569 0.22564 -0.02262
 Cu1038 Cu 0.72150 0.25095 -0.00363
 C1039 C 0.74414 0.26917 -0.04393
 C1040 C 0.73353 0.20647 0.01693
 C1041 C 0.70978 0.21725 -0.03804
 C1042 C 0.76667 0.26087 0.01143
 O1043 O 0.71987 0.72443 0.47824
 O1044 O 0.73181 0.76564 0.52773
 O1045 O 0.73073 0.77060 0.48302
 O1046 O 0.71832 0.72033 0.52411
 O1047 O 0.75559 0.71051 0.52342
 O1048 O 0.76792 0.76052 0.48153
 O1049 O 0.76905 0.75573 0.52699
 O1050 O 0.75703 0.71430 0.47830
 Cu1051 Cu 0.72143 0.74609 0.50333
 Cu1052 Cu 0.76610 0.73429 0.50238
 C1053 C 0.73668 0.71235 0.46982
 C1054 C 0.75240 0.76759 0.53582
 C1055 C 0.75138 0.77413 0.47527
 C1056 C 0.73484 0.70724 0.53118
 O1057 O 0.97688 0.24024 0.21864
 O1058 O 1.02772 0.23711 0.25620
 O1059 O 0.98234 0.23123 0.26220
 O1060 O 1.02136 0.25001 0.21349
 O1061 O 1.01773 0.28869 0.22292
 O1062 O 0.97887 0.26999 0.27135
 O1063 O 1.02385 0.27585 0.26533
 O1064 O 0.97228 0.27897 0.22731
 Cu1065 Cu 1.00249 0.23581 0.23672
 Cu1066 Cu 0.99762 0.28228 0.24761
 C1067 C 0.96573 0.25980 0.21668
 C1068 C 1.03474 0.25596 0.26682
 C1069 C 0.97393 0.24766 0.27505
 C1070 C 1.02656 0.27245 0.21025
 O1071 O 0.52225 0.27297 0.72845
 O1072 O 0.48554 0.25375 0.77901
 O1073 O 0.52504 0.23969 0.76075
 O1074 O 0.48408 0.28883 0.74850
 O1075 O 0.46356 0.26385 0.72633
 O1076 O 0.50468 0.21479 0.73834
 O1077 O 0.46520 0.22869 0.75676
 O1078 O 0.50157 0.24790 0.70652
 Cu1079 Cu 0.50626 0.26631 0.75642
 Cu1080 Cu 0.48167 0.23636 0.72978
 C1081 C 0.51824 0.26332 0.70886
 C1082 C 0.46906 0.23805 0.77642
 C1083 C 0.52203 0.21903 0.75142
 C1084 C 0.46673 0.28461 0.73550
 O1085 O -0.03094 0.26392 0.76023
 O1086 O 0.01875 0.25617 0.71987
 O1087 O -0.02646 0.25662 0.71615
 O1088 O 0.01475 0.26274 0.76457
 O1089 O 0.01302 0.22290 0.77019
 O1090 O -0.02897 0.21687 0.72222
 O1091 O 0.01698 0.21635 0.72560
 O1092 O -0.03226 0.22420 0.76669
 Cu1093 Cu -0.00569 0.26384 0.73968
 Cu1094 Cu -0.00798 0.21608 0.74669
 C1095 C -0.04012 0.24533 0.77025
 C1096 C 0.02629 0.23503 0.71580
 C1097 C -0.03498 0.23578 0.71115
 C1098 C 0.02098 0.24386 0.77556
 O1099 O 0.52613 0.24159 0.27086
 O1100 O 0.48130 0.23220 0.22583
 O1101 O 0.52716 0.23117 0.22700
 O1102 O 0.48090 0.23990 0.27040
 O1103 O 0.48102 0.27942 0.26288
 O1104 O 0.52775 0.27058 0.21893
 O1105 O 0.48234 0.27171 0.21830
 O1106 O 0.52699 0.28101 0.26284
 Cu1107 Cu 0.50376 0.23225 0.24921
 Cu1108 Cu 0.50458 0.27965 0.24000
 C1109 C 0.53423 0.26298 0.27437
 C1110 C 0.47421 0.25047 0.21443
 C1111 C 0.53547 0.24932 0.21569
 C1112 C 0.47314 0.26097 0.27419
 O1113 O 0.99010 0.72702 0.71952
 O1114 O 1.03088 0.71451 0.76714
 O1115 O 0.99198 0.69426 0.75216
 O1116 O 1.02751 0.74891 0.73577
 O1117 O 1.00648 0.77102 0.75974
 O1118 O 0.97117 0.71701 0.77577
 O1119 O 1.00963 0.73695 0.79061
 O1120 O 0.96905 0.74967 0.74298
 Cu1121 Cu 1.01230 0.71895 0.74127
 Cu1122 Cu 0.98694 0.74590 0.76958
 C1123 C 0.97257 0.74031 0.72318
 C1124 C 1.02720 0.72364 0.78697
 C1125 C 0.97540 0.69656 0.76681
 C1126 C 1.02313 0.76918 0.74521
 O1127 O 0.47488 0.72724 0.21814
 O1128 O 0.51426 0.71552 0.26728
 O1129 O 0.46864 0.72121 0.26231
 O1130 O 0.51938 0.71867 0.22228
 O1131 O 0.52556 0.75815 0.22720
 O1132 O 0.47462 0.76092 0.26578
 O1133 O 0.51892 0.75521 0.27201
 O1134 O 0.48105 0.76684 0.22244
 Cu1135 Cu 0.49378 0.71660 0.24218
 Cu1136 Cu 0.50089 0.76423 0.24725
 C1137 C 0.47089 0.74916 0.21239
 C1138 C 0.52319 0.73353 0.27804
 C1139 C 0.46259 0.74170 0.27016
 C1140 C 0.53111 0.73810 0.21806
 O1141 O -0.01933 0.77851 0.28942
 O1142 O 0.03446 0.77843 0.25389
 O1143 O -0.00925 0.77115 0.24609
 O1144 O 0.02500 0.78505 0.29759
 O1145 O 0.02811 0.74570 0.30492
 O1146 O -0.00773 0.73171 0.25379
 O1147 O 0.03724 0.73888 0.26031
 O1148 O -0.01583 0.73927 0.29714
 Cu1149 Cu 0.00743 0.78227 0.27113
 Cu1150 Cu 0.01107 0.73486 0.27969
 C1151 C -0.02670 0.75904 0.29933
 C1152 C 0.04469 0.75847 0.25060
 C1153 C -0.01453 0.74923 0.24129
 C1154 C 0.03214 0.76779 0.31018
 O1155 O 0.47809 0.78004 0.77360
 O1156 O 0.51693 0.76744 0.72412
 O1157 O 0.47925 0.74686 0.74172
 O1158 O 0.51620 0.80047 0.75604
 O1159 O 0.53750 0.77714 0.77849
 O1160 O 0.50024 0.72407 0.76499
 O1161 O 0.53773 0.74363 0.74661
 O1162 O 0.49946 0.75730 0.79656
 Cu1163 Cu 0.49544 0.77609 0.74664
 Cu1164 Cu 0.52097 0.74832 0.77397
 C1165 C 0.48196 0.77073 0.79337
 C1166 C 0.53381 0.75314 0.72693
 C1167 C 0.48343 0.72640 0.75103
 C1168 C 0.53332 0.79775 0.76957
 C1169 C 0.42738 0.27745 0.31180
 C1170 C 0.43183 0.25499 0.32146
 C1171 C 0.44965 0.24597 0.30857
 C1172 C 0.45491 0.26364 0.29210
 O1173 O 0.44143 0.28284 0.29396
 H1174 H 0.42291 0.24605 0.33594
 H1175 H 0.45786 0.22856 0.31088
 C1176 C 0.43529 0.78708 0.82949
 C1177 C 0.44721 0.77400 0.84594
 C1178 C 0.46692 0.76628 0.83475
 C1179 C 0.46544 0.77530 0.81243
 O1180 O 0.44636 0.78790 0.80925
 H1181 H 0.44207 0.77026 0.86375
 H1182 H 0.48050 0.75512 0.84187
 C1183 C -0.08961 0.26294 0.80217
 C1184 C -0.08639 0.24083 0.81307
 C1185 C -0.06735 0.23119 0.80244
 C1186 C -0.06019 0.24826 0.78605
 O1187 O -0.07369 0.26755 0.78577
 H1188 H -0.09692 0.23253 0.82683
 H1189 H -0.05957 0.21383 0.80618
 C1190 C -0.07901 0.77190 0.32842
 C1191 C -0.07668 0.74855 0.33693
 C1192 C -0.05653 0.74041 0.32709
 C1193 C -0.04813 0.75948 0.31346
 O1194 O -0.06172 0.77860 0.31421
 H1195 H -0.08836 0.73858 0.34866
 H1196 H -0.04889 0.72273 0.32952
 C1197 C 0.56683 0.71557 0.31650
 C1198 C 0.56063 0.73656 0.32776
 C1199 C 0.54278 0.74576 0.31515
 C1200 C 0.53923 0.72951 0.29734
 O1201 O 0.55380 0.71117 0.29808
 H1202 H 0.56881 0.74477 0.34271
 H1203 H 0.53383 0.76263 0.31816
 C1204 C 0.56975 0.18323 0.76600
 C1205 C 0.56048 0.16815 0.74927
 C1206 C 0.54055 0.17906 0.74228
 C1207 C 0.53936 0.20012 0.75508
 O1208 O 0.55702 0.20267 0.76958
 H1209 H 0.56760 0.15140 0.74275
 H1210 H 0.52879 0.17291 0.72886
 C1211 C 1.07224 0.70664 0.82455
 C1212 C 1.06008 0.72104 0.83981
 C1213 C 1.04139 0.72908 0.82777
 C1214 C 1.04352 0.71908 0.80600
 O1215 O 1.06223 0.70540 0.80396
 H1216 H 1.06434 0.72524 0.85759
 H1217 H 1.02791 0.74101 0.83401
 C1218 C 1.08748 0.24194 0.29357
 C1219 C 1.08617 0.26572 0.30102
 C1220 C 1.06579 0.27411 0.29236
 C1221 C 1.05621 0.25482 0.28033
 O1222 O 1.06929 0.23526 0.28101
 H1223 H 1.09862 0.27582 0.31143
 H1224 H 1.05890 0.29219 0.29429
 C1225 C 0.56035 0.28473 0.66799
 C1226 C 0.54994 0.26704 0.65449
 C1227 C 0.53233 0.25715 0.66788
 C1228 C 0.53338 0.26939 0.68867
 O1229 O 0.55037 0.28622 0.68880
 H1230 H 0.55464 0.26193 0.63699
 H1231 H 0.52043 0.24242 0.66324
 C1232 C 0.58235 0.75032 0.18615
 C1233 C 0.57878 0.72690 0.17824
 C1234 C 0.55874 0.71868 0.18924
 C1235 C 0.55171 0.73786 0.20278
 O1236 O 0.56598 0.75694 0.20093
 H1237 H 0.58956 0.71700 0.16616
 H1238 H 0.55028 0.70095 0.18760
 C1239 C 1.07205 0.29660 0.17498
 C1240 C 1.06546 0.27726 0.16110
 C1241 C 1.04708 0.26605 0.17228
 C1242 C 1.04352 0.27950 0.19199
 O1243 O 1.05863 0.29809 0.19377
 H1244 H 1.07359 0.27139 0.14513
 H1245 H 1.03769 0.24971 0.16700
 C1246 C 1.06267 0.81353 0.72332
 C1247 C 1.05487 0.82647 0.74217
 C1248 C 1.03845 0.81166 0.75271
 C1249 C 1.03773 0.79074 0.73961
 O1250 O 1.05236 0.79182 0.72173
 H1251 H 1.06039 0.84455 0.74746
 H1252 H 1.02846 0.81546 0.76828
 C1253 C 0.44119 0.68381 0.73258
 C1254 C 0.45239 0.66887 0.74803
 C1255 C 0.47021 0.68279 0.75668
 C1256 C 0.46842 0.70518 0.74594
 O1257 O 0.45087 0.70587 0.73124
 H1258 H 0.44795 0.65017 0.75259
 H1259 H 0.48274 0.67743 0.76959
 C1260 C 0.42952 0.23149 0.17680
 C1261 C 0.43221 0.25504 0.16855
 C1262 C 0.44956 0.26528 0.18150
 C1263 C 0.45624 0.24718 0.19661
 O1264 O 0.44411 0.22664 0.19381
 H1265 H 0.42242 0.26381 0.15501
 H1266 H 0.45642 0.28378 0.18025
 C1267 C -0.05798 0.73376 0.20176
 C1268 C -0.04678 0.75187 0.18881
 C1269 C -0.02802 0.75898 0.20149
 C1270 C -0.02906 0.74455 0.22111
 O1271 O -0.04717 0.72910 0.22139
 H1272 H -0.05234 0.75986 0.17263
 H1273 H -0.01571 0.77373 0.19752
 C1274 C -0.07939 0.22001 0.67190
 C1275 C -0.07554 0.24372 0.66448
 C1276 C -0.05799 0.25266 0.67799
 C1277 C -0.05236 0.23374 0.69260
 O1278 O -0.06530 0.21385 0.68896
 H1279 H -0.08468 0.25347 0.65111
 H1280 H -0.05042 0.27091 0.67751
 C1281 C 0.31863 0.43354 0.28931
 C1282 C 0.33265 0.44438 0.27238
 C1283 C 0.32070 0.46414 0.26507
 C1284 C 0.30025 0.46383 0.27803
 O1285 O 0.29893 0.44528 0.29279
 H1286 H 0.34952 0.43857 0.26610
 H1287 H 0.32612 0.47711 0.25173
 C1288 C 0.31617 -0.09002 0.76431
 C1289 C 0.32790 -0.08651 0.74339
 C1290 C 0.31760 -0.06694 0.73322
 C1291 C 0.30022 -0.06038 0.74855
 O1292 O 0.29937 -0.07426 0.76735
 H1293 H 0.34242 -0.09664 0.73656
 H1294 H 0.32206 -0.05861 0.71664
 C1295 C 0.80035 0.41599 0.76621
 C1296 C 0.81477 0.42850 0.75065
 C1297 C 0.80291 0.44899 0.74505
 C1298 C 0.78223 0.44739 0.75763
 O1299 O 0.78062 0.42740 0.77043
 H1300 H 0.83183 0.42341 0.74425
 H1301 H 0.80870 0.46344 0.73331
 C1302 C 0.81227 -0.08417 0.27737
 C1303 C 0.82236 -0.08226 0.25551
 C1304 C 0.81021 -0.06471 0.24431
 C1305 C 0.79382 -0.05707 0.26022
 O1306 O 0.79498 -0.06884 0.28026
 H1307 H 0.83666 -0.09257 0.24845
 H1308 H 0.81300 -0.05819 0.22672
 C1309 C 0.30532 0.55500 0.70729
 C1310 C 0.31959 0.53788 0.71700
 C1311 C 0.30500 0.51949 0.72426
 C1312 C 0.28285 0.52677 0.71859
 O1313 O 0.28290 0.54835 0.70812
 H1314 H 0.33834 0.53918 0.71938
 H1315 H 0.30982 0.50314 0.73348
 C1316 C 0.32203 1.08118 0.22452
 C1317 C 0.33334 1.08016 0.24551
 C1318 C 0.32152 1.06275 0.25815
 C1319 C 0.30401 1.05424 0.24389
 O1320 O 0.30419 1.06542 0.22343
 H1321 H 0.34825 1.09102 0.25105
 H1322 H 0.32529 1.05684 0.27563
 C1323 C 0.81530 0.58794 0.17872
 C1324 C 0.81507 0.57369 0.15918
 C1325 C 0.80347 0.55282 0.16555
 C1326 C 0.79733 0.55584 0.18853
 O1327 O 0.80450 0.57722 0.19669
 H1328 H 0.82144 0.57859 0.14198
 H1329 H 0.79876 0.53775 0.15442
 C1330 C 0.82226 1.04763 0.67247
 C1331 C 0.81245 1.02944 0.65912
 C1332 C 0.80289 1.01306 0.67448
 C1333 C 0.80750 1.02255 0.69605
 O1334 O 0.81936 1.04350 0.69494
 H1335 H 0.81106 1.02907 0.64042
 H1336 H 0.79256 0.99690 0.67046
 C1337 C 0.69408 0.59399 0.25310
 C1338 C 0.68419 0.59402 0.23135
 C1339 C 0.69533 0.57642 0.21924
 C1340 C 0.71121 0.56691 0.23444
 O1341 O 0.71055 0.57755 0.25502
 H1342 H 0.67032 0.60535 0.22510
 H1343 H 0.69209 0.57095 0.20155
 C1344 C 0.72128 1.08801 0.76075
 C1345 C 0.71576 1.08274 0.73801
 C1346 C 0.72750 1.06232 0.73281
 C1347 C 0.73966 1.05665 0.75249
 O1348 O 0.73609 1.07222 0.76962
 H1349 H 0.70406 1.09217 0.72659
 H1350 H 0.72710 1.05249 0.71660
 C1351 C 0.20730 0.57068 0.80408
 C1352 C 0.22175 0.55873 0.81916
 C1353 C 0.22731 0.53773 0.80839
 C1354 C 0.21604 0.53847 0.78739
 O1355 O 0.20372 0.55845 0.78468
 H1356 H 0.22783 0.56486 0.83588
 H1357 H 0.23884 0.52387 0.81474
 C1358 C 0.18913 1.07815 0.28010
 C1359 C 0.17973 1.07133 0.25915
 C1360 C 0.19285 1.05253 0.25173
 C1361 C 0.20931 1.04912 0.26869
 O1362 O 0.20711 1.06464 0.28605
 H1363 H 0.16526 1.07933 0.25014
 H1364 H 0.19088 1.04267 0.23566
 C1365 C 0.67914 0.43893 0.68961
 C1366 C 0.66895 0.46063 0.68394
 C1367 C 0.68163 0.47799 0.69546
 C1368 C 0.69836 0.46538 0.70734
 O1369 O 0.69681 0.44169 0.70394
 H1370 H 0.65404 0.46339 0.67289
 H1371 H 0.67824 0.49729 0.69625
 C1372 C 0.68316 -0.08950 0.22450
 C1373 C 0.67511 -0.08860 0.24713
 C1374 C 0.68681 -0.06939 0.25678
 C1375 C 0.70106 -0.05999 0.23931
 O1376 O 0.69890 -0.07212 0.21968
 H1377 H 0.66246 -0.10068 0.25567
 H1378 H 0.68539 -0.06319 0.27450
 C1379 C 0.20501 0.44203 0.20392
 C1380 C 0.21434 0.45715 0.18681
 C1381 C 0.22517 0.47581 0.19812
 C1382 C 0.22189 0.47061 0.22135
 O1383 O 0.20966 0.45008 0.22500
 H1384 H 0.21429 0.45415 0.16828
 H1385 H 0.23504 0.49091 0.19039
 C1386 C 0.20263 -0.06142 0.67208
 C1387 C 0.21611 -0.04947 0.65540
 C1388 C 0.23063 -0.03427 0.66734
 C1389 C 0.22495 -0.03815 0.69041
 O1390 O 0.20789 -0.05459 0.69339
 H1391 H 0.21564 -0.05177 0.63679
 H1392 H 0.24401 -0.02206 0.66014
 C1393 C 0.28709 0.31111 0.43255
 C1394 C 0.27118 0.32610 0.44306
 C1395 C 0.26219 0.31293 0.46128
 C1396 C 0.27319 0.29084 0.46046
 O1397 O 0.28840 0.28967 0.44306
 H1398 H 0.26653 0.34434 0.43792
 H1399 H 0.24877 0.31852 0.47339
 C1400 C 0.27743 0.82279 -0.07327
 C1401 C 0.25628 0.83411 -0.07047
 C1402 C 0.24608 0.82347 -0.05134
 C1403 C 0.26183 0.80660 -0.04377
 O1404 O 0.28089 0.80611 -0.05704
 H1405 H 0.24894 0.84808 -0.08133
 H1406 H 0.22910 0.82735 -0.04392
 C1407 C 0.75983 0.30299 -0.09344
 C1408 C 0.74001 0.31569 -0.08783
 C1409 C 0.73165 0.30520 -0.06777
 C1410 C 0.74695 0.28685 -0.06289
 O1411 O 0.76406 0.28552 -0.07836
 H1412 H 0.73251 0.33066 -0.09727
 H1413 H 0.71601 0.30991 -0.05820
 C1414 C 0.77161 0.81435 0.43151
 C1415 C 0.75202 0.82703 0.43785
 C1416 C 0.74178 0.81364 0.45539
 C1417 C 0.75607 0.79401 0.45857
 O1418 O 0.77416 0.79436 0.44410
 H1419 H 0.74564 0.84362 0.43019
 H1420 H 0.72574 0.81758 0.46464
 C1421 C 0.72233 0.31191 0.57076
 C1422 C 0.74510 0.32087 0.57079
 C1423 C 0.75507 0.31257 0.55090
 C1424 C 0.73764 0.29924 0.54019
 O1425 O 0.71772 0.29880 0.55216
 H1426 H 0.75357 0.33185 0.58389
 H1427 H 0.77304 0.31538 0.54517
 C1428 C 0.70517 0.81975 1.06164
 C1429 C 0.70928 0.83985 1.04761
 C1430 C 0.72089 0.83137 1.02876
 C1431 C 0.72302 0.80669 1.03263
 O1432 O 0.71338 0.79949 1.05258
 H1433 H 0.70493 0.85857 1.05102
 H1434 H 0.72787 0.84206 1.01432
 C1435 C 0.23132 0.31979 1.07703
 C1436 C 0.25351 0.32937 1.07294
 C1437 C 0.26138 0.31781 1.05367
 C1438 C 0.24335 0.30211 1.04752
 O1439 O 0.22505 0.30330 1.06160
 H1440 H 0.26299 0.34280 1.08303
 H1441 H 0.27839 0.32012 1.04540
 C1442 C 0.17322 0.77967 0.57963
 C1443 C 0.16496 0.75613 0.57657
 C1444 C 0.18159 0.74523 0.56338
 C1445 C 0.19866 0.76298 0.55940
 O1446 O 0.19363 0.78390 0.56921
 H1447 H 0.14897 0.74781 0.58346
 H1448 H 0.18145 0.72652 0.55759
 C1449 C 0.30773 0.72709 0.61178
 C1450 C 0.31267 0.75169 0.61360
 C1451 C 0.30173 0.76222 0.59548
 C1452 C 0.29096 0.74330 0.58381
 O1453 O 0.29446 0.72184 0.59370
 H1454 H 0.32324 0.76086 0.62646
 H1455 H 0.30194 0.78140 0.59101
 C1456 C 0.27854 0.18550 1.07252
 C1457 C 0.25715 0.17373 1.07003
 C1458 C 0.24625 0.18597 1.05277
 C1459 C 0.26184 0.20419 1.04581
 O1460 O 0.28151 0.20401 1.05778
 H1461 H 0.25009 0.15841 1.07997
 H1462 H 0.22889 0.18224 1.04620
 C1463 C 0.81839 0.75645 1.08214
 C1464 C 0.82889 0.77867 1.07663
 C1465 C 0.82018 0.78494 1.05558
 C1466 C 0.80503 0.76608 1.04993
 O1467 O 0.80391 0.74876 1.06596
 H1468 H 0.84134 0.78910 1.08675
 H1469 H 0.82409 0.80140 1.04571
 C1470 C 0.77416 0.18521 0.55788
 C1471 C 0.75284 0.17371 0.55400
 C1472 C 0.74257 0.18712 0.53712
 C1473 C 0.75852 0.20558 0.53186
 O1474 O 0.77768 0.20454 0.54444
 H1475 H 0.74547 0.15774 0.56271
 H1476 H 0.72555 0.18387 0.52955
 C1477 C 0.71920 0.67975 0.42000
 C1478 C 0.73971 0.66784 0.42425
 C1479 C 0.74870 0.67838 0.44359
 C1480 C 0.73297 0.69587 0.44996
 O1481 O 0.71497 0.69681 0.43564
 H1482 H 0.74747 0.65348 0.41421
 H1483 H 0.76492 0.67399 0.45199
 C1484 C 0.67746 0.19148 -0.08356
 C1485 C 0.65892 0.19876 -0.06996
 C1486 C 0.66868 0.20818 -0.05051
 C1487 C 0.69249 0.20605 -0.05363
 O1488 O 0.69795 0.19579 -0.07368
 H1489 H 0.64051 0.19811 -0.07413
 H1490 H 0.65959 0.21658 -0.03619
 C1491 C 0.22624 0.69516 -0.07011
 C1492 C 0.24793 0.68530 -0.06669
 C1493 C 0.25624 0.69592 -0.04717
 C1494 C 0.23905 0.71150 -0.04007
 O1495 O 0.22068 0.71106 -0.05390
 H1496 H 0.25688 0.67232 -0.07745
 H1497 H 0.27320 0.69330 -0.03948
 C1498 C 0.19441 0.20732 0.42267
 C1499 C 0.17765 0.22167 0.43268
 C1500 C 0.18668 0.22869 0.45337
 C1501 C 0.20839 0.21832 0.45419
 O1502 O 0.21314 0.20526 0.43562
 H1503 H 0.16122 0.22712 0.42530
 H1504 H 0.17894 0.24090 0.46578
 C1505 C 0.26128 0.41518 0.67423
 C1506 C 0.24512 0.42300 0.65835
 C1507 C 0.23285 0.44058 0.66948
 C1508 C 0.24238 0.44194 0.69129
 O1509 O 0.25961 0.42660 0.69420
 H1510 H 0.24285 0.41697 0.64069
 H1511 H 0.21888 0.45129 0.66248
 C1512 C 0.32680 0.92534 0.23547
 C1513 C 0.33806 0.92906 0.25623
 C1514 C 0.32596 0.94706 0.26704
 C1515 C 0.30841 0.95301 0.25191
 O1516 O 0.30890 0.93985 0.23284
 H1517 H 0.35302 0.91958 0.26282
 H1518 H 0.32946 0.95488 0.28385
 C1519 C 0.81053 0.42719 0.19326
 C1520 C 0.82359 0.43383 0.21228
 C1521 C 0.81256 0.45303 0.22171
 C1522 C 0.79356 0.45697 0.20778
 O1523 O 0.79216 0.44127 0.19040
 H1524 H 0.83925 0.42556 0.21874
 H1525 H 0.81783 0.46313 0.23690
 C1526 C 0.82596 0.90537 0.73442
 C1527 C 0.84200 0.91184 0.75115
 C1528 C 0.83475 0.93365 0.75954
 C1529 C 0.81474 0.93865 0.74745
 O1530 O 0.80941 0.92159 0.73219
 H1531 H 0.85731 0.90204 0.75636
 H1532 H 0.84300 0.94457 0.77283
 C1533 C 0.66775 0.57477 0.73561
 C1534 C 0.65303 0.56652 0.75327
 C1535 C 0.66464 0.54791 0.76369
 C1536 C 0.68554 0.54653 0.75164
 O1537 O 0.68740 0.56273 0.73468
 H1538 H 0.63573 0.57281 0.75760
 H1539 H 0.65847 0.53649 0.77797
 C1540 C 0.68029 0.06998 0.22237
 C1541 C 0.67112 0.06754 0.24450
 C1542 C 0.68379 0.04978 0.25475
 C1543 C 0.69965 0.04265 0.23806
 O1544 O 0.69757 0.05486 0.21837
 H1545 H 0.65719 0.07777 0.25237
 H1546 H 0.68185 0.04297 0.27235
 C1547 C 0.18245 0.58478 0.23954
 C1548 C 0.16678 0.57505 0.25569
 C1549 C 0.17866 0.55734 0.26703
 C1550 C 0.20066 0.55772 0.25697
 O1551 O 0.20300 0.57431 0.24031
 H1552 H 0.14882 0.58008 0.25872
 H1553 H 0.17204 0.54542 0.28074
 C1554 C 0.19050 0.07329 0.72585
 C1555 C 0.18132 0.06849 0.74766
 C1556 C 0.19487 0.05066 0.75658
 C1557 C 0.21142 0.04618 0.73963
 O1558 O 0.20881 0.05986 0.72095
 H1559 H 0.16616 0.07645 0.75576
 H1560 H 0.19271 0.04165 0.77325
 C1561 C 0.29090 0.57960 0.33992
 C1562 C 0.27830 0.56607 0.35620
 C1563 C 0.26759 0.54788 0.34417
 C1564 C 0.27435 0.55159 0.32136
 O1565 O 0.28861 0.57084 0.31866
 H1566 H 0.27683 0.56924 0.37465
 H1567 H 0.25591 0.53379 0.35112
 C1568 C 0.31120 0.05465 0.80842
 C1569 C 0.30384 0.03801 0.82516
 C1570 C 0.29208 0.02016 0.81357
 C1571 C 0.29299 0.02736 0.79064
 O1572 O 0.30462 0.04825 0.78740
 H1573 H 0.30535 0.03969 0.84377
 H1574 H 0.28284 0.00450 0.82103
 C1575 C 0.77804 0.55520 0.83127
 C1576 C 0.76305 0.54368 0.84692
 C1577 C 0.75092 0.52690 0.83427
 C1578 C 0.75936 0.52963 0.81186
 O1579 O 0.77587 0.54675 0.80998
 H1580 H 0.76106 0.54726 0.86526
 H1581 H 0.73716 0.51457 0.84049
 C1582 C 0.81632 0.07237 0.26958
 C1583 C 0.82681 0.06776 0.24846
 C1584 C 0.81367 0.04939 0.23905
 C1585 C 0.79631 0.04406 0.25524
 O1586 O 0.79785 0.05798 0.27378
 H1587 H 0.84189 0.07700 0.24066
 H1588 H 0.81638 0.04088 0.22239
 C1589 C 0.68336 0.44254 0.26642
 C1590 C 0.66847 0.44888 0.24883
 C1591 C 0.68065 0.46553 0.23572
 C1592 C 0.70203 0.46836 0.24631
 O1593 O 0.70381 0.45444 0.26505
 H1594 H 0.65103 0.44174 0.24553
 H1595 H 0.67478 0.47437 0.22006
 C1596 C 0.72642 0.95035 0.83175
 C1597 C 0.74318 0.96000 0.84628
 C1598 C 0.75716 0.97454 0.83242
 C1599 C 0.74792 0.97238 0.81052
 O1600 O 0.72924 0.95783 0.81008
 H1601 H 0.74541 0.95620 0.86455
 H1602 H 0.77277 0.98459 0.83745
 C1603 C 0.15378 0.42420 0.78086
 C1604 C 0.13737 0.43488 0.76691
 C1605 C 0.14961 0.45209 0.75413
 C1606 C 0.17246 0.45046 0.76134
 O1607 O 0.17497 0.43362 0.77749
 H1608 H 0.11884 0.43057 0.76606
 H1609 H 0.14278 0.46426 0.74114
 C1610 C 0.19794 0.92040 0.29938
 C1611 C 0.18927 0.91937 0.27716
 C1612 C 0.20135 0.93679 0.26490
 C1613 C 0.21646 0.94741 0.28050
 O1614 O 0.21457 0.93746 0.30153
 H1615 H 0.17569 0.90730 0.27061
 H1616 H 0.19926 0.94140 0.24677
 C1617 C 0.42020 0.32089 0.71840
 C1618 C 0.43055 0.33762 0.73300
 C1619 C 0.44990 0.32641 0.74131
 C1620 C 0.44973 0.30372 0.73116
 O1621 O 0.43177 0.30038 0.71728
 H1622 H 0.42473 0.35572 0.73706
 H1623 H 0.46245 0.33374 0.75347
 C1624 C 0.42620 0.77228 0.17822
 C1625 C 0.42657 0.74934 0.16859
 C1626 C 0.44413 0.73762 0.17959
 C1627 C 0.45327 0.75438 0.19488
 O1628 O 0.44244 0.77539 0.19411
 H1629 H 0.41490 0.74175 0.15574
 H1630 H 0.44921 0.71892 0.17726
 C1631 C 0.91366 0.26976 0.18651
 C1632 C 0.91652 0.24570 0.18062
 C1633 C 0.93669 0.23910 0.19086
 C1634 C 0.94469 0.25957 0.20229
 O1635 O 0.93076 0.27832 0.19970
 H1636 H 0.90525 0.23427 0.17014
 H1637 H 0.94453 0.22134 0.19032
 C1638 C 0.92666 0.75739 0.68683
 C1639 C 0.93771 0.74232 0.67135
 C1640 C 0.95681 0.73408 0.68280
 C1641 C 0.95589 0.74468 0.70441
 O1642 O 0.93764 0.75883 0.70687
 H1643 H 0.93246 0.73787 0.65389
 H1644 H 0.96970 0.72163 0.67630
 C1645 C 0.57931 0.28410 0.31036
 C1646 C 0.57584 0.26164 0.32087
 C1647 C 0.55837 0.25046 0.30867
 C1648 C 0.55238 0.26707 0.29183
 O1649 O 0.56507 0.28747 0.29278
 H1650 H 0.58517 0.25416 0.33541
 H1651 H 0.55086 0.23243 0.31169
 C1652 C 0.57699 0.83792 0.78917
 C1653 C 0.56648 0.85409 0.77437
 C1654 C 0.54807 0.84133 0.76510
 C1655 C 0.54893 0.81840 0.77495
 O1656 O 0.56639 0.81633 0.78954
 H1657 H 0.57167 0.87281 0.77069
 H1658 H 0.53575 0.84780 0.75247
 C1659 C 0.06263 0.26193 0.81680
 C1660 C 0.06144 0.23757 0.82278
 C1661 C 0.04530 0.22741 0.80824
 C1662 C 0.03788 0.24636 0.79452
 O1663 O 0.04835 0.26731 0.79969
 H1664 H 0.07136 0.22828 0.83590
 H1665 H 0.03981 0.20844 0.80753
 C1666 C 0.06562 0.79397 0.35409
 C1667 C 0.06142 0.77178 0.36496
 C1668 C 0.04816 0.75858 0.34979
 C1669 C 0.04521 0.77387 0.33104
 O1670 O 0.05572 0.79527 0.33360
 H1671 H 0.06802 0.76562 0.38146
 H1672 H 0.04159 0.74006 0.35203
 C1673 C 0.57307 0.72895 0.68660
 C1674 C 0.56533 0.74767 0.67280
 C1675 C 0.54941 0.75952 0.68617
 C1676 C 0.54888 0.74722 0.70712
 O1677 O 0.56318 0.72867 0.70742
 H1678 H 0.57034 0.75188 0.65504
 H1679 H 0.53935 0.77515 0.68124
 C1680 C 0.58147 0.22857 0.18086
 C1681 C 0.57970 0.25128 0.17068
 C1682 C 0.56213 0.26235 0.18251
 C1683 C 0.55440 0.24546 0.19882
 O1684 O 0.56611 0.22497 0.19791
 H1685 H 0.59015 0.25897 0.15656
 H1686 H 0.55569 0.28048 0.17958
 C1687 C 0.09164 0.74426 0.21383
 C1688 C 0.09129 0.76883 0.20878
 C1689 C 0.07388 0.77774 0.22247
 C1690 C 0.06496 0.75789 0.23477
 O1691 O 0.07572 0.73758 0.22958
 H1692 H 0.10226 0.77896 0.19652
 H1693 H 0.06807 0.79635 0.22310
 C1694 C 0.07458 0.21736 0.68199
 C1695 C 0.07276 0.24065 0.67317
 C1696 C 0.05431 0.25040 0.68472
 C1697 C 0.04611 0.23228 0.69958
 O1698 O 0.05838 0.21218 0.69800
 H1699 H 0.08380 0.24961 0.66018
 H1700 H 0.04765 0.26857 0.68262
 C1701 C 0.40933 0.73568 0.30075
 C1702 C 0.41277 0.76050 0.30308
 C1703 C 0.43335 0.76580 0.29210
 C1704 C 0.44104 0.74385 0.28389
 O1705 O 0.42647 0.72542 0.28899
 H1706 H 0.40166 0.77326 0.31190
 H1707 H 0.44176 0.78358 0.29022
 C1708 C 0.42654 0.21469 0.81578
 C1709 C 0.43765 0.23062 0.83068
 C1710 C 0.45550 0.24116 0.81802
 C1711 C 0.45392 0.23097 0.79630
 O1712 O 0.43639 0.21485 0.79487
 H1713 H 0.43317 0.23426 0.84858
 H1714 H 0.46791 0.25494 0.82379
 C1715 C 0.93338 0.65603 0.79032
 C1716 C 0.94128 0.64086 0.77310
 C1717 C 0.95908 0.65366 0.76219
 C1718 C 0.96036 0.67569 0.77351
 O1719 O 0.94489 0.67710 0.79056
 H1720 H 0.93466 0.62284 0.76883
 H1721 H 0.96932 0.64800 0.74736
 C1722 C 0.93162 0.22284 0.31360
 C1723 C 0.93666 0.24390 0.32565
 C1724 C 0.95365 0.25577 0.31295
 C1725 C 0.95790 0.24097 0.29424
 O1726 O 0.94457 0.22094 0.29454
 H1727 H 0.92841 0.25027 0.34138
 H1728 H 0.96170 0.27333 0.31662
 C1729 C 0.32019 0.26697 0.57420
 C1730 C 0.33438 0.24797 0.56826
 C1731 C 0.32392 0.23740 0.54959
 C1732 C 0.30407 0.25064 0.54589
 O1733 O 0.30180 0.26862 0.56072
 H1734 H 0.35034 0.24250 0.57654
 H1735 H 0.32971 0.22160 0.54019
 C1736 C 0.27873 0.82981 0.08128
 C1737 C 0.25799 0.84173 0.07820
 C1738 C 0.24693 0.82957 0.06071
 C1739 C 0.26191 0.81136 0.05442
 O1740 O 0.28116 0.81147 0.06685
 H1741 H 0.25142 0.85695 0.08794
 H1742 H 0.22993 0.83331 0.05361
 C1743 C 0.79907 0.29193 0.05393
 C1744 C 0.81756 0.28455 0.04032
 C1745 C 0.80774 0.27288 0.02202
 C1746 C 0.78394 0.27378 0.02585
 O1747 O 0.77853 0.28536 0.04524
 H1748 H 0.83604 0.28630 0.04406
 H1749 H 0.81684 0.26383 0.00808
 C1750 C 0.77281 0.79949 0.58480
 C1751 C 0.75191 0.81128 0.58222
 C1752 C 0.74153 0.80088 0.56346
 C1753 C 0.75690 0.78365 0.55576
 O1754 O 0.77594 0.78270 0.56870
 H1755 H 0.74485 0.82547 0.59297
 H1756 H 0.72472 0.80528 0.55626
 C1757 C 0.33026 0.72743 0.45791
 C1758 C 0.34218 0.74872 0.46345
 C1759 C 0.33075 0.75760 0.48235
 C1760 C 0.31284 0.74099 0.48691
 O1761 O 0.31256 0.72263 0.47221
 H1762 H 0.35654 0.75749 0.45399
 H1763 H 0.33416 0.77479 0.49087
 C1764 C 0.26713 0.19202 0.91698
 C1765 C 0.24464 0.18256 0.91954
 C1766 C 0.23600 0.19282 0.93917
 C1767 C 0.25391 0.20763 0.94710
 O1768 O 0.27283 0.20723 0.93370
 H1769 H 0.23550 0.16993 0.90832
 H1770 H 0.21864 0.19020 0.94658
 C1771 C 0.83028 0.70845 0.93736
 C1772 C 0.84681 0.72562 0.94402
 C1773 C 0.83548 0.74038 0.95896
 C1774 C 0.81292 0.73106 0.96055
 O1775 O 0.80961 0.71158 0.94748
 H1776 H 0.86476 0.72772 0.93803
 H1777 H 0.84258 0.75653 0.96722
 C1778 C 0.77313 0.18955 0.41044
 C1779 C 0.75023 0.18112 0.41175
 C1780 C 0.73997 0.19468 0.42852
 C1781 C 0.75739 0.21029 0.43624
 O1782 O 0.77758 0.20725 0.42532
 H1783 H 0.74192 0.16700 0.40153
 H1784 H 0.72194 0.19335 0.43444
 C1785 C 0.72701 0.32971 0.41276
 C1786 C 0.74954 0.33880 0.41515
 C1787 C 0.75872 0.32574 0.43290
 C1788 C 0.74107 0.30974 0.44003
 O1789 O 0.72179 0.31211 0.42786
 H1790 H 0.75838 0.35284 0.40486
 H1791 H 0.77633 0.32730 0.43954
 C1792 C 0.70005 0.78033 0.91758
 C1793 C 0.68964 0.75803 0.92278
 C1794 C 0.70256 0.74874 0.94041
 C1795 C 0.71983 0.76612 0.94445
 O1796 O 0.71834 0.78524 0.93064
 H1797 H 0.67427 0.74978 0.91501
 H1798 H 0.69948 0.73166 0.94955
 C1799 C 0.21241 0.31587 0.92171
 C1800 C 0.23378 0.32808 0.92242
 C1801 C 0.24546 0.31780 0.94033
 C1802 C 0.23032 0.30023 0.94939
 O1803 O 0.21022 0.29896 0.93814
 H1804 H 0.24032 0.34240 0.91093
 H1805 H 0.26304 0.32231 0.94592
 C1806 C 0.21196 0.78729 0.43887
 C1807 C 0.20774 0.76299 0.43420
 C1808 C 0.21789 0.75048 0.45175
 C1809 C 0.22727 0.76810 0.46601
 O1810 O 0.22370 0.79049 0.45827
 H1811 H 0.19739 0.75541 0.42028
 H1812 H 0.21767 0.73093 0.45436
 C1813 C 0.71363 0.67062 0.57727
 C1814 C 0.73479 0.65938 0.57428
 C1815 C 0.74549 0.67126 0.55605
 C1816 C 0.72998 0.68872 0.54921
 O1817 O 0.71064 0.68838 0.56205
 H1818 H 0.74183 0.64472 0.58450
 H1819 H 0.76271 0.66795 0.54890
 C1820 C 0.71656 0.16997 0.06449
 C1821 C 0.73400 0.15521 0.05632
 C1822 C 0.74286 0.16690 0.03705
 C1823 C 0.73014 0.18784 0.03505
 O1824 O 0.71420 0.18973 0.05163
 H1825 H 0.73960 0.13810 0.06356
 H1826 H 0.75693 0.16095 0.02588
 C1827 C 0.22543 0.69611 0.08913
 C1828 C 0.24603 0.68447 0.08427
 C1829 C 0.25504 0.69579 0.06497
 C1830 C 0.23922 0.71340 0.05930
 O1831 O 0.22115 0.71367 0.07393
 H1832 H 0.25382 0.66980 0.09389
 H1833 H 0.27134 0.69187 0.05618
 C1834 C 0.21386 0.16266 0.56693
 C1835 C 0.22797 0.14543 0.55698
 C1836 C 0.24032 0.15755 0.53989
 C1837 C 0.23279 0.18119 0.54081
 O1838 O 0.21675 0.18433 0.55715
 H1839 H 0.22924 0.12641 0.56171
 H1840 H 0.25331 0.15013 0.52829
   
