data_POSCAR
  _audit_creation_date              2014-09-24
  _audit_creation_method            'ToBaCCo'
  _symmetry_space_group_name_H-M    'P1'
  _symmetry_Int_Tables_number       1
  _symmetry_cell_setting            triclinic
  loop_
  _symmetry_equiv_pos_as_xyz
 x,y,z
_cell_length_a 55.5417
_cell_length_b 56.4700
_cell_length_c 56.3398
_cell_angle_alpha 90.493800
_cell_angle_beta 89.691500
_cell_angle_gamma 90.077800
loop_
  _atom_site_label
  _atom_site_type_symbol
  _atom_site_fract_x
  _atom_site_fract_y
  _atom_site_fract_z
N1 N 0.17186 0.22768 0.23322
 N2 N 0.17990 0.21064 0.24681
 C3 C 0.16419 0.20716 0.26475
 C4 C 0.14517 0.22266 0.26201
 C5 C 0.15081 0.23564 0.24205
 H6 H 0.16615 0.19404 0.27847
 H7 H 0.14022 0.24969 0.23442
 Cu8 Cu 0.20970 0.19418 0.23932
 Cu9 Cu 0.18870 0.23764 0.20463
 Cu10 Cu 0.23801 0.20423 0.18729
 N11 N 0.23434 0.17291 0.22711
 N12 N 0.24566 0.17711 0.20702
 C13 C 0.26173 0.15972 0.20285
 C14 C 0.26010 0.14361 0.22111
 C15 C 0.24273 0.15263 0.23635
 H16 H 0.27351 0.15864 0.18754
 H17 H 0.23674 0.14503 0.25292
 N18 N 0.22714 0.23232 0.16979
 N19 N 0.20814 0.24488 0.17629
 C20 C 0.20451 0.26205 0.16027
 C21 C 0.22190 0.26004 0.14277
 C22 C 0.23615 0.24126 0.14949
 H23 H 0.19014 0.27493 0.16103
 H24 H 0.25154 0.23429 0.13990
 H25 H 0.20245 0.20411 0.19812
 H26 H 0.22291 0.22590 0.21306
 N27 N 0.66901 0.72458 0.72849
 N28 N 0.67374 0.70436 0.73887
 C29 C 0.65691 0.70029 0.75566
 C30 C 0.64073 0.71887 0.75561
 C31 C 0.64911 0.73412 0.73839
 H32 H 0.65637 0.68505 0.76713
 H33 H 0.64110 0.75074 0.73327
 Cu34 Cu 0.70130 0.68531 0.72924
 Cu35 Cu 0.68866 0.73668 0.70251
 Cu36 Cu 0.73834 0.70321 0.68556
 N37 N 0.72923 0.66673 0.71975
 N38 N 0.74369 0.67381 0.70266
 C39 C 0.76129 0.65769 0.69951
 C40 C 0.75745 0.63938 0.71524
 C41 C 0.73718 0.64587 0.72805
 H42 H 0.77572 0.65903 0.68662
 H43 H 0.72900 0.63612 0.74244
 N44 N 0.72980 0.73342 0.67042
 N45 N 0.71069 0.74595 0.67666
 C46 C 0.70919 0.76501 0.66253
 C47 C 0.72845 0.76464 0.64696
 C48 C 0.74105 0.74431 0.65227
 H49 H 0.69511 0.77819 0.66334
 H50 H 0.75692 0.73776 0.64319
 H51 H 0.70150 0.70431 0.69053
 H52 H 0.72030 0.72050 0.71273
 N53 N 0.32741 0.76897 0.73267
 N54 N 0.32120 0.78825 0.74442
 C55 C 0.33530 0.79053 0.76369
 C56 C 0.35084 0.77146 0.76420
 C57 C 0.34555 0.75827 0.74412
 H58 H 0.33437 0.80487 0.77650
 H59 H 0.35444 0.74223 0.73819
 Cu60 Cu 0.29526 0.80842 0.73337
 Cu61 Cu 0.31170 0.75932 0.70331
 Cu62 Cu 0.26505 0.79473 0.68352
 N63 N 0.26986 0.82873 0.72142
 N64 N 0.25770 0.82297 0.70230
 C65 C 0.24120 0.83984 0.69810
 C66 C 0.24347 0.85759 0.71518
 C67 C 0.26161 0.84955 0.72995
 H68 H 0.22902 0.83960 0.68320
 H69 H 0.26766 0.85773 0.74628
 N70 N 0.27537 0.76556 0.66690
 N71 N 0.29358 0.75247 0.67408
 C72 C 0.29715 0.73472 0.65832
 C73 C 0.28044 0.73683 0.64043
 C74 C 0.26676 0.75636 0.64649
 H75 H 0.31095 0.72130 0.65958
 H76 H 0.25206 0.76360 0.63638
 H77 H 0.30083 0.79283 0.69325
 H78 H 0.27895 0.77498 0.71092
 N79 N 0.83435 0.27569 0.22702
 N80 N 0.82500 0.29010 0.24298
 C81 C 0.83816 0.28903 0.26294
 C82 C 0.85663 0.27267 0.25952
 C83 C 0.85385 0.26512 0.23614
 H84 H 0.83422 0.29903 0.27894
 H85 H 0.86560 0.25356 0.22601
 Cu86 Cu 0.79674 0.30906 0.23573
 Cu87 Cu 0.82059 0.27177 0.19553
 Cu88 Cu 0.76216 0.29247 0.19007
 N89 N 0.77054 0.32902 0.22475
 N90 N 0.75691 0.32227 0.20691
 C91 C 0.73965 0.33855 0.20348
 C92 C 0.74287 0.35672 0.21975
 C93 C 0.76246 0.34994 0.23321
 H94 H 0.72575 0.33724 0.19015
 H95 H 0.76993 0.35932 0.24830
 N96 N 0.77621 0.26877 0.16840
 N97 N 0.79867 0.26137 0.17010
 C98 C 0.80268 0.24458 0.15344
 C99 C 0.78170 0.24130 0.14076
 C100 C 0.76537 0.25710 0.15046
 H101 H 0.81930 0.23483 0.15126
 H102 H 0.74679 0.25935 0.14534
 H103 H 0.79719 0.30070 0.19311
 H104 H 0.78760 0.27458 0.21093
 N105 N 0.83422 0.72271 0.27051
 N106 N 0.82841 0.70334 0.25873
 C107 C 0.84489 0.69946 0.24151
 C108 C 0.86193 0.71728 0.24272
 C109 C 0.85447 0.73189 0.26110
 H110 H 0.84453 0.68494 0.22888
 H111 H 0.86325 0.74790 0.26723
 Cu112 Cu 0.79982 0.68526 0.26700
 Cu113 Cu 0.81529 0.73442 0.29732
 Cu114 Cu 0.76448 0.70207 0.31270
 N115 N 0.77115 0.66744 0.27558
 N116 N 0.75774 0.67381 0.29386
 C117 C 0.73931 0.65848 0.29611
 C118 C 0.74117 0.64186 0.27813
 C119 C 0.76154 0.64794 0.26543
 H120 H 0.72533 0.65956 0.30950
 H121 H 0.76868 0.63884 0.24997
 N122 N 0.77431 0.73119 0.32954
 N123 N 0.79382 0.74335 0.32387
 C124 C 0.79576 0.76207 0.33872
 C125 C 0.77636 0.76186 0.35411
 C126 C 0.76323 0.74199 0.34799
 H127 H 0.81006 0.77507 0.33832
 H128 H 0.74691 0.73587 0.35651
 H129 H 0.80126 0.70200 0.30701
 H130 H 0.78280 0.72020 0.28647
 N131 N 0.32496 0.22780 -0.23544
 N132 N 0.32124 0.20654 -0.24429
 C133 C 0.33491 0.20366 -0.26391
 C134 C 0.34760 0.22450 -0.26799
 C135 C 0.34105 0.23921 -0.24913
 H136 H 0.33512 0.18776 -0.27473
 H137 H 0.34822 0.25655 -0.24497
 Cu138 Cu 0.29884 0.18464 -0.22949
 Cu139 Cu 0.30851 0.23930 -0.20702
 Cu140 Cu 0.26200 0.20438 -0.18596
 N141 N 0.27065 0.16679 -0.21957
 N142 N 0.25606 0.17479 -0.20290
 C143 C 0.23807 0.15914 -0.19972
 C144 C 0.24180 0.14012 -0.21493
 C145 C 0.26246 0.14573 -0.22752
 H146 H 0.22327 0.16144 -0.18737
 H147 H 0.27086 0.13523 -0.24140
 N148 N 0.27106 0.23480 -0.17114
 N149 N 0.28933 0.24773 -0.17869
 C150 C 0.29154 0.26694 -0.16452
 C151 C 0.27358 0.26618 -0.14753
 C152 C 0.26103 0.24553 -0.15207
 H153 H 0.30500 0.28064 -0.16649
 H154 H 0.24592 0.23878 -0.14200
 H155 H 0.29857 0.20721 -0.19239
 H156 H 0.27805 0.21991 -0.21525
 N157 N 0.66373 0.27686 -0.22804
 N158 N 0.67072 0.29526 -0.24040
 C159 C 0.65400 0.29990 -0.25694
 C160 C 0.63516 0.28387 -0.25451
 C161 C 0.64233 0.26926 -0.23617
 H162 H 0.65519 0.31421 -0.26951
 H163 H 0.63333 0.25348 -0.22996
 Cu164 Cu 0.70093 0.31134 -0.23345
 Cu165 Cu 0.68297 0.26376 -0.20258
 Cu166 Cu 0.73668 0.29231 -0.18959
 N167 N 0.73121 0.32708 -0.22612
 N168 N 0.74499 0.31964 -0.20881
 C169 C 0.76457 0.33363 -0.20733
 C170 C 0.76316 0.35056 -0.22485
 C171 C 0.74160 0.34610 -0.23622
 H172 H 0.77868 0.33183 -0.19431
 H173 H 0.73414 0.35604 -0.25075
 N174 N 0.72516 0.26429 -0.17225
 N175 N 0.70488 0.25322 -0.17745
 C176 C 0.70228 0.23457 -0.16292
 C177 C 0.72193 0.23378 -0.14807
 C178 C 0.73592 0.25302 -0.15421
 H179 H 0.68716 0.22248 -0.16295
 H180 H 0.75279 0.25820 -0.14619
 H181 H 0.69985 0.29515 -0.19347
 H182 H 0.71600 0.27542 -0.21499
 N183 N 0.17261 0.77535 0.26918
 N184 N 0.17717 0.79582 0.25915
 C185 C 0.16295 0.79824 0.24005
 C186 C 0.14904 0.77804 0.23785
 C187 C 0.15540 0.76401 0.25679
 H188 H 0.16292 0.81340 0.22845
 H189 H 0.14790 0.74692 0.26126
 Cu190 Cu 0.20166 0.81714 0.27140
 Cu191 Cu 0.18908 0.76513 0.29767
 Cu192 Cu 0.23882 0.79790 0.31423
 N193 N 0.23237 0.83235 0.27766
 N194 N 0.24717 0.82433 0.29381
 C195 C 0.26742 0.83741 0.29360
 C196 C 0.26543 0.85448 0.27611
 C197 C 0.24260 0.85097 0.26677
 H198 H 0.28205 0.83527 0.30598
 H199 H 0.23435 0.86066 0.25248
 N200 N 0.22713 0.77054 0.33242
 N201 N 0.20819 0.75793 0.32598
 C202 C 0.20463 0.74057 0.34184
 C203 C 0.22194 0.74257 0.35923
 C204 C 0.23610 0.76156 0.35259
 H205 H 0.19039 0.72751 0.34099
 H206 H 0.25181 0.76820 0.36176
 H207 H 0.20178 0.79765 0.30975
 H208 H 0.22041 0.78177 0.28672
 N209 N 0.47981 0.42570 0.49021
 N210 N 0.45791 0.42806 0.49886
 C211 C 0.45372 0.41085 0.51473
 C212 C 0.47402 0.39679 0.51583
 C213 C 0.49040 0.40693 0.50036
 H214 H 0.43695 0.40829 0.52423
 H215 H 0.50838 0.40071 0.49626
 Cu216 Cu 0.43673 0.45296 0.48796
 Cu217 Cu 0.49190 0.44625 0.46510
 Cu218 Cu 0.44538 0.46896 0.43150
 N219 N 0.41530 0.47508 0.47268
 N220 N 0.41892 0.48176 0.45063
 C221 C 0.40170 0.49735 0.44461
 C222 C 0.38646 0.50030 0.46389
 C223 C 0.39565 0.48604 0.48143
 H224 H 0.40036 0.50584 0.42753
 H225 H 0.38870 0.48405 0.49927
 N226 N 0.47816 0.46366 0.41884
 N227 N 0.49628 0.45734 0.43240
 C228 C 0.51664 0.45722 0.41941
 C229 C 0.51102 0.46268 0.39613
 C230 C 0.48643 0.46709 0.39662
 H231 H 0.53423 0.45339 0.42655
 H232 H 0.47538 0.47258 0.38192
 H233 H 0.46518 0.47245 0.46115
 H234 H 0.45844 0.44132 0.45204
 N235 N -0.02102 -0.07601 0.98867
 N236 N -0.04255 -0.07209 0.99766
 C237 C -0.04649 -0.08713 1.01568
 C238 C -0.02625 -0.10109 1.01810
 C239 C -0.01050 -0.09372 1.00059
 H240 H -0.06282 -0.08797 1.02619
 H241 H 0.00729 -0.10064 0.99688
 Cu242 Cu -0.06309 -0.04744 0.98520
 Cu243 Cu -0.00801 -0.05728 0.96276
 Cu244 Cu -0.05046 -0.02524 0.93163
 N245 N -0.07930 -0.01943 0.97362
 N246 N -0.07447 -0.01075 0.95254
 C247 C -0.08858 0.00821 0.94883
 C248 C -0.10271 0.01173 0.96885
 C249 C -0.09657 -0.00628 0.98409
 H250 H -0.08868 0.01853 0.93274
 H251 H -0.10415 -0.00953 1.00149
 N252 N -0.01875 -0.03371 0.91837
 N253 N -0.00217 -0.04477 0.93075
 C254 C 0.01787 -0.04701 0.91741
 C255 C 0.01354 -0.03736 0.89534
 C256 C -0.00975 -0.02874 0.89674
 H257 H 0.03442 -0.05505 0.92333
 H258 H -0.01936 -0.01937 0.88307
 H259 H -0.03159 -0.02846 0.96172
 H260 H -0.04150 -0.05723 0.94845
 N261 N 1.02576 0.58135 0.98134
 N262 N 1.04218 0.57263 0.99550
 C263 C 1.04627 0.58811 1.01333
 C264 C 1.03187 0.60774 1.00993
 C265 C 1.01884 0.60270 0.98966
 H266 H 1.05869 0.58528 1.02774
 H267 H 1.00546 0.61386 0.98152
 Cu268 Cu 1.05693 0.54210 0.98918
 Cu269 Cu 1.01483 0.56448 0.95310
 Cu270 Cu 1.04619 0.51365 0.93756
 N271 N 1.07739 0.51650 0.97800
 N272 N 1.07289 0.50510 0.95806
 C273 C 1.08988 0.48844 0.95452
 C274 C 1.10605 0.48980 0.97303
 C275 C 1.09749 0.50763 0.98775
 H276 H 1.09079 0.47660 0.93936
 H277 H 1.10542 0.51376 1.00419
 N278 N 1.01863 0.52550 0.91925
 N279 N 1.00664 0.54485 0.92522
 C280 C 0.98926 0.54857 0.90909
 C281 C 0.99067 0.53096 0.89200
 C282 C 1.00925 0.51645 0.89913
 H283 H 0.97670 0.56318 0.90947
 H284 H 1.01544 0.50054 0.89021
 H285 H 1.02450 0.53042 0.96245
 H286 H 1.04811 0.54885 0.94763
 N287 N 0.52650 0.08075 0.48357
 N288 N 0.54529 0.07363 0.49566
 C289 C 0.54876 0.08847 0.51416
 C290 C 0.53143 0.10599 0.51338
 C291 C 0.51739 0.10037 0.49394
 H292 H 0.56297 0.08694 0.52710
 H293 H 0.50207 0.11019 0.48752
 Cu294 Cu 0.56402 0.04631 0.48539
 Cu295 Cu 0.51632 0.06484 0.45448
 Cu296 Cu 0.54588 0.01273 0.43924
 N297 N 0.58240 0.01893 0.47475
 N298 N 0.57497 0.00555 0.45702
 C299 C 0.59087 -0.01213 0.45342
 C300 C 0.60940 -0.00942 0.46951
 C301 C 0.60331 0.01027 0.48296
 H302 H 0.58935 -0.02572 0.43986
 H303 H 0.61341 0.01762 0.49763
 N304 N 0.51629 0.02345 0.42336
 N305 N 0.50515 0.04338 0.42904
 C306 C 0.48596 0.04598 0.41479
 C307 C 0.48490 0.02672 0.39952
 C308 C 0.50455 0.01296 0.40524
 H309 H 0.47381 0.06092 0.41517
 H310 H 0.50990 -0.00341 0.39663
 H311 H 0.52803 0.03213 0.46543
 H312 H 0.54864 0.04836 0.44492
 N313 N -0.02538 0.08408 0.52280
 N314 N -0.04266 0.07584 0.50916
 C315 C -0.04460 0.08976 0.48998
 C316 C -0.02749 0.10748 0.49162
 C317 C -0.01584 0.10357 0.51283
 H318 H -0.05714 0.08700 0.47561
 H319 H -0.00101 0.11373 0.52003
 Cu320 Cu -0.06014 0.04703 0.51690
 Cu321 Cu -0.01543 0.06793 0.55149
 Cu322 Cu -0.04397 0.01490 0.56422
 N323 N -0.07596 0.01728 0.52447
 N324 N -0.06928 0.00456 0.54272
 C325 C -0.08306 -0.01502 0.54384
 C326 C -0.09905 -0.01467 0.52513
 C327 C -0.09425 0.00618 0.51335
 H328 H -0.08194 -0.02831 0.55749
 H329 H -0.10342 0.01267 0.49783
 N330 N -0.01812 0.02831 0.58398
 N331 N -0.00777 0.04888 0.57958
 C332 C 0.00891 0.05326 0.59634
 C333 C 0.00892 0.03460 0.61203
 C334 C -0.00819 0.01900 0.60355
 H335 H 0.02063 0.06855 0.59685
 H336 H -0.01294 0.00209 0.61114
 H337 H -0.02512 0.03466 0.53942
 H338 H -0.04766 0.05079 0.55826
 N339 N 0.47809 0.58092 0.01851
 N340 N 0.45898 0.57412 0.00654
 C341 C 0.45491 0.58967 -0.01099
 C342 C 0.47233 0.60714 -0.00980
 C343 C 0.48692 0.60091 0.00891
 H344 H 0.44027 0.58863 -0.02353
 H345 H 0.50240 0.61057 0.01539
 Cu346 Cu 0.44096 0.54610 0.01588
 Cu347 Cu 0.48929 0.56420 0.04654
 Cu348 Cu 0.45688 0.51432 0.06317
 N349 N 0.42264 0.51827 0.02527
 N350 N 0.42898 0.50604 0.04398
 C351 C 0.41289 0.48857 0.04753
 C352 C 0.39545 0.49007 0.03024
 C353 C 0.40230 0.50889 0.01620
 H354 H 0.41353 0.47596 0.06185
 H355 H 0.39275 0.51557 0.00099
 N356 N 0.48558 0.52560 0.08033
 N357 N 0.49767 0.54482 0.07430
 C358 C 0.51526 0.54862 0.09028
 C359 C 0.51408 0.53099 0.10707
 C360 C 0.49529 0.51658 0.10014
 H361 H 0.52782 0.56326 0.09001
 H362 H 0.48881 0.50108 0.10934
 H363 H 0.47607 0.53143 0.03687
 H364 H 0.45631 0.55023 0.05613
 N365 N 0.52511 -0.08047 0.01736
 N366 N 0.54517 -0.07515 0.00608
 C367 C 0.54910 -0.09138 -0.01117
 C368 C 0.53061 -0.10778 -0.01049
 C369 C 0.51554 -0.10016 0.00759
 H370 H 0.56434 -0.09152 -0.02319
 H371 H 0.49916 -0.10868 0.01353
 Cu372 Cu 0.56460 -0.04804 0.01570
 Cu373 Cu 0.51356 -0.06223 0.04463
 Cu374 Cu 0.54862 -0.01457 0.06278
 N375 N 0.58375 -0.02085 0.02563
 N376 N 0.57776 -0.00831 0.04452
 C377 C 0.59432 0.00877 0.04804
 C378 C 0.61158 0.00678 0.03042
 C379 C 0.60426 -0.01200 0.01634
 H380 H 0.59380 0.02181 0.06221
 H381 H 0.61340 -0.01880 0.00073
 N382 N 0.51845 -0.02364 0.07886
 N383 N 0.50499 -0.04165 0.07185
 C384 C 0.48563 -0.04318 0.08626
 C385 C 0.48679 -0.02507 0.10288
 C386 C 0.50797 -0.01324 0.09788
 H387 H 0.47179 -0.05661 0.08502
 H388 H 0.51508 0.00190 0.10741
 H389 H 0.52968 -0.03056 0.03551
 H390 H 0.54702 -0.05049 0.05538
 N391 N 1.02136 0.41989 0.51987
 N392 N 1.03545 0.42972 0.50393
 C393 C 1.03520 0.41633 0.48401
 C394 C 1.01989 0.39730 0.48760
 C395 C 1.01185 0.39992 0.51075
 H396 H 1.04533 0.42009 0.46803
 H397 H 0.99999 0.38809 0.52027
 Cu398 Cu 1.05312 0.45879 0.51084
 Cu399 Cu 1.01500 0.43439 0.55062
 Cu400 Cu 1.04713 0.48492 0.56474
 N401 N 1.07258 0.48599 0.52029
 N402 N 1.07025 0.49595 0.54135
 C403 C 1.08603 0.51394 0.54331
 C404 C 1.09877 0.51554 0.52228
 C405 C 1.09001 0.49736 0.50813
 H406 H 1.08820 0.52504 0.55889
 H407 H 1.09622 0.49255 0.49052
 N408 N 1.02292 0.47108 0.58612
 N409 N 1.01083 0.45165 0.58079
 C410 C 0.99478 0.44734 0.59822
 C411 C 0.99706 0.46472 0.61545
 C412 C 1.01490 0.47963 0.60711
 H413 H 0.98177 0.43308 0.59809
 H414 H 1.02078 0.49602 0.61528
 H415 H 1.02342 0.46881 0.54141
 H416 H 1.04858 0.45017 0.55292
 C417 C 0.41164 0.01319 0.21824
 H418 H 0.41182 0.02961 0.22826
 C419 C 0.42645 0.01053 0.19828
 H420 H 0.43807 0.02495 0.19286
 C421 C 0.39618 -0.02564 0.21290
 H422 H 0.38469 -0.03987 0.21882
 C423 C 0.41068 -0.02904 0.19285
 H424 H 0.41008 -0.04575 0.18328
 N425 N 0.39641 -0.00453 0.22476
 C426 C 0.33890 0.03344 0.26203
 H427 H 0.33873 0.02417 0.27875
 C428 C 0.32264 0.05184 0.25818
 H429 H 0.31009 0.05694 0.27207
 C430 C 0.35532 0.03800 0.22340
 H431 H 0.36770 0.03227 0.20969
 C432 C 0.33928 0.05640 0.21876
 H433 H 0.33964 0.06494 0.20162
 Zn434 Zn 0.37552 0.00107 0.25097
 N435 N 0.35496 0.02705 0.24483
 C436 C 0.39391 0.02796 0.29000
 N437 N 0.39490 0.00698 0.27797
 C438 C 0.41013 -0.01055 0.28471
 C439 C 0.42430 -0.00778 0.30493
 C440 C 0.40793 0.03154 0.31024
 C441 C 0.34100 -0.03264 0.23792
 C442 C 0.32663 -0.05280 0.24015
 C443 C 0.34076 -0.05701 0.28037
 C444 C 0.35513 -0.03694 0.27728
 N445 N 0.35544 -0.02557 0.25608
 H446 H 0.38228 0.04196 0.28396
 H447 H 0.41090 -0.02688 0.27455
 H448 H 0.43599 -0.02205 0.31039
 H449 H 0.40695 0.04826 0.31977
 H450 H 0.34112 -0.02289 0.22147
 H451 H 0.31575 -0.05867 0.22532
 H452 H 0.34075 -0.06605 0.29725
 H453 H 0.36598 -0.03053 0.29183
 C454 C 0.32258 0.06332 0.23621
 C455 C 0.42560 -0.01061 0.18510
 C456 C 0.32686 -0.06550 0.26141
 C457 C 0.42293 0.01331 0.31816
 C458 C 0.08882 -0.01133 0.71881
 H459 H 0.08709 -0.02795 0.72787
 C460 C 0.07261 -0.00592 0.70082
 H461 H 0.05832 -0.01828 0.69651
 C462 C 0.10962 0.02476 0.71275
 H463 H 0.12426 0.03657 0.71714
 C464 C 0.09396 0.03073 0.69442
 H465 H 0.09658 0.04713 0.68491
 N466 N 0.10653 0.00422 0.72492
 C467 C 0.15645 -0.04173 0.76134
 H468 H 0.15263 -0.03662 0.77952
 C469 C 0.17246 -0.06020 0.75652
 H470 H 0.18085 -0.06950 0.77102
 C471 C 0.15071 -0.03541 0.72018
 H472 H 0.14246 -0.02536 0.70615
 C473 C 0.16675 -0.05369 0.71456
 H474 H 0.17076 -0.05781 0.69615
 Zn475 Zn 0.12715 -0.00296 0.75087
 N476 N 0.14616 -0.02964 0.74326
 C477 C 0.09487 -0.03005 0.77827
 N478 N 0.10851 -0.01001 0.77845
 C479 C 0.10923 0.00430 0.79803
 C480 C 0.09518 -0.00086 0.81798
 C481 C 0.08029 -0.03566 0.79766
 C482 C 0.17217 0.02007 0.75564
 C483 C 0.18777 0.03891 0.76038
 C484 C 0.15324 0.06400 0.76761
 C485 C 0.13827 0.04471 0.76264
 N486 N 0.14789 0.02320 0.75702
 H487 H 0.09549 -0.04194 0.76319
 H488 H 0.12070 0.01971 0.79837
 H489 H 0.09577 0.01078 0.83335
 H490 H 0.06903 -0.05132 0.79693
 H491 H 0.17953 0.00295 0.75096
 H492 H 0.20706 0.03623 0.75946
 H493 H 0.14546 0.08099 0.77234
 H494 H 0.11892 0.04682 0.76339
 C495 C 0.17817 -0.06592 0.73289
 C496 C 0.07480 0.01556 0.68876
 C497 C 0.17824 0.06104 0.76659
 C498 C 0.08047 -0.02105 0.81789
 C499 C 0.58835 0.48933 0.21978
 H500 H 0.58641 0.47324 0.22990
 C501 C 0.57265 0.49391 0.20109
 H502 H 0.55857 0.48130 0.19684
 C503 C 0.60878 0.52559 0.21322
 H504 H 0.62258 0.53812 0.21819
 C505 C 0.59372 0.53068 0.19418
 H506 H 0.59634 0.54689 0.18435
 N507 N 0.60597 0.50510 0.22549
 C508 C 0.66049 0.46447 0.26253
 H509 H 0.66037 0.47374 0.27942
 C510 C 0.67672 0.44603 0.25849
 H511 H 0.68908 0.44093 0.27233
 C512 C 0.64483 0.46012 0.22364
 H513 H 0.63266 0.46598 0.21000
 C514 C 0.66079 0.44154 0.21885
 H515 H 0.66076 0.43299 0.20156
 Zn516 Zn 0.62566 0.49791 0.25181
 N517 N 0.64507 0.47120 0.24518
 C518 C 0.60162 0.46851 0.28434
 N519 N 0.60502 0.49143 0.27792
 C520 C 0.59290 0.50930 0.28904
 C521 C 0.57866 0.50468 0.30899
 C522 C 0.58644 0.46298 0.30333
 C523 C 0.66357 0.52829 0.24100
 C524 C 0.67929 0.54743 0.24353
 C525 C 0.66184 0.55544 0.28211
 C526 C 0.64674 0.53589 0.27902
 N527 N 0.64715 0.52335 0.25827
 H528 H 0.61035 0.45442 0.27447
 H529 H 0.59465 0.52725 0.28271
 H530 H 0.57011 0.51929 0.31830
 H531 H 0.58341 0.44458 0.30770
 H532 H 0.66412 0.51756 0.22500
 H533 H 0.69207 0.55136 0.22952
 H534 H 0.66082 0.56572 0.29840
 H535 H 0.63473 0.53095 0.29322
 C536 C 0.67719 0.43465 0.23630
 C537 C 0.57512 0.51494 0.18824
 C538 C 0.67788 0.56175 0.26394
 C539 C 0.57567 0.48126 0.31672
 C540 C 0.91096 0.50942 0.72036
 H541 H 0.91032 0.52641 0.72937
 C542 C 0.92839 0.50514 0.70292
 H543 H 0.94102 0.51898 0.69821
 C544 C 0.89548 0.47051 0.71570
 H545 H 0.88298 0.45688 0.72107
 C546 C 0.91273 0.46542 0.69830
 H547 H 0.91320 0.44800 0.69011
 N548 N 0.89484 0.49226 0.72627
 C549 C 0.83602 0.53100 0.76058
 H550 H 0.83497 0.52174 0.77728
 C551 C 0.81991 0.54929 0.75582
 H552 H 0.80648 0.55427 0.76893
 C553 C 0.85454 0.53560 0.72287
 H554 H 0.86772 0.52992 0.70988
 C555 C 0.83878 0.55399 0.71739
 H556 H 0.84006 0.56255 0.70030
 Zn557 Zn 0.87319 0.49872 0.75150
 N558 N 0.85297 0.52460 0.74423
 C559 C 0.89154 0.52674 0.78973
 N560 N 0.89245 0.50545 0.77827
 C561 C 0.90877 0.48865 0.78434
 C562 C 0.92504 0.49292 0.80265
 C563 C 0.90759 0.53179 0.80811
 C564 C 0.83800 0.46558 0.73923
 C565 C 0.82345 0.44555 0.74161
 C566 C 0.83980 0.43983 0.78082
 C567 C 0.85403 0.45998 0.77771
 N568 N 0.85324 0.47210 0.75695
 H569 H 0.87881 0.54005 0.78427
 H570 H 0.90935 0.47203 0.77466
 H571 H 0.93803 0.47946 0.80729
 H572 H 0.90700 0.54890 0.81693
 H573 H 0.83750 0.47575 0.72306
 H574 H 0.81171 0.44024 0.72723
 H575 H 0.84074 0.43008 0.79726
 H576 H 0.86578 0.46579 0.79182
 C577 C 0.82110 0.56079 0.73389
 C578 C 0.92958 0.48278 0.69197
 C579 C 0.82465 0.43226 0.76244
 C580 C 0.92481 0.51488 0.81442
 C581 C 0.21889 0.41256 0.01311
 H582 H 0.22977 0.41384 0.02894
 C583 C 0.20010 0.42854 0.00963
 H584 H 0.19626 0.44196 0.02296
 C585 C 0.21078 0.39377 -0.02379
 H586 H 0.21518 0.38040 -0.03693
 C587 C 0.19198 0.40951 -0.02808
 H588 H 0.18190 0.40809 -0.04443
 N589 N 0.22378 0.39553 -0.00344
 C590 C 0.26021 0.33623 0.02981
 H591 H 0.27502 0.33378 0.01750
 C592 C 0.25628 0.31984 0.04786
 H593 H 0.26815 0.30474 0.04945
 C594 C 0.22627 0.35855 0.04239
 H595 H 0.21438 0.37343 0.04006
 C596 C 0.22194 0.34281 0.06089
 H597 H 0.20695 0.34589 0.07290
 Zn598 Zn 0.25059 0.37547 0.00126
 N599 N 0.24520 0.35506 0.02732
 C600 C 0.29287 0.39098 0.02509
 N601 N 0.27763 0.39509 0.00676
 C602 C 0.28055 0.41416 -0.00757
 C603 C 0.29927 0.43019 -0.00358
 C604 C 0.31200 0.40645 0.02956
 C605 C 0.24002 0.33819 -0.02991
 C606 C 0.24234 0.32388 -0.05011
 C607 C 0.27661 0.34738 -0.06219
 C608 C 0.27383 0.36108 -0.04159
 N609 N 0.25552 0.35649 -0.02615
 H610 H 0.29014 0.37583 0.03637
 H611 H 0.26804 0.41709 -0.02190
 H612 H 0.30122 0.44547 -0.01491
 H613 H 0.32409 0.40303 0.04415
 H614 H 0.22577 0.33481 -0.01722
 H615 H 0.22995 0.30930 -0.05287
 H616 H 0.29101 0.35139 -0.07455
 H617 H 0.28612 0.37552 -0.03813
 C618 C 0.23674 0.32289 0.06343
 C619 C 0.18670 0.42731 -0.01138
 C620 C 0.26049 0.32878 -0.06677
 C621 C 0.31502 0.42656 0.01539
 C622 C 0.72199 0.08719 -0.01138
 H623 H 0.73279 0.08615 -0.02739
 C624 C 0.70419 0.07024 -0.00714
 H625 H 0.70124 0.05616 -0.01997
 C626 C 0.71312 0.10645 0.02518
 H627 H 0.71693 0.12022 0.03800
 C628 C 0.69489 0.09008 0.02994
 H629 H 0.68445 0.09172 0.04616
 N630 N 0.72616 0.10481 0.00471
 C631 C 0.76243 0.16024 -0.03535
 H632 H 0.77890 0.16174 -0.02529
 C633 C 0.75900 0.17428 -0.05529
 H634 H 0.77291 0.18661 -0.06066
 C635 C 0.72419 0.14226 -0.04063
 H636 H 0.71062 0.12989 -0.03470
 C637 C 0.71993 0.15613 -0.06059
 H638 H 0.70307 0.15440 -0.07001
 Zn639 Zn 0.75205 0.12565 -0.00193
 N640 N 0.74533 0.14432 -0.02871
 C641 C 0.79059 0.10648 -0.02944
 N642 N 0.77942 0.10652 -0.00788
 C643 C 0.78684 0.09206 0.00981
 C644 C 0.80684 0.07746 0.00650
 C645 C 0.81055 0.09198 -0.03358
 C646 C 0.73983 0.16141 0.03096
 C647 C 0.74303 0.17657 0.05041
 C648 C 0.78379 0.16219 0.05395
 C649 C 0.77974 0.14712 0.03463
 N650 N 0.75783 0.14656 0.02393
 H651 H 0.78392 0.11743 -0.04357
 H652 H 0.77725 0.09203 0.02658
 H653 H 0.81277 0.06622 0.02081
 H654 H 0.81925 0.09195 -0.05083
 H655 H 0.72283 0.16115 0.02168
 H656 H 0.72838 0.18788 0.05625
 H657 H 0.80125 0.16239 0.06243
 H658 H 0.79417 0.13596 0.02819
 C659 C 0.73770 0.17200 -0.06833
 C660 C 0.69062 0.07143 0.01389
 C661 C 0.76507 0.17665 0.06242
 C662 C 0.81909 0.07759 -0.01531
 C663 C 0.21685 0.58737 0.48519
 H664 H 0.22887 0.58475 0.47022
 C665 C 0.19643 0.57316 0.48761
 H666 H 0.19277 0.55944 0.47456
 C667 C 0.20724 0.60810 0.52077
 H668 H 0.21165 0.62159 0.53374
 C669 C 0.18648 0.59443 0.52375
 H670 H 0.17490 0.59753 0.53899
 N671 N 0.22172 0.60457 0.50152
 C672 C 0.26256 0.65926 0.46542
 H673 H 0.27913 0.65912 0.47543
 C674 C 0.25925 0.67591 0.44756
 H675 H 0.27338 0.68853 0.44362
 C676 C 0.22364 0.64330 0.45863
 H677 H 0.20965 0.63085 0.46328
 C678 C 0.21957 0.65966 0.44068
 H679 H 0.20253 0.65963 0.43142
 Zn680 Zn 0.24968 0.62297 0.49647
 N681 N 0.24486 0.64342 0.47059
 C682 C 0.28662 0.60204 0.46840
 N683 N 0.27525 0.60175 0.48987
 C684 C 0.28058 0.58513 0.50635
 C685 C 0.29820 0.56810 0.50166
 C686 C 0.30412 0.58512 0.46286
 C687 C 0.24111 0.66098 0.52716
 C688 C 0.24541 0.67701 0.54565
 C689 C 0.28059 0.65437 0.55615
 C690 C 0.27583 0.63894 0.53722
 N691 N 0.25626 0.64242 0.52325
 H692 H 0.28174 0.61501 0.45531
 H693 H 0.27092 0.58498 0.52307
 H694 H 0.30244 0.55508 0.51501
 H695 H 0.31282 0.58532 0.44561
 H696 H 0.22583 0.66348 0.51562
 H697 H 0.23335 0.69185 0.54838
 H698 H 0.29608 0.65131 0.56731
 H699 H 0.28792 0.62438 0.53366
 C700 C 0.23739 0.67638 0.43528
 C701 C 0.18076 0.57695 0.50685
 C702 C 0.26552 0.67393 0.56021
 C703 C 0.30980 0.56769 0.47948
 C704 C 0.72076 0.91235 0.51092
 H705 H 0.73176 0.91412 0.52663
 C706 C 0.70215 0.92842 0.50690
 H707 H 0.69862 0.94245 0.51967
 C708 C 0.71221 0.89228 0.47479
 H709 H 0.71641 0.87844 0.46210
 C710 C 0.69351 0.90801 0.47004
 H711 H 0.68331 0.90609 0.45380
 N712 N 0.72539 0.89468 0.49498
 C713 C 0.76290 0.83729 0.53058
 H714 H 0.77718 0.83421 0.51779
 C715 C 0.76069 0.82269 0.55035
 H716 H 0.77318 0.80819 0.55267
 C717 C 0.72885 0.85960 0.54286
 H718 H 0.71632 0.87382 0.53977
 C719 C 0.72620 0.84563 0.56306
 H720 H 0.71171 0.84930 0.57549
 Zn721 Zn 0.75213 0.87465 0.50028
 N722 N 0.74725 0.85548 0.52734
 C723 C 0.79344 0.89185 0.52438
 N724 N 0.77949 0.89422 0.50477
 C725 C 0.78445 0.91091 0.48817
 C726 C 0.80473 0.92539 0.49043
 C727 C 0.81380 0.90606 0.52742
 C728 C 0.74048 0.83674 0.47000
 C729 C 0.74270 0.82166 0.45034
 C730 C 0.77869 0.84282 0.43883
 C731 C 0.77597 0.85730 0.45886
 N732 N 0.75681 0.85436 0.47370
 H733 H 0.78888 0.87891 0.53768
 H734 H 0.77276 0.91276 0.47300
 H735 H 0.80874 0.93835 0.47692
 H736 H 0.82483 0.90400 0.54306
 H737 H 0.72562 0.83456 0.48229
 H738 H 0.72962 0.80768 0.44757
 H739 H 0.79379 0.84561 0.42692
 H740 H 0.78909 0.87098 0.46233
 C741 C 0.74249 0.82717 0.56714
 C742 C 0.68858 0.92650 0.48605
 C743 C 0.76170 0.82502 0.43421
 C744 C 0.81987 0.92271 0.51005
 C745 C 0.01204 0.20680 0.39886
 H746 H 0.02835 0.20817 0.38845
 C747 C 0.00898 0.18763 0.41405
 H748 H 0.02285 0.17422 0.41506
 C749 C -0.02530 0.22305 0.41133
 H750 H -0.03842 0.23715 0.41035
 C751 C -0.02926 0.20397 0.42650
 H752 H -0.04561 0.20325 0.43704
 N753 N -0.00528 0.22374 0.39733
 C754 C 0.04479 0.26071 0.35647
 H755 H 0.04409 0.27641 0.36756
 C756 C 0.06417 0.25731 0.34088
 H757 H 0.07843 0.27037 0.34006
 C758 C 0.02667 0.22498 0.34313
 H759 H 0.01177 0.21265 0.34394
 C760 C 0.04583 0.22071 0.32760
 H761 H 0.04580 0.20492 0.31656
 Zn762 Zn -0.00109 0.24952 0.37631
 N763 N 0.02652 0.24466 0.35721
 C764 C 0.01904 0.27710 0.41252
 N765 N 0.00220 0.27731 0.39507
 C766 C -0.01239 0.29635 0.39195
 C767 C -0.01025 0.31625 0.40665
 C768 C 0.02150 0.29649 0.42789
 C769 C -0.04641 0.23686 0.35596
 C770 C -0.06537 0.23903 0.33994
 C771 C -0.04476 0.27216 0.32208
 C772 C -0.02618 0.26936 0.33843
 N773 N -0.02747 0.25216 0.35518
 H774 H 0.03032 0.26168 0.41469
 H775 H -0.02590 0.29612 0.37826
 H776 H -0.02183 0.33138 0.40387
 H777 H 0.03472 0.29599 0.44193
 H778 H -0.04684 0.22282 0.36882
 H779 H -0.08049 0.22693 0.34088
 H780 H -0.04365 0.28604 0.30897
 H781 H -0.01069 0.28097 0.33785
 C782 C 0.06456 0.23729 0.32596
 C783 C -0.01221 0.18573 0.42754
 C784 C -0.06456 0.25679 0.32272
 C785 C 0.00647 0.31622 0.42523
 C786 C 0.00130 0.72673 0.08090
 H787 H -0.00734 0.74259 0.07460
 C788 C 0.00551 0.70797 0.06513
 H789 H 0.00036 0.70954 0.04670
 C790 C 0.01819 0.70497 0.11251
 H791 H 0.02299 0.70377 0.13098
 C792 C 0.02278 0.68581 0.09733
 H793 H 0.03116 0.66998 0.10416
 N794 N 0.00798 0.72508 0.10405
 C795 C -0.02642 0.75948 0.16437
 H796 H -0.01443 0.77434 0.16717
 C797 C -0.04463 0.75472 0.18082
 H798 H -0.04671 0.76599 0.19635
 C799 C -0.03803 0.72633 0.14092
 H800 H -0.03526 0.71530 0.12536
 C801 C -0.05662 0.72108 0.15681
 H802 H -0.06828 0.70605 0.15340
 Zn803 Zn 0.00291 0.75138 0.12468
 N804 N -0.02333 0.74518 0.14506
 C805 C -0.02426 0.79088 0.10916
 N806 N -0.00336 0.77861 0.10627
 C807 C 0.01334 0.78518 0.08983
 C808 C 0.00984 0.80538 0.07624
 C809 C -0.02866 0.81102 0.09563
 C810 C 0.03421 0.74100 0.16206
 C811 C 0.05412 0.74364 0.17686
 C812 C 0.06578 0.77823 0.15466
 C813 C 0.04556 0.77505 0.14038
 N814 N 0.03051 0.75634 0.14394
 H815 H -0.03756 0.78505 0.12191
 H816 H 0.02950 0.77474 0.08742
 H817 H 0.02348 0.81063 0.06351
 H818 H -0.04540 0.82060 0.09795
 H819 H 0.02148 0.72687 0.16526
 H820 H 0.05683 0.73137 0.19127
 H821 H 0.07777 0.79303 0.15148
 H822 H 0.04203 0.78763 0.12658
 C823 C -0.05969 0.73509 0.17728
 C824 C 0.01671 0.68743 0.07331
 C825 C 0.07038 0.76219 0.17289
 C826 C -0.01120 0.81874 0.07935
 C827 C 0.50916 0.22701 0.58242
 H828 H 0.50907 0.24449 0.57489
 C829 C 0.51430 0.20764 0.56776
 H830 H 0.51833 0.21037 0.54915
 C831 C 0.50358 0.20181 0.61543
 H832 H 0.49898 0.19967 0.63396
 C833 C 0.50853 0.18188 0.60133
 H834 H 0.50809 0.16440 0.60907
 N835 N 0.50437 0.22389 0.60591
 C836 C 0.46941 0.25059 0.66713
 H837 H 0.48521 0.25830 0.67522
 C838 C 0.44862 0.24735 0.68072
 H839 H 0.44845 0.25254 0.69928
 C840 C 0.45001 0.23484 0.63304
 H841 H 0.45073 0.23021 0.61438
 C842 C 0.42884 0.23119 0.64605
 H843 H 0.41315 0.22375 0.63742
 Zn844 Zn 0.49770 0.25062 0.62558
 N845 N 0.46965 0.24459 0.64369
 C846 C 0.47069 0.28744 0.60435
 N847 N 0.49295 0.27767 0.60646
 C848 C 0.51236 0.28689 0.59491
 C849 C 0.50963 0.30618 0.57987
 C850 C 0.46715 0.30673 0.58942
 C851 C 0.53606 0.23857 0.65635
 C852 C 0.55409 0.24314 0.67296
 C853 C 0.54636 0.28502 0.66901
 C854 C 0.52845 0.27967 0.65253
 N855 N 0.52363 0.25675 0.64654
 H856 H 0.45558 0.28010 0.61394
 H857 H 0.52992 0.27898 0.59715
 H858 H 0.52511 0.31320 0.57050
 H859 H 0.44929 0.31412 0.58749
 H860 H 0.53183 0.22050 0.65160
 H861 H 0.56375 0.22857 0.68087
 H862 H 0.54986 0.30330 0.67388
 H863 H 0.51802 0.29383 0.64493
 C864 C 0.42802 0.23782 0.67006
 C865 C 0.51432 0.18485 0.57731
 C866 C 0.55913 0.26659 0.67959
 C867 C 0.48671 0.31595 0.57668
 C868 C 0.50982 0.71975 0.91355
 H869 H 0.52453 0.73207 0.91609
 C870 C 0.50616 0.70143 0.92969
 H871 H 0.51811 0.69963 0.94469
 C872 C 0.47588 0.70741 0.89126
 H873 H 0.46396 0.70993 0.87643
 C874 C 0.47175 0.68870 0.90680
 H875 H 0.45680 0.67675 0.90371
 N876 N 0.49464 0.72252 0.89491
 C877 C 0.52873 0.75880 0.83573
 H878 H 0.51667 0.77366 0.83372
 C879 C 0.54700 0.75481 0.81905
 H880 H 0.54907 0.76668 0.80418
 C881 C 0.54035 0.72477 0.85721
 H882 H 0.53752 0.71296 0.87194
 C883 C 0.55895 0.72022 0.84102
 H884 H 0.57053 0.70504 0.84349
 Zn885 Zn 0.49920 0.74899 0.87493
 N886 N 0.52568 0.74378 0.85426
 C887 C 0.52388 0.79038 0.89049
 N888 N 0.50476 0.77584 0.89456
 C889 C 0.48992 0.77930 0.91356
 C890 C 0.49419 0.79788 0.92953
 C891 C 0.52866 0.80929 0.90590
 C892 C 0.46837 0.73852 0.83720
 C893 C 0.44822 0.74071 0.82269
 C894 C 0.43490 0.77363 0.84707
 C895 C 0.45545 0.77098 0.86099
 N896 N 0.47150 0.75341 0.85604
 H897 H 0.53560 0.78723 0.87544
 H898 H 0.47500 0.76734 0.91653
 H899 H 0.48245 0.80027 0.94478
 H900 H 0.54391 0.82077 0.90250
 H901 H 0.48156 0.72489 0.83349
 H902 H 0.44598 0.72882 0.80767
 H903 H 0.42208 0.78749 0.85132
 H904 H 0.45842 0.78284 0.87582
 C905 C 0.56208 0.73510 0.82144
 C906 C 0.48667 0.68592 0.92658
 C907 C 0.43099 0.75815 0.82788
 C908 C 0.51398 0.81287 0.92594
 C909 C 0.09994 0.22633 0.26825
 C910 C 0.12367 0.22527 0.27745
 C911 C 0.12726 0.22782 0.30193
 C912 C 0.10795 0.23195 0.31726
 C913 C 0.08442 0.23373 0.30861
 C914 C 0.08027 0.23133 0.28385
 C915 C 0.09519 0.22203 0.24396
 C916 C 0.07194 0.22409 0.23503
 C917 C 0.05300 0.23045 0.25000
 C918 C 0.05702 0.23408 0.27416
 H919 H 0.10921 0.21666 0.23170
 H920 H 0.06858 0.22085 0.21637
 H921 H 0.03506 0.23238 0.24286
 H922 H 0.04177 0.23920 0.28503
 H923 H 0.14524 0.22699 0.30924
 H924 H 0.11140 0.23369 0.33611
 C925 C 0.60116 0.70492 0.77364
 C926 C 0.61954 0.72224 0.77128
 C927 C 0.61790 0.74344 0.78424
 C928 C 0.59906 0.74731 0.80019
 C929 C 0.58114 0.73018 0.80356
 C930 C 0.58176 0.70896 0.78986
 C931 C 0.60112 0.68405 0.75962
 C932 C 0.58268 0.66743 0.76180
 C933 C 0.56376 0.67139 0.77760
 C934 C 0.56311 0.69199 0.79138
 H935 H 0.61498 0.68054 0.74654
 H936 H 0.58291 0.65153 0.75093
 H937 H 0.54934 0.65855 0.77898
 H938 H 0.54768 0.69461 0.80287
 H939 H 0.63168 0.75691 0.78243
 H940 H 0.59868 0.76370 0.81033
 C941 C 0.37281 0.74523 0.79352
 C942 C 0.37014 0.76713 0.78163
 C943 C 0.38636 0.78557 0.78628
 C944 C 0.40567 0.78238 0.80154
 C945 C 0.40931 0.76069 0.81283
 C946 C 0.39250 0.74202 0.80933
 C947 C 0.35589 0.72673 0.79072
 C948 C 0.35849 0.70549 0.80287
 C949 C 0.37764 0.70239 0.81833
 C950 C 0.39439 0.72048 0.82175
 H951 H 0.34026 0.72857 0.77955
 H952 H 0.34538 0.69147 0.80053
 H953 H 0.37937 0.68597 0.82795
 H954 H 0.40852 0.71752 0.83451
 H955 H 0.38442 0.80246 0.77751
 H956 H 0.41822 0.79686 0.80418
 C957 C -0.11211 0.24471 0.27493
 C958 C -0.12494 0.26667 0.27570
 C959 C -0.11815 0.28373 0.29278
 C960 C -0.09843 0.28028 0.30745
 C961 C -0.08468 0.25964 0.30582
 C962 C -0.09122 0.24175 0.28928
 C963 C -0.12031 0.22494 0.26163
 C964 C -0.10676 0.20422 0.26005
 C965 C -0.08514 0.20238 0.27218
 C966 C -0.07750 0.22081 0.28689
 H967 H -0.13766 0.22475 0.25313
 H968 H -0.11318 0.18943 0.24948
 H969 H -0.07457 0.18634 0.27070
 H970 H -0.06084 0.21844 0.29643
 H971 H -0.12742 0.30053 0.29426
 H972 H -0.09378 0.29397 0.32022
 C973 C -0.09924 0.70323 0.22312
 C974 C -0.11711 0.72083 0.22688
 C975 C -0.11509 0.74257 0.21531
 C976 C -0.09633 0.74682 0.19946
 C977 C -0.07883 0.72954 0.19482
 C978 C -0.07986 0.70767 0.20704
 C979 C -0.09968 0.68166 0.23564
 C980 C -0.08168 0.66478 0.23220
 C981 C -0.06273 0.66915 0.21660
 C982 C -0.06164 0.69042 0.20426
 H983 H -0.11360 0.67776 0.24850
 H984 H -0.08227 0.64835 0.24194
 H985 H -0.04864 0.65610 0.21426
 H986 H -0.04619 0.69329 0.19290
 H987 H -0.12849 0.75624 0.21819
 H988 H -0.09564 0.76368 0.19044
 C989 C 0.37093 0.25197 0.70583
 C990 C 0.36494 0.22880 0.71404
 C991 C 0.37789 0.20939 0.70470
 C992 C 0.39783 0.21265 0.69001
 C993 C 0.40554 0.23538 0.68401
 C994 C 0.39185 0.25526 0.69140
 C995 C 0.35581 0.27172 0.71008
 C996 C 0.36233 0.29428 0.70249
 C997 C 0.38358 0.29763 0.68982
 C998 C 0.39807 0.27832 0.68397
 H999 H 0.33832 0.26991 0.71832
 H1000 H 0.35061 0.30920 0.70613
 H1001 H 0.38849 0.31517 0.68388
 H1002 H 0.41386 0.28158 0.67314
 H1003 H 0.37373 0.19145 0.70997
 H1004 H 0.40794 0.19730 0.68404
 C1005 C 0.59239 0.27141 0.73888
 C1006 C 0.61456 0.28161 0.73096
 C1007 C 0.61640 0.28880 0.70716
 C1008 C 0.59820 0.28396 0.69097
 C1009 C 0.57740 0.27188 0.69789
 C1010 C 0.57403 0.26594 0.72205
 C1011 C 0.58711 0.26826 0.76326
 C1012 C 0.56549 0.25805 0.77061
 C1013 C 0.54828 0.25144 0.75401
 C1014 C 0.55226 0.25563 0.72999
 H1015 H 0.59898 0.27462 0.77702
 H1016 H 0.56188 0.25565 0.78934
 H1017 H 0.53144 0.24370 0.75984
 H1018 H 0.53790 0.25123 0.71784
 H1019 H 0.63265 0.29701 0.70042
 H1020 H 0.60069 0.28909 0.67263
 C1021 C 0.12931 0.75192 0.20649
 C1022 C 0.13023 0.77324 0.22000
 C1023 C 0.11256 0.79053 0.21674
 C1024 C 0.09353 0.78667 0.20124
 C1025 C 0.09164 0.76545 0.18835
 C1026 C 0.10986 0.74801 0.19049
 C1027 C 0.14772 0.73475 0.20786
 C1028 C 0.14676 0.71409 0.19416
 C1029 C 0.12778 0.71028 0.17859
 C1030 C 0.10958 0.72710 0.17655
 H1031 H 0.16323 0.73725 0.21909
 H1032 H 0.16100 0.70110 0.19543
 H1033 H 0.12731 0.69433 0.16780
 H1034 H 0.09558 0.72369 0.16371
 H1035 H 0.11314 0.80698 0.22678
 H1036 H 0.07986 0.80023 0.19962
 C1037 C 0.26466 0.09942 0.22840
 C1038 C 0.27486 0.12208 0.22420
 C1039 C 0.29991 0.12449 0.22282
 C1040 C 0.31496 0.10521 0.22652
 C1041 C 0.30545 0.08284 0.23160
 C1042 C 0.28010 0.07963 0.23210
 C1043 C 0.23949 0.09577 0.22814
 C1044 C 0.22977 0.07332 0.23179
 C1045 C 0.24483 0.05403 0.23542
 C1046 C 0.26974 0.05703 0.23541
 H1047 H 0.22709 0.11003 0.22464
 H1048 H 0.21045 0.07081 0.23150
 H1049 H 0.23716 0.03660 0.23796
 H1050 H 0.28072 0.04141 0.23761
 H1051 H 0.30795 0.14162 0.21935
 H1052 H 0.33428 0.10787 0.22582
 C1053 C 0.76316 0.59496 0.72057
 C1054 C 0.77274 0.61822 0.71865
 C1055 C 0.79765 0.62164 0.72044
 C1056 C 0.81297 0.60280 0.72512
 C1057 C 0.80389 0.57989 0.72819
 C1058 C 0.77887 0.57568 0.72556
 C1059 C 0.73847 0.59023 0.71681
 C1060 C 0.72939 0.56729 0.71867
 C1061 C 0.74467 0.54857 0.72386
 C1062 C 0.76920 0.55259 0.72709
 H1063 H 0.72602 0.60398 0.71188
 H1064 H 0.71042 0.56398 0.71579
 H1065 H 0.73753 0.53077 0.72507
 H1066 H 0.78049 0.53740 0.73042
 H1067 H 0.80529 0.63922 0.71879
 H1068 H 0.83210 0.60618 0.72683
 C1069 C 0.80533 0.36742 0.76907
 C1070 C 0.77998 0.37044 0.77075
 C1071 C 0.77017 0.39315 0.76852
 C1072 C 0.78492 0.41285 0.76566
 C1073 C 0.80998 0.41052 0.76497
 C1074 C 0.82045 0.38768 0.76632
 C1075 C 0.81600 0.34472 0.76916
 C1076 C 0.84090 0.34209 0.76736
 C1077 C 0.85564 0.36187 0.76502
 C1078 C 0.84560 0.38445 0.76429
 H1079 H 0.80531 0.32877 0.77007
 H1080 H 0.84878 0.32457 0.76751
 H1081 H 0.87494 0.35968 0.76342
 H1082 H 0.85770 0.39925 0.76179
 H1083 H 0.75086 0.39575 0.76955
 H1084 H 0.77671 0.43019 0.76437
 C1085 C 0.30747 -0.12990 0.27218
 C1086 C 0.28196 -0.12739 0.27029
 C1087 C 0.27267 -0.10550 0.26295
 C1088 C 0.28751 -0.08590 0.26001
 C1089 C 0.31230 -0.08740 0.26386
 C1090 C 0.32264 -0.10966 0.26928
 C1091 C 0.31850 -0.15231 0.27483
 C1092 C 0.34342 -0.15446 0.27647
 C1093 C 0.35804 -0.13459 0.27464
 C1094 C 0.34788 -0.11245 0.27069
 H1095 H 0.30827 -0.16856 0.27453
 H1096 H 0.35147 -0.17176 0.27862
 H1097 H 0.37741 -0.13643 0.27558
 H1098 H 0.36010 -0.09778 0.26811
 H1099 H 0.25348 -0.10292 0.26085
 H1100 H 0.27942 -0.06913 0.25535
 C1101 C 0.23759 -0.10040 0.72869
 C1102 C 0.22920 -0.12179 0.71775
 C1103 C 0.20522 -0.12271 0.70985
 C1104 C 0.18918 -0.10437 0.71466
 C1105 C 0.19644 -0.08428 0.72738
 C1106 C 0.22092 -0.08181 0.73400
 C1107 C 0.26235 -0.09611 0.73271
 C1108 C 0.27018 -0.07521 0.74354
 C1109 C 0.25373 -0.05772 0.74982
 C1110 C 0.22940 -0.06072 0.74478
 H1111 H 0.27612 -0.10818 0.72658
 H1112 H 0.28919 -0.07238 0.74661
 H1113 H 0.25995 -0.04141 0.75798
 H1114 H 0.21750 -0.04610 0.74888
 H1115 H 0.19818 -0.13835 0.70106
 H1116 H 0.17064 -0.10621 0.70904
 C1117 C 0.73636 0.40106 0.22599
 C1118 C 0.72720 0.37770 0.22320
 C1119 C 0.70224 0.37401 0.22359
 C1120 C 0.68639 0.39269 0.22757
 C1121 C 0.69496 0.41571 0.23132
 C1122 C 0.72008 0.42019 0.23023
 C1123 C 0.76120 0.40604 0.22378
 C1124 C 0.76985 0.42910 0.22640
 C1125 C 0.75400 0.44768 0.23085
 C1126 C 0.72934 0.44339 0.23257
 H1127 H 0.77415 0.39239 0.21953
 H1128 H 0.78894 0.43260 0.22469
 H1129 H 0.76082 0.46557 0.23265
 H1130 H 0.71765 0.45847 0.23538
 H1131 H 0.69492 0.35635 0.22127
 H1132 H 0.66723 0.38910 0.22815
 C1133 C 0.70953 0.62124 0.25322
 C1134 C 0.72462 0.62199 0.27341
 C1135 C 0.72357 0.60373 0.28997
 C1136 C 0.70836 0.58443 0.28653
 C1137 C 0.69342 0.58298 0.26660
 C1138 C 0.69351 0.60175 0.24995
 C1139 C 0.70945 0.63984 0.23662
 C1140 C 0.69387 0.63933 0.21732
 C1141 C 0.67787 0.62058 0.21436
 C1142 C 0.67749 0.60204 0.23055
 H1143 H 0.72117 0.65504 0.23853
 H1144 H 0.69398 0.65373 0.20476
 H1145 H 0.66555 0.62048 0.19954
 H1146 H 0.66425 0.58825 0.22786
 H1147 H 0.73488 0.60428 0.30557
 H1148 H 0.70836 0.57037 0.29949
 C1149 C 0.21682 0.10570 0.80090
 C1150 C 0.22617 0.11909 0.78167
 C1151 C 0.22014 0.11263 0.75837
 C1152 C 0.20456 0.09382 0.75385
 C1153 C 0.19448 0.08092 0.77250
 C1154 C 0.20055 0.08668 0.79623
 C1155 C 0.22381 0.11018 0.82459
 C1156 C 0.21421 0.09701 0.84321
 C1157 C 0.19779 0.07892 0.83866
 C1158 C 0.19110 0.07363 0.81541
 H1159 H 0.23707 0.12348 0.82901
 H1160 H 0.21967 0.10075 0.86128
 H1161 H 0.19044 0.06875 0.85320
 H1162 H 0.17862 0.05915 0.81260
 H1163 H 0.22720 0.12254 0.74349
 H1164 H 0.20014 0.08940 0.73564
 C1165 C 0.20599 0.27821 0.10482
 C1166 C 0.22477 0.27488 0.12144
 C1167 C 0.24699 0.28601 0.11784
 C1168 C 0.25055 0.30120 0.09882
 C1169 C 0.23208 0.30555 0.08259
 C1170 C 0.20974 0.29353 0.08512
 C1171 C 0.18383 0.26604 0.10684
 C1172 C 0.16574 0.26909 0.09010
 C1173 C 0.16946 0.28386 0.07080
 C1174 C 0.19128 0.29580 0.06813
 H1175 H 0.18037 0.25374 0.12104
 H1176 H 0.14886 0.25966 0.09192
 H1177 H 0.15547 0.28586 0.05767
 H1178 H 0.19359 0.30643 0.05242
 H1179 H 0.26157 0.28341 0.13026
 H1180 H 0.26778 0.31005 0.09702
 C1181 C 0.75546 0.79339 0.62465
 C1182 C 0.73317 0.78139 0.62743
 C1183 C 0.71458 0.78552 0.61133
 C1184 C 0.71794 0.80050 0.59212
 C1185 C 0.73994 0.81212 0.58851
 C1186 C 0.75881 0.80906 0.60514
 C1187 C 0.77420 0.79086 0.64127
 C1188 C 0.79576 0.80326 0.63868
 C1189 C 0.79895 0.81869 0.61981
 C1190 C 0.78064 0.82179 0.60330
 H1191 H 0.77231 0.77966 0.65663
 H1192 H 0.80996 0.80113 0.65157
 H1193 H 0.81560 0.82853 0.61811
 H1194 H 0.78368 0.83454 0.58941
 H1195 H 0.69740 0.77662 0.61335
 H1196 H 0.70331 0.80277 0.57971
 C1197 C 0.74976 0.79171 0.37569
 C1198 C 0.77152 0.77869 0.37376
 C1199 C 0.78943 0.78182 0.39086
 C1200 C 0.78585 0.79689 0.41019
 C1201 C 0.76435 0.80958 0.41293
 C1202 C 0.74622 0.80746 0.39534
 C1203 C 0.73180 0.79011 0.35809
 C1204 C 0.71082 0.80354 0.35986
 C1205 C 0.70746 0.81907 0.37889
 C1206 C 0.72501 0.82122 0.39638
 H1207 H 0.73391 0.77883 0.34263
 H1208 H 0.69722 0.80213 0.34623
 H1209 H 0.69129 0.82970 0.37997
 H1210 H 0.72190 0.83404 0.41041
 H1211 H 0.80621 0.77212 0.38946
 H1212 H 0.79995 0.79848 0.42334
 C1213 C 0.24721 0.29540 -0.12493
 C1214 C 0.26938 0.28331 -0.12800
 C1215 C 0.28817 0.28749 -0.11206
 C1216 C 0.28501 0.30251 -0.09260
 C1217 C 0.26304 0.31407 -0.08860
 C1218 C 0.24408 0.31110 -0.10519
 C1219 C 0.22836 0.29287 -0.14149
 C1220 C 0.20692 0.30540 -0.13864
 C1221 C 0.20394 0.32089 -0.11953
 C1222 C 0.22233 0.32391 -0.10303
 H1223 H 0.23011 0.28156 -0.15698
 H1224 H 0.19265 0.30332 -0.15151
 H1225 H 0.18738 0.33082 -0.11760
 H1226 H 0.21946 0.33668 -0.08889
 H1227 H 0.30528 0.27853 -0.11437
 H1228 H 0.29973 0.30477 -0.08024
 C1229 C 0.72647 0.19196 -0.13230
 C1230 C 0.72642 0.21687 -0.12872
 C1231 C 0.73084 0.22617 -0.10606
 C1232 C 0.73444 0.21134 -0.08684
 C1233 C 0.73393 0.18668 -0.08967
 C1234 C 0.73035 0.17673 -0.11260
 C1235 C 0.72370 0.18182 -0.15513
 C1236 C 0.72434 0.15733 -0.15844
 C1237 C 0.72816 0.14250 -0.13925
 C1238 C 0.73135 0.15201 -0.11657
 H1239 H 0.72148 0.19261 -0.17071
 H1240 H 0.72217 0.14984 -0.17605
 H1241 H 0.72895 0.12352 -0.14199
 H1242 H 0.73498 0.13982 -0.10235
 H1243 H 0.73106 0.24516 -0.10311
 H1244 H 0.73740 0.21918 -0.06947
 C1245 C 0.22780 0.73527 0.40334
 C1246 C 0.22531 0.72674 0.37970
 C1247 C 0.22589 0.70232 0.37522
 C1248 C 0.22974 0.68637 0.39346
 C1249 C 0.23306 0.69431 0.41680
 C1250 C 0.23176 0.71889 0.42205
 C1251 C 0.22553 0.75959 0.40899
 C1252 C 0.22763 0.76762 0.43236
 C1253 C 0.23164 0.75165 0.45058
 C1254 C 0.23351 0.72750 0.44559
 H1255 H 0.22163 0.77260 0.39561
 H1256 H 0.22585 0.78631 0.43640
 H1257 H 0.23301 0.75798 0.46871
 H1258 H 0.23597 0.71570 0.46040
 H1259 H 0.22377 0.69554 0.35730
 H1260 H 0.23043 0.66761 0.38929
 C1261 C 0.29620 0.71877 0.60197
 C1262 C 0.27771 0.72152 0.61923
 C1263 C 0.25581 0.70965 0.61621
 C1264 C 0.25226 0.69445 0.59697
 C1265 C 0.27038 0.69088 0.57991
 C1266 C 0.29242 0.70353 0.58199
 C1267 C 0.31806 0.73147 0.60367
 C1268 C 0.33578 0.72918 0.58619
 C1269 C 0.33198 0.71458 0.56655
 C1270 C 0.31048 0.70201 0.56430
 H1271 H 0.32155 0.74355 0.61824
 H1272 H 0.35243 0.73905 0.58773
 H1273 H 0.34567 0.71318 0.55287
 H1274 H 0.30808 0.69148 0.54837
 H1275 H 0.24147 0.71181 0.62916
 H1276 H 0.23526 0.68513 0.59553
 C1277 C 0.77952 0.19903 0.12527
 C1278 C 0.77711 0.22375 0.12174
 C1279 C 0.76973 0.23214 0.09965
 C1280 C 0.76571 0.21659 0.08079
 C1281 C 0.76869 0.19213 0.08349
 C1282 C 0.77511 0.18306 0.10602
 C1283 C 0.78538 0.18973 0.14772
 C1284 C 0.78709 0.16536 0.15106
 C1285 C 0.78263 0.14979 0.13234
 C1286 C 0.77650 0.15844 0.11008
 H1287 H 0.78828 0.20106 0.16299
 H1288 H 0.79159 0.15852 0.16837
 H1289 H 0.78366 0.13088 0.13514
 H1290 H 0.77248 0.14563 0.09630
 H1291 H 0.76753 0.25097 0.09685
 H1292 H 0.76059 0.22375 0.06377
 C1293 C 0.48407 0.35312 0.52015
 C1294 C 0.47709 0.37523 0.53018
 C1295 C 0.47244 0.37695 0.55458
 C1296 C 0.47549 0.35753 0.56927
 C1297 C 0.48319 0.33573 0.56000
 C1298 C 0.48719 0.33321 0.53522
 C1299 C 0.48715 0.35006 0.49540
 C1300 C 0.49366 0.32813 0.48581
 C1301 C 0.49683 0.30875 0.50054
 C1302 C 0.49346 0.31112 0.52498
 H1303 H 0.48412 0.36432 0.48313
 H1304 H 0.49597 0.32609 0.46682
 H1305 H 0.50164 0.29171 0.49296
 H1306 H 0.49545 0.29542 0.53563
 H1307 H 0.46680 0.39365 0.56241
 H1308 H 0.47214 0.35959 0.58814
 C1309 C -0.02338 0.88264 0.05986
 C1310 C -0.02256 0.87937 0.03489
 C1311 C -0.01760 0.85693 0.02539
 C1312 C -0.01413 0.83763 0.04011
 C1313 C -0.01515 0.84017 0.06485
 C1314 C -0.01939 0.86292 0.07500
 C1315 C -0.02716 0.90524 0.07014
 C1316 C -0.02713 0.90834 0.09471
 C1317 C -0.02294 0.88918 0.10948
 C1318 C -0.01889 0.86672 0.09981
 H1319 H -0.02980 0.92076 0.05939
 H1320 H -0.03005 0.92577 0.10233
 H1321 H -0.02258 0.89178 0.12853
 H1322 H -0.01499 0.85256 0.11198
 H1323 H -0.01675 0.85426 0.00634
 H1324 H -0.01074 0.82044 0.03209
 C1325 C 0.04955 0.64179 0.03425
 C1326 C 0.02945 0.62890 0.02546
 C1327 C 0.00614 0.63617 0.03170
 C1328 C 0.00243 0.65524 0.04707
 C1329 C 0.02191 0.66762 0.05675
 C1330 C 0.04572 0.66118 0.05022
 C1331 C 0.07332 0.63649 0.02689
 C1332 C 0.09281 0.64941 0.03564
 C1333 C 0.08907 0.66805 0.05153
 C1334 C 0.06578 0.67407 0.05865
 H1335 H 0.07713 0.62277 0.01396
 H1336 H 0.11090 0.64509 0.02985
 H1337 H 0.10427 0.67811 0.05811
 H1338 H 0.06369 0.68907 0.07054
 H1339 H -0.00940 0.62669 0.02498
 H1340 H -0.01585 0.66017 0.05175
 C1341 C 0.54752 0.14222 0.53535
 C1342 C 0.52842 0.12639 0.52977
 C1343 C 0.50572 0.12989 0.54017
 C1344 C 0.50170 0.14849 0.55608
 C1345 C 0.52021 0.16427 0.56195
 C1346 C 0.54344 0.16107 0.55188
 C1347 C 0.57038 0.14027 0.52438
 C1348 C 0.58901 0.15573 0.53041
 C1349 C 0.58527 0.17350 0.54727
 C1350 C 0.56273 0.17625 0.55791
 H1351 H 0.57407 0.12711 0.51083
 H1352 H 0.60646 0.15392 0.52193
 H1353 H 0.59986 0.18534 0.55199
 H1354 H 0.56060 0.19031 0.57092
 H1355 H 0.49097 0.11800 0.53602
 H1356 H 0.48384 0.15086 0.56356
 C1357 C -0.01895 0.12200 0.44980
 C1358 C -0.02267 0.12655 0.47438
 C1359 C -0.02263 0.14995 0.48280
 C1360 C -0.01951 0.16882 0.46734
 C1361 C -0.01632 0.16491 0.44293
 C1362 C -0.01645 0.14135 0.43386
 C1363 C -0.01711 0.09866 0.44070
 C1364 C -0.01434 0.09446 0.41642
 C1365 C -0.01337 0.11332 0.40073
 C1366 C -0.01444 0.13654 0.40925
 H1367 H -0.01741 0.08345 0.45220
 H1368 H -0.01304 0.07649 0.40969
 H1369 H -0.01160 0.10989 0.38186
 H1370 H -0.01386 0.15057 0.39633
 H1371 H -0.02541 0.15369 0.50152
 H1372 H -0.01947 0.18668 0.47456
 C1373 C 0.45637 0.64502 0.97202
 C1374 C 0.47497 0.62808 0.97482
 C1375 C 0.49690 0.63118 0.96290
 C1376 C 0.50037 0.65010 0.94757
 C1377 C 0.48208 0.66670 0.94385
 C1378 C 0.46002 0.66458 0.95653
 C1379 C 0.43454 0.64346 0.98491
 C1380 C 0.41667 0.66055 0.98242
 C1381 C 0.42028 0.67970 0.96745
 C1382 C 0.44177 0.68189 0.95477
 H1383 H 0.43118 0.62935 0.99733
 H1384 H 0.40004 0.65910 0.99242
 H1385 H 0.40646 0.69308 0.96587
 H1386 H 0.44404 0.69747 0.94397
 H1387 H 0.51135 0.61852 0.96510
 H1388 H 0.51739 0.65160 0.93821
 C1389 C 0.54526 0.85333 0.97148
 C1390 C 0.52737 0.87110 0.97413
 C1391 C 0.50555 0.86873 0.96200
 C1392 C 0.50156 0.84970 0.94665
 C1393 C 0.51918 0.83231 0.94305
 C1394 C 0.54109 0.83373 0.95586
 C1395 C 0.56681 0.85408 0.98466
 C1396 C 0.58399 0.83623 0.98226
 C1397 C 0.57992 0.81712 0.96706
 C1398 C 0.55864 0.81570 0.95412
 H1399 H 0.57047 0.86812 0.99728
 H1400 H 0.60041 0.83707 0.99249
 H1401 H 0.59320 0.80317 0.96551
 H1402 H 0.55599 0.80015 0.94311
 H1403 H 0.49163 0.88202 0.96407
 H1404 H 0.48465 0.84872 0.93719
 C1405 C -0.00844 0.36697 0.46871
 C1406 C 0.01474 0.37744 0.47093
 C1407 C 0.03403 0.36797 0.45785
 C1408 C 0.03097 0.34815 0.44334
 C1409 C 0.00856 0.33689 0.44156
 C1410 C -0.01132 0.34598 0.45472
 C1411 C -0.02901 0.37707 0.47964
 C1412 C -0.05131 0.36577 0.47854
 C1413 C -0.05366 0.34436 0.46641
 C1414 C -0.03394 0.33451 0.45456
 H1415 H -0.02828 0.39396 0.48874
 H1416 H -0.06682 0.37363 0.48722
 H1417 H -0.07093 0.33546 0.46594
 H1418 H -0.03663 0.31779 0.44547
 H1419 H 0.05183 0.37572 0.45920
 H1420 H 0.04630 0.34149 0.43336
 C1421 C 0.34220 0.50813 0.47161
 C1422 C 0.36565 0.51639 0.46606
 C1423 C 0.36971 0.54067 0.46337
 C1424 C 0.35127 0.55692 0.46734
 C1425 C 0.32813 0.54937 0.47383
 C1426 C 0.32319 0.52473 0.47522
 C1427 C 0.33707 0.48367 0.47301
 C1428 C 0.31378 0.47575 0.47780
 C1429 C 0.29514 0.49193 0.48095
 C1430 C 0.29966 0.51617 0.47952
 H1431 H 0.35085 0.47046 0.47002
 H1432 H 0.31011 0.45696 0.47875
 H1433 H 0.27702 0.48565 0.48430
 H1434 H 0.28449 0.52801 0.48141
 H1435 H 0.38754 0.54716 0.45898
 H1436 H 0.35528 0.57564 0.46596
 C1437 C 0.88258 0.05439 -0.02948
 C1438 C 0.87834 0.02972 -0.02724
 C1439 C 0.85548 0.02169 -0.02049
 C1440 C 0.83667 0.03750 -0.01667
 C1441 C 0.84012 0.06190 -0.01927
 C1442 C 0.86330 0.07063 -0.02537
 C1443 C 0.90571 0.06338 -0.03479
 C1444 C 0.90970 0.08769 -0.03637
 C1445 C 0.89093 0.10352 -0.03233
 C1446 C 0.86799 0.09518 -0.02668
 H1447 H 0.92103 0.05185 -0.03734
 H1448 H 0.92753 0.09430 -0.04047
 H1449 H 0.89422 0.12239 -0.03329
 H1450 H 0.85416 0.10817 -0.02300
 H1451 H 0.85204 0.00292 -0.01851
 H1452 H 0.81911 0.03058 -0.01187
 C1453 C 0.65134 0.02423 0.04402
 C1454 C 0.63285 0.02206 0.02688
 C1455 C 0.63446 0.03484 0.00577
 C1456 C 0.65343 0.05046 0.00184
 C1457 C 0.67162 0.05356 0.01875
 C1458 C 0.67106 0.03987 0.03979
 C1459 C 0.65105 0.01063 0.06494
 C1460 C 0.66973 0.01235 0.08129
 C1461 C 0.68917 0.02730 0.07699
 C1462 C 0.69001 0.04080 0.05641
 H1463 H 0.63667 -0.00172 0.06870
 H1464 H 0.66928 0.00178 0.09722
 H1465 H 0.70380 0.02827 0.08958
 H1466 H 0.70583 0.05159 0.05352
 H1467 H 0.62054 0.03316 -0.00754
 H1468 H 0.65368 0.06061 -0.01439
 C1469 C 0.12014 0.54585 0.49630
 C1470 C 0.11888 0.53197 0.51717
 C1471 C 0.13713 0.53396 0.53413
 C1472 C 0.15682 0.54872 0.53048
 C1473 C 0.15891 0.56214 0.50980
 C1474 C 0.14031 0.56111 0.49262
 C1475 C 0.10141 0.54565 0.47943
 C1476 C 0.10271 0.55972 0.45926
 C1477 C 0.12236 0.57458 0.45568
 C1478 C 0.14089 0.57551 0.47224
 H1479 H 0.08540 0.53504 0.48179
 H1480 H 0.08823 0.55933 0.44648
 H1481 H 0.12310 0.58569 0.44012
 H1482 H 0.15540 0.58787 0.46905
 H1483 H 0.13634 0.52363 0.55024
 H1484 H 0.17079 0.54943 0.54382
 C1485 C 0.15103 0.48461 -0.02091
 C1486 C 0.12759 0.47494 -0.02352
 C1487 C 0.12440 0.45037 -0.02308
 C1488 C 0.14377 0.43533 -0.01920
 C1489 C 0.16702 0.44437 -0.01587
 C1490 C 0.17095 0.46918 -0.01719
 C1491 C 0.15529 0.50919 -0.02280
 C1492 C 0.17851 0.51837 -0.02085
 C1493 C 0.19795 0.50331 -0.01736
 C1494 C 0.19433 0.47895 -0.01571
 H1495 H 0.14088 0.52152 -0.02624
 H1496 H 0.18149 0.53724 -0.02238
 H1497 H 0.21597 0.51052 -0.01618
 H1498 H 0.21006 0.46792 -0.01369
 H1499 H 0.10663 0.44276 -0.02531
 H1500 H 0.14055 0.41642 -0.01849
 C1501 C 0.65452 0.98403 0.47326
 C1502 C 0.63063 0.97510 0.47241
 C1503 C 0.62664 0.95075 0.47477
 C1504 C 0.64565 0.93534 0.47899
 C1505 C 0.66929 0.94378 0.48090
 C1506 C 0.67401 0.96823 0.47756
 C1507 C 0.65963 1.00816 0.46908
 C1508 C 0.68322 1.01660 0.46961
 C1509 C 0.70220 1.00120 0.47390
 C1510 C 0.69776 0.97722 0.47765
 H1511 H 0.64562 1.02067 0.46487
 H1512 H 0.68682 1.03514 0.46637
 H1513 H 0.72050 1.00782 0.47402
 H1514 H 0.71314 0.96583 0.48023
 H1515 H 0.60853 0.94365 0.47392
 H1516 H 0.64184 0.91667 0.48121
 C1517 C 0.88521 0.94352 0.51798
 C1518 C 0.88134 0.96829 0.52007
 C1519 C 0.85806 0.97733 0.51746
 C1520 C 0.83852 0.96231 0.51390
 C1521 C 0.84163 0.93773 0.51271
 C1522 C 0.86518 0.92811 0.51421
 C1523 C 0.90859 0.93375 0.51865
 C1524 C 0.91214 0.90943 0.51608
 C1525 C 0.89262 0.89441 0.51243
 C1526 C 0.86937 0.90358 0.51130
 H1527 H 0.92438 0.94477 0.52068
 H1528 H 0.93018 0.90221 0.51661
 H1529 H 0.89553 0.87557 0.51016
 H1530 H 0.85486 0.89129 0.50773
 H1531 H 0.85487 0.99622 0.51879
 H1532 H 0.82070 0.96995 0.51257
 C1533 C 0.35661 0.47186 0.04570
 C1534 C 0.37396 0.47486 0.02738
 C1535 C 0.37094 0.46305 0.00567
 C1536 C 0.35169 0.44764 0.00215
 C1537 C 0.33471 0.44369 0.02016
 C1538 C 0.33675 0.45623 0.04201
 C1539 C 0.35805 0.48468 0.06729
 C1540 C 0.34057 0.48196 0.08491
 C1541 C 0.32116 0.46681 0.08127
 C1542 C 0.31907 0.45420 0.06001
 H1543 H 0.37235 0.49724 0.07065
 H1544 H 0.34194 0.49191 0.10135
 H1545 H 0.30748 0.46502 0.09490
 H1546 H 0.30329 0.44321 0.05773
 H1547 H 0.38393 0.46539 -0.00854
 H1548 H 0.35022 0.43839 -0.01472
 C1549 C 0.54965 0.45239 0.37305
 C1550 C 0.52776 0.46528 0.37549
 C1551 C 0.52219 0.48235 0.35845
 C1552 C 0.53782 0.48712 0.33971
 C1553 C 0.56026 0.47589 0.33782
 C1554 C 0.56676 0.45908 0.35532
 C1555 C 0.55485 0.43263 0.38734
 C1556 C 0.57743 0.42191 0.38651
 C1557 C 0.59517 0.43049 0.37135
 C1558 C 0.58997 0.44887 0.35586
 H1559 H 0.54143 0.42480 0.39877
 H1560 H 0.58124 0.40701 0.39784
 H1561 H 0.61291 0.42256 0.37126
 H1562 H 0.60437 0.45505 0.34452
 H1563 H 0.50563 0.49238 0.35965
 H1564 H 0.53224 0.49984 0.32656
 C1565 C 0.04684 -0.05309 0.86800
 C1566 C 0.03073 -0.03483 0.87526
 C1567 C 0.03153 -0.01299 0.86368
 C1568 C 0.04800 -0.00882 0.84552
 C1569 C 0.06451 -0.02625 0.83843
 C1570 C 0.06446 -0.04843 0.85011
 C1571 C 0.04551 -0.07610 0.87760
 C1572 C 0.06227 -0.09340 0.87121
 C1573 C 0.08054 -0.08826 0.85508
 C1574 C 0.08168 -0.06604 0.84456
 H1575 H 0.03134 -0.08118 0.88972
 H1576 H 0.06113 -0.11088 0.87889
 H1577 H 0.09373 -0.10165 0.85048
 H1578 H 0.09625 -0.06281 0.83220
 H1579 H 0.01941 0.00117 0.86890
 H1580 H 0.04772 0.00817 0.83673
 C1581 C 0.02696 0.04719 0.65158
 C1582 C 0.02521 0.03093 0.63233
 C1583 C 0.03903 0.01024 0.63242
 C1584 C 0.05498 0.00573 0.65077
 C1585 C 0.05745 0.02163 0.66982
 C1586 C 0.04307 0.04241 0.67060
 C1587 C 0.01238 0.06763 0.65283
 C1588 C 0.01370 0.08306 0.67223
 C1589 C 0.02922 0.07830 0.69087
 C1590 C 0.04365 0.05812 0.69025
 H1591 H -0.00045 0.07171 0.63911
 H1592 H 0.00237 0.09863 0.67294
 H1593 H 0.02989 0.09018 0.70604
 H1594 H 0.05487 0.05483 0.70547
 H1595 H 0.03772 -0.00243 0.61792
 H1596 H 0.06566 -0.01031 0.65001
 C1597 C 0.52997 0.54521 0.14690
 C1598 C 0.52923 0.52814 0.12830
 C1599 C 0.54257 0.50726 0.13022
 C1600 C 0.55719 0.50336 0.14976
 C1601 C 0.55867 0.52006 0.16824
 C1602 C 0.54460 0.54102 0.16718
 C1603 C 0.51581 0.56595 0.14622
 C1604 C 0.51611 0.58221 0.16497
 C1605 C 0.53010 0.57798 0.18488
 C1606 C 0.54406 0.55753 0.18616
 H1607 H 0.50413 0.56968 0.13144
 H1608 H 0.50516 0.59803 0.16418
 H1609 H 0.52996 0.59050 0.19954
 H1610 H 0.55401 0.55469 0.20231
 H1611 H 0.54192 0.49397 0.11624
 H1612 H 0.56767 0.48721 0.15037
 C1613 C 0.44467 -0.01912 0.12008
 C1614 C 0.47004 -0.02032 0.12289
 C1615 C 0.47996 -0.01705 0.14551
 C1616 C 0.46529 -0.01365 0.16534
 C1617 C 0.44022 -0.01343 0.16322
 C1618 C 0.42965 -0.01579 0.14046
 C1619 C 0.43389 -0.02027 0.09744
 C1620 C 0.40896 -0.01890 0.09500
 C1621 C 0.39431 -0.01595 0.11490
 C1622 C 0.40447 -0.01421 0.13742
 H1623 H 0.44449 -0.02170 0.08138
 H1624 H 0.40098 -0.01985 0.07753
 H1625 H 0.37499 -0.01469 0.11286
 H1626 H 0.39243 -0.01127 0.15230
 H1627 H 0.49929 -0.01767 0.14793
 H1628 H 0.47358 -0.01162 0.18261
 C1629 C 0.98977 0.47405 0.65924
 C1630 C 0.98105 0.46860 0.63619
 C1631 C 0.95618 0.46699 0.63248
 C1632 C 0.93994 0.47147 0.65082
 C1633 C 0.94798 0.47765 0.67353
 C1634 C 0.97309 0.47861 0.67808
 C1635 C 1.01467 0.47425 0.66424
 C1636 C 1.02293 0.47931 0.68705
 C1637 C 1.00667 0.48381 0.70539
 C1638 C 0.98198 0.48327 0.70110
 H1639 H 1.02798 0.47008 0.65080
 H1640 H 1.04207 0.47943 0.69058
 H1641 H 1.01321 0.48745 0.72312
 H1642 H 0.97003 0.48618 0.71605
 H1643 H 0.94920 0.46274 0.61504
 H1644 H 0.92083 0.47048 0.64714
 C1645 C 0.98408 0.52458 0.84774
 C1646 C 0.97492 0.52791 0.87111
 C1647 C 0.94999 0.52834 0.87488
 C1648 C 0.93409 0.52446 0.85624
 C1649 C 0.94263 0.52013 0.83320
 C1650 C 0.96778 0.52065 0.82863
 C1651 C 1.00900 0.52591 0.84274
 C1652 C 1.01767 0.52293 0.81964
 C1653 C 1.00177 0.51898 0.80103
 C1654 C 0.97706 0.51804 0.80535
 H1655 H 1.02201 0.52973 0.85643
 H1656 H 1.03682 0.52398 0.81612
 H1657 H 1.00860 0.51694 0.78310
 H1658 H 0.96536 0.51565 0.79023
 H1659 H 0.94273 0.53112 0.89258
 H1660 H 0.91492 0.52433 0.85992
 C1661 C 0.44248 0.02369 0.38275
 C1662 C 0.46786 0.02272 0.37976
 C1663 C 0.47753 0.01785 0.35724
 C1664 C 0.46267 0.01480 0.33764
 C1665 C 0.43761 0.01638 0.33990
 C1666 C 0.42723 0.02046 0.36265
 C1667 C 0.43183 0.02689 0.40538
 C1668 C 0.40688 0.02737 0.40811
 C1669 C 0.39203 0.02426 0.38852
 C1670 C 0.40201 0.02062 0.36604
 H1671 H 0.44256 0.02857 0.42124
 H1672 H 0.39901 0.02986 0.42557
 H1673 H 0.37267 0.02436 0.39081
 H1674 H 0.38974 0.01757 0.35149
 H1675 H 0.49685 0.01688 0.35468
 H1676 H 0.47085 0.01148 0.32043
   
