data_POSCAR
  _audit_creation_date              2014-09-24
  _audit_creation_method            'ToBaCCo'
  _symmetry_space_group_name_H-M    'P1'
  _symmetry_Int_Tables_number       1
  _symmetry_cell_setting            triclinic
  loop_
  _symmetry_equiv_pos_as_xyz
 x,y,z
_cell_length_a 69.8725
_cell_length_b 69.9020
_cell_length_c 69.9618
_cell_angle_alpha 89.965700
_cell_angle_beta 89.988100
_cell_angle_gamma 89.993700
loop_
  _atom_site_label
  _atom_site_type_symbol
  _atom_site_fract_x
  _atom_site_fract_y
  _atom_site_fract_z
C1 C 0.19232 0.21912 0.21338
 C2 C 0.20299 0.22449 0.19727
 C3 C 0.21890 0.21393 0.19194
 C4 C 0.22434 0.19787 0.20267
 C5 C 0.21380 0.19256 0.21859
 C6 C 0.19770 0.20325 0.22398
 C7 C 0.17624 0.22669 0.22188
 N8 N 0.17186 0.21578 0.23727
 C9 C 0.18480 0.20143 0.23875
 C10 C 0.22234 0.17652 0.22620
 N11 N 0.23770 0.17210 0.21525
 C12 C 0.23913 0.18497 0.20085
 C13 C 0.22645 0.22241 0.17585
 N14 N 0.21547 0.23774 0.17141
 C15 C 0.20110 0.23922 0.18433
 H16 H 0.16830 0.23917 0.21725
 H17 H 0.18479 0.19052 0.24975
 H18 H 0.21776 0.16865 0.23873
 H19 H 0.25009 0.18491 0.18991
 H20 H 0.23896 0.21781 0.16795
 H21 H 0.19015 0.25018 0.18428
 C22 C 0.69215 0.71884 0.71341
 C23 C 0.70283 0.72422 0.69731
 C24 C 0.71872 0.71362 0.69197
 C25 C 0.72412 0.69753 0.70266
 C26 C 0.71356 0.69222 0.71858
 C27 C 0.69749 0.70294 0.72398
 C28 C 0.67609 0.72645 0.72193
 N29 N 0.67169 0.71551 0.73730
 C30 C 0.68459 0.70112 0.73876
 C31 C 0.72206 0.67614 0.72616
 N32 N 0.73741 0.67170 0.71520
 C33 C 0.73887 0.68459 0.70082
 C34 C 0.72629 0.72211 0.67589
 N35 N 0.71536 0.73748 0.67148
 C36 C 0.70100 0.73898 0.68440
 H37 H 0.66820 0.73896 0.71734
 H38 H 0.68455 0.69019 0.74974
 H39 H 0.71747 0.66826 0.73867
 H40 H 0.74984 0.68453 0.68988
 H41 H 0.73879 0.71749 0.66798
 H42 H 0.69008 0.74997 0.68437
 C43 C 0.30690 0.78112 0.71408
 C44 C 0.29621 0.77576 0.69799
 C45 C 0.28034 0.78638 0.69263
 C46 C 0.27499 0.80250 0.70330
 C47 C 0.28556 0.80780 0.71920
 C48 C 0.30161 0.79705 0.72462
 C49 C 0.32295 0.77349 0.72259
 N50 N 0.32739 0.78443 0.73793
 C51 C 0.31452 0.79885 0.73937
 C52 C 0.27711 0.82392 0.72675
 N53 N 0.26178 0.82837 0.71578
 C54 C 0.26027 0.81548 0.70142
 C55 C 0.27277 0.77791 0.67656
 N56 N 0.28368 0.76251 0.67218
 C57 C 0.29803 0.76099 0.68510
 H58 H 0.33082 0.76096 0.71801
 H59 H 0.31459 0.80979 0.75033
 H60 H 0.28175 0.83180 0.73925
 H61 H 0.24931 0.81554 0.69047
 H62 H 0.26029 0.78256 0.66864
 H63 H 0.30893 0.74998 0.68508
 C64 C 0.80798 0.28083 0.21380
 C65 C 0.79734 0.27542 0.19770
 C66 C 0.78142 0.28595 0.19233
 C67 C 0.77596 0.30203 0.20299
 C68 C 0.78647 0.30739 0.21890
 C69 C 0.80258 0.29673 0.22434
 C70 C 0.82406 0.27328 0.22234
 N71 N 0.82840 0.28425 0.23769
 C72 C 0.81545 0.29860 0.23913
 C73 C 0.77791 0.32344 0.22644
 N74 N 0.76257 0.32783 0.21547
 C75 C 0.76117 0.31492 0.20111
 C76 C 0.77390 0.27744 0.17625
 N77 N 0.78490 0.26210 0.17187
 C78 C 0.79925 0.26066 0.18480
 H79 H 0.83200 0.26079 0.21775
 H80 H 0.81542 0.30954 0.25009
 H81 H 0.78247 0.33135 0.23895
 H82 H 0.75022 0.31494 0.19015
 H83 H 0.76141 0.28202 0.16832
 H84 H 0.81021 0.24971 0.18480
 C85 C 0.80801 0.71937 0.28531
 C86 C 0.79734 0.72480 0.30140
 C87 C 0.78144 0.71424 0.30678
 C88 C 0.77602 0.69813 0.29614
 C89 C 0.78656 0.69277 0.28024
 C90 C 0.80265 0.70345 0.27479
 C91 C 0.82409 0.72694 0.27677
 N92 N 0.82846 0.71595 0.26144
 C93 C 0.81554 0.70157 0.26001
 C94 C 0.77804 0.67668 0.27273
 N95 N 0.76269 0.67229 0.28371
 C96 C 0.76126 0.68522 0.29805
 C97 C 0.77390 0.72276 0.32284
 N98 N 0.78486 0.73812 0.32720
 C99 C 0.79921 0.73957 0.31427
 H100 H 0.83200 0.73945 0.28134
 H101 H 0.81555 0.69060 0.24908
 H102 H 0.78261 0.66875 0.26024
 H103 H 0.75031 0.68520 0.30900
 H104 H 0.76140 0.71816 0.33078
 H105 H 0.81015 0.75054 0.31427
 C106 C 0.30771 0.21909 -0.21434
 C107 C 0.29695 0.22454 -0.19833
 C108 C 0.28103 0.21398 -0.19300
 C109 C 0.27569 0.19784 -0.20362
 C110 C 0.28632 0.19245 -0.21946
 C111 C 0.30242 0.20313 -0.22485
 C112 C 0.32382 0.22665 -0.22281
 N113 N 0.32829 0.21563 -0.23809
 C114 C 0.31540 0.20123 -0.23955
 C115 C 0.27786 0.17632 -0.22698
 N116 N 0.26247 0.17195 -0.21605
 C117 C 0.26092 0.18491 -0.20175
 C118 C 0.27340 0.22253 -0.17699
 N119 N 0.28432 0.23792 -0.17262
 C120 C 0.29874 0.23935 -0.18548
 H121 H 0.33169 0.23918 -0.21822
 H122 H 0.31548 0.19024 -0.25045
 H123 H 0.28253 0.16838 -0.23942
 H124 H 0.24992 0.18492 -0.19084
 H125 H 0.26087 0.21795 -0.16911
 H126 H 0.30967 0.25033 -0.18545
 C127 C 0.69270 0.28070 -0.21423
 C128 C 0.70341 0.27527 -0.19817
 C129 C 0.71931 0.28584 -0.19283
 C130 C 0.72469 0.30196 -0.20349
 C131 C 0.71411 0.30733 -0.21937
 C132 C 0.69801 0.29663 -0.22477
 C133 C 0.67660 0.27313 -0.22272
 N134 N 0.67218 0.28412 -0.23804
 C135 C 0.68508 0.29851 -0.23951
 C136 C 0.72259 0.32343 -0.22692
 N137 N 0.73796 0.32782 -0.21596
 C138 C 0.73945 0.31488 -0.20162
 C139 C 0.72690 0.27731 -0.17679
 N140 N 0.71596 0.26193 -0.17239
 C141 C 0.70158 0.26048 -0.18528
 H142 H 0.66872 0.26060 -0.21811
 H143 H 0.68503 0.30949 -0.25045
 H144 H 0.71796 0.33136 -0.23940
 H145 H 0.75043 0.31489 -0.19069
 H146 H 0.73941 0.28191 -0.16889
 H147 H 0.69065 0.24950 -0.18525
 C148 C 0.19250 0.78120 0.28562
 C149 C 0.20312 0.77580 0.30175
 C150 C 0.21900 0.78637 0.30715
 C151 C 0.22445 0.80246 0.29649
 C152 C 0.21395 0.80780 0.28054
 C153 C 0.19788 0.79710 0.27508
 C154 C 0.17645 0.77363 0.27706
 N155 N 0.17211 0.78458 0.26169
 C156 C 0.18502 0.79895 0.26028
 C157 C 0.22248 0.82389 0.27301
 N158 N 0.23779 0.82829 0.28404
 C159 C 0.23920 0.81538 0.29842
 C160 C 0.22649 0.77787 0.32326
 N161 N 0.21552 0.76250 0.32762
 C162 C 0.20121 0.76104 0.31465
 H163 H 0.16852 0.76113 0.28163
 H164 H 0.18503 0.80990 0.24931
 H165 H 0.21792 0.83179 0.26049
 H166 H 0.25012 0.81541 0.30941
 H167 H 0.23895 0.78247 0.33122
 H168 H 0.19027 0.75006 0.31465
 C169 C 0.46915 0.44254 0.46445
 C170 C 0.47455 0.45320 0.44834
 C171 C 0.46397 0.46908 0.44296
 C172 C 0.44786 0.47449 0.45362
 C173 C 0.44252 0.46396 0.46954
 C174 C 0.45323 0.44789 0.47499
 C175 C 0.47672 0.42648 0.47299
 N176 N 0.46576 0.42209 0.48834
 C177 C 0.45138 0.43500 0.48977
 C178 C 0.42642 0.47247 0.47707
 N179 N 0.42200 0.48779 0.46608
 C180 C 0.43492 0.48923 0.45172
 C181 C 0.47247 0.47661 0.42687
 N182 N 0.48784 0.46566 0.42250
 C183 C 0.48932 0.45132 0.43544
 H184 H 0.48923 0.41857 0.46841
 H185 H 0.44043 0.43498 0.50072
 H186 H 0.41850 0.46789 0.48957
 H187 H 0.43487 0.50017 0.44076
 H188 H 0.46785 0.48909 0.41893
 H189 H 0.50030 0.44039 0.43543
 C190 C -0.03069 -0.05778 0.96420
 C191 C -0.02521 -0.04704 0.94817
 C192 C -0.03574 -0.03111 0.94284
 C193 C -0.05186 -0.02571 0.95348
 C194 C -0.05728 -0.03631 0.96933
 C195 C -0.04663 -0.05244 0.97472
 C196 C -0.02316 -0.07390 0.97267
 N197 N -0.03419 -0.07833 0.98797
 C198 C -0.04856 -0.06540 0.98944
 C199 C -0.07339 -0.02781 0.97687
 N200 N -0.07772 -0.01241 0.96593
 C201 C -0.06476 -0.01091 0.95162
 C202 C -0.02717 -0.02350 0.92682
 N203 N -0.01181 -0.03447 0.92243
 C204 C -0.01041 -0.04888 0.93530
 H205 H -0.01065 -0.08180 0.96808
 H206 H -0.05955 -0.06544 1.00036
 H207 H -0.08134 -0.03245 0.98933
 H208 H -0.06472 0.00008 0.94070
 H209 H -0.03172 -0.01097 0.91894
 H210 H 0.00055 -0.05984 0.93527
 C211 C 1.03057 0.55747 0.96456
 C212 C 1.02514 0.54678 0.94850
 C213 C 1.03571 0.53089 0.94314
 C214 C 1.05184 0.52551 0.95377
 C215 C 1.05722 0.53607 0.96965
 C216 C 1.04652 0.55215 0.97507
 C217 C 1.02300 0.57356 0.97306
 N218 N 1.03401 0.57797 0.98836
 C219 C 1.04841 0.56507 0.98981
 C220 C 1.07335 0.52759 0.97716
 N221 N 1.07774 0.51225 0.96618
 C222 C 1.06478 0.51076 0.95186
 C223 C 1.02718 0.52333 0.92709
 N224 N 1.01179 0.53427 0.92272
 C225 C 1.01034 0.54863 0.93563
 H226 H 1.01047 0.58145 0.96847
 H227 H 1.05940 0.56511 1.00073
 H228 H 1.08129 0.53221 0.98962
 H229 H 1.06479 0.49981 0.94091
 H230 H 1.03178 0.51084 0.91918
 H231 H 0.99936 0.55956 0.93561
 C232 C 0.53107 0.05709 0.46463
 C233 C 0.52561 0.04642 0.44856
 C234 C 0.53618 0.03055 0.44315
 C235 C 0.55234 0.02514 0.45374
 C236 C 0.55774 0.03568 0.46963
 C237 C 0.54704 0.05175 0.47510
 C238 C 0.52352 0.07314 0.47318
 N239 N 0.53454 0.07753 0.48848
 C240 C 0.54894 0.06464 0.48986
 C241 C 0.57388 0.02719 0.47710
 N242 N 0.57825 0.01187 0.46610
 C243 C 0.56528 0.01041 0.45179
 C244 C 0.52762 0.02301 0.42710
 N245 N 0.51223 0.03396 0.42278
 C246 C 0.51080 0.04829 0.43571
 H247 H 0.51098 0.08104 0.46865
 H248 H 0.55993 0.06467 0.50077
 H249 H 0.58183 0.03180 0.48957
 H250 H 0.56527 -0.00053 0.44083
 H251 H 0.53222 0.01054 0.41915
 H252 H 0.49981 0.05922 0.43574
 C253 C -0.03089 0.05807 0.53659
 C254 C -0.02547 0.04738 0.55268
 C255 C -0.03600 0.03145 0.55800
 C256 C -0.05207 0.02600 0.54731
 C257 C -0.05742 0.03656 0.53141
 C258 C -0.04677 0.05269 0.52602
 C259 C -0.02335 0.07416 0.52809
 N260 N -0.03430 0.07854 0.51273
 C261 C -0.04864 0.06559 0.51126
 C262 C -0.07346 0.02801 0.52382
 N263 N -0.07784 0.01262 0.53476
 C264 C -0.06494 0.01119 0.54913
 C265 C -0.02747 0.02388 0.57406
 N266 N -0.01214 0.03487 0.57847
 C267 C -0.01071 0.04926 0.56558
 H268 H -0.01086 0.08210 0.53268
 H269 H -0.05956 0.06559 0.50028
 H270 H -0.08137 0.03258 0.51132
 H271 H -0.06496 0.00021 0.56005
 H272 H -0.03204 0.01135 0.58195
 H273 H 0.00024 0.06022 0.56562
 C274 C 0.46910 0.55786 0.03586
 C275 C 0.47447 0.54716 0.05195
 C276 C 0.46389 0.53125 0.05726
 C277 C 0.44782 0.52586 0.04655
 C278 C 0.44251 0.53643 0.03065
 C279 C 0.45321 0.55253 0.02527
 C280 C 0.47670 0.57395 0.02739
 N281 N 0.46576 0.57835 0.01202
 C282 C 0.45138 0.56545 0.01051
 C283 C 0.42644 0.52793 0.02305
 N284 N 0.42201 0.51257 0.03398
 C285 C 0.43489 0.51109 0.04837
 C286 C 0.47236 0.52367 0.07334
 N287 N 0.48772 0.53462 0.07778
 C288 C 0.48921 0.54900 0.06489
 H289 H 0.48920 0.58185 0.03202
 H290 H 0.44046 0.56547 -0.00047
 H291 H 0.41856 0.53254 0.01054
 H292 H 0.43483 0.50012 0.05930
 H293 H 0.46775 0.51116 0.08123
 H294 H 0.50018 0.55993 0.06495
 C295 C 0.53117 -0.05778 0.03657
 C296 C 0.52580 -0.04712 0.05268
 C297 C 0.53639 -0.03123 0.05802
 C298 C 0.55248 -0.02582 0.04731
 C299 C 0.55778 -0.03636 0.03140
 C300 C 0.54706 -0.05243 0.02599
 C301 C 0.52357 -0.07382 0.02806
 N302 N 0.53449 -0.07821 0.01269
 C303 C 0.54887 -0.06531 0.01122
 C304 C 0.57386 -0.02785 0.02381
 N305 N 0.57830 -0.01252 0.03477
 C306 C 0.56541 -0.01107 0.04915
 C307 C 0.52791 -0.02369 0.07411
 N308 N 0.51255 -0.03464 0.07852
 C309 C 0.51105 -0.04898 0.06561
 H310 H 0.51106 -0.08173 0.03267
 H311 H 0.55979 -0.06533 0.00023
 H312 H 0.58174 -0.03243 0.01129
 H313 H 0.56548 -0.00012 0.06010
 H314 H 0.53253 -0.01120 0.08202
 H315 H 0.50007 -0.05991 0.06564
 C316 C 1.03107 0.44286 0.53614
 C317 C 1.02571 0.45346 0.55229
 C318 C 1.03626 0.46935 0.55766
 C319 C 1.05231 0.47485 0.54694
 C320 C 1.05761 0.46438 0.53097
 C321 C 1.04693 0.44829 0.52554
 C322 C 1.02350 0.42682 0.52760
 N323 N 1.03440 0.42251 0.51219
 C324 C 1.04874 0.43546 0.51073
 C325 C 1.07365 0.47295 0.52337
 N326 N 1.07805 0.48826 0.53437
 C327 C 1.06520 0.48964 0.54880
 C328 C 1.02779 0.47682 0.57379
 N329 N 1.01247 0.46582 0.57820
 C330 C 1.01099 0.45151 0.56524
 H331 H 1.01103 0.41886 0.53222
 H332 H 1.05964 0.43550 0.49972
 H333 H 1.08150 0.46842 0.51081
 H334 H 1.06524 0.50055 0.55979
 H335 H 1.03239 0.48930 0.58172
 H336 H 1.00003 0.44055 0.56527
 C337 C 0.40427 0.00859 0.22490
 H338 H 0.40502 0.02157 0.23326
 C339 C 0.41681 0.00585 0.20959
 H340 H 0.42722 0.01678 0.20608
 C341 C 0.38997 -0.02169 0.21936
 H342 H 0.37971 -0.03251 0.22338
 C343 C 0.40224 -0.02499 0.20395
 H344 H 0.40127 -0.03827 0.19603
 N345 N 0.39104 -0.00500 0.22934
 C346 C 0.34564 0.02561 0.25931
 H347 H 0.34481 0.01726 0.27231
 C348 C 0.33320 0.04099 0.25651
 H349 H 0.32278 0.04458 0.26740
 C350 C 0.36004 0.03099 0.22907
 H351 H 0.37028 0.02688 0.21828
 C352 C 0.34786 0.04648 0.22569
 H353 H 0.34890 0.05436 0.21240
 Zn354 Zn 0.37487 -0.00029 0.25054
 N355 N 0.35887 0.02105 0.24577
 C356 C 0.38980 0.02107 0.28182
 N357 N 0.39087 0.00436 0.27189
 C358 C 0.40399 -0.00929 0.27646
 C359 C 0.41644 -0.00658 0.29183
 C360 C 0.40199 0.02435 0.29730
 C361 C 0.34560 -0.02601 0.24149
 C362 C 0.33307 -0.04135 0.24415
 C363 C 0.34742 -0.04698 0.27507
 C364 C 0.35970 -0.03154 0.27184
 N365 N 0.35872 -0.02155 0.25515
 H366 H 0.37963 0.03194 0.27770
 H367 H 0.40474 -0.02230 0.26812
 H368 H 0.42678 -0.01755 0.29543
 H369 H 0.40103 0.03766 0.30517
 H370 H 0.34493 -0.01763 0.22850
 H371 H 0.32274 -0.04487 0.23316
 H372 H 0.34832 -0.05490 0.28836
 H373 H 0.36987 -0.02750 0.28273
 C374 C 0.33436 0.05154 0.23956
 C375 C 0.41574 -0.01107 0.19900
 C376 C 0.33404 -0.05195 0.26108
 C377 C 0.41538 0.01038 0.30237
 C378 C 0.09633 -0.00852 0.72466
 H379 H 0.09559 -0.02152 0.73302
 C380 C 0.08380 -0.00577 0.70936
 H381 H 0.07340 -0.01671 0.70585
 C382 C 0.11059 0.02179 0.71915
 H383 H 0.12083 0.03262 0.72318
 C384 C 0.09831 0.02510 0.70374
 H385 H 0.09927 0.03840 0.69584
 N386 N 0.10954 0.00508 0.72911
 C387 C 0.15496 -0.02548 0.75912
 H388 H 0.15578 -0.01712 0.77210
 C389 C 0.16740 -0.04087 0.75636
 H390 H 0.17782 -0.04445 0.76725
 C391 C 0.14056 -0.03092 0.72890
 H392 H 0.13031 -0.02683 0.71811
 C393 C 0.15275 -0.04641 0.72557
 H394 H 0.15170 -0.05432 0.71229
 Zn395 Zn 0.12569 0.00036 0.75033
 N396 N 0.14173 -0.02095 0.74558
 C397 C 0.11077 -0.02105 0.78160
 N398 N 0.10969 -0.00433 0.77167
 C399 C 0.09653 0.00929 0.77622
 C400 C 0.08407 0.00654 0.79159
 C401 C 0.09857 -0.02438 0.79707
 C402 C 0.15493 0.02614 0.74129
 C403 C 0.16743 0.04150 0.74395
 C404 C 0.15306 0.04706 0.77487
 C405 C 0.14081 0.03160 0.77164
 N406 N 0.14181 0.02164 0.75495
 H407 H 0.12097 -0.03190 0.77749
 H408 H 0.09576 0.02230 0.76788
 H409 H 0.07370 0.01748 0.79518
 H410 H 0.09954 -0.03769 0.80494
 H411 H 0.15563 0.01778 0.72829
 H412 H 0.17777 0.04505 0.73296
 H413 H 0.15215 0.05496 0.78816
 H414 H 0.13064 0.02753 0.78252
 C415 C 0.16624 -0.05145 0.73944
 C416 C 0.08484 0.01117 0.69878
 C417 C 0.16644 0.05207 0.76088
 C418 C 0.08514 -0.01043 0.80213
 C419 C 0.59571 0.49114 0.22432
 H420 H 0.59496 0.47813 0.23268
 C421 C 0.58321 0.49388 0.20899
 H422 H 0.57282 0.48293 0.20545
 C423 C 0.60996 0.52145 0.21884
 H424 H 0.62019 0.53229 0.22289
 C425 C 0.59772 0.52476 0.20340
 H426 H 0.59869 0.53806 0.19550
 N427 N 0.60890 0.50474 0.22880
 C428 C 0.65429 0.47422 0.25889
 H429 H 0.65509 0.48259 0.27187
 C430 C 0.66677 0.45886 0.25613
 H431 H 0.67719 0.45531 0.26704
 C432 C 0.63995 0.46876 0.22865
 H433 H 0.62971 0.47284 0.21784
 C434 C 0.65217 0.45330 0.22532
 H435 H 0.65116 0.44540 0.21204
 Zn436 Zn 0.62502 0.50004 0.25004
 N437 N 0.64107 0.47873 0.24533
 C438 C 0.61009 0.47866 0.28133
 N439 N 0.60899 0.49537 0.27137
 C440 C 0.59583 0.50898 0.27590
 C441 C 0.58338 0.50625 0.29128
 C442 C 0.59789 0.47536 0.29681
 C443 C 0.65428 0.52579 0.24102
 C444 C 0.66680 0.54114 0.24368
 C445 C 0.65236 0.54676 0.27457
 C446 C 0.64010 0.53131 0.27133
 N447 N 0.64113 0.52132 0.25466
 H448 H 0.62029 0.46781 0.27724
 H449 H 0.59506 0.52198 0.26754
 H450 H 0.57300 0.51720 0.29485
 H451 H 0.59888 0.46206 0.30471
 H452 H 0.65500 0.51741 0.22804
 H453 H 0.67716 0.54466 0.23271
 H454 H 0.65143 0.55469 0.28784
 H455 H 0.62991 0.52727 0.28220
 C456 C 0.66566 0.44829 0.23921
 C457 C 0.58427 0.51082 0.19841
 C458 C 0.66578 0.55174 0.26060
 C459 C 0.58446 0.48930 0.30185
 C460 C 0.90413 0.50841 0.72471
 H461 H 0.90483 0.52140 0.73309
 C462 C 0.91667 0.50574 0.70940
 H463 H 0.92705 0.51671 0.70590
 C464 C 0.88993 0.47810 0.71915
 H465 H 0.87971 0.46723 0.72316
 C466 C 0.90222 0.47485 0.70374
 H467 H 0.90129 0.46157 0.69581
 N468 N 0.89095 0.49478 0.72914
 C469 C 0.84543 0.52520 0.75912
 H470 H 0.84462 0.51684 0.77211
 C471 C 0.83294 0.54055 0.75632
 H472 H 0.82250 0.54410 0.76721
 C473 C 0.85982 0.53066 0.72888
 H474 H 0.87008 0.52660 0.71809
 C475 C 0.84758 0.54611 0.72552
 H476 H 0.84861 0.55401 0.71223
 Zn477 Zn 0.87476 0.49942 0.75035
 N478 N 0.85867 0.52070 0.74558
 C479 C 0.88959 0.52084 0.78162
 N480 N 0.89072 0.50413 0.77170
 C481 C 0.90389 0.49053 0.77629
 C482 C 0.91631 0.49329 0.79168
 C483 C 0.90175 0.52418 0.79711
 C484 C 0.84558 0.47360 0.74128
 C485 C 0.83308 0.45824 0.74394
 C486 C 0.84744 0.45265 0.77487
 C487 C 0.85968 0.46812 0.77164
 N488 N 0.85868 0.47810 0.75495
 H489 H 0.87939 0.53168 0.77749
 H490 H 0.90470 0.47752 0.76796
 H491 H 0.92669 0.48236 0.79529
 H492 H 0.90074 0.53749 0.80497
 H493 H 0.84488 0.48198 0.72829
 H494 H 0.82276 0.45469 0.73295
 H495 H 0.84835 0.44474 0.78816
 H496 H 0.86984 0.47219 0.78253
 C497 C 0.83407 0.55112 0.73938
 C498 C 0.91566 0.48882 0.69879
 C499 C 0.83407 0.44765 0.76087
 C500 C 0.91519 0.51025 0.80220
 C501 C 0.22372 0.40466 0.00840
 H502 H 0.23213 0.40536 0.02137
 C503 C 0.20835 0.41716 0.00577
 H504 H 0.20483 0.42749 0.01676
 C505 C 0.21816 0.39054 -0.02192
 H506 H 0.22220 0.38037 -0.03281
 C507 C 0.20269 0.40278 -0.02513
 H508 H 0.19474 0.40187 -0.03839
 N509 N 0.22818 0.39154 -0.00526
 C510 C 0.25848 0.34609 0.02497
 H511 H 0.27146 0.34536 0.01656
 C512 C 0.25579 0.33355 0.04028
 H513 H 0.26675 0.32316 0.04377
 C514 C 0.22818 0.36034 0.03057
 H515 H 0.21732 0.37057 0.02657
 C516 C 0.22492 0.34806 0.04599
 H517 H 0.21164 0.34902 0.05394
 Zn518 Zn 0.24949 0.37544 -0.00069
 N519 N 0.24485 0.35929 0.02055
 C520 C 0.28082 0.39034 0.02066
 N521 N 0.27082 0.39148 0.00400
 C522 C 0.27531 0.40471 -0.00957
 C523 C 0.29069 0.41717 -0.00683
 C524 C 0.29630 0.40253 0.02397
 C525 C 0.24052 0.34629 -0.02654
 C526 C 0.24324 0.33383 -0.04190
 C527 C 0.27414 0.34834 -0.04746
 C528 C 0.27084 0.36054 -0.03200
 N529 N 0.25414 0.35945 -0.02203
 H530 H 0.27676 0.38009 0.03148
 H531 H 0.26692 0.40552 -0.02254
 H532 H 0.29423 0.42758 -0.01774
 H533 H 0.30423 0.40151 0.03724
 H534 H 0.22752 0.34552 -0.01818
 H535 H 0.23229 0.32345 -0.04545
 H536 H 0.28745 0.34931 -0.05535
 H537 H 0.28170 0.37073 -0.02792
 C538 C 0.23888 0.33460 0.05091
 C539 C 0.19772 0.41617 -0.01113
 C540 C 0.26020 0.33490 -0.05247
 C541 C 0.30130 0.41602 0.01007
 C542 C 0.72499 0.09533 -0.00899
 H543 H 0.73336 0.09453 -0.02199
 C544 C 0.70962 0.08287 -0.00622
 H545 H 0.70605 0.07247 -0.01713
 C546 C 0.71956 0.10965 0.02125
 H547 H 0.72365 0.11989 0.03206
 C548 C 0.70408 0.09746 0.02460
 H549 H 0.69618 0.09847 0.03789
 N550 N 0.72952 0.10853 0.00456
 C551 C 0.75975 0.15376 -0.02606
 H552 H 0.77276 0.15453 -0.01773
 C553 C 0.75699 0.16623 -0.04143
 H554 H 0.76794 0.17660 -0.04502
 C555 C 0.72941 0.13951 -0.03144
 H556 H 0.71856 0.12931 -0.02733
 C557 C 0.72608 0.15172 -0.04691
 H558 H 0.71277 0.15074 -0.05478
 Zn559 Zn 0.75083 0.12458 -0.00019
 N560 N 0.74613 0.14060 -0.02151
 C561 C 0.78210 0.10951 -0.02153
 N562 N 0.77213 0.10848 -0.00483
 C563 C 0.77664 0.09534 0.00880
 C564 C 0.79199 0.08284 0.00611
 C565 C 0.79756 0.09727 -0.02480
 C566 C 0.74192 0.15389 0.02550
 C567 C 0.74464 0.16640 0.04082
 C568 C 0.77552 0.15187 0.04645
 C569 C 0.77223 0.13963 0.03102
 N570 N 0.75553 0.14070 0.02105
 H571 H 0.77803 0.11970 -0.03239
 H572 H 0.76827 0.09462 0.02180
 H573 H 0.79555 0.07248 0.01707
 H574 H 0.80546 0.09820 -0.03809
 H575 H 0.72892 0.15464 0.01713
 H576 H 0.73369 0.17679 0.04434
 H577 H 0.78881 0.15090 0.05436
 H578 H 0.78308 0.12940 0.02699
 C579 C 0.74002 0.16515 -0.05196
 C580 C 0.69904 0.08399 0.01071
 C581 C 0.76157 0.16533 0.05141
 C582 C 0.80257 0.08385 -0.01083
 C583 C 0.22367 0.59591 0.49108
 H584 H 0.23206 0.59514 0.47811
 C585 C 0.20830 0.58342 0.49380
 H586 H 0.20477 0.57304 0.48287
 C587 C 0.21816 0.61017 0.52134
 H588 H 0.22221 0.62039 0.53218
 C589 C 0.20269 0.59795 0.52464
 H590 H 0.19476 0.59892 0.53791
 N591 N 0.22816 0.60909 0.50467
 C592 C 0.25845 0.65440 0.47423
 H593 H 0.27143 0.65516 0.48262
 C594 C 0.25576 0.66687 0.45886
 H595 H 0.26671 0.67726 0.45533
 C596 C 0.22815 0.64013 0.46871
 H597 H 0.21729 0.62992 0.47275
 C598 C 0.22488 0.65235 0.45324
 H599 H 0.21160 0.65137 0.44531
 Zn600 Zn 0.24947 0.62516 0.50001
 N601 N 0.24483 0.64122 0.47870
 C602 C 0.28080 0.61015 0.47872
 N603 N 0.27079 0.60908 0.49539
 C604 C 0.27527 0.59591 0.50901
 C605 C 0.29064 0.58342 0.50632
 C606 C 0.29627 0.59793 0.47546
 C607 C 0.24048 0.65442 0.52573
 C608 C 0.24317 0.66691 0.54107
 C609 C 0.27404 0.65239 0.54674
 C610 C 0.27079 0.64016 0.53129
 N611 N 0.25411 0.64124 0.52128
 H612 H 0.27675 0.62036 0.46787
 H613 H 0.26687 0.59516 0.52198
 H614 H 0.29417 0.57304 0.51727
 H615 H 0.30421 0.59890 0.46219
 H616 H 0.22750 0.65518 0.51734
 H617 H 0.23221 0.67730 0.54458
 H618 H 0.28732 0.65141 0.55468
 H619 H 0.28165 0.62994 0.52727
 C620 C 0.23884 0.66580 0.44825
 C621 C 0.19770 0.58450 0.51072
 C622 C 0.26008 0.66584 0.55169
 C623 C 0.30126 0.58449 0.48941
 C624 C 0.72423 0.90440 0.50851
 H625 H 0.73261 0.90510 0.52150
 C626 C 0.70887 0.91689 0.50584
 H627 H 0.70532 0.92723 0.51682
 C628 C 0.71875 0.89025 0.47819
 H629 H 0.72281 0.88008 0.46732
 C630 C 0.70327 0.90249 0.47495
 H631 H 0.69535 0.90156 0.46167
 N632 N 0.72873 0.89127 0.49487
 C633 C 0.75893 0.84581 0.52518
 H634 H 0.77193 0.84507 0.51682
 C635 C 0.75619 0.83328 0.54050
 H636 H 0.76713 0.82288 0.54402
 C637 C 0.72861 0.86007 0.53068
 H638 H 0.71777 0.87031 0.52665
 C639 C 0.72530 0.84780 0.54610
 H640 H 0.71200 0.84876 0.55401
 Zn641 Zn 0.75003 0.87517 0.49950
 N642 N 0.74532 0.85901 0.52072
 C643 C 0.78128 0.89006 0.52097
 N644 N 0.77134 0.89122 0.50427
 C645 C 0.77587 0.90445 0.49073
 C646 C 0.79123 0.91692 0.49353
 C647 C 0.79675 0.90226 0.52434
 C648 C 0.74115 0.84603 0.47361
 C649 C 0.74391 0.83360 0.45823
 C650 C 0.77481 0.84815 0.45275
 C651 C 0.77147 0.86032 0.46823
 N652 N 0.75475 0.85920 0.47817
 H653 H 0.77719 0.87980 0.53176
 H654 H 0.76752 0.90527 0.47774
 H655 H 0.79480 0.92735 0.48264
 H656 H 0.80464 0.90123 0.53763
 H657 H 0.72813 0.84524 0.48195
 H658 H 0.73297 0.82323 0.45464
 H659 H 0.78812 0.84915 0.44488
 H660 H 0.78231 0.87052 0.47235
 C661 C 0.73924 0.83433 0.55107
 C662 C 0.69827 0.91588 0.48892
 C663 C 0.76088 0.83471 0.44769
 C664 C 0.80179 0.91577 0.51047
 C665 C 0.00869 0.22479 0.40406
 H666 H 0.02168 0.23319 0.40477
 C667 C 0.00600 0.20948 0.41661
 H668 H 0.01697 0.20599 0.42698
 C669 C -0.02164 0.21921 0.38988
 H670 H -0.03251 0.22322 0.37967
 C671 C -0.02490 0.20379 0.40217
 H672 H -0.03818 0.19586 0.40125
 N673 N -0.00495 0.22922 0.39090
 C674 C 0.02545 0.25934 0.34547
 H675 H 0.01706 0.27232 0.34467
 C676 C 0.04080 0.25659 0.33298
 H677 H 0.04432 0.26750 0.32256
 C678 C 0.03098 0.22908 0.35982
 H679 H 0.02694 0.21826 0.37007
 C680 C 0.04644 0.22576 0.34759
 H681 H 0.05436 0.21248 0.34860
 Zn682 Zn -0.00032 0.25047 0.37475
 N683 N 0.02098 0.24577 0.35869
 C684 C 0.02105 0.28180 0.38961
 N685 N 0.00435 0.27182 0.39073
 C686 C -0.00926 0.27633 0.40390
 C687 C -0.00652 0.29170 0.41635
 C688 C 0.02436 0.29727 0.40180
 C689 C -0.02611 0.24141 0.34558
 C690 C -0.04147 0.24408 0.33309
 C691 C -0.04711 0.27499 0.34748
 C692 C -0.03165 0.27175 0.35971
 N693 N -0.02164 0.25507 0.35870
 H694 H 0.03189 0.27772 0.37940
 H695 H -0.02225 0.26796 0.40469
 H696 H -0.01746 0.29525 0.42674
 H697 H 0.03766 0.30517 0.40081
 H698 H -0.01772 0.22842 0.34487
 H699 H -0.04499 0.23310 0.32275
 H700 H -0.05504 0.28828 0.34840
 H701 H -0.02760 0.28264 0.36988
 C702 C 0.05141 0.23966 0.33410
 C703 C -0.01093 0.19886 0.41561
 C704 C -0.05208 0.26101 0.33409
 C705 C 0.01043 0.30228 0.41525
 C706 C -0.00915 0.72400 0.09527
 H707 H -0.02216 0.73236 0.09450
 C708 C -0.00644 0.70860 0.08286
 H709 H -0.01741 0.70501 0.07252
 C710 C 0.02119 0.71857 0.10949
 H711 H 0.03205 0.72267 0.11966
 C712 C 0.02447 0.70307 0.09733
 H713 H 0.03778 0.69517 0.09832
 N714 N 0.00448 0.72854 0.10840
 C715 C -0.02597 0.75888 0.15364
 H716 H -0.01759 0.77188 0.15434
 C717 C -0.04132 0.75619 0.16614
 H718 H -0.04485 0.76716 0.17649
 C719 C -0.03146 0.72854 0.13949
 H720 H -0.02740 0.71767 0.12931
 C721 C -0.04691 0.72527 0.15174
 H722 H -0.05482 0.71198 0.15082
 Zn723 Zn -0.00019 0.74988 0.12440
 N724 N -0.02148 0.74524 0.14050
 C725 C -0.02156 0.78116 0.10939
 N726 N -0.00488 0.77116 0.10830
 C727 C 0.00873 0.77563 0.09511
 C728 C 0.00602 0.79099 0.08263
 C729 C -0.02485 0.79663 0.09717
 C730 C 0.02565 0.74100 0.15362
 C731 C 0.04103 0.74375 0.16607
 C732 C 0.04660 0.77460 0.15148
 C733 C 0.03112 0.77128 0.13929
 N734 N 0.02114 0.75459 0.14043
 H735 H -0.03241 0.77712 0.11962
 H736 H 0.02172 0.76724 0.09434
 H737 H 0.01697 0.79452 0.07224
 H738 H -0.03813 0.80457 0.09816
 H739 H 0.01728 0.72801 0.15442
 H740 H 0.04458 0.73283 0.17647
 H741 H 0.05451 0.78789 0.15047
 H742 H 0.02704 0.78211 0.12906
 C743 C -0.05190 0.73925 0.16514
 C744 C 0.01051 0.69802 0.08394
 C745 C 0.05161 0.76069 0.16495
 C746 C -0.01091 0.80161 0.08372
 C747 C 0.49136 0.22404 0.59656
 H748 H 0.47836 0.23242 0.59581
 C749 C 0.49407 0.20867 0.58410
 H750 H 0.48312 0.20514 0.57373
 C751 C 0.52168 0.21854 0.61079
 H752 H 0.53254 0.22260 0.62099
 C753 C 0.52497 0.20307 0.59859
 H754 H 0.53826 0.19515 0.59956
 N755 N 0.50499 0.22853 0.60972
 C756 C 0.47449 0.25874 0.65500
 H757 H 0.48286 0.27174 0.65576
 C758 C 0.45910 0.25602 0.66746
 H759 H 0.45554 0.26697 0.67781
 C760 C 0.46903 0.22844 0.64077
 H761 H 0.47311 0.21759 0.63057
 C762 C 0.45354 0.22514 0.65296
 H763 H 0.44563 0.21185 0.65198
 Zn764 Zn 0.50031 0.24982 0.62577
 N765 N 0.47901 0.24513 0.64185
 C766 C 0.47891 0.28110 0.61080
 N767 N 0.49561 0.27112 0.60971
 C768 C 0.50921 0.27562 0.59651
 C769 C 0.50647 0.29097 0.58403
 C770 C 0.47560 0.29656 0.59858
 C771 C 0.52616 0.24090 0.65497
 C772 C 0.54156 0.24362 0.66741
 C773 C 0.54711 0.27450 0.65287
 C774 C 0.53162 0.27120 0.64069
 N775 N 0.52164 0.25451 0.64181
 H776 H 0.46807 0.27704 0.62103
 H777 H 0.52221 0.26724 0.59574
 H778 H 0.51741 0.29451 0.57364
 H779 H 0.46230 0.30448 0.59957
 H780 H 0.51779 0.22790 0.65576
 H781 H 0.54513 0.23268 0.67778
 H782 H 0.55503 0.28779 0.65187
 H783 H 0.52753 0.28205 0.63049
 C784 C 0.44851 0.23909 0.66638
 C785 C 0.51101 0.19808 0.58517
 C786 C 0.55215 0.26056 0.66630
 C787 C 0.48953 0.30156 0.58512
 C788 C 0.50879 0.72401 0.90438
 H789 H 0.52179 0.73239 0.90510
 C790 C 0.50611 0.70866 0.91688
 H791 H 0.51709 0.70512 0.92723
 C792 C 0.47844 0.71851 0.89023
 H793 H 0.46755 0.72257 0.88005
 C794 C 0.47518 0.70305 0.90247
 H795 H 0.46189 0.69513 0.90154
 N796 N 0.49513 0.72850 0.89126
 C797 C 0.52547 0.75879 0.84590
 H798 H 0.51708 0.77179 0.84517
 C799 C 0.54080 0.75609 0.83337
 H800 H 0.54430 0.76705 0.82299
 C801 C 0.53101 0.72847 0.86011
 H802 H 0.52698 0.71761 0.87032
 C803 C 0.54644 0.72520 0.84784
 H804 H 0.55436 0.71191 0.84877
 Zn805 Zn 0.49975 0.74981 0.87518
 N806 N 0.52102 0.74517 0.85907
 C807 C 0.52113 0.78110 0.89011
 N808 N 0.50444 0.77110 0.89123
 C809 C 0.49085 0.77556 0.90444
 C810 C 0.49359 0.79090 0.91692
 C811 C 0.52444 0.79655 0.90234
 C812 C 0.47389 0.74087 0.84602
 C813 C 0.45851 0.74359 0.83357
 C814 C 0.45291 0.77445 0.84809
 C815 C 0.46840 0.77116 0.86028
 N816 N 0.47840 0.75447 0.85918
 H817 H 0.53196 0.77706 0.87987
 H818 H 0.47786 0.76717 0.90523
 H819 H 0.48267 0.79442 0.92733
 H820 H 0.53772 0.80447 0.90133
 H821 H 0.48229 0.72788 0.84525
 H822 H 0.45497 0.73265 0.82319
 H823 H 0.44499 0.78773 0.84907
 H824 H 0.47247 0.78200 0.87048
 C825 C 0.55140 0.73916 0.83439
 C826 C 0.48917 0.69806 0.91587
 C827 C 0.44791 0.76052 0.83465
 C828 C 0.51052 0.80151 0.91582
 C829 C 0.15642 0.21884 0.24967
 C830 C 0.14313 0.22148 0.26034
 C831 C 0.12728 0.22464 0.27309
 C832 C 0.13051 0.22701 0.29271
 C833 C 0.11510 0.23006 0.30510
 C834 C 0.09640 0.23076 0.29792
 C835 C 0.09316 0.22840 0.27830
 C836 C 0.10857 0.22534 0.26591
 C837 C 0.08054 0.23389 0.31067
 C838 C 0.06726 0.23651 0.32135
 H839 H 0.14492 0.22649 0.29841
 H840 H 0.11776 0.23187 0.32025
 H841 H 0.07876 0.22891 0.27260
 H842 H 0.10591 0.22353 0.25076
 C843 C 0.65626 0.71859 0.74972
 C844 C 0.64299 0.72122 0.76041
 C845 C 0.62714 0.72435 0.77317
 C846 C 0.60986 0.71460 0.77034
 C847 C 0.59447 0.71761 0.78277
 C848 C 0.59630 0.73038 0.79808
 C849 C 0.61359 0.74013 0.80092
 C850 C 0.62898 0.73712 0.78849
 C851 C 0.58048 0.73346 0.81088
 C852 C 0.56722 0.73605 0.82160
 H853 H 0.60828 0.70469 0.75854
 H854 H 0.58117 0.70999 0.78044
 H855 H 0.61516 0.75004 0.81272
 H856 H 0.64228 0.74473 0.79082
 C857 C 0.34283 0.78134 0.75033
 C858 C 0.35611 0.77868 0.76100
 C859 C 0.37197 0.77552 0.77374
 C860 C 0.37309 0.78557 0.79103
 C861 C 0.38851 0.78251 0.80341
 C862 C 0.40287 0.76939 0.79855
 C863 C 0.40175 0.75935 0.78126
 C864 C 0.38633 0.76240 0.76888
 C865 C 0.41873 0.76626 0.81128
 C866 C 0.43203 0.76364 0.82194
 H867 H 0.36206 0.79575 0.79493
 H868 H 0.38923 0.79036 0.81674
 H869 H 0.41277 0.74917 0.77736
 H870 H 0.38560 0.75456 0.75555
 C871 C -0.15701 0.28138 0.24946
 C872 C -0.14374 0.27879 0.26016
 C873 C -0.12790 0.27571 0.27295
 C874 C -0.12682 0.28585 0.29018
 C875 C -0.11142 0.28286 0.30261
 C876 C -0.09705 0.26971 0.29785
 C877 C -0.09814 0.25957 0.28061
 C878 C -0.11353 0.26256 0.26819
 C879 C -0.08121 0.26664 0.31062
 C880 C -0.06793 0.26407 0.32132
 H881 H -0.13785 0.29604 0.29400
 H882 H -0.11072 0.29077 0.31590
 H883 H -0.08710 0.24938 0.27679
 H884 H -0.11423 0.25465 0.25489
 C885 C -0.15692 0.71880 0.24969
 C886 C -0.14363 0.72140 0.23901
 C887 C -0.12777 0.72450 0.22625
 C888 C -0.12961 0.73719 0.21085
 C889 C -0.11420 0.74018 0.19844
 C890 C -0.09689 0.73050 0.20138
 C891 C -0.09505 0.71781 0.21678
 C892 C -0.11046 0.71482 0.22919
 C893 C -0.08104 0.73357 0.18860
 C894 C -0.06776 0.73615 0.17790
 H895 H -0.14293 0.74475 0.20844
 H896 H -0.11578 0.75003 0.18657
 H897 H -0.08173 0.71025 0.21918
 H898 H -0.10888 0.70497 0.24105
 C899 C 0.34297 0.21848 0.75024
 C900 C 0.35633 0.22108 0.73963
 C901 C 0.37226 0.22419 0.72698
 C902 C 0.38956 0.21450 0.73001
 C903 C 0.40505 0.21753 0.71771
 C904 C 0.40332 0.23027 0.70233
 C905 C 0.38602 0.23996 0.69930
 C906 C 0.37053 0.23692 0.71160
 C907 C 0.41925 0.23338 0.68967
 C908 C 0.43259 0.23598 0.67906
 H909 H 0.39105 0.20463 0.74185
 H910 H 0.41836 0.20997 0.72018
 H911 H 0.38453 0.24983 0.68745
 H912 H 0.35722 0.24449 0.70912
 C913 C 0.65753 0.28125 0.75026
 C914 C 0.64421 0.27864 0.73963
 C915 C 0.62830 0.27551 0.72695
 C916 C 0.62635 0.28660 0.71038
 C917 C 0.61088 0.28356 0.69806
 C918 C 0.59730 0.26942 0.70227
 C919 C 0.59926 0.25833 0.71884
 C920 C 0.61472 0.26137 0.73116
 C921 C 0.58139 0.26628 0.68959
 C922 C 0.56806 0.26367 0.67898
 H923 H 0.63676 0.29757 0.70698
 H924 H 0.60950 0.29221 0.68528
 H925 H 0.58884 0.24736 0.72223
 H926 H 0.61610 0.25272 0.74394
 C927 C 0.15668 0.78154 0.24926
 C928 C 0.14341 0.77892 0.23857
 C929 C 0.12755 0.77579 0.22583
 C930 C 0.10931 0.78260 0.23060
 C931 C 0.09389 0.77954 0.21823
 C932 C 0.09665 0.76964 0.20103
 C933 C 0.11490 0.76283 0.19626
 C934 C 0.13032 0.76590 0.20864
 C935 C 0.08079 0.76648 0.18831
 C936 C 0.06749 0.76384 0.17766
 H937 H 0.10701 0.79026 0.24386
 H938 H 0.07984 0.78486 0.22206
 H939 H 0.11719 0.75516 0.18301
 H940 H 0.14436 0.76056 0.20481
 C941 C 0.25012 0.15667 0.21834
 C942 C 0.26080 0.14339 0.22101
 C943 C 0.27354 0.12753 0.22421
 C944 C 0.27815 0.12197 0.24289
 C945 C 0.29052 0.10654 0.24601
 C946 C 0.29831 0.09661 0.23045
 C947 C 0.29370 0.10218 0.21177
 C948 C 0.28134 0.11760 0.20866
 C949 C 0.31102 0.08073 0.23366
 C950 C 0.32167 0.06743 0.23635
 H951 H 0.27220 0.12954 0.25503
 H952 H 0.29399 0.10235 0.26051
 H953 H 0.29965 0.09460 0.19964
 H954 H 0.27786 0.12179 0.19415
 C955 C 0.74981 0.65625 0.71828
 C956 C 0.76047 0.64295 0.72093
 C957 C 0.77318 0.62707 0.72412
 C958 C 0.78466 0.62024 0.70919
 C959 C 0.79702 0.60480 0.71229
 C960 C 0.79795 0.59614 0.73033
 C961 C 0.78648 0.60298 0.74526
 C962 C 0.77411 0.61841 0.74216
 C963 C 0.81067 0.58027 0.73352
 C964 C 0.82134 0.56697 0.73619
 H965 H 0.78406 0.62683 0.69518
 H966 H 0.80584 0.59963 0.70064
 H967 H 0.78708 0.59639 0.75927
 H968 H 0.76530 0.62359 0.75381
 C969 C 0.74968 0.34246 0.78118
 C970 C 0.76034 0.35577 0.77860
 C971 C 0.77308 0.37165 0.77553
 C972 C 0.79057 0.37253 0.78528
 C973 C 0.80296 0.38797 0.78230
 C974 C 0.79790 0.40259 0.76956
 C975 C 0.78041 0.40171 0.75981
 C976 C 0.76802 0.38628 0.76279
 C977 C 0.81064 0.41847 0.76649
 C978 C 0.82132 0.43177 0.76392
 H979 H 0.79463 0.36130 0.79516
 H980 H 0.81645 0.38851 0.78991
 H981 H 0.77636 0.41294 0.74992
 H982 H 0.75453 0.38574 0.75517
 C983 C 0.24953 -0.15707 0.28122
 C984 C 0.26021 -0.14377 0.27866
 C985 C 0.27296 -0.12789 0.27562
 C986 C 0.27138 -0.11677 0.25903
 C987 C 0.28378 -0.10134 0.25608
 C988 C 0.29781 -0.09697 0.26970
 C989 C 0.29938 -0.10809 0.28630
 C990 C 0.28699 -0.12352 0.28925
 C991 C 0.31057 -0.08110 0.26666
 C992 C 0.32126 -0.06780 0.26412
 H993 H 0.26059 -0.12002 0.24840
 H994 H 0.28244 -0.09283 0.24320
 H995 H 0.31018 -0.10484 0.29692
 H996 H 0.28833 -0.13203 0.30213
 C997 C 0.25011 -0.15695 0.71864
 C998 C 0.23949 -0.14360 0.72125
 C999 C 0.22684 -0.12767 0.72438
 C1000 C 0.23222 -0.11286 0.73676
 C1001 C 0.21992 -0.09738 0.73981
 C1002 C 0.20219 -0.09663 0.73050
 C1003 C 0.19680 -0.11143 0.71813
 C1004 C 0.20910 -0.12692 0.71507
 C1005 C 0.18953 -0.08070 0.73365
 C1006 C 0.17891 -0.06736 0.73629
 H1007 H 0.24591 -0.11330 0.74403
 H1008 H 0.22423 -0.08601 0.74941
 H1009 H 0.18312 -0.11100 0.71086
 H1010 H 0.20480 -0.13829 0.70548
 C1011 C 0.75013 0.34326 0.21848
 C1012 C 0.73943 0.35654 0.22108
 C1013 C 0.72667 0.37239 0.22420
 C1014 C 0.73380 0.39113 0.22439
 C1015 C 0.72140 0.40654 0.22743
 C1016 C 0.70183 0.40328 0.23029
 C1017 C 0.69469 0.38455 0.23010
 C1018 C 0.70709 0.36913 0.22706
 C1019 C 0.68907 0.41914 0.23343
 C1020 C 0.67839 0.43242 0.23606
 H1021 H 0.74892 0.39381 0.22220
 H1022 H 0.72707 0.42097 0.22755
 H1023 H 0.67958 0.38187 0.23229
 H1024 H 0.70143 0.35471 0.22694
 C1025 C 0.75028 0.65683 0.28073
 C1026 C 0.73960 0.64353 0.27818
 C1027 C 0.72684 0.62767 0.27514
 C1028 C 0.71249 0.62359 0.28853
 C1029 C 0.70009 0.60816 0.28558
 C1030 C 0.70200 0.59675 0.26923
 C1031 C 0.71635 0.60083 0.25584
 C1032 C 0.72875 0.61625 0.25879
 C1033 C 0.68924 0.58089 0.26619
 C1034 C 0.67854 0.56760 0.26364
 H1035 H 0.71090 0.63232 0.30122
 H1036 H 0.68904 0.60514 0.29602
 H1037 H 0.71794 0.59210 0.24315
 H1038 H 0.73979 0.61928 0.24835
 C1039 C 0.25076 0.15730 0.78111
 C1040 C 0.24011 0.14398 0.77854
 C1041 C 0.22739 0.12809 0.77548
 C1042 C 0.22010 0.12444 0.75719
 C1043 C 0.20773 0.10900 0.75422
 C1044 C 0.20259 0.09713 0.76953
 C1045 C 0.20988 0.10078 0.78783
 C1046 C 0.22225 0.11622 0.79080
 C1047 C 0.18986 0.08125 0.76648
 C1048 C 0.17919 0.06794 0.76393
 H1049 H 0.22397 0.13353 0.74525
 H1050 H 0.20217 0.10631 0.74001
 H1051 H 0.20600 0.09169 0.79977
 H1052 H 0.22780 0.11891 0.80500
 C1053 C 0.21849 0.25013 0.15595
 C1054 C 0.22108 0.26079 0.14265
 C1055 C 0.22416 0.27354 0.12678
 C1056 C 0.21714 0.29230 0.12746
 C1057 C 0.22013 0.30469 0.11204
 C1058 C 0.23015 0.29837 0.09589
 C1059 C 0.23717 0.27961 0.09521
 C1060 C 0.23418 0.26721 0.11063
 C1061 C 0.23323 0.31113 0.08003
 C1062 C 0.23581 0.32182 0.06675
 H1063 H 0.20937 0.29734 0.13988
 H1064 H 0.21464 0.31917 0.11271
 H1065 H 0.24494 0.27457 0.08279
 H1066 H 0.23967 0.25273 0.10996
 C1067 C 0.71842 0.74988 0.65604
 C1068 C 0.72106 0.76055 0.64275
 C1069 C 0.72421 0.77330 0.62690
 C1070 C 0.71722 0.79207 0.62756
 C1071 C 0.72028 0.80446 0.61215
 C1072 C 0.73034 0.79813 0.59603
 C1073 C 0.73733 0.77935 0.59537
 C1074 C 0.73427 0.76696 0.61078
 C1075 C 0.73348 0.81088 0.58018
 C1076 C 0.73611 0.82156 0.56691
 H1077 H 0.70941 0.79712 0.63995
 H1078 H 0.71481 0.81895 0.61280
 H1079 H 0.74514 0.77431 0.58298
 H1080 H 0.73974 0.75247 0.61012
 C1081 C 0.78182 0.75053 0.34263
 C1082 C 0.77920 0.76119 0.35591
 C1083 C 0.77605 0.77390 0.37178
 C1084 C 0.78111 0.79325 0.37031
 C1085 C 0.77803 0.80560 0.38573
 C1086 C 0.76988 0.79867 0.40267
 C1087 C 0.76482 0.77933 0.40413
 C1088 C 0.76790 0.76697 0.38872
 C1089 C 0.76670 0.81138 0.41853
 C1090 C 0.76405 0.82202 0.43182
 H1091 H 0.78742 0.79876 0.35728
 H1092 H 0.78199 0.82053 0.38444
 H1093 H 0.75851 0.77382 0.41717
 H1094 H 0.76393 0.75204 0.39000
 C1095 C 0.28120 0.25037 -0.15724
 C1096 C 0.27853 0.26107 -0.14400
 C1097 C 0.27534 0.27384 -0.12819
 C1098 C 0.26717 0.26697 -0.11123
 C1099 C 0.26408 0.27937 -0.09586
 C1100 C 0.26915 0.29871 -0.09738
 C1101 C 0.27732 0.30558 -0.11434
 C1102 C 0.28041 0.29317 -0.12971
 C1103 C 0.26598 0.31147 -0.08156
 C1104 C 0.26334 0.32215 -0.06830
 H1105 H 0.26320 0.25204 -0.10990
 H1106 H 0.25775 0.27391 -0.08282
 H1107 H 0.28130 0.32051 -0.11567
 H1108 H 0.28674 0.29864 -0.14275
 C1109 C 0.71904 0.24951 -0.15697
 C1110 C 0.72169 0.23883 -0.14370
 C1111 C 0.72486 0.22609 -0.12784
 C1112 C 0.72663 0.23342 -0.10929
 C1113 C 0.72972 0.22104 -0.09388
 C1114 C 0.73105 0.20128 -0.09697
 C1115 C 0.72927 0.19395 -0.11552
 C1116 C 0.72619 0.20633 -0.13093
 C1117 C 0.73421 0.18854 -0.08111
 C1118 C 0.73687 0.17787 -0.06783
 H1119 H 0.72563 0.24867 -0.10675
 H1120 H 0.73107 0.22685 -0.07960
 H1121 H 0.73027 0.17869 -0.11806
 H1122 H 0.72484 0.20051 -0.14521
 C1123 C 0.21849 0.75011 0.34309
 C1124 C 0.22106 0.73945 0.35639
 C1125 C 0.22413 0.72672 0.37227
 C1126 C 0.22586 0.73406 0.39082
 C1127 C 0.22884 0.72169 0.40625
 C1128 C 0.23011 0.70192 0.40320
 C1129 C 0.22839 0.69458 0.38465
 C1130 C 0.22541 0.70695 0.36922
 C1131 C 0.23317 0.68919 0.41908
 C1132 C 0.23575 0.67853 0.43238
 H1133 H 0.22489 0.74932 0.39334
 H1134 H 0.23015 0.72752 0.42054
 H1135 H 0.22935 0.67931 0.38213
 H1136 H 0.22409 0.70112 0.35493
 C1137 C 0.28062 0.75013 0.65673
 C1138 C 0.27800 0.73947 0.64345
 C1139 C 0.27488 0.72675 0.62759
 C1140 C 0.27440 0.70693 0.63055
 C1141 C 0.27138 0.69456 0.61513
 C1142 C 0.26884 0.70196 0.59669
 C1143 C 0.26931 0.72178 0.59373
 C1144 C 0.27233 0.73415 0.60915
 C1145 C 0.26574 0.68924 0.58083
 C1146 C 0.26316 0.67857 0.56754
 H1147 H 0.27635 0.70106 0.64475
 H1148 H 0.27104 0.67926 0.61758
 H1149 H 0.26736 0.72766 0.57953
 H1150 H 0.27268 0.74946 0.60670
 C1151 C 0.78191 0.24970 0.15643
 C1152 C 0.77935 0.23903 0.14315
 C1153 C 0.77630 0.22629 0.12729
 C1154 C 0.77461 0.20656 0.13042
 C1155 C 0.77164 0.19418 0.11500
 C1156 C 0.77034 0.20148 0.09639
 C1157 C 0.77203 0.22121 0.09326
 C1158 C 0.77500 0.23359 0.10867
 C1159 C 0.76726 0.18875 0.08054
 C1160 C 0.76467 0.17807 0.06725
 H1161 H 0.77559 0.20077 0.14475
 H1162 H 0.77035 0.17895 0.11759
 H1163 H 0.77104 0.22700 0.07892
 H1164 H 0.77629 0.24882 0.10609
 C1165 C 0.46880 0.40665 0.50076
 C1166 C 0.47142 0.39337 0.51144
 C1167 C 0.47456 0.37750 0.52417
 C1168 C 0.47948 0.35952 0.51682
 C1169 C 0.48252 0.34410 0.52920
 C1170 C 0.48065 0.34659 0.54898
 C1171 C 0.47574 0.36457 0.55634
 C1172 C 0.47270 0.38000 0.54396
 C1173 C 0.48377 0.33072 0.56172
 C1174 C 0.48639 0.31743 0.57238
 H1175 H 0.48096 0.35743 0.50155
 H1176 H 0.48631 0.33025 0.52336
 H1177 H 0.47426 0.36666 0.57161
 H1178 H 0.46891 0.39384 0.54979
 C1179 C -0.03137 0.90700 -0.00034
 C1180 C -0.02879 0.89367 0.01029
 C1181 C -0.02570 0.87775 0.02298
 C1182 C -0.02068 0.85982 0.01558
 C1183 C -0.01768 0.84435 0.02791
 C1184 C -0.01968 0.84675 0.04769
 C1185 C -0.02470 0.86468 0.05509
 C1186 C -0.02771 0.88015 0.04276
 C1187 C -0.01659 0.83083 0.06038
 C1188 C -0.01400 0.81751 0.07101
 H1189 H -0.01909 0.85780 0.00030
 H1190 H -0.01380 0.83054 0.02203
 H1191 H -0.02629 0.86669 0.07036
 H1192 H -0.03158 0.89395 0.04863
 C1193 C 0.03116 0.59261 0.00006
 C1194 C 0.02856 0.60593 0.01069
 C1195 C 0.02545 0.62184 0.02336
 C1196 C 0.03197 0.64012 0.01833
 C1197 C 0.02893 0.65559 0.03063
 C1198 C 0.01936 0.65285 0.04802
 C1199 C 0.01284 0.63457 0.05305
 C1200 C 0.01587 0.61910 0.04075
 C1201 C 0.01623 0.66876 0.06068
 C1202 C 0.01362 0.68210 0.07128
 H1203 H 0.03938 0.64240 0.00492
 H1204 H 0.03403 0.66966 0.02660
 H1205 H 0.00542 0.63229 0.06646
 H1206 H 0.01077 0.60503 0.04478
 C1207 C 0.53153 0.09297 0.50089
 C1208 C 0.52894 0.10626 0.51156
 C1209 C 0.52586 0.12212 0.52429
 C1210 C 0.52944 0.14084 0.51808
 C1211 C 0.52643 0.15627 0.53045
 C1212 C 0.51982 0.15303 0.54908
 C1213 C 0.51624 0.13432 0.55529
 C1214 C 0.51925 0.11889 0.54293
 C1215 C 0.51671 0.16890 0.56180
 C1216 C 0.51411 0.18220 0.57245
 H1217 H 0.53456 0.14350 0.50370
 H1218 H 0.52925 0.17068 0.52549
 H1219 H 0.51112 0.13166 0.56967
 H1220 H 0.51643 0.10448 0.54788
 C1221 C -0.03127 0.09398 0.50031
 C1222 C -0.02867 0.10726 0.48962
 C1223 C -0.02559 0.12310 0.47684
 C1224 C -0.01571 0.12034 0.45964
 C1225 C -0.01273 0.13573 0.44720
 C1226 C -0.01962 0.15395 0.45193
 C1227 C -0.02950 0.15671 0.46914
 C1228 C -0.03248 0.14132 0.48157
 C1229 C -0.01657 0.16978 0.43913
 C1230 C -0.01400 0.18304 0.42841
 H1231 H -0.01032 0.10631 0.45584
 H1232 H -0.00507 0.13343 0.43393
 H1233 H -0.03489 0.17074 0.47293
 H1234 H -0.04014 0.14362 0.49484
 C1235 C 0.46866 0.59298 1.00030
 C1236 C 0.47130 0.60628 0.98963
 C1237 C 0.47442 0.62214 0.97689
 C1238 C 0.47572 0.61905 0.95715
 C1239 C 0.47873 0.63447 0.94476
 C1240 C 0.48045 0.65305 0.95206
 C1241 C 0.47915 0.65615 0.97181
 C1242 C 0.47614 0.64072 0.98420
 C1243 C 0.48352 0.66892 0.93932
 C1244 C 0.48609 0.68221 0.92863
 H1245 H 0.47440 0.60474 0.95135
 H1246 H 0.47971 0.63192 0.92952
 H1247 H 0.48046 0.67046 0.97761
 H1248 H 0.47516 0.64328 0.99944
 C1249 C 0.53140 0.90638 1.00027
 C1250 C 0.52875 0.89312 0.98959
 C1251 C 0.52559 0.87729 0.97683
 C1252 C 0.52122 0.85916 0.98420
 C1253 C 0.51815 0.84377 0.97180
 C1254 C 0.51945 0.84645 0.95199
 C1255 C 0.52382 0.86457 0.94463
 C1256 C 0.52689 0.87996 0.95703
 C1257 C 0.51629 0.83062 0.93924
 C1258 C 0.51366 0.81735 0.92856
 H1259 H 0.52018 0.85693 0.99949
 H1260 H 0.51478 0.82982 0.97764
 H1261 H 0.52486 0.86680 0.92934
 H1262 H 0.53026 0.89392 0.95118
 C1263 C 0.03133 0.40712 0.49974
 C1264 C 0.02869 0.39387 0.48904
 C1265 C 0.02553 0.37804 0.47628
 C1266 C 0.02114 0.35992 0.48363
 C1267 C 0.01807 0.34454 0.47123
 C1268 C 0.01938 0.34722 0.45142
 C1269 C 0.02376 0.36534 0.44407
 C1270 C 0.02684 0.38073 0.45647
 C1271 C 0.01622 0.33139 0.43867
 C1272 C 0.01358 0.31812 0.42799
 H1273 H 0.02010 0.35768 0.49892
 H1274 H 0.01469 0.33058 0.47707
 H1275 H 0.02481 0.36757 0.42878
 H1276 H 0.03022 0.39468 0.45064
 C1277 C 0.40651 0.50017 0.46906
 C1278 C 0.39319 0.51083 0.47164
 C1279 C 0.37730 0.52356 0.47471
 C1280 C 0.36478 0.52048 0.49006
 C1281 C 0.34933 0.53285 0.49304
 C1282 C 0.34634 0.54835 0.48069
 C1283 C 0.35886 0.55143 0.46535
 C1284 C 0.37431 0.53906 0.46236
 C1285 C 0.33045 0.56108 0.48375
 C1286 C 0.31714 0.57175 0.48633
 H1287 H 0.36696 0.50854 0.49969
 H1288 H 0.33974 0.53034 0.50495
 H1289 H 0.35668 0.56338 0.45571
 H1290 H 0.38390 0.54157 0.45046
 C1291 C 0.90765 -0.00067 -0.03122
 C1292 C 0.89435 0.01002 -0.02863
 C1293 C 0.87849 0.02278 -0.02555
 C1294 C 0.85987 0.01700 -0.03026
 C1295 C 0.84445 0.02941 -0.02727
 C1296 C 0.84759 0.04764 -0.01957
 C1297 C 0.86620 0.05342 -0.01487
 C1298 C 0.88162 0.04101 -0.01785
 C1299 C 0.83172 0.06041 -0.01650
 C1300 C 0.81843 0.07110 -0.01392
 H1301 H 0.85729 0.00294 -0.03622
 H1302 H 0.83012 0.02480 -0.03096
 H1303 H 0.86878 0.06748 -0.00890
 H1304 H 0.89595 0.04562 -0.01416
 C1305 C 0.59376 -0.00013 0.03170
 C1306 C 0.60707 0.01052 0.02906
 C1307 C 0.62296 0.02323 0.02590
 C1308 C 0.62117 0.03857 0.01312
 C1309 C 0.63663 0.05091 0.01004
 C1310 C 0.65393 0.04796 0.01972
 C1311 C 0.65572 0.03263 0.03250
 C1312 C 0.64027 0.02029 0.03559
 C1313 C 0.66983 0.06065 0.01653
 C1314 C 0.68315 0.07129 0.01388
 H1315 H 0.60786 0.04097 0.00556
 H1316 H 0.63509 0.06272 0.00012
 H1317 H 0.66904 0.03022 0.04006
 H1318 H 0.64181 0.00847 0.04550
 C1319 C 0.09264 0.50004 0.53148
 C1320 C 0.10592 0.51074 0.52885
 C1321 C 0.12177 0.52350 0.52571
 C1322 C 0.12946 0.53392 0.54099
 C1323 C 0.14487 0.54632 0.53794
 C1324 C 0.15266 0.54834 0.51959
 C1325 C 0.14498 0.53792 0.50431
 C1326 C 0.12956 0.52553 0.50736
 C1327 C 0.16853 0.56109 0.51645
 C1328 C 0.18183 0.57176 0.51383
 H1329 H 0.12354 0.53246 0.55524
 H1330 H 0.15071 0.55431 0.54985
 H1331 H 0.15089 0.53938 0.49007
 H1332 H 0.12373 0.51754 0.49545
 C1333 C 0.09241 0.50054 -0.03101
 C1334 C 0.10574 0.48989 -0.02848
 C1335 C 0.12165 0.47716 -0.02548
 C1336 C 0.12941 0.46698 -0.04089
 C1337 C 0.14487 0.45460 -0.03798
 C1338 C 0.15262 0.45234 -0.01965
 C1339 C 0.14486 0.46253 -0.00424
 C1340 C 0.12941 0.47491 -0.00715
 C1341 C 0.16852 0.43960 -0.01666
 C1342 C 0.18183 0.42892 -0.01414
 H1343 H 0.12352 0.46861 -0.05513
 H1344 H 0.15076 0.44679 -0.05000
 H1345 H 0.15075 0.46089 0.00999
 H1346 H 0.12352 0.48271 0.00486
 C1347 C 0.59293 1.00017 0.46887
 C1348 C 0.60626 0.98951 0.47140
 C1349 C 0.62217 0.97679 0.47442
 C1350 C 0.63714 0.98213 0.48663
 C1351 C 0.65260 0.96976 0.48956
 C1352 C 0.65316 0.95201 0.48030
 C1353 C 0.63819 0.94667 0.46809
 C1354 C 0.62273 0.95903 0.46516
 C1355 C 0.66906 0.93928 0.48332
 C1356 C 0.68238 0.92861 0.48587
 H1357 H 0.63685 0.99583 0.49386
 H1358 H 0.66410 0.97403 0.49903
 H1359 H 0.63848 0.93297 0.46086
 H1360 H 0.61123 0.95476 0.45569
 C1361 C 0.90676 1.00017 0.53167
 C1362 C 0.89350 0.98947 0.52900
 C1363 C 0.87767 0.97670 0.52579
 C1364 C 0.87042 0.96568 0.54088
 C1365 C 0.85501 0.95329 0.53776
 C1366 C 0.84680 0.95187 0.51955
 C1367 C 0.85406 0.96289 0.50446
 C1368 C 0.86946 0.97528 0.50758
 C1369 C 0.83095 0.93914 0.51634
 C1370 C 0.81765 0.92848 0.51366
 H1371 H 0.87666 0.96667 0.55502
 H1372 H 0.84951 0.94483 0.54953
 H1373 H 0.84781 0.96191 0.49032
 H1374 H 0.87496 0.98374 0.49581
 C1375 C 0.40655 0.50018 0.03091
 C1376 C 0.39325 0.48952 0.02827
 C1377 C 0.37736 0.47681 0.02512
 C1378 C 0.36949 0.47495 0.00679
 C1379 C 0.35404 0.46260 0.00373
 C1380 C 0.34640 0.45207 0.01898
 C1381 C 0.35428 0.45394 0.03730
 C1382 C 0.36972 0.46628 0.04036
 C1383 C 0.33051 0.43937 0.01583
 C1384 C 0.31719 0.42873 0.01320
 H1385 H 0.37528 0.48302 -0.00510
 H1386 H 0.34806 0.46127 -0.01049
 H1387 H 0.34848 0.44586 0.04919
 H1388 H 0.37570 0.46762 0.05459
 C1389 C 0.50024 0.46867 0.40704
 C1390 C 0.51090 0.47128 0.39374
 C1391 C 0.52362 0.47439 0.37786
 C1392 C 0.51856 0.48723 0.36332
 C1393 C 0.53092 0.49026 0.34788
 C1394 C 0.54839 0.48046 0.34692
 C1395 C 0.55344 0.46762 0.36146
 C1396 C 0.54108 0.46459 0.37689
 C1397 C 0.56110 0.48356 0.33104
 C1398 C 0.57175 0.48618 0.31773
 H1399 H 0.50509 0.49488 0.36393
 H1400 H 0.52687 0.50021 0.33672
 H1401 H 0.56692 0.45997 0.36085
 H1402 H 0.54513 0.45463 0.38805
 C1403 C 0.00064 -0.03139 0.90703
 C1404 C 0.01135 -0.02874 0.89378
 C1405 C 0.02412 -0.02557 0.87795
 C1406 C 0.02090 -0.01031 0.86536
 C1407 C 0.03331 -0.00723 0.84997
 C1408 C 0.04898 -0.01940 0.84711
 C1409 C 0.05220 -0.03466 0.85969
 C1410 C 0.03979 -0.03774 0.87509
 C1411 C 0.06173 -0.01624 0.83126
 C1412 C 0.07241 -0.01359 0.81798
 H1413 H 0.00883 -0.00081 0.86744
 H1414 H 0.03069 0.00461 0.84032
 H1415 H 0.06427 -0.04416 0.85761
 H1416 H 0.04241 -0.04959 0.88473
 C1417 C 0.00028 0.03182 0.59390
 C1418 C 0.01097 0.02921 0.60717
 C1419 C 0.02374 0.02610 0.62301
 C1420 C 0.01919 0.03334 0.64112
 C1421 C 0.03160 0.03032 0.65651
 C1422 C 0.04861 0.02004 0.65386
 C1423 C 0.05316 0.01280 0.63575
 C1424 C 0.04075 0.01583 0.62035
 C1425 C 0.06137 0.01692 0.66970
 C1426 C 0.07207 0.01430 0.68296
 H1427 H 0.00607 0.04131 0.64333
 H1428 H 0.02794 0.03598 0.67046
 H1429 H 0.06628 0.00483 0.63354
 H1430 H 0.04441 0.01017 0.60641
 C1431 C 0.50009 0.53155 0.09324
 C1432 C 0.51073 0.52892 0.10655
 C1433 C 0.52343 0.52579 0.12244
 C1434 C 0.52609 0.54016 0.13613
 C1435 C 0.53843 0.53712 0.15157
 C1436 C 0.54817 0.51969 0.15338
 C1437 C 0.54551 0.50531 0.13969
 C1438 C 0.53316 0.50835 0.12425
 C1439 C 0.56088 0.51656 0.16926
 C1440 C 0.57154 0.51394 0.18255
 H1441 H 0.51863 0.55370 0.13487
 H1442 H 0.54039 0.54833 0.16208
 H1443 H 0.55297 0.49178 0.14095
 H1444 H 0.53121 0.49714 0.11374
 C1445 C 0.50016 -0.03161 0.09398
 C1446 C 0.48950 -0.02901 0.10728
 C1447 C 0.47677 -0.02592 0.12315
 C1448 C 0.47978 -0.01048 0.13556
 C1449 C 0.46739 -0.00748 0.15098
 C1450 C 0.45195 -0.01989 0.15404
 C1451 C 0.44894 -0.03532 0.14164
 C1452 C 0.46132 -0.03833 0.12622
 C1453 C 0.43920 -0.01679 0.16989
 C1454 C 0.42850 -0.01418 0.18317
 H1455 H 0.49167 -0.00080 0.13331
 H1456 H 0.46985 0.00450 0.16048
 H1457 H 0.43704 -0.04501 0.14388
 H1458 H 0.45887 -0.05031 0.11671
 C1459 C 1.00009 0.46877 0.59368
 C1460 C 0.98944 0.47130 0.60700
 C1461 C 0.97671 0.47431 0.62289
 C1462 C 0.96130 0.46185 0.62593
 C1463 C 0.94891 0.46479 0.64136
 C1464 C 0.95189 0.48020 0.65381
 C1465 C 0.96730 0.49266 0.65077
 C1466 C 0.97968 0.48972 0.63534
 C1467 C 0.93913 0.48323 0.66967
 C1468 C 0.92844 0.48577 0.68295
 H1469 H 0.95887 0.44990 0.61639
 H1470 H 0.93704 0.45507 0.64358
 H1471 H 0.96972 0.50462 0.66031
 H1472 H 0.99155 0.49945 0.63311
 C1473 C 0.99937 0.53122 0.90730
 C1474 C 0.98869 0.52859 0.89403
 C1475 C 0.97596 0.52543 0.87818
 C1476 C 0.97519 0.53866 0.86314
 C1477 C 0.96284 0.53557 0.84772
 C1478 C 0.95120 0.51925 0.84727
 C1479 C 0.95197 0.50603 0.86231
 C1480 C 0.96433 0.50911 0.87773
 C1481 C 0.93851 0.51607 0.83139
 C1482 C 0.92787 0.51342 0.81809
 H1483 H 0.98413 0.55132 0.86334
 H1484 H 0.96235 0.54589 0.83616
 H1485 H 0.94304 0.49336 0.86211
 H1486 H 0.96481 0.49879 0.88928
 C1487 C 0.49979 0.03094 0.40737
 C1488 C 0.48909 0.02835 0.39411
 C1489 C 0.47633 0.02526 0.37826
 C1490 C 0.47800 0.03642 0.36171
 C1491 C 0.46561 0.03341 0.34630
 C1492 C 0.45150 0.01921 0.34739
 C1493 C 0.44982 0.00805 0.36394
 C1494 C 0.46221 0.01106 0.37935
 C1495 C 0.43876 0.01610 0.33153
 C1496 C 0.42810 0.01349 0.31824
 H1497 H 0.48887 0.04744 0.36072
 H1498 H 0.46703 0.04212 0.33357
 H1499 H 0.43896 -0.00297 0.36493
 H1500 H 0.46079 0.00235 0.39208
   
