data_POSCAR
  _audit_creation_date              2014-09-24
  _audit_creation_method            'ToBaCCo'
  _symmetry_space_group_name_H-M    'P1'
  _symmetry_Int_Tables_number       1
  _symmetry_cell_setting            triclinic
  loop_
  _symmetry_equiv_pos_as_xyz
 x,y,z
_cell_length_a 46.8059
_cell_length_b 52.5576
_cell_length_c 53.8403
_cell_angle_alpha 89.865700
_cell_angle_beta 89.666600
_cell_angle_gamma 90.071300
loop_
  _atom_site_label
  _atom_site_type_symbol
  _atom_site_fract_x
  _atom_site_fract_y
  _atom_site_fract_z
O1 O 0.30522 0.35153 0.01447
 O2 O 0.34681 0.31268 -0.03002
 O3 O 0.30752 0.34803 -0.03396
 O4 O 0.34496 0.31701 0.01766
 O5 O 0.31068 0.28810 0.02025
 O6 O 0.27398 0.31862 -0.03215
 O7 O 0.31355 0.28298 -0.02764
 O8 O 0.27164 0.32205 0.01554
 Cu9 Cu 0.32941 0.33536 -0.00827
 Cu10 Cu 0.28915 0.29989 -0.00615
 C11 C 0.28134 0.34336 0.02265
 C12 C 0.33761 0.29071 -0.03571
 C13 C 0.28396 0.33899 -0.04158
 C14 C 0.33410 0.29741 0.02778
 O15 O 0.65517 0.68062 -0.01967
 O16 O 0.69648 0.65018 0.03044
 O17 O 0.65488 0.68432 0.02859
 O18 O 0.69357 0.64539 -0.01740
 O19 O 0.72758 0.67440 -0.02001
 O20 O 0.68710 0.71449 0.02358
 O21 O 0.73003 0.67938 0.02576
 O22 O 0.69059 0.70784 -0.02589
 Cu23 Cu 0.67158 0.66227 0.00619
 Cu24 Cu 0.71129 0.69770 0.00152
 C25 C 0.66644 0.69882 -0.03185
 C26 C 0.72100 0.65901 0.03583
 C27 C 0.66388 0.70656 0.03321
 C28 C 0.71727 0.65302 -0.02645
 O29 O 0.65268 0.31720 1.03405
 O30 O 0.69189 0.35701 0.98823
 O31 O 0.65696 0.31629 0.98761
 O32 O 0.68007 0.35801 1.03763
 O33 O 0.72112 0.33777 1.04055
 O34 O 0.69710 0.29435 0.99030
 O35 O 0.73038 0.33353 0.99337
 O36 O 0.69181 0.29437 1.03890
 Cu37 Cu 0.66741 0.34006 1.01073
 Cu38 Cu 0.71390 0.31259 1.01648
 C39 C 0.66574 0.29865 1.04406
 C40 C 0.71781 0.35191 0.98284
 C41 C 0.67272 0.29809 0.98056
 C42 C 0.70427 0.35533 1.04780
 O43 O 0.33724 0.68061 1.01665
 O44 O 0.31120 0.63862 0.96725
 O45 O 0.34513 0.67740 0.96923
 O46 O 0.30216 0.64179 1.01495
 O47 O 0.26611 0.66791 1.00878
 O48 O 0.30802 0.70206 0.96128
 O49 O 0.27416 0.66396 0.96121
 O50 O 0.30194 0.70727 1.00919
 Cu51 Cu 0.32748 0.65697 0.99289
 Cu52 Cu 0.28379 0.68800 0.98488
 C53 C 0.32469 0.70158 1.02074
 C54 C 0.28853 0.64429 0.95568
 C55 C 0.33364 0.69539 0.95708
 C56 C 0.27656 0.64845 1.01943
 O57 O 0.03607 0.31898 0.36212
 O58 O -0.01792 0.36037 0.33407
 O59 O -0.01934 0.31851 0.35880
 O60 O 0.03824 0.36027 0.33598
 O61 O 0.03966 0.33898 0.30070
 O62 O -0.01526 0.29500 0.32510
 O63 O -0.01642 0.33795 0.29945
 O64 O 0.03940 0.29707 0.32728
 Cu65 Cu 0.00906 0.34191 0.35109
 Cu66 Cu 0.01205 0.31521 0.30948
 C67 C 0.04675 0.30079 0.34969
 C68 C -0.02688 0.35598 0.31231
 C69 C -0.02660 0.29913 0.34622
 C70 C 0.04885 0.35670 0.31451
 O71 O 0.01937 0.67625 0.63424
 O72 O -0.03657 0.64589 0.67284
 O73 O -0.03523 0.68256 0.63942
 O74 O 0.01822 0.64011 0.66756
 O75 O 0.02639 0.66865 0.69681
 O76 O -0.02685 0.71100 0.66849
 O77 O -0.02841 0.67406 0.70226
 O78 O 0.02781 0.70385 0.66428
 Cu79 Cu -0.00956 0.65839 0.65058
 Cu80 Cu 0.00000 0.69232 0.68600
 C81 C 0.03334 0.69494 0.64292
 C82 C -0.04141 0.65441 0.69450
 C83 C -0.03947 0.70448 0.64864
 C84 C 0.03160 0.64734 0.68676
 O85 O 0.99128 0.68949 0.35929
 O86 O 1.04440 0.65027 0.32622
 O87 O 1.04657 0.68728 0.35824
 O88 O 0.98926 0.65184 0.32689
 O89 O 0.98998 0.67987 0.29623
 O90 O 1.04659 0.71572 0.32805
 O91 O 1.04640 0.67893 0.29614
 O92 O 0.99237 0.71729 0.32849
 Cu93 Cu 1.01762 0.66685 0.34568
 Cu94 Cu 1.01871 0.70052 0.30889
 C95 C 0.98364 0.71061 0.34991
 C96 C 1.05467 0.65816 0.30574
 C97 C 1.05592 0.70795 0.34886
 C98 C 0.98016 0.65968 0.30609
 O99 O 1.01569 0.35594 0.66416
 O100 O 0.95663 0.33299 0.62579
 O101 O 0.96117 0.36286 0.66222
 O102 O 1.01083 0.32329 0.62556
 O103 O 1.01283 0.29653 0.65701
 O104 O 0.95104 0.32909 0.68520
 O105 O 0.95616 0.29734 0.64755
 O106 O 1.00452 0.32734 0.69268
 Cu107 Cu 0.98756 0.34689 0.64167
 Cu108 Cu 0.98023 0.30874 0.67273
 C109 C 1.01876 0.34674 0.68584
 C110 C 0.94681 0.31085 0.62974
 C111 C 0.94676 0.35221 0.67941
 C112 C 1.02161 0.30376 0.63579
 O113 O 0.35753 0.02266 0.31340
 O114 O 0.34530 -0.02572 0.36116
 O115 O 0.36013 -0.02583 0.31481
 O116 O 0.34196 0.02388 0.35992
 O117 O 0.29659 0.02143 0.34933
 O118 O 0.31471 -0.02908 0.30424
 O119 O 0.29983 -0.02807 0.35081
 O120 O 0.31213 0.02099 0.30245
 Cu121 Cu 0.35570 -0.00091 0.33856
 Cu122 Cu 0.30121 -0.00384 0.32557
 C123 C 0.33723 0.02984 0.29960
 C124 C 0.32066 -0.03540 0.36408
 C125 C 0.34060 -0.03594 0.30190
 C126 C 0.31624 0.03117 0.36244
 O127 O 0.65368 0.02608 0.68642
 O128 O 0.67231 -0.02383 0.64201
 O129 O 0.64818 -0.02306 0.68542
 O130 O 0.68145 0.02515 0.64407
 O131 O 0.72205 0.01971 0.66392
 O132 O 0.68971 -0.02879 0.70387
 O133 O 0.71411 -0.02926 0.66003
 O134 O 0.69407 0.01977 0.70645
 Cu135 Cu 0.65986 0.00173 0.66251
 Cu136 Cu 0.70922 -0.00508 0.68530
 C137 C 0.67003 0.03089 0.70452
 C138 C 0.69617 -0.03512 0.64330
 C139 C 0.66335 -0.03386 0.70191
 C140 C 0.70772 0.03054 0.64702
 O141 O 0.35620 0.98248 0.69691
 O142 O 0.31472 1.03158 0.66402
 O143 O 0.35419 1.03188 0.69898
 O144 O 0.32024 0.98276 0.66041
 O145 O 0.28625 0.97715 0.68864
 O146 O 0.31982 1.02703 0.72670
 O147 O 0.27880 1.02483 0.68994
 O148 O 0.32009 0.97638 0.72299
 Cu149 Cu 0.33984 1.00796 0.67741
 Cu150 Cu 0.29819 1.00239 0.71034
 C151 C 0.34482 0.97064 0.71507
 C152 C 0.28903 1.03559 0.67069
 C153 C 0.34332 1.03715 0.71995
 C154 C 0.29804 0.97119 0.66815
 O155 O 0.63321 0.96834 0.31033
 O156 O 0.66860 1.01419 0.35212
 O157 O 0.62653 1.01720 0.32082
 O158 O 0.67283 0.96648 0.34407
 O159 O 0.70611 0.97909 0.31766
 O160 O 0.65517 1.02402 0.28871
 O161 O 0.69273 1.02898 0.31984
 O162 O 0.66534 0.97727 0.28149
 Cu163 Cu 0.64685 0.99048 0.33458
 Cu164 Cu 0.68385 1.00211 0.29931
 C165 C 0.64355 0.96485 0.28871
 C166 C 0.68553 1.03050 0.34255
 C167 C 0.63279 1.02938 0.30110
 C168 C 0.69819 0.96520 0.33587
 C169 C 0.87423 0.79689 0.47573
 C170 C 0.88156 0.78824 0.49945
 C171 C 0.86656 0.79609 0.52073
 C172 C 0.84316 0.81304 0.51818
 C173 C 0.83591 0.82244 0.49431
 C174 C 0.85085 0.81373 0.47299
 C175 C 0.84157 0.82168 0.44941
 C176 C 0.82016 0.83974 0.44691
 C177 C 0.80672 0.85029 0.46786
 C178 C 0.81363 0.84061 0.49171
 C179 C 0.82638 0.82044 0.53870
 C180 C 0.80447 0.83813 0.53615
 C181 C 0.79825 0.84898 0.51293
 C182 C 0.77649 0.86742 0.51018
 C183 C 0.77084 0.87760 0.48667
 C184 C 0.78589 0.86964 0.46553
 H185 H 0.85066 0.81395 0.43254
 H186 H 0.81399 0.84509 0.42828
 H187 H 0.82981 0.81246 0.55696
 H188 H 0.79240 0.84318 0.55261
 H189 H 0.90000 0.77595 0.50147
 H190 H 0.75476 0.89234 0.48491
 C191 C 0.21321 0.12844 0.53278
 C192 C 0.22994 0.12049 0.51262
 C193 C 0.22795 0.13212 0.48934
 C194 C 0.20878 0.15255 0.48582
 C195 C 0.19200 0.16127 0.50611
 C196 C 0.19409 0.14912 0.52964
 C197 C 0.17720 0.15819 0.54935
 C198 C 0.15887 0.17869 0.54615
 C199 C 0.15794 0.19220 0.52359
 C200 C 0.17344 0.18247 0.50298
 C201 C 0.20646 0.16489 0.46275
 C202 C 0.18753 0.18502 0.45949
 C203 C 0.17031 0.19375 0.47920
 C204 C 0.15033 0.21370 0.47587
 C205 C 0.13762 0.22476 0.49692
 C206 C 0.14171 0.21493 0.52093
 H207 H 0.17802 0.14977 0.56765
 H208 H 0.14527 0.18362 0.56168
 H209 H 0.21932 0.15910 0.44698
 H210 H 0.18700 0.19410 0.44144
 H211 H 0.24466 0.10475 0.51502
 H212 H 0.12392 0.24111 0.49446
 C213 C 0.15097 0.78460 0.52489
 C214 C 0.14453 0.77620 0.50089
 C215 C 0.15886 0.78584 0.47989
 C216 C 0.18185 0.80311 0.48331
 C217 C 0.18704 0.81327 0.50725
 C218 C 0.17061 0.80487 0.52784
 C219 C 0.17380 0.81730 0.55074
 C220 C 0.19436 0.83612 0.55388
 C221 C 0.21321 0.84272 0.53447
 C222 C 0.20885 0.83177 0.51067
 C223 C 0.20011 0.81014 0.46362
 C224 C 0.22175 0.82796 0.46699
 C225 C 0.22613 0.83936 0.49024
 C226 C 0.24779 0.85771 0.49376
 C227 C 0.25264 0.86749 0.51746
 C228 C 0.23579 0.86042 0.53792
 H229 H 0.15999 0.81290 0.56637
 H230 H 0.19515 0.84545 0.57172
 H231 H 0.19825 0.80154 0.44547
 H232 H 0.23524 0.83252 0.45119
 H233 H 0.12811 0.76188 0.49857
 H234 H 0.26982 0.88112 0.51994
 C235 C 0.76766 0.13964 0.51265
 C236 C 0.75542 0.12957 0.49114
 C237 C 0.76376 0.13794 0.46734
 C238 C 0.78637 0.15601 0.46523
 C239 C 0.79668 0.16818 0.48685
 C240 C 0.78620 0.16080 0.51052
 C241 C 0.79457 0.17468 0.53154
 C242 C 0.81412 0.19449 0.52954
 C243 C 0.82654 0.20074 0.50651
 C244 C 0.81797 0.18742 0.48493
 C245 C 0.79932 0.16203 0.44228
 C246 C 0.82012 0.18089 0.44033
 C247 C 0.83031 0.19355 0.46146
 C248 C 0.85221 0.21232 0.45995
 C249 C 0.86003 0.22527 0.48162
 C250 C 0.84702 0.22026 0.50445
 H251 H 0.78571 0.17052 0.54972
 H252 H 0.81979 0.20457 0.54631
 H253 H 0.79396 0.15199 0.42546
 H254 H 0.82780 0.18549 0.42191
 H255 H 0.73974 0.11452 0.49300
 H256 H 0.87656 0.23973 0.48085
 C257 C 0.53115 0.77548 0.85843
 C258 C 0.50471 0.76596 0.86637
 C259 C 0.47895 0.77735 0.85950
 C260 C 0.47956 0.79925 0.84411
 C261 C 0.50606 0.80827 0.83457
 C262 C 0.53200 0.79650 0.84187
 C263 C 0.55795 0.80642 0.83280
 C264 C 0.55843 0.82669 0.81613
 C265 C 0.53309 0.83888 0.80888
 C266 C 0.50662 0.82950 0.81811
 C267 C 0.45457 0.81295 0.83874
 C268 C 0.45509 0.83350 0.82248
 C269 C 0.48066 0.84135 0.81102
 C270 C 0.48111 0.86129 0.79329
 C271 C 0.50741 0.87046 0.78467
 C272 C 0.53337 0.86009 0.79254
 H273 H 0.57829 0.79864 0.83832
 H274 H 0.57901 0.83257 0.80893
 H275 H 0.43430 0.80819 0.84729
 H276 H 0.43521 0.84341 0.81930
 H277 H 0.50423 0.74925 0.87824
 H278 H 0.50770 0.88616 0.77158
 C279 C 0.50723 0.14231 0.21765
 C280 C 0.48028 0.13191 0.22233
 C281 C 0.45651 0.13820 0.20798
 C282 C 0.45975 0.15587 0.18829
 C283 C 0.48696 0.16701 0.18355
 C284 C 0.51088 0.15999 0.19811
 C285 C 0.53753 0.17126 0.19312
 C286 C 0.54081 0.18877 0.17383
 C287 C 0.51756 0.19571 0.15880
 C288 C 0.49022 0.18531 0.16427
 C289 C 0.43678 0.16226 0.17285
 C290 C 0.43980 0.18073 0.15451
 C291 C 0.46603 0.19327 0.15063
 C292 C 0.46878 0.21324 0.13313
 C293 C 0.49608 0.22218 0.12686
 C294 C 0.52067 0.21312 0.13875
 H295 H 0.55607 0.16670 0.20420
 H296 H 0.56166 0.19727 0.17120
 H297 H 0.41620 0.15308 0.17476
 H298 H 0.42140 0.18482 0.14312
 H299 H 0.47776 0.11864 0.23767
 H300 H 0.49817 0.23642 0.11238
 C301 C 0.54296 0.12935 0.80421
 C302 C 0.51661 0.12006 0.79581
 C303 C 0.49065 0.13056 0.80371
 C304 C 0.49099 0.15174 0.81992
 C305 C 0.51732 0.16074 0.82952
 C306 C 0.54343 0.14971 0.82150
 C307 C 0.56916 0.15952 0.83090
 C308 C 0.56922 0.17863 0.84879
 C309 C 0.54362 0.18977 0.85718
 C310 C 0.51743 0.18071 0.84738
 C311 C 0.46569 0.16449 0.82644
 C312 C 0.46577 0.18372 0.84406
 C313 C 0.49119 0.19111 0.85579
 C314 C 0.49096 0.20884 0.87554
 C315 C 0.51693 0.21818 0.88450
 C316 C 0.54331 0.20933 0.87542
 H317 H 0.58965 0.15244 0.82471
 H318 H 0.58969 0.18424 0.85617
 H319 H 0.44548 0.15975 0.81796
 H320 H 0.44562 0.19281 0.84836
 H321 H 0.51631 0.10371 0.78355
 H322 H 0.51659 0.23224 0.89919
 C323 C 0.51098 0.85603 0.20501
 C324 C 0.48486 0.86457 0.21455
 C325 C 0.45864 0.85607 0.20518
 C326 C 0.45851 0.83856 0.18515
 C327 C 0.48483 0.82908 0.17576
 C328 C 0.51100 0.83704 0.18643
 C329 C 0.53653 0.82566 0.17836
 C330 C 0.53677 0.80887 0.15848
 C331 C 0.51151 0.80296 0.14573
 C332 C 0.48512 0.81222 0.15512
 C333 C 0.43299 0.83073 0.17383
 C334 C 0.43326 0.81390 0.15390
 C335 C 0.45912 0.80502 0.14368
 C336 C 0.45975 0.78908 0.12244
 C337 C 0.48612 0.78072 0.11304
 C338 C 0.51197 0.78779 0.12403
 H339 H 0.55663 0.82962 0.18742
 H340 H 0.55707 0.80063 0.15319
 H341 H 0.41246 0.83778 0.17995
 H342 H 0.41285 0.80810 0.14652
 H343 H 0.48490 0.87885 0.22905
 H344 H 0.48659 0.76945 0.09620
 C345 C 0.84564 0.52527 0.77486
 C346 C 0.85337 0.50253 0.76310
 C347 C 0.84432 0.47874 0.77218
 C348 C 0.82822 0.47761 0.79463
 C349 C 0.81912 0.50053 0.80604
 C350 C 0.82639 0.52429 0.79522
 C351 C 0.81431 0.54653 0.80514
 C352 C 0.79868 0.54582 0.82712
 C353 C 0.79484 0.52287 0.84017
 C354 C 0.80370 0.49982 0.82888
 C355 C 0.82169 0.45438 0.80645
 C356 C 0.80652 0.45369 0.82881
 C357 C 0.79806 0.47622 0.84077
 C358 C 0.78432 0.47593 0.86436
 C359 C 0.77668 0.49899 0.87556
 C360 C 0.78234 0.52240 0.86416
 H361 H 0.81709 0.56476 0.79604
 H362 H 0.78997 0.56354 0.83397
 H363 H 0.82886 0.43641 0.79898
 H364 H 0.80179 0.43522 0.83673
 H365 H 0.86737 0.50328 0.74702
 H366 H 0.76779 0.49873 0.89421
 C367 C 0.20515 0.47279 0.12974
 C368 C 0.20867 0.49519 0.11592
 C369 C 0.20150 0.51897 0.12566
 C370 C 0.19065 0.52065 0.15019
 C371 C 0.18732 0.49821 0.16466
 C372 C 0.19478 0.47420 0.15451
 C373 C 0.19223 0.45238 0.16957
 C374 C 0.18138 0.45392 0.19368
 C375 C 0.17307 0.47739 0.20383
 C376 C 0.17666 0.49984 0.18941
 C377 C 0.18335 0.54420 0.16074
 C378 C 0.17220 0.54571 0.18464
 C379 C 0.16929 0.52389 0.19958
 C380 C 0.15871 0.52537 0.22424
 C381 C 0.15516 0.50303 0.23803
 C382 C 0.16177 0.47914 0.22820
 H383 H 0.19887 0.43388 0.16299
 H384 H 0.17991 0.43654 0.20442
 H385 H 0.18610 0.56186 0.15070
 H386 H 0.16587 0.56430 0.19110
 H387 H 0.21639 0.49404 0.09691
 H388 H 0.14649 0.50421 0.25673
 C389 C 0.86821 0.48328 0.22635
 C390 C 0.87890 0.50647 0.23501
 C391 C 0.87376 0.52937 0.22251
 C392 C 0.85818 0.52890 0.19997
 C393 C 0.84637 0.50562 0.19137
 C394 C 0.85119 0.48274 0.20474
 C395 C 0.83831 0.46012 0.19651
 C396 C 0.82061 0.46002 0.17576
 C397 C 0.81579 0.48239 0.16206
 C398 C 0.82923 0.50533 0.16963
 C399 C 0.85408 0.55105 0.18580
 C400 C 0.83722 0.55082 0.16466
 C401 C 0.82467 0.52819 0.15607
 C402 C 0.80704 0.52791 0.13474
 C403 C 0.79354 0.50524 0.12794
 C404 C 0.79721 0.48270 0.14143
 H405 H 0.84136 0.44237 0.20639
 H406 H 0.81075 0.44220 0.17050
 H407 H 0.86383 0.56894 0.19086
 H408 H 0.83383 0.56883 0.15546
 H409 H 0.89088 0.50671 0.25219
 H410 H 0.77937 0.50520 0.11206
 C411 C 0.13719 0.51535 0.76836
 C412 C 0.12655 0.49215 0.75952
 C413 C 0.13481 0.46888 0.76992
 C414 C 0.15577 0.46861 0.78873
 C415 C 0.16540 0.49185 0.79902
 C416 C 0.15585 0.51534 0.78905
 C417 C 0.16445 0.53804 0.80062
 C418 C 0.18291 0.53771 0.82081
 C419 C 0.19329 0.51465 0.83048
 C420 C 0.18404 0.49150 0.81977
 C421 C 0.16753 0.44568 0.79737
 C422 C 0.18588 0.44537 0.81754
 C423 C 0.19302 0.46795 0.82998
 C424 C 0.20921 0.46763 0.85215
 C425 C 0.21892 0.49070 0.86201
 C426 C 0.21196 0.51408 0.85107
 H427 H 0.15650 0.55633 0.79460
 H428 H 0.18836 0.55577 0.82916
 H429 H 0.16264 0.42771 0.78858
 H430 H 0.19442 0.42717 0.82324
 H431 H 0.11109 0.49224 0.74462
 H432 H 0.23200 0.49054 0.87856
 C433 C 0.25852 0.39522 0.06717
 C434 C 0.23152 0.38695 0.07343
 C435 C 0.21974 0.36474 0.06399
 C436 C 0.23647 0.35046 0.04743
 C437 C 0.26438 0.35862 0.04048
 C438 C 0.27550 0.38138 0.05063
 O439 O 0.26541 0.41713 0.07782
 C440 C 0.24223 0.42280 0.09102
 C441 C 0.22085 0.40498 0.08895
 C442 C 0.19430 0.40771 0.10038
 C443 C 0.18953 0.42983 0.11437
 C444 C 0.21134 0.44840 0.11696
 C445 C 0.23808 0.44474 0.10509
 H446 H 0.19839 0.35868 0.06908
 H447 H 0.22750 0.33316 0.03986
 H448 H 0.29663 0.38822 0.04572
 H449 H 0.17763 0.39362 0.09814
 H450 H 0.16871 0.43282 0.12274
 H451 H 0.25485 0.45888 0.10631
 C452 C 0.74862 0.60909 0.08024
 C453 C 0.77758 0.61309 0.07801
 C454 C 0.78912 0.63283 0.06395
 C455 C 0.77007 0.64876 0.05124
 C456 C 0.74011 0.64448 0.05244
 C457 C 0.72929 0.62450 0.06749
 O458 O 0.74211 0.58905 0.09423
 C459 C 0.76750 0.58010 0.10079
 C460 C 0.78992 0.59397 0.09117
 C461 C 0.81832 0.58701 0.09449
 C462 C 0.82382 0.56503 0.10857
 C463 C 0.80110 0.55102 0.11961
 C464 C 0.77251 0.55858 0.11533
 H465 H 0.81198 0.63558 0.06243
 H466 H 0.77879 0.66375 0.03962
 H467 H 0.70661 0.62056 0.06864
 H468 H 0.83560 0.59785 0.08620
 H469 H 0.84573 0.55895 0.11103
 H470 H 0.75472 0.54793 0.12305
 C471 C 0.73661 0.40037 0.93304
 C472 C 0.76518 0.39517 0.92971
 C473 C 0.77932 0.37637 0.94295
 C474 C 0.76340 0.36228 0.96030
 C475 C 0.73385 0.36722 0.96426
 C476 C 0.72031 0.38663 0.95032
 O477 O 0.72755 0.41948 0.91895
 C478 C 0.75092 0.42646 0.90654
 C479 C 0.77452 0.41219 0.91248
 C480 C 0.80151 0.41699 0.90257
 C481 C 0.80436 0.43753 0.88604
 C482 C 0.78033 0.45245 0.87941
 C483 C 0.75320 0.44674 0.88985
 H484 H 0.80186 0.37275 0.94011
 H485 H 0.77425 0.34760 0.97075
 H486 H 0.69788 0.39096 0.95289
 H487 H 0.81986 0.40577 0.90790
 H488 H 0.82539 0.44229 0.87891
 H489 H 0.73468 0.45827 0.88567
 C490 C 0.25303 0.59273 0.91885
 C491 C 0.26378 0.59792 0.89551
 C492 C 0.28235 0.61807 0.89074
 C493 C 0.29019 0.63344 0.91087
 C494 C 0.27941 0.62835 0.93499
 C495 C 0.26054 0.60779 0.93910
 O496 O 0.23616 0.57242 0.91946
 C497 C 0.23627 0.56461 0.89603
 C498 C 0.25284 0.57955 0.88063
 C499 C 0.25652 0.57442 0.85548
 C500 C 0.24260 0.55296 0.84585
 C501 C 0.22525 0.53738 0.86133
 C502 C 0.22214 0.54329 0.88681
 H503 H 0.29063 0.62171 0.87226
 H504 H 0.30474 0.64920 0.90779
 H505 H 0.25227 0.60356 0.95748
 H506 H 0.26990 0.58629 0.84378
 H507 H 0.24554 0.54825 0.82643
 H508 H 0.20933 0.53149 0.89907
 C509 C 0.09824 0.27339 0.39623
 C510 C 0.09926 0.24847 0.38856
 C511 C 0.08533 0.23992 0.36738
 C512 C 0.06929 0.25770 0.35381
 C513 C 0.06698 0.28329 0.36192
 C514 C 0.08211 0.29126 0.38324
 O515 O 0.11171 0.27737 0.41750
 C516 C 0.12119 0.25441 0.42357
 C517 C 0.11396 0.23601 0.40660
 C518 C 0.11911 0.21029 0.41061
 C519 C 0.13189 0.20326 0.43313
 C520 C 0.14011 0.22189 0.45084
 C521 C 0.13488 0.24793 0.44565
 H522 H 0.08618 0.22015 0.36185
 H523 H 0.05761 0.25126 0.33770
 H524 H 0.08052 0.31058 0.39006
 H525 H 0.11231 0.19604 0.39741
 H526 H 0.13444 0.18320 0.43716
 H527 H 0.14017 0.26264 0.45889
 C528 C 0.07407 0.72923 0.59256
 C529 C 0.10099 0.72939 0.60271
 C530 C 0.10709 0.71847 0.62563
 C531 C 0.08445 0.70705 0.63870
 C532 C 0.05668 0.70628 0.62842
 C533 C 0.05140 0.71734 0.60496
 O534 O 0.07270 0.74154 0.57102
 C535 C 0.09936 0.74951 0.56746
 C536 C 0.11752 0.74237 0.58622
 C537 C 0.14646 0.74822 0.58605
 C538 C 0.15715 0.76204 0.56573
 C539 C 0.13876 0.77045 0.54647
 C540 C 0.10941 0.76381 0.54733
 H541 H 0.12839 0.71908 0.63333
 H542 H 0.08847 0.69871 0.65676
 H543 H 0.03019 0.71732 0.59701
 H544 H 0.16040 0.74206 0.60086
 H545 H 0.17981 0.76613 0.56491
 H546 H 0.09488 0.76964 0.53282
 C547 C 0.93679 0.73854 0.40036
 C548 C 0.93943 0.76401 0.39487
 C549 C 0.95438 0.77296 0.37428
 C550 C 0.96764 0.75496 0.35892
 C551 C 0.96617 0.72857 0.36459
 C552 C 0.95025 0.72026 0.38556
 O553 O 0.92140 0.73416 0.42075
 C554 C 0.91438 0.75739 0.42833
 C555 C 0.92519 0.77629 0.41326
 C556 C 0.92147 0.80202 0.41820
 C557 C 0.90542 0.80855 0.43929
 C558 C 0.89269 0.78945 0.45442
 C559 C 0.89781 0.76347 0.44914
 H560 H 0.95605 0.79311 0.37032
 H561 H 0.97996 0.76170 0.34314
 H562 H 0.94885 0.70030 0.39044
 H563 H 0.93072 0.81653 0.40633
 H564 H 0.90237 0.82848 0.44362
 H565 H 0.88881 0.74853 0.46066
 C566 C 0.90433 0.26757 0.58836
 C567 C 0.88499 0.28465 0.57880
 C568 C 0.88409 0.31005 0.58584
 C569 C 0.90421 0.31829 0.60323
 C570 C 0.92441 0.30109 0.61332
 C571 C 0.92413 0.27525 0.60613
 O572 O 0.90315 0.24491 0.57758
 C573 C 0.88267 0.24777 0.56085
 C574 C 0.87078 0.27172 0.56096
 C575 C 0.85027 0.27944 0.54397
 C576 C 0.84188 0.26183 0.52593
 C577 C 0.85410 0.23722 0.52526
 C578 C 0.87456 0.22993 0.54307
 H579 H 0.86904 0.32321 0.57768
 H580 H 0.90434 0.33814 0.60860
 H581 H 0.93983 0.26194 0.61307
 H582 H 0.84162 0.29853 0.54419
 H583 H 0.82644 0.26747 0.51206
 H584 H 0.88458 0.21138 0.54243
 C585 C 0.37785 0.06461 0.25027
 C586 C 0.36366 0.08754 0.24983
 C587 C 0.33866 0.09173 0.26345
 C588 C 0.32843 0.07173 0.27855
 C589 C 0.34371 0.04854 0.28008
 C590 C 0.36829 0.04478 0.26528
 O591 O 0.40241 0.06496 0.23798
 C592 C 0.40412 0.08868 0.22980
 C593 C 0.38110 0.10344 0.23660
 C594 C 0.38059 0.12967 0.23276
 C595 C 0.40496 0.14106 0.22200
 C596 C 0.42889 0.12608 0.21496
 C597 C 0.42798 0.09944 0.21843
 H598 H 0.32810 0.11004 0.26327
 H599 H 0.30983 0.07484 0.29021
 H600 H 0.38068 0.02743 0.26662
 H601 H 0.36279 0.14112 0.23907
 H602 H 0.40577 0.16158 0.22027
 H603 H 0.44630 0.08765 0.21409
 C604 C 0.62472 0.07874 0.73855
 C605 C 0.63418 0.07545 0.76249
 C606 C 0.65702 0.05959 0.76831
 C607 C 0.67013 0.04616 0.74875
 C608 C 0.65991 0.04847 0.72407
 C609 C 0.63725 0.06546 0.71896
 O610 O 0.60190 0.09357 0.73699
 C611 C 0.59661 0.09964 0.76045
 C612 C 0.61557 0.08894 0.77688
 C613 C 0.61231 0.09107 0.80251
 C614 C 0.58861 0.10475 0.81150
 C615 C 0.56920 0.11649 0.79485
 C616 C 0.57339 0.11378 0.76896
 H617 H 0.66394 0.05706 0.78730
 H618 H 0.68719 0.03299 0.75303
 H619 H 0.62867 0.06742 0.70041
 H620 H 0.62694 0.08184 0.81514
 H621 H 0.58502 0.10582 0.83135
 H622 H 0.55843 0.12181 0.75583
 C623 C 0.39964 0.93270 0.74973
 C624 C 0.38873 0.90853 0.74700
 C625 C 0.36338 0.90360 0.73453
 C626 C 0.34872 0.92446 0.72446
 C627 C 0.36000 0.94938 0.72653
 C628 C 0.38579 0.95360 0.73931
 O629 O 0.42392 0.93325 0.76229
 C630 C 0.42857 0.90891 0.76742
 C631 C 0.40785 0.89296 0.75829
 C632 C 0.40945 0.86662 0.76028
 C633 C 0.43349 0.85632 0.77208
 C634 C 0.45479 0.87240 0.78233
 C635 C 0.45211 0.89912 0.77991
 H636 H 0.35518 0.88445 0.73266
 H637 H 0.32892 0.92124 0.71465
 H638 H 0.39466 0.97255 0.74113
 H639 H 0.39323 0.85443 0.75241
 H640 H 0.43579 0.83584 0.77290
 H641 H 0.46823 0.91190 0.78708
 C642 C 0.59372 0.91530 0.26210
 C643 C 0.60183 0.91600 0.23751
 C644 C 0.62388 0.93134 0.22873
 C645 C 0.63804 0.94677 0.24595
 C646 C 0.62974 0.94688 0.27138
 C647 C 0.60737 0.93065 0.27954
 O648 O 0.57150 0.90013 0.26635
 C649 C 0.56535 0.89123 0.24394
 C650 C 0.58321 0.90047 0.22565
 C651 C 0.57931 0.89523 0.20061
 C652 C 0.55590 0.88002 0.19413
 C653 C 0.53736 0.86980 0.21262
 C654 C 0.54236 0.87549 0.23795
 H655 H 0.62969 0.93172 0.20924
 H656 H 0.65497 0.95912 0.23928
 H657 H 0.60034 0.93040 0.29874
 H658 H 0.59318 0.90333 0.18650
 H659 H 0.55171 0.87681 0.17463
 H660 H 0.52820 0.86860 0.25245
 C661 C 0.39830 0.26477 0.92516
 C662 C 0.39186 0.23924 0.92573
 C663 C 0.36746 0.22961 0.93718
 C664 C 0.34911 0.24696 0.94890
 C665 C 0.35559 0.27337 0.94929
 C666 C 0.38049 0.28237 0.93696
 O667 O 0.42275 0.26983 0.91345
 C668 C 0.43198 0.24696 0.90664
 C669 C 0.41393 0.22763 0.91391
 C670 C 0.42001 0.20211 0.90986
 C671 C 0.44560 0.19627 0.89753
 C672 C 0.46413 0.21583 0.88885
 C673 C 0.45735 0.24159 0.89385
 H674 H 0.36290 0.20942 0.93739
 H675 H 0.33034 0.23965 0.95837
 H676 H 0.38616 0.30235 0.93702
 H677 H 0.40577 0.18722 0.91629
 H678 H 0.45101 0.17646 0.89463
 H679 H 0.47135 0.25689 0.88794
 C680 C 0.61173 0.73198 0.92912
 C681 C 0.62261 0.72779 0.90565
 C682 C 0.64807 0.71475 0.90153
 C683 C 0.66278 0.70565 0.92244
 C684 C 0.65149 0.70929 0.94663
 C685 C 0.62563 0.72260 0.95004
 O686 O 0.58750 0.74499 0.92910
 C687 C 0.58283 0.74897 0.90514
 C688 C 0.60347 0.73866 0.88993
 C689 C 0.60186 0.73970 0.86412
 C690 C 0.57803 0.75188 0.85365
 C691 C 0.55702 0.76338 0.86905
 C692 C 0.55952 0.76169 0.89517
 H693 H 0.65631 0.71174 0.88295
 H694 H 0.68263 0.69539 0.91984
 H695 H 0.61674 0.72562 0.96841
 H696 H 0.61803 0.73099 0.85249
 H697 H 0.57579 0.75226 0.83364
 H698 H 0.54347 0.76979 0.90737
 C699 C 0.37475 0.73045 0.06754
 C700 C 0.36709 0.75567 0.06615
 C701 C 0.34446 0.76414 0.05166
 C702 C 0.32952 0.74594 0.03769
 C703 C 0.33767 0.71992 0.03818
 C704 C 0.36035 0.71213 0.05373
 O705 O 0.39750 0.72640 0.08159
 C706 C 0.40451 0.74957 0.08913
 C707 C 0.38671 0.76821 0.08012
 C708 C 0.39145 0.79398 0.08436
 C709 C 0.41542 0.80075 0.09851
 C710 C 0.43364 0.78179 0.10855
 C711 C 0.42809 0.75585 0.10360
 H712 H 0.33893 0.78410 0.05070
 H713 H 0.31242 0.75230 0.02574
 H714 H 0.36734 0.69251 0.05439
 H715 H 0.37762 0.80838 0.07655
 H716 H 0.42003 0.82071 0.10144
 H717 H 0.44208 0.74104 0.11043
 C718 C 0.60988 0.27182 0.08784
 C719 C 0.61951 0.24723 0.09036
 C720 C 0.64458 0.23867 0.07921
 C721 C 0.66022 0.25610 0.06471
 C722 C 0.65031 0.28138 0.06121
 C723 C 0.62484 0.28934 0.07317
 O724 O 0.58511 0.27587 0.09928
 C725 C 0.57884 0.25330 0.10904
 C726 C 0.59908 0.23507 0.10398
 C727 C 0.59559 0.20966 0.11062
 C728 C 0.57006 0.20274 0.12271
 C729 C 0.54899 0.22125 0.12859
 C730 C 0.55377 0.24699 0.12178
 H731 H 0.65164 0.21919 0.08130
 H732 H 0.67953 0.24963 0.05554
 H733 H 0.61663 0.30843 0.07077
 H734 H 0.61142 0.19550 0.10578
 H735 H 0.56630 0.18283 0.12679
 H736 H 0.53793 0.26152 0.12543
 C737 C 0.26416 0.07931 0.61952
 C738 C 0.23512 0.07539 0.62073
 C739 C 0.22232 0.06039 0.63898
 C740 C 0.24023 0.04851 0.65634
 C741 C 0.27038 0.05146 0.65490
 C742 C 0.28238 0.06747 0.63639
 O743 O 0.27213 0.09363 0.60037
 C744 C 0.24763 0.09871 0.58912
 C745 C 0.22434 0.08782 0.60068
 C746 C 0.19689 0.08924 0.59096
 C747 C 0.19332 0.10259 0.56855
 C748 C 0.21687 0.11479 0.55678
 C749 C 0.24444 0.11255 0.56720
 H750 H 0.19943 0.05746 0.63951
 H751 H 0.23069 0.03613 0.67019
 H752 H 0.30527 0.06992 0.63460
 H753 H 0.17900 0.07992 0.60000
 H754 H 0.17231 0.10339 0.56027
 H755 H 0.26292 0.12106 0.55826
 C756 C 0.71116 0.06824 0.39586
 C757 C 0.71398 0.09172 0.38478
 C758 C 0.70909 0.09574 0.35965
 C759 C 0.70078 0.07471 0.34541
 C760 C 0.69566 0.05068 0.35680
 C761 C 0.70065 0.04756 0.38254
 O762 O 0.72015 0.06785 0.41919
 C763 C 0.72830 0.09172 0.42301
 C764 C 0.72408 0.10724 0.40280
 C765 C 0.72970 0.13318 0.40320
 C766 C 0.74090 0.14337 0.42514
 C767 C 0.74862 0.12730 0.44530
 C768 C 0.74130 0.10111 0.44434
 H769 H 0.71239 0.11421 0.35117
 H770 H 0.69713 0.07745 0.32573
 H771 H 0.69787 0.02929 0.39161
 H772 H 0.72521 0.14520 0.38735
 H773 H 0.74444 0.16370 0.42611
 H774 H 0.74629 0.08820 0.45938
 C775 C 0.73543 0.92308 0.59736
 C776 C 0.71275 0.91032 0.58700
 C777 C 0.68470 0.91377 0.59484
 C778 C 0.67972 0.93133 0.61391
 C779 C 0.70265 0.94492 0.62486
 C780 C 0.73100 0.94038 0.61672
 O781 O 0.76013 0.91820 0.58604
 C782 C 0.75282 0.90206 0.56819
 C783 C 0.72407 0.89658 0.56806
 C784 C 0.71147 0.88119 0.55021
 C785 C 0.72922 0.87113 0.53160
 C786 C 0.75887 0.87655 0.53125
 C787 C 0.77089 0.89215 0.54987
 H788 H 0.66718 0.90376 0.58615
 H789 H 0.65792 0.93461 0.61993
 H790 H 0.74883 0.95087 0.62435
 H791 H 0.68872 0.87749 0.55030
 H792 H 0.71989 0.85945 0.51721
 H793 H 0.79339 0.89700 0.54958
 C794 C 0.28566 0.91924 0.40954
 C795 C 0.30934 0.90815 0.42000
 C796 C 0.33706 0.91439 0.41286
 C797 C 0.34051 0.93286 0.39423
 C798 C 0.31643 0.94464 0.38313
 C799 C 0.28858 0.93749 0.39083
 O800 O 0.26130 0.91164 0.41990
 C801 C 0.26981 0.89542 0.43728
 C802 C 0.29901 0.89255 0.43807
 C803 C 0.31259 0.87748 0.45569
 C804 C 0.29536 0.86515 0.47344
 C805 C 0.26527 0.86806 0.47312
 C806 C 0.25231 0.88323 0.45465
 H807 H 0.35537 0.90563 0.42157
 H808 H 0.36198 0.93804 0.38857
 H809 H 0.26978 0.94633 0.38300
 H810 H 0.33562 0.87581 0.45615
 H811 H 0.30538 0.85385 0.48779
 H812 H 0.22943 0.88626 0.45451
 C813 C 0.07233 0.39224 0.71315
 C814 C 0.06987 0.38624 0.73794
 C815 C 0.05249 0.36669 0.74670
 C816 C 0.03662 0.35300 0.72919
 C817 C 0.03812 0.35930 0.70355
 C818 C 0.05662 0.37901 0.69545
 O819 O 0.08915 0.41214 0.70884
 C820 C 0.09730 0.41896 0.73143
 C821 C 0.08596 0.40380 0.74988
 C822 C 0.08995 0.40864 0.77497
 C823 C 0.10632 0.42998 0.78130
 C824 C 0.11892 0.44559 0.76263
 C825 C 0.11420 0.43995 0.73730
 H826 H 0.05074 0.36247 0.76633
 H827 H 0.02244 0.33811 0.73576
 H828 H 0.05807 0.38447 0.67608
 H829 H 0.08014 0.39685 0.78916
 H830 H 0.10882 0.43463 0.80075
 H831 H 0.12291 0.45186 0.72266
 C832 C 0.09113 0.60313 0.27488
 C833 C 0.11744 0.61358 0.26949
 C834 C 0.12427 0.63872 0.27503
 C835 C 0.10314 0.65358 0.28664
 C836 C 0.07626 0.64285 0.29292
 C837 C 0.07020 0.61729 0.28701
 O838 O 0.08851 0.57926 0.26734
 C839 C 0.11375 0.57444 0.25712
 C840 C 0.13240 0.59466 0.25820
 C841 C 0.16029 0.59330 0.24918
 C842 C 0.16914 0.57026 0.23843
 C843 C 0.14978 0.54959 0.23609
 C844 C 0.12183 0.55171 0.24594
 H845 H 0.14499 0.64665 0.27040
 H846 H 0.10778 0.67322 0.29115
 H847 H 0.04965 0.60885 0.29142
 H848 H 0.17477 0.60930 0.25060
 H849 H 0.19088 0.56853 0.23165
 H850 H 0.10675 0.53611 0.24478
 C851 C 0.92894 0.39755 0.26996
 C852 C 0.90782 0.40506 0.28625
 C853 C 0.90649 0.39669 0.31073
 C854 C 0.92791 0.38008 0.31885
 C855 C 0.94991 0.37196 0.30246
 C856 C 0.95016 0.38049 0.27751
 O857 O 0.92777 0.40960 0.24826
 C858 C 0.90547 0.42501 0.25094
 C859 C 0.89242 0.42282 0.27382
 C860 C 0.87000 0.43842 0.28133
 C861 C 0.86101 0.45741 0.26479
 C862 C 0.87449 0.46039 0.24134
 C863 C 0.89671 0.44371 0.23412
 H864 H 0.89003 0.40331 0.32335
 H865 H 0.92758 0.37371 0.33800
 H866 H 0.96714 0.37511 0.26483
 H867 H 0.86047 0.43664 0.29962
 H868 H 0.84437 0.47046 0.27054
 H869 H 0.90789 0.44625 0.21663
 C870 C 0.90614 0.60591 0.71987
 C871 C 0.90796 0.61103 0.74483
 C872 C 0.92414 0.63093 0.75426
 C873 C 0.93957 0.64593 0.73730
 C874 C 0.93896 0.64059 0.71146
 C875 C 0.92158 0.62045 0.70264
 O876 O 0.89024 0.58557 0.71495
 C877 C 0.88208 0.57759 0.73734
 C878 C 0.89259 0.59243 0.75621
 C879 C 0.88873 0.58648 0.78113
 C880 C 0.87325 0.56440 0.78689
 C881 C 0.86105 0.54917 0.76789
 C882 C 0.86583 0.55587 0.74267
 H883 H 0.92534 0.63445 0.77403
 H884 H 0.95287 0.66107 0.74446
 H885 H 0.92087 0.61568 0.68310
 H886 H 0.89804 0.59800 0.79563
 H887 H 0.87112 0.55895 0.80622
 H888 H 0.85757 0.54433 0.72770
 C889 C 0.73591 0.60033 0.93067
 C890 C 0.76314 0.60741 0.92391
 C891 C 0.77609 0.62947 0.93248
 C892 C 0.76035 0.64487 0.94878
 C893 C 0.73232 0.63779 0.95660
 C894 C 0.72004 0.61506 0.94724
 O895 O 0.72750 0.57877 0.92017
 C896 C 0.75001 0.57205 0.90661
 C897 C 0.77246 0.58884 0.90843
 C898 C 0.79853 0.58503 0.89657
 C899 C 0.80154 0.56304 0.88213
 C900 C 0.77836 0.54585 0.87916
 C901 C 0.75231 0.55034 0.89187
 H902 H 0.79753 0.63467 0.92679
 H903 H 0.77032 0.66209 0.95558
 H904 H 0.69873 0.60900 0.95254
 H905 H 0.81607 0.59826 0.89871
 H906 H 0.82195 0.55931 0.87330
 H907 H 0.73450 0.53728 0.89040
 C908 C 0.26279 0.38826 0.91268
 C909 C 0.23492 0.38126 0.90858
 C910 C 0.22275 0.35956 0.91900
 C911 C 0.23984 0.34472 0.93471
 C912 C 0.26836 0.35215 0.94029
 C913 C 0.28000 0.37411 0.92860
 O914 O 0.27010 0.40973 0.90126
 C915 C 0.24622 0.41658 0.88991
 C916 C 0.22397 0.39995 0.89402
 C917 C 0.19649 0.40442 0.88543
 C918 C 0.19184 0.42685 0.87188
 C919 C 0.21472 0.44380 0.86637
 C920 C 0.24227 0.43858 0.87581
 H921 H 0.20075 0.35443 0.91544
 H922 H 0.23034 0.32807 0.94331
 H923 H 0.30159 0.38049 0.93223
 H924 H 0.17911 0.39146 0.88956
 H925 H 0.17037 0.43110 0.86573
 H926 H 0.26002 0.45140 0.87248
 C927 C 0.25344 0.59737 0.06278
 C928 C 0.22483 0.60283 0.06501
 C929 C 0.21235 0.62373 0.05353
 C930 C 0.23000 0.63944 0.03889
 C931 C 0.25956 0.63384 0.03566
 C932 C 0.27132 0.61251 0.04815
 O933 O 0.26114 0.57667 0.07517
 C934 C 0.23682 0.56880 0.08537
 C935 C 0.21389 0.58402 0.07961
 C936 C 0.18623 0.57872 0.08776
 C937 C 0.18218 0.55702 0.10266
 C938 C 0.20572 0.54157 0.10950
 C939 C 0.23334 0.54739 0.10040
 H940 H 0.18978 0.62771 0.05562
 H941 H 0.22038 0.65558 0.02962
 H942 H 0.29367 0.60749 0.04633
 H943 H 0.16842 0.59074 0.08270
 H944 H 0.16085 0.55231 0.10911
 H945 H 0.25155 0.53566 0.10503
 C946 C 0.74761 0.39492 0.09088
 C947 C 0.72615 0.40863 0.10212
 C948 C 0.69748 0.40518 0.09668
 C949 C 0.69052 0.38705 0.07870
 C950 C 0.71204 0.37218 0.06687
 C951 C 0.74108 0.37584 0.07364
 O952 O 0.77356 0.40338 0.09662
 C953 C 0.76827 0.42277 0.11185
 C954 C 0.73954 0.42648 0.11600
 C955 C 0.72887 0.44658 0.12994
 C956 C 0.74854 0.46397 0.13960
 C957 C 0.77820 0.46118 0.13498
 C958 C 0.78833 0.44004 0.12123
 H959 H 0.68108 0.41672 0.10530
 H960 H 0.66819 0.38469 0.07401
 H961 H 0.75816 0.36550 0.06454
 H962 H 0.70613 0.44928 0.13258
 H963 H 0.74067 0.48033 0.14975
 H964 H 0.81080 0.43800 0.11683
 C965 C 0.91518 0.73374 0.60007
 C966 C 0.91425 0.75846 0.60832
 C967 C 0.92637 0.76603 0.63062
 C968 C 0.94060 0.74751 0.64474
 C969 C 0.94296 0.72197 0.63617
 C970 C 0.92932 0.71505 0.61368
 O971 O 0.90342 0.73066 0.57791
 C972 C 0.89508 0.75399 0.57193
 C973 C 0.90134 0.77175 0.58982
 C974 C 0.89652 0.79764 0.58647
 C975 C 0.88474 0.80549 0.56378
 C976 C 0.87738 0.78745 0.54527
 C977 C 0.88277 0.76131 0.54950
 H978 H 0.92550 0.78564 0.63667
 H979 H 0.95074 0.75342 0.66182
 H980 H 0.93067 0.69593 0.60631
 H981 H 0.90239 0.81137 0.60050
 H982 H 0.88177 0.82564 0.56041
 H983 H 0.87817 0.74719 0.53546
 C984 C 0.91797 0.27106 0.38730
 C985 C 0.91861 0.24613 0.37962
 C986 C 0.93524 0.23809 0.35963
 C987 C 0.95222 0.25639 0.34740
 C988 C 0.95348 0.28189 0.35618
 C989 C 0.93565 0.28923 0.37628
 O990 O 0.90086 0.27490 0.40662
 C991 C 0.89086 0.25183 0.41158
 C992 C 0.90145 0.23340 0.39599
 C993 C 0.89643 0.20759 0.39995
 C994 C 0.88001 0.20061 0.42088
 C995 C 0.86765 0.21941 0.43655
 C996 C 0.87312 0.24543 0.43144
 H997 H 0.93534 0.21840 0.35379
 H998 H 0.96562 0.25026 0.33208
 H999 H 0.93571 0.30848 0.38341
 H1000 H 0.90602 0.19329 0.38812
 H1001 H 0.87759 0.18060 0.42522
 H1002 H 0.86480 0.26034 0.44329
 C1003 C 0.06529 0.27348 0.58657
 C1004 C 0.08798 0.26499 0.60039
 C1005 C 0.08912 0.26759 0.62607
 C1006 C 0.06599 0.27960 0.63792
 C1007 C 0.04345 0.29039 0.62383
 C1008 C 0.04335 0.28747 0.59767
 O1009 O 0.06677 0.26649 0.56291
 C1010 C 0.09125 0.25379 0.56169
 C1011 C 0.10550 0.25310 0.58391
 C1012 C 0.13248 0.24248 0.58634
 C1013 C 0.14492 0.23155 0.56513
 C1014 C 0.12928 0.22913 0.54264
 C1015 C 0.10220 0.24120 0.54091
 H1016 H 0.10675 0.25998 0.63666
 H1017 H 0.06633 0.28152 0.65795
 H1018 H 0.02596 0.29468 0.58649
 H1019 H 0.14388 0.24319 0.60376
 H1020 H 0.16653 0.22441 0.56645
 H1021 H 0.08962 0.24043 0.52414
 C1022 C 0.10428 0.73049 0.39859
 C1023 C 0.10907 0.75503 0.39072
 C1024 C 0.09872 0.76439 0.36836
 C1025 C 0.08224 0.74796 0.35375
 C1026 C 0.07563 0.72285 0.36200
 C1027 C 0.08747 0.71396 0.38464
 O1028 O 0.11525 0.72563 0.42079
 C1029 C 0.12689 0.74769 0.42718
 C1030 C 0.12342 0.76638 0.40955
 C1031 C 0.13136 0.79152 0.41349
 C1032 C 0.14329 0.79765 0.43657
 C1033 C 0.14810 0.77857 0.45484
 C1034 C 0.13978 0.75315 0.44985
 H1035 H 0.10272 0.78382 0.36260
 H1036 H 0.07358 0.75533 0.33657
 H1037 H 0.08299 0.69505 0.39170
 H1038 H 0.12744 0.80610 0.39970
 H1039 H 0.14817 0.81738 0.44044
 H1040 H 0.14242 0.73820 0.46350
 C1041 C 0.61360 0.91804 0.73121
 C1042 C 0.62420 0.91736 0.75500
 C1043 C 0.64797 0.93132 0.76222
 C1044 C 0.66124 0.94670 0.74422
 C1045 C 0.65021 0.94830 0.71975
 C1046 C 0.62609 0.93364 0.71316
 O1047 O 0.59040 0.90385 0.72839
 C1048 C 0.58613 0.89423 0.75092
 C1049 C 0.60604 0.90208 0.76795
 C1050 C 0.60410 0.89609 0.79308
 C1051 C 0.58048 0.88165 0.80101
 C1052 C 0.55998 0.87279 0.78371
 C1053 C 0.56314 0.87908 0.75824
 H1054 H 0.65581 0.93061 0.78108
 H1055 H 0.67956 0.95800 0.74956
 H1056 H 0.61717 0.93458 0.69467
 H1057 H 0.61955 0.90317 0.80626
 H1058 H 0.57770 0.87797 0.82067
 H1059 H 0.54745 0.87325 0.74469
 C1060 C 0.38221 0.92761 0.25427
 C1061 C 0.36972 0.90396 0.25623
 C1062 C 0.34595 0.89937 0.27133
 C1063 C 0.33508 0.91987 0.28525
 C1064 C 0.34859 0.94400 0.28427
 C1065 C 0.37217 0.94797 0.26828
 O1066 O 0.40535 0.92788 0.24000
 C1067 C 0.40783 0.90384 0.23299
 C1068 C 0.38680 0.88827 0.24256
 C1069 C 0.38736 0.86194 0.23968
 C1070 C 0.41065 0.85132 0.22670
 C1071 C 0.43228 0.86714 0.21633
 C1072 C 0.43043 0.89382 0.21933
 H1073 H 0.33661 0.88058 0.27284
 H1074 H 0.31723 0.91666 0.29776
 H1075 H 0.38308 0.96615 0.26754
 H1076 H 0.37116 0.84992 0.24808
 H1077 H 0.41233 0.83083 0.22537
 H1078 H 0.44698 0.90636 0.21226
 C1079 C 0.59311 0.07731 0.26199
 C1080 C 0.58124 0.09216 0.28036
 C1081 C 0.58492 0.08720 0.30550
 C1082 C 0.60168 0.06616 0.31200
 C1083 C 0.61461 0.05081 0.29346
 C1084 C 0.61046 0.05661 0.26806
 O1085 O 0.58482 0.08398 0.23934
 C1086 C 0.56741 0.10347 0.24352
 C1087 C 0.56476 0.10939 0.26832
 C1088 C 0.54622 0.12799 0.27710
 C1089 C 0.52896 0.14043 0.25970
 C1090 C 0.53050 0.13400 0.23419
 C1091 C 0.55048 0.11570 0.22587
 H1092 H 0.57483 0.09883 0.31960
 H1093 H 0.60487 0.06198 0.33150
 H1094 H 0.61973 0.04494 0.25356
 H1095 H 0.54419 0.13199 0.29674
 H1096 H 0.51323 0.15402 0.26618
 H1097 H 0.55119 0.10984 0.20661
 C1098 C 0.40048 0.07971 0.74684
 C1099 C 0.39233 0.07999 0.77141
 C1100 C 0.36748 0.06829 0.77997
 C1101 C 0.35062 0.05532 0.76259
 C1102 C 0.35900 0.05400 0.73722
 C1103 C 0.38414 0.06680 0.72926
 O1104 O 0.42524 0.09140 0.74267
 C1105 C 0.43298 0.09910 0.76513
 C1106 C 0.41366 0.09244 0.78339
 C1107 C 0.41832 0.09728 0.80841
 C1108 C 0.44378 0.10969 0.81486
 C1109 C 0.46365 0.11760 0.79633
 C1110 C 0.45822 0.11190 0.77109
 H1111 H 0.36157 0.06867 0.79943
 H1112 H 0.33165 0.04550 0.76911
 H1113 H 0.39136 0.06599 0.71014
 H1114 H 0.40315 0.09130 0.82251
 H1115 H 0.44812 0.11313 0.83430
 H1116 H 0.47326 0.11714 0.75661
 C1117 C 0.60394 0.73243 0.07318
 C1118 C 0.61131 0.75775 0.07401
 C1119 C 0.63618 0.76723 0.06318
 C1120 C 0.65398 0.74999 0.05063
 C1121 C 0.64656 0.72383 0.04892
 C1122 C 0.62126 0.71496 0.06071
 O1123 O 0.57911 0.72745 0.08425
 C1124 C 0.57056 0.75014 0.09213
 C1125 C 0.58944 0.76933 0.08620
 C1126 C 0.58415 0.79473 0.09167
 C1127 C 0.55848 0.80056 0.10396
 C1128 C 0.53903 0.78104 0.11102
 C1129 C 0.54506 0.75548 0.10468
 H1130 H 0.64147 0.78726 0.06402
 H1131 H 0.67310 0.75720 0.04164
 H1132 H 0.61480 0.69521 0.05963
 H1133 H 0.59906 0.80956 0.08637
 H1134 H 0.55369 0.82027 0.10804
 H1135 H 0.53034 0.74028 0.10938
 C1136 C 0.38974 0.26274 0.06435
 C1137 C 0.37772 0.26341 0.08773
 C1138 C 0.35122 0.27441 0.09255
 C1139 C 0.33660 0.28523 0.07243
 C1140 C 0.34901 0.28526 0.04840
 C1141 C 0.37590 0.27391 0.04426
 O1142 O 0.41481 0.25101 0.06365
 C1143 C 0.41882 0.24426 0.08712
 C1144 C 0.39690 0.25162 0.10264
 C1145 C 0.39727 0.24737 0.12811
 C1146 C 0.42115 0.23491 0.13795
 C1147 C 0.44357 0.22622 0.12221
 C1148 C 0.44240 0.23125 0.09641
 H1149 H 0.34213 0.27458 0.11108
 H1150 H 0.31594 0.29396 0.07556
 H1151 H 0.38559 0.27366 0.02594
 H1152 H 0.38004 0.25379 0.14003
 H1153 H 0.42225 0.23201 0.15784
 H1154 H 0.45934 0.22524 0.08397
 C1155 C 0.62476 0.25456 0.94475
 C1156 C 0.63610 0.25711 0.92122
 C1157 C 0.66094 0.27098 0.91643
 C1158 C 0.67421 0.28309 0.93660
 C1159 C 0.66217 0.28147 0.96075
 C1160 C 0.63731 0.26678 0.96491
 O1161 O 0.60053 0.24144 0.94531
 C1162 C 0.59626 0.23577 0.92162
 C1163 C 0.61719 0.24513 0.90604
 C1164 C 0.61542 0.24331 0.88029
 C1165 C 0.59118 0.23135 0.87029
 C1166 C 0.56977 0.22076 0.88603
 C1167 C 0.57254 0.22312 0.91211
 H1168 H 0.66936 0.27296 0.89776
 H1169 H 0.69294 0.29476 0.93327
 H1170 H 0.62741 0.26580 0.98312
 H1171 H 0.63164 0.25154 0.86832
 H1172 H 0.58883 0.23066 0.85031
 H1173 H 0.55626 0.21588 0.92465
 C1174 C 0.39297 0.72940 0.92355
 C1175 C 0.38184 0.73083 0.89997
 C1176 C 0.35476 0.72176 0.89414
 C1177 C 0.33860 0.71066 0.91339
 C1178 C 0.35009 0.70833 0.93758
 C1179 C 0.37764 0.71780 0.94273
 O1180 O 0.41883 0.73953 0.92532
 C1181 C 0.42426 0.74735 0.90234
 C1182 C 0.40250 0.74223 0.88602
 C1183 C 0.40442 0.74774 0.86079
 C1184 C 0.42976 0.75911 0.85208
 C1185 C 0.45202 0.76555 0.86876
 C1186 C 0.44917 0.75933 0.89424
 H1187 H 0.34636 0.72321 0.87550
 H1188 H 0.31750 0.70330 0.90939
 H1189 H 0.38673 0.71631 0.96113
 H1190 H 0.38729 0.74302 0.84819
 H1191 H 0.43210 0.76290 0.83240
 H1192 H 0.46597 0.76357 0.90735
 C1193 C 0.72813 0.91889 0.38227
 C1194 C 0.75697 0.92294 0.37929
 C1195 C 0.76807 0.93893 0.36095
 C1196 C 0.74860 0.95173 0.34550
 C1197 C 0.71871 0.94851 0.34887
 C1198 C 0.70852 0.93131 0.36719
 O1199 O 0.72173 0.90417 0.40157
 C1200 C 0.74706 0.89890 0.41115
 C1201 C 0.76937 0.90996 0.39831
 C1202 C 0.79754 0.90834 0.40628
 C1203 C 0.80284 0.89477 0.42830
 C1204 C 0.78018 0.88285 0.44161
 C1205 C 0.75189 0.88507 0.43284
 H1206 H 0.79084 0.94208 0.35910
 H1207 H 0.75678 0.96499 0.33178
 H1208 H 0.68588 0.92861 0.37054
 H1209 H 0.81471 0.91770 0.39626
 H1210 H 0.82450 0.89380 0.43521
 H1211 H 0.73412 0.87668 0.44292
 C1212 C 0.26997 0.93276 0.61477
 C1213 C 0.26758 0.90917 0.62577
 C1214 C 0.27367 0.90497 0.65071
 C1215 C 0.28277 0.92590 0.66479
 C1216 C 0.28637 0.95012 0.65356
 C1217 C 0.27984 0.95361 0.62823
 O1218 O 0.26287 0.93276 0.59096
 C1219 C 0.25612 0.90863 0.58676
 C1220 C 0.25900 0.89332 0.60733
 C1221 C 0.25481 0.86712 0.60655
 C1222 C 0.24727 0.85633 0.58365
 C1223 C 0.24291 0.87189 0.56239
 C1224 C 0.24761 0.89846 0.56412
 H1225 H 0.27151 0.88629 0.65902
 H1226 H 0.28778 0.92316 0.68422
 H1227 H 0.28238 0.97199 0.61932
 H1228 H 0.25798 0.85533 0.62281
 H1229 H 0.24501 0.83587 0.58238
 H1230 H 0.24512 0.91081 0.54815
 C1231 C 0.27496 0.07341 0.40669
 C1232 C 0.29697 0.08649 0.41769
 C1233 C 0.32545 0.08283 0.41116
 C1234 C 0.33152 0.06484 0.39265
 C1235 C 0.30924 0.05095 0.38104
 C1236 C 0.28049 0.05557 0.38809
 O1237 O 0.24956 0.07881 0.41644
 C1238 C 0.25567 0.09564 0.43399
 C1239 C 0.28440 0.10103 0.43548
 C1240 C 0.29570 0.11721 0.45334
 C1241 C 0.27665 0.12806 0.47053
 C1242 C 0.24703 0.12263 0.46945
 C1243 C 0.23634 0.10637 0.45081
 H1244 H 0.34243 0.09315 0.42028
 H1245 H 0.35362 0.06159 0.38754
 H1246 H 0.26301 0.04509 0.37989
 H1247 H 0.31842 0.12089 0.45436
 H1248 H 0.28492 0.14024 0.48501
 H1249 H 0.21386 0.10155 0.45005
 C1250 C 0.72295 0.07772 0.59522
 C1251 C 0.75188 0.08092 0.59824
 C1252 C 0.76720 0.06911 0.61698
 C1253 C 0.75217 0.05311 0.63325
 C1254 C 0.72234 0.04898 0.63045
 C1255 C 0.70749 0.06172 0.61120
 O1256 O 0.71281 0.09025 0.57568
 C1257 C 0.73591 0.10145 0.56616
 C1258 C 0.76032 0.09619 0.57929
 C1259 C 0.78719 0.10461 0.57199
 C1260 C 0.78906 0.11909 0.55021
 C1261 C 0.76422 0.12547 0.53649
 C1262 C 0.73720 0.11633 0.54459
 H1263 H 0.79001 0.07187 0.61883
 H1264 H 0.76401 0.04356 0.64776
 H1265 H 0.68483 0.05887 0.60841
 H1266 H 0.80615 0.09966 0.58234
 H1267 H 0.81001 0.12499 0.54375
 H1268 H 0.71795 0.12033 0.53425
 C1269 C 0.94370 0.60607 0.27279
 C1270 C 0.91690 0.61621 0.26940
 C1271 C 0.90968 0.64067 0.27711
 C1272 C 0.93092 0.65519 0.28885
 C1273 C 0.95837 0.64480 0.29307
 C1274 C 0.96485 0.61992 0.28496
 O1275 O 0.94642 0.58275 0.26366
 C1276 C 0.92075 0.57796 0.25443
 C1277 C 0.90180 0.59768 0.25768
 C1278 C 0.87342 0.59622 0.25027
 C1279 C 0.86431 0.57361 0.23891
 C1280 C 0.88376 0.55338 0.23436
 C1281 C 0.91233 0.55560 0.24259
 H1282 H 0.88852 0.64832 0.27410
 H1283 H 0.92594 0.67427 0.29504
 H1284 H 0.98579 0.61173 0.28786
 H1285 H 0.85872 0.61176 0.25348
 H1286 H 0.84212 0.57180 0.23362
 H1287 H 0.92753 0.54032 0.23988
 C1288 C 0.91167 0.40413 0.71638
 C1289 C 0.88405 0.39520 0.71781
 C1290 C 0.87574 0.37210 0.70746
 C1291 C 0.89676 0.35771 0.69513
 C1292 C 0.92510 0.36697 0.69289
 C1293 C 0.93263 0.39051 0.70362
 O1294 O 0.91540 0.42609 0.72801
 C1295 C 0.88954 0.43128 0.73682
 C1296 C 0.86948 0.41318 0.73088
 C1297 C 0.84082 0.41547 0.73751
 C1298 C 0.83260 0.43722 0.75088
 C1299 C 0.85314 0.45565 0.75812
 C1300 C 0.88201 0.45260 0.75071
 H1301 H 0.85395 0.36533 0.70899
 H1302 H 0.89094 0.33964 0.68695
 H1303 H 0.95425 0.39779 0.70235
 H1304 H 0.82527 0.40124 0.73223
 H1305 H 0.81028 0.43974 0.75568
 H1306 H 0.89814 0.46646 0.75561
 C1307 C 0.06760 0.59314 0.71960
 C1308 C 0.09572 0.60075 0.71809
 C1309 C 0.10412 0.62336 0.70667
 C1310 C 0.08263 0.63874 0.69646
 C1311 C 0.05366 0.63098 0.69743
 C1312 C 0.04601 0.60785 0.70906
 O1313 O 0.06407 0.57136 0.73172
 C1314 C 0.09052 0.56498 0.73790
 C1315 C 0.11073 0.58218 0.72984
 C1316 C 0.13984 0.57875 0.73371
 C1317 C 0.14842 0.55669 0.74641
 C1318 C 0.12790 0.53903 0.75556
 C1319 C 0.09852 0.54329 0.75104
 H1320 H 0.12634 0.62905 0.70586
 H1321 H 0.08848 0.65655 0.68761
 H1322 H 0.02393 0.60176 0.71021
 H1323 H 0.15540 0.59235 0.72686
 H1324 H 0.17101 0.55326 0.74906
 H1325 H 0.08239 0.53001 0.75749
 C1326 C 0.09660 0.39664 0.27327
 C1327 C 0.11625 0.40507 0.29030
 C1328 C 0.11502 0.39841 0.31530
 C1329 C 0.09266 0.38239 0.32306
 C1330 C 0.07237 0.37316 0.30579
 C1331 C 0.07459 0.38019 0.28047
 O1332 O 0.10003 0.40706 0.25096
 C1333 C 0.12235 0.42236 0.25396
 C1334 C 0.13323 0.42165 0.27764
 C1335 C 0.15541 0.43735 0.28533
 C1336 C 0.16627 0.45500 0.26812
 C1337 C 0.15476 0.45674 0.24386
 C1338 C 0.13287 0.43979 0.23654
 H1339 H 0.13033 0.40575 0.32847
 H1340 H 0.09114 0.37714 0.34248
 H1341 H 0.05901 0.37386 0.26703
 H1342 H 0.16331 0.43671 0.30417
 H1343 H 0.18267 0.46821 0.27398
 H1344 H 0.12302 0.44138 0.21846
   
