data_POSCAR
  _audit_creation_date              2014-09-24
  _audit_creation_method            'ToBaCCo'
  _symmetry_space_group_name_H-M    'P1'
  _symmetry_Int_Tables_number       1
  _symmetry_cell_setting            triclinic
  loop_
  _symmetry_equiv_pos_as_xyz
 x,y,z
_cell_length_a 39.1089
_cell_length_b 40.2561
_cell_length_c 40.3222
_cell_angle_alpha 90.020900
_cell_angle_beta 90.101100
_cell_angle_gamma 90.111200
loop_
  _atom_site_label
  _atom_site_type_symbol
  _atom_site_fract_x
  _atom_site_fract_y
  _atom_site_fract_z
N1 N 0.33626 0.34109 0.34192
 N2 N 0.33794 0.83987 -0.16550
 N3 N 0.84124 0.34987 -0.15310
 N4 N 0.85647 0.85290 0.34418
 N5 N 0.65075 0.65113 0.35180
 N6 N 0.64987 0.15135 -0.15852
 N7 N 0.16312 0.65589 -0.15347
 N8 N 0.14446 0.15071 0.34472
 N9 N 0.64964 0.35140 0.65105
 N10 N 0.66234 0.84454 1.15300
 N11 N 0.15017 0.35480 1.14984
 N12 N 0.15570 0.84209 0.65004
 N13 N 0.34662 0.65431 0.65239
 N14 N 0.33995 0.15535 1.14999
 N15 N 0.84294 0.65743 1.15885
 N16 N 0.84418 0.15073 0.65008
 N17 N 0.33504 0.34382 0.65172
 N18 N 0.34819 0.85025 0.15307
 N19 N 0.83061 0.34353 0.15472
 N20 N 0.83942 0.83608 0.66241
 N21 N 0.66345 0.66238 0.65211
 N22 N 0.65369 0.15386 0.15220
 N23 N 0.15515 0.64707 0.14496
 N24 N 0.14832 0.15282 0.65275
 N25 N 0.34830 0.65838 0.33929
 N26 N 0.33324 0.16014 0.83874
 N27 N 0.85579 0.64245 0.85433
 N28 N 0.83738 0.16302 0.34128
 N29 N 0.65135 0.34721 0.34563
 N30 N 0.65686 0.84796 0.84799
 N31 N 0.14971 0.35149 0.84516
 N32 N 0.15694 0.84979 0.35064
 O33 O 0.25240 1.03109 0.20247
 O34 O 0.20500 0.96834 0.25106
 O35 O 0.20377 1.03345 0.24632
 O36 O 0.25360 0.96685 0.20683
 O37 O 0.29232 0.96992 0.24677
 O38 O 0.24166 1.03599 0.28666
 O39 O 0.24424 0.97111 0.29044
 O40 O 0.29081 1.03402 0.24244
 Cu41 Cu 0.22471 0.99962 0.22277
 Cu42 Cu 0.27101 1.00334 0.27068
 C43 C 0.28011 1.04286 0.21402
 C44 C 0.21687 0.95873 0.27882
 C45 C 0.21387 1.04587 0.27354
 C46 C 0.28141 0.95724 0.21994
 O47 O 0.29205 0.46684 0.73700
 O48 O 0.25416 0.52913 0.79232
 O49 O 0.24929 0.46515 0.78696
 O50 O 0.29490 0.53129 0.74189
 O51 O 0.25125 0.53590 0.70724
 O52 O 0.20577 0.46990 0.75222
 O53 O 0.21094 0.53454 0.75757
 O54 O 0.24838 0.47137 0.70252
 Cu55 Cu 0.27703 0.49733 0.76794
 Cu56 Cu 0.22460 0.50319 0.72647
 C57 C 0.27700 0.45870 0.71029
 C58 C 0.22669 0.54344 0.78374
 C59 C 0.21964 0.45658 0.77734
 C60 C 0.28048 0.54520 0.71732
 O61 O 0.75590 -0.02967 0.20313
 O62 O 0.79306 0.03748 0.25401
 O63 O 0.80027 -0.02700 0.25100
 O64 O 0.75136 0.03552 0.20439
 O65 O 0.70925 0.03155 0.24070
 O66 O 0.75745 -0.03282 0.28615
 O67 O 0.75148 0.03150 0.29039
 O68 O 0.71280 -0.03335 0.23835
 Cu69 Cu 0.77939 0.00445 0.22449
 Cu70 Cu 0.72845 -0.00137 0.26738
 C71 C 0.72814 -0.04313 0.21247
 C72 C 0.77801 0.04661 0.28042
 C73 C 0.78730 -0.04058 0.27645
 C74 C 0.72250 0.04489 0.21519
 O75 O 0.71278 0.53826 0.73609
 O76 O 0.74905 0.47068 0.78712
 O77 O 0.75174 0.53530 0.78834
 O78 O 0.70538 0.47366 0.73814
 O79 O 0.74998 0.46847 0.70501
 O80 O 0.79466 0.53388 0.75276
 O81 O 0.79383 0.46928 0.75380
 O82 O 0.75525 0.53314 0.70060
 Cu83 Cu 0.72525 0.50471 0.76572
 Cu84 Cu 0.77774 0.50078 0.72457
 C85 C 0.72816 0.54760 0.70988
 C86 C 0.77817 0.45906 0.77936
 C87 C 0.78084 0.54540 0.77886
 C88 C 0.71976 0.46031 0.71334
 O89 O 0.24992 0.46731 0.21208
 O90 O 0.29218 0.53371 0.25958
 O91 O 0.29211 0.46885 0.26225
 O92 O 0.25042 0.53144 0.20964
 O93 O 0.20755 0.53411 0.24520
 O94 O 0.24789 0.46927 0.29621
 O95 O 0.24925 0.53422 0.29510
 O96 O 0.20553 0.47009 0.24583
 Cu97 Cu 0.27573 0.50003 0.23259
 Cu98 Cu 0.22328 0.50189 0.27426
 C99 C 0.22004 0.45820 0.22033
 C100 C 0.27753 0.54582 0.28491
 C101 C 0.27711 0.45829 0.28808
 C102 C 0.22181 0.54337 0.21846
 O103 O 0.70822 0.97035 0.75762
 O104 O 0.75930 1.02778 0.70639
 O105 O 0.75369 0.96348 0.71205
 O106 O 0.71228 1.03495 0.75130
 O107 O 0.75130 1.03441 0.79102
 O108 O 0.79442 0.96400 0.75005
 O109 O 0.79887 1.02902 0.74546
 O110 O 0.74940 0.96973 0.79528
 Cu111 Cu 0.72938 0.99928 0.72795
 Cu112 Cu 0.77768 0.99975 0.77426
 C113 C 0.72074 0.95944 0.78461
 C114 C 0.78778 1.03832 0.71736
 C115 C 0.78021 0.95072 0.72495
 C116 C 0.72458 1.04670 0.77794
 O117 O 0.78730 0.46861 0.24041
 O118 O 0.74489 0.53003 0.29409
 O119 O 0.74300 0.46560 0.28861
 O120 O 0.78828 0.53341 0.24643
 O121 O 0.74627 0.53724 0.20997
 O122 O 0.70069 0.46934 0.25235
 O123 O 0.70292 0.53378 0.25757
 O124 O 0.74498 0.47215 0.20428
 Cu125 Cu 0.77022 0.49879 0.27091
 Cu126 Cu 0.71954 0.50333 0.22726
 C127 C 0.77334 0.45980 0.21333
 C128 C 0.71680 0.54270 0.28466
 C129 C 0.71411 0.45612 0.27778
 C130 C 0.77434 0.54779 0.22189
 O131 O 0.25148 -0.03315 0.78731
 O132 O 0.20312 0.03080 0.74115
 O133 O 0.20262 -0.03425 0.74353
 O134 O 0.24709 0.03179 0.78972
 O135 O 0.28836 0.03180 0.75261
 O136 O 0.24224 -0.03226 0.70469
 O137 O 0.24458 0.03299 0.70401
 O138 O 0.29090 -0.03276 0.74815
 Cu139 Cu 0.22206 -0.00129 0.76922
 Cu140 Cu 0.27047 0.00014 0.72353
 C141 C 0.27930 -0.04412 0.77521
 C142 C 0.21610 0.04310 0.71497
 C143 C 0.21468 -0.04449 0.71623
 C144 C 0.27548 0.04289 0.77939
 O145 O 0.23999 0.29615 0.96837
 O146 O 0.28347 0.24255 1.02943
 O147 O 0.28290 0.24760 0.96365
 O148 O 0.24270 0.29319 1.03241
 O149 O 0.19998 0.25715 1.03240
 O150 O 0.23941 0.21274 0.96227
 O151 O 0.24099 0.20694 1.02678
 O152 O 0.19645 0.26122 0.96784
 Cu153 Cu 0.26691 0.27312 0.99857
 Cu154 Cu 0.21497 0.23095 0.99721
 C155 C 0.21052 0.28783 0.95789
 C156 C 0.26910 0.21598 1.03946
 C157 C 0.26734 0.22334 0.95021
 C158 C 0.21467 0.28273 1.04428
 O159 O 0.25677 0.79507 0.46890
 O160 O 0.30119 0.74261 0.53018
 O161 O 0.30276 0.74935 0.46618
 O162 O 0.25648 0.79091 0.53364
 O163 O 0.21590 0.75271 0.53075
 O164 O 0.26133 0.71217 0.46195
 O165 O 0.26039 0.70491 0.52575
 O166 O 0.21557 0.75753 0.46577
 Cu167 Cu 0.28340 0.77331 0.50033
 Cu168 Cu 0.23404 0.72814 0.49588
 C169 C 0.22882 0.78476 0.45649
 C170 C 0.28861 0.71454 0.53797
 C171 C 0.28946 0.72436 0.45192
 C172 C 0.22854 0.77866 0.54391
 O173 O 0.29137 0.75888 -0.03596
 O174 O 0.25180 0.71346 0.03325
 O175 O 0.24676 0.71222 -0.03035
 O176 O 0.29614 0.76226 0.02943
 O177 O 0.25418 0.79868 0.03146
 O178 O 0.20599 0.75019 -0.03001
 O179 O 0.20953 0.74980 0.03373
 O180 O 0.25085 0.79679 -0.03337
 Cu181 Cu 0.27607 0.73328 -0.00075
 Cu182 Cu 0.22620 0.77782 0.00098
 C183 C 0.27700 0.78470 -0.04749
 C184 C 0.22306 0.72309 0.04413
 C185 C 0.21801 0.72286 -0.04048
 C186 C 0.28354 0.78901 0.04074
 O187 O 0.28843 0.24470 0.46383
 O188 O 0.24081 0.20334 0.53100
 O189 O 0.24024 0.20035 0.46641
 O190 O 0.28992 0.24609 0.52931
 O191 O 0.25166 0.28643 0.52854
 O192 O 0.20242 0.24102 0.46507
 O193 O 0.20259 0.24368 0.53009
 O194 O 0.25056 0.28541 0.46377
 Cu195 Cu 0.26881 0.21965 0.49759
 Cu196 Cu 0.22299 0.26818 0.49665
 C197 C 0.27716 0.27183 0.45207
 C198 C 0.21415 0.21704 0.54263
 C199 C 0.21295 0.21296 0.45494
 C200 C 0.27853 0.27340 0.54048
 O201 O 0.75236 0.78880 0.96463
 O202 O 0.79664 0.74560 1.03248
 O203 O 0.79780 0.74045 0.96847
 O204 O 0.74774 0.78786 1.03002
 O205 O 0.70694 0.75009 1.02733
 O206 O 0.75765 0.70181 0.96837
 O207 O 0.75606 0.70723 1.03265
 O208 O 0.71297 0.74946 0.96290
 Cu209 Cu 0.77742 0.76981 0.99851
 Cu210 Cu 0.72941 0.72337 0.99755
 C211 C 0.72554 0.77642 0.95190
 C212 C 0.78345 0.71952 1.04458
 C213 C 0.78640 0.71251 0.95859
 C214 C 0.71947 0.77604 1.04033
 O215 O 0.74834 0.21182 0.46477
 O216 O 0.70251 0.25413 0.53267
 O217 O 0.70117 0.25766 0.46768
 O218 O 0.74527 0.20523 0.52826
 O219 O 0.78558 0.24291 0.53369
 O220 O 0.74289 0.29455 0.47004
 O221 O 0.74316 0.29232 0.53456
 O222 O 0.79003 0.24870 0.46904
 Cu223 Cu 0.72009 0.22865 0.49782
 Cu224 Cu 0.76963 0.27327 0.50204
 C225 C 0.77735 0.22289 0.45581
 C226 C 0.71533 0.28033 0.54532
 C227 C 0.71427 0.28494 0.45840
 C228 C 0.77229 0.21529 0.54229
 O229 O 0.70194 0.24119 -0.03689
 O230 O 0.74623 0.28850 0.02871
 O231 O 0.74786 0.28820 -0.03681
 O232 O 0.70075 0.24131 0.02721
 O233 O 0.74047 0.20261 0.02573
 O234 O 0.78987 0.25177 -0.03432
 O235 O 0.78593 0.24958 0.03112
 O236 O 0.74443 0.20503 -0.03802
 Cu237 Cu 0.72030 0.26884 -0.00456
 Cu238 Cu 0.76956 0.22374 -0.00369
 C239 C 0.71572 0.21518 -0.04863
 C240 C 0.77287 0.27632 0.04195
 C241 C 0.77646 0.27744 -0.04711
 C242 C 0.71215 0.21339 0.03676
 O243 O 0.70966 0.75393 0.46165
 O244 O 0.75510 0.79980 0.52764
 O245 O 0.75657 0.80073 0.46201
 O246 O 0.70788 0.75551 0.52545
 O247 O 0.74846 0.71759 0.52806
 O248 O 0.79577 0.76137 0.46206
 O249 O 0.79562 0.76181 0.52723
 O250 O 0.74910 0.71476 0.46345
 Cu251 Cu 0.72853 0.78161 0.49365
 Cu252 Cu 0.77633 0.73506 0.49495
 C253 C 0.72111 0.72598 0.45221
 C254 C 0.78276 0.78808 0.53936
 C255 C 0.78439 0.78881 0.45112
 C256 C 0.72056 0.72974 0.53869
 O257 O 1.02995 0.21510 0.24888
 O258 O 0.96126 0.26040 0.20556
 O259 O 1.02813 0.26243 0.20397
 O260 O 0.96313 0.21359 0.24833
 O261 O 0.96277 0.25104 0.28848
 O262 O 1.02786 0.29995 0.24386
 O263 O 0.96128 0.29806 0.24535
 O264 O 1.02937 0.25270 0.28878
 Cu265 Cu 0.99617 0.23416 0.22259
 Cu266 Cu 0.99570 0.27923 0.27060
 C267 C 1.04066 0.22578 0.27668
 C268 C 0.94844 0.28610 0.21898
 C269 C 1.03855 0.28982 0.21591
 C270 C 0.95109 0.22462 0.27539
 O271 O 0.46100 0.26005 0.70780
 O272 O 0.52718 0.21085 0.75039
 O273 O 0.46026 0.21196 0.74974
 O274 O 0.52759 0.25888 0.70634
 O275 O 0.52925 0.29565 0.74687
 O276 O 0.46095 0.24929 0.78998
 O277 O 0.52803 0.24756 0.79101
 O278 O 0.46330 0.29754 0.74759
 Cu279 Cu 0.49428 0.23171 0.72451
 Cu280 Cu 0.49583 0.27603 0.77306
 C281 C 0.45010 0.28674 0.72092
 C282 C 0.53846 0.22055 0.77832
 C283 C 0.44846 0.22326 0.77677
 C284 C 0.53917 0.28570 0.71859
 O285 O -0.03614 0.29657 0.75261
 O286 O 0.02711 0.24716 0.70628
 O287 O -0.03929 0.25083 0.70651
 O288 O 0.03033 0.29376 0.75083
 O289 O 0.02946 0.25510 0.78971
 O290 O -0.03975 0.21182 0.74509
 O291 O 0.02608 0.20879 0.74535
 O292 O -0.03738 0.25788 0.79132
 Cu293 Cu -0.00451 0.27600 0.72520
 Cu294 Cu -0.00577 0.22969 0.77195
 C295 C -0.04722 0.28578 0.78018
 C296 C 0.03717 0.21942 0.71774
 C297 C -0.05074 0.22363 0.71790
 C298 C 0.04213 0.28144 0.77746
 O299 O 0.52924 0.25472 0.28803
 O300 O 0.46247 0.21042 0.24105
 O301 O 0.52989 0.21069 0.24209
 O302 O 0.46209 0.25745 0.28503
 O303 O 0.46543 0.29688 0.24731
 O304 O 0.53050 0.24896 0.20294
 O305 O 0.46322 0.24988 0.20294
 O306 O 0.53171 0.29325 0.24906
 Cu307 Cu 0.49559 0.22941 0.26792
 Cu308 Cu 0.49778 0.27601 0.22160
 C309 C 0.54260 0.28082 0.27604
 C310 C 0.45098 0.22297 0.21443
 C311 C 0.54272 0.22279 0.21578
 C312 C 0.45163 0.28485 0.27304
 O313 O 0.96669 0.74557 0.71004
 O314 O 1.03775 0.70264 0.75165
 O315 O 0.97172 0.70097 0.75690
 O316 O 1.03350 0.74818 0.70667
 O317 O 1.03461 0.78737 0.74494
 O318 O 0.97327 0.73993 0.79541
 O319 O 1.03892 0.74170 0.79025
 O320 O 0.96756 0.78435 0.74888
 Cu321 Cu 1.00213 0.72051 0.72735
 Cu322 Cu 1.00368 0.76747 0.77357
 C323 C 0.95478 0.77198 0.72267
 C324 C 1.05038 0.71495 0.77792
 C325 C 0.96256 0.71200 0.78505
 C326 C 1.04482 0.77576 0.71739
 O327 O 0.47075 0.75465 0.20407
 O328 O 0.53950 0.71063 0.24813
 O329 O 0.47393 0.70689 0.24657
 O330 O 0.53749 0.75854 0.20365
 O331 O 0.53538 0.79564 0.24394
 O332 O 0.47244 0.74360 0.28731
 O333 O 0.53806 0.74824 0.28807
 O334 O 0.46873 0.79162 0.24453
 Cu335 Cu 0.50596 0.72916 0.22130
 Cu336 Cu 0.50355 0.77368 0.26989
 C337 C 0.45739 0.78010 0.21734
 C338 C 0.54963 0.72139 0.27610
 C339 C 0.46274 0.71629 0.27456
 C340 C 0.54700 0.78597 0.21621
 O341 O -0.02576 0.78784 0.25380
 O342 O 0.04082 0.74203 0.20919
 O343 O -0.02554 0.73966 0.21053
 O344 O 0.04078 0.78466 0.25806
 O345 O 0.04111 0.74427 0.29479
 O346 O -0.02844 0.70211 0.25008
 O347 O 0.03817 0.70157 0.24605
 O348 O -0.02572 0.75004 0.29346
 Cu349 Cu 0.00772 0.76743 0.22914
 Cu350 Cu 0.00624 0.72068 0.27493
 C351 C -0.03681 0.77720 0.28135
 C352 C 0.05024 0.71370 0.21934
 C353 C -0.03838 0.71304 0.22225
 C354 C 0.05227 0.77206 0.28481
 O355 O 0.47025 0.70850 0.74321
 O356 O 0.53528 0.75406 0.79145
 O357 O 0.46840 0.75082 0.79018
 O358 O 0.53712 0.70738 0.74585
 O359 O 0.53749 0.74665 0.70763
 O360 O 0.46897 0.79060 0.75237
 O361 O 0.53579 0.79333 0.75333
 O362 O 0.47134 0.74800 0.70525
 Cu363 Cu 0.50321 0.72618 0.77151
 Cu364 Cu 0.50394 0.77369 0.72594
 C365 C 0.45854 0.72146 0.71678
 C366 C 0.54613 0.78188 0.78086
 C367 C 0.45610 0.77733 0.77809
 C368 C 0.54840 0.71911 0.71881
 C369 C 0.36552 0.32876 0.28755
 C370 C 0.36453 0.32772 0.32284
 C371 C 0.39182 0.31323 0.34005
 C372 C 0.41992 0.30046 0.32340
 C373 C 0.42221 0.30195 0.28878
 C374 C 0.39489 0.31657 0.27036
 C375 C 0.33710 0.33969 0.26880
 C376 C 0.33811 0.34071 0.23435
 C377 C 0.36698 0.32998 0.21763
 C378 C 0.39486 0.31763 0.23520
 H379 H 0.31320 0.34623 0.28014
 H380 H 0.31605 0.34923 0.22052
 H381 H 0.36741 0.33029 0.19079
 H382 H 0.41543 0.30804 0.22039
 H383 H 0.39144 0.31207 0.36687
 H384 H 0.44023 0.28923 0.33783
 C385 C 0.36374 0.79114 0.80545
 C386 C 0.36689 0.82299 0.82015
 C387 C 0.39872 0.83901 0.82026
 C388 C 0.42744 0.82384 0.80665
 C389 C 0.42525 0.79194 0.79306
 C390 C 0.39324 0.77523 0.79231
 C391 C 0.33168 0.77524 0.80245
 C392 C 0.32881 0.74406 0.78764
 C393 C 0.35770 0.72818 0.77541
 C394 C 0.38961 0.74350 0.77770
 H395 H 0.30850 0.78688 0.81084
 H396 H 0.30401 0.73223 0.78547
 H397 H 0.35534 0.70402 0.76381
 H398 H 0.41119 0.73036 0.76763
 H399 H 0.40122 0.86352 0.83110
 H400 H 0.45165 0.83697 0.80697
 C401 C -0.09991 0.32480 0.85047
 C402 C -0.12759 0.33767 0.83160
 C403 C -0.12548 0.33708 0.79686
 C404 C -0.09870 0.32112 0.78085
 C405 C -0.07269 0.30551 0.79891
 C406 C -0.07225 0.30857 0.83403
 C407 C -0.09845 0.32883 0.88520
 C408 C -0.07096 0.31656 0.90347
 C409 C -0.04404 0.30072 0.88751
 C410 C -0.04437 0.29703 0.85315
 H411 H -0.11776 0.34248 0.89851
 H412 H -0.07022 0.31994 0.93009
 H413 H -0.02246 0.29181 0.90179
 H414 H -0.02211 0.28595 0.84187
 H415 H -0.14598 0.34727 0.78194
 H416 H -0.09915 0.31967 0.75401
 C417 C -0.08593 0.82619 0.34766
 C418 C -0.11544 0.83499 0.32916
 C419 C -0.11785 0.82535 0.29584
 C420 C -0.09211 0.80669 0.28101
 C421 C -0.06322 0.79671 0.29902
 C422 C -0.05971 0.80681 0.33258
 C423 C -0.08131 0.83747 0.38051
 C424 C -0.05205 0.82930 0.39839
 C425 C -0.02658 0.81030 0.38379
 C426 C -0.03010 0.79935 0.35114
 H427 H -0.09964 0.85344 0.39244
 H428 H -0.04888 0.83820 0.42355
 H429 H -0.00380 0.80452 0.39777
 H430 H -0.00924 0.78562 0.34047
 H431 H -0.14020 0.83187 0.28137
 H432 H -0.09503 0.79951 0.25525
 C433 C 0.59314 0.65178 0.32481
 C434 C 0.62396 0.66810 0.33375
 C435 C 0.62913 0.70120 0.32407
 C436 C 0.60474 0.71798 0.30542
 C437 C 0.57460 0.70212 0.29548
 C438 C 0.56823 0.66889 0.30550
 C439 C 0.58606 0.61917 0.33567
 C440 C 0.55530 0.60364 0.32747
 C441 C 0.53093 0.62032 0.30866
 C442 C 0.53714 0.65265 0.29784
 H443 H 0.60375 0.60567 0.35120
 H444 H 0.55019 0.57865 0.33609
 H445 H 0.50693 0.60826 0.30268
 H446 H 0.51713 0.66481 0.28394
 H447 H 0.65258 0.71397 0.33058
 H448 H 0.60967 0.74349 0.29824
 C449 C 0.59165 0.14871 0.81444
 C450 C 0.61982 0.16709 0.82727
 C451 C 0.61855 0.20194 0.82623
 C452 C 0.59179 0.21847 0.81077
 C453 C 0.56488 0.20095 0.79597
 C454 C 0.56403 0.16575 0.79856
 C455 C 0.58939 0.11396 0.81843
 C456 C 0.56143 0.09622 0.80626
 C457 C 0.53472 0.11273 0.79063
 C458 C 0.53567 0.14715 0.78712
 H459 H 0.60835 0.10019 0.83196
 H460 H 0.56018 0.06956 0.80958
 H461 H 0.51278 0.09886 0.78178
 H462 H 0.51352 0.15885 0.77623
 H463 H 0.63932 0.21662 0.83633
 H464 H 0.59266 0.24535 0.80955
 C465 C 1.14123 0.68787 0.79786
 C466 C 1.13536 0.66984 0.82751
 C467 C 1.10205 0.66689 0.83985
 C468 C 1.07458 0.68126 0.82320
 C469 C 1.07976 0.69874 0.79367
 C470 C 1.11311 0.70210 0.78059
 C471 C 1.17454 0.69326 0.78569
 C472 C 1.17996 0.71159 0.75684
 C473 C 1.15238 0.72492 0.73959
 C474 C 1.11924 0.72031 0.75127
 H475 H 1.19665 0.68402 0.79857
 H476 H 1.20571 0.71567 0.74800
 H477 H 1.15659 0.73923 0.71727
 H478 H 1.09860 0.73141 0.73732
 H479 H 1.09751 0.65353 0.86273
 H480 H 1.04912 0.67887 0.83349
 C481 C 1.08685 0.17790 0.34547
 C482 C 1.11750 0.16947 0.32863
 C483 C 1.12162 0.17912 0.29546
 C484 C 1.09636 0.19708 0.27903
 C485 C 1.06633 0.20644 0.29536
 C486 C 1.06115 0.19665 0.32879
 C487 C 1.08049 0.16673 0.37807
 C488 C 1.05007 0.17454 0.39421
 C489 C 1.02513 0.19307 0.37808
 C490 C 1.03035 0.20382 0.34564
 H491 H 1.09839 0.15118 0.39115
 H492 H 1.04564 0.16576 0.41921
 H493 H 1.00136 0.19871 0.39059
 H494 H 1.00974 0.21722 0.33390
 H495 H 1.14480 0.17281 0.28225
 H496 H 1.10052 0.20420 0.25344
 C497 C 0.59054 0.32669 0.64844
 C498 C 0.61908 0.33845 0.66691
 C499 C 0.61814 0.33643 0.70164
 C500 C 0.59172 0.31992 0.71782
 C501 C 0.56482 0.30541 0.69997
 C502 C 0.56317 0.31010 0.66505
 C503 C 0.58779 0.33246 0.61403
 C504 C 0.55945 0.32144 0.59615
 C505 C 0.53281 0.30528 0.61226
 C506 C 0.53431 0.29999 0.64638
 H507 H 0.60666 0.34668 0.60076
 H508 H 0.55778 0.32617 0.56977
 H509 H 0.51051 0.29742 0.59836
 H510 H 0.51212 0.28890 0.65782
 H511 H 0.63921 0.34598 0.71629
 H512 H 0.59301 0.31739 0.74455
 C513 C 0.60058 0.82781 0.14870
 C514 C 0.62972 0.83639 0.16789
 C515 C 0.62806 0.83362 0.20254
 C516 C 0.60016 0.81871 0.21781
 C517 C 0.57292 0.80628 0.19897
 C518 C 0.57207 0.81222 0.16430
 C519 C 0.59881 0.83512 0.11454
 C520 C 0.57016 0.82626 0.09590
 C521 C 0.54250 0.81062 0.11099
 C522 C 0.54319 0.80388 0.14490
 H523 H 0.61895 0.84864 0.10217
 H524 H 0.56918 0.83204 0.06970
 H525 H 0.52014 0.80422 0.09646
 H526 H 0.52057 0.79294 0.15578
 H527 H 0.64979 0.84060 0.21770
 H528 H 0.60088 0.81500 0.24442
 C529 C 1.09084 0.33059 0.14640
 C530 C 1.11925 0.34207 0.16523
 C531 C 1.11777 0.34009 0.19997
 C532 C 1.09092 0.32400 0.21581
 C533 C 1.06421 0.30968 0.19760
 C534 C 1.06317 0.31414 0.16266
 C535 C 1.08855 0.33640 0.11197
 C536 C 1.06045 0.32536 0.09373
 C537 C 1.03364 0.30909 0.10949
 C538 C 1.03465 0.30385 0.14363
 H539 H 1.10760 0.35063 0.09897
 H540 H 1.05915 0.33007 0.06733
 H541 H 1.01158 0.30112 0.09529
 H542 H 1.01241 0.29260 0.15485
 H543 H 1.13869 0.34938 0.21497
 H544 H 1.09179 0.32150 0.24255
 C545 C 1.09806 0.81388 0.64685
 C546 C 1.12664 0.82562 0.66543
 C547 C 1.12592 0.82280 0.70011
 C548 C 1.09898 0.80713 0.71625
 C549 C 1.07138 0.79389 0.69844
 C550 C 1.07031 0.79781 0.66347
 C551 C 1.09537 0.81952 0.61242
 C552 C 1.06699 0.80859 0.59452
 C553 C 1.04022 0.79264 0.61061
 C554 C 1.04151 0.78765 0.64476
 H555 H 1.11428 0.83347 0.59905
 H556 H 1.06545 0.81316 0.56811
 H557 H 1.01795 0.78477 0.59667
 H558 H 1.01927 0.77666 0.65623
 H559 H 1.14695 0.83230 0.71484
 H560 H 1.10013 0.80464 0.74299
 C561 C 0.37352 0.70842 0.67075
 C562 C 0.37355 0.67305 0.66859
 C563 C 0.40055 0.65525 0.68293
 C564 C 0.42781 0.67140 0.69805
 C565 C 0.42886 0.70603 0.70002
 C566 C 0.40099 0.72492 0.68739
 C567 C 0.34623 0.72782 0.65826
 C568 C 0.34555 0.76212 0.66251
 C569 C 0.37162 0.77796 0.67974
 C570 C 0.39890 0.75970 0.69231
 H571 H 0.32432 0.71705 0.64619
 H572 H 0.32421 0.77638 0.65307
 H573 H 0.37050 0.80452 0.68378
 H574 H 0.41750 0.77326 0.70671
 H575 H 0.40096 0.62840 0.68157
 H576 H 0.44851 0.65661 0.70810
 C577 C 0.36004 0.19926 0.18896
 C578 C 0.36707 0.17469 0.16484
 C579 C 0.40106 0.16688 0.15726
 C580 C 0.42807 0.18323 0.17303
 C581 C 0.42173 0.20696 0.19764
 C582 C 0.38753 0.21464 0.20630
 C583 C 0.32614 0.20778 0.19724
 C584 C 0.31943 0.23027 0.22270
 C585 C 0.34626 0.24440 0.24048
 C586 C 0.37999 0.23670 0.23242
 H587 H 0.30461 0.19696 0.18444
 H588 H 0.29328 0.23642 0.22895
 H589 H 0.34093 0.26136 0.26063
 H590 H 0.40007 0.24772 0.24707
 H591 H 0.40654 0.14785 0.13905
 H592 H 0.45411 0.17688 0.16648
 C593 C -0.09935 0.64715 0.18466
 C594 C -0.12335 0.66869 0.16932
 C595 C -0.11590 0.70278 0.16811
 C596 C -0.08776 0.71591 0.18451
 C597 C -0.06610 0.69581 0.20355
 C598 C -0.07165 0.66072 0.20356
 C599 C -0.10211 0.61236 0.18126
 C600 C -0.08039 0.59119 0.19854
 C601 C -0.05505 0.60421 0.21893
 C602 C -0.05032 0.63848 0.22114
 H603 H -0.12049 0.60119 0.16464
 H604 H -0.08316 0.56455 0.19602
 H605 H -0.03839 0.58763 0.23254
 H606 H -0.02964 0.64669 0.23667
 H607 H -0.13296 0.71996 0.15590
 H608 H -0.08398 0.74258 0.18365
 C609 C -0.09413 0.15703 0.66506
 C610 C -0.12793 0.16961 0.66434
 C611 C -0.13500 0.20020 0.67942
 C612 C -0.10953 0.21772 0.69621
 C613 C -0.07641 0.20488 0.69876
 C614 C -0.06827 0.17454 0.68281
 C615 C -0.08540 0.12769 0.64797
 C616 C -0.05206 0.11547 0.64891
 C617 C -0.02687 0.13226 0.66672
 C618 C -0.03478 0.16151 0.68354
 H619 H -0.10399 0.11431 0.63330
 H620 H -0.04571 0.09295 0.63563
 H621 H -0.00101 0.12272 0.66730
 H622 H -0.01439 0.17391 0.69676
 H623 H -0.16074 0.21005 0.67888
 H624 H -0.11591 0.24106 0.70805
 C625 C 0.34331 0.40180 0.32926
 C626 C 0.32229 0.37371 0.33533
 C627 C 0.28676 0.37674 0.33173
 C628 C 0.27244 0.40522 0.31813
 C629 C 0.29316 0.43172 0.30797
 C630 C 0.32870 0.43096 0.31510
 C631 C 0.37831 0.40182 0.33770
 C632 C 0.39877 0.42948 0.33131
 C633 C 0.38465 0.45781 0.31708
 C634 C 0.34991 0.45879 0.30931
 H635 H 0.38994 0.38102 0.35026
 H636 H 0.42560 0.42912 0.33793
 H637 H 0.40057 0.47937 0.31261
 H638 H 0.33982 0.48182 0.29962
 H639 H 0.27025 0.35575 0.33690
 H640 H 0.24515 0.40563 0.31348
 C641 C 0.32136 -0.10013 0.84055
 C642 C 0.32787 -0.12846 0.82062
 C643 C 0.32236 -0.12654 0.78631
 C644 C 0.30751 -0.09860 0.77214
 C645 C 0.29774 -0.07155 0.79175
 C646 C 0.30564 -0.07165 0.82610
 C647 C 0.33122 -0.09896 0.87420
 C648 C 0.32445 -0.07103 0.89354
 C649 C 0.30850 -0.04351 0.87960
 C650 C 0.29949 -0.04362 0.84614
 H651 H 0.34526 -0.11896 0.88562
 H652 H 0.33215 -0.07053 0.91933
 H653 H 0.30374 -0.02172 0.89461
 H654 H 0.28854 -0.02135 0.83592
 H655 H 0.32775 -0.14774 0.77064
 H656 H 0.30222 -0.09872 0.74575
 C657 C 0.84242 0.41004 0.83146
 C658 C 0.82495 0.37923 0.83361
 C659 C 0.79173 0.37655 0.82075
 C660 C 0.77643 0.40317 0.80443
 C661 C 0.79410 0.43310 0.80003
 C662 C 0.82711 0.43705 0.81413
 C663 C 0.87455 0.41474 0.84669
 C664 C 0.89165 0.44506 0.84420
 C665 C 0.87697 0.47130 0.82684
 C666 C 0.84496 0.46751 0.81202
 H667 H 0.88643 0.39535 0.86116
 H668 H 0.91631 0.44829 0.85602
 H669 H 0.89028 0.49485 0.82515
 H670 H 0.83423 0.48875 0.79938
 H671 H 0.77806 0.35319 0.82234
 H672 H 0.75114 0.39990 0.79389
 C673 C 0.85894 -0.09028 0.31864
 C674 C 0.84064 -0.11978 0.32654
 C675 C 0.80587 -0.12197 0.31838
 C676 C 0.78915 -0.09590 0.30262
 C677 C 0.80659 -0.06666 0.29432
 C678 C 0.84173 -0.06341 0.30267
 C679 C 0.89356 -0.08625 0.32776
 C680 C 0.91098 -0.05680 0.32102
 C681 C 0.89418 -0.03054 0.30570
 C682 C 0.85985 -0.03356 0.29687
 H683 H 0.90737 -0.10530 0.34085
 H684 H 0.93751 -0.05413 0.32824
 H685 H 0.90769 -0.00751 0.30108
 H686 H 0.84771 -0.01196 0.28623
 H687 H 0.79156 -0.14427 0.32418
 H688 H 0.76236 -0.09883 0.29634
 C689 C 0.30524 0.63387 0.69476
 C690 C 0.33052 0.62761 0.67043
 C691 C 0.33876 0.59480 0.66219
 C692 C 0.32268 0.56821 0.67794
 C693 C 0.29703 0.57385 0.70140
 C694 C 0.28765 0.60680 0.70960
 C695 C 0.29638 0.66650 0.70404
 C696 C 0.27055 0.67241 0.72704
 C697 C 0.25266 0.64595 0.74082
 C698 C 0.26097 0.61345 0.73213
 H699 H 0.30914 0.68769 0.69373
 H700 H 0.26425 0.69764 0.73394
 H701 H 0.23230 0.65056 0.75833
 H702 H 0.24623 0.59366 0.74304
 H703 H 0.35794 0.58992 0.64348
 H704 H 0.32988 0.54307 0.67141
 C705 C 0.32046 1.09597 0.14470
 C706 C 0.33217 1.12305 0.16423
 C707 C 0.33152 1.11998 0.19889
 C708 C 0.31571 1.09316 0.21405
 C709 C 0.29969 1.06830 0.19532
 C710 C 0.30297 1.06888 0.16014
 C711 C 0.32593 1.09525 0.11016
 C712 C 0.31304 1.06938 0.09086
 C713 C 0.29496 1.04356 0.10561
 C714 C 0.29010 1.04307 0.13986
 H715 H 0.34087 1.11422 0.09791
 H716 H 0.31735 1.06923 0.06435
 H717 H 0.28520 1.02342 0.09050
 H718 H 0.27697 1.02180 0.14995
 H719 H 0.34104 1.13963 0.21468
 H720 H 0.31430 1.09295 0.24089
 C721 C 0.82051 0.63135 0.21167
 C722 C 0.82388 0.63195 0.17643
 C723 C 0.80907 0.60624 0.15774
 C724 C 0.79291 0.57953 0.17289
 C725 C 0.79065 0.57755 0.20739
 C726 C 0.80338 0.60408 0.22714
 C727 C 0.83272 0.65750 0.23197
 C728 C 0.82822 0.65694 0.26622
 C729 C 0.81094 0.63076 0.28109
 C730 C 0.79835 0.60473 0.26187
 H731 H 0.84513 0.67916 0.22199
 H732 H 0.83766 0.67729 0.28124
 H733 H 0.80688 0.63082 0.30764
 H734 H 0.78402 0.58570 0.27461
 H735 H 0.81120 0.60612 0.13100
 H736 H 0.78279 0.55975 0.15748
 C737 C 0.82553 1.09082 0.64679
 C738 C 0.83564 1.11916 0.66542
 C739 C 0.83448 1.11763 0.70018
 C740 C 0.82051 1.09040 0.71634
 C741 C 0.80717 1.06357 0.69844
 C742 C 0.81087 1.06289 0.66342
 C743 C 0.82997 1.08947 0.61212
 C744 C 0.81965 1.06163 0.59410
 C745 C 0.80529 1.03444 0.61026
 C746 C 0.80113 1.03484 0.64460
 H747 H 0.84214 1.10946 0.59870
 H748 H 0.82325 1.06096 0.56750
 H749 H 0.79778 1.01272 0.59616
 H750 H 0.79102 1.01269 0.65617
 H751 H 0.84229 1.13876 0.71500
 H752 H 0.81826 1.09126 0.74311
 C753 C 0.67732 0.59445 0.35492
 C754 C 0.66739 0.62291 0.33645
 C755 C 0.67407 0.62390 0.30233
 C756 C 0.68995 0.59758 0.28643
 C757 C 0.70066 0.56953 0.30409
 C758 C 0.69492 0.56791 0.33881
 C759 C 0.66909 0.59125 0.38882
 C760 C 0.67930 0.56346 0.40686
 C761 C 0.69747 0.53814 0.39148
 C762 C 0.70507 0.54011 0.35778
 H763 H 0.65412 0.60970 0.40161
 H764 H 0.67285 0.56145 0.43288
 H765 H 0.70520 0.51655 0.40559
 H766 H 0.71845 0.51938 0.34691
 H767 H 0.66700 0.64542 0.28778
 H768 H 0.69441 0.59937 0.25996
 C769 C 0.68519 1.13214 0.79328
 C770 C 0.66894 1.12605 0.82412
 C771 C 0.67429 1.09559 0.84014
 C772 C 0.69282 1.07031 0.82504
 C773 C 0.70736 1.07505 0.79376
 C774 C 0.70456 1.10638 0.77798
 C775 C 0.68423 1.16372 0.77815
 C776 C 0.70185 1.16983 0.74880
 C777 C 0.72084 1.14475 0.73401
 C778 C 0.72203 1.11318 0.74813
 H779 H 0.67110 1.18435 0.78928
 H780 H 0.70131 1.19435 0.73780
 H781 H 0.73526 1.15008 0.71187
 H782 H 0.73760 1.09458 0.73607
 H783 H 0.66321 1.09122 0.86436
 H784 H 0.69534 1.04665 0.83760
 C785 C 0.21774 0.62617 0.83095
 C786 C 0.18139 0.62754 0.83322
 C787 C 0.16201 0.60092 0.82098
 C788 C 0.17741 0.57355 0.80647
 C789 C 0.21296 0.57150 0.80348
 C790 C 0.23369 0.59785 0.81611
 C791 C 0.23861 0.65306 0.84113
 C792 C 0.27397 0.65202 0.83765
 C793 C 0.28947 0.62453 0.82349
 C794 C 0.26973 0.59787 0.81257
 H795 H 0.22821 0.67581 0.85069
 H796 H 0.28940 0.67300 0.84541
 H797 H 0.31695 0.62412 0.82031
 H798 H 0.28339 0.57810 0.80051
 H799 H 0.13438 0.60147 0.82261
 H800 H 0.16121 0.55385 0.79695
 C801 C 0.14091 1.09762 0.31205
 C802 C 0.16046 1.12328 0.32719
 C803 C 0.19615 1.12258 0.32419
 C804 C 0.21246 1.09739 0.30672
 C805 C 0.19383 1.07253 0.29025
 C806 C 0.15738 1.07311 0.29199
 C807 C 0.10529 1.09524 0.31723
 C808 C 0.08572 1.07162 0.30060
 C809 C 0.10126 1.04939 0.27912
 C810 C 0.13666 1.04960 0.27525
 H811 H 0.09221 1.11105 0.33461
 H812 H 0.05836 1.07053 0.30446
 H813 H 0.08587 1.03133 0.26590
 H814 H 0.14690 1.03110 0.25887
 H815 H 0.21166 1.14186 0.33541
 H816 H 0.24014 1.09771 0.30558
 C817 C 0.65049 0.41157 0.66674
 C818 C 0.66682 0.38025 0.66450
 C819 C 0.70051 0.37693 0.67598
 C820 C 0.71758 0.40351 0.69064
 C821 C 0.70141 0.43423 0.69465
 C822 C 0.66782 0.43874 0.68212
 C823 C 0.61764 0.41671 0.65325
 C824 C 0.60188 0.44767 0.65539
 C825 C 0.61868 0.47416 0.67054
 C826 C 0.65141 0.46993 0.68362
 H827 H 0.60408 0.39716 0.64043
 H828 H 0.57665 0.45123 0.64492
 H829 H 0.60645 0.49823 0.67181
 H830 H 0.66385 0.49143 0.69429
 H831 H 0.71339 0.35321 0.67428
 H832 H 0.74326 0.39973 0.70002
 C833 C 0.71283 -0.13173 0.18298
 C834 C 0.68123 -0.12757 0.16619
 C835 C 0.66677 -0.09586 0.16390
 C836 C 0.68290 -0.06843 0.17807
 C837 C 0.71429 -0.07187 0.19436
 C838 C 0.72983 -0.10355 0.19661
 C839 C 0.72711 -0.16347 0.18794
 C840 C 0.75803 -0.16729 0.20479
 C841 C 0.77511 -0.13968 0.21734
 C842 C 0.76117 -0.10809 0.21349
 H843 H 0.71429 -0.18560 0.17957
 H844 H 0.76866 -0.19181 0.20838
 H845 H 0.79904 -0.14278 0.23051
 H846 H 0.77505 -0.08742 0.22406
 H847 H 0.64240 -0.09260 0.15153
 H848 H 0.67056 -0.04439 0.17675
 C849 C 0.15251 0.41416 0.16756
 C850 C 0.16795 0.38252 0.16470
 C851 C 0.20068 0.37743 0.17799
 C852 C 0.21747 0.40254 0.19524
 C853 C 0.20191 0.43341 0.20000
 C854 C 0.16952 0.43983 0.18550
 C855 C 0.12084 0.42102 0.15230
 C856 C 0.10606 0.45241 0.15490
 C857 C 0.12260 0.47753 0.17248
 C858 C 0.15406 0.47144 0.18763
 H859 H 0.10759 0.40248 0.13776
 H860 H 0.08179 0.45737 0.14297
 H861 H 0.11115 0.50193 0.17415
 H862 H 0.16628 0.49185 0.20045
 H863 H 0.21290 0.35343 0.17585
 H864 H 0.24238 0.39750 0.20589
 C865 C 0.14796 -0.10044 0.67343
 C866 C 0.16931 -0.12746 0.66424
 C867 C 0.20448 -0.12535 0.67085
 C868 C 0.21841 -0.09791 0.68689
 C869 C 0.19762 -0.07204 0.69824
 C870 C 0.16186 -0.07331 0.69196
 C871 C 0.11324 -0.09937 0.66393
 C872 C 0.09200 -0.07378 0.67459
 C873 C 0.10500 -0.04846 0.69439
 C874 C 0.13959 -0.04791 0.70274
 H875 H 0.10229 -0.11774 0.64758
 H876 H 0.06535 -0.07351 0.66730
 H877 H 0.08838 -0.02865 0.70263
 H878 H 0.14843 -0.02715 0.71734
 H879 H 0.22138 -0.14551 0.66413
 H880 H 0.24571 -0.09747 0.69157
 C881 C 0.30639 0.29061 0.36382
 C882 C 0.32208 0.32201 0.36894
 C883 C 0.32316 0.33555 0.40092
 C884 C 0.30913 0.31860 0.42773
 C885 C 0.29416 0.28732 0.42345
 C886 C 0.29280 0.27288 0.39139
 C887 C 0.30261 0.27703 0.33175
 C888 C 0.28691 0.24627 0.32703
 C889 C 0.27423 0.22864 0.35402
 C890 C 0.27694 0.24178 0.38591
 H891 H 0.31103 0.29018 0.31000
 H892 H 0.28430 0.23619 0.30225
 H893 H 0.26187 0.20485 0.35021
 H894 H 0.26626 0.22747 0.40605
 H895 H 0.33481 0.35965 0.40497
 H896 H 0.30981 0.33005 0.45206
 C897 C 0.28460 0.82328 -0.13452
 C898 C 0.32083 0.82562 -0.13691
 C899 C 0.34096 0.81396 -0.11060
 C900 C 0.32619 0.80147 -0.08186
 C901 C 0.29063 0.80011 -0.07817
 C902 C 0.26934 0.81082 -0.10482
 C903 C 0.26318 0.83128 -0.16163
 C904 C 0.22779 0.82851 -0.15932
 C905 C 0.21290 0.81704 -0.13031
 C906 C 0.23329 0.80796 -0.10347
 H907 H 0.27326 0.83841 -0.18538
 H908 H 0.21188 0.83473 -0.18041
 H909 H 0.18538 0.81450 -0.12879
 H910 H 0.22011 0.79816 -0.08223
 H911 H 0.36857 0.81526 -0.11209
 H912 H 0.34282 0.79297 -0.06209
 C913 C 0.81717 0.29594 -0.13164
 C914 C 0.82323 0.33059 -0.12824
 C915 C 0.81240 0.34671 -0.09929
 C916 C 0.79746 0.32909 -0.07334
 C917 C 0.79369 0.29454 -0.07501
 C918 C 0.80381 0.27753 -0.10432
 C919 C 0.82260 0.27939 -0.16204
 C920 C 0.81792 0.24520 -0.16480
 C921 C 0.80695 0.22690 -0.13762
 C922 C 0.79958 0.24281 -0.10779
 H923 H 0.82920 0.29264 -0.18431
 H924 H 0.82244 0.23290 -0.18826
 H925 H 0.80326 0.20034 -0.13989
 H926 H 0.79005 0.22750 -0.08793
 H927 H 0.81628 0.37322 -0.09656
 H928 H 0.78938 0.34249 -0.05142
 C929 C 0.82970 0.85664 0.40056
 C930 C 0.83870 0.83797 0.37199
 C931 C 0.83059 0.80403 0.37082
 C932 C 0.81352 0.78862 0.39688
 C933 C 0.80343 0.80666 0.42487
 C934 C 0.81170 0.84096 0.42702
 C935 C 0.83950 0.89023 0.40405
 C936 C 0.83088 0.90827 0.43230
 C937 C 0.81296 0.89312 0.45790
 C938 C 0.80372 0.85976 0.45550
 H939 H 0.85466 0.90273 0.38560
 H940 H 0.83858 0.93402 0.43454
 H941 H 0.80665 0.90715 0.47993
 H942 H 0.79088 0.84880 0.47637
 H943 H 0.83728 0.78937 0.34928
 H944 H 0.80748 0.76240 0.39487
 C945 C 0.67894 0.29962 0.63123
 C946 C 0.66707 0.33245 0.62572
 C947 C 0.67323 0.34763 0.59504
 C948 C 0.68839 0.33016 0.56918
 C949 C 0.69819 0.29701 0.57328
 C950 C 0.69414 0.28158 0.60464
 C951 C 0.67786 0.28496 0.66298
 C952 C 0.69017 0.25293 0.66822
 C953 C 0.70435 0.23511 0.64215
 C954 C 0.70652 0.24923 0.61066
 H955 H 0.66889 0.29836 0.68434
 H956 H 0.68926 0.24212 0.69278
 H957 H 0.71440 0.21054 0.64662
 H958 H 0.71865 0.23495 0.59135
 H959 H 0.66537 0.37309 0.59097
 H960 H 0.69229 0.34255 0.54563
 C961 C 0.67672 0.79021 1.12501
 C962 C 0.67630 0.82561 1.12553
 C963 C 0.68962 0.84304 1.09838
 C964 C 0.70247 0.82651 1.07083
 C965 C 0.70223 0.79180 1.06907
 C966 C 0.68915 0.77315 1.09636
 C967 C 0.66717 0.77132 1.15308
 C968 C 0.66802 0.73679 1.15264
 C969 C 0.67928 0.72016 1.12463
 C970 C 0.69015 0.73793 1.09699
 H971 H 0.66042 0.78264 1.17629
 H972 H 0.66062 0.72288 1.17445
 H973 H 0.68053 0.69330 1.12464
 H974 H 0.70035 0.72332 1.07700
 H975 H 0.68969 0.86994 1.09840
 H976 H 0.71277 0.84108 1.05057
 C977 C 0.18019 0.30333 1.13055
 C978 C 0.16782 0.33591 1.12468
 C979 C 0.17399 0.35096 1.09393
 C980 C 0.18919 0.33335 1.06817
 C981 C 0.19926 0.30033 1.07260
 C982 C 0.19576 0.28531 1.10419
 C983 C 0.17913 0.28894 1.16242
 C984 C 0.19241 0.25736 1.16810
 C985 C 0.20731 0.23968 1.14232
 C986 C 0.20899 0.25337 1.11061
 H987 H 0.16946 0.30227 1.18354
 H988 H 0.19171 0.24682 1.19279
 H989 H 0.21824 0.21556 1.14716
 H990 H 0.22156 0.23921 1.09148
 H991 H 0.16589 0.37631 1.08966
 H992 H 0.19265 0.34543 1.04439
 C993 C 0.19247 0.79487 0.63040
 C994 C 0.17539 0.82543 0.62461
 C995 C 0.17927 0.84114 0.59380
 C996 C 0.19653 0.82566 0.56788
 C997 C 0.21103 0.79425 0.57222
 C998 C 0.20994 0.77893 0.60381
 C999 C 0.19440 0.78077 0.66236
 C1000 C 0.21222 0.75126 0.66780
 C1001 C 0.22829 0.73516 0.64162
 C1002 C 0.22727 0.74882 0.60990
 H1003 H 0.18352 0.79297 0.68364
 H1004 H 0.21405 0.74106 0.69253
 H1005 H 0.24220 0.71235 0.64605
 H1006 H 0.24092 0.73613 0.59042
 H1007 H 0.16782 0.86526 0.58962
 H1008 H 0.19816 0.83809 0.54411
 C1009 C 0.35604 0.67389 0.59383
 C1010 C 0.33416 0.66233 0.61947
 C1011 C 0.29872 0.66238 0.61401
 C1012 C 0.28480 0.67751 0.58624
 C1013 C 0.30568 0.69359 0.56311
 C1014 C 0.34171 0.69028 0.56568
 C1015 C 0.39169 0.66886 0.59514
 C1016 C 0.41293 0.68095 0.57016
 C1017 C 0.39904 0.69751 0.54303
 C1018 C 0.36377 0.70185 0.54050
 H1019 H 0.40338 0.65458 0.61475
 H1020 H 0.44025 0.67694 0.57157
 H1021 H 0.41563 0.70639 0.52347
 H1022 H 0.35409 0.71341 0.51820
 H1023 H 0.28132 0.65290 0.63255
 H1024 H 0.25720 0.67853 0.58408
 C1025 C 0.28382 0.16640 1.12037
 C1026 C 0.32004 0.16994 1.12316
 C1027 C 0.33762 0.18689 1.09812
 C1028 C 0.32061 0.20035 1.07108
 C1029 C 0.28522 0.19653 1.06692
 C1030 C 0.26659 0.17772 1.09108
 C1031 C 0.26405 0.15274 1.14638
 C1032 C 0.22941 0.14616 1.14233
 C1033 C 0.21323 0.15432 1.11287
 C1034 C 0.23120 0.17046 1.08781
 H1035 H 0.27463 0.14751 1.17045
 H1036 H 0.21496 0.13500 1.16233
 H1037 H 0.18624 0.14911 1.10981
 H1038 H 0.21632 0.17665 1.06635
 H1039 H 0.36511 0.18977 1.09946
 H1040 H 0.33554 0.21404 1.05304
 C1041 C 0.80427 0.70016 1.13475
 C1042 C 0.82689 0.67309 1.13067
 C1043 C 0.83526 0.66230 1.09866
 C1044 C 0.82071 0.67729 1.07081
 C1045 C 0.79891 0.70459 1.07433
 C1046 C 0.79161 0.71703 1.10637
 C1047 C 0.79481 0.71148 1.16650
 C1048 C 0.77465 0.73972 1.17028
 C1049 C 0.76398 0.75738 1.14253
 C1050 C 0.77226 0.74618 1.11087
 H1051 H 0.80299 0.69886 1.18858
 H1052 H 0.76770 0.74814 1.19484
 H1053 H 0.74910 0.77976 1.14545
 H1054 H 0.76376 0.76072 1.09004
 H1055 H 0.85280 0.64178 1.09540
 H1056 H 0.82685 0.66788 1.04636
 C1057 C 0.78756 0.16236 0.62094
 C1058 C 0.82381 0.16594 0.62384
 C1059 C 0.84117 0.18412 0.59945
 C1060 C 0.82395 0.19911 0.57335
 C1061 C 0.78860 0.19532 0.56919
 C1062 C 0.77022 0.17504 0.59226
 C1063 C 0.76778 0.14734 0.64613
 C1064 C 0.73338 0.13996 0.64127
 C1065 C 0.71721 0.14948 0.61226
 C1066 C 0.73494 0.16757 0.58845
 H1067 H 0.77809 0.14167 0.67015
 H1068 H 0.71900 0.12710 0.66024
 H1069 H 0.69036 0.14389 0.60869
 H1070 H 0.71993 0.17508 0.56750
 H1071 H 0.86868 0.18696 0.60072
 H1072 H 0.83869 0.21375 0.55592
 C1073 C 0.64956 0.67924 0.40709
 C1074 C 0.66767 0.66861 0.37855
 C1075 C 0.70256 0.67605 0.37567
 C1076 C 0.71937 0.69440 0.39996
 C1077 C 0.70180 0.70618 0.42777
 C1078 C 0.66672 0.69818 0.43193
 C1079 C 0.61502 0.67037 0.41202
 C1080 C 0.59759 0.68034 0.44044
 C1081 C 0.61431 0.69880 0.46473
 C1082 C 0.64859 0.70746 0.46077
 H1083 H 0.60136 0.65505 0.39448
 H1084 H 0.57110 0.67330 0.44385
 H1085 H 0.60078 0.70607 0.48697
 H1086 H 0.66070 0.72090 0.48081
 H1087 H 0.71672 0.66815 0.35401
 H1088 H 0.74626 0.70006 0.39667
 C1089 C 0.65063 0.16429 -0.09808
 C1090 C 0.66596 0.16581 -0.12977
 C1091 C 0.69748 0.18191 -0.13360
 C1092 C 0.71334 0.19732 -0.10687
 C1093 C 0.69840 0.19687 -0.07544
 C1094 C 0.66716 0.17970 -0.07058
 C1095 C 0.61967 0.14709 -0.09302
 C1096 C 0.60530 0.14506 -0.06143
 C1097 C 0.62169 0.15973 -0.03443
 C1098 C 0.65244 0.17676 -0.03885
 H1099 H 0.60660 0.13477 -0.11322
 H1100 H 0.58154 0.13171 -0.05783
 H1101 H 0.61069 0.15761 -0.00991
 H1102 H 0.66500 0.18698 -0.01729
 H1103 H 0.70951 0.18320 -0.15771
 H1104 H 0.73710 0.21035 -0.11099
 C1105 C 0.17982 0.65275 -0.09314
 C1106 C 0.17157 0.67128 -0.12204
 C1107 C 0.17381 0.70604 -0.12093
 C1108 C 0.18717 0.72220 -0.09346
 C1109 C 0.19916 0.70425 -0.06619
 C1110 C 0.19426 0.66936 -0.06513
 C1111 C 0.17308 0.61840 -0.09099
 C1112 C 0.18152 0.60058 -0.06248
 C1113 C 0.19616 0.61667 -0.03539
 C1114 C 0.20226 0.65078 -0.03646
 H1115 H 0.16020 0.60518 -0.11066
 H1116 H 0.17616 0.57422 -0.06121
 H1117 H 0.20223 0.60276 -0.01318
 H1118 H 0.21240 0.66248 -0.01438
 H1119 H 0.16708 0.72081 -0.14239
 H1120 H 0.18983 0.74891 -0.09436
 C1121 C 0.16815 0.14625 0.40244
 C1122 C 0.16116 0.16513 0.37347
 C1123 C 0.17023 0.19883 0.37274
 C1124 C 0.18621 0.21383 0.39969
 C1125 C 0.19412 0.19562 0.42824
 C1126 C 0.18483 0.16158 0.43002
 C1127 C 0.15771 0.11278 0.40510
 C1128 C 0.16413 0.09463 0.43387
 C1129 C 0.18049 0.10953 0.46071
 C1130 C 0.19054 0.14272 0.45903
 H1131 H 0.14386 0.10049 0.38540
 H1132 H 0.15595 0.06898 0.43552
 H1133 H 0.18500 0.09541 0.48313
 H1134 H 0.20216 0.15348 0.48089
 H1135 H 0.16521 0.21361 0.35084
 H1136 H 0.19327 0.23982 0.39791
 C1137 C 0.34221 0.40414 0.66574
 C1138 C 0.32108 0.37635 0.65873
 C1139 C 0.28557 0.37936 0.66248
 C1140 C 0.27147 0.40730 0.67744
 C1141 C 0.29245 0.43315 0.68878
 C1142 C 0.32788 0.43264 0.68133
 C1143 C 0.37710 0.40446 0.65702
 C1144 C 0.39773 0.43173 0.66453
 C1145 C 0.38389 0.45939 0.68024
 C1146 C 0.34925 0.46009 0.68835
 H1147 H 0.38847 0.38420 0.64342
 H1148 H 0.42447 0.43161 0.65767
 H1149 H 0.39994 0.48066 0.68563
 H1150 H 0.33934 0.48260 0.69933
 H1151 H 0.26896 0.35862 0.65658
 H1152 H 0.24424 0.40762 0.68232
 C1153 C 0.33896 0.91106 0.15935
 C1154 C 0.33322 0.87810 0.17004
 C1155 C 0.31262 0.87213 0.19780
 C1156 C 0.29653 0.89822 0.21416
 C1157 C 0.30122 0.93098 0.20357
 C1158 C 0.32327 0.93781 0.17660
 C1159 C 0.36047 0.91802 0.13221
 C1160 C 0.36666 0.95074 0.12250
 C1161 C 0.35184 0.97697 0.13978
 C1162 C 0.33039 0.97066 0.16667
 H1163 H 0.37287 0.89835 0.11857
 H1164 H 0.38333 0.95577 0.10169
 H1165 H 0.35713 1.00232 0.13242
 H1166 H 0.31994 0.99159 0.17997
 H1167 H 0.30834 0.84691 0.20619
 H1168 H 0.27983 0.89278 0.23490
 C1169 C 0.83885 0.40343 0.17081
 C1170 C 0.81730 0.37600 0.16324
 C1171 C 0.78186 0.37948 0.16707
 C1172 C 0.76806 0.40766 0.18177
 C1173 C 0.78922 0.43341 0.19306
 C1174 C 0.82478 0.43216 0.18635
 C1175 C 0.87383 0.40336 0.16242
 C1176 C 0.89481 0.43025 0.17040
 C1177 C 0.88125 0.45799 0.18618
 C1178 C 0.84653 0.45921 0.19383
 H1179 H 0.88507 0.38318 0.14864
 H1180 H 0.92163 0.42978 0.16381
 H1181 H 0.89760 0.47896 0.19192
 H1182 H 0.83687 0.48183 0.20479
 H1183 H 0.76491 0.35908 0.16090
 H1184 H 0.74076 0.40842 0.18622
 C1185 C 0.78702 0.86497 0.68430
 C1186 C 0.82306 0.86307 0.68010
 C1187 C 0.84376 0.88834 0.69330
 C1188 C 0.82953 0.91634 0.70802
 C1189 C 0.79407 0.91958 0.71098
 C1190 C 0.77256 0.89298 0.70078
 C1191 C 0.76512 0.83893 0.67418
 C1192 C 0.73034 0.83973 0.68131
 C1193 C 0.71639 0.86648 0.69822
 C1194 C 0.73715 0.89283 0.70798
 H1195 H 0.77457 0.81687 0.66219
 H1196 H 0.71433 0.81899 0.67459
 H1197 H 0.68943 0.86656 0.70428
 H1198 H 0.72521 0.91225 0.72230
 H1199 H 0.87128 0.88708 0.69067
 H1200 H 0.84637 0.93602 0.71645
 C1201 C 0.71804 0.63335 0.66932
 C1202 C 0.68191 0.63359 0.66453
 C1203 C 0.66314 0.60496 0.67247
 C1204 C 0.67882 0.57722 0.68616
 C1205 C 0.71427 0.57608 0.69075
 C1206 C 0.73454 0.60370 0.68054
 C1207 C 0.73814 0.66220 0.66469
 C1208 C 0.77364 0.66106 0.66694
 C1209 C 0.78988 0.63160 0.67526
 C1210 C 0.77068 0.60339 0.68269
 H1211 H 0.72698 0.68618 0.66024
 H1212 H 0.78859 0.68333 0.66278
 H1213 H 0.81748 0.63092 0.67727
 H1214 H 0.78483 0.58191 0.69065
 H1215 H 0.63570 0.60443 0.66882
 H1216 H 0.66297 0.55637 0.69346
 C1217 C 0.69699 0.13343 0.19282
 C1218 C 0.67020 0.12715 0.16996
 C1219 C 0.66122 0.09427 0.16250
 C1220 C 0.67805 0.06770 0.17764
 C1221 C 0.70536 0.07339 0.19941
 C1222 C 0.71556 0.10641 0.20656
 C1223 C 0.70634 0.16606 0.20169
 C1224 C 0.73376 0.17209 0.22295
 C1225 C 0.75290 0.14575 0.23517
 C1226 C 0.74402 0.11323 0.22701
 H1227 H 0.69264 0.18718 0.19257
 H1228 H 0.74024 0.19732 0.22970
 H1229 H 0.77460 0.15045 0.25116
 H1230 H 0.75971 0.09357 0.23669
 H1231 H 0.64091 0.08930 0.14489
 H1232 H 0.67014 0.04253 0.17188
 C1233 C 0.18197 0.59045 0.14537
 C1234 C 0.17275 0.62033 0.16181
 C1235 C 0.17953 0.62362 0.19577
 C1236 C 0.19496 0.59822 0.21347
 C1237 C 0.20505 0.56887 0.19785
 C1238 C 0.19837 0.56452 0.16353
 C1239 C 0.17390 0.58515 0.11167
 C1240 C 0.18221 0.55535 0.09605
 C1241 C 0.19825 0.53011 0.11372
 C1242 C 0.20615 0.53445 0.14716
 H1243 H 0.16049 0.60351 0.09722
 H1244 H 0.17577 0.55166 0.07019
 H1245 H 0.20425 0.50687 0.10155
 H1246 H 0.21772 0.51378 0.16005
 H1247 H 0.17266 0.64616 0.20881
 H1248 H 0.19930 0.60173 0.23966
 C1249 C 0.15213 0.09183 0.66237
 C1250 C 0.16478 0.12437 0.66737
 C1251 C 0.19429 0.12925 0.68649
 C1252 C 0.21064 0.10252 0.70160
 C1253 C 0.19829 0.07013 0.69747
 C1254 C 0.16943 0.06440 0.67700
 C1255 C 0.12318 0.08592 0.64236
 C1256 C 0.11190 0.05358 0.63635
 C1257 C 0.12939 0.02669 0.64988
 C1258 C 0.15794 0.03195 0.67002
 H1259 H 0.10936 0.10611 0.63091
 H1260 H 0.08976 0.04934 0.62074
 H1261 H 0.12095 0.00164 0.64450
 H1262 H 0.17145 0.01056 0.67943
 H1263 H 0.20424 0.15410 0.69018
 H1264 H 0.23298 0.10716 0.71688
 C1265 C 0.29423 0.63387 0.31627
 C1266 C 0.32886 0.63063 0.32637
 C1267 C 0.34502 0.59974 0.32358
 C1268 C 0.32770 0.57234 0.31085
 C1269 C 0.29325 0.57459 0.30174
 C1270 C 0.27585 0.60533 0.30526
 C1271 C 0.27783 0.66507 0.31544
 C1272 C 0.24353 0.66783 0.30657
 C1273 C 0.22502 0.63972 0.29769
 C1274 C 0.24099 0.60883 0.29666
 H1275 H 0.29131 0.68774 0.32070
 H1276 H 0.23131 0.69194 0.30637
 H1277 H 0.19833 0.64196 0.29091
 H1278 H 0.22562 0.58798 0.28897
 H1279 H 0.37150 0.59704 0.33098
 H1280 H 0.34135 0.54911 0.30802
 C1281 C 0.31091 0.10190 0.84688
 C1282 C 0.32388 0.12750 0.82615
 C1283 C 0.32436 0.12221 0.79174
 C1284 C 0.30964 0.09416 0.77771
 C1285 C 0.29312 0.07033 0.79728
 C1286 C 0.29396 0.07386 0.83246
 C1287 C 0.31508 0.10317 0.88162
 C1288 C 0.30063 0.07903 0.90198
 C1289 C 0.28233 0.05284 0.88816
 C1290 C 0.27926 0.04999 0.85383
 H1291 H 0.33039 0.12216 0.89337
 H1292 H 0.30383 0.08054 0.92861
 H1293 H 0.27100 0.03422 0.90412
 H1294 H 0.26548 0.02876 0.84468
 H1295 H 0.33465 0.14076 0.77514
 H1296 H 0.30968 0.09197 0.75092
 C1297 C 0.81716 0.62911 0.80640
 C1298 C 0.83672 0.61891 0.83433
 C1299 C 0.83424 0.58590 0.84515
 C1300 C 0.81632 0.56226 0.82675
 C1301 C 0.79858 0.57141 0.79806
 C1302 C 0.79731 0.60525 0.78872
 C1303 C 0.81483 0.66285 0.79716
 C1304 C 0.79303 0.67291 0.77172
 C1305 C 0.77292 0.64969 0.75521
 C1306 C 0.77519 0.61611 0.76334
 H1307 H 0.82834 0.68200 0.81038
 H1308 H 0.79104 0.69897 0.76540
 H1309 H 0.75512 0.65779 0.73635
 H1310 H 0.75859 0.59890 0.75051
 H1311 H 0.84681 0.57829 0.86785
 H1312 H 0.81608 0.53670 0.83512
 C1313 C 0.78416 0.13129 0.32461
 C1314 C 0.82042 0.13426 0.32692
 C1315 C 0.84086 0.10854 0.31457
 C1316 C 0.82651 0.08014 0.30073
 C1317 C 0.79102 0.07615 0.29861
 C1318 C 0.76932 0.10192 0.31062
 C1319 C 0.76228 0.15762 0.33392
 C1320 C 0.72697 0.15496 0.33069
 C1321 C 0.71252 0.12641 0.31745
 C1322 C 0.73328 0.10032 0.30720
 H1323 H 0.77187 0.18115 0.34248
 H1324 H 0.71074 0.17549 0.33787
 H1325 H 0.68507 0.12475 0.31439
 H1326 H 0.72037 0.07971 0.29563
 H1327 H 0.86845 0.11039 0.31601
 H1328 H 0.84344 0.06104 0.29138
 C1329 C 0.65901 0.40828 0.33934
 C1330 C 0.66653 0.37543 0.32938
 C1331 C 0.68811 0.36996 0.30225
 C1332 C 0.70311 0.39650 0.28558
 C1333 C 0.69610 0.42920 0.29505
 C1334 C 0.67338 0.43545 0.32159
 C1335 C 0.63698 0.41469 0.36620
 C1336 C 0.62888 0.44724 0.37507
 C1337 C 0.64236 0.47384 0.35725
 C1338 C 0.66439 0.46810 0.33070
 H1339 H 0.62573 0.39472 0.38035
 H1340 H 0.61184 0.45184 0.39567
 H1341 H 0.63564 0.49903 0.36398
 H1342 H 0.67394 0.48930 0.31710
 H1343 H 0.69371 0.34484 0.29436
 H1344 H 0.72040 0.39151 0.26521
 C1345 C 0.65419 0.90803 0.83176
 C1346 C 0.67232 0.87762 0.83440
 C1347 C 0.70578 0.87572 0.82223
 C1348 C 0.72102 0.90283 0.80687
 C1349 C 0.70319 0.93265 0.80273
 C1350 C 0.66961 0.93567 0.81539
 C1351 C 0.62141 0.91184 0.84572
 C1352 C 0.60385 0.94183 0.84287
 C1353 C 0.61871 0.96865 0.82648
 C1354 C 0.65138 0.96579 0.81299
 H1355 H 0.60933 0.89202 0.85944
 H1356 H 0.57867 0.94438 0.85368
 H1357 H 0.60502 0.99192 0.82456
 H1358 H 0.66234 0.98743 0.80112
 H1359 H 0.71992 0.85268 0.82393
 H1360 H 0.74674 0.90021 0.79723
 C1361 C 0.16819 0.41098 0.84360
 C1362 C 0.16574 0.37922 0.82858
 C1363 C 0.18004 0.37416 0.79712
 C1364 C 0.19718 0.39965 0.78080
 C1365 C 0.20094 0.43081 0.79565
 C1366 C 0.18633 0.43690 0.82717
 C1367 C 0.15228 0.41781 0.87421
 C1368 C 0.15501 0.44915 0.88874
 C1369 C 0.17324 0.47432 0.87297
 C1370 C 0.18867 0.46842 0.84238
 H1371 H 0.13719 0.39929 0.88690
 H1372 H 0.14271 0.45401 0.91228
 H1373 H 0.17514 0.49863 0.88432
 H1374 H 0.20213 0.48878 0.83069
 H1375 H 0.17835 0.35003 0.78536
 H1376 H 0.20811 0.39486 0.75659
 C1377 C 0.15024 0.90593 0.32484
 C1378 C 0.17084 0.87825 0.33331
 C1379 C 0.20546 0.87821 0.32436
 C1380 C 0.21966 0.90464 0.30696
 C1381 C 0.19970 0.93187 0.29749
 C1382 C 0.16470 0.93286 0.30661
 C1383 C 0.11586 0.90794 0.33521
 C1384 C 0.09593 0.93544 0.32720
 C1385 C 0.10994 0.96160 0.30922
 C1386 C 0.14403 0.96052 0.29919
 H1387 H 0.10425 0.88876 0.35019
 H1388 H 0.06960 0.93665 0.33533
 H1389 H 0.09438 0.98299 0.30345
 H1390 H 0.15418 0.98166 0.28613
 H1391 H 0.22154 0.85724 0.33054
 H1392 H 0.24648 0.90356 0.30031
 C1393 C 0.36380 0.33042 0.70625
 C1394 C 0.36330 0.33038 0.67091
 C1395 C 0.39109 0.31686 0.65377
 C1396 C 0.41919 0.30407 0.67053
 C1397 C 0.42085 0.30431 0.70523
 C1398 C 0.39298 0.31785 0.72359
 C1399 C 0.33503 0.34060 0.72483
 C1400 C 0.33537 0.34020 0.75931
 C1401 C 0.36391 0.32880 0.77620
 C1402 C 0.39221 0.31733 0.75875
 H1403 H 0.31134 0.34757 0.71328
 H1404 H 0.31302 0.34810 0.77299
 H1405 H 0.36379 0.32796 0.80303
 H1406 H 0.41253 0.30720 0.77358
 H1407 H 0.39111 0.31651 0.62691
 H1408 H 0.43992 0.29365 0.65610
 C1409 C 0.37020 0.79696 0.17740
 C1410 C 0.37388 0.83137 0.17060
 C1411 C 0.40347 0.84799 0.18116
 C1412 C 0.43012 0.83092 0.19625
 C1413 C 0.42816 0.79658 0.20115
 C1414 C 0.39790 0.77925 0.19209
 C1415 C 0.33917 0.78002 0.17139
 C1416 C 0.33600 0.74619 0.17802
 C1417 C 0.36335 0.72869 0.19139
 C1418 C 0.39391 0.74501 0.19865
 H1419 H 0.31671 0.79275 0.16263
 H1420 H 0.31203 0.73358 0.17319
 H1421 H 0.36067 0.70246 0.19676
 H1422 H 0.41403 0.73061 0.20991
 H1423 H 0.40626 0.87439 0.17677
 H1424 H 0.45283 0.84455 0.20359
 C1425 C 0.85993 0.32622 0.20783
 C1426 C 0.85902 0.32872 0.17259
 C1427 C 0.88654 0.31627 0.15418
 C1428 C 0.91525 0.30311 0.16968
 C1429 C 0.91741 0.30130 0.20428
 C1430 C 0.88911 0.31195 0.22374
 C1431 C 0.83179 0.33581 0.22760
 C1432 C 0.83218 0.33160 0.26185
 C1433 C 0.86020 0.31717 0.27723
 C1434 C 0.88822 0.30715 0.25853
 H1435 H 0.80853 0.34532 0.21705
 H1436 H 0.81022 0.33886 0.27645
 H1437 H 0.86000 0.31317 0.30378
 H1438 H 0.90838 0.29466 0.27180
 H1439 H 0.88615 0.31769 0.12737
 H1440 H 0.93621 0.29445 0.15442
 C1441 C 0.86281 0.79861 0.70646
 C1442 C 0.86758 0.81900 0.67812
 C1443 C 0.90038 0.82249 0.66462
 C1444 C 0.92849 0.80697 0.67922
 C1445 C 0.92447 0.78756 0.70772
 C1446 C 0.89151 0.78289 0.72140
 C1447 C 0.83006 0.79269 0.71977
 C1448 C 0.82565 0.77222 0.74733
 C1449 C 0.85374 0.75708 0.76208
 C1450 C 0.88638 0.76226 0.74927
 H1451 H 0.80756 0.80326 0.70888
 H1452 H 0.80028 0.76792 0.75714
 H1453 H 0.85018 0.74106 0.78335
 H1454 H 0.90747 0.74970 0.76108
 H1455 H 0.90415 0.83772 0.64280
 H1456 H 0.95360 0.81036 0.66840
 C1457 C 0.62965 0.29570 0.31721
 C1458 C 0.62537 0.32918 0.32743
 C1459 C 0.59551 0.34617 0.31834
 C1460 C 0.56910 0.33012 0.30165
 C1461 C 0.57173 0.29656 0.29325
 C1462 C 0.60245 0.27914 0.30026
 C1463 C 0.66085 0.27880 0.32191
 C1464 C 0.66493 0.24614 0.31113
 C1465 C 0.63827 0.22982 0.29505
 C1466 C 0.60738 0.24611 0.28942
 H1467 H 0.68276 0.29077 0.33291
 H1468 H 0.68909 0.23359 0.31485
 H1469 H 0.64174 0.20459 0.28639
 H1470 H 0.58784 0.23276 0.27592
 H1471 H 0.59234 0.37201 0.32506
 H1472 H 0.54611 0.34391 0.29572
 C1473 C 0.59904 0.82062 0.85151
 C1474 C 0.62636 0.83419 0.83265
 C1475 C 0.62431 0.83338 0.79794
 C1476 C 0.59785 0.81683 0.78193
 C1477 C 0.57201 0.80087 0.79994
 C1478 C 0.57166 0.80375 0.83507
 C1479 C 0.59749 0.82481 0.88621
 C1480 C 0.57036 0.81188 0.90449
 C1481 C 0.54380 0.79530 0.88856
 C1482 C 0.54409 0.79158 0.85419
 H1483 H 0.61638 0.83911 0.89948
 H1484 H 0.56959 0.81536 0.93110
 H1485 H 0.52246 0.78588 0.90283
 H1486 H 0.52201 0.77998 0.84298
 H1487 H 0.64450 0.84412 0.78303
 H1488 H 0.59825 0.81553 0.75509
 C1489 C 0.12913 0.29908 0.81764
 C1490 C 0.12421 0.33272 0.82704
 C1491 C 0.09404 0.34892 0.81769
 C1492 C 0.06784 0.33187 0.80163
 C1493 C 0.07102 0.29805 0.79427
 C1494 C 0.10205 0.28140 0.80172
 C1495 C 0.16090 0.28311 0.82204
 C1496 C 0.16552 0.25020 0.81234
 C1497 C 0.13879 0.23261 0.79779
 C1498 C 0.10741 0.24803 0.79225
 H1499 H 0.18285 0.29608 0.83172
 H1500 H 0.19016 0.23847 0.81565
 H1501 H 0.14260 0.20712 0.79010
 H1502 H 0.08781 0.23378 0.77983
 H1503 H 0.09050 0.37489 0.82378
 H1504 H 0.04457 0.34507 0.79541
 C1505 C 0.10449 0.81367 0.35486
 C1506 C 0.12943 0.83058 0.33554
 C1507 C 0.12814 0.82748 0.30091
 C1508 C 0.10307 0.80844 0.28547
 C1509 C 0.07915 0.79020 0.30388
 C1510 C 0.08062 0.79167 0.33924
 C1511 C 0.10221 0.81881 0.38943
 C1512 C 0.08021 0.79989 0.40883
 C1513 C 0.05923 0.77627 0.39413
 C1514 C 0.05866 0.77272 0.35976
 H1515 H 0.11683 0.83783 0.40183
 H1516 H 0.07935 0.80366 0.43540
 H1517 H 0.04236 0.76138 0.40937
 H1518 H 0.04075 0.75486 0.35020
 H1519 H 0.14684 0.83991 0.28550
 H1520 H 0.10280 0.80747 0.25861
 C1521 C 0.60149 0.67920 0.64963
 C1522 C 0.63145 0.67135 0.66794
 C1523 C 0.63110 0.67496 0.70256
 C1524 C 0.60347 0.68950 0.71858
 C1525 C 0.57517 0.70081 0.70059
 C1526 C 0.57332 0.69456 0.66599
 C1527 C 0.59849 0.67119 0.61570
 C1528 C 0.56907 0.67931 0.59792
 C1529 C 0.54183 0.69485 0.61369
 C1530 C 0.54366 0.70215 0.64745
 H1531 H 0.61822 0.65763 0.60285
 H1532 H 0.56719 0.67303 0.57187
 H1533 H 0.51888 0.70069 0.59983
 H1534 H 0.52132 0.71299 0.65887
 H1535 H 0.65350 0.66854 0.71701
 H1536 H 0.60495 0.69342 0.74514
 C1537 C 0.62808 0.20835 0.17110
 C1538 C 0.62763 0.17294 0.16925
 C1539 C 0.60069 0.15550 0.18422
 C1540 C 0.57368 0.17204 0.19922
 C1541 C 0.57284 0.20672 0.20047
 C1542 C 0.60094 0.22521 0.18771
 C1543 C 0.65538 0.22748 0.15813
 C1544 C 0.65642 0.26182 0.16198
 C1545 C 0.63073 0.27799 0.17928
 C1546 C 0.60344 0.26001 0.19230
 H1547 H 0.67699 0.21645 0.14591
 H1548 H 0.67776 0.27587 0.15217
 H1549 H 0.63214 0.30459 0.18301
 H1550 H 0.58508 0.27376 0.20673
 H1551 H 0.59996 0.12865 0.18316
 H1552 H 0.55284 0.15753 0.20943
 C1553 C 0.09733 0.64533 0.17124
 C1554 C 0.12705 0.66317 0.16182
 C1555 C 0.13015 0.69672 0.17065
 C1556 C 0.10494 0.71243 0.18915
 C1557 C 0.07585 0.69513 0.19976
 C1558 C 0.07152 0.66139 0.19031
 C1559 C 0.09225 0.61211 0.16114
 C1560 C 0.06271 0.59490 0.16995
 C1561 C 0.03745 0.61057 0.18840
 C1562 C 0.04159 0.64354 0.19825
 H1563 H 0.11054 0.59936 0.14572
 H1564 H 0.05918 0.56943 0.16200
 H1565 H 0.01435 0.59721 0.19472
 H1566 H 0.02093 0.65502 0.21152
 H1567 H 0.15277 0.71067 0.16385
 H1568 H 0.10851 0.73829 0.19582
 C1569 C 0.08974 0.17856 0.64834
 C1570 C 0.11734 0.16594 0.66757
 C1571 C 0.11523 0.16758 0.70227
 C1572 C 0.08852 0.18402 0.71781
 C1573 C 0.06274 0.19951 0.69936
 C1574 C 0.06231 0.19562 0.66434
 C1575 C 0.08802 0.17346 0.61375
 C1576 C 0.06062 0.18549 0.59521
 C1577 C 0.03403 0.20223 0.61073
 C1578 C 0.03458 0.20704 0.64494
 H1579 H 0.10697 0.15916 0.60074
 H1580 H 0.05970 0.18125 0.56871
 H1581 H 0.01252 0.21099 0.59626
 H1582 H 0.01255 0.21885 0.65588
 H1583 H 0.13549 0.15759 0.71759
 H1584 H 0.08877 0.18569 0.74461
 C1585 C 0.41034 0.67444 0.34269
 C1586 C 0.38068 0.66647 0.32398
 C1587 C 0.38177 0.66912 0.28933
 C1588 C 0.40967 0.68341 0.27360
 C1589 C 0.43723 0.69578 0.29201
 C1590 C 0.43875 0.68968 0.32661
 C1591 C 0.41283 0.66672 0.37671
 C1592 C 0.44212 0.67484 0.39476
 C1593 C 0.46968 0.69017 0.37919
 C1594 C 0.46825 0.69734 0.34539
 H1595 H 0.39283 0.65332 0.38940
 H1596 H 0.44367 0.66870 0.42085
 H1597 H 0.49254 0.69598 0.39324
 H1598 H 0.49079 0.70798 0.33408
 H1599 H 0.35970 0.66232 0.27453
 H1600 H 0.40872 0.68657 0.24699
 C1601 C 0.35621 0.20113 0.79813
 C1602 C 0.36156 0.17746 0.82355
 C1603 C 0.39503 0.16904 0.83270
 C1604 C 0.42310 0.18427 0.81759
 C1605 C 0.41835 0.20720 0.79191
 C1606 C 0.38476 0.21506 0.78134
 C1607 C 0.32297 0.21043 0.78829
 C1608 C 0.31789 0.23215 0.76185
 C1609 C 0.34577 0.24465 0.74453
 C1610 C 0.37888 0.23622 0.75410
 H1611 H 0.30071 0.20094 0.80067
 H1612 H 0.29220 0.23896 0.75452
 H1613 H 0.34180 0.26099 0.72363
 H1614 H 0.39975 0.24603 0.73976
 H1615 H 0.39929 0.15071 0.85191
 H1616 H 0.44868 0.17782 0.82566
 C1617 C 0.91360 0.64067 0.82685
 C1618 C 0.88555 0.65876 0.84005
 C1619 C 0.88662 0.69361 0.83893
 C1620 C 0.91242 0.71024 0.82206
 C1621 C 0.93822 0.69275 0.80559
 C1622 C 0.93990 0.65770 0.80912
 C1623 C 0.91710 0.60629 0.83244
 C1624 C 0.94469 0.58868 0.81957
 C1625 C 0.96995 0.60511 0.80173
 C1626 C 0.96798 0.63932 0.79691
 H1627 H 0.89962 0.59294 0.84807
 H1628 H 0.94689 0.56227 0.82413
 H1629 H 0.99167 0.59142 0.79234
 H1630 H 0.98925 0.65111 0.78454
 H1631 H 0.86635 0.70815 0.84997
 H1632 H 0.91137 0.73710 0.82078
 C1633 C 0.86037 0.19418 0.29253
 C1634 C 0.86533 0.17841 0.32358
 C1635 C 0.89794 0.17839 0.33802
 C1636 C 0.92562 0.19320 0.32200
 C1637 C 0.92160 0.20777 0.29073
 C1638 C 0.88885 0.20816 0.27556
 C1639 C 0.82749 0.19756 0.27860
 C1640 C 0.82284 0.21330 0.24815
 C1641 C 0.85074 0.22587 0.23094
 C1642 C 0.88346 0.22333 0.24440
 H1643 H 0.80503 0.18889 0.29132
 H1644 H 0.79744 0.21590 0.23796
 H1645 H 0.84700 0.23804 0.20727
 H1646 H 0.90426 0.23370 0.23031
 H1647 H 0.90182 0.16684 0.36198
 H1648 H 0.95040 0.19313 0.33403
 C1649 C 0.30696 0.29268 0.62899
 C1650 C 0.32099 0.32488 0.62443
 C1651 C 0.32114 0.33894 0.59265
 C1652 C 0.30795 0.32165 0.56553
 C1653 C 0.29527 0.28934 0.56918
 C1654 C 0.29516 0.27430 0.60102
 C1655 C 0.30297 0.27892 0.66091
 C1656 C 0.28946 0.24715 0.66514
 C1657 C 0.27945 0.22855 0.63775
 C1658 C 0.28212 0.24192 0.60599
 H1659 H 0.30929 0.29281 0.68289
 H1660 H 0.28650 0.23698 0.68981
 H1661 H 0.26889 0.20391 0.64115
 H1662 H 0.27325 0.22680 0.58562
 H1663 H 0.33142 0.36366 0.58897
 H1664 H 0.30765 0.33358 0.54144
 C1665 C 0.35425 0.82723 0.09524
 C1666 C 0.33376 0.83913 0.12179
 C1667 C 0.29807 0.83838 0.11840
 C1668 C 0.28262 0.82313 0.09139
 C1669 C 0.30216 0.80840 0.06633
 C1670 C 0.33834 0.81174 0.06726
 C1671 C 0.39008 0.83143 0.09524
 C1672 C 0.40990 0.82001 0.06893
 C1673 C 0.39444 0.80496 0.04172
 C1674 C 0.35904 0.80117 0.04058
 H1675 H 0.40315 0.84453 0.11482
 H1676 H 0.43735 0.82348 0.06935
 H1677 H 0.40993 0.79675 0.02106
 H1678 H 0.34825 0.79084 0.01816
 H1679 H 0.28183 0.84776 0.13797
 H1680 H 0.25496 0.82147 0.09093
 C1681 C 0.79737 0.29561 0.13167
 C1682 C 0.81555 0.32579 0.12715
 C1683 C 0.81865 0.33915 0.09522
 C1684 C 0.80479 0.32281 0.06778
 C1685 C 0.78770 0.29248 0.07151
 C1686 C 0.78364 0.27869 0.10361
 C1687 C 0.79146 0.28245 0.16355
 C1688 C 0.77296 0.25313 0.16775
 C1689 C 0.76005 0.23629 0.14035
 C1690 C 0.76525 0.24889 0.10856
 H1691 H 0.80036 0.29489 0.18552
 H1692 H 0.76836 0.24358 0.19241
 H1693 H 0.74566 0.21356 0.14379
 H1694 H 0.75443 0.23535 0.08800
 H1695 H 0.83214 0.36239 0.09163
 H1696 H 0.80761 0.33379 0.04340
 C1697 C 0.81897 0.84935 0.60441
 C1698 C 0.82905 0.82619 0.62922
 C1699 C 0.82627 0.79218 0.62234
 C1700 C 0.81209 0.78093 0.59281
 C1701 C 0.79916 0.80310 0.56912
 C1702 C 0.80234 0.83784 0.57491
 C1703 C 0.82594 0.88360 0.60770
 C1704 C 0.81412 0.90632 0.58434
 C1705 C 0.79587 0.89537 0.55683
 C1706 C 0.79039 0.86152 0.55184
 H1707 H 0.84151 0.89315 0.62761
 H1708 H 0.81935 0.93256 0.58749
 H1709 H 0.78651 0.91318 0.53889
 H1710 H 0.77685 0.85444 0.52974
 H1711 H 0.83390 0.77401 0.64069
 H1712 H 0.80989 0.75434 0.58911
 C1713 C 0.33234 0.71219 0.36743
 C1714 C 0.33523 0.67688 0.36739
 C1715 C 0.32331 0.65889 0.39477
 C1716 C 0.30921 0.67482 0.42202
 C1717 C 0.30640 0.70941 0.42291
 C1718 C 0.31771 0.72854 0.39543
 C1719 C 0.34131 0.73151 0.33946
 C1720 C 0.33714 0.76586 0.33940
 C1721 C 0.32306 0.78173 0.36669
 C1722 C 0.31298 0.76337 0.39426
 H1723 H 0.35028 0.72058 0.31679
 H1724 H 0.34416 0.78015 0.31771
 H1725 H 0.31923 0.80835 0.36624
 H1726 H 0.30077 0.77689 0.41406
 H1727 H 0.32508 0.63204 0.39499
 H1728 H 0.30031 0.65992 0.44267
 C1729 C 0.27827 0.17937 0.86584
 C1730 C 0.31466 0.17671 0.86517
 C1731 C 0.33364 0.19044 0.89134
 C1732 C 0.31777 0.20522 0.91834
 C1733 C 0.28214 0.20751 0.92019
 C1734 C 0.26200 0.19554 0.89323
 C1735 C 0.25761 0.16762 0.83948
 C1736 C 0.22227 0.17169 0.83980
 C1737 C 0.20665 0.18821 0.86588
 C1738 C 0.22618 0.20047 0.89206
 H1739 H 0.26815 0.15602 0.81776
 H1740 H 0.20699 0.16267 0.81926
 H1741 H 0.17927 0.19211 0.86553
 H1742 H 0.21272 0.21457 0.91063
 H1743 H 0.36124 0.18872 0.89140
 H1744 H 0.33365 0.21457 0.93833
 C1745 C 0.85768 0.66639 0.91203
 C1746 C 0.83912 0.65659 0.88327
 C1747 C 0.80375 0.66254 0.88223
 C1748 C 0.78744 0.67978 0.90734
 C1749 C 0.80573 0.69254 0.93428
 C1750 C 0.84102 0.68508 0.93745
 C1751 C 0.89214 0.65716 0.91657
 C1752 C 0.91018 0.66707 0.94476
 C1753 C 0.89413 0.68576 0.96922
 C1754 C 0.85981 0.69447 0.96588
 H1755 H 0.90522 0.64149 0.89895
 H1756 H 0.93663 0.65983 0.94784
 H1757 H 0.90819 0.69304 0.99121
 H1758 H 0.84812 0.70791 0.98609
 H1759 H 0.78836 0.65472 0.86138
 H1760 H 0.76022 0.68396 0.90511
 C1761 C 0.81945 0.15703 0.40090
 C1762 C 0.82736 0.17700 0.37290
 C1763 C 0.82263 0.21148 0.37489
 C1764 C 0.80737 0.22584 0.40244
 C1765 C 0.79619 0.20624 0.42892
 C1766 C 0.80308 0.17167 0.42889
 C1767 C 0.82837 0.12313 0.40217
 C1768 C 0.81999 0.10373 0.42963
 C1769 C 0.80326 0.11782 0.45660
 C1770 C 0.79513 0.15153 0.45650
 H1771 H 0.84286 0.11151 0.38261
 H1772 H 0.82696 0.07773 0.43019
 H1773 H 0.79714 0.10270 0.47798
 H1774 H 0.78330 0.16165 0.47851
 H1775 H 0.82890 0.22722 0.35399
 H1776 H 0.80279 0.25239 0.40240
 C1777 C 0.64492 0.32399 0.40337
 C1778 C 0.66564 0.33521 0.37666
 C1779 C 0.70136 0.33382 0.38008
 C1780 C 0.71654 0.31879 0.40743
 C1781 C 0.69664 0.30494 0.43269
 C1782 C 0.66056 0.30881 0.43161
 C1783 C 0.60915 0.32858 0.40335
 C1784 C 0.58918 0.31796 0.42991
 C1785 C 0.60439 0.30324 0.45737
 C1786 C 0.63971 0.29898 0.45850
 H1787 H 0.59623 0.34138 0.38356
 H1788 H 0.56179 0.32179 0.42945
 H1789 H 0.58880 0.29563 0.47820
 H1790 H 0.65041 0.28885 0.48105
 H1791 H 0.71779 0.34273 0.36043
 H1792 H 0.74415 0.31655 0.40802
 C1793 C 0.68706 0.79606 0.86667
 C1794 C 0.67602 0.82918 0.87235
 C1795 C 0.68404 0.84457 0.90255
 C1796 C 0.70027 0.82713 0.92786
 C1797 C 0.70891 0.79365 0.92385
 C1798 C 0.70283 0.77790 0.89292
 C1799 C 0.68438 0.78107 0.83513
 C1800 C 0.69514 0.74849 0.82996
 C1801 C 0.70940 0.73040 0.85586
 C1802 C 0.71352 0.74496 0.88697
 H1803 H 0.67526 0.79458 0.81386
 H1804 H 0.69285 0.73739 0.80560
 H1805 H 0.71799 0.70519 0.85166
 H1806 H 0.72573 0.73041 0.90604
 H1807 H 0.67665 0.87013 0.90679
 H1808 H 0.70543 0.83968 0.95112
 C1809 C 0.14243 0.32886 0.90293
 C1810 C 0.16359 0.33942 0.87630
 C1811 C 0.19920 0.33729 0.87987
 C1812 C 0.21380 0.32183 0.90722
 C1813 C 0.19338 0.30835 0.93234
 C1814 C 0.15743 0.31315 0.93116
 C1815 C 0.10690 0.33479 0.90279
 C1816 C 0.08642 0.32467 0.92919
 C1817 C 0.10098 0.30924 0.95661
 C1818 C 0.13614 0.30384 0.95790
 H1819 H 0.09469 0.34837 0.88307
 H1820 H 0.05920 0.32946 0.92866
 H1821 H 0.08503 0.30203 0.97732
 H1822 H 0.14637 0.29331 0.98046
 H1823 H 0.21588 0.34585 0.86024
 H1824 H 0.24133 0.31892 0.90788
 C1825 C 0.18399 0.85325 0.40706
 C1826 C 0.17673 0.83539 0.37742
 C1827 C 0.18763 0.80240 0.37450
 C1828 C 0.20468 0.78676 0.40036
 C1829 C 0.21193 0.80369 0.42987
 C1830 C 0.20193 0.83730 0.43344
 C1831 C 0.17221 0.88602 0.41179
 C1832 C 0.17879 0.90300 0.44127
 C1833 C 0.19665 0.88756 0.46682
 C1834 C 0.20792 0.85494 0.46317
 H1835 H 0.15724 0.89867 0.39325
 H1836 H 0.16962 0.92815 0.44446
 H1837 H 0.20138 0.90076 0.48977
 H1838 H 0.22087 0.84369 0.48401
 H1839 H 0.18244 0.78852 0.35203
 H1840 H 0.21234 0.76108 0.39731
 C1841 C 0.67804 0.71636 0.62343
 C1842 C 0.67613 0.68097 0.62374
 C1843 C 0.68823 0.66327 0.59622
 C1844 C 0.70188 0.67955 0.56884
 C1845 C 0.70346 0.71426 0.56758
 C1846 C 0.69114 0.73313 0.59491
 C1847 C 0.66923 0.73551 0.65153
 C1848 C 0.66978 0.77002 0.65059
 C1849 C 0.68142 0.78636 0.62252
 C1850 C 0.69311 0.76829 0.59545
 H1851 H 0.66283 0.72450 0.67494
 H1852 H 0.66200 0.78414 0.67214
 H1853 H 0.68249 0.81324 0.62210
 H1854 H 0.70398 0.78259 0.57554
 H1855 H 0.68721 0.63638 0.59608
 H1856 H 0.71135 0.66481 0.54834
 C1857 C 0.64347 0.17615 0.09461
 C1858 C 0.66539 0.16207 0.11898
 C1859 C 0.70047 0.16013 0.11214
 C1860 C 0.71431 0.17530 0.08439
 C1861 C 0.69395 0.19388 0.06262
 C1862 C 0.65780 0.19350 0.06696
 C1863 C 0.60764 0.17290 0.09688
 C1864 C 0.58620 0.18825 0.07395
 C1865 C 0.59999 0.20657 0.04800
 C1866 C 0.63533 0.20901 0.04426
 H1867 H 0.59587 0.15764 0.11570
 H1868 H 0.55875 0.18564 0.07616
 H1869 H 0.58320 0.21834 0.03018
 H1870 H 0.64435 0.22252 0.02295
 H1871 H 0.71795 0.14875 0.12952
 H1872 H 0.74180 0.17431 0.08126
 C1873 C 0.15409 0.67250 0.08850
 C1874 C 0.17186 0.66439 0.11808
 C1875 C 0.20599 0.67443 0.12187
 C1876 C 0.22223 0.69314 0.09750
 C1877 C 0.20481 0.70254 0.06867
 C1878 C 0.17071 0.69155 0.06349
 C1879 C 0.12048 0.66101 0.08278
 C1880 C 0.10355 0.66819 0.05321
 C1881 C 0.11984 0.68656 0.02864
 C1882 C 0.15312 0.69802 0.03353
 H1883 H 0.10728 0.64572 0.10063
 H1884 H 0.07783 0.65907 0.04914
 H1885 H 0.10675 0.69167 0.00553
 H1886 H 0.16495 0.71138 0.01335
 H1887 H 0.21986 0.66843 0.14433
 H1888 H 0.24844 0.70098 0.10152
 C1889 C 0.17574 0.20409 0.62912
 C1890 C 0.16631 0.17012 0.62661
 C1891 C 0.17462 0.15244 0.59779
 C1892 C 0.18986 0.16814 0.57089
 C1893 C 0.19717 0.20216 0.57177
 C1894 C 0.19051 0.22049 0.60122
 C1895 C 0.17242 0.22169 0.65921
 C1896 C 0.18189 0.25500 0.66147
 C1897 C 0.19529 0.27132 0.63404
 C1898 C 0.19977 0.25434 0.60425
 H1899 H 0.16371 0.20978 0.68158
 H1900 H 0.17926 0.26808 0.68478
 H1901 H 0.20297 0.29709 0.63605
 H1902 H 0.21154 0.26788 0.58418
 H1903 H 0.16833 0.12631 0.59586
 H1904 H 0.19551 0.15368 0.54890
   
