data_POSCAR
  _audit_creation_date              2014-09-24
  _audit_creation_method            'ToBaCCo'
  _symmetry_space_group_name_H-M    'P1'
  _symmetry_Int_Tables_number       1
  _symmetry_cell_setting            triclinic
  loop_
  _symmetry_equiv_pos_as_xyz
 x,y,z
_cell_length_a 82.9602
_cell_length_b 83.0191
_cell_length_c 83.1783
_cell_angle_alpha 89.969900
_cell_angle_beta 89.991100
_cell_angle_gamma 89.939000
loop_
  _atom_site_label
  _atom_site_type_symbol
  _atom_site_fract_x
  _atom_site_fract_y
  _atom_site_fract_z
N1 N 0.35759 0.31290 0.32428
 N2 N 0.35764 0.32441 0.31340
 C3 C 0.37009 0.32203 0.30325
 C4 C 0.37817 0.30836 0.30816
 C5 C 0.37000 0.30283 0.32148
 H6 H 0.37307 0.32958 0.29309
 H7 H 0.37288 0.29229 0.32857
 Cu8 Cu 0.34117 0.34109 0.31372
 Cu9 Cu 0.34147 0.31175 0.34131
 Cu10 Cu 0.31183 0.34138 0.34129
 N11 N 0.32446 0.35753 0.31336
 N12 N 0.31294 0.35748 0.32424
 C13 C 0.30286 0.36987 0.32142
 C14 C 0.30839 0.37802 0.30809
 C15 C 0.32206 0.36995 0.30320
 H16 H 0.29231 0.37275 0.32851
 H17 H 0.32962 0.37293 0.29303
 N18 N 0.31284 0.32405 0.35750
 N19 N 0.32411 0.31277 0.35750
 C20 C 0.32160 0.30282 0.37006
 C21 C 0.30819 0.30814 0.37823
 C22 C 0.30288 0.32155 0.37005
 H23 H 0.32898 0.29251 0.37310
 H24 H 0.29257 0.32892 0.37308
 H25 H 0.32336 0.32324 0.32870
 H26 H 0.33609 0.33593 0.34211
 N27 N 0.35796 0.81288 -0.17603
 N28 N 0.35778 0.82416 -0.18716
 C29 C 0.37027 0.82177 -0.19727
 C30 C 0.37858 0.80834 -0.19209
 C31 C 0.37054 0.80295 -0.17864
 H32 H 0.37313 0.82919 -0.20757
 H33 H 0.37361 0.79262 -0.17132
 Cu34 Cu 0.34117 0.84078 -0.18716
 Cu35 Cu 0.34193 0.81185 -0.15895
 Cu36 Cu 0.31228 0.84145 -0.15899
 N37 N 0.32452 0.85739 -0.18722
 N38 N 0.31322 0.85756 -0.17610
 C39 C 0.30326 0.87011 -0.17876
 C40 C 0.30864 0.87816 -0.19224
 C41 C 0.32211 0.86985 -0.19737
 H42 H 0.29291 0.87315 -0.17145
 H43 H 0.32954 0.87268 -0.20767
 N44 N 0.31335 0.82415 -0.14270
 N45 N 0.32464 0.81290 -0.14270
 C46 C 0.32214 0.80291 -0.13016
 C47 C 0.30871 0.80818 -0.12198
 C48 C 0.30338 0.82160 -0.13015
 H49 H 0.32950 0.79258 -0.12716
 H50 H 0.29303 0.82892 -0.12714
 H51 H 0.32373 0.82312 -0.17146
 H52 H 0.33668 0.83609 -0.15853
 N53 N 0.85725 0.31337 -0.17585
 N54 N 0.85707 0.32464 -0.18698
 C55 C 0.86958 0.32229 -0.19706
 C56 C 0.87789 0.30886 -0.19189
 C57 C 0.86983 0.30347 -0.17846
 H58 H 0.87246 0.32972 -0.20734
 H59 H 0.87290 0.29313 -0.17115
 Cu60 Cu 0.84049 0.34123 -0.18698
 Cu61 Cu 0.84119 0.31237 -0.15878
 Cu62 Cu 0.81161 0.34201 -0.15876
 N63 N 0.82394 0.35785 -0.18697
 N64 N 0.81266 0.35806 -0.17583
 C65 C 0.80278 0.37067 -0.17843
 C66 C 0.80823 0.37870 -0.19187
 C67 C 0.82163 0.37036 -0.19705
 H68 H 0.79245 0.37376 -0.17112
 H69 H 0.82908 0.37322 -0.20733
 N70 N 0.81264 0.32470 -0.14253
 N71 N 0.82390 0.31342 -0.14254
 C72 C 0.82138 0.30345 -0.13000
 C73 C 0.80796 0.30875 -0.12182
 C74 C 0.80267 0.32218 -0.12998
 H75 H 0.82873 0.29311 -0.12700
 H76 H 0.79235 0.32955 -0.12696
 H77 H 0.82291 0.32373 -0.17126
 H78 H 0.83593 0.33670 -0.15837
 N79 N 0.85734 0.81333 0.32418
 N80 N 0.85739 0.82485 0.31330
 C81 C 0.86984 0.82245 0.30315
 C82 C 0.87790 0.80878 0.30806
 C83 C 0.86974 0.80325 0.32137
 H84 H 0.87282 0.83001 0.29298
 H85 H 0.87261 0.79272 0.32847
 Cu86 Cu 0.84095 0.84156 0.31365
 Cu87 Cu 0.84123 0.81222 0.34122
 Cu88 Cu 0.81159 0.84186 0.34121
 N89 N 0.82426 0.85802 0.31328
 N90 N 0.81272 0.85798 0.32416
 C91 C 0.80263 0.87037 0.32133
 C92 C 0.80818 0.87850 0.30800
 C93 C 0.82187 0.87044 0.30311
 H94 H 0.79208 0.87324 0.32843
 H95 H 0.82943 0.87340 0.29293
 N96 N 0.81260 0.82451 0.35742
 N97 N 0.82388 0.81324 0.35742
 C98 C 0.82139 0.80330 0.36999
 C99 C 0.80798 0.80861 0.37817
 C100 C 0.80266 0.82201 0.36999
 H101 H 0.82877 0.79299 0.37302
 H102 H 0.79235 0.82939 0.37303
 H103 H 0.82311 0.82375 0.32862
 H104 H 0.83581 0.83644 0.34204
 N105 N 0.64241 0.68710 0.32429
 N106 N 0.64236 0.67558 0.31342
 C107 C 0.62994 0.67798 0.30326
 C108 C 0.62187 0.69165 0.30814
 C109 C 0.63001 0.69718 0.32146
 H110 H 0.62697 0.67043 0.29309
 H111 H 0.62714 0.70772 0.32854
 Cu112 Cu 0.65882 0.65889 0.31378
 Cu113 Cu 0.65852 0.68823 0.34133
 Cu114 Cu 0.68818 0.65861 0.34134
 N115 N 0.67552 0.64246 0.31342
 N116 N 0.68705 0.64251 0.32430
 C117 C 0.69713 0.63011 0.32148
 C118 C 0.69159 0.62197 0.30817
 C119 C 0.67792 0.63004 0.30327
 H120 H 0.70767 0.62723 0.32857
 H121 H 0.67035 0.62707 0.29311
 N122 N 0.68715 0.67595 0.35753
 N123 N 0.67587 0.68721 0.35752
 C124 C 0.67836 0.69716 0.37008
 C125 C 0.69177 0.69185 0.37826
 C126 C 0.69709 0.67844 0.37009
 H127 H 0.67098 0.70746 0.37311
 H128 H 0.70741 0.67107 0.37313
 H129 H 0.67664 0.67672 0.32873
 H130 H 0.66394 0.66402 0.34217
 N131 N 0.64255 0.18691 -0.17580
 N132 N 0.64273 0.17562 -0.18690
 C133 C 0.63025 0.17801 -0.19701
 C134 C 0.62193 0.19144 -0.19186
 C135 C 0.62998 0.19683 -0.17843
 H136 H 0.62739 0.17060 -0.20731
 H137 H 0.62691 0.20717 -0.17114
 Cu138 Cu 0.65934 0.15903 -0.18690
 Cu139 Cu 0.65859 0.18796 -0.15874
 Cu140 Cu 0.68826 0.15840 -0.15877
 N141 N 0.67599 0.14245 -0.18696
 N142 N 0.68730 0.14230 -0.17586
 C143 C 0.69727 0.12975 -0.17853
 C144 C 0.69186 0.12171 -0.19198
 C145 C 0.67838 0.13000 -0.19710
 H146 H 0.70763 0.12671 -0.17124
 H147 H 0.67094 0.12716 -0.20738
 N148 N 0.68718 0.17569 -0.14250
 N149 N 0.67588 0.18693 -0.14250
 C150 C 0.67837 0.19692 -0.12998
 C151 C 0.69181 0.19167 -0.12180
 C152 C 0.69715 0.17825 -0.12995
 H153 H 0.67099 0.20724 -0.12699
 H154 H 0.70751 0.17095 -0.12694
 H155 H 0.67680 0.17669 -0.17127
 H156 H 0.66387 0.16372 -0.15829
 N157 N 0.14257 0.68713 -0.17572
 N158 N 0.14272 0.67585 -0.18685
 C159 C 0.13022 0.67820 -0.19689
 C160 C 0.12190 0.69161 -0.19174
 C161 C 0.12997 0.69703 -0.17833
 H162 H 0.12731 0.67074 -0.20715
 H163 H 0.12690 0.70737 -0.17103
 Cu164 Cu 0.15928 0.65926 -0.18685
 Cu165 Cu 0.15862 0.68815 -0.15868
 Cu166 Cu 0.18819 0.65851 -0.15868
 N167 N 0.17582 0.64266 -0.18685
 N168 N 0.18712 0.64246 -0.17572
 C169 C 0.19698 0.62983 -0.17834
 C170 C 0.19152 0.62179 -0.19175
 C171 C 0.17813 0.63015 -0.19690
 H172 H 0.20732 0.62673 -0.17104
 H173 H 0.17065 0.62728 -0.20715
 N174 N 0.18719 0.67582 -0.14248
 N175 N 0.17593 0.68710 -0.14248
 C176 C 0.17847 0.69707 -0.12996
 C177 C 0.19189 0.69176 -0.12180
 C178 C 0.19718 0.67833 -0.12995
 H179 H 0.17112 0.70740 -0.12695
 H180 H 0.20750 0.67096 -0.12694
 H181 H 0.17684 0.67678 -0.17119
 H182 H 0.16384 0.66382 -0.15826
 N183 N 0.14255 0.18719 0.32425
 N184 N 0.14275 0.17593 0.31313
 C185 C 0.13029 0.17831 0.30301
 C186 C 0.12196 0.19171 0.30815
 C187 C 0.12997 0.19711 0.32160
 H188 H 0.12743 0.17087 0.29272
 H189 H 0.12688 0.20744 0.32890
 Cu190 Cu 0.15921 0.15923 0.31314
 Cu191 Cu 0.15856 0.18817 0.34133
 Cu192 Cu 0.18818 0.15859 0.34131
 N193 N 0.17592 0.14279 0.31311
 N194 N 0.18720 0.14259 0.32423
 C195 C 0.19713 0.13003 0.32157
 C196 C 0.19173 0.12202 0.30812
 C197 C 0.17830 0.13034 0.30298
 H198 H 0.20748 0.12693 0.32886
 H199 H 0.17085 0.12749 0.29271
 N200 N 0.18710 0.17583 0.35757
 N201 N 0.17582 0.18709 0.35758
 C202 C 0.17832 0.19704 0.37012
 C203 C 0.19175 0.19174 0.37828
 C204 C 0.19707 0.17834 0.37011
 H205 H 0.17097 0.20737 0.37313
 H206 H 0.20741 0.17100 0.37312
 H207 H 0.17678 0.17681 0.32878
 H208 H 0.16383 0.16385 0.34175
 N209 N 0.64236 0.31297 0.67577
 N210 N 0.64229 0.32449 0.68664
 C211 C 0.62984 0.32210 0.69679
 C212 C 0.62178 0.30844 0.69189
 C213 C 0.62996 0.30290 0.67859
 H214 H 0.62684 0.32967 0.70694
 H215 H 0.62710 0.29237 0.67149
 Cu216 Cu 0.65873 0.34117 0.68627
 Cu217 Cu 0.65848 0.31182 0.65873
 Cu218 Cu 0.68812 0.34141 0.65874
 N219 N 0.67544 0.35760 0.68665
 N220 N 0.68698 0.35752 0.67578
 C221 C 0.69705 0.36991 0.67860
 C222 C 0.69151 0.37808 0.69191
 C223 C 0.67783 0.37003 0.69680
 H224 H 0.70760 0.37276 0.67151
 H225 H 0.67025 0.37302 0.70695
 N226 N 0.68711 0.32407 0.64253
 N227 N 0.67584 0.31282 0.64253
 C228 C 0.67834 0.30287 0.62998
 C229 C 0.69175 0.30816 0.62180
 C230 C 0.69706 0.32156 0.62997
 H231 H 0.67097 0.29258 0.62695
 H232 H 0.70737 0.32891 0.62693
 H233 H 0.67658 0.32331 0.67134
 H234 H 0.66388 0.33602 0.65789
 N235 N 0.64247 0.81316 1.17579
 N236 N 0.64263 0.82444 1.18692
 C237 C 0.63014 0.82209 1.19700
 C238 C 0.62184 0.80868 1.19187
 C239 C 0.62989 0.80327 1.17843
 H240 H 0.62731 0.82949 1.20732
 H241 H 0.62686 0.79291 1.17117
 Cu242 Cu 0.65931 0.84088 1.18718
 Cu243 Cu 0.65859 0.81211 1.15881
 Cu244 Cu 0.68819 0.84160 1.15880
 N245 N 0.67581 0.85749 1.18691
 N246 N 0.68711 0.85764 1.17579
 C247 C 0.69704 0.87017 1.17843
 C248 C 0.69162 0.87821 1.19185
 C249 C 0.67818 0.86996 1.19699
 H250 H 0.70742 0.87318 1.17117
 H251 H 0.67078 0.87281 1.20731
 N252 N 0.68718 0.82432 1.14262
 N253 N 0.67591 0.81309 1.14261
 C254 C 0.67842 0.80314 1.13006
 C255 C 0.69185 0.80843 1.12191
 C256 C 0.69715 0.82182 1.13008
 H257 H 0.67106 0.79285 1.12702
 H258 H 0.70748 0.82917 1.12707
 H259 H 0.67695 0.82339 1.17142
 H260 H 0.66392 0.83646 1.15858
 N261 N 0.14249 0.31319 1.17583
 N262 N 0.14266 0.32448 1.18691
 C263 C 0.13018 0.32215 1.19704
 C264 C 0.12186 0.30875 1.19191
 C265 C 0.12990 0.30331 1.17848
 H266 H 0.12731 0.32961 1.20731
 H267 H 0.12683 0.29297 1.17120
 Cu268 Cu 0.15926 0.34098 1.18699
 Cu269 Cu 0.15856 0.31215 1.15877
 Cu270 Cu 0.18816 0.34171 1.15871
 N271 N 0.17577 0.35755 1.18685
 N272 N 0.18707 0.35772 1.17575
 C273 C 0.19694 0.37030 1.17835
 C274 C 0.19149 0.37833 1.19177
 C275 C 0.17810 0.37003 1.19694
 H276 H 0.20728 0.37337 1.17106
 H277 H 0.17065 0.37292 1.20722
 N278 N 0.18712 0.32442 1.14253
 N279 N 0.17587 0.31316 1.14254
 C280 C 0.17840 0.30319 1.13001
 C281 C 0.19181 0.30849 1.12184
 C282 C 0.19710 0.32190 1.12999
 H283 H 0.17105 0.29288 1.12700
 H284 H 0.20742 0.32925 1.12697
 H285 H 0.17690 0.32352 1.17125
 H286 H 0.16389 0.33650 1.15834
 N287 N 0.14255 0.81320 0.67566
 N288 N 0.14274 0.82447 0.68679
 C289 C 0.13024 0.82217 0.69687
 C290 C 0.12191 0.80877 0.69173
 C291 C 0.12996 0.80334 0.67829
 H292 H 0.12737 0.82961 0.70715
 H293 H 0.12688 0.79301 0.67101
 Cu294 Cu 0.15932 0.84099 0.68678
 Cu295 Cu 0.15862 0.81217 0.65860
 Cu296 Cu 0.18823 0.84170 0.65858
 N297 N 0.17587 0.85753 0.68676
 N298 N 0.18715 0.85771 0.67563
 C299 C 0.19705 0.87027 0.67826
 C300 C 0.19162 0.87829 0.69168
 C301 C 0.17820 0.87001 0.69684
 H302 H 0.20741 0.87332 0.67097
 H303 H 0.17076 0.87289 0.70712
 N304 N 0.18719 0.82443 0.64238
 N305 N 0.17592 0.81319 0.64237
 C306 C 0.17844 0.80324 0.62983
 C307 C 0.19187 0.80854 0.62167
 C308 C 0.19717 0.82193 0.62984
 H309 H 0.17109 0.79293 0.62680
 H310 H 0.20749 0.82928 0.62683
 H311 H 0.17695 0.82350 0.67109
 H312 H 0.16396 0.83652 0.65819
 N313 N 0.35750 0.68714 0.67574
 N314 N 0.35733 0.67584 0.68684
 C315 C 0.36981 0.67820 0.69696
 C316 C 0.37811 0.69164 0.69184
 C317 C 0.37006 0.69705 0.67840
 H318 H 0.37266 0.67077 0.70725
 H319 H 0.37311 0.70740 0.67111
 Cu320 Cu 0.34078 0.65924 0.68688
 Cu321 Cu 0.34145 0.68816 0.65868
 Cu322 Cu 0.31187 0.65857 0.65866
 N323 N 0.32418 0.64268 0.68682
 N324 N 0.31289 0.64251 0.67571
 C325 C 0.30299 0.62995 0.67835
 C326 C 0.30840 0.62189 0.69179
 C327 C 0.32183 0.63020 0.69693
 H328 H 0.29265 0.62689 0.67106
 H329 H 0.32926 0.62734 0.70722
 N330 N 0.31291 0.67586 0.64243
 N331 N 0.32417 0.68712 0.64243
 C332 C 0.32165 0.69709 0.62989
 C333 C 0.30824 0.69180 0.62171
 C334 C 0.30295 0.67839 0.62988
 H335 H 0.32899 0.70742 0.62688
 H336 H 0.29263 0.67104 0.62685
 H337 H 0.32319 0.67682 0.67119
 H338 H 0.33619 0.66386 0.65826
 N339 N 0.35755 0.18680 1.17581
 N340 N 0.35737 0.17552 1.18693
 C341 C 0.36987 0.17783 1.19701
 C342 C 0.37819 0.19123 1.19187
 C343 C 0.37014 0.19667 1.17844
 H344 H 0.37274 0.17036 1.20728
 H345 H 0.37321 0.20701 1.17115
 Cu346 Cu 0.34083 0.15895 1.18691
 Cu347 Cu 0.34148 0.18784 1.15875
 Cu348 Cu 0.31189 0.15829 1.15873
 N349 N 0.32425 0.14246 1.18690
 N350 N 0.31297 0.14229 1.17577
 C351 C 0.30309 0.12972 1.17838
 C352 C 0.30852 0.12168 1.19179
 C353 C 0.32192 0.12996 1.19696
 H354 H 0.29274 0.12665 1.17108
 H355 H 0.32937 0.12706 1.20723
 N356 N 0.31292 0.17557 1.14254
 N357 N 0.32418 0.18683 1.14253
 C358 C 0.32164 0.19679 1.12999
 C359 C 0.30822 0.19149 1.12184
 C360 C 0.30294 0.17809 1.13001
 H361 H 0.32898 0.20711 1.12696
 H362 H 0.29262 0.17073 1.12700
 H363 H 0.32316 0.17644 1.17127
 H364 H 0.33615 0.16347 1.15833
 N365 N 0.85739 0.68691 1.17588
 N366 N 0.85720 0.67565 1.18703
 C367 C 0.86969 0.67799 1.19711
 C368 C 0.87800 0.69139 1.19194
 C369 C 0.86997 0.69679 1.17849
 H370 H 0.87257 0.67054 1.20739
 H371 H 0.87306 0.70710 1.17116
 Cu372 Cu 0.84074 0.65901 1.18699
 Cu373 Cu 0.84136 0.68789 1.15879
 Cu374 Cu 0.81181 0.65834 1.15874
 N375 N 0.82410 0.64256 1.18697
 N376 N 0.81286 0.64237 1.17582
 C377 C 0.80299 0.62978 1.17839
 C378 C 0.80839 0.62175 1.19183
 C379 C 0.82177 0.63006 1.19704
 H380 H 0.79268 0.62669 1.17105
 H381 H 0.82920 0.62715 1.20732
 N382 N 0.81286 0.67559 1.14253
 N383 N 0.82411 0.68685 1.14254
 C384 C 0.82157 0.69682 1.13000
 C385 C 0.80816 0.69151 1.12184
 C386 C 0.80288 0.67810 1.13000
 H387 H 0.82890 0.70715 1.12699
 H388 H 0.79256 0.67075 1.12699
 H389 H 0.82309 0.67645 1.17131
 H390 H 0.83612 0.66347 1.15838
 N391 N 0.85736 0.18685 0.67574
 N392 N 0.85717 0.17559 0.68686
 C393 C 0.86966 0.17792 0.69696
 C394 C 0.87797 0.19133 0.69181
 C395 C 0.86993 0.19674 0.67837
 H396 H 0.87253 0.17047 0.70725
 H397 H 0.87300 0.20708 0.67107
 Cu398 Cu 0.84064 0.15903 0.68685
 Cu399 Cu 0.84131 0.18786 0.65865
 Cu400 Cu 0.81175 0.15827 0.65862
 N401 N 0.82410 0.14250 0.68683
 N402 N 0.81284 0.14229 0.67570
 C403 C 0.80298 0.12971 0.67830
 C404 C 0.80842 0.12169 0.69173
 C405 C 0.82180 0.13000 0.69691
 H406 H 0.79264 0.12662 0.67100
 H407 H 0.82923 0.12712 0.70719
 N408 N 0.81278 0.17553 0.64241
 N409 N 0.82403 0.18680 0.64241
 C410 C 0.82149 0.19675 0.62986
 C411 C 0.80808 0.19142 0.62170
 C412 C 0.80281 0.17802 0.62987
 H413 H 0.82882 0.20708 0.62683
 H414 H 0.79250 0.17065 0.62686
 H415 H 0.82295 0.17647 0.67114
 H416 H 0.83599 0.16348 0.65826
 N417 N 0.31293 0.35759 0.67568
 N418 N 0.32446 0.35763 0.68655
 C419 C 0.32208 0.37005 0.69671
 C420 C 0.30840 0.37813 0.69183
 C421 C 0.30286 0.36999 0.67851
 H422 H 0.32964 0.37301 0.70688
 H423 H 0.29231 0.37287 0.67143
 Cu424 Cu 0.34115 0.34117 0.68620
 Cu425 Cu 0.31178 0.34148 0.65864
 Cu426 Cu 0.34144 0.31185 0.65865
 N427 N 0.35758 0.32447 0.68657
 N428 N 0.35753 0.31296 0.67569
 C429 C 0.36992 0.30288 0.67851
 C430 C 0.37807 0.30840 0.69183
 C431 C 0.37001 0.32206 0.69672
 H432 H 0.37280 0.29234 0.67142
 H433 H 0.37299 0.32961 0.70689
 N434 N 0.32410 0.31287 0.64245
 N435 N 0.31281 0.32413 0.64245
 C436 C 0.30285 0.32161 0.62990
 C437 C 0.30817 0.30819 0.62174
 C438 C 0.32160 0.30290 0.62991
 H439 H 0.29253 0.32896 0.62687
 H440 H 0.32897 0.29259 0.62690
 H441 H 0.32330 0.32336 0.67126
 H442 H 0.33599 0.33607 0.65783
 N443 N 0.31302 0.85767 0.17547
 N444 N 0.32431 0.85749 0.18659
 C445 C 0.32199 0.87000 0.19665
 C446 C 0.30858 0.87833 0.19150
 C447 C 0.30314 0.87028 0.17808
 H448 H 0.32945 0.87287 0.20691
 H449 H 0.29280 0.87337 0.17078
 Cu450 Cu 0.34094 0.84096 0.18667
 Cu451 Cu 0.31201 0.84162 0.15844
 Cu452 Cu 0.34164 0.81205 0.15845
 N453 N 0.35749 0.82436 0.18661
 N454 N 0.35770 0.81309 0.17550
 C455 C 0.37030 0.80319 0.17814
 C456 C 0.37832 0.80861 0.19158
 C457 C 0.36999 0.82203 0.19671
 H458 H 0.37338 0.79285 0.17087
 H459 H 0.37284 0.82947 0.20698
 N460 N 0.32434 0.81307 0.14223
 N461 N 0.31306 0.82432 0.14222
 C462 C 0.30308 0.82178 0.12969
 C463 C 0.30838 0.80835 0.12155
 C464 C 0.32182 0.80308 0.12971
 H465 H 0.29273 0.82912 0.12668
 H466 H 0.32919 0.79276 0.12672
 H467 H 0.32338 0.82339 0.17098
 H468 H 0.33636 0.83637 0.15806
 N469 N 0.81303 0.35771 0.17554
 N470 N 0.82432 0.35751 0.18665
 C471 C 0.82201 0.37002 0.19672
 C472 C 0.80859 0.37835 0.19158
 C473 C 0.80314 0.37030 0.17816
 H474 H 0.82946 0.37289 0.20699
 H475 H 0.79279 0.37339 0.17087
 Cu476 Cu 0.84092 0.34095 0.18665
 Cu477 Cu 0.81198 0.34165 0.15849
 Cu478 Cu 0.84159 0.31204 0.15850
 N479 N 0.85748 0.32436 0.18666
 N480 N 0.85766 0.31307 0.17555
 C481 C 0.87023 0.30316 0.17821
 C482 C 0.87828 0.30857 0.19164
 C483 C 0.86997 0.32201 0.19675
 H484 H 0.87329 0.29280 0.17093
 H485 H 0.87284 0.32944 0.20703
 N486 N 0.82427 0.31308 0.14228
 N487 N 0.81301 0.32435 0.14227
 C488 C 0.80302 0.32182 0.12974
 C489 C 0.80831 0.30838 0.12160
 C490 C 0.82174 0.30310 0.12976
 H491 H 0.79269 0.32917 0.12673
 H492 H 0.82909 0.29276 0.12676
 H493 H 0.82332 0.32338 0.17101
 H494 H 0.83630 0.33634 0.15807
 N495 N 0.81304 0.85776 0.67557
 N496 N 0.82432 0.85756 0.68670
 C497 C 0.82200 0.87007 0.69676
 C498 C 0.80860 0.87841 0.69160
 C499 C 0.80316 0.87036 0.67818
 H500 H 0.82947 0.87294 0.70702
 H501 H 0.79282 0.87345 0.67089
 Cu502 Cu 0.84090 0.84097 0.68669
 Cu503 Cu 0.81201 0.84171 0.65850
 Cu504 Cu 0.84164 0.81211 0.65850
 N505 N 0.85751 0.82442 0.68669
 N506 N 0.85771 0.81315 0.67557
 C507 C 0.87031 0.80326 0.67820
 C508 C 0.87835 0.80868 0.69163
 C509 C 0.87001 0.82208 0.69677
 H510 H 0.87339 0.79292 0.67091
 H511 H 0.87287 0.82952 0.70705
 N512 N 0.82433 0.81314 0.64228
 N513 N 0.81305 0.82441 0.64228
 C514 C 0.80306 0.82187 0.62975
 C515 C 0.80835 0.80844 0.62160
 C516 C 0.82179 0.80316 0.62975
 H517 H 0.79272 0.82922 0.62675
 H518 H 0.82915 0.79283 0.62675
 H519 H 0.82335 0.82342 0.67100
 H520 H 0.83633 0.83641 0.65810
 N521 N 0.68697 0.64230 0.67581
 N522 N 0.67544 0.64225 0.68668
 C523 C 0.67783 0.62981 0.69684
 C524 C 0.69151 0.62173 0.69196
 C525 C 0.69704 0.62989 0.67864
 H526 H 0.67026 0.62684 0.70701
 H527 H 0.70759 0.62701 0.67155
 Cu528 Cu 0.65873 0.65871 0.68632
 Cu529 Cu 0.68811 0.65843 0.65875
 Cu530 Cu 0.65845 0.68806 0.65875
 N531 N 0.64229 0.67543 0.68669
 N532 N 0.64234 0.68695 0.67581
 C533 C 0.62994 0.69703 0.67863
 C534 C 0.62178 0.69151 0.69195
 C535 C 0.62985 0.67784 0.69685
 H536 H 0.62707 0.70757 0.67153
 H537 H 0.62688 0.67028 0.70702
 N538 N 0.67580 0.68705 0.64253
 N539 N 0.68709 0.67579 0.64253
 C540 C 0.69706 0.67833 0.62999
 C541 C 0.69175 0.69175 0.62181
 C542 C 0.67831 0.69703 0.62998
 H543 H 0.70739 0.67097 0.62696
 H544 H 0.67094 0.70734 0.62697
 H545 H 0.67659 0.67654 0.67136
 H546 H 0.66390 0.66384 0.65794
 N547 N 0.68718 0.14211 0.17561
 N548 N 0.67589 0.14229 0.18673
 C549 C 0.67821 0.12976 0.19678
 C550 C 0.69163 0.12143 0.19163
 C551 C 0.69707 0.12951 0.17822
 H552 H 0.67074 0.12687 0.20705
 H553 H 0.70742 0.12643 0.17092
 Cu554 Cu 0.65933 0.15889 0.18674
 Cu555 Cu 0.68823 0.15820 0.15856
 Cu556 Cu 0.65861 0.18780 0.15857
 N557 N 0.64272 0.17545 0.18675
 N558 N 0.64254 0.18674 0.17563
 C559 C 0.62993 0.19662 0.17825
 C560 C 0.62187 0.19118 0.19167
 C561 C 0.63020 0.17776 0.19681
 H562 H 0.62686 0.20697 0.17097
 H563 H 0.62732 0.17030 0.20708
 N564 N 0.67593 0.18679 0.14235
 N565 N 0.68720 0.17553 0.14234
 C566 C 0.69719 0.17809 0.12981
 C567 C 0.69190 0.19153 0.12167
 C568 C 0.67845 0.19680 0.12983
 H569 H 0.70753 0.17075 0.12679
 H570 H 0.67110 0.20713 0.12684
 H571 H 0.67689 0.17645 0.17107
 H572 H 0.66390 0.16349 0.15815
 N573 N 0.18692 0.64242 0.17552
 N574 N 0.17562 0.64260 0.18662
 C575 C 0.17799 0.63013 0.19675
 C576 C 0.19142 0.62182 0.19163
 C577 C 0.19684 0.62985 0.17818
 H578 H 0.17056 0.62729 0.20705
 H579 H 0.20719 0.62678 0.17089
 Cu580 Cu 0.15904 0.65918 0.18662
 Cu581 Cu 0.18796 0.65848 0.15845
 Cu582 Cu 0.15837 0.68812 0.15847
 N583 N 0.14247 0.67578 0.18664
 N584 N 0.14231 0.68709 0.17555
 C585 C 0.12976 0.69703 0.17821
 C586 C 0.12171 0.69161 0.19165
 C587 C 0.13001 0.67817 0.19677
 H588 H 0.12669 0.70739 0.17093
 H589 H 0.12716 0.67073 0.20706
 N590 N 0.17566 0.68706 0.14221
 N591 N 0.18692 0.67578 0.14220
 C592 C 0.19691 0.67832 0.12968
 C593 C 0.19164 0.69177 0.12153
 C594 C 0.17820 0.69706 0.12969
 H595 H 0.20725 0.67097 0.12668
 H596 H 0.17088 0.70741 0.12671
 H597 H 0.17661 0.67674 0.17098
 H598 H 0.16364 0.66382 0.15802
 N599 N 0.18689 0.14222 0.67568
 N600 N 0.17559 0.14239 0.68678
 C601 C 0.17793 0.12990 0.69688
 C602 C 0.19136 0.12157 0.69174
 C603 C 0.19679 0.12963 0.67831
 H604 H 0.17048 0.12704 0.70715
 H605 H 0.20714 0.12655 0.67102
 Cu606 Cu 0.15898 0.15896 0.68684
 Cu607 Cu 0.18790 0.15829 0.65863
 Cu608 Cu 0.15829 0.18790 0.65864
 N609 N 0.14242 0.17557 0.68680
 N610 N 0.14224 0.18688 0.67570
 C611 C 0.12966 0.19679 0.67836
 C612 C 0.12161 0.19135 0.69179
 C613 C 0.12993 0.17792 0.69690
 H614 H 0.12659 0.20715 0.67108
 H615 H 0.12707 0.17047 0.70718
 N616 N 0.17559 0.18686 0.64240
 N617 N 0.18686 0.17559 0.64240
 C618 C 0.19684 0.17812 0.62986
 C619 C 0.19155 0.19156 0.62171
 C620 C 0.17812 0.19685 0.62988
 H621 H 0.20717 0.17078 0.62685
 H622 H 0.17077 0.20719 0.62688
 H623 H 0.17654 0.17655 0.67115
 H624 H 0.16357 0.16360 0.65822
 N625 N 0.31294 0.64225 0.32418
 N626 N 0.32448 0.64219 0.31331
 C627 C 0.32209 0.62975 0.30316
 C628 C 0.30840 0.62170 0.30805
 C629 C 0.30287 0.62987 0.32137
 H630 H 0.32966 0.62677 0.29300
 H631 H 0.29232 0.62701 0.32846
 Cu632 Cu 0.34119 0.65863 0.31368
 Cu633 Cu 0.31180 0.65838 0.34123
 Cu634 Cu 0.34143 0.68797 0.34123
 N635 N 0.35764 0.67533 0.31331
 N636 N 0.35757 0.68684 0.32418
 C637 C 0.36995 0.69693 0.32136
 C638 C 0.37814 0.69142 0.30804
 C639 C 0.37009 0.67774 0.30315
 H640 H 0.37280 0.70746 0.32845
 H641 H 0.37308 0.67019 0.29299
 N642 N 0.32407 0.68698 0.35744
 N643 N 0.31280 0.67573 0.35745
 C644 C 0.30283 0.67826 0.37000
 C645 C 0.30813 0.69167 0.37817
 C646 C 0.32155 0.69694 0.36999
 H647 H 0.29252 0.67091 0.37303
 H648 H 0.32892 0.70724 0.37300
 H649 H 0.32332 0.67648 0.32862
 H650 H 0.33603 0.66377 0.34206
 N651 N 0.31278 0.14214 0.82436
 N652 N 0.32406 0.14234 0.81323
 C653 C 0.32174 0.12984 0.80315
 C654 C 0.30833 0.12151 0.80830
 C655 C 0.30291 0.12955 0.82174
 H656 H 0.32919 0.12698 0.79287
 H657 H 0.29257 0.12647 0.82904
 Cu658 Cu 0.34063 0.15892 0.81324
 Cu659 Cu 0.31174 0.15819 0.84144
 Cu660 Cu 0.34132 0.18777 0.84144
 N661 N 0.35721 0.17549 0.81325
 N662 N 0.35738 0.18675 0.82438
 C663 C 0.36997 0.19663 0.82177
 C664 C 0.37804 0.19124 0.80834
 C665 C 0.36972 0.17784 0.80317
 H666 H 0.37303 0.20696 0.82908
 H667 H 0.37261 0.17041 0.79289
 N668 N 0.32401 0.18673 0.85767
 N669 N 0.31275 0.17548 0.85768
 C670 C 0.30278 0.17800 0.87023
 C671 C 0.30808 0.19141 0.87840
 C672 C 0.32149 0.19669 0.87022
 H673 H 0.29246 0.17066 0.87325
 H674 H 0.32885 0.20701 0.87323
 H675 H 0.32305 0.17647 0.82894
 H676 H 0.33606 0.16347 0.84184
 N677 N 0.81320 0.64231 0.82449
 N678 N 0.82472 0.64226 0.81360
 C679 C 0.82233 0.62983 0.80345
 C680 C 0.80866 0.62175 0.80835
 C681 C 0.80314 0.62991 0.82168
 H682 H 0.82989 0.62686 0.79328
 H683 H 0.79260 0.62704 0.82879
 Cu684 Cu 0.84142 0.65873 0.81395
 Cu685 Cu 0.81206 0.65845 0.84153
 Cu686 Cu 0.84166 0.68808 0.84150
 N687 N 0.85786 0.67544 0.81357
 N688 N 0.85779 0.68696 0.82444
 C689 C 0.87016 0.69705 0.82160
 C690 C 0.87833 0.69154 0.80827
 C691 C 0.87029 0.67786 0.80340
 H692 H 0.87301 0.70759 0.82869
 H693 H 0.87327 0.67031 0.79323
 N694 N 0.82431 0.68707 0.85772
 N695 N 0.81305 0.67580 0.85774
 C696 C 0.80309 0.67832 0.87030
 C697 C 0.80837 0.69174 0.87845
 C698 C 0.82178 0.69703 0.87027
 H699 H 0.79279 0.67096 0.87334
 H700 H 0.82913 0.70735 0.87328
 H701 H 0.82356 0.67657 0.82892
 H702 H 0.83629 0.66388 0.84234
 N703 N 0.81301 0.14213 0.32427
 N704 N 0.82430 0.14230 0.31316
 C705 C 0.82194 0.12984 0.30304
 C706 C 0.80851 0.12153 0.30818
 C707 C 0.80310 0.12957 0.32163
 H708 H 0.82937 0.12699 0.29275
 H709 H 0.79276 0.12650 0.32893
 Cu710 Cu 0.84089 0.15888 0.31318
 Cu711 Cu 0.81198 0.15817 0.34136
 Cu712 Cu 0.84155 0.18777 0.34134
 N713 N 0.85746 0.17548 0.31314
 N714 N 0.85761 0.18677 0.32424
 C715 C 0.87015 0.19671 0.32158
 C716 C 0.87820 0.19133 0.30812
 C717 C 0.86992 0.17789 0.30301
 H718 H 0.87318 0.20706 0.32886
 H719 H 0.87278 0.17047 0.29270
 N720 N 0.82426 0.18671 0.35761
 N721 N 0.81301 0.17545 0.35762
 C722 C 0.80302 0.17799 0.37015
 C723 C 0.80828 0.19142 0.37830
 C724 C 0.82171 0.19670 0.37013
 H725 H 0.79268 0.17066 0.37316
 H726 H 0.82903 0.20704 0.37311
 H727 H 0.82330 0.17642 0.32886
 H728 H 0.83629 0.16346 0.34181
 N729 N 0.68714 0.35763 0.32422
 N730 N 0.67585 0.35747 0.31311
 C731 C 0.67823 0.36993 0.30299
 C732 C 0.69166 0.37823 0.30812
 C733 C 0.69706 0.37018 0.32157
 H734 H 0.67080 0.37279 0.29269
 H735 H 0.70741 0.37323 0.32886
 Cu736 Cu 0.65926 0.34090 0.31313
 Cu737 Cu 0.68817 0.34158 0.34131
 Cu738 Cu 0.65858 0.31200 0.34130
 N739 N 0.64269 0.32431 0.31310
 N740 N 0.64253 0.31302 0.32421
 C741 C 0.62999 0.30309 0.32156
 C742 C 0.62193 0.30849 0.30811
 C743 C 0.63022 0.32192 0.30298
 H744 H 0.62694 0.29275 0.32886
 H745 H 0.62737 0.32935 0.29267
 N746 N 0.67585 0.31305 0.35757
 N747 N 0.68712 0.32430 0.35758
 C748 C 0.69710 0.32175 0.37011
 C749 C 0.69181 0.30832 0.37827
 C750 C 0.67838 0.30306 0.37010
 H751 H 0.70744 0.32907 0.37312
 H752 H 0.67105 0.29272 0.37310
 H753 H 0.67684 0.32335 0.32879
 H754 H 0.66386 0.33631 0.34174
 N755 N 0.68716 0.85779 0.82439
 N756 N 0.67588 0.85760 0.81326
 C757 C 0.67822 0.87010 0.80317
 C758 C 0.69164 0.87841 0.80831
 C759 C 0.69705 0.87036 0.82176
 H760 H 0.67078 0.87297 0.79288
 H761 H 0.70738 0.87344 0.82906
 Cu762 Cu 0.65930 0.84104 0.81328
 Cu763 Cu 0.68819 0.84174 0.84148
 Cu764 Cu 0.65858 0.81220 0.84152
 N765 N 0.64270 0.82447 0.81330
 N766 N 0.64251 0.81322 0.82445
 C767 C 0.62992 0.80334 0.82185
 C768 C 0.62187 0.80873 0.80840
 C769 C 0.63020 0.82213 0.80322
 H770 H 0.62685 0.79302 0.82917
 H771 H 0.62733 0.82956 0.79292
 N772 N 0.67588 0.81322 0.85776
 N773 N 0.68716 0.82446 0.85774
 C774 C 0.69714 0.82193 0.87028
 C775 C 0.69185 0.80852 0.87846
 C776 C 0.67841 0.80325 0.87031
 H777 H 0.70748 0.82926 0.87328
 H778 H 0.67106 0.79294 0.87333
 H779 H 0.67686 0.82347 0.82898
 H780 H 0.66387 0.83649 0.84187
 N781 N 0.18689 0.35751 0.82442
 N782 N 0.17562 0.35733 0.81331
 C783 C 0.17797 0.36981 0.80319
 C784 C 0.19139 0.37813 0.80833
 C785 C 0.19680 0.37008 0.82179
 H786 H 0.17053 0.37266 0.79290
 H787 H 0.20714 0.37314 0.82907
 Cu788 Cu 0.15905 0.34073 0.81325
 Cu789 Cu 0.18792 0.34144 0.84148
 Cu790 Cu 0.15832 0.31186 0.84149
 N791 N 0.14245 0.32417 0.81332
 N792 N 0.14226 0.31290 0.82444
 C793 C 0.12967 0.30301 0.82182
 C794 C 0.12162 0.30843 0.80837
 C795 C 0.12995 0.32183 0.80322
 H796 H 0.12660 0.29267 0.82911
 H797 H 0.12710 0.32928 0.79293
 N798 N 0.17563 0.31288 0.85772
 N799 N 0.18689 0.32414 0.85772
 C800 C 0.19687 0.32160 0.87025
 C801 C 0.19158 0.30819 0.87842
 C802 C 0.17816 0.30291 0.87026
 H803 H 0.20720 0.32894 0.87327
 H804 H 0.17082 0.29258 0.87328
 H805 H 0.17661 0.32316 0.82899
 H806 H 0.16360 0.33616 0.84188
 N807 N 0.18703 0.85775 0.32414
 N808 N 0.17574 0.85759 0.31302
 C809 C 0.17811 0.87005 0.30291
 C810 C 0.19152 0.87837 0.30805
 C811 C 0.19693 0.87032 0.32149
 H812 H 0.17067 0.87293 0.29262
 H813 H 0.20727 0.87339 0.32880
 Cu814 Cu 0.15916 0.84102 0.31300
 Cu815 Cu 0.18805 0.84172 0.34123
 Cu816 Cu 0.15844 0.81216 0.34125
 N817 N 0.14256 0.82446 0.31304
 N818 N 0.14239 0.81318 0.32418
 C819 C 0.12981 0.80329 0.32154
 C820 C 0.12175 0.80870 0.30809
 C821 C 0.13008 0.82211 0.30295
 H822 H 0.12673 0.79297 0.32885
 H823 H 0.12722 0.82954 0.29265
 N824 N 0.17574 0.81319 0.35750
 N825 N 0.18700 0.82445 0.35749
 C826 C 0.19699 0.82191 0.37003
 C827 C 0.19170 0.80849 0.37820
 C828 C 0.17827 0.80322 0.37004
 H829 H 0.20732 0.82924 0.37303
 H830 H 0.17093 0.79289 0.37305
 H831 H 0.17672 0.82347 0.32875
 H832 H 0.16373 0.83646 0.34166
 C833 C 0.25612 1.01475 0.24390
 C834 C 0.24409 1.01478 0.25584
 C835 C 0.23817 1.00011 0.26171
 C836 C 0.24409 0.98544 0.25583
 C837 C 0.25612 0.98543 0.24387
 C838 C 0.26204 1.00009 0.23801
 H839 H 0.27131 1.00010 0.22880
 H840 H 0.22890 1.00012 0.27092
 C841 C 0.25596 0.51464 0.74401
 C842 C 0.24393 0.51464 0.75598
 C843 C 0.23801 0.49998 0.76186
 C844 C 0.24391 0.48530 0.75598
 C845 C 0.25593 0.48530 0.74402
 C846 C 0.26186 0.49996 0.73814
 H847 H 0.27112 0.49994 0.72893
 H848 H 0.22874 0.49999 0.77107
 C849 C 0.75611 -0.01502 0.25612
 C850 C 0.74410 -0.01499 0.24417
 C851 C 0.73818 -0.00034 0.23826
 C852 C 0.74409 0.01432 0.24412
 C853 C 0.75612 0.01432 0.25608
 C854 C 0.76203 -0.00036 0.26198
 H855 H 0.77130 -0.00037 0.27118
 H856 H 0.72891 -0.00035 0.22905
 C857 C 0.75615 0.48515 0.75618
 C858 C 0.74413 0.48517 0.74421
 C859 C 0.73822 0.49985 0.73834
 C860 C 0.74413 0.51452 0.74422
 C861 C 0.75614 0.51451 0.75619
 C862 C 0.76205 0.49982 0.76206
 H863 H 0.77131 0.49981 0.77128
 H864 H 0.72896 0.49988 0.72912
 C865 C 0.25586 0.48524 0.25590
 C866 C 0.24384 0.48527 0.24394
 C867 C 0.23793 0.49994 0.23805
 C868 C 0.24383 0.51459 0.24392
 C869 C 0.25584 0.51458 0.25589
 C870 C 0.26176 0.49990 0.26178
 H871 H 0.27103 0.49989 0.27099
 H872 H 0.22866 0.49994 0.22884
 C873 C 0.75598 1.01491 0.74406
 C874 C 0.74396 1.01496 0.75603
 C875 C 0.73807 1.00026 0.76189
 C876 C 0.74400 0.98558 0.75599
 C877 C 0.75603 0.98557 0.74402
 C878 C 0.76191 1.00025 0.73816
 H879 H 0.77118 1.00026 0.72895
 H880 H 0.72881 1.00025 0.77110
 C881 C 0.75609 0.51476 0.24398
 C882 C 0.74408 0.51478 0.25595
 C883 C 0.73816 0.50011 0.26182
 C884 C 0.74408 0.48544 0.25592
 C885 C 0.75610 0.48544 0.24396
 C886 C 0.76201 0.50010 0.23809
 H887 H 0.77127 0.50011 0.22888
 H888 H 0.72890 0.50011 0.27103
 C889 C 0.25620 -0.01506 0.75598
 C890 C 0.24415 -0.01501 0.74405
 C891 C 0.23819 -0.00035 0.73817
 C892 C 0.24407 0.01433 0.74402
 C893 C 0.25612 0.01432 0.75597
 C894 C 0.26208 -0.00037 0.76184
 H895 H 0.27136 -0.00036 0.77103
 H896 H 0.22890 -0.00036 0.72898
 C897 C 0.24395 0.25593 1.01483
 C898 C 0.25592 0.24388 1.01483
 C899 C 0.26181 0.23795 1.00019
 C900 C 0.25591 0.24385 0.98553
 C901 C 0.24393 0.25590 0.98553
 C902 C 0.23805 0.26183 1.00018
 H903 H 0.22882 0.27111 1.00017
 H904 H 0.27103 0.22867 1.00019
 C905 C 0.24404 0.75620 0.51459
 C906 C 0.25603 0.74416 0.51460
 C907 C 0.26191 0.73823 0.49996
 C908 C 0.25601 0.74414 0.48531
 C909 C 0.24402 0.75617 0.48531
 C910 C 0.23814 0.76210 0.49994
 H911 H 0.22891 0.77138 0.49994
 H912 H 0.27114 0.72896 0.49996
 C913 C 0.25627 0.75598 -0.01481
 C914 C 0.24424 0.74400 -0.01480
 C915 C 0.23831 0.73812 -0.00015
 C916 C 0.24419 0.74402 0.01449
 C917 C 0.25621 0.75599 0.01449
 C918 C 0.26215 0.76187 -0.00015
 H919 H 0.27141 0.77109 -0.00015
 H920 H 0.22904 0.72890 -0.00015
 C921 C 0.25595 0.25594 0.48539
 C922 C 0.24395 0.24394 0.48538
 C923 C 0.23804 0.23804 0.50003
 C924 C 0.24393 0.24393 0.51468
 C925 C 0.25593 0.25593 0.51468
 C926 C 0.26184 0.26183 0.50004
 H927 H 0.27108 0.27107 0.50004
 H928 H 0.22880 0.22880 0.50003
 C929 C 0.74405 0.75608 1.01485
 C930 C 0.75603 0.74403 1.01485
 C931 C 0.76193 0.73812 1.00021
 C932 C 0.75605 0.74405 0.98557
 C933 C 0.74407 0.75609 0.98557
 C934 C 0.73817 0.76201 1.00020
 H935 H 0.72895 0.77129 1.00020
 H936 H 0.77115 0.72884 1.00021
 C937 C 0.74393 0.25582 0.51466
 C938 C 0.75592 0.24378 0.51466
 C939 C 0.76183 0.23787 0.50002
 C940 C 0.75595 0.24379 0.48538
 C941 C 0.74397 0.25583 0.48537
 C942 C 0.73806 0.26174 0.50001
 H943 H 0.72882 0.27102 0.50000
 H944 H 0.77106 0.22860 0.50003
 C945 C 0.75594 0.25617 -0.01473
 C946 C 0.74396 0.24414 -0.01473
 C947 C 0.73809 0.23821 -0.00008
 C948 C 0.74399 0.24410 0.01457
 C949 C 0.75597 0.25612 0.01457
 C950 C 0.76184 0.26206 -0.00008
 H951 H 0.77106 0.27132 -0.00008
 H952 H 0.72887 0.22895 -0.00007
 C953 C 0.75592 0.75616 0.48533
 C954 C 0.74393 0.74414 0.48534
 C955 C 0.73805 0.73823 0.49999
 C956 C 0.74394 0.74413 0.51463
 C957 C 0.75593 0.75613 0.51462
 C958 C 0.76182 0.76205 0.49997
 H959 H 0.77105 0.77130 0.49997
 H960 H 0.72881 0.72898 0.50000
 C961 C 1.01472 0.24411 0.25598
 C962 C 1.01471 0.25617 0.24405
 C963 C 1.00003 0.26207 0.23818
 C964 C 0.98537 0.25611 0.24405
 C965 C 0.98538 0.24406 0.25597
 C966 C 1.00006 0.23816 0.26184
 H967 H 1.00008 0.22887 0.27103
 H968 H 1.00001 0.27136 0.22900
 C969 C 0.51458 0.24385 0.75601
 C970 C 0.51457 0.25587 0.74405
 C971 C 0.49988 0.26176 0.73818
 C972 C 0.48521 0.25584 0.74406
 C973 C 0.48521 0.24382 0.75602
 C974 C 0.49990 0.23792 0.76190
 H975 H 0.49992 0.22866 0.77111
 H976 H 0.49986 0.27103 0.72897
 C977 C -0.01497 0.25599 0.75601
 C978 C -0.01496 0.24394 0.74409
 C979 C -0.00027 0.23802 0.73823
 C980 C 0.01441 0.24394 0.74409
 C981 C 0.01441 0.25598 0.75602
 C982 C -0.00028 0.26191 0.76187
 H983 H -0.00030 0.27119 0.77106
 H984 H -0.00026 0.22874 0.72905
 C985 C 0.48536 0.25575 0.25601
 C986 C 0.48537 0.24371 0.24407
 C987 C 0.50006 0.23781 0.23820
 C988 C 0.51474 0.24375 0.24405
 C989 C 0.51473 0.25579 0.25599
 C990 C 0.50004 0.26169 0.26186
 H991 H 0.50002 0.27096 0.27105
 H992 H 0.50007 0.22854 0.22901
 C993 C 1.01483 0.74421 0.75598
 C994 C 1.01481 0.75625 0.74403
 C995 C 1.00013 0.76215 0.73816
 C996 C 0.98546 0.75621 0.74404
 C997 C 0.98548 0.74419 0.75600
 C998 C 1.00016 0.73828 0.76186
 H999 H 1.00018 0.72901 0.77106
 H1000 H 1.00010 0.77142 0.72895
 C1001 C 0.51469 0.74414 0.25601
 C1002 C 0.51469 0.75618 0.24408
 C1003 C 0.50001 0.76208 0.23819
 C1004 C 0.48535 0.75613 0.24406
 C1005 C 0.48536 0.74410 0.25601
 C1006 C 0.50003 0.73820 0.26188
 H1007 H 0.50005 0.72892 0.27108
 H1008 H 0.50000 0.77136 0.22900
 C1009 C -0.01487 0.75609 0.25598
 C1010 C -0.01487 0.74404 0.24406
 C1011 C -0.00017 0.73814 0.23819
 C1012 C 0.01451 0.74407 0.24403
 C1013 C 0.01450 0.75612 0.25596
 C1014 C -0.00019 0.76203 0.26183
 H1015 H -0.00020 0.77131 0.27101
 H1016 H -0.00017 0.72885 0.22901
 C1017 C 0.48523 0.75623 0.75617
 C1018 C 0.48524 0.74420 0.74422
 C1019 C 0.49993 0.73830 0.73835
 C1020 C 0.51461 0.74422 0.74422
 C1021 C 0.51461 0.75624 0.75617
 C1022 C 0.49991 0.76214 0.76204
 H1023 H 0.49989 0.77140 0.77124
 H1024 H 0.49994 0.72904 0.72915
 C1025 C 0.41857 0.28815 0.28799
 C1026 C 0.43052 0.30053 0.28123
 C1027 C 0.44393 0.29377 0.27457
 C1028 C 0.44407 0.27529 0.27533
 C1029 C 0.42830 0.27009 0.26723
 C1030 C 0.41489 0.27682 0.27390
 C1031 C 0.42844 0.27797 0.29985
 C1032 C 0.44184 0.27121 0.29320
 C1033 C 0.40414 0.29542 0.29512
 C1034 C 0.39227 0.30136 0.30102
 C1035 C 0.45852 0.26803 0.26817
 C1036 C 0.47059 0.26227 0.26248
 H1037 H 0.42861 0.31346 0.28162
 H1038 H 0.45351 0.30091 0.26927
 H1039 H 0.42773 0.26201 0.25705
 H1040 H 0.40283 0.27436 0.26948
 H1041 H 0.42520 0.27626 0.31239
 H1042 H 0.45010 0.26371 0.30003
 C1043 C 0.41838 0.78860 0.78819
 C1044 C 0.42856 0.77887 0.80017
 C1045 C 0.44197 0.77212 0.79351
 C1046 C 0.44390 0.77576 0.77551
 C1047 C 0.44348 0.79421 0.77428
 C1048 C 0.43007 0.80096 0.78094
 C1049 C 0.41469 0.77685 0.77445
 C1050 C 0.42810 0.77013 0.76778
 C1051 C 0.40392 0.79586 0.79533
 C1052 C 0.39201 0.80176 0.80121
 C1053 C 0.45837 0.76851 0.76835
 C1054 C 0.47045 0.76275 0.76265
 H1055 H 0.42551 0.77743 0.81279
 H1056 H 0.45041 0.76490 0.80042
 H1057 H 0.45289 0.80134 0.76866
 H1058 H 0.42798 0.81387 0.78102
 H1059 H 0.40260 0.77410 0.77027
 H1060 H 0.42750 0.76174 0.75785
 C1061 C -0.08170 0.28864 0.78792
 C1062 C -0.07076 0.30075 0.77925
 C1063 C -0.05737 0.29393 0.77261
 C1064 C -0.05624 0.27567 0.77528
 C1065 C -0.07211 0.26890 0.76867
 C1066 C -0.08549 0.27570 0.77531
 C1067 C -0.07074 0.28024 0.80021
 C1068 C -0.05735 0.27342 0.79357
 C1069 C -0.09611 0.29595 0.79507
 C1070 C -0.10797 0.30189 0.80098
 C1071 C -0.04180 0.26835 0.76814
 C1072 C -0.02974 0.26255 0.76246
 H1073 H -0.07330 0.31355 0.77840
 H1074 H -0.04844 0.30090 0.76608
 H1075 H -0.07278 0.25964 0.75956
 H1076 H -0.09762 0.27220 0.77188
 H1077 H -0.07328 0.27969 0.81301
 H1078 H -0.04842 0.26704 0.80068
 C1079 C -0.08164 0.78859 0.28795
 C1080 C -0.07068 0.78019 0.30025
 C1081 C -0.05728 0.77341 0.29361
 C1082 C -0.05615 0.77568 0.27532
 C1083 C -0.05731 0.79395 0.27268
 C1084 C -0.07071 0.80073 0.27931
 C1085 C -0.08540 0.77566 0.27532
 C1086 C -0.07199 0.76889 0.26870
 C1087 C -0.09609 0.79587 0.29506
 C1088 C -0.10797 0.80180 0.30093
 C1089 C -0.04170 0.76840 0.26817
 C1090 C -0.02964 0.76262 0.26246
 H1091 H -0.07324 0.77961 0.31303
 H1092 H -0.04834 0.76702 0.30071
 H1093 H -0.04838 0.80094 0.26618
 H1094 H -0.07327 0.81354 0.27850
 H1095 H -0.09752 0.77211 0.27191
 H1096 H -0.07264 0.75958 0.25965
 C1097 C 0.58153 0.71190 0.28787
 C1098 C 0.57381 0.70153 0.27469
 C1099 C 0.56040 0.70828 0.26804
 C1100 C 0.55602 0.72474 0.27524
 C1101 C 0.57124 0.73505 0.27328
 C1102 C 0.58465 0.72829 0.27992
 C1103 C 0.56796 0.71499 0.30004
 C1104 C 0.55455 0.72175 0.29340
 C1105 C 0.59596 0.70463 0.29502
 C1106 C 0.60780 0.69867 0.30095
 C1107 C 0.54155 0.73194 0.26813
 C1108 C 0.52946 0.73765 0.26247
 H1109 H 0.57843 0.68987 0.27097
 H1110 H 0.55352 0.70241 0.25862
 H1111 H 0.57144 0.74666 0.26726
 H1112 H 0.59636 0.73411 0.27960
 H1113 H 0.56880 0.71211 0.31275
 H1114 H 0.54389 0.72464 0.30041
 C1115 C 0.58137 0.21148 0.78806
 C1116 C 0.58511 0.22426 0.77527
 C1117 C 0.57170 0.23100 0.76863
 C1118 C 0.55586 0.22433 0.77539
 C1119 C 0.55706 0.22679 0.79364
 C1120 C 0.57048 0.22003 0.80031
 C1121 C 0.57037 0.19928 0.77961
 C1122 C 0.55696 0.20603 0.77295
 C1123 C 0.59583 0.20424 0.79520
 C1124 C 0.60774 0.19836 0.80107
 C1125 C 0.54141 0.23158 0.76821
 C1126 C 0.52935 0.23733 0.76250
 H1127 H 0.59722 0.22774 0.77176
 H1128 H 0.57234 0.24020 0.75946
 H1129 H 0.54818 0.23328 0.80071
 H1130 H 0.57308 0.22075 0.81308
 H1131 H 0.57290 0.18646 0.77890
 H1132 H 0.54800 0.19900 0.76654
 C1133 C 1.08150 0.71173 0.78804
 C1134 C 1.07055 0.72020 0.80029
 C1135 C 1.05716 0.72698 0.79361
 C1136 C 1.05605 0.72464 0.77534
 C1137 C 1.05717 0.70635 0.77279
 C1138 C 1.07055 0.69957 0.77946
 C1139 C 1.08530 0.72459 0.77536
 C1140 C 1.07192 0.73136 0.76869
 C1141 C 1.09590 0.70446 0.79522
 C1142 C 1.10776 0.69855 0.80115
 C1143 C 1.04164 0.73192 0.76816
 C1144 C 1.02959 0.73769 0.76245
 H1145 H 1.07310 0.72083 0.81308
 H1146 H 1.04823 0.73341 0.80068
 H1147 H 1.04824 0.69936 0.76630
 H1148 H 1.07310 0.68676 0.77869
 H1149 H 1.09743 0.72809 0.77191
 H1150 H 1.07258 0.74063 0.75958
 C1151 C 1.08150 0.21175 0.28791
 C1152 C 1.07296 0.20079 0.27575
 C1153 C 1.05956 0.20757 0.26910
 C1154 C 1.05601 0.22463 0.27527
 C1155 C 1.07149 0.23421 0.27212
 C1156 C 1.08490 0.22742 0.27874
 C1157 C 1.06849 0.21619 0.30028
 C1158 C 1.05509 0.22296 0.29363
 C1159 C 1.09593 0.20450 0.29507
 C1160 C 1.10781 0.19863 0.30101
 C1161 C 1.04156 0.23187 0.26813
 C1162 C 1.02949 0.23761 0.26245
 H1163 H 1.07704 0.18875 0.27268
 H1164 H 1.05215 0.20132 0.26034
 H1165 H 1.07186 0.24544 0.26550
 H1166 H 1.09678 0.23281 0.27766
 H1167 H 1.06972 0.21421 0.31312
 H1168 H 1.04483 0.22678 0.30078
 C1169 C 0.58132 0.28830 0.71201
 C1170 C 0.57038 0.30046 0.72064
 C1171 C 0.55698 0.29370 0.72729
 C1172 C 0.55582 0.27543 0.72465
 C1173 C 0.57167 0.26862 0.73127
 C1174 C 0.58507 0.27536 0.72464
 C1175 C 0.57035 0.27993 0.69972
 C1176 C 0.55694 0.27317 0.70637
 C1177 C 0.59576 0.29556 0.70489
 C1178 C 0.60765 0.30147 0.69901
 C1179 C 0.54137 0.26817 0.73183
 C1180 C 0.52932 0.26240 0.73755
 H1181 H 0.57295 0.31326 0.72146
 H1182 H 0.54806 0.30071 0.73379
 H1183 H 0.57232 0.25930 0.74033
 H1184 H 0.59719 0.27178 0.72805
 H1185 H 0.57291 0.27933 0.68693
 H1186 H 0.54801 0.26680 0.69927
 C1187 C 0.58153 0.78854 0.21231
 C1188 C 0.58510 0.77349 0.22246
 C1189 C 0.57169 0.76673 0.22909
 C1190 C 0.55604 0.77568 0.22494
 C1191 C 0.55564 0.77631 0.20649
 C1192 C 0.56904 0.78307 0.19986
 C1193 C 0.57233 0.79992 0.22360
 C1194 C 0.55892 0.79315 0.23024
 C1195 C 0.59595 0.79579 0.20511
 C1196 C 0.60777 0.80170 0.19910
 C1197 C 0.54156 0.76845 0.23203
 C1198 C 0.52946 0.76271 0.23766
 H1199 H 0.59709 0.76857 0.22425
 H1200 H 0.57219 0.75600 0.23654
 H1201 H 0.54568 0.77189 0.19927
 H1202 H 0.57057 0.78444 0.18697
 H1203 H 0.57597 0.81222 0.22610
 H1204 H 0.55108 0.79967 0.23842
 C1205 C 1.08148 0.28865 0.21221
 C1206 C 1.07149 0.27873 0.20025
 C1207 C 1.05809 0.27195 0.20688
 C1208 C 1.05600 0.27574 0.22483
 C1209 C 1.05624 0.29421 0.22587
 C1210 C 1.06963 0.30099 0.21924
 C1211 C 1.08519 0.27705 0.22610
 C1212 C 1.07180 0.27027 0.23272
 C1213 C 1.09589 0.29592 0.20505
 C1214 C 1.10774 0.30182 0.19909
 C1215 C 1.04154 0.26848 0.23195
 C1216 C 1.02947 0.26272 0.23761
 H1217 H 1.07466 0.27719 0.18768
 H1218 H 1.04978 0.26460 0.19999
 H1219 H 1.04670 0.30133 0.23130
 H1220 H 1.07158 0.31392 0.21900
 H1221 H 1.09728 0.27438 0.23035
 H1222 H 1.07241 0.26177 0.24259
 C1223 C 1.08150 0.78875 0.71200
 C1224 C 1.07054 0.80091 0.72060
 C1225 C 1.05716 0.79413 0.72726
 C1226 C 1.05604 0.77586 0.72468
 C1227 C 1.07191 0.76910 0.73132
 C1228 C 1.08530 0.77586 0.72467
 C1229 C 1.07056 0.78032 0.69974
 C1230 C 1.05717 0.77354 0.70640
 C1231 C 1.09591 0.79599 0.70482
 C1232 C 1.10778 0.80187 0.69888
 C1233 C 1.04162 0.76857 0.73185
 C1234 C 1.02957 0.76279 0.73755
 H1235 H 1.07308 0.81371 0.72140
 H1236 H 1.04822 0.80113 0.73376
 H1237 H 1.07259 0.75981 0.74041
 H1238 H 1.09743 0.77234 0.72811
 H1239 H 1.07312 0.77971 0.68695
 H1240 H 1.04826 0.76713 0.69932
 C1241 C 0.41854 0.71174 0.71211
 C1242 C 0.42915 0.72079 0.69998
 C1243 C 0.44252 0.72755 0.70667
 C1244 C 0.44399 0.72462 0.72484
 C1245 C 0.44321 0.70625 0.72680
 C1246 C 0.42983 0.69948 0.72012
 C1247 C 0.41474 0.72412 0.72528
 C1248 C 0.42811 0.73086 0.73197
 C1249 C 0.40411 0.70449 0.70492
 C1250 C 0.39225 0.69858 0.69899
 C1251 C 0.45842 0.73189 0.73203
 C1252 C 0.47047 0.73767 0.73774
 H1253 H 0.42641 0.72176 0.68725
 H1254 H 0.45124 0.73432 0.69966
 H1255 H 0.45236 0.69918 0.73292
 H1256 H 0.42752 0.68662 0.72052
 H1257 H 0.40261 0.72727 0.72906
 H1258 H 0.42744 0.73968 0.74151
 C1259 C 0.41861 0.21125 0.21215
 C1260 C 0.42938 0.21997 0.19993
 C1261 C 0.44277 0.22673 0.20658
 C1262 C 0.44408 0.22412 0.22481
 C1263 C 0.44313 0.20579 0.22710
 C1264 C 0.42973 0.19903 0.22045
 C1265 C 0.41483 0.22390 0.22507
 C1266 C 0.42822 0.23063 0.23172
 C1267 C 0.40418 0.20402 0.20497
 C1268 C 0.39232 0.19815 0.19903
 C1269 C 0.45853 0.23139 0.23195
 C1270 C 0.47060 0.23716 0.23763
 H1271 H 0.42672 0.22075 0.18717
 H1272 H 0.45159 0.23329 0.19951
 H1273 H 0.45217 0.19874 0.23341
 H1274 H 0.42729 0.18620 0.22107
 H1275 H 0.40271 0.22721 0.22871
 H1276 H 0.42756 0.23963 0.24110
 C1277 C -0.08157 0.71142 0.21216
 C1278 C -0.08537 0.72430 0.22483
 C1279 C -0.07199 0.73109 0.23145
 C1280 C -0.05612 0.72436 0.22479
 C1281 C -0.05728 0.72668 0.20651
 C1282 C -0.07066 0.71988 0.19987
 C1283 C -0.07057 0.69928 0.22075
 C1284 C -0.05719 0.70608 0.22739
 C1285 C -0.09599 0.70417 0.20501
 C1286 C -0.10785 0.69830 0.19907
 C1287 C -0.04168 0.73168 0.23194
 C1288 C -0.02963 0.73748 0.23761
 H1289 H -0.09750 0.72778 0.22828
 H1290 H -0.07268 0.74037 0.24054
 H1291 H -0.04839 0.73311 0.19941
 H1292 H -0.07324 0.72049 0.18709
 H1293 H -0.07309 0.68647 0.22157
 H1294 H -0.04823 0.69910 0.23387
 C1295 C -0.08165 0.21142 0.71210
 C1296 C -0.08543 0.22328 0.72573
 C1297 C -0.07205 0.23003 0.73239
 C1298 C -0.05621 0.22432 0.72477
 C1299 C -0.05806 0.22783 0.70674
 C1300 C -0.07144 0.22105 0.70008
 C1301 C -0.07000 0.19910 0.71949
 C1302 C -0.05662 0.20588 0.72614
 C1303 C -0.09606 0.20416 0.70492
 C1304 C -0.10791 0.19827 0.69897
 C1305 C -0.04177 0.23161 0.73193
 C1306 C -0.02972 0.23740 0.73762
 H1307 H -0.09753 0.22607 0.72984
 H1308 H -0.07270 0.23852 0.74223
 H1309 H -0.04960 0.23498 0.69980
 H1310 H -0.07445 0.22240 0.68745
 H1311 H -0.07209 0.18619 0.71951
 H1312 H -0.04723 0.19878 0.73186
 C1313 C 0.28821 0.41843 0.28791
 C1314 C 0.27975 0.42937 0.30017
 C1315 C 0.27299 0.44277 0.29351
 C1316 C 0.27535 0.44392 0.27524
 C1317 C 0.26859 0.42809 0.26858
 C1318 C 0.27534 0.41469 0.27522
 C1319 C 0.30040 0.42937 0.27934
 C1320 C 0.29364 0.44277 0.27268
 C1321 C 0.29547 0.40400 0.29505
 C1322 C 0.30140 0.39213 0.30095
 C1323 C 0.26810 0.45838 0.26807
 C1324 C 0.26237 0.47046 0.26238
 H1325 H 0.27911 0.42680 0.31296
 H1326 H 0.26655 0.45169 0.30059
 H1327 H 0.25932 0.42745 0.25948
 H1328 H 0.27181 0.40258 0.27178
 H1329 H 0.31321 0.42680 0.27856
 H1330 H 0.30066 0.45168 0.26619
 C1331 C 0.28870 -0.08211 0.78778
 C1332 C 0.28951 -0.06719 0.79864
 C1333 C 0.28271 -0.05379 0.79199
 C1334 C 0.27574 -0.05659 0.77512
 C1335 C 0.26393 -0.07068 0.77710
 C1336 C 0.27074 -0.08408 0.78375
 C1337 C 0.29662 -0.07688 0.77193
 C1338 C 0.28981 -0.06348 0.76528
 C1339 C 0.29603 -0.09658 0.79498
 C1340 C 0.30199 -0.10845 0.80095
 C1341 C 0.26848 -0.04204 0.76802
 C1342 C 0.26275 -0.02989 0.76241
 H1343 H 0.29496 -0.06714 0.81050
 H1344 H 0.28233 -0.04229 0.79818
 H1345 H 0.25134 -0.07017 0.77360
 H1346 H 0.26395 -0.09503 0.78597
 H1347 H 0.30671 -0.08313 0.76643
 H1348 H 0.29407 -0.05827 0.75409
 C1349 C 0.78856 0.41841 0.78826
 C1350 C 0.77947 0.42899 0.80039
 C1351 C 0.77272 0.44238 0.79371
 C1352 C 0.77571 0.44389 0.77556
 C1353 C 0.76948 0.42806 0.76838
 C1354 C 0.77622 0.41466 0.77505
 C1355 C 0.80086 0.42970 0.78032
 C1356 C 0.79410 0.44310 0.77364
 C1357 C 0.79580 0.40398 0.79544
 C1358 C 0.80168 0.39210 0.80138
 C1359 C 0.76844 0.45833 0.76837
 C1360 C 0.76268 0.47039 0.76266
 H1361 H 0.77843 0.42619 0.81310
 H1362 H 0.76590 0.45107 0.80071
 H1363 H 0.76063 0.42743 0.75886
 H1364 H 0.77307 0.40256 0.77124
 H1365 H 0.81373 0.42736 0.77994
 H1366 H 0.80118 0.45225 0.76756
 C1367 C 0.78829 -0.08193 0.28802
 C1368 C 0.77086 -0.08443 0.28235
 C1369 C 0.76411 -0.07102 0.27567
 C1370 C 0.77545 -0.05644 0.27534
 C1371 C 0.79061 -0.06232 0.26651
 C1372 C 0.79735 -0.07572 0.27318
 C1373 C 0.78753 -0.06751 0.29953
 C1374 C 0.78078 -0.05410 0.29286
 C1375 C 0.79556 -0.09636 0.29521
 C1376 C 0.80152 -0.10819 0.30117
 C1377 C 0.76827 -0.04193 0.26822
 C1378 C 0.76260 -0.02981 0.26258
 H1379 H 0.76437 -0.09572 0.28353
 H1380 H 0.75185 -0.07083 0.27110
 H1381 H 0.79562 -0.05645 0.25597
 H1382 H 0.80816 -0.08132 0.26837
 H1383 H 0.79193 -0.06778 0.31182
 H1384 H 0.77940 -0.04290 0.29945
 C1385 C 0.28835 0.58140 0.71197
 C1386 C 0.27684 0.58508 0.72594
 C1387 C 0.27010 0.57168 0.73259
 C1388 C 0.27550 0.55591 0.72464
 C1389 C 0.29398 0.55614 0.72557
 C1390 C 0.30073 0.56953 0.71892
 C1391 C 0.27834 0.57143 0.70007
 C1392 C 0.27158 0.55803 0.70673
 C1393 C 0.29559 0.59584 0.70482
 C1394 C 0.30147 0.60773 0.69891
 C1395 C 0.26824 0.54145 0.73181
 C1396 C 0.26249 0.52940 0.73752
 H1397 H 0.27421 0.59715 0.73024
 H1398 H 0.26176 0.57228 0.74256
 H1399 H 0.30113 0.54661 0.73099
 H1400 H 0.31367 0.57149 0.71863
 H1401 H 0.27670 0.57462 0.68751
 H1402 H 0.26417 0.54974 0.69987
 C1403 C 0.28846 1.08136 0.21195
 C1404 C 0.27911 1.07099 0.19986
 C1405 C 0.27236 1.05761 0.20653
 C1406 C 0.27564 1.05592 0.22462
 C1407 C 0.26966 1.07173 0.23206
 C1408 C 0.27637 1.08512 0.22539
 C1409 C 0.30081 1.06989 0.21958
 C1410 C 0.29406 1.05650 0.22624
 C1411 C 0.29570 1.09574 0.20480
 C1412 C 0.30159 1.10758 0.19889
 C1413 C 0.26840 1.04151 0.23176
 C1414 C 0.26265 1.02948 0.23744
 H1415 H 0.27793 1.07389 0.18719
 H1416 H 0.26540 1.04903 0.19956
 H1417 H 0.26106 1.07236 0.24183
 H1418 H 0.27342 1.09721 0.22938
 H1419 H 0.31370 1.07211 0.21976
 H1420 H 0.30118 1.04723 0.23212
 C1421 C 0.78845 0.58136 0.21195
 C1422 C 0.78003 0.57043 0.19968
 C1423 C 0.77328 0.55704 0.20635
 C1424 C 0.77561 0.55593 0.22463
 C1425 C 0.76882 0.57177 0.23126
 C1426 C 0.77556 0.58515 0.22461
 C1427 C 0.80065 0.57045 0.22055
 C1428 C 0.79390 0.55706 0.22721
 C1429 C 0.79565 0.59576 0.20480
 C1430 C 0.80150 0.60762 0.19890
 C1431 C 0.76836 0.54152 0.23180
 C1432 C 0.76261 0.52949 0.23751
 H1433 H 0.77940 0.57300 0.18690
 H1434 H 0.76687 0.54813 0.19927
 H1435 H 0.75954 0.57242 0.24035
 H1436 H 0.77202 0.59726 0.22805
 H1437 H 0.81346 0.57302 0.22135
 H1438 H 0.80092 0.54815 0.23372
 C1439 C 0.78841 1.08136 0.71190
 C1440 C 0.77984 1.07051 0.69967
 C1441 C 0.77308 1.05714 0.70635
 C1442 C 0.77556 1.05596 0.72460
 C1443 C 0.76890 1.07181 0.73135
 C1444 C 0.77565 1.08518 0.72468
 C1445 C 0.80064 1.07036 0.72035
 C1446 C 0.79387 1.05699 0.72703
 C1447 C 0.79564 1.09574 0.70474
 C1448 C 0.80151 1.10758 0.69883
 C1449 C 0.76829 1.04160 0.73180
 C1450 C 0.76251 1.02961 0.73755
 H1451 H 0.77913 1.07312 0.68689
 H1452 H 0.76659 1.04826 0.69929
 H1453 H 0.75971 1.07248 0.74054
 H1454 H 0.77220 1.09730 0.72819
 H1455 H 0.81346 1.07286 0.72103
 H1456 H 0.80091 1.04801 0.73343
 C1457 C 0.71173 0.58156 0.28797
 C1458 C 0.72452 0.58532 0.27518
 C1459 C 0.73126 0.57193 0.26853
 C1460 C 0.72460 0.55609 0.27529
 C1461 C 0.70629 0.55718 0.27285
 C1462 C 0.69952 0.57058 0.27951
 C1463 C 0.72031 0.57068 0.30021
 C1464 C 0.72707 0.55729 0.29354
 C1465 C 0.70448 0.59599 0.29511
 C1466 C 0.69857 0.60786 0.30102
 C1467 C 0.73184 0.54163 0.26813
 C1468 C 0.73757 0.52955 0.26243
 H1469 H 0.72798 0.59743 0.27167
 H1470 H 0.74046 0.57258 0.25936
 H1471 H 0.69926 0.54823 0.26643
 H1472 H 0.68670 0.57310 0.27881
 H1473 H 0.72103 0.57328 0.31298
 H1474 H 0.73359 0.54841 0.30060
 C1475 C 0.71156 1.08191 0.78810
 C1476 C 0.71998 1.07090 0.80034
 C1477 C 0.72674 1.05750 0.79366
 C1478 C 0.72444 1.05640 0.77538
 C1479 C 0.73124 1.07225 0.76877
 C1480 C 0.72449 1.08565 0.77544
 C1481 C 0.69939 1.07101 0.77947
 C1482 C 0.70615 1.05761 0.77279
 C1483 C 0.70432 1.09638 0.79531
 C1484 C 0.69843 1.10828 0.80126
 C1485 C 0.73170 1.04189 0.76820
 C1486 C 0.73743 1.02978 0.76251
 H1487 H 0.72060 1.07342 0.81313
 H1488 H 0.73316 1.04856 0.80073
 H1489 H 0.74053 1.07291 0.75969
 H1490 H 0.72804 1.09776 0.77201
 H1491 H 0.68658 1.07359 0.77865
 H1492 H 0.69914 1.04873 0.76626
 C1493 C 0.21155 0.58137 0.78799
 C1494 C 0.19987 0.57169 0.77745
 C1495 C 0.20663 0.55830 0.77079
 C1496 C 0.22442 0.55590 0.77532
 C1497 C 0.22467 0.55588 0.79378
 C1498 C 0.21792 0.56927 0.80044
 C1499 C 0.22601 0.58502 0.77709
 C1500 C 0.23277 0.57163 0.77045
 C1501 C 0.20431 0.59579 0.79517
 C1502 C 0.19843 0.60765 0.80112
 C1503 C 0.23167 0.54146 0.76816
 C1504 C 0.23742 0.52940 0.76246
 H1505 H 0.18739 0.57505 0.77542
 H1506 H 0.19994 0.55017 0.76306
 H1507 H 0.22976 0.54621 0.80098
 H1508 H 0.21722 0.57109 0.81334
 H1509 H 0.23060 0.59706 0.77485
 H1510 H 0.24317 0.57219 0.76263
 C1511 C 0.21178 1.08158 0.28784
 C1512 C 0.22184 1.07160 0.29971
 C1513 C 0.22860 1.05822 0.29303
 C1514 C 0.22462 1.05612 0.27512
 C1515 C 0.22996 1.07190 0.26714
 C1516 C 0.22324 1.08529 0.27384
 C1517 C 0.19939 1.06974 0.28093
 C1518 C 0.20614 1.05635 0.27425
 C1519 C 0.20454 1.09600 0.29504
 C1520 C 0.19866 1.10787 0.30098
 C1521 C 0.23186 1.04165 0.26797
 C1522 C 0.23758 1.02956 0.26230
 H1523 H 0.22348 1.07475 0.31227
 H1524 H 0.23603 1.04991 0.29986
 H1525 H 0.23810 1.07250 0.25700
 H1526 H 0.22576 1.09736 0.26949
 H1527 H 0.18645 1.07172 0.28123
 H1528 H 0.19899 1.04685 0.26882
 C1529 C 0.71169 0.41848 0.71211
 C1530 C 0.72455 0.41469 0.72482
 C1531 C 0.73129 0.42807 0.73148
 C1532 C 0.72457 0.44393 0.72480
 C1533 C 0.70627 0.44283 0.72733
 C1534 C 0.69950 0.42945 0.72066
 C1535 C 0.72018 0.42941 0.69986
 C1536 C 0.72694 0.44279 0.70653
 C1537 C 0.70442 0.40405 0.70496
 C1538 C 0.69850 0.39219 0.69906
 C1539 C 0.73184 0.45836 0.73198
 C1540 C 0.73760 0.47041 0.73771
 H1541 H 0.72805 0.40258 0.72829
 H1542 H 0.74051 0.42740 0.74064
 H1543 H 0.69924 0.45177 0.73379
 H1544 H 0.68668 0.42693 0.72141
 H1545 H 0.72082 0.42685 0.68707
 H1546 H 0.73338 0.45170 0.69945
 C1547 C 0.71182 -0.08164 0.21227
 C1548 C 0.72856 -0.08467 0.21955
 C1549 C 0.73532 -0.07130 0.22624
 C1550 C 0.72467 -0.05623 0.22497
 C1551 C 0.70855 -0.06102 0.23267
 C1552 C 0.70180 -0.07439 0.22599
 C1553 C 0.71423 -0.06779 0.20029
 C1554 C 0.72099 -0.05443 0.20696
 C1555 C 0.70457 -0.09599 0.20506
 C1556 C 0.69863 -0.10777 0.19906
 C1557 C 0.73188 -0.04180 0.23209
 C1558 C 0.73759 -0.02974 0.23773
 H1559 H 0.73457 -0.09629 0.21944
 H1560 H 0.74712 -0.07146 0.23187
 H1561 H 0.70291 -0.05446 0.24246
 H1562 H 0.69037 -0.07929 0.23005
 H1563 H 0.71089 -0.06842 0.18769
 H1564 H 0.72343 -0.04359 0.20006
 C1565 C 0.21149 0.41869 0.21191
 C1566 C 0.19927 0.42964 0.22044
 C1567 C 0.20603 0.44302 0.22710
 C1568 C 0.22433 0.44412 0.22457
 C1569 C 0.22673 0.44297 0.20631
 C1570 C 0.21998 0.42959 0.19965
 C1571 C 0.22433 0.41490 0.22463
 C1572 C 0.23107 0.42828 0.23127
 C1573 C 0.20427 0.40430 0.20477
 C1574 C 0.19840 0.39245 0.19886
 C1575 C 0.23158 0.45852 0.23174
 C1576 C 0.23733 0.47055 0.23745
 H1577 H 0.18646 0.42710 0.22120
 H1578 H 0.19900 0.45196 0.23356
 H1579 H 0.23318 0.45187 0.19923
 H1580 H 0.22065 0.42701 0.18687
 H1581 H 0.22784 0.40278 0.22810
 H1582 H 0.24031 0.42762 0.24040
 C1583 C 0.21179 -0.08151 0.71200
 C1584 C 0.22850 -0.08457 0.71933
 C1585 C 0.23527 -0.07122 0.72602
 C1586 C 0.22465 -0.05613 0.72472
 C1587 C 0.20850 -0.06088 0.73238
 C1588 C 0.20174 -0.07423 0.72569
 C1589 C 0.21426 -0.06767 0.70002
 C1590 C 0.22103 -0.05431 0.70671
 C1591 C 0.20453 -0.09586 0.70481
 C1592 C 0.19860 -0.10766 0.69885
 C1593 C 0.23189 -0.04174 0.73188
 C1594 C 0.23764 -0.02972 0.73758
 H1595 H 0.23450 -0.09620 0.71923
 H1596 H 0.24706 -0.07139 0.73167
 H1597 H 0.20284 -0.05428 0.74213
 H1598 H 0.19028 -0.07910 0.72971
 H1599 H 0.21095 -0.06829 0.68741
 H1600 H 0.22350 -0.04348 0.69982
 C1601 C 0.28817 0.28814 0.41872
 C1602 C 0.27530 0.27543 0.41500
 C1603 C 0.26861 0.26875 0.42838
 C1604 C 0.27542 0.27539 0.44418
 C1605 C 0.27304 0.29370 0.44307
 C1606 C 0.27975 0.30041 0.42969
 C1607 C 0.30041 0.27953 0.42958
 C1608 C 0.29371 0.27283 0.44297
 C1609 C 0.29535 0.29532 0.40430
 C1610 C 0.30122 0.30118 0.39241
 C1611 C 0.26820 0.26818 0.45861
 C1612 C 0.26247 0.26245 0.47065
 H1613 H 0.27174 0.27199 0.40292
 H1614 H 0.25936 0.25962 0.42775
 H1615 H 0.26664 0.30078 0.45200
 H1616 H 0.27909 0.31322 0.42715
 H1617 H 0.31321 0.27875 0.42697
 H1618 H 0.30077 0.26631 0.45183
 C1619 C 0.28865 0.78803 -0.08151
 C1620 C 0.30066 0.77852 -0.07115
 C1621 C 0.29392 0.77185 -0.05777
 C1622 C 0.27582 0.77534 -0.05605
 C1623 C 0.26829 0.76947 -0.07183
 C1624 C 0.27503 0.77611 -0.08521
 C1625 C 0.28114 0.80044 -0.07005
 C1626 C 0.27440 0.79377 -0.05666
 C1627 C 0.29585 0.79522 -0.09594
 C1628 C 0.30172 0.80113 -0.10782
 C1629 C 0.26857 0.76816 -0.04160
 C1630 C 0.26281 0.76246 -0.02955
 H1631 H 0.31334 0.77716 -0.07407
 H1632 H 0.30083 0.76477 -0.04922
 H1633 H 0.25845 0.76096 -0.07244
 H1634 H 0.27098 0.77319 -0.09727
 H1635 H 0.28109 0.81333 -0.07227
 H1636 H 0.26858 0.80094 -0.04742
 C1637 C 0.78795 0.28859 -0.08138
 C1638 C 0.77789 0.30043 -0.07137
 C1639 C 0.77122 0.29367 -0.05799
 C1640 C 0.77527 0.27574 -0.05594
 C1641 C 0.79376 0.27491 -0.05625
 C1642 C 0.80042 0.28167 -0.06962
 C1643 C 0.77654 0.27454 -0.08507
 C1644 C 0.76988 0.26779 -0.07169
 C1645 C 0.79510 0.29583 -0.09580
 C1646 C 0.80097 0.30174 -0.10767
 C1647 C 0.76810 0.26848 -0.04151
 C1648 C 0.76241 0.26272 -0.02947
 H1649 H 0.77616 0.31301 -0.07450
 H1650 H 0.76378 0.30047 -0.04967
 H1651 H 0.80098 0.26949 -0.04679
 H1652 H 0.81335 0.28203 -0.07163
 H1653 H 0.77393 0.27024 -0.09712
 H1654 H 0.76162 0.25775 -0.07229
 C1655 C 0.78801 0.78852 0.41867
 C1656 C 0.80030 0.78004 0.42957
 C1657 C 0.79363 0.77330 0.44295
 C1658 C 0.77531 0.77569 0.44411
 C1659 C 0.76860 0.76896 0.42831
 C1660 C 0.77526 0.77569 0.41493
 C1661 C 0.77945 0.80072 0.42959
 C1662 C 0.77277 0.79398 0.44297
 C1663 C 0.79517 0.79574 0.40424
 C1664 C 0.80102 0.80163 0.39235
 C1665 C 0.76812 0.76844 0.45854
 C1666 C 0.76241 0.76269 0.47058
 H1667 H 0.81312 0.77937 0.42700
 H1668 H 0.80072 0.76685 0.45184
 H1669 H 0.75945 0.75973 0.42767
 H1670 H 0.77178 0.77218 0.40285
 H1671 H 0.77869 0.81353 0.42703
 H1672 H 0.76629 0.80102 0.45187
 C1673 C 0.71180 0.28805 0.58135
 C1674 C 0.72152 0.30000 0.57114
 C1675 C 0.72821 0.29327 0.55777
 C1676 C 0.72452 0.27524 0.55590
 C1677 C 0.70606 0.27407 0.55638
 C1678 C 0.69937 0.28080 0.56976
 C1679 C 0.72355 0.27424 0.58505
 C1680 C 0.73020 0.26751 0.57167
 C1681 C 0.70462 0.29526 0.59576
 C1682 C 0.69875 0.30116 0.60764
 C1683 C 0.73171 0.26804 0.54146
 C1684 C 0.73742 0.26232 0.52940
 H1685 H 0.72299 0.31264 0.57414
 H1686 H 0.73541 0.30015 0.54931
 H1687 H 0.69888 0.26841 0.54705
 H1688 H 0.68646 0.28090 0.57190
 H1689 H 0.72630 0.27005 0.59710
 H1690 H 0.73852 0.25748 0.57227
 C1691 C 0.71193 0.78840 1.08148
 C1692 C 0.72495 0.77582 1.08522
 C1693 C 0.73164 0.76911 1.07186
 C1694 C 0.72467 0.77560 1.05605
 C1695 C 0.72687 0.79393 1.05701
 C1696 C 0.72017 0.80067 1.07038
 C1697 C 0.69972 0.77963 1.07075
 C1698 C 0.70642 0.77290 1.05738
 C1699 C 0.70474 0.79560 1.09588
 C1700 C 0.69885 0.80146 1.10775
 C1701 C 0.73186 0.76836 1.04163
 C1702 C 0.73757 0.76261 1.02959
 H1703 H 0.72863 0.77250 1.09731
 H1704 H 0.74105 0.76012 1.07250
 H1705 H 0.73316 0.80100 1.04800
 H1706 H 0.72073 0.81350 1.07283
 H1707 H 0.68694 0.77877 1.07343
 H1708 H 0.69937 0.76627 1.04860
 C1709 C 0.21188 0.28837 1.08144
 C1710 C 0.21962 0.30067 1.07004
 C1711 C 0.22631 0.29391 1.05668
 C1712 C 0.22460 0.27551 1.05603
 C1713 C 0.20645 0.27234 1.05768
 C1714 C 0.19976 0.27909 1.07104
 C1715 C 0.22530 0.27620 1.08519
 C1716 C 0.23198 0.26947 1.07183
 C1717 C 0.20471 0.29560 1.09584
 C1718 C 0.19882 0.30149 1.10770
 C1719 C 0.23178 0.26825 1.04161
 C1720 C 0.23748 0.26248 1.02957
 H1721 H 0.21986 0.31355 1.07229
 H1722 H 0.23227 0.30101 1.04747
 H1723 H 0.19946 0.26538 1.04911
 H1724 H 0.18705 0.27794 1.07392
 H1725 H 0.22924 0.27318 1.09727
 H1726 H 0.24163 0.26074 1.07248
 C1727 C 0.21194 0.78852 0.58123
 C1728 C 0.19970 0.77984 0.57046
 C1729 C 0.20639 0.77311 0.55708
 C1730 C 0.22466 0.77573 0.55579
 C1731 C 0.23156 0.76915 0.57159
 C1732 C 0.22489 0.77587 0.58497
 C1733 C 0.22026 0.80078 0.57018
 C1734 C 0.22695 0.79405 0.55681
 C1735 C 0.20476 0.79571 0.59564
 C1736 C 0.19887 0.80157 0.60751
 C1737 C 0.23185 0.76849 0.54137
 C1738 C 0.23756 0.76274 0.52933
 H1739 H 0.18692 0.77902 0.57312
 H1740 H 0.19933 0.76653 0.54828
 H1741 H 0.24083 0.76002 0.57223
 H1742 H 0.22850 0.77247 0.59705
 H1743 H 0.22087 0.81360 0.57267
 H1744 H 0.23329 0.80111 0.54782
 C1745 C 0.28818 0.71190 0.58127
 C1746 C 0.30056 0.71966 0.56994
 C1747 C 0.29386 0.72639 0.55656
 C1748 C 0.27545 0.72470 0.55582
 C1749 C 0.26933 0.73203 0.57161
 C1750 C 0.27600 0.72531 0.58499
 C1751 C 0.27895 0.69983 0.57078
 C1752 C 0.27225 0.70655 0.55740
 C1753 C 0.29536 0.70470 0.59569
 C1754 C 0.30124 0.69880 0.60756
 C1755 C 0.26825 0.73192 0.54139
 C1756 C 0.26253 0.73765 0.52934
 H1757 H 0.31343 0.71990 0.57226
 H1758 H 0.30100 0.73238 0.54741
 H1759 H 0.26062 0.74169 0.57223
 H1760 H 0.27293 0.72922 0.59706
 H1761 H 0.27776 0.68712 0.57362
 H1762 H 0.26533 0.69960 0.54878
 C1763 C 0.28808 0.21154 1.08145
 C1764 C 0.27575 0.22480 1.08520
 C1765 C 0.26906 0.23153 1.07184
 C1766 C 0.27532 0.22436 1.05603
 C1767 C 0.27229 0.20618 1.05749
 C1768 C 0.27900 0.19943 1.07086
 C1769 C 0.30042 0.21949 1.07023
 C1770 C 0.29371 0.22623 1.05686
 C1771 C 0.29528 0.20434 1.09584
 C1772 C 0.30119 0.19847 1.10770
 C1773 C 0.26812 0.23160 1.04161
 C1774 C 0.26241 0.23735 1.02957
 H1775 H 0.27256 0.22858 1.09729
 H1776 H 0.26018 0.24104 1.07249
 H1777 H 0.26547 0.19921 1.04880
 H1778 H 0.27792 0.18670 1.07362
 H1779 H 0.31329 0.21980 1.07258
 H1780 H 0.30084 0.23232 1.04777
 C1781 C 0.78809 0.71159 1.08144
 C1782 C 0.80033 0.72031 1.07068
 C1783 C 0.79364 0.72707 1.05732
 C1784 C 0.77537 0.72444 1.05603
 C1785 C 0.76845 0.73096 1.07184
 C1786 C 0.77513 0.72423 1.08520
 C1787 C 0.77978 0.69936 1.07038
 C1788 C 0.77309 0.70612 1.05701
 C1789 C 0.79527 0.70438 1.09584
 C1790 C 0.80116 0.69849 1.10770
 C1791 C 0.76819 0.73171 1.04162
 C1792 C 0.76249 0.73748 1.02958
 H1793 H 0.81312 0.72111 1.07334
 H1794 H 0.80070 0.73366 1.04852
 H1795 H 0.75909 0.74001 1.07249
 H1796 H 0.77149 0.72757 1.09729
 H1797 H 0.77918 0.68653 1.07285
 H1798 H 0.76676 0.69907 1.04802
 C1799 C 0.78796 0.21146 0.58130
 C1800 C 0.77623 0.22526 0.58500
 C1801 C 0.76958 0.23202 0.57163
 C1802 C 0.77526 0.22429 0.55587
 C1803 C 0.77156 0.20627 0.55773
 C1804 C 0.77824 0.19952 0.57110
 C1805 C 0.80040 0.21870 0.56972
 C1806 C 0.79372 0.22545 0.55634
 C1807 C 0.79514 0.20426 0.59570
 C1808 C 0.80105 0.19839 0.60756
 C1809 C 0.76809 0.23152 0.54144
 C1810 C 0.76239 0.23726 0.52939
 H1811 H 0.77347 0.22944 0.59706
 H1812 H 0.76127 0.24205 0.57223
 H1813 H 0.76436 0.19940 0.54926
 H1814 H 0.77676 0.18688 0.57410
 H1815 H 0.81331 0.21858 0.57185
 H1816 H 0.80092 0.23110 0.54701
 C1817 C 0.71176 0.71190 0.41872
 C1818 C 0.69949 0.72038 0.42963
 C1819 C 0.70619 0.72710 0.44301
 C1820 C 0.72451 0.72467 0.44415
 C1821 C 0.73121 0.73141 0.42834
 C1822 C 0.72453 0.72471 0.41497
 C1823 C 0.72032 0.69966 0.42963
 C1824 C 0.72701 0.70638 0.44300
 C1825 C 0.70459 0.70470 0.40431
 C1826 C 0.69873 0.69882 0.39243
 C1827 C 0.73171 0.73189 0.45857
 C1828 C 0.73743 0.73763 0.47061
 H1829 H 0.68668 0.72108 0.42707
 H1830 H 0.69911 0.73354 0.45191
 H1831 H 0.74039 0.74062 0.42770
 H1832 H 0.72802 0.72822 0.40289
 H1833 H 0.72106 0.68686 0.42707
 H1834 H 0.73350 0.69933 0.45190
 C1835 C 0.71180 0.21194 -0.08140
 C1836 C 0.72630 0.22281 -0.08502
 C1837 C 0.73300 0.22950 -0.07164
 C1838 C 0.72455 0.22471 -0.05595
 C1839 C 0.72477 0.20622 -0.05586
 C1840 C 0.71807 0.19951 -0.06924
 C1841 C 0.70009 0.22258 -0.07183
 C1842 C 0.70679 0.22930 -0.05845
 C1843 C 0.70464 0.20471 -0.09581
 C1844 C 0.69879 0.19875 -0.10767
 C1845 C 0.73175 0.23192 -0.04152
 C1846 C 0.73746 0.23764 -0.02947
 H1847 H 0.73095 0.22501 -0.09702
 H1848 H 0.74342 0.23730 -0.07219
 H1849 H 0.72977 0.19903 -0.04616
 H1850 H 0.71734 0.18657 -0.07099
 H1851 H 0.68762 0.22464 -0.07524
 H1852 H 0.70006 0.23710 -0.05041
 C1853 C 0.21199 0.71181 -0.08139
 C1854 C 0.22056 0.69957 -0.07051
 C1855 C 0.22729 0.70627 -0.05715
 C1856 C 0.22478 0.72456 -0.05598
 C1857 C 0.20646 0.72699 -0.05708
 C1858 C 0.19974 0.72029 -0.07044
 C1859 C 0.22475 0.72463 -0.08515
 C1860 C 0.23147 0.73131 -0.07179
 C1861 C 0.20478 0.70463 -0.09580
 C1862 C 0.19890 0.69875 -0.10766
 C1863 C 0.23200 0.73177 -0.04157
 C1864 C 0.23774 0.73750 -0.02953
 H1865 H 0.22131 0.68677 -0.07309
 H1866 H 0.23379 0.69921 -0.04827
 H1867 H 0.19940 0.73340 -0.04815
 H1868 H 0.18691 0.72097 -0.07297
 H1869 H 0.22823 0.72813 -0.09724
 H1870 H 0.24070 0.74047 -0.07245
 C1871 C 0.21178 0.21179 0.41872
 C1872 C 0.22036 0.19955 0.42960
 C1873 C 0.22705 0.20624 0.44299
 C1874 C 0.22452 0.22453 0.44417
 C1875 C 0.20621 0.22694 0.44304
 C1876 C 0.19951 0.22024 0.42966
 C1877 C 0.22453 0.22463 0.41499
 C1878 C 0.23121 0.23131 0.42837
 C1879 C 0.20461 0.20461 0.40430
 C1880 C 0.19874 0.19873 0.39243
 C1881 C 0.23173 0.23173 0.45860
 C1882 C 0.23745 0.23745 0.47065
 H1883 H 0.22112 0.18675 0.42701
 H1884 H 0.23355 0.19918 0.45186
 H1885 H 0.19912 0.23336 0.45196
 H1886 H 0.18669 0.22093 0.42711
 H1887 H 0.22801 0.22817 0.40291
 H1888 H 0.24037 0.24053 0.42774
 C1889 C 0.28817 0.41847 0.71212
 C1890 C 0.27714 0.41485 0.72649
 C1891 C 0.27038 0.42826 0.73313
 C1892 C 0.27532 0.44397 0.72476
 C1893 C 0.27090 0.44152 0.70700
 C1894 C 0.27766 0.42811 0.70036
 C1895 C 0.30058 0.43059 0.71847
 C1896 C 0.29383 0.44399 0.72512
 C1897 C 0.29544 0.40404 0.70497
 C1898 C 0.30138 0.39220 0.69903
 C1899 C 0.26812 0.45844 0.73188
 C1900 C 0.26242 0.47053 0.73755
 H1901 H 0.27482 0.40281 0.73103
 H1902 H 0.26226 0.42771 0.74335
 H1903 H 0.26320 0.44964 0.70022
 H1904 H 0.27574 0.42474 0.68789
 H1905 H 0.31353 0.42884 0.71774
 H1906 H 0.30100 0.45373 0.73008
 C1907 C 0.28857 0.91879 0.21173
 C1908 C 0.27574 0.91502 0.22447
 C1909 C 0.26899 0.92841 0.23113
 C1910 C 0.27571 0.94425 0.22443
 C1911 C 0.27330 0.94311 0.20617
 C1912 C 0.28006 0.92972 0.19949
 C1913 C 0.30078 0.92973 0.22026
 C1914 C 0.29401 0.94313 0.22693
 C1915 C 0.29580 0.90436 0.20455
 C1916 C 0.30167 0.89249 0.19862
 C1917 C 0.26844 0.95867 0.23163
 C1918 C 0.26266 0.97069 0.23737
 H1919 H 0.27224 0.90291 0.22795
 H1920 H 0.25975 0.92777 0.24026
 H1921 H 0.26685 0.95203 0.19910
 H1922 H 0.27938 0.92715 0.18671
 H1923 H 0.31359 0.92719 0.22100
 H1924 H 0.30104 0.95206 0.23336
 C1925 C 0.78858 0.41881 0.21180
 C1926 C 0.77578 0.41504 0.22457
 C1927 C 0.76903 0.42843 0.23122
 C1928 C 0.77571 0.44427 0.22450
 C1929 C 0.77327 0.44311 0.20624
 C1930 C 0.78003 0.42972 0.19957
 C1931 C 0.80079 0.42978 0.22029
 C1932 C 0.79402 0.44317 0.22696
 C1933 C 0.79581 0.40439 0.20462
 C1934 C 0.80168 0.39251 0.19870
 C1935 C 0.76843 0.45868 0.23170
 C1936 C 0.76264 0.47070 0.23745
 H1937 H 0.77230 0.40293 0.22806
 H1938 H 0.75980 0.42778 0.24038
 H1939 H 0.76679 0.45201 0.19918
 H1940 H 0.77934 0.42714 0.18679
 H1941 H 0.81361 0.42725 0.22100
 H1942 H 0.80105 0.45212 0.23337
 C1943 C 0.78856 0.91889 0.71184
 C1944 C 0.78007 0.92983 0.69960
 C1945 C 0.77331 0.94323 0.70627
 C1946 C 0.77568 0.94436 0.72455
 C1947 C 0.79399 0.94321 0.72707
 C1948 C 0.80075 0.92982 0.72039
 C1949 C 0.77571 0.91512 0.72456
 C1950 C 0.76896 0.92851 0.73121
 C1951 C 0.79580 0.90445 0.70466
 C1952 C 0.80168 0.89258 0.69873
 C1953 C 0.76839 0.95879 0.73175
 C1954 C 0.76259 0.97082 0.73750
 H1955 H 0.77942 0.92727 0.68682
 H1956 H 0.76688 0.95215 0.69920
 H1957 H 0.80102 0.95214 0.73352
 H1958 H 0.81357 0.92726 0.72115
 H1959 H 0.77220 0.90301 0.72802
 H1960 H 0.75970 0.92785 0.74034
 C1961 C 0.71180 0.58136 0.71227
 C1962 C 0.71414 0.58256 0.73054
 C1963 C 0.72091 0.56916 0.73720
 C1964 C 0.72468 0.55587 0.72493
 C1965 C 0.73535 0.56398 0.71221
 C1966 C 0.72857 0.57738 0.70555
 C1967 C 0.70185 0.56600 0.70971
 C1968 C 0.70862 0.55260 0.71637
 C1969 C 0.70450 0.59580 0.70511
 C1970 C 0.69854 0.60764 0.69916
 C1971 C 0.73191 0.54139 0.73206
 C1972 C 0.73763 0.52930 0.73774
 H1973 H 0.71075 0.59300 0.73763
 H1974 H 0.72334 0.56812 0.74998
 H1975 H 0.74714 0.55954 0.70868
 H1976 H 0.73456 0.58441 0.69631
 H1977 H 0.69052 0.56566 0.70318
 H1978 H 0.70308 0.54079 0.71554
 C1979 C 0.71166 0.08097 0.21190
 C1980 C 0.72125 0.07068 0.19991
 C1981 C 0.72799 0.05729 0.20661
 C1982 C 0.72450 0.05550 0.22465
 C1983 C 0.70605 0.05601 0.22603
 C1984 C 0.69930 0.06941 0.21933
 C1985 C 0.72355 0.08471 0.22552
 C1986 C 0.73027 0.07132 0.23222
 C1987 C 0.70443 0.09540 0.20470
 C1988 C 0.69855 0.10727 0.19876
 C1989 C 0.73176 0.04109 0.23186
 C1990 C 0.73755 0.02906 0.23761
 H1991 H 0.72259 0.07364 0.18726
 H1992 H 0.73510 0.04877 0.19969
 H1993 H 0.69892 0.04668 0.23177
 H1994 H 0.68639 0.07156 0.21936
 H1995 H 0.72639 0.09679 0.22960
 H1996 H 0.73875 0.07193 0.24207
 C1997 C 0.21144 0.58133 0.21188
 C1998 C 0.20064 0.57306 0.22438
 C1999 C 0.20740 0.55966 0.23104
 C2000 C 0.22431 0.55584 0.22455
 C2001 C 0.23413 0.57124 0.22731
 C2002 C 0.22736 0.58464 0.22067
 C2003 C 0.21547 0.56815 0.19958
 C2004 C 0.22223 0.55474 0.20624
 C2005 C 0.20421 0.59578 0.20470
 C2006 C 0.19834 0.60766 0.19877
 C2007 C 0.23155 0.54140 0.23171
 C2008 C 0.23731 0.52934 0.23743
 H2009 H 0.18870 0.57731 0.22765
 H2010 H 0.20125 0.55242 0.24001
 H2011 H 0.24551 0.57154 0.23370
 H2012 H 0.23290 0.59645 0.22150
 H2013 H 0.21322 0.56925 0.18676
 H2014 H 0.22576 0.54436 0.19912
 C2015 C 0.21141 0.08103 0.71191
 C2016 C 0.21988 0.07011 0.69964
 C2017 C 0.22667 0.05671 0.70630
 C2018 C 0.22433 0.05554 0.72457
 C2019 C 0.20603 0.05667 0.72713
 C2020 C 0.19924 0.07007 0.72048
 C2021 C 0.22428 0.08478 0.72460
 C2022 C 0.23105 0.07139 0.73124
 C2023 C 0.20415 0.09548 0.70476
 C2024 C 0.19827 0.10738 0.69885
 C2025 C 0.23165 0.04111 0.73177
 C2026 C 0.23747 0.02908 0.73751
 H2027 H 0.22051 0.07268 0.68686
 H2028 H 0.23309 0.04780 0.69920
 H2029 H 0.19902 0.04772 0.73359
 H2030 H 0.18642 0.07261 0.72125
 H2031 H 0.22779 0.09689 0.72806
 H2032 H 0.24033 0.07204 0.74034
 C2033 C 0.28816 0.58133 0.28783
 C2034 C 0.27823 0.57131 0.29978
 C2035 C 0.27146 0.55792 0.29313
 C2036 C 0.27528 0.55585 0.27519
 C2037 C 0.29376 0.55612 0.27416
 C2038 C 0.30052 0.56950 0.28080
 C2039 C 0.27655 0.58503 0.27393
 C2040 C 0.26979 0.57164 0.26730
 C2041 C 0.29544 0.59575 0.29497
 C2042 C 0.30139 0.60760 0.30088
 C2043 C 0.26806 0.54140 0.26805
 C2044 C 0.26234 0.52934 0.26237
 H2045 H 0.27667 0.57444 0.31235
 H2046 H 0.26412 0.54958 0.30002
 H2047 H 0.30091 0.54659 0.26875
 H2048 H 0.31346 0.57144 0.28108
 H2049 H 0.27385 0.59710 0.26970
 H2050 H 0.26129 0.57224 0.25743
 C2051 C 0.28832 0.08108 0.78801
 C2052 C 0.27985 0.07013 0.80024
 C2053 C 0.27312 0.05674 0.79356
 C2054 C 0.27552 0.05561 0.77529
 C2055 C 0.29381 0.05676 0.77277
 C2056 C 0.30054 0.07015 0.77945
 C2057 C 0.27547 0.08485 0.77528
 C2058 C 0.26875 0.07146 0.76862
 C2059 C 0.29554 0.09551 0.79520
 C2060 C 0.30141 0.10737 0.80115
 C2061 C 0.26831 0.04116 0.76812
 C2062 C 0.26260 0.02909 0.76243
 H2063 H 0.27916 0.07268 0.81302
 H2064 H 0.26668 0.04782 0.80062
 H2065 H 0.30085 0.04785 0.76629
 H2066 H 0.31335 0.07271 0.77868
 H2067 H 0.27194 0.09696 0.77182
 H2068 H 0.25950 0.07211 0.75948
 C2069 C 0.78840 0.58136 0.78811
 C2070 C 0.79799 0.56587 0.79131
 C2071 C 0.79124 0.55247 0.78468
 C2072 C 0.77555 0.55586 0.77548
 C2073 C 0.77997 0.56885 0.76311
 C2074 C 0.78673 0.58225 0.76975
 C2075 C 0.77133 0.57780 0.79430
 C2076 C 0.76457 0.56440 0.78766
 C2077 C 0.79568 0.59580 0.79525
 C2078 C 0.80164 0.60765 0.80118
 C2079 C 0.76834 0.54137 0.76835
 C2080 C 0.76264 0.52928 0.76268
 H2081 H 0.80907 0.56545 0.79825
 H2082 H 0.79655 0.54057 0.78592
 H2083 H 0.77800 0.56762 0.75027
 H2084 H 0.79054 0.59250 0.76259
 H2085 H 0.76513 0.58511 0.80318
 H2086 H 0.75259 0.56024 0.79085
 C2087 C 0.78850 0.08101 0.28804
 C2088 C 0.80076 0.06985 0.27983
 C2089 C 0.79401 0.05646 0.27318
 C2090 C 0.77566 0.05554 0.27538
 C2091 C 0.76919 0.07138 0.26839
 C2092 C 0.77592 0.08477 0.27505
 C2093 C 0.77969 0.07029 0.30024
 C2094 C 0.77294 0.05690 0.29359
 C2095 C 0.79573 0.09546 0.29519
 C2096 C 0.80160 0.10735 0.30108
 C2097 C 0.76840 0.04111 0.26823
 C2098 C 0.76264 0.02906 0.26254
 H2099 H 0.81361 0.07227 0.27928
 H2100 H 0.80107 0.04740 0.26693
 H2101 H 0.76022 0.07202 0.25899
 H2102 H 0.77261 0.09687 0.27135
 H2103 H 0.77884 0.07297 0.31299
 H2104 H 0.76631 0.04810 0.30063
 C2105 C 0.71168 0.41874 0.28796
 C2106 C 0.72469 0.41497 0.27540
 C2107 C 0.73144 0.42836 0.26875
 C2108 C 0.72455 0.44420 0.27528
 C2109 C 0.72675 0.44314 0.29358
 C2110 C 0.71999 0.42975 0.30025
 C2111 C 0.69952 0.42961 0.27924
 C2112 C 0.70628 0.44299 0.27257
 C2113 C 0.70445 0.40429 0.29512
 C2114 C 0.69857 0.39240 0.30102
 C2115 C 0.73181 0.45863 0.26811
 C2116 C 0.73756 0.47068 0.26240
 H2117 H 0.72830 0.40286 0.27203
 H2118 H 0.74081 0.42770 0.25974
 H2119 H 0.73308 0.45211 0.30067
 H2120 H 0.72053 0.42725 0.31305
 H2121 H 0.68673 0.42701 0.27837
 H2122 H 0.69928 0.45187 0.26600
 C2123 C 0.71172 0.91883 0.78804
 C2124 C 0.69951 0.92981 0.77953
 C2125 C 0.70626 0.94320 0.77285
 C2126 C 0.72456 0.94429 0.77532
 C2127 C 0.73127 0.92844 0.76861
 C2128 C 0.72454 0.91506 0.77528
 C2129 C 0.72026 0.92973 0.80026
 C2130 C 0.72700 0.94312 0.79358
 C2131 C 0.70448 0.90441 0.79524
 C2132 C 0.69858 0.89255 0.80117
 C2133 C 0.73179 0.95874 0.76815
 C2134 C 0.73751 0.97081 0.76246
 H2135 H 0.68669 0.92729 0.77880
 H2136 H 0.69922 0.95214 0.76640
 H2137 H 0.74048 0.92779 0.75944
 H2138 H 0.72803 0.90294 0.77178
 H2139 H 0.72096 0.92715 0.81304
 H2140 H 0.73348 0.95201 0.80063
 C2141 C 0.21159 0.41849 0.78796
 C2142 C 0.20223 0.42505 0.77345
 C2143 C 0.20899 0.43844 0.76678
 C2144 C 0.22446 0.44396 0.77527
 C2145 C 0.23560 0.42919 0.77513
 C2146 C 0.22883 0.41580 0.78179
 C2147 C 0.21286 0.43276 0.79963
 C2148 C 0.21962 0.44614 0.79296
 C2149 C 0.20432 0.40407 0.79516
 C2150 C 0.19838 0.39223 0.80113
 C2151 C 0.23168 0.45844 0.76813
 C2152 C 0.23739 0.47053 0.76245
 H2153 H 0.19123 0.41969 0.76885
 H2154 H 0.20378 0.44454 0.75646
 H2155 H 0.24776 0.42927 0.77032
 H2156 H 0.23519 0.40440 0.78266
 H2157 H 0.20881 0.43238 0.81204
 H2158 H 0.22135 0.45723 0.79966
 C2159 C 0.21161 0.91880 0.28785
 C2160 C 0.21992 0.92982 0.30013
 C2161 C 0.22670 0.94319 0.29346
 C2162 C 0.22452 0.94424 0.27517
 C2163 C 0.20625 0.94306 0.27244
 C2164 C 0.19947 0.92968 0.27911
 C2165 C 0.22462 0.91502 0.27529
 C2166 C 0.23139 0.92839 0.26864
 C2167 C 0.20435 0.90439 0.29501
 C2168 C 0.19845 0.89252 0.30093
 C2169 C 0.23179 0.95866 0.26800
 C2170 C 0.23756 0.97070 0.26230
 H2171 H 0.22046 0.92731 0.31293
 H2172 H 0.23304 0.95215 0.30055
 H2173 H 0.19927 0.95195 0.26586
 H2174 H 0.18667 0.92711 0.27823
 H2175 H 0.22823 0.90290 0.27194
 H2176 H 0.24077 0.92772 0.25964
 C2177 C 0.41849 0.28824 0.71198
 C2178 C 0.42948 0.27986 0.69970
 C2179 C 0.44288 0.27310 0.70637
 C2180 C 0.44397 0.27538 0.72465
 C2181 C 0.42812 0.26857 0.73126
 C2182 C 0.41473 0.27532 0.72461
 C2183 C 0.42939 0.30041 0.72061
 C2184 C 0.44279 0.29364 0.72727
 C2185 C 0.40406 0.29550 0.70485
 C2186 C 0.39218 0.30142 0.69896
 C2187 C 0.45840 0.26811 0.73184
 C2188 C 0.47045 0.26235 0.73756
 H2189 H 0.42695 0.27928 0.68691
 H2190 H 0.45184 0.26672 0.69929
 H2191 H 0.42748 0.25926 0.74032
 H2192 H 0.40261 0.27175 0.72801
 H2193 H 0.42681 0.31321 0.72140
 H2194 H 0.45170 0.30065 0.73378
 C2195 C 0.41862 0.78843 0.21202
 C2196 C 0.41625 0.78316 0.22956
 C2197 C 0.42963 0.77638 0.23625
 C2198 C 0.44407 0.77555 0.22475
 C2199 C 0.44664 0.79294 0.21901
 C2200 C 0.43326 0.79971 0.21232
 C2201 C 0.42447 0.77326 0.20323
 C2202 C 0.43785 0.76648 0.20992
 C2203 C 0.40423 0.79570 0.20480
 C2204 C 0.39241 0.80163 0.19880
 C2205 C 0.45851 0.76833 0.23190
 C2206 C 0.47059 0.76262 0.23759
 H2207 H 0.40505 0.78464 0.23615
 H2208 H 0.42991 0.77206 0.24857
 H2209 H 0.45800 0.79935 0.22004
 H2210 H 0.43315 0.81192 0.20763
 H2211 H 0.41866 0.76832 0.19263
 H2212 H 0.44351 0.75575 0.20505
 C2213 C 0.91860 0.28838 0.21203
 C2214 C 0.92264 0.29504 0.22877
 C2215 C 0.93602 0.28828 0.23546
 C2216 C 0.94406 0.27553 0.22477
 C2217 C 0.94735 0.28414 0.20876
 C2218 C 0.93396 0.29090 0.20206
 C2219 C 0.91732 0.27007 0.21431
 C2220 C 0.93071 0.26331 0.22101
 C2221 C 0.90420 0.29565 0.20481
 C2222 C 0.89237 0.30158 0.19883
 C2223 C 0.95851 0.26831 0.23191
 C2224 C 0.97060 0.26260 0.23759
 H2225 H 0.91563 0.30429 0.23480
 H2226 H 0.94049 0.29173 0.24723
 H2227 H 0.95915 0.28488 0.20317
 H2228 H 0.93430 0.29743 0.19075
 H2229 H 0.90684 0.26304 0.21091
 H2230 H 0.93170 0.25049 0.22337
 C2231 C 0.91868 0.78849 0.71204
 C2232 C 0.91918 0.78977 0.73045
 C2233 C 0.93256 0.78300 0.73714
 C2234 C 0.94414 0.77562 0.72476
 C2235 C 0.94789 0.78935 0.71296
 C2236 C 0.93450 0.79611 0.70627
 C2237 C 0.92047 0.77044 0.70844
 C2238 C 0.93386 0.76367 0.71513
 C2239 C 0.90428 0.79576 0.70482
 C2240 C 0.89245 0.80169 0.69883
 C2241 C 0.95860 0.76841 0.73191
 C2242 C 0.97069 0.76270 0.73758
 H2243 H 0.90985 0.79552 0.73759
 H2244 H 0.93471 0.78294 0.75001
 H2245 H 0.96000 0.79338 0.71008
 H2246 H 0.93514 0.80594 0.69767
 H2247 H 0.91201 0.76360 0.70121
 H2248 H 0.93687 0.75103 0.71364
 C2249 C 0.58144 0.28837 0.28798
 C2250 C 0.57050 0.27993 0.30026
 C2251 C 0.55712 0.27314 0.29361
 C2252 C 0.55598 0.27543 0.27533
 C2253 C 0.57185 0.26868 0.26870
 C2254 C 0.58523 0.27546 0.27533
 C2255 C 0.57046 0.30051 0.27937
 C2256 C 0.55708 0.29371 0.27272
 C2257 C 0.59588 0.29564 0.29512
 C2258 C 0.60777 0.30155 0.30101
 C2259 C 0.54154 0.26813 0.26816
 C2260 C 0.52950 0.26234 0.26246
 H2261 H 0.57305 0.27933 0.31305
 H2262 H 0.54820 0.26673 0.30071
 H2263 H 0.57253 0.25939 0.25963
 H2264 H 0.59736 0.27194 0.27190
 H2265 H 0.57298 0.31331 0.27856
 H2266 H 0.54813 0.30070 0.26622
 C2267 C 0.58139 0.78864 0.78822
 C2268 C 0.57043 0.78022 0.80048
 C2269 C 0.55703 0.77347 0.79382
 C2270 C 0.55590 0.77579 0.77554
 C2271 C 0.57176 0.76900 0.76891
 C2272 C 0.58516 0.77574 0.77555
 C2273 C 0.57044 0.80082 0.77961
 C2274 C 0.55704 0.79406 0.77295
 C2275 C 0.59583 0.79589 0.79538
 C2276 C 0.60771 0.80179 0.80129
 C2277 C 0.54144 0.76853 0.76837
 C2278 C 0.52938 0.76277 0.76266
 H2279 H 0.57298 0.77960 0.81327
 H2280 H 0.54810 0.76707 0.80091
 H2281 H 0.57241 0.75972 0.75982
 H2282 H 0.59728 0.77220 0.77211
 H2283 H 0.57300 0.81362 0.77881
 H2284 H 0.54812 0.80108 0.76646
 C2285 C 0.08115 0.28837 0.78812
 C2286 C 0.08494 0.27551 0.77543
 C2287 C 0.07155 0.26877 0.76877
 C2288 C 0.05568 0.27552 0.77542
 C2289 C 0.05680 0.29380 0.77287
 C2290 C 0.07019 0.30056 0.77955
 C2291 C 0.07020 0.27990 0.80037
 C2292 C 0.05681 0.27315 0.79369
 C2293 C 0.09559 0.29561 0.79530
 C2294 C 0.10746 0.30150 0.80123
 C2295 C 0.04124 0.26826 0.76823
 C2296 C 0.02918 0.26250 0.76251
 H2297 H 0.09706 0.27199 0.77198
 H2298 H 0.07222 0.25951 0.75965
 H2299 H 0.04786 0.30082 0.76639
 H2300 H 0.07273 0.31336 0.77878
 H2301 H 0.07276 0.27925 0.81316
 H2302 H 0.04789 0.26672 0.80076
 C2303 C 0.08126 0.78861 0.28794
 C2304 C 0.08504 0.77574 0.27525
 C2305 C 0.07164 0.76898 0.26862
 C2306 C 0.05578 0.77572 0.27529
 C2307 C 0.05688 0.79400 0.27272
 C2308 C 0.07028 0.80078 0.27936
 C2309 C 0.07034 0.78015 0.30021
 C2310 C 0.05694 0.77338 0.29356
 C2311 C 0.09570 0.79588 0.29508
 C2312 C 0.10759 0.80177 0.30098
 C2313 C 0.04133 0.76844 0.26813
 C2314 C 0.02927 0.76266 0.26243
 H2315 H 0.09716 0.77222 0.27179
 H2316 H 0.07231 0.75971 0.25952
 H2317 H 0.04793 0.80101 0.26625
 H2318 H 0.07280 0.81358 0.27857
 H2319 H 0.07291 0.77951 0.31299
 H2320 H 0.04804 0.76695 0.30066
 C2321 C 0.58134 0.71172 0.71212
 C2322 C 0.58511 0.72450 0.72488
 C2323 C 0.57172 0.73127 0.73153
 C2324 C 0.55586 0.72462 0.72480
 C2325 C 0.55693 0.70632 0.72726
 C2326 C 0.57032 0.69954 0.72060
 C2327 C 0.57045 0.72029 0.69987
 C2328 C 0.55705 0.72706 0.70654
 C2329 C 0.59578 0.70444 0.70498
 C2330 C 0.60766 0.69851 0.69909
 C2331 C 0.54143 0.73191 0.73199
 C2332 C 0.52938 0.73769 0.73772
 H2333 H 0.59723 0.72797 0.72837
 H2334 H 0.57237 0.74048 0.74069
 H2335 H 0.54794 0.69931 0.73366
 H2336 H 0.57282 0.68672 0.72130
 H2337 H 0.57304 0.72097 0.68709
 H2338 H 0.54816 0.73355 0.69947
 C2339 C 0.58144 0.21129 0.21193
 C2340 C 0.58523 0.22412 0.22464
 C2341 C 0.57184 0.23088 0.23131
 C2342 C 0.55598 0.22418 0.22464
 C2343 C 0.55709 0.20589 0.22717
 C2344 C 0.57048 0.19911 0.22049
 C2345 C 0.57050 0.21979 0.19969
 C2346 C 0.55711 0.22657 0.20637
 C2347 C 0.59586 0.20402 0.20474
 C2348 C 0.60772 0.19812 0.19881
 C2349 C 0.54155 0.23146 0.23183
 C2350 C 0.52950 0.23723 0.23756
 H2351 H 0.59735 0.22760 0.22810
 H2352 H 0.57251 0.24013 0.24044
 H2353 H 0.54814 0.19888 0.23362
 H2354 H 0.57301 0.18630 0.22124
 H2355 H 0.57306 0.22045 0.18691
 H2356 H 0.54819 0.23302 0.19931
 C2357 C 0.08122 0.71163 0.21189
 C2358 C 0.07030 0.69945 0.22049
 C2359 C 0.05690 0.70622 0.22717
 C2360 C 0.05575 0.72450 0.22461
 C2361 C 0.05686 0.72685 0.20633
 C2362 C 0.07025 0.72008 0.19964
 C2363 C 0.08500 0.72450 0.22456
 C2364 C 0.07161 0.73125 0.23124
 C2365 C 0.09566 0.70440 0.20470
 C2366 C 0.10755 0.69853 0.19878
 C2367 C 0.04132 0.73177 0.23181
 C2368 C 0.02927 0.73754 0.23754
 H2369 H 0.07285 0.68665 0.22126
 H2370 H 0.04798 0.69921 0.23367
 H2371 H 0.04792 0.73327 0.19926
 H2372 H 0.07278 0.72071 0.18685
 H2373 H 0.09713 0.72801 0.22799
 H2374 H 0.07228 0.74052 0.24034
 C2375 C 0.08113 0.21142 0.71202
 C2376 C 0.07019 0.19926 0.72062
 C2377 C 0.05679 0.20604 0.72729
 C2378 C 0.05566 0.22432 0.72471
 C2379 C 0.05679 0.22666 0.70643
 C2380 C 0.07018 0.21988 0.69976
 C2381 C 0.08492 0.22429 0.72469
 C2382 C 0.07153 0.23106 0.73135
 C2383 C 0.09557 0.20416 0.70485
 C2384 C 0.10745 0.19828 0.69892
 C2385 C 0.04123 0.23161 0.73189
 C2386 C 0.02918 0.23739 0.73761
 H2387 H 0.07273 0.18645 0.72140
 H2388 H 0.04786 0.19904 0.73377
 H2389 H 0.04786 0.23309 0.69935
 H2390 H 0.07273 0.22051 0.68698
 H2391 H 0.09704 0.22780 0.72813
 H2392 H 0.07219 0.24034 0.74044
 C2393 C 0.41850 0.71176 0.28783
 C2394 C 0.42957 0.71992 0.30017
 C2395 C 0.44298 0.72669 0.29354
 C2396 C 0.44401 0.72465 0.27523
 C2397 C 0.42818 0.73166 0.26872
 C2398 C 0.41477 0.72489 0.27535
 C2399 C 0.42934 0.69965 0.27902
 C2400 C 0.44275 0.70642 0.27240
 C2401 C 0.40406 0.70445 0.29495
 C2402 C 0.39222 0.69847 0.30087
 C2403 C 0.45849 0.73187 0.26812
 C2404 C 0.47058 0.73759 0.26246
 H2405 H 0.42712 0.72030 0.31299
 H2406 H 0.45202 0.73286 0.30069
 H2407 H 0.42756 0.74111 0.25972
 H2408 H 0.40265 0.72856 0.27204
 H2409 H 0.42676 0.68686 0.27815
 H2410 H 0.45165 0.69942 0.26584
 C2411 C 0.41848 0.21137 0.78811
 C2412 C 0.42950 0.19918 0.77962
 C2413 C 0.44288 0.20596 0.77295
 C2414 C 0.44394 0.22425 0.77541
 C2415 C 0.44275 0.22668 0.79367
 C2416 C 0.42936 0.21991 0.80035
 C2417 C 0.41468 0.22417 0.77535
 C2418 C 0.42807 0.23092 0.76869
 C2419 C 0.40405 0.20410 0.79529
 C2420 C 0.39219 0.19819 0.80121
 C2421 C 0.45838 0.23153 0.76823
 C2422 C 0.47044 0.23729 0.76251
 H2423 H 0.42700 0.18637 0.77890
 H2424 H 0.45186 0.19894 0.76652
 H2425 H 0.45163 0.23317 0.80073
 H2426 H 0.42677 0.22061 0.81312
 H2427 H 0.40256 0.22763 0.77185
 H2428 H 0.42739 0.24014 0.75953
 C2429 C 0.91866 0.71188 0.78796
 C2430 C 0.91494 0.72371 0.77425
 C2431 C 0.92834 0.73048 0.76759
 C2432 C 0.94415 0.72475 0.77529
 C2433 C 0.94374 0.70630 0.77401
 C2434 C 0.93035 0.69954 0.78066
 C2435 C 0.92885 0.72154 0.79996
 C2436 C 0.94225 0.72831 0.79331
 C2437 C 0.90424 0.70458 0.79513
 C2438 C 0.89240 0.69860 0.80107
 C2439 C 0.95862 0.73197 0.76816
 C2440 C 0.97071 0.73768 0.76248
 H2441 H 0.90284 0.72654 0.77016
 H2442 H 0.92772 0.73910 0.75779
 H2443 H 0.95319 0.69917 0.76843
 H2444 H 0.92833 0.68662 0.78080
 H2445 H 0.92584 0.72289 0.81260
 H2446 H 0.95071 0.73545 0.80024
 C2447 C 0.91859 0.21160 0.28784
 C2448 C 0.92927 0.22045 0.30004
 C2449 C 0.94265 0.22724 0.29340
 C2450 C 0.94406 0.22452 0.27519
 C2451 C 0.92821 0.23095 0.26816
 C2452 C 0.91482 0.22416 0.27481
 C2453 C 0.92982 0.19938 0.27968
 C2454 C 0.94321 0.20617 0.27303
 C2455 C 0.90416 0.20429 0.29501
 C2456 C 0.89232 0.19834 0.30095
 C2457 C 0.95852 0.23177 0.26807
 C2458 C 0.97061 0.23752 0.26242
 H2459 H 0.92659 0.22125 0.31280
 H2460 H 0.95143 0.23386 0.30046
 H2461 H 0.92756 0.24005 0.25879
 H2462 H 0.90269 0.22744 0.27115
 H2463 H 0.92751 0.18652 0.27924
 H2464 H 0.95236 0.19913 0.26689
 C2465 C 0.28811 0.28807 0.58134
 C2466 C 0.27404 0.27667 0.58503
 C2467 C 0.26731 0.27000 0.57166
 C2468 C 0.27532 0.27534 0.55591
 C2469 C 0.29326 0.27131 0.55801
 C2470 C 0.29999 0.27801 0.57138
 C2471 C 0.28121 0.30051 0.56953
 C2472 C 0.27449 0.29382 0.55616
 C2473 C 0.29530 0.29527 0.59575
 C2474 C 0.30118 0.30117 0.60761
 C2475 C 0.26812 0.26815 0.54148
 C2476 C 0.26241 0.26243 0.52943
 H2477 H 0.26967 0.27414 0.59707
 H2478 H 0.25711 0.26190 0.57225
 H2479 H 0.30011 0.26390 0.54970
 H2480 H 0.31258 0.27633 0.57451
 H2481 H 0.28155 0.31343 0.57151
 H2482 H 0.26907 0.30101 0.54668
 C2483 C 0.28827 0.78814 0.08120
 C2484 C 0.28473 0.80036 0.06780
 C2485 C 0.27804 0.79365 0.05442
 C2486 C 0.27553 0.77537 0.05576
 C2487 C 0.26541 0.77305 0.07102
 C2488 C 0.27211 0.77974 0.08440
 C2489 C 0.29892 0.77525 0.07329
 C2490 C 0.29222 0.76854 0.05992
 C2491 C 0.29547 0.79536 0.09560
 C2492 C 0.30136 0.80130 0.10744
 C2493 C 0.26836 0.76819 0.04131
 C2494 C 0.26268 0.76249 0.02924
 H2495 H 0.28727 0.81315 0.06873
 H2496 H 0.27484 0.80070 0.04390
 H2497 H 0.25390 0.76688 0.07128
 H2498 H 0.26639 0.77919 0.09613
 H2499 H 0.31071 0.77176 0.07776
 H2500 H 0.29828 0.75929 0.05294
 C2501 C 0.78812 0.28818 0.08127
 C2502 C 0.78554 0.30022 0.06749
 C2503 C 0.77883 0.29353 0.05412
 C2504 C 0.77534 0.27545 0.05583
 C2505 C 0.76474 0.27403 0.07089
 C2506 C 0.77146 0.28071 0.08427
 C2507 C 0.79826 0.27457 0.07395
 C2508 C 0.79154 0.26787 0.06058
 C2509 C 0.79533 0.29540 0.09566
 C2510 C 0.80125 0.30133 0.10750
 C2511 C 0.76816 0.26828 0.04138
 C2512 C 0.76246 0.26260 0.02931
 H2513 H 0.78874 0.31288 0.06817
 H2514 H 0.77627 0.30046 0.04335
 H2515 H 0.75294 0.26842 0.07101
 H2516 H 0.76545 0.28075 0.09586
 H2517 H 0.80975 0.27059 0.07880
 H2518 H 0.79728 0.25815 0.05398
 C2519 C 0.78812 0.78823 0.58128
 C2520 C 0.79084 0.79810 0.56591
 C2521 C 0.78412 0.79139 0.55256
 C2522 C 0.77532 0.77546 0.55587
 C2523 C 0.76304 0.77943 0.56910
 C2524 C 0.76977 0.78615 0.58245
 C2525 C 0.79465 0.77137 0.57739
 C2526 C 0.78792 0.76465 0.56404
 C2527 C 0.79536 0.79546 0.59567
 C2528 C 0.80129 0.80139 0.60749
 C2529 C 0.76813 0.76829 0.54143
 C2530 C 0.76243 0.76261 0.52936
 H2531 H 0.79750 0.80935 0.56554
 H2532 H 0.78501 0.79690 0.54075
 H2533 H 0.75019 0.77718 0.56805
 H2534 H 0.76268 0.78967 0.59285
 H2535 H 0.80380 0.76527 0.58448
 H2536 H 0.79130 0.75280 0.55969
 C2537 C 0.28799 0.71193 0.41855
 C2538 C 0.27524 0.72484 0.41484
 C2539 C 0.26855 0.73157 0.42822
 C2540 C 0.27527 0.72474 0.44401
 C2541 C 0.29359 0.72706 0.44287
 C2542 C 0.30028 0.72033 0.42949
 C2543 C 0.27941 0.69973 0.42945
 C2544 C 0.27272 0.70646 0.44283
 C2545 C 0.29518 0.70468 0.40414
 C2546 C 0.30109 0.69873 0.39229
 C2547 C 0.26813 0.73192 0.45848
 C2548 C 0.26247 0.73762 0.47056
 H2549 H 0.27178 0.72837 0.40275
 H2550 H 0.25936 0.74087 0.42760
 H2551 H 0.30071 0.73339 0.45181
 H2552 H 0.31311 0.72089 0.42698
 H2553 H 0.27870 0.68692 0.42692
 H2554 H 0.26628 0.69940 0.45175
 C2555 C 0.28806 0.21152 0.91887
 C2556 C 0.27959 0.19930 0.92984
 C2557 C 0.27290 0.20603 0.94322
 C2558 C 0.27532 0.22433 0.94432
 C2559 C 0.26854 0.23101 0.92851
 C2560 C 0.27522 0.22430 0.91514
 C2561 C 0.30032 0.22007 0.92974
 C2562 C 0.29362 0.22679 0.94311
 C2563 C 0.29523 0.20430 0.90445
 C2564 C 0.30109 0.19841 0.89256
 C2565 C 0.26812 0.23156 0.95875
 C2566 C 0.26240 0.23731 0.97079
 H2567 H 0.27889 0.18649 0.92731
 H2568 H 0.26646 0.19898 0.95215
 H2569 H 0.25933 0.24020 0.92787
 H2570 H 0.27169 0.22778 0.90306
 H2571 H 0.31312 0.22079 0.92714
 H2572 H 0.30069 0.23328 0.95197
 C2573 C 0.78817 0.71194 0.91884
 C2574 C 0.78136 0.69952 0.93070
 C2575 C 0.77465 0.70623 0.94407
 C2576 C 0.77540 0.72471 0.94428
 C2577 C 0.76733 0.73005 0.92855
 C2578 C 0.77405 0.72333 0.91518
 C2579 C 0.80004 0.72205 0.92875
 C2580 C 0.79333 0.72876 0.94213
 C2581 C 0.79540 0.70472 0.90443
 C2582 C 0.80132 0.69879 0.89258
 C2583 C 0.76823 0.73188 0.95874
 C2584 C 0.76254 0.73756 0.97082
 H2585 H 0.78183 0.68659 0.92879
 H2586 H 0.76936 0.69904 0.95361
 H2587 H 0.75725 0.73837 0.92797
 H2588 H 0.76970 0.72590 0.90313
 H2589 H 0.81262 0.72373 0.92558
 H2590 H 0.80017 0.73620 0.95041
 C2591 C 0.78805 0.21168 0.41864
 C2592 C 0.78082 0.19928 0.43028
 C2593 C 0.77411 0.20599 0.44365
 C2594 C 0.77530 0.22445 0.44409
 C2595 C 0.76753 0.23015 0.42834
 C2596 C 0.77423 0.22344 0.41496
 C2597 C 0.80004 0.22139 0.42880
 C2598 C 0.79333 0.22810 0.44218
 C2599 C 0.79527 0.20445 0.40423
 C2600 C 0.80120 0.19850 0.39240
 C2601 C 0.76813 0.23161 0.45856
 C2602 C 0.76244 0.23730 0.47063
 H2603 H 0.78101 0.18637 0.42822
 H2604 H 0.76855 0.19882 0.45305
 H2605 H 0.75764 0.23871 0.42775
 H2606 H 0.77009 0.22624 0.40290
 H2607 H 0.81269 0.22281 0.42580
 H2608 H 0.80025 0.23527 0.45063
 C2609 C 0.71198 0.28802 0.41861
 C2610 C 0.70443 0.29396 0.43438
 C2611 C 0.71112 0.28723 0.44776
 C2612 C 0.72471 0.27521 0.44406
 C2613 C 0.73678 0.28466 0.43374
 C2614 C 0.73009 0.29140 0.42036
 C2615 C 0.71047 0.26960 0.41921
 C2616 C 0.71717 0.26286 0.43259
 C2617 C 0.70478 0.29528 0.40421
 C2618 C 0.69887 0.30124 0.39238
 C2619 C 0.73185 0.26803 0.45853
 C2620 C 0.73751 0.26233 0.47062
 H2621 H 0.69470 0.30269 0.43499
 H2622 H 0.70711 0.29020 0.45982
 H2623 H 0.74946 0.28597 0.43670
 H2624 H 0.73703 0.29850 0.41187
 H2625 H 0.70462 0.26248 0.40996
 H2626 H 0.71707 0.24997 0.43478
 C2627 C 0.71204 0.78828 0.91883
 C2628 C 0.70069 0.78805 0.93340
 C2629 C 0.70739 0.78133 0.94678
 C2630 C 0.72479 0.77549 0.94428
 C2631 C 0.73394 0.79030 0.93806
 C2632 C 0.72724 0.79702 0.92468
 C2633 C 0.71724 0.77068 0.91651
 C2634 C 0.72394 0.76395 0.92989
 C2635 C 0.70483 0.79552 0.90442
 C2636 C 0.69890 0.80146 0.89258
 C2637 C 0.73194 0.76831 0.95874
 C2638 C 0.73761 0.76261 0.97082
 H2639 H 0.68849 0.79279 0.93325
 H2640 H 0.70092 0.78031 0.95808
 H2641 H 0.74470 0.79512 0.94371
 H2642 H 0.73225 0.80761 0.91888
 H2643 H 0.71575 0.76407 0.90535
 H2644 H 0.72819 0.75158 0.93020
 C2645 C 0.21167 0.28813 0.91888
 C2646 C 0.22438 0.27523 0.91515
 C2647 C 0.23108 0.26854 0.92852
 C2648 C 0.22445 0.27536 0.94433
 C2649 C 0.20613 0.27302 0.94325
 C2650 C 0.19941 0.27973 0.92987
 C2651 C 0.22030 0.30034 0.92972
 C2652 C 0.22701 0.29363 0.94310
 C2653 C 0.20447 0.29532 0.90446
 C2654 C 0.19858 0.30119 0.89258
 C2655 C 0.23167 0.26814 0.95875
 C2656 C 0.23741 0.26241 0.97079
 H2657 H 0.22782 0.27166 0.90307
 H2658 H 0.24022 0.25927 0.92789
 H2659 H 0.19905 0.26664 0.95219
 H2660 H 0.18658 0.27909 0.92735
 H2661 H 0.22108 0.31313 0.92711
 H2662 H 0.23355 0.30067 0.95195
 C2663 C 0.21192 0.78827 0.41856
 C2664 C 0.20188 0.79077 0.43386
 C2665 C 0.20860 0.78407 0.44723
 C2666 C 0.22469 0.77551 0.44401
 C2667 C 0.23538 0.78829 0.43599
 C2668 C 0.22866 0.79500 0.42262
 C2669 C 0.21430 0.76997 0.41731
 C2670 C 0.22102 0.76326 0.43069
 C2671 C 0.20469 0.79549 0.40415
 C2672 C 0.19876 0.80143 0.39231
 C2673 C 0.23186 0.76834 0.45847
 C2674 C 0.23754 0.76266 0.47056
 H2675 H 0.19052 0.79727 0.43416
 H2676 H 0.20298 0.78482 0.45900
 H2677 H 0.24716 0.79180 0.44046
 H2678 H 0.23468 0.80426 0.41563
 H2679 H 0.21096 0.76290 0.40685
 H2680 H 0.22347 0.75045 0.43169
 C2681 C 0.71189 0.71198 0.58141
 C2682 C 0.70474 0.72847 0.57704
 C2683 C 0.71143 0.73519 0.56366
 C2684 C 0.72463 0.72477 0.55595
 C2685 C 0.71657 0.70841 0.55284
 C2686 C 0.70988 0.70170 0.56621
 C2687 C 0.73011 0.71486 0.58286
 C2688 C 0.73681 0.72158 0.56948
 C2689 C 0.70469 0.70474 0.59583
 C2690 C 0.69879 0.69881 0.60768
 C2691 C 0.73179 0.73194 0.54148
 C2692 C 0.73746 0.73763 0.52939
 H2693 H 0.69521 0.73432 0.58382
 H2694 H 0.70765 0.74681 0.55899
 H2695 H 0.71613 0.70263 0.54114
 H2696 H 0.70371 0.69017 0.56597
 H2697 H 0.73714 0.71185 0.59346
 H2698 H 0.74957 0.72435 0.56862
 C2699 C 0.71201 0.21182 0.08130
 C2700 C 0.72253 0.20012 0.07160
 C2701 C 0.72921 0.20686 0.05822
 C2702 C 0.72472 0.22465 0.05586
 C2703 C 0.72969 0.23297 0.07156
 C2704 C 0.72300 0.22623 0.08494
 C2705 C 0.69953 0.21823 0.06926
 C2706 C 0.70621 0.22498 0.05589
 C2707 C 0.70482 0.20456 0.09571
 C2708 C 0.69893 0.19861 0.10755
 C2709 C 0.73186 0.23186 0.04140
 C2710 C 0.73753 0.23758 0.02932
 H2711 H 0.72451 0.18762 0.07491
 H2712 H 0.73692 0.20013 0.05009
 H2713 H 0.73776 0.24322 0.07214
 H2714 H 0.72533 0.23074 0.09697
 H2715 H 0.68659 0.21749 0.07106
 H2716 H 0.69899 0.23002 0.04624
 C2717 C 0.21190 0.71194 0.08119
 C2718 C 0.22189 0.70002 0.07120
 C2719 C 0.22864 0.70671 0.05783
 C2720 C 0.22473 0.72467 0.05576
 C2721 C 0.23017 0.73260 0.07151
 C2722 C 0.22343 0.72592 0.08488
 C2723 C 0.19951 0.71894 0.06940
 C2724 C 0.20625 0.72563 0.05603
 C2725 C 0.20465 0.70474 0.09559
 C2726 C 0.19871 0.69883 0.10743
 C2727 C 0.23195 0.73184 0.04131
 C2728 C 0.23767 0.73753 0.02924
 H2729 H 0.22350 0.68742 0.07433
 H2730 H 0.23602 0.69984 0.04951
 H2731 H 0.23862 0.74253 0.07212
 H2732 H 0.22607 0.73017 0.09693
 H2733 H 0.18657 0.71862 0.07135
 H2734 H 0.19908 0.73104 0.04653
 C2735 C 0.21170 0.21173 0.58133
 C2736 C 0.21903 0.19933 0.56975
 C2737 C 0.22575 0.20604 0.55638
 C2738 C 0.22451 0.22449 0.55591
 C2739 C 0.23220 0.23017 0.57168
 C2740 C 0.22546 0.22349 0.58505
 C2741 C 0.19972 0.22142 0.57112
 C2742 C 0.20645 0.22813 0.55775
 C2743 C 0.20448 0.20452 0.59574
 C2744 C 0.19858 0.19860 0.60759
 C2745 C 0.23171 0.23169 0.54147
 C2746 C 0.23743 0.23742 0.52942
 H2747 H 0.21895 0.18643 0.57187
 H2748 H 0.23144 0.19888 0.54705
 H2749 H 0.24218 0.23853 0.57230
 H2750 H 0.22961 0.22625 0.59712
 H2751 H 0.18705 0.22284 0.57409
 H2752 H 0.19954 0.23530 0.54928
   
