data_POSCAR
  _audit_creation_date              2014-09-24
  _audit_creation_method            'ToBaCCo'
  _symmetry_space_group_name_H-M    'P1'
  _symmetry_Int_Tables_number       1
  _symmetry_cell_setting            triclinic
  loop_
  _symmetry_equiv_pos_as_xyz
 x,y,z
_cell_length_a 44.9044
_cell_length_b 43.5049
_cell_length_c 44.4281
_cell_angle_alpha 90.250000
_cell_angle_beta 89.763700
_cell_angle_gamma 90.074400
loop_
  _atom_site_label
  _atom_site_type_symbol
  _atom_site_fract_x
  _atom_site_fract_y
  _atom_site_fract_z
C1 C 0.31832 0.31349 -0.02014
 C2 C 0.31804 0.31327 0.01064
 C3 C 0.29650 0.33222 0.02827
 C4 C 0.33902 0.29428 0.02841
 C5 C 0.33701 0.29202 -0.03854
 C6 C 0.29944 0.33553 -0.03702
 C7 C 0.30696 0.35202 0.05093
 C8 C 0.28711 0.37032 0.06732
 C9 C 0.25650 0.36901 0.06137
 C10 C 0.24587 0.34906 0.03900
 C11 C 0.26570 0.33050 0.02279
 C12 C 0.36989 0.29536 0.02311
 C13 C 0.38909 0.27640 0.03931
 C14 C 0.37773 0.25639 0.06124
 C15 C 0.34709 0.25644 0.06755
 C16 C 0.32789 0.27511 0.05118
 C17 C 0.33915 0.26058 -0.03170
 C18 C 0.35699 0.24103 -0.04912
 C19 C 0.37146 0.25182 -0.07536
 C20 C 0.36880 0.28336 -0.08224
 C21 C 0.35204 0.30309 -0.06404
 C22 C 0.27946 0.32459 -0.05879
 C23 C 0.26030 0.34486 -0.07338
 C24 C 0.26063 0.37632 -0.06617
 C25 C 0.28156 0.38748 -0.04546
 C26 C 0.30096 0.36726 -0.03113
 H27 H 0.33056 0.35360 0.05563
 H28 H 0.29559 0.38564 0.08455
 H29 H 0.22226 0.34772 0.03429
 H30 H 0.25708 0.31492 0.00586
 H31 H 0.37902 0.31060 0.00620
 H32 H 0.41276 0.27706 0.03455
 H33 H 0.30423 0.27424 0.05593
 H34 H 0.32688 0.25100 -0.01293
 H35 H 0.35784 0.21697 -0.04302
 H36 H 0.38083 0.29326 -0.10105
 H37 H 0.35101 0.32723 -0.06981
 H38 H 0.27824 0.30027 -0.06396
 H39 H 0.24478 0.33598 -0.08988
 H40 H 0.28249 0.41176 -0.04004
 H41 H 0.31676 0.37624 -0.01496
 H42 H 0.33805 0.24167 0.08491
 C43 C 0.68810 0.69136 -0.01713
 C44 C 0.68981 0.69093 0.01351
 C45 C 0.70861 0.66845 0.02974
 C46 C 0.67132 0.71172 0.03236
 C47 C 0.66604 0.71098 -0.03289
 C48 C 0.70743 0.67162 -0.03624
 C49 C 0.70394 0.63669 0.02635
 C50 C 0.72067 0.61578 0.04309
 C51 C 0.74217 0.62635 0.06355
 C52 C 0.74739 0.65809 0.06623
 C53 C 0.73043 0.67897 0.04979
 C54 C 0.65129 0.69916 0.05331
 C55 C 0.63122 0.71811 0.06863
 C56 C 0.63114 0.74982 0.06332
 C57 C 0.65199 0.76266 0.04349
 C58 C 0.67215 0.74372 0.02821
 C59 C 0.67565 0.73223 -0.05455
 C60 C 0.65519 0.75166 -0.06855
 C61 C 0.62486 0.75010 -0.06099
 C62 C 0.61510 0.72817 -0.04007
 C63 C 0.63550 0.70863 -0.02627
 C64 C 0.73848 0.67129 -0.03244
 C65 C 0.75617 0.65141 -0.04958
 C66 C 0.74318 0.63221 -0.07135
 C67 C 0.71227 0.63313 -0.07570
 C68 C 0.69455 0.65277 -0.05836
 H69 H 0.68699 0.62817 0.01117
 H70 H 0.71647 0.59139 0.04055
 H71 H 0.76424 0.66666 0.08150
 H72 H 0.73433 0.70338 0.05265
 H73 H 0.65035 0.67456 0.05683
 H74 H 0.61517 0.70800 0.08394
 H75 H 0.68771 0.75384 0.01240
 H76 H 0.69907 0.73414 -0.06019
 H77 H 0.66301 0.76820 -0.08493
 H78 H 0.59168 0.72628 -0.03443
 H79 H 0.62752 0.69186 -0.01018
 H80 H 0.74894 0.68610 -0.01592
 H81 H 0.77995 0.65072 -0.04566
 H82 H 0.70185 0.61835 -0.09229
 H83 H 0.67068 0.65275 -0.06173
 H84 H 0.65207 0.78716 0.03926
 C85 C 0.68540 0.30771 1.01968
 C86 C 0.68323 0.31104 0.98926
 C87 C 0.70181 0.33369 0.97271
 C88 C 0.66233 0.29225 0.97103
 C89 C 0.66395 0.28853 1.03688
 C90 C 0.70767 0.32535 1.03742
 C91 C 0.70068 0.36517 0.97992
 C92 C 0.71967 0.38595 0.96548
 C93 C 0.73997 0.37552 0.94366
 C94 C 0.74037 0.34426 0.93572
 C95 C 0.72137 0.32351 0.95009
 C96 C 0.64318 0.30670 0.95060
 C97 C 0.62359 0.28931 0.93312
 C98 C 0.62304 0.25720 0.93562
 C99 C 0.64202 0.24271 0.95616
 C100 C 0.66180 0.26006 0.97345
 C101 C 0.67436 0.26468 1.05517
 C102 C 0.65436 0.24692 1.07189
 C103 C 0.62371 0.25332 1.07121
 C104 C 0.61330 0.27707 1.05276
 C105 C 0.63327 0.29462 1.03579
 C106 C 0.73791 0.32581 1.02910
 C107 C 0.75749 0.34657 1.04269
 C108 C 0.74732 0.36674 1.06532
 C109 C 0.71779 0.36377 1.07574
 C110 C 0.69809 0.34358 1.06166
 H111 H 0.68541 0.37348 0.99704
 H112 H 0.71885 0.41007 0.97158
 H113 H 0.75556 0.33597 0.91853
 H114 H 0.72239 0.29937 0.94411
 H115 H 0.64328 0.33148 0.94835
 H116 H 0.60899 0.30084 0.91746
 H117 H 0.67676 0.24839 0.98864
 H118 H 0.69796 0.25970 1.05627
 H119 H 0.66276 0.22837 1.08563
 H120 H 0.58973 0.28225 1.05183
 H121 H 0.62487 0.31318 1.02206
 H122 H 0.74605 0.31100 1.01124
 H123 H 0.78052 0.34712 1.03531
 H124 H 0.70934 0.37857 1.09349
 H125 H 0.67499 0.34330 1.06876
 H126 H 0.64167 0.21794 0.95854
 C127 C 0.31615 0.68848 1.01577
 C128 C 0.31445 0.68959 0.98516
 C129 C 0.29320 0.67021 0.96778
 C130 C 0.33496 0.70913 0.96737
 C131 C 0.33748 0.70793 1.03309
 C132 C 0.29831 0.66611 1.03330
 C133 C 0.30385 0.65164 0.94414
 C134 C 0.28439 0.63286 0.92788
 C135 C 0.25391 0.63249 0.93483
 C136 C 0.24310 0.65117 0.95825
 C137 C 0.26255 0.67015 0.97441
 C138 C 0.36574 0.70360 0.96745
 C139 C 0.38492 0.72229 0.95075
 C140 C 0.37357 0.74667 0.93370
 C141 C 0.34279 0.75241 0.93399
 C142 C 0.32357 0.73344 0.95033
 C143 C 0.33918 0.73985 1.02881
 C144 C 0.36099 0.75727 1.04347
 C145 C 0.38152 0.74324 1.06308
 C146 C 0.37794 0.71164 1.06909
 C147 C 0.35651 0.69420 1.05403
 C148 C 0.27808 0.67662 1.05505
 C149 C 0.26142 0.65574 1.07196
 C150 C 0.26537 0.62377 1.06825
 C151 C 0.28550 0.61349 1.04589
 C152 C 0.30194 0.63443 1.02881
 H153 H 0.32735 0.65131 0.93858
 H154 H 0.29310 0.61841 0.90999
 H155 H 0.21960 0.65116 0.96384
 H156 H 0.25373 0.68472 0.99213
 H157 H 0.37482 0.68480 0.98041
 H158 H 0.40861 0.71766 0.95097
 H159 H 0.29988 0.73804 0.95018
 H160 H 0.32399 0.75123 1.01365
 H161 H 0.36250 0.78152 1.03831
 H162 H 0.39168 0.70028 1.08563
 H163 H 0.35513 0.66977 1.05842
 H164 H 0.27481 0.70105 1.05852
 H165 H 0.24490 0.66472 1.08749
 H166 H 0.28938 0.58919 1.04227
 H167 H 0.31774 0.62595 1.01227
 H168 H 0.33370 0.77148 0.92143
 C169 C -0.01479 0.30721 0.30777
 C170 C 0.01543 0.30726 0.30494
 C171 C 0.03477 0.28700 0.32313
 C172 C 0.03047 0.32946 0.28490
 C173 C -0.03303 0.32794 0.28907
 C174 C -0.03058 0.28715 0.32963
 C175 C 0.05583 0.30023 0.34255
 C176 C 0.07113 0.28201 0.36311
 C177 C 0.06573 0.25033 0.36431
 C178 C 0.04598 0.23673 0.34383
 C179 C 0.03071 0.25495 0.32317
 C180 C 0.03112 0.36076 0.29248
 C181 C 0.04478 0.38184 0.27331
 C182 C 0.05779 0.37189 0.24620
 C183 C 0.05763 0.34046 0.23890
 C184 C 0.04402 0.31934 0.25818
 C185 C -0.03850 0.32088 0.25883
 C186 C -0.05321 0.34194 0.24047
 C187 C -0.06171 0.37112 0.25163
 C188 C -0.05703 0.37734 0.28250
 C189 C -0.04297 0.35593 0.30097
 C190 C -0.05372 0.26791 0.31984
 C191 C -0.06678 0.24683 0.33957
 C192 C -0.05632 0.24397 0.36928
 C193 C -0.03434 0.26462 0.37944
 C194 C -0.02200 0.28629 0.35997
 H195 H 0.05930 0.32487 0.34288
 H196 H 0.08634 0.29272 0.37886
 H197 H 0.04165 0.21225 0.34460
 H198 H 0.01476 0.24432 0.30814
 H199 H 0.02111 0.36879 0.31330
 H200 H 0.04534 0.40591 0.27961
 H201 H 0.04378 0.29518 0.25219
 H202 H -0.03121 0.29912 0.24945
 H203 H -0.05818 0.33517 0.21756
 H204 H -0.06301 0.39935 0.29224
 H205 H -0.03872 0.36171 0.32430
 H206 H -0.06106 0.26850 0.29666
 H207 H -0.08402 0.23170 0.33111
 H208 H -0.02711 0.26437 0.40266
 H209 H -0.00518 0.30191 0.36844
 H210 H 0.06796 0.33238 0.21826
 C211 C -0.01931 0.68533 0.68537
 C212 C 0.01110 0.68547 0.68608
 C213 C 0.02906 0.70675 0.66716
 C214 C 0.02809 0.66423 0.70560
 C215 C -0.03770 0.66583 0.70594
 C216 C -0.03584 0.70401 0.66303
 C217 C 0.05194 0.69497 0.64884
 C218 C 0.06890 0.71458 0.63081
 C219 C 0.06337 0.74629 0.63098
 C220 C 0.04071 0.75820 0.64942
 C221 C 0.02387 0.73861 0.66766
 C222 C 0.02351 0.63231 0.70404
 C223 C 0.03820 0.61281 0.72395
 C224 C 0.05788 0.62495 0.74541
 C225 C 0.06350 0.65664 0.74607
 C226 C 0.04870 0.67616 0.72627
 C227 C -0.03169 0.66399 0.73694
 C228 C -0.04824 0.64438 0.75542
 C229 C -0.07260 0.62782 0.74381
 C230 C -0.07916 0.63043 0.71299
 C231 C -0.06182 0.64903 0.69429
 C232 C -0.05766 0.72476 0.67286
 C233 C -0.07399 0.74177 0.65210
 C234 C -0.06943 0.73787 0.62088
 C235 C -0.04685 0.71752 0.61124
 C236 C -0.03056 0.70049 0.63206
 H237 H 0.05639 0.67051 0.64821
 H238 H 0.08622 0.70506 0.61652
 H239 H 0.03622 0.78266 0.64978
 H240 H 0.00677 0.74826 0.68210
 H241 H 0.00817 0.62264 0.68781
 H242 H 0.03405 0.58830 0.72288
 H243 H 0.05272 0.70069 0.72758
 H244 H -0.01402 0.67753 0.74687
 H245 H -0.04268 0.64303 0.77908
 H246 H -0.09717 0.61725 0.70313
 H247 H -0.06702 0.64995 0.67053
 H248 H -0.06182 0.72802 0.69670
 H249 H -0.08986 0.75845 0.66057
 H250 H -0.04256 0.71378 0.58750
 H251 H -0.01405 0.68426 0.62401
 H252 H 0.07889 0.66625 0.76229
 C253 C 1.01828 0.68721 0.31156
 C254 C 0.98797 0.68777 0.30994
 C255 C 0.96976 0.70885 0.32903
 C256 C 0.97135 0.66585 0.29063
 C257 C 1.03666 0.66754 0.29125
 C258 C 1.03448 0.70492 0.33498
 C259 C 0.94638 0.69691 0.34655
 C260 C 0.92978 0.71613 0.36543
 C261 C 0.93620 0.74763 0.36699
 C262 C 0.95922 0.75979 0.34923
 C263 C 0.97568 0.74059 0.33010
 C264 C 0.97499 0.63399 0.29410
 C265 C 0.95784 0.61348 0.27720
 C266 C 0.93658 0.62456 0.25695
 C267 C 0.93331 0.65637 0.25306
 C268 C 0.95041 0.67688 0.27000
 C269 C 1.03330 0.66848 0.25987
 C270 C 1.05050 0.64946 0.24122
 C271 C 1.07202 0.62955 0.25347
 C272 C 1.07516 0.62883 0.28505
 C273 C 1.05791 0.64774 0.30360
 C274 C 1.05709 0.72543 0.32663
 C275 C 1.07266 0.74195 0.34854
 C276 C 1.06649 0.73769 0.37941
 C277 C 1.04332 0.71739 0.38750
 C278 C 1.02784 0.70088 0.36558
 H279 H 0.94136 0.67255 0.34606
 H280 H 0.91212 0.70644 0.37910
 H281 H 0.96435 0.78411 0.35016
 H282 H 0.99321 0.75041 0.31636
 H283 H 0.99067 0.62506 0.31031
 H284 H 0.96061 0.58898 0.28041
 H285 H 0.94722 0.70137 0.26717
 H286 H 1.01715 0.68373 0.24980
 H287 H 1.04626 0.64969 0.21724
 H288 H 1.09153 0.61411 0.29550
 H289 H 1.06095 0.64666 0.32775
 H290 H 1.06258 0.72874 0.30311
 H291 H 1.09026 0.75731 0.34131
 H292 H 1.03674 0.71468 0.41082
 H293 H 1.01052 0.68502 0.37248
 H294 H 0.91713 0.66523 0.23731
 C295 C 1.01682 0.30396 0.69493
 C296 C 0.98656 0.30225 0.69700
 C297 C 0.96909 0.28124 0.67738
 C298 C 0.96946 0.32368 0.71643
 C299 C 1.03441 0.32430 0.71521
 C300 C 1.03330 0.28747 0.67071
 C301 C 0.94735 0.29339 0.65820
 C302 C 0.93359 0.27468 0.63676
 C303 C 0.94128 0.24354 0.63427
 C304 C 0.96165 0.23090 0.65462
 C305 C 0.97547 0.24964 0.67607
 C306 C 0.97084 0.35549 0.71143
 C307 C 0.95388 0.37561 0.72905
 C308 C 0.93521 0.36420 0.75183
 C309 C 0.93453 0.33244 0.75739
 C310 C 0.95116 0.31227 0.73946
 C311 C 1.03068 0.32315 0.74664
 C312 C 1.04531 0.34430 0.76522
 C313 C 1.06417 0.36654 0.75264
 C314 C 1.06900 0.36685 0.72146
 C315 C 1.05424 0.34587 0.70287
 C316 C 1.05606 0.26684 0.67797
 C317 C 1.07122 0.25087 0.65525
 C318 C 1.06447 0.25580 0.62465
 C319 C 1.04114 0.27619 0.61767
 C320 C 1.02614 0.29221 0.64037
 H321 H 0.94204 0.31766 0.65888
 H322 H 0.91769 0.28470 0.62139
 H323 H 0.96746 0.20678 0.65326
 H324 H 0.99187 0.23976 0.69098
 H325 H 0.98474 0.36464 0.69360
 H326 H 0.95492 0.40005 0.72460
 H327 H 0.94995 0.28779 0.74362
 H328 H 1.01596 0.30631 0.75669
 H329 H 1.04153 0.34372 0.78930
 H330 H 1.08356 0.38391 0.71149
 H331 H 1.05753 0.34713 0.67874
 H332 H 1.06188 0.26291 0.70127
 H333 H 1.08895 0.23538 0.66164
 H334 H 1.03406 0.27935 0.59462
 H335 H 1.00866 0.30811 0.63428
 H336 H 0.92069 0.32328 0.77526
 C337 C 0.29988 -0.02377 0.30071
 C338 C 0.29816 0.00761 0.30197
 C339 C 0.31786 0.02758 0.28320
 C340 C 0.27933 0.02320 0.32512
 C341 C 0.27962 -0.04336 0.31898
 C342 C 0.32445 -0.03971 0.28454
 C343 C 0.33330 0.05209 0.29672
 C344 C 0.35464 0.06855 0.28051
 C345 C 0.36159 0.06030 0.25072
 C346 C 0.34469 0.03737 0.23644
 C347 C 0.32270 0.02142 0.25243
 C348 C 0.28220 0.01556 0.35568
 C349 C 0.26523 0.03060 0.37752
 C350 C 0.24623 0.05475 0.36950
 C351 C 0.24323 0.06246 0.33899
 C352 C 0.25972 0.04681 0.31695
 C353 C 0.24856 -0.03965 0.31763
 C354 C 0.23014 -0.05407 0.33874
 C355 C 0.24259 -0.07229 0.36144
 C356 C 0.27333 -0.07787 0.36134
 C357 C 0.29171 -0.06362 0.34019
 C358 C 0.31810 -0.06306 0.26372
 C359 C 0.34118 -0.07843 0.24877
 C360 C 0.37123 -0.07131 0.25491
 C361 C 0.37730 -0.04741 0.27554
 C362 C 0.35425 -0.03225 0.29057
 H363 H 0.32977 0.05774 0.32023
 H364 H 0.36674 0.08688 0.29164
 H365 H 0.34918 0.03112 0.21324
 H366 H 0.31035 0.00339 0.24114
 H367 H 0.29784 -0.00188 0.36271
 H368 H 0.26757 0.02402 0.40088
 H369 H 0.25742 0.05327 0.29356
 H370 H 0.23880 -0.02443 0.30117
 H371 H 0.20637 -0.04994 0.33826
 H372 H 0.28322 -0.09213 0.37854
 H373 H 0.31558 -0.06687 0.34159
 H374 H 0.29523 -0.06928 0.25895
 H375 H 0.33545 -0.09664 0.23313
 H376 H 0.39994 -0.03996 0.27970
 H377 H 0.35967 -0.01447 0.30678
 H378 H 0.22859 0.08097 0.33235
 C379 C 0.69619 -0.01722 0.69433
 C380 C 0.69683 0.01405 0.69177
 C381 C 0.67740 0.03430 0.71051
 C382 C 0.71553 0.02953 0.66866
 C383 C 0.71628 -0.03707 0.67609
 C384 C 0.67351 -0.03280 0.71324
 C385 C 0.65964 0.05659 0.69653
 C386 C 0.64046 0.07503 0.71356
 C387 C 0.63885 0.07165 0.74489
 C388 C 0.65687 0.04974 0.75903
 C389 C 0.67630 0.03146 0.74201
 C390 C 0.71328 0.02137 0.63811
 C391 C 0.73058 0.03633 0.61653
 C392 C 0.74951 0.06056 0.62492
 C393 C 0.75175 0.06880 0.65540
 C394 C 0.73481 0.05345 0.67711
 C395 C 0.74729 -0.03263 0.67645
 C396 C 0.76545 -0.04765 0.65543
 C397 C 0.75282 -0.06732 0.63385
 C398 C 0.72217 -0.07347 0.63489
 C399 C 0.70402 -0.05851 0.65593
 C400 C 0.68227 -0.05230 0.73658
 C401 C 0.66095 -0.06537 0.75569
 C402 C 0.63037 -0.05901 0.75195
 C403 C 0.62181 -0.04093 0.72717
 C404 C 0.64311 -0.02788 0.70818
 H405 H 0.66014 0.05925 0.67230
 H406 H 0.62646 0.09160 0.70227
 H407 H 0.65578 0.04675 0.78319
 H408 H 0.69020 0.01487 0.75336
 H409 H 0.69803 0.00352 0.63097
 H410 H 0.72885 0.02940 0.59315
 H411 H 0.73668 0.06022 0.70051
 H412 H 0.75719 -0.01647 0.69211
 H413 H 0.78915 -0.04301 0.65514
 H414 H 0.71213 -0.08880 0.61854
 H415 H 0.68019 -0.06231 0.65532
 H416 H 0.70567 -0.05665 0.74053
 H417 H 0.66860 -0.07936 0.77421
 H418 H 0.59852 -0.03721 0.72211
 H419 H 0.63590 -0.01372 0.68959
 H420 H 0.76634 0.08735 0.66231
 C421 C 0.30981 1.01835 0.68594
 C422 C 0.31012 0.98704 0.68770
 C423 C 0.33255 0.97040 0.70590
 C424 C 0.28931 0.96817 0.66950
 C425 C 0.29036 1.03435 0.66415
 C426 C 0.33026 1.03782 0.70397
 C427 C 0.36316 0.97577 0.70172
 C428 C 0.38398 0.96160 0.72033
 C429 C 0.37451 0.94156 0.74310
 C430 C 0.34410 0.93497 0.74634
 C431 C 0.32323 0.94929 0.72782
 C432 C 0.30078 0.94750 0.64812
 C433 C 0.28184 0.93325 0.62752
 C434 C 0.25120 0.93953 0.62802
 C435 C 0.23942 0.95862 0.65059
 C436 C 0.25837 0.97278 0.67132
 C437 C 0.26819 1.05451 0.67448
 C438 C 0.24858 1.06810 0.65413
 C439 C 0.25104 1.06179 0.62320
 C440 C 0.27404 1.04260 0.61280
 C441 C 0.29352 1.02893 0.63313
 C442 C 0.33238 1.03440 0.73534
 C443 C 0.35413 1.05043 0.75143
 C444 C 0.37356 1.07045 0.73641
 C445 C 0.37055 1.07508 0.70542
 C446 C 0.34898 1.05890 0.68929
 H447 H 0.37086 0.99137 0.68442
 H448 H 0.40744 0.96659 0.71733
 H449 H 0.33652 0.91931 0.76365
 H450 H 0.29975 0.94459 0.73112
 H451 H 0.32455 0.94358 0.64645
 H452 H 0.29115 0.91815 0.61048
 H453 H 0.24911 0.98835 0.68797
 H454 H 0.26565 1.05910 0.69833
 H455 H 0.23123 1.08318 0.66250
 H456 H 0.27671 1.03803 0.58896
 H457 H 0.31087 1.01384 0.62476
 H458 H 0.31783 1.01862 0.74715
 H459 H 0.35631 1.04672 0.77542
 H460 H 0.38551 1.09048 0.69363
 H461 H 0.34769 1.06191 0.66514
 H462 H 0.21576 0.96339 0.65145
 C463 C 0.68956 1.02015 0.31317
 C464 C 0.69177 0.98910 0.31135
 C465 C 0.67190 0.97131 0.29136
 C466 C 0.71196 0.97187 0.33140
 C467 C 0.70947 1.03818 0.33294
 C468 C 0.66646 1.03675 0.29628
 C469 C 0.64498 0.95973 0.30267
 C470 C 0.62472 0.94543 0.28338
 C471 C 0.63112 0.94254 0.25255
 C472 C 0.65848 0.95333 0.24139
 C473 C 0.67869 0.96786 0.26069
 C474 C 0.70821 0.97373 0.36274
 C475 C 0.72865 0.95986 0.38189
 C476 C 0.75280 0.94339 0.36998
 C477 C 0.75592 0.94033 0.33867
 C478 C 0.73562 0.95461 0.31944
 C479 C 0.73977 1.04104 0.32580
 C480 C 0.75949 1.05414 0.34647
 C481 C 0.74937 1.06347 0.37514
 C482 C 0.71862 1.06205 0.38143
 C483 C 0.69885 1.04970 0.36044
 C484 C 0.67185 1.04574 0.26652
 C485 C 0.64914 1.05913 0.24968
 C486 C 0.62084 1.06367 0.26247
 C487 C 0.61575 1.05540 0.29255
 C488 C 0.63836 1.04172 0.30927
 H489 H 0.63940 0.96250 0.32627
 H490 H 0.60378 0.93705 0.29237
 H491 H 0.66388 0.95096 0.21771
 H492 H 0.69936 0.97688 0.25169
 H493 H 0.68967 0.98631 0.37235
 H494 H 0.72568 0.96194 0.40602
 H495 H 0.73870 0.95281 0.29531
 H496 H 0.74826 1.03222 0.30461
 H497 H 0.78294 1.05522 0.34074
 H498 H 0.70990 1.07035 0.40274
 H499 H 0.67550 1.04774 0.36628
 H500 H 0.69342 1.04179 0.25621
 H501 H 0.65346 1.06559 0.22655
 H502 H 0.59414 1.05913 0.30285
 H503 H 0.63383 1.03452 0.33214
 H504 H 0.77428 0.92731 0.32922
 O505 O 0.88512 0.84196 0.46872
 O506 O 0.84497 0.88449 0.52836
 O507 O 0.88300 0.83899 0.52747
 O508 O 0.84749 0.88699 0.46949
 O509 O 0.80975 0.85473 0.46794
 O510 O 0.84600 0.80575 0.52394
 O511 O 0.80819 0.85087 0.52611
 O512 O 0.84736 0.80959 0.46536
 Cu513 Cu 0.86891 0.86641 0.49891
 Cu514 Cu 0.82417 0.82686 0.49557
 C515 C 0.87266 0.81894 0.45636
 C516 C 0.81966 0.87501 0.53730
 C517 C 0.87038 0.81425 0.53570
 C518 C 0.82233 0.87923 0.45897
 O519 O 0.11256 0.15543 0.46733
 O520 O 0.15268 0.11456 0.52701
 O521 O 0.11288 0.15835 0.52581
 O522 O 0.15351 0.11224 0.46880
 O523 O 0.18867 0.14774 0.46759
 O524 O 0.14862 0.19324 0.52407
 O525 O 0.18851 0.14922 0.52530
 O526 O 0.14841 0.19027 0.46569
 Cu527 Cu 0.12924 0.13167 0.49735
 Cu528 Cu 0.17201 0.17374 0.49563
 C529 C 0.12357 0.17994 0.45659
 C530 C 0.17795 0.12424 0.53557
 C531 C 0.12373 0.18398 0.53417
 C532 C 0.17856 0.12186 0.45923
 O533 O 0.15227 0.88350 0.47043
 O534 O 0.11561 0.84325 0.53318
 O535 O 0.15542 0.88666 0.52920
 O536 O 0.11442 0.83819 0.47490
 O537 O 0.15108 0.80438 0.47609
 O538 O 0.19182 0.85247 0.52979
 O539 O 0.15220 0.80940 0.53407
 O540 O 0.18886 0.84977 0.47143
 Cu541 Cu 0.13079 0.86639 0.50181
 Cu542 Cu 0.17468 0.82565 0.50280
 C543 C 0.17700 0.87373 0.46041
 C544 C 0.12767 0.81955 0.54439
 C545 C 0.18052 0.87756 0.53877
 C546 C 0.12571 0.81270 0.46674
 O547 O 0.84950 0.10718 0.47177
 O548 O 0.89309 0.14864 0.52938
 O549 O 0.84800 0.10997 0.52946
 O550 O 0.89355 0.14607 0.46996
 O551 O 0.86274 0.18539 0.46945
 O552 O 0.81637 0.14866 0.52704
 O553 O 0.86090 0.18690 0.52813
 O554 O 0.81861 0.14663 0.46912
 Cu555 Cu 0.87451 0.12426 0.50046
 Cu556 Cu 0.83668 0.17091 0.49828
 C557 C 0.82640 0.11978 0.46103
 C558 C 0.88431 0.17477 0.53870
 C559 C 0.82366 0.12260 0.53734
 C560 C 0.88591 0.17201 0.45954
 O561 O 0.47034 0.89112 0.84403
 O562 O 0.52713 0.84879 0.88628
 O563 O 0.52839 0.89042 0.84426
 O564 O 0.46903 0.84719 0.88317
 O565 O 0.46975 0.81303 0.84630
 O566 O 0.53140 0.85394 0.80967
 O567 O 0.52717 0.81230 0.85188
 O568 O 0.47369 0.85736 0.80722
 Cu569 Cu 0.49870 0.87288 0.86804
 Cu570 Cu 0.50072 0.83061 0.82521
 C571 C 0.46273 0.88205 0.81804
 C572 C 0.53621 0.82286 0.87699
 C573 C 0.53981 0.87963 0.82019
 C574 C 0.45881 0.82297 0.87084
 O575 O 0.52657 0.15670 0.12548
 O576 O 0.46509 0.11571 0.16349
 O577 O 0.46861 0.15752 0.12177
 O578 O 0.52276 0.11388 0.16624
 O579 O 0.52238 0.15055 0.20083
 O580 O 0.46625 0.19287 0.15745
 O581 O 0.46478 0.15107 0.19939
 O582 O 0.52422 0.19314 0.16011
 Cu583 Cu 0.49586 0.13241 0.14062
 Cu584 Cu 0.49423 0.17561 0.18289
 C585 C 0.53601 0.18188 0.13652
 C586 C 0.45500 0.12614 0.18826
 C587 C 0.45778 0.18231 0.13218
 C588 C 0.53168 0.12474 0.19119
 O589 O 0.53338 0.12346 0.83124
 O590 O 0.46940 0.15993 0.86959
 O591 O 0.47569 0.11968 0.82673
 O592 O 0.52765 0.16267 0.87496
 O593 O 0.52964 0.19973 0.84109
 O594 O 0.47514 0.15825 0.79451
 O595 O 0.47180 0.19841 0.83756
 O596 O 0.53317 0.16026 0.79725
 Cu597 Cu 0.50141 0.13768 0.85403
 Cu598 Cu 0.50254 0.18295 0.81430
 C599 C 0.54437 0.13582 0.80780
 C600 C 0.45935 0.18528 0.85975
 C601 C 0.46632 0.13181 0.80264
 C602 C 0.53792 0.18818 0.86586
 O603 O 0.47279 0.84164 0.11919
 O604 O 0.53059 0.88766 0.15720
 O605 O 0.53010 0.84565 0.11520
 O606 O 0.47247 0.88414 0.16114
 O607 O 0.47603 0.84741 0.19510
 O608 O 0.53560 0.81101 0.15100
 O609 O 0.53319 0.85306 0.19293
 O610 O 0.47823 0.80515 0.15314
 Cu611 Cu 0.50097 0.86849 0.13478
 Cu612 Cu 0.50617 0.82558 0.17653
 C613 C 0.46648 0.81508 0.12913
 C614 C 0.54136 0.87870 0.18202
 C615 C 0.54246 0.82162 0.12533
 C616 C 0.46464 0.87239 0.18608
 O617 O 0.83743 0.47097 0.88417
 O618 O 0.87729 0.52801 0.83785
 O619 O 0.83730 0.53028 0.87950
 O620 O 0.87839 0.46737 0.84221
 O621 O 0.84357 0.46473 0.80744
 O622 O 0.80178 0.52616 0.84534
 O623 O 0.84212 0.52460 0.80352
 O624 O 0.80297 0.46688 0.84916
 Cu625 Cu 0.86135 0.49930 0.86426
 Cu626 Cu 0.81924 0.49517 0.82278
 C627 C 0.81338 0.45915 0.87457
 C628 C 0.86576 0.53704 0.81335
 C629 C 0.81253 0.53877 0.86870
 C630 C 0.86766 0.45494 0.81870
 O631 O 0.16174 0.46903 0.11493
 O632 O 0.12358 0.53184 0.15577
 O633 O 0.16643 0.52894 0.11639
 O634 O 0.11798 0.47230 0.15372
 O635 O 0.15057 0.46806 0.19054
 O636 O 0.19828 0.52552 0.15397
 O637 O 0.15546 0.52699 0.19324
 O638 O 0.19419 0.46566 0.15195
 Cu639 Cu 0.13922 0.50085 0.13139
 Cu640 Cu 0.17800 0.49610 0.17603
 C641 C 0.18438 0.45645 0.12673
 C642 C 0.13306 0.53993 0.18153
 C643 C 0.19031 0.53736 0.12922
 C644 C 0.12582 0.46087 0.17871
 O645 O 0.88230 0.47140 0.15784
 O646 O 0.83749 0.52999 0.11897
 O647 O 0.87773 0.53089 0.16091
 O648 O 0.84144 0.47008 0.11598
 O649 O 0.80553 0.46762 0.14981
 O650 O 0.84426 0.52446 0.19667
 O651 O 0.80346 0.52666 0.15470
 O652 O 0.84627 0.46496 0.19090
 Cu653 Cu 0.86325 0.50097 0.13491
 Cu654 Cu 0.82143 0.49554 0.17655
 C655 C 0.87180 0.45764 0.18069
 C656 C 0.81300 0.53878 0.13054
 C657 C 0.86727 0.53798 0.18665
 C658 C 0.81676 0.45903 0.12490
 O659 O 0.15825 0.53203 0.88514
 O660 O 0.11565 0.47091 0.84666
 O661 O 0.15938 0.47206 0.88538
 O662 O 0.11466 0.53074 0.84703
 O663 O 0.14592 0.52963 0.80886
 O664 O 0.19187 0.47264 0.84805
 O665 O 0.14863 0.47044 0.80964
 O666 O 0.18997 0.53282 0.84707
 Cu667 Cu 0.13382 0.50133 0.86989
 Cu668 Cu 0.17249 0.50153 0.82477
 C669 C 0.18109 0.54327 0.87229
 C670 C 0.12472 0.46052 0.82145
 C671 C 0.18309 0.46209 0.87317
 C672 C 0.12213 0.53970 0.82096
 C673 C 0.22937 0.38365 0.10941
 C674 C 0.23574 0.38878 0.07859
 C675 C 0.22299 0.41391 0.06394
 C676 C 0.20544 0.43491 0.07972
 C677 C 0.20005 0.43136 0.11061
 C678 C 0.21108 0.40489 0.12551
 C679 C 0.24044 0.35753 0.12444
 C680 C 0.23338 0.35226 0.15456
 C681 C 0.21502 0.37261 0.17015
 C682 C 0.20379 0.39857 0.15584
 H683 H 0.25426 0.34079 0.11297
 H684 H 0.24191 0.33207 0.16575
 H685 H 0.20924 0.36814 0.19340
 H686 H 0.18888 0.41311 0.16865
 H687 H 0.22754 0.41786 0.04030
 H688 H 0.19697 0.45480 0.06792
 C689 C 0.75919 0.60547 0.11406
 C690 C 0.75924 0.60427 0.08212
 C691 C 0.77673 0.58225 0.06733
 C692 C 0.79422 0.56175 0.08348
 C693 C 0.79503 0.56260 0.11504
 C694 C 0.77793 0.58521 0.13061
 C695 C 0.74066 0.62621 0.12998
 C696 C 0.74195 0.62841 0.16124
 C697 C 0.76161 0.61010 0.17723
 C698 C 0.77943 0.58876 0.16218
 H699 H 0.72489 0.64078 0.11853
 H700 H 0.72782 0.64462 0.17308
 H701 H 0.76300 0.61233 0.20147
 H702 H 0.79466 0.57563 0.17556
 H703 H 0.77699 0.58104 0.04297
 H704 H 0.80701 0.54473 0.07111
 C705 C 0.79161 0.39510 0.93014
 C706 C 0.76018 0.39736 0.92828
 C707 C 0.74746 0.41967 0.90984
 C708 C 0.76522 0.43918 0.89277
 C709 C 0.79639 0.43703 0.89335
 C710 C 0.80994 0.41448 0.91195
 C711 C 0.80520 0.37402 0.94986
 C712 C 0.83606 0.37099 0.95066
 C713 C 0.85390 0.38857 0.93172
 C714 C 0.84111 0.40998 0.91241
 H715 H 0.79213 0.35986 0.96493
 H716 H 0.84617 0.35466 0.96582
 H717 H 0.87783 0.38560 0.93196
 H718 H 0.85600 0.42235 0.89767
 H719 H 0.72346 0.42164 0.90825
 H720 H 0.75440 0.45627 0.87892
 C721 C 0.22710 0.61622 0.88711
 C722 C 0.23358 0.61188 0.91800
 C723 C 0.22116 0.58686 0.93325
 C724 C 0.20362 0.56540 0.91814
 C725 C 0.19790 0.56829 0.88729
 C726 C 0.20886 0.59444 0.87165
 C727 C 0.23780 0.64216 0.87142
 C728 C 0.23059 0.64669 0.84127
 C729 C 0.21234 0.62580 0.82633
 C730 C 0.20137 0.60002 0.84130
 H731 H 0.25143 0.65938 0.88237
 H732 H 0.23889 0.66673 0.82956
 H733 H 0.20640 0.62974 0.80308
 H734 H 0.18651 0.58508 0.82896
 H735 H 0.22579 0.58343 0.95692
 H736 H 0.19518 0.54581 0.93052
 C737 C 0.06635 0.23071 0.41769
 C738 C 0.07911 0.23190 0.38849
 C739 C 0.10545 0.21592 0.38232
 C740 C 0.11947 0.19903 0.40471
 C741 C 0.10712 0.19711 0.43361
 C742 C 0.08023 0.21277 0.44036
 C743 C 0.04015 0.24715 0.42488
 C744 C 0.02787 0.24582 0.45373
 C745 C 0.04130 0.22807 0.47584
 C746 C 0.06720 0.21164 0.46933
 H747 H 0.02895 0.26106 0.40830
 H748 H 0.00774 0.25847 0.45890
 H749 H 0.03165 0.22709 0.49818
 H750 H 0.07695 0.19828 0.48721
 H751 H 0.11545 0.21694 0.36011
 H752 H 0.14012 0.18728 0.39944
 C753 C 0.11152 0.77250 0.61543
 C754 C 0.08075 0.76679 0.61109
 C755 C 0.06608 0.78020 0.58675
 C756 C 0.08161 0.79795 0.56598
 C757 C 0.11230 0.80292 0.56891
 C758 C 0.12742 0.79098 0.59433
 C759 C 0.12667 0.76078 0.64068
 C760 C 0.15674 0.76722 0.64515
 C761 C 0.17217 0.78569 0.62488
 C762 C 0.15773 0.79765 0.59980
 H763 H 0.11535 0.74694 0.65736
 H764 H 0.16805 0.75816 0.66466
 H765 H 0.19540 0.79100 0.62875
 H766 H 0.17045 0.81262 0.58527
 H767 H 0.04251 0.77614 0.58334
 H768 H 0.06968 0.80705 0.54684
 C769 C 0.88889 0.77504 0.38305
 C770 C 0.91922 0.76763 0.38785
 C771 C 0.93371 0.77877 0.41349
 C772 C 0.91837 0.79595 0.43501
 C773 C 0.88805 0.80257 0.43153
 C774 C 0.87322 0.79297 0.40488
 C775 C 0.87401 0.76556 0.35665
 C776 C 0.84445 0.77379 0.35171
 C777 C 0.82931 0.79185 0.37266
 C778 C 0.84348 0.80154 0.39891
 H779 H 0.88516 0.75211 0.33946
 H780 H 0.83335 0.76646 0.33132
 H781 H 0.80652 0.79862 0.36843
 H782 H 0.83104 0.81630 0.41397
 H783 H 0.95696 0.77340 0.41725
 H784 H 0.93010 0.80340 0.45503
 C785 C 0.94602 0.21320 0.58550
 C786 C 0.92849 0.22464 0.60972
 C787 C 0.89773 0.21957 0.60987
 C788 C 0.88413 0.20321 0.58674
 C789 C 0.90080 0.19122 0.56270
 C790 C 0.93208 0.19628 0.56181
 C791 C 0.97693 0.21920 0.58371
 C792 C 0.99378 0.20854 0.55941
 C793 C 0.98020 0.19209 0.53631
 C794 C 0.94969 0.18615 0.53733
 H795 H 0.98833 0.23248 0.60077
 H796 H 1.01744 0.21333 0.55836
 H797 H 0.99333 0.18414 0.51733
 H798 H 0.94006 0.17402 0.51858
 H799 H 0.88409 0.22852 0.62807
 H800 H 0.86023 0.19977 0.58768
 C801 C 0.41595 0.07660 0.24725
 C802 C 0.38685 0.07536 0.23483
 C803 C 0.38145 0.08943 0.20704
 C804 C 0.40393 0.10541 0.19204
 C805 C 0.43219 0.10860 0.20482
 C806 C 0.43844 0.09433 0.23270
 C807 C 0.42351 0.05993 0.27338
 C808 C 0.45195 0.06203 0.28570
 C809 C 0.47343 0.08056 0.27229
 C810 C 0.46686 0.09655 0.24604
 H811 H 0.40781 0.04466 0.28420
 H812 H 0.45735 0.04914 0.30573
 H813 H 0.49547 0.08215 0.28197
 H814 H 0.48441 0.11024 0.23613
 H815 H 0.35949 0.08841 0.19706
 H816 H 0.39903 0.11604 0.17061
 C817 C 0.61775 0.12214 0.76461
 C818 C 0.61684 0.08965 0.76251
 C819 C 0.59377 0.07357 0.77657
 C820 C 0.57088 0.08902 0.79135
 C821 C 0.57028 0.12121 0.79266
 C822 C 0.59438 0.13816 0.77990
 C823 C 0.64192 0.13894 0.75261
 C824 C 0.64316 0.17081 0.75553
 C825 C 0.62061 0.18649 0.77062
 C826 C 0.59653 0.17048 0.78281
 H827 H 0.66031 0.12760 0.74138
 H828 H 0.66192 0.18337 0.74637
 H829 H 0.62194 0.21120 0.77321
 H830 H 0.58034 0.18382 0.79519
 H831 H 0.59320 0.04875 0.77538
 H832 H 0.55302 0.07563 0.80126
 C833 C 0.41241 0.94581 0.78504
 C834 C 0.39651 0.92789 0.76379
 C835 C 0.40208 0.89644 0.76146
 C836 C 0.42351 0.88254 0.77928
 C837 C 0.44033 0.89951 0.80019
 C838 C 0.43487 0.93183 0.80314
 C839 C 0.40615 0.97743 0.78875
 C840 C 0.42224 0.99533 0.80900
 C841 C 0.44489 0.98223 0.82577
 C842 C 0.45121 0.95097 0.82300
 H843 H 0.38873 0.98863 0.77614
 H844 H 0.41732 1.01957 0.81144
 H845 H 0.45766 0.99639 0.84112
 H846 H 0.46923 0.94272 0.83655
 H847 H 0.38990 0.88252 0.74538
 H848 H 0.42686 0.85801 0.77668
 C849 C 0.59284 0.94444 0.21048
 C850 C 0.60906 0.92784 0.23236
 C851 C 0.60289 0.89677 0.23683
 C852 C 0.58121 0.88182 0.22008
 C853 C 0.56408 0.89742 0.19857
 C854 C 0.56947 0.92954 0.19406
 C855 C 0.59882 0.97586 0.20525
 C856 C 0.58224 0.99247 0.18455
 C857 C 0.55857 0.97864 0.16973
 C858 C 0.55191 0.94775 0.17463
 H859 H 0.61611 0.98804 0.21727
 H860 H 0.58710 1.01654 0.18080
 H861 H 0.54498 0.99206 0.15462
 H862 H 0.53238 0.93919 0.16347
 H863 H 0.61510 0.88386 0.25354
 H864 H 0.57782 0.85754 0.22423
 C865 C 0.38959 0.23434 0.87513
 C866 C 0.38870 0.23282 0.90731
 C867 C 0.40754 0.21153 0.92160
 C868 C 0.42961 0.19593 0.90565
 C869 C 0.43318 0.19989 0.87460
 C870 C 0.41186 0.21767 0.85875
 C871 C 0.36691 0.24936 0.85867
 C872 C 0.36720 0.24975 0.82735
 C873 C 0.38924 0.23416 0.81152
 C874 C 0.41101 0.21785 0.82689
 H875 H 0.34800 0.25991 0.86971
 H876 H 0.34973 0.26150 0.81527
 H877 H 0.38891 0.23389 0.78716
 H878 H 0.42615 0.20441 0.81331
 H879 H 0.40745 0.20902 0.94585
 H880 H 0.44499 0.18166 0.91808
 C881 C 0.58543 0.79181 0.94117
 C882 C 0.60306 0.77073 0.92449
 C883 C 0.59866 0.76768 0.89352
 C884 C 0.57686 0.78464 0.87895
 C885 C 0.55817 0.80492 0.89486
 C886 C 0.56186 0.80798 0.92667
 C887 C 0.59098 0.79731 0.97199
 C888 C 0.57283 0.81702 0.98864
 C889 C 0.54823 0.83060 0.97531
 C890 C 0.54253 0.82599 0.94479
 H891 H 0.60950 0.78664 0.98343
 H892 H 0.57737 0.82110 1.01223
 H893 H 0.53345 0.84482 0.98871
 H894 H 0.52249 0.83621 0.93617
 H895 H 0.61206 0.75170 0.88051
 H896 H 0.57469 0.78184 0.85482
 C897 C 0.43370 0.74911 0.08230
 C898 C 0.40430 0.76068 0.07736
 C899 C 0.39748 0.79040 0.08802
 C900 C 0.41788 0.80745 0.10467
 C901 C 0.44571 0.79537 0.11200
 C902 C 0.45395 0.76598 0.10083
 C903 C 0.44440 0.72253 0.06726
 C904 C 0.47288 0.71122 0.07268
 C905 C 0.49169 0.72643 0.09253
 C906 C 0.48257 0.75369 0.10623
 H907 H 0.43137 0.71074 0.05039
 H908 H 0.48054 0.69074 0.06111
 H909 H 0.51386 0.71764 0.09653
 H910 H 0.49862 0.76539 0.12022
 H911 H 0.37559 0.80024 0.08479
 H912 H 0.41154 0.83011 0.11263
 C913 C 0.60407 0.23307 0.12123
 C914 C 0.60242 0.23494 0.08938
 C915 C 0.58013 0.21865 0.07416
 C916 C 0.55948 0.20089 0.08980
 C917 C 0.56041 0.19876 0.12124
 C918 C 0.58346 0.21412 0.13720
 C919 C 0.62546 0.24999 0.13766
 C920 C 0.62773 0.24687 0.16877
 C921 C 0.60883 0.22698 0.18412
 C922 C 0.58690 0.21073 0.16863
 H923 H 0.64050 0.26588 0.12675
 H924 H 0.64441 0.25979 0.18100
 H925 H 0.61107 0.22421 0.20821
 H926 H 0.57315 0.19520 0.18153
 H927 H 0.57864 0.21979 0.04985
 H928 H 0.54215 0.18926 0.07723
 C929 C 0.21298 0.05853 0.58108
 C930 C 0.23029 0.07610 0.60153
 C931 C 0.22930 0.10821 0.60030
 C932 C 0.21210 0.12311 0.57891
 C933 C 0.19549 0.10647 0.55772
 C934 C 0.19637 0.07372 0.55821
 C935 C 0.21166 0.02614 0.58300
 C936 C 0.19579 0.00899 0.56191
 C937 C 0.18153 0.02357 0.53826
 C938 C 0.18192 0.05553 0.53617
 H939 H 0.22257 0.01380 0.60094
 H940 H 0.19478 -0.01577 0.56373
 H941 H 0.16991 0.01003 0.52152
 H942 H 0.17115 0.06543 0.51686
 H943 H 0.24241 0.12192 0.61578
 H944 H 0.21187 0.14801 0.57888
 C945 C 0.76964 0.06409 0.42729
 C946 C 0.76958 0.07458 0.39688
 C947 C 0.79002 0.09747 0.38829
 C948 C 0.80832 0.11172 0.40937
 C949 C 0.80775 0.10274 0.43948
 C950 C 0.78895 0.07832 0.44863
 C951 C 0.75258 0.03838 0.43658
 C952 C 0.75324 0.02824 0.46629
 C953 C 0.77122 0.04298 0.48728
 C954 C 0.78913 0.06756 0.47857
 H955 H 0.73935 0.02517 0.42091
 H956 H 0.74002 0.00858 0.47297
 H957 H 0.77165 0.03503 0.51031
 H958 H 0.80335 0.07776 0.49542
 H959 H 0.79067 0.10577 0.36533
 H960 H 0.82286 0.13021 0.40216
 C961 C 0.78330 0.93816 0.58589
 C962 C 0.77117 0.91964 0.60915
 C963 C 0.77490 0.88776 0.60799
 C964 C 0.79071 0.87400 0.58457
 C965 C 0.80339 0.89162 0.56148
 C966 C 0.79944 0.92405 0.56177
 C967 C 0.77879 0.97030 0.58547
 C968 C 0.78992 0.98816 0.56201
 C969 C 0.80530 0.97440 0.53831
 C970 C 0.80991 0.94270 0.53802
 H971 H 0.76636 0.98191 0.60300
 H972 H 0.78626 1.01276 0.56207
 H973 H 0.81348 0.98832 0.51989
 H974 H 0.82120 0.93304 0.51877
 H975 H 0.76538 0.87335 0.62540
 H976 H 0.79314 0.84924 0.58456
 C977 C 0.21066 0.93529 0.40821
 C978 C 0.22399 0.91572 0.38634
 C979 C 0.22140 0.88387 0.38928
 C980 C 0.20584 0.87109 0.41325
 C981 C 0.19219 0.88966 0.43517
 C982 C 0.19444 0.92225 0.43278
 C983 C 0.21411 0.96755 0.40678
 C984 C 0.20158 0.98663 0.42865
 C985 C 0.18565 0.97404 0.45247
 C986 C 0.18217 0.94228 0.45472
 H987 H 0.22676 0.97839 0.38903
 H988 H 0.20446 1.01129 0.42723
 H989 H 0.17618 0.98898 0.46952
 H990 H 0.17032 0.93397 0.47420
 H991 H 0.23179 0.86871 0.37291
 H992 H 0.20444 0.84627 0.41467
 C993 C 0.06184 0.41662 0.78174
 C994 C 0.07793 0.39045 0.77179
 C995 C 0.10819 0.38779 0.77859
 C996 C 0.12272 0.41054 0.79509
 C997 C 0.10743 0.43664 0.80536
 C998 C 0.07673 0.44000 0.79854
 C999 C 0.03149 0.42054 0.77444
 C1000 C 0.01624 0.44701 0.78324
 C1001 C 0.03081 0.46999 0.79931
 C1002 C 0.06075 0.46668 0.80681
 H1003 H 0.01940 0.40344 0.76160
 H1004 H -0.00691 0.44992 0.77724
 H1005 H 0.01892 0.49063 0.80577
 H1006 H 0.07128 0.48542 0.81859
 H1007 H 0.12074 0.36803 0.77077
 H1008 H 0.14623 0.40780 0.79982
 C1009 C 0.10201 0.61788 0.20692
 C1010 C 0.08874 0.60918 0.23496
 C1011 C 0.09194 0.57855 0.24456
 C1012 C 0.10617 0.55670 0.22679
 C1013 C 0.11770 0.56434 0.19860
 C1014 C 0.11601 0.59507 0.18843
 C1015 C 0.10405 0.64899 0.19792
 C1016 C 0.11743 0.65705 0.17069
 C1017 C 0.12978 0.63458 0.15216
 C1018 C 0.12939 0.60391 0.16097
 H1019 H 0.09636 0.66755 0.21216
 H1020 H 0.11863 0.68097 0.16416
 H1021 H 0.14036 0.64104 0.13118
 H1022 H 0.14025 0.58738 0.14637
 H1023 H 0.08216 0.57085 0.26556
 H1024 H 0.10772 0.53330 0.23495
 C1025 C 0.93195 0.39812 0.20212
 C1026 C 0.92401 0.39305 0.23291
 C1027 C 0.89991 0.40972 0.24494
 C1028 C 0.88342 0.42977 0.22743
 C1029 C 0.88966 0.43395 0.19679
 C1030 C 0.91359 0.41706 0.18356
 C1031 C 0.95872 0.38640 0.18966
 C1032 C 0.96528 0.38973 0.15920
 C1033 C 0.94546 0.40478 0.14045
 C1034 C 0.91987 0.41830 0.15235
 H1035 H 0.97520 0.37510 0.20334
 H1036 H 0.98568 0.38024 0.15005
 H1037 H 0.95016 0.40639 0.11659
 H1038 H 0.90506 0.42908 0.13656
 H1039 H 0.89275 0.40651 0.26802
 H1040 H 0.86542 0.44222 0.23825
 C1041 C 0.87903 0.60826 0.76382
 C1042 C 0.91075 0.60787 0.76241
 C1043 C 0.92624 0.58630 0.77974
 C1044 C 0.91123 0.56386 0.79606
 C1045 C 0.88007 0.56241 0.79630
 C1046 C 0.86360 0.58558 0.78112
 C1047 C 0.86242 0.63219 0.75044
 C1048 C 0.83154 0.63331 0.75316
 C1049 C 0.81654 0.61125 0.76986
 C1050 C 0.83226 0.58785 0.78399
 H1051 H 0.87308 0.65089 0.73863
 H1052 H 0.81925 0.65182 0.74280
 H1053 H 0.79260 0.61266 0.77248
 H1054 H 0.81946 0.57253 0.79800
 H1055 H 0.95035 0.58558 0.77919
 H1056 H 0.92421 0.54688 0.80800
 C1057 C 0.78612 0.61824 0.89356
 C1058 C 0.76152 0.60962 0.91186
 C1059 C 0.75423 0.57845 0.91491
 C1060 C 0.77107 0.55583 0.90070
 C1061 C 0.79594 0.56370 0.88339
 C1062 C 0.80377 0.59498 0.87961
 C1063 C 0.79312 0.64938 0.88812
 C1064 C 0.81740 0.65734 0.87005
 C1065 C 0.83506 0.63457 0.85704
 C1066 C 0.82841 0.60365 0.86173
 H1067 H 0.77972 0.66781 0.89733
 H1068 H 0.82248 0.68131 0.86605
 H1069 H 0.85387 0.64088 0.84303
 H1070 H 0.84256 0.58668 0.85111
 H1071 H 0.73547 0.57153 0.92873
 H1072 H 0.76483 0.53193 0.90347
 C1073 C 0.20808 0.39403 0.92180
 C1074 C 0.23941 0.39764 0.91936
 C1075 C 0.25106 0.42159 0.90201
 C1076 C 0.23237 0.44178 0.88701
 C1077 C 0.20133 0.43863 0.88862
 C1078 C 0.18887 0.41400 0.90547
 C1079 C 0.19538 0.37117 0.94036
 C1080 C 0.16465 0.36676 0.94135
 C1081 C 0.14603 0.38485 0.92388
 C1082 C 0.15789 0.40817 0.90602
 H1083 H 0.20897 0.35662 0.95440
 H1084 H 0.15527 0.34899 0.95550
 H1085 H 0.12224 0.38084 0.92421
 H1086 H 0.14247 0.42098 0.89237
 H1087 H 0.27494 0.42461 0.89995
 H1088 H 0.24234 0.46035 0.87426
 C1089 C 0.24200 0.60626 0.11659
 C1090 C 0.24835 0.60245 0.08523
 C1091 C 0.23587 0.57706 0.07006
 C1092 C 0.21674 0.55679 0.08459
 C1093 C 0.20933 0.56085 0.11489
 C1094 C 0.22136 0.58611 0.13105
 C1095 C 0.25701 0.62831 0.13452
 C1096 C 0.24931 0.63284 0.16463
 C1097 C 0.22699 0.61520 0.17777
 C1098 C 0.21324 0.59189 0.16133
 H1099 H 0.27525 0.64184 0.12575
 H1100 H 0.26072 0.65015 0.17784
 H1101 H 0.22071 0.61918 0.20101
 H1102 H 0.19617 0.57863 0.17258
 H1103 H 0.23982 0.57341 0.04624
 H1104 H 0.20770 0.53756 0.07198
 C1105 C 0.78190 0.41151 0.06027
 C1106 C 0.76607 0.38940 0.07788
 C1107 C 0.76764 0.39118 0.10933
 C1108 C 0.78484 0.41328 0.12351
 C1109 C 0.80073 0.43530 0.10707
 C1110 C 0.79919 0.43480 0.07503
 C1111 C 0.77885 0.41281 0.02856
 C1112 C 0.79330 0.43532 0.01176
 C1113 C 0.81022 0.45771 0.02606
 C1114 C 0.81281 0.45786 0.05729
 H1115 H 0.76463 0.39723 0.01629
 H1116 H 0.79075 0.43583 -0.01245
 H1117 H 0.82084 0.47555 0.01290
 H1118 H 0.82492 0.47682 0.06701
 H1119 H 0.75588 0.37471 0.12327
 H1120 H 0.78558 0.41320 0.14789
 C1121 C 0.88261 0.76019 0.60255
 C1122 C 0.91393 0.75503 0.59974
 C1123 C 0.92924 0.76883 0.57560
 C1124 C 0.91484 0.78834 0.55569
 C1125 C 0.88449 0.79476 0.55882
 C1126 C 0.86817 0.78115 0.58274
 C1127 C 0.86483 0.74362 0.62330
 C1128 C 0.83462 0.75004 0.62682
 C1129 C 0.82128 0.77262 0.60947
 C1130 C 0.83774 0.78796 0.58753
 H1131 H 0.87383 0.72510 0.63657
 H1132 H 0.82151 0.73744 0.64312
 H1133 H 0.79793 0.77790 0.61264
 H1134 H 0.82633 0.80522 0.57456
 H1135 H 0.95301 0.76564 0.57271
 H1136 H 0.92757 0.79843 0.53745
 C1137 C 0.94870 0.20356 0.40857
 C1138 C 0.93116 0.22218 0.38915
 C1139 C 0.90006 0.22024 0.39113
 C1140 C 0.88639 0.20330 0.41367
 C1141 C 0.90304 0.18696 0.43490
 C1142 C 0.93465 0.18625 0.43198
 C1143 C 0.97975 0.20033 0.40405
 C1144 C 0.99683 0.18231 0.42317
 C1145 C 0.98353 0.16728 0.44723
 C1146 C 0.95283 0.16905 0.45161
 H1147 H 0.99104 0.21106 0.38527
 H1148 H 1.02055 0.18005 0.41936
 H1149 H 0.99701 0.15370 0.46230
 H1150 H 0.94394 0.15634 0.47027
 H1151 H 0.88601 0.23371 0.37644
 H1152 H 0.86227 0.20355 0.41491
 C1153 C 0.08974 0.25373 0.57432
 C1154 C 0.07992 0.23965 0.60164
 C1155 C 0.08494 0.20796 0.60549
 C1156 C 0.09821 0.19025 0.58303
 C1157 C 0.10736 0.20345 0.55593
 C1158 C 0.10254 0.23525 0.55101
 C1159 C 0.08911 0.28599 0.57025
 C1160 C 0.09750 0.29917 0.54297
 C1161 C 0.10744 0.28074 0.51939
 C1162 C 0.11029 0.24916 0.52336
 H1163 H 0.08282 0.30153 0.58820
 H1164 H 0.09637 0.32384 0.54015
 H1165 H 0.11359 0.29103 0.49811
 H1166 H 0.11851 0.23588 0.50448
 H1167 H 0.07757 0.19636 0.62573
 H1168 H 0.10178 0.16598 0.58705
 C1169 C 0.09237 0.74142 0.42908
 C1170 C 0.08222 0.75459 0.40156
 C1171 C 0.08698 0.78618 0.39669
 C1172 C 0.10017 0.80471 0.41846
 C1173 C 0.10940 0.79243 0.44584
 C1174 C 0.10500 0.76075 0.45171
 C1175 C 0.09221 0.70928 0.43400
 C1176 C 0.10104 0.69702 0.46149
 C1177 C 0.11078 0.71628 0.48446
 C1178 C 0.11298 0.74782 0.47968
 H1179 H 0.08596 0.69318 0.41655
 H1180 H 0.10034 0.67241 0.46495
 H1181 H 0.11721 0.70669 0.50591
 H1182 H 0.12090 0.76187 0.49812
 H1183 H 0.07942 0.79711 0.37623
 H1184 H 0.10354 0.82888 0.41370
 C1185 C 0.58285 0.94460 0.78142
 C1186 C 0.60867 0.92816 0.77154
 C1187 C 0.61167 0.89718 0.78008
 C1188 C 0.58922 0.88206 0.79584
 C1189 C 0.56296 0.89724 0.80395
 C1190 C 0.55939 0.92863 0.79645
 C1191 C 0.58035 0.97685 0.77822
 C1192 C 0.55424 0.99215 0.78637
 C1193 C 0.53030 0.97590 0.79819
 C1194 C 0.53279 0.94449 0.80325
 H1195 H 0.59864 0.99065 0.76996
 H1196 H 0.55246 1.01670 0.78340
 H1197 H 0.50988 0.98777 0.80396
 H1198 H 0.51365 0.93280 0.81238
 H1199 H 0.63081 0.88379 0.77305
 H1200 H 0.59225 0.85805 0.80147
 C1201 C 0.42157 0.90400 0.25395
 C1202 C 0.39463 0.91326 0.23958
 C1203 C 0.39178 0.90820 0.20838
 C1204 C 0.41497 0.89578 0.19144
 C1205 C 0.44187 0.88770 0.20490
 C1206 C 0.44569 0.89243 0.23625
 C1207 C 0.42457 0.90403 0.28567
 C1208 C 0.45152 0.89647 0.29919
 C1209 C 0.47588 0.88814 0.28160
 C1210 C 0.47307 0.88592 0.25046
 H1211 H 0.40605 0.90922 0.30043
 H1212 H 0.45351 0.89711 0.32346
 H1213 H 0.49692 0.88279 0.29217
 H1214 H 0.49260 0.87919 0.23775
 H1215 H 0.37184 0.91508 0.19655
 H1216 H 0.41174 0.89218 0.16752
 C1217 C 0.57026 0.06193 0.23691
 C1218 C 0.59689 0.07777 0.24444
 C1219 C 0.60117 0.10793 0.23451
 C1220 C 0.57961 0.12269 0.21754
 C1221 C 0.55342 0.10748 0.20922
 C1222 C 0.54849 0.07678 0.21879
 C1223 C 0.56489 0.03157 0.24672
 C1224 C 0.53849 0.01644 0.23940
 C1225 C 0.51726 0.03091 0.22173
 C1226 C 0.52216 0.06069 0.21135
 H1227 H 0.58105 0.01908 0.25983
 H1228 H 0.53470 -0.00682 0.24710
 H1229 H 0.49687 0.01898 0.21599
 H1230 H 0.50490 0.07099 0.19788
 H1231 H 0.62134 0.12031 0.24025
 H1232 H 0.58360 0.14614 0.21046
 C1233 C 0.42585 0.07013 0.75689
 C1234 C 0.39825 0.08518 0.75273
 C1235 C 0.39419 0.11508 0.76362
 C1236 C 0.41687 0.13003 0.77914
 C1237 C 0.44410 0.11538 0.78436
 C1238 C 0.44904 0.08536 0.77286
 C1239 C 0.43104 0.04041 0.74510
 C1240 C 0.45858 0.02618 0.74873
 C1241 C 0.48136 0.04123 0.76400
 C1242 C 0.47677 0.07050 0.77605
 H1243 H 0.41397 0.02803 0.73290
 H1244 H 0.46228 0.00340 0.73955
 H1245 H 0.50280 0.03030 0.76627
 H1246 H 0.49525 0.08152 0.78732
 H1247 H 0.37322 0.12683 0.76023
 H1248 H 0.41289 0.15301 0.78774
 C1249 C 0.57937 0.77226 0.06457
 C1250 C 0.60807 0.76925 0.07732
 C1251 C 0.61478 0.78419 0.10437
 C1252 C 0.59330 0.80161 0.11927
 C1253 C 0.56483 0.80524 0.10708
 C1254 C 0.55770 0.79095 0.07925
 C1255 C 0.57163 0.75667 0.03776
 C1256 C 0.54318 0.75955 0.02564
 C1257 C 0.52214 0.77827 0.03967
 C1258 C 0.52924 0.79390 0.06617
 H1259 H 0.58745 0.74219 0.02596
 H1260 H 0.53756 0.74749 0.00507
 H1261 H 0.50013 0.78053 0.03009
 H1262 H 0.51205 0.80785 0.07644
 H1263 H 0.63663 0.78175 0.11434
 H1264 H 0.59887 0.81222 0.14063
 C1265 C 0.39438 0.20351 0.07848
 C1266 C 0.39791 0.23593 0.07820
 C1267 C 0.42027 0.24955 0.09559
 C1268 C 0.43894 0.23175 0.11328
 C1269 C 0.43581 0.19972 0.11432
 C1270 C 0.41284 0.18532 0.09741
 C1271 C 0.37306 0.18871 0.06012
 C1272 C 0.36876 0.15703 0.06172
 C1273 C 0.38546 0.13952 0.08158
 C1274 C 0.40723 0.15339 0.09934
 H1275 H 0.35965 0.20138 0.04428
 H1276 H 0.35217 0.14606 0.04769
 H1277 H 0.38158 0.11502 0.08318
 H1278 H 0.41907 0.13885 0.11486
 H1279 H 0.42315 0.27428 0.09564
 H1280 H 0.45631 0.24314 0.12602
 C1281 C 0.61245 0.21626 0.89618
 C1282 C 0.60234 0.23884 0.91696
 C1283 C 0.57171 0.24405 0.92038
 C1284 C 0.55107 0.22714 0.90387
 C1285 C 0.56050 0.20431 0.88379
 C1286 C 0.59128 0.19840 0.87997
 C1287 C 0.64310 0.21152 0.89055
 C1288 C 0.65259 0.18897 0.87028
 C1289 C 0.63187 0.17077 0.85526
 C1290 C 0.60149 0.17535 0.86003
 H1291 H 0.65998 0.22540 0.90137
 H1292 H 0.67614 0.18560 0.86621
 H1293 H 0.63934 0.15319 0.83965
 H1294 H 0.58611 0.16077 0.84797
 H1295 H 0.56372 0.26133 0.93608
 H1296 H 0.52754 0.23189 0.90675
 C1297 C 0.39150 0.77057 0.88463
 C1298 C 0.39405 0.76660 0.91622
 C1299 C 0.41642 0.78230 0.93191
 C1300 C 0.43644 0.80132 0.91692
 C1301 C 0.43468 0.80544 0.88573
 C1302 C 0.41136 0.79093 0.86943
 C1303 C 0.36999 0.75437 0.86768
 C1304 C 0.36683 0.75957 0.83692
 C1305 C 0.38496 0.78087 0.82246
 C1306 C 0.40698 0.79648 0.83843
 H1307 H 0.35553 0.73745 0.87787
 H1308 H 0.35006 0.74719 0.82430
 H1309 H 0.38202 0.78525 0.79868
 H1310 H 0.42005 0.81326 0.82628
 H1311 H 0.41852 0.77962 0.95605
 H1312 H 0.45403 0.81226 0.92973
 C1313 C 0.79316 0.94569 0.40963
 C1314 C 0.77400 0.92854 0.39066
 C1315 C 0.77286 0.89663 0.39316
 C1316 C 0.78924 0.88157 0.41501
 C1317 C 0.80740 0.89779 0.43533
 C1318 C 0.80980 0.93041 0.43249
 C1319 C 0.79611 0.97781 0.40619
 C1320 C 0.81453 0.99476 0.42516
 C1321 C 0.82980 0.98028 0.44821
 C1322 C 0.82751 0.94855 0.45198
 H1323 H 0.78445 0.99002 0.38864
 H1324 H 0.81685 1.01930 0.42210
 H1325 H 0.84366 0.99370 0.46322
 H1326 H 0.83986 0.93900 0.47034
 H1327 H 0.75836 0.88330 0.37865
 H1328 H 0.78728 0.85678 0.41628
 C1329 C 0.23557 0.93403 0.57357
 C1330 C 0.23174 0.92659 0.60441
 C1331 C 0.20988 0.90529 0.61288
 C1332 C 0.19278 0.89030 0.59124
 C1333 C 0.19712 0.89622 0.56062
 C1334 C 0.21842 0.91831 0.55147
 C1335 C 0.25581 0.95702 0.56422
 C1336 C 0.25949 0.96376 0.53376
 C1337 C 0.24339 0.94765 0.51211
 C1338 C 0.22313 0.92501 0.52079
 H1339 H 0.26852 0.97033 0.58031
 H1340 H 0.27495 0.98155 0.52693
 H1341 H 0.24652 0.95278 0.48848
 H1342 H 0.21117 0.91285 0.50337
 H1343 H 0.20667 0.89956 0.63638
 H1344 H 0.17657 0.87333 0.59839
 C1345 C 0.24492 0.08641 0.41769
 C1346 C 0.23000 0.07221 0.39316
 C1347 C 0.19885 0.07351 0.39174
 C1348 C 0.18240 0.08880 0.41384
 C1349 C 0.19658 0.10294 0.43827
 C1350 C 0.22801 0.10057 0.44110
 C1351 C 0.27636 0.08727 0.41932
 C1352 C 0.29064 0.09936 0.44452
 C1353 C 0.27404 0.11089 0.46849
 C1354 C 0.24306 0.11156 0.46691
 H1355 H 0.29025 0.07888 0.40115
 H1356 H 0.31472 0.09950 0.44557
 H1357 H 0.28521 0.11960 0.48832
 H1358 H 0.23119 0.12026 0.48635
 H1359 H 0.18715 0.06259 0.37327
 H1360 H 0.15843 0.09018 0.41150
 C1361 C 0.75367 0.09206 0.57701
 C1362 C 0.76710 0.07719 0.60187
 C1363 C 0.79816 0.07727 0.60456
 C1364 C 0.81602 0.09179 0.58327
 C1365 C 0.80343 0.10660 0.55847
 C1366 C 0.77199 0.10598 0.55460
 C1367 C 0.72239 0.09366 0.57405
 C1368 C 0.70949 0.10658 0.54861
 C1369 C 0.72736 0.11831 0.52578
 C1370 C 0.75825 0.11816 0.52865
 H1371 H 0.70755 0.08512 0.59132
 H1372 H 0.68549 0.10725 0.54650
 H1373 H 0.71724 0.12775 0.50577
 H1374 H 0.77098 0.12706 0.50997
 H1375 H 0.80870 0.06583 0.62332
 H1376 H 0.83994 0.09174 0.58639
 C1377 C 0.88618 0.60149 0.24451
 C1378 C 0.91743 0.60285 0.24013
 C1379 C 0.93094 0.58355 0.21896
 C1380 C 0.91409 0.56321 0.20186
 C1381 C 0.88304 0.56131 0.20532
 C1382 C 0.86866 0.58100 0.22666
 C1383 C 0.87202 0.61994 0.26657
 C1384 C 0.84121 0.61936 0.27012
 C1385 C 0.82394 0.60045 0.25194
 C1386 C 0.83737 0.58148 0.23048
 H1387 H 0.88456 0.63488 0.28135
 H1388 H 0.83067 0.63379 0.28696
 H1389 H 0.79996 0.60039 0.25452
 H1390 H 0.82266 0.56772 0.21702
 H1391 H 0.95484 0.58436 0.21550
 H1392 H 0.92562 0.54846 0.18594
 C1393 C 0.88507 0.38332 0.77122
 C1394 C 0.91658 0.38569 0.76977
 C1395 C 0.93096 0.40917 0.78575
 C1396 C 0.91480 0.43071 0.80228
 C1397 C 0.88366 0.42925 0.80376
 C1398 C 0.86860 0.40448 0.78935
 C1399 C 0.86945 0.36070 0.75466
 C1400 C 0.83870 0.35751 0.75765
 C1401 C 0.82292 0.37668 0.77708
 C1402 C 0.83759 0.39991 0.79284
 H1403 H 0.88068 0.34538 0.73916
 H1404 H 0.82710 0.33985 0.74507
 H1405 H 0.79914 0.37363 0.77984
 H1406 H 0.82440 0.41367 0.80817
 H1407 H 0.95500 0.41100 0.78511
 H1408 H 0.92675 0.44920 0.81335
 C1409 C 0.05697 0.58805 0.78944
 C1410 C 0.07282 0.60437 0.76697
 C1411 C 0.10353 0.60056 0.76418
 C1412 C 0.11863 0.58002 0.78238
 C1413 C 0.10368 0.56234 0.80415
 C1414 C 0.07226 0.56651 0.80807
 C1415 C 0.02616 0.59300 0.79386
 C1416 C 0.01040 0.57663 0.81555
 C1417 C 0.02483 0.55493 0.83301
 C1418 C 0.05527 0.54978 0.82939
 H1419 H 0.01402 0.60976 0.78083
 H1420 H -0.01314 0.58075 0.81885
 H1421 H 0.01236 0.54199 0.84958
 H1422 H 0.06457 0.53243 0.84362
 H1423 H 0.11588 0.61321 0.74727
 H1424 H 0.14246 0.57779 0.77911
 C1425 C 0.05840 0.41992 0.21386
 C1426 C 0.07314 0.39423 0.22648
 C1427 C 0.10378 0.39062 0.22209
 C1428 C 0.12015 0.41238 0.20631
 C1429 C 0.10645 0.43846 0.19427
 C1430 C 0.07524 0.44259 0.19807
 C1431 C 0.02726 0.42355 0.21660
 C1432 C 0.01311 0.44940 0.20505
 C1433 C 0.02967 0.47224 0.19090
 C1434 C 0.06042 0.46907 0.18753
 H1435 H 0.01358 0.40646 0.22760
 H1436 H -0.01078 0.45187 0.20736
 H1437 H 0.01864 0.49255 0.18249
 H1438 H 0.07224 0.48778 0.17695
 H1439 H 0.11531 0.37113 0.23168
 H1440 H 0.14390 0.40888 0.20366
   
