data_POSCAR
  _audit_creation_date              2014-09-24
  _audit_creation_method            'ToBaCCo'
  _symmetry_space_group_name_H-M    'P1'
  _symmetry_Int_Tables_number       1
  _symmetry_cell_setting            triclinic
  loop_
  _symmetry_equiv_pos_as_xyz
 x,y,z
_cell_length_a 53.0009
_cell_length_b 53.1111
_cell_length_c 57.4999
_cell_angle_alpha 89.383200
_cell_angle_beta 90.541200
_cell_angle_gamma 91.750000
loop_
  _atom_site_label
  _atom_site_type_symbol
  _atom_site_fract_x
  _atom_site_fract_y
  _atom_site_fract_z
C1 C 0.42258 0.01916 0.28410
 C2 C 0.40631 0.04242 0.28143
 C3 C 0.38935 0.04132 0.26336
 C4 C 0.39008 0.01633 0.24972
 C5 C 0.40364 -0.00281 0.28618
 C6 C 0.38662 -0.00481 0.26843
 C7 C 0.43472 0.01629 0.26039
 C8 C 0.41803 0.01506 0.24225
 H9 H 0.40889 0.05884 0.29229
 H10 H 0.37628 0.01503 0.23511
 H11 H 0.40417 -0.01609 0.30061
 H12 H 0.45500 0.01653 0.25817
 C13 C 0.07196 -0.00618 0.77128
 C14 C 0.09068 -0.02779 0.77153
 C15 C 0.10812 -0.02635 0.75424
 C16 C 0.10533 -0.00300 0.73824
 C17 C 0.08888 0.01754 0.77224
 C18 C 0.10649 0.01956 0.75523
 C19 C 0.06092 -0.00630 0.74811
 C20 C 0.07910 -0.00489 0.72975
 H21 H 0.08982 -0.04328 0.78392
 H22 H 0.11981 -0.00160 0.72442
 H23 H 0.08740 0.03128 0.78591
 H24 H 0.04079 -0.00871 0.74503
 C25 C 0.57306 0.49465 0.27319
 C26 C 0.59173 0.47306 0.27338
 C27 C 0.60912 0.47443 0.25609
 C28 C 0.60653 0.49774 0.24014
 C29 C 0.58987 0.51841 0.27394
 C30 C 0.60750 0.52036 0.25697
 C31 C 0.56147 0.49435 0.24869
 C32 C 0.57885 0.49563 0.23125
 H33 H 0.59068 0.45740 0.28558
 H34 H 0.62087 0.49906 0.22620
 H35 H 0.58833 0.53226 0.28750
 H36 H 0.54139 0.49169 0.24555
 C37 C 0.92246 0.51829 0.78482
 C38 C 0.90618 0.54154 0.78213
 C39 C 0.88934 0.54049 0.76396
 C40 C 0.89023 0.51556 0.75022
 C41 C 0.90354 0.49628 0.78671
 C42 C 0.88664 0.49435 0.76884
 C43 C 0.93478 0.51552 0.76119
 C44 C 0.91825 0.51436 0.74293
 H45 H 0.90859 0.55788 0.79312
 H46 H 0.87655 0.51432 0.73551
 H47 H 0.90393 0.48298 0.80112
 H48 H 0.95508 0.51578 0.75912
 C49 C 0.28015 0.35912 0.99729
 C50 C 0.27644 0.33728 1.01460
 C51 C 0.25441 0.32384 1.01187
 C52 C 0.23795 0.33304 0.99142
 C53 C 0.27735 0.34685 0.97342
 C54 C 0.25542 0.33325 0.97016
 C55 C 0.25629 0.37469 0.99970
 C56 C 0.23417 0.36115 0.99639
 H57 H 0.28893 0.33427 1.02932
 H58 H 0.22008 0.32185 0.98900
 H59 H 0.29142 0.34932 0.95997
 H60 H 0.25694 0.39472 1.00308
 C61 C 0.77548 0.13506 1.00073
 C62 C 0.77275 0.15319 0.98011
 C63 C 0.75162 0.16704 0.98043
 C64 C 0.73453 0.16113 1.00176
 C65 C 0.77387 0.15207 1.02205
 C66 C 0.75241 0.16567 1.02279
 C67 C 0.75235 0.11976 1.00078
 C68 C 0.72969 0.13379 1.00184
 H69 H 0.78680 0.15555 0.96664
 H70 H 0.71730 0.17252 1.00209
 H71 H 0.78822 0.15278 1.03558
 H72 H 0.75237 0.09936 1.00162
 C73 C 0.27910 0.63621 0.50190
 C74 C 0.27617 0.65386 0.48099
 C75 C 0.25515 0.66784 0.48123
 C76 C 0.23823 0.66257 0.50272
 C77 C 0.27759 0.65352 0.52292
 C78 C 0.25625 0.66724 0.52358
 C79 C 0.25459 0.62022 0.50243
 C80 C 0.23311 0.63372 0.50320
 H81 H 0.29008 0.65583 0.46736
 H82 H 0.22097 0.67389 0.50300
 H83 H 0.29205 0.65442 0.53636
 H84 H 0.25449 0.59984 0.50348
 C85 C 0.77872 0.86121 0.49825
 C86 C 0.77557 0.83923 0.51547
 C87 C 0.75396 0.82512 0.51256
 C88 C 0.73735 0.83391 0.49200
 C89 C 0.77652 0.84898 0.47435
 C90 C 0.75503 0.83475 0.47084
 C91 C 0.75436 0.87601 0.50056
 C92 C 0.73268 0.86185 0.49705
 H93 H 0.78804 0.83658 0.53027
 H94 H 0.71983 0.82222 0.48943
 H95 H 0.79071 0.85190 0.46107
 H96 H 0.75438 0.89600 0.50405
 C97 C -0.01400 0.27349 0.39354
 C98 C 0.01357 0.27095 0.38660
 C99 C 0.01726 0.25171 0.37168
 C100 C -0.00705 0.23670 0.36525
 C101 C -0.02759 0.27582 0.37169
 C102 C -0.02418 0.25540 0.35632
 C103 C -0.02187 0.24767 0.40360
 C104 C -0.01775 0.22830 0.38889
 H105 H 0.02855 0.28385 0.39232
 H106 H -0.00404 0.22096 0.35311
 H107 H -0.04115 0.29025 0.36816
 H108 H -0.02718 0.24487 0.42161
 C109 C 0.01176 0.75932 0.09661
 C110 C -0.01611 0.75157 0.10002
 C111 C -0.02010 0.73564 0.11835
 C112 C 0.00407 0.72825 0.13105
 C113 C 0.02021 0.76975 0.12033
 C114 C 0.01648 0.75328 0.13825
 C115 C 0.02548 0.73463 0.09417
 C116 C 0.02113 0.71828 0.11219
 H117 H -0.03145 0.76061 0.09097
 H118 H 0.00096 0.71489 0.14581
 H119 H 0.03067 0.78746 0.12235
 H120 H 0.03554 0.72967 0.07864
 C121 C 0.51019 0.25783 0.59728
 C122 C 0.48230 0.24999 0.60043
 C123 C 0.47817 0.23408 0.61876
 C124 C 0.50224 0.22673 0.63165
 C125 C 0.51835 0.26828 0.62107
 C126 C 0.51451 0.25179 0.63895
 C127 C 0.52401 0.23319 0.59496
 C128 C 0.51954 0.21683 0.61295
 H129 H 0.46703 0.25906 0.59130
 H130 H 0.49903 0.21338 0.64640
 H131 H 0.52885 0.28595 0.62314
 H132 H 0.53427 0.22828 0.57954
 C133 C 0.48770 0.76922 0.89979
 C134 C 0.51485 0.76970 0.89084
 C135 C 0.51969 0.75035 0.87640
 C136 C 0.49699 0.73224 0.87240
 C137 C 0.47132 0.76875 0.87770
 C138 C 0.47621 0.74931 0.86348
 C139 C 0.48376 0.74469 0.91057
 C140 C 0.48936 0.72429 0.89565
 H141 H 0.52865 0.78447 0.89506
 H142 H 0.50069 0.71663 0.86030
 H143 H 0.45619 0.78156 0.87422
 H144 H 0.47912 0.74218 0.92879
 C145 C -0.23182 0.67250 0.96612
 C146 C -0.20825 0.65663 0.96878
 C147 C -0.20912 0.63966 0.98686
 C148 C -0.23421 0.63999 1.00050
 C149 C -0.25355 0.65328 0.96404
 C150 C -0.25531 0.63623 0.98179
 C151 C -0.23492 0.68452 0.98982
 C152 C -0.23590 0.66784 1.00797
 H153 H -0.19182 0.65944 0.95790
 H154 H -0.23531 0.62619 1.01512
 H155 H -0.26682 0.65359 0.94960
 H156 H -0.23494 0.70475 0.99204
 C157 C -0.25278 0.32186 0.47725
 C158 C -0.27463 0.34032 0.47691
 C159 C -0.27357 0.35760 0.49428
 C160 C -0.25028 0.35500 0.51039
 C161 C -0.22916 0.33900 0.47652
 C162 C -0.22750 0.35649 0.49360
 C163 C -0.25302 0.31071 0.50041
 C164 C -0.25204 0.32880 0.51883
 H165 H -0.29015 0.33924 0.46454
 H166 H -0.24917 0.36942 0.52424
 H167 H -0.21520 0.33774 0.46297
 H168 H -0.25545 0.29062 0.50343
 C169 C 0.24450 -0.17782 -0.02219
 C170 C 0.22287 -0.15912 -0.02260
 C171 C 0.22417 -0.14170 -0.00536
 C172 C 0.24747 -0.14444 0.01074
 C173 C 0.26830 -0.16095 -0.02310
 C174 C 0.27021 -0.14334 -0.00613
 C175 C 0.24421 -0.18878 0.00102
 C176 C 0.24548 -0.17059 0.01932
 H177 H 0.20734 -0.16008 -0.03497
 H178 H 0.24878 -0.12995 0.02451
 H179 H 0.28218 -0.16248 -0.03668
 H180 H 0.24168 -0.20885 0.00416
 C181 C 0.26802 1.17404 0.46566
 C182 C 0.29138 1.15788 0.46832
 C183 C 0.29025 1.14083 0.48631
 C184 C 0.26512 1.14137 0.49988
 C185 C 0.24608 1.15508 0.46343
 C186 C 0.24404 1.13797 0.48109
 C187 C 0.26497 1.18598 0.48941
 C188 C 0.26372 1.16919 0.50748
 H189 H 0.30788 1.16061 0.45752
 H190 H 0.26380 1.12748 0.51442
 H191 H 0.23283 1.15568 0.44898
 H192 H 0.26520 1.20620 0.49172
 C193 C 0.11085 0.53013 0.25247
 C194 C 0.08873 0.52678 0.23541
 C195 C 0.07482 0.50510 0.23842
 C196 C 0.08390 0.48861 0.25891
 C197 C 0.09876 0.52779 0.27647
 C198 C 0.08473 0.50621 0.28006
 C199 C 0.12590 0.50595 0.25007
 C200 C 0.11189 0.48419 0.25367
 H201 H 0.08592 0.53914 0.22056
 H202 H 0.07234 0.47103 0.26156
 H203 H 0.10166 0.54193 0.28976
 H204 H 0.14591 0.50614 0.24644
 C205 C -0.11592 1.02555 0.24754
 C206 C -0.09777 1.02294 0.26817
 C207 C -0.08368 1.00201 0.26781
 C208 C -0.08940 0.98495 0.24648
 C209 C -0.09882 1.02416 0.22625
 C210 C -0.08495 1.00291 0.22549
 C211 C -0.13105 1.00236 0.24745
 C212 C -0.11678 0.97988 0.24640
 H213 H -0.09553 1.03695 0.28164
 H214 H -0.07783 0.96787 0.24615
 H215 H -0.09809 1.03862 0.21282
 H216 H -0.15149 1.00221 0.24667
 C217 C 0.38553 0.52636 -0.25112
 C218 C 0.40343 0.52350 -0.23037
 C219 C 0.41746 0.50255 -0.23067
 C220 C 0.41199 0.48561 -0.25205
 C221 C 0.40269 0.52481 -0.27232
 C222 C 0.41646 0.50351 -0.27301
 C223 C 0.36954 0.50188 -0.25143
 C224 C 0.38310 0.48045 -0.25224
 H225 H 0.40554 0.53743 -0.21681
 H226 H 0.42335 0.46839 -0.25235
 H227 H 0.40348 0.53920 -0.28581
 H228 H 0.34911 0.50173 -0.25233
 C229 C 0.61002 0.03003 -0.24836
 C230 C 0.58799 0.02649 -0.26548
 C231 C 0.57423 0.00471 -0.26247
 C232 C 0.58338 -0.01170 -0.24195
 C233 C 0.59787 0.02762 -0.22440
 C234 C 0.58399 0.00594 -0.22081
 C235 C 0.62527 0.00598 -0.25069
 C236 C 0.61145 -0.01588 -0.24710
 H237 H 0.58504 0.03888 -0.28028
 H238 H 0.57196 -0.02936 -0.23931
 H239 H 0.60059 0.04181 -0.21113
 H240 H 0.64531 0.00634 -0.25423
 C241 C 0.01987 0.23846 0.85448
 C242 C 0.01942 0.26588 0.86238
 C243 C -0.00012 0.27064 0.87671
 C244 C -0.01747 0.24756 0.88163
 C245 C 0.02007 0.22307 0.87714
 C246 C 0.00041 0.22779 0.89125
 C247 C -0.00460 0.23319 0.84398
 C248 C -0.02522 0.23871 0.85871
 H249 H 0.03378 0.27992 0.85765
 H250 H -0.03325 0.25122 0.89361
 H251 H 0.03318 0.20827 0.88088
 H252 H -0.00699 0.22781 0.82594
 C253 C 0.50769 0.25959 0.15484
 C254 C 0.49988 0.23186 0.15100
 C255 C 0.48426 0.22823 0.13237
 C256 C 0.47718 0.25258 0.11987
 C257 C 0.51863 0.26835 0.13138
 C258 C 0.50247 0.26494 0.11317
 C259 C 0.48298 0.27335 0.15707
 C260 C 0.46692 0.26936 0.13878
 H261 H 0.50873 0.21638 0.15998
 H262 H 0.46404 0.24977 0.10490
 H263 H 0.53655 0.27855 0.12972
 H264 H 0.47776 0.28316 0.17265
 C265 C 0.01223 0.76605 0.64931
 C266 C 0.00768 0.73761 0.64611
 C267 C -0.00930 0.73177 0.62900
 C268 C -0.02058 0.75474 0.61706
 C269 C 0.01965 0.77570 0.62498
 C270 C 0.00232 0.76986 0.60825
 C271 C -0.01377 0.77654 0.65363
 C272 C -0.03093 0.77040 0.63673
 H273 H 0.01929 0.72361 0.65441
 H274 H -0.03466 0.75018 0.60319
 H275 H 0.03594 0.78796 0.62161
 H276 H -0.01852 0.78636 0.66934
 C277 C 0.52213 0.73794 0.35619
 C278 C 0.52097 0.76532 0.36391
 C279 C 0.50138 0.76972 0.37825
 C280 C 0.48467 0.74634 0.38355
 C281 C 0.52263 0.72263 0.37885
 C282 C 0.50299 0.72700 0.39303
 C283 C 0.49631 0.73190 0.34525
 C284 C 0.47668 0.73667 0.35948
 H285 H 0.53483 0.77972 0.35886
 H286 H 0.46871 0.74969 0.39540
 H287 H 0.53607 0.70813 0.38258
 H288 H 0.49386 0.72676 0.32717
 Zr289 Zr 0.02478 -0.02285 1.03086
 O290 O 0.05271 -0.01187 1.05564
 O291 O 0.02057 -0.06162 1.03767
 O292 O 0.01129 -0.02509 1.06558
 O293 O 0.06603 -0.02978 0.98519
 O294 O -0.02457 -0.00227 1.06415
 O295 O 0.06036 -0.03829 1.02384
 O296 O -0.01162 -0.07420 1.01335
 O297 O -0.01452 -0.02792 1.02753
 O298 O 0.01801 -0.03816 0.99793
 O299 O 0.01005 0.01327 1.03433
 O300 O 0.04168 0.00275 1.00677
 Zr301 Zr -0.02107 0.01866 0.97234
 Zr302 Zr -0.02897 0.00834 1.02919
 Zr303 Zr 0.03283 -0.01230 0.97405
 Zr304 Zr -0.02098 -0.04196 0.99416
 O305 O 0.06400 0.00947 0.96149
 O306 O -0.05438 -0.05477 1.01115
 O307 O -0.00620 -0.01745 0.96860
 O308 O -0.03745 -0.00686 0.99652
 O309 O -0.01431 0.03447 1.00510
 O310 O 0.01814 0.02362 0.97578
 C311 C 0.00559 -0.07841 1.02865
 C312 C 0.07322 -0.03898 1.00490
 C313 C -0.00786 -0.01494 1.07507
 O314 O -0.06237 -0.01141 1.03943
 O315 O -0.06027 0.02946 1.01906
 O316 O -0.05498 0.03680 0.98018
 C317 C -0.06716 0.03889 0.99937
 O318 O 0.05556 0.04055 1.03288
 Zr319 Zr 0.02481 0.03790 1.00894
 O320 O -0.01654 0.05728 0.96512
 O321 O -0.03095 0.04032 1.05068
 O322 O 0.01609 0.06507 1.03419
 O323 O 0.05700 0.05300 0.99143
 O324 O 0.01311 0.07063 0.99167
 C325 C -0.00309 0.07448 0.97536
 O326 O -0.05082 0.00832 0.94917
 O327 O 0.03834 -0.04513 0.95432
 O328 O -0.00973 0.01749 0.93692
 O329 O 0.02506 -0.00680 0.93869
 O330 O -0.01152 -0.07029 0.97030
 O331 O -0.04918 -0.04606 0.96782
 C332 C 0.00800 0.00507 0.92744
 H333 H 0.02618 -0.05442 0.99557
 H334 H -0.05590 -0.00890 0.99399
 H335 H 0.02528 0.03490 0.96352
 H336 H 0.01416 0.02028 1.04984
 H337 H -0.05680 -0.07296 1.00783
 H338 H -0.07016 -0.00126 1.05165
 H339 H -0.04666 0.03828 1.05982
 H340 H 0.02642 0.08052 1.03080
 H341 H -0.02204 -0.08555 0.97393
 H342 H 0.05396 -0.04220 0.94519
 H343 H 0.07182 -0.00060 0.94925
 H344 H 0.05873 0.07105 0.99550
 H345 H -0.05780 -0.06279 0.96945
 H346 H -0.05491 0.02355 0.93988
 H347 H 0.05712 -0.02718 1.06465
 H348 H 0.06200 0.05823 1.03359
 Zr349 Zr 0.52703 0.47623 0.53290
 O350 O 0.55515 0.48671 0.55767
 O351 O 0.52238 0.43744 0.53952
 O352 O 0.51361 0.47405 0.56767
 O353 O 0.56803 0.46921 0.48704
 O354 O 0.47793 0.49715 0.56639
 O355 O 0.56246 0.46050 0.52567
 O356 O 0.48993 0.42544 0.51526
 O357 O 0.48768 0.47164 0.52963
 O358 O 0.52000 0.46121 0.49991
 O359 O 0.51270 0.51251 0.53658
 O360 O 0.54410 0.50183 0.50889
 Zr361 Zr 0.48151 0.51858 0.47470
 Zr362 Zr 0.47362 0.50805 0.53151
 Zr363 Zr 0.53501 0.48706 0.47611
 Zr364 Zr 0.48097 0.45785 0.49619
 O365 O 0.56636 0.50857 0.46355
 O366 O 0.44743 0.44533 0.51312
 O367 O 0.49594 0.48234 0.47071
 O368 O 0.46490 0.49311 0.49878
 O369 O 0.48849 0.53416 0.50752
 O370 O 0.52075 0.52313 0.47807
 C371 C 0.50711 0.42091 0.53048
 C372 C 0.57523 0.45982 0.50666
 C373 C 0.49455 0.48430 0.57723
 O374 O 0.44003 0.48860 0.54172
 O375 O 0.44252 0.52956 0.52150
 O376 O 0.44784 0.53700 0.48265
 C377 C 0.43571 0.53913 0.50185
 O378 O 0.55846 0.53939 0.53520
 Zr379 Zr 0.52765 0.53716 0.51130
 O380 O 0.48638 0.55719 0.46770
 O381 O 0.47206 0.53992 0.55317
 O382 O 0.51924 0.56427 0.53669
 O383 O 0.55997 0.55198 0.49381
 O384 O 0.51629 0.57013 0.49417
 C385 C 0.50005 0.57421 0.47795
 O386 O 0.45162 0.50863 0.45154
 O387 O 0.54012 0.45427 0.45622
 O388 O 0.49272 0.51761 0.43927
 O389 O 0.52717 0.49285 0.44079
 O390 O 0.49011 0.42951 0.47223
 O391 O 0.45271 0.45421 0.46985
 C392 C 0.51025 0.50502 0.42966
 H393 H 0.52797 0.44486 0.49745
 H394 H 0.44643 0.49129 0.49627
 H395 H 0.52797 0.53442 0.46585
 H396 H 0.51691 0.51938 0.55211
 H397 H 0.44478 0.42719 0.50970
 H398 H 0.43237 0.49880 0.55398
 H399 H 0.45633 0.53803 0.56230
 H400 H 0.52969 0.57966 0.53336
 H401 H 0.47940 0.41435 0.47580
 H402 H 0.55569 0.45711 0.44702
 H403 H 0.57399 0.49849 0.45121
 H404 H 0.56190 0.57000 0.49795
 H405 H 0.44395 0.43755 0.47137
 H406 H 0.44763 0.52394 0.44233
 H407 H 0.55939 0.47128 0.56659
 H408 H 0.56504 0.55701 0.53600
 Zr409 Zr 0.48283 1.00837 0.53956
 O410 O 0.45049 0.99750 0.55900
 O411 O 0.49566 1.04079 0.55728
 O412 O 0.49239 0.99871 0.57423
 O413 O 0.45110 1.03699 0.49401
 O414 O 0.52312 0.96975 0.57076
 O415 O 0.45179 1.03259 0.53352
 O416 O 0.53356 1.05012 0.54018
 O417 O 0.52217 1.00502 0.53976
 O418 O 0.49687 1.03085 0.51224
 O419 O 0.48963 0.96966 0.53604
 O420 O 0.46490 0.99419 0.50930
 Zr421 Zr 0.52656 0.97440 0.47701
 Zr422 Zr 0.52898 0.96696 0.53470
 Zr423 Zr 0.48083 1.01575 0.48210
 Zr424 Zr 0.53571 1.02631 0.51165
 O425 O 0.44739 1.00653 0.46323
 O426 O 0.57058 1.02640 0.53010
 O427 O 0.52013 1.01327 0.48023
 O428 O 0.54420 0.98863 0.50726
 O429 O 0.51291 0.95156 0.50442
 O430 O 0.48733 0.97773 0.47700
 C431 C 0.51671 1.05340 0.55563
 C432 C 0.44241 1.04135 0.51428
 C433 C 0.50861 0.98346 0.58282
 O434 O 0.56357 0.97584 0.55188
 O435 O 0.55792 0.94446 0.52230
 O436 O 0.55608 0.94868 0.48274
 C437 C 0.56606 0.94011 0.50174
 O438 O 0.44116 0.95326 0.52594
 Zr439 Zr 0.47389 0.95624 0.50489
 O440 O 0.51484 0.94129 0.46036
 O441 O 0.52193 0.93014 0.54791
 O442 O 0.47525 0.92122 0.52285
 O443 O 0.44101 0.95414 0.48359
 O444 O 0.47936 0.92829 0.47987
 C445 C 0.49613 0.92590 0.46409
 O446 O 0.55964 0.98462 0.45835
 O447 O 0.48649 1.05339 0.47029
 O448 O 0.51832 0.98564 0.44218
 O449 O 0.48997 1.01667 0.44683
 O450 O 0.53354 1.06326 0.49755
 O451 O 0.56513 1.03213 0.48712
 C452 C 0.50393 1.00304 0.43427
 H453 H 0.49271 1.04878 0.51398
 H454 H 0.56278 0.98760 0.50644
 H455 H 0.47917 0.97199 0.46235
 H456 H 0.48246 0.95978 0.54923
 H457 H 0.57713 1.04406 0.53074
 H458 H 0.56772 0.96107 0.56172
 H459 H 0.53633 0.92630 0.55833
 H460 H 0.46290 0.90950 0.51526
 H461 H 0.54641 1.07391 0.50572
 H462 H 0.47215 1.05723 0.45979
 H463 H 0.44369 1.02129 0.45321
 H464 H 0.43497 0.93630 0.48341
 H465 H 0.57569 1.04705 0.49156
 H466 H 0.56165 0.97178 0.44615
 H467 H 0.44833 1.01055 0.57098
 H468 H 0.43225 0.93691 0.52310
 Zr469 Zr -0.01539 0.50871 1.03984
 O470 O -0.04757 0.49770 1.05944
 O471 O -0.00274 0.54135 1.05732
 O472 O -0.00563 0.49928 1.07451
 O473 O -0.04759 0.53676 0.99427
 O474 O 0.02531 0.47054 1.07107
 O475 O -0.04665 0.53265 1.03381
 O476 O 0.03499 0.55089 1.03998
 O477 O 0.02400 0.50567 1.03990
 O478 O -0.00167 0.53111 1.01234
 O479 O -0.00828 0.47004 1.03649
 O480 O -0.03337 0.49418 1.00975
 Zr481 Zr 0.02829 0.47467 0.97728
 Zr482 Zr 0.03110 0.46764 1.03500
 Zr483 Zr -0.01775 0.51569 0.98236
 Zr484 Zr 0.03721 0.52687 1.01160
 O485 O -0.05122 0.50610 0.96367
 O486 O 0.07216 0.52736 1.02993
 O487 O 0.02157 0.51350 0.98032
 O488 O 0.04598 0.48924 1.00737
 O489 O 0.01498 0.45190 1.00489
 O490 O -0.01098 0.47770 0.97743
 C491 C 0.01818 0.55415 1.05547
 C492 C -0.05621 0.54120 1.01456
 C493 C 0.01070 0.48416 1.08312
 O494 O 0.06567 0.47697 1.05203
 O495 O 0.06024 0.44537 1.02260
 O496 O 0.05802 0.44921 0.98302
 C497 C 0.06824 0.44090 1.00201
 O498 O -0.05666 0.45311 1.02675
 Zr499 Zr -0.02408 0.45628 1.00551
 O500 O 0.01676 0.44134 0.96088
 O501 O 0.02449 0.43082 1.04838
 O502 O -0.02230 0.42137 1.02361
 O503 O -0.05711 0.45384 0.98441
 O504 O -0.01858 0.42827 0.98055
 C505 C -0.00186 0.42588 0.96473
 O506 O 0.06118 0.48506 0.95843
 O507 O -0.01244 0.55328 0.97033
 O508 O 0.01975 0.48559 0.94243
 O509 O -0.00878 0.51646 0.94706
 O510 O 0.03468 0.56369 0.99728
 O511 O 0.06648 0.53277 0.98693
 C512 C 0.00520 0.50285 0.93450
 H513 H -0.00596 0.54901 1.01399
 H514 H 0.06457 0.48837 1.00647
 H515 H -0.01918 0.47180 0.96286
 H516 H -0.01531 0.46017 1.04976
 H517 H 0.07858 0.54508 1.03045
 H518 H 0.07000 0.46230 1.06193
 H519 H 0.03898 0.42718 1.05877
 H520 H -0.03459 0.40951 1.01613
 H521 H 0.04749 0.57451 1.00534
 H522 H -0.02687 0.55695 0.95987
 H523 H -0.05507 0.52077 0.95358
 H524 H -0.06301 0.43595 0.98432
 H525 H 0.07695 0.54779 0.99126
 H526 H 0.06324 0.47216 0.94629
 H527 H -0.04979 0.51080 1.07138
 H528 H -0.06545 0.43667 1.02402
 Zr529 Zr -0.02306 0.48507 0.47728
 O530 O -0.04646 0.49817 0.44998
 O531 O -0.02057 0.44696 0.46967
 O532 O -0.00488 0.48323 0.44443
 O533 O -0.07124 0.47783 0.51755
 O534 O 0.03383 0.50150 0.45189
 O535 O -0.06045 0.46953 0.48012
 O536 O 0.00565 0.43158 0.49786
 O537 O 0.01462 0.47784 0.48587
 O538 O -0.02302 0.46836 0.51043
 O539 O -0.00385 0.52033 0.47613
 O540 O -0.04059 0.51086 0.49917
 Zr541 Zr 0.01790 0.52254 0.54162
 Zr542 Zr 0.03321 0.51310 0.48649
 Zr543 Zr -0.03854 0.49434 0.53241
 Zr544 Zr 0.01441 0.46250 0.51944
 O545 O -0.07024 0.51624 0.53945
 O546 O 0.04913 0.44874 0.50766
 O547 O -0.00144 0.48716 0.54320
 O548 O 0.03498 0.49676 0.51968
 O549 O 0.01811 0.53965 0.50863
 O550 O -0.01979 0.52923 0.53277
 C551 C -0.00854 0.42919 0.47971
 C552 C -0.07602 0.46869 0.49734
 C553 C 0.01756 0.49071 0.43830
 O554 O 0.06609 0.49231 0.48126
 O555 O 0.06474 0.53241 0.50049
 O556 O 0.05401 0.54112 0.53785
 C557 C 0.06933 0.54230 0.52042
 O558 O -0.04388 0.55139 0.47066
 Zr559 Zr -0.01955 0.54512 0.49961
 O560 O 0.01431 0.56016 0.55035
 O561 O 0.04191 0.54466 0.46491
 O562 O -0.00150 0.57293 0.47830
 O563 O -0.05394 0.56024 0.51074
 O564 O -0.01040 0.57600 0.52124
 C565 C 0.00232 0.57794 0.54035
 O566 O 0.04324 0.51015 0.56768
 O567 O -0.04839 0.46161 0.55205
 O568 O 0.00060 0.52146 0.57496
 O569 O -0.03787 0.50235 0.56789
 O570 O -0.00214 0.43362 0.54059
 O571 O 0.03698 0.45631 0.54959
 C572 C -0.02137 0.51282 0.58142
 H573 H -0.03289 0.45226 0.51133
 H574 H 0.05262 0.49392 0.52461
 H575 H -0.02827 0.54027 0.54382
 H576 H -0.00444 0.52780 0.46029
 H577 H 0.04906 0.43040 0.51102
 H578 H 0.07671 0.50202 0.47001
 H579 H 0.05867 0.54184 0.45806
 H580 H -0.01005 0.58900 0.48080
 H581 H 0.00732 0.41808 0.53805
 H582 H -0.06520 0.46436 0.55884
 H583 H -0.08089 0.50641 0.55057
 H584 H -0.05324 0.57855 0.50718
 H585 H 0.04380 0.43917 0.54912
 H586 H 0.04715 0.52482 0.57776
 H587 H -0.05102 0.48342 0.44019
 H588 H -0.04663 0.56967 0.46888
 Zr589 Zr 0.47523 -0.01510 -0.02391
 O590 O 0.45164 -0.00257 -0.05131
 O591 O 0.47831 -0.05327 -0.03132
 O592 O 0.49350 -0.01685 -0.05674
 O593 O 0.42716 -0.02269 0.01644
 O594 O 0.53185 0.00226 -0.04940
 O595 O 0.43801 -0.03110 -0.02095
 O596 O 0.50487 -0.06783 -0.00302
 O597 O 0.51308 -0.02153 -0.01529
 O598 O 0.47559 -0.03157 0.00933
 O599 O 0.49382 0.02051 -0.02523
 O600 O 0.45730 0.01054 -0.00212
 Zr601 Zr 0.51558 0.02348 0.04020
 Zr602 Zr 0.53106 0.01406 -0.01487
 Zr603 Zr 0.45965 -0.00575 0.03121
 Zr604 Zr 0.51316 -0.03667 0.01834
 O605 O 0.42757 0.01559 0.03831
 O606 O 0.54811 -0.04988 0.00656
 O607 O 0.49689 -0.01220 0.04200
 O608 O 0.53312 -0.00208 0.01839
 O609 O 0.51550 0.04047 0.00716
 O610 O 0.47776 0.02944 0.03137
 C611 C 0.49067 -0.07070 -0.02111
 C612 C 0.42244 -0.03197 -0.00372
 C613 C 0.51582 -0.00899 -0.06291
 O614 O 0.56431 -0.00616 -0.02007
 O615 O 0.56239 0.03385 -0.00094
 O616 O 0.55139 0.04260 0.03634
 C617 C 0.56676 0.04387 0.01897
 O618 O 0.45351 0.05104 -0.03098
 Zr619 Zr 0.47771 0.04519 -0.00185
 O620 O 0.51115 0.06101 0.04882
 O621 O 0.53914 0.04568 -0.03656
 O622 O 0.49550 0.07328 -0.02304
 O623 O 0.44282 0.05950 0.00895
 O624 O 0.48586 0.07629 0.01987
 C625 C 0.49852 0.07845 0.03901
 O626 O 0.54121 0.01181 0.06632
 O627 O 0.45041 -0.03859 0.05092
 O628 O 0.49842 0.02221 0.07357
 O629 O 0.46026 0.00239 0.06670
 O630 O 0.49719 -0.06570 0.03967
 O631 O 0.53590 -0.04229 0.04848
 C632 C 0.47664 0.01320 0.08014
 H633 H 0.46597 -0.04781 0.01032
 H634 H 0.55081 -0.00460 0.02333
 H635 H 0.46902 0.04031 0.04239
 H636 H 0.49309 0.02788 -0.04110
 H637 H 0.54836 -0.06819 0.00999
 H638 H 0.57473 0.00366 -0.03141
 H639 H 0.55592 0.04310 -0.04346
 H640 H 0.48669 0.08921 -0.02057
 H641 H 0.50695 -0.08106 0.03722
 H642 H 0.43355 -0.03613 0.05772
 H643 H 0.41714 0.00562 0.04952
 H644 H 0.44312 0.07781 0.00539
 H645 H 0.54309 -0.05927 0.04806
 H646 H 0.54483 0.02662 0.07632
 H647 H 0.44732 -0.01747 -0.06100
 H648 H 0.45054 0.06928 -0.03284
 Zr649 Zr 0.54044 0.50584 -0.03956
 O650 O 0.56703 0.49774 -0.06545
 O651 O 0.53185 0.54314 -0.04837
 O652 O 0.52396 0.50501 -0.07366
 O653 O 0.58553 0.51684 0.00391
 O654 O 0.48896 0.47929 -0.06930
 O655 O 0.57589 0.52519 -0.03416
 O656 O 0.50283 0.55324 -0.02118
 O657 O 0.50161 0.50746 -0.03328
 O658 O 0.53663 0.52112 -0.00637
 O659 O 0.52634 0.46840 -0.04167
 O660 O 0.56001 0.48191 -0.01638
 Zr661 Zr 0.50106 0.46109 0.02228
 Zr662 Zr 0.48790 0.47012 -0.03389
 Zr663 Zr 0.55405 0.49650 0.01680
 Zr664 Zr 0.49822 0.52150 0.00034
 O665 O 0.58768 0.47837 0.02634
 O666 O 0.46209 0.53111 -0.01255
 O667 O 0.51568 0.49842 0.02508
 O668 O 0.48226 0.48520 -0.00091
 O669 O 0.50513 0.44536 -0.01071
 O670 O 0.53990 0.45941 0.01612
 C671 C 0.51633 0.55819 -0.03915
 C672 C 0.59057 0.52679 -0.01604
 C673 C 0.50421 0.49288 -0.08168
 O674 O 0.45405 0.48800 -0.04314
 O675 O 0.45705 0.44846 -0.02151
 O676 O 0.46536 0.44212 0.01708
 C677 C 0.45119 0.43977 -0.00128
 O678 O 0.57202 0.44477 -0.04331
 Zr679 Zr 0.54391 0.44534 -0.01720
 O680 O 0.50668 0.42266 0.02822
 O681 O 0.48398 0.43690 -0.05377
 O682 O 0.53289 0.41697 -0.04127
 O683 O 0.57848 0.43392 -0.00214
 O684 O 0.53591 0.41192 0.00140
 C685 C 0.52050 0.40677 0.01795
 O686 O 0.47426 0.46839 0.04828
 O687 O 0.55880 0.52972 0.03659
 O688 O 0.51640 0.46334 0.05671
 O689 O 0.55217 0.48796 0.05238
 O690 O 0.51035 0.55181 0.02185
 O691 O 0.47413 0.52364 0.02956
 C692 C 0.53627 0.47516 0.06482
 H693 H 0.54425 0.53831 -0.00515
 H694 H 0.46414 0.48625 0.00283
 H695 H 0.54858 0.44876 0.02774
 H696 H 0.52916 0.46133 -0.05725
 H697 H 0.45957 0.54904 -0.00884
 H698 H 0.44495 0.47686 -0.05434
 H699 H 0.46758 0.43762 -0.06215
 H700 H 0.54392 0.40246 -0.03865
 H701 H 0.49894 0.56594 0.01881
 H702 H 0.57546 0.52889 0.04449
 H703 H 0.59646 0.48918 0.03801
 H704 H 0.58062 0.41603 -0.00618
 H705 H 0.46557 0.53996 0.02923
 H706 H 0.47171 0.45266 0.05756
 H707 H 0.56964 0.51332 -0.07491
 H708 H 0.57842 0.42752 -0.04457
 Zr709 Zr 0.03655 1.01231 0.46007
 O710 O 0.06309 1.00414 0.43413
 O711 O 0.02774 1.04945 0.45082
 O712 O 0.02015 1.01079 0.42591
 O713 O 0.08203 1.02303 0.50331
 O714 O -0.01543 0.98602 0.43082
 O715 O 0.07226 1.03133 0.46525
 O716 O -0.00127 1.05983 0.47791
 O717 O -0.00220 1.01434 0.46664
 O718 O 0.03316 1.02785 0.49321
 O719 O 0.02200 0.97501 0.45824
 O720 O 0.05604 0.98833 0.48326
 Zr721 Zr -0.00274 0.96826 0.52238
 Zr722 Zr -0.01635 0.97719 0.46629
 Zr723 Zr 0.05047 1.00312 0.51643
 Zr724 Zr -0.00517 1.02863 0.50022
 O725 O 0.08403 0.98475 0.52577
 O726 O -0.04160 1.03839 0.48821
 O727 O 0.01223 1.00548 0.52497
 O728 O -0.02152 0.99246 0.49926
 O729 O 0.00089 0.95244 0.48940
 O730 O 0.03600 0.96612 0.51594
 C731 C 0.01191 1.06444 0.45967
 C732 C 0.08709 1.03278 0.48329
 C733 C 0.00015 0.99885 0.41813
 O734 O -0.05000 0.99552 0.45724
 O735 O -0.04725 0.95584 0.47905
 O736 O -0.03849 0.94939 0.51755
 C737 C -0.05285 0.94707 0.49933
 O738 O 0.06780 0.95134 0.45664
 Zr739 Zr 0.03957 0.95192 0.48263
 O740 O 0.00213 0.92968 0.52818
 O741 O -0.02092 0.94388 0.44661
 O742 O 0.02860 0.92373 0.45836
 O743 O 0.07375 0.93972 0.49788
 O744 O 0.03052 0.91852 0.50077
 C745 C 0.01516 0.91351 0.51739
 O746 O -0.02913 0.97635 0.54850
 O747 O 0.05559 1.03638 0.53609
 O748 O 0.01313 0.96999 0.55663
 O749 O 0.04894 0.99452 0.55205
 O750 O 0.00777 1.05928 0.52095
 O751 O -0.02852 1.03125 0.52990
 C752 C 0.03320 0.98161 0.56459
 H753 H 0.04091 1.04501 0.49419
 H754 H -0.03958 0.99366 0.50317
 H755 H 0.04462 0.95533 0.52749
 H756 H 0.02466 0.96774 0.44271
 H757 H -0.04392 1.05635 0.49193
 H758 H -0.05941 0.98438 0.44625
 H759 H -0.03737 0.94478 0.43835
 H760 H 0.03963 0.90920 0.46091
 H761 H -0.00353 1.07347 0.51783
 H762 H 0.07226 1.03542 0.54395
 H763 H 0.09302 0.99552 0.53735
 H764 H 0.07550 0.92179 0.49378
 H765 H -0.03653 1.04784 0.52989
 H766 H -0.03191 0.96074 0.55791
 H767 H 0.06564 1.01968 0.42459
 H768 H 0.07430 0.93412 0.45549
 Zr769 Zr 0.72582 0.27447 0.21764
 O770 O 0.73557 0.30213 0.19221
 O771 O 0.68677 0.26993 0.21217
 O772 O 0.72271 0.26071 0.18308
 O773 O 0.72067 0.31623 0.26309
 O774 O 0.74532 0.22475 0.18425
 O775 O 0.71059 0.31006 0.22483
 O776 O 0.67522 0.23815 0.23732
 O777 O 0.72101 0.23528 0.22161
 O778 O 0.71181 0.26811 0.25116
 O779 O 0.76189 0.25982 0.21313
 O780 O 0.75232 0.29174 0.24066
 Zr781 Zr 0.76993 0.22969 0.27529
 Zr782 Zr 0.75730 0.22093 0.21891
 Zr783 Zr 0.73860 0.28327 0.27400
 Zr784 Zr 0.70829 0.22925 0.25554
 O785 O 0.76079 0.31456 0.28555
 O786 O 0.69493 0.19559 0.23947
 O787 O 0.73383 0.24439 0.28006
 O788 O 0.74343 0.21293 0.25222
 O789 O 0.78438 0.23601 0.24189
 O790 O 0.77457 0.26878 0.27120
 C791 C 0.67036 0.25503 0.22191
 C792 C 0.71067 0.32314 0.24364
 C793 C 0.73247 0.24143 0.17350
 O794 O 0.73718 0.18743 0.20976
 O795 O 0.77886 0.18984 0.22873
 O796 O 0.78767 0.19570 0.26727
 C797 C 0.78899 0.18324 0.24820
 O798 O 0.78902 0.30528 0.21295
 Zr799 Zr 0.78746 0.27502 0.23744
 O800 O 0.80898 0.23441 0.28093
 O801 O 0.78850 0.21872 0.19639
 O802 O 0.81376 0.26598 0.21146
 O803 O 0.80297 0.30757 0.25395
 O804 O 0.82093 0.26399 0.25377
 C805 C 0.82563 0.24803 0.27005
 O806 O 0.76079 0.20031 0.29925
 O807 O 0.70643 0.28897 0.29470
 O808 O 0.76994 0.24143 0.31064
 O809 O 0.74534 0.27596 0.30926
 O810 O 0.68093 0.23907 0.28028
 O811 O 0.70524 0.20143 0.28232
 C812 C 0.75766 0.25912 0.32034
 H813 H 0.69559 0.27624 0.25395
 H814 H 0.74152 0.19455 0.25505
 H815 H 0.78631 0.27611 0.28298
 H816 H 0.76832 0.26372 0.19736
 H817 H 0.67686 0.19317 0.24343
 H818 H 0.74689 0.17948 0.19731
 H819 H 0.78616 0.20290 0.18753
 H820 H 0.82929 0.27648 0.21412
 H821 H 0.66547 0.22859 0.27729
 H822 H 0.70966 0.30467 0.30356
 H823 H 0.75113 0.32249 0.29803
 H824 H 0.82088 0.30940 0.24923
 H825 H 0.68836 0.19295 0.28148
 H826 H 0.77646 0.19648 0.30803
 H827 H 0.71984 0.30632 0.18370
 H828 H 0.80666 0.31177 0.21153
 Zr829 Zr 0.75703 0.73318 0.71107
 O830 O 0.74535 0.70114 0.69171
 O831 O 0.79010 0.74492 0.69368
 O832 O 0.74798 0.74304 0.67630
 O833 O 0.78444 0.70086 0.75687
 O834 O 0.71959 0.77432 0.67957
 O835 O 0.78061 0.70169 0.71731
 O836 O 0.80029 0.78253 0.71077
 O837 O 0.75468 0.77256 0.71074
 O838 O 0.77959 0.74667 0.73854
 O839 O 0.71842 0.74098 0.71435
 O840 O 0.74209 0.71567 0.74127
 Zr841 Zr 0.72357 0.77779 0.77333
 Zr842 Zr 0.71671 0.78034 0.71559
 Zr843 Zr 0.76381 0.73107 0.76859
 Zr844 Zr 0.77606 0.78556 0.73898
 O845 O 0.75352 0.69795 0.78746
 O846 O 0.77715 0.82022 0.72025
 O847 O 0.76233 0.77037 0.77035
 O848 O 0.73852 0.79502 0.74314
 O849 O 0.70061 0.76471 0.74578
 O850 O 0.72588 0.73853 0.77345
 C851 C 0.80337 0.76551 0.69547
 C852 C 0.78896 0.69214 0.73664
 C853 C 0.73309 0.75953 0.66760
 O854 O 0.72663 0.81462 0.69839
 O855 O 0.69477 0.80981 0.72778
 O856 O 0.69852 0.80781 0.76738
 C857 C 0.69034 0.81797 0.74832
 O858 O 0.70056 0.69302 0.72442
 Zr859 Zr 0.70429 0.72564 0.74542
 O860 O 0.68993 0.76704 0.78973
 O861 O 0.67977 0.77425 0.70216
 O862 O 0.66942 0.72790 0.72725
 O863 O 0.70122 0.69288 0.76676
 O864 O 0.67626 0.73186 0.77028
 C865 C 0.67411 0.74872 0.78596
 O866 O 0.73453 0.81060 0.79192
 O867 O 0.80153 0.73569 0.78065
 O868 O 0.73431 0.76932 0.80825
 O869 O 0.76474 0.74028 0.80382
 O870 O 0.81279 0.78256 0.75350
 O871 O 0.78243 0.81497 0.76333
 C872 C 0.75137 0.75457 0.81628
 H873 H 0.79746 0.74208 0.73698
 H874 H 0.73794 0.81359 0.74391
 H875 H 0.71981 0.73056 0.78808
 H876 H 0.70846 0.73406 0.70110
 H877 H 0.79500 0.82629 0.71961
 H878 H 0.71203 0.81913 0.68845
 H879 H 0.67639 0.78870 0.69168
 H880 H 0.65729 0.71592 0.73481
 H881 H 0.82391 0.79506 0.74535
 H882 H 0.80489 0.72127 0.79120
 H883 H 0.76810 0.69390 0.79761
 H884 H 0.68319 0.68733 0.76691
 H885 H 0.79758 0.82518 0.75883
 H886 H 0.72163 0.81297 0.80404
 H887 H 0.75843 0.69859 0.67979
 H888 H 0.68395 0.68454 0.72724
 Zr889 Zr 0.23392 0.22437 0.77386
 O890 O 0.24678 0.20086 0.80117
 O891 O 0.19568 0.22699 0.78138
 O892 O 0.23185 0.24242 0.80674
 O893 O 0.22702 0.17652 0.73340
 O894 O 0.25018 0.28107 0.79938
 O895 O 0.21833 0.18707 0.77080
 O896 O 0.18069 0.25339 0.75316
 O897 O 0.22691 0.26205 0.76531
 O898 O 0.21742 0.22464 0.74063
 O899 O 0.26931 0.24343 0.77525
 O900 O 0.25988 0.20694 0.75203
 Zr901 Zr 0.27215 0.26547 0.70985
 Zr902 Zr 0.26231 0.28049 0.76494
 Zr903 Zr 0.24358 0.20922 0.71871
 Zr904 Zr 0.21179 0.26206 0.73168
 O905 O 0.26546 0.17757 0.71155
 O906 O 0.19802 0.29672 0.74344
 O907 O 0.23663 0.24632 0.70800
 O908 O 0.24619 0.28248 0.73168
 O909 O 0.28907 0.26547 0.74291
 O910 O 0.27860 0.22778 0.71862
 C911 C 0.17805 0.23921 0.77131
 C912 C 0.21770 0.17162 0.75353
 C913 C 0.23920 0.26484 0.81288
 O914 O 0.24160 0.31341 0.77007
 O915 O 0.28187 0.31197 0.75115
 O916 O 0.29089 0.30142 0.71382
 C917 C 0.29195 0.31663 0.73129
 O918 O 0.30044 0.20362 0.78092
 Zr919 Zr 0.29431 0.22781 0.75185
 O920 O 0.30983 0.26149 0.70117
 O921 O 0.29371 0.28892 0.78682
 O922 O 0.32214 0.24593 0.77307
 O923 O 0.30926 0.19329 0.74102
 O924 O 0.32538 0.23644 0.73016
 C925 C 0.32744 0.24908 0.71100
 O926 O 0.26014 0.29105 0.68383
 O927 O 0.21085 0.19960 0.69895
 O928 O 0.27106 0.24851 0.67642
 O929 O 0.25179 0.21010 0.68323
 O930 O 0.18297 0.24568 0.71037
 O931 O 0.20581 0.28476 0.70158
 C932 C 0.26236 0.22667 0.66981
 H933 H 0.20127 0.21484 0.73965
 H934 H 0.24344 0.30012 0.72678
 H935 H 0.28962 0.21925 0.70757
 H936 H 0.27666 0.24276 0.79113
 H937 H 0.17966 0.29671 0.74002
 H938 H 0.25123 0.32390 0.78144
 H939 H 0.29087 0.30562 0.79368
 H940 H 0.33825 0.23739 0.77060
 H941 H 0.16738 0.25508 0.71292
 H942 H 0.21358 0.18285 0.69212
 H943 H 0.25564 0.16705 0.70033
 H944 H 0.32758 0.19385 0.74466
 H945 H 0.18860 0.29150 0.70195
 H946 H 0.27493 0.29489 0.67382
 H947 H 0.23191 0.19632 0.81087
 H948 H 0.31877 0.20104 0.78287
 Zr949 Zr 0.25938 0.78897 0.28909
 O950 O 0.25113 0.81547 0.31497
 O951 O 0.29662 0.78028 0.29816
 O952 O 0.25828 0.77250 0.32320
 O953 O 0.27053 0.83407 0.24565
 O954 O 0.23274 0.73744 0.31871
 O955 O 0.27862 0.82447 0.28377
 O956 O 0.30683 0.75100 0.27132
 O957 O 0.26109 0.75024 0.28278
 O958 O 0.27494 0.78527 0.25598
 O959 O 0.22189 0.77480 0.29108
 O960 O 0.23553 0.80849 0.26581
 Zr961 Zr 0.21494 0.74974 0.22708
 Zr962 Zr 0.22372 0.73646 0.28327
 Zr963 Zr 0.25035 0.80263 0.23268
 Zr964 Zr 0.27541 0.74695 0.24923
 O965 O 0.23225 0.83622 0.22307
 O966 O 0.28495 0.71068 0.26169
 O967 O 0.25236 0.76436 0.22440
 O968 O 0.23903 0.73097 0.25033
 O969 O 0.19901 0.75369 0.26003
 O970 O 0.21319 0.78847 0.23328
 C971 C 0.31160 0.76442 0.28934
 C972 C 0.28025 0.83916 0.26567
 C973 C 0.24618 0.75271 0.33117
 O974 O 0.24175 0.70273 0.29251
 O975 O 0.20216 0.70567 0.27076
 O976 O 0.19591 0.71410 0.23218
 C977 C 0.19352 0.69989 0.25050
 O978 O 0.19821 0.82036 0.29268
 Zr979 Zr 0.19891 0.79237 0.26656
 O980 O 0.17641 0.75526 0.22107
 O981 O 0.19035 0.73236 0.30306
 O982 O 0.17037 0.78128 0.29053
 O983 O 0.18746 0.82688 0.25149
 O984 O 0.16555 0.78436 0.24789
 C985 C 0.16044 0.76901 0.23133
 O986 O 0.22258 0.72311 0.20110
 O987 O 0.28375 0.80734 0.21301
 O988 O 0.21712 0.76523 0.19270
 O989 O 0.24182 0.80090 0.19707
 O990 O 0.30611 0.75938 0.22821
 O991 O 0.27780 0.72326 0.21982
 C992 C 0.22892 0.78513 0.18462
 H993 H 0.29218 0.79289 0.25491
 H994 H 0.24012 0.71290 0.24656
 H995 H 0.20254 0.79717 0.22166
 H996 H 0.21469 0.77756 0.30663
 H997 H 0.30292 0.70820 0.25797
 H998 H 0.23053 0.69354 0.30362
 H999 H 0.19110 0.71596 0.31140
 H1000 H 0.15583 0.79229 0.28789
 H1001 H 0.32026 0.74801 0.23138
 H1002 H 0.28294 0.82395 0.20506
 H1003 H 0.24316 0.84501 0.21145
 H1004 H 0.16951 0.82897 0.25552
 H1005 H 0.29432 0.71504 0.21995
 H1006 H 0.20689 0.72052 0.19174
 H1007 H 0.26670 0.81804 0.32448
 H1008 H 0.18091 0.82670 0.29394
 Zr1009 Zr 0.22984 0.77660 0.71802
 O1010 O 0.24204 0.80453 0.69371
 O1011 O 0.19118 0.77316 0.71043
 O1012 O 0.22793 0.76349 0.68321
 O1013 O 0.22259 0.81748 0.76380
 O1014 O 0.24973 0.72704 0.68476
 O1015 O 0.21463 0.81222 0.72502
 O1016 O 0.17716 0.74153 0.73471
 O1017 O 0.22381 0.73747 0.72105
 O1018 O 0.21374 0.76992 0.75066
 O1019 O 0.26572 0.76111 0.71495
 O1020 O 0.25536 0.79276 0.74256
 Zr1021 Zr 0.26926 0.72950 0.77683
 Zr1022 Zr 0.25981 0.72223 0.71981
 Zr1023 Zr 0.23947 0.78399 0.77500
 Zr1024 Zr 0.20895 0.73107 0.75417
 O1025 O 0.26168 0.81462 0.78788
 O1026 O 0.19560 0.69828 0.73667
 O1027 O 0.23336 0.74510 0.78017
 O1028 O 0.24379 0.71387 0.75222
 O1029 O 0.28584 0.73612 0.74434
 O1030 O 0.27513 0.76856 0.77366
 C1031 C 0.17376 0.75877 0.71926
 C1032 C 0.21371 0.82488 0.74403
 C1033 C 0.23765 0.74412 0.67377
 O1034 O 0.23954 0.68932 0.70923
 O1035 O 0.28020 0.69051 0.73008
 O1036 O 0.28698 0.69540 0.76907
 C1037 C 0.28921 0.68335 0.74985
 O1038 O 0.29405 0.80588 0.71695
 Zr1039 Zr 0.29021 0.77513 0.74076
 O1040 O 0.30785 0.73315 0.78471
 O1041 O 0.29209 0.71975 0.69866
 O1042 O 0.31772 0.76589 0.71594
 O1043 O 0.30569 0.80686 0.75857
 O1044 O 0.32237 0.76269 0.75856
 C1045 C 0.32555 0.74636 0.77488
 O1046 O 0.25772 0.69984 0.79962
 O1047 O 0.20644 0.79000 0.79441
 O1048 O 0.26787 0.74061 0.81226
 O1049 O 0.24432 0.77587 0.81040
 O1050 O 0.18046 0.74090 0.77779
 O1051 O 0.20374 0.70268 0.78017
 C1052 C 0.25573 0.75854 0.82169
 H1053 H 0.19757 0.77838 0.75285
 H1054 H 0.24133 0.69547 0.75462
 H1055 H 0.28636 0.77536 0.78611
 H1056 H 0.27309 0.76515 0.69956
 H1057 H 0.17727 0.69629 0.73972
 H1058 H 0.24974 0.68143 0.69710
 H1059 H 0.28986 0.70415 0.68944
 H1060 H 0.33337 0.77581 0.71960
 H1061 H 0.16498 0.73080 0.77389
 H1062 H 0.20956 0.80545 0.80366
 H1063 H 0.25156 0.82255 0.80004
 H1064 H 0.32388 0.80822 0.75477
 H1065 H 0.18684 0.69447 0.77822
 H1066 H 0.27268 0.69531 0.80913
 H1067 H 0.22703 0.80935 0.68443
 H1068 H 0.31193 0.81184 0.71648
 Zr1069 Zr 0.25662 0.23361 0.21029
 O1070 O 0.24567 0.20141 0.19083
 O1071 O 0.28931 0.24626 0.19275
 O1072 O 0.24716 0.24325 0.17561
 O1073 O 0.28477 0.20165 0.25593
 O1074 O 0.21824 0.27403 0.17897
 O1075 O 0.28074 0.20253 0.21639
 O1076 O 0.29877 0.28397 0.20996
 O1077 O 0.25342 0.27289 0.21010
 O1078 O 0.27901 0.24745 0.23772
 O1079 O 0.21784 0.24057 0.21365
 O1080 O 0.24213 0.21568 0.24046
 Zr1081 Zr 0.22230 0.27720 0.27274
 Zr1082 Zr 0.21527 0.27986 0.21502
 Zr1083 Zr 0.26361 0.23143 0.26777
 Zr1084 Zr 0.27461 0.28623 0.23832
 O1085 O 0.25408 0.19809 0.28665
 O1086 O 0.27490 0.32101 0.21979
 O1087 O 0.26124 0.27065 0.26965
 O1088 O 0.23687 0.29484 0.24259
 O1089 O 0.19954 0.26377 0.24520
 O1090 O 0.22550 0.23803 0.27273
 C1091 C 0.30210 0.26716 0.19453
 C1092 C 0.28931 0.19305 0.23566
 C1093 C 0.23197 0.25949 0.16696
 O1094 O 0.22444 0.31434 0.19785
 O1095 O 0.19291 0.30894 0.22734
 O1096 O 0.19676 0.30684 0.26692
 C1097 C 0.18846 0.31700 0.24791
 O1098 O 0.20116 0.19223 0.22355
 Zr1099 Zr 0.20412 0.22480 0.24469
 O1100 O 0.18897 0.26545 0.28927
 O1101 O 0.17839 0.27306 0.20174
 O1102 O 0.16915 0.22630 0.22658
 O1103 O 0.20179 0.19192 0.26594
 O1104 O 0.17596 0.23022 0.26957
 C1105 C 0.17352 0.24683 0.28542
 O1106 O 0.23246 0.31012 0.29151
 O1107 O 0.30130 0.23678 0.27969
 O1108 O 0.23345 0.26898 0.30758
 O1109 O 0.26448 0.24060 0.30301
 O1110 O 0.31147 0.28389 0.25271
 O1111 O 0.28044 0.31560 0.26280
 C1112 C 0.25088 0.25463 0.31552
 H1113 H 0.29696 0.24323 0.23607
 H1114 H 0.23595 0.31338 0.24343
 H1115 H 0.21965 0.22989 0.28735
 H1116 H 0.20798 0.23349 0.20041
 H1117 H 0.29263 0.32748 0.21915
 H1118 H 0.20972 0.31858 0.18796
 H1119 H 0.17468 0.28746 0.19129
 H1120 H 0.15734 0.21394 0.23408
 H1121 H 0.32231 0.29664 0.24457
 H1122 H 0.30499 0.22242 0.29021
 H1123 H 0.26879 0.19434 0.29674
 H1124 H 0.18390 0.18592 0.26602
 H1125 H 0.29541 0.32610 0.25834
 H1126 H 0.21951 0.31212 0.30366
 H1127 H 0.25879 0.19921 0.17888
 H1128 H 0.18478 0.18332 0.22638
 Zr1129 Zr 0.73591 0.72506 0.27440
 O1130 O 0.74897 0.70161 0.30166
 O1131 O 0.69782 0.72803 0.28235
 O1132 O 0.73433 0.74334 0.30719
 O1133 O 0.72801 0.67706 0.23420
 O1134 O 0.75330 0.78167 0.29960
 O1135 O 0.71993 0.68786 0.27167
 O1136 O 0.68266 0.75447 0.25426
 O1137 O 0.72919 0.76279 0.26581
 O1138 O 0.71893 0.72532 0.24137
 O1139 O 0.77150 0.74379 0.27529
 O1140 O 0.76136 0.70726 0.25231
 Zr1141 Zr 0.77356 0.76545 0.20977
 Zr1142 Zr 0.76475 0.78090 0.26493
 Zr1143 Zr 0.74460 0.70954 0.21918
 Zr1144 Zr 0.71354 0.76278 0.23239
 O1145 O 0.76604 0.67763 0.21185
 O1146 O 0.70033 0.79764 0.24423
 O1147 O 0.73784 0.74667 0.20843
 O1148 O 0.74813 0.78284 0.23187
 O1149 O 0.79100 0.76547 0.24262
 O1150 O 0.77979 0.72775 0.21860
 C1151 C 0.68016 0.74036 0.27246
 C1152 C 0.71894 0.67232 0.25446
 C1153 C 0.74216 0.76566 0.31324
 O1154 O 0.74443 0.81401 0.27034
 O1155 O 0.78428 0.81224 0.25071
 O1156 O 0.79263 0.80126 0.21335
 C1157 C 0.79406 0.81662 0.23068
 O1158 O 0.80219 0.70359 0.28069
 Zr1159 Zr 0.79597 0.72779 0.25164
 O1160 O 0.81107 0.76109 0.20066
 O1161 O 0.79665 0.78910 0.28626
 O1162 O 0.82429 0.74562 0.27253
 O1163 O 0.81044 0.69310 0.24068
 O1164 O 0.82682 0.73609 0.22960
 C1165 C 0.82872 0.74862 0.21037
 O1166 O 0.76141 0.79097 0.18377
 O1167 O 0.71148 0.70016 0.19988
 O1168 O 0.77193 0.74830 0.17643
 O1169 O 0.75232 0.71014 0.18360
 O1170 O 0.68421 0.74665 0.21150
 O1171 O 0.70738 0.78542 0.20227
 C1172 C 0.76292 0.72651 0.17000
 H1173 H 0.70269 0.71567 0.24062
 H1174 H 0.74547 0.80049 0.22693
 H1175 H 0.79057 0.71906 0.20747
 H1176 H 0.77907 0.74310 0.29109
 H1177 H 0.68193 0.79781 0.24103
 H1178 H 0.75438 0.82446 0.28152
 H1179 H 0.79415 0.80589 0.29307
 H1180 H 0.84024 0.73686 0.26991
 H1181 H 0.66880 0.75629 0.21417
 H1182 H 0.71395 0.68336 0.19306
 H1183 H 0.75593 0.66714 0.20082
 H1184 H 0.82881 0.69349 0.24411
 H1185 H 0.69030 0.79243 0.20287
 H1186 H 0.77608 0.79463 0.17357
 H1187 H 0.73421 0.69722 0.31154
 H1188 H 0.82049 0.70074 0.28241
 Zr1189 Zr 0.75802 0.28893 0.78877
 O1190 O 0.74946 0.31545 0.81453
 O1191 O 0.79518 0.28030 0.79819
 O1192 O 0.75655 0.27248 0.82291
 O1193 O 0.76956 0.33404 0.74541
 O1194 O 0.73115 0.23736 0.81817
 O1195 O 0.77735 0.32439 0.78359
 O1196 O 0.80581 0.25124 0.77128
 O1197 O 0.75988 0.25020 0.78250
 O1198 O 0.77391 0.28524 0.75579
 O1199 O 0.72053 0.27471 0.79044
 O1200 O 0.73439 0.30842 0.76527
 Zr1201 Zr 0.71428 0.24962 0.72639
 Zr1202 Zr 0.72252 0.23638 0.78265
 Zr1203 Zr 0.74954 0.30257 0.73227
 Zr1204 Zr 0.77453 0.24694 0.74907
 O1205 O 0.73144 0.33610 0.72248
 O1206 O 0.78406 0.21075 0.76174
 O1207 O 0.75171 0.26430 0.72403
 O1208 O 0.73817 0.23089 0.74986
 O1209 O 0.69803 0.25357 0.75920
 O1210 O 0.71239 0.28835 0.73254
 C1211 C 0.81036 0.26464 0.78937
 C1212 C 0.77915 0.33909 0.76549
 C1213 C 0.74439 0.25266 0.83076
 O1214 O 0.74050 0.20267 0.79206
 O1215 O 0.70112 0.20557 0.76999
 O1216 O 0.69523 0.21397 0.73136
 C1217 C 0.69266 0.19978 0.74968
 O1218 O 0.69684 0.32030 0.79175
 Zr1219 Zr 0.69779 0.29225 0.76570
 O1220 O 0.67579 0.25506 0.72006
 O1221 O 0.68895 0.23224 0.80214
 O1222 O 0.66904 0.28120 0.78948
 O1223 O 0.68637 0.32668 0.75046
 O1224 O 0.66461 0.28407 0.74684
 C1225 C 0.65968 0.26870 0.73026
 O1226 O 0.72219 0.22296 0.70051
 O1227 O 0.78314 0.30738 0.71289
 O1228 O 0.71690 0.26503 0.69200
 O1229 O 0.74145 0.30076 0.69657
 O1230 O 0.80534 0.25938 0.72819
 O1231 O 0.77725 0.22316 0.71975
 C1232 C 0.72877 0.28492 0.68401
 H1233 H 0.79115 0.29289 0.75484
 H1234 H 0.73933 0.21283 0.74611
 H1235 H 0.70185 0.29701 0.72081
 H1236 H 0.71317 0.27747 0.80592
 H1237 H 0.80209 0.20833 0.75820
 H1238 H 0.72920 0.19347 0.80309
 H1239 H 0.68964 0.21586 0.81052
 H1240 H 0.65453 0.29221 0.78671
 H1241 H 0.81950 0.24806 0.73146
 H1242 H 0.78239 0.32401 0.70496
 H1243 H 0.74245 0.34492 0.71096
 H1244 H 0.66838 0.32873 0.75436
 H1245 H 0.79376 0.21492 0.72008
 H1246 H 0.70659 0.22034 0.69102
 H1247 H 0.76492 0.31805 0.82419
 H1248 H 0.67952 0.32663 0.79285
 C1249 C 0.47188 1.01682 0.34216
 N1250 N 0.47011 0.99731 0.32714
 N1251 N 0.45526 0.99859 0.30835
 C1252 C 0.44142 1.01930 0.30396
 N1253 N 0.44361 1.03899 0.31876
 N1254 N 0.45854 1.03776 0.33747
 C1255 C 0.48510 1.01430 0.36463
 N1256 N 0.48454 1.03339 0.38002
 N1257 N 0.49245 1.03010 0.40181
 C1258 C 0.50144 1.00767 0.40913
 N1259 N 0.50289 0.98873 0.39355
 N1260 N 0.49485 0.99201 0.37165
 C1261 C -0.02796 0.51604 0.84269
 N1262 N -0.02994 0.49643 0.82779
 N1263 N -0.04496 0.49764 0.80911
 C1264 C -0.05876 0.51837 0.80472
 N1265 N -0.05640 0.53815 0.81941
 N1266 N -0.04130 0.53698 0.83802
 C1267 C -0.01445 0.51364 0.86502
 N1268 N -0.01468 0.53288 0.88028
 N1269 N -0.00647 0.52973 0.90199
 C1270 C 0.00250 0.50731 0.90936
 N1271 N 0.00362 0.48823 0.89390
 N1272 N -0.00470 0.49137 0.87208
 C1273 C 0.02793 -0.00473 0.83197
 N1274 N 0.02821 0.01513 0.81690
 N1275 N 0.04058 0.01398 0.79682
 C1276 C 0.05328 -0.00698 0.79113
 N1277 N 0.05208 -0.02709 0.80587
 N1278 N 0.03964 -0.02600 0.82580
 C1279 C 0.01869 -0.00256 0.85595
 N1280 N 0.02271 -0.02175 0.87109
 N1281 N 0.01819 -0.01924 0.89360
 C1282 C 0.00925 0.00248 0.90203
 N1283 N 0.00447 0.02163 0.88688
 N1284 N 0.00925 0.01917 0.86420
 C1285 C 0.52927 0.49584 0.33400
 N1286 N 0.52964 0.51586 0.31909
 N1287 N 0.54192 0.51480 0.29896
 C1288 C 0.55444 0.49381 0.29306
 N1289 N 0.55312 0.47355 0.30761
 N1290 N 0.54077 0.47454 0.32760
 C1291 C 0.52027 0.49788 0.35805
 N1292 N 0.52437 0.47857 0.37304
 N1293 N 0.52009 0.48094 0.39560
 C1294 C 0.51135 0.50264 0.40424
 N1295 N 0.50650 0.52191 0.38925
 N1296 N 0.51103 0.51960 0.36652
 C1297 C 0.55962 0.48362 0.16096
 N1298 N 0.54171 0.48167 0.17767
 N1299 N 0.54773 0.48579 0.19994
 C1300 C 0.57187 0.49205 0.20641
 N1301 N 0.58974 0.49397 0.18967
 N1302 N 0.58371 0.48995 0.16742
 C1303 C 0.55327 0.47973 0.13613
 N1304 N 0.57102 0.48484 0.11979
 N1305 N 0.56549 0.48256 0.09728
 C1306 C 0.54207 0.47484 0.09003
 N1307 N 0.52427 0.46935 0.10636
 N1308 N 0.52979 0.47177 0.12900
 C1309 C 0.05883 0.98628 0.66058
 N1310 N 0.08334 0.99065 0.66691
 N1311 N 0.08989 0.99359 0.68920
 C1312 C 0.07219 0.99253 0.70614
 N1313 N 0.04762 0.98827 0.69974
 N1314 N 0.04107 0.98517 0.67746
 C1315 C 0.05185 0.98360 0.63573
 N1316 N 0.02804 0.97649 0.62883
 N1317 N 0.02197 0.97500 0.60622
 C1318 C 0.03951 0.98067 0.58971
 N1319 N 0.06324 0.98760 0.59672
 N1320 N 0.06933 0.98891 0.61919
 C1321 C -0.05544 0.51606 0.67429
 N1322 N -0.08052 0.51285 0.67867
 N1323 N -0.08903 0.51222 0.70044
 C1324 C -0.07271 0.51457 0.71867
 N1325 N -0.04764 0.51775 0.71421
 N1326 N -0.03915 0.51850 0.69248
 C1327 C -0.04615 0.51625 0.65024
 N1328 N -0.02143 0.52145 0.64527
 N1329 N -0.01321 0.52087 0.62338
 C1330 C -0.02948 0.51494 0.60574
 N1331 N -0.05411 0.50990 0.61081
 N1332 N -0.06231 0.51059 0.63256
 C1333 C 0.44350 0.01651 0.17332
 N1334 N 0.41851 0.01303 0.17799
 N1335 N 0.41028 0.01249 0.19985
 C1336 C 0.42680 0.01518 0.21789
 N1337 N 0.45178 0.01863 0.21316
 N1338 N 0.45999 0.01930 0.19133
 C1339 C 0.45250 0.01662 0.14917
 N1340 N 0.47705 0.02229 0.14393
 N1341 N 0.48503 0.02170 0.12196
 C1342 C 0.46870 0.01527 0.10452
 N1343 N 0.44422 0.00974 0.10986
 N1344 N 0.43625 0.01047 0.13169
 C1345 C 0.35188 0.39650 0.00206
 N1346 N 0.33540 0.40204 -0.01539
 N1347 N 0.31248 0.39099 -0.01635
 C1348 C 0.30508 0.37378 0.00005
 N1349 N 0.32148 0.36854 0.01771
 N1350 N 0.34436 0.37972 0.01877
 C1351 C 0.37782 0.40763 0.00192
 N1352 N 0.39389 0.40524 0.02041
 N1353 N 0.41738 0.41522 0.01968
 C1354 C 0.42572 0.42765 0.00029
 N1355 N 0.40962 0.42985 -0.01810
 N1356 N 0.38622 0.42011 -0.01731
 C1357 C -0.15097 0.90118 0.50321
 N1358 N -0.16785 0.90650 0.48604
 N1359 N -0.19034 0.89458 0.48504
 C1360 C -0.19688 0.87671 0.50113
 N1361 N -0.18010 0.87167 0.51853
 N1362 N -0.15765 0.88371 0.51961
 C1363 C -0.12545 0.91325 0.50303
 N1364 N -0.10895 0.91073 0.52116
 N1365 N -0.08575 0.92137 0.52031
 C1366 C -0.07814 0.93465 0.50114
 N1367 N -0.09468 0.93703 0.48311
 N1368 N -0.11780 0.92662 0.48403
 C1369 C -0.15788 0.09285 0.99954
 N1370 N -0.17303 0.09220 1.01850
 N1371 N -0.19408 0.10535 1.01882
 C1372 C -0.20077 0.11978 1.00022
 N1373 N -0.18562 0.12026 0.98125
 N1374 N -0.16464 0.10707 0.98090
 C1375 C -0.13439 0.07863 0.99929
 N1376 N -0.12004 0.07799 0.97983
 N1377 N -0.09868 0.06531 0.97972
 C1378 C -0.09082 0.05286 0.99911
 N1379 N -0.10518 0.05354 1.01853
 N1380 N -0.12655 0.06613 1.01862
 C1381 C 0.34543 0.59366 0.50140
 N1382 N 0.33005 0.59309 0.52019
 N1383 N 0.30907 0.60635 0.52028
 C1384 C 0.30270 0.62081 0.50161
 N1385 N 0.31808 0.62122 0.48280
 N1386 N 0.33898 0.60792 0.48267
 C1387 C 0.36882 0.57932 0.50137
 N1388 N 0.38330 0.57856 0.48202
 N1389 N 0.40457 0.56575 0.48206
 C1390 C 0.41222 0.55330 0.50152
 N1391 N 0.39774 0.55410 0.52086
 N1392 N 0.37645 0.56682 0.52079
 C1393 C 0.16317 0.59603 0.51482
 N1394 N 0.16609 0.62104 0.51945
 N1395 N 0.18808 0.63330 0.51537
 C1396 C 0.20797 0.62102 0.50652
 N1397 N 0.20490 0.59609 0.50193
 N1398 N 0.18299 0.58393 0.50584
 C1399 C 0.13892 0.58190 0.51834
 N1400 N 0.13574 0.55876 0.50882
 N1401 N 0.11387 0.54595 0.51059
 C1402 C 0.09426 0.55541 0.52234
 N1403 N 0.09743 0.57845 0.53229
 N1404 N 0.11938 0.59147 0.53032
 C1405 C 0.66078 0.09723 0.01371
 N1406 N 0.66282 0.12283 0.01439
 N1407 N 0.68493 0.13482 0.01025
 C1408 C 0.70590 0.12171 0.00534
 N1409 N 0.70368 0.09616 0.00473
 N1410 N 0.68164 0.08424 0.00865
 C1411 C 0.63639 0.08333 0.01716
 N1412 N 0.63399 0.05906 0.01016
 N1413 N 0.61203 0.04637 0.01186
 C1414 C 0.59157 0.05714 0.02114
 N1415 N 0.59394 0.08136 0.02853
 N1416 N 0.61596 0.09423 0.02657
 C1417 C 0.66051 0.89264 0.49807
 N1418 N 0.66548 0.87339 0.48358
 N1419 N 0.68833 0.86343 0.48343
 C1420 C 0.70719 0.87258 0.49747
 N1421 N 0.70223 0.89194 0.51179
 N1422 N 0.67932 0.90161 0.51222
 C1423 C 0.63521 0.90364 0.49885
 N1424 N 0.62753 0.91470 0.51861
 N1425 N 0.60520 0.92547 0.51948
 C1426 C 0.58965 0.92596 0.50057
 N1427 N 0.59730 0.91494 0.48069
 N1428 N 0.61957 0.90377 0.47993
 C1429 C 0.16260 0.39327 0.99774
 N1430 N 0.16707 0.37368 0.98349
 N1431 N 0.18975 0.36339 0.98320
 C1432 C 0.20897 0.37251 0.99684
 N1433 N 0.20453 0.39223 1.01092
 N1434 N 0.18177 0.40225 1.01149
 C1435 C 0.13743 0.40453 0.99870
 N1436 N 0.13019 0.41614 1.01833
 N1437 N 0.10787 0.42693 1.01936
 C1438 C 0.09191 0.42688 1.00073
 N1439 N 0.09914 0.41534 0.98097
 N1440 N 0.12138 0.40416 0.98006
 C1441 C -0.01994 0.33490 0.43807
 N1442 N -0.03476 0.33306 0.41882
 N1443 N -0.03357 0.31322 0.40512
 C1444 C -0.01746 0.29453 0.41015
 N1445 N -0.00321 0.29599 0.42986
 N1446 N -0.00434 0.31593 0.44357
 C1447 C -0.01857 0.35843 0.45065
 N1448 N -0.00185 0.36196 0.46842
 N1449 N 0.00128 0.38456 0.47799
 C1450 C -0.01200 0.40429 0.46985
 N1451 N -0.02891 0.40061 0.45232
 N1452 N -0.03209 0.37807 0.44283
 C1453 C 0.48027 -0.16710 -0.05893
 N1454 N 0.46519 -0.17060 -0.07785
 N1455 N 0.46665 -0.19137 -0.09035
 C1456 C 0.48325 -0.20931 -0.08438
 N1457 N 0.49780 -0.20613 -0.06502
 N1458 N 0.49635 -0.18533 -0.05251
 C1459 C 0.48147 -0.14276 -0.04769
 N1460 N 0.49793 -0.13825 -0.02991
 N1461 N 0.50087 -0.11520 -0.02131
 C1462 C 0.48765 -0.09592 -0.03043
 N1463 N 0.47104 -0.10049 -0.04805
 N1464 N 0.46806 -0.12353 -0.05659
 C1465 C 0.01971 -0.17964 1.05113
 N1466 N -0.00084 -0.19534 1.04947
 N1467 N -0.00246 -0.21618 1.06239
 C1468 C 0.01645 -0.22206 1.07734
 N1469 N 0.03784 -0.20735 1.07760
 N1470 N 0.03938 -0.18636 1.06482
 C1471 C 0.01797 -0.15381 1.04288
 N1472 N 0.03426 -0.13572 1.05107
 N1473 N 0.03015 -0.11150 1.04690
 C1474 C 0.00938 -0.10464 1.03472
 N1475 N -0.00668 -0.12274 1.02626
 N1476 N -0.00261 -0.14691 1.03050
 C1477 C 0.51915 0.31919 0.55232
 N1478 N 0.49822 0.30400 0.55069
 N1479 N 0.49622 0.28304 0.56341
 C1480 C 0.51512 0.27653 0.57813
 N1481 N 0.53685 0.29074 0.57835
 N1482 N 0.53878 0.31184 0.56578
 C1483 C 0.51797 0.34514 0.54428
 N1484 N 0.53464 0.36283 0.55255
 N1485 N 0.53105 0.38718 0.54853
 C1486 C 0.51042 0.39457 0.53643
 N1487 N 0.49398 0.37685 0.52789
 N1488 N 0.49753 0.35256 0.53198
 C1489 C 0.53269 1.14079 0.60621
 N1490 N 0.51533 1.14866 0.62142
 N1491 N 0.51240 1.17312 0.62467
 C1492 C 0.52641 1.19048 0.61257
 N1493 N 0.54445 1.18262 0.59803
 N1494 N 0.54756 1.15815 0.59495
 C1495 C 0.53122 1.11516 0.59769
 N1496 N 0.54848 1.10782 0.58217
 N1497 N 0.54416 1.08732 0.56961
 C1498 C 0.52230 1.07362 0.57189
 N1499 N 0.50539 1.08033 0.58805
 N1500 N 0.50977 1.10086 0.60072
 C1501 C 0.03384 0.64216 1.10529
 N1502 N 0.01654 0.65010 1.12053
 N1503 N 0.01373 0.67457 1.12381
 C1504 C 0.02781 0.69188 1.11170
 N1505 N 0.04575 0.68395 1.09709
 N1506 N 0.04874 0.65946 1.09400
 C1507 C 0.03239 0.61647 1.09690
 N1508 N 0.04968 0.60904 1.08144
 N1509 N 0.04545 0.58838 1.06909
 C1510 C 0.02367 0.57459 1.07152
 N1511 N 0.00672 0.58141 1.08762
 N1512 N 0.01102 0.60211 1.10008
 C1513 C 0.49877 0.65294 -0.07891
 N1514 N 0.48856 0.67074 -0.06550
 N1515 N 0.48492 0.69372 -0.07395
 C1516 C 0.49118 0.69967 -0.09619
 N1517 N 0.50091 0.68163 -0.10976
 N1518 N 0.50471 0.65865 -0.10126
 C1519 C 0.50373 0.62827 -0.06899
 N1520 N 0.51718 0.61120 -0.08070
 N1521 N 0.52179 0.58883 -0.07113
 C1522 C 0.51308 0.58296 -0.04957
 N1523 N 0.49972 0.60009 -0.03795
 N1524 N 0.49524 0.62240 -0.04743
 C1525 C -0.01015 1.15573 0.41513
 N1526 N -0.02382 1.17262 0.42676
 N1527 N -0.02730 1.19546 0.41788
 C1528 C -0.01739 1.20212 0.39698
 N1529 N -0.00428 1.18497 0.38507
 N1530 N -0.00070 1.16213 0.39399
 C1531 C -0.00438 1.13178 0.42615
 N1532 N 0.01152 1.11558 0.41615
 N1533 N 0.01731 1.09416 0.42695
 C1534 C 0.00749 1.08846 0.44814
 N1535 N -0.00833 1.10472 0.45806
 N1536 N -0.01406 1.12605 0.44732
 C1537 C 0.76522 0.72200 0.90822
 N1538 N 0.78641 0.70900 0.91288
 N1539 N 0.78781 0.69398 0.93152
 C1540 C 0.76804 0.69136 0.94627
 N1541 N 0.74707 0.70484 0.94189
 N1542 N 0.74562 0.71978 0.92318
 C1543 C 0.76259 0.73539 0.88583
 N1544 N 0.74014 0.74486 0.87881
 N1545 N 0.73685 0.75306 0.85696
 C1546 C 0.75595 0.75209 0.84143
 N1547 N 0.77853 0.74339 0.84876
 N1548 N 0.78183 0.73531 0.87050
 C1549 C 0.26540 0.22341 0.40773
 N1550 N 0.28645 0.21019 0.41234
 N1551 N 0.28780 0.19526 0.43104
 C1552 C 0.26811 0.19297 0.44590
 N1553 N 0.24730 0.20672 0.44160
 N1554 N 0.24590 0.22157 0.42283
 C1555 C 0.26268 0.23650 0.38522
 N1556 N 0.24023 0.24600 0.37826
 N1557 N 0.23676 0.25380 0.35632
 C1558 C 0.25566 0.25235 0.34064
 N1559 N 0.27825 0.24363 0.34790
 N1560 N 0.28173 0.23595 0.36973
 C1561 C 0.74914 0.27866 0.41610
 N1562 N 0.76926 0.27936 0.43091
 N1563 N 0.76802 0.29142 0.45113
 C1564 C 0.74672 0.30337 0.45726
 N1565 N 0.72639 0.30173 0.44277
 N1566 N 0.72756 0.28962 0.42270
 C1567 C 0.75117 0.26972 0.39200
 N1568 N 0.73165 0.27351 0.37715
 N1569 N 0.73386 0.26907 0.35459
 C1570 C 0.75560 0.26046 0.34581
 N1571 N 0.77511 0.25595 0.36067
 N1572 N 0.77296 0.26064 0.38340
 C1573 C 0.24586 0.77820 0.91718
 N1574 N 0.22452 0.78979 0.92345
 N1575 N 0.22348 0.80220 0.94338
 C1576 C 0.24371 0.80351 0.95800
 N1577 N 0.26474 0.79093 0.95220
 N1578 N 0.26584 0.77858 0.93214
 C1579 C 0.24798 0.76905 0.89318
 N1580 N 0.26966 0.75942 0.88493
 N1581 N 0.27211 0.75469 0.86225
 C1582 C 0.25303 0.75972 0.84709
 N1583 N 0.23136 0.76887 0.85550
 N1584 N 0.22884 0.77334 0.87802
 C1585 C 0.23526 0.80970 0.08848
 N1586 N 0.23448 0.79184 0.07175
 N1587 N 0.23805 0.79820 0.04946
 C1588 C 0.24249 0.82265 0.04293
 N1589 N 0.24324 0.84045 0.05974
 N1590 N 0.23982 0.83410 0.08202
 C1591 C 0.23206 0.80298 0.11335
 N1592 N 0.23696 0.82063 0.12977
 N1593 N 0.23523 0.81480 0.15227
 C1594 C 0.22825 0.79116 0.15944
 N1595 N 0.22298 0.77345 0.14304
 N1596 N 0.22489 0.77927 0.12040
 C1597 C 0.73682 0.30904 0.58787
 N1598 N 0.73643 0.29114 0.57115
 N1599 N 0.74032 0.29749 0.54890
 C1600 C 0.74472 0.32197 0.54240
 N1601 N 0.74511 0.33978 0.55920
 N1602 N 0.74136 0.33344 0.58143
 C1603 C 0.73319 0.30239 0.61271
 N1604 N 0.73768 0.32015 0.62911
 N1605 N 0.73553 0.31445 0.65161
 C1606 C 0.72852 0.29083 0.65879
 N1607 N 0.72366 0.27300 0.64239
 N1608 N 0.72599 0.27869 0.61976
 C1609 C 0.26541 0.19422 0.57649
 N1610 N 0.26221 0.16927 0.57175
 N1611 N 0.26155 0.16119 0.54986
 C1612 C 0.26387 0.17780 0.53186
 N1613 N 0.26703 0.20273 0.53667
 N1614 N 0.26780 0.21080 0.55852
 C1615 C 0.26566 0.20305 0.60067
 N1616 N 0.27094 0.22761 0.60595
 N1617 N 0.27042 0.23543 0.62796
 C1618 C 0.26446 0.21892 0.64541
 N1619 N 0.25934 0.19443 0.64002
 N1620 N 0.25999 0.18663 0.61815
 C1621 C 0.76568 0.69332 0.07686
 N1622 N 0.76234 0.66835 0.07225
 N1623 N 0.76175 0.66011 0.05041
 C1624 C 0.76424 0.67659 0.03232
 N1625 N 0.76754 0.70154 0.03699
 N1626 N 0.76826 0.70976 0.05880
 C1627 C 0.76588 0.70233 0.10099
 N1628 N 0.77152 0.72685 0.10613
 N1629 N 0.77105 0.73485 0.12808
 C1630 C 0.76477 0.71857 0.14562
 N1631 N 0.75926 0.69412 0.14036
 N1632 N 0.75986 0.68613 0.11855
 C1633 C 0.14949 0.60107 0.24714
 N1634 N 0.15509 0.58446 0.26446
 N1635 N 0.14366 0.56176 0.26555
 C1636 C 0.12601 0.55471 0.24942
 N1637 N 0.12073 0.57122 0.23188
 N1638 N 0.13228 0.59389 0.23069
 C1639 C 0.16095 0.62682 0.24722
 N1640 N 0.15841 0.64303 0.22886
 N1641 N 0.16857 0.66640 0.22959
 C1642 C 0.18135 0.67449 0.24887
 N1643 N 0.18373 0.65826 0.26712
 N1644 N 0.17381 0.63497 0.26632
 C1645 C 0.64855 0.10102 0.74627
 N1646 N 0.65415 0.08443 0.76361
 N1647 N 0.64273 0.06173 0.76473
 C1648 C 0.62507 0.05467 0.74861
 N1649 N 0.61977 0.07116 0.73106
 N1650 N 0.63131 0.09382 0.72984
 C1651 C 0.66003 0.12676 0.74634
 N1652 N 0.65754 0.14295 0.72797
 N1653 N 0.66774 0.16631 0.72871
 C1654 C 0.68051 0.17439 0.74800
 N1655 N 0.68284 0.15815 0.76625
 N1656 N 0.67289 0.13488 0.76545
 C1657 C 0.84198 0.09214 0.24841
 N1658 N 0.85626 0.08548 0.26704
 N1659 N 0.86933 0.06446 0.26683
 C1660 C 0.86866 0.04915 0.24801
 N1661 N 0.85414 0.05572 0.22942
 N1662 N 0.84111 0.07682 0.22961
 C1663 C 0.82802 0.11573 0.24850
 N1664 N 0.81532 0.12344 0.22923
 N1665 N 0.80298 0.14493 0.22921
 C1666 C 0.80280 0.15956 0.24846
 N1667 N 0.81546 0.15183 0.26777
 N1668 N 0.82788 0.13035 0.26776
 C1669 C 0.34288 0.59259 0.74994
 N1670 N 0.35714 0.58593 0.76859
 N1671 N 0.37047 0.56507 0.76828
 C1672 C 0.37009 0.54994 0.74934
 N1673 N 0.35560 0.55650 0.73074
 N1674 N 0.34233 0.57745 0.73101
 C1675 C 0.32860 0.61601 0.75013
 N1676 N 0.31625 0.62392 0.73074
 N1677 N 0.30372 0.64530 0.73077
 C1678 C 0.30294 0.65959 0.75020
 N1679 N 0.31522 0.65164 0.76965
 N1680 N 0.32785 0.63028 0.76959
 C1681 C 0.34555 0.41048 0.73661
 N1682 N 0.33343 0.43019 0.74574
 N1683 N 0.34553 0.45212 0.74949
 C1684 C 0.37044 0.45532 0.74459
 N1685 N 0.38274 0.43555 0.73559
 N1686 N 0.37053 0.41354 0.73167
 C1687 C 0.33148 0.38620 0.73327
 N1688 N 0.34093 0.36685 0.72100
 N1689 N 0.32796 0.34490 0.71912
 C1690 C 0.30509 0.34154 0.72947
 N1691 N 0.29576 0.36096 0.74153
 N1692 N 0.30851 0.38283 0.74320
 C1693 C 0.84703 0.91078 0.23512
 N1694 N 0.83388 0.93155 0.24006
 N1695 N 0.84569 0.95364 0.24378
 C1696 C 0.87128 0.95603 0.24307
 N1697 N 0.88456 0.93516 0.23829
 N1698 N 0.87267 0.91299 0.23435
 C1699 C 0.83323 0.88633 0.23190
 N1700 N 0.84425 0.86594 0.22259
 N1701 N 0.83147 0.84389 0.22082
 C1702 C 0.80722 0.84144 0.22830
 N1703 N 0.79634 0.86185 0.23748
 N1704 N 0.80894 0.88384 0.23900
 C1705 C 0.64304 0.91241 0.75191
 N1706 N 0.62350 0.91711 0.76620
 N1707 N 0.61334 0.93982 0.76637
 C1708 C 0.62255 0.95883 0.75252
 N1709 N 0.64221 0.95415 0.73838
 N1710 N 0.65209 0.93136 0.73795
 C1711 C 0.65421 0.88723 0.75113
 N1712 N 0.66582 0.87980 0.73154
 N1713 N 0.67655 0.85748 0.73068
 C1714 C 0.67645 0.84170 0.74944
 N1715 N 0.66491 0.84911 0.76915
 N1716 N 0.65379 0.87136 0.76989
 C1717 C 0.14234 0.41198 0.25213
 N1718 N 0.12316 0.41699 0.26673
 N1719 N 0.11339 0.43988 0.26709
 C1720 C 0.12268 0.45876 0.25315
 N1721 N 0.14199 0.45379 0.23871
 N1722 N 0.15147 0.43082 0.23808
 C1723 C 0.15305 0.38660 0.25115
 N1724 N 0.16411 0.37896 0.23137
 N1725 N 0.17452 0.35649 0.23035
 C1726 C 0.17460 0.34074 0.24913
 N1727 N 0.16357 0.34835 0.26903
 N1728 N 0.15277 0.37076 0.26994
 C1729 C 0.08284 0.23028 0.81214
 N1730 N 0.06430 0.24599 0.80568
 N1731 N 0.04385 0.24781 0.81869
 C1732 C 0.04136 0.23404 0.83861
 N1733 N 0.05966 0.21789 0.84471
 N1734 N 0.08007 0.21606 0.83170
 C1735 C 0.10674 0.23093 0.80003
 N1736 N 0.12621 0.21760 0.80859
 N1737 N 0.14895 0.22016 0.79923
 C1738 C 0.15299 0.23624 0.78110
 N1739 N 0.13345 0.24934 0.77230
 N1740 N 0.11068 0.24682 0.78171
 C1741 C 0.58521 0.73092 0.31381
 N1742 N 0.56633 0.74624 0.30733
 N1743 N 0.54583 0.74766 0.32034
 C1744 C 0.54364 0.73390 0.34029
 N1745 N 0.56227 0.71813 0.34640
 N1746 N 0.58271 0.71668 0.33339
 C1747 C 0.60909 0.73190 0.30166
 N1748 N 0.62868 0.71869 0.31012
 N1749 N 0.65135 0.72137 0.30065
 C1750 C 0.65521 0.73747 0.28250
 N1751 N 0.63554 0.75048 0.27381
 N1752 N 0.61283 0.74783 0.28334
 C1753 C 0.56837 0.26749 0.20079
 N1754 N 0.56105 0.28745 0.18777
 N1755 N 0.54012 0.28578 0.17489
 C1756 C 0.52607 0.26399 0.17435
 N1757 N 0.53251 0.24471 0.18865
 N1758 N 0.55329 0.24645 0.20168
 C1759 C 0.59433 0.26622 0.20892
 N1760 N 0.60178 0.24570 0.22107
 N1761 N 0.62614 0.24207 0.22501
 C1762 C 0.64388 0.25850 0.21644
 N1763 N 0.63646 0.27920 0.20452
 N1764 N 0.61206 0.28290 0.20068
 C1765 C 0.07382 0.77649 0.69396
 N1766 N 0.05609 0.75825 0.69863
 N1767 N 0.03521 0.75629 0.68571
 C1768 C 0.03147 0.77243 0.66765
 N1769 N 0.04840 0.79174 0.66413
 N1770 N 0.06927 0.79371 0.67701
 C1771 C 0.09933 0.77400 0.70290
 N1772 N 0.11844 0.78848 0.69387
 N1773 N 0.14231 0.78344 0.69883
 C1774 C 0.14782 0.76348 0.71265
 N1775 N 0.12872 0.74924 0.72196
 N1776 N 0.10486 0.75426 0.71698
 C1777 C 0.89242 0.77933 0.64622
 N1778 N 0.90947 0.79532 0.65650
 N1779 N 0.93401 0.79325 0.65277
 C1780 C 0.94225 0.77516 0.63853
 N1781 N 0.92515 0.75980 0.62756
 N1782 N 0.90062 0.76169 0.63148
 C1783 C 0.86672 0.77790 0.65474
 N1784 N 0.85232 0.75652 0.65200
 N1785 N 0.83130 0.75278 0.66422
 C1786 C 0.82420 0.77031 0.67962
 N1787 N 0.83810 0.79204 0.68165
 N1788 N 0.85907 0.79572 0.66952
 C1789 C 0.39062 0.28240 0.14501
 N1790 N 0.40791 0.29725 0.15636
 N1791 N 0.43246 0.29414 0.15347
 C1792 C 0.44048 0.27614 0.13901
 N1793 N 0.42321 0.26212 0.12684
 N1794 N 0.39866 0.26504 0.12992
 C1795 C 0.36480 0.28108 0.15325
 N1796 N 0.35040 0.25975 0.15013
 N1797 N 0.32956 0.25557 0.16252
 C1798 C 0.32264 0.27257 0.17848
 N1799 N 0.33647 0.29431 0.18084
 N1800 N 0.35727 0.29843 0.16856
 C1801 C 0.40422 0.74467 0.33273
 N1802 N 0.41042 0.75384 0.35400
 N1803 N 0.43329 0.75033 0.36297
 C1804 C 0.45065 0.73756 0.35097
 N1805 N 0.44424 0.72803 0.32989
 N1806 N 0.42137 0.73144 0.32097
 C1807 C 0.38000 0.74992 0.32192
 N1808 N 0.37414 0.73998 0.30091
 N1809 N 0.35242 0.74507 0.29049
 C1810 C 0.33589 0.76047 0.30058
 N1811 N 0.34174 0.77057 0.32161
 N1812 N 0.36353 0.76541 0.33210
 C1813 C 0.90349 0.24617 0.83223
 N1814 N 0.92158 0.23545 0.81949
 N1815 N 0.94450 0.23233 0.82837
 C1816 C 0.95012 0.23965 0.85038
 N1817 N 0.93176 0.24979 0.86334
 N1818 N 0.90883 0.25307 0.85441
 C1819 C 0.87911 0.25106 0.82161
 N1820 N 0.86194 0.26521 0.83246
 N1821 N 0.84000 0.27009 0.82210
 C1822 C 0.83471 0.26101 0.80057
 N1823 N 0.85192 0.24692 0.78983
 N1824 N 0.87379 0.24215 0.80010
 C1825 C 0.53162 0.98653 0.67863
 N1826 N 0.54631 0.96900 0.68896
 N1827 N 0.55828 0.97390 0.70901
 C1828 C 0.55610 0.99657 0.71937
 N1829 N 0.54087 1.01378 0.70934
 N1830 N 0.52872 1.00880 0.68947
 C1831 C 0.52236 0.98333 0.65459
 N1832 N 0.50724 1.00071 0.64465
 N1833 N 0.50188 1.00010 0.62196
 C1834 C 0.51164 0.98220 0.60829
 N1835 N 0.52641 0.96455 0.61830
 N1836 N 0.53163 0.96507 0.64101
 C1837 C 0.03292 0.48705 1.17910
 N1838 N 0.02982 0.50926 1.18999
 N1839 N 0.04170 0.51418 1.21000
 C1840 C 0.05686 0.49697 1.22012
 N1841 N 0.05924 0.47436 1.20971
 N1842 N 0.04752 0.46951 1.18953
 C1843 C 0.02395 0.48392 1.15497
 N1844 N 0.03347 0.46579 1.14141
 N1845 N 0.02846 0.46533 1.11865
 C1846 C 0.01367 0.48293 1.10859
 N1847 N 0.00368 0.50071 1.12223
 N1848 N 0.00883 0.50127 1.14497
 C1849 C -0.04001 -0.00935 1.16730
 N1850 N -0.04447 0.01428 1.17463
 N1851 N -0.05818 0.01799 1.19346
 C1852 C -0.06788 -0.00178 1.20594
 N1853 N -0.06300 -0.02553 1.19898
 N1854 N -0.04943 -0.02926 1.17990
 C1855 C -0.02740 -0.01252 1.14481
 N1856 N -0.02741 -0.03509 1.13379
 N1857 N -0.01928 -0.03656 1.11190
 C1858 C -0.01066 -0.01555 1.10041
 N1859 N -0.01027 0.00677 1.11163
 N1860 N -0.01831 0.00824 1.13338
 C1861 C 0.46162 0.49052 0.66908
 N1862 N 0.45724 0.51425 0.67620
 N1863 N 0.44341 0.51821 0.69491
 C1864 C 0.43349 0.49860 0.70746
 N1865 N 0.43826 0.47475 0.70070
 N1866 N 0.45195 0.47077 0.68174
 C1867 C 0.47450 0.48703 0.64676
 N1868 N 0.47385 0.46451 0.63565
 N1869 N 0.48220 0.46285 0.61385
 C1870 C 0.49175 0.48361 0.60256
 N1871 N 0.49279 0.50587 0.61389
 N1872 N 0.48449 0.50753 0.63555
 C1873 C 0.46717 0.49504 -0.17412
 N1874 N 0.45518 0.47432 -0.18331
 N1875 N 0.44048 0.47619 -0.20223
 C1876 C 0.43709 0.49896 -0.21255
 N1877 N 0.44955 0.51950 -0.20364
 N1878 N 0.46436 0.51760 -0.18490
 C1879 C 0.48014 0.49370 -0.15130
 N1880 N 0.49320 0.51400 -0.14243
 N1881 N 0.50214 0.51367 -0.12060
 C1882 C 0.49807 0.49307 -0.10678
 N1883 N 0.48538 0.47276 -0.11582
 N1884 N 0.47670 0.47300 -0.13761
 C1885 C -0.03462 0.99636 0.32488
 N1886 N -0.04746 0.97553 0.31688
 N1887 N -0.06178 0.97662 0.29766
 C1888 C -0.06387 0.99869 0.28578
 N1889 N -0.05052 1.01929 0.29349
 N1890 N -0.03610 1.01815 0.31255
 C1891 C -0.02236 0.99620 0.34808
 N1892 N -0.00878 1.01660 0.35610
 N1893 N -0.00045 1.01742 0.37814
 C1894 C -0.00573 0.99794 0.39299
 N1895 N -0.01896 0.97753 0.38479
 N1896 N -0.02702 0.97661 0.36283
 C1897 C 0.05405 0.49181 0.34612
 N1898 N 0.04269 0.48150 0.32698
 N1899 N 0.05253 0.48553 0.30584
 C1900 C 0.07384 0.50022 0.30315
 N1901 N 0.08503 0.51035 0.32231
 N1902 N 0.07544 0.50613 0.34329
 C1903 C 0.04403 0.48849 0.36986
 N1904 N 0.05923 0.49523 0.38793
 N1905 N 0.05063 0.49491 0.40952
 C1906 C 0.02636 0.48791 0.41416
 N1907 N 0.01099 0.48070 0.39615
 N1908 N 0.01972 0.48095 0.37434
 C1909 C 0.55294 -0.00835 -0.15488
 N1910 N 0.54176 -0.01879 -0.17404
 N1911 N 0.55172 -0.01482 -0.19514
 C1912 C 0.57300 -0.00005 -0.19777
 N1913 N 0.58401 0.01020 -0.17858
 N1914 N 0.57430 0.00604 -0.15764
 C1915 C 0.54276 -0.01156 -0.13118
 N1916 N 0.55778 -0.00454 -0.11307
 N1917 N 0.54903 -0.00475 -0.09154
 C1918 C 0.52478 -0.01190 -0.08698
 N1919 N 0.50959 -0.01940 -0.10502
 N1920 N 0.51847 -0.01926 -0.12679
 C1921 C 0.68207 0.58543 -0.01789
 N1922 N 0.68846 0.59883 -0.03723
 N1923 N 0.70865 0.61433 -0.03720
 C1924 C 0.72348 0.61720 -0.01790
 N1925 N 0.71733 0.60352 0.00146
 N1926 N 0.69700 0.58794 0.00144
 C1927 C 0.65876 0.56934 -0.01785
 N1928 N 0.65156 0.55649 0.00160
 N1929 N 0.63006 0.54281 0.00183
 C1930 C 0.61481 0.54136 -0.01732
 N1931 N 0.62204 0.55411 -0.03686
 N1932 N 0.64361 0.56783 -0.03709
 C1933 C 0.18016 1.08882 0.48125
 N1934 N 0.18713 1.10178 0.46183
 N1935 N 0.20776 1.11670 0.46191
 C1936 C 0.22245 1.11938 0.48132
 N1937 N 0.21572 1.10611 0.50075
 N1938 N 0.19496 1.09112 0.50069
 C1939 C 0.15638 1.07347 0.48130
 N1940 N 0.14876 1.06101 0.50081
 N1941 N 0.12688 1.04797 0.50108
 C1942 C 0.11163 1.04681 0.48192
 N1943 N 0.11927 1.05918 0.46230
 N1944 N 0.14122 1.07225 0.46203
 C1945 C 0.16395 -0.09285 1.00172
 N1946 N 0.17106 -0.10093 0.98054
 N1947 N 0.19057 -0.11588 0.97842
 C1948 C 0.20408 -0.12320 0.99736
 N1949 N 0.19731 -0.11480 1.01862
 N1950 N 0.17752 -0.09996 1.02077
 C1951 C 0.14125 -0.07749 1.00346
 N1952 N 0.12961 -0.07374 1.02409
 N1953 N 0.10813 -0.06119 1.02483
 C1954 C 0.09759 -0.05184 1.00499
 N1955 N 0.10944 -0.05541 0.98452
 N1956 N 0.13073 -0.06802 0.98376
 C1957 C 0.66573 0.40571 0.50227
 N1958 N 0.67245 0.39756 0.48099
 N1959 N 0.69206 0.38279 0.47858
 C1960 C 0.70606 0.37574 0.49729
 N1961 N 0.69966 0.38420 0.51863
 N1962 N 0.67978 0.39884 0.52110
 C1963 C 0.64304 0.42102 0.50435
 N1964 N 0.63172 0.42477 0.52513
 N1965 N 0.61028 0.43737 0.52618
 C1966 C 0.59949 0.44678 0.50648
 N1967 N 0.61102 0.44319 0.48585
 N1968 N 0.63224 0.43053 0.48480
 C1969 C -0.16634 0.40897 0.49354
 N1970 N -0.17007 0.39258 0.47588
 N1971 N -0.18956 0.37620 0.47611
 C1972 C -0.20624 0.37539 0.49395
 N1973 N -0.20267 0.39194 0.51163
 N1974 N -0.18302 0.40837 0.51145
 C1975 C -0.14387 0.42613 0.49357
 N1976 N -0.13857 0.44110 0.51204
 N1977 N -0.11738 0.45527 0.51266
 C1978 C -0.10068 0.45520 0.49484
 N1979 N -0.10614 0.44049 0.47618
 N1980 N -0.12734 0.42626 0.47558
 C1981 C 0.33191 -0.09147 -0.00684
 N1982 N 0.31518 -0.09158 0.01102
 N1983 N 0.29538 -0.10781 0.01142
 C1984 C 0.29170 -0.12466 -0.00600
 N1985 N 0.30843 -0.12436 -0.02380
 N1986 N 0.32807 -0.10817 -0.02424
 C1987 C 0.35450 -0.07446 -0.00703
 N1988 N 0.37108 -0.07474 -0.02497
 N1989 N 0.39235 -0.06058 -0.02453
 C1990 C 0.39780 -0.04554 -0.00610
 N1991 N 0.38104 -0.04507 0.01166
 N1992 N 0.35981 -0.05916 0.01120
 C1993 C 0.35452 1.09923 0.50363
 N1994 N 0.33400 1.09812 0.51775
 N1995 N 0.31336 1.11102 0.51234
 C1996 C 0.31243 1.12541 0.49259
 N1997 N 0.33295 1.12633 0.47863
 N1998 N 0.35342 1.11354 0.48398
 C1999 C 0.37775 1.08499 0.50836
 N2000 N 0.39632 1.08616 0.49233
 N2001 N 0.41701 1.07290 0.49504
 C2002 C 0.42039 1.05797 0.51405
 N2003 N 0.40201 1.05696 0.53048
 N2004 N 0.38105 1.07027 0.52769
 C2005 C -0.14449 0.59854 1.00403
 N2006 N -0.16493 0.59736 1.01824
 N2007 N -0.18568 0.61012 1.01288
 C2008 C -0.18680 0.62444 0.99309
 N2009 N -0.16635 0.62543 0.97904
 N2010 N -0.14577 0.61277 0.98435
 C2011 C -0.12116 0.58444 1.00871
 N2012 N -0.10270 0.58558 0.99257
 N2013 N -0.08192 0.57245 0.99525
 C2014 C -0.07834 0.55768 1.01432
 N2015 N -0.09661 0.55670 1.03086
 N2016 N -0.11766 0.56987 1.02810
 C2017 C -0.00827 0.66411 0.59386
 N2018 N 0.00509 0.66702 0.61393
 N2019 N 0.00372 0.68813 0.62599
 C2020 C -0.01118 0.70691 0.61843
 N2021 N -0.02508 0.70361 0.59873
 N2022 N -0.02371 0.68253 0.58665
 C2023 C -0.00498 0.64215 0.57956
 N2024 N -0.01719 0.63993 0.55881
 N2025 N -0.01408 0.61982 0.54569
 C2026 C 0.00153 0.60148 0.55284
 N2027 N 0.01394 0.60389 0.57347
 N2028 N 0.01086 0.62398 0.58656
 C2029 C 0.48394 0.16204 0.09497
 N2030 N 0.49538 0.16320 0.11613
 N2031 N 0.49407 0.18379 0.12891
 C2032 C 0.48120 0.20386 0.12098
 N2033 N 0.46903 0.20229 0.10015
 N2034 N 0.47030 0.18169 0.08737
 C2035 C 0.48801 0.14079 0.07997
 N2036 N 0.47681 0.13929 0.05868
 N2037 N 0.48096 0.11986 0.04496
 C2038 C 0.49675 0.10160 0.05200
 N2039 N 0.50818 0.10337 0.07313
 N2040 N 0.50399 0.12271 0.08684
 C2041 C -0.01065 0.17315 0.94190
 N2042 N 0.01149 0.18657 0.94092
 N2043 N 0.01441 0.20554 0.92585
 C2044 C -0.00483 0.21195 0.91151
 N2045 N -0.02738 0.19937 0.91324
 N2046 N -0.03021 0.18015 0.92812
 C2047 C -0.01128 0.14872 0.95360
 N2048 N -0.02830 0.13057 0.94685
 N2049 N -0.02593 0.10685 0.95402
 C2050 C -0.00637 0.10052 0.96807
 N2051 N 0.01025 0.11877 0.97531
 N2052 N 0.00798 0.14242 0.96800
 C2053 C 0.49287 0.67282 0.44431
 N2054 N 0.51515 0.68589 0.44261
 N2055 N 0.51785 0.70468 0.42732
 C2056 C 0.49825 0.71124 0.41345
 N2057 N 0.47560 0.69901 0.41591
 N2058 N 0.47298 0.67997 0.43103
 C2059 C 0.49225 0.64849 0.45620
 N2060 N 0.47482 0.63052 0.44992
 N2061 N 0.47709 0.60681 0.45712
 C2062 C 0.49692 0.60029 0.47074
 N2063 N 0.51396 0.61837 0.47753
 N2064 N 0.51180 0.64202 0.47018
 C2065 C 0.49245 0.83915 0.40949
 N2066 N 0.47674 0.81935 0.41488
 N2067 N 0.47919 0.79731 0.40449
 C2068 C 0.49746 0.79435 0.38847
 N2069 N 0.51287 0.81430 0.38285
 N2070 N 0.51042 0.83631 0.39320
 C2071 C 0.49176 0.86247 0.42244
 N2072 N 0.50933 0.88102 0.41837
 N2073 N 0.51040 0.90146 0.43149
 C2074 C 0.49395 0.90401 0.44915
 N2075 N 0.47611 0.88562 0.45306
 N2076 N 0.47508 0.86512 0.43994
 C2077 C -0.00678 0.33958 0.90946
 N2078 N -0.02315 0.32017 0.91438
 N2079 N -0.02143 0.29831 0.90351
 C2080 C -0.00325 0.29516 0.88743
 N2081 N 0.01283 0.31473 0.88229
 N2082 N 0.01111 0.33656 0.89313
 C2083 C -0.00689 0.36268 0.92279
 N2084 N 0.01108 0.38092 0.91897
 N2085 N 0.01243 0.40124 0.93224
 C2086 C -0.00410 0.40396 0.94981
 N2087 N -0.02228 0.38586 0.95350
 N2088 N -0.02361 0.36548 0.94023
 C2089 C 0.51198 0.30944 0.05434
 N2090 N 0.53246 0.30222 0.06673
 N2091 N 0.52981 0.28630 0.08461
 C2092 C 0.50659 0.27704 0.09057
 N2093 N 0.48638 0.28307 0.07727
 N2094 N 0.48899 0.29915 0.05955
 C2095 C 0.51347 0.33260 0.04076
 N2096 N 0.49322 0.34759 0.04026
 N2097 N 0.49548 0.37126 0.03272
 C2098 C 0.51808 0.38068 0.02539
 N2099 N 0.53821 0.36551 0.02512
 N2100 N 0.53604 0.34193 0.03306
 C2101 C 0.00441 0.81469 0.54938
 N2102 N 0.02612 0.80568 0.55834
 N2103 N 0.02550 0.78948 0.57611
 C2104 C 0.00312 0.78166 0.58532
 N2105 N -0.01862 0.78933 0.57533
 N2106 N -0.01799 0.80575 0.55774
 C2107 C 0.00540 0.83845 0.53674
 N2108 N -0.01334 0.85487 0.53985
 N2109 N -0.01024 0.87889 0.53355
 C2110 C 0.01176 0.88725 0.52402
 N2111 N 0.03021 0.87071 0.52014
 N2112 N 0.02724 0.84675 0.52677
 C2113 C 0.23565 0.28195 0.07108
 N2114 N 0.25801 0.27885 0.06036
 N2115 N 0.26319 0.29079 0.04042
 C2116 C 0.24610 0.30602 0.03021
 N2117 N 0.22333 0.30841 0.04046
 N2118 N 0.21823 0.29664 0.06057
 C2119 C 0.23224 0.27288 0.09515
 N2120 N 0.21399 0.28239 0.10863
 N2121 N 0.21334 0.27731 0.13137
 C2122 C 0.23085 0.26246 0.14150
 N2123 N 0.24873 0.25246 0.12793
 N2124 N 0.24948 0.25767 0.10521
 C2125 C 0.73637 0.78262 0.57174
 N2126 N 0.71855 0.79688 0.56129
 N2127 N 0.72330 0.80881 0.54118
 C2128 C 0.74610 0.80701 0.53086
 N2129 N 0.76361 0.79221 0.54102
 N2130 N 0.75879 0.78011 0.56095
 C2131 C 0.73320 0.77336 0.59581
 N2132 N 0.75072 0.75841 0.60579
 N2133 N 0.75005 0.75301 0.62849
 C2134 C 0.73197 0.76259 0.64212
 N2135 N 0.71421 0.77719 0.63206
 N2136 N 0.71478 0.78244 0.60934
 C2137 C 0.24367 0.71219 0.58158
 N2138 N 0.26739 0.70794 0.57421
 N2139 N 0.27120 0.69425 0.55542
 C2140 C 0.25145 0.68434 0.54304
 N2141 N 0.22761 0.68901 0.55004
 N2142 N 0.22378 0.70257 0.56908
 C2143 C 0.24038 0.72476 0.60406
 N2144 N 0.21777 0.72446 0.61511
 N2145 N 0.21620 0.73254 0.63698
 C2146 C 0.23714 0.74142 0.64843
 N2147 N 0.25951 0.74210 0.63719
 N2148 N 0.26108 0.73409 0.61545
 C2149 C 0.73860 0.20941 0.08136
 N2150 N 0.76245 0.20593 0.07393
 N2151 N 0.76666 0.19257 0.05500
 C2152 C 0.74718 0.18228 0.04252
 N2153 N 0.72320 0.18614 0.04961
 N2154 N 0.71898 0.19934 0.06878
 C2155 C 0.73490 0.22187 0.10383
 N2156 N 0.71263 0.21983 0.11541
 N2157 N 0.71096 0.22792 0.13728
 C2158 C 0.73143 0.23863 0.14817
 N2159 N 0.75342 0.24103 0.13640
 N2160 N 0.75510 0.23295 0.11468
 C2161 C 0.74456 0.21630 0.92356
 N2162 N 0.76683 0.21436 0.93511
 N2163 N 0.76849 0.19977 0.95402
 C2164 C 0.74798 0.18670 0.96236
 N2165 N 0.72547 0.18922 0.95126
 N2166 N 0.72384 0.20370 0.93218
 C2167 C 0.74368 0.22897 0.90055
 N2168 N 0.72350 0.22483 0.88633
 N2169 N 0.72375 0.23333 0.86448
 C2170 C 0.74404 0.24651 0.85587
 N2171 N 0.76411 0.25125 0.87021
 N2172 N 0.76396 0.24249 0.89212
 C2173 C 0.24767 0.71660 0.42402
 N2174 N 0.27013 0.71441 0.43517
 N2175 N 0.27198 0.69993 0.45414
 C2176 C 0.25147 0.68722 0.46292
 N2177 N 0.22878 0.68999 0.45220
 N2178 N 0.22696 0.70434 0.43306
 C2179 C 0.24647 0.72918 0.40099
 N2180 N 0.22606 0.72506 0.38705
 N2181 N 0.22600 0.73349 0.36517
 C2182 C 0.24619 0.74658 0.35628
 N2183 N 0.26650 0.75129 0.37034
 N2184 N 0.26666 0.74260 0.39227
 C2185 C 0.74178 0.80320 0.40502
 N2186 N 0.73128 0.79200 0.42418
 N2187 N 0.73488 0.80212 0.44523
 C2188 C 0.74931 0.82359 0.44783
 N2189 N 0.75960 0.83463 0.42865
 N2190 N 0.75582 0.82474 0.40775
 C2191 C 0.73904 0.79284 0.38136
 N2192 N 0.74652 0.80767 0.36326
 N2193 N 0.74658 0.79881 0.34179
 C2194 C 0.73926 0.77466 0.33728
 N2195 N 0.73133 0.75966 0.35532
 N2196 N 0.73121 0.76863 0.37703
 C2197 C 0.23990 0.30210 0.90461
 N2198 N 0.25364 0.32389 0.90699
 N2199 N 0.25819 0.33366 0.92782
 C2200 C 0.24896 0.32225 0.94728
 N2201 N 0.23482 0.30055 0.94504
 N2202 N 0.23049 0.29053 0.92405
 C2203 C 0.23638 0.29181 0.88102
 N2204 N 0.22990 0.26720 0.87688
 N2205 N 0.22973 0.25828 0.85515
 C2206 C 0.23596 0.27375 0.83690
 N2207 N 0.24182 0.29830 0.84122
 N2208 N 0.24206 0.30710 0.86272
 C2209 C 0.83668 0.43113 0.76804
 N2210 N 0.83918 0.44613 0.74875
 N2211 N 0.85449 0.46665 0.74889
 C2212 C 0.86789 0.47290 0.76836
 N2213 N 0.86504 0.45800 0.78761
 N2214 N 0.84980 0.43762 0.78749
 C2215 C 0.82090 0.40765 0.76782
 N2216 N 0.81931 0.39245 0.78702
 N2217 N 0.80587 0.37076 0.78663
 C2218 C 0.79348 0.36342 0.76694
 N2219 N 0.79500 0.37871 0.74783
 N2220 N 0.80841 0.40035 0.74822
 C2221 C 0.33711 0.93163 0.26791
 N2222 N 0.33952 0.94654 0.24855
 N2223 N 0.35466 0.96717 0.24860
 C2224 C 0.36797 0.97366 0.26807
 N2225 N 0.36519 0.95886 0.28739
 N2226 N 0.35012 0.93836 0.28735
 C2227 C 0.32154 0.90801 0.26776
 N2228 N 0.32009 0.89286 0.28702
 N2229 N 0.30682 0.87106 0.28669
 C2230 C 0.29449 0.86355 0.26702
 N2231 N 0.29589 0.87878 0.24786
 N2232 N 0.30912 0.90052 0.24819
 C2233 C 0.15827 0.91450 0.74725
 N2234 N 0.15115 0.92810 0.72822
 N2235 N 0.13584 0.94750 0.73036
 C2236 C 0.12694 0.95384 0.75156
 N2237 N 0.13424 0.94029 0.77047
 N2238 N 0.14967 0.92117 0.76839
 C2239 C 0.17420 0.89222 0.74551
 N2240 N 0.18376 0.88179 0.76522
 N2241 N 0.19679 0.86079 0.76445
 C2242 C 0.20073 0.84916 0.74395
 N2243 N 0.19132 0.85963 0.72410
 N2244 N 0.17835 0.88082 0.72486
 C2245 C 0.65730 0.41391 0.24797
 N2246 N 0.64995 0.42763 0.22910
 N2247 N 0.63534 0.44750 0.23159
 C2248 C 0.62739 0.45422 0.25302
 N2249 N 0.63492 0.44057 0.27178
 N2250 N 0.64968 0.42098 0.26933
 C2251 C 0.67247 0.39118 0.24588
 N2252 N 0.68251 0.38071 0.26535
 N2253 N 0.69499 0.35940 0.26431
 C2254 C 0.69784 0.34747 0.24379
 N2255 N 0.68790 0.35794 0.22417
 N2256 N 0.67548 0.37945 0.22519
 C2257 C 0.65945 0.58193 0.25772
 N2258 N 0.65944 0.56522 0.23990
 N2259 N 0.64316 0.54547 0.23948
 C2260 C 0.62617 0.54183 0.25683
 N2261 N 0.62638 0.55854 0.27460
 N2262 N 0.64261 0.57814 0.27506
 C2263 C 0.67651 0.60445 0.25793
 N2264 N 0.67613 0.62103 0.27582
 N2265 N 0.69031 0.64226 0.27536
 C2266 C 0.70547 0.64768 0.25696
 N2267 N 0.70604 0.63092 0.23925
 N2268 N 0.69193 0.60972 0.23973
 C2269 C 0.15854 0.08102 0.75625
 N2270 N 0.15837 0.06454 0.73824
 N2271 N 0.14208 0.04480 0.73774
 C2272 C 0.12525 0.04095 0.75520
 N2273 N 0.12564 0.05743 0.77315
 N2274 N 0.14187 0.07701 0.77369
 C2275 C 0.17555 0.10357 0.75656
 N2276 N 0.17521 0.11996 0.77460
 N2277 N 0.18930 0.14124 0.77426
 C2278 C 0.20433 0.14691 0.75582
 N2279 N 0.20487 0.13034 0.73796
 N2280 N 0.19085 0.10909 0.73832
 C2281 C 0.34737 0.10533 0.24626
 N2282 N 0.36142 0.10406 0.26605
 N2283 N 0.37433 0.08367 0.27133
 C2284 C 0.37378 0.06339 0.25715
 N2285 N 0.35964 0.06448 0.23726
 N2286 N 0.34663 0.08506 0.23191
 C2287 C 0.33302 0.12848 0.24159
 N2288 N 0.31867 0.13204 0.22207
 N2289 N 0.30531 0.15295 0.21931
 C2290 C 0.30591 0.17103 0.23597
 N2291 N 0.32047 0.16739 0.25518
 N2292 N 0.33377 0.14675 0.25787
 C2293 C 0.84691 0.60428 0.74718
 N2294 N 0.84671 0.58430 0.73251
 N2295 N 0.85986 0.56379 0.73774
 C2296 C 0.87363 0.56247 0.75785
 N2297 N 0.87363 0.58245 0.77236
 N2298 N 0.86057 0.60278 0.76719
 C2299 C 0.83245 0.62738 0.74263
 N2300 N 0.83257 0.64525 0.75927
 N2301 N 0.81928 0.66590 0.75661
 C2302 C 0.80533 0.66994 0.73709
 N2303 N 0.80534 0.65226 0.72008
 N2304 N 0.81869 0.63133 0.72281
 C2305 C 0.91273 0.73431 0.15457
 N2306 N 0.93239 0.72080 0.16239
 N2307 N 0.95333 0.71985 0.14996
 C2308 C 0.95524 0.73226 0.12928
 N2309 N 0.93518 0.74501 0.12109
 N2310 N 0.91424 0.74598 0.13352
 C2311 C 0.89121 0.73816 0.16936
 N2312 N 0.87291 0.75382 0.16229
 N2313 N 0.85346 0.75797 0.17595
 C2314 C 0.85182 0.74684 0.19724
 N2315 N 0.87027 0.73134 0.20443
 N2316 N 0.88979 0.72722 0.19076
 C2317 C 0.41123 0.23397 0.65523
 N2318 N 0.43064 0.22005 0.66295
 N2319 N 0.45146 0.21867 0.65040
 C2320 C 0.45348 0.23101 0.62969
 N2321 N 0.43363 0.24413 0.62160
 N2322 N 0.41281 0.24554 0.63415
 C2323 C 0.38989 0.23823 0.67012
 N2324 N 0.37183 0.25419 0.66311
 N2325 N 0.35245 0.25856 0.67679
 C2326 C 0.35065 0.24735 0.69803
 N2327 N 0.36890 0.23160 0.70519
 N2328 N 0.38835 0.22727 0.69150
 C2329 C 0.42293 0.73831 0.81152
 N2330 N 0.43630 0.76042 0.81286
 N2331 N 0.45472 0.76337 0.82850
 C2332 C 0.46063 0.74418 0.84307
 N2333 N 0.44807 0.72167 0.84106
 N2334 N 0.42938 0.71883 0.82561
 C2335 C 0.39899 0.73763 0.79892
 N2336 N 0.38044 0.72082 0.80521
 N2337 N 0.35699 0.72329 0.79723
 C2338 C 0.35136 0.74273 0.78279
 N2339 N 0.37005 0.75911 0.77600
 N2340 N 0.39342 0.75674 0.78411
 C2341 C 0.92431 0.24662 0.30373
 N2342 N 0.93660 0.22633 0.31212
 N2343 N 0.95489 0.22929 0.32802
 C2344 C 0.96077 0.25251 0.33658
 N2345 N 0.94898 0.27274 0.32755
 N2346 N 0.93125 0.26987 0.31129
 C2347 C 0.90068 0.24380 0.29091
 N2348 N 0.89288 0.26320 0.27745
 N2349 N 0.86906 0.26400 0.27020
 C2350 C 0.85204 0.24575 0.27667
 N2351 N 0.85989 0.22600 0.28972
 N2352 N 0.88385 0.22507 0.29678
 C2353 C 0.08669 0.24201 0.34033
 N2354 N 0.08437 0.25895 0.35756
 N2355 N 0.06238 0.26147 0.36801
 C2356 C 0.04191 0.24719 0.36156
 N2357 N 0.04433 0.22987 0.34462
 N2358 N 0.06638 0.22734 0.33413
 C2359 C 0.11002 0.24157 0.32722
 N2360 N 0.11243 0.22561 0.30917
 N2361 N 0.13294 0.22696 0.29599
 C2362 C 0.15154 0.24444 0.30034
 N2363 N 0.14922 0.26018 0.31854
 N2364 N 0.12879 0.25878 0.33174
 C2365 C 0.58784 0.74507 0.84169
 N2366 N 0.58481 0.76323 0.85771
 N2367 N 0.56322 0.76461 0.86911
 C2368 C 0.54393 0.74789 0.86486
 N2369 N 0.54709 0.72951 0.84905
 N2370 N 0.56870 0.72813 0.83761
 C2371 C 0.61078 0.74493 0.82803
 N2372 N 0.61354 0.72781 0.81098
 N2373 N 0.63391 0.72880 0.79761
 C2374 C 0.65207 0.74702 0.80084
 N2375 N 0.64936 0.76400 0.81801
 N2376 N 0.62903 0.76299 0.83136
 C2377 C 0.56107 0.25942 0.69649
 N2378 N 0.55264 0.28026 0.68543
 N2379 N 0.53593 0.27811 0.66813
 C2380 C 0.52702 0.25506 0.66146
 N2381 N 0.53423 0.23440 0.67354
 N2382 N 0.55111 0.23652 0.69066
 C2383 C 0.58490 0.26089 0.70908
 N2384 N 0.60047 0.24115 0.70810
 N2385 N 0.62441 0.24368 0.71492
 C2386 C 0.63353 0.26607 0.72292
 N2387 N 0.61783 0.28565 0.72457
 N2388 N 0.59396 0.28323 0.71738
 C2389 C 0.06227 0.76088 0.19638
 N2390 N 0.05450 0.78172 0.18489
 N2391 N 0.03809 0.77963 0.16733
 C2392 C 0.02887 0.75664 0.16082
 N2393 N 0.03545 0.73602 0.17327
 N2394 N 0.05202 0.73808 0.19066
 C2395 C 0.08583 0.76209 0.20942
 N2396 N 0.10108 0.74206 0.20891
 N2397 N 0.12492 0.74428 0.21606
 C2398 C 0.13428 0.76662 0.22397
 N2399 N 0.11888 0.78649 0.22519
 N2400 N 0.09510 0.78437 0.21766
   
