data_POSCAR
  _audit_creation_date              2014-09-24
  _audit_creation_method            'ToBaCCo'
  _symmetry_space_group_name_H-M    'P1'
  _symmetry_Int_Tables_number       1
  _symmetry_cell_setting            triclinic
  loop_
  _symmetry_equiv_pos_as_xyz
 x,y,z
_cell_length_a 56.5086
_cell_length_b 56.0547
_cell_length_c 61.2841
_cell_angle_alpha 90.543600
_cell_angle_beta 88.613300
_cell_angle_gamma 88.399700
loop_
  _atom_site_label
  _atom_site_type_symbol
  _atom_site_fract_x
  _atom_site_fract_y
  _atom_site_fract_z
C1 C 0.40647 -0.03381 0.24797
 C2 C 0.41993 -0.01525 0.23972
 C3 C 0.43437 -0.01902 0.22123
 C4 C 0.43530 -0.04119 0.21055
 C5 C 0.42112 -0.05969 0.21833
 C6 C 0.40689 -0.05648 0.23760
 C7 C 0.42042 0.00771 0.25139
 C8 C 0.43641 0.01054 0.26813
 C9 C 0.43784 0.03244 0.27943
 C10 C 0.42242 0.05149 0.27363
 C11 C 0.40707 0.04906 0.25603
 C12 C 0.40600 0.02696 0.24516
 H13 H 0.39523 -0.03005 0.26221
 H14 H 0.44522 -0.00468 0.21530
 H15 H 0.44724 -0.00479 0.27266
 H16 H 0.39409 0.02475 0.23174
 H17 H 0.42268 -0.07690 0.21019
 H18 H 0.42365 0.06877 0.28152
 C19 C 0.10190 -0.03127 0.75275
 C20 C 0.09012 -0.00988 0.75869
 C21 C 0.07684 -0.00838 0.77815
 C22 C 0.07487 -0.02828 0.79169
 C23 C 0.08716 -0.04971 0.78589
 C24 C 0.10050 -0.05141 0.76616
 C25 C 0.08950 0.01021 0.74349
 C26 C 0.07757 0.00795 0.72401
 C27 C 0.07468 0.02734 0.70973
 C28 C 0.08584 0.04903 0.71500
 C29 C 0.09754 0.05149 0.73508
 C30 C 0.09917 0.03189 0.74909
 H31 H 0.11203 -0.03219 0.73751
 H32 H 0.06739 0.00818 0.78241
 H33 H 0.07061 -0.00935 0.72011
 H34 H 0.10808 0.03346 0.76449
 H35 H 0.08537 -0.06527 0.79609
 H36 H 0.08398 0.06440 0.70455
 C37 C 0.59873 0.47039 0.26271
 C38 C 0.58817 0.49215 0.26921
 C39 C 0.57818 0.49468 0.29020
 C40 C 0.57823 0.47546 0.30478
 C41 C 0.58957 0.45360 0.29828
 C42 C 0.59958 0.45092 0.27696
 C43 C 0.58698 0.51210 0.25376
 C44 C 0.57500 0.50975 0.23421
 C45 C 0.57300 0.52892 0.21966
 C46 C 0.58435 0.55044 0.22456
 C47 C 0.59640 0.55291 0.24437
 C48 C 0.59747 0.53361 0.25878
 H49 H 0.60655 0.46872 0.24642
 H50 H 0.56974 0.51160 0.29501
 H51 H 0.56682 0.49296 0.23052
 H52 H 0.60684 0.53518 0.27394
 H53 H 0.58957 0.43857 0.30925
 H54 H 0.58294 0.56542 0.21359
 C55 C 0.90257 0.45924 0.73998
 C56 C 0.91231 0.48066 0.73301
 C57 C 0.92672 0.48076 0.71418
 C58 C 0.93186 0.45958 0.70240
 C59 C 0.92140 0.43823 0.70908
 C60 C 0.90699 0.43790 0.72818
 C61 C 0.91173 0.50161 0.74771
 C62 C 0.92382 0.49986 0.76717
 C63 C 0.92641 0.51976 0.78098
 C64 C 0.91470 0.54146 0.77553
 C65 C 0.90265 0.54357 0.75568
 C66 C 0.90150 0.52351 0.74176
 H67 H 0.89207 0.45912 0.75501
 H68 H 0.93507 0.49716 0.70939
 H69 H 0.93132 0.48256 0.77139
 H70 H 0.89260 0.52487 0.72634
 H71 H 0.92560 0.42175 0.70026
 H72 H 0.91650 0.55722 0.78565
 C73 C 0.26441 0.34615 1.02715
 C74 C 0.26158 0.36215 1.00988
 C75 C 0.27790 0.38033 1.00681
 C76 C 0.29739 0.38237 1.02058
 C77 C 0.30038 0.36563 1.03727
 C78 C 0.28399 0.34748 1.04091
 C79 C 0.24299 0.35830 0.99371
 C80 C 0.22330 0.37421 0.99226
 C81 C 0.20659 0.37106 0.97585
 C82 C 0.20996 0.35186 0.96103
 C83 C 0.22964 0.33621 0.96206
 C84 C 0.24587 0.33920 0.97872
 H85 H 0.25196 0.33191 1.02905
 H86 H 0.27575 0.39242 0.99327
 H87 H 0.22136 0.38922 1.00350
 H88 H 0.26133 0.32736 0.97942
 H89 H 0.31475 0.36776 1.04843
 H90 H 0.19731 0.34913 0.94829
 C91 C 0.73852 0.16383 1.01776
 C92 C 0.73751 0.14647 1.00104
 C93 C 0.71928 0.12989 1.00153
 C94 C 0.70255 0.13009 1.01883
 C95 C 0.70389 0.14742 1.03540
 C96 C 0.72202 0.16420 1.03552
 C97 C 0.75864 0.14144 0.98678
 C98 C 0.77632 0.12602 0.99476
 C99 C 0.79576 0.11843 0.98154
 C100 C 0.79785 0.12760 0.96041
 C101 C 0.78028 0.14290 0.95178
 C102 C 0.76056 0.14989 0.96522
 H103 H 0.75358 0.17535 1.01789
 H104 H 0.71929 0.11565 0.98943
 H105 H 0.77448 0.11949 1.01129
 H106 H 0.74650 0.16110 0.95881
 H107 H 0.69046 0.14768 1.04831
 H108 H 0.81290 0.12199 0.95020
 C109 C 0.24154 0.65937 0.52631
 C110 C 0.24492 0.64540 0.50728
 C111 C 0.22816 0.62834 0.50210
 C112 C 0.20861 0.62429 0.51622
 C113 C 0.20570 0.63832 0.53531
 C114 C 0.22189 0.65599 0.54030
 C115 C 0.26791 0.64527 0.49511
 C116 C 0.28760 0.63454 0.50492
 C117 C 0.30905 0.63047 0.49320
 C118 C 0.31109 0.63965 0.47200
 C119 C 0.29168 0.65085 0.46169
 C120 C 0.26986 0.65313 0.47342
 H121 H 0.25467 0.67221 0.53065
 H122 H 0.23103 0.61753 0.48748
 H123 H 0.28568 0.62850 0.52158
 H124 H 0.25431 0.66055 0.46572
 H125 H 0.19111 0.63524 0.54664
 H126 H 0.32780 0.63746 0.46326
 C127 C 0.76762 0.84770 0.52777
 C128 C 0.76397 0.86446 0.51134
 C129 C 0.77998 0.88293 0.50854
 C130 C 0.80002 0.88493 0.52184
 C131 C 0.80336 0.86757 0.53815
 C132 C 0.78719 0.84923 0.54131
 C133 C 0.74443 0.86183 0.49590
 C134 C 0.72743 0.88044 0.49334
 C135 C 0.71059 0.87901 0.47689
 C136 C 0.71092 0.85885 0.46317
 C137 C 0.72798 0.84046 0.46522
 C138 C 0.74435 0.84170 0.48200
 H139 H 0.75533 0.83335 0.52991
 H140 H 0.77727 0.89475 0.49493
 H141 H 0.72785 0.89628 0.50358
 H142 H 0.75802 0.82787 0.48328
 H143 H 0.81774 0.86883 0.54940
 H144 H 0.69817 0.85775 0.45028
 C145 C -0.04259 0.23427 0.33602
 C146 C -0.02630 0.24582 0.34872
 C147 C -0.02477 0.24073 0.37087
 C148 C -0.03826 0.22270 0.38053
 C149 C -0.05654 0.21308 0.36796
 C150 C -0.05872 0.21867 0.34569
 C151 C -0.01015 0.26296 0.33893
 C152 C -0.01016 0.28630 0.34709
 C153 C 0.00712 0.30200 0.34003
 C154 C 0.02443 0.29436 0.32464
 C155 C 0.02524 0.27061 0.31701
 C156 C 0.00739 0.25517 0.32377
 H157 H -0.04379 0.23903 0.31897
 H158 H -0.01244 0.25079 0.38022
 H159 H -0.02321 0.29202 0.35946
 H160 H 0.00818 0.23658 0.31871
 H161 H -0.06783 0.19951 0.37442
 H162 H 0.03809 0.30653 0.31968
 C163 C -0.02661 0.74549 0.16695
 C164 C -0.00577 0.73943 0.15499
 C165 C 0.00074 0.75261 0.13669
 C166 C -0.01314 0.77204 0.13041
 C167 C -0.03393 0.77815 0.14216
 C168 C -0.04131 0.76495 0.16053
 C169 C 0.00993 0.71944 0.16106
 C170 C 0.01241 0.69992 0.14678
 C171 C 0.03223 0.68411 0.14752
 C172 C 0.04857 0.68749 0.16419
 C173 C 0.04645 0.70730 0.17841
 C174 C 0.02679 0.72300 0.17693
 H175 H -0.03086 0.73521 0.18130
 H176 H 0.01690 0.74793 0.12753
 H177 H 0.00026 0.69922 0.13342
 H178 H 0.02576 0.73934 0.18655
 H179 H -0.04492 0.79241 0.13574
 H180 H 0.06341 0.67510 0.16589
 C181 C 0.46227 0.25016 0.65764
 C182 C 0.48688 0.25173 0.65644
 C183 C 0.49715 0.27097 0.64588
 C184 C 0.48308 0.28941 0.63726
 C185 C 0.45834 0.28822 0.63936
 C186 C 0.44777 0.26853 0.64927
 C187 C 0.50241 0.23274 0.66490
 C188 C 0.50399 0.21082 0.65386
 C189 C 0.52282 0.19471 0.65772
 C190 C 0.53871 0.19982 0.67421
 C191 C 0.53795 0.22218 0.68472
 C192 C 0.51937 0.23840 0.68030
 H193 H 0.45456 0.23466 0.66512
 H194 H 0.51624 0.27106 0.64395
 H195 H 0.49230 0.20773 0.64042
 H196 H 0.51922 0.25624 0.68727
 H197 H 0.44728 0.30290 0.63378
 H198 H 0.55320 0.18729 0.67720
 C199 C 0.45984 0.73258 0.83698
 C200 C 0.47697 0.74220 0.85009
 C201 C 0.47886 0.73501 0.87172
 C202 C 0.46506 0.71654 0.88035
 C203 C 0.44698 0.70775 0.86699
 C204 C 0.44420 0.71593 0.84555
 C205 C 0.49368 0.75945 0.84133
 C206 C 0.49389 0.78243 0.85035
 C207 C 0.51170 0.79803 0.84431
 C208 C 0.52935 0.79059 0.82915
 C209 C 0.53006 0.76713 0.82082
 C210 C 0.51168 0.75183 0.82653
 H211 H 0.45812 0.73883 0.82040
 H212 H 0.49145 0.74422 0.88146
 H213 H 0.48055 0.78790 0.86255
 H214 H 0.51230 0.73343 0.82090
 H215 H 0.43551 0.69381 0.87238
 H216 H 0.54331 0.80269 0.82488
 C217 C -0.27975 0.65441 1.00244
 C218 C -0.25945 0.66618 1.00865
 C219 C -0.25940 0.67843 1.02850
 C220 C -0.27962 0.67938 1.04216
 C221 C -0.29980 0.66683 1.03628
 C222 C -0.30039 0.65463 1.01595
 C223 C -0.23951 0.66863 0.99299
 C224 C -0.24349 0.68040 0.97346
 C225 C -0.22493 0.68459 0.95835
 C226 C -0.20205 0.67506 0.96287
 C227 C -0.19777 0.66361 0.98293
 C228 C -0.21667 0.66069 0.99791
 H229 H -0.27898 0.64477 0.98704
 H230 H -0.24389 0.68824 1.03286
 H231 H -0.26152 0.68603 0.97008
 H232 H -0.21368 0.65189 1.01332
 H233 H -0.31549 0.66841 1.04673
 H234 H -0.18728 0.67791 0.95171
 C235 C -0.27092 0.35267 0.49707
 C236 C -0.25025 0.33962 0.49125
 C237 C -0.25029 0.32311 0.47403
 C238 C -0.27119 0.31889 0.46298
 C239 C -0.29224 0.33099 0.46970
 C240 C -0.29228 0.34813 0.48669
 C241 C -0.22954 0.34049 0.50513
 C242 C -0.22956 0.32753 0.52440
 C243 C -0.20933 0.32585 0.53709
 C244 C -0.18892 0.33821 0.53062
 C245 C -0.18873 0.35121 0.51090
 C246 C -0.20926 0.35220 0.49837
 H247 H -0.27068 0.36491 0.51087
 H248 H -0.23408 0.31331 0.46948
 H249 H -0.24529 0.31803 0.52919
 H250 H -0.20949 0.36200 0.48321
 H251 H -0.30846 0.32742 0.46130
 H252 H -0.17309 0.33679 0.54019
 C253 C 0.22840 -0.15412 0.00496
 C254 C 0.24958 -0.16598 -0.00105
 C255 C 0.25072 -0.18040 -0.01975
 C256 C 0.23084 -0.18321 -0.03292
 C257 C 0.20972 -0.17015 -0.02714
 C258 C 0.20827 -0.15609 -0.00788
 C259 C 0.27075 -0.16388 0.01231
 C260 C 0.27119 -0.17367 0.03323
 C261 C 0.29244 -0.17518 0.04484
 C262 C 0.31295 -0.16505 0.03533
 C263 C 0.31230 -0.15413 0.01469
 C264 C 0.29115 -0.15407 0.00322
 H265 H 0.22774 -0.14306 0.01958
 H266 H 0.26759 -0.18897 -0.02417
 H267 H 0.25536 -0.18200 0.03944
 H268 H 0.29036 -0.14613 -0.01281
 H269 H 0.19394 -0.17218 -0.03659
 H270 H 0.32939 -0.16521 0.04404
 C271 C 0.22187 1.15635 0.50010
 C272 C 0.24154 1.16888 0.50680
 C273 C 0.24036 1.18168 0.52649
 C274 C 0.21946 1.18238 0.53939
 C275 C 0.19990 1.16938 0.53275
 C276 C 0.20087 1.15662 0.51284
 C277 C 0.26175 1.17177 0.49153
 C278 C 0.25796 1.18374 0.47208
 C279 C 0.27651 1.18746 0.45684
 C280 C 0.29929 1.17760 0.46131
 C281 C 0.30351 1.16625 0.48148
 C282 C 0.28448 1.16347 0.49642
 H283 H 0.22278 1.14690 0.48458
 H284 H 0.25534 1.19206 0.53123
 H285 H 0.24001 1.18969 0.46871
 H286 H 0.28725 1.15449 0.51177
 H287 H 0.18353 1.17045 0.54233
 H288 H 0.31401 1.18020 0.45002
 C289 C 0.09495 0.51389 0.21093
 C290 C 0.10796 0.51059 0.22994
 C291 C 0.12476 0.52735 0.23570
 C292 C 0.12919 0.54722 0.22242
 C293 C 0.11573 0.55041 0.20362
 C294 C 0.09844 0.53408 0.19792
 C295 C 0.10333 0.49032 0.24456
 C296 C 0.11359 0.46762 0.24014
 C297 C 0.11041 0.44877 0.25490
 C298 C 0.09676 0.45291 0.27411
 C299 C 0.08571 0.47532 0.27821
 C300 C 0.08919 0.49397 0.26346
 H301 H 0.08159 0.50125 0.20673
 H302 H 0.13421 0.52487 0.25071
 H303 H 0.12429 0.46471 0.22539
 H304 H 0.08099 0.51138 0.26677
 H305 H 0.11897 0.56537 0.19301
 H306 H 0.09383 0.43843 0.28537
 C307 C -0.09209 0.98269 0.22981
 C308 C -0.10987 0.98728 0.24566
 C309 C -0.12925 0.97229 0.24720
 C310 C -0.13167 0.95278 0.23276
 C311 C -0.11411 0.94927 0.21612
 C312 C -0.09428 0.96409 0.21437
 C313 C -0.10925 1.00836 0.26033
 C314 C -0.12781 1.02556 0.25974
 C315 C -0.13082 1.04283 0.27641
 C316 C -0.11424 1.04327 0.29316
 C317 C -0.09463 1.02737 0.29309
 C318 C -0.09217 1.00983 0.27657
 H319 H -0.07760 0.99490 0.22857
 H320 H -0.14180 0.97562 0.26056
 H321 H -0.14099 1.02418 0.24726
 H322 H -0.07781 0.99664 0.27704
 H323 H -0.11580 0.93499 0.20435
 H324 H -0.11600 1.05676 0.30595
 C325 C 0.41627 0.47771 -0.25551
 C326 C 0.39625 0.47718 -0.24149
 C327 C 0.37928 0.45968 -0.24457
 C328 C 0.38173 0.44329 -0.26195
 C329 C 0.40134 0.44468 -0.27638
 C330 C 0.41873 0.46198 -0.27362
 C331 C 0.39117 0.49714 -0.22591
 C332 C 0.37028 0.51095 -0.22807
 C333 C 0.36499 0.53099 -0.21446
 C334 C 0.38120 0.53626 -0.19801
 C335 C 0.40226 0.52267 -0.19574
 C336 C 0.40737 0.50335 -0.21000
 H337 H 0.42851 0.49205 -0.25348
 H338 H 0.36361 0.45956 -0.23402
 H339 H 0.35915 0.50668 -0.24158
 H340 H 0.42361 0.49284 -0.20839
 H341 H 0.40319 0.43173 -0.28958
 H342 H 0.37751 0.55070 -0.18649
 C343 C 0.59337 0.00883 -0.28665
 C344 C 0.60565 0.01104 -0.26716
 C345 C 0.61732 0.03221 -0.26277
 C346 C 0.61763 0.05082 -0.27801
 C347 C 0.60595 0.04805 -0.29786
 C348 C 0.59282 0.02743 -0.30211
 C349 C 0.60504 -0.00827 -0.25077
 C350 C 0.61564 -0.03079 -0.25540
 C351 C 0.61471 -0.04929 -0.23997
 C352 C 0.60280 -0.04497 -0.21982
 C353 C 0.59131 -0.02281 -0.21540
 C354 C 0.59282 -0.00448 -0.23080
 H355 H 0.58434 -0.00763 -0.28968
 H356 H 0.62616 0.03422 -0.24738
 H357 H 0.62466 -0.03388 -0.27102
 H358 H 0.58391 0.01260 -0.22748
 H359 H 0.60532 0.06299 -0.30892
 H360 H 0.60118 -0.05929 -0.20816
 C361 C -0.01890 0.21046 0.91088
 C362 C -0.01496 0.22786 0.89514
 C363 C -0.02498 0.22594 0.87460
 C364 C -0.03948 0.20681 0.86984
 C365 C -0.04312 0.18914 0.88560
 C366 C -0.03273 0.19077 0.90612
 C367 C 0.00101 0.24725 0.89964
 C368 C 0.02487 0.24435 0.89373
 C369 C 0.04039 0.26281 0.89730
 C370 C 0.03213 0.28417 0.90708
 C371 C 0.00806 0.28735 0.91314
 C372 C -0.00750 0.26869 0.90918
 H373 H -0.01050 0.21191 0.92654
 H374 H -0.02187 0.23963 0.86258
 H375 H 0.03127 0.22790 0.88587
 H376 H -0.02623 0.27083 0.91311
 H377 H -0.05417 0.17419 0.88196
 H378 H 0.04461 0.29804 0.91016
 C379 C 0.49748 0.21397 0.09614
 C380 C 0.50008 0.23868 0.09827
 C381 C 0.51971 0.24753 0.10882
 C382 C 0.53698 0.23199 0.11713
 C383 C 0.53469 0.20733 0.11432
 C384 C 0.51490 0.19811 0.10409
 C385 C 0.48134 0.25569 0.09182
 C386 C 0.45998 0.25656 0.10383
 C387 C 0.44426 0.27617 0.10203
 C388 C 0.44920 0.29397 0.08687
 C389 C 0.47076 0.29364 0.07507
 C390 C 0.48672 0.27424 0.07748
 H391 H 0.48185 0.20720 0.08858
 H392 H 0.52085 0.26661 0.11144
 H393 H 0.45688 0.24329 0.11627
 H394 H 0.50403 0.27432 0.06948
 H395 H 0.54853 0.19528 0.11988
 H396 H 0.43679 0.30892 0.08533
 C397 C 0.00827 0.72130 0.58737
 C398 C 0.00205 0.74201 0.59948
 C399 C 0.01325 0.74682 0.61911
 C400 C 0.03079 0.73121 0.62655
 C401 C 0.03688 0.71051 0.61466
 C402 C 0.02568 0.70522 0.59507
 C403 C -0.01658 0.75875 0.59247
 C404 C -0.03771 0.76047 0.60481
 C405 C -0.05343 0.78020 0.60271
 C406 C -0.04816 0.79725 0.58676
 C407 C -0.02688 0.79587 0.57445
 C408 C -0.01123 0.77632 0.57723
 H409 H -0.00060 0.71767 0.57227
 H410 H 0.00849 0.76285 0.62845
 H411 H -0.04029 0.74765 0.61770
 H412 H 0.00592 0.77568 0.56891
 H413 H 0.04992 0.69816 0.62121
 H414 H -0.06051 0.81196 0.58400
 C415 C 0.48182 0.73809 0.43141
 C416 C 0.47772 0.75438 0.41465
 C417 C 0.45875 0.75124 0.40080
 C418 C 0.44431 0.73144 0.40306
 C419 C 0.44803 0.71566 0.42032
 C420 C 0.46707 0.71855 0.43433
 C421 C 0.49647 0.77041 0.40762
 C422 C 0.51709 0.76018 0.39804
 C423 C 0.53339 0.77425 0.38683
 C424 C 0.52945 0.79912 0.38672
 C425 C 0.50941 0.80976 0.39723
 C426 C 0.49263 0.79519 0.40732
 H427 H 0.49759 0.73967 0.44097
 H428 H 0.45692 0.76277 0.38680
 H429 H 0.51973 0.74099 0.39857
 H430 H 0.47651 0.80301 0.41456
 H431 H 0.43676 0.70045 0.42213
 H432 H 0.54185 0.81035 0.37829
 Zr433 Zr 0.01519 -0.04656 1.03390
 O434 O 0.03851 -0.03461 1.05799
 O435 O 0.01272 -0.08277 1.04131
 O436 O 0.00042 -0.04867 1.06572
 O437 O 0.05913 -0.05272 0.99347
 O438 O -0.03700 -0.03299 1.06246
 O439 O 0.04977 -0.06074 1.02899
 O440 O -0.01150 -0.09725 1.01530
 O441 O -0.02024 -0.05404 1.02823
 O442 O 0.01435 -0.06151 1.00258
 O443 O -0.00316 -0.01360 1.03734
 O444 O 0.03078 -0.02128 1.01313
 Zr445 Zr -0.02571 -0.00995 0.97764
 Zr446 Zr -0.03822 -0.02099 1.03002
 Zr447 Zr 0.02799 -0.03596 0.98172
 Zr448 Zr -0.02094 -0.06744 0.99636
 O449 O 0.05674 -0.01388 0.97419
 O450 O -0.05289 -0.08166 1.00873
 O451 O -0.00719 -0.04304 0.97394
 O452 O -0.04071 -0.03535 0.99850
 O453 O -0.02503 0.00494 1.00903
 O454 O 0.00980 -0.00300 0.98344
 C455 C 0.00148 -0.09963 1.03215
 C456 C 0.06397 -0.06163 1.01222
 C457 C -0.02024 -0.04256 1.07357
 O458 O -0.06852 -0.04145 1.03626
 O459 O -0.06832 -0.00241 1.01898
 O460 O -0.05951 0.00656 0.98348
 C461 C -0.07326 0.00725 1.00062
 O462 O 0.03669 0.01463 1.03899
 Zr463 Zr 0.01047 0.01076 1.01503
 O464 O -0.02406 0.02649 0.97054
 O465 O -0.04601 0.00814 1.05146
 O466 O -0.00292 0.03546 1.03902
 O467 O 0.03963 0.02837 1.00068
 O468 O -0.00374 0.04094 0.99928
 C469 C -0.01608 0.04363 0.98207
 O470 O -0.05021 -0.02162 0.95449
 O471 O 0.03775 -0.06577 0.96165
 O472 O -0.01135 -0.00996 0.94545
 O473 O 0.02508 -0.02804 0.94849
 O474 O -0.00581 -0.09403 0.97501
 O475 O -0.04278 -0.07237 0.96902
 C476 C 0.00853 -0.01826 0.93730
 H477 H 0.02360 -0.07670 1.00094
 H478 H -0.05736 -0.03820 0.99479
 H479 H 0.01651 0.00831 0.97279
 H480 H -0.00187 -0.00698 1.05228
 H481 H -0.05255 -0.09891 1.00501
 H482 H -0.07811 -0.03279 1.04771
 H483 H -0.06135 0.00489 1.05886
 H484 H 0.00497 0.05080 1.03648
 H485 H -0.01466 -0.10884 0.97739
 H486 H 0.05314 -0.06223 0.95444
 H487 H 0.06657 -0.02250 0.96290
 H488 H 0.03818 0.04537 1.00523
 H489 H -0.04917 -0.08864 0.96933
 H490 H -0.05486 -0.00756 0.94569
 H491 H 0.04326 -0.04864 1.06680
 H492 H 0.04056 0.03168 1.04048
 Zr493 Zr 0.53808 0.47883 0.55245
 O494 O 0.56399 0.48985 0.57448
 O495 O 0.53339 0.44360 0.56118
 O496 O 0.52436 0.47813 0.58485
 O497 O 0.57860 0.46677 0.51039
 O498 O 0.48816 0.49687 0.58231
 O499 O 0.56999 0.45945 0.54632
 O500 O 0.50510 0.43053 0.53837
 O501 O 0.50170 0.47462 0.54878
 O502 O 0.53377 0.46298 0.52181
 O503 O 0.52297 0.51329 0.55563
 O504 O 0.55496 0.50141 0.52997
 Zr505 Zr 0.49745 0.51714 0.49678
 Zr506 Zr 0.48691 0.50915 0.55001
 Zr507 Zr 0.54867 0.48615 0.49931
 Zr508 Zr 0.49775 0.46001 0.51777
 O509 O 0.57903 0.50483 0.48938
 O510 O 0.46501 0.45010 0.53215
 O511 O 0.51240 0.48223 0.49373
 O512 O 0.48139 0.49395 0.51926
 O513 O 0.50138 0.53286 0.52755
 O514 O 0.53386 0.52076 0.50064
 C515 C 0.51969 0.42758 0.55409
 C516 C 0.58260 0.45645 0.52869
 C517 C 0.50414 0.48544 0.59295
 O518 O 0.45477 0.49265 0.55854
 O519 O 0.45764 0.52945 0.53961
 O520 O 0.46446 0.53521 0.50319
 C521 C 0.45170 0.53752 0.52089
 O522 O 0.56555 0.53685 0.55449
 Zr523 Zr 0.53781 0.53516 0.53176
 O524 O 0.50132 0.55357 0.48969
 O525 O 0.48361 0.53949 0.57074
 O526 O 0.52828 0.56181 0.55543
 O527 O 0.56801 0.54884 0.51549
 O528 O 0.52623 0.56612 0.51585
 C529 C 0.51215 0.56997 0.50005
 O530 O 0.47121 0.50795 0.47431
 O531 O 0.55428 0.45477 0.48015
 O532 O 0.51023 0.51420 0.46394
 O533 O 0.54484 0.49251 0.46584
 O534 O 0.50912 0.43100 0.49727
 O535 O 0.47402 0.45574 0.49173
 C536 C 0.52856 0.50328 0.45506
 H537 H 0.54112 0.44682 0.52019
 H538 H 0.46433 0.49241 0.51642
 H539 H 0.54095 0.53098 0.48928
 H540 H 0.52562 0.52005 0.57033
 H541 H 0.46348 0.43274 0.52956
 H542 H 0.44687 0.50259 0.57020
 H543 H 0.46844 0.53810 0.57901
 H544 H 0.53806 0.57587 0.55242
 H545 H 0.49929 0.41723 0.50116
 H546 H 0.56972 0.45621 0.47229
 H547 H 0.58750 0.49464 0.47827
 H548 H 0.56889 0.56590 0.51969
 H549 H 0.46622 0.44021 0.49316
 H550 H 0.46781 0.52228 0.46539
 H551 H 0.56791 0.47593 0.58373
 H552 H 0.57159 0.55325 0.55501
 Zr553 Zr 0.49519 1.05164 0.51759
 O554 O 0.46712 1.04032 0.53817
 O555 O 0.50417 1.08351 0.53286
 O556 O 0.50693 1.04427 0.54943
 O557 O 0.45811 1.07408 0.47777
 O558 O 0.54138 1.02248 0.54372
 O559 O 0.46403 1.07339 0.51444
 O560 O 0.53704 1.09456 0.51362
 O561 O 0.53218 1.05164 0.51426
 O562 O 0.50302 1.07239 0.49033
 O563 O 0.50649 1.01559 0.51472
 O564 O 0.47786 1.03534 0.49152
 Zr565 Zr 0.53523 1.01971 0.45637
 Zr566 Zr 0.54338 1.01609 0.50977
 Zr567 Zr 0.48758 1.05531 0.46401
 Zr568 Zr 0.53967 1.07129 0.48641
 O569 O 0.45589 1.04322 0.45048
 O570 O 0.57378 1.07499 0.49954
 O571 O 0.52439 1.05598 0.45887
 O572 O 0.55242 1.03609 0.48229
 O573 O 0.52785 0.99868 0.48358
 O574 O 0.49838 1.01970 0.45980
 C575 C 0.52233 1.09651 0.52995
 C576 C 0.45210 1.07970 0.49755
 C577 C 0.52572 1.03327 0.55614
 O578 O 0.57662 1.02732 0.52055
 O579 O 0.57084 0.99408 0.49577
 O580 O 0.56524 0.99698 0.45918
 C581 C 0.57665 0.98916 0.47571
 O582 O 0.46258 0.99640 0.51050
 Zr583 Zr 0.49106 1.00004 0.48759
 O584 O 0.52713 0.98707 0.44171
 O585 O 0.54211 0.98267 0.52543
 O586 O 0.49845 0.96832 0.50506
 O587 O 0.45933 0.99348 0.47104
 O588 O 0.49839 0.97268 0.46436
 C589 C 0.51252 0.97101 0.44759
 O590 O 0.56387 1.03056 0.43619
 O591 O 0.48760 1.09020 0.45112
 O592 O 0.52468 1.02820 0.42471
 O593 O 0.49246 1.05317 0.42980
 O594 O 0.53170 1.10556 0.47368
 O595 O 0.56376 1.07774 0.46010
 C596 C 0.50766 1.04145 0.41755
 H597 H 0.49709 1.08910 0.49210
 H598 H 0.56976 1.03603 0.47956
 H599 H 0.49054 1.01272 0.44706
 H600 H 0.50215 1.00659 0.52799
 H601 H 0.57736 1.09219 0.49940
 H602 H 0.58295 1.01457 0.53006
 H603 H 0.55711 0.98070 0.53334
 H604 H 0.48800 0.95588 0.49944
 H605 H 0.54311 1.11669 0.47994
 H606 H 0.47291 1.09216 0.44272
 H607 H 0.44971 1.05621 0.44115
 H608 H 0.45625 0.97622 0.47232
 H609 H 0.57205 1.09277 0.46286
 H610 H 0.56668 1.01806 0.42477
 H611 H 0.46431 1.05289 0.54953
 H612 H 0.45663 0.97998 0.50963
 Zr613 Zr -0.01048 0.54344 1.02069
 O614 O -0.03568 0.53959 1.04645
 O615 O 0.00187 0.57730 1.02725
 O616 O 0.00604 0.54345 1.05116
 O617 O -0.05062 0.56071 0.98156
 O618 O 0.03518 0.51447 1.04791
 O619 O -0.04044 0.56660 1.01692
 O620 O 0.03538 0.57862 1.00599
 O621 O 0.02588 0.53848 1.01405
 O622 O -0.00438 0.55697 0.98952
 O623 O -0.00284 0.50672 1.02402
 O624 O -0.03275 0.52423 1.00038
 Zr625 Zr 0.01819 0.49480 0.96370
 Zr626 Zr 0.03323 0.50178 1.01545
 Zr627 Zr -0.02470 0.53649 0.96886
 Zr628 Zr 0.03149 0.55100 0.98260
 O629 O -0.05877 0.52517 0.96051
 O630 O 0.06775 0.55334 0.99034
 O631 O 0.01131 0.53182 0.96035
 O632 O 0.04018 0.51452 0.98397
 O633 O 0.01257 0.48122 0.99501
 O634 O -0.01795 0.49976 0.97057
 C635 C 0.02171 0.58638 1.02181
 C636 C -0.05380 0.57063 1.00045
 C637 C 0.02355 0.53106 1.05866
 O638 O 0.06823 0.51202 1.02159
 O639 O 0.05825 0.47586 1.00282
 O640 O 0.04734 0.47126 0.96750
 C641 C 0.06119 0.46684 0.98343
 O642 O -0.04920 0.49321 1.02780
 Zr643 Zr -0.02338 0.48783 1.00230
 O644 O 0.00612 0.46002 0.95807
 O645 O 0.03109 0.47178 1.03597
 O646 O -0.01773 0.46029 1.02525
 O647 O -0.05743 0.48144 0.99001
 O648 O -0.02142 0.45526 0.98530
 C649 C -0.00906 0.44757 0.96872
 O650 O 0.04431 0.49736 0.93848
 O651 O -0.02340 0.56784 0.94992
 O652 O 0.00420 0.49773 0.93226
 O653 O -0.02376 0.52771 0.93545
 O654 O 0.02488 0.58298 0.96527
 O655 O 0.05202 0.54932 0.95308
 C656 C -0.01145 0.51209 0.92424
 H657 H -0.00872 0.57416 0.98860
 H658 H 0.05704 0.51225 0.97952
 H659 H -0.02785 0.49103 0.96025
 H660 H -0.00625 0.50146 1.03913
 H661 H 0.07267 0.56972 0.98680
 H662 H 0.07460 0.50084 1.03259
 H663 H 0.04658 0.47017 1.04311
 H664 H -0.03037 0.44857 1.02340
 H665 H 0.03799 0.59374 0.96849
 H666 H -0.03898 0.56976 0.94296
 H667 H -0.06501 0.53676 0.94981
 H668 H -0.06215 0.46551 0.99515
 H669 H 0.06151 0.56384 0.95175
 H670 H 0.04427 0.48238 0.92970
 H671 H -0.03607 0.55470 1.05504
 H672 H -0.05764 0.47821 1.03033
 Zr673 Zr -0.01313 0.47749 0.46264
 O674 O -0.04085 0.49593 0.44672
 O675 O -0.00856 0.44698 0.44330
 O676 O -0.00231 0.48559 0.43037
 O677 O -0.04952 0.45600 0.50384
 O678 O 0.03467 0.50020 0.43436
 O679 O -0.04541 0.45941 0.46690
 O680 O 0.02247 0.42686 0.45863
 O681 O 0.02350 0.47069 0.46201
 O682 O -0.00615 0.45262 0.48701
 O683 O 0.00238 0.51076 0.46723
 O684 O -0.02705 0.49349 0.49159
 Zr685 Zr 0.03364 0.49531 0.52200
 Zr686 Zr 0.03891 0.50328 0.46829
 Zr687 Zr -0.01801 0.46916 0.51605
 Zr688 Zr 0.03026 0.44690 0.48704
 O689 O -0.04737 0.48504 0.53332
 O690 O 0.06243 0.43969 0.46935
 O691 O 0.01851 0.46164 0.51728
 O692 O 0.04713 0.47905 0.49300
 O693 O 0.02709 0.52001 0.49729
 O694 O -0.00294 0.50202 0.52238
 C695 C 0.00724 0.43013 0.44349
 C696 C -0.05662 0.45261 0.48431
 C697 C 0.01757 0.49304 0.42265
 O698 O 0.07013 0.48831 0.45331
 O699 O 0.06922 0.51871 0.48104
 O700 O 0.06599 0.51309 0.51786
 C701 C 0.07679 0.52059 0.50058
 O702 O -0.03908 0.53606 0.47826
 Zr703 Zr -0.00956 0.52557 0.49713
 O704 O 0.03192 0.52830 0.53840
 O705 O 0.04046 0.53815 0.45556
 O706 O -0.00074 0.55757 0.48103
 O707 O -0.03846 0.53544 0.51837
 O708 O 0.00340 0.54940 0.52048
 C709 C 0.01974 0.54750 0.53468
 O710 O 0.06127 0.47720 0.53837
 O711 O -0.02133 0.43348 0.52645
 O712 O 0.02309 0.48593 0.55419
 O713 O -0.01134 0.46651 0.54940
 O714 O 0.01947 0.41309 0.49819
 O715 O 0.05509 0.43326 0.50958
 C716 C 0.00505 0.47445 0.56145
 H717 H -0.01379 0.43718 0.48455
 H718 H 0.06441 0.47591 0.49383
 H719 H -0.00897 0.50904 0.53639
 H720 H -0.00153 0.52173 0.45519
 H721 H 0.06398 0.42216 0.46723
 H722 H 0.07710 0.50087 0.44407
 H723 H 0.05486 0.53840 0.44603
 H724 H -0.00947 0.57089 0.48870
 H725 H 0.02882 0.40084 0.48969
 H726 H -0.03576 0.43306 0.53596
 H727 H -0.05455 0.47231 0.54219
 H728 H -0.03939 0.55311 0.51905
 H729 H 0.06195 0.41786 0.50402
 H730 H 0.06629 0.48792 0.55027
 H731 H -0.04580 0.48546 0.43461
 H732 H -0.04391 0.55276 0.48194
 Zr733 Zr 0.49036 -0.02933 -0.03229
 O734 O 0.46253 -0.01256 -0.04946
 O735 O 0.49796 -0.05928 -0.05174
 O736 O 0.50242 -0.01972 -0.06381
 O737 O 0.45347 -0.05370 0.00688
 O738 O 0.53804 -0.00273 -0.05798
 O739 O 0.45887 -0.04928 -0.02983
 O740 O 0.52933 -0.07755 -0.03524
 O741 O 0.52731 -0.03329 -0.03130
 O742 O 0.49776 -0.05419 -0.00801
 O743 O 0.50320 0.00498 -0.02646
 O744 O 0.47392 -0.01497 -0.00372
 Zr745 Zr 0.53215 -0.00939 0.02949
 Zr746 Zr 0.54003 0.00035 -0.02371
 Zr747 Zr 0.48331 -0.03916 0.02080
 Zr748 Zr 0.53438 -0.05717 -0.00642
 O749 O 0.45210 -0.02593 0.03707
 O750 O 0.56761 -0.06157 -0.02301
 O751 O 0.52002 -0.04407 0.02357
 O752 O 0.54846 -0.02389 0.00093
 O753 O 0.52536 0.01554 0.00504
 O754 O 0.49540 -0.00537 0.02819
 C755 C 0.51466 -0.07516 -0.05094
 C756 C 0.44719 -0.05679 -0.01292
 C757 C 0.52202 -0.01071 -0.07054
 O758 O 0.57326 -0.01183 -0.03679
 O759 O 0.56769 0.01894 -0.00892
 O760 O 0.56274 0.01105 0.02730
 C761 C 0.57382 0.02068 0.01117
 O762 O 0.45995 0.02732 -0.01742
 Zr763 Zr 0.48861 0.01828 0.00304
 O764 O 0.52573 0.02218 0.04767
 O765 O 0.53947 0.03532 -0.03638
 O766 O 0.49671 0.05127 -0.01164
 O767 O 0.45762 0.02566 0.02243
 O768 O 0.49772 0.04201 0.02808
 C769 C 0.51212 0.04042 0.04398
 O770 O 0.56045 -0.02543 0.04661
 O771 O 0.48212 -0.07533 0.03026
 O772 O 0.52132 -0.02084 0.06081
 O773 O 0.48808 -0.04173 0.05462
 O774 O 0.52566 -0.09191 0.00391
 O775 O 0.55911 -0.06929 0.01689
 C776 C 0.50366 -0.03325 0.06730
 H777 H 0.49127 -0.07006 -0.01109
 H778 H 0.56580 -0.02566 0.00262
 H779 H 0.48799 0.00072 0.04202
 H780 H 0.49915 0.01590 -0.03850
 H781 H 0.57058 -0.07893 -0.02535
 H782 H 0.57967 0.00138 -0.04556
 H783 H 0.55441 0.03687 -0.04499
 H784 H 0.48673 0.06384 -0.00420
 H785 H 0.53640 -0.10334 -0.00417
 H786 H 0.46731 -0.07703 0.03903
 H787 H 0.44540 -0.03940 0.04531
 H788 H 0.45531 0.04325 0.02325
 H789 H 0.56747 -0.08394 0.01130
 H790 H 0.56385 -0.01473 0.05908
 H791 H 0.45910 -0.02314 -0.06199
 H792 H 0.45427 0.04386 -0.01411
 Zr793 Zr 0.50972 0.55102 -0.01983
 O794 O 0.53390 0.54504 -0.04641
 O795 O 0.50113 0.58722 -0.02352
 O796 O 0.49365 0.55357 -0.05062
 O797 O 0.55297 0.55881 0.01875
 O798 O 0.46074 0.53122 -0.04675
 O799 O 0.54207 0.56816 -0.01580
 O800 O 0.47278 0.59522 0.00295
 O801 O 0.47346 0.55269 -0.01191
 O802 O 0.50663 0.56305 0.01255
 O803 O 0.49803 0.51621 -0.02468
 O804 O 0.53030 0.52678 -0.00158
 Zr805 Zr 0.47759 0.50390 0.03567
 Zr806 Zr 0.46224 0.51761 -0.01501
 Zr807 Zr 0.52515 0.53804 0.03097
 Zr808 Zr 0.47078 0.56324 0.02083
 O809 O 0.55781 0.51996 0.03643
 O810 O 0.43594 0.57307 0.01158
 O811 O 0.48923 0.53908 0.04075
 O812 O 0.45777 0.52887 0.01754
 O813 O 0.48066 0.49208 0.00319
 O814 O 0.51383 0.50300 0.02764
 C815 C 0.48602 0.60110 -0.01339
 C816 C 0.55636 0.56905 0.00024
 C817 C 0.47470 0.54435 -0.05797
 O818 O 0.42875 0.53459 -0.01923
 O819 O 0.43515 0.49588 -0.00359
 O820 O 0.44547 0.48570 0.03097
 C821 C 0.43133 0.48551 0.01471
 O822 O 0.54228 0.49485 -0.03091
 Zr823 Zr 0.51678 0.49254 -0.00501
 O824 O 0.48582 0.46701 0.03828
 O825 O 0.45966 0.48869 -0.03717
 O826 O 0.50751 0.46795 -0.02970
 O827 O 0.54997 0.47957 0.00606
 O828 O 0.51093 0.45946 0.00926
 C829 C 0.49844 0.45279 0.02572
 O830 O 0.45269 0.50865 0.06185
 O831 O 0.52887 0.56774 0.05210
 O832 O 0.49283 0.50363 0.06706
 O833 O 0.52455 0.52773 0.06376
 O834 O 0.48149 0.59001 0.04290
 O835 O 0.44898 0.56323 0.04958
 C836 C 0.51061 0.51460 0.07498
 H837 H 0.51305 0.57912 0.01475
 H838 H 0.44091 0.52939 0.02230
 H839 H 0.52291 0.49198 0.03704
 H840 H 0.50028 0.51102 -0.04010
 H841 H 0.43282 0.58982 0.01638
 H842 H 0.42059 0.52539 -0.03057
 H843 H 0.44389 0.49030 -0.04383
 H844 H 0.51892 0.45422 -0.02932
 H845 H 0.47021 0.60377 0.04173
 H846 H 0.54488 0.56630 0.05830
 H847 H 0.56596 0.52933 0.04763
 H848 H 0.55253 0.46318 0.00011
 H849 H 0.44022 0.57873 0.05106
 H850 H 0.45156 0.49311 0.06940
 H851 H 0.53564 0.56045 -0.05407
 H852 H 0.54948 0.47884 -0.03406
 Zr853 Zr 0.01400 1.04874 0.47009
 O854 O 0.03857 1.04226 0.44391
 O855 O 0.00568 1.08501 0.46596
 O856 O -0.00169 1.05047 0.43901
 O857 O 0.05667 1.05706 0.50896
 O858 O -0.03456 1.02805 0.44294
 O859 O 0.04621 1.06621 0.47427
 O860 O -0.02294 1.09344 0.49209
 O861 O -0.02239 1.05052 0.47756
 O862 O 0.01041 1.06135 0.50227
 O863 O 0.00238 1.01378 0.46581
 O864 O 0.03425 1.02483 0.48902
 Zr865 Zr -0.01894 1.00289 0.52616
 Zr866 Zr -0.03354 1.01534 0.47502
 Zr867 Zr 0.02865 1.03678 0.52132
 Zr868 Zr -0.02555 1.06173 0.51012
 O869 O 0.06109 1.01869 0.52764
 O870 O -0.06008 1.07140 0.49990
 O871 O -0.00736 1.03812 0.53072
 O872 O -0.03851 1.02735 0.50729
 O873 O -0.01544 0.99025 0.49394
 O874 O 0.01738 1.00171 0.51855
 C875 C -0.00934 1.09914 0.47597
 C876 C 0.06024 1.06730 0.49051
 C877 C -0.02048 1.04095 0.43161
 O878 O -0.06693 1.03217 0.46997
 O879 O -0.06075 0.99386 0.48670
 O880 O -0.05100 0.98465 0.52162
 C881 C -0.06493 0.98408 0.50523
 O882 O 0.04664 0.99212 0.46048
 Zr883 Zr 0.02076 0.99048 0.48614
 O884 O -0.01079 0.96618 0.52963
 O885 O -0.03581 0.98586 0.45343
 O886 O 0.01179 0.96538 0.46177
 O887 O 0.05375 0.97775 0.49786
 O888 O 0.01457 0.95769 0.50097
 C889 C 0.00187 0.95156 0.51752
 O890 O -0.04412 1.00831 0.55203
 O891 O 0.03233 1.06703 0.54179
 O892 O -0.00404 1.00324 0.55766
 O893 O 0.02743 1.02764 0.55437
 O894 O -0.01539 1.08884 0.53209
 O895 O -0.04802 1.06227 0.53846
 C896 C 0.01345 1.01461 0.56563
 H897 H 0.01682 1.07744 0.50438
 H898 H -0.05544 1.02800 0.51184
 H899 H 0.02631 0.99092 0.52829
 H900 H 0.00486 1.00823 0.45052
 H901 H -0.06330 1.08823 0.50439
 H902 H -0.07495 1.02259 0.45881
 H903 H -0.05153 0.98721 0.44665
 H904 H 0.02313 0.95162 0.46257
 H905 H -0.02673 1.10252 0.53064
 H906 H 0.04826 1.06570 0.54819
 H907 H 0.06915 1.02836 0.53870
 H908 H 0.05634 0.96120 0.49229
 H909 H -0.05701 1.07768 0.53939
 H910 H -0.04532 0.99299 0.55993
 H911 H 0.04038 1.05751 0.43600
 H912 H 0.05385 0.97603 0.45775
 Zr913 Zr 0.71840 0.26585 0.21973
 O914 O 0.73585 0.29033 0.19926
 O915 O 0.68466 0.26645 0.20703
 O916 O 0.72114 0.25264 0.18725
 O917 O 0.70635 0.30719 0.26148
 O918 O 0.73380 0.21380 0.19092
 O919 O 0.70368 0.30082 0.22480
 O920 O 0.66477 0.23964 0.22775
 O921 O 0.70863 0.23011 0.22232
 O922 O 0.69790 0.26355 0.24843
 O923 O 0.75021 0.24546 0.21988
 O924 O 0.73983 0.27884 0.24462
 Zr925 Zr 0.74147 0.21960 0.27824
 Zr926 Zr 0.74030 0.20994 0.22451
 Zr927 Zr 0.71957 0.27459 0.27348
 Zr928 Zr 0.68917 0.22812 0.25151
 O929 O 0.74059 0.30237 0.28519
 O930 O 0.67684 0.19705 0.23596
 O931 O 0.70921 0.23932 0.27818
 O932 O 0.72000 0.20677 0.25335
 O933 O 0.76200 0.22104 0.24947
 O934 O 0.75139 0.25498 0.27518
 C935 C 0.66621 0.25468 0.21198
 C936 C 0.70007 0.31361 0.24233
 C937 C 0.72701 0.23177 0.17941
 O938 O 0.72063 0.18051 0.21419
 O939 O 0.75572 0.17795 0.23722
 O940 O 0.75459 0.18476 0.27398
 C941 C 0.75928 0.17154 0.25714
 O942 O 0.77925 0.28478 0.22426
 Zr943 Zr 0.77048 0.25675 0.24586
 O944 O 0.77651 0.21659 0.28903
 O945 O 0.77235 0.20240 0.20692
 O946 O 0.79825 0.24430 0.22439
 O947 O 0.78707 0.28352 0.26425
 O948 O 0.79643 0.23867 0.26389
 C949 C 0.79563 0.22391 0.27982
 O950 O 0.72372 0.19588 0.29934
 O951 O 0.68717 0.28389 0.28989
 O952 O 0.73884 0.23235 0.31061
 O953 O 0.72218 0.26956 0.30736
 O954 O 0.65909 0.24330 0.26838
 O955 O 0.67776 0.20527 0.27692
 C956 C 0.73038 0.25214 0.31874
 H957 H 0.68301 0.27325 0.24838
 H958 H 0.71564 0.19003 0.25594
 H959 H 0.76113 0.26030 0.28743
 H960 H 0.75937 0.24734 0.20606
 H961 H 0.65931 0.19803 0.23665
 H962 H 0.73099 0.17121 0.20376
 H963 H 0.77004 0.18742 0.19863
 H964 H 0.81310 0.25141 0.22932
 H965 H 0.64500 0.23514 0.26298
 H966 H 0.68977 0.29869 0.29838
 H967 H 0.73050 0.31179 0.29576
 H968 H 0.80437 0.28128 0.26168
 H969 H 0.66187 0.19936 0.27364
 H970 H 0.73550 0.18942 0.30966
 H971 H 0.72399 0.29642 0.18886
 H972 H 0.79621 0.28840 0.22554
 Zr973 Zr 0.78533 0.73241 0.71575
 O974 O 0.78270 0.70532 0.69168
 O975 O 0.81867 0.74577 0.70829
 O976 O 0.78612 0.74699 0.68420
 O977 O 0.80182 0.69433 0.75725
 O978 O 0.75716 0.77615 0.68564
 O979 O 0.80861 0.70320 0.72148
 O980 O 0.81944 0.77964 0.72912
 O981 O 0.77944 0.76915 0.72005
 O982 O 0.79762 0.74084 0.74663
 O983 O 0.74883 0.73842 0.71176
 O984 O 0.76613 0.71081 0.73738
 Zr985 Zr 0.73468 0.76392 0.77074
 Zr986 Zr 0.74302 0.77496 0.71775
 Zr987 Zr 0.77727 0.72109 0.76836
 Zr988 Zr 0.79048 0.77718 0.75132
 O989 O 0.76606 0.68731 0.77896
 O990 O 0.79246 0.81285 0.74030
 O991 O 0.77144 0.75775 0.77462
 O992 O 0.75416 0.78494 0.74884
 O993 O 0.72254 0.75541 0.73967
 O994 O 0.74069 0.72713 0.76635
 C995 C 0.82766 0.76570 0.71374
 C996 C 0.81210 0.69036 0.73852
 C997 C 0.77410 0.76425 0.67571
 O998 O 0.75125 0.81067 0.71050
 O999 O 0.71441 0.79754 0.72758
 O1000 O 0.70993 0.79218 0.76430
 C1001 C 0.70433 0.80234 0.74621
 O1002 O 0.73610 0.69099 0.71181
 Zr1003 Zr 0.72980 0.71902 0.73500
 O1004 O 0.70063 0.75104 0.77712
 O1005 O 0.71529 0.77027 0.69566
 O1006 O 0.70339 0.72255 0.71113
 O1007 O 0.72369 0.68580 0.75012
 O1008 O 0.69662 0.72212 0.75121
 C1009 C 0.68850 0.73549 0.76698
 O1010 O 0.73554 0.79229 0.79377
 O1011 O 0.80808 0.72366 0.78712
 O1012 O 0.73814 0.75227 0.80341
 O1013 O 0.76824 0.72431 0.80157
 O1014 O 0.82103 0.77249 0.77040
 O1015 O 0.78693 0.80033 0.77894
 C1016 C 0.75274 0.73725 0.81223
 H1017 H 0.81473 0.73697 0.74799
 H1018 H 0.75104 0.80214 0.75182
 H1019 H 0.73201 0.71774 0.77740
 H1020 H 0.74421 0.73387 0.69684
 H1021 H 0.80830 0.81864 0.74401
 H1022 H 0.74052 0.81590 0.69880
 H1023 H 0.71322 0.78555 0.68784
 H1024 H 0.69177 0.70992 0.71378
 H1025 H 0.83170 0.78568 0.76674
 H1026 H 0.80991 0.70845 0.79510
 H1027 H 0.77736 0.68183 0.79010
 H1028 H 0.70799 0.68048 0.74549
 H1029 H 0.80099 0.81043 0.77971
 H1030 H 0.72048 0.79219 0.80245
 H1031 H 0.79787 0.70470 0.68316
 H1032 H 0.72139 0.68207 0.70997
 Zr1033 Zr 0.22215 0.22857 0.78269
 O1034 O 0.23995 0.20017 0.79850
 O1035 O 0.19192 0.23321 0.80220
 O1036 O 0.23075 0.23957 0.81470
 O1037 O 0.19760 0.19360 0.74252
 O1038 O 0.24853 0.27522 0.80940
 O1039 O 0.20283 0.19670 0.77924
 O1040 O 0.17355 0.26614 0.78813
 O1041 O 0.21765 0.26582 0.78336
 O1042 O 0.19712 0.23726 0.75926
 O1043 O 0.25589 0.24234 0.77658
 O1044 O 0.23610 0.21399 0.75314
 Zr1045 Zr 0.24024 0.27492 0.72235
 Zr1046 Zr 0.25076 0.27955 0.77536
 Zr1047 Zr 0.21165 0.22471 0.72957
 Zr1048 Zr 0.19351 0.27419 0.75941
 O1049 O 0.22469 0.19432 0.71184
 O1050 O 0.18926 0.30621 0.77796
 O1051 O 0.20613 0.26183 0.72852
 O1052 O 0.22617 0.28938 0.75182
 O1053 O 0.26546 0.26677 0.74579
 O1054 O 0.24488 0.23785 0.72201
 C1055 C 0.17564 0.24957 0.80253
 C1056 C 0.19495 0.18606 0.76213
 C1057 C 0.24009 0.25888 0.82176
 O1058 O 0.23853 0.31211 0.78999
 O1059 O 0.26892 0.30835 0.76113
 O1060 O 0.26037 0.30568 0.72506
 C1061 C 0.27043 0.31569 0.74125
 O1062 O 0.27836 0.19944 0.76509
 Zr1063 Zr 0.26877 0.22967 0.74624
 O1064 O 0.27137 0.27054 0.70329
 O1065 O 0.28564 0.27871 0.78714
 O1066 O 0.30164 0.23701 0.76049
 O1067 O 0.27637 0.20001 0.72523
 O1068 O 0.29175 0.24137 0.72127
 C1069 C 0.28980 0.25710 0.70619
 O1070 O 0.22308 0.30417 0.70712
 O1071 O 0.17567 0.22413 0.72083
 O1072 O 0.22930 0.26568 0.69085
 O1073 O 0.20907 0.23151 0.69598
 O1074 O 0.15906 0.26593 0.74922
 O1075 O 0.18063 0.30093 0.73804
 C1076 C 0.21749 0.24798 0.68380
 H1077 H 0.18148 0.23031 0.76227
 H1078 H 0.22420 0.30694 0.75088
 H1079 H 0.25096 0.23136 0.70782
 H1080 H 0.26690 0.23766 0.78822
 H1081 H 0.17210 0.30873 0.78119
 H1082 H 0.25173 0.31820 0.79862
 H1083 H 0.28711 0.29324 0.79628
 H1084 H 0.31408 0.22767 0.75222
 H1085 H 0.14763 0.27576 0.75823
 H1086 H 0.17389 0.20973 0.71157
 H1087 H 0.21121 0.18796 0.70375
 H1088 H 0.29384 0.19820 0.72380
 H1089 H 0.16621 0.30878 0.74462
 H1090 H 0.23336 0.30885 0.69461
 H1091 H 0.22953 0.19549 0.81090
 H1092 H 0.29473 0.19403 0.76104
 Zr1093 Zr 0.29053 0.76150 0.28320
 O1094 O 0.28117 0.78607 0.30860
 O1095 O 0.32543 0.75245 0.29042
 O1096 O 0.29223 0.74443 0.31383
 O1097 O 0.30358 0.80310 0.24362
 O1098 O 0.26846 0.71241 0.31005
 O1099 O 0.30885 0.79365 0.27934
 O1100 O 0.33400 0.72045 0.26810
 O1101 O 0.29179 0.72478 0.27674
 O1102 O 0.30614 0.75681 0.25214
 O1103 O 0.25538 0.75048 0.28597
 O1104 O 0.26921 0.78191 0.26218
 Zr1105 Zr 0.24974 0.72781 0.22535
 Zr1106 Zr 0.25676 0.71411 0.27776
 Zr1107 Zr 0.28391 0.77512 0.23093
 Zr1108 Zr 0.30627 0.72042 0.24544
 O1109 O 0.26732 0.80787 0.22229
 O1110 O 0.31372 0.68479 0.25502
 O1111 O 0.28528 0.73864 0.22282
 O1112 O 0.27165 0.70810 0.24645
 O1113 O 0.23437 0.73241 0.25663
 O1114 O 0.24868 0.76457 0.23175
 C1115 C 0.33849 0.73441 0.28424
 C1116 C 0.31193 0.80714 0.26261
 C1117 C 0.28282 0.72515 0.32081
 O1118 O 0.27135 0.67976 0.28423
 O1119 O 0.23547 0.68719 0.26566
 O1120 O 0.23051 0.69611 0.22976
 C1121 C 0.22769 0.68268 0.24656
 O1122 O 0.23496 0.79615 0.28784
 Zr1123 Zr 0.23474 0.76900 0.26341
 O1124 O 0.21385 0.73639 0.21953
 O1125 O 0.22614 0.71372 0.29826
 O1126 O 0.20783 0.76165 0.28693
 O1127 O 0.22338 0.80170 0.24940
 O1128 O 0.20340 0.76213 0.24733
 C1129 C 0.19846 0.74888 0.23096
 O1130 O 0.25653 0.70150 0.20077
 O1131 O 0.31586 0.77778 0.21243
 O1132 O 0.25427 0.74124 0.19315
 O1133 O 0.27835 0.77294 0.19735
 O1134 O 0.33678 0.73021 0.22718
 O1135 O 0.30923 0.69893 0.21670
 C1136 C 0.26705 0.75822 0.18562
 H1137 H 0.32246 0.76279 0.25124
 H1138 H 0.27222 0.69096 0.24241
 H1139 H 0.23913 0.77339 0.22097
 H1140 H 0.24897 0.75325 0.30099
 H1141 H 0.33072 0.68128 0.25169
 H1142 H 0.26083 0.67235 0.29526
 H1143 H 0.22640 0.69803 0.30557
 H1144 H 0.19455 0.77326 0.28484
 H1145 H 0.34957 0.71846 0.23055
 H1146 H 0.31549 0.79361 0.20535
 H1147 H 0.27814 0.81551 0.21167
 H1148 H 0.20660 0.80460 0.25400
 H1149 H 0.32481 0.69037 0.21620
 H1150 H 0.24205 0.70043 0.19198
 H1151 H 0.29547 0.78801 0.31745
 H1152 H 0.21905 0.80394 0.28927
 Zr1153 Zr 0.20556 0.75148 0.72756
 O1154 O 0.21759 0.77462 0.70279
 O1155 O 0.16977 0.74890 0.72026
 O1156 O 0.20383 0.73606 0.69615
 O1157 O 0.19905 0.79627 0.76690
 O1158 O 0.22087 0.69898 0.69954
 O1159 O 0.19147 0.78641 0.73162
 O1160 O 0.15498 0.72443 0.74650
 O1161 O 0.19811 0.71583 0.73394
 O1162 O 0.19018 0.75103 0.75889
 O1163 O 0.23834 0.73308 0.72451
 O1164 O 0.23025 0.76747 0.74800
 Zr1165 Zr 0.24105 0.71123 0.78474
 Zr1166 Zr 0.23101 0.69776 0.73253
 Zr1167 Zr 0.21517 0.76503 0.77952
 Zr1168 Zr 0.18426 0.71553 0.76586
 O1169 O 0.23664 0.79424 0.78677
 O1170 O 0.17049 0.68305 0.75438
 O1171 O 0.20807 0.72968 0.78807
 O1172 O 0.21622 0.69580 0.76417
 O1173 O 0.25632 0.71141 0.75329
 O1174 O 0.24803 0.74688 0.77811
 C1175 C 0.15290 0.73742 0.72941
 C1176 C 0.19051 0.80095 0.74805
 C1177 C 0.21100 0.71565 0.68825
 O1178 O 0.21038 0.66764 0.72634
 O1179 O 0.24844 0.66723 0.74480
 O1180 O 0.25671 0.67688 0.78006
 C1181 C 0.25734 0.66255 0.76348
 O1182 O 0.26601 0.77336 0.72191
 Zr1183 Zr 0.26213 0.74714 0.74647
 O1184 O 0.27733 0.71225 0.79130
 O1185 O 0.26075 0.68933 0.71199
 O1186 O 0.28694 0.73369 0.72256
 O1187 O 0.27936 0.77667 0.76021
 O1188 O 0.29194 0.73267 0.76218
 C1189 C 0.29447 0.72001 0.77941
 O1190 O 0.22910 0.68736 0.80893
 O1191 O 0.18498 0.77479 0.79909
 O1192 O 0.24136 0.72647 0.81641
 O1193 O 0.22237 0.76263 0.81292
 O1194 O 0.15751 0.73109 0.78677
 O1195 O 0.17889 0.69374 0.79364
 C1196 C 0.23269 0.74639 0.82429
 H1197 H 0.17506 0.76034 0.76024
 H1198 H 0.21323 0.67911 0.76833
 H1199 H 0.25915 0.75375 0.78855
 H1200 H 0.24517 0.73432 0.70955
 H1201 H 0.15331 0.68336 0.75809
 H1202 H 0.21941 0.65764 0.71544
 H1203 H 0.25774 0.67373 0.70499
 H1204 H 0.30202 0.74193 0.72472
 H1205 H 0.14279 0.72228 0.78448
 H1206 H 0.18815 0.79042 0.80597
 H1207 H 0.22766 0.80422 0.79772
 H1208 H 0.29627 0.77520 0.75562
 H1209 H 0.16258 0.68771 0.79371
 H1210 H 0.24295 0.68286 0.81781
 H1211 H 0.20375 0.77916 0.69389
 H1212 H 0.28286 0.77763 0.72045
 Zr1213 Zr 0.27960 0.23005 0.21348
 O1214 O 0.27650 0.20302 0.18941
 O1215 O 0.31309 0.24290 0.20596
 O1216 O 0.28060 0.24474 0.18204
 O1217 O 0.29649 0.19225 0.25487
 O1218 O 0.25151 0.27379 0.18323
 O1219 O 0.30268 0.20079 0.21895
 O1220 O 0.31505 0.27615 0.22745
 O1221 O 0.27407 0.26682 0.21762
 O1222 O 0.29215 0.23852 0.24426
 O1223 O 0.24313 0.23611 0.20966
 O1224 O 0.26054 0.20856 0.23532
 Zr1225 Zr 0.22964 0.26197 0.26868
 Zr1226 Zr 0.23763 0.27269 0.21549
 Zr1227 Zr 0.27196 0.21892 0.26617
 Zr1228 Zr 0.28529 0.27491 0.24884
 O1229 O 0.26062 0.18522 0.27684
 O1230 O 0.28757 0.31008 0.23666
 O1231 O 0.26638 0.25564 0.27232
 O1232 O 0.24900 0.28279 0.24650
 O1233 O 0.21728 0.25336 0.23770
 O1234 O 0.23537 0.22513 0.26444
 C1235 C 0.32296 0.26217 0.21198
 C1236 C 0.30645 0.18816 0.23602
 C1237 C 0.26862 0.26197 0.17348
 O1238 O 0.24567 0.30840 0.20805
 O1239 O 0.20906 0.29518 0.22534
 O1240 O 0.20478 0.29014 0.26212
 C1241 C 0.19903 0.30007 0.24396
 O1242 O 0.23033 0.18869 0.21014
 Zr1243 Zr 0.22423 0.21691 0.23317
 O1244 O 0.19565 0.24924 0.27538
 O1245 O 0.20974 0.26779 0.19360
 O1246 O 0.19768 0.22016 0.20941
 O1247 O 0.21803 0.18388 0.24861
 O1248 O 0.19112 0.22048 0.24940
 C1249 C 0.18324 0.23395 0.26520
 O1250 O 0.23053 0.29058 0.29145
 O1251 O 0.30291 0.22129 0.28477
 O1252 O 0.23376 0.25073 0.30149
 O1253 O 0.26342 0.22230 0.29943
 O1254 O 0.31536 0.27052 0.26860
 O1255 O 0.28176 0.29881 0.27592
 C1256 C 0.24838 0.23563 0.31024
 H1257 H 0.30924 0.23458 0.24563
 H1258 H 0.24595 0.30002 0.24939
 H1259 H 0.22675 0.21588 0.27562
 H1260 H 0.23843 0.23150 0.19477
 H1261 H 0.30344 0.31589 0.24019
 H1262 H 0.23486 0.31353 0.19639
 H1263 H 0.20756 0.28302 0.18571
 H1264 H 0.18614 0.20748 0.21219
 H1265 H 0.32614 0.28365 0.26502
 H1266 H 0.30477 0.20603 0.29267
 H1267 H 0.27206 0.17963 0.28781
 H1268 H 0.20221 0.17869 0.24421
 H1269 H 0.29552 0.30936 0.27608
 H1270 H 0.21555 0.29045 0.30025
 H1271 H 0.29155 0.20232 0.18072
 H1272 H 0.21569 0.17958 0.20864
 Zr1273 Zr 0.72296 0.72820 0.28646
 O1274 O 0.73930 0.70170 0.30582
 O1275 O 0.68906 0.73119 0.30070
 O1276 O 0.72615 0.74081 0.31891
 O1277 O 0.70675 0.68955 0.24515
 O1278 O 0.74324 0.77689 0.31446
 O1279 O 0.70629 0.69528 0.28206
 O1280 O 0.67164 0.76175 0.28194
 O1281 O 0.71595 0.76504 0.28482
 O1282 O 0.70217 0.73386 0.25913
 O1283 O 0.75629 0.74389 0.28420
 O1284 O 0.74279 0.71299 0.25993
 Zr1285 Zr 0.74837 0.77278 0.22688
 Zr1286 Zr 0.74898 0.78049 0.28074
 Zr1287 Zr 0.72225 0.72051 0.23261
 Zr1288 Zr 0.69626 0.77037 0.25691
 O1289 O 0.74075 0.69034 0.21910
 O1290 O 0.68657 0.80256 0.27370
 O1291 O 0.71483 0.75719 0.22894
 O1292 O 0.72848 0.78746 0.25342
 O1293 O 0.76945 0.76760 0.25412
 O1294 O 0.75525 0.73601 0.22875
 C1295 C 0.67178 0.74576 0.29689
 C1296 C 0.70102 0.68345 0.26475
 C1297 C 0.73415 0.76055 0.32636
 O1298 O 0.73176 0.81182 0.29351
 O1299 O 0.76480 0.81114 0.26813
 O1300 O 0.76513 0.80576 0.23113
 C1301 C 0.76945 0.81787 0.24851
 O1302 O 0.78318 0.70207 0.27774
 Zr1303 Zr 0.77505 0.73076 0.25651
 O1304 O 0.78277 0.77041 0.21355
 O1305 O 0.78203 0.78359 0.29583
 O1306 O 0.80431 0.74074 0.27527
 O1307 O 0.78758 0.70090 0.23764
 O1308 O 0.80164 0.74318 0.23496
 C1309 C 0.80135 0.75880 0.21968
 O1310 O 0.73283 0.79986 0.20757
 O1311 O 0.68890 0.71592 0.21835
 O1312 O 0.74266 0.76116 0.19456
 O1313 O 0.72404 0.72589 0.19882
 O1314 O 0.66510 0.75943 0.24150
 O1315 O 0.68615 0.79536 0.23274
 C1316 C 0.73254 0.74257 0.18698
 H1317 H 0.68667 0.72610 0.25996
 H1318 H 0.72533 0.80477 0.25152
 H1319 H 0.76399 0.72951 0.21571
 H1320 H 0.76555 0.74060 0.29741
 H1321 H 0.66905 0.80398 0.27400
 H1322 H 0.74301 0.81953 0.30334
 H1323 H 0.78099 0.79843 0.30475
 H1324 H 0.81849 0.73189 0.26932
 H1325 H 0.65166 0.76900 0.24800
 H1326 H 0.69007 0.70095 0.20959
 H1327 H 0.72971 0.68248 0.20917
 H1328 H 0.80507 0.70020 0.23857
 H1329 H 0.67060 0.80286 0.23692
 H1330 H 0.74494 0.80446 0.19651
 H1331 H 0.72728 0.69681 0.31684
 H1332 H 0.80006 0.69714 0.27570
 Zr1333 Zr 0.79288 0.25257 0.77375
 O1334 O 0.78893 0.27649 0.80062
 O1335 O 0.82681 0.23779 0.77798
 O1336 O 0.79394 0.23406 0.80382
 O1337 O 0.80674 0.29549 0.73563
 O1338 O 0.76780 0.20421 0.79897
 O1339 O 0.81497 0.28238 0.76980
 O1340 O 0.83205 0.21062 0.75010
 O1341 O 0.78927 0.21660 0.76527
 O1342 O 0.80493 0.24856 0.74135
 O1343 O 0.75672 0.24575 0.77847
 O1344 O 0.77209 0.27682 0.75563
 Zr1345 Zr 0.74340 0.22852 0.71765
 Zr1346 Zr 0.75308 0.21029 0.76837
 Zr1347 Zr 0.78317 0.27093 0.72311
 Zr1348 Zr 0.80024 0.21307 0.73269
 O1349 O 0.76974 0.30600 0.71797
 O1350 O 0.80460 0.17707 0.74253
 O1351 O 0.77970 0.23539 0.71285
 O1352 O 0.76437 0.20473 0.73587
 O1353 O 0.73129 0.23263 0.75008
 O1354 O 0.74704 0.26450 0.72605
 C1355 C 0.83880 0.22145 0.76739
 C1356 C 0.81758 0.29700 0.75376
 C1357 C 0.78333 0.21508 0.81001
 O1358 O 0.76281 0.17366 0.77044
 O1359 O 0.72483 0.18996 0.75783
 O1360 O 0.71965 0.20012 0.72226
 C1361 C 0.71441 0.18807 0.73949
 O1362 O 0.74119 0.29295 0.78451
 Zr1363 Zr 0.73627 0.26813 0.75871
 O1364 O 0.70864 0.24217 0.71445
 O1365 O 0.72583 0.21167 0.79270
 O1366 O 0.71047 0.26150 0.78347
 O1367 O 0.72784 0.30301 0.74762
 O1368 O 0.70296 0.26636 0.74433
 C1369 C 0.69551 0.25540 0.72741
 O1370 O 0.74534 0.20304 0.69188
 O1371 O 0.81353 0.27146 0.70218
 O1372 O 0.74684 0.24383 0.68613
 O1373 O 0.77388 0.27286 0.69036
 O1374 O 0.82841 0.22017 0.71040
 O1375 O 0.79773 0.19177 0.70401
 C1376 C 0.76008 0.26053 0.67868
 H1377 H 0.82173 0.25273 0.73922
 H1378 H 0.76209 0.18804 0.73111
 H1379 H 0.73771 0.27525 0.71659
 H1380 H 0.75189 0.24810 0.79399
 H1381 H 0.82074 0.17151 0.73784
 H1382 H 0.75250 0.16682 0.78195
 H1383 H 0.72455 0.19532 0.79854
 H1384 H 0.69815 0.27441 0.78290
 H1385 H 0.84021 0.20682 0.71128
 H1386 H 0.81434 0.28778 0.69615
 H1387 H 0.78030 0.31325 0.70687
 H1388 H 0.71172 0.30734 0.75334
 H1389 H 0.81142 0.18037 0.70301
 H1390 H 0.73028 0.20443 0.68392
 H1391 H 0.80418 0.27615 0.80831
 H1392 H 0.72614 0.30193 0.78772
 C1393 C 0.46554 1.04878 0.33181
 C1394 C 0.48672 1.03624 0.32959
 C1395 C 0.49318 1.02311 0.31100
 C1396 C 0.47696 1.02245 0.29413
 C1397 C 0.45468 1.03502 0.29589
 C1398 C 0.44939 1.04906 0.31491
 O1399 O 0.46176 1.05783 0.35174
 C1400 C 0.48098 1.05081 0.36225
 C1401 C 0.49688 1.03774 0.34933
 C1402 C 0.51732 1.02703 0.35732
 C1403 C 0.52133 1.02945 0.37968
 C1404 C 0.50484 1.04218 0.39363
 C1405 C 0.48463 1.05349 0.38457
 H1406 H 0.50981 1.01308 0.30980
 H1407 H 0.48203 1.01227 0.27958
 H1408 H 0.43242 1.05825 0.31738
 H1409 H 0.52934 1.01649 0.34686
 H1410 H 0.53686 1.02059 0.38619
 H1411 H 0.47142 1.06291 0.39473
 C1412 C -0.05000 0.52555 0.83715
 C1413 C -0.03153 0.50908 0.83569
 C1414 C -0.02525 0.49686 0.81663
 C1415 C -0.03894 0.50126 0.79835
 C1416 C -0.05885 0.51758 0.79927
 C1417 C -0.06379 0.53056 0.81899
 O1418 O -0.05352 0.53427 0.85724
 C1419 C -0.03693 0.52297 0.86857
 C1420 C -0.02302 0.50740 0.85608
 C1421 C -0.00520 0.49299 0.86466
 C1422 C -0.00149 0.49469 0.88713
 C1423 C -0.01559 0.51058 0.90053
 C1424 C -0.03353 0.52501 0.89097
 H1425 H -0.01052 0.48410 0.81590
 H1426 H -0.03360 0.49203 0.78337
 H1427 H -0.07884 0.54285 0.82073
 H1428 H 0.00532 0.48070 0.85444
 H1429 H 0.01233 0.48356 0.89403
 H1430 H -0.04471 0.53725 0.90065
 C1431 C 0.05204 -0.02922 0.85005
 C1432 C 0.02997 -0.01859 0.84785
 C1433 C 0.02117 -0.01193 0.82778
 C1434 C 0.03589 -0.01598 0.80928
 C1435 C 0.05892 -0.02649 0.81116
 C1436 C 0.06692 -0.03359 0.83184
 O1437 O 0.05718 -0.03372 0.87062
 C1438 C 0.03799 -0.02576 0.88161
 C1439 C 0.02080 -0.01630 0.86850
 C1440 C -0.00059 -0.00668 0.87678
 C1441 C -0.00451 -0.00705 0.89952
 C1442 C 0.01291 -0.01690 0.91341
 C1443 C 0.03452 -0.02626 0.90414
 H1444 H 0.00377 -0.00360 0.82643
 H1445 H 0.02949 -0.01066 0.79349
 H1446 H 0.08448 -0.04137 0.83378
 H1447 H -0.01381 0.00079 0.86612
 H1448 H -0.02113 0.00017 0.90622
 H1449 H 0.04829 -0.03391 0.91410
 C1450 C 0.56279 0.48117 0.36542
 C1451 C 0.54038 0.49136 0.36446
 C1452 C 0.52898 0.49502 0.34491
 C1453 C 0.54133 0.48852 0.32553
 C1454 C 0.56476 0.47860 0.32586
 C1455 C 0.57545 0.47442 0.34622
 O1456 O 0.57045 0.47964 0.38573
 C1457 C 0.55254 0.48909 0.39775
 C1458 C 0.53376 0.49662 0.38552
 C1459 C 0.51335 0.50743 0.39477
 C1460 C 0.51205 0.51024 0.41761
 C1461 C 0.53096 0.50222 0.43078
 C1462 C 0.55160 0.49166 0.42049
 H1463 H 0.51134 0.50302 0.34454
 H1464 H 0.53286 0.49175 0.31013
 H1465 H 0.59338 0.46721 0.34701
 H1466 H 0.49885 0.51335 0.38476
 H1467 H 0.49611 0.51824 0.42500
 H1468 H 0.56644 0.48532 0.42989
 C1469 C 0.55211 0.52746 0.16114
 C1470 C 0.53101 0.51604 0.16396
 C1471 C 0.52216 0.50976 0.18438
 C1472 C 0.53581 0.51496 0.20256
 C1473 C 0.55801 0.52615 0.20017
 C1474 C 0.56602 0.53289 0.17908
 O1475 O 0.55731 0.53173 0.14030
 C1476 C 0.53916 0.52279 0.12983
 C1477 C 0.52260 0.51291 0.14352
 C1478 C 0.50231 0.50235 0.13589
 C1479 C 0.49875 0.50229 0.11324
 C1480 C 0.51534 0.51277 0.09871
 C1481 C 0.53597 0.52295 0.10731
 H1482 H 0.50545 0.50093 0.18625
 H1483 H 0.52919 0.51000 0.21856
 H1484 H 0.58290 0.54127 0.17665
 H1485 H 0.48956 0.49459 0.14701
 H1486 H 0.48286 0.49453 0.10711
 H1487 H 0.54908 0.53112 0.09684
 C1488 C 0.05187 1.03004 0.65279
 C1489 C 0.03383 1.01414 0.65452
 C1490 C 0.02755 1.00345 0.67399
 C1491 C 0.04078 1.00876 0.69233
 C1492 C 0.06025 1.02452 0.69120
 C1493 C 0.06516 1.03600 0.67105
 O1494 O 0.05536 1.03745 0.63244
 C1495 C 0.03919 1.02594 0.62127
 C1496 C 0.02553 1.01150 0.63404
 C1497 C 0.00790 0.99742 0.62563
 C1498 C 0.00408 0.99837 0.60307
 C1499 C 0.01789 1.01314 0.58940
 C1500 C 0.03575 1.02710 0.59881
 H1501 H 0.01313 0.99117 0.67500
 H1502 H 0.03540 1.00066 0.70755
 H1503 H 0.07984 1.04786 0.66915
 H1504 H -0.00252 0.98607 0.63607
 H1505 H -0.00962 0.98760 0.59631
 H1506 H 0.04668 1.03862 0.58899
 C1507 C -0.03909 0.45482 0.64630
 C1508 C -0.01795 0.46566 0.65004
 C1509 C -0.01174 0.47359 0.67061
 C1510 C -0.02811 0.47061 0.68790
 C1511 C -0.05022 0.45990 0.68438
 C1512 C -0.05553 0.45143 0.66333
 O1513 O -0.04233 0.45017 0.62536
 C1514 C -0.02293 0.45829 0.61569
 C1515 C -0.00738 0.46792 0.62999
 C1516 C 0.01330 0.47886 0.62304
 C1517 C 0.01791 0.48025 0.60040
 C1518 C 0.00186 0.47082 0.58530
 C1519 C -0.01862 0.45929 0.59328
 H1520 H 0.00480 0.48236 0.67316
 H1521 H -0.02383 0.47712 0.70399
 H1522 H -0.07245 0.44369 0.66009
 H1523 H 0.02512 0.48665 0.63459
 H1524 H 0.03356 0.48924 0.59470
 H1525 H -0.03152 0.45214 0.58240
 C1526 C 0.45994 -0.04931 0.15318
 C1527 C 0.48317 -0.04349 0.15620
 C1528 C 0.49209 -0.03869 0.17666
 C1529 C 0.47632 -0.03935 0.19466
 C1530 C 0.45216 -0.04474 0.19192
 C1531 C 0.44400 -0.05036 0.17092
 O1532 O 0.45464 -0.05143 0.13228
 C1533 C 0.47487 -0.04674 0.12193
 C1534 C 0.49289 -0.04175 0.13578
 C1535 C 0.51504 -0.03463 0.12834
 C1536 C 0.51872 -0.03241 0.10569
 C1537 C 0.50036 -0.03734 0.09102
 C1538 C 0.47822 -0.04492 0.09940
 H1539 H 0.51031 -0.03377 0.17862
 H1540 H 0.48265 -0.03483 0.21068
 H1541 H 0.42551 -0.05382 0.16834
 H1542 H 0.52882 -0.03036 0.13958
 H1543 H 0.53572 -0.02651 0.09965
 H1544 H 0.46361 -0.04832 0.08879
 C1545 C 0.35353 0.41846 0.02143
 C1546 C 0.34458 0.44053 0.01584
 C1547 C 0.32090 0.44473 0.01107
 C1548 C 0.30565 0.42542 0.01238
 C1549 C 0.31421 0.40234 0.01820
 C1550 C 0.33869 0.39891 0.02263
 O1551 O 0.37668 0.41835 0.02506
 C1552 C 0.38246 0.44090 0.02169
 C1553 C 0.36336 0.45511 0.01598
 C1554 C 0.36526 0.47908 0.01098
 C1555 C 0.38781 0.48876 0.01147
 C1556 C 0.40793 0.47461 0.01711
 C1557 C 0.40521 0.45034 0.02265
 H1558 H 0.31433 0.46232 0.00670
 H1559 H 0.28706 0.42867 0.00932
 H1560 H 0.34603 0.38156 0.02681
 H1561 H 0.35001 0.48983 0.00638
 H1562 H 0.38973 0.50730 0.00708
 H1563 H 0.42034 0.43905 0.02658
 C1564 C -0.14439 0.92039 0.52135
 C1565 C -0.15247 0.94073 0.51140
 C1566 C -0.17568 0.94406 0.50502
 C1567 C -0.19136 0.92558 0.50889
 C1568 C -0.18380 0.90380 0.51882
 C1569 C -0.15969 0.90159 0.52535
 O1570 O -0.12137 0.92078 0.52559
 C1571 C -0.11487 0.94190 0.51810
 C1572 C -0.13337 0.95467 0.50922
 C1573 C -0.13073 0.97674 0.49957
 C1574 C -0.10803 0.98603 0.49881
 C1575 C -0.08846 0.97342 0.50776
 C1576 C -0.09196 0.95109 0.51786
 H1577 H -0.18159 0.96041 0.49736
 H1578 H -0.20959 0.92892 0.50463
 H1579 H -0.15247 0.88541 0.53235
 H1580 H -0.14556 0.98630 0.49255
 H1581 H -0.10566 1.00317 0.49115
 H1582 H -0.07730 0.94094 0.52455
 C1583 C -0.14896 0.07884 0.98710
 C1584 C -0.15786 0.06084 0.99964
 C1585 C -0.18113 0.06097 1.00748
 C1586 C -0.19602 0.08027 1.00187
 C1587 C -0.18746 0.09923 0.98887
 C1588 C -0.16334 0.09848 0.98166
 O1589 O -0.12643 0.07495 0.98095
 C1590 C -0.12103 0.05400 0.98983
 C1591 C -0.13966 0.04471 1.00151
 C1592 C -0.13795 0.02317 1.01244
 C1593 C -0.11603 0.01081 1.01158
 C1594 C -0.09647 0.01991 0.99965
 C1595 C -0.09910 0.04174 0.98839
 H1596 H -0.18777 0.04644 1.01716
 H1597 H -0.21444 0.07992 1.00708
 H1598 H -0.15596 0.11259 0.97192
 H1599 H -0.15286 0.01628 1.02157
 H1600 H -0.11425 -0.00584 1.02030
 H1601 H -0.08437 0.04930 0.97947
 C1602 C 0.36912 0.59972 0.50270
 C1603 C 0.36239 0.58203 0.51668
 C1604 C 0.33920 0.57953 0.52405
 C1605 C 0.32205 0.59576 0.51651
 C1606 C 0.32823 0.61461 0.50220
 C1607 C 0.35242 0.61661 0.49546
 O1608 O 0.39202 0.59815 0.49698
 C1609 C 0.39983 0.57904 0.50767
 C1610 C 0.38233 0.56873 0.52007
 C1611 C 0.38631 0.54870 0.53273
 C1612 C 0.40934 0.53888 0.53276
 C1613 C 0.42782 0.54884 0.51997
 C1614 C 0.42295 0.56917 0.50706
 H1615 H 0.33433 0.56511 0.53473
 H1616 H 0.30383 0.59289 0.52132
 H1617 H 0.35820 0.63064 0.48476
 H1618 H 0.37221 0.54096 0.54233
 H1619 H 0.41273 0.52325 0.54259
 H1620 H 0.43673 0.57719 0.49724
 C1621 C 0.15339 0.58705 0.51368
 C1622 C 0.16282 0.56624 0.50465
 C1623 C 0.18666 0.56329 0.49888
 C1624 C 0.20147 0.58250 0.50267
 C1625 C 0.19232 0.60436 0.51187
 C1626 C 0.16777 0.60653 0.51741
 O1627 O 0.13021 0.58615 0.51784
 C1628 C 0.12493 0.56428 0.51127
 C1629 C 0.14430 0.55143 0.50302
 C1630 C 0.14278 0.52843 0.49455
 C1631 C 0.12034 0.51833 0.49438
 C1632 C 0.10013 0.53113 0.50285
 C1633 C 0.10243 0.55440 0.51155
 H1634 H 0.19367 0.54668 0.49188
 H1635 H 0.22018 0.58009 0.49880
 H1636 H 0.16003 0.62292 0.52424
 H1637 H 0.15823 0.51878 0.48792
 H1638 H 0.11858 0.50064 0.48743
 H1639 H 0.08712 0.56472 0.51757
 C1640 C 0.65360 0.08625 0.00887
 C1641 C 0.65229 0.07578 0.02905
 C1642 C 0.66706 0.08156 0.04596
 C1643 C 0.68377 0.09910 0.04207
 C1644 C 0.68545 0.11059 0.02155
 C1645 C 0.67033 0.10377 0.00455
 O1646 O 0.63730 0.07846 -0.00463
 C1647 C 0.62551 0.06280 0.00736
 C1648 C 0.63407 0.06059 0.02807
 C1649 C 0.62416 0.04579 0.04363
 C1650 C 0.60453 0.03271 0.03771
 C1651 C 0.59507 0.03451 0.01647
 C1652 C 0.60593 0.04976 0.00101
 H1653 H 0.66560 0.07307 0.06170
 H1654 H 0.69537 0.10386 0.05513
 H1655 H 0.67108 0.11234 -0.01119
 H1656 H 0.63120 0.04450 0.05986
 H1657 H 0.59670 0.02118 0.04982
 H1658 H 0.59913 0.05175 -0.01525
 C1659 C 0.66061 0.92540 0.48306
 C1660 C 0.65849 0.93204 0.46163
 C1661 C 0.67357 0.92339 0.44500
 C1662 C 0.69132 0.90677 0.45056
 C1663 C 0.69365 0.89898 0.47241
 C1664 C 0.67834 0.90886 0.48902
 O1665 O 0.64381 0.93528 0.49610
 C1666 C 0.63082 0.94831 0.48255
 C1667 C 0.63908 0.94681 0.46129
 C1668 C 0.62780 0.95816 0.44423
 C1669 C 0.60720 0.97180 0.44923
 C1670 C 0.59822 0.97400 0.47106
 C1671 C 0.61035 0.96200 0.48798
 H1672 H 0.67144 0.92886 0.42826
 H1673 H 0.70297 0.89951 0.43771
 H1674 H 0.67948 0.90301 0.50575
 H1675 H 0.63455 0.95645 0.42760
 H1676 H 0.59839 0.98077 0.43600
 H1677 H 0.60399 0.96309 0.50478
 C1678 C 0.15104 0.41037 0.98590
 C1679 C 0.14565 0.41536 0.96465
 C1680 C 0.15999 0.40826 0.94696
 C1681 C 0.18053 0.39480 0.95117
 C1682 C 0.18626 0.38816 0.97277
 C1683 C 0.17151 0.39663 0.99052
 O1684 O 0.13474 0.41916 1.00016
 C1685 C 0.11874 0.42973 0.98751
 C1686 C 0.12466 0.42759 0.96568
 C1687 C 0.11044 0.43640 0.94935
 C1688 C 0.08932 0.44836 0.95564
 C1689 C 0.08273 0.45175 0.97804
 C1690 C 0.09775 0.44210 0.99428
 H1691 H 0.15541 0.41276 0.93042
 H1692 H 0.19182 0.38915 0.93744
 H1693 H 0.17533 0.39190 1.00718
 H1694 H 0.11546 0.43418 0.93228
 H1695 H 0.07843 0.45553 0.94284
 H1696 H 0.09335 0.44429 1.01148
 C1697 C 0.01189 0.34860 0.38372
 C1698 C 0.01005 0.36908 0.37162
 C1699 C 0.00792 0.36887 0.34903
 C1700 C 0.00748 0.34656 0.33851
 C1701 C 0.00870 0.32533 0.35080
 C1702 C 0.01115 0.32636 0.37366
 O1703 O 0.01334 0.35266 0.40500
 C1704 C 0.01218 0.37626 0.40643
 C1705 C 0.01000 0.38711 0.38646
 C1706 C 0.00708 0.41159 0.38420
 C1707 C 0.00618 0.42544 0.40331
 C1708 C 0.00862 0.41471 0.42407
 C1709 C 0.01198 0.38978 0.42566
 H1710 H 0.00645 0.38526 0.33990
 H1711 H 0.00565 0.34574 0.32097
 H1712 H 0.01223 0.31028 0.38330
 H1713 H 0.00508 0.41969 0.36836
 H1714 H 0.00360 0.44455 0.40196
 H1715 H 0.01353 0.38121 0.44134
 C1716 C 0.51634 -0.15631 -0.11095
 C1717 C 0.51777 -0.13577 -0.12293
 C1718 C 0.51730 -0.13560 -0.14561
 C1719 C 0.51534 -0.15760 -0.15642
 C1720 C 0.51346 -0.17892 -0.14435
 C1721 C 0.51402 -0.17826 -0.12130
 O1722 O 0.51672 -0.15252 -0.08955
 C1723 C 0.51827 -0.12902 -0.08796
 C1724 C 0.51885 -0.11796 -0.10795
 C1725 C 0.51903 -0.09337 -0.11018
 C1726 C 0.51821 -0.07959 -0.09103
 C1727 C 0.51762 -0.09054 -0.07026
 C1728 C 0.51807 -0.11562 -0.06864
 H1729 H 0.51839 -0.11915 -0.15463
 H1730 H 0.51499 -0.15807 -0.17408
 H1731 H 0.51285 -0.19438 -0.11177
 H1732 H 0.51912 -0.08508 -0.12605
 H1733 H 0.51770 -0.06034 -0.09235
 H1734 H 0.51713 -0.12430 -0.05294
 C1735 C 0.00078 -0.17569 1.09545
 C1736 C 0.00190 -0.18622 1.07505
 C1737 C -0.00033 -0.21066 1.07181
 C1738 C -0.00424 -0.22468 1.09036
 C1739 C -0.00625 -0.21389 1.11136
 C1740 C -0.00335 -0.18917 1.11394
 O1741 O 0.00215 -0.15218 1.09505
 C1742 C 0.00395 -0.14767 1.07394
 C1743 C 0.00373 -0.16782 1.06093
 C1744 C 0.00335 -0.16686 1.03826
 C1745 C 0.00296 -0.14419 1.02871
 C1746 C 0.00330 -0.12330 1.04193
 C1747 C 0.00417 -0.12513 1.06482
 H1748 H 0.00036 -0.21854 1.05561
 H1749 H -0.00665 -0.24367 1.08836
 H1750 H -0.00506 -0.18059 1.12984
 H1751 H 0.00268 -0.18289 1.02836
 H1752 H 0.00222 -0.14286 1.01112
 H1753 H 0.00379 -0.10943 1.07528
 C1754 C 0.49482 0.33974 0.59808
 C1755 C 0.51672 0.34642 0.60476
 C1756 C 0.52818 0.33598 0.62216
 C1757 C 0.51670 0.31762 0.63304
 C1758 C 0.49439 0.30968 0.62610
 C1759 C 0.48332 0.32109 0.60831
 O1760 O 0.48630 0.35331 0.58228
 C1761 C 0.50325 0.36888 0.57894
 C1762 C 0.52232 0.36517 0.59216
 C1763 C 0.54170 0.37976 0.59217
 C1764 C 0.54111 0.39950 0.57847
 C1765 C 0.52116 0.40452 0.56537
 C1766 C 0.50224 0.38854 0.56514
 H1767 H 0.54511 0.34212 0.62749
 H1768 H 0.52515 0.30988 0.64706
 H1769 H 0.46636 0.31564 0.60248
 H1770 H 0.55646 0.37643 0.60277
 H1771 H 0.55594 0.41132 0.57867
 H1772 H 0.48668 0.39202 0.55557
 C1773 C 0.51807 1.15091 0.61139
 C1774 C 0.54090 1.15108 0.60308
 C1775 C 0.55900 1.16270 0.61330
 C1776 C 0.55312 1.17553 0.63244
 C1777 C 0.52943 1.17655 0.64089
 C1778 C 0.51183 1.16345 0.63047
 O1779 O 0.50343 1.13939 0.59871
 C1780 C 0.51732 1.13234 0.58198
 C1781 C 0.54035 1.13922 0.58381
 C1782 C 0.55768 1.13459 0.56776
 C1783 C 0.55115 1.12165 0.54931
 C1784 C 0.52769 1.11354 0.54741
 C1785 C 0.51046 1.11935 0.56389
 H1786 H 0.57678 1.16269 0.60632
 H1787 H 0.56674 1.18593 0.63980
 H1788 H 0.49359 1.16414 0.63633
 H1789 H 0.57562 1.14047 0.56950
 H1790 H 0.56464 1.11716 0.53699
 H1791 H 0.49242 1.11346 0.56294
 C1792 C 0.02367 0.64690 1.09815
 C1793 C 0.04673 0.64220 1.09154
 C1794 C 0.06579 0.64866 1.10395
 C1795 C 0.06087 0.66146 1.12343
 C1796 C 0.03705 0.66771 1.13013
 C1797 C 0.01832 0.65921 1.11743
 O1798 O 0.00800 0.63896 1.08436
 C1799 C 0.02146 0.62915 1.06857
 C1800 C 0.04531 0.63066 1.07203
 C1801 C 0.06243 0.62088 1.05759
 C1802 C 0.05451 0.60806 1.03946
 C1803 C 0.02992 0.60531 1.03632
 C1804 C 0.01327 0.61692 1.05066
 H1805 H 0.08384 0.64462 1.09852
 H1806 H 0.07586 0.66784 1.13218
 H1807 H -0.00011 0.66216 1.12215
 H1808 H 0.08113 0.62222 1.06065
 H1809 H 0.06748 0.59895 1.02881
 H1810 H -0.00561 0.61499 1.04891
 C1811 C 0.46148 0.67943 -0.06908
 C1812 C 0.48318 0.68357 -0.06047
 C1813 C 0.49910 0.69894 -0.06983
 C1814 C 0.49264 0.71029 -0.08908
 C1815 C 0.47022 0.70655 -0.09885
 C1816 C 0.45428 0.69107 -0.08791
 O1817 O 0.45043 0.66162 -0.05946
 C1818 C 0.46568 0.65424 -0.04465
 C1819 C 0.48597 0.66726 -0.04454
 C1820 C 0.50572 0.66073 -0.03264
 C1821 C 0.50480 0.63947 -0.02090
 C1822 C 0.48433 0.62552 -0.02121
 C1823 C 0.46421 0.63329 -0.03266
 H1824 H 0.51654 0.70107 -0.06327
 H1825 H 0.50636 0.72048 -0.09676
 H1826 H 0.43696 0.68728 -0.09384
 H1827 H 0.52177 0.67081 -0.03346
 H1828 H 0.52042 0.63317 -0.01254
 H1829 H 0.44892 0.62218 -0.03395
 C1830 C -0.03792 1.18401 0.42981
 C1831 C -0.01496 1.18652 0.43605
 C1832 C 0.00011 1.20254 0.42641
 C1833 C -0.00838 1.21580 0.40893
 C1834 C -0.03182 1.21292 0.40104
 C1835 C -0.04704 1.19747 0.41280
 O1836 O -0.04823 1.16547 0.43894
 C1837 C -0.03121 1.15587 0.45085
 C1838 C -0.01047 1.16815 0.44963
 C1839 C 0.01074 1.15934 0.45784
 C1840 C 0.01065 1.13675 0.46735
 C1841 C -0.01046 1.12378 0.46863
 C1842 C -0.03183 1.13367 0.46085
 H1843 H 0.01839 1.20358 0.43114
 H1844 H 0.00460 1.22640 0.40062
 H1845 H -0.06513 1.19467 0.40840
 H1846 H 0.02702 1.16890 0.45589
 H1847 H 0.02711 1.12898 0.47309
 H1848 H -0.04787 1.12352 0.46090
 C1849 C 0.77434 0.70566 0.90065
 C1850 C 0.75609 0.72240 0.90216
 C1851 C 0.74473 0.72855 0.92175
 C1852 C 0.75190 0.71647 0.94045
 C1853 C 0.77019 0.69828 0.93951
 C1854 C 0.78215 0.69360 0.91919
 O1855 O 0.78202 0.70180 0.88024
 C1856 C 0.76829 0.71639 0.86876
 C1857 C 0.75215 0.72943 0.88138
 C1858 C 0.73556 0.74522 0.87256
 C1859 C 0.73570 0.74776 0.84974
 C1860 C 0.75220 0.73448 0.83630
 C1861 C 0.76872 0.71858 0.84615
 H1862 H 0.73055 0.74194 0.92258
 H1863 H 0.74320 0.72167 0.95575
 H1864 H 0.79585 0.67979 0.91740
 H1865 H 0.72287 0.75514 0.88286
 H1866 H 0.72296 0.75999 0.84262
 H1867 H 0.78158 0.70805 0.83653
 C1868 C 0.27378 0.20652 0.39862
 C1869 C 0.25613 0.22390 0.40037
 C1870 C 0.24613 0.23127 0.42023
 C1871 C 0.25394 0.21971 0.43898
 C1872 C 0.27155 0.20088 0.43786
 C1873 C 0.28230 0.19501 0.41723
 O1874 O 0.28006 0.20150 0.37802
 C1875 C 0.26606 0.21600 0.36668
 C1876 C 0.25111 0.23012 0.37956
 C1877 C 0.23450 0.24607 0.37098
 C1878 C 0.23340 0.24771 0.34812
 C1879 C 0.24871 0.23340 0.33439
 C1880 C 0.26522 0.21726 0.34401
 H1881 H 0.23240 0.24513 0.42123
 H1882 H 0.24616 0.22567 0.45448
 H1883 H 0.29544 0.18067 0.41538
 H1884 H 0.22278 0.25687 0.38151
 H1885 H 0.22074 0.26017 0.34120
 H1886 H 0.27719 0.20595 0.33419
 C1887 C 0.72170 0.29402 0.40633
 C1888 C 0.73325 0.27219 0.40797
 C1889 C 0.74294 0.26420 0.42732
 C1890 C 0.74088 0.27945 0.44562
 C1891 C 0.72919 0.30212 0.44422
 C1892 C 0.71919 0.30929 0.42433
 O1893 O 0.71491 0.29884 0.38626
 C1894 C 0.72234 0.27967 0.37496
 C1895 C 0.73360 0.26278 0.38745
 C1896 C 0.74356 0.24174 0.37864
 C1897 C 0.74197 0.23807 0.35603
 C1898 C 0.73071 0.25542 0.34272
 C1899 C 0.72057 0.27642 0.35252
 H1900 H 0.75219 0.24708 0.42817
 H1901 H 0.74857 0.27376 0.46079
 H1902 H 0.71066 0.32670 0.42268
 H1903 H 0.75254 0.22880 0.38876
 H1904 H 0.74993 0.22193 0.34889
 H1905 H 0.71200 0.29014 0.34295
 C1906 C 0.22365 0.79034 0.91143
 C1907 C 0.23900 0.77095 0.91247
 C1908 C 0.25120 0.76520 0.93112
 C1909 C 0.24789 0.78030 0.94933
 C1910 C 0.23244 0.80092 0.94887
 C1911 C 0.21961 0.80543 0.92957
 O1912 O 0.21479 0.79325 0.89172
 C1913 C 0.22478 0.77529 0.88018
 C1914 C 0.23964 0.76104 0.89215
 C1915 C 0.25241 0.74159 0.88316
 C1916 C 0.24979 0.73665 0.86085
 C1917 C 0.23478 0.75124 0.84798
 C1918 C 0.22203 0.77080 0.85797
 H1919 H 0.26316 0.74980 0.93155
 H1920 H 0.25714 0.77544 0.96396
 H1921 H 0.20808 0.82104 0.92807
 H1922 H 0.26414 0.73074 0.89293
 H1923 H 0.25976 0.72170 0.85358
 H1924 H 0.21043 0.78236 0.84872
 C1925 C 0.27441 0.79743 0.09805
 C1926 C 0.29435 0.78380 0.10206
 C1927 C 0.31455 0.78403 0.08867
 C1928 C 0.31407 0.79852 0.07011
 C1929 C 0.29331 0.81204 0.06475
 C1930 C 0.27322 0.81139 0.07927
 O1931 O 0.25786 0.79610 0.11381
 C1932 C 0.26751 0.78105 0.12796
 C1933 C 0.28970 0.77275 0.12128
 C1934 C 0.30338 0.75733 0.13372
 C1935 C 0.29420 0.75082 0.15419
 C1936 C 0.27189 0.75993 0.16200
 C1937 C 0.25812 0.77502 0.14856
 H1938 H 0.33022 0.77347 0.09243
 H1939 H 0.32958 0.79805 0.05938
 H1940 H 0.25732 0.82204 0.07652
 H1941 H 0.32086 0.75119 0.12819
 H1942 H 0.30513 0.73984 0.16463
 H1943 H 0.24147 0.78297 0.15448
 C1944 C 0.78412 0.30390 0.59487
 C1945 C 0.77688 0.28103 0.59090
 C1946 C 0.77668 0.27113 0.57004
 C1947 C 0.78328 0.28567 0.55253
 C1948 C 0.78982 0.30967 0.55606
 C1949 C 0.79086 0.31871 0.57763
 O1950 O 0.78260 0.30995 0.61587
 C1951 C 0.77413 0.29058 0.62527
 C1952 C 0.77012 0.27242 0.61073
 C1953 C 0.76072 0.25077 0.61713
 C1954 C 0.75596 0.24743 0.63953
 C1955 C 0.76084 0.26555 0.65498
 C1956 C 0.76964 0.28760 0.64754
 H1957 H 0.77093 0.25312 0.56728
 H1958 H 0.78217 0.27866 0.53606
 H1959 H 0.79521 0.33709 0.58076
 H1960 H 0.75753 0.23680 0.60534
 H1961 H 0.74951 0.23039 0.64491
 H1962 H 0.77358 0.30184 0.65884
 C1963 C 0.20946 0.20585 0.59697
 C1964 C 0.21657 0.22898 0.59455
 C1965 C 0.22419 0.23802 0.57464
 C1966 C 0.22465 0.22255 0.55652
 C1967 C 0.21758 0.19855 0.55859
 C1968 C 0.20954 0.19020 0.57909
 O1969 O 0.20436 0.20040 0.61755
 C1970 C 0.20839 0.22050 0.62832
 C1971 C 0.21581 0.23855 0.61500
 C1972 C 0.22241 0.26062 0.62302
 C1973 C 0.22181 0.26406 0.64575
 C1974 C 0.21475 0.24550 0.65993
 C1975 C 0.20744 0.22359 0.65092
 H1976 H 0.23001 0.25618 0.57319
 H1977 H 0.23068 0.22919 0.54086
 H1978 H 0.20443 0.17188 0.58119
 H1979 H 0.22849 0.27446 0.61221
 H1980 H 0.22755 0.28090 0.65228
 H1981 H 0.20241 0.20885 0.66117
 C1982 C 0.71741 0.70176 0.10044
 C1983 C 0.72518 0.72463 0.09770
 C1984 C 0.73022 0.73408 0.07731
 C1985 C 0.72762 0.71921 0.05906
 C1986 C 0.72015 0.69537 0.06149
 C1987 C 0.71448 0.68670 0.08248
 O1988 O 0.71474 0.69588 0.12124
 C1989 C 0.72103 0.71540 0.13181
 C1990 C 0.72758 0.73353 0.11820
 C1991 C 0.73582 0.75513 0.12594
 C1992 C 0.73733 0.75815 0.14866
 C1993 C 0.73067 0.73967 0.16305
 C1994 C 0.72229 0.71804 0.15433
 H1995 H 0.73647 0.75205 0.07554
 H1996 H 0.73190 0.72606 0.04302
 H1997 H 0.70913 0.66849 0.08480
 H1998 H 0.74113 0.76905 0.11488
 H1999 H 0.74378 0.77480 0.15497
 H2000 H 0.71728 0.70340 0.16471
 C2001 C 0.16417 0.60407 0.22811
 C2002 C 0.18389 0.59522 0.23828
 C2003 C 0.18698 0.57131 0.24356
 C2004 C 0.16898 0.55576 0.23814
 C2005 C 0.14808 0.56426 0.22795
 C2006 C 0.14579 0.58895 0.22288
 O2007 O 0.16491 0.62744 0.22451
 C2008 C 0.18557 0.63344 0.23267
 C2009 C 0.19771 0.61429 0.24139
 C2010 C 0.21927 0.61636 0.25149
 C2011 C 0.22870 0.63912 0.25284
 C2012 C 0.21679 0.65925 0.24389
 C2013 C 0.19497 0.65636 0.23338
 H2014 H 0.20282 0.56479 0.25140
 H2015 H 0.17160 0.53700 0.24165
 H2016 H 0.13009 0.59630 0.21539
 H2017 H 0.22837 0.60103 0.25835
 H2018 H 0.24545 0.64109 0.26083
 H2019 H 0.18543 0.67148 0.22662
 C2020 C 0.65417 0.10689 0.72079
 C2021 C 0.64755 0.11675 0.74071
 C2022 C 0.63137 0.10633 0.75489
 C2023 C 0.62163 0.08476 0.74836
 C2024 C 0.62806 0.07399 0.72794
 C2025 C 0.64441 0.08543 0.71380
 O2026 O 0.67077 0.11922 0.71040
 C2027 C 0.67468 0.13720 0.72413
 C2028 C 0.66080 0.13642 0.74286
 C2029 C 0.66263 0.15256 0.76000
 C2030 C 0.67978 0.17000 0.75804
 C2031 C 0.69471 0.17119 0.73914
 C2032 C 0.69180 0.15479 0.72166
 H2033 H 0.62663 0.11438 0.77057
 H2034 H 0.60899 0.07641 0.75921
 H2035 H 0.64982 0.07751 0.69823
 H2036 H 0.65166 0.15138 0.77465
 H2037 H 0.68180 0.18237 0.77152
 H2038 H 0.70328 0.15494 0.70726
 C2039 C 0.82220 0.08677 0.26017
 C2040 C 0.81051 0.09003 0.27991
 C2041 C 0.81730 0.07858 0.29883
 C2042 C 0.83710 0.06307 0.29745
 C2043 C 0.84923 0.05850 0.27717
 C2044 C 0.84122 0.07025 0.25810
 O2045 O 0.81454 0.10179 0.24496
 C2046 C 0.79752 0.11463 0.25540
 C2047 C 0.79420 0.10766 0.27670
 C2048 C 0.77820 0.11892 0.29109
 C2049 C 0.76555 0.13877 0.28356
 C2050 C 0.76949 0.14759 0.26211
 C2051 C 0.78523 0.13482 0.24752
 H2052 H 0.80813 0.08205 0.31429
 H2053 H 0.84255 0.05412 0.31216
 H2054 H 0.85050 0.06787 0.24253
 H2055 H 0.77600 0.11303 0.30777
 H2056 H 0.75338 0.14792 0.29493
 H2057 H 0.78893 0.14126 0.23123
 C2058 C 0.32398 0.58460 0.78360
 C2059 C 0.30558 0.57532 0.77238
 C2060 C 0.30507 0.55153 0.76608
 C2061 C 0.32451 0.53671 0.77120
 C2062 C 0.34448 0.54577 0.78215
 C2063 C 0.34363 0.57028 0.78874
 O2064 O 0.32123 0.60787 0.78761
 C2065 C 0.30065 0.61336 0.77864
 C2066 C 0.29043 0.59406 0.76899
 C2067 C 0.26952 0.59596 0.75755
 C2068 C 0.25874 0.61869 0.75593
 C2069 C 0.26875 0.63883 0.76597
 C2070 C 0.28992 0.63607 0.77767
 H2071 H 0.29020 0.54458 0.75746
 H2072 H 0.32343 0.51804 0.76687
 H2073 H 0.35831 0.57871 0.79640
 H2074 H 0.26201 0.58056 0.74982
 H2075 H 0.24255 0.62063 0.74693
 H2076 H 0.29817 0.65125 0.78511
 C2077 C 0.33660 0.39485 0.74556
 C2078 C 0.32899 0.39267 0.72451
 C2079 C 0.33748 0.40647 0.70748
 C2080 C 0.35467 0.42317 0.71226
 C2081 C 0.36302 0.42585 0.73379
 C2082 C 0.35361 0.41158 0.75075
 O2083 O 0.32665 0.37941 0.75912
 C2084 C 0.31247 0.36727 0.74630
 C2085 C 0.31328 0.37480 0.72502
 C2086 C 0.30034 0.36440 0.70868
 C2087 C 0.28604 0.34532 0.71441
 C2088 C 0.28490 0.33682 0.73621
 C2089 C 0.29828 0.34821 0.75243
 H2090 H 0.33125 0.40432 0.69104
 H2091 H 0.36145 0.43411 0.69918
 H2092 H 0.35977 0.41306 0.76728
 H2093 H 0.30137 0.37062 0.69203
 H2094 H 0.27607 0.33704 0.70166
 H2095 H 0.29800 0.34219 0.76917
 C2096 C 0.83172 0.89786 0.23180
 C2097 C 0.81152 0.90632 0.24246
 C2098 C 0.80853 0.92981 0.24946
 C2099 C 0.82723 0.94526 0.24562
 C2100 C 0.84891 0.93716 0.23513
 C2101 C 0.85069 0.91289 0.22781
 O2102 O 0.83122 0.87463 0.22717
 C2103 C 0.81022 0.86836 0.23514
 C2104 C 0.79754 0.88714 0.24474
 C2105 C 0.77572 0.88445 0.25527
 C2106 C 0.76663 0.86145 0.25605
 C2107 C 0.77919 0.84181 0.24613
 C2108 C 0.80125 0.84531 0.23537
 H2109 H 0.79233 0.93608 0.25768
 H2110 H 0.82423 0.96371 0.25046
 H2111 H 0.86676 0.90522 0.22044
 H2112 H 0.76626 0.89944 0.26301
 H2113 H 0.74984 0.85884 0.26448
 H2114 H 0.81150 0.83048 0.22830
 C2115 C 0.64776 0.89062 0.76242
 C2116 C 0.64189 0.88105 0.74260
 C2117 C 0.62756 0.89311 0.72795
 C2118 C 0.61885 0.91599 0.73393
 C2119 C 0.62440 0.92640 0.75431
 C2120 C 0.63897 0.91336 0.76885
 O2121 O 0.66274 0.87661 0.77330
 C2122 C 0.66635 0.85781 0.76004
 C2123 C 0.65385 0.85970 0.74111
 C2124 C 0.65568 0.84277 0.72444
 C2125 C 0.67149 0.82337 0.72703
 C2126 C 0.68521 0.82108 0.74608
 C2127 C 0.68215 0.83834 0.76310
 H2128 H 0.62345 0.88527 0.71234
 H2129 H 0.60759 0.92556 0.72272
 H2130 H 0.64375 0.92093 0.78440
 H2131 H 0.64578 0.84478 0.70964
 H2132 H 0.67356 0.81040 0.71385
 H2133 H 0.69270 0.83740 0.77760
 C2134 C 0.14270 0.38859 0.25857
 C2135 C 0.13706 0.37877 0.23879
 C2136 C 0.12326 0.39078 0.22369
 C2137 C 0.11480 0.41388 0.22919
 C2138 C 0.12001 0.42443 0.24957
 C2139 C 0.13406 0.41148 0.26456
 O2140 O 0.15733 0.37464 0.26987
 C2141 C 0.16095 0.35559 0.25692
 C2142 C 0.14876 0.35728 0.23780
 C2143 C 0.15065 0.34008 0.22138
 C2144 C 0.16625 0.32062 0.22443
 C2145 C 0.17979 0.31862 0.24362
 C2146 C 0.17661 0.33612 0.26041
 H2147 H 0.11940 0.38276 0.20808
 H2148 H 0.10401 0.42352 0.21765
 H2149 H 0.13854 0.41924 0.28012
 H2150 H 0.14098 0.34192 0.20643
 H2151 H 0.16839 0.30744 0.21144
 H2152 H 0.18703 0.33539 0.27499
 C2153 C 0.09472 0.26750 0.86202
 C2154 C 0.10866 0.24950 0.87048
 C2155 C 0.10188 0.23628 0.88855
 C2156 C 0.07955 0.24157 0.89806
 C2157 C 0.06493 0.25994 0.88950
 C2158 C 0.07271 0.27336 0.87149
 O2159 O 0.10356 0.27642 0.84369
 C2160 C 0.12350 0.26372 0.84048
 C2161 C 0.12741 0.24708 0.85646
 C2162 C 0.14642 0.23094 0.85578
 C2163 C 0.16218 0.23204 0.83793
 C2164 C 0.15858 0.24900 0.82108
 C2165 C 0.13894 0.26515 0.82251
 H2166 H 0.11292 0.22180 0.89452
 H2167 H 0.07325 0.23091 0.91154
 H2168 H 0.06129 0.28679 0.86423
 H2169 H 0.14890 0.21781 0.86842
 H2170 H 0.17712 0.21951 0.83729
 H2171 H 0.13553 0.27811 0.80990
 C2172 C 0.59224 0.76520 0.35676
 C2173 C 0.58949 0.74305 0.34751
 C2174 C 0.56932 0.72988 0.35086
 C2175 C 0.55108 0.74013 0.36405
 C2176 C 0.55352 0.76294 0.37407
 C2177 C 0.57476 0.77534 0.37055
 O2178 O 0.61198 0.77552 0.35025
 C2179 C 0.62191 0.75950 0.33660
 C2180 C 0.60901 0.73916 0.33454
 C2181 C 0.61607 0.72017 0.32087
 C2182 C 0.63726 0.72236 0.30878
 C2183 C 0.65034 0.74347 0.31024
 C2184 C 0.64267 0.76226 0.32434
 H2185 H 0.56733 0.71273 0.34295
 H2186 H 0.53482 0.73053 0.36571
 H2187 H 0.57759 0.79259 0.37795
 H2188 H 0.60563 0.70435 0.31949
 H2189 H 0.64325 0.70795 0.29791
 H2190 H 0.65252 0.77850 0.32563
 C2191 C 0.58335 0.23902 0.15973
 C2192 C 0.59319 0.26003 0.15328
 C2193 C 0.58591 0.27253 0.13504
 C2194 C 0.56754 0.26304 0.12304
 C2195 C 0.55683 0.24151 0.12953
 C2196 C 0.56493 0.22942 0.14822
 O2197 O 0.59371 0.22930 0.17681
 C2198 C 0.61052 0.24452 0.18122
 C2199 C 0.61082 0.26369 0.16736
 C2200 C 0.62752 0.28130 0.16839
 C2201 C 0.64505 0.27871 0.18399
 C2202 C 0.64565 0.25865 0.19803
 C2203 C 0.62773 0.24162 0.19695
 H2204 H 0.59429 0.28880 0.13007
 H2205 H 0.56188 0.27230 0.10857
 H2206 H 0.55709 0.21308 0.15375
 H2207 H 0.62744 0.29615 0.15722
 H2208 H 0.65854 0.29203 0.18465
 H2209 H 0.62790 0.22595 0.20715
 C2210 C 0.08011 0.74226 0.66433
 C2211 C 0.06878 0.73999 0.68432
 C2212 C 0.04452 0.73651 0.68648
 C2213 C 0.03162 0.73489 0.66722
 C2214 C 0.04331 0.73640 0.64660
 C2215 C 0.06775 0.74049 0.64515
 O2216 O 0.10329 0.74428 0.66559
 C2217 C 0.10680 0.74306 0.68681
 C2218 C 0.08634 0.74029 0.69906
 C2219 C 0.08642 0.73677 0.72152
 C2220 C 0.10848 0.73602 0.73164
 C2221 C 0.12968 0.73904 0.71921
 C2222 C 0.12869 0.74284 0.69652
 H2223 H 0.03599 0.73451 0.70233
 H2224 H 0.01286 0.73146 0.66828
 H2225 H 0.07700 0.74128 0.62949
 H2226 H 0.07017 0.73415 0.73079
 H2227 H 0.10907 0.73303 0.74906
 H2228 H 0.14460 0.74460 0.68651
 C2229 C 0.90050 0.76923 0.64542
 C2230 C 0.89505 0.79221 0.65215
 C2231 C 0.90449 0.81197 0.64207
 C2232 C 0.92080 0.80786 0.62475
 C2233 C 0.92773 0.78415 0.61802
 C2234 C 0.91677 0.76466 0.62844
 O2235 O 0.88914 0.75296 0.65681
 C2236 C 0.87642 0.76597 0.67119
 C2237 C 0.87954 0.79009 0.66919
 C2238 C 0.86796 0.80693 0.68272
 C2239 C 0.85195 0.79857 0.69854
 C2240 C 0.84772 0.77379 0.70027
 C2241 C 0.86055 0.75729 0.68663
 H2242 H 0.89983 0.82991 0.64761
 H2243 H 0.92908 0.82329 0.61777
 H2244 H 0.92059 0.74634 0.62350
 H2245 H 0.87077 0.82583 0.68087
 H2246 H 0.84206 0.81147 0.70866
 H2247 H 0.85762 0.73830 0.68741
 C2248 C 0.39598 0.26554 0.14380
 C2249 C 0.39460 0.28746 0.15412
 C2250 C 0.40772 0.30670 0.14733
 C2251 C 0.42332 0.30301 0.12944
 C2252 C 0.42544 0.28037 0.11881
 C2253 C 0.41133 0.26146 0.12600
 O2254 O 0.38189 0.24970 0.15279
 C2255 C 0.37148 0.26189 0.16917
 C2256 C 0.37871 0.28503 0.17078
 C2257 C 0.36993 0.30094 0.18671
 C2258 C 0.35240 0.29285 0.20120
 C2259 C 0.34406 0.26926 0.19936
 C2260 C 0.35425 0.25345 0.18338
 H2261 H 0.40633 0.32378 0.15572
 H2262 H 0.43442 0.31753 0.12444
 H2263 H 0.41263 0.24401 0.11825
 H2264 H 0.37596 0.31907 0.18765
 H2265 H 0.34471 0.30525 0.21321
 H2266 H 0.34828 0.23539 0.18140
 C2267 C 0.40255 0.73755 0.35650
 C2268 C 0.40364 0.71470 0.34804
 C2269 C 0.41625 0.69619 0.35775
 C2270 C 0.42876 0.70164 0.37658
 C2271 C 0.42834 0.72526 0.38526
 C2272 C 0.41470 0.74333 0.37518
 O2273 O 0.38936 0.75249 0.34505
 C2274 C 0.38202 0.73881 0.32898
 C2275 C 0.39030 0.71557 0.32992
 C2276 C 0.38431 0.69822 0.31479
 C2277 C 0.36846 0.70498 0.29850
 C2278 C 0.35896 0.72867 0.29782
 C2279 C 0.36647 0.74591 0.31297
 H2280 H 0.41682 0.67833 0.35085
 H2281 H 0.43951 0.68769 0.38385
 H2282 H 0.41401 0.76149 0.38142
 H2283 H 0.39100 0.68000 0.31589
 H2284 H 0.36263 0.69149 0.28722
 H2285 H 0.35945 0.76409 0.31307
 C2286 C 0.91109 0.20292 0.83043
 C2287 C 0.92255 0.20725 0.81085
 C2288 C 0.94670 0.21150 0.80945
 C2289 C 0.95937 0.21121 0.82892
 C2290 C 0.94781 0.20616 0.84912
 C2291 C 0.92335 0.20190 0.84973
 O2292 O 0.88786 0.20184 0.82891
 C2293 C 0.88444 0.20555 0.80794
 C2294 C 0.90505 0.20864 0.79596
 C2295 C 0.90507 0.21397 0.77376
 C2296 C 0.88297 0.21670 0.76381
 C2297 C 0.86173 0.21463 0.77632
 C2298 C 0.86253 0.20855 0.79853
 H2299 H 0.95532 0.21565 0.79407
 H2300 H 0.97802 0.21515 0.82834
 H2301 H 0.91387 0.19906 0.86502
 H2302 H 0.92140 0.21655 0.76460
 H2303 H 0.88234 0.22166 0.74679
 H2304 H 0.84648 0.20731 0.80846
 C2305 C 0.56972 1.03535 0.64154
 C2306 C 0.54854 1.02404 0.64361
 C2307 C 0.54132 1.01307 0.66276
 C2308 C 0.55647 1.01384 0.68056
 C2309 C 0.57831 1.02601 0.67932
 C2310 C 0.58475 1.03708 0.65929
 O2311 O 0.57389 1.04335 0.62150
 C2312 C 0.55480 1.03713 0.61077
 C2313 C 0.53857 1.02558 0.62365
 C2314 C 0.51726 1.01757 0.61575
 C2315 C 0.51265 1.02131 0.59358
 C2316 C 0.52952 1.03231 0.57980
 C2317 C 0.55084 1.04046 0.58855
 H2318 H 0.52465 1.00407 0.66394
 H2319 H 0.55044 1.00580 0.69561
 H2320 H 0.60141 1.04594 0.65716
 H2321 H 0.50475 1.00855 0.62622
 H2322 H 0.49641 1.01484 0.58694
 H2323 H 0.56403 1.04881 0.57828
 C2324 C 0.06823 0.52668 1.14391
 C2325 C 0.05766 0.54894 1.14187
 C2326 C 0.05940 0.56681 1.15759
 C2327 C 0.07269 0.56157 1.17609
 C2328 C 0.08375 0.53873 1.17863
 C2329 C 0.08126 0.52097 1.16234
 O2330 O 0.06508 0.51256 1.12676
 C2331 C 0.05221 0.52617 1.11366
 C2332 C 0.04708 0.54856 1.12218
 C2333 C 0.03401 0.56576 1.11107
 C2334 C 0.02589 0.55962 1.09033
 C2335 C 0.03118 0.53672 1.08102
 C2336 C 0.04456 0.51979 1.09296
 H2337 H 0.05107 0.58424 1.15557
 H2338 H 0.07441 0.57528 1.18847
 H2339 H 0.08977 0.50352 1.16371
 H2340 H 0.03032 0.58333 1.11803
 H2341 H 0.01592 0.57290 1.08136
 H2342 H 0.04897 0.50220 1.08634
 C2343 C -0.06843 -0.04713 1.15860
 C2344 C -0.04500 -0.04273 1.16197
 C2345 C -0.03668 -0.03620 1.18227
 C2346 C -0.05319 -0.03402 1.19976
 C2347 C -0.07756 -0.03895 1.19690
 C2348 C -0.08497 -0.04595 1.17583
 O2349 O -0.07319 -0.05084 1.13776
 C2350 C -0.05226 -0.04890 1.12775
 C2351 C -0.03432 -0.04430 1.14184
 C2352 C -0.01111 -0.04092 1.13468
 C2353 C -0.00633 -0.04184 1.11207
 C2354 C -0.02478 -0.04550 1.09719
 C2355 C -0.04800 -0.04944 1.10524
 H2356 H -0.01822 -0.03236 1.18448
 H2357 H -0.04675 -0.02904 1.21561
 H2358 H -0.10340 -0.04875 1.17243
 H2359 H 0.00271 -0.03718 1.14604
 H2360 H 0.01147 -0.03853 1.10612
 H2361 H -0.06248 -0.05206 1.09428
 C2362 C 0.45078 0.46395 0.67256
 C2363 C 0.47248 0.47188 0.67864
 C2364 C 0.47764 0.47664 0.70031
 C2365 C 0.45971 0.47323 0.71625
 C2366 C 0.43715 0.46459 0.71047
 C2367 C 0.43305 0.45969 0.68809
 O2368 O 0.44861 0.46227 0.65111
 C2369 C 0.46944 0.46911 0.64342
 C2370 C 0.48489 0.47491 0.65952
 C2371 C 0.50759 0.48291 0.65482
 C2372 C 0.51441 0.48529 0.63268
 C2373 C 0.49832 0.48030 0.61596
 C2374 C 0.47563 0.47187 0.62148
 H2375 H 0.49470 0.48321 0.70477
 H2376 H 0.46374 0.47678 0.73312
 H2377 H 0.41597 0.45426 0.68251
 H2378 H 0.51949 0.48744 0.66770
 H2379 H 0.53176 0.49192 0.62858
 H2380 H 0.46298 0.46801 0.60901
 C2381 C 0.42562 0.53669 -0.14006
 C2382 C 0.44908 0.54056 -0.14501
 C2383 C 0.45845 0.53846 -0.16621
 C2384 C 0.44297 0.53228 -0.18289
 C2385 C 0.41865 0.52863 -0.17812
 C2386 C 0.40993 0.53094 -0.15637
 O2387 O 0.42046 0.53804 -0.11886
 C2388 C 0.44106 0.54293 -0.11018
 C2389 C 0.45916 0.54490 -0.12542
 C2390 C 0.48237 0.54913 -0.11959
 C2391 C 0.48718 0.55067 -0.09718
 C2392 C 0.46893 0.54761 -0.08120
 C2393 C 0.44546 0.54427 -0.08795
 H2394 H 0.47703 0.54119 -0.16973
 H2395 H 0.44981 0.53058 -0.19951
 H2396 H 0.39154 0.52784 -0.15222
 H2397 H 0.49640 0.55046 -0.13181
 H2398 H 0.50529 0.55293 -0.09232
 H2399 H 0.43114 0.54162 -0.07623
 C2400 C -0.06958 1.03380 0.34926
 C2401 C -0.04601 1.03700 0.34430
 C2402 C -0.03696 1.03581 0.32294
 C2403 C -0.05292 1.03164 0.30609
 C2404 C -0.07740 1.02904 0.31087
 C2405 C -0.08570 1.02992 0.33284
 O2406 O -0.07464 1.03484 0.37049
 C2407 C -0.05386 1.03888 0.37920
 C2408 C -0.03573 1.04059 0.36396
 C2409 C -0.01249 1.04467 0.36983
 C2410 C -0.00771 1.04634 0.39226
 C2411 C -0.02604 1.04362 0.40824
 C2412 C -0.04951 1.04032 0.40144
 H2413 H -0.01832 1.03815 0.31936
 H2414 H -0.04641 1.03115 0.28932
 H2415 H -0.10426 1.02784 0.33699
 H2416 H 0.00155 1.04600 0.35761
 H2417 H 0.01038 1.04862 0.39715
 H2418 H -0.06391 1.03807 0.41315
 C2419 C 0.06328 0.48149 0.33651
 C2420 C 0.03960 0.48650 0.33344
 C2421 C 0.03001 0.48820 0.31279
 C2422 C 0.04546 0.48465 0.29464
 C2423 C 0.06983 0.47911 0.29748
 C2424 C 0.07882 0.47740 0.31873
 O2425 O 0.06897 0.48120 0.35738
 C2426 C 0.04847 0.48603 0.36772
 C2427 C 0.02986 0.48923 0.35390
 C2428 C 0.00672 0.49386 0.36149
 C2429 C 0.00266 0.49520 0.38424
 C2430 C 0.02170 0.49242 0.39875
 C2431 C 0.04491 0.48780 0.39025
 H2432 H 0.01138 0.49229 0.31072
 H2433 H 0.03848 0.48599 0.27838
 H2434 H 0.09739 0.47337 0.32127
 H2435 H -0.00770 0.49611 0.35033
 H2436 H -0.01522 0.49850 0.39053
 H2437 H 0.05974 0.48508 0.40090
 C2438 C 0.56912 -0.01837 -0.15663
 C2439 C 0.54544 -0.01336 -0.15964
 C2440 C 0.53584 -0.01104 -0.18022
 C2441 C 0.55127 -0.01395 -0.19843
 C2442 C 0.57569 -0.01947 -0.19579
 C2443 C 0.58471 -0.02184 -0.17456
 O2444 O 0.57468 -0.01941 -0.13572
 C2445 C 0.55407 -0.01506 -0.12532
 C2446 C 0.53557 -0.01144 -0.13919
 C2447 C 0.51234 -0.00730 -0.13171
 C2448 C 0.50799 -0.00694 -0.10901
 C2449 C 0.52683 -0.01019 -0.09435
 C2450 C 0.55023 -0.01422 -0.10271
 H2451 H 0.51718 -0.00700 -0.18221
 H2452 H 0.54420 -0.01221 -0.21463
 H2453 H 0.60329 -0.02596 -0.17212
 H2454 H 0.49803 -0.00472 -0.14294
 H2455 H 0.49001 -0.00403 -0.10285
 H2456 H 0.56489 -0.01727 -0.09194
 C2457 C 0.64223 0.62277 0.01538
 C2458 C 0.63873 0.62154 -0.00670
 C2459 C 0.65416 0.63114 -0.02194
 C2460 C 0.67423 0.64225 -0.01419
 C2461 C 0.67875 0.64379 0.00863
 C2462 C 0.66195 0.63412 0.02357
 O2463 O 0.62564 0.61184 0.02699
 C2464 C 0.61139 0.60366 0.01185
 C2465 C 0.61858 0.60925 -0.00902
 C2466 C 0.60637 0.60244 -0.02738
 C2467 C 0.58583 0.58931 -0.02412
 C2468 C 0.57804 0.58304 -0.00277
 C2469 C 0.59113 0.59038 0.01547
 H2470 H 0.65090 0.63008 -0.03925
 H2471 H 0.68572 0.65037 -0.02620
 H2472 H 0.66459 0.63426 0.04100
 H2473 H 0.61244 0.60705 -0.04364
 H2474 H 0.57617 0.58384 -0.03828
 H2475 H 0.58565 0.58604 0.03198
 C2476 C 0.14563 1.12023 0.50887
 C2477 C 0.14049 1.12332 0.48722
 C2478 C 0.15400 1.13721 0.47332
 C2479 C 0.17370 1.14823 0.48203
 C2480 C 0.17957 1.14520 0.50428
 C2481 C 0.16511 1.13112 0.51792
 O2482 O 0.13054 1.10627 0.51921
 C2483 C 0.11559 1.10046 0.50377
 C2484 C 0.12087 1.11044 0.48391
 C2485 C 0.10739 1.10681 0.46554
 C2486 C 0.08757 1.09238 0.46775
 C2487 C 0.08166 1.08185 0.48810
 C2488 C 0.09607 1.08598 0.50632
 H2489 H 0.14954 1.13948 0.45637
 H2490 H 0.18431 1.15929 0.47146
 H2491 H 0.16915 1.12840 0.53491
 H2492 H 0.11190 1.11490 0.45007
 H2493 H 0.07681 1.08954 0.45363
 H2494 H 0.09210 1.07842 0.52214
 C2495 C 0.15152 -0.11810 0.99426
 C2496 C 0.14608 -0.11902 1.01622
 C2497 C 0.15922 -0.13253 1.03070
 C2498 C 0.17915 -0.14525 1.02232
 C2499 C 0.18573 -0.14418 0.99983
 C2500 C 0.17138 -0.13069 0.98551
 O2501 O 0.13646 -0.10423 0.98342
 C2502 C 0.12128 -0.09624 0.99893
 C2503 C 0.12650 -0.10472 1.01927
 C2504 C 0.11306 -0.09876 1.03789
 C2505 C 0.09306 -0.08378 1.03544
 C2506 C 0.08675 -0.07510 1.01457
 C2507 C 0.10140 -0.08123 0.99608
 H2508 H 0.15440 -0.13314 1.04788
 H2509 H 0.18962 -0.15582 1.03344
 H2510 H 0.17596 -0.12943 0.96831
 H2511 H 0.11763 -0.10563 1.05373
 H2512 H 0.08224 -0.07938 1.04981
 H2513 H 0.09708 -0.07516 0.97990
 C2514 C 0.66463 0.39464 0.50754
 C2515 C 0.64512 0.38097 0.51104
 C2516 C 0.64479 0.35684 0.50574
 C2517 C 0.66559 0.34621 0.49671
 C2518 C 0.68653 0.35952 0.49415
 C2519 C 0.68592 0.38416 0.49982
 O2520 O 0.66038 0.41775 0.51145
 C2521 C 0.63776 0.41860 0.51790
 C2522 C 0.62785 0.39644 0.51844
 C2523 C 0.60443 0.39299 0.52465
 C2524 C 0.59042 0.41328 0.52993
 C2525 C 0.59975 0.43642 0.52816
 C2526 C 0.62383 0.43921 0.52226
 H2527 H 0.62896 0.34663 0.50809
 H2528 H 0.66563 0.32734 0.49275
 H2529 H 0.70125 0.39509 0.49735
 H2530 H 0.59707 0.37537 0.52498
 H2531 H 0.57185 0.41110 0.53404
 H2532 H 0.63114 0.45674 0.52034
 C2533 C -0.13659 0.39209 0.50562
 C2534 C -0.13134 0.38962 0.48364
 C2535 C -0.14282 0.37373 0.47029
 C2536 C -0.16087 0.36034 0.47981
 C2537 C -0.16728 0.36308 0.50230
 C2538 C -0.15454 0.37888 0.51549
 O2539 O -0.12341 0.40810 0.51535
 C2540 C -0.10965 0.41589 0.49916
 C2541 C -0.11388 0.40527 0.47940
 C2542 C -0.10143 0.41083 0.46031
 C2543 C -0.08342 0.42755 0.46175
 C2544 C -0.07812 0.43822 0.48210
 C2545 C -0.09188 0.43252 0.50097
 H2546 H -0.13825 0.37192 0.45309
 H2547 H -0.17023 0.34813 0.46954
 H2548 H -0.15913 0.38153 0.53262
 H2549 H -0.10513 0.40225 0.44491
 H2550 H -0.07304 0.43144 0.44720
 H2551 H -0.08835 0.44016 0.51681
 C2552 C 0.36517 -0.11458 0.00765
 C2553 C 0.37012 -0.11728 -0.01436
 C2554 C 0.35762 -0.13260 -0.02751
 C2555 C 0.33908 -0.14523 -0.01767
 C2556 C 0.33336 -0.14241 0.00497
 C2557 C 0.34693 -0.12703 0.01779
 O2558 O 0.37907 -0.09924 0.01730
 C2559 C 0.39309 -0.09212 0.00109
 C2560 C 0.38843 -0.10249 -0.01868
 C2561 C 0.40139 -0.09748 -0.03769
 C2562 C 0.42020 -0.08155 -0.03609
 C2563 C 0.42565 -0.07107 -0.01570
 C2564 C 0.41145 -0.07627 0.00300
 H2565 H 0.36184 -0.13462 -0.04476
 H2566 H 0.32909 -0.15710 -0.02773
 H2567 H 0.34291 -0.12420 0.03500
 H2568 H 0.39745 -0.10586 -0.05311
 H2569 H 0.43091 -0.07801 -0.05053
 H2570 H 0.41494 -0.06875 0.01890
 C2571 C 0.36338 1.13350 0.48186
 C2572 C 0.36997 1.13819 0.50292
 C2573 C 0.35657 1.15298 0.51705
 C2574 C 0.33528 1.16289 0.50937
 C2575 C 0.32761 1.15787 0.48791
 C2576 C 0.34222 1.14329 0.47381
 O2577 O 0.37845 1.11857 0.47130
 C2578 C 0.39480 1.11374 0.48602
 C2579 C 0.39042 1.12521 0.50566
 C2580 C 0.40502 1.12213 0.52349
 C2581 C 0.42507 1.10679 0.52091
 C2582 C 0.43025 1.09496 0.50069
 C2583 C 0.41467 1.09855 0.48305
 H2584 H 0.36209 1.15647 0.53354
 H2585 H 0.32449 1.17417 0.52032
 H2586 H 0.33678 1.13885 0.45749
 H2587 H 0.40112 1.13124 0.53887
 H2588 H 0.43671 1.10442 0.53455
 H2589 H 0.41787 1.08977 0.46741
 C2590 C -0.13912 0.62918 0.98347
 C2591 C -0.13161 0.63496 1.00402
 C2592 C -0.14403 0.65109 1.01769
 C2593 C -0.16525 0.66123 1.01008
 C2594 C -0.17370 0.65519 0.98913
 C2595 C -0.16012 0.63926 0.97547
 O2596 O -0.12519 0.61281 0.97345
 C2597 C -0.10863 0.60815 0.98797
 C2598 C -0.11171 0.62118 1.00697
 C2599 C -0.09672 0.61846 1.02456
 C2600 C -0.07773 0.60172 1.02243
 C2601 C -0.07406 0.58809 1.00292
 C2602 C -0.08990 0.59152 0.98548
 H2603 H -0.13790 0.65531 1.03383
 H2604 H -0.17544 0.67342 1.02069
 H2605 H -0.16632 0.63395 0.95962
 H2606 H -0.09961 0.62877 1.03946
 H2607 H -0.06590 0.59947 1.03594
 H2608 H -0.08787 0.58142 0.97037
 C2609 C 0.01849 0.64516 0.56822
 C2610 C 0.04113 0.63574 0.56969
 C2611 C 0.05985 0.64883 0.57711
 C2612 C 0.05486 0.67236 0.58404
 C2613 C 0.03135 0.68212 0.58390
 C2614 C 0.01305 0.66841 0.57528
 O2615 O 0.00331 0.62971 0.56056
 C2616 C 0.01665 0.61008 0.55730
 C2617 C 0.03986 0.61275 0.56289
 C2618 C 0.05670 0.59422 0.56146
 C2619 C 0.04945 0.57219 0.55338
 C2620 C 0.02586 0.56933 0.54652
 C2621 C 0.00917 0.58851 0.54885
 H2622 H 0.07759 0.64113 0.57782
 H2623 H 0.06923 0.68275 0.59007
 H2624 H -0.00511 0.67510 0.57516
 H2625 H 0.07481 0.59669 0.56620
 H2626 H 0.06244 0.55769 0.55161
 H2627 H -0.00896 0.58685 0.54382
 C2628 C 0.50643 0.13754 0.07875
 C2629 C 0.51432 0.12289 0.09510
 C2630 C 0.52117 0.13160 0.11522
 C2631 C 0.52031 0.15643 0.11840
 C2632 C 0.51297 0.17196 0.10148
 C2633 C 0.50549 0.16222 0.08153
 O2634 O 0.50159 0.12583 0.06060
 C2635 C 0.50663 0.10333 0.06556
 C2636 C 0.51459 0.10050 0.08642
 C2637 C 0.52211 0.07849 0.09446
 C2638 C 0.52131 0.05861 0.08039
 C2639 C 0.51291 0.06114 0.05887
 C2640 C 0.50539 0.08388 0.05148
 H2641 H 0.52733 0.11975 0.12785
 H2642 H 0.52574 0.16357 0.13392
 H2643 H 0.50024 0.17352 0.06815
 H2644 H 0.52864 0.07674 0.11084
 H2645 H 0.52713 0.04130 0.08625
 H2646 H 0.49929 0.08652 0.03504
 C2647 C -0.03184 0.12980 0.93140
 C2648 C -0.03462 0.13575 0.95316
 C2649 C -0.03832 0.15913 0.96050
 C2650 C -0.03866 0.17715 0.94477
 C2651 C -0.03525 0.17150 0.92226
 C2652 C -0.03232 0.14737 0.91552
 O2653 O -0.02744 0.10671 0.92790
 C2654 C -0.02736 0.09787 0.94788
 C2655 C -0.03165 0.11489 0.96394
 C2656 C -0.03123 0.10970 0.98607
 C2657 C -0.02614 0.08600 0.99184
 C2658 C -0.02171 0.06819 0.97553
 C2659 C -0.02249 0.07418 0.95324
 H2660 H -0.04035 0.16340 0.97772
 H2661 H -0.04119 0.19553 0.95013
 H2662 H -0.02932 0.14249 0.89853
 H2663 H -0.03443 0.12340 0.99844
 H2664 H -0.02573 0.08147 1.00898
 H2665 H -0.01865 0.06100 0.94053
 C2666 C 0.48022 0.65765 0.45745
 C2667 C 0.49012 0.66374 0.47690
 C2668 C 0.49190 0.68725 0.48398
 C2669 C 0.48343 0.70527 0.47023
 C2670 C 0.47363 0.69948 0.44980
 C2671 C 0.47185 0.67521 0.44351
 O2672 O 0.48054 0.63431 0.45360
 C2673 C 0.49097 0.62544 0.47101
 C2674 C 0.49729 0.64274 0.48568
 C2675 C 0.50905 0.63755 0.50472
 C2676 C 0.51431 0.61352 0.50896
 C2677 C 0.50766 0.59518 0.49427
 C2678 C 0.49581 0.60136 0.47497
 H2679 H 0.49976 0.69157 0.49941
 H2680 H 0.48478 0.72371 0.47537
 H2681 H 0.46509 0.67008 0.42782
 H2682 H 0.51398 0.65149 0.51593
 H2683 H 0.52322 0.60925 0.52393
 H2684 H 0.49051 0.58790 0.46342
 C2685 C 0.50152 0.87247 0.41918
 C2686 C 0.50860 0.88536 0.40129
 C2687 C 0.51416 0.87481 0.38114
 C2688 C 0.51300 0.84989 0.37955
 C2689 C 0.50668 0.83610 0.39803
 C2690 C 0.50024 0.84772 0.41796
 O2691 O 0.49817 0.88572 0.43707
 C2692 C 0.50340 0.90741 0.43038
 C2693 C 0.51000 0.90818 0.40865
 C2694 C 0.51774 0.92886 0.39869
 C2695 C 0.51863 0.94958 0.41167
 C2696 C 0.51162 0.94922 0.43406
 C2697 C 0.50377 0.92781 0.44345
 H2698 H 0.51979 0.88530 0.36731
 H2699 H 0.51765 0.84129 0.36408
 H2700 H 0.49585 0.83771 0.43246
 H2701 H 0.52326 0.92895 0.38165
 H2702 H 0.52463 0.96588 0.40427
 H2703 H 0.49872 0.92688 0.46057
 C2704 C 0.00187 0.35262 0.92875
 C2705 C -0.01573 0.35194 0.94457
 C2706 C -0.02651 0.33097 0.95071
 C2707 C -0.01871 0.30978 0.94016
 C2708 C -0.00064 0.30999 0.92363
 C2709 C 0.00957 0.33191 0.91778
 O2710 O 0.01064 0.37415 0.92614
 C2711 C -0.00171 0.38738 0.94067
 C2712 C -0.01815 0.37463 0.95226
 C2713 C -0.03254 0.38472 0.96871
 C2714 C -0.02975 0.40892 0.97356
 C2715 C -0.01264 0.42252 0.96207
 C2716 C 0.00147 0.41149 0.94524
 H2717 H -0.04004 0.33083 0.96351
 H2718 H -0.02633 0.29318 0.94531
 H2719 H 0.02325 0.33290 0.90519
 H2720 H -0.04524 0.37429 0.97770
 H2721 H -0.04071 0.41686 0.98657
 H2722 H 0.01493 0.42113 0.93640
 C2723 C 0.47946 0.35789 0.05990
 C2724 C 0.49253 0.35516 0.04082
 C2725 C 0.49875 0.33295 0.03175
 C2726 C 0.49122 0.31266 0.04291
 C2727 C 0.47784 0.31500 0.06275
 C2728 C 0.47201 0.33806 0.07131
 O2729 O 0.47523 0.38053 0.06564
 C2730 C 0.48590 0.39242 0.04980
 C2731 C 0.49683 0.37769 0.03429
 C2732 C 0.50908 0.38626 0.01630
 C2733 C 0.50991 0.41103 0.01404
 C2734 C 0.49844 0.42678 0.02961
 C2735 C 0.48635 0.41720 0.04785
 H2736 H 0.50897 0.33130 0.01662
 H2737 H 0.49572 0.29519 0.03608
 H2738 H 0.46236 0.34061 0.08667
 H2739 H 0.51754 0.37431 0.00432
 H2740 H 0.51919 0.41782 -0.00015
 H2741 H 0.47734 0.42858 0.05997
 C2742 C -0.01775 0.85890 0.55586
 C2743 C -0.00518 0.85495 0.53664
 C2744 C 0.00052 0.83218 0.52854
 C2745 C -0.00699 0.81267 0.54086
 C2746 C -0.01984 0.81632 0.56087
 C2747 C -0.02517 0.83989 0.56839
 O2748 O -0.02151 0.88183 0.56065
 C2749 C -0.01105 0.89268 0.54407
 C2750 C -0.00069 0.87703 0.52900
 C2751 C 0.01133 0.88454 0.51042
 C2752 C 0.01250 0.90916 0.50712
 C2753 C 0.00161 0.92577 0.52226
 C2754 C -0.01024 0.91726 0.54109
 H2755 H 0.01035 0.82953 0.51329
 H2756 H -0.00289 0.79479 0.53480
 H2757 H -0.03441 0.84345 0.58380
 H2758 H 0.01937 0.87190 0.49881
 H2759 H 0.02159 0.91519 0.49252
 H2760 H -0.01877 0.92932 0.55293
 C2761 C 0.27157 0.30865 0.08861
 C2762 C 0.29418 0.30130 0.09360
 C2763 C 0.31400 0.30816 0.08167
 C2764 C 0.31042 0.32346 0.06401
 C2765 C 0.28719 0.33120 0.05816
 C2766 C 0.26747 0.32306 0.07055
 O2767 O 0.25540 0.30196 0.10324
 C2768 C 0.26810 0.29000 0.11769
 C2769 C 0.29190 0.28879 0.11236
 C2770 C 0.30854 0.27772 0.12551
 C2771 C 0.30036 0.26776 0.14511
 C2772 C 0.27603 0.26959 0.15143
 C2773 C 0.25965 0.28069 0.13736
 H2774 H 0.33167 0.30244 0.08614
 H2775 H 0.32583 0.32880 0.05463
 H2776 H 0.24955 0.32912 0.06729
 H2777 H 0.32721 0.27715 0.12107
 H2778 H 0.31314 0.25959 0.15580
 H2779 H 0.24103 0.28258 0.14185
 C2780 C 0.77565 0.81310 0.59189
 C2781 C 0.79724 0.80153 0.59410
 C2782 C 0.81612 0.80448 0.57945
 C2783 C 0.81260 0.82006 0.56191
 C2784 C 0.79043 0.83207 0.55927
 C2785 C 0.77166 0.82832 0.57441
 O2786 O 0.76047 0.80899 0.60818
 C2787 C 0.77270 0.79448 0.62096
 C2788 C 0.79526 0.78921 0.61306
 C2789 C 0.81128 0.77491 0.62429
 C2790 C 0.80383 0.76592 0.64458
 C2791 C 0.78080 0.77159 0.65332
 C2792 C 0.76500 0.78591 0.64112
 H2793 H 0.83307 0.79545 0.58166
 H2794 H 0.82710 0.82286 0.55042
 H2795 H 0.75472 0.83764 0.57304
 H2796 H 0.82902 0.77117 0.61787
 H2797 H 0.81629 0.75527 0.65378
 H2798 H 0.74740 0.79076 0.64734
 C2799 C 0.21587 0.67370 0.59994
 C2800 C 0.21127 0.69783 0.59820
 C2801 C 0.21040 0.70934 0.57819
 C2802 C 0.21429 0.69540 0.55918
 C2803 C 0.21857 0.67043 0.56053
 C2804 C 0.21932 0.65943 0.58122
 O2805 O 0.21692 0.66646 0.62050
 C2806 C 0.21280 0.68644 0.63201
 C2807 C 0.20901 0.70608 0.61913
 C2808 C 0.20450 0.72881 0.62777
 C2809 C 0.20425 0.73152 0.65057
 C2810 C 0.20881 0.71171 0.66435
 C2811 C 0.21291 0.68876 0.65478
 H2812 H 0.20703 0.72839 0.57724
 H2813 H 0.21371 0.70392 0.54341
 H2814 H 0.22278 0.64042 0.58264
 H2815 H 0.20156 0.74400 0.61730
 H2816 H 0.20121 0.74925 0.65741
 H2817 H 0.21654 0.67325 0.66469
 C2818 C 0.71995 0.18766 0.09289
 C2819 C 0.72870 0.21005 0.09005
 C2820 C 0.73603 0.21824 0.06966
 C2821 C 0.73414 0.20279 0.05152
 C2822 C 0.72437 0.17973 0.05382
 C2823 C 0.71729 0.17234 0.07513
 O2824 O 0.71515 0.18263 0.11362
 C2825 C 0.72077 0.20237 0.12418
 C2826 C 0.72889 0.21988 0.11054
 C2827 C 0.73556 0.24207 0.11836
 C2828 C 0.73402 0.24622 0.14107
 C2829 C 0.72647 0.22809 0.15547
 C2830 C 0.71964 0.20590 0.14678
 H2831 H 0.74314 0.23585 0.06778
 H2832 H 0.73951 0.20928 0.03563
 H2833 H 0.71090 0.15463 0.07821
 H2834 H 0.74185 0.25566 0.10739
 H2835 H 0.73943 0.26322 0.14751
 H2836 H 0.71375 0.19174 0.15733
 C2837 C 0.78135 0.17895 0.89914
 C2838 C 0.79207 0.16232 0.88525
 C2839 C 0.79739 0.13909 0.89138
 C2840 C 0.79222 0.13283 0.91296
 C2841 C 0.78250 0.14985 0.92832
 C2842 C 0.77644 0.17321 0.92106
 O2843 O 0.77647 0.19958 0.88931
 C2844 C 0.78446 0.19578 0.86887
 C2845 C 0.79442 0.17329 0.86576
 C2846 C 0.80343 0.16501 0.84572
 C2847 C 0.80134 0.18020 0.82786
 C2848 C 0.79030 0.20310 0.83021
 C2849 C 0.78210 0.21130 0.85110
 H2850 H 0.80510 0.12613 0.87988
 H2851 H 0.79598 0.11458 0.91768
 H2852 H 0.76875 0.18658 0.93216
 H2853 H 0.81108 0.14718 0.84376
 H2854 H 0.80724 0.17368 0.81188
 H2855 H 0.77291 0.22841 0.85314
 C2856 C 0.28524 0.68665 0.40914
 C2857 C 0.30285 0.67585 0.39639
 C2858 C 0.31607 0.65621 0.40316
 C2859 C 0.31143 0.64762 0.42416
 C2860 C 0.29443 0.65920 0.43854
 C2861 C 0.28085 0.67890 0.43054
 O2862 O 0.27362 0.70400 0.39878
 C2863 C 0.28433 0.70417 0.37917
 C2864 C 0.30258 0.68749 0.37709
 C2865 C 0.31617 0.68427 0.35803
 C2866 C 0.31031 0.69837 0.34010
 C2867 C 0.29097 0.71497 0.34140
 C2868 C 0.27788 0.71817 0.36127
 H2869 H 0.32921 0.64746 0.39246
 H2870 H 0.32112 0.63170 0.42893
 H2871 H 0.26757 0.68821 0.44066
 H2872 H 0.33045 0.67100 0.35685
 H2873 H 0.32011 0.69557 0.32482
 H2874 H 0.26267 0.73033 0.36243
 C2875 C 0.73186 0.81187 0.40955
 C2876 C 0.73148 0.78796 0.41442
 C2877 C 0.73094 0.77988 0.43590
 C2878 C 0.73045 0.79717 0.45284
 C2879 C 0.73019 0.82186 0.44793
 C2880 C 0.73120 0.82913 0.42595
 O2881 O 0.73249 0.81618 0.38838
 C2882 C 0.73242 0.79458 0.37953
 C2883 C 0.73167 0.77654 0.39458
 C2884 C 0.73101 0.75256 0.38833
 C2885 C 0.73137 0.74712 0.36577
 C2886 C 0.73268 0.76559 0.35012
 C2887 C 0.73303 0.78961 0.35731
 H2888 H 0.73074 0.76102 0.43949
 H2889 H 0.72968 0.79143 0.46965
 H2890 H 0.73127 0.84784 0.42169
 H2891 H 0.73024 0.73856 0.40035
 H2892 H 0.73105 0.72863 0.36053
 H2893 H 0.73367 0.80424 0.34591
 C2894 C 0.23804 0.30906 0.90587
 C2895 C 0.23806 0.28503 0.91033
 C2896 C 0.23655 0.27653 0.93164
 C2897 C 0.23466 0.29345 0.94885
 C2898 C 0.23390 0.31825 0.94441
 C2899 C 0.23584 0.32603 0.92260
 O2900 O 0.23938 0.31371 0.88474
 C2901 C 0.24014 0.29221 0.87552
 C2902 C 0.23921 0.27394 0.89031
 C2903 C 0.23863 0.25005 0.88374
 C2904 C 0.23901 0.24495 0.86111
 C2905 C 0.24036 0.26361 0.84564
 C2906 C 0.24100 0.28754 0.85318
 H2907 H 0.23659 0.25759 0.93490
 H2908 H 0.23307 0.28734 0.96551
 H2909 H 0.23526 0.34486 0.91876
 H2910 H 0.23757 0.23589 0.89557
 H2911 H 0.23831 0.22656 0.85566
 H2912 H 0.24147 0.30232 0.84194
 C2913 C 0.87479 0.37977 0.73295
 C2914 C 0.87750 0.37492 0.75476
 C2915 C 0.89037 0.38937 0.76841
 C2916 C 0.90051 0.40973 0.75931
 C2917 C 0.89774 0.41526 0.73690
 C2918 C 0.88499 0.39976 0.72349
 O2919 O 0.86107 0.36444 0.72303
 C2920 C 0.85499 0.34964 0.73887
 C2921 C 0.86459 0.35514 0.75861
 C2922 C 0.85989 0.34214 0.77744
 C2923 C 0.84463 0.32276 0.77584
 C2924 C 0.83430 0.31690 0.75565
 C2925 C 0.83981 0.33064 0.73694
 H2926 H 0.89217 0.38537 0.78554
 H2927 H 0.91034 0.42136 0.76975
 H2928 H 0.88230 0.40369 0.70645
 H2929 H 0.86753 0.34686 0.79287
 H2930 H 0.84062 0.31260 0.79034
 H2931 H 0.83233 0.32686 0.72122
 C2932 C 0.37164 0.88825 0.24292
 C2933 C 0.36735 0.88807 0.26509
 C2934 C 0.37575 0.90538 0.27899
 C2935 C 0.38895 0.92371 0.26970
 C2936 C 0.39380 0.92456 0.24671
 C2937 C 0.38506 0.90607 0.23331
 O2938 O 0.36147 0.87052 0.23252
 C2939 C 0.35064 0.85889 0.24849
 C2940 C 0.35378 0.86878 0.26878
 C2941 C 0.34397 0.85930 0.28777
 C2942 C 0.33034 0.83880 0.28573
 C2943 C 0.32655 0.82849 0.26490
 C2944 C 0.33697 0.83879 0.24606
 H2945 H 0.37224 0.90484 0.29642
 H2946 H 0.39603 0.93667 0.28078
 H2947 H 0.38752 0.90599 0.21574
 H2948 H 0.34671 0.86738 0.30358
 H2949 H 0.32252 0.83119 0.30029
 H2950 H 0.33465 0.83130 0.22992
 C2951 C 0.13705 0.89080 0.76451
 C2952 C 0.13585 0.88505 0.74270
 C2953 C 0.12272 0.89847 0.72814
 C2954 C 0.11064 0.91894 0.73628
 C2955 C 0.11200 0.92576 0.75860
 C2956 C 0.12514 0.91118 0.77300
 O2957 O 0.15040 0.87539 0.77549
 C2958 C 0.15777 0.85966 0.76025
 C2959 C 0.14940 0.86486 0.73992
 C2960 C 0.15474 0.85081 0.72158
 C2961 C 0.16898 0.83024 0.72434
 C2962 C 0.17757 0.82405 0.74521
 C2963 C 0.17205 0.83928 0.76338
 H2964 H 0.12187 0.89341 0.71110
 H2965 H 0.10027 0.92955 0.72512
 H2966 H 0.12656 0.91590 0.79008
 H2967 H 0.14794 0.85535 0.70575
 H2968 H 0.17292 0.81895 0.71020
 H2969 H 0.17808 0.83508 0.77957
 C2970 C 0.64098 0.39694 0.26868
 C2971 C 0.63530 0.39039 0.24779
 C2972 C 0.61682 0.40120 0.23669
 C2973 C 0.60421 0.42007 0.24722
 C2974 C 0.61031 0.42804 0.26841
 C2975 C 0.62863 0.41582 0.27952
 O2976 O 0.65904 0.38407 0.27630
 C2977 C 0.66486 0.36923 0.25982
 C2978 C 0.65101 0.37250 0.24194
 C2979 C 0.65407 0.35890 0.22289
 C2980 C 0.67159 0.34058 0.22253
 C2981 C 0.68552 0.33605 0.24110
 C2982 C 0.68236 0.35111 0.25983
 H2983 H 0.61250 0.39557 0.22036
 H2984 H 0.59011 0.42905 0.23856
 H2985 H 0.63386 0.42158 0.29557
 H2986 H 0.64297 0.36190 0.20898
 H2987 H 0.67343 0.32922 0.20817
 H2988 H 0.69246 0.34815 0.27440
 C2989 C 0.63767 0.60499 0.24617
 C2990 C 0.63395 0.61229 0.26752
 C2991 C 0.61683 0.60263 0.28116
 C2992 C 0.60351 0.58412 0.27272
 C2993 C 0.60759 0.57542 0.25105
 C2994 C 0.62455 0.58648 0.23739
 O2995 O 0.65494 0.61659 0.23612
 C2996 C 0.66230 0.63138 0.25151
 C2997 C 0.65013 0.62927 0.27105
 C2998 C 0.65513 0.64271 0.28947
 C2999 C 0.67299 0.65951 0.28756
 C3000 C 0.68534 0.66278 0.26737
 C3001 C 0.68006 0.64812 0.24918
 H3002 H 0.61414 0.60879 0.29785
 H3003 H 0.59051 0.57595 0.28332
 H3004 H 0.62827 0.58004 0.22092
 H3005 H 0.64536 0.64061 0.30471
 H3006 H 0.67646 0.67062 0.30161
 H3007 H 0.68896 0.65016 0.23349
 C3008 C 0.13655 0.10505 0.74033
 C3009 C 0.13130 0.11177 0.76162
 C3010 C 0.11369 0.10118 0.77405
 C3011 C 0.10159 0.08240 0.76444
 C3012 C 0.10730 0.07437 0.74280
 C3013 C 0.12468 0.08633 0.73039
 O3014 O 0.15390 0.11748 0.73142
 C3015 C 0.15973 0.13222 0.74743
 C3016 C 0.14659 0.12937 0.76632
 C3017 C 0.15003 0.14292 0.78513
 C3018 C 0.16719 0.16067 0.78419
 C3019 C 0.18033 0.16461 0.76460
 C3020 C 0.17677 0.14971 0.74614
 H3021 H 0.10971 0.10683 0.79070
 H3022 H 0.08829 0.07347 0.77413
 H3023 H 0.12968 0.08043 0.71400
 H3024 H 0.13954 0.14027 0.79987
 H3025 H 0.16942 0.17202 0.79835
 H3026 H 0.18640 0.15221 0.73088
 C3027 C 0.36778 0.10474 0.25355
 C3028 C 0.36830 0.10870 0.23143
 C3029 C 0.38101 0.09406 0.21666
 C3030 C 0.39367 0.07448 0.22502
 C3031 C 0.39349 0.06994 0.24779
 C3032 C 0.38044 0.08545 0.26227
 O3033 O 0.35420 0.12058 0.26464
 C3034 C 0.34603 0.13483 0.24916
 C3035 C 0.35421 0.12836 0.22859
 C3036 C 0.34785 0.14070 0.20998
 C3037 C 0.33232 0.16051 0.21265
 C3038 C 0.32335 0.16754 0.23368
 C3039 C 0.33046 0.15442 0.25221
 H3040 H 0.38111 0.09754 0.19932
 H3041 H 0.40383 0.06295 0.21378
 H3042 H 0.37986 0.08234 0.27968
 H3043 H 0.35453 0.13521 0.19395
 H3044 H 0.32714 0.17019 0.19824
 H3045 H 0.32403 0.15922 0.26850
 C3046 C 0.86801 0.60257 0.75495
 C3047 C 0.87255 0.60949 0.73382
 C3048 C 0.88703 0.59615 0.71937
 C3049 C 0.89707 0.57468 0.72691
 C3050 C 0.89259 0.56694 0.74859
 C3051 C 0.87803 0.58133 0.76289
 O3052 O 0.85317 0.61754 0.76576
 C3053 C 0.84828 0.63422 0.75111
 C3054 C 0.85974 0.63013 0.73134
 C3055 C 0.85680 0.64504 0.71355
 C3056 C 0.84133 0.66496 0.71618
 C3057 C 0.82905 0.66963 0.73636
 C3058 C 0.83280 0.65396 0.75412
 H3059 H 0.89028 0.60193 0.70279
 H3060 H 0.90837 0.56405 0.71584
 H3061 H 0.87409 0.57579 0.77943
 H3062 H 0.86594 0.64136 0.69811
 H3063 H 0.83883 0.67659 0.70238
 H3064 H 0.82370 0.65680 0.76971
 C3065 C 0.90028 0.75818 0.18926
 C3066 C 0.89029 0.78040 0.18586
 C3067 C 0.90260 0.79882 0.17645
 C3068 C 0.92597 0.79392 0.16942
 C3069 C 0.93655 0.77055 0.17111
 C3070 C 0.92348 0.75274 0.18216
 O3071 O 0.88527 0.74317 0.19836
 C3072 C 0.86536 0.75623 0.20053
 C3073 C 0.86750 0.77906 0.19288
 C3074 C 0.84860 0.79538 0.19227
 C3075 C 0.82661 0.78801 0.20027
 C3076 C 0.82407 0.76489 0.20916
 C3077 C 0.84376 0.74870 0.20915
 H3078 H 0.89446 0.81635 0.17446
 H3079 H 0.93564 0.80865 0.16274
 H3080 H 0.93014 0.73459 0.18375
 H3081 H 0.85067 0.81310 0.18574
 H3082 H 0.81170 0.80054 0.20001
 H3083 H 0.84231 0.73087 0.21561
 C3084 C 0.38695 0.25892 0.67331
 C3085 C 0.37283 0.26807 0.65726
 C3086 C 0.38205 0.27699 0.63785
 C3087 C 0.40680 0.27661 0.63503
 C3088 C 0.42169 0.26766 0.65165
 C3089 C 0.41142 0.25858 0.67098
 O3090 O 0.37492 0.25172 0.69069
 C3091 C 0.35270 0.25649 0.68557
 C3092 C 0.35033 0.26662 0.66537
 C3093 C 0.32848 0.27396 0.65737
 C3094 C 0.30834 0.27069 0.67082
 C3095 C 0.31053 0.26004 0.69163
 C3096 C 0.33308 0.25280 0.69895
 H3097 H 0.37064 0.28407 0.62539
 H3098 H 0.41432 0.28329 0.61995
 H3099 H 0.42211 0.25212 0.68422
 H3100 H 0.32704 0.28217 0.64153
 H3101 H 0.29115 0.27641 0.66505
 H3102 H 0.33546 0.24508 0.71490
 C3103 C 0.38239 0.70677 0.82634
 C3104 C 0.38695 0.70171 0.80461
 C3105 C 0.40975 0.69877 0.79579
 C3106 C 0.42867 0.70190 0.80981
 C3107 C 0.42446 0.70803 0.83212
 C3108 C 0.40096 0.70976 0.84061
 O3109 O 0.35956 0.71095 0.83098
 C3110 C 0.34953 0.70872 0.81173
 C3111 C 0.36557 0.70315 0.79507
 C3112 C 0.35938 0.70239 0.77328
 C3113 C 0.33574 0.70774 0.76843
 C3114 C 0.31885 0.71349 0.78530
 C3115 C 0.32574 0.71355 0.80732
 H3116 H 0.41288 0.69519 0.77856
 H3117 H 0.44659 0.70052 0.80315
 H3118 H 0.39724 0.71512 0.85740
 H3119 H 0.37243 0.69855 0.76041
 H3120 H 0.33059 0.70760 0.75152
 H3121 H 0.31328 0.71841 0.82042
 C3122 C 0.88099 0.20470 0.32820
 C3123 C 0.88556 0.19949 0.30652
 C3124 C 0.90826 0.19828 0.29734
 C3125 C 0.92703 0.20351 0.31086
 C3126 C 0.92294 0.20948 0.33328
 C3127 C 0.89954 0.20888 0.34223
 O3128 O 0.85814 0.20897 0.33278
 C3129 C 0.84813 0.20658 0.31352
 C3130 C 0.86421 0.20055 0.29700
 C3131 C 0.85842 0.20022 0.27514
 C3132 C 0.83527 0.20694 0.26998
 C3133 C 0.81850 0.21390 0.28658
 C3134 C 0.82472 0.21298 0.30875
 H3135 H 0.91131 0.19485 0.28007
 H3136 H 0.94476 0.20330 0.30372
 H3137 H 0.89553 0.21440 0.35893
 H3138 H 0.87156 0.19608 0.26242
 H3139 H 0.83056 0.20755 0.25295
 H3140 H 0.81239 0.21893 0.32160
 C3141 C 0.08893 0.25781 0.30060
 C3142 C 0.08663 0.24066 0.28468
 C3143 C 0.06471 0.23317 0.27783
 C3144 C 0.04439 0.24358 0.28808
 C3145 C 0.04641 0.26108 0.30481
 C3146 C 0.06912 0.26825 0.31100
 O3147 O 0.11120 0.26286 0.30448
 C3148 C 0.12331 0.24859 0.29068
 C3149 C 0.10916 0.23453 0.27825
 C3150 C 0.11829 0.21860 0.26250
 C3151 C 0.14294 0.21761 0.25905
 C3152 C 0.15786 0.23253 0.27123
 C3153 C 0.14777 0.24788 0.28758
 H3154 H 0.06331 0.21979 0.26511
 H3155 H 0.02714 0.23799 0.28307
 H3156 H 0.07143 0.28113 0.32399
 H3157 H 0.10683 0.20771 0.25290
 H3158 H 0.15024 0.20578 0.24638
 H3159 H 0.15848 0.25968 0.29705
 C3160 C 0.59403 0.75541 0.80428
 C3161 C 0.59195 0.73894 0.78774
 C3162 C 0.57013 0.73130 0.78075
 C3163 C 0.54967 0.74094 0.79141
 C3164 C 0.55144 0.75782 0.80869
 C3165 C 0.57408 0.76500 0.81514
 O3166 O 0.61622 0.76090 0.80809
 C3167 C 0.62850 0.74761 0.79361
 C3168 C 0.61455 0.73373 0.78083
 C3169 C 0.62383 0.71884 0.76433
 C3170 C 0.64843 0.71870 0.76053
 C3171 C 0.66316 0.73346 0.77309
 C3172 C 0.65293 0.74778 0.79014
 H3173 H 0.56890 0.71849 0.76753
 H3174 H 0.53252 0.73535 0.78615
 H3175 H 0.57626 0.77742 0.82852
 H3176 H 0.61252 0.70809 0.75444
 H3177 H 0.65582 0.70764 0.74734
 H3178 H 0.66349 0.75939 0.79995
 C3179 C 0.60136 0.23377 0.69762
 C3180 C 0.59864 0.24901 0.71524
 C3181 C 0.57656 0.25538 0.72444
 C3182 C 0.55649 0.24588 0.71482
 C3183 C 0.55893 0.23036 0.69640
 C3184 C 0.58182 0.22428 0.68783
 O3185 O 0.62374 0.22960 0.69148
 C3186 C 0.63551 0.24251 0.70553
 C3187 C 0.62102 0.25486 0.72035
 C3188 C 0.62979 0.26924 0.73668
 C3189 C 0.65447 0.27038 0.73815
 C3190 C 0.66982 0.25713 0.72347
 C3191 C 0.66002 0.24340 0.70664
 H3192 H 0.57484 0.26731 0.73842
 H3193 H 0.53912 0.25073 0.72157
 H3194 H 0.58446 0.21309 0.67344
 H3195 H 0.61807 0.27881 0.74816
 H3196 H 0.66155 0.28097 0.75121
 H3197 H 0.67106 0.23285 0.69530
 C3198 C 0.10849 0.71949 0.19580
 C3199 C 0.10391 0.73180 0.21498
 C3200 C 0.08124 0.73514 0.22400
 C3201 C 0.06240 0.72586 0.21245
 C3202 C 0.06654 0.71385 0.19214
 C3203 C 0.09008 0.71038 0.18395
 O3204 O 0.13130 0.71827 0.19009
 C3205 C 0.14135 0.73021 0.20600
 C3206 C 0.12530 0.73903 0.22149
 C3207 C 0.13179 0.75255 0.23929
 C3208 C 0.15591 0.75668 0.24154
 C3209 C 0.17307 0.74703 0.22623
 C3210 C 0.16553 0.73384 0.20801
 H3211 H 0.07814 0.74475 0.23925
 H3212 H 0.04458 0.72845 0.21910
 H3213 H 0.09399 0.70189 0.16830
 H3214 H 0.11880 0.75949 0.25115
 H3215 H 0.16116 0.76677 0.25568
 H3216 H 0.17805 0.72619 0.19606
   
