data_POSCAR
  _audit_creation_date              2014-09-24
  _audit_creation_method            'ToBaCCo'
  _symmetry_space_group_name_H-M    'P1'
  _symmetry_Int_Tables_number       1
  _symmetry_cell_setting            triclinic
  loop_
  _symmetry_equiv_pos_as_xyz
 x,y,z
_cell_length_a 55.2542
_cell_length_b 54.7987
_cell_length_c 55.8082
_cell_angle_alpha 89.960100
_cell_angle_beta 89.558300
_cell_angle_gamma 90.537400
loop_
  _atom_site_label
  _atom_site_type_symbol
  _atom_site_fract_x
  _atom_site_fract_y
  _atom_site_fract_z
C1 C 0.32723 1.36291 0.33145
 C2 C 0.33563 1.37564 0.31101
 C3 C 0.35483 1.36640 0.29679
 C4 C 0.36551 1.34425 0.30391
 C5 C 0.35762 1.33172 0.32436
 C6 C 0.33829 1.34090 0.33811
 C7 C 0.30768 1.37167 0.34513
 C8 C 0.29843 1.35843 0.36504
 C9 C 0.31029 1.33673 0.37173
 C10 C 0.33013 1.32804 0.35855
 C11 C 0.34195 1.30661 0.36551
 C12 C 0.36140 1.29753 0.35192
 C13 C 0.36900 1.31012 0.33128
 H14 H 0.32645 1.39218 0.30604
 H15 H 0.38045 1.33666 0.29376
 H16 H 0.29914 1.38847 0.33960
 H17 H 0.30481 1.32671 0.38758
 H18 H 0.33588 1.29683 0.38138
 H19 H 0.38424 1.30348 0.32091
 C20 C 0.34644 0.87425 0.84832
 C21 C 0.35638 0.88573 0.82784
 C22 C 0.37872 0.87810 0.81820
 C23 C 0.39074 0.85849 0.82891
 C24 C 0.38103 0.84680 0.84910
 C25 C 0.35894 0.85480 0.85902
 C26 C 0.32415 0.88169 0.85814
 C27 C 0.31436 0.87043 0.87897
 C28 C 0.32718 0.85083 0.88919
 C29 C 0.34908 0.84286 0.87925
 C30 C 0.36095 0.82259 0.88890
 C31 C 0.38271 0.81426 0.87875
 C32 C 0.39280 0.82670 0.85903
 H33 H 0.34685 0.90065 0.81947
 H34 H 0.40739 0.85173 0.82110
 H35 H 0.31472 0.89666 0.84975
 H36 H 0.31981 0.84070 0.90422
 H37 H 0.35310 0.81305 0.90415
 H38 H 0.40927 0.82012 0.85070
 C39 C 0.84601 1.37006 0.84236
 C40 C 0.85724 1.38138 0.82239
 C41 C 0.88067 1.37439 0.81469
 C42 C 0.89238 1.35566 0.82721
 C43 C 0.88090 1.34342 0.84606
 C44 C 0.85780 1.35065 0.85391
 C45 C 0.82299 1.37729 0.85063
 C46 C 0.81156 1.36503 0.86995
 C47 C 0.82349 1.34544 0.88097
 C48 C 0.84630 1.33798 0.87292
 C49 C 0.85749 1.31748 0.88300
 C50 C 0.87983 1.30945 0.87399
 C51 C 0.89183 1.32309 0.85626
 H52 H 0.84784 1.39578 0.81304
 H53 H 0.90968 1.34883 0.82110
 H54 H 0.81383 1.39220 0.84185
 H55 H 0.81515 1.33602 0.89602
 H56 H 0.84830 1.30709 0.89694
 H57 H 0.90945 1.31735 0.84982
 C58 C 0.83256 0.87072 0.33235
 C59 C 0.84212 0.88159 0.31162
 C60 C 0.86397 0.87340 0.30125
 C61 C 0.87668 0.85479 0.31321
 C62 C 0.86730 0.84388 0.33411
 C63 C 0.84501 0.85170 0.34363
 C64 C 0.81041 0.87850 0.34169
 C65 C 0.80001 0.86718 0.36190
 C66 C 0.81264 0.84835 0.37341
 C67 C 0.83508 0.84042 0.36429
 C68 C 0.84760 0.82118 0.37516
 C69 C 0.86997 0.81331 0.36578
 C70 C 0.87964 0.82482 0.34526
 H71 H 0.83231 0.89666 0.30409
 H72 H 0.89364 0.84814 0.30596
 H73 H 0.80123 0.89353 0.33312
 H74 H 0.80478 0.83961 0.38911
 H75 H 0.83996 0.81232 0.39089
 H76 H 0.89642 0.81844 0.33742
 C77 C 0.66092 0.63452 0.33153
 C78 C 0.64801 0.62709 0.31112
 C79 C 0.62601 0.63834 0.30465
 C80 C 0.61753 0.65774 0.31907
 C81 C 0.63067 0.66593 0.33902
 C82 C 0.65234 0.65423 0.34532
 C83 C 0.68232 0.62261 0.33836
 C84 C 0.69532 0.63035 0.35871
 C85 C 0.68684 0.65047 0.37184
 C86 C 0.66556 0.66242 0.36533
 C87 C 0.65742 0.68254 0.37855
 C88 C 0.63619 0.69476 0.37206
 C89 C 0.62268 0.68601 0.35252
 H90 H 0.65494 0.61204 0.30059
 H91 H 0.60136 0.66753 0.31432
 H92 H 0.68896 0.60756 0.32768
 H93 H 0.69669 0.65671 0.38744
 H94 H 0.66761 0.68857 0.39400
 H95 H 0.60623 0.69525 0.34744
 C96 C 0.67041 0.13038 0.83777
 C97 C 0.66225 0.11768 0.81725
 C98 C 0.64209 0.12617 0.80427
 C99 C 0.62964 0.14673 0.81268
 C100 C 0.63746 0.15945 0.83283
 C101 C 0.65815 0.15163 0.84515
 C102 C 0.69091 0.12276 0.85071
 C103 C 0.70009 0.13700 0.86989
 C104 C 0.68755 0.15818 0.87664
 C105 C 0.66667 0.16530 0.86472
 C106 C 0.65428 0.18615 0.87214
 C107 C 0.63340 0.19372 0.86022
 C108 C 0.62511 0.18032 0.84047
 H109 H 0.67209 0.10189 0.81098
 H110 H 0.61383 0.15314 0.80325
 H111 H 0.70031 0.10641 0.84516
 H112 H 0.69324 0.16877 0.89201
 H113 H 0.66088 0.19650 0.88734
 H114 H 0.60949 0.18646 0.83060
 C115 C 1.17057 0.63584 0.83365
 C116 C 1.15766 0.62391 0.81525
 C117 C 1.13572 0.63359 0.80678
 C118 C 1.12680 0.65524 0.81676
 C119 C 1.13961 0.66756 0.83458
 C120 C 1.16162 0.65800 0.84291
 C121 C 1.19230 0.62630 0.84287
 C122 C 1.20567 0.63926 0.86043
 C123 C 1.19629 0.66140 0.86911
 C124 C 1.17460 0.67067 0.86062
 C125 C 1.16567 0.69251 0.86993
 C126 C 1.14392 0.70218 0.86159
 C127 C 1.13083 0.68951 0.84404
 H128 H 1.16456 0.60719 0.80756
 H129 H 1.11018 0.66298 0.81004
 H130 H 1.19909 0.60919 0.83591
 H131 H 1.20505 0.67113 0.88354
 H132 H 1.17553 0.70173 0.88404
 H133 H 1.11395 0.69687 0.83756
 C134 C 1.16650 0.13172 0.33696
 C135 C 1.15881 0.11836 0.31691
 C136 C 1.14041 0.12722 0.30186
 C137 C 1.12939 0.14963 0.30792
 C138 C 1.13621 0.16268 0.32851
 C139 C 1.15517 0.15386 0.34280
 C140 C 1.18585 0.12351 0.35089
 C141 C 1.19479 0.13749 0.37024
 C142 C 1.18259 0.15916 0.37635
 C143 C 1.16287 0.16724 0.36292
 C144 C 1.15085 0.18866 0.36934
 C145 C 1.13139 0.19733 0.35578
 C146 C 1.12437 0.18436 0.33510
 H147 H 1.16835 0.10181 0.31245
 H148 H 1.11499 0.15677 0.29691
 H149 H 1.19463 0.10665 0.34582
 H150 H 1.18779 0.16968 0.39189
 H151 H 1.15680 0.19873 0.38498
 H152 H 1.10934 0.19066 0.32449
 C153 C 0.64778 1.38015 0.64486
 C154 C 0.64103 1.38693 0.66831
 C155 C 0.61984 1.37722 0.67891
 C156 C 0.60492 1.36150 0.66569
 C157 C 0.61124 1.35478 0.64237
 C158 C 0.63270 1.36414 0.63184
 C159 C 0.66979 1.38822 0.63459
 C160 C 0.67691 1.38083 0.61126
 C161 C 0.66123 1.36514 0.59847
 C162 C 0.63957 1.35654 0.60870
 C163 C 0.62551 1.33904 0.59673
 C164 C 0.60475 1.32892 0.60764
 C165 C 0.59722 1.33752 0.63010
 H166 H 0.65261 1.39899 0.67861
 H167 H 0.58847 1.35418 0.67375
 H168 H 0.68140 1.40022 0.64494
 H169 H 0.66633 1.35795 0.58116
 H170 H 0.63142 1.33225 0.57942
 H171 H 0.58159 1.32935 0.63893
 C172 C 0.65898 0.86305 1.16785
 C173 C 0.65016 0.87102 1.19038
 C174 C 0.63036 0.85888 1.20166
 C175 C 0.61861 0.83992 1.18928
 C176 C 0.62637 0.83269 1.16665
 C177 C 0.64685 0.84381 1.15598
 C178 C 0.67979 0.87362 1.15705
 C179 C 0.68833 0.86527 1.13458
 C180 C 0.67587 0.84606 1.12313
 C181 C 0.65520 0.83542 1.13353
 C182 C 0.64287 0.81623 1.12198
 C183 C 0.62196 0.80587 1.13240
 C184 C 0.61389 0.81416 1.15470
 H185 H 0.65932 0.88586 1.19953
 H186 H 0.60248 0.83132 1.19670
 H187 H 0.68931 0.88832 1.16606
 H188 H 0.68253 0.83893 1.10625
 H189 H 0.64936 0.80946 1.10487
 H190 H 0.59825 0.80555 1.16315
 C191 C 1.17251 1.36419 1.17597
 C192 C 1.16337 1.37485 1.19689
 C193 C 1.14185 1.36621 1.20753
 C194 C 1.12902 1.34703 1.19647
 C195 C 1.13793 1.33622 1.17532
 C196 C 1.15982 1.34487 1.16505
 C197 C 1.19427 1.37268 1.16597
 C198 C 1.20416 1.36204 1.14509
 C199 C 1.19091 1.34306 1.13391
 C200 C 1.16904 1.33424 1.14392
 C201 C 1.15639 1.31478 1.13328
 C202 C 1.13460 1.30583 1.14338
 C203 C 1.12552 1.31674 1.16445
 H204 H 1.17304 1.39010 1.20478
 H205 H 1.11233 1.34029 1.20452
 H206 H 1.20282 1.38825 1.17437
 H207 H 1.19789 1.33459 1.11776
 H208 H 1.16353 1.30655 1.11708
 H209 H 1.10913 1.30973 1.17283
 C210 C 1.15489 0.88063 0.64932
 C211 C 1.14617 0.89118 0.67059
 C212 C 1.12534 0.88173 0.68221
 C213 C 1.11332 0.86138 0.67223
 C214 C 1.12163 0.85079 0.65080
 C215 C 1.14246 0.86053 0.63935
 C216 C 1.17628 0.88934 0.63826
 C217 C 1.18590 0.87765 0.61775
 C218 C 1.17251 0.85844 0.60744
 C219 C 1.15113 0.84988 0.61806
 C220 C 1.13876 0.83021 0.60790
 C221 C 1.11822 0.82023 0.61912
 C222 C 1.10979 0.83036 0.64076
 H223 H 1.15611 0.90626 0.67845
 H224 H 1.09738 0.85388 0.68108
 H225 H 1.18601 0.90443 0.64640
 H226 H 1.17828 0.85016 0.59078
 H227 H 1.14580 0.82187 0.59169
 H228 H 1.09409 0.82239 0.64965
 C229 C 0.32751 0.63834 0.66923
 C230 C 0.33541 0.62511 0.68921
 C231 C 0.35587 0.63287 0.70215
 C232 C 0.36860 0.65392 0.69461
 C233 C 0.36088 0.66741 0.67475
 C234 C 0.34024 0.65960 0.66204
 C235 C 0.30703 0.63075 0.65635
 C236 C 0.29887 0.64439 0.63667
 C237 C 0.31176 0.66540 0.62957
 C238 C 0.33234 0.67303 0.64207
 C239 C 0.34509 0.69398 0.63489
 C240 C 0.36556 0.70205 0.64749
 C241 C 0.37341 0.68862 0.66744
 H242 H 0.32577 0.60863 0.69446
 H243 H 0.38435 0.66006 0.70446
 H244 H 0.29715 0.61449 0.66189
 H245 H 0.30596 0.67568 0.61408
 H246 H 0.33880 0.70429 0.61959
 H247 H 0.38942 0.69442 0.67705
 C248 C 0.34338 0.11611 1.14736
 C249 C 0.35058 0.10539 1.16897
 C250 C 0.37092 0.11435 1.18163
 C251 C 0.38385 0.13457 1.17190
 C252 C 0.37734 0.14496 1.14983
 C253 C 0.35704 0.13560 1.13757
 C254 C 0.32218 0.10821 1.13574
 C255 C 0.31450 0.11986 1.11471
 C256 C 0.32890 0.13825 1.10445
 C257 C 0.35000 0.14617 1.11570
 C258 C 0.36361 0.16516 1.10570
 C259 C 0.38383 0.17461 1.11755
 C260 C 0.39050 0.16478 1.13986
 H261 H 0.33935 0.09092 1.17632
 H262 H 0.39945 0.14197 1.18118
 H263 H 0.31113 0.09376 1.14354
 H264 H 0.32336 0.14677 1.08784
 H265 H 0.35788 0.17332 1.08898
 H266 H 0.40591 0.17241 1.14924
 C267 C 0.83885 0.62610 1.16763
 C268 C 0.85156 0.61844 1.18795
 C269 C 0.87285 0.63067 1.19512
 C270 C 0.88139 0.65072 1.18168
 C271 C 0.86877 0.65876 1.16152
 C272 C 0.84743 0.64647 1.15450
 C273 C 0.81747 0.61408 1.16048
 C274 C 0.80455 0.62235 1.14041
 C275 C 0.81328 0.64272 1.12762
 C276 C 0.83444 0.65483 1.13454
 C277 C 0.84252 0.67549 1.12196
 C278 C 0.86347 0.68805 1.12910
 C279 C 0.87678 0.67934 1.14863
 H280 H 0.84487 0.60298 1.19825
 H281 H 0.89738 0.66067 1.18737
 H282 H 0.81066 0.59875 1.17086
 H283 H 0.80353 0.64927 1.11214
 H284 H 0.83246 0.68179 1.10658
 H285 H 0.89298 0.68904 1.15422
 C286 C 0.83925 0.12653 0.66831
 C287 C 0.85103 0.11915 0.68937
 C288 C 0.87297 0.13036 0.69671
 C289 C 0.88256 0.14960 0.68257
 C290 C 0.87066 0.15760 0.66198
 C291 C 0.84908 0.14595 0.65473
 C292 C 0.81759 0.11508 0.66084
 C293 C 0.80530 0.12321 0.64013
 C294 C 0.81546 0.14298 0.62715
 C295 C 0.83705 0.15419 0.63415
 C296 C 0.84644 0.17399 0.62104
 C297 C 0.86760 0.18599 0.62844
 C298 C 0.87969 0.17763 0.64888
 H299 H 0.84321 0.10432 0.69981
 H300 H 0.89859 0.15952 0.68805
 H301 H 0.81017 0.10053 0.67180
 H302 H 0.80673 0.14975 0.61117
 H303 H 0.83668 0.18068 0.60563
 H304 H 0.89604 0.18691 0.65470
 C305 C 1.37341 0.34674 0.65528
 C306 C 1.38157 0.35922 0.67556
 C307 C 1.36907 0.37956 0.68483
 C308 C 1.34824 0.38756 0.67262
 C309 C 1.33957 0.37485 0.65249
 C310 C 1.35210 0.35426 0.64396
 C311 C 1.38596 0.32635 0.64671
 C312 C 1.37713 0.31265 0.62718
 C313 C 1.35543 0.32019 0.61632
 C314 C 1.34307 0.34086 0.62441
 C315 C 1.32156 0.34804 0.61344
 C316 C 1.30873 0.36836 0.62190
 C317 C 1.31807 0.38189 0.64122
 H318 H 1.39788 0.35286 0.68415
 H319 H 1.33777 0.40270 0.67930
 H320 H 1.40187 0.32065 0.65630
 H321 H 1.34810 0.31012 0.60126
 H322 H 1.31490 0.33781 0.59820
 H323 H 1.30822 0.39752 0.64792
 C324 C 1.36948 0.83694 1.16328
 C325 C 1.37986 0.85007 1.18230
 C326 C 1.36846 0.87086 1.19163
 C327 C 1.34652 0.87846 1.18180
 C328 C 1.33577 0.86529 1.16317
 C329 C 1.34720 0.84443 1.15379
 C330 C 1.38084 0.81617 1.15407
 C331 C 1.37029 0.80225 1.13546
 C332 C 1.34761 0.80980 1.12646
 C333 C 1.33614 0.83088 1.13528
 C334 C 1.31366 0.83858 1.12621
 C335 C 1.30209 0.85917 1.13596
 C336 C 1.31342 0.87245 1.15423
 H337 H 1.39678 0.84408 1.18995
 H338 H 1.33727 0.89408 1.18932
 H339 H 1.39742 0.81053 1.16249
 H340 H 1.33893 0.79952 1.11228
 H341 H 1.30494 0.82834 1.11203
 H342 H 1.30480 0.88858 1.16147
 C343 C 0.86215 0.33496 1.16868
 C344 C 0.87460 0.34590 1.18802
 C345 C 0.86607 0.36773 1.19836
 C346 C 0.84483 0.37819 1.18968
 C347 C 0.83209 0.36739 1.17095
 C348 C 0.84071 0.34577 1.16030
 C349 C 0.87059 0.31343 1.15764
 C350 C 0.85752 0.30208 1.13882
 C351 C 0.83622 0.31353 1.13074
 C352 C 0.82785 0.33512 1.14121
 C353 C 0.80673 0.34630 1.13280
 C354 C 0.79798 0.36759 1.14371
 C355 C 0.81077 0.37802 1.16275
 H356 H 0.89094 0.33770 1.19482
 H357 H 0.83792 0.39468 1.19791
 H358 H 0.88703 0.30521 1.16421
 H359 H 0.82634 0.30642 1.11559
 H360 H 0.79684 0.33824 1.11803
 H361 H 0.80436 0.39474 1.17089
 C362 C 0.86061 0.83307 0.66532
 C363 C 0.87318 0.84156 0.68549
 C364 C 0.86500 0.86209 0.69823
 C365 C 0.84406 0.87407 0.69051
 C366 C 0.83138 0.86585 0.67037
 C367 C 0.83964 0.84525 0.65771
 C368 C 0.86848 0.81235 0.65287
 C369 C 0.85564 0.80343 0.63298
 C370 C 0.83496 0.81597 0.62526
 C371 C 0.82687 0.83677 0.63752
 C372 C 0.80605 0.84909 0.63007
 C373 C 0.79756 0.86953 0.64276
 C374 C 0.81048 0.87786 0.66282
 H375 H 0.88893 0.83178 0.69157
 H376 H 0.83763 0.88991 0.70019
 H377 H 0.88441 0.80285 0.65898
 H378 H 0.82523 0.80972 0.60962
 H379 H 0.79617 0.84248 0.61464
 H380 H 0.80450 0.89392 0.67242
 C381 C 0.64369 0.67740 0.67313
 C382 C 0.63467 0.66529 0.69359
 C383 C 0.64598 0.64410 0.70216
 C384 C 0.66592 0.63461 0.68962
 C385 C 0.67499 0.64632 0.66912
 C386 C 0.66402 0.66788 0.66097
 C387 C 0.63304 0.69901 0.66473
 C388 C 0.64287 0.71124 0.64467
 C389 C 0.66280 0.70134 0.63256
 C390 C 0.67342 0.67989 0.64056
 C391 C 0.69339 0.67037 0.62839
 C392 C 0.70444 0.64900 0.63648
 C393 C 0.69501 0.63691 0.65674
 H394 H 0.61921 0.67262 0.70316
 H395 H 0.67430 0.61793 0.69568
 H396 H 0.61750 0.70655 0.67399
 H397 H 0.66998 0.71027 0.61665
 H398 H 0.70014 0.67949 0.61242
 H399 H 0.70352 0.62040 0.66310
 C400 C 0.63981 1.16602 1.17185
 C401 C 0.63157 1.15359 1.19249
 C402 C 0.64510 1.13440 1.20225
 C403 C 0.66650 1.12713 1.19077
 C404 C 0.67478 1.13915 1.17015
 C405 C 0.66162 1.15883 1.16077
 C406 C 0.62677 1.18567 1.16236
 C407 C 0.63541 1.19866 1.14201
 C408 C 0.65742 1.19112 1.13134
 C409 C 0.67035 1.17130 1.14035
 C410 C 0.69189 1.16371 1.12918
 C411 C 0.70487 1.14382 1.13831
 C412 C 0.69614 1.13174 1.15885
 H413 H 0.61495 1.15916 1.20126
 H414 H 0.67665 1.11190 1.19776
 H415 H 0.61049 1.19114 1.17165
 H416 H 0.66454 1.20043 1.11561
 H417 H 0.69818 1.17297 1.11312
 H418 H 0.70612 1.11657 1.16622
 C419 C 0.12420 0.64689 1.15884
 C420 C 0.11482 0.63592 1.17975
 C421 C 0.12376 0.61343 1.18815
 C422 C 0.14229 0.60208 1.17484
 C423 C 0.15227 0.61325 1.15442
 C424 C 0.14341 0.63584 1.14642
 C425 C 0.11479 0.66895 1.15050
 C426 C 0.12438 0.68067 1.12986
 C427 C 0.14473 0.67002 1.11843
 C428 C 0.15413 0.64758 1.12640
 C429 C 0.17410 0.63662 1.11484
 C430 C 0.18275 0.61386 1.12271
 C431 C 0.17160 0.60237 1.14238
 H432 H 0.10032 0.64494 1.18936
 H433 H 0.15032 0.58531 1.18095
 H434 H 0.10049 0.67721 1.16093
 H435 H 0.15287 0.67873 1.10286
 H436 H 0.18277 0.64561 1.09970
 H437 H 0.17862 0.58522 1.14893
 C438 C 0.12870 1.16858 0.65966
 C439 C 0.11564 1.16065 0.67993
 C440 C 0.12415 1.14133 0.69428
 C441 C 0.14610 1.13000 0.68755
 C442 C 0.15895 1.13729 0.66694
 C443 C 0.15027 1.15674 0.65303
 C444 C 0.12083 1.18863 0.64622
 C445 C 0.13437 1.19710 0.62640
 C446 C 0.15527 1.18456 0.61936
 C447 C 0.16331 1.16454 0.63257
 C448 C 0.18448 1.15250 0.62580
 C449 C 0.19328 1.13298 0.63941
 C450 C 0.18042 1.12549 0.66008
 H451 H 0.09953 1.17054 0.68492
 H452 H 0.15310 1.11504 0.69807
 H453 H 0.10458 1.19816 0.65166
 H454 H 0.16539 1.19042 0.60364
 H455 H 0.19442 1.15868 0.61006
 H456 H 0.18683 1.11027 0.67058
 C457 C 1.37079 0.66539 0.33107
 C458 C 1.38102 0.65629 0.30990
 C459 C 1.37067 0.63616 0.29789
 C460 C 1.35021 0.62465 0.30840
 C461 C 1.33954 0.63391 0.32945
 C462 C 1.34970 0.65459 0.34069
 C463 C 1.38150 0.68534 0.34254
 C464 C 1.37134 0.69544 0.36351
 C465 C 1.34939 0.68522 0.37240
 C466 C 1.33878 0.66454 0.36141
 C467 C 1.31760 0.65345 0.37080
 C468 C 1.30762 0.63237 0.36002
 C469 C 1.31868 0.62293 0.33923
 H470 H 1.39763 0.66467 0.30349
 H471 H 1.34196 0.60894 0.29981
 H472 H 1.39724 0.69363 0.33411
 H473 H 1.34098 0.69277 0.38834
 H474 H 1.30914 0.66091 0.38674
 H475 H 1.31077 0.60727 0.33029
 C476 C 1.37747 1.14689 0.84805
 C477 C 1.39051 1.13671 0.82881
 C478 C 1.38231 1.11515 0.81775
 C479 C 1.36110 1.10370 0.82612
 C480 C 1.34772 1.11388 0.84483
 C481 C 1.35585 1.13553 0.85593
 C482 C 1.38519 1.16870 0.85886
 C483 C 1.37138 1.17991 0.87721
 C484 C 1.34989 1.16794 0.88506
 C485 C 1.34202 1.14608 0.87445
 C486 C 1.32005 1.13497 0.88153
 C487 C 1.31157 1.11392 0.86980
 C488 C 1.32572 1.10324 0.85182
 H489 H 1.40673 1.14577 0.82212
 H490 H 1.35419 1.08757 0.81714
 H491 H 1.40170 1.17728 0.85228
 H492 H 1.33907 1.17509 0.89957
 H493 H 1.30907 1.14323 0.89547
 H494 H 1.31943 1.08672 0.84306
 C495 C 0.87390 0.65456 0.84225
 C496 C 0.88107 0.64196 0.82159
 C497 C 0.86818 0.62122 0.81379
 C498 C 0.84797 0.61297 0.82709
 C499 C 0.84047 0.62548 0.84776
 C500 C 0.85350 0.64631 0.85537
 C501 C 0.88641 0.67564 0.84965
 C502 C 0.87862 0.68869 0.86996
 C503 C 0.85853 0.68006 0.88312
 C504 C 0.84582 0.65921 0.87584
 C505 C 0.82506 0.65161 0.88834
 C506 C 0.81153 0.63141 0.88047
 C507 C 0.81964 0.61807 0.86047
 H508 H 0.89664 0.64845 0.81141
 H509 H 0.83753 0.59739 0.82092
 H510 H 0.90214 0.68182 0.83958
 H511 H 0.85219 0.69010 0.89865
 H512 H 0.81931 0.66161 0.90410
 H513 H 0.80926 0.60243 0.85431
 C514 C 0.87840 1.15006 0.33908
 C515 C 0.88766 1.13816 0.31865
 C516 C 0.87673 1.11648 0.31000
 C517 C 0.85767 1.10594 0.32346
 C518 C 0.84862 1.11736 0.34395
 C519 C 0.85859 1.13971 0.35163
 C520 C 0.88819 1.17246 0.34673
 C521 C 0.87817 1.18493 0.36653
 C522 C 0.85846 1.17425 0.37900
 C523 C 0.84853 1.15178 0.37166
 C524 C 0.82839 1.14135 0.38363
 C525 C 0.81879 1.11876 0.37612
 C526 C 0.82915 1.10688 0.35641
 H527 H 0.90257 1.14655 0.30884
 H528 H 0.84994 1.08848 0.31850
 H529 H 0.90367 1.18009 0.33725
 H530 H 0.85054 1.18366 0.39419
 H531 H 0.82018 1.15072 0.39869
 H532 H 0.82129 1.08989 0.35008
 C533 C 0.62836 0.34748 0.34141
 C534 C 0.61795 0.35822 0.32100
 C535 C 0.62470 0.38210 0.31355
 C536 C 0.64228 0.39482 0.32697
 C537 C 0.65333 0.38409 0.34671
 C538 C 0.64640 0.36043 0.35404
 C539 C 0.62159 0.32383 0.34914
 C540 C 0.63319 0.31290 0.36881
 C541 C 0.65134 0.32597 0.38091
 C542 C 0.65809 0.34949 0.37361
 C543 C 0.67696 0.36191 0.38515
 C544 C 0.68444 0.38518 0.37738
 C545 C 0.67219 0.39636 0.35845
 H546 H 0.60447 0.34801 0.31105
 H547 H 0.64897 0.41251 0.32125
 H548 H 0.60771 0.31374 0.33962
 H549 H 0.66017 0.31785 0.39621
 H550 H 0.68633 0.35316 0.39979
 H551 H 0.67817 0.41404 0.35189
 C552 C 0.62700 0.84622 0.83705
 C553 C 0.61721 0.85903 0.81761
 C554 C 0.62881 0.88013 0.80863
 C555 C 0.65041 0.88822 0.81909
 C556 C 0.66059 0.87538 0.83811
 C557 C 0.64890 0.85435 0.84729
 C558 C 0.61545 0.82523 0.84612
 C559 C 0.62541 0.81215 0.86536
 C560 C 0.64749 0.82025 0.87527
 C561 C 0.65931 0.84131 0.86640
 C562 C 0.68154 0.84940 0.87598
 C563 C 0.69350 0.87001 0.86628
 C564 C 0.68265 0.88303 0.84766
 H565 H 0.60058 0.85263 0.80945
 H566 H 0.65983 0.90404 0.81182
 H567 H 0.59894 0.81882 0.83777
 H568 H 0.65542 0.81022 0.88995
 H569 H 0.68981 0.83940 0.89049
 H570 H 0.69145 0.89929 0.84054
 C571 C 0.12689 0.34640 0.83714
 C572 C 0.11633 0.36021 0.81886
 C573 C 0.12841 0.38068 0.80924
 C574 C 0.15098 0.38763 0.81836
 C575 C 0.16195 0.37371 0.83619
 C576 C 0.15001 0.35291 0.84559
 C577 C 0.11501 0.32569 0.84634
 C578 C 0.12599 0.31075 0.86375
 C579 C 0.14951 0.31727 0.87165
 C580 C 0.16147 0.33831 0.86290
 C581 C 0.18491 0.34479 0.87067
 C582 C 0.19697 0.36530 0.86087
 C583 C 0.18516 0.37979 0.84397
 H584 H 0.09890 0.35476 0.81171
 H585 H 0.16067 0.40305 0.81058
 H586 H 0.09771 0.32081 0.83872
 H587 H 0.15854 0.30616 0.88488
 H588 H 0.19399 0.33362 0.88380
 H589 H 0.19415 0.39589 0.83673
 C590 C 0.12206 0.85340 0.34085
 C591 C 0.11234 0.86600 0.32132
 C592 C 0.12385 0.88707 0.31195
 C593 C 0.14495 0.89578 0.32313
 C594 C 0.15541 0.88267 0.34185
 C595 C 0.14405 0.86136 0.35079
 C596 C 0.11056 0.83236 0.34977
 C597 C 0.12098 0.81842 0.36828
 C598 C 0.14365 0.82616 0.37744
 C599 C 0.15513 0.84760 0.36899
 C600 C 0.17785 0.85518 0.37781
 C601 C 0.18950 0.87597 0.36818
 C602 C 0.17790 0.88986 0.35072
 H603 H 0.09584 0.85915 0.31323
 H604 H 0.15474 0.91140 0.31600
 H605 H 0.09412 0.82637 0.34112
 H606 H 0.15233 0.81572 0.39141
 H607 H 0.18683 0.84452 0.39142
 H608 H 0.18676 0.90609 0.34358
 O609 O 1.09218 1.01921 1.11765
 O610 O 1.12131 1.01933 1.14440
 C611 C 1.10180 1.02819 1.13637
 C612 C 1.09044 1.04966 1.14818
 C613 C 1.10025 1.06009 1.16922
 H614 H 1.11604 1.05211 1.17740
 O615 O 0.92212 0.97152 1.12150
 O616 O 0.89675 0.97132 1.15220
 C617 C 0.91526 0.96277 1.14149
 C618 C 0.92833 0.94192 1.15207
 C619 C 0.92176 0.93333 1.17488
 H620 H 0.90798 0.94283 1.18505
 O621 O 1.02966 1.12245 1.08513
 O622 O 1.03116 1.15005 1.11381
 C623 C 1.03864 1.14192 1.09384
 C624 C 1.05879 1.15435 1.08097
 C625 C 1.06968 1.17573 1.08997
 H626 H 1.06245 1.18411 1.10605
 O627 O 0.98283 0.87104 1.08119
 O628 O 0.98321 0.84201 1.10858
 C629 C 0.97454 0.85113 1.08961
 C630 C 0.95393 0.83900 1.07782
 C631 C 0.94701 0.81528 1.08438
 H632 H 0.95747 0.80565 1.09763
 O633 O 1.12107 1.08414 1.02009
 O634 O 1.15120 1.11080 1.01862
 C635 C 1.14184 1.09128 1.02699
 C636 C 1.15507 1.07671 1.04498
 C637 C 1.17952 1.08175 1.05021
 H638 H 1.18902 1.09638 1.04093
 O639 O 0.87796 0.90985 1.03244
 O640 O 0.84964 0.88128 1.03302
 C641 C 0.85870 0.90080 1.04153
 C642 C 0.84748 0.91311 1.06255
 C643 C 0.82553 0.90486 1.07300
 H644 H 0.81594 0.88950 1.06523
 O645 O 0.98432 1.08656 1.11856
 O646 O 0.98572 1.11413 1.14730
 C647 C 0.97739 1.09424 1.13889
 C648 C 0.95940 1.08008 1.15298
 C649 C 0.95367 1.08734 1.17639
 H650 H 0.96233 1.10349 1.18355
 O651 O 1.02999 0.90447 1.11348
 O652 O 1.02991 0.87578 1.14125
 C653 C 1.03769 0.89607 1.13315
 C654 C 1.05595 0.90990 1.14675
 C655 C 1.06159 0.90294 1.17008
 H656 H 1.05109 0.88843 1.17834
 O657 O 1.12290 0.97029 1.08411
 O658 O 1.15200 0.96984 1.11091
 C659 C 1.14278 0.96172 1.09166
 C660 C 1.15501 0.94202 1.07787
 C661 C 1.17727 0.93232 1.08536
 H662 H 1.18591 0.93937 1.10131
 O663 O 0.88673 1.01995 1.09336
 O664 O 0.86117 1.02003 1.12389
 C665 C 0.86804 1.02838 1.10364
 C666 C 0.85451 1.04834 1.09202
 C667 C 0.83232 1.05630 1.10146
 H668 H 0.82506 1.04764 1.11744
 O669 O 0.91371 1.12129 1.03068
 O670 O 0.88554 1.14948 1.03214
 C671 C 0.90554 1.14110 1.03938
 C672 C 0.91939 1.15393 1.05848
 C673 C 0.91141 1.17613 1.06853
 H674 H 0.89523 1.18458 1.06167
 O675 O 1.09160 0.87429 1.01730
 O676 O 1.11975 0.84617 1.01433
 C677 C 1.10059 0.85413 1.02408
 C678 C 1.08904 0.84031 1.04403
 C679 C 1.09844 0.81789 1.05169
 H680 H 1.11319 0.81006 1.04158
 O681 O 0.92168 1.01929 1.12419
 O682 O 0.89634 1.01908 1.15491
 C683 C 0.91524 1.02739 1.14461
 C684 C 0.92942 1.04722 1.15611
 C685 C 0.92415 1.05462 1.17972
 H686 H 0.91033 1.04497 1.18994
 O687 O 1.09010 0.97127 1.11761
 O688 O 1.11899 0.97100 1.14464
 C689 C 1.09902 0.96276 1.13671
 C690 C 1.08618 0.94244 1.14890
 C691 C 1.09240 0.93465 1.17208
 H692 H 1.10677 0.94395 1.18163
 O693 O 1.03034 0.87026 1.08137
 O694 O 1.03076 0.84144 1.10893
 C695 C 1.03895 0.85049 1.08952
 C696 C 1.05907 0.83849 1.07636
 C697 C 1.06898 0.81624 1.08413
 H698 H 1.06142 0.80731 1.09985
 O699 O 0.98205 1.12157 1.08737
 O700 O 0.98367 1.14912 1.11610
 C701 C 0.97412 1.14095 1.09707
 C702 C 0.95313 1.15371 1.08655
 C703 C 0.94481 1.17566 1.09649
 H704 H 0.95414 1.18312 1.11181
 O705 O 0.88316 1.08503 1.03168
 O706 O 0.85479 1.11303 1.03323
 C707 C 0.86387 1.09326 1.04091
 C708 C 0.85241 1.07996 1.06118
 C709 C 0.83022 1.08758 1.07078
 H710 H 0.82093 1.10278 1.06265
 O711 O 1.12217 0.91050 1.01686
 O712 O 1.15030 0.88232 1.01444
 C713 C 1.14195 0.90164 1.02399
 C714 C 1.15482 0.91330 1.04423
 C715 C 1.17711 0.90421 1.05177
 H716 H 1.18521 0.88914 1.04217
 O717 O 0.98343 0.90372 1.11462
 O718 O 0.98342 0.87477 1.14212
 C719 C 0.97555 0.89499 1.13432
 C720 C 0.95715 0.90848 1.14837
 C721 C 0.95003 0.90005 1.17117
 H722 H 0.95779 0.88346 1.17811
 O723 O 1.03118 1.08695 1.11590
 O724 O 1.03233 1.11464 1.14453
 C725 C 1.04009 1.09497 1.13532
 C726 C 1.06008 1.08190 1.14729
 C727 C 1.06962 1.09139 1.16851
 H728 H 1.06099 1.10698 1.17667
 O729 O 0.88414 0.97234 1.09467
 O730 O 0.85871 0.97246 1.12532
 C731 C 0.86514 0.96415 1.10507
 C732 C 0.85090 0.94427 1.09373
 C733 C 0.82917 0.93571 1.10408
 H734 H 0.82215 0.94455 1.11999
 O735 O 1.12182 1.01748 1.08197
 O736 O 1.15143 1.01728 1.10829
 C737 C 1.14216 1.02532 1.08904
 C738 C 1.15508 1.04417 1.07494
 C739 C 1.17938 1.04924 1.07965
 H740 H 1.18849 1.03911 1.09355
 O741 O 0.91131 0.87675 1.02839
 O742 O 0.88318 0.84792 1.02881
 C743 C 0.90358 0.85609 1.03561
 C744 C 0.91860 0.84161 1.05208
 C745 C 0.91179 0.81779 1.05889
 H746 H 0.89539 0.80965 1.05182
 O747 O 1.09046 1.11999 1.02151
 O748 O 1.12050 1.14673 1.02015
 C749 C 1.10061 1.13935 1.02918
 C750 C 1.08942 1.15284 1.04931
 C751 C 1.10010 1.17425 1.05841
 H752 H 1.11592 1.18183 1.04949
 Cu753 Cu 1.10370 0.99442 1.09790
 Cu754 Cu 1.13880 0.99442 1.12983
 Cu755 Cu 0.90617 0.99583 1.10538
 Cu756 Cu 0.87580 0.99578 1.14219
 Cu757 Cu 1.00665 1.10181 1.09864
 Cu758 Cu 1.00831 1.13480 1.13327
 Cu759 Cu 1.00670 0.89008 1.09467
 Cu760 Cu 1.00686 0.85546 1.12789
 C761 C 1.07041 1.06089 1.13734
 H762 H 1.06313 1.05357 1.12085
 C763 C 1.09013 1.08133 1.17926
 C764 C 0.94631 0.92955 1.13900
 H765 H 0.95138 0.93594 1.12128
 C766 C 0.93242 0.91243 1.18462
 C767 C 1.06865 1.14332 1.06051
 H768 H 1.06060 1.12662 1.05374
 C769 C 1.09054 1.18574 1.07894
 C770 C 0.93988 0.85189 1.06140
 H771 H 0.94506 0.87037 1.05657
 C772 C 0.92610 0.80439 1.07485
 C773 C 1.14309 1.05769 1.05733
 H774 H 1.12420 1.05384 1.05373
 C775 C 1.19185 1.06773 1.06725
 C776 C 0.85972 0.93296 1.07298
 H777 H 0.87668 0.93930 1.06524
 C778 C 0.81634 0.91598 1.09395
 C779 C 0.94741 1.05984 1.14303
 H780 H 0.95148 1.05445 1.12478
 C781 C 0.93635 1.07460 1.19013
 C782 C 1.06801 0.92982 1.13641
 H783 H 1.06358 0.93517 1.11828
 C784 C 1.08020 0.91466 1.18278
 C785 C 1.14407 0.93241 1.05718
 H786 H 1.12676 0.93939 1.05149
 C787 C 1.18855 0.91359 1.07220
 C788 C 0.86426 1.06014 1.07173
 H789 H 0.88153 1.05432 1.06455
 C790 C 0.81990 1.07576 1.09079
 C791 C 0.94047 1.14320 1.06744
 H792 H 0.94665 1.12608 1.06001
 C793 C 0.92418 1.18739 1.08746
 C794 C 1.06927 0.85023 1.05630
 H795 H 1.06212 0.86757 1.05050
 C796 C 1.08888 0.80573 1.07201
 O797 O 1.08242 0.97381 0.87388
 O798 O 1.10973 0.97469 0.84489
 C799 C 1.09033 0.96593 0.85393
 C800 C 1.07694 0.94586 0.84181
 C801 C 1.08455 0.93641 0.81957
 H802 H 1.10016 0.94438 0.81055
 O803 O 0.90986 1.02317 0.88729
 O804 O 0.88033 1.02372 0.86094
 C805 C 0.90054 1.03187 0.86841
 C806 C 0.91280 1.05211 0.85526
 C807 C 0.90333 1.06021 0.83348
 H808 H 0.88833 1.05023 0.82575
 O809 O 0.97674 1.12037 0.91706
 O810 O 0.97530 1.14980 0.89016
 C811 C 0.96824 1.14053 0.90998
 C812 C 0.94961 1.15296 0.92477
 C813 C 0.94249 1.17687 0.91936
 H814 H 0.95114 1.18657 0.90464
 O815 O 1.01889 0.88018 0.91140
 O816 O 1.01679 0.85093 0.88434
 C817 C 1.02623 0.85999 0.90307
 C818 C 1.04638 0.84719 0.91477
 C819 C 1.05377 0.82439 0.90616
 H820 H 1.04425 0.81597 0.89137
 O821 O 1.12220 0.90994 0.96975
 O822 O 1.15051 0.88194 0.96723
 C823 C 1.14145 0.90179 0.96006
 C824 C 1.15283 0.91521 0.93975
 C825 C 1.17554 0.90834 0.93040
 H826 H 1.18514 0.89339 0.93858
 O827 O 0.87893 1.08763 0.98511
 O828 O 0.85064 1.11569 0.98626
 C829 C 0.85891 1.09599 0.97765
 C830 C 0.84571 1.08271 0.95841
 C831 C 0.82259 1.09008 0.95052
 H832 H 0.81374 1.10546 0.95890
 O833 O 1.02134 1.08826 0.87988
 O834 O 1.02028 1.11728 0.85255
 C835 C 1.02887 1.09729 0.86020
 C836 C 1.04838 1.08461 0.84677
 C837 C 1.05860 1.09465 0.82564
 H838 H 1.05176 1.11161 0.81853
 O839 O 0.97079 0.91254 0.87997
 O840 O 0.96843 0.88330 0.85294
 C841 C 0.96111 0.90344 0.86140
 C842 C 0.94058 0.91614 0.85026
 C843 C 0.92975 0.90728 0.82921
 H844 H 0.93707 0.89135 0.82037
 O845 O 1.11593 1.02041 0.90747
 O846 O 1.14381 1.02156 0.87896
 C847 C 1.13574 1.02884 0.89911
 C848 C 1.14939 1.04724 0.91312
 C849 C 1.17376 1.05268 0.90765
 H850 H 1.18278 1.04334 0.89305
 O851 O 0.87661 0.97515 0.92073
 O852 O 0.84709 0.97585 0.89437
 C853 C 0.85627 0.96723 0.91336
 C854 C 0.84343 0.94758 0.92685
 C855 C 0.82059 0.93883 0.91953
 H856 H 0.81190 0.94683 0.90410
 O857 O 1.08782 1.11906 0.97479
 O858 O 1.11778 1.14590 0.97339
 C859 C 1.09733 1.13831 0.96603
 C860 C 1.08491 1.15157 0.94656
 C861 C 1.09470 1.17346 0.93764
 H862 H 1.11033 1.18135 0.94636
 O863 O 0.90962 0.88020 0.98235
 O864 O 0.88161 0.85123 0.98263
 C865 C 0.90104 0.86044 0.97397
 C866 C 0.91381 0.84796 0.95406
 C867 C 0.90724 0.82401 0.94781
 H868 H 0.89260 0.81501 0.95742
 O869 O 0.90814 0.97544 0.88579
 O870 O 0.87852 0.97628 0.85956
 C871 C 0.89841 0.96762 0.86667
 C872 C 0.90990 0.94771 0.85299
 C873 C 0.89939 0.93884 0.83188
 H874 H 0.88367 0.94787 0.82476
 O875 O 1.08186 1.02157 0.87583
 O876 O 1.10948 1.02260 0.84713
 C877 C 1.09010 1.03068 0.85646
 C878 C 1.07783 1.05158 0.84508
 C879 C 1.08718 1.06141 0.82377
 H880 H 1.10178 1.05204 0.81473
 O881 O 0.97181 0.88099 0.91447
 O882 O 0.96984 0.85159 0.88756
 C883 C 0.96289 0.86086 0.90730
 C884 C 0.94408 0.84812 0.92182
 C885 C 0.93726 0.82413 0.91600
 H886 H 0.94627 0.81485 0.90134
 O887 O 1.02383 1.12131 0.91282
 O888 O 1.02274 1.15057 0.88575
 C889 C 1.03211 1.14130 0.90437
 C890 C 1.05325 1.15322 0.91614
 C891 C 1.06360 1.17510 0.90722
 H892 H 1.05573 1.18393 0.89180
 O893 O 0.87628 0.91260 0.98564
 O894 O 0.84797 0.88397 0.98596
 C895 C 0.85635 0.90409 0.97800
 C896 C 0.84330 0.91722 0.95898
 C897 C 0.82042 0.90903 0.95166
 H898 H 0.81198 0.89363 0.96069
 O899 O 1.11859 1.08380 0.97355
 O900 O 1.14864 1.11058 0.97236
 C901 C 1.13861 1.09115 0.96476
 C902 C 1.15059 1.07719 0.94550
 C903 C 1.17485 1.08215 0.93993
 H904 H 1.18446 1.09612 0.94985
 O905 O 1.01796 0.91211 0.87723
 O906 O 1.01573 0.88296 0.85009
 C907 C 1.02501 0.90284 0.85753
 C908 C 1.04477 0.91495 0.84370
 C909 C 1.05252 0.90577 0.82146
 H910 H 1.04281 0.89053 0.81366
 O911 O 0.97408 1.08859 0.88281
 O912 O 0.97245 1.11755 0.85546
 C913 C 0.96449 1.09752 0.86415
 C914 C 0.94358 1.08453 0.85303
 C915 C 0.93334 1.09272 0.83139
 H916 H 0.94096 1.10857 0.82239
 O917 O 0.87819 1.02278 0.92185
 O918 O 0.84874 1.02317 0.89541
 C919 C 0.85821 1.03117 0.91454
 C920 C 0.84581 1.05071 0.92794
 C921 C 0.82292 1.05812 0.92058
 H922 H 0.81470 1.04922 0.90532
 O923 O 1.11633 0.97320 0.90584
 O924 O 1.14377 0.97447 0.87694
 C925 C 1.13602 0.96570 0.89664
 C926 C 1.14996 0.94641 0.90875
 C927 C 1.17282 0.93969 0.89995
 H928 H 1.18054 0.94986 0.88512
 O929 O 1.08663 0.87887 0.97113
 O930 O 1.11460 0.85055 0.96818
 C931 C 1.09439 0.85937 0.96177
 C932 C 1.07997 0.84706 0.94303
 C933 C 1.08724 0.82444 0.93390
 H934 H 1.10320 0.81571 0.94094
 O935 O 0.91494 1.11836 0.98403
 O936 O 0.88705 1.14687 0.98532
 C937 C 0.90656 1.13833 0.97649
 C938 C 0.91951 1.15172 0.95719
 C939 C 0.91273 1.17555 0.95148
 H940 H 0.89795 1.18386 0.96123
 Cu941 Cu 1.09627 0.99707 0.89353
 Cu942 Cu 1.12934 0.99852 0.85896
 Cu943 Cu 0.89621 0.99894 0.90654
 Cu944 Cu 0.86074 0.99990 0.87492
 Cu945 Cu 1.10140 1.09914 0.99779
 Cu946 Cu 1.13749 1.13126 0.99596
 Cu947 Cu 1.10295 0.89623 0.99404
 Cu948 Cu 1.13665 0.86256 0.99068
 Cu949 Cu 0.90036 1.10031 1.00778
 Cu950 Cu 0.86667 1.13402 1.00927
 Cu951 Cu 0.89647 0.89787 1.00741
 Cu952 Cu 0.86264 0.86331 1.00763
 Cu953 Cu 0.99914 1.10176 0.90076
 Cu954 Cu 0.99743 1.13669 0.86824
 Cu955 Cu 0.99507 0.89948 0.89839
 Cu956 Cu 0.99246 0.86424 0.86603
 C957 C 1.05695 0.93509 0.85351
 H958 H 1.05121 0.94200 0.87080
 C959 C 1.07257 0.91617 0.80929
 C960 C 0.93307 1.06420 0.86478
 H961 H 0.94034 1.05807 0.88170
 C962 C 0.91295 1.08079 0.82160
 C963 C 0.93819 1.14063 0.94396
 H964 H 0.94332 1.12208 0.94815
 C965 C 0.92426 1.18838 0.93282
 C966 C 1.05937 0.85827 0.93347
 H967 H 1.05390 0.87599 0.94005
 C968 C 1.07417 0.81299 0.91558
 C969 C 1.14026 0.93428 0.92878
 H970 H 1.12256 0.93933 0.93552
 C971 C 1.18574 0.92040 0.91034
 C972 C 0.85695 1.06280 0.94707
 H973 H 0.87480 1.05716 0.95259
 C974 C 0.81089 1.07744 0.93178
 C975 C 1.05823 1.06308 0.85629
 H976 H 1.05112 1.05562 0.87292
 C977 C 1.07841 1.08334 0.81429
 C978 C 0.93061 0.93645 0.86185
 H979 H 0.93855 0.94306 0.87833
 C980 C 0.90893 0.91839 0.82002
 C981 C 1.13802 1.05943 0.93229
 H982 H 1.11920 1.05559 0.93653
 C983 C 1.18671 1.06979 0.92137
 C984 C 0.85449 0.93674 0.94675
 H985 H 0.87228 0.94295 0.95222
 C986 C 0.80888 0.91972 0.93202
 C987 C 1.06409 1.14173 0.93586
 H988 H 1.05666 1.12467 0.94257
 C989 C 1.08460 1.18520 0.91770
 C990 C 0.93246 0.85984 0.94110
 H991 H 0.93753 0.87841 0.94565
 C992 C 0.91910 0.81182 0.92902
 O993 O 0.97321 0.41058 0.38629
 O994 O 0.97353 0.38240 0.35811
 C995 C 0.96499 0.40194 0.36683
 C996 C 0.94496 0.41424 0.35431
 C997 C 0.93565 0.40401 0.33328
 H998 H 0.94379 0.38774 0.32585
 O999 O 1.02043 0.59309 0.38435
 O1000 O 1.02026 0.62109 0.35595
 C1001 C 1.02831 0.60126 0.36448
 C1002 C 1.04739 0.58793 0.35132
 C1003 C 1.05435 0.59559 0.32833
 H1004 H 1.04445 0.61017 0.31989
 O1005 O 0.87885 0.47702 0.41759
 O1006 O 0.85050 0.47664 0.39000
 C1007 C 0.85905 0.46857 0.40954
 C1008 C 0.84636 0.44859 0.42263
 C1009 C 0.82370 0.43987 0.41489
 H1010 H 0.81493 0.44832 0.39974
 O1011 O 1.11904 0.52925 0.41307
 O1012 O 1.14609 0.52968 0.38385
 C1013 C 1.13826 0.53807 0.40366
 C1014 C 1.15095 0.55875 0.41576
 C1015 C 1.17245 0.56919 0.40628
 H1016 H 1.18051 0.56167 0.39018
 O1017 O 0.90990 0.37694 0.48100
 O1018 O 0.88142 0.34847 0.48130
 C1019 C 0.90130 0.35694 0.47307
 C1020 C 0.91447 0.34374 0.45383
 C1021 C 0.90694 0.32039 0.44646
 H1022 H 0.89138 0.31196 0.45510
 O1023 O 1.08582 0.62512 0.47790
 O1024 O 1.11390 0.65396 0.47856
 C1025 C 1.09428 0.64530 0.47019
 C1026 C 1.08178 0.65842 0.45065
 C1027 C 1.09112 0.68067 0.44215
 H1028 H 1.10627 0.68895 0.45135
 O1029 O 0.91289 0.52427 0.38430
 O1030 O 0.88482 0.52371 0.35644
 C1031 C 0.90432 0.53259 0.36496
 C1032 C 0.91630 0.55359 0.35278
 C1033 C 0.90684 0.56238 0.33127
 H1034 H 0.89202 0.55265 0.32286
 O1035 O 1.08417 0.48056 0.38292
 O1036 O 1.11114 0.48051 0.35361
 C1037 C 1.09191 0.47188 0.36323
 C1038 C 1.07873 0.45119 0.35172
 C1039 C 1.08629 0.44231 0.32923
 H1040 H 1.10142 0.45090 0.31995
 O1041 O 1.02167 0.37740 0.41705
 O1042 O 1.02185 0.34939 0.38871
 C1043 C 1.03035 0.35803 0.40799
 C1044 C 1.05104 0.34598 0.41968
 C1045 C 1.05982 0.32346 0.41133
 H1046 H 1.05083 0.31423 0.39668
 O1047 O 0.97411 0.62772 0.41682
 O1048 O 0.97386 0.65597 0.38869
 C1049 C 0.96572 0.64740 0.40834
 C1050 C 0.94564 0.65963 0.42118
 C1051 C 0.93525 0.68122 0.41240
 H1052 H 0.94264 0.68987 0.39645
 O1053 O 0.87939 0.58940 0.47798
 O1054 O 0.85097 0.61736 0.47926
 C1055 C 0.85973 0.59806 0.47011
 C1056 C 0.84737 0.58599 0.44964
 C1057 C 0.82652 0.59621 0.43968
 H1058 H 0.81869 0.61210 0.44810
 O1059 O 1.12045 0.41591 0.47516
 O1060 O 1.14881 0.38789 0.47503
 C1061 C 1.14015 0.40763 0.46679
 C1062 C 1.15252 0.42100 0.44690
 C1063 C 1.17496 0.41333 0.43756
 H1064 H 1.18390 0.39784 0.44553
 O1065 O 0.97346 0.59344 0.38471
 O1066 O 0.97309 0.62148 0.35637
 C1067 C 0.96503 0.60153 0.36516
 C1068 C 0.94541 0.58767 0.35288
 C1069 C 0.93550 0.59616 0.33123
 H1070 H 0.94245 0.61276 0.32305
 O1071 O 1.02039 0.41293 0.38639
 O1072 O 1.02057 0.38501 0.35796
 C1073 C 1.02848 0.40507 0.36653
 C1074 C 1.04762 0.41894 0.35338
 C1075 C 1.05522 0.41085 0.33073
 H1076 H 1.04671 0.39490 0.32287
 O1077 O 1.11884 0.48143 0.41383
 O1078 O 1.14600 0.48170 0.38469
 C1079 C 1.13818 0.47324 0.40454
 C1080 C 1.15136 0.45324 0.41657
 C1081 C 1.17356 0.44516 0.40737
 H1082 H 1.18083 0.45387 0.39146
 O1083 O 0.87803 0.52481 0.41539
 O1084 O 0.84992 0.52446 0.38757
 C1085 C 0.85861 0.53334 0.40673
 C1086 C 0.84667 0.55438 0.41863
 C1087 C 0.82588 0.56511 0.40878
 H1088 H 0.81796 0.55746 0.39272
 O1089 O 0.91148 0.62416 0.47953
 O1090 O 0.88303 0.65208 0.48112
 C1091 C 0.90268 0.64419 0.47231
 C1092 C 0.91484 0.65786 0.45275
 C1093 C 0.90476 0.67939 0.44387
 H1094 H 0.88898 0.68695 0.45266
 O1095 O 1.08824 0.38113 0.47582
 O1096 O 1.11639 0.35288 0.47602
 C1097 C 1.09667 0.36113 0.46797
 C1098 C 1.08353 0.34763 0.44904
 C1099 C 1.09196 0.32508 0.44065
 H1100 H 1.10816 0.31746 0.44832
 O1101 O 1.08433 0.52846 0.38197
 O1102 O 1.11122 0.52848 0.35258
 C1103 C 1.09194 0.53673 0.36197
 C1104 C 1.07857 0.55659 0.34993
 C1105 C 1.08559 0.56491 0.32700
 H1106 H 1.10060 0.55637 0.31778
 O1107 O 0.91075 0.47624 0.38321
 O1108 O 0.88259 0.47555 0.35545
 C1109 C 0.90207 0.46722 0.36405
 C1110 C 0.91435 0.44619 0.35240
 C1111 C 0.90539 0.43564 0.33107
 H1112 H 0.88986 0.44345 0.32227
 O1113 O 1.02149 0.62753 0.41602
 O1114 O 1.02165 0.65580 0.38791
 C1115 C 1.03017 0.64718 0.40724
 C1116 C 1.05081 0.65948 0.41951
 C1117 C 1.06085 0.68164 0.41092
 H1118 H 1.05313 0.69033 0.39535
 O1119 O 0.97413 0.37656 0.41871
 O1120 O 0.97441 0.34840 0.39053
 C1121 C 0.96604 0.35662 0.41018
 C1122 C 0.94620 0.34343 0.42302
 C1123 C 0.93836 0.32005 0.41579
 H1124 H 0.94746 0.31099 0.40106
 O1125 O 1.11917 0.59230 0.47653
 O1126 O 1.14733 0.62107 0.47698
 C1127 C 1.13869 0.60146 0.46818
 C1128 C 1.15096 0.58964 0.44751
 C1129 C 1.17233 0.59970 0.43783
 H1130 H 1.18059 0.61532 0.44652
 O1131 O 0.87877 0.41197 0.48106
 O1132 O 0.85002 0.38378 0.48099
 C1133 C 0.85904 0.40363 0.47289
 C1134 C 0.84666 0.41680 0.45345
 C1135 C 0.82417 0.40841 0.44541
 H1136 H 0.81548 0.39302 0.45424
 Cu1137 Cu 0.99729 0.39703 0.40508
 Cu1138 Cu 0.99764 0.36354 0.37098
 Cu1139 Cu 0.99731 0.60779 0.40340
 Cu1140 Cu 0.99724 0.64145 0.36943
 Cu1141 Cu 0.89791 0.50055 0.40285
 Cu1142 Cu 0.86424 0.49998 0.36954
 Cu1143 Cu 1.09894 0.50500 0.40085
 Cu1144 Cu 1.13128 0.50507 0.36575
 C1145 C 0.93430 0.43537 0.36370
 H1146 H 0.94118 0.44304 0.38021
 C1147 C 0.91583 0.41430 0.32167
 C1148 C 1.05940 0.56824 0.36192
 H1149 H 1.05420 0.56238 0.37979
 C1150 C 1.07372 0.58462 0.31615
 C1151 C 0.85760 0.43703 0.44209
 H1152 H 0.87522 0.44333 0.44797
 C1153 C 0.81273 0.41959 0.42603
 C1154 C 1.14055 0.56911 0.43645
 H1155 H 1.12386 0.56152 0.44368
 C1156 C 1.18311 0.58991 0.41708
 C1157 C 0.93427 0.35490 0.44221
 H1158 H 0.93998 0.37301 0.44768
 C1159 C 0.91895 0.30817 0.42767
 C1160 C 1.06150 0.64810 0.43939
 H1161 H 1.05438 0.63079 0.44580
 C1162 C 1.08129 0.69223 0.42199
 C1163 C 0.93570 0.56625 0.36342
 H1164 H 0.94280 0.55979 0.38028
 C1165 C 0.91594 0.58379 0.32059
 C1166 C 1.05925 0.43939 0.36363
 H1167 H 1.05359 0.44565 0.38118
 C1168 C 1.07445 0.42234 0.31856
 C1169 C 1.06289 0.35773 0.43865
 H1170 H 1.05643 0.37523 0.44491
 C1171 C 1.08010 0.31269 0.42196
 C1172 C 0.93542 0.64833 0.44151
 H1173 H 0.94296 0.63146 0.44812
 C1174 C 0.91455 0.69102 0.42351
 C1175 C 0.85718 0.56498 0.43907
 H1176 H 0.87342 0.55717 0.44649
 C1177 C 0.81585 0.58629 0.41894
 C1178 C 1.14114 0.44122 0.43646
 H1179 H 1.12379 0.44717 0.44335
 C1180 C 1.18584 0.42550 0.41790
 O1181 O 1.02103 0.41516 0.62019
 O1182 O 1.02181 0.38635 0.64780
 C1183 C 1.02964 0.40645 0.63937
 C1184 C 1.04956 0.41920 0.65169
 C1185 C 1.05773 0.41041 0.67368
 H1186 H 1.04811 0.39546 0.68231
 O1187 O 0.97637 0.58609 0.62348
 O1188 O 0.97640 0.61472 0.65124
 C1189 C 0.96804 0.59485 0.64287
 C1190 C 0.94768 0.58246 0.65527
 C1191 C 0.93876 0.59165 0.67697
 H1192 H 0.94812 0.60673 0.68549
 O1193 O 0.87925 0.52329 0.58825
 O1194 O 0.85061 0.52334 0.61602
 C1195 C 0.85931 0.53122 0.59632
 C1196 C 0.84629 0.55012 0.58295
 C1197 C 0.82328 0.55743 0.59062
 H1198 H 0.81496 0.54875 0.60610
 O1199 O 1.11958 0.47838 0.58621
 O1200 O 1.14822 0.47834 0.61354
 C1201 C 1.13955 0.47041 0.59402
 C1202 C 1.15281 0.45158 0.58048
 C1203 C 1.17632 0.44519 0.58716
 H1204 H 1.18471 0.45431 0.60221
 O1205 O 1.08667 0.38330 0.52236
 O1206 O 1.11459 0.35482 0.52276
 C1207 C 1.09477 0.36349 0.53072
 C1208 C 1.08100 0.35062 0.54998
 C1209 C 1.08733 0.32687 0.55694
 H1210 H 1.10219 0.31773 0.54803
 O1211 O 0.91223 0.62109 0.52629
 O1212 O 0.88386 0.64909 0.52780
 C1213 C 0.90364 0.64040 0.53545
 C1214 C 0.91660 0.65263 0.55544
 C1215 C 0.90902 0.67553 0.56392
 H1216 H 0.89397 0.68458 0.55546
 O1217 O 0.91187 0.47682 0.62174
 O1218 O 0.88332 0.47689 0.64960
 C1219 C 0.90306 0.46865 0.64122
 C1220 C 0.91543 0.44883 0.65389
 C1221 C 0.90651 0.44050 0.67592
 H1222 H 0.89147 0.44984 0.68429
 O1223 O 1.08709 0.52539 0.62036
 O1224 O 1.11583 0.52496 0.64757
 C1225 C 1.09612 0.53342 0.63972
 C1226 C 1.08412 0.55336 0.65289
 C1227 C 1.09459 0.56280 0.67370
 H1228 H 1.11071 0.55444 0.68082
 O1229 O 0.97378 0.38055 0.58860
 O1230 O 0.97496 0.35194 0.61637
 C1231 C 0.96612 0.36043 0.59723
 C1232 C 0.94614 0.34714 0.58550
 C1233 C 0.93755 0.32509 0.59511
 H1234 H 0.94679 0.31704 0.61018
 O1235 O 1.02331 0.61962 0.58971
 O1236 O 1.02301 0.64825 0.61747
 C1237 C 1.03130 0.63968 0.59795
 C1238 C 1.05078 0.65310 0.58519
 C1239 C 1.05872 0.67563 0.59402
 H1240 H 1.04986 0.68354 0.60954
 O1241 O 0.87677 0.41059 0.52767
 O1242 O 0.84785 0.38258 0.52781
 C1243 C 0.85677 0.40235 0.53590
 C1244 C 0.84427 0.41575 0.55544
 C1245 C 0.82110 0.40859 0.56376
 H1246 H 0.81180 0.39333 0.55548
 O1247 O 1.11969 0.59106 0.52342
 O1248 O 1.14794 0.61974 0.52396
 C1249 C 1.13942 0.59957 0.53166
 C1250 C 1.15214 0.58606 0.55079
 C1251 C 1.17516 0.59359 0.55877
 H1252 H 1.18415 0.60915 0.55052
 O1253 O 1.02373 0.58795 0.62417
 O1254 O 1.02380 0.61654 0.65193
 C1255 C 1.03227 0.59689 0.64341
 C1256 C 1.05291 0.58458 0.65514
 C1257 C 1.06372 0.59390 0.67616
 H1258 H 1.05635 0.60990 0.68484
 O1259 O 0.97391 0.41337 0.62198
 O1260 O 0.97472 0.38476 0.64976
 C1261 C 0.96603 0.40446 0.64163
 C1262 C 0.94609 0.41707 0.65441
 C1263 C 0.93679 0.40873 0.67663
 H1264 H 0.94469 0.39304 0.68528
 O1265 O 1.11890 0.52577 0.58611
 O1266 O 1.14766 0.52555 0.61330
 C1267 C 1.13883 0.53397 0.59404
 C1268 C 1.15170 0.55376 0.58105
 C1269 C 1.17473 0.56128 0.58845
 H1270 H 1.18310 0.55220 0.60347
 O1271 O 0.87831 0.47591 0.58982
 O1272 O 0.84974 0.47620 0.61766
 C1273 C 0.85843 0.46769 0.59831
 C1274 C 0.84540 0.44778 0.58586
 C1275 C 0.82236 0.44046 0.59383
 H1276 H 0.81378 0.45038 0.60831
 O1277 O 1.08633 0.62405 0.52470
 O1278 O 1.11437 0.65292 0.52543
 C1279 C 1.09472 0.64375 0.53348
 C1280 C 1.08174 0.65551 0.55371
 C1281 C 1.08930 0.67834 0.56278
 H1282 H 1.10433 0.68807 0.55448
 O1283 O 0.91001 0.37768 0.52756
 O1284 O 0.88136 0.34940 0.52817
 C1285 C 0.90119 0.35801 0.53606
 C1286 C 0.91403 0.34574 0.55578
 C1287 C 0.90545 0.32366 0.56576
 H1288 H 0.88945 0.31485 0.55856
 O1289 O 1.08666 0.47790 0.61973
 O1290 O 1.11524 0.47749 0.64710
 C1291 C 1.09530 0.46940 0.63900
 C1292 C 1.08208 0.44959 0.65163
 C1293 C 1.09028 0.44031 0.67364
 H1294 H 1.10629 0.44802 0.68193
 O1295 O 0.91059 0.52418 0.62276
 O1296 O 0.88202 0.52430 0.65058
 C1297 C 0.90189 0.53253 0.64225
 C1298 C 0.91492 0.55232 0.65494
 C1299 C 0.90608 0.56185 0.67673
 H1300 H 0.88976 0.55431 0.68482
 O1301 O 0.97607 0.61949 0.59065
 O1302 O 0.97595 0.64817 0.61836
 C1303 C 0.96772 0.63932 0.59896
 C1304 C 0.94798 0.65207 0.58622
 C1305 C 0.94015 0.67496 0.59426
 H1306 H 0.94874 0.68318 0.60968
 O1307 O 1.02095 0.38280 0.58643
 O1308 O 1.02193 0.35391 0.61394
 C1309 C 1.02961 0.36300 0.59427
 C1310 C 1.04897 0.35045 0.58062
 C1311 C 1.05548 0.32671 0.58703
 H1312 H 1.04615 0.31775 0.60179
 O1313 O 1.12143 0.41528 0.52188
 O1314 O 1.14976 0.38720 0.52204
 C1315 C 1.14116 0.40701 0.53002
 C1316 C 1.15378 0.42043 0.54930
 C1317 C 1.17727 0.41403 0.55640
 H1318 H 1.18667 0.39941 0.54729
 O1319 O 0.87861 0.58777 0.52471
 O1320 O 0.85009 0.61565 0.52601
 C1321 C 0.85875 0.59560 0.53320
 C1322 C 0.84597 0.58165 0.55214
 C1323 C 0.82303 0.58892 0.56022
 H1324 H 0.81419 0.60429 0.55188
 Cu1325 Cu 0.99722 0.40092 0.60156
 Cu1326 Cu 0.99858 0.36632 0.63472
 Cu1327 Cu 0.99992 0.60031 0.60433
 Cu1328 Cu 0.99974 0.63480 0.63753
 Cu1329 Cu 0.89673 0.39707 0.50436
 Cu1330 Cu 0.86224 0.36324 0.50448
 Cu1331 Cu 1.10148 0.40175 0.49874
 Cu1332 Cu 1.13521 0.36789 0.49902
 Cu1333 Cu 0.89829 0.60283 0.50200
 Cu1334 Cu 0.86414 0.63633 0.50376
 Cu1335 Cu 1.09998 0.60525 0.50067
 Cu1336 Cu 1.13370 0.63980 0.50130
 Cu1337 Cu 0.89793 0.50015 0.60287
 Cu1338 Cu 0.86355 0.50023 0.63629
 Cu1339 Cu 1.10010 0.50178 0.60040
 Cu1340 Cu 1.13462 0.50155 0.63314
 C1341 C 1.06162 0.43895 0.64089
 H1342 H 1.05548 0.44555 0.62370
 C1343 C 1.07831 0.42043 0.68455
 C1344 C 0.93581 0.56266 0.64451
 H1345 H 0.94246 0.55577 0.62752
 C1346 C 0.91776 0.58179 0.68766
 C1347 C 0.85736 0.56201 0.56342
 H1348 H 0.87531 0.55665 0.55765
 C1349 C 0.81155 0.57681 0.57937
 C1350 C 1.14183 0.43939 0.56132
 H1351 H 1.12359 0.44419 0.55623
 C1352 C 1.18882 0.42664 0.57510
 C1353 C 1.06159 0.36220 0.56182
 H1354 H 1.05673 0.38062 0.55686
 C1355 C 1.07439 0.31469 0.57519
 C1356 C 0.93626 0.64116 0.56660
 H1357 H 0.94205 0.62340 0.56040
 C1358 C 0.92089 0.68699 0.58311
 C1359 C 0.93530 0.43724 0.64339
 H1360 H 0.94195 0.44357 0.62615
 C1361 C 0.91671 0.42031 0.68730
 C1362 C 1.06320 0.56415 0.64390
 H1363 H 1.05537 0.55706 0.62755
 C1364 C 1.08485 0.58320 0.68529
 C1365 C 0.93447 0.35718 0.56572
 H1366 H 0.94094 0.37442 0.55849
 C1367 C 0.91700 0.31343 0.58572
 C1368 C 1.06227 0.64318 0.56496
 H1369 H 1.05644 0.62550 0.55836
 C1370 C 1.07795 0.68826 0.58314
 C1371 C 0.85615 0.43546 0.56658
 H1372 H 0.87409 0.44093 0.56059
 C1373 C 0.81012 0.42076 0.58317
 C1374 C 1.14068 0.56597 0.56195
 H1375 H 1.12278 0.56032 0.55629
 C1376 C 1.18670 0.58100 0.57738
 O1377 O 0.47567 0.91154 0.38154
 O1378 O 0.47598 0.88192 0.35481
 C1379 C 0.46800 0.90225 0.36214
 C1380 C 0.44895 0.91459 0.34836
 C1381 C 0.44109 0.90470 0.32661
 H1382 H 0.45041 0.88913 0.31916
 O1383 O 0.52356 1.08387 0.37817
 O1384 O 0.52503 1.11167 0.34958
 C1385 C 0.53271 1.09198 0.35882
 C1386 C 0.55286 1.07876 0.34720
 C1387 C 0.56083 1.08571 0.32434
 H1388 H 0.55179 1.10042 0.31513
 O1389 O 0.37936 0.97660 0.40868
 O1390 O 0.35089 0.97507 0.38123
 C1391 C 0.35937 0.96802 0.40117
 C1392 C 0.34610 0.94973 0.41601
 C1393 C 0.32268 0.94164 0.40983
 H1394 H 0.31403 0.94882 0.39400
 O1395 O 0.62350 1.02275 0.41451
 O1396 O 0.65212 1.02129 0.38683
 C1397 C 0.64351 1.03049 0.40588
 C1398 C 0.65607 1.05109 0.41779
 C1399 C 0.67862 1.06016 0.40956
 H1400 H 0.68788 1.05133 0.39479
 O1401 O 0.40943 0.88524 0.48009
 O1402 O 0.38006 0.85774 0.48134
 C1403 C 0.40005 0.86544 0.47259
 C1404 C 0.41196 0.85165 0.45292
 C1405 C 0.40190 0.82952 0.44495
 H1406 H 0.38650 0.82190 0.45450
 O1407 O 0.58779 1.12229 0.47086
 O1408 O 0.61584 1.15118 0.47013
 C1409 C 0.59630 1.14204 0.46209
 C1410 C 0.58320 1.15420 0.44229
 C1411 C 0.59001 1.17766 0.43402
 H1412 H 0.60498 1.18728 0.44228
 O1413 O 0.41213 1.02289 0.37344
 O1414 O 0.38413 1.02192 0.34555
 C1415 C 0.40373 1.03073 0.35377
 C1416 C 0.41695 1.05071 0.34108
 C1417 C 0.40933 1.05990 0.31875
 H1418 H 0.39358 1.05198 0.31021
 O1419 O 0.58823 0.97475 0.38445
 O1420 O 0.61674 0.97339 0.35662
 C1421 C 0.59673 0.96570 0.36526
 C1422 C 0.58356 0.94585 0.35284
 C1423 C 0.59168 0.93821 0.33033
 H1424 H 0.60751 0.94695 0.32251
 O1425 O 0.52021 0.87810 0.41730
 O1426 O 0.52000 0.84850 0.39058
 C1427 C 0.52782 0.85759 0.40997
 C1428 C 0.54640 0.84442 0.42371
 C1429 C 0.55375 0.82111 0.41653
 H1430 H 0.54529 0.81262 0.40118
 O1431 O 0.47582 1.11866 0.40817
 O1432 O 0.47682 1.14663 0.37974
 C1433 C 0.46797 1.13835 0.39925
 C1434 C 0.44808 1.15128 0.41168
 C1435 C 0.43993 1.17413 0.40362
 H1436 H 0.44847 1.18281 0.38826
 O1437 O 0.37796 1.08606 0.47245
 O1438 O 0.35030 1.11478 0.47138
 C1439 C 0.35856 1.09461 0.46385
 C1440 C 0.34606 1.08126 0.44434
 C1441 C 0.32276 1.08792 0.43681
 H1442 H 0.31330 1.10244 0.44601
 O1443 O 0.61511 0.91155 0.48078
 O1444 O 0.64239 0.88248 0.48242
 C1445 C 0.63480 0.90230 0.47345
 C1446 C 0.64880 0.91451 0.45404
 C1447 C 0.67137 0.90543 0.44680
 H1448 H 0.67874 0.88964 0.45575
 O1449 O 0.47643 1.08554 0.37488
 O1450 O 0.47804 1.11347 0.34644
 C1451 C 0.46913 1.09385 0.35491
 C1452 C 0.44949 1.08116 0.34178
 C1453 C 0.44218 1.08959 0.31927
 H1454 H 0.45265 1.10402 0.31086
 O1455 O 0.52282 0.91058 0.38338
 O1456 O 0.52318 0.88121 0.35642
 C1457 C 0.53164 0.90129 0.36441
 C1458 C 0.55214 0.91408 0.35205
 C1459 C 0.56067 0.90666 0.32927
 H1460 H 0.55202 0.89150 0.32018
 O1461 O 0.62097 0.97516 0.41709
 O1462 O 0.64967 0.97341 0.38949
 C1463 C 0.64036 0.96583 0.40909
 C1464 C 0.65160 0.94548 0.42247
 C1465 C 0.67397 0.93582 0.41523
 H1466 H 0.68359 0.94375 0.40008
 O1467 O 0.38056 1.02366 0.40774
 O1468 O 0.35207 1.02250 0.38028
 C1469 C 0.36068 1.03130 0.39956
 C1470 C 0.34748 1.05057 0.41265
 C1471 C 0.32439 1.05754 0.40529
 H1472 H 0.31668 1.04895 0.38963
 O1473 O 0.41183 1.11925 0.47141
 O1474 O 0.38418 1.14801 0.47051
 C1475 C 0.40381 1.13901 0.46274
 C1476 C 0.41706 1.15148 0.44310
 C1477 C 0.40947 1.17437 0.43511
 H1478 H 0.39413 1.18296 0.44373
 O1479 O 0.58183 0.87782 0.48163
 O1480 O 0.60892 0.84861 0.48340
 C1481 C 0.58983 0.85738 0.47444
 C1482 C 0.57704 0.84419 0.45502
 C1483 C 0.58447 0.82090 0.44732
 H1484 H 0.59938 0.81195 0.45611
 O1485 O 0.58975 1.02220 0.38239
 O1486 O 0.61814 1.02091 0.35446
 C1487 C 0.59843 1.02965 0.36252
 C1488 C 0.58543 1.04881 0.34897
 C1489 C 0.59340 1.05642 0.32608
 H1490 H 0.60917 1.04814 0.31793
 O1491 O 0.41296 0.97540 0.37604
 O1492 O 0.38487 0.97383 0.34823
 C1493 C 0.40452 0.96606 0.35703
 C1494 C 0.41755 0.94552 0.34572
 C1495 C 0.40967 0.93515 0.32403
 H1496 H 0.39419 0.94266 0.31492
 O1497 O 0.52314 1.11949 0.40857
 O1498 O 0.52398 1.14738 0.38005
 C1499 C 0.53168 1.13925 0.39984
 C1500 C 0.55112 1.15278 0.41239
 C1501 C 0.55795 1.17621 0.40462
 H1502 H 0.54858 1.18438 0.38970
 O1503 O 0.47300 0.88014 0.41615
 O1504 O 0.47260 0.85044 0.38953
 C1505 C 0.46395 0.86030 0.40838
 C1506 C 0.44286 0.84912 0.42127
 C1507 C 0.43220 0.82712 0.41336
 H1508 H 0.43972 0.81793 0.39787
 O1509 O 0.62081 1.08907 0.47340
 O1510 O 0.64894 1.11790 0.47283
 C1511 C 0.64074 1.09759 0.46546
 C1512 C 0.65425 1.08409 0.44700
 C1513 C 0.67652 1.09301 0.43857
 H1514 H 0.68441 1.10922 0.44656
 O1515 O 0.37733 0.91925 0.47871
 O1516 O 0.34796 0.89174 0.48042
 C1517 C 0.35733 0.91078 0.47110
 C1518 C 0.34505 0.92256 0.45077
 C1519 C 0.32164 0.91504 0.44454
 H1520 H 0.31250 0.90114 0.45513
 Cu1521 Cu 0.49800 0.89803 0.40225
 Cu1522 Cu 0.49800 0.86252 0.37020
 Cu1523 Cu 0.49951 1.09913 0.39532
 Cu1524 Cu 0.50113 1.13253 0.36108
 Cu1525 Cu 0.39919 0.99971 0.39407
 Cu1526 Cu 0.36519 0.99819 0.36095
 Cu1527 Cu 0.60287 0.99902 0.40248
 Cu1528 Cu 0.63705 0.99708 0.36907
 C1529 C 0.43730 0.93515 0.35763
 H1530 H 0.44314 0.94260 0.37463
 C1531 C 0.42122 0.91448 0.31454
 C1532 C 0.56501 1.06005 0.35927
 H1533 H 0.55894 1.05471 0.37703
 C1534 C 0.58089 1.07461 0.31356
 C1535 C 0.35703 0.94014 0.43664
 H1536 H 0.37519 0.94587 0.44137
 C1537 C 0.31023 0.92453 0.42428
 C1538 C 0.64428 1.06305 0.43674
 H1539 H 0.62680 1.05647 0.44300
 C1540 C 0.68874 1.08135 0.41981
 C1541 C 0.43253 0.86118 0.44110
 H1542 H 0.44022 0.87836 0.44706
 C1543 C 0.41150 0.81724 0.42493
 C1544 C 0.56360 1.14207 0.43141
 H1545 H 0.55841 1.12392 0.43734
 C1546 C 0.57712 1.18897 0.41542
 C1547 C 0.43700 1.06158 0.35233
 H1548 H 0.44262 1.05518 0.36978
 C1549 C 0.42174 1.07965 0.30771
 C1550 C 0.56363 0.93393 0.36348
 H1551 H 0.55750 0.93974 0.38104
 C1552 C 0.58025 0.91906 0.31810
 C1553 C 0.55784 0.85562 0.44320
 H1554 H 0.55232 0.87372 0.44864
 C1555 C 0.57263 0.80909 0.42826
 C1556 C 0.43659 1.14023 0.43154
 H1557 H 0.44240 1.12247 0.43763
 C1558 C 0.42084 1.18592 0.41557
 C1559 C 0.35806 1.06232 0.43234
 H1560 H 0.37606 1.05719 0.43789
 C1561 C 0.31159 1.07585 0.41749
 C1562 C 0.63925 0.93475 0.44200
 H1563 H 0.62177 0.94173 0.44743
 C1564 C 0.68408 0.91598 0.42749
 O1565 O 0.51726 0.92146 0.62375
 O1566 O 0.51657 0.89346 0.65216
 C1567 C 0.52557 0.91285 0.64307
 C1568 C 0.54650 0.92486 0.65465
 C1569 C 0.55573 0.91519 0.67584
 H1570 H 0.54644 0.90002 0.68446
 O1571 O 0.47799 1.09542 0.61805
 O1572 O 0.47842 1.12560 0.64420
 C1573 C 0.47018 1.10516 0.63719
 C1574 C 0.45085 1.09284 0.65104
 C1575 C 0.44462 1.10095 0.67401
 H1576 H 0.45487 1.11569 0.68211
 O1577 O 0.37910 1.03299 0.58969
 O1578 O 0.35038 1.03472 0.61731
 C1579 C 0.35919 1.04159 0.59734
 C1580 C 0.34619 1.05966 0.58277
 C1581 C 0.32315 1.06779 0.58972
 H1582 H 0.31467 1.06047 0.60579
 O1583 O 0.61781 0.98058 0.58792
 O1584 O 0.64645 0.98112 0.61520
 C1585 C 0.63740 0.97218 0.59624
 C1586 C 0.64926 0.95139 0.58398
 C1587 C 0.67205 0.94300 0.59134
 H1588 H 0.68151 0.95221 0.60572
 O1589 O 0.57982 0.88112 0.52845
 O1590 O 0.60702 0.85201 0.53030
 C1591 C 0.58753 0.86161 0.53784
 C1592 C 0.57404 0.85036 0.55815
 C1593 C 0.58190 0.82838 0.56833
 H1594 H 0.59751 0.81916 0.56088
 O1595 O 0.41242 1.12000 0.51810
 O1596 O 0.38475 1.14872 0.51702
 C1597 C 0.40424 1.14021 0.52555
 C1598 C 0.41685 1.15376 0.54488
 C1599 C 0.40782 1.17631 0.55239
 H1600 H 0.39315 1.18433 0.54250
 O1601 O 0.41011 0.98637 0.62480
 O1602 O 0.38127 0.98797 0.65229
 C1603 C 0.40076 0.97888 0.64437
 C1604 C 0.41234 0.95888 0.65759
 C1605 C 0.40293 0.95084 0.67965
 H1606 H 0.38773 0.96023 0.68769
 O1607 O 0.58611 1.02998 0.61935
 O1608 O 0.61434 1.03042 0.64705
 C1609 C 0.59501 1.03900 0.63834
 C1610 C 0.58320 1.06027 0.64978
 C1611 C 0.59217 1.07009 0.67123
 H1612 H 0.60737 1.06150 0.67988
 O1613 O 0.46884 0.88833 0.59280
 O1614 O 0.46798 0.86015 0.62105
 C1615 C 0.46022 0.86860 0.60137
 C1616 C 0.44090 0.85557 0.58826
 C1617 C 0.43278 0.83237 0.59567
 H1618 H 0.44104 0.82368 0.61098
 O1619 O 0.52355 1.12764 0.58189
 O1620 O 0.52362 1.15825 0.60752
 C1621 C 0.53139 1.14844 0.58842
 C1622 C 0.55009 1.16088 0.57377
 C1623 C 0.55726 1.18508 0.57860
 H1624 H 0.54868 1.19509 0.59303
 O1625 O 0.37708 0.92153 0.52564
 O1626 O 0.34774 0.89399 0.52701
 C1627 C 0.35701 0.91395 0.53426
 C1628 C 0.34472 0.92820 0.55334
 C1629 C 0.32077 0.92265 0.56039
 H1630 H 0.31087 0.90838 0.55115
 O1631 O 0.61890 1.09080 0.52004
 O1632 O 0.64715 1.11949 0.51946
 C1633 C 0.63837 1.09987 0.52830
 C1634 C 0.65065 1.08778 0.54872
 C1635 C 0.67288 1.09686 0.55710
 H1636 H 0.68141 1.11161 0.54729
 O1637 O 0.52506 1.09554 0.61617
 O1638 O 0.52559 1.12587 0.64209
 C1639 C 0.53368 1.10545 0.63486
 C1640 C 0.55351 1.09308 0.64793
 C1641 C 0.56266 1.10258 0.66949
 H1642 H 0.55433 1.11859 0.67713
 O1643 O 0.47007 0.92101 0.62645
 O1644 O 0.46926 0.89304 0.65487
 C1645 C 0.46168 0.91293 0.64625
 C1646 C 0.44234 0.92657 0.65874
 C1647 C 0.43292 0.91884 0.68103
 H1648 H 0.44053 0.90312 0.68992
 O1649 O 0.61846 1.02836 0.58593
 O1650 O 0.64690 1.02912 0.61342
 C1651 C 0.63818 1.03708 0.59391
 C1652 C 0.65061 1.05724 0.58075
 C1653 C 0.67258 1.06703 0.58916
 H1654 H 0.68066 1.05929 0.60503
 O1655 O 0.38023 0.98597 0.58965
 O1656 O 0.35110 0.98746 0.61687
 C1657 C 0.35998 0.97853 0.59768
 C1658 C 0.34653 0.95941 0.58455
 C1659 C 0.32285 0.95338 0.59150
 H1660 H 0.31506 0.96247 0.60686
 O1661 O 0.58594 1.12412 0.51729
 O1662 O 0.61414 1.15290 0.51643
 C1663 C 0.59411 1.14460 0.52430
 C1664 C 0.58054 1.15879 0.54214
 C1665 C 0.58722 1.18296 0.54681
 H1666 H 0.60127 1.19153 0.53601
 O1667 O 0.40864 0.88674 0.52704
 O1668 O 0.37938 0.85910 0.52811
 C1669 C 0.39929 0.86746 0.53595
 C1670 C 0.41138 0.85493 0.55598
 C1671 C 0.40343 0.83179 0.56363
 H1672 H 0.38842 0.82310 0.55455
 O1673 O 0.58474 0.98235 0.62108
 O1674 O 0.61314 0.98249 0.64860
 C1675 C 0.59315 0.97430 0.64065
 C1676 C 0.57976 0.95467 0.65368
 C1677 C 0.58881 0.94457 0.67503
 H1678 H 0.60541 0.95165 0.68269
 O1679 O 0.41284 1.03373 0.62201
 O1680 O 0.38433 1.03539 0.64982
 C1681 C 0.40449 1.04278 0.64124
 C1682 C 0.41845 1.06236 0.65319
 C1683 C 0.41251 1.07049 0.67636
 H1684 H 0.39762 1.06204 0.68613
 O1685 O 0.47656 1.12504 0.58228
 O1686 O 0.47632 1.15541 0.60818
 C1687 C 0.46782 1.14507 0.58957
 C1688 C 0.44730 1.15611 0.57648
 C1689 C 0.43735 1.17837 0.58415
 H1690 H 0.44486 1.18761 0.59958
 O1691 O 0.51574 0.88651 0.59269
 O1692 O 0.51477 0.85851 0.62112
 C1693 C 0.52318 0.86651 0.60135
 C1694 C 0.54232 0.85267 0.58884
 C1695 C 0.55012 0.83042 0.59834
 H1696 H 0.54151 0.82306 0.61433
 O1697 O 0.61459 0.91324 0.52730
 O1698 O 0.64188 0.88418 0.52887
 C1699 C 0.63398 0.90469 0.53589
 C1700 C 0.64739 0.91851 0.55442
 C1701 C 0.67019 0.91061 0.56184
 H1702 H 0.67792 0.89447 0.55376
 O1703 O 0.37730 1.08854 0.51948
 O1704 O 0.34960 1.11722 0.51814
 C1705 C 0.35784 1.09789 0.52738
 C1706 C 0.34522 1.08669 0.54812
 C1707 C 0.32223 1.09475 0.55533
 H1708 H 0.31355 1.10897 0.54516
 Cu1709 Cu 0.49291 0.90721 0.60613
 Cu1710 Cu 0.49206 0.87354 0.64023
 Cu1711 Cu 0.50091 1.10787 0.59702
 Cu1712 Cu 0.50108 1.14437 0.62807
 Cu1713 Cu 0.39607 0.90596 0.50283
 Cu1714 Cu 0.36088 0.87288 0.50438
 Cu1715 Cu 0.59502 0.89874 0.50433
 Cu1716 Cu 0.62772 0.86385 0.50644
 Cu1717 Cu 0.39753 1.10043 0.49538
 Cu1718 Cu 0.36446 1.13507 0.49413
 Cu1719 Cu 0.60054 1.10365 0.49542
 Cu1720 Cu 0.63443 1.13820 0.49472
 Cu1721 Cu 0.39860 1.00980 0.60392
 Cu1722 Cu 0.36387 1.01157 0.63686
 Cu1723 Cu 0.59897 1.00517 0.60084
 Cu1724 Cu 0.63308 1.00579 0.63381
 C1725 C 0.55848 0.94472 0.64376
 H1726 H 0.55161 0.95196 0.62711
 C1727 C 0.57703 0.92453 0.68592
 C1728 C 0.43782 1.07350 0.64084
 H1729 H 0.44238 1.06754 0.62287
 C1730 C 0.42552 1.08990 0.68678
 C1731 C 0.35691 1.06897 0.56180
 H1732 H 0.37478 1.06294 0.55649
 C1733 C 0.31087 1.08516 0.57600
 C1734 C 0.63721 0.93912 0.56534
 H1735 H 0.61951 0.94517 0.55978
 C1736 C 0.68279 0.92282 0.58008
 C1737 C 0.55410 0.86233 0.56847
 H1738 H 0.54829 0.87963 0.56120
 C1739 C 0.56992 0.81828 0.58832
 C1740 C 0.43678 1.14385 0.55687
 H1741 H 0.44378 1.12636 0.55122
 C1742 C 0.41732 1.18844 0.57243
 C1743 C 0.43210 0.94679 0.64741
 H1744 H 0.43907 0.95269 0.63014
 C1745 C 0.41304 0.93080 0.69148
 C1746 C 0.56383 1.07182 0.63839
 H1747 H 0.55711 1.06452 0.62165
 C1748 C 0.58224 1.09135 0.68120
 C1749 C 0.43028 0.86655 0.56824
 H1750 H 0.43629 0.88453 0.56255
 C1751 C 0.41425 0.82016 0.58326
 C1752 C 0.56176 1.14796 0.55541
 H1753 H 0.55679 1.12912 0.55194
 C1754 C 0.57606 1.19612 0.56529
 C1755 C 0.35729 0.94692 0.56531
 H1756 H 0.37576 0.95130 0.56011
 C1757 C 0.30954 0.93541 0.57930
 C1758 C 0.63979 1.06779 0.56053
 H1759 H 0.62257 1.06077 0.55427
 C1760 C 0.68388 1.08704 0.57767
 O1761 O 0.48192 0.40965 0.87357
 O1762 O 0.48370 0.38141 0.84549
 C1763 C 0.47442 0.40074 0.85400
 C1764 C 0.45429 0.41270 0.84145
 C1765 C 0.44675 0.40442 0.81896
 H1766 H 0.45721 0.39041 0.81022
 O1767 O 0.52278 0.58846 0.87933
 O1768 O 0.52169 0.61753 0.85201
 C1769 C 0.53052 0.59779 0.85986
 C1770 C 0.55046 0.58596 0.84659
 C1771 C 0.55831 0.59533 0.82446
 H1772 H 0.54929 0.61101 0.81696
 O1773 O 0.38428 0.46675 0.90835
 O1774 O 0.35586 0.46592 0.88084
 C1775 C 0.36492 0.45753 0.90004
 C1776 C 0.35323 0.43662 0.91278
 C1777 C 0.33020 0.42785 0.90611
 H1778 H 0.32055 0.43663 0.89169
 O1779 O 0.61950 0.52551 0.90995
 O1780 O 0.64852 0.52772 0.88260
 C1781 C 0.63951 0.53431 0.90256
 C1782 C 0.65245 0.55230 0.91738
 C1783 C 0.67669 0.55807 0.91247
 H1784 H 0.68580 0.54929 0.89759
 O1785 O 0.42171 0.36879 0.97056
 O1786 O 0.39480 0.33884 0.96992
 C1787 C 0.41417 0.34868 0.96196
 C1788 C 0.42771 0.33706 0.94203
 C1789 C 0.42136 0.31360 0.93394
 H1790 H 0.40710 0.30353 0.94312
 O1791 O 0.58582 0.61890 0.97544
 O1792 O 0.61386 0.64777 0.97644
 C1793 C 0.59457 0.63898 0.96762
 C1794 C 0.58262 0.65198 0.94767
 C1795 C 0.59258 0.67381 0.93865
 H1796 H 0.60832 0.68172 0.94722
 O1797 O 0.41519 0.51737 0.87699
 O1798 O 0.38721 0.51689 0.84905
 C1799 C 0.40638 0.52614 0.85792
 C1800 C 0.41832 0.54769 0.84647
 C1801 C 0.41038 0.55664 0.82423
 H1802 H 0.39581 0.54738 0.81492
 O1803 O 0.58846 0.47899 0.87443
 O1804 O 0.61697 0.48154 0.84662
 C1805 C 0.59745 0.47209 0.85461
 C1806 C 0.58526 0.45254 0.84103
 C1807 C 0.59251 0.44714 0.81756
 H1808 H 0.60706 0.45765 0.80938
 O1809 O 0.53035 0.37981 0.90646
 O1810 O 0.53275 0.35153 0.87847
 C1811 C 0.54004 0.36073 0.89809
 C1812 C 0.56029 0.34949 0.91110
 C1813 C 0.57097 0.32804 0.90249
 H1814 H 0.56399 0.31932 0.88651
 O1815 O 0.47540 0.61973 0.91358
 O1816 O 0.47449 0.64909 0.88658
 C1817 C 0.46661 0.63955 0.90588
 C1818 C 0.44641 0.65097 0.91914
 C1819 C 0.43744 0.67388 0.91232
 H1820 H 0.44593 0.68386 0.89770
 O1821 O 0.37790 0.57837 0.97342
 O1822 O 0.34884 0.60565 0.97305
 C1823 C 0.35824 0.58629 0.96477
 C1824 C 0.34656 0.57303 0.94462
 C1825 C 0.32441 0.58090 0.93506
 H1826 H 0.31538 0.59654 0.94278
 O1827 O 0.62551 0.41671 0.97179
 O1828 O 0.65476 0.38961 0.97181
 C1829 C 0.64549 0.40888 0.96341
 C1830 C 0.65747 0.42188 0.94311
 C1831 C 0.68035 0.41475 0.93439
 H1832 H 0.68991 0.40008 0.94313
 O1833 O 0.47571 0.58630 0.88069
 O1834 O 0.47461 0.61543 0.85346
 C1835 C 0.46708 0.59495 0.86148
 C1836 C 0.44796 0.58122 0.84843
 C1837 C 0.43986 0.58964 0.82619
 H1838 H 0.44770 0.60618 0.81871
 O1839 O 0.52879 0.41159 0.87220
 O1840 O 0.53074 0.38354 0.84394
 C1841 C 0.53756 0.40392 0.85248
 C1842 C 0.55614 0.41886 0.83986
 C1843 C 0.56364 0.41354 0.81628
 H1844 H 0.55536 0.39845 0.80674
 O1845 O 0.62153 0.47860 0.90702
 O1846 O 0.65018 0.48082 0.87934
 C1847 C 0.64172 0.47157 0.89857
 C1848 C 0.65538 0.45240 0.91124
 C1849 C 0.67831 0.44527 0.90299
 H1850 H 0.68601 0.45392 0.88719
 O1851 O 0.38170 0.51431 0.90945
 O1852 O 0.35355 0.51355 0.88166
 C1853 C 0.36172 0.52184 0.90127
 C1854 C 0.34820 0.54107 0.91409
 C1855 C 0.32598 0.54896 0.90512
 H1856 H 0.31859 0.54031 0.88931
 O1857 O 0.41011 0.61332 0.97545
 O1858 O 0.38099 0.64058 0.97536
 C1859 C 0.40132 0.63315 0.96775
 C1860 C 0.41446 0.64755 0.94938
 C1861 C 0.40582 0.67042 0.94246
 H1862 H 0.39032 0.67802 0.95170
 O1863 O 0.59207 0.38336 0.97173
 O1864 O 0.62133 0.35626 0.97175
 C1865 C 0.60152 0.36409 0.96342
 C1866 C 0.59003 0.35109 0.94324
 C1867 C 0.60033 0.32960 0.93443
 H1868 H 0.61563 0.32177 0.94357
 O1869 O 0.58784 0.52653 0.87595
 O1870 O 0.61655 0.52917 0.84838
 C1871 C 0.59646 0.53623 0.85699
 C1872 C 0.58305 0.55618 0.84522
 C1873 C 0.59083 0.56597 0.82311
 H1874 H 0.60656 0.55849 0.81415
 O1875 O 0.41627 0.46969 0.87428
 O1876 O 0.38809 0.46897 0.84653
 C1877 C 0.40804 0.46141 0.85465
 C1878 C 0.42159 0.44225 0.84170
 C1879 C 0.41375 0.43327 0.81941
 H1880 H 0.39778 0.44088 0.81124
 O1881 O 0.52274 0.62103 0.91274
 O1882 O 0.52208 0.65022 0.88555
 C1883 C 0.53090 0.64116 0.90452
 C1884 C 0.55143 0.65343 0.91684
 C1885 C 0.56171 0.67537 0.90803
 H1886 H 0.55404 0.68412 0.89246
 O1887 O 0.48349 0.37516 0.90530
 O1888 O 0.48565 0.34669 0.87748
 C1889 C 0.47673 0.35463 0.89699
 C1890 C 0.45808 0.34009 0.91007
 C1891 C 0.45133 0.31669 0.90210
 H1892 H 0.45990 0.30946 0.88617
 O1893 O 0.61901 0.58561 0.97653
 O1894 O 0.64707 0.61448 0.97765
 C1895 C 0.63901 0.59454 0.96915
 C1896 C 0.65250 0.58179 0.95004
 C1897 C 0.67679 0.58770 0.94472
 H1898 H 0.68618 0.60152 0.95506
 O1899 O 0.38774 0.40100 0.97080
 O1900 O 0.36059 0.37126 0.97012
 C1901 C 0.36844 0.39173 0.96244
 C1902 C 0.35508 0.40472 0.94346
 C1903 C 0.33203 0.39651 0.93674
 H1904 H 0.32407 0.38075 0.94561
 Cu1905 Cu 0.50594 0.39687 0.89216
 Cu1906 Cu 0.50838 0.36288 0.85857
 Cu1907 Cu 0.49923 0.60107 0.89940
 Cu1908 Cu 0.49802 0.63602 0.86669
 Cu1909 Cu 0.40222 0.49202 0.89497
 Cu1910 Cu 0.36837 0.49127 0.86174
 Cu1911 Cu 0.60134 0.50218 0.89451
 Cu1912 Cu 0.63589 0.50511 0.86136
 C1913 C 0.44184 0.43181 0.85250
 H1914 H 0.44758 0.43818 0.86994
 C1915 C 0.42610 0.41411 0.80791
 C1916 C 0.56269 0.56617 0.85665
 H1917 H 0.55681 0.55904 0.87387
 C1918 C 0.57835 0.58539 0.81247
 C1919 C 0.36542 0.42497 0.93162
 H1920 H 0.38327 0.43131 0.93673
 C1921 C 0.31934 0.40805 0.91832
 C1922 C 0.64061 0.56390 0.93641
 H1923 H 0.62179 0.55951 0.94015
 C1924 C 0.68911 0.57547 0.92622
 C1925 C 0.44632 0.34998 0.93018
 H1926 H 0.45115 0.36816 0.93619
 C1927 C 0.43316 0.30307 0.91408
 C1928 C 0.56199 0.64206 0.93676
 H1929 H 0.55449 0.62502 0.94347
 C1930 C 0.58256 0.68551 0.91866
 C1931 C 0.43727 0.56005 0.85830
 H1932 H 0.44332 0.55353 0.87556
 C1933 C 0.42132 0.57740 0.81380
 C1934 C 0.56690 0.43857 0.85190
 H1935 H 0.56148 0.44261 0.87016
 C1936 C 0.58157 0.42794 0.80484
 C1937 C 0.56987 0.36085 0.93159
 H1938 H 0.56206 0.37767 0.93810
 C1939 C 0.59119 0.31821 0.91388
 C1940 C 0.43491 0.63807 0.93784
 H1941 H 0.44138 0.62021 0.94290
 C1942 C 0.41694 0.68358 0.92377
 C1943 C 0.35819 0.55294 0.93406
 H1944 H 0.37548 0.54704 0.94086
 C1945 C 0.31390 0.56879 0.91539
 C1946 C 0.64529 0.44083 0.93147
 H1947 H 0.62754 0.44619 0.93782
 C1948 C 0.69107 0.42660 0.91451
 O1949 O 0.52558 0.40845 1.11792
 O1950 O 0.52556 0.37921 1.14510
 C1951 C 0.53317 0.39970 1.13757
 C1952 C 0.55169 0.41297 1.15141
 C1953 C 0.55902 0.40421 1.17375
 H1954 H 0.54967 0.38864 1.18155
 O1955 O 0.47253 0.58006 1.11869
 O1956 O 0.47041 0.60835 1.14667
 C1957 C 0.46320 0.58808 1.13791
 C1958 C 0.44317 0.57402 1.14950
 C1959 C 0.43365 0.58116 1.17179
 H1960 H 0.44185 0.59644 1.18109
 O1961 O 0.37523 0.51336 1.08233
 O1962 O 0.34637 0.51119 1.10976
 C1963 C 0.35499 0.52052 1.09067
 C1964 C 0.34212 0.54054 1.07829
 C1965 C 0.32010 0.55000 1.08718
 H1966 H 0.31151 0.54196 1.10285
 O1967 O 0.61840 0.47594 1.08800
 O1968 O 0.64678 0.47653 1.11555
 C1969 C 0.63856 0.46850 1.09582
 C1970 C 0.65235 0.45021 1.08182
 C1971 C 0.67501 0.44196 1.08967
 H1972 H 0.68277 0.44927 1.10595
 O1973 O 0.59250 0.38193 1.01864
 O1974 O 0.62180 0.35488 1.01844
 C1975 C 0.60179 0.36249 1.02679
 C1976 C 0.58986 0.34908 1.04686
 C1977 C 0.60004 0.32751 1.05567
 H1978 H 0.61532 0.31989 1.04621
 O1979 O 0.40872 0.61159 1.02218
 O1980 O 0.37966 0.63889 1.02185
 C1981 C 0.39929 0.63089 1.03054
 C1982 C 0.41081 0.64392 1.05091
 C1983 C 0.40093 0.66582 1.05936
 H1984 H 0.38590 0.67369 1.04987
 O1985 O 0.41050 0.46691 1.11400
 O1986 O 0.38167 0.46443 1.14145
 C1987 C 0.40190 0.45744 1.13309
 C1988 C 0.41527 0.43768 1.14527
 C1989 C 0.40626 0.42733 1.16666
 H1990 H 0.38970 0.43422 1.17452
 O1991 O 0.58347 0.52167 1.12144
 O1992 O 0.61172 0.52242 1.14913
 C1993 C 0.59187 0.53028 1.14080
 C1994 C 0.57912 0.55045 1.15319
 C1995 C 0.58859 0.56021 1.17433
 H1996 H 0.60373 0.55118 1.18256
 O1997 O 0.48179 0.37329 1.08218
 O1998 O 0.48265 0.34417 1.10945
 C1999 C 0.47454 0.35267 1.09002
 C2000 C 0.45586 0.33866 1.07706
 C2001 C 0.44766 0.31632 1.08636
 H2002 H 0.45594 0.30882 1.10225
 O2003 O 0.51854 0.61592 1.08636
 O2004 O 0.51726 0.64464 1.11396
 C2005 C 0.52617 0.63610 1.09460
 C2006 C 0.54624 0.64903 1.08188
 C2007 C 0.55611 0.67093 1.09094
 H2008 H 0.54851 0.67914 1.10694
 O2009 O 0.38632 0.39993 1.01740
 O2010 O 0.35926 0.37011 1.01672
 C2011 C 0.36672 0.39036 1.02511
 C2012 C 0.35270 0.40271 1.04430
 C2013 C 0.33066 0.39264 1.05263
 H2014 H 0.32394 0.37586 1.04482
 O2015 O 0.61759 0.58587 1.02346
 O2016 O 0.64530 0.61510 1.02422
 C2017 C 0.63676 0.59513 1.03231
 C2018 C 0.64888 0.58313 1.05273
 C2019 C 0.67050 0.59296 1.06185
 H2020 H 0.67899 0.60832 1.05282
 O2021 O 0.51969 0.58481 1.12134
 O2022 O 0.51804 0.61323 1.14919
 C2023 C 0.52749 0.59395 1.14084
 C2024 C 0.54819 0.58218 1.15327
 C2025 C 0.55856 0.59224 1.17424
 H2026 H 0.55112 0.60868 1.18199
 O2027 O 0.47849 0.40695 1.11462
 O2028 O 0.47869 0.37775 1.14184
 C2029 C 0.46975 0.39732 1.13351
 C2030 C 0.44852 0.40853 1.14552
 C2031 C 0.43949 0.39880 1.16710
 H2032 H 0.44933 0.38426 1.17561
 O2033 O 0.61720 0.52322 1.08916
 O2034 O 0.64559 0.52400 1.11673
 C2035 C 0.63670 0.53217 1.09742
 C2036 C 0.64882 0.55261 1.08465
 C2037 C 0.67036 0.56281 1.09357
 H2038 H 0.67840 0.55531 1.10958
 O2039 O 0.37964 0.46592 1.07941
 O2040 O 0.35068 0.46350 1.10674
 C2041 C 0.36033 0.45602 1.08733
 C2042 C 0.34949 0.43501 1.07438
 C2043 C 0.32751 0.42475 1.08229
 H2044 H 0.31793 0.43315 1.09710
 O2045 O 0.58260 0.61690 1.02217
 O2046 O 0.61038 0.64604 1.02302
 C2047 C 0.59056 0.63682 1.03069
 C2048 C 0.57741 0.64907 1.05041
 C2049 C 0.58670 0.67088 1.05960
 H2050 H 0.60229 0.67943 1.05107
 O2051 O 0.42062 0.36787 1.01744
 O2052 O 0.39367 0.33796 1.01692
 C2053 C 0.41275 0.34757 1.02546
 C2054 C 0.42556 0.33572 1.04554
 C2055 C 0.41767 0.31311 1.05506
 H2056 H 0.40259 0.30342 1.04705
 O2057 O 0.58631 0.47416 1.12227
 O2058 O 0.61440 0.47461 1.15010
 C2059 C 0.59496 0.46579 1.14161
 C2060 C 0.58236 0.44512 1.15361
 C2061 C 0.58975 0.43600 1.17601
 H2062 H 0.60470 0.44461 1.18529
 O2063 O 0.40942 0.51459 1.11403
 O2064 O 0.38075 0.51216 1.14163
 C2065 C 0.40027 0.52180 1.13368
 C2066 C 0.41223 0.54183 1.14720
 C2067 C 0.40282 0.54946 1.16938
 H2068 H 0.38671 0.54054 1.17631
 O2069 O 0.47111 0.61498 1.08746
 O2070 O 0.46938 0.64362 1.11509
 C2071 C 0.46165 0.63438 1.09568
 C2072 C 0.44106 0.64579 1.08279
 C2073 C 0.43057 0.66762 1.09113
 H2074 H 0.43789 0.67654 1.10684
 O2075 O 0.52896 0.37741 1.08300
 O2076 O 0.52967 0.34828 1.11025
 C2077 C 0.53817 0.35802 1.09123
 C2078 C 0.55926 0.34708 1.07872
 C2079 C 0.57017 0.32584 1.08764
 H2080 H 0.56286 0.31726 1.10365
 O2081 O 0.62341 0.41777 1.01897
 O2082 O 0.65264 0.39065 1.01871
 C2083 C 0.64313 0.40982 1.02729
 C2084 C 0.65472 0.42221 1.04782
 C2085 C 0.67732 0.41439 1.05583
 H2086 H 0.68639 0.39983 1.04635
 O2087 O 0.37607 0.57744 1.02030
 O2088 O 0.34707 0.60481 1.01977
 C2089 C 0.35590 0.58527 1.02801
 C2090 C 0.34295 0.57218 1.04744
 C2091 C 0.32124 0.58142 1.05657
 H2092 H 0.31327 0.59736 1.04838
 Cu2093 Cu 0.50372 0.39446 1.09668
 Cu2094 Cu 0.50415 0.35942 1.12935
 Cu2095 Cu 0.49568 0.59618 1.10080
 Cu2096 Cu 0.49355 0.63030 1.13396
 Cu2097 Cu 0.40690 0.38729 0.99418
 Cu2098 Cu 0.37440 0.35152 0.99330
 Cu2099 Cu 0.60551 0.40273 0.99527
 Cu2100 Cu 0.64055 0.37015 0.99520
 Cu2101 Cu 0.39608 0.59237 0.99776
 Cu2102 Cu 0.36123 0.62520 0.99744
 Cu2103 Cu 0.59853 0.59884 0.99917
 Cu2104 Cu 0.63187 0.63381 1.00043
 Cu2105 Cu 0.39650 0.49053 1.09469
 Cu2106 Cu 0.36197 0.48760 1.12760
 Cu2107 Cu 0.59846 0.49852 1.10253
 Cu2108 Cu 0.63241 0.49943 1.13572
 C2109 C 0.56321 0.43352 1.14165
 H2110 H 0.55769 0.44004 1.12421
 C2111 C 0.57823 0.41529 1.18610
 C2112 C 0.43253 0.55409 1.13753
 H2113 H 0.43959 0.54857 1.12023
 C2114 C 0.41353 0.56893 1.18204
 C2115 C 0.35313 0.55165 1.05822
 H2116 H 0.37019 0.54483 1.05143
 C2117 C 0.30981 0.57072 1.07649
 C2118 C 0.64249 0.44036 1.06071
 H2119 H 0.62487 0.44623 1.05474
 C2120 C 0.68772 0.42419 1.07660
 C2121 C 0.56932 0.35858 1.05835
 H2122 H 0.56147 0.37530 1.05173
 C2123 C 0.59082 0.31600 1.07645
 C2124 C 0.43098 0.63414 1.06264
 H2125 H 0.43854 0.61713 1.05632
 C2126 C 0.41028 0.67768 1.07969
 C2127 C 0.43642 0.42814 1.13486
 H2128 H 0.44316 0.43561 1.11809
 C2129 C 0.41805 0.40766 1.17762
 C2130 C 0.55876 0.56133 1.14297
 H2131 H 0.55153 0.55389 1.12652
 C2132 C 0.57917 0.58156 1.18467
 C2133 C 0.44489 0.34815 1.05657
 H2134 H 0.45089 0.36570 1.04970
 C2135 C 0.42854 0.30359 1.07571
 C2136 C 0.55702 0.63831 1.06147
 H2137 H 0.55007 0.62115 1.05465
 C2138 C 0.57665 0.68159 1.08005
 C2139 C 0.36184 0.42402 1.05516
 H2140 H 0.37900 0.43162 1.04915
 C2141 C 0.31790 0.40357 1.07163
 C2142 C 0.63825 0.56284 1.06415
 H2143 H 0.62141 0.55537 1.05743
 C2144 C 0.68117 0.58319 1.08249
 C2145 C 1.11584 1.11656 1.24203
 C2146 C 1.11935 1.09148 1.23880
 N2147 N 1.13011 1.07851 1.25643
 C2148 C 1.13752 1.08945 1.27708
 C2149 C 1.13350 1.11469 1.28071
 N2150 N 1.12260 1.12736 1.26281
 N2151 N 1.10591 1.12987 1.22427
 C2152 C 1.09864 1.11914 1.20362
 C2153 C 1.10068 1.09363 1.20067
 N2154 N 1.11150 1.08047 1.21834
 H2155 H 1.14541 1.07813 1.29075
 H2156 H 1.09125 1.13055 1.18972
 C2157 C 1.12280 0.60850 0.74632
 C2158 C 1.09740 0.60682 0.74666
 N2159 N 1.08514 0.61259 0.76701
 C2160 C 1.09709 0.62028 0.78690
 C2161 C 1.12253 0.62233 0.78653
 N2162 N 1.13475 0.61620 0.76616
 N2163 N 1.13509 0.60295 0.72597
 C2164 C 1.12321 0.59549 0.70601
 C2165 C 1.09776 0.59339 0.70629
 N2166 N 1.08543 0.59931 0.72670
 H2167 H 1.08681 0.62503 0.80279
 H2168 H 1.13356 0.59116 0.69006
 C2169 C 0.61292 1.12079 0.74471
 C2170 C 0.61493 1.09593 0.73953
 N2171 N 0.62667 1.08117 0.75515
 C2172 C 0.63629 1.09017 0.77585
 C2173 C 0.63387 1.11513 0.78131
 N2174 N 0.62230 1.12967 0.76531
 N2175 N 0.60135 1.13570 0.72925
 C2176 C 0.59139 1.12685 0.70881
 C2177 C 0.59283 1.10175 0.70354
 N2178 N 0.60488 1.08697 0.71912
 H2179 H 0.64504 1.07785 0.78813
 H2180 H 0.58286 1.13950 0.69672
 C2181 C 0.61472 0.60973 1.24636
 C2182 C 0.59008 0.61418 1.24279
 N2183 N 0.57762 0.62687 1.25964
 C2184 C 0.58863 0.63532 1.27984
 C2185 C 0.61344 0.63047 1.28384
 N2186 N 0.62559 0.61761 1.26670
 N2187 N 0.62754 0.59778 1.22934
 C2188 C 0.61674 0.58949 1.20912
 C2189 C 0.59162 0.59262 1.20583
 N2190 N 0.57898 0.60539 1.22275
 H2191 H 0.57764 0.64474 1.29289
 H2192 H 0.62786 0.58060 1.19578
 C2193 C 0.90557 0.88588 1.25117
 C2194 C 0.89150 0.90055 1.23637
 N2195 N 0.86867 0.90620 1.24307
 C2196 C 0.85912 0.89796 1.26407
 C2197 C 0.87310 0.88308 1.27936
 N2198 N 0.89607 0.87747 1.27212
 N2199 N 0.92849 0.88027 1.24436
 C2200 C 0.93789 0.88856 1.22322
 C2201 C 0.92361 0.90307 1.20809
 N2202 N 0.90076 0.90870 1.21531
 H2203 H 0.84055 0.90248 1.26784
 H2204 H 0.95635 0.88408 1.21857
 C2205 C 0.88629 0.39930 0.75418
 C2206 C 0.91135 0.39801 0.75007
 N2207 N 0.92598 0.39061 0.76795
 C2208 C 0.91670 0.38374 0.78955
 C2209 C 0.89136 0.38419 0.79367
 N2210 N 0.87695 0.39259 0.77580
 N2211 N 0.87160 0.40639 0.73619
 C2212 C 0.88085 0.41252 0.71437
 C2213 C 0.90606 0.41175 0.71027
 N2214 N 0.92069 0.40431 0.72832
 H2215 H 0.92919 0.37846 0.80338
 H2216 H 0.86858 0.41790 0.70035
 C2217 C 0.38323 0.90597 0.75743
 C2218 C 0.40839 0.90695 0.75374
 N2219 N 0.42335 0.89990 0.77153
 C2220 C 0.41433 0.89144 0.79270
 C2221 C 0.38908 0.88958 0.79626
 N2222 N 0.37415 0.89726 0.77850
 N2223 N 0.36828 0.91321 0.73966
 C2224 C 0.37735 0.92138 0.71837
 C2225 C 0.40257 0.92217 0.71450
 N2226 N 0.41746 0.91485 0.73240
 H2227 H 0.42682 0.88612 0.80656
 H2228 H 0.36495 0.92676 0.70445
 C2229 C 0.38822 0.37538 1.24060
 C2230 C 0.38252 0.39932 1.23434
 N2231 N 0.36733 0.41223 1.24865
 C2232 C 0.35759 0.40227 1.26900
 C2233 C 0.36356 0.37813 1.27567
 N2234 N 0.37883 0.36560 1.26091
 N2235 N 0.40295 0.36213 1.22624
 C2236 C 0.41261 0.37186 1.20591
 C2237 C 0.40760 0.39625 1.19968
 N2238 N 0.39236 0.40927 1.21411
 H2239 H 0.34604 0.41357 1.27991
 H2240 H 0.42366 0.36035 1.19467
 C2241 C 0.88087 1.10372 0.75636
 C2242 C 0.90526 1.10886 0.76106
 N2243 N 0.91877 1.12082 0.74433
 C2244 C 0.90899 1.12809 0.72320
 C2245 C 0.88435 1.12293 0.71821
 N2246 N 0.87115 1.11058 0.73516
 N2247 N 0.86712 1.09232 0.77324
 C2248 C 0.87674 1.08540 0.79448
 C2249 C 0.90155 1.08960 0.79907
 N2250 N 0.91510 1.10160 0.78216
 H2251 H 0.92082 1.13692 0.71031
 H2252 H 0.86492 1.07691 0.80763
 C2253 C 0.88222 0.60777 0.25700
 C2254 C 0.90744 0.60962 0.25948
 N2255 N 0.92104 0.61821 0.24088
 C2256 C 0.91056 0.62507 0.21996
 C2257 C 0.88524 0.62319 0.21740
 N2258 N 0.87179 0.61450 0.23614
 N2259 N 0.86853 0.59923 0.27547
 C2260 C 0.87891 0.59206 0.29624
 C2261 C 0.90426 0.59327 0.29871
 N2262 N 0.91792 0.60234 0.28024
 H2263 H 0.92195 0.63154 0.20539
 H2264 H 0.86744 0.58543 0.31069
 C2265 C 0.39923 1.10866 0.24060
 C2266 C 0.39211 1.08516 0.24776
 N2267 N 0.37809 1.07153 0.23296
 C2268 C 0.37072 1.08036 0.21141
 C2269 C 0.37798 1.10406 0.20388
 N2270 N 0.39230 1.11736 0.21894
 N2271 N 0.41260 1.12265 0.25559
 C2272 C 0.41959 1.11410 0.27729
 C2273 C 0.41339 1.09004 0.28438
 N2274 N 0.39944 1.07631 0.26932
 H2275 H 0.36015 1.06840 0.20014
 H2276 H 0.42955 1.12631 0.28884
 C2277 C 0.39677 0.60815 0.74873
 C2278 C 0.38053 0.59630 0.76438
 N2279 N 0.35656 0.59593 0.75918
 C2280 C 0.34808 0.60699 0.73911
 C2281 C 0.36430 0.61925 0.72351
 N2282 N 0.38832 0.61938 0.72885
 N2283 N 0.42071 0.60868 0.75387
 C2284 C 0.42915 0.59828 0.77422
 C2285 C 0.41288 0.58701 0.79046
 N2286 N 0.38889 0.58605 0.78488
 H2287 H 0.32881 0.60682 0.73585
 H2288 H 0.44838 0.59892 0.77769
 C2289 C 1.09736 0.88670 0.74305
 C2290 C 1.10038 0.91157 0.74821
 N2291 N 1.11123 0.92639 0.73176
 C2292 C 1.11934 0.91745 0.71044
 C2293 C 1.11652 0.89241 0.70518
 N2294 N 1.10541 0.87774 0.72176
 N2295 N 1.08665 0.87184 0.75951
 C2296 C 1.07861 0.88071 0.78085
 C2297 C 1.08127 0.90577 0.78612
 N2298 N 1.09233 0.92052 0.76954
 H2299 H 1.12756 0.92989 0.69764
 H2300 H 1.07064 0.86814 0.79367
 C2301 C 1.09987 0.39045 0.25411
 C2302 C 1.11608 0.39967 0.27119
 N2303 N 1.14022 0.39734 0.26754
 C2304 C 1.14896 0.38642 0.24746
 C2305 C 1.13282 0.37743 0.23003
 N2306 N 1.10856 0.37957 0.23398
 N2307 N 1.07570 0.39253 0.25796
 C2308 C 1.06700 0.40319 0.27823
 C2309 C 1.08320 0.41225 0.29552
 N2310 N 1.10743 0.41035 0.29140
 H2311 H 1.16833 0.38454 0.24534
 H2312 H 1.04763 0.40458 0.28081
 C2313 C 0.61207 0.89720 0.25215
 C2314 C 0.60018 0.88018 0.26708
 N2315 N 0.59956 0.85638 0.26070
 C2316 C 0.60978 0.84883 0.23984
 C2317 C 0.62152 0.86584 0.22443
 N2318 N 0.62272 0.88965 0.23142
 N2319 N 0.61202 0.92113 0.25821
 C2320 C 0.60106 0.92876 0.27871
 C2321 C 0.58992 0.91162 0.29431
 N2322 N 0.58960 0.88769 0.28782
 H2323 H 0.60919 0.82954 0.23573
 H2324 H 0.60111 0.94806 0.28273
 C2325 C 0.60583 0.41196 0.73434
 C2326 C 0.59751 0.39334 0.74973
 N2327 N 0.59746 0.36988 0.74204
 C2328 C 0.60509 0.36420 0.71955
 C2329 C 0.61319 0.38283 0.70396
 N2330 N 0.61352 0.40632 0.71186
 N2331 N 0.60555 0.43544 0.74195
 C2332 C 0.59756 0.44116 0.76432
 C2333 C 0.58953 0.42251 0.77999
 N2334 N 0.58960 0.39901 0.77210
 H2335 H 0.60478 0.34533 0.71386
 H2336 H 0.59725 0.46013 0.76964
 C2337 C 1.26225 1.08421 1.09168
 C2338 C 1.24674 1.10283 1.08412
 N2339 N 1.25372 1.12648 1.08640
 C2340 C 1.27551 1.13238 1.09598
 C2341 C 1.29097 1.11379 1.10389
 N2342 N 1.28390 1.09008 1.10154
 N2343 N 1.25526 1.06057 1.08933
 C2344 C 1.23321 1.05469 1.08033
 C2345 C 1.21717 1.07333 1.07368
 N2346 N 1.22457 1.09700 1.07544
 H2347 H 1.28050 1.15142 1.09785
 H2348 H 1.22810 1.03565 1.07876
 C2349 C 1.25243 0.60438 0.60862
 C2350 C 1.23593 0.62142 0.59973
 N2351 N 1.24037 0.64561 0.60274
 C2352 C 1.26055 0.65355 0.61428
 C2353 C 1.27702 0.63651 0.62348
 N2354 N 1.27244 0.61227 0.62035
 N2355 N 1.24801 0.58020 0.60571
 C2356 C 1.22754 0.57222 0.59477
 C2357 C 1.21047 0.58918 0.58657
 N2358 N 1.21533 0.61348 0.58901
 H2359 H 1.26335 0.67295 0.61673
 H2360 H 1.22450 0.55279 0.59278
 C2361 C 0.74931 1.11630 0.60615
 C2362 C 0.74032 1.09376 0.61394
 N2363 N 0.75265 1.08118 0.63085
 C2364 C 0.77367 1.09015 0.64024
 C2365 C 0.78317 1.11278 0.63207
 N2366 N 0.77032 1.12503 0.61516
 N2367 N 0.73690 1.12931 0.58977
 C2368 C 0.71588 1.12066 0.58048
 C2369 C 0.70685 1.09753 0.58757
 N2370 N 0.71944 1.08482 0.60444
 H2371 H 0.78297 1.07914 0.65323
 H2372 H 0.70644 1.13218 0.56806
 C2373 C 0.74443 0.61507 1.11205
 C2374 C 0.73967 0.59007 1.11473
 N2375 N 0.75578 0.57594 1.12654
 C2376 C 0.77654 0.58569 1.13563
 C2377 C 0.78154 0.61077 1.13262
 N2378 N 0.76512 0.62472 1.12094
 N2379 N 0.72848 0.62932 1.10032
 C2380 C 0.70800 0.61965 1.09079
 C2381 C 0.70326 0.59442 1.09289
 N2382 N 0.71924 0.58031 1.10512
 H2383 H 0.78925 0.57382 1.14442
 H2384 H 0.69547 0.63170 1.08201
 C2385 C 1.25457 0.89880 0.88306
 C2386 C 1.24729 0.89288 0.90644
 N2387 N 1.26237 0.88003 0.92060
 C2388 C 1.28431 0.87253 0.91240
 C2389 C 1.29188 0.87823 0.88870
 N2390 N 1.27659 0.89159 0.87486
 N2391 N 1.23928 0.91121 0.86871
 C2392 C 1.21710 0.91820 0.87674
 C2393 C 1.20977 0.91282 0.90051
 N2394 N 1.22525 0.90005 0.91464
 H2395 H 1.29579 0.86301 0.92478
 H2396 H 1.20534 0.92741 0.86438
 C2397 C 1.25090 0.39972 0.38591
 C2398 C 1.23662 0.38445 0.40045
 N2399 N 1.24322 0.36091 0.40360
 C2400 C 1.26343 0.35187 0.39284
 C2401 C 1.27777 0.36701 0.37765
 N2402 N 1.27078 0.39066 0.37475
 N2403 N 1.24466 0.42340 0.38311
 C2404 C 1.22444 0.43241 0.39377
 C2405 C 1.20925 0.41688 0.40756
 N2406 N 1.21611 0.39324 0.41077
 H2407 H 1.26726 0.33278 0.39541
 H2408 H 1.22049 0.45153 0.39145
 C2409 C 0.75017 0.88571 0.40318
 C2410 C 0.73283 0.89413 0.38696
 N2411 N 0.73711 0.89244 0.36309
 C2412 C 0.75818 0.88312 0.35463
 C2413 C 0.77607 0.87537 0.37076
 N2414 N 0.77140 0.87659 0.39476
 N2415 N 0.74565 0.88725 0.42707
 C2416 C 0.72459 0.89683 0.43547
 C2417 C 0.70727 0.90550 0.41923
 N2418 N 0.71195 0.90389 0.39531
 H2419 H 0.76091 0.88186 0.33546
 H2420 H 0.72159 0.89802 0.45461
 C2421 C 0.75936 0.40438 0.88699
 C2422 C 0.74302 0.38732 0.89689
 N2423 N 0.74893 0.36337 0.89722
 C2424 C 0.77055 0.35567 0.88838
 C2425 C 0.78729 0.37272 0.87878
 N2426 N 0.78104 0.39674 0.87820
 N2427 N 0.75337 0.42833 0.88655
 C2428 C 0.73172 0.43601 0.89541
 C2429 C 0.71515 0.41896 0.90526
 N2430 N 0.72142 0.39496 0.90582
 H2431 H 0.77444 0.33637 0.88866
 H2432 H 0.72766 0.45527 0.89499
 C2433 C 0.75077 0.89129 1.12688
 C2434 C 0.75317 0.89216 1.10183
 N2435 N 0.73418 0.88540 1.08802
 C2436 C 0.71302 0.87743 1.09805
 C2437 C 0.71062 0.87585 1.12321
 N2438 N 0.72967 0.88314 1.13699
 N2439 N 0.76975 0.89822 1.14068
 C2440 C 0.79095 0.90609 1.13061
 C2441 C 0.79351 0.90701 1.10546
 N2442 N 0.77441 0.89986 1.09171
 H2443 H 0.69822 0.87242 1.08642
 H2444 H 0.80577 0.91125 1.14217
 C2445 C 0.74002 0.40190 0.60915
 C2446 C 0.74587 0.39944 0.58480
 N2447 N 0.72866 0.39165 0.56936
 C2448 C 0.70595 0.38580 0.57715
 C2449 C 0.69988 0.38784 0.60181
 N2450 N 0.71734 0.39622 0.61698
 N2451 N 0.75722 0.40954 0.62469
 C2452 C 0.77997 0.41516 0.61693
 C2453 C 0.78587 0.41327 0.59236
 N2454 N 0.76856 0.40520 0.57692
 H2455 H 0.69287 0.38040 0.56387
 H2456 H 0.79330 0.42091 0.62990
 C2457 C 0.23943 0.91509 0.60419
 C2458 C 0.25333 0.89914 0.59025
 N2459 N 0.24469 0.87653 0.58533
 C2460 C 0.22269 0.86907 0.59364
 C2461 C 0.20855 0.88489 0.60803
 N2462 N 0.21765 0.90754 0.61297
 N2463 N 0.24788 0.93791 0.60865
 C2464 C 0.26989 0.94533 0.60025
 C2465 C 0.28451 0.92896 0.58715
 N2466 N 0.27551 0.90631 0.58226
 H2467 H 0.21717 0.85052 0.58991
 H2468 H 0.27565 0.96387 0.60377
 C2469 C 0.25334 0.37358 1.10182
 C2470 C 0.26921 0.38796 1.11535
 N2471 N 0.26394 0.39281 1.13854
 C2472 C 0.24321 0.38439 1.14887
 C2473 C 0.22653 0.37037 1.13532
 N2474 N 0.23251 0.36505 1.11208
 N2475 N 0.25878 0.36887 1.07850
 C2476 C 0.27940 0.37796 1.06814
 C2477 C 0.29536 0.39253 1.08174
 N2478 N 0.28966 0.39700 1.10509
 H2479 H 0.24055 0.38814 1.16767
 H2480 H 0.28288 0.37426 1.04941
 C2481 C 0.74636 1.09876 0.89728
 C2482 C 0.76130 1.11622 0.90837
 N2483 N 0.75586 1.14017 0.90640
 C2484 C 0.73610 1.14751 0.89406
 C2485 C 0.72108 1.13010 0.88251
 N2486 N 0.72697 1.10606 0.88434
 N2487 N 0.75134 1.07476 0.89985
 C2488 C 0.77099 1.06743 0.91233
 C2489 C 0.78701 1.08490 0.92220
 N2490 N 0.78141 1.10899 0.92027
 H2491 H 0.73294 1.16688 0.89253
 H2492 H 0.77433 1.04808 0.91404
 C2493 C 0.75498 0.62078 0.38772
 C2494 C 0.75838 0.59562 0.38508
 N2495 N 0.74163 0.58221 0.37300
 C2496 C 0.72155 0.59281 0.36364
 C2497 C 0.71783 0.61804 0.36668
 N2498 N 0.73489 0.63129 0.37865
 N2499 N 0.77163 0.63432 0.39963
 C2500 C 0.79141 0.62383 0.40943
 C2501 C 0.79471 0.59839 0.40758
 N2502 N 0.77809 0.58497 0.39506
 H2503 H 0.70832 0.58147 0.35465
 H2504 H 0.80449 0.63540 0.41833
 C2505 C 0.24387 1.09817 0.39018
 C2506 C 0.25813 1.11423 0.40366
 N2507 N 0.25077 1.13754 0.40683
 C2508 C 0.22988 1.14564 0.39695
 C2509 C 0.21570 1.12977 0.38260
 N2510 N 0.22335 1.10633 0.37985
 N2511 N 0.25091 1.07475 0.38726
 C2512 C 0.27200 1.06678 0.39668
 C2513 C 0.28719 1.08317 0.40917
 N2514 N 0.27951 1.10650 0.41267
 H2515 H 0.22544 1.16461 0.39940
 H2516 H 0.27675 1.04785 0.39429
 C2517 C 0.25147 0.59612 0.88096
 C2518 C 0.26800 0.61181 0.89231
 N2519 N 0.26447 0.63617 0.89168
 C2520 C 0.24482 0.64567 0.88081
 C2521 C 0.22746 0.63007 0.86998
 N2522 N 0.23173 0.60555 0.86995
 N2523 N 0.25512 0.57168 0.88169
 C2524 C 0.27465 0.56227 0.89306
 C2525 C 0.29147 0.57803 0.90423
 N2526 N 0.28752 0.60248 0.90357
 H2527 H 0.24337 0.66530 0.88020
 H2528 H 0.27691 0.54269 0.89346
 C2529 C 1.12482 1.24792 1.10968
 C2530 C 1.09973 1.24443 1.11171
 N2531 N 1.08628 1.26111 1.12373
 C2532 C 1.09682 1.28105 1.13399
 C2533 C 1.12209 1.28455 1.13223
 N2534 N 1.13536 1.26779 1.11990
 N2535 N 1.13831 1.23126 1.09774
 C2536 C 1.12785 1.21126 1.08761
 C2537 C 1.10259 1.20764 1.08941
 N2538 N 1.08922 1.22443 1.10163
 H2539 H 1.08546 1.29413 1.14307
 H2540 H 1.13932 1.19812 1.07875
 C2541 C 1.09750 0.75607 0.61375
 C2542 C 1.09468 0.75374 0.58883
 N2543 N 1.09771 0.77361 0.57460
 C2544 C 1.10391 0.79561 0.58408
 C2545 C 1.10739 0.79787 0.60896
 N2546 N 1.10386 0.77799 0.62322
 N2547 N 1.09459 0.73620 0.62799
 C2548 C 1.08884 0.71411 0.61849
 C2549 C 1.08595 0.71168 0.59355
 N2550 N 1.08903 0.73164 0.57929
 H2551 H 1.10667 0.81108 0.57227
 H2552 H 1.08655 0.69855 0.63028
 C2553 C 0.60138 1.26701 0.58216
 C2554 C 0.57680 1.26094 0.58499
 N2555 N 0.56127 1.27786 0.59375
 C2556 C 0.56934 1.30045 0.60021
 C2557 C 0.59410 1.30634 0.59782
 N2558 N 0.60937 1.28941 0.58862
 N2559 N 0.61713 1.25010 0.57407
 C2560 C 0.60946 1.22726 0.56853
 C2561 C 0.58478 1.22097 0.57112
 N2562 N 0.56903 1.23806 0.57944
 H2563 H 0.55666 1.31350 0.60746
 H2564 H 0.62268 1.21406 0.56272
 C2565 C 0.61169 0.74500 1.10580
 C2566 C 0.58628 0.74353 1.10531
 N2567 N 0.57303 0.76292 1.11256
 C2568 C 0.58405 0.78361 1.12056
 C2569 C 0.60949 0.78500 1.12128
 N2570 N 0.62268 0.76563 1.11372
 N2571 N 0.62499 0.72558 1.09891
 C2572 C 0.61408 0.70479 1.09122
 C2573 C 0.58863 0.70334 1.09021
 N2574 N 0.57530 0.72276 1.09751
 H2575 H 0.57310 0.79874 1.12654
 H2576 H 0.62518 0.68953 1.08589
 C2577 C 0.89825 1.25774 0.91256
 C2578 C 0.90861 1.24191 0.89566
 N2579 N 0.90951 1.24840 0.87225
 C2580 C 0.90054 1.27008 0.86492
 C2581 C 0.89005 1.28603 0.88176
 N2582 N 0.88907 1.27936 0.90525
 N2583 N 0.89750 1.25117 0.93599
 C2584 C 0.90629 1.22931 0.94323
 C2585 C 0.91609 1.21309 0.92620
 N2586 N 0.91718 1.22005 0.90282
 H2587 H 0.90117 1.27460 0.84605
 H2588 H 0.90566 1.22477 0.96209
 C2589 C 0.87991 0.75347 0.39544
 C2590 C 0.90523 0.75165 0.39491
 N2591 N 0.91868 0.77023 0.38556
 C2592 C 0.90795 0.79045 0.37647
 C2593 C 0.88250 0.79221 0.37663
 N2594 N 0.86918 0.77360 0.38634
 N2595 N 0.86641 0.73493 0.40473
 C2596 C 0.87706 0.71467 0.41370
 C2597 C 0.90249 0.71277 0.41345
 N2598 N 0.91594 0.73138 0.40384
 H2599 H 0.91924 0.80502 0.36937
 H2600 H 0.86570 0.70007 0.42064
 C2601 C 0.38929 1.25144 0.39161
 C2602 C 0.39799 1.23425 0.37510
 N2603 N 0.39474 1.23801 0.35131
 C2604 C 0.38316 1.25819 0.34328
 C2605 C 0.37420 1.27537 0.35980
 N2606 N 0.37756 1.27145 0.38363
 N2607 N 0.39245 1.24774 0.41539
 C2608 C 0.40349 1.22734 0.42349
 C2609 C 0.41156 1.20960 0.40709
 N2610 N 0.40885 1.21370 0.38318
 H2611 H 0.38058 1.26052 0.32422
 H2612 H 0.40567 1.22485 0.44259
 C2613 C 0.38775 0.75123 0.90222
 C2614 C 0.41283 0.74746 0.90162
 N2615 N 0.42780 0.76579 0.89424
 C2616 C 0.41880 0.78766 0.88719
 C2617 C 0.39361 0.79140 0.88752
 N2618 N 0.37878 0.77299 0.89520
 N2619 N 0.37269 0.73294 0.90939
 C2620 C 0.38157 0.71103 0.91622
 C2621 C 0.40675 0.70715 0.91597
 N2622 N 0.42177 0.72555 0.90846
 H2623 H 0.43122 0.80196 0.88154
 H2624 H 0.36901 0.69670 0.92146
 C2625 C 1.10091 0.74844 0.88424
 C2626 C 1.11665 0.76688 0.89226
 N2627 N 1.14088 0.76430 0.88954
 C2628 C 1.15016 0.74390 0.87938
 C2629 C 1.13449 0.72509 0.87173
 N2630 N 1.11015 0.72800 0.87421
 N2631 N 1.07665 0.75119 0.88681
 C2632 C 1.06740 0.77166 0.89698
 C2633 C 1.08318 0.79017 0.90503
 N2634 N 1.10747 0.78719 0.90248
 H2635 H 1.16957 0.74257 0.87716
 H2636 H 1.04799 0.77332 0.89897
 C2637 C 1.10870 0.24584 0.39654
 C2638 C 1.09753 0.26203 0.38075
 N2639 N 1.09688 0.25660 0.35699
 C2640 C 1.10704 0.23578 0.34831
 C2641 C 1.11862 0.21963 0.36411
 N2642 N 1.11894 0.22524 0.38790
 N2643 N 1.10956 0.25115 0.42024
 C2644 C 1.10008 0.27218 0.42890
 C2645 C 1.08934 0.28892 0.41313
 N2646 N 1.08810 0.28319 0.38935
 H2647 H 1.10667 0.23236 0.32924
 H2648 H 1.10089 0.27570 0.44795
 C2649 C 0.59603 0.74207 0.39851
 C2650 C 0.61278 0.75872 0.40814
 N2651 N 0.63679 0.75399 0.40638
 C2652 C 0.64484 0.73343 0.39535
 C2653 C 0.62812 0.71678 0.38536
 N2654 N 0.60404 0.72166 0.38729
 N2655 N 0.57204 0.74683 0.40008
 C2656 C 0.56401 0.76772 0.41041
 C2657 C 0.58073 0.78493 0.41941
 N2658 N 0.60481 0.77975 0.41829
 H2659 H 0.66413 0.73058 0.39379
 H2660 H 0.54473 0.77096 0.41135
 C2661 C 0.62459 0.25497 0.88652
 C2662 C 0.59951 0.25803 0.88468
 N2663 N 0.58579 0.24023 0.87451
 C2664 C 0.59606 0.21941 0.86613
 C2665 C 0.62124 0.21623 0.86812
 N2666 N 0.63478 0.23424 0.87830
 N2667 N 0.63839 0.27265 0.89667
 C2668 C 0.62819 0.29326 0.90539
 C2669 C 0.60295 0.29628 0.90406
 N2670 N 0.58926 0.27859 0.89346
 H2671 H 0.58459 0.20534 0.85858
 H2672 H 0.63976 0.30721 0.91303
 C2673 C 0.90318 0.73613 1.10272
 C2674 C 0.88628 0.75339 1.09510
 N2675 N 0.86229 0.74879 1.09808
 C2676 C 0.85440 0.72771 1.10849
 C2677 C 0.87130 0.71052 1.11654
 N2678 N 0.89535 0.71524 1.11338
 N2679 N 0.92716 0.74072 1.09973
 C2680 C 0.93507 0.76207 1.08994
 C2681 C 0.91823 0.77989 1.08312
 N2682 N 0.89416 0.77485 1.08560
 H2683 H 0.83517 0.72479 1.11106
 H2684 H 0.95433 0.76510 1.08769
 C2685 C 0.89238 0.24834 0.61908
 C2686 C 0.89078 0.25118 0.59414
 N2687 N 0.88191 0.23255 0.58069
 C2688 C 0.87448 0.21125 0.59108
 C2689 C 0.87611 0.20838 0.61611
 N2690 N 0.88512 0.22711 0.62941
 N2691 N 0.90099 0.26692 0.63265
 C2692 C 0.90847 0.28816 0.62240
 C2693 C 0.90753 0.29098 0.59732
 N2694 N 0.89840 0.27239 0.58380
 H2695 H 0.86762 0.19667 0.57990
 H2696 H 0.91499 0.30272 0.63380
 C2697 C 0.38772 0.75146 0.60723
 C2698 C 0.39823 0.76798 0.62333
 N2699 N 0.39894 0.76229 0.64700
 C2700 C 0.38936 0.74089 0.65534
 C2701 C 0.37829 0.72450 0.63928
 N2702 N 0.37795 0.73031 0.61555
 N2703 N 0.38694 0.75704 0.58358
 C2704 C 0.39580 0.77866 0.57528
 C2705 C 0.40568 0.79576 0.59142
 N2706 N 0.40690 0.78972 0.61511
 H2707 H 0.38965 0.73721 0.67438
 H2708 H 0.39517 0.78232 0.55626
 C2709 C 0.40634 0.23796 1.10954
 C2710 C 0.41112 0.23859 1.08475
 N2711 N 0.40904 0.21780 1.07174
 C2712 C 0.40186 0.19654 1.08226
 C2713 C 0.39628 0.19600 1.10692
 N2714 N 0.39891 0.21678 1.12002
 N2715 N 0.40835 0.25875 1.12255
 C2716 C 0.41501 0.28012 1.11196
 C2717 C 0.41972 0.28087 1.08713
 N2718 N 0.41762 0.25999 1.07409
 H2719 H 0.39977 0.18034 1.07135
 H2720 H 0.41660 0.29644 1.12278
 C2721 C 1.11339 1.11216 0.75237
 C2722 C 1.08888 1.11689 0.75674
 N2723 N 1.07632 1.13008 0.74051
 C2724 C 1.08711 1.13871 0.72013
 C2725 C 1.11177 1.13354 0.71534
 N2726 N 1.12401 1.12027 0.73189
 N2727 N 1.12630 1.09959 0.76867
 C2728 C 1.11568 1.09095 0.78899
 C2729 C 1.09071 1.09448 0.79307
 N2730 N 1.07799 1.10784 0.77688
 H2731 H 1.07606 1.14851 0.70756
 H2732 H 1.12679 1.08147 0.80178
 C2733 C 1.09597 0.61059 0.24773
 C2734 C 1.09988 0.58633 0.25443
 N2735 N 1.11096 0.57103 0.23884
 C2736 C 1.11868 0.57897 0.21696
 C2737 C 1.11509 0.60357 0.21010
 N2738 N 1.10344 0.61850 0.22587
 N2739 N 1.08539 0.62611 0.26342
 C2740 C 1.07827 0.61840 0.28552
 C2741 C 1.08164 0.59384 0.29228
 N2742 N 1.09260 0.57847 0.27644
 H2743 H 1.12683 0.56581 0.20508
 H2744 H 1.07052 0.63155 0.29771
 C2745 C 0.60493 1.10556 0.24809
 C2746 C 0.62160 1.09823 0.26550
 N2747 N 0.64553 1.10276 0.26197
 C2748 C 0.65358 1.11428 0.24182
 C2749 C 0.63693 1.12181 0.22437
 N2750 N 0.61292 1.11724 0.22805
 N2751 N 0.58100 1.10114 0.25164
 C2752 C 0.57289 1.09017 0.27204
 C2753 C 0.58944 1.08350 0.28992
 N2754 N 0.61351 1.08746 0.28600
 H2755 H 0.67276 1.11791 0.23969
 H2756 H 0.55366 1.08702 0.27444
 C2757 C 0.60397 0.61916 0.74866
 C2758 C 0.62006 0.60843 0.76481
 N2759 N 0.64420 0.60965 0.76040
 C2760 C 0.65302 0.62103 0.74048
 C2761 C 0.63697 0.63180 0.72415
 N2762 N 0.61274 0.63063 0.72880
 N2763 N 0.57982 0.61789 0.75307
 C2764 C 0.57102 0.60667 0.77309
 C2765 C 0.58711 0.59632 0.78965
 N2766 N 0.61131 0.59733 0.78487
 H2767 H 0.67240 0.62196 0.73765
 H2768 H 0.55164 0.60579 0.77593
 C2769 C 0.87471 0.89025 0.75797
 C2770 C 0.89979 0.88823 0.76086
 N2771 N 0.91321 0.87750 0.74339
 C2772 C 0.90267 0.86870 0.72314
 C2773 C 0.87747 0.87081 0.72012
 N2774 N 0.86422 0.88162 0.73777
 N2775 N 0.86119 0.90084 0.77537
 C2776 C 0.87163 0.90980 0.79552
 C2777 C 0.89691 0.90832 0.79842
 N2778 N 0.91032 0.89727 0.78097
 H2779 H 0.91396 0.86066 0.70940
 H2780 H 0.86018 0.91768 0.80921
 C2781 C 0.89112 0.37802 0.25921
 C2782 C 0.89411 0.40353 0.25946
 N2783 N 0.88961 0.41649 0.23929
 C2784 C 0.88185 0.40518 0.21904
 C2785 C 0.87826 0.37969 0.21884
 N2786 N 0.88321 0.36669 0.23900
 N2787 N 0.89552 0.36507 0.27940
 C2788 C 0.90294 0.37640 0.29976
 C2789 C 0.90606 0.40195 0.30012
 N2790 N 0.90144 0.41492 0.27985
 H2791 H 0.87799 0.41605 0.20334
 H2792 H 0.90636 0.36555 0.31557
 C2793 C 0.39639 0.88042 0.25108
 C2794 C 0.39476 0.90580 0.25396
 N2795 N 0.38524 0.91948 0.23614
 C2796 C 0.37705 0.90889 0.21567
 C2797 C 0.37848 0.88340 0.21283
 N2798 N 0.38829 0.86987 0.23067
 N2799 N 0.40554 0.86664 0.26894
 C2800 C 0.41341 0.87707 0.28953
 C2801 C 0.41224 0.90259 0.29245
 N2802 N 0.40270 0.91631 0.27453
 H2803 H 0.36958 0.92026 0.20175
 H2804 H 0.42018 0.86543 0.30358
 C2805 C 0.40081 0.38600 0.74163
 C2806 C 0.39356 0.40898 0.74962
 N2807 N 0.37819 0.42222 0.73603
 C2808 C 0.36965 0.41345 0.71481
 C2809 C 0.37712 0.39028 0.70649
 N2810 N 0.39267 0.37745 0.72043
 N2811 N 0.41547 0.37226 0.75535
 C2812 C 0.42361 0.38059 0.77672
 C2813 C 0.41715 0.40412 0.78472
 N2814 N 0.40197 0.41761 0.77087
 H2815 H 0.35785 0.42493 0.70451
 H2816 H 0.43456 0.36855 0.78732
 C2817 C 1.09753 0.89018 1.25257
 C2818 C 1.10344 0.91397 1.24528
 N2819 N 1.11508 0.92911 1.26068
 C2820 C 1.12153 0.92134 1.28288
 C2821 C 1.11580 0.89723 1.29025
 N2822 N 1.10354 0.88257 1.27476
 N2823 N 1.08700 0.87456 1.23699
 C2824 C 1.08170 0.88173 1.21441
 C2825 C 1.08671 0.90595 1.20708
 N2826 N 1.09774 0.92141 1.22282
 H2827 H 1.13053 0.93412 1.29464
 H2828 H 1.07412 0.86832 1.20238
 C2829 C 1.10206 0.38860 0.74914
 C2830 C 1.10410 0.41390 0.74556
 N2831 N 1.11339 0.42814 0.76321
 C2832 C 1.12090 0.41816 0.78419
 C2833 C 1.11890 0.39278 0.78773
 N2834 N 1.10941 0.37870 0.77004
 N2835 N 1.09324 0.37420 0.73149
 C2836 C 1.08600 0.38396 0.71044
 C2837 C 1.08741 0.40940 0.70687
 N2838 N 1.09671 0.42377 0.72454
 H2839 H 1.12834 0.42989 0.79794
 H2840 H 1.07934 0.37188 0.69660
 C2841 C 0.60264 0.88999 0.74847
 C2842 C 0.60400 0.91549 0.74610
 N2843 N 0.61287 0.92908 0.76442
 C2844 C 0.62060 0.91831 0.78492
 C2845 C 0.61935 0.89272 0.78729
 N2846 N 0.61026 0.87925 0.76892
 N2847 N 0.59396 0.87631 0.73020
 C2848 C 0.58623 0.88697 0.70973
 C2849 C 0.58702 0.91258 0.70739
 N2850 N 0.59617 0.92623 0.72566
 H2851 H 0.62752 0.92962 0.79925
 H2852 H 0.57952 0.87552 0.69540
 C2853 C 0.59929 0.38623 1.25327
 C2854 C 0.60093 0.41136 1.24866
 N2855 N 0.60903 0.42656 1.26601
 C2856 C 0.61620 0.41779 1.28757
 C2857 C 0.61537 0.39235 1.29223
 N2858 N 0.60636 0.37738 1.27484
 N2859 N 0.59139 0.37098 1.23583
 C2860 C 0.58484 0.37974 1.21405
 C2861 C 0.58611 0.40505 1.20940
 N2862 N 0.59431 0.42020 1.22695
 H2863 H 0.62184 0.43085 1.30093
 H2864 H 0.57903 0.36696 1.20046
 C2865 C 0.91492 1.10182 1.25819
 C2866 C 0.89969 1.08640 1.24499
 N2867 N 0.87733 1.08086 1.25354
 C2868 C 0.86943 1.08997 1.27478
 C2869 C 0.88450 1.10587 1.28820
 N2870 N 0.90693 1.11139 1.27920
 N2871 N 0.93748 1.10695 1.24980
 C2872 C 0.94531 1.09780 1.22850
 C2873 C 0.92963 1.08319 1.21455
 N2874 N 0.90725 1.07766 1.22351
 H2875 H 0.85108 1.08566 1.28018
 H2876 H 0.96360 1.10196 1.22275
 C2877 C 0.89207 0.61370 0.75197
 C2878 C 0.88982 0.58846 0.74828
 N2879 N 0.88018 0.57422 0.76593
 C2880 C 0.87277 0.58409 0.78712
 C2881 C 0.87529 0.60940 0.79095
 N2882 N 0.88489 0.62348 0.77310
 N2883 N 0.90158 0.62806 0.73447
 C2884 C 0.90939 0.61832 0.71349
 C2885 C 0.90790 0.59290 0.70984
 N2886 N 0.89779 0.57860 0.72733
 H2887 H 0.86553 0.57222 0.80096
 H2888 H 0.91665 0.63037 0.69980
 C2889 C 0.40756 1.11489 0.75622
 C2890 C 0.40786 1.08983 0.75101
 N2891 N 0.40195 1.07345 0.76836
 C2892 C 0.39512 1.08103 0.79056
 C2893 C 0.39382 1.10618 0.79556
 N2894 N 0.40045 1.12248 0.77827
 N2895 N 0.41330 1.13128 0.73883
 C2896 C 0.41928 1.12376 0.71639
 C2897 C 0.41928 1.09866 0.71100
 N2898 N 0.41357 1.08229 0.72855
 H2899 H 0.39016 1.06758 0.80397
 H2900 H 0.42349 1.13726 0.70280
 C2901 C 0.38406 0.59526 1.24765
 C2902 C 0.39947 0.60976 1.23347
 N2903 N 0.40502 0.63273 1.24056
 C2904 C 0.39607 0.64191 1.26137
 C2905 C 0.38051 0.62746 1.27601
 N2906 N 0.37483 0.60445 1.26835
 N2907 N 0.37883 0.57212 1.24064
 C2908 C 0.38814 0.56289 1.21993
 C2909 C 0.40326 0.57762 1.20525
 N2910 N 0.40854 0.60072 1.21271
 H2911 H 0.40047 0.66064 1.26559
 H2912 H 0.38395 0.54419 1.21538
 C2913 C 1.11763 1.25051 0.89152
 C2914 C 1.09273 1.24637 0.88893
 N2915 N 1.07905 1.26370 0.87843
 C2916 C 1.08911 1.28487 0.87014
 C2917 C 1.11433 1.28925 0.87252
 N2918 N 1.12771 1.27172 0.88350
 N2919 N 1.13145 1.23309 0.90170
 C2920 C 1.12144 1.21185 0.90976
 C2921 C 1.09624 1.20778 0.90790
 N2922 N 1.08257 1.22524 0.89721
 H2923 H 1.07712 1.29823 0.86263
 H2924 H 1.13321 1.19824 0.91730
 C2925 C 1.11333 0.75839 0.39663
 C2926 C 1.08874 0.75335 0.39291
 N2927 N 1.07502 0.77002 0.38147
 C2928 C 1.08477 0.79138 0.37332
 C2929 C 1.10966 0.79668 0.37685
 N2930 N 1.12308 0.77982 0.38877
 N2931 N 1.12722 0.74159 0.40765
 C2932 C 1.11757 0.72010 0.41549
 C2933 C 1.09263 0.71514 0.41254
 N2934 N 1.07891 0.73198 0.40099
 H2935 H 1.07274 0.80422 0.36501
 H2936 H 1.12945 0.70700 0.42367
 C2937 C 0.59624 1.25890 0.38782
 C2938 C 0.61411 1.24277 0.39573
 N2939 N 0.63776 1.24942 0.39390
 C2940 C 0.64436 1.27155 0.38479
 C2941 C 0.62651 1.28796 0.37711
 N2942 N 0.60279 1.28105 0.37869
 N2943 N 0.57259 1.25230 0.38975
 C2944 C 0.56597 1.23023 0.39897
 C2945 C 0.58382 1.21378 0.40663
 N2946 N 0.60754 1.22066 0.40493
 H2947 H 0.66339 1.27627 0.38356
 H2948 H 0.54693 1.22566 0.40042
 C2949 C 0.61636 0.75010 0.89179
 C2950 C 0.59110 0.74730 0.89127
 N2951 N 0.57742 0.76572 0.88264
 C2952 C 0.58783 0.78675 0.87436
 C2953 C 0.61323 0.78962 0.87465
 N2954 N 0.62679 0.77108 0.88355
 N2955 N 0.63009 0.73175 0.90041
 C2956 C 0.61973 0.71080 0.90881
 C2957 C 0.59433 0.70793 0.90873
 N2958 N 0.58066 0.72634 0.89969
 H2959 H 0.57629 0.80115 0.86797
 H2960 H 0.63130 0.69644 0.91527
 C2961 C 0.89834 1.25282 1.12003
 C2962 C 0.88292 1.23774 1.10669
 N2963 N 0.85935 1.24386 1.10443
 C2964 C 0.85048 1.26450 1.11463
 C2965 C 0.86587 1.28007 1.12811
 N2966 N 0.88950 1.27335 1.13055
 N2967 N 0.92204 1.24693 1.12190
 C2968 C 0.93095 1.22647 1.11134
 C2969 C 0.91540 1.21071 1.09844
 N2970 N 0.89168 1.21709 1.09636
 H2971 H 0.83138 1.26789 1.11281
 H2972 H 0.95007 1.22292 1.11286
 C2973 C 0.89650 0.75456 0.61098
 C2974 C 0.88026 0.73812 0.60031
 N2975 N 0.85634 0.74349 0.59983
 C2976 C 0.84788 0.76451 0.60966
 C2977 C 0.86408 0.78098 0.62068
 N2978 N 0.88807 0.77542 0.62095
 N2979 N 0.92040 0.74923 0.61157
 C2980 C 0.92882 0.72798 0.60231
 C2981 C 0.91255 0.71103 0.59211
 N2982 N 0.88860 0.71678 0.59116
 H2983 H 0.82863 0.76786 0.60948
 H2984 H 0.94804 0.72449 0.60285
 C2985 C 0.38559 1.25401 0.59742
 C2986 C 0.40965 1.24855 0.60275
 N2987 N 0.42285 1.26446 0.61604
 C2988 C 0.41303 1.28553 0.62440
 C2989 C 0.38872 1.29126 0.61899
 N2990 N 0.37590 1.27510 0.60540
 N2991 N 0.37206 1.23793 0.58475
 C2992 C 0.38160 1.21668 0.57680
 C2993 C 0.40610 1.21131 0.58134
 N2994 N 0.41941 1.22746 0.59452
 H2995 H 0.42456 1.29780 0.63437
 H2996 H 0.36987 1.20409 0.56745
 C2997 C 0.37810 0.74312 1.10543
 C2998 C 0.40253 0.73821 1.10959
 N2999 N 0.41612 0.75467 1.12176
 C3000 C 0.40640 0.77570 1.13028
 C3001 C 0.38160 0.78085 1.12644
 N3002 N 0.36832 0.76421 1.11374
 N3003 N 0.36439 0.72652 1.09353
 C3004 C 0.37406 0.70534 1.08534
 C3005 C 0.39883 0.70044 1.08896
 N3006 N 0.41235 0.71714 1.10127
 H3007 H 0.41840 0.78836 1.13915
 H3008 H 0.36231 0.69239 1.07647
 C3009 C 0.89737 0.74064 0.90833
 C3010 C 0.90734 0.75699 0.89159
 N3011 N 0.90908 0.75034 0.86822
 C3012 C 0.90097 0.72812 0.86075
 C3013 C 0.89039 0.71183 0.87743
 N3014 N 0.88908 0.71862 0.90088
 N3015 N 0.89542 0.74730 0.93165
 C3016 C 0.90265 0.76983 0.93899
 C3017 C 0.91204 0.78666 0.92214
 N3018 N 0.91439 0.77956 0.89883
 H3019 H 0.90189 0.72376 0.84188
 H3020 H 0.90114 0.77441 0.95778
 C3021 C 0.89449 0.23794 0.40541
 C3022 C 0.90503 0.25428 0.38896
 N3023 N 0.90683 0.24779 0.36555
 C3024 C 0.89861 0.22568 0.35783
 C3025 C 0.88798 0.20910 0.37426
 N3026 N 0.88619 0.21588 0.39773
 N3027 N 0.89263 0.24441 0.42880
 C3028 C 0.90057 0.26661 0.43649
 C3029 C 0.91081 0.28337 0.42002
 N3030 N 0.91294 0.27653 0.39658
 H3031 H 0.89988 0.22144 0.33895
 H3032 H 0.89910 0.27094 0.45534
 C3033 C 0.37918 0.75186 0.39822
 C3034 C 0.40368 0.75734 0.39405
 N3035 N 0.41731 0.74180 0.38098
 C3036 C 0.40751 0.72128 0.37133
 C3037 C 0.38258 0.71580 0.37474
 N3038 N 0.36925 0.73124 0.38869
 N3039 N 0.36550 0.76773 0.41100
 C3040 C 0.37523 0.78875 0.41986
 C3041 C 0.39998 0.79430 0.41590
 N3042 N 0.41346 0.77824 0.40295
 H3043 H 0.41947 0.70919 0.36172
 H3044 H 0.36347 0.80116 0.42933
 C3045 C 0.40998 0.23331 0.88932
 C3046 C 0.39496 0.24767 0.90369
 N3047 N 0.37248 0.23943 0.90950
 C3048 C 0.36422 0.21742 0.90161
 C3049 C 0.37913 0.20271 0.88682
 N3050 N 0.40173 0.21145 0.88120
 N3051 N 0.43257 0.24145 0.88366
 C3052 C 0.44074 0.26352 0.89151
 C3053 C 0.42549 0.27842 0.90553
 N3054 N 0.40296 0.26980 0.91136
 H3055 H 0.34592 0.21234 0.90636
 H3056 H 0.45904 0.26904 0.88701
 C3057 C 1.11840 0.73871 1.09726
 C3058 C 1.09511 0.74603 1.10397
 N3059 N 1.08171 0.73161 1.11876
 C3060 C 1.09056 0.71032 1.12745
 C3061 C 1.11421 0.70269 1.12102
 N3062 N 1.12729 0.71728 1.10570
 N3063 N 1.13195 0.75338 1.08277
 C3064 C 1.12321 0.77493 1.07450
 C3065 C 1.09951 0.78228 1.08076
 N3066 N 1.08621 0.76743 1.09557
 H3067 H 1.07863 0.69929 1.13847
 H3068 H 1.13501 0.78623 1.06359
 C3069 C 1.09556 0.24593 0.60183
 C3070 C 1.11279 0.26251 0.59264
 N3071 N 1.13665 0.25713 0.59386
 C3072 C 1.14411 0.23598 0.60401
 C3073 C 1.12691 0.21945 0.61363
 N3074 N 1.10299 0.22494 0.61220
 N3075 N 1.07171 0.25138 0.60081
 C3076 C 1.06430 0.27293 0.59148
 C3077 C 1.08156 0.29003 0.58303
 N3078 N 1.10544 0.28414 0.58354
 H3079 H 1.16331 0.23259 0.60527
 H3080 H 1.04513 0.27672 0.59089
 C3081 C 0.59820 0.75630 0.62313
 C3082 C 0.61351 0.77467 0.61385
 N3083 N 0.63779 0.77278 0.61625
 C3084 C 0.64756 0.75306 0.62706
 C3085 C 0.63240 0.73414 0.63567
 N3086 N 0.60796 0.73640 0.63375
 N3087 N 0.57387 0.75840 0.62078
 C3088 C 0.56417 0.77804 0.60958
 C3089 C 0.57953 0.79633 0.60006
 N3090 N 0.60387 0.79410 0.60250
 H3091 H 0.66704 0.75201 0.62863
 H3092 H 0.54472 0.77922 0.60787
 C3093 C 0.62477 0.25380 1.10664
 C3094 C 0.60084 0.25945 1.11251
 N3095 N 0.58846 0.24495 1.12816
 C3096 C 0.59895 0.22509 1.13831
 C3097 C 0.62316 0.21910 1.13236
 N3098 N 0.63516 0.23390 1.11647
 N3099 N 0.63747 0.26848 1.09149
 C3100 C 0.62723 0.28853 1.08164
 C3101 C 0.60285 0.29414 1.08689
 N3102 N 0.59039 0.27934 1.10248
 H3103 H 0.58800 0.21396 1.15019
 H3104 H 0.63840 0.30004 1.07032
 C3105 C 1.25817 1.09259 0.90484
 C3106 C 1.24233 1.08506 0.88665
 N3107 N 1.24952 1.08666 0.86342
 C3108 C 1.27182 1.09555 0.85753
 C3109 C 1.28758 1.10349 0.87570
 N3110 N 1.28030 1.10178 0.89898
 N3111 N 1.25105 1.09087 0.92807
 C3112 C 1.22857 1.08253 0.93395
 C3113 C 1.21222 1.07595 0.91573
 N3114 N 1.21974 1.07705 0.89247
 H3115 H 1.27695 1.09693 0.83882
 H3116 H 1.22346 1.08133 0.95267
 C3117 C 1.24696 0.62373 0.38899
 C3118 C 1.24366 0.59834 0.38764
 N3119 N 1.26135 0.58449 0.37778
 C3120 C 1.28209 0.59485 0.36903
 C3121 C 1.28546 0.62038 0.37012
 N3122 N 1.26769 0.63414 0.38030
 N3123 N 1.22928 0.63761 0.39880
 C3124 C 1.20855 0.62728 0.40757
 C3125 C 1.20522 0.60173 0.40666
 N3126 N 1.22294 0.58793 0.39644
 H3127 H 1.29590 0.58318 0.36156
 H3128 H 1.19474 0.63900 0.41497
 C3129 C 0.75545 1.11279 0.39774
 C3130 C 0.75322 1.08745 0.40122
 N3131 N 0.77287 1.07311 0.39809
 C3132 C 0.79452 1.08289 0.39121
 C3133 C 0.79668 1.10820 0.38713
 N3134 N 0.77703 1.12255 0.39073
 N3135 N 0.73582 1.12714 0.40076
 C3136 C 0.71408 1.11736 0.40731
 C3137 C 0.71177 1.09200 0.41096
 N3138 N 0.73147 1.07762 0.40771
 H3139 H 0.80982 1.07098 0.38850
 H3140 H 0.69873 1.12926 0.40964
 C3141 C 0.75984 0.59411 0.90316
 C3142 C 0.74413 0.61205 0.91196
 N3143 N 0.75101 0.63585 0.91115
 C3144 C 0.77282 0.64258 0.90174
 C3145 C 0.78847 0.62468 0.89247
 N3146 N 0.78149 0.60081 0.89352
 N3147 N 0.75289 0.57033 0.90371
 C3148 C 0.73067 0.56370 0.91212
 C3149 C 0.71445 0.58172 0.92007
 N3150 N 0.72181 0.60549 0.92012
 H3151 H 0.77745 0.66178 0.90077
 H3152 H 0.72557 0.54458 0.91223
 C3153 C 1.25359 0.88083 1.09549
 C3154 C 1.23595 0.88848 1.11205
 N3155 N 1.23959 0.88505 1.13580
 C3156 C 1.26026 0.87468 1.14380
 C3157 C 1.27828 0.86747 1.12734
 N3158 N 1.27436 0.87056 1.10346
 N3159 N 1.24994 0.88444 1.07174
 C3160 C 1.22942 0.89519 1.06378
 C3161 C 1.21162 0.90283 1.08032
 N3162 N 1.21548 0.89930 1.10414
 H3163 H 1.26278 0.87241 1.16289
 H3164 H 1.22715 0.89795 1.04473
 C3165 C 1.25777 0.40645 0.60074
 C3166 C 1.24170 0.38884 0.59163
 N3167 N 1.24784 0.36494 0.59222
 C3168 C 1.26932 0.35781 0.60154
 C3169 C 1.28548 0.37540 0.61085
 N3170 N 1.27914 0.39936 0.61018
 N3171 N 1.25160 0.43033 0.60031
 C3172 C 1.22990 0.43741 0.59153
 C3173 C 1.21340 0.41977 0.58293
 N3174 N 1.21994 0.39585 0.58298
 H3175 H 1.27336 0.33855 0.60220
 H3176 H 1.22559 0.45662 0.59134
 C3177 C 0.74927 0.89317 0.60312
 C3178 C 0.73331 0.90396 0.61959
 N3179 N 0.73869 0.90369 0.64327
 C3180 C 0.75928 0.89308 0.65126
 C3181 C 0.77529 0.88204 0.63482
 N3182 N 0.76972 0.88244 0.61109
 N3183 N 0.74390 0.89330 0.57946
 C3184 C 0.72306 0.90336 0.57151
 C3185 C 0.70660 0.91363 0.58798
 N3186 N 0.71238 0.91389 0.61169
 H3187 H 0.76272 0.89275 0.67031
 H3188 H 0.71939 0.90325 0.55249
 C3189 C 0.75228 0.39265 1.10223
 C3190 C 0.73491 0.40191 1.11821
 N3191 N 0.73836 0.39977 1.14215
 C3192 C 0.75844 0.38880 1.15086
 C3193 C 0.77580 0.37931 1.13489
 N3194 N 0.77220 0.38148 1.11088
 N3195 N 0.74900 0.39504 1.07830
 C3196 C 0.72888 0.40586 1.06957
 C3197 C 0.71095 0.41447 1.08548
 N3198 N 0.71466 0.41248 1.10951
 H3199 H 0.76066 0.38722 1.17005
 H3200 H 0.72695 0.40763 1.05037
 C3201 C 0.75383 1.10189 1.11949
 C3202 C 0.76975 1.11752 1.10712
 N3203 N 0.76415 1.14145 1.10461
 C3204 C 0.74329 1.15051 1.11402
 C3205 C 0.72729 1.13490 1.12663
 N3206 N 0.73313 1.11091 1.12895
 N3207 N 0.75939 1.07799 1.12206
 C3208 C 0.78035 1.06897 1.11296
 C3209 C 0.79667 1.08463 1.10080
 N3210 N 0.79073 1.10857 1.09809
 H3211 H 0.73967 1.16977 1.11216
 H3212 H 0.78398 1.04972 1.11497
 C3213 C 0.74816 0.60485 0.61125
 C3214 C 0.76545 0.62038 0.60057
 N3215 N 0.76257 0.64489 0.60166
 C3216 C 0.74310 0.65463 0.61297
 C3217 C 0.72568 0.63914 0.62375
 N3218 N 0.72875 0.61454 0.62262
 N3219 N 0.75121 0.58033 0.61035
 C3220 C 0.77103 0.57064 0.59955
 C3221 C 0.78868 0.58621 0.58929
 N3222 N 0.78524 0.61074 0.58990
 H3223 H 0.74159 0.67427 0.61395
 H3224 H 0.77301 0.55102 0.59910
 C3225 C 0.24269 1.11130 0.59956
 C3226 C 0.25928 1.10185 0.61590
 N3227 N 0.25375 1.10179 0.63966
 C3228 C 0.23242 1.11097 0.64784
 C3229 C 0.21588 1.12090 0.63150
 N3230 N 0.22157 1.12065 0.60770
 N3231 N 0.24813 1.11141 0.57583
 C3232 C 0.26964 1.10280 0.56765
 C3233 C 0.28674 1.09386 0.58400
 N3234 N 0.28086 1.09341 0.60780
 H3235 H 0.22886 1.11121 0.66692
 H3236 H 0.27315 1.10282 0.54857
 C3237 C 0.24561 0.60500 1.10034
 C3238 C 0.24625 0.57957 1.09707
 N3239 N 0.22581 0.56614 1.10072
 C3240 C 0.20488 0.57689 1.10788
 C3241 C 0.20427 0.60231 1.11170
 N3242 N 0.22474 0.61576 1.10762
 N3243 N 0.26602 0.61845 1.09668
 C3244 C 0.28698 0.60771 1.08968
 C3245 C 0.28771 0.58226 1.08622
 N3246 N 0.26723 0.56876 1.09012
 H3247 H 0.18893 0.56566 1.11091
 H3248 H 0.30295 0.61893 1.08673
 C3249 C 0.74264 0.88935 0.90759
 C3250 C 0.76030 0.89800 0.89136
 N3251 N 0.75636 0.89622 0.86749
 C3252 C 0.73539 0.88654 0.85905
 C3253 C 0.71734 0.87834 0.87520
 N3254 N 0.72156 0.87975 0.89919
 N3255 N 0.74666 0.89120 0.93148
 C3256 C 0.76759 0.90114 0.93988
 C3257 C 0.78540 0.90976 0.92365
 N3258 N 0.78114 0.90799 0.89972
 H3259 H 0.73276 0.88542 0.83989
 H3260 H 0.77019 0.90249 0.95903
 C3261 C 0.74628 0.39035 0.40193
 C3262 C 0.74999 0.41570 0.40286
 N3263 N 0.73189 0.43083 0.39630
 C3264 C 0.71032 0.42173 0.38857
 C3265 C 0.70670 0.39628 0.38727
 N3266 N 0.72487 0.38132 0.39417
 N3267 N 0.76425 0.37512 0.40840
 C3268 C 0.78582 0.38409 0.41599
 C3269 C 0.78965 0.40949 0.41717
 N3270 N 0.77160 0.42473 0.41039
 H3271 H 0.69621 0.43426 0.38359
 H3272 H 0.79993 0.37146 0.42081
 C3273 C 0.24139 0.89606 0.40544
 C3274 C 0.25875 0.90198 0.38777
 N3275 N 0.25361 0.89809 0.36437
 C3276 C 0.23177 0.88887 0.35778
 C3277 C 0.21416 0.88329 0.37536
 N3278 N 0.21949 0.88687 0.39888
 N3279 N 0.24652 0.90020 0.42882
 C3280 C 0.26828 0.90975 0.43536
 C3281 C 0.28584 0.91548 0.41772
 N3282 N 0.28047 0.91152 0.39428
 H3283 H 0.22802 0.88621 0.33894
 H3284 H 0.27174 0.91298 0.45416
 C3285 C 0.25037 0.38059 0.89836
 C3286 C 0.26692 0.38925 0.88102
 N3287 N 0.26087 0.38865 0.85755
 C3288 C 0.23884 0.38017 0.85061
 C3289 C 0.22191 0.37203 0.86792
 N3290 N 0.22825 0.37222 0.89146
 N3291 N 0.25647 0.38129 0.92184
 C3292 C 0.27839 0.39016 0.92879
 C3293 C 0.29506 0.39885 0.91146
 N3294 N 0.28876 0.39821 0.88794
 H3295 H 0.23450 0.38000 0.83173
 H3296 H 0.28261 0.39069 0.94768
   
