data_POSCAR
  _audit_creation_date              2014-09-24
  _audit_creation_method            'ToBaCCo'
  _symmetry_space_group_name_H-M    'P1'
  _symmetry_Int_Tables_number       1
  _symmetry_cell_setting            triclinic
  loop_
  _symmetry_equiv_pos_as_xyz
 x,y,z
_cell_length_a 56.0113
_cell_length_b 55.4944
_cell_length_c 56.0493
_cell_angle_alpha 88.179700
_cell_angle_beta 89.579900
_cell_angle_gamma 89.916800
loop_
  _atom_site_label
  _atom_site_type_symbol
  _atom_site_fract_x
  _atom_site_fract_y
  _atom_site_fract_z
C1 C 0.74863 0.62302 1.02533
 C2 C 0.76273 0.63271 1.00653
 C3 C 0.78610 0.64043 1.01106
 C4 C 0.79560 0.63843 1.03422
 C5 C 0.78129 0.62813 1.05266
 C6 C 0.75775 0.62052 1.04860
 C7 C 0.75300 0.63444 0.98205
 C8 C 0.73055 0.64502 0.97796
 C9 C 0.72052 0.64542 0.95509
 C10 C 0.73329 0.63529 0.93620
 C11 C 0.75584 0.62474 0.93990
 C12 C 0.76562 0.62451 0.96295
 H13 H 0.73067 0.61707 1.02157
 H14 H 0.79670 0.64815 0.99648
 H15 H 0.72074 0.65255 0.99271
 H16 H 0.78282 0.61613 0.96624
 H17 H 0.78842 0.62639 1.07053
 H18 H 0.72550 0.63544 0.91857
 C19 C 0.74485 0.40011 0.46423
 C20 C 0.75716 0.38874 0.48322
 C21 C 0.77910 0.37726 0.47891
 C22 C 0.78848 0.37658 0.45560
 C23 C 0.77576 0.38793 0.43681
 C24 C 0.75408 0.39978 0.44093
 C25 C 0.74647 0.38817 0.50739
 C26 C 0.72376 0.37802 0.51111
 C27 C 0.71285 0.37823 0.53369
 C28 C 0.72477 0.38906 0.55251
 C29 C 0.74768 0.39894 0.54922
 C30 C 0.75857 0.39819 0.52656
 H31 H 0.72793 0.40892 0.46761
 H32 H 0.78842 0.36839 0.49361
 H33 H 0.71459 0.37004 0.49634
 H34 H 0.77611 0.40597 0.52359
 H35 H 0.78279 0.38767 0.41877
 H36 H 0.71642 0.38917 0.57000
 C37 C 0.24608 -0.10297 -0.03416
 C38 C 0.25876 -0.11409 -0.01529
 C39 C 0.28072 -0.12542 -0.01982
 C40 C 0.28984 -0.12627 -0.04329
 C41 C 0.27664 -0.11514 -0.06195
 C42 C 0.25494 -0.10342 -0.05757
 C43 C 0.24845 -0.11444 0.00904
 C44 C 0.22606 -0.12516 0.01332
 C45 C 0.21525 -0.12460 0.03603
 C46 C 0.22719 -0.11265 0.05426
 C47 C 0.24982 -0.10233 0.05041
 C48 C 0.26050 -0.10353 0.02772
 H49 H 0.22916 -0.09424 -0.03058
 H50 H 0.29026 -0.13399 -0.00509
 H51 H 0.21714 -0.13380 -0.00122
 H52 H 0.27781 -0.09536 0.02432
 H53 H 0.28326 -0.11534 -0.08015
 H54 H 0.21922 -0.11198 0.07188
 C55 C 0.24638 0.12327 0.52637
 C56 C 0.26031 0.13240 0.50716
 C57 C 0.28379 0.14008 0.51126
 C58 C 0.29342 0.13858 0.53432
 C59 C 0.27932 0.12910 0.55321
 C60 C 0.25580 0.12142 0.54952
 C61 C 0.25035 0.13355 0.48275
 C62 C 0.22775 0.14379 0.47865
 C63 C 0.21763 0.14384 0.45583
 C64 C 0.23046 0.13370 0.43698
 C65 C 0.25317 0.12352 0.44067
 C66 C 0.26303 0.12363 0.46368
 H67 H 0.22836 0.11718 0.52312
 H68 H 0.29446 0.14730 0.49650
 H69 H 0.21792 0.15138 0.49335
 H70 H 0.28036 0.11554 0.46695
 H71 H 0.28662 0.12800 0.57105
 H72 H 0.22261 0.13362 0.41938
 C73 C 0.12797 0.52847 0.24299
 C74 C 0.13709 0.50889 0.25660
 C75 C 0.14558 0.51260 0.27968
 C76 C 0.14480 0.53561 0.28930
 C77 C 0.13553 0.55501 0.27554
 C78 C 0.12697 0.55176 0.25229
 C79 C 0.13694 0.48438 0.24690
 C80 C 0.14627 0.48043 0.22402
 C81 C 0.14501 0.45752 0.21422
 C82 C 0.13451 0.43848 0.22762
 C83 C 0.12521 0.44202 0.25058
 C84 C 0.12657 0.46510 0.26013
 H85 H 0.12124 0.52528 0.22529
 H86 H 0.15254 0.49749 0.29021
 H87 H 0.15416 0.49529 0.21375
 H88 H 0.11917 0.46826 0.27767
 H89 H 0.13501 0.57272 0.28312
 H90 H 0.13345 0.42081 0.22001
 C91 C -0.10306 -0.03804 0.24350
 C92 C -0.11375 -0.01925 0.25593
 C93 C -0.12437 -0.02405 0.27834
 C94 C -0.12461 -0.04761 0.28842
 C95 C -0.11305 -0.06606 0.27598
 C96 C -0.10233 -0.06151 0.25358
 C97 C -0.11405 0.00544 0.24533
 C98 C -0.12496 0.01001 0.22316
 C99 C -0.12572 0.03355 0.21305
 C100 C -0.11436 0.05219 0.22518
 C101 C -0.10338 0.04787 0.24733
 C102 C -0.10361 0.02443 0.25748
 H103 H -0.09491 -0.03418 0.22621
 H104 H -0.13292 -0.00941 0.28751
 H105 H -0.13333 -0.00478 0.21423
 H106 H -0.09524 0.02075 0.27459
 H107 H -0.11284 -0.08430 0.28343
 H108 H -0.11454 0.07043 0.21770
 C109 C 0.39768 0.46461 0.74481
 C110 C 0.38704 0.48340 0.75729
 C111 C 0.37649 0.47859 0.77973
 C112 C 0.37628 0.45501 0.78980
 C113 C 0.38782 0.43659 0.77732
 C114 C 0.39844 0.44115 0.75487
 C115 C 0.38665 0.50807 0.74666
 C116 C 0.37557 0.51259 0.72457
 C117 C 0.37475 0.53608 0.71451
 C118 C 0.38601 0.55481 0.72645
 C119 C 0.39720 0.55057 0.74852
 C120 C 0.39714 0.52712 0.75870
 H121 H 0.40574 0.46847 0.72748
 H122 H 0.36795 0.49322 0.78892
 H123 H 0.36710 0.49787 0.71563
 H124 H 0.40566 0.52349 0.77574
 H125 H 0.38805 0.41834 0.78475
 H126 H 0.38560 0.57298 0.71882
 C127 C 0.62943 1.03031 0.74198
 C128 C 0.63897 1.01099 0.75561
 C129 C 0.64782 1.01503 0.77852
 C130 C 0.64690 1.03817 0.78811
 C131 C 0.63700 1.05724 0.77416
 C132 C 0.62830 1.05355 0.75112
 C133 C 0.63890 0.98639 0.74613
 C134 C 0.64800 0.98230 0.72318
 C135 C 0.64669 0.95933 0.71356
 C136 C 0.63638 0.94034 0.72719
 C137 C 0.62731 0.94401 0.75021
 C138 C 0.62873 0.96716 0.75960
 H139 H 0.62248 1.02705 0.72438
 H140 H 0.65518 0.99998 0.78886
 H141 H 0.65571 0.99713 0.71271
 H142 H 0.62148 0.97042 0.77718
 H143 H 0.63602 1.07516 0.78121
 H144 H 0.63528 0.92262 0.71971
 C145 C -0.03977 0.23412 -0.10732
 C146 C -0.02063 0.24750 -0.11713
 C147 C -0.02478 0.27047 -0.12756
 C148 C -0.04809 0.28005 -0.12858
 C149 C -0.06698 0.26629 -0.11845
 C150 C -0.06305 0.24344 -0.10778
 C151 C 0.00367 0.23711 -0.11660
 C152 C 0.00793 0.21461 -0.12654
 C153 C 0.03054 0.20362 -0.12492
 C154 C 0.04879 0.21556 -0.11278
 C155 C 0.04501 0.23847 -0.10341
 C156 C 0.02235 0.24919 -0.10553
 H157 H -0.03639 0.21646 -0.09923
 H158 H -0.00987 0.28054 -0.13520
 H159 H -0.00660 0.20569 -0.13536
 H160 H 0.01897 0.26663 -0.09802
 H161 H -0.08500 0.27336 -0.11878
 H162 H 0.06635 0.20746 -0.11137
 C163 C 0.52572 0.24908 0.11568
 C164 C 0.50743 0.26274 0.12598
 C165 C 0.51230 0.28617 0.13335
 C166 C 0.53527 0.29602 0.13046
 C167 C 0.55319 0.28229 0.11960
 C168 C 0.54866 0.25881 0.11221
 C169 C 0.48313 0.25255 0.12860
 C170 C 0.47975 0.22971 0.13959
 C171 C 0.45696 0.21930 0.14078
 C172 C 0.43747 0.23205 0.13105
 C173 C 0.44046 0.25498 0.12013
 C174 C 0.46342 0.26518 0.11910
 H175 H 0.52185 0.23107 0.10987
 H176 H 0.49822 0.29655 0.14153
 H177 H 0.49495 0.21987 0.14678
 H178 H 0.46616 0.28269 0.11041
 H179 H 0.57096 0.28971 0.11737
 H180 H 0.41990 0.22391 0.13183
 C181 C 1.02534 0.75025 0.61759
 C182 C 1.00743 0.76384 0.62855
 C183 C 1.01263 0.78709 0.63622
 C184 C 1.03564 0.79694 0.63298
 C185 C 1.05312 0.78322 0.62127
 C186 C 1.04823 0.75989 0.61368
 C187 C 0.98311 0.75377 0.63145
 C188 C 0.97975 0.73083 0.64226
 C189 C 0.95697 0.72042 0.64341
 C190 C 0.93745 0.73327 0.63387
 C191 C 0.94042 0.75628 0.62311
 C192 C 0.96338 0.76649 0.62211
 H193 H 1.02120 0.73237 0.61159
 H194 H 0.99872 0.79727 0.64492
 H195 H 0.99499 0.72090 0.64923
 H196 H 0.96611 0.78403 0.61350
 H197 H 1.07092 0.79042 0.61851
 H198 H 0.91989 0.72511 0.63458
 C199 C 0.45996 0.73407 0.39431
 C200 C 0.47938 0.74734 0.38490
 C201 C 0.47565 0.77068 0.37519
 C202 C 0.45260 0.78069 0.37461
 C203 C 0.43340 0.76713 0.38420
 C204 C 0.43685 0.74388 0.39414
 C205 C 0.50350 0.73651 0.38507
 C206 C 0.50727 0.71404 0.37491
 C207 C 0.52982 0.70307 0.37574
 C208 C 0.54863 0.71463 0.38721
 C209 C 0.54530 0.73741 0.39703
 C210 C 0.52263 0.74830 0.39573
 H211 H 0.46298 0.71611 0.40186
 H212 H 0.49066 0.78080 0.36782
 H213 H 0.49257 0.70514 0.36633
 H214 H 0.51962 0.76570 0.40348
 H215 H 0.41558 0.77471 0.38392
 H216 H 0.56610 0.70624 0.38770
 C217 C 0.41482 -0.03017 0.26768
 H218 H 0.42664 -0.01646 0.26022
 C219 C 0.42422 -0.05039 0.28007
 H220 H 0.44335 -0.05213 0.28216
 C221 C 0.37545 -0.04468 0.27424
 H222 H 0.35643 -0.04227 0.27189
 C223 C 0.38395 -0.06483 0.28679
 H224 H 0.37121 -0.07791 0.29387
 N225 N 0.39077 -0.02767 0.26535
 C226 C 0.39240 0.02570 0.21123
 H227 H 0.37995 0.01532 0.20122
 C228 C 0.40402 0.04493 0.19973
 H229 H 0.40059 0.04848 0.18096
 C230 C 0.41051 0.03473 0.24793
 H231 H 0.41230 0.03103 0.26690
 C232 C 0.42247 0.05443 0.23707
 H233 H 0.43357 0.06572 0.24782
 Zn234 Zn 0.37466 -0.00156 0.25027
 N235 N 0.39542 0.02115 0.23499
 C236 C 0.34193 0.03337 0.26765
 N237 N 0.35684 0.01485 0.27383
 C238 C 0.36090 0.00876 0.29715
 C239 C 0.34958 0.02113 0.31529
 C240 C 0.33001 0.04618 0.28532
 C241 C 0.36706 -0.02948 0.21133
 C242 C 0.35534 -0.03923 0.19206
 C243 C 0.31865 -0.02119 0.20580
 C244 C 0.33120 -0.01155 0.22480
 N245 N 0.35511 -0.01538 0.22683
 H246 H 0.33951 0.03839 0.24902
 H247 H 0.37343 -0.00536 0.30189
 H248 H 0.35326 0.01589 0.33367
 H249 H 0.31825 0.06088 0.28008
 H250 H 0.38601 -0.03249 0.21356
 H251 H 0.36543 -0.04991 0.17967
 H252 H 0.29973 -0.01755 0.20411
 H253 H 0.32191 -0.00072 0.23759
 C254 C 0.41868 0.06010 0.21276
 C255 C 0.40859 -0.06785 0.29009
 C256 C 0.33088 -0.03485 0.18886
 C257 C 0.33390 0.04014 0.30955
 C258 C 0.09849 1.02358 0.78684
 H259 H 0.10737 1.00846 0.79555
 C260 C 0.08603 1.03995 0.80061
 H261 H 0.08565 1.03738 0.81984
 C262 C 0.08874 1.04569 0.75139
 H263 H 0.09037 1.04826 0.73228
 C264 C 0.07565 1.06228 0.76447
 H265 H 0.06737 1.07753 0.75525
 N266 N 0.10051 1.02725 0.76279
 C267 C 0.12125 0.97160 0.71399
 H268 H 0.13971 0.97680 0.71130
 C269 C 0.11182 0.95269 0.70138
 H270 H 0.12328 0.94345 0.68900
 C271 C 0.08423 0.97747 0.73376
 H272 H 0.07369 0.98723 0.74650
 C273 C 0.07402 0.95847 0.72153
 H274 H 0.05556 0.95370 0.72499
 Zn275 Zn 0.12292 1.00809 0.74625
 N276 N 0.10754 0.98339 0.72995
 C277 C 0.14712 0.96974 0.77063
 N278 N 0.14440 0.99411 0.76899
 C279 C 0.15524 1.00867 0.78472
 C280 C 0.16866 0.99875 0.80354
 C281 C 0.16083 0.95912 0.78882
 C282 C 0.12792 1.03336 0.70254
 C283 C 0.13974 1.04542 0.68368
 C284 C 0.17575 1.04464 0.70713
 C285 C 0.16323 1.03250 0.72553
 N286 N 0.13973 1.02713 0.72294
 H287 H 0.13816 0.95838 0.75825
 H288 H 0.15264 1.02798 0.78320
 H289 H 0.17663 1.01057 0.81625
 H290 H 0.16238 0.93967 0.79006
 H291 H 0.10943 1.02825 0.70057
 H292 H 0.13001 1.04985 0.66751
 H293 H 0.19451 1.04847 0.70948
 H294 H 0.17249 1.02697 0.74162
 C295 C 0.08797 0.94569 0.70520
 C296 C 0.07503 1.05998 0.78948
 C297 C 0.16406 1.05105 0.68573
 C298 C 0.17138 0.97364 0.80585
 C299 C 0.59532 0.52327 0.28220
 H300 H 0.60224 0.50687 0.29050
 C301 C 0.58272 0.53958 0.29596
 H302 H 0.57998 0.53558 0.31482
 C303 C 0.59150 0.54895 0.24785
 H304 H 0.59559 0.55293 0.22930
 C305 C 0.57836 0.56553 0.26084
 H306 H 0.57245 0.58213 0.25206
 N307 N 0.60017 0.52857 0.25880
 C308 C 0.62094 0.47198 0.21124
 H309 H 0.63932 0.47729 0.20825
 C310 C 0.61143 0.45300 0.19877
 H311 H 0.62275 0.44381 0.18623
 C312 C 0.58416 0.47767 0.23150
 H313 H 0.57373 0.48744 0.24432
 C314 C 0.57390 0.45857 0.21947
 H315 H 0.55549 0.45373 0.22316
 Zn316 Zn 0.62264 0.50891 0.24308
 N317 N 0.60736 0.48376 0.22732
 C318 C 0.64767 0.47141 0.26777
 N319 N 0.64375 0.49562 0.26644
 C320 C 0.65318 0.51042 0.28281
 C321 C 0.66650 0.50088 0.30189
 C322 C 0.66132 0.46120 0.28621
 C323 C 0.62828 0.53297 0.19880
 C324 C 0.64041 0.54461 0.17991
 C325 C 0.67596 0.54455 0.20405
 C326 C 0.66315 0.53280 0.22247
 N327 N 0.63973 0.52727 0.21954
 H328 H 0.63982 0.45985 0.25484
 H329 H 0.64964 0.52959 0.28149
 H330 H 0.67341 0.51286 0.31506
 H331 H 0.66391 0.44186 0.28713
 H332 H 0.60979 0.52788 0.19671
 H333 H 0.63096 0.54869 0.16348
 H334 H 0.69465 0.54856 0.20668
 H335 H 0.67205 0.52774 0.23891
 C336 C 0.58765 0.44591 0.20291
 C337 C 0.57459 0.56130 0.28540
 C338 C 0.66465 0.55041 0.18230
 C339 C 0.67055 0.47593 0.30382
 C340 C 0.91432 0.46889 0.76619
 H341 H 0.92628 0.48273 0.75924
 C342 C 0.92351 0.44828 0.77811
 H343 H 0.94261 0.44640 0.78034
 C344 C 0.87483 0.45440 0.77191
 H345 H 0.85585 0.45698 0.76944
 C346 C 0.88311 0.43382 0.78388
 H347 H 0.87022 0.42064 0.79041
 N348 N 0.89031 0.47156 0.76364
 C349 C 0.89250 0.52563 0.71023
 H350 H 0.88007 0.51542 0.70001
 C351 C 0.90422 0.54499 0.69907
 H352 H 0.90088 0.54884 0.68033
 C353 C 0.91045 0.53407 0.74717
 H354 H 0.91212 0.53009 0.76611
 C355 C 0.92251 0.55388 0.73666
 H356 H 0.93357 0.56498 0.74763
 Zn357 Zn 0.87443 0.49800 0.74891
 N358 N 0.89538 0.52074 0.73396
 C359 C 0.84229 0.53319 0.76660
 N360 N 0.85675 0.51426 0.77264
 C361 C 0.86051 0.50775 0.79592
 C362 C 0.84942 0.52019 0.81414
 C363 C 0.83064 0.54609 0.78436
 C364 C 0.86647 0.47070 0.70958
 C365 C 0.85450 0.46098 0.69045
 C366 C 0.81795 0.47882 0.70479
 C367 C 0.83076 0.48846 0.72363
 N368 N 0.85470 0.48466 0.72533
 H369 H 0.84008 0.53849 0.74800
 H370 H 0.87264 0.49325 0.80054
 H371 H 0.85288 0.51465 0.83249
 H372 H 0.81929 0.56115 0.77922
 H373 H 0.88545 0.46769 0.71157
 H374 H 0.86445 0.45036 0.67790
 H375 H 0.79900 0.48238 0.70339
 H376 H 0.82162 0.49917 0.73662
 C377 C 0.91884 0.55993 0.71241
 C378 C 0.90771 0.43055 0.78734
 C379 C 0.82997 0.46523 0.68765
 C380 C 0.83429 0.53970 0.80854
 C381 C 0.26329 0.37297 -0.04781
 H382 H 0.25997 0.35382 -0.04569
 C383 C 0.27583 0.38182 -0.06764
 H384 H 0.28181 0.36925 -0.08081
 C385 C 0.25979 0.41222 -0.03262
 H386 H 0.25370 0.42383 -0.01868
 C387 C 0.27235 0.42196 -0.05242
 H388 H 0.27586 0.44114 -0.05362
 N389 N 0.25601 0.38802 -0.03056
 C390 C 0.20453 0.38844 0.02382
 H391 H 0.19404 0.37563 0.01436
 C392 C 0.19406 0.40017 0.04280
 H393 H 0.17553 0.39645 0.04715
 C394 C 0.24159 0.40740 0.03072
 H395 H 0.26033 0.40947 0.02632
 C396 C 0.23178 0.41952 0.05006
 H397 H 0.24309 0.43104 0.06034
 Zn398 Zn 0.24224 0.37131 -0.00407
 N399 N 0.22798 0.39189 0.01832
 C400 C 0.28976 0.35795 0.00491
 N401 N 0.26681 0.35370 0.01193
 C402 C 0.26176 0.33891 0.03114
 C403 C 0.28024 0.32748 0.04388
 C404 C 0.30868 0.34710 0.01716
 C405 C 0.20175 0.36271 -0.03015
 C406 C 0.18270 0.35011 -0.03955
 C407 C 0.19897 0.31332 -0.02208
 C408 C 0.21769 0.32674 -0.01277
 N409 N 0.21845 0.35106 -0.01660
 H410 H 0.29363 0.37030 -0.00986
 H411 H 0.24341 0.33629 0.03678
 H412 H 0.27591 0.31589 0.05919
 H413 H 0.32674 0.35097 0.01122
 H414 H 0.20301 0.38201 -0.03320
 H415 H 0.16943 0.35992 -0.04994
 H416 H 0.19840 0.29403 -0.01859
 H417 H 0.23143 0.31775 -0.00237
 C418 C 0.20783 0.41541 0.05667
 C419 C 0.28096 0.40653 -0.06999
 C420 C 0.18096 0.32510 -0.03538
 C421 C 0.30411 0.33171 0.03700
 C422 C 0.75665 0.07498 1.03744
 H423 H 0.75097 0.06345 1.02336
 C424 C 0.76916 0.06519 1.05711
 H425 H 0.77303 0.04606 1.05806
 C426 C 0.75934 0.11407 1.05307
 H427 H 0.75582 0.13320 1.05116
 C428 C 0.77177 0.10517 1.07277
 H429 H 0.77740 0.11769 1.08604
 N430 N 0.75252 0.09915 1.03565
 C431 C 0.70217 0.10207 0.98003
 H432 H 0.69210 0.11547 0.98933
 C433 C 0.69206 0.09169 0.96025
 H434 H 0.67414 0.09692 0.95510
 C435 C 0.73821 0.08056 0.97421
 H436 H 0.75653 0.07710 0.97925
 C437 C 0.72866 0.06959 0.95421
 H438 H 0.73970 0.05753 0.94405
 Zn439 Zn 0.73931 0.11643 1.00938
 N440 N 0.72501 0.09679 0.98641
 C441 C 0.78714 0.12974 1.00084
 N442 N 0.76429 0.13402 0.99380
 C443 C 0.75946 0.14935 0.97503
 C444 C 0.77803 0.16152 0.96293
 C445 C 0.80617 0.14132 0.98919
 C446 C 0.69813 0.12584 1.03510
 C447 C 0.67963 0.13914 1.04500
 C448 C 0.69835 0.17557 1.02933
 C449 C 0.71646 0.16149 1.01952
 N450 N 0.71580 0.13706 1.02226
 H451 H 0.79081 0.11696 1.01527
 H452 H 0.74120 0.15203 0.96938
 H453 H 0.77384 0.17369 0.94806
 H454 H 0.82415 0.13754 0.99520
 H455 H 0.69827 0.10640 1.03731
 H456 H 0.66562 0.12972 1.05488
 H457 H 0.69903 0.19497 1.02677
 H458 H 0.73096 0.17011 1.00974
 C459 C 0.70553 0.07578 0.94662
 C460 C 0.77734 0.08055 1.07480
 C461 C 0.67947 0.16435 1.04207
 C462 C 0.80179 0.15749 0.96997
 C463 C 0.25582 0.57647 0.53807
 H464 H 0.25042 0.56483 0.52398
 C465 C 0.26834 0.56693 0.55784
 H466 H 0.27247 0.54786 0.55887
 C467 C 0.25788 0.61566 0.55358
 H468 H 0.25413 0.63474 0.55156
 C469 C 0.27029 0.60700 0.57339
 H470 H 0.27567 0.61965 0.58665
 N471 N 0.25136 0.60057 0.53619
 C472 C 0.20067 0.60124 0.48145
 H473 H 0.19019 0.61412 0.49103
 C474 C 0.19045 0.59008 0.46216
 H475 H 0.17210 0.59426 0.45768
 C476 C 0.23756 0.58165 0.47457
 H477 H 0.25617 0.57915 0.47907
 C478 C 0.22800 0.57006 0.45494
 H479 H 0.23935 0.55849 0.44455
 Zn480 Zn 0.23807 0.61743 0.50970
 N481 N 0.22394 0.59724 0.48710
 C482 C 0.28581 0.63078 0.50113
 N483 N 0.26299 0.63494 0.49391
 C484 C 0.25825 0.65007 0.47495
 C485 C 0.27687 0.66217 0.46285
 C486 C 0.30487 0.64227 0.48948
 C487 C 0.19705 0.62696 0.53564
 C488 C 0.17851 0.64027 0.54543
 C489 C 0.19658 0.67656 0.52863
 C490 C 0.21475 0.66246 0.51894
 N491 N 0.21442 0.63808 0.52229
 H492 H 0.28943 0.61818 0.51572
 H493 H 0.24001 0.65263 0.46916
 H494 H 0.27276 0.67419 0.44784
 H495 H 0.32283 0.63860 0.49564
 H496 H 0.19748 0.60757 0.53835
 H497 H 0.16475 0.63092 0.55574
 H498 H 0.19699 0.69592 0.52560
 H499 H 0.22902 0.67103 0.50879
 C500 C 0.20429 0.57480 0.44815
 C501 C 0.27618 0.58245 0.57555
 C502 C 0.17801 0.66542 0.54188
 C503 C 0.30058 0.65826 0.47009
 C504 C 0.76405 0.87123 0.45253
 H505 H 0.76095 0.85207 0.45500
 C506 C 0.77649 0.87987 0.43254
 H507 H 0.78263 0.86712 0.41961
 C508 C 0.76001 0.91073 0.46696
 H509 H 0.75372 0.92254 0.48065
 C510 C 0.77245 0.92027 0.44699
 H511 H 0.77568 0.93949 0.44542
 N512 N 0.75654 0.88651 0.46947
 C513 C 0.70498 0.88762 0.52385
 H514 H 0.69451 0.87460 0.51466
 C515 C 0.69456 0.89966 0.54266
 H516 H 0.67606 0.89596 0.54715
 C517 C 0.74203 0.90682 0.53027
 H518 H 0.76074 0.90887 0.52577
 C519 C 0.73226 0.91926 0.54942
 H520 H 0.74358 0.93100 0.55944
 Zn521 Zn 0.74270 0.87015 0.49613
 N522 N 0.72840 0.89105 0.51820
 C523 C 0.79021 0.85711 0.50560
 N524 N 0.76721 0.85279 0.51245
 C525 C 0.76207 0.83818 0.53176
 C526 C 0.78049 0.82705 0.54482
 C527 C 0.80906 0.84656 0.51818
 C528 C 0.70225 0.86129 0.47018
 C529 C 0.68332 0.84859 0.46070
 C530 C 0.69974 0.81187 0.47816
 C531 C 0.71835 0.82540 0.48758
 N532 N 0.71898 0.84973 0.48376
 H533 H 0.79413 0.86934 0.49075
 H534 H 0.74368 0.83550 0.53725
 H535 H 0.77608 0.81561 0.56023
 H536 H 0.82716 0.85050 0.51239
 H537 H 0.70342 0.88061 0.46713
 H538 H 0.67005 0.85834 0.45026
 H539 H 0.69926 0.79257 0.48161
 H540 H 0.73211 0.81648 0.49800
 C541 C 0.70835 0.91522 0.55619
 C542 C 0.78125 0.90462 0.42971
 C543 C 0.68173 0.82357 0.46479
 C544 C 0.80440 0.83139 0.53816
 C545 C -0.03065 0.26415 0.41531
 H546 H -0.01677 0.25733 0.42702
 C547 C -0.05049 0.27620 0.42475
 H548 H -0.05175 0.27864 0.44380
 C549 C -0.04587 0.26961 0.37616
 H550 H -0.04384 0.26709 0.35719
 C551 C -0.06572 0.28168 0.38470
 H552 H -0.07892 0.28819 0.37204
 N553 N -0.02866 0.26147 0.39131
 C554 C 0.02467 0.20839 0.39214
 H555 H 0.01437 0.19820 0.37982
 C556 C 0.04413 0.19737 0.40320
 H557 H 0.04797 0.17872 0.39953
 C558 C 0.03324 0.24531 0.41033
 H559 H 0.02932 0.26424 0.41230
 C560 C 0.05311 0.23493 0.42178
 H561 H 0.06427 0.24598 0.43270
 Zn562 Zn -0.00292 0.24723 0.37501
 N563 N 0.01979 0.23207 0.39545
 C564 C 0.03192 0.26599 0.34234
 N565 N 0.01333 0.27172 0.35686
 C566 C 0.00724 0.29512 0.36026
 C567 C 0.01981 0.31379 0.34870
 C568 C 0.04491 0.28418 0.33022
 C569 C -0.03025 0.20686 0.36742
 C570 C -0.04005 0.18767 0.35542
 C571 C -0.02307 0.20415 0.31867
 C572 C -0.01333 0.22298 0.33149
 N573 N -0.01666 0.22366 0.35553
 H574 H 0.03686 0.24729 0.34042
 H575 H -0.00704 0.29948 0.37242
 H576 H 0.01462 0.33223 0.35184
 H577 H 0.05970 0.27927 0.31881
 H578 H -0.03289 0.20805 0.38649
 H579 H -0.05037 0.17426 0.36542
 H580 H -0.01989 0.20360 0.29962
 H581 H -0.00292 0.23680 0.32228
 C582 C 0.05914 0.21081 0.41763
 C583 C -0.06818 0.28543 0.40924
 C584 C -0.03627 0.18594 0.33076
 C585 C 0.03898 0.30849 0.33347
 C586 C 1.04402 0.75472 0.08529
 H587 H 1.04058 0.73630 0.08058
 C588 C 1.06250 0.76779 0.07387
 H589 H 1.07317 0.75932 0.06030
 C590 C 1.03539 0.78768 0.10978
 H591 H 1.02561 0.79524 0.12441
 C592 C 1.05350 0.80125 0.09896
 H593 H 1.05682 0.81921 0.10517
 N594 N 1.03103 0.76480 0.10304
 C595 C 0.96853 0.72043 0.11859
 H596 H 0.97084 0.72026 0.13775
 C597 C 0.94922 0.70862 0.10895
 H598 H 0.93676 0.69949 0.12100
 C599 C 0.98218 0.73300 0.08005
 H600 H 0.99508 0.74271 0.06901
 C601 C 0.96276 0.72149 0.06953
 H602 H 0.96089 0.72230 0.05031
 Zn603 Zn 1.00887 0.74665 0.12197
 N604 N 0.98466 0.73205 0.10421
 C605 C 0.97926 0.78496 0.13054
 N606 N 0.99262 0.76800 0.14232
 C607 C 0.99412 0.76740 0.16655
 C608 C 0.98283 0.78521 0.17975
 C609 C 0.96792 0.80312 0.14293
 C610 C 1.02246 0.69885 0.13328
 C611 C 1.03480 0.68022 0.14504
 C612 C 1.05471 0.70978 0.16853
 C613 C 1.04212 0.72795 0.15607
 N614 N 1.02597 0.72217 0.13916
 H615 H 0.97813 0.78480 0.11128
 H616 H 1.00434 0.75343 0.17566
 H617 H 0.98465 0.78485 0.19898
 H618 H 0.95791 0.81675 0.13301
 H619 H 1.01027 0.69457 0.11920
 H620 H 1.03150 0.66183 0.14010
 H621 H 1.06729 0.71470 0.18211
 H622 H 1.04516 0.74666 0.15994
 C623 C 0.94606 0.70897 0.08413
 C624 C 1.06772 0.79122 0.08112
 C625 C 1.05104 0.68551 0.16308
 C626 C 0.96993 0.80368 0.16784
 C627 C 0.53241 0.29035 0.60836
 H628 H 0.52235 0.29827 0.62259
 C629 C 0.55015 0.30399 0.59697
 H630 H 0.55290 0.32233 0.60240
 C631 C 0.54206 0.25658 0.58534
 H632 H 0.53912 0.23786 0.58138
 C633 C 0.56024 0.26966 0.57347
 H634 H 0.57114 0.26089 0.56028
 N635 N 0.52872 0.26704 0.60259
 C636 C 0.46641 0.22244 0.61861
 H637 H 0.46867 0.22221 0.63777
 C638 C 0.44729 0.21041 0.60886
 H639 H 0.43486 0.20107 0.62078
 C640 C 0.48005 0.23530 0.58015
 H641 H 0.49292 0.24515 0.56918
 C642 C 0.46079 0.22366 0.56953
 H643 H 0.45897 0.22449 0.55031
 Zn644 Zn 0.50687 0.24885 0.62187
 N645 N 0.48250 0.23424 0.60431
 C646 C 0.47692 0.28678 0.63101
 N647 N 0.49089 0.27012 0.64249
 C648 C 0.49319 0.26978 0.66665
 C649 C 0.48216 0.28761 0.68004
 C650 C 0.46582 0.30495 0.64359
 C651 C 0.52037 0.20100 0.63315
 C652 C 0.53287 0.18236 0.64471
 C653 C 0.55375 0.21194 0.66733
 C654 C 0.54093 0.23012 0.65513
 N655 N 0.52424 0.22435 0.63875
 H656 H 0.47516 0.28641 0.61182
 H657 H 0.50389 0.25605 0.67553
 H658 H 0.48465 0.28749 0.69918
 H659 H 0.45534 0.31837 0.63389
 H660 H 0.50778 0.19670 0.61945
 H661 H 0.52926 0.16396 0.63999
 H662 H 0.56677 0.21687 0.68049
 H663 H 0.54425 0.24884 0.65878
 C664 C 0.44424 0.21082 0.58402
 C665 C 0.56472 0.29361 0.57961
 C666 C 0.54970 0.18764 0.66221
 C667 C 0.46870 0.30582 0.66838
 C668 C 0.47187 0.76581 0.91594
 H669 H 0.48571 0.75886 0.92764
 C670 C 0.45186 0.77752 0.92547
 H671 H 0.45044 0.77958 0.94457
 C672 C 0.45685 0.77183 0.87678
 H673 H 0.45900 0.76960 0.85777
 C674 C 0.43685 0.78356 0.88540
 H675 H 0.42366 0.79015 0.87275
 N676 N 0.47402 0.76354 0.89191
 C677 C 0.52744 0.71052 0.89225
 H678 H 0.51713 0.70039 0.87988
 C679 C 0.54697 0.69947 0.90315
 H680 H 0.55085 0.68086 0.89932
 C681 C 0.53598 0.74731 0.91069
 H682 H 0.53201 0.76621 0.91281
 C683 C 0.55593 0.73690 0.92198
 H684 H 0.56710 0.74789 0.93294
 Zn685 Zn 0.49971 0.74938 0.87546
 N686 N 0.52251 0.73415 0.89575
 C687 C 0.53434 0.76818 0.84262
 N688 N 0.51589 0.77391 0.85731
 C689 C 0.50991 0.79731 0.86086
 C690 C 0.52246 0.81599 0.84928
 C691 C 0.54730 0.78638 0.83048
 C692 C 0.47234 0.70906 0.86798
 C693 C 0.46234 0.68995 0.85602
 C694 C 0.47894 0.70653 0.81914
 C695 C 0.48889 0.72528 0.83192
 N696 N 0.48584 0.72587 0.85600
 H697 H 0.53919 0.74948 0.84058
 H698 H 0.49575 0.80166 0.87316
 H699 H 0.51737 0.83443 0.85254
 H700 H 0.56198 0.78146 0.81893
 H701 H 0.46992 0.71019 0.88708
 H702 H 0.45209 0.67654 0.86610
 H703 H 0.48189 0.70604 0.80005
 H704 H 0.49923 0.73911 0.82264
 C705 C 0.56201 0.71283 0.91762
 C706 C 0.43416 0.78681 0.91001
 C707 C 0.46581 0.68831 0.83131
 C708 C 0.54148 0.81069 0.83388
 C709 C 0.43799 -0.15181 0.34191
 N710 N 0.46012 -0.16165 0.33999
 N711 N 0.46505 -0.18290 0.35070
 C712 C 0.44802 -0.19507 0.36365
 N713 N 0.42606 -0.18495 0.36569
 N714 N 0.42116 -0.16381 0.35506
 C715 C 0.43140 -0.12926 0.32920
 N716 N 0.40849 -0.12153 0.33035
 N717 N 0.40156 -0.10190 0.31812
 C718 C 0.41721 -0.08908 0.30421
 N719 N 0.44033 -0.09659 0.30325
 N720 N 0.44730 -0.11640 0.31548
 C721 C 0.93669 0.34550 0.83776
 N722 N 0.91931 0.33212 0.84862
 N723 N 0.92441 0.31121 0.85960
 C724 C 0.94712 0.30264 0.86025
 N725 N 0.96464 0.31619 0.84949
 N726 N 0.95953 0.33723 0.83842
 C727 C 0.93009 0.36805 0.82506
 N728 N 0.94647 0.38242 0.81363
 N729 N 0.93959 0.40247 0.80173
 C730 C 0.91611 0.40877 0.80079
 N731 N 0.89995 0.39437 0.81238
 N732 N 0.90677 0.37449 0.82425
 C733 C 0.04482 1.13964 0.84219
 N734 N 0.06063 1.14894 0.85760
 N735 N 0.05592 1.16947 0.86834
 C736 C 0.03506 1.18145 0.86435
 N737 N 0.01907 1.17182 0.84917
 N738 N 0.02393 1.15143 0.83814
 C739 C 0.05094 1.11784 0.82934
 N740 N 0.04084 1.11331 0.80799
 N741 N 0.04802 1.09456 0.79547
 C742 C 0.06533 1.07949 0.80401
 N743 N 0.07508 1.08385 0.82555
 N744 N 0.06812 1.10273 0.83791
 C745 C 0.54331 0.63907 0.34026
 N746 N 0.52598 0.65447 0.33251
 N747 N 0.52132 0.67452 0.34414
 C748 C 0.53399 0.68008 0.36380
 N749 N 0.55127 0.66459 0.37158
 N750 N 0.55576 0.64441 0.36009
 C751 C 0.54958 0.61780 0.32663
 N752 N 0.56354 0.60017 0.33643
 N753 N 0.57071 0.58174 0.32352
 C754 C 0.56440 0.58033 0.30025
 N755 N 0.55026 0.59790 0.29052
 N756 N 0.54287 0.61622 0.30350
 C757 C 0.55349 0.36311 0.15762
 N758 N 0.56824 0.35184 0.14226
 N759 N 0.56216 0.33082 0.13332
 C760 C 0.54105 0.32019 0.13933
 N761 N 0.52610 0.33166 0.15449
 N762 N 0.53222 0.35272 0.16350
 C763 C 0.56132 0.38544 0.16852
 N764 N 0.54781 0.39641 0.18523
 N765 N 0.55591 0.41589 0.19592
 C766 C 0.57783 0.42506 0.19035
 N767 N 0.59112 0.41413 0.17346
 N768 N 0.58306 0.39474 0.16278
 C769 C 0.05423 0.86256 0.66014
 N770 N 0.06992 0.84995 0.64688
 N771 N 0.06372 0.82901 0.63790
 C772 C 0.04154 0.81970 0.64171
 N773 N 0.02569 0.83257 0.65477
 N774 N 0.03193 0.85356 0.66387
 C775 C 0.06203 0.88493 0.67098
 N776 N 0.04775 0.89696 0.68629
 N777 N 0.05575 0.91652 0.69693
 C778 C 0.07830 0.92474 0.69267
 N779 N 0.09236 0.91275 0.67717
 N780 N 0.08441 0.89326 0.66657
 C781 C 0.94582 0.65055 0.67184
 N782 N 0.93180 0.65980 0.65417
 N783 N 0.93546 0.68196 0.64522
 C784 C 0.95340 0.69575 0.65344
 N785 N 0.96765 0.68643 0.67100
 N786 N 0.96383 0.66426 0.68015
 C787 C 0.94073 0.62636 0.68190
 N788 N 0.94986 0.61852 0.70318
 N789 N 0.94348 0.59713 0.71276
 C790 C 0.92790 0.58276 0.70131
 N791 N 0.91919 0.59059 0.67990
 N792 N 0.92540 0.61193 0.67043
 C793 C 0.44567 0.14996 0.17048
 N794 N 0.43165 0.15891 0.15266
 N795 N 0.43536 0.18090 0.14329
 C796 C 0.45336 0.19480 0.15122
 N797 N 0.46761 0.18577 0.16892
 N798 N 0.46374 0.16378 0.17849
 C799 C 0.44054 0.12597 0.18101
 N800 N 0.44976 0.11850 0.20237
 N801 N 0.44337 0.09729 0.21236
 C802 C 0.42770 0.08274 0.20125
 N803 N 0.41889 0.09021 0.17977
 N804 N 0.42511 0.11137 0.16989
 C805 C 0.33852 0.43764 -0.14852
 N806 N 0.35089 0.42063 -0.16025
 N807 N 0.36339 0.42642 -0.17983
 C808 C 0.36406 0.44949 -0.18865
 N809 N 0.35185 0.46664 -0.17667
 N810 N 0.33931 0.46084 -0.15697
 C811 C 0.32386 0.43034 -0.12772
 N812 N 0.31180 0.44662 -0.11458
 N813 N 0.29816 0.43926 -0.09610
 C814 C 0.29599 0.41536 -0.09027
 N815 N 0.30816 0.39928 -0.10346
 N816 N 0.32179 0.40659 -0.12176
 C817 C 0.83791 0.93522 0.35033
 N818 N 0.85017 0.91815 0.33857
 N819 N 0.86255 0.92386 0.31889
 C820 C 0.86322 0.94692 0.31001
 N821 N 0.85110 0.96412 0.32202
 N822 N 0.83869 0.95839 0.34181
 C823 C 0.82346 0.92804 0.37131
 N824 N 0.81149 0.94440 0.38444
 N825 N 0.79807 0.93715 0.40311
 C826 C 0.79604 0.91331 0.40918
 N827 N 0.80811 0.89713 0.39601
 N828 N 0.82153 0.90433 0.37750
 C829 C 0.83570 0.05015 1.15222
 N830 N 0.84785 0.06739 1.16364
 N831 N 0.86060 0.06185 1.18294
 C832 C 0.86176 0.03881 1.19179
 N833 N 0.84976 0.02144 1.18012
 N834 N 0.83697 0.02699 1.16069
 C835 C 0.82079 0.05721 1.13173
 N836 N 0.80900 0.04077 1.11874
 N837 N 0.79517 0.04796 1.10052
 C838 C 0.79253 0.07183 1.09482
 N839 N 0.80443 0.08807 1.10786
 N840 N 0.81825 0.08094 1.12588
 C841 C 0.33474 0.55283 0.65310
 N842 N 0.34643 0.57022 0.66478
 N843 N 0.35943 0.56472 0.68392
 C844 C 0.36131 0.54158 0.69228
 N845 N 0.34973 0.52407 0.68045
 N846 N 0.33670 0.52958 0.66117
 C847 C 0.31966 0.55975 0.63268
 N848 N 0.30852 0.54314 0.61935
 N849 N 0.29465 0.55014 0.60111
 C850 C 0.29132 0.57398 0.59570
 N851 N 0.30254 0.59040 0.60909
 N852 N 0.31641 0.58345 0.62716
 C853 C 0.16877 0.54780 0.35859
 N854 N 0.17780 0.52922 0.34614
 N855 N 0.17003 0.52510 0.32420
 C856 C 0.15315 0.53955 0.31384
 N857 N 0.14418 0.55806 0.32638
 N858 N 0.15177 0.56205 0.34833
 C859 C 0.17746 0.55318 0.38249
 N860 N 0.16566 0.56951 0.39564
 N861 N 0.17394 0.57574 0.41673
 C862 C 0.19443 0.56600 0.42556
 N863 N 0.20620 0.54946 0.41245
 N864 N 0.19781 0.54309 0.39133
 C865 C 0.67145 0.05100 0.85584
 N866 N 0.67518 0.02924 0.84602
 N867 N 0.66718 0.02497 0.82419
 C868 C 0.65539 0.04236 0.81122
 N869 N 0.65188 0.06410 0.82118
 N870 N 0.65962 0.06828 0.84302
 C871 C 0.67983 0.05621 0.87987
 N872 N 0.67086 0.07553 0.89110
 N873 N 0.67875 0.08124 0.91249
 C874 C 0.69608 0.06799 0.92352
 N875 N 0.70511 0.04857 0.91229
 N876 N 0.69702 0.04269 0.89089
 C877 C 0.67149 0.94575 0.64451
 N878 N 0.68114 0.96389 0.65697
 N879 N 0.67310 0.96852 0.67883
 C880 C 0.65533 0.95499 0.68908
 N881 N 0.64573 0.93695 0.67651
 N882 N 0.65359 0.93247 0.65465
 C883 C 0.68053 0.93966 0.62080
 N884 N 0.66836 0.92369 0.60775
 N885 N 0.67697 0.91661 0.58695
 C886 C 0.69816 0.92509 0.57833
 N887 N 0.71028 0.94131 0.59131
 N888 N 0.70158 0.94853 0.61215
 C889 C 0.17051 0.44456 0.14529
 N890 N 0.17997 0.46264 0.15798
 N891 N 0.17172 0.46705 0.17982
 C892 C 0.15393 0.45336 0.18981
 N893 N 0.14454 0.43536 0.17702
 N894 N 0.15261 0.43111 0.15519
 C895 C 0.17972 0.43878 0.12157
 N896 N 0.16767 0.42294 0.10825
 N897 N 0.17638 0.41620 0.08738
 C898 C 0.19757 0.42489 0.07895
 N899 N 0.20958 0.44096 0.09220
 N900 N 0.20077 0.44785 0.11311
 C901 C -0.14865 0.33896 0.43920
 N902 N -0.15652 0.33952 0.46217
 N903 N -0.17636 0.35164 0.46760
 C904 C -0.18899 0.36363 0.45027
 N905 N -0.18087 0.36307 0.42743
 N906 N -0.16118 0.35101 0.42201
 C907 C -0.12741 0.32519 0.43228
 N908 N -0.12172 0.32402 0.40882
 N909 N -0.10292 0.31142 0.40178
 C910 C -0.08892 0.29943 0.41785
 N911 N -0.09449 0.30068 0.44146
 N912 N -0.11346 0.31330 0.44856
 C913 C 0.35233 0.83802 0.94032
 N914 N 0.34466 0.83868 0.96335
 N915 N 0.32456 0.85034 0.96883
 C916 C 0.31139 0.86176 0.95150
 N917 N 0.31936 0.86107 0.92859
 N918 N 0.33932 0.84948 0.92313
 C919 C 0.37392 0.82486 0.93334
 N920 N 0.37959 0.82388 0.90986
 N921 N 0.39871 0.81185 0.90274
 C922 C 0.41309 0.80024 0.91874
 N923 N 0.40754 0.80129 0.94237
 N924 N 0.38824 0.81336 0.94956
 C925 C 1.15118 0.84130 0.05111
 N926 N 1.16150 0.85566 0.06718
 N927 N 1.18206 0.86670 0.06217
 C928 C 1.19315 0.86407 0.04078
 N929 N 1.18260 0.84985 0.02453
 N930 N 1.16207 0.83856 0.02964
 C931 C 1.12886 0.82881 0.05753
 N932 N 1.12072 0.80992 0.04505
 N933 N 1.10109 0.79803 0.05220
 C934 C 1.08883 0.80474 0.07197
 N935 N 1.09697 0.82378 0.08416
 N936 N 1.11658 0.83550 0.07715
 C937 C 0.64707 0.34455 0.54781
 N938 N 0.65457 0.36305 0.56111
 N939 N 0.67528 0.37393 0.55634
 C940 C 0.68927 0.36688 0.53797
 N941 N 0.68162 0.34855 0.52441
 N942 N 0.66093 0.33751 0.52931
 C943 C 0.62487 0.33188 0.55438
 N944 N 0.61907 0.31049 0.54480
 N945 N 0.59968 0.29844 0.55234
 C946 C 0.58536 0.30740 0.56966
 N947 N 0.59112 0.32895 0.57888
 N948 N 0.61047 0.34090 0.57145
 C949 C 0.36144 0.16505 0.55026
 N950 N 0.35122 0.17090 0.52894
 N951 N 0.32984 0.16208 0.52349
 C952 C 0.31788 0.14722 0.53922
 N953 N 0.32837 0.14122 0.56033
 N954 N 0.34967 0.14993 0.56573
 C955 C 0.38400 0.17588 0.55768
 N956 N 0.39237 0.17057 0.57984
 N957 N 0.41175 0.18137 0.58781
 C958 C 0.42367 0.19794 0.57398
 N959 N 0.41556 0.20301 0.55155
 N960 N 0.39601 0.19221 0.54355
 C961 C 0.86225 0.66461 0.05079
 N962 N 0.84884 0.65236 0.06730
 N963 N 0.82757 0.64373 0.06173
 C964 C 0.81867 0.64687 0.03937
 N965 N 0.83232 0.65890 0.02266
 N966 N 0.85368 0.66770 0.02828
 C967 C 0.88498 0.67511 0.05816
 N968 N 0.89831 0.68964 0.04332
 N969 N 0.91808 0.70012 0.05124
 C970 C 0.92512 0.69649 0.07427
 N971 N 0.91186 0.68170 0.08882
 N972 N 0.89225 0.67127 0.08096
 C973 C 0.65205 0.67365 0.94280
 N974 N 0.66139 0.65666 0.92857
 N975 N 0.68314 0.64783 0.93250
 C976 C 0.69641 0.65551 0.95092
 N977 N 0.68701 0.67244 0.96531
 N978 N 0.66526 0.68145 0.96125
 C979 C 0.62819 0.68342 0.93775
 N980 N 0.62014 0.70385 0.94789
 N981 N 0.59888 0.71309 0.94197
 C982 C 0.58486 0.70210 0.92587
 N983 N 0.59293 0.68154 0.91606
 N984 N 0.61414 0.67242 0.92182
 C985 C 0.14904 0.17168 0.44340
 N986 N 0.15837 0.15450 0.42937
 N987 N 0.18015 0.14577 0.43336
 C988 C 0.19344 0.15373 0.45165
 N989 N 0.18404 0.17082 0.46584
 N990 N 0.16227 0.17974 0.46171
 C991 C 0.12519 0.18141 0.43823
 N992 N 0.11717 0.20198 0.44812
 N993 N 0.09595 0.21121 0.44206
 C994 C 0.08193 0.20007 0.42606
 N995 N 0.08995 0.17936 0.41651
 N996 N 0.11113 0.17026 0.42241
 C997 C 0.59718 0.11112 0.71186
 N998 N 0.60915 0.11511 0.73231
 N999 N 0.61915 0.09686 0.74462
 C1000 C 0.61764 0.07391 0.73699
 N1001 N 0.60578 0.07000 0.71641
 N1002 N 0.59571 0.08824 0.70411
 C1003 C 0.58548 0.13112 0.69866
 N1004 N 0.57185 0.12677 0.67936
 N1005 N 0.56069 0.14475 0.66776
 C1006 C 0.56270 0.16783 0.67491
 N1007 N 0.57648 0.17217 0.69416
 N1008 N 0.58762 0.15417 0.70583
 C1009 C 1.09747 0.60887 0.21355
 N1010 N 1.10707 0.61226 0.23533
 N1011 N 1.11670 0.59386 0.24773
 C1012 C 1.11721 0.57130 0.23889
 N1013 N 1.10772 0.56807 0.21695
 N1014 N 1.09801 0.58644 0.20458
 C1015 C 1.08611 0.62896 0.20017
 N1016 N 1.07419 0.62490 0.17971
 N1017 N 1.06325 0.64290 0.16791
 C1018 C 1.06384 0.66572 0.17601
 N1019 N 1.07595 0.66978 0.19642
 N1020 N 1.08682 0.65174 0.20830
 C1021 C 0.92944 0.88146 0.21738
 N1022 N 0.92397 0.90246 0.20554
 N1023 N 0.91411 0.92068 0.21703
 C1024 C 0.90922 0.91856 0.24078
 N1025 N 0.91478 0.89753 0.25256
 N1026 N 0.92474 0.87936 0.24112
 C1027 C 0.93998 0.86125 0.20465
 N1028 N 0.94767 0.84115 0.21676
 N1029 N 0.95716 0.82281 0.20514
 C1030 C 0.95916 0.82381 0.18095
 N1031 N 0.95139 0.84394 0.16892
 N1032 N 0.94203 0.86231 0.18052
 C1033 C 0.42957 0.38397 0.71838
 N1034 N 0.42537 0.38200 0.74222
 N1035 N 0.41564 0.40023 0.75376
 C1036 C 0.40984 0.42119 0.74198
 N1037 N 0.41425 0.42319 0.71814
 N1038 N 0.42387 0.40491 0.70655
 C1039 C 0.43978 0.36368 0.70554
 N1040 N 0.44115 0.36453 0.68136
 N1041 N 0.45018 0.34607 0.66966
 C1042 C 0.45827 0.32604 0.68163
 N1043 N 0.45696 0.32524 0.70586
 N1044 N 0.44780 0.34367 0.71758
 C1045 C 0.42815 0.60851 0.78344
 N1046 N 0.42296 0.58761 0.79565
 N1047 N 0.41340 0.56909 0.78456
 C1048 C 0.40852 0.57080 0.76085
 N1049 N 0.41381 0.59172 0.74869
 N1050 N 0.42349 0.61018 0.75974
 C1051 C 0.43821 0.62912 0.79574
 N1052 N 0.44577 0.64906 0.78322
 N1053 N 0.45461 0.66787 0.79444
 C1054 C 0.45606 0.66751 0.81864
 N1055 N 0.44847 0.64751 0.83110
 N1056 N 0.43976 0.62868 0.81988
 C1057 C -0.07288 0.10580 0.28263
 N1058 N -0.07835 0.08497 0.29481
 N1059 N -0.08774 0.06643 0.28361
 C1060 C -0.09215 0.06806 0.25980
 N1061 N -0.08655 0.08891 0.24767
 N1062 N -0.07705 0.10739 0.25883
 C1063 C -0.06307 0.12648 0.29502
 N1064 N -0.05533 0.14637 0.28254
 N1065 N -0.04676 0.16526 0.29382
 C1066 C -0.04576 0.16504 0.31804
 N1067 N -0.05353 0.14509 0.33046
 N1068 N -0.06198 0.12617 0.31919
 C1069 C 0.09061 0.38478 0.28746
 N1070 N 0.08848 0.40769 0.29504
 N1071 N 0.09972 0.42582 0.28358
 C1072 C 0.11346 0.42178 0.26402
 N1073 N 0.11563 0.39880 0.25657
 N1074 N 0.10448 0.38065 0.26807
 C1075 C 0.07763 0.36488 0.29965
 N1076 N 0.08091 0.34174 0.29310
 N1077 N 0.06876 0.32379 0.30388
 C1078 C 0.05276 0.32830 0.32153
 N1079 N 0.04955 0.35148 0.32803
 N1080 N 0.06175 0.36940 0.31734
 C1081 C 0.59299 0.88690 0.78758
 N1082 N 0.59089 0.90985 0.79507
 N1083 N 0.60206 0.92795 0.78347
 C1084 C 0.61570 0.92382 0.76387
 N1085 N 0.61785 0.90081 0.75651
 N1086 N 0.60677 0.88270 0.76814
 C1087 C 0.58006 0.86704 0.79987
 N1088 N 0.58328 0.84389 0.79333
 N1089 N 0.57116 0.82596 0.80416
 C1090 C 0.55524 0.83049 0.82188
 N1091 N 0.55209 0.85368 0.82839
 N1092 N 0.56427 0.87159 0.81764
 C1093 C 0.71740 0.59184 0.10464
 N1094 N 0.74025 0.59889 0.10799
 N1095 N 0.75314 0.60813 0.08990
 C1096 C 0.74383 0.61068 0.06761
 N1097 N 0.72087 0.60356 0.06432
 N1098 N 0.70792 0.59433 0.08246
 C1099 C 0.70345 0.58148 0.12476
 N1100 N 0.68035 0.57485 0.12198
 N1101 N 0.66797 0.56520 0.14030
 C1102 C 0.67819 0.56177 0.16208
 N1103 N 0.70130 0.56850 0.16479
 N1104 N 0.71366 0.57818 0.14651
 C1105 C 0.21564 1.09294 0.60748
 N1106 N 0.23881 1.09926 0.61021
 N1107 N 0.25141 1.10833 0.59182
 C1108 C 0.24143 1.11142 0.56991
 N1109 N 0.21819 1.10508 0.56721
 N1110 N 0.20554 1.09602 0.58564
 C1111 C 0.20200 1.08261 0.62784
 N1112 N 0.17870 1.07651 0.62554
 N1113 N 0.16659 1.06675 0.64398
 C1114 C 0.17729 1.06267 0.66544
 N1115 N 0.20060 1.06888 0.66768
 N1116 N 0.21270 1.07868 0.64927
 C1117 C 0.21879 0.92964 0.88483
 N1118 N 0.21628 0.93818 0.90716
 N1119 N 0.22746 0.92751 0.92559
 C1120 C 0.24170 0.90802 0.92233
 N1121 N 0.24414 0.89954 0.89997
 N1122 N 0.23282 0.91005 0.88161
 C1123 C 0.20665 0.94127 0.86436
 N1124 N 0.20503 0.92979 0.84342
 N1125 N 0.19396 0.94015 0.82481
 C1126 C 0.18433 0.96252 0.82631
 N1127 N 0.18613 0.97409 0.84724
 N1128 N 0.19702 0.96363 0.86594
 C1129 C 0.71839 0.43287 0.38302
 N1130 N 0.71513 0.44095 0.40544
 N1131 N 0.72623 0.43032 0.42394
 C1132 C 0.74114 0.41134 0.42067
 N1133 N 0.74435 0.40334 0.39822
 N1134 N 0.73311 0.41381 0.37978
 C1135 C 0.70619 0.44434 0.36250
 N1136 N 0.70553 0.43315 0.34133
 N1137 N 0.69434 0.44328 0.32268
 C1138 C 0.68361 0.46513 0.32436
 N1139 N 0.68445 0.47641 0.34552
 N1140 N 0.69547 0.46617 0.36426
 C1141 C 0.78247 0.42883 0.60744
 N1142 N 0.75854 0.42512 0.60800
 N1143 N 0.74756 0.41577 0.58945
 C1144 C 0.76000 0.40985 0.56956
 N1145 N 0.78395 0.41376 0.56897
 N1146 N 0.79497 0.42300 0.58758
 C1147 C 0.79467 0.43856 0.62816
 N1148 N 0.81885 0.43923 0.62888
 N1149 N 0.82996 0.44765 0.64781
 C1150 C 0.81737 0.45581 0.66674
 N1151 N 0.79314 0.45523 0.66594
 N1152 N 0.78201 0.44669 0.64705
 C1153 C 0.28431 -0.07097 0.10799
 N1154 N 0.26033 -0.07426 0.10829
 N1155 N 0.24945 -0.08394 0.08987
 C1156 C 0.26205 -0.09062 0.07034
 N1157 N 0.28605 -0.08706 0.06995
 N1158 N 0.29698 -0.07748 0.08845
 C1159 C 0.29633 -0.06116 0.12877
 N1160 N 0.32050 -0.06092 0.12996
 N1161 N 0.33138 -0.05260 0.14907
 C1162 C 0.31857 -0.04415 0.16773
 N1163 N 0.29436 -0.04429 0.16644
 N1164 N 0.28346 -0.05272 0.14737
 C1165 C 0.28878 0.09021 0.38422
 N1166 N 0.26924 0.10414 0.38001
 N1167 N 0.25811 0.11487 0.39789
 C1168 C 0.26609 0.11219 0.42068
 N1169 N 0.28577 0.09837 0.42480
 N1170 N 0.29686 0.08757 0.40693
 C1171 C 0.30067 0.07769 0.36467
 N1172 N 0.31868 0.06194 0.36942
 N1173 N 0.32917 0.05013 0.35189
 C1174 C 0.32217 0.05361 0.32887
 N1175 N 0.30420 0.06950 0.32411
 N1176 N 0.29362 0.08127 0.34169
 C1177 C 0.79069 0.59075 0.88340
 N1178 N 0.77159 0.60530 0.87919
 N1179 N 0.76073 0.61627 0.89709
 C1180 C 0.76856 0.61323 0.91990
 N1181 N 0.78782 0.59880 0.92402
 N1182 N 0.79863 0.58776 0.90614
 C1183 C 0.80220 0.57795 0.86383
 N1184 N 0.81966 0.56156 0.86854
 N1185 N 0.82979 0.54951 0.85096
 C1186 C 0.82293 0.55336 0.82794
 N1187 N 0.80551 0.56987 0.82323
 N1188 N 0.79530 0.58189 0.84085
 C1189 C 0.10257 0.71981 0.58138
 N1190 N 0.10492 0.74392 0.58386
 N1191 N 0.08760 0.75659 0.59397
 C1192 C 0.06719 0.74572 0.60193
 N1193 N 0.06480 0.72159 0.59926
 N1194 N 0.08218 0.70887 0.58923
 C1195 C 0.12196 0.70577 0.57078
 N1196 N 0.12071 0.68138 0.57051
 N1197 N 0.13850 0.66863 0.56131
 C1198 C 0.15822 0.67974 0.55197
 N1199 N 0.15938 0.70418 0.55216
 N1200 N 0.14162 0.71695 0.56144
 C1201 C 0.60381 0.21870 1.08128
 N1202 N 0.60619 0.24277 1.08403
 N1203 N 0.58864 0.25544 1.09377
 C1204 C 0.56799 0.24461 1.10108
 N1205 N 0.56560 0.22051 1.09818
 N1206 N 0.58319 0.20780 1.08852
 C1207 C 0.62334 0.20467 1.07090
 N1208 N 0.62192 0.18031 1.07021
 N1209 N 0.63976 0.16757 1.06107
 C1210 C 0.65970 0.17866 1.05220
 N1211 N 0.66104 0.20308 1.05284
 N1212 N 0.64323 0.21583 1.06207
 C1213 C 0.87936 0.20526 0.92345
 N1214 N 0.87552 0.22491 0.90899
 N1215 N 0.89380 0.23685 0.89897
 C1216 C 0.91667 0.22961 0.90294
 N1217 N 0.92046 0.20981 0.91730
 N1218 N 0.90217 0.19789 0.92740
 C1219 C 0.85920 0.19256 0.93506
 N1220 N 0.86312 0.17432 0.95124
 N1221 N 0.84487 0.16319 0.96221
 C1222 C 0.82197 0.16979 0.95743
 N1223 N 0.81809 0.18799 0.94112
 N1224 N 0.83636 0.19919 0.93019
 C1225 C 0.37861 0.70587 0.42425
 N1226 N 0.37509 0.72599 0.41034
 N1227 N 0.39358 0.73789 0.40066
 C1228 C 0.41632 0.73015 0.40444
 N1229 N 0.41978 0.70988 0.41823
 N1230 N 0.40129 0.69801 0.42799
 C1231 C 0.35829 0.69320 0.43558
 N1232 N 0.36202 0.67464 0.45144
 N1233 N 0.34367 0.66354 0.46225
 C1234 C 0.32084 0.67048 0.45761
 N1235 N 0.31713 0.68898 0.44160
 N1236 N 0.33551 0.70016 0.43083
 C1237 C 0.60302 0.77316 0.42764
 N1238 N 0.58265 0.78524 0.42196
 N1239 N 0.56427 0.77385 0.41248
 C1240 C 0.56555 0.74993 0.40818
 N1241 N 0.58596 0.73785 0.41392
 N1242 N 0.60432 0.74922 0.42351
 C1243 C 0.62341 0.78598 0.43761
 N1244 N 0.64302 0.77383 0.44558
 N1245 N 0.66154 0.78568 0.45434
 C1246 C 0.66121 0.81012 0.45531
 N1247 N 0.64155 0.82217 0.44732
 N1248 N 0.62302 0.81035 0.43869
 C1249 C 0.10204 0.27471 -0.07214
 N1250 N 0.08186 0.28678 -0.07854
 N1251 N 0.06362 0.27524 -0.08816
 C1252 C 0.06490 0.25119 -0.09186
 N1253 N 0.08510 0.23916 -0.08533
 N1254 N 0.10329 0.25067 -0.07562
 C1255 C 0.12239 0.28761 -0.06218
 N1256 N 0.14183 0.27543 -0.05385
 N1257 N 0.16041 0.28725 -0.04522
 C1258 C 0.16033 0.31172 -0.04474
 N1259 N 0.14083 0.32382 -0.05307
 N1260 N 0.12222 0.31201 -0.06158
 C1261 C 0.38190 0.28938 0.08720
 N1262 N 0.37861 0.26999 0.10221
 N1263 N 0.39718 0.25931 0.11287
 C1264 C 0.41975 0.26761 0.10905
 N1265 N 0.42296 0.28718 0.09419
 N1266 N 0.40441 0.29783 0.08345
 C1267 C 0.36158 0.30062 0.07467
 N1268 N 0.36529 0.31835 0.05786
 N1269 N 0.34701 0.32817 0.04601
 C1270 C 0.32427 0.32071 0.05047
 N1271 N 0.32056 0.30302 0.06742
 N1272 N 0.33888 0.29312 0.07924
 C1273 C 0.88194 0.79033 0.58973
 N1274 N 0.87863 0.77105 0.60486
 N1275 N 0.89716 0.76052 0.61572
 C1276 C 0.91973 0.76888 0.61197
 N1277 N 0.92295 0.78836 0.59700
 N1278 N 0.90443 0.79885 0.58607
 C1279 C 0.86167 0.80130 0.57689
 N1280 N 0.86543 0.81886 0.55991
 N1281 N 0.84721 0.82836 0.54772
 C1282 C 0.82449 0.82074 0.55200
 N1283 N 0.82073 0.80324 0.56912
 N1284 N 0.83898 0.79365 0.58128
   
