data_POSCAR
  _audit_creation_date              2014-09-24
  _audit_creation_method            'ToBaCCo'
  _symmetry_space_group_name_H-M    'P1'
  _symmetry_Int_Tables_number       1
  _symmetry_cell_setting            triclinic
  loop_
  _symmetry_equiv_pos_as_xyz
 x,y,z
_cell_length_a 54.1466
_cell_length_b 54.1207
_cell_length_c 54.1747
_cell_angle_alpha 89.971700
_cell_angle_beta 90.000500
_cell_angle_gamma 89.944100
loop_
  _atom_site_label
  _atom_site_type_symbol
  _atom_site_fract_x
  _atom_site_fract_y
  _atom_site_fract_z
O1 O 0.23098 1.02444 0.47613
 O2 O 0.23081 0.97644 0.52431
 O3 O 0.23094 1.02459 0.52423
 O4 O 0.23081 0.97631 0.47623
 O5 O 0.27165 0.97615 0.47624
 O6 O 0.27177 1.02443 0.52426
 O7 O 0.27165 0.97628 0.52434
 O8 O 0.27183 1.02428 0.47615
 Cu9 Cu 0.22677 1.00047 0.50023
 Cu10 Cu 0.27584 1.00027 0.50025
 C11 C 0.25143 1.03245 0.46800
 C12 C 0.25120 0.96825 0.53245
 C13 C 0.25137 1.03267 0.53236
 C14 C 0.25120 0.96808 0.46812
 O15 O 0.72887 -0.02457 0.47658
 O16 O 0.72907 0.02346 0.52466
 O17 O 0.72898 0.02355 0.47659
 O18 O 0.72895 -0.02467 0.52468
 O19 O 0.76979 -0.02480 0.52460
 O20 O 0.76982 0.02341 0.47651
 O21 O 0.76991 0.02332 0.52459
 O22 O 0.76971 -0.02470 0.47651
 Cu23 Cu 0.72484 -0.00055 0.50064
 Cu24 Cu 0.77393 -0.00071 0.50055
 C25 C 0.74926 -0.03273 0.46843
 C26 C 0.74953 0.03150 0.53273
 C27 C 0.74940 0.03162 0.46843
 C28 C 0.74936 -0.03287 0.53277
 O29 O 0.26954 0.47526 0.97629
 O30 O 0.26953 0.52341 1.02428
 O31 O 0.26941 0.47528 1.02436
 O32 O 0.26961 0.52338 0.97621
 O33 O 0.22877 0.52350 0.97613
 O34 O 0.22857 0.47540 1.02428
 O35 O 0.22868 0.52352 1.02420
 O36 O 0.22869 0.47537 0.97619
 Cu37 Cu 0.27364 0.49932 1.00030
 Cu38 Cu 0.22456 0.49946 1.00019
 C39 C 0.24912 0.46720 0.96814
 C40 C 0.24910 0.53159 1.03234
 C41 C 0.24896 0.46722 1.03245
 C42 C 0.24922 0.53156 0.96804
 O43 O 0.47687 0.22830 1.02448
 O44 O 0.52485 0.22835 0.97635
 O45 O 0.52498 0.22839 1.02445
 O46 O 0.47673 0.22830 0.97639
 O47 O 0.47665 0.26916 0.97636
 O48 O 0.52489 0.26925 1.02440
 O49 O 0.52476 0.26922 0.97632
 O50 O 0.47678 0.26917 1.02444
 Cu51 Cu 0.50087 0.22422 1.00042
 Cu52 Cu 0.50076 0.27332 1.00038
 C53 C 0.46873 0.24873 1.03258
 C54 C 0.53290 0.24879 0.96822
 C55 C 0.53308 0.24884 1.03255
 C56 C 0.46854 0.24872 0.96827
 O57 O 0.47628 0.72972 -0.02452
 O58 O 0.52437 0.72987 0.02350
 O59 O 0.47626 0.72977 0.02356
 O60 O 0.52440 0.72981 -0.02460
 O61 O 0.52428 0.77066 -0.02467
 O62 O 0.47614 0.77063 0.02349
 O63 O 0.52426 0.77073 0.02343
 O64 O 0.47617 0.77058 -0.02459
 Cu65 Cu 0.50034 0.72567 -0.00051
 Cu66 Cu 0.50021 0.77477 -0.00060
 C67 C 0.46810 0.75012 -0.03264
 C68 C 0.53242 0.75032 0.03157
 C69 C 0.46807 0.75020 0.03165
 C70 C 0.53247 0.75024 -0.03278
 O71 O 1.02433 0.47643 0.23020
 O72 O 0.97621 0.52450 0.23019
 O73 O 1.02432 0.52456 0.23019
 O74 O 0.97622 0.47637 0.23020
 O75 O 0.97622 0.47636 0.27102
 O76 O 1.02433 0.52455 0.27100
 O77 O 0.97621 0.52449 0.27101
 O78 O 1.02434 0.47642 0.27102
 Cu79 Cu 1.00027 0.50046 0.22608
 Cu80 Cu 1.00028 0.50045 0.27513
 C81 C 1.03246 0.46831 0.25061
 C82 C 0.96809 0.53261 0.25060
 C83 C 1.03245 0.53269 0.25059
 C84 C 0.96810 0.46823 0.25062
 O85 O -0.02439 0.47626 0.72936
 O86 O 0.02362 0.52435 0.72944
 O87 O 0.02372 0.47621 0.72940
 O88 O -0.02449 0.52439 0.72943
 O89 O -0.02450 0.52433 0.77024
 O90 O 0.02371 0.47615 0.77022
 O91 O 0.02361 0.52428 0.77026
 O92 O -0.02441 0.47620 0.77019
 Cu93 Cu -0.00038 0.50031 0.72529
 Cu94 Cu -0.00040 0.50023 0.77434
 C95 C -0.03251 0.46812 0.74976
 C96 C 0.03171 0.53243 0.74986
 C97 C 0.03186 0.46805 0.74980
 C98 C -0.03264 0.53250 0.74984
 O99 O 0.47521 0.97641 0.26956
 O100 O 0.52330 1.02445 0.26963
 O101 O 0.47521 1.02453 0.26961
 O102 O 0.52329 0.97635 0.26961
 O103 O 0.52332 0.97640 0.22878
 O104 O 0.47523 1.02458 0.22879
 O105 O 0.52333 1.02451 0.22881
 O106 O 0.47523 0.97646 0.22874
 Cu107 Cu 0.49925 1.00043 0.27372
 Cu108 Cu 0.49928 1.00049 0.22466
 C109 C 0.46711 0.96832 0.24914
 C110 C 0.53144 1.03258 0.24923
 C111 C 0.46710 1.03269 0.24920
 C112 C 0.53143 0.96825 0.24920
 O113 O 1.02448 0.23106 0.52385
 O114 O 0.97632 0.23098 0.47587
 O115 O 1.02441 0.23118 0.47579
 O116 O 0.97639 0.23088 0.52393
 O117 O 0.97619 0.27174 0.52400
 O118 O 1.02421 0.27205 0.47586
 O119 O 0.97611 0.27184 0.47594
 O120 O 1.02428 0.27193 0.52393
 Cu121 Cu 1.00042 0.22690 0.49985
 Cu122 Cu 1.00018 0.27602 0.49994
 C123 C 1.03250 0.25151 0.53199
 C124 C 0.96808 0.25139 0.46781
 C125 C 1.03241 0.25166 0.46770
 C126 C 0.96819 0.25126 0.53209
 O127 O -0.02420 0.72950 0.52398
 O128 O 0.02387 0.72959 0.47591
 O129 O 0.02388 0.72957 0.52398
 O130 O -0.02422 0.72952 0.47592
 O131 O -0.02431 0.77039 0.47592
 O132 O 0.02379 0.77044 0.52398
 O133 O 0.02378 0.77045 0.47591
 O134 O -0.02430 0.77036 0.52398
 Cu135 Cu -0.00016 0.72542 0.49995
 Cu136 Cu -0.00027 0.77454 0.49994
 C137 C -0.03237 0.74991 0.53209
 C138 C 0.03194 0.75003 0.46780
 C139 C 0.03195 0.75001 0.53209
 C140 C -0.03239 0.74995 0.46782
 O141 O 0.77062 0.47581 1.02418
 O142 O 0.77071 0.52382 0.97604
 O143 O 0.77067 0.52392 1.02409
 O144 O 0.77064 0.47572 0.97613
 O145 O 0.72979 0.47581 0.97611
 O146 O 0.72982 0.52400 1.02407
 O147 O 0.72986 0.52391 0.97602
 O148 O 0.72977 0.47590 1.02416
 Cu149 Cu 0.77479 0.49981 1.00011
 Cu150 Cu 0.72568 0.49991 1.00009
 C151 C 0.75018 0.46776 1.03229
 C152 C 0.75030 0.53197 0.96791
 C153 C 0.75025 0.53210 1.03217
 C154 C 0.75021 0.46763 0.96803
 O155 O 0.47559 1.02438 0.77075
 O156 O 0.52367 0.97622 0.77079
 O157 O 0.52368 1.02433 0.77071
 O158 O 0.47558 0.97627 0.77086
 O159 O 0.47553 0.97622 0.73003
 O160 O 0.52363 1.02427 0.72988
 O161 O 0.52361 0.97616 0.72997
 O162 O 0.47554 1.02432 0.72993
 Cu163 Cu 0.49963 1.00031 0.77490
 Cu164 Cu 0.49957 1.00024 0.72583
 C165 C 0.46745 1.03248 0.75034
 C166 C 0.53175 0.96806 0.75039
 C167 C 0.53177 1.03241 0.75027
 C168 C 0.46743 0.96813 0.75047
 C169 C 0.25037 0.23180 0.26817
 C170 C 0.23201 0.25027 0.26823
 C171 C 0.23201 0.26869 0.24983
 C172 C 0.25037 0.26869 0.23139
 C173 C 0.26877 0.25026 0.23140
 C174 C 0.26876 0.23181 0.24977
 C175 C 0.74970 0.76871 0.26819
 C176 C 0.76812 0.75031 0.26825
 C177 C 0.76822 0.73194 0.24983
 C178 C 0.74989 0.73195 0.23137
 C179 C 0.73145 0.75033 0.23135
 C180 C 0.73136 0.76873 0.24974
 C181 C 0.75034 0.23131 0.73170
 C182 C 0.76870 0.24975 0.73166
 C183 C 0.76867 0.26816 0.75005
 C184 C 0.75033 0.26810 0.76851
 C185 C 0.73196 0.24967 0.76851
 C186 C 0.73195 0.23130 0.75009
 C187 C 0.24975 0.76844 0.73181
 C188 C 0.26808 0.76843 0.75027
 C189 C 0.26804 0.74998 0.76864
 C190 C 0.24965 0.73158 0.76860
 C191 C 0.23127 0.73166 0.75018
 C192 C 0.23133 0.75007 0.73177
 C193 C 0.23213 0.24982 0.73134
 C194 C 0.25056 0.23139 0.73130
 C195 C 0.26887 0.23128 0.74982
 C196 C 0.26878 0.24958 0.76834
 C197 C 0.25037 0.26802 0.76832
 C198 C 0.23203 0.26815 0.74984
 C199 C 0.76820 0.74989 0.73163
 C200 C 0.74979 0.76834 0.73165
 C201 C 0.73139 0.76833 0.75007
 C202 C 0.73140 0.74991 0.76848
 C203 C 0.74986 0.73152 0.76848
 C204 C 0.76826 0.73148 0.75005
 C205 C 0.23143 0.74986 0.26832
 C206 C 0.24984 0.76827 0.26828
 C207 C 0.26818 0.76826 0.24980
 C208 C 0.26814 0.74985 0.23138
 C209 C 0.24972 0.73145 0.23146
 C210 C 0.23136 0.73144 0.24992
 C211 C 0.76831 0.24989 0.26861
 C212 C 0.76836 0.26828 0.25017
 C213 C 0.75001 0.26820 0.23170
 C214 C 0.73164 0.24976 0.23164
 C215 C 0.73161 0.23139 0.25009
 C216 C 0.74994 0.23144 0.26858
 C217 C 0.25149 0.05111 0.44921
 C218 C 0.25149 0.06678 0.43340
 C219 C 0.25143 0.08550 0.41454
 C220 C 0.23475 0.10522 0.41590
 C221 C 0.23461 0.12338 0.39755
 C222 C 0.25119 0.12206 0.37759
 C223 C 0.26791 0.10217 0.37641
 C224 C 0.26800 0.08401 0.39477
 C225 C 0.25103 0.14135 0.35809
 C226 C 0.27333 0.15037 0.34826
 C227 C 0.27313 0.16865 0.33001
 C228 C 0.25069 0.17809 0.32134
 C229 C 0.22842 0.16916 0.33091
 C230 C 0.22856 0.15093 0.34918
 C231 C 0.25050 0.19697 0.30268
 C232 C 0.25039 0.21280 0.28704
 H233 H 0.22189 0.10658 0.43116
 H234 H 0.22175 0.13863 0.39915
 H235 H 0.28068 0.10048 0.36112
 H236 H 0.28094 0.06878 0.39352
 H237 H 0.29092 0.14358 0.35494
 H238 H 0.29048 0.17548 0.32275
 H239 H 0.21095 0.17625 0.32420
 H240 H 0.21110 0.14411 0.35612
 C241 C 0.74919 0.94862 0.44966
 C242 C 0.74917 0.93297 0.43386
 C243 C 0.74917 0.91430 0.41499
 C244 C 0.76385 0.89318 0.41765
 C245 C 0.76392 0.87505 0.39929
 C246 C 0.74927 0.87783 0.37801
 C247 C 0.73455 0.89913 0.37553
 C248 C 0.73453 0.91725 0.39391
 C249 C 0.74934 0.85860 0.35850
 C250 C 0.72722 0.85159 0.34682
 C251 C 0.72731 0.83342 0.32850
 C252 C 0.74948 0.82208 0.32160
 C253 C 0.77159 0.82895 0.33304
 C254 C 0.77154 0.84708 0.35140
 C255 C 0.74955 0.80335 0.30282
 C256 C 0.74961 0.78763 0.28710
 H257 H 0.77520 0.89069 0.43394
 H258 H 0.77518 0.85871 0.40187
 H259 H 0.72333 0.90195 0.35922
 H260 H 0.72316 0.93357 0.39164
 H261 H 0.70980 0.85990 0.35209
 H262 H 0.71009 0.82816 0.31979
 H263 H 0.78887 0.82035 0.32773
 H264 H 0.78890 0.85231 0.35981
 C265 C 0.74961 0.05020 0.55144
 C266 C 0.74970 0.06593 0.56716
 C267 C 0.74982 0.08471 0.58592
 C268 C 0.77218 0.09499 0.59378
 C269 C 0.77233 0.11326 0.61199
 C270 C 0.75007 0.12149 0.62259
 C271 C 0.72768 0.11102 0.61457
 C272 C 0.72759 0.09276 0.59634
 C273 C 0.75019 0.14090 0.64193
 C274 C 0.73445 0.13911 0.66252
 C275 C 0.73457 0.15741 0.68070
 C276 C 0.75036 0.17773 0.67852
 C277 C 0.76611 0.17969 0.65815
 C278 C 0.76605 0.16140 0.63995
 C279 C 0.75039 0.19657 0.69718
 C280 C 0.75039 0.21236 0.71284
 H281 H 0.78951 0.08883 0.58587
 H282 H 0.78987 0.12073 0.61801
 H283 H 0.71023 0.11720 0.62215
 H284 H 0.71017 0.08497 0.59033
 H285 H 0.72228 0.12339 0.66473
 H286 H 0.72240 0.15567 0.69648
 H287 H 0.77839 0.19537 0.65630
 H288 H 0.77815 0.16345 0.62418
 C289 C 0.25113 0.94951 0.55116
 C290 C 0.25105 0.93375 0.56688
 C291 C 0.25095 0.91490 0.58561
 C292 C 0.24226 0.89120 0.58011
 C293 C 0.24211 0.87288 0.59830
 C294 C 0.25069 0.87804 0.62227
 C295 C 0.25941 0.90194 0.62761
 C296 C 0.25952 0.92024 0.60938
 C297 C 0.25053 0.85860 0.64161
 C298 C 0.27046 0.85624 0.65813
 C299 C 0.27028 0.83793 0.67634
 C300 C 0.25020 0.82181 0.67831
 C301 C 0.23030 0.82398 0.66197
 C302 C 0.23044 0.84225 0.64373
 C303 C 0.25000 0.80305 0.69709
 C304 C 0.24987 0.78734 0.71285
 H305 H 0.23565 0.88686 0.56174
 H306 H 0.23559 0.85458 0.59353
 H307 H 0.26582 0.90657 0.64596
 H308 H 0.26622 0.93855 0.61386
 H309 H 0.28633 0.86832 0.65675
 H310 H 0.28583 0.83631 0.68882
 H311 H 0.21465 0.81159 0.66338
 H312 H 0.21470 0.84380 0.63150
 C313 C 0.45004 0.24873 0.05130
 C314 C 0.43431 0.24878 0.06702
 C315 C 0.41552 0.24892 0.08577
 C316 C 0.39593 0.26573 0.08432
 C317 C 0.37766 0.26592 0.10254
 C318 C 0.37876 0.24926 0.12246
 C319 C 0.39853 0.23241 0.12373
 C320 C 0.41679 0.23227 0.10550
 C321 C 0.35938 0.24947 0.14181
 C322 C 0.35013 0.22718 0.15147
 C323 C 0.33177 0.22741 0.16960
 C324 C 0.32247 0.24990 0.17833
 C325 C 0.33160 0.27216 0.16893
 C326 C 0.34992 0.27198 0.15076
 C327 C 0.30356 0.25012 0.19692
 C328 C 0.28773 0.25024 0.21254
 H329 H 0.39474 0.27865 0.06908
 H330 H 0.36250 0.27888 0.10088
 H331 H 0.40005 0.21958 0.13900
 H332 H 0.43193 0.21922 0.10682
 H333 H 0.35682 0.20957 0.14474
 H334 H 0.32477 0.21008 0.17674
 H335 H 0.32463 0.28966 0.17569
 H336 H 0.35691 0.28943 0.14395
 C337 C 0.44934 0.75006 0.94871
 C338 C 0.43355 0.75002 0.93304
 C339 C 0.41470 0.74997 0.91436
 C340 C 0.41959 0.75990 0.89102
 C341 C 0.40126 0.75990 0.87285
 C342 C 0.37779 0.74993 0.87781
 C343 C 0.37307 0.73998 0.90134
 C344 C 0.39142 0.74002 0.91949
 C345 C 0.35832 0.74993 0.85854
 C346 C 0.34284 0.72929 0.85544
 C347 C 0.32454 0.72930 0.83725
 C348 C 0.32145 0.74993 0.82198
 C349 C 0.33671 0.77056 0.82493
 C350 C 0.35505 0.77058 0.84308
 C351 C 0.30266 0.74992 0.80328
 C352 C 0.28693 0.74993 0.78756
 H353 H 0.43758 0.76759 0.88684
 H354 H 0.40555 0.76740 0.85482
 H355 H 0.35509 0.73246 0.90582
 H356 H 0.38743 0.73235 0.93753
 H357 H 0.34512 0.71301 0.86684
 H358 H 0.31286 0.71320 0.83504
 H359 H 0.33439 0.78666 0.81325
 H360 H 0.36644 0.78687 0.84523
 C361 C 0.55110 0.75038 0.05030
 C362 C 0.56680 0.75041 0.06606
 C363 C 0.58553 0.75042 0.08487
 C364 C 0.58277 0.76527 0.10583
 C365 C 0.60095 0.76529 0.12414
 C366 C 0.62214 0.75040 0.12172
 C367 C 0.62473 0.73554 0.10057
 C368 C 0.60653 0.73557 0.08227
 C369 C 0.64145 0.75038 0.14115
 C370 C 0.65287 0.72817 0.14840
 C371 C 0.67105 0.72816 0.16670
 C372 C 0.67808 0.75034 0.17794
 C373 C 0.66685 0.77253 0.17088
 C374 C 0.64862 0.77257 0.15262
 C375 C 0.69684 0.75032 0.19669
 C376 C 0.71255 0.75032 0.21242
 H377 H 0.56654 0.77679 0.10804
 H378 H 0.59828 0.77668 0.14035
 H379 H 0.64097 0.72414 0.09802
 H380 H 0.60887 0.72406 0.06608
 H381 H 0.64751 0.71076 0.14016
 H382 H 0.67957 0.71087 0.17214
 H383 H 0.67223 0.78980 0.17943
 H384 H 0.64040 0.79000 0.14722
 C385 C 0.55158 0.24882 0.94949
 C386 C 0.56728 0.24887 0.93374
 C387 C 0.58602 0.24895 0.91494
 C388 C 0.59298 0.22685 0.90348
 C389 C 0.61118 0.22693 0.88519
 C390 C 0.62269 0.24914 0.87815
 C391 C 0.61556 0.27126 0.88980
 C392 C 0.59734 0.27115 0.90807
 C393 C 0.64203 0.24925 0.85875
 C394 C 0.66325 0.26400 0.86135
 C395 C 0.68146 0.26408 0.84307
 C396 C 0.67867 0.24945 0.82197
 C397 C 0.65764 0.23473 0.81918
 C398 C 0.63942 0.23459 0.83745
 C399 C 0.69739 0.24955 0.80320
 C400 C 0.71309 0.24962 0.78745
 H401 H 0.58437 0.20956 0.90872
 H402 H 0.61650 0.20956 0.87679
 H403 H 0.62384 0.28869 0.88455
 H404 H 0.59203 0.28837 0.91678
 H405 H 0.66593 0.27523 0.87767
 H406 H 0.69773 0.27547 0.84543
 H407 H 0.65528 0.22341 0.80286
 H408 H 0.62315 0.22329 0.83477
 C409 C 0.05120 0.44961 0.25060
 C410 C 0.06696 0.43388 0.25056
 C411 C 0.08577 0.41511 0.25049
 C412 C 0.09761 0.40875 0.22844
 C413 C 0.11590 0.39051 0.22834
 C414 C 0.12254 0.37837 0.25034
 C415 C 0.11051 0.38490 0.27242
 C416 C 0.09225 0.40317 0.27247
 C417 C 0.14193 0.35898 0.25025
 C418 C 0.13902 0.33731 0.26433
 C419 C 0.15727 0.31904 0.26420
 C420 C 0.17865 0.32221 0.25005
 C421 C 0.18175 0.34368 0.23601
 C422 C 0.16351 0.36196 0.23608
 C423 C 0.19741 0.30342 0.24995
 C424 C 0.21312 0.28766 0.24988
 H425 H 0.09268 0.41785 0.21131
 H426 H 0.12460 0.38566 0.21101
 H427 H 0.11545 0.37612 0.28969
 H428 H 0.08323 0.40801 0.28966
 H429 H 0.12248 0.33435 0.27516
 H430 H 0.15467 0.30243 0.27505
 H431 H 0.19830 0.34633 0.22508
 H432 H 0.16642 0.37856 0.22531
 C433 C 0.94880 0.44941 0.74973
 C434 C 0.93307 0.43368 0.74972
 C435 C 0.91432 0.41489 0.74972
 C436 C 0.90631 0.40461 0.72742
 C437 C 0.88810 0.38633 0.72740
 C438 C 0.87765 0.37811 0.74972
 C439 C 0.88582 0.38859 0.77204
 C440 C 0.90405 0.40685 0.77201
 C441 C 0.85832 0.35869 0.74973
 C442 C 0.83782 0.36049 0.76560
 C443 C 0.81965 0.34218 0.76561
 C444 C 0.82175 0.32184 0.74981
 C445 C 0.84203 0.31989 0.73393
 C446 C 0.86022 0.33819 0.73387
 C447 C 0.80310 0.30298 0.74990
 C448 C 0.78748 0.28717 0.74998
 H449 H 0.91410 0.41077 0.71005
 H450 H 0.88197 0.37885 0.70991
 H451 H 0.87836 0.38242 0.78953
 H452 H 0.91017 0.41465 0.78938
 H453 H 0.83568 0.37621 0.77776
 H454 H 0.80394 0.34391 0.77786
 H455 H 0.84382 0.30419 0.72165
 H456 H 0.87592 0.33613 0.72167
 C457 C 0.05040 0.55115 0.74989
 C458 C 0.06611 0.56689 0.74992
 C459 C 0.08487 0.58568 0.74998
 C460 C 0.07940 0.60948 0.74149
 C461 C 0.09762 0.62774 0.74151
 C462 C 0.12158 0.62242 0.75008
 C463 C 0.12689 0.59843 0.75859
 C464 C 0.10864 0.58018 0.75852
 C465 C 0.14094 0.64180 0.75013
 C466 C 0.15738 0.64395 0.77013
 C467 C 0.17562 0.66219 0.77015
 C468 C 0.17769 0.67847 0.75019
 C469 C 0.16143 0.67652 0.73023
 C470 C 0.14315 0.65831 0.73017
 C471 C 0.19651 0.69716 0.75019
 C472 C 0.21230 0.71281 0.75018
 H473 H 0.06103 0.61393 0.73490
 H474 H 0.09289 0.64612 0.73515
 H475 H 0.14523 0.59368 0.76499
 H476 H 0.11308 0.56179 0.76508
 H477 H 0.15593 0.63173 0.78590
 H478 H 0.18805 0.66365 0.78575
 H479 H 0.16290 0.68904 0.71469
 H480 H 0.13097 0.65693 0.71438
 C481 C 0.94935 0.55131 0.25058
 C482 C 0.93358 0.56703 0.25054
 C483 C 0.91476 0.58578 0.25047
 C484 C 0.91442 0.60387 0.26890
 C485 C 0.89614 0.62212 0.26883
 C486 C 0.87794 0.62249 0.25029
 C487 C 0.87845 0.60421 0.23184
 C488 C 0.89675 0.58598 0.23194
 C489 C 0.85853 0.64186 0.25019
 C490 C 0.83393 0.63586 0.24435
 C491 C 0.81566 0.65411 0.24428
 C492 C 0.82174 0.67857 0.25000
 C493 C 0.84613 0.68474 0.25581
 C494 C 0.86443 0.66651 0.25593
 C495 C 0.80294 0.69731 0.24992
 C496 C 0.78718 0.71303 0.24987
 H497 H 0.92824 0.60383 0.28337
 H498 H 0.89605 0.63576 0.28346
 H499 H 0.86489 0.60419 0.21715
 H500 H 0.89690 0.57210 0.21754
 H501 H 0.82876 0.61700 0.24017
 H502 H 0.79679 0.64914 0.23985
 H503 H 0.85103 0.70365 0.26015
 H504 H 0.88325 0.67176 0.26018
 C505 C 0.05126 0.25152 0.55066
 C506 C 0.06703 0.25148 0.56636
 C507 C 0.08586 0.25136 0.58509
 C508 C 0.08320 0.26603 0.60620
 C509 C 0.10146 0.26587 0.62444
 C510 C 0.12264 0.25101 0.62180
 C511 C 0.12513 0.23634 0.60050
 C512 C 0.10686 0.23654 0.58228
 C513 C 0.14202 0.25077 0.64119
 C514 C 0.15348 0.22848 0.64815
 C515 C 0.17172 0.22828 0.66642
 C516 C 0.17876 0.25032 0.67790
 C517 C 0.16748 0.27258 0.67113
 C518 C 0.14921 0.27283 0.65290
 C519 C 0.19754 0.25009 0.69665
 C520 C 0.21326 0.24994 0.71238
 H521 H 0.06698 0.27752 0.60859
 H522 H 0.09886 0.27712 0.64076
 H523 H 0.14136 0.22496 0.59779
 H524 H 0.10912 0.22517 0.56598
 H525 H 0.14811 0.21117 0.63973
 H526 H 0.18025 0.21093 0.67163
 H527 H 0.17287 0.28975 0.67987
 H528 H 0.14096 0.29031 0.64773
 C529 C 0.94890 0.74987 0.55079
 C530 C 0.93315 0.74984 0.56650
 C531 C 0.91433 0.74980 0.58525
 C532 C 0.90610 0.72745 0.59528
 C533 C 0.88783 0.72739 0.61351
 C534 C 0.87754 0.74974 0.62193
 C535 C 0.88593 0.77211 0.61171
 C536 C 0.90422 0.77212 0.59349
 C537 C 0.85814 0.74971 0.64130
 C538 C 0.83780 0.76584 0.63966
 C539 C 0.81956 0.76581 0.65791
 C540 C 0.82143 0.74972 0.67805
 C541 C 0.84155 0.73358 0.67985
 C542 C 0.85980 0.73355 0.66160
 C543 C 0.80272 0.74978 0.69687
 C544 C 0.78705 0.74984 0.71265
 H545 H 0.91376 0.71006 0.58897
 H546 H 0.88153 0.70986 0.62078
 H547 H 0.87860 0.78962 0.61803
 H548 H 0.91051 0.78953 0.58589
 H549 H 0.83582 0.77824 0.62409
 H550 H 0.80398 0.77827 0.65629
 H551 H 0.84317 0.72107 0.69539
 H552 H 0.87537 0.72114 0.66355
 C553 C 0.05066 0.75006 0.44909
 C554 C 0.06640 0.75006 0.43336
 C555 C 0.08518 0.75004 0.41458
 C556 C 0.09000 0.72852 0.40110
 C557 C 0.10825 0.72848 0.38285
 C558 C 0.12194 0.75000 0.37786
 C559 C 0.11695 0.77154 0.39153
 C560 C 0.09868 0.77154 0.40976
 C561 C 0.14133 0.74997 0.35848
 C562 C 0.16388 0.76231 0.36234
 C563 C 0.18213 0.76225 0.34410
 C564 C 0.17808 0.74992 0.32177
 C565 C 0.15573 0.73762 0.31773
 C566 C 0.13747 0.73761 0.33596
 C567 C 0.19684 0.74991 0.30301
 C568 C 0.21255 0.74989 0.28727
 H569 H 0.07970 0.71176 0.40475
 H570 H 0.11187 0.71153 0.37288
 H571 H 0.12695 0.78847 0.38789
 H572 H 0.09505 0.78832 0.42004
 H573 H 0.16753 0.77171 0.37960
 H574 H 0.19941 0.77175 0.34743
 H575 H 0.15239 0.72810 0.30046
 H576 H 0.12020 0.72823 0.33231
 C577 C 0.94931 0.25134 0.44915
 C578 C 0.93352 0.25125 0.43347
 C579 C 0.91467 0.25111 0.41476
 C580 C 0.90115 0.22957 0.41021
 C581 C 0.88283 0.22940 0.39203
 C582 C 0.87782 0.25080 0.37813
 C583 C 0.89153 0.27236 0.38285
 C584 C 0.90983 0.27250 0.40106
 C585 C 0.85840 0.25062 0.35878
 C586 C 0.86225 0.26273 0.33611
 C587 C 0.84398 0.26252 0.31789
 C588 C 0.82164 0.25025 0.32209
 C589 C 0.81760 0.23817 0.34457
 C590 C 0.83586 0.23833 0.36280
 C591 C 0.80287 0.25007 0.30334
 C592 C 0.78716 0.24996 0.28759
 H593 H 0.90480 0.21290 0.42067
 H594 H 0.87282 0.21243 0.38861
 H595 H 0.88790 0.28921 0.37269
 H596 H 0.92015 0.28929 0.40448
 H597 H 0.87952 0.27207 0.33233
 H598 H 0.84731 0.27184 0.30050
 H599 H 0.80032 0.22871 0.34803
 H600 H 0.83222 0.22912 0.38017
 C601 C 0.24914 0.44847 0.94943
 C602 C 0.24919 0.43274 0.93369
 C603 C 0.24927 0.41397 0.91489
 C604 C 0.23464 0.41676 0.89379
 C605 C 0.23474 0.39855 0.87549
 C606 C 0.24954 0.37731 0.87807
 C607 C 0.26418 0.37470 0.89937
 C608 C 0.26403 0.39292 0.91766
 C609 C 0.24970 0.35799 0.85863
 C610 C 0.27194 0.34647 0.85163
 C611 C 0.27208 0.32829 0.83332
 C612 C 0.25002 0.32134 0.82183
 C613 C 0.22781 0.33266 0.82864
 C614 C 0.22763 0.35088 0.84691
 C615 C 0.25018 0.30259 0.80305
 C616 C 0.25028 0.28688 0.78729
 H617 H 0.22320 0.43303 0.89143
 H618 H 0.22352 0.40125 0.85916
 H619 H 0.27551 0.35842 0.90205
 H620 H 0.27538 0.39055 0.93396
 H621 H 0.28927 0.35177 0.86007
 H622 H 0.28939 0.31971 0.82808
 H623 H 0.21062 0.32734 0.81989
 H624 H 0.21018 0.35917 0.85211
 C625 C 0.75016 0.44906 0.05102
 C626 C 0.75014 0.43333 0.06676
 C627 C 0.75013 0.41455 0.08554
 C628 C 0.72859 0.40114 0.09041
 C629 C 0.72856 0.38286 0.10864
 C630 C 0.75011 0.37778 0.12225
 C631 C 0.77167 0.39138 0.11722
 C632 C 0.77165 0.40964 0.09897
 C633 C 0.75010 0.35838 0.14161
 C634 C 0.76248 0.36221 0.16413
 C635 C 0.76243 0.34393 0.18236
 C636 C 0.75008 0.32161 0.17830
 C637 C 0.73774 0.31759 0.15598
 C638 C 0.73772 0.33586 0.13774
 C639 C 0.75005 0.30284 0.19705
 C640 C 0.75004 0.28711 0.21278
 H641 H 0.71181 0.40486 0.08016
 H642 H 0.71160 0.37293 0.11231
 H643 H 0.78862 0.38767 0.12716
 H644 H 0.78844 0.41988 0.09528
 H645 H 0.77189 0.37946 0.16778
 H646 H 0.77196 0.34724 0.19963
 H647 H 0.72820 0.30032 0.15264
 H648 H 0.72831 0.33224 0.12048
 C649 C 0.75033 0.55068 0.94920
 C650 C 0.75036 0.56643 0.93348
 C651 C 0.75038 0.58524 0.91473
 C652 C 0.74789 0.61011 0.92131
 C653 C 0.74787 0.62842 0.90311
 C654 C 0.75037 0.62205 0.87805
 C655 C 0.75289 0.59698 0.87163
 C656 C 0.75288 0.57871 0.88987
 C657 C 0.75033 0.64147 0.85870
 C658 C 0.76671 0.64006 0.83859
 C659 C 0.76663 0.65834 0.82036
 C660 C 0.75018 0.67822 0.82199
 C661 C 0.73384 0.67982 0.84193
 C662 C 0.73389 0.66157 0.86018
 C663 C 0.75005 0.69695 0.80320
 C664 C 0.74995 0.71265 0.78744
 H665 H 0.74601 0.61536 0.94052
 H666 H 0.74623 0.64757 0.90865
 H667 H 0.75452 0.59149 0.85248
 H668 H 0.75476 0.55950 0.88457
 H669 H 0.77981 0.62500 0.83711
 H670 H 0.77943 0.65701 0.80505
 H671 H 0.72103 0.69515 0.84334
 H672 H 0.72085 0.66301 0.87527
 C673 C 0.24911 0.55035 0.05101
 C674 C 0.24914 0.56612 0.06671
 C675 C 0.24920 0.58495 0.08544
 C676 C 0.27076 0.59834 0.09025
 C677 C 0.27085 0.61664 0.10845
 C678 C 0.24933 0.62177 0.12211
 C679 C 0.22775 0.60819 0.11712
 C680 C 0.22771 0.58991 0.09890
 C681 C 0.24941 0.64119 0.14145
 C682 C 0.23702 0.63741 0.16398
 C683 C 0.23711 0.65570 0.18219
 C684 C 0.24954 0.67798 0.17812
 C685 C 0.26191 0.68194 0.15579
 C686 C 0.26187 0.66367 0.13757
 C687 C 0.24961 0.69677 0.19685
 C688 C 0.24967 0.71252 0.21256
 H689 H 0.28752 0.59460 0.07998
 H690 H 0.28783 0.62655 0.11207
 H691 H 0.21082 0.61192 0.12709
 H692 H 0.21090 0.57969 0.09527
 H693 H 0.22754 0.62019 0.16765
 H694 H 0.22757 0.65243 0.19946
 H695 H 0.27151 0.69918 0.15243
 H696 H 0.27130 0.66725 0.12031
 C697 C 0.44973 0.05022 0.75032
 C698 C 0.43398 0.06597 0.75028
 C699 C 0.41518 0.08478 0.75023
 C700 C 0.41478 0.10276 0.76877
 C701 C 0.39654 0.12105 0.76871
 C702 C 0.37843 0.12157 0.75009
 C703 C 0.37899 0.10339 0.73154
 C704 C 0.39726 0.08513 0.73162
 C705 C 0.35904 0.14099 0.75001
 C706 C 0.33447 0.13509 0.74397
 C707 C 0.31623 0.15339 0.74393
 C708 C 0.32231 0.17779 0.74987
 C709 C 0.34669 0.18386 0.75588
 C710 C 0.36495 0.16559 0.75597
 C711 C 0.30354 0.19658 0.74983
 C712 C 0.28780 0.21233 0.74982
 H713 H 0.42853 0.10261 0.78330
 H714 H 0.39640 0.13460 0.78342
 H715 H 0.36550 0.10349 0.71678
 H716 H 0.39745 0.07132 0.71714
 H717 H 0.32928 0.11628 0.73961
 H718 H 0.29738 0.14848 0.73936
 H719 H 0.35159 0.20273 0.76040
 H720 H 0.38375 0.17077 0.76038
 C721 C 0.44841 0.94958 0.24912
 C722 C 0.43270 0.93382 0.24914
 C723 C 0.41397 0.91500 0.24919
 C724 C 0.40052 0.91017 0.27071
 C725 C 0.38232 0.89187 0.27080
 C726 C 0.37736 0.87812 0.24932
 C727 C 0.39099 0.88312 0.22777
 C728 C 0.40916 0.90145 0.22773
 C729 C 0.35805 0.85866 0.24940
 C730 C 0.36199 0.83609 0.23711
 C731 C 0.34381 0.81778 0.23722
 C732 C 0.32147 0.82179 0.24957
 C733 C 0.31734 0.84416 0.26183
 C734 C 0.33551 0.86249 0.26178
 C735 C 0.30277 0.80296 0.24965
 C736 C 0.28708 0.78720 0.24971
 H737 H 0.40415 0.92050 0.28744
 H738 H 0.37238 0.88823 0.28775
 H739 H 0.38737 0.87308 0.21087
 H740 H 0.41942 0.90509 0.21095
 H741 H 0.37926 0.83247 0.22770
 H742 H 0.34720 0.80047 0.22776
 H743 H 0.30006 0.84747 0.27136
 H744 H 0.33180 0.87977 0.27112
 C745 C 0.55021 0.05124 0.24927
 C746 C 0.56601 0.06691 0.24932
 C747 C 0.58488 0.08561 0.24940
 C748 C 0.58977 0.09918 0.22796
 C749 C 0.60810 0.11735 0.22802
 C750 C 0.62180 0.12216 0.24956
 C751 C 0.61674 0.10840 0.27102
 C752 C 0.59838 0.09025 0.27092
 C753 C 0.64127 0.14146 0.24966
 C754 C 0.66379 0.13742 0.26201
 C755 C 0.68210 0.15560 0.26208
 C756 C 0.67814 0.17804 0.24988
 C757 C 0.65583 0.18226 0.23756
 C758 C 0.63750 0.16409 0.23742
 C759 C 0.69696 0.19675 0.24999
 C760 C 0.71271 0.21245 0.25006
 H761 H 0.57947 0.09567 0.21118
 H762 H 0.61179 0.12740 0.21114
 H763 H 0.62673 0.11190 0.28797
 H764 H 0.59469 0.07990 0.28763
 H765 H 0.66737 0.12007 0.27132
 H766 H 0.69937 0.15213 0.27159
 H767 H 0.65255 0.19962 0.22813
 H768 H 0.62025 0.16788 0.22803
 C769 C 0.55046 0.94930 0.75039
 C770 C 0.56620 0.93354 0.75038
 C771 C 0.58498 0.91472 0.75035
 C772 C 0.59201 0.90336 0.77247
 C773 C 0.61026 0.88508 0.77245
 C774 C 0.62175 0.87793 0.75027
 C775 C 0.61454 0.88948 0.72813
 C776 C 0.59627 0.90774 0.72819
 C777 C 0.64116 0.85853 0.75023
 C778 C 0.66231 0.86106 0.73535
 C779 C 0.68058 0.84279 0.73533
 C780 C 0.67792 0.82177 0.75014
 C781 C 0.65696 0.81906 0.76499
 C782 C 0.63869 0.83732 0.76506
 C783 C 0.69671 0.80300 0.75010
 C784 C 0.71245 0.78726 0.75008
 H785 H 0.58343 0.90868 0.78974
 H786 H 0.61563 0.87677 0.78983
 H787 H 0.62280 0.88415 0.71072
 H788 H 0.59092 0.91637 0.71095
 H789 H 0.66490 0.87731 0.72398
 H790 H 0.69679 0.84509 0.72384
 H791 H 0.65471 0.80280 0.77645
 H792 H 0.62248 0.83469 0.77646
 C793 C 0.74936 0.94940 0.55052
 C794 C 0.74937 0.93366 0.56630
 C795 C 0.74941 0.91488 0.58515
 C796 C 0.73441 0.91746 0.60603
 C797 C 0.73444 0.89924 0.62436
 C798 C 0.74952 0.87817 0.62205
 C799 C 0.76454 0.87576 0.60098
 C800 C 0.76446 0.89400 0.58267
 C801 C 0.74958 0.85880 0.64151
 C802 C 0.77181 0.84740 0.64878
 C803 C 0.77184 0.82916 0.66707
 C804 C 0.74970 0.82201 0.67830
 C805 C 0.72750 0.83323 0.67124
 C806 C 0.72742 0.85151 0.65298
 C807 C 0.74975 0.80315 0.69705
 C808 C 0.74978 0.78735 0.71274
 H809 H 0.72273 0.93359 0.60819
 H810 H 0.72291 0.90181 0.64049
 H811 H 0.77611 0.85963 0.59849
 H812 H 0.77610 0.89177 0.56656
 H813 H 0.78921 0.85282 0.64057
 H814 H 0.78915 0.82068 0.67250
 H815 H 0.71024 0.82778 0.67977
 H816 H 0.70998 0.85969 0.64759
 C817 C 0.24890 0.44950 0.05019
 C818 C 0.24888 0.43375 0.06595
 C819 C 0.24892 0.41494 0.08475
 C820 C 0.23498 0.41809 0.10627
 C821 C 0.23508 0.39986 0.12457
 C822 C 0.24917 0.37820 0.12158
 C823 C 0.26311 0.37520 0.09985
 C824 C 0.26296 0.39345 0.08157
 C825 C 0.24940 0.35885 0.14105
 C826 C 0.27148 0.34660 0.14727
 C827 C 0.27169 0.32839 0.16557
 C828 C 0.24985 0.32214 0.17788
 C829 C 0.22779 0.33419 0.17185
 C830 C 0.22754 0.35244 0.15357
 C831 C 0.25010 0.30335 0.19667
 C832 C 0.25027 0.28761 0.21242
 H833 H 0.22409 0.43469 0.10895
 H834 H 0.22441 0.40286 0.14121
 H835 H 0.27388 0.35860 0.09684
 H836 H 0.27377 0.39078 0.06496
 H837 H 0.28867 0.35134 0.13822
 H838 H 0.28888 0.31923 0.17016
 H839 H 0.21076 0.32942 0.18121
 H840 H 0.21019 0.36129 0.14899
 C841 C 0.25140 0.05046 0.55005
 C842 C 0.25140 0.06626 0.56577
 C843 C 0.25136 0.08512 0.58454
 C844 C 0.22904 0.09552 0.59245
 C845 C 0.22897 0.11383 0.61068
 C846 C 0.25125 0.12199 0.62127
 C847 C 0.27359 0.11141 0.61318
 C848 C 0.27362 0.09312 0.59494
 C849 C 0.25119 0.14142 0.64069
 C850 C 0.26714 0.13970 0.66114
 C851 C 0.26701 0.15795 0.67942
 C852 C 0.25098 0.17817 0.67752
 C853 C 0.23510 0.18009 0.65723
 C854 C 0.23517 0.16186 0.63895
 C855 C 0.25082 0.19689 0.69639
 C856 C 0.25069 0.21256 0.71223
 H857 H 0.21169 0.08943 0.58459
 H858 H 0.21145 0.12135 0.61672
 H859 H 0.29107 0.11751 0.62071
 H860 H 0.29101 0.08526 0.58891
 H861 H 0.27946 0.12407 0.66320
 H862 H 0.27937 0.15626 0.69506
 H863 H 0.22270 0.19573 0.65551
 H864 H 0.22292 0.16391 0.62328
 C865 C 0.25114 0.94929 0.44941
 C866 C 0.25107 0.93352 0.43367
 C867 C 0.25096 0.91468 0.41487
 C868 C 0.23865 0.89232 0.41896
 C869 C 0.23849 0.87405 0.40070
 C870 C 0.25068 0.87788 0.37808
 C871 C 0.26302 0.90043 0.37416
 C872 C 0.26314 0.91868 0.39244
 C873 C 0.25052 0.85847 0.35865
 C874 C 0.27188 0.85356 0.34466
 C875 C 0.27170 0.83529 0.32640
 C876 C 0.25020 0.82172 0.32183
 C877 C 0.22885 0.82646 0.33561
 C878 C 0.22900 0.84469 0.35391
 C879 C 0.25004 0.80294 0.30301
 C880 C 0.24994 0.78721 0.28725
 H881 H 0.22921 0.88899 0.43627
 H882 H 0.22910 0.85679 0.40442
 H883 H 0.27230 0.90409 0.35684
 H884 H 0.27267 0.93595 0.38903
 H885 H 0.28882 0.86360 0.34807
 H886 H 0.28836 0.83171 0.31591
 H887 H 0.21208 0.81613 0.33216
 H888 H 0.21217 0.84823 0.36411
 C889 C 0.74941 0.05039 0.44970
 C890 C 0.74944 0.06616 0.43396
 C891 C 0.74948 0.08499 0.41515
 C892 C 0.76137 0.10754 0.41938
 C893 C 0.76145 0.12583 0.40114
 C894 C 0.74958 0.12181 0.37837
 C895 C 0.73766 0.09908 0.37431
 C896 C 0.73763 0.08081 0.39258
 C897 C 0.74965 0.14124 0.35896
 C898 C 0.72834 0.14585 0.34478
 C899 C 0.72842 0.16414 0.32653
 C900 C 0.74978 0.17801 0.32216
 C901 C 0.77106 0.17357 0.33613
 C902 C 0.77101 0.15533 0.35443
 C903 C 0.74984 0.19679 0.30334
 C904 C 0.74989 0.21252 0.28757
 H905 H 0.77055 0.11102 0.43681
 H906 H 0.77050 0.14325 0.40496
 H907 H 0.72864 0.09528 0.35688
 H908 H 0.72842 0.06339 0.38907
 H909 H 0.71152 0.13557 0.34803
 H910 H 0.71182 0.16749 0.31588
 H911 H 0.78772 0.18415 0.33284
 H912 H 0.78779 0.15202 0.36479
 C913 C 0.55019 0.75024 0.94946
 C914 C 0.56593 0.75023 0.93369
 C915 C 0.58473 0.75020 0.91485
 C916 C 0.58229 0.76539 0.89407
 C917 C 0.60052 0.76536 0.87577
 C918 C 0.62148 0.75011 0.87799
 C919 C 0.62374 0.73490 0.89897
 C920 C 0.60550 0.73497 0.91725
 C921 C 0.64087 0.75005 0.85855
 C922 C 0.65217 0.72780 0.85118
 C923 C 0.67043 0.72777 0.83292
 C924 C 0.67771 0.74994 0.82181
 C925 C 0.66660 0.77217 0.82897
 C926 C 0.64829 0.77224 0.84720
 C927 C 0.69659 0.74990 0.80309
 C928 C 0.71240 0.74988 0.78740
 H929 H 0.56626 0.77720 0.89197
 H930 H 0.59806 0.77704 0.85972
 H931 H 0.63979 0.72319 0.90140
 H932 H 0.60762 0.72319 0.93328
 H933 H 0.64664 0.71037 0.85930
 H934 H 0.67881 0.71044 0.82742
 H935 H 0.67214 0.78945 0.82054
 H936 H 0.64020 0.78971 0.85266
 C937 C 0.05114 0.25176 0.44899
 C938 C 0.06689 0.25179 0.43327
 C939 C 0.08572 0.25174 0.41453
 C940 C 0.10703 0.23743 0.41763
 C941 C 0.12531 0.23728 0.39941
 C942 C 0.12251 0.25148 0.37782
 C943 C 0.10102 0.26585 0.37490
 C944 C 0.08276 0.26595 0.39315
 C945 C 0.14188 0.25126 0.35842
 C946 C 0.14860 0.27320 0.34620
 C947 C 0.16687 0.27295 0.32797
 C948 C 0.17862 0.25079 0.32169
 C949 C 0.17206 0.22887 0.33370
 C950 C 0.15382 0.22908 0.35195
 C951 C 0.19741 0.25054 0.30294
 C952 C 0.21313 0.25037 0.28720
 H953 H 0.10954 0.22642 0.43415
 H954 H 0.14178 0.22630 0.40235
 H955 H 0.09817 0.27672 0.35836
 H956 H 0.06629 0.27704 0.39053
 H957 H 0.13997 0.29062 0.35098
 H958 H 0.17189 0.29005 0.31884
 H959 H 0.18099 0.21162 0.32890
 H960 H 0.14883 0.21183 0.36077
 C961 C 0.55084 0.24888 0.05027
 C962 C 0.56661 0.24892 0.06602
 C963 C 0.58542 0.24900 0.08483
 C964 C 0.60771 0.26145 0.08085
 C965 C 0.62598 0.26156 0.09912
 C966 C 0.62220 0.24917 0.12166
 C967 C 0.59972 0.23669 0.12547
 C968 C 0.58148 0.23663 0.10718
 C969 C 0.64160 0.24928 0.14110
 C970 C 0.64660 0.22783 0.15495
 C971 C 0.66485 0.22796 0.17323
 C972 C 0.67832 0.24950 0.17796
 C973 C 0.67349 0.27093 0.16431
 C974 C 0.65528 0.27084 0.14600
 C975 C 0.69706 0.24962 0.19680
 C976 C 0.71276 0.24970 0.21261
 H977 H 0.61101 0.27104 0.06360
 H978 H 0.64318 0.27106 0.09547
 H979 H 0.59610 0.22727 0.14272
 H980 H 0.56427 0.22698 0.11051
 H981 H 0.63664 0.21086 0.15142
 H982 H 0.66850 0.21124 0.18361
 H983 H 0.68373 0.28774 0.16788
 H984 H 0.65166 0.28774 0.13591
 C985 C 0.44974 0.24870 0.94956
 C986 C 0.43393 0.24871 0.93385
 C987 C 0.41506 0.24874 0.91509
 C988 C 0.40452 0.27105 0.90730
 C989 C 0.38621 0.27112 0.88908
 C990 C 0.37818 0.24883 0.87837
 C991 C 0.38890 0.22650 0.88634
 C992 C 0.40720 0.22648 0.90457
 C993 C 0.35874 0.24889 0.85897
 C994 C 0.36055 0.23307 0.83842
 C995 C 0.34230 0.23320 0.82014
 C996 C 0.32200 0.24910 0.82213
 C997 C 0.31998 0.26486 0.84251
 C998 C 0.33822 0.26478 0.86080
 C999 C 0.30328 0.24928 0.80325
 C1000 C 0.28762 0.24943 0.78741
 H1001 H 0.41051 0.28840 0.91525
 H1002 H 0.37858 0.28863 0.88314
 H1003 H 0.38291 0.20902 0.87871
 H1004 H 0.41517 0.20909 0.91050
 H1005 H 0.37624 0.22085 0.83629
 H1006 H 0.34406 0.22094 0.80444
 H1007 H 0.30428 0.27715 0.84431
 H1008 H 0.33610 0.27693 0.87653
 C1009 C 0.44930 0.75018 0.05038
 C1010 C 0.43352 0.75015 0.06612
 C1011 C 0.41467 0.75012 0.08490
 C1012 C 0.39234 0.73776 0.08086
 C1013 C 0.37403 0.73770 0.09908
 C1014 C 0.37780 0.75005 0.12163
 C1015 C 0.40032 0.76244 0.12550
 C1016 C 0.41861 0.76245 0.10726
 C1017 C 0.35835 0.75000 0.14102
 C1018 C 0.35340 0.77147 0.15484
 C1019 C 0.33511 0.77141 0.17308
 C1020 C 0.32155 0.74991 0.17779
 C1021 C 0.32633 0.72847 0.16417
 C1022 C 0.34458 0.72850 0.14590
 C1023 C 0.30276 0.74986 0.19660
 C1024 C 0.28704 0.74985 0.21238
 H1025 H 0.38904 0.72821 0.06360
 H1026 H 0.35679 0.72827 0.09540
 H1027 H 0.40394 0.77183 0.14276
 H1028 H 0.43585 0.77202 0.11063
 H1029 H 0.36343 0.78841 0.15133
 H1030 H 0.33149 0.78814 0.18344
 H1031 H 0.31601 0.71170 0.16773
 H1032 H 0.34816 0.71159 0.13583
 C1033 C 0.94959 0.55025 0.74985
 C1034 C 0.93381 0.56601 0.74987
 C1035 C 0.91497 0.58484 0.74991
 C1036 C 0.91464 0.60296 0.73146
 C1037 C 0.89637 0.62125 0.73149
 C1038 C 0.87812 0.62167 0.74999
 C1039 C 0.87860 0.60336 0.76845
 C1040 C 0.89691 0.58510 0.76840
 C1041 C 0.85867 0.64111 0.75002
 C1042 C 0.83409 0.63523 0.75611
 C1043 C 0.81581 0.65352 0.75609
 C1044 C 0.82183 0.67792 0.75006
 C1045 C 0.84622 0.68398 0.74401
 C1046 C 0.86451 0.66572 0.74397
 C1047 C 0.80300 0.69674 0.75005
 C1048 C 0.78724 0.71250 0.75004
 H1049 H 0.92848 0.60291 0.71702
 H1050 H 0.89633 0.63486 0.71683
 H1051 H 0.86503 0.60335 0.78313
 H1052 H 0.89701 0.57122 0.78281
 H1053 H 0.82891 0.61642 0.76053
 H1054 H 0.79698 0.64860 0.76070
 H1055 H 0.85111 0.70284 0.73941
 H1056 H 0.88330 0.67092 0.73953
 C1057 C 0.44940 0.05045 0.24921
 C1058 C 0.43367 0.06622 0.24924
 C1059 C 0.41489 0.08506 0.24929
 C1060 C 0.40616 0.09474 0.22698
 C1061 C 0.38793 0.11305 0.22701
 C1062 C 0.37817 0.12191 0.24940
 C1063 C 0.38708 0.11204 0.27173
 C1064 C 0.40532 0.09374 0.27165
 C1065 C 0.35880 0.14136 0.24946
 C1066 C 0.33886 0.14008 0.26609
 C1067 C 0.32064 0.15840 0.26613
 C1068 C 0.32212 0.17822 0.24960
 C1069 C 0.34186 0.17968 0.23301
 C1070 C 0.36009 0.16137 0.23291
 C1071 C 0.30337 0.19704 0.24967
 C1072 C 0.28767 0.21282 0.24972
 H1073 H 0.41340 0.08810 0.20955
 H1074 H 0.38124 0.12005 0.20951
 H1075 H 0.38017 0.11870 0.28927
 H1076 H 0.41200 0.08642 0.28904
 H1077 H 0.33718 0.12475 0.27882
 H1078 H 0.30537 0.15706 0.27899
 H1079 H 0.34321 0.19500 0.22020
 H1080 H 0.37536 0.16305 0.22012
 C1081 C 0.05019 0.55044 0.25058
 C1082 C 0.06595 0.56619 0.25055
 C1083 C 0.08478 0.58500 0.25051
 C1084 C 0.10705 0.58102 0.23799
 C1085 C 0.12533 0.59927 0.23791
 C1086 C 0.12160 0.62178 0.25038
 C1087 C 0.09915 0.62558 0.26293
 C1088 C 0.08089 0.60731 0.26297
 C1089 C 0.14103 0.64120 0.25029
 C1090 C 0.14609 0.65494 0.27176
 C1091 C 0.16438 0.67318 0.27166
 C1092 C 0.17783 0.67797 0.25012
 C1093 C 0.17293 0.66443 0.22867
 C1094 C 0.15468 0.64616 0.22874
 C1095 C 0.19664 0.69676 0.25004
 C1096 C 0.21239 0.71250 0.24998
 H1097 H 0.11031 0.56380 0.22834
 H1098 H 0.14252 0.59563 0.22836
 H1099 H 0.09557 0.64281 0.27243
 H1100 H 0.06370 0.61062 0.27266
 H1101 H 0.13616 0.65136 0.28873
 H1102 H 0.16809 0.68348 0.28840
 H1103 H 0.18316 0.66806 0.21187
 H1104 H 0.15102 0.63616 0.21183
 C1105 C 0.94935 0.44946 0.25062
 C1106 C 0.93360 0.43371 0.25060
 C1107 C 0.91478 0.41489 0.25057
 C1108 C 0.91867 0.39259 0.26309
 C1109 C 0.90042 0.37432 0.26307
 C1110 C 0.87798 0.37809 0.25048
 C1111 C 0.87425 0.40058 0.23795
 C1112 C 0.89253 0.41883 0.23802
 C1113 C 0.85856 0.35866 0.25042
 C1114 C 0.84494 0.35365 0.22886
 C1115 C 0.82670 0.33536 0.22882
 C1116 C 0.82179 0.32186 0.25031
 C1117 C 0.83521 0.32670 0.27185
 C1118 C 0.85348 0.34495 0.27192
 C1119 C 0.80301 0.30304 0.25025
 C1120 C 0.78728 0.28727 0.25021
 H1121 H 0.93585 0.38930 0.27282
 H1122 H 0.90400 0.35710 0.27261
 H1123 H 0.85708 0.40419 0.22837
 H1124 H 0.88927 0.43604 0.22832
 H1125 H 0.84862 0.36363 0.21194
 H1126 H 0.81650 0.33170 0.21202
 H1127 H 0.83149 0.31642 0.28861
 H1128 H 0.86339 0.34857 0.28889
 C1129 C 0.05064 0.44929 0.74979
 C1130 C 0.06643 0.43353 0.74979
 C1131 C 0.08528 0.41471 0.74981
 C1132 C 0.09214 0.40318 0.72772
 C1133 C 0.11043 0.38490 0.72772
 C1134 C 0.12214 0.37789 0.74984
 C1135 C 0.11511 0.38961 0.77195
 C1136 C 0.09681 0.40787 0.77191
 C1137 C 0.14159 0.35846 0.74986
 C1138 C 0.16281 0.36098 0.76466
 C1139 C 0.18110 0.34271 0.76464
 C1140 C 0.17844 0.32167 0.74987
 C1141 C 0.15741 0.31896 0.73510
 C1142 C 0.13911 0.33722 0.73507
 C1143 C 0.19728 0.30287 0.74986
 C1144 C 0.21305 0.28712 0.74985
 H1145 H 0.08341 0.40837 0.71049
 H1146 H 0.11564 0.37649 0.71035
 H1147 H 0.12352 0.38442 0.78933
 H1148 H 0.09160 0.41661 0.78914
 H1149 H 0.16544 0.37724 0.77600
 H1150 H 0.19736 0.34504 0.77607
 H1151 H 0.15512 0.30270 0.72367
 H1152 H 0.12287 0.33456 0.72373
 C1153 C 0.94885 0.74994 0.44914
 C1154 C 0.93308 0.74993 0.43344
 C1155 C 0.91424 0.74994 0.41471
 C1156 C 0.90649 0.72767 0.40416
 C1157 C 0.88821 0.72766 0.38594
 C1158 C 0.87741 0.74997 0.37804
 C1159 C 0.88533 0.77227 0.38879
 C1160 C 0.90363 0.77223 0.40700
 C1161 C 0.85802 0.74999 0.35867
 C1162 C 0.83735 0.76566 0.36065
 C1163 C 0.81912 0.76567 0.34238
 C1164 C 0.82132 0.75009 0.32190
 C1165 C 0.84177 0.73442 0.31976
 C1166 C 0.86001 0.73435 0.33801
 C1167 C 0.80261 0.75019 0.30307
 C1168 C 0.78695 0.75025 0.28727
 H1169 H 0.91453 0.71030 0.41005
 H1170 H 0.88228 0.71017 0.37826
 H1171 H 0.87762 0.78976 0.38288
 H1172 H 0.90954 0.78959 0.41500
 H1173 H 0.83511 0.77765 0.37648
 H1174 H 0.80328 0.77777 0.34427
 H1175 H 0.84364 0.72230 0.30396
 H1176 H 0.87584 0.72231 0.33580
 C1177 C 0.94948 0.25113 0.55082
 C1178 C 0.93376 0.25100 0.56657
 C1179 C 0.91497 0.25083 0.58535
 C1180 C 0.91461 0.26924 0.60348
 C1181 C 0.89638 0.26908 0.62175
 C1182 C 0.87823 0.25047 0.62210
 C1183 C 0.87876 0.23205 0.60378
 C1184 C 0.89703 0.23224 0.58555
 C1185 C 0.85885 0.25029 0.64149
 C1186 C 0.83427 0.24430 0.63555
 C1187 C 0.81603 0.24417 0.65381
 C1188 C 0.82211 0.24997 0.67822
 C1189 C 0.84649 0.25591 0.68435
 C1190 C 0.86475 0.25610 0.66611
 C1191 C 0.80333 0.24986 0.69698
 C1192 C 0.78761 0.24980 0.71272
 H1193 H 0.92838 0.28375 0.60346
 H1194 H 0.89627 0.28369 0.63539
 H1195 H 0.86526 0.21731 0.60375
 H1196 H 0.89718 0.21787 0.57164
 H1197 H 0.82908 0.24006 0.61672
 H1198 H 0.79718 0.23964 0.64886
 H1199 H 0.85140 0.26033 0.70322
 H1200 H 0.88355 0.26046 0.67133
 C1201 C 0.05067 0.75003 0.55081
 C1202 C 0.06641 0.75005 0.56654
 C1203 C 0.08518 0.75009 0.58534
 C1204 C 0.10377 0.76803 0.58503
 C1205 C 0.12202 0.76807 0.60328
 C1206 C 0.12193 0.75013 0.62208
 C1207 C 0.10315 0.73216 0.62222
 C1208 C 0.08490 0.73217 0.60396
 C1209 C 0.14132 0.75013 0.64146
 C1210 C 0.15173 0.72778 0.64976
 C1211 C 0.16998 0.72781 0.66800
 C1212 C 0.17803 0.75013 0.67822
 C1213 C 0.16781 0.77245 0.67012
 C1214 C 0.14958 0.77248 0.65184
 C1215 C 0.19677 0.75011 0.69702
 C1216 C 0.21246 0.75009 0.71279
 H1217 H 0.10419 0.78195 0.57065
 H1218 H 0.13640 0.78194 0.60249
 H1219 H 0.10238 0.71831 0.63663
 H1220 H 0.07055 0.71824 0.60441
 H1221 H 0.14600 0.71031 0.64191
 H1222 H 0.17787 0.71043 0.67408
 H1223 H 0.17385 0.78983 0.67798
 H1224 H 0.14171 0.78995 0.64608
 C1225 C 0.75026 0.55087 0.05083
 C1226 C 0.75027 0.56666 0.06651
 C1227 C 0.75028 0.58552 0.08523
 C1228 C 0.72799 0.59595 0.09313
 C1229 C 0.72797 0.61427 0.11131
 C1230 C 0.75029 0.62238 0.12185
 C1231 C 0.77260 0.61176 0.11378
 C1232 C 0.77257 0.59346 0.09558
 C1233 C 0.75029 0.64182 0.14119
 C1234 C 0.76612 0.64000 0.16172
 C1235 C 0.76606 0.65828 0.17993
 C1236 C 0.75021 0.67861 0.17787
 C1237 C 0.73444 0.68064 0.15751
 C1238 C 0.73444 0.66237 0.13929
 C1239 C 0.75011 0.69736 0.19665
 C1240 C 0.75000 0.71306 0.21241
 H1241 H 0.71061 0.58989 0.08528
 H1242 H 0.71047 0.62185 0.11736
 H1243 H 0.79010 0.61784 0.12130
 H1244 H 0.78994 0.58555 0.08954
 H1245 H 0.77830 0.62427 0.16386
 H1246 H 0.77833 0.65654 0.19564
 H1247 H 0.72219 0.69638 0.15569
 H1248 H 0.72229 0.66448 0.12356
 C1249 C 0.24930 0.55030 0.94930
 C1250 C 0.24937 0.56605 0.93355
 C1251 C 0.24946 0.58486 0.91475
 C1252 C 0.27006 0.60019 0.91185
 C1253 C 0.27017 0.61848 0.89361
 C1254 C 0.24963 0.62167 0.87799
 C1255 C 0.22902 0.60614 0.88106
 C1256 C 0.22895 0.58788 0.89932
 C1257 C 0.24971 0.64109 0.85860
 C1258 C 0.23977 0.63631 0.83508
 C1259 C 0.23982 0.65461 0.81686
 C1260 C 0.24974 0.67793 0.82190
 C1261 C 0.25969 0.68289 0.84522
 C1262 C 0.25970 0.66460 0.86345
 C1263 C 0.24969 0.69677 0.80317
 C1264 C 0.24966 0.71257 0.78748
 H1265 H 0.28607 0.59797 0.92365
 H1266 H 0.28643 0.62991 0.89151
 H1267 H 0.21281 0.60834 0.86955
 H1268 H 0.21288 0.57616 0.90145
 H1269 H 0.23226 0.61831 0.83066
 H1270 H 0.23220 0.65055 0.79882
 H1271 H 0.26735 0.70091 0.84933
 H1272 H 0.26720 0.66896 0.88146
 C1273 C 0.75020 0.44886 0.94936
 C1274 C 0.75020 0.43308 0.93367
 C1275 C 0.75022 0.41425 0.91492
 C1276 C 0.73552 0.39318 0.91769
 C1277 C 0.73552 0.37489 0.89948
 C1278 C 0.75027 0.37744 0.87825
 C1279 C 0.76499 0.39869 0.87565
 C1280 C 0.76495 0.41697 0.89387
 C1281 C 0.75030 0.35802 0.85889
 C1282 C 0.77247 0.35095 0.84730
 C1283 C 0.77247 0.33270 0.82905
 C1284 C 0.75034 0.32133 0.82211
 C1285 C 0.72819 0.32820 0.83352
 C1286 C 0.72815 0.34642 0.85181
 C1287 C 0.75035 0.30263 0.80328
 C1288 C 0.75035 0.28696 0.78749
 H1289 H 0.72411 0.39086 0.93396
 H1290 H 0.72424 0.35860 0.90217
 H1291 H 0.77629 0.40134 0.85937
 H1292 H 0.77635 0.43325 0.89151
 H1293 H 0.78985 0.35929 0.85257
 H1294 H 0.78973 0.32741 0.82042
 H1295 H 0.71095 0.31956 0.82822
 H1296 H 0.71075 0.35167 0.86015
 C1297 C 0.55017 0.94952 0.24920
 C1298 C 0.56593 0.93378 0.24923
 C1299 C 0.58476 0.91499 0.24928
 C1300 C 0.59181 0.90365 0.22716
 C1301 C 0.61009 0.88539 0.22720
 C1302 C 0.62158 0.87825 0.24938
 C1303 C 0.61436 0.88979 0.27152
 C1304 C 0.59606 0.90802 0.27144
 C1305 C 0.64101 0.85887 0.24944
 C1306 C 0.66217 0.86141 0.26432
 C1307 C 0.68045 0.84316 0.26435
 C1308 C 0.67783 0.82214 0.24957
 C1309 C 0.65686 0.81941 0.23472
 C1310 C 0.63857 0.83765 0.23463
 C1311 C 0.69663 0.80338 0.24963
 C1312 C 0.71240 0.78765 0.24969
 H1313 H 0.58322 0.90896 0.20989
 H1314 H 0.61547 0.87709 0.20982
 H1315 H 0.62263 0.88447 0.28893
 H1316 H 0.59069 0.91664 0.28868
 H1317 H 0.66474 0.87767 0.27567
 H1318 H 0.69667 0.84548 0.27584
 H1319 H 0.65462 0.80315 0.22327
 H1320 H 0.62237 0.83501 0.22323
 C1321 C 0.55051 0.05112 0.75021
 C1322 C 0.56626 0.06683 0.75017
 C1323 C 0.58508 0.08558 0.75012
 C1324 C 0.60598 0.08291 0.73516
 C1325 C 0.62429 0.10111 0.73511
 C1326 C 0.62193 0.12223 0.75008
 C1327 C 0.60084 0.12473 0.76505
 C1328 C 0.58255 0.10652 0.76506
 C1329 C 0.64139 0.14155 0.75007
 C1330 C 0.64872 0.15291 0.77225
 C1331 C 0.66708 0.17105 0.77223
 C1332 C 0.67831 0.17809 0.75006
 C1333 C 0.67113 0.16696 0.72789
 C1334 C 0.65281 0.14878 0.72788
 C1335 C 0.69718 0.19675 0.75005
 C1336 C 0.71298 0.21241 0.75006
 H1337 H 0.60816 0.06674 0.72358
 H1338 H 0.64045 0.09849 0.72363
 H1339 H 0.59834 0.14092 0.77652
 H1340 H 0.56641 0.10880 0.77666
 H1341 H 0.64051 0.14752 0.78966
 H1342 H 0.67257 0.17951 0.78949
 H1343 H 0.67963 0.17238 0.71062
 H1344 H 0.64734 0.14063 0.71047
 C1345 C 0.44871 0.94942 0.75052
 C1346 C 0.43297 0.93369 0.75057
 C1347 C 0.41418 0.91490 0.75061
 C1348 C 0.39876 0.91200 0.73009
 C1349 C 0.38050 0.89375 0.73010
 C1350 C 0.37745 0.87814 0.75066
 C1351 C 0.39307 0.88122 0.77119
 C1352 C 0.41130 0.89949 0.77115
 C1353 C 0.35807 0.85875 0.75067
 C1354 C 0.36297 0.83517 0.76052
 C1355 C 0.34474 0.81691 0.76045
 C1356 C 0.32139 0.82196 0.75058
 C1357 C 0.31631 0.84534 0.74080
 C1358 C 0.33452 0.86362 0.74081
 C1359 C 0.30267 0.80314 0.75047
 C1360 C 0.28698 0.78738 0.75037
 H1361 H 0.40088 0.92379 0.71407
 H1362 H 0.36899 0.89164 0.71389
 H1363 H 0.39097 0.86971 0.78741
 H1364 H 0.42310 0.90163 0.78715
 H1365 H 0.38100 0.83075 0.76796
 H1366 H 0.34888 0.79883 0.76800
 H1367 H 0.29824 0.84947 0.73323
 H1368 H 0.33008 0.88168 0.73340
   
