data_POSCAR
  _audit_creation_date              2014-09-24
  _audit_creation_method            'ToBaCCo'
  _symmetry_space_group_name_H-M    'P1'
  _symmetry_Int_Tables_number       1
  _symmetry_cell_setting            triclinic
  loop_
  _symmetry_equiv_pos_as_xyz
 x,y,z
_cell_length_a 87.3800
_cell_length_b 84.5354
_cell_length_c 85.2914
_cell_angle_alpha 90.167900
_cell_angle_beta 89.566600
_cell_angle_gamma 90.681100
loop_
  _atom_site_label
  _atom_site_type_symbol
  _atom_site_fract_x
  _atom_site_fract_y
  _atom_site_fract_z
N1 N 0.36120 0.32114 0.33918
 N2 N 0.36180 0.33075 0.32708
 C3 C 0.37529 0.32920 0.31965
 C4 C 0.38359 0.31783 0.32728
 C5 C 0.37431 0.31283 0.33961
 H6 H 0.37896 0.33607 0.30959
 H7 H 0.37721 0.30444 0.34863
 Cu8 Cu 0.34541 0.34510 0.32256
 Cu9 Cu 0.34412 0.32183 0.35425
 Cu10 Cu 0.31543 0.34916 0.34634
 N11 N 0.33257 0.36350 0.32129
 N12 N 0.32048 0.36499 0.33039
 C13 C 0.31327 0.37847 0.32666
 C14 C 0.32151 0.38591 0.31476
 C15 C 0.33370 0.37604 0.31170
 H16 H 0.30298 0.38267 0.33235
 H17 H 0.34259 0.37771 0.30295
 N18 N 0.31514 0.33517 0.36488
 N19 N 0.32580 0.32465 0.36785
 C20 C 0.32238 0.31746 0.38157
 C21 C 0.30907 0.32394 0.38759
 C22 C 0.30483 0.33509 0.37667
 H23 H 0.32932 0.30860 0.38709
 H24 H 0.29503 0.34274 0.37735
 H25 H 0.32782 0.32945 0.33917
 H26 H 0.33829 0.34521 0.35006
 N27 N 0.38260 0.83353 -0.15835
 N28 N 0.38104 0.83921 -0.17254
 C29 C 0.39216 0.83338 -0.18185
 C30 C 0.40126 0.82347 -0.17293
 C31 C 0.39486 0.82412 -0.15798
 H32 H 0.39329 0.83601 -0.19420
 H33 H 0.39822 0.81769 -0.14767
 Cu34 Cu 0.36439 0.85347 -0.17721
 Cu35 Cu 0.36775 0.83758 -0.14186
 Cu36 Cu 0.33338 0.85353 -0.15364
 N37 N 0.34951 0.87035 -0.17799
 N38 N 0.33715 0.87031 -0.16911
 C39 C 0.32879 0.88313 -0.17253
 C40 C 0.33646 0.89183 -0.18408
 C41 C 0.34959 0.88322 -0.18717
 H42 H 0.31809 0.88594 -0.16679
 H43 H 0.35857 0.88587 -0.19556
 N44 N 0.33529 0.84069 -0.13441
 N45 N 0.34865 0.83542 -0.12970
 C46 C 0.34642 0.82549 -0.11763
 C47 C 0.33093 0.82428 -0.11459
 C48 C 0.32415 0.83425 -0.12531
 H49 H 0.35532 0.81851 -0.11240
 H50 H 0.31202 0.83557 -0.12727
 H51 H 0.35073 0.83699 -0.15829
 H52 H 0.35561 0.85690 -0.15010
 N53 N 0.86237 0.32467 -0.16505
 N54 N 0.85837 0.33485 -0.17586
 C55 C 0.86925 0.33555 -0.18704
 C56 C 0.88077 0.32522 -0.18317
 C57 C 0.87595 0.31836 -0.16917
 H58 H 0.86881 0.34316 -0.19719
 H59 H 0.88208 0.30986 -0.16223
 Cu60 Cu 0.83974 0.34700 -0.17434
 Cu61 Cu 0.84969 0.32133 -0.14626
 Cu62 Cu 0.82593 0.35305 -0.13823
 N63 N 0.82612 0.36439 -0.16991
 N64 N 0.82142 0.36716 -0.15553
 C65 C 0.81274 0.38017 -0.15541
 C66 C 0.81187 0.38598 -0.17060
 C67 C 0.82057 0.37552 -0.17950
 H68 H 0.80727 0.38478 -0.14499
 H69 H 0.82297 0.37603 -0.19194
 N70 N 0.83150 0.33724 -0.12246
 N71 N 0.83968 0.32456 -0.12559
 C72 C 0.83980 0.31526 -0.11272
 C73 C 0.83143 0.32262 -0.10095
 C74 C 0.82639 0.33646 -0.10760
 H75 H 0.84547 0.30399 -0.11199
 H76 H 0.81884 0.34495 -0.10219
 H77 H 0.82934 0.33291 -0.15132
 H78 H 0.84673 0.34504 -0.14694
 N79 N 0.86673 0.82234 0.33853
 N80 N 0.86757 0.82805 0.32424
 C81 C 0.87987 0.82180 0.31691
 C82 C 0.88696 0.81153 0.32720
 C83 C 0.87831 0.81236 0.34080
 H84 H 0.88302 0.82398 0.30482
 H85 H 0.87994 0.80571 0.35144
 Cu86 Cu 0.85189 0.84236 0.31652
 Cu87 Cu 0.84955 0.82595 0.35250
 Cu88 Cu 0.82059 0.84949 0.33882
 N89 N 0.83729 0.85884 0.31118
 N90 N 0.82533 0.86171 0.32011
 C91 C 0.81709 0.87331 0.31369
 C92 C 0.82416 0.87809 0.29982
 C93 C 0.83703 0.86857 0.29868
 H94 H 0.80654 0.87762 0.31870
 H95 H 0.84559 0.86860 0.28947
 N96 N 0.81986 0.83935 0.35957
 N97 N 0.83111 0.83062 0.36483
 C98 C 0.82700 0.82447 0.37878
 C99 C 0.81248 0.82959 0.38257
 C100 C 0.80833 0.83913 0.37017
 H101 H 0.83389 0.81644 0.38550
 H102 H 0.79746 0.84489 0.36865
 H103 H 0.83401 0.82959 0.33503
 H104 H 0.84343 0.84775 0.34323
 N105 N 0.63421 0.68747 0.32878
 N106 N 0.63350 0.67836 0.31632
 C107 C 0.62001 0.68061 0.30913
 C108 C 0.61183 0.69172 0.31767
 C109 C 0.62128 0.69581 0.33003
 H110 H 0.61641 0.67458 0.29856
 H111 H 0.61909 0.70445 0.33912
 Cu112 Cu 0.65053 0.66470 0.31092
 Cu113 Cu 0.65211 0.68849 0.34203
 Cu114 Cu 0.67741 0.65727 0.33817
 N115 N 0.66423 0.64690 0.30900
 N116 N 0.67484 0.64406 0.31944
 C117 C 0.68223 0.63074 0.31529
 C118 C 0.67573 0.62486 0.30164
 C119 C 0.66437 0.63547 0.29801
 H120 H 0.69126 0.62542 0.32201
 H121 H 0.65662 0.63484 0.28820
 N122 N 0.67782 0.67225 0.35614
 N123 N 0.66795 0.68390 0.35745
 C124 C 0.66986 0.69117 0.37131
 C125 C 0.68160 0.68396 0.37913
 C126 C 0.68654 0.67206 0.36917
 H127 H 0.66290 0.70074 0.37566
 H128 H 0.69524 0.66343 0.37163
 H129 H 0.66915 0.67733 0.32866
 H130 H 0.65487 0.66449 0.33900
 N131 N 0.64069 0.18139 -0.15279
 N132 N 0.63921 0.17373 -0.16612
 C133 C 0.62661 0.17873 -0.17346
 C134 C 0.61977 0.19026 -0.16431
 C135 C 0.62906 0.19160 -0.15122
 H136 H 0.62281 0.17428 -0.18468
 H137 H 0.62767 0.19959 -0.14141
 Cu138 Cu 0.65398 0.15828 -0.17306
 Cu139 Cu 0.65792 0.17786 -0.13888
 Cu140 Cu 0.68139 0.14648 -0.14844
 N141 N 0.66525 0.13900 -0.17670
 N142 N 0.67587 0.13428 -0.16704
 C143 C 0.68204 0.12087 -0.17265
 C144 C 0.67493 0.11696 -0.18671
 C145 C 0.66426 0.12882 -0.18879
 H146 H 0.69125 0.11472 -0.16702
 H147 H 0.65641 0.13016 -0.19840
 N148 N 0.68499 0.16036 -0.13018
 N149 N 0.67602 0.17226 -0.12647
 C150 C 0.68193 0.17995 -0.11400
 C151 C 0.69534 0.17260 -0.10971
 C152 C 0.69687 0.16019 -0.12023
 H153 H 0.67719 0.19053 -0.10886
 H154 H 0.70613 0.15185 -0.12081
 H155 H 0.67317 0.16841 -0.15492
 H156 H 0.65920 0.15437 -0.14546
 N157 N 0.13796 0.67838 -0.18391
 N158 N 0.14223 0.66800 -0.19450
 C159 C 0.13173 0.66711 -0.20586
 C160 C 0.12011 0.67758 -0.20236
 C161 C 0.12451 0.68460 -0.18829
 H162 H 0.13268 0.65946 -0.21597
 H163 H 0.11845 0.69357 -0.18174
 Cu164 Cu 0.16102 0.65642 -0.19259
 Cu165 Cu 0.15092 0.68312 -0.16581
 Cu166 Cu 0.17965 0.65588 -0.15844
 N167 N 0.17523 0.63987 -0.18776
 N168 N 0.18283 0.63969 -0.17453
 C169 C 0.19099 0.62626 -0.17388
 C170 C 0.18803 0.61754 -0.18732
 C171 C 0.17801 0.62655 -0.19584
 H172 H 0.19771 0.62259 -0.16395
 H173 H 0.17262 0.62333 -0.20679
 N174 N 0.17439 0.67324 -0.14384
 N175 N 0.16327 0.68335 -0.14644
 C176 C 0.16247 0.69354 -0.13430
 C177 C 0.17369 0.68976 -0.12361
 C178 C 0.18102 0.67684 -0.13007
 H179 H 0.15454 0.70323 -0.13347
 H180 H 0.19045 0.67048 -0.12505
 H181 H 0.17196 0.67382 -0.17246
 H182 H 0.15713 0.65988 -0.16466
 N183 N 0.12844 0.16408 0.34204
 N184 N 0.13120 0.15180 0.33301
 C185 C 0.12039 0.15089 0.32184
 C186 C 0.11036 0.16331 0.32396
 C187 C 0.11586 0.17141 0.33692
 H188 H 0.12003 0.14206 0.31266
 H189 H 0.11106 0.18187 0.34227
 Cu190 Cu 0.14897 0.13863 0.33652
 Cu191 Cu 0.14139 0.16986 0.35965
 Cu192 Cu 0.17277 0.14620 0.36643
 N193 N 0.16655 0.12534 0.34051
 N194 N 0.17578 0.12841 0.35224
 C195 C 0.18714 0.11782 0.35222
 C196 C 0.18500 0.10747 0.33977
 C197 C 0.17175 0.11265 0.33261
 H198 H 0.19641 0.11789 0.36052
 H199 H 0.16638 0.10767 0.32233
 N200 N 0.16777 0.16473 0.37947
 N201 N 0.15584 0.17375 0.37688
 C202 C 0.15567 0.18551 0.38756
 C203 C 0.16810 0.18385 0.39738
 C204 C 0.17549 0.17051 0.39187
 H205 H 0.14722 0.19473 0.38800
 H206 H 0.18576 0.16538 0.39651
 H207 H 0.16130 0.16028 0.35075
 H208 H 0.14933 0.14733 0.36376
 N209 N 0.63680 0.31062 0.65414
 N210 N 0.63618 0.32051 0.66601
 C211 C 0.62442 0.31631 0.67545
 C212 C 0.61730 0.30301 0.66920
 C213 C 0.62552 0.29974 0.65564
 H214 H 0.62151 0.32226 0.68628
 H215 H 0.62354 0.29013 0.64749
 Cu216 Cu 0.65110 0.33756 0.66816
 Cu217 Cu 0.65267 0.31226 0.63816
 Cu218 Cu 0.67849 0.34378 0.64069
 N219 N 0.66610 0.35451 0.67012
 N220 N 0.67698 0.35688 0.65962
 C221 C 0.68519 0.36986 0.66375
 C222 C 0.67891 0.37598 0.67742
 C223 C 0.66691 0.36587 0.68112
 H224 H 0.69451 0.37492 0.65694
 H225 H 0.65916 0.36694 0.69099
 N226 N 0.67779 0.32901 0.62258
 N227 N 0.66746 0.31752 0.62150
 C228 C 0.66876 0.31049 0.60743
 C229 C 0.68062 0.31763 0.59930
 C230 C 0.68623 0.32927 0.60924
 H231 H 0.66162 0.30082 0.60332
 H232 H 0.69539 0.33760 0.60669
 H233 H 0.66953 0.32424 0.65117
 H234 H 0.65583 0.33666 0.64009
 N235 N 0.61908 0.82344 1.14376
 N236 N 0.62191 0.83075 1.15708
 C237 C 0.61145 0.82595 1.16787
 C238 C 0.60163 0.81502 1.16084
 C239 C 0.60677 0.81397 1.14550
 H240 H 0.61140 0.82960 1.18003
 H241 H 0.60230 0.80641 1.13633
 Cu242 Cu 0.63959 0.84511 1.15875
 Cu243 Cu 0.63244 0.82501 1.12552
 Cu244 Cu 0.66887 0.83809 1.13408
 N245 N 0.65741 0.85936 1.15772
 N246 N 0.66878 0.85631 1.14802
 C247 C 0.67942 0.86782 1.14905
 C248 C 0.67454 0.87886 1.15991
 C249 C 0.66053 0.87306 1.16533
 H250 H 0.68990 0.86817 1.14222
 H251 H 0.65302 0.87859 1.17380
 N252 N 0.66423 0.82521 1.11554
 N253 N 0.65018 0.82076 1.11192
 C254 C 0.65063 0.81188 1.09881
 C255 C 0.66572 0.81077 1.09389
 C256 C 0.67401 0.81946 1.10475
 H257 H 0.64073 0.80627 1.09354
 H258 H 0.68630 0.82109 1.10509
 H259 H 0.64961 0.82477 1.14122
 H260 H 0.64696 0.84406 1.13104
 N261 N 0.13289 0.32615 1.17292
 N262 N 0.13572 0.33747 1.18314
 C263 C 0.12650 0.33557 1.19569
 C264 C 0.11734 0.32229 1.19330
 C265 C 0.12176 0.31660 1.17868
 H266 H 0.12639 0.34341 1.20572
 H267 H 0.11731 0.30626 1.17268
 Cu268 Cu 0.15134 0.35361 1.17926
 Cu269 Cu 0.14410 0.32489 1.15300
 Cu270 Cu 0.15718 0.36190 1.14146
 N271 N 0.16428 0.37139 1.17289
 N272 N 0.16627 0.37471 1.15798
 C273 C 0.17544 0.38749 1.15659
 C274 C 0.17967 0.39245 1.17147
 C275 C 0.17225 0.38194 1.18156
 H276 H 0.17887 0.39257 1.14548
 H277 H 0.17276 0.38179 1.19421
 N278 N 0.15432 0.34412 1.12680
 N279 N 0.15031 0.32971 1.13124
 C280 C 0.15201 0.31977 1.11897
 C281 C 0.15735 0.32840 1.10619
 C282 C 0.15857 0.34379 1.11164
 H283 H 0.15006 0.30712 1.11950
 H284 H 0.16348 0.35380 1.10545
 H285 H 0.16128 0.34249 1.15486
 H286 H 0.14079 0.34818 1.15329
 N287 N 0.13893 0.83466 0.67171
 N288 N 0.13761 0.84445 0.68362
 C289 C 0.12349 0.84316 0.68978
 C290 C 0.11551 0.83176 0.68146
 C291 C 0.12569 0.82646 0.67011
 H292 H 0.11949 0.84965 0.69993
 H293 H 0.12363 0.81743 0.66135
 Cu294 Cu 0.15462 0.85718 0.69089
 Cu295 Cu 0.15792 0.83360 0.65956
 Cu296 Cu 0.18293 0.86548 0.66551
 N297 N 0.16853 0.87467 0.69440
 N298 N 0.17948 0.87818 0.68434
 C299 C 0.18739 0.89082 0.68973
 C300 C 0.18100 0.89545 0.70396
 C301 C 0.16901 0.88488 0.70647
 H302 H 0.19724 0.89600 0.68387
 H303 H 0.16113 0.88458 0.71629
 N304 N 0.18445 0.85097 0.64742
 N305 N 0.17519 0.83870 0.64533
 C306 C 0.17964 0.83078 0.63238
 C307 C 0.19240 0.83836 0.62604
 C308 C 0.19506 0.85112 0.63590
 H309 H 0.17415 0.82011 0.62810
 H310 H 0.20417 0.85981 0.63490
 H311 H 0.17398 0.84472 0.67399
 H312 H 0.16045 0.85740 0.66307
 N313 N 0.35215 0.67965 0.66771
 N314 N 0.35690 0.66784 0.67632
 C315 C 0.37042 0.67190 0.68280
 C316 C 0.37434 0.68710 0.67794
 C317 C 0.36235 0.69162 0.66846
 H318 H 0.37700 0.66423 0.69022
 H319 H 0.36112 0.70270 0.66233
 Cu320 Cu 0.34483 0.64833 0.67795
 Cu321 Cu 0.33346 0.67839 0.65548
 Cu322 Cu 0.32402 0.63976 0.64609
 N323 N 0.33357 0.62836 0.67617
 N324 N 0.32587 0.62501 0.66338
 C325 C 0.31948 0.61056 0.66472
 C326 C 0.32316 0.60449 0.67924
 C327 C 0.33212 0.61615 0.68625
 H328 H 0.31223 0.60515 0.65594
 H329 H 0.33723 0.61576 0.69775
 N330 N 0.31708 0.65800 0.63389
 N331 N 0.32011 0.67278 0.63789
 C332 C 0.31319 0.68252 0.62779
 C333 C 0.30532 0.67341 0.61690
 C334 C 0.30807 0.65791 0.62118
 H335 H 0.31386 0.69528 0.62841
 H336 H 0.30379 0.64729 0.61556
 H337 H 0.32295 0.65694 0.66258
 H338 H 0.34105 0.65654 0.65083
 N339 N 0.35958 0.18397 1.17503
 N340 N 0.36030 0.17453 1.18723
 C341 C 0.37338 0.17749 1.19499
 C342 C 0.38137 0.18937 1.18717
 C343 C 0.37228 0.19312 1.17450
 H344 H 0.37688 0.17137 1.20545
 H345 H 0.37451 0.20210 1.16574
 Cu346 Cu 0.34420 0.15904 1.19161
 Cu347 Cu 0.34209 0.18388 1.16085
 Cu348 Cu 0.30993 0.16521 1.17607
 N349 N 0.32811 0.14288 1.19275
 N350 N 0.31471 0.14549 1.18642
 C351 C 0.30585 0.13250 1.18784
 C352 C 0.31408 0.12109 1.19549
 C353 C 0.32817 0.12806 1.19860
 H354 H 0.29437 0.13131 1.18329
 H355 H 0.33790 0.12255 1.20402
 N356 N 0.30904 0.18062 1.15910
 N357 N 0.32127 0.18715 1.15255
 C358 C 0.31680 0.19600 1.14029
 C359 C 0.30095 0.19491 1.13915
 C360 C 0.29652 0.18504 1.15132
 H361 H 0.32450 0.20268 1.13278
 H362 H 0.28511 0.18074 1.15398
 H363 H 0.32911 0.18016 1.18007
 H364 H 0.33110 0.16272 1.16675
 N365 N 0.86375 0.68525 1.16536
 N366 N 0.86274 0.67360 1.17550
 C367 C 0.87544 0.67370 1.18442
 C368 C 0.88498 0.68589 1.17928
 C369 C 0.87714 0.69294 1.16720
 H370 H 0.87776 0.66526 1.19358
 H371 H 0.88088 0.70298 1.16027
 Cu372 Cu 0.84518 0.65900 1.17552
 Cu373 Cu 0.84766 0.68950 1.15055
 Cu374 Cu 0.82385 0.65984 1.14120
 N375 N 0.83040 0.64212 1.16958
 N376 N 0.82283 0.64226 1.15624
 C377 C 0.81430 0.62898 1.15513
 C378 C 0.81651 0.62001 1.16839
 C379 C 0.82674 0.62872 1.17738
 H380 H 0.80677 0.62616 1.14550
 H381 H 0.83141 0.62540 1.18859
 N382 N 0.82634 0.67839 1.12794
 N383 N 0.83566 0.69010 1.13161
 C384 C 0.83534 0.70111 1.12027
 C385 C 0.82515 0.69605 1.10889
 C386 C 0.81962 0.68160 1.11420
 H387 H 0.84203 0.71195 1.12032
 H388 H 0.81155 0.67384 1.10835
 H389 H 0.82905 0.67068 1.16206
 H390 H 0.84527 0.66095 1.15174
 N391 N 0.85889 0.18799 0.66130
 N392 N 0.86323 0.17741 0.67155
 C393 C 0.87683 0.18190 0.67752
 C394 C 0.88124 0.19612 0.67063
 C395 C 0.86950 0.19960 0.66042
 H396 H 0.88297 0.17535 0.68628
 H397 H 0.86852 0.20992 0.65306
 Cu398 Cu 0.85013 0.15932 0.67661
 Cu399 Cu 0.83956 0.18617 0.65023
 Cu400 Cu 0.82483 0.14792 0.64940
 N401 N 0.83749 0.14043 0.67942
 N402 N 0.82743 0.13618 0.66878
 C403 C 0.82016 0.12290 0.67348
 C404 C 0.82593 0.11856 0.68789
 C405 C 0.83697 0.12996 0.69128
 H406 H 0.81141 0.11681 0.66679
 H407 H 0.84392 0.13071 0.70169
 N408 N 0.81910 0.16427 0.63424
 N409 N 0.82430 0.17896 0.63490
 C410 C 0.81831 0.18725 0.62303
 C411 C 0.80883 0.17729 0.61443
 C412 C 0.80960 0.16281 0.62197
 H413 H 0.82112 0.19948 0.62058
 H414 H 0.80373 0.15196 0.61879
 H415 H 0.82767 0.16793 0.66211
 H416 H 0.84411 0.16287 0.64901
 N417 N 0.32641 0.35591 0.67195
 N418 N 0.33472 0.35601 0.68472
 C419 C 0.33076 0.36843 0.69373
 C420 C 0.31937 0.37661 0.68614
 C421 C 0.31690 0.36830 0.67235
 H422 H 0.33605 0.37147 0.70477
 H423 H 0.30868 0.37094 0.66335
 Cu424 Cu 0.35041 0.34042 0.68796
 Cu425 Cu 0.32817 0.33941 0.65607
 Cu426 Cu 0.35527 0.31046 0.66269
 N427 N 0.36934 0.32870 0.68711
 N428 N 0.37101 0.31654 0.67765
 C429 C 0.38480 0.31006 0.68008
 C430 C 0.39224 0.31888 0.69146
 C431 C 0.38210 0.33063 0.69564
 H432 H 0.38917 0.29991 0.67382
 H433 H 0.38376 0.33971 0.70445
 N434 N 0.34173 0.31038 0.64432
 N435 N 0.33165 0.32153 0.64165
 C436 C 0.32441 0.31826 0.62813
 C437 C 0.33026 0.30443 0.62192
 C438 C 0.34126 0.29979 0.63251
 H439 H 0.31557 0.32547 0.62312
 H440 H 0.34835 0.28942 0.63175
 H441 H 0.33586 0.32234 0.67078
 H442 H 0.35092 0.33403 0.66023
 N443 N 0.31819 0.86415 0.16029
 N444 N 0.32378 0.86183 0.17432
 C445 C 0.31944 0.87374 0.18385
 C446 C 0.31068 0.88413 0.17521
 C447 C 0.31013 0.87757 0.16033
 H448 H 0.32267 0.87489 0.19602
 H449 H 0.30407 0.88205 0.15032
 Cu450 Cu 0.33673 0.84381 0.17825
 Cu451 Cu 0.32095 0.84925 0.14316
 Cu452 Cu 0.34213 0.81568 0.15081
 N453 N 0.35429 0.82996 0.17870
 N454 N 0.35626 0.81862 0.16833
 C455 C 0.36945 0.81113 0.17145
 C456 C 0.37620 0.81848 0.18425
 C457 C 0.36623 0.83033 0.18854
 H458 H 0.37414 0.80164 0.16445
 H459 H 0.36765 0.83878 0.19798
 N460 N 0.33176 0.81928 0.13059
 N461 N 0.32471 0.83263 0.12752
 C462 C 0.31973 0.83227 0.11268
 C463 C 0.32365 0.81800 0.10602
 C464 C 0.33120 0.80992 0.11772
 H465 H 0.31326 0.84152 0.10717
 H466 H 0.33617 0.79829 0.11683
 H467 H 0.32340 0.82964 0.15694
 H468 H 0.34147 0.83967 0.15051
 N469 N 0.82977 0.36231 0.17795
 N470 N 0.83979 0.36196 0.18938
 C471 C 0.83830 0.37493 0.19834
 C472 C 0.82677 0.38413 0.19227
 C473 C 0.82155 0.37570 0.17929
 H474 H 0.84510 0.37740 0.20859
 H475 H 0.81263 0.37912 0.17131
 Cu476 Cu 0.85438 0.34502 0.19158
 Cu477 Cu 0.82896 0.34545 0.16200
 Cu478 Cu 0.84734 0.31122 0.17312
 N479 N 0.86967 0.32845 0.19079
 N480 N 0.86682 0.31520 0.18323
 C481 C 0.87922 0.30599 0.18362
 C482 C 0.89046 0.31385 0.19194
 C483 C 0.88403 0.32805 0.19647
 H484 H 0.88008 0.29450 0.17806
 H485 H 0.88957 0.33757 0.20286
 N486 N 0.83220 0.31171 0.15643
 N487 N 0.82597 0.32476 0.15111
 C488 C 0.81866 0.32126 0.13757
 C489 C 0.82063 0.30526 0.13430
 C490 C 0.82900 0.29967 0.14673
 H491 H 0.81315 0.32984 0.13019
 H492 H 0.83342 0.28789 0.14817
 H493 H 0.83318 0.33038 0.17947
 H494 H 0.84953 0.33399 0.16570
 N495 N 0.82083 0.86240 0.67310
 N496 N 0.83124 0.85993 0.68380
 C497 C 0.83151 0.87214 0.69391
 C498 C 0.82057 0.88288 0.68939
 C499 C 0.81393 0.87625 0.67614
 H500 H 0.83902 0.87300 0.70390
 H501 H 0.80491 0.88117 0.66912
 Cu502 Cu 0.84348 0.84108 0.68347
 Cu503 Cu 0.81718 0.84715 0.65629
 Cu504 Cu 0.84593 0.81934 0.65058
 N505 N 0.86028 0.82694 0.67987
 N506 N 0.86138 0.81826 0.66710
 C507 C 0.87485 0.81060 0.66730
 C508 C 0.88259 0.81503 0.68078
 C509 C 0.87295 0.82534 0.68846
 H510 H 0.87909 0.80315 0.65793
 H511 H 0.87523 0.83168 0.69925
 N512 N 0.82908 0.82259 0.63551
 N513 N 0.81846 0.83341 0.63763
 C514 C 0.80916 0.83344 0.62516
 C515 C 0.81400 0.82202 0.61469
 C516 C 0.82661 0.81528 0.62165
 H517 H 0.79952 0.84119 0.62379
 H518 H 0.83367 0.80604 0.61678
 H519 H 0.82795 0.82670 0.66412
 H520 H 0.84018 0.84258 0.65535
 N521 N 0.67530 0.63212 0.66506
 N522 N 0.66389 0.63181 0.67518
 C523 C 0.66440 0.61845 0.68360
 C524 C 0.67685 0.60984 0.67861
 C525 C 0.68365 0.61891 0.66688
 H526 H 0.65618 0.61517 0.69259
 H527 H 0.69353 0.61587 0.65984
 Cu528 Cu 0.64877 0.64821 0.67603
 Cu529 Cu 0.67745 0.64919 0.64966
 Cu530 Cu 0.65016 0.67905 0.65207
 N531 N 0.63082 0.66084 0.67247
 N532 N 0.63152 0.67345 0.66353
 C533 C 0.61792 0.68077 0.66402
 C534 C 0.60811 0.67202 0.67354
 C535 C 0.61669 0.65944 0.67868
 H536 H 0.61535 0.69156 0.65784
 H537 H 0.61309 0.65026 0.68676
 N538 N 0.66689 0.67886 0.63648
 N539 N 0.67730 0.66768 0.63542
 C540 C 0.68616 0.67050 0.62267
 C541 C 0.68084 0.68390 0.61529
 C542 C 0.66869 0.68888 0.62439
 H543 H 0.69517 0.66287 0.61849
 H544 H 0.66127 0.69872 0.62202
 H545 H 0.66731 0.66608 0.66300
 H546 H 0.65448 0.65535 0.64917
 N547 N 0.67184 0.13479 0.17403
 N548 N 0.66159 0.13695 0.18517
 C549 C 0.66207 0.12480 0.19531
 C550 C 0.67330 0.11446 0.19036
 C551 C 0.67934 0.12125 0.17684
 H552 H 0.65464 0.12350 0.20543
 H553 H 0.68808 0.11636 0.16927
 Cu554 Cu 0.64790 0.15490 0.18517
 Cu555 Cu 0.67373 0.14903 0.15604
 Cu556 Cu 0.64733 0.17931 0.15451
 N557 N 0.63073 0.16891 0.18179
 N558 N 0.63046 0.17808 0.16940
 C559 C 0.61756 0.18655 0.16962
 C560 C 0.60922 0.18256 0.18291
 C561 C 0.61797 0.17133 0.19043
 H562 H 0.61467 0.19529 0.16093
 H563 H 0.61523 0.16532 0.20129
 N564 N 0.66300 0.17597 0.13828
 N565 N 0.67343 0.16482 0.13890
 C566 C 0.68241 0.16587 0.12597
 C567 C 0.67712 0.17808 0.11673
 C568 C 0.66485 0.18417 0.12492
 H569 H 0.69177 0.15807 0.12320
 H570 H 0.65777 0.19391 0.12137
 H571 H 0.66515 0.16862 0.16667
 H572 H 0.65096 0.15536 0.15683
 N573 N 0.18209 0.64292 0.16252
 N574 N 0.17215 0.64074 0.17400
 C575 C 0.17598 0.62760 0.18198
 C576 C 0.18889 0.62120 0.17499
 C577 C 0.19244 0.63131 0.16275
 H578 H 0.16954 0.62270 0.19174
 H579 H 0.20178 0.63021 0.15446
 Cu580 Cu 0.15455 0.65467 0.17642
 Cu581 Cu 0.18073 0.66002 0.14737
 Cu582 Cu 0.15001 0.68493 0.15144
 N583 N 0.13714 0.66897 0.17834
 N584 N 0.13570 0.68068 0.16836
 C585 C 0.12242 0.68800 0.17103
 C586 C 0.11495 0.68058 0.18329
 C587 C 0.12466 0.66858 0.18784
 H588 H 0.11824 0.69778 0.16422
 H589 H 0.12242 0.65978 0.19678
 N590 N 0.16555 0.68753 0.13495
 N591 N 0.17731 0.67805 0.13325
 C592 C 0.18530 0.68241 0.12033
 C593 C 0.17808 0.69517 0.11354
 C594 C 0.16566 0.69810 0.12320
 H595 H 0.19527 0.67639 0.11584
 H596 H 0.15717 0.70712 0.12164
 H597 H 0.16890 0.67488 0.16198
 H598 H 0.15733 0.66176 0.14881
 N599 N 0.17451 0.13946 0.68502
 N600 N 0.16425 0.14303 0.69572
 C601 C 0.16553 0.13318 0.70796
 C602 C 0.17735 0.12278 0.70488
 C603 C 0.18277 0.12716 0.69013
 H604 H 0.15838 0.13368 0.71832
 H605 H 0.19219 0.12202 0.68369
 Cu606 Cu 0.15022 0.16023 0.69275
 Cu607 Cu 0.17673 0.15175 0.66573
 Cu608 Cu 0.15247 0.18400 0.66153
 N609 N 0.13306 0.17294 0.68650
 N610 N 0.13406 0.18296 0.67477
 C611 C 0.12078 0.19092 0.67380
 C612 C 0.11092 0.18517 0.68532
 C613 C 0.11909 0.17378 0.69309
 H614 H 0.11835 0.19985 0.66515
 H615 H 0.11524 0.16680 0.70300
 N616 N 0.16856 0.17852 0.64602
 N617 N 0.17723 0.16589 0.64732
 C618 C 0.18648 0.16497 0.63467
 C619 C 0.18358 0.17761 0.62492
 C620 C 0.17217 0.18600 0.63251
 H621 H 0.19494 0.15593 0.63282
 H622 H 0.16669 0.19657 0.62835
 H623 H 0.16900 0.17262 0.67480
 H624 H 0.15441 0.16017 0.66465
 N625 N 0.31235 0.64838 0.33064
 N626 N 0.32479 0.64614 0.32223
 C627 C 0.32381 0.63176 0.31532
 C628 C 0.31010 0.62463 0.32001
 C629 C 0.30316 0.63563 0.32959
 H630 H 0.33258 0.62670 0.30789
 H631 H 0.29228 0.63445 0.33563
 Cu632 Cu 0.34107 0.66236 0.32176
 Cu633 Cu 0.30952 0.66688 0.34349
 Cu634 Cu 0.34024 0.68808 0.35385
 N635 N 0.35820 0.67695 0.32703
 N636 N 0.35798 0.68633 0.33946
 C637 C 0.37113 0.69475 0.33988
 C638 C 0.38005 0.69061 0.32710
 C639 C 0.37148 0.67930 0.31916
 H640 H 0.37380 0.70369 0.34856
 H641 H 0.37467 0.67325 0.30846
 N642 N 0.32139 0.68809 0.36638
 N643 N 0.30926 0.67994 0.36199
 C644 C 0.29833 0.68093 0.37306
 C645 C 0.30382 0.69027 0.38512
 C646 C 0.31847 0.69479 0.38045
 H647 H 0.28742 0.67478 0.37262
 H648 H 0.32663 0.70171 0.38713
 H649 H 0.33107 0.68205 0.33237
 H650 H 0.33710 0.66539 0.34505
 N651 N 0.33285 0.14804 0.84687
 N652 N 0.34238 0.15252 0.83568
 C653 C 0.34192 0.14189 0.82393
 C654 C 0.33148 0.13011 0.82788
 C655 C 0.32587 0.13445 0.84250
 H656 H 0.34880 0.14263 0.81337
 H657 H 0.31773 0.12792 0.84966
 Cu658 Cu 0.35510 0.17133 0.83761
 Cu659 Cu 0.33112 0.15962 0.86667
 Cu660 Cu 0.35528 0.19227 0.87081
 N661 N 0.37169 0.18602 0.84234
 N662 N 0.37170 0.19408 0.85551
 C663 C 0.38417 0.20350 0.85596
 C664 C 0.39256 0.20120 0.84232
 C665 C 0.38425 0.19001 0.83391
 H666 H 0.38676 0.21156 0.86546
 H667 H 0.38711 0.18505 0.82258
 N668 N 0.34100 0.18517 0.88724
 N669 N 0.33141 0.17309 0.88570
 C670 C 0.32315 0.17161 0.89908
 C671 C 0.32813 0.18309 0.90954
 C672 C 0.33941 0.19143 0.90163
 H673 H 0.31444 0.16267 0.90122
 H674 H 0.34588 0.20146 0.90603
 H675 H 0.33771 0.18106 0.85819
 H676 H 0.35330 0.16845 0.86588
 N677 N 0.82071 0.64012 0.81769
 N678 N 0.82733 0.64319 0.80414
 C679 C 0.82433 0.63144 0.79401
 C680 C 0.81554 0.62010 0.80156
 C681 C 0.81319 0.62608 0.81658
 H682 H 0.82927 0.63064 0.78238
 H683 H 0.80750 0.62013 0.82624
 Cu684 Cu 0.84262 0.65957 0.80166
 Cu685 Cu 0.82416 0.65402 0.83589
 Cu686 Cu 0.85461 0.68075 0.83209
 N687 N 0.86269 0.66926 0.80168
 N688 N 0.86776 0.67724 0.81384
 C689 C 0.88235 0.68184 0.81101
 C690 C 0.88664 0.67614 0.79635
 C691 C 0.87380 0.66831 0.79079
 H692 H 0.88937 0.68851 0.81913
 H693 H 0.87257 0.66219 0.77971
 N694 N 0.84173 0.67926 0.85109
 N695 N 0.82990 0.66947 0.85251
 C696 C 0.82279 0.67239 0.86631
 C697 C 0.83067 0.68445 0.87393
 C698 C 0.84261 0.68844 0.86394
 H699 H 0.81255 0.66635 0.87040
 H700 H 0.85093 0.69784 0.86561
 H701 H 0.83271 0.67373 0.82450
 H702 H 0.84666 0.65805 0.82960
 N703 N 0.82635 0.11802 0.33162
 N704 N 0.83146 0.12085 0.31737
 C705 C 0.82710 0.10888 0.30785
 C706 C 0.81887 0.09793 0.31672
 C707 C 0.81864 0.10419 0.33172
 H708 H 0.82985 0.10814 0.29549
 H709 H 0.81285 0.09930 0.34189
 Cu710 Cu 0.84372 0.13965 0.31308
 Cu711 Cu 0.82871 0.13305 0.34870
 Cu712 Cu 0.84949 0.16738 0.34092
 N713 N 0.86099 0.15430 0.31215
 N714 N 0.86324 0.16528 0.32286
 C715 C 0.87621 0.17337 0.31936
 C716 C 0.88254 0.16690 0.30585
 C717 C 0.87250 0.15486 0.30161
 H718 H 0.88098 0.18280 0.32646
 H719 H 0.87354 0.14693 0.29170
 N720 N 0.83911 0.16338 0.36124
 N721 N 0.83200 0.14986 0.36429
 C722 C 0.82614 0.15041 0.37887
 C723 C 0.82961 0.16495 0.38543
 C724 C 0.83785 0.17296 0.37388
 H725 H 0.81909 0.14120 0.38405
 H726 H 0.84242 0.18488 0.37455
 H727 H 0.83075 0.15297 0.33511
 H728 H 0.84900 0.14339 0.34075
 N729 N 0.68582 0.36101 0.32120
 N730 N 0.67219 0.36522 0.31645
 C731 C 0.67283 0.38046 0.31181
 C732 C 0.68765 0.38603 0.31406
 C733 C 0.69556 0.37334 0.31991
 H734 H 0.66323 0.38710 0.30753
 H735 H 0.70750 0.37310 0.32313
 Cu736 Cu 0.65521 0.35006 0.31725
 Cu737 Cu 0.68980 0.34003 0.32917
 Cu738 Cu 0.65761 0.32082 0.34383
 N739 N 0.63852 0.33504 0.32057
 N740 N 0.63957 0.32323 0.33052
 C741 C 0.62648 0.31462 0.33016
 C742 C 0.61672 0.32153 0.31950
 C743 C 0.62475 0.33444 0.31367
 H744 H 0.62412 0.30433 0.33733
 H745 H 0.62091 0.34267 0.30490
 N746 N 0.67857 0.31665 0.35144
 N747 N 0.69074 0.32319 0.34477
 C748 C 0.70329 0.31913 0.35267
 C749 C 0.69898 0.30980 0.36528
 C750 C 0.68315 0.30828 0.36400
 H751 H 0.71456 0.32380 0.35000
 H752 H 0.67546 0.30235 0.37211
 H753 H 0.66972 0.32666 0.32471
 H754 H 0.66925 0.34216 0.34034
 N755 N 0.66941 0.86272 0.81598
 N756 N 0.66053 0.85781 0.80457
 C757 C 0.66000 0.86907 0.79346
 C758 C 0.66911 0.88177 0.79813
 C759 C 0.67485 0.87725 0.81254
 H760 H 0.65371 0.86787 0.78266
 H761 H 0.68280 0.88378 0.81981
 Cu762 Cu 0.65087 0.83703 0.80503
 Cu763 Cu 0.67457 0.84936 0.83368
 Cu764 Cu 0.65878 0.81156 0.83383
 N765 N 0.63755 0.81901 0.80961
 N766 N 0.64068 0.80914 0.82098
 C767 C 0.62972 0.79787 0.82171
 C768 C 0.61905 0.80084 0.81020
 C769 C 0.62443 0.81435 0.80270
 H770 H 0.62961 0.78822 0.83001
 H771 H 0.61910 0.82052 0.79313
 N772 N 0.67306 0.81918 0.84989
 N773 N 0.67856 0.83377 0.85026
 C774 C 0.68746 0.83548 0.86298
 C775 C 0.68757 0.82126 0.87100
 C776 C 0.67830 0.81120 0.86233
 H777 H 0.69364 0.84618 0.86603
 H778 H 0.67532 0.79906 0.86503
 H779 H 0.67202 0.82860 0.82185
 H780 H 0.65491 0.83539 0.83310
 N781 N 0.17466 0.35772 0.83816
 N782 N 0.16381 0.35818 0.82756
 C783 C 0.16540 0.37153 0.81915
 C784 C 0.17797 0.37987 0.82467
 C785 C 0.18363 0.37073 0.83672
 H786 H 0.15801 0.37493 0.80966
 H787 H 0.19328 0.37353 0.84415
 Cu788 Cu 0.14844 0.34148 0.82578
 Cu789 Cu 0.17550 0.34079 0.85368
 Cu790 Cu 0.15424 0.30733 0.84408
 N791 N 0.13262 0.32505 0.82645
 N792 N 0.13494 0.31180 0.83403
 C793 C 0.12249 0.30242 0.83285
 C794 C 0.11175 0.31016 0.82400
 C795 C 0.11857 0.32449 0.82001
 H796 H 0.12145 0.29070 0.83784
 H797 H 0.11362 0.33381 0.81310
 N798 N 0.17038 0.30738 0.85986
 N799 N 0.17805 0.32017 0.86421
 C800 C 0.18725 0.31638 0.87624
 C801 C 0.18525 0.30041 0.87949
 C802 C 0.17447 0.29516 0.86885
 H803 H 0.19482 0.32461 0.88217
 H804 H 0.16942 0.28345 0.86812
 H805 H 0.16913 0.32571 0.83662
 H806 H 0.15390 0.33022 0.85138
 N807 N 0.16689 0.86284 0.33173
 N808 N 0.15311 0.86343 0.32573
 C809 C 0.15260 0.87561 0.31558
 C810 C 0.16692 0.88293 0.31518
 C811 C 0.17567 0.87439 0.32553
 H812 H 0.14258 0.87891 0.30905
 H813 H 0.18740 0.87673 0.32885
 Cu814 Cu 0.13744 0.84803 0.33190
 Cu815 Cu 0.17239 0.84768 0.34770
 Cu816 Cu 0.14184 0.82876 0.36589
 N817 N 0.12452 0.82988 0.33740
 N818 N 0.12621 0.82248 0.35079
 C819 C 0.11607 0.81042 0.35164
 C820 C 0.10758 0.81011 0.33796
 C821 C 0.11326 0.82273 0.32921
 H822 H 0.11513 0.80240 0.36145
 H823 H 0.10976 0.82624 0.31762
 N824 N 0.16212 0.83087 0.37562
 N825 N 0.17385 0.83758 0.36833
 C826 C 0.18611 0.83734 0.37773
 C827 C 0.18196 0.83007 0.39167
 C828 C 0.16664 0.82603 0.38987
 H829 H 0.19720 0.84227 0.37464
 H830 H 0.15925 0.82019 0.39834
 H831 H 0.15463 0.83098 0.34649
 H832 H 0.15095 0.85009 0.35680
 C833 C 0.25810 1.04669 0.25523
 C834 C 0.24813 1.04622 0.26774
 C835 C 0.24605 1.03041 0.27153
 N836 N 0.25475 1.02127 0.26211
 C837 C 0.26206 1.03117 0.25206
 C838 C 0.23664 1.02471 0.28385
 C839 C 0.23207 1.00868 0.28545
 C840 C 0.22412 1.00255 0.29824
 C841 C 0.22048 0.98708 0.29464
 C842 C 0.22638 0.98416 0.27979
 N843 N 0.23335 0.99740 0.27425
 C844 C 0.22442 0.96984 0.27141
 C845 C 0.23353 0.96561 0.25833
 C846 C 0.23124 0.95227 0.24911
 C847 C 0.24282 0.95222 0.23814
 C848 C 0.25173 0.96558 0.24098
 N849 N 0.24613 0.97364 0.25342
 C850 C 0.26492 0.97000 0.23230
 C851 C 0.27221 0.98496 0.23370
 C852 C 0.28630 0.98889 0.22705
 C853 C 0.28838 1.00490 0.22917
 C854 C 0.27562 1.01025 0.23723
 N855 N 0.26585 0.99805 0.23998
 C856 C 0.27255 1.02631 0.24036
 H857 H 0.26199 1.05728 0.24925
 H858 H 0.24284 1.05635 0.27324
 H859 H 0.25458 0.99910 0.24371
 H860 H 0.22094 1.00867 0.30892
 H861 H 0.21409 0.97895 0.30205
 H862 H 0.22217 0.94349 0.25014
 H863 H 0.24438 0.94345 0.22901
 H864 H 0.29804 1.01188 0.22499
 H865 H 0.23701 0.99914 0.26278
 H866 H 0.29404 0.98112 0.22085
 C867 C 0.24557 0.44633 0.76498
 C868 C 0.25665 0.44549 0.75351
 C869 C 0.26490 0.45957 0.75420
 N870 N 0.25941 0.46886 0.76582
 C871 C 0.24745 0.46090 0.77228
 C872 C 0.27729 0.46369 0.74426
 C873 C 0.28395 0.47898 0.74396
 C874 C 0.29795 0.48269 0.73707
 C875 C 0.29910 0.49893 0.73680
 C876 C 0.28572 0.50466 0.74345
 N877 N 0.27667 0.49241 0.74799
 C878 C 0.28110 0.52062 0.74288
 C879 C 0.26914 0.52652 0.75240
 C880 C 0.26224 0.54107 0.75060
 C881 C 0.25103 0.54196 0.76193
 C882 C 0.25143 0.52790 0.77024
 N883 N 0.26265 0.51858 0.76454
 C884 C 0.24149 0.52378 0.78276
 C885 C 0.24045 0.50833 0.78900
 C886 C 0.23310 0.50443 0.80295
 C887 C 0.23213 0.48818 0.80346
 C888 C 0.23887 0.48261 0.78979
 N889 N 0.24408 0.49497 0.78115
 C890 C 0.23820 0.46671 0.78462
 H891 H 0.23694 0.43736 0.76743
 H892 H 0.25827 0.43574 0.74544
 H893 H 0.24744 0.49444 0.76946
 H894 H 0.30616 0.47454 0.73214
 H895 H 0.30837 0.50576 0.73159
 H896 H 0.26473 0.54998 0.74184
 H897 H 0.24324 0.55169 0.76358
 H898 H 0.22650 0.48127 0.81253
 H899 H 0.26516 0.49316 0.75098
 H900 H 0.22835 0.51250 0.81153
 C901 C 0.74082 -0.05835 0.22353
 C902 C 0.75314 -0.05965 0.23332
 C903 C 0.75721 -0.04440 0.23774
 N904 N 0.74783 -0.03386 0.23096
 C905 C 0.73770 -0.04234 0.22236
 C906 C 0.77002 -0.04042 0.24702
 C907 C 0.77363 -0.02482 0.25190
 C908 C 0.78748 -0.02022 0.25843
 C909 C 0.78622 -0.00451 0.26235
 C910 C 0.77163 0.00008 0.25816
 N911 N 0.76401 -0.01239 0.25184
 C912 C 0.76544 0.01517 0.26125
 C913 C 0.75198 0.02081 0.25419
 C914 C 0.74486 0.03487 0.25810
 C915 C 0.73260 0.03623 0.24826
 C916 C 0.73257 0.02292 0.23874
 N917 N 0.74451 0.01359 0.24228
 C918 C 0.72193 0.01992 0.22666
 C919 C 0.72085 0.00542 0.21838
 C920 C 0.71235 0.00312 0.20490
 C921 C 0.71359 -0.01260 0.20093
 C922 C 0.72283 -0.01952 0.21209
 N923 N 0.72705 -0.00847 0.22278
 C924 C 0.72648 -0.03582 0.21249
 H925 H 0.73502 -0.06810 0.21776
 H926 H 0.75864 -0.07056 0.23657
 H927 H 0.73245 -0.01060 0.23333
 H928 H 0.79743 -0.02745 0.26032
 H929 H 0.79502 0.00269 0.26783
 H930 H 0.74812 0.04327 0.26710
 H931 H 0.72459 0.04590 0.24818
 H932 H 0.70815 -0.01827 0.19101
 H933 H 0.75239 -0.01286 0.24948
 H934 H 0.70583 0.01184 0.19862
 C935 C 0.73885 0.54329 0.74088
 C936 C 0.75049 0.54422 0.75156
 C937 C 0.75604 0.52903 0.75324
 N938 N 0.74851 0.51899 0.74357
 C939 C 0.73796 0.52764 0.73603
 C940 C 0.76849 0.52481 0.76277
 C941 C 0.77212 0.50897 0.76652
 C942 C 0.78510 0.50443 0.77456
 C943 C 0.78385 0.48839 0.77693
 C944 C 0.77019 0.48352 0.77021
 N945 N 0.76304 0.49613 0.76403
 C946 C 0.76424 0.46792 0.77088
 C947 C 0.75260 0.46219 0.76089
 C948 C 0.74556 0.44745 0.76208
 C949 C 0.73526 0.44642 0.75004
 C950 C 0.73630 0.46060 0.74197
 N951 N 0.74704 0.47013 0.74848
 C952 C 0.72754 0.46447 0.72871
 C953 C 0.72713 0.47979 0.72216
 C954 C 0.72053 0.48337 0.70788
 C955 C 0.72057 0.49959 0.70670
 C956 C 0.72721 0.50546 0.72027
 N957 N 0.73125 0.49331 0.72958
 C958 C 0.72800 0.52165 0.72439
 H959 H 0.73198 0.55309 0.73706
 H960 H 0.75430 0.55489 0.75744
 H961 H 0.73437 0.49428 0.74126
 H962 H 0.79437 0.51192 0.77867
 H963 H 0.79201 0.48115 0.78303
 H964 H 0.74758 0.43840 0.77075
 H965 H 0.72775 0.43645 0.74762
 H966 H 0.71589 0.50632 0.69712
 H967 H 0.75186 0.49620 0.76005
 H968 H 0.71575 0.47516 0.69942
 C969 C 0.25725 0.45526 0.23127
 C970 C 0.26791 0.45525 0.24301
 C971 C 0.26716 0.46993 0.25027
 N972 N 0.25635 0.47883 0.24343
 C973 C 0.25040 0.46996 0.23170
 C974 C 0.27607 0.47468 0.26325
 C975 C 0.27600 0.49015 0.26961
 C976 C 0.28195 0.49422 0.28410
 C977 C 0.28046 0.51032 0.28565
 C978 C 0.27367 0.51571 0.27203
 N979 N 0.27113 0.50332 0.26226
 C980 C 0.27095 0.53185 0.26863
 C981 C 0.26265 0.53709 0.25548
 C982 C 0.26153 0.55272 0.25074
 C983 C 0.25206 0.55280 0.23799
 C984 C 0.24738 0.53728 0.23557
 N985 N 0.25381 0.52773 0.24631
 C986 C 0.23685 0.53225 0.22403
 C987 C 0.23255 0.51625 0.22173
 C988 C 0.21983 0.51126 0.21337
 C989 C 0.22026 0.49503 0.21281
 C990 C 0.23329 0.49052 0.22077
 N991 N 0.24069 0.50354 0.22620
 C992 C 0.23865 0.47482 0.22157
 H993 H 0.25491 0.44560 0.22325
 H994 H 0.27537 0.44556 0.24584
 H995 H 0.25168 0.50386 0.23072
 H996 H 0.28695 0.48642 0.29265
 H997 H 0.28429 0.51724 0.29559
 H998 H 0.26693 0.56306 0.25586
 H999 H 0.24885 0.56317 0.23144
 H1000 H 0.21206 0.48741 0.20692
 H1001 H 0.26791 0.50398 0.25062
 H1002 H 0.21123 0.51859 0.20806
 C1003 C 0.75659 1.05116 0.74977
 C1004 C 0.74223 1.05111 0.75636
 C1005 C 0.73639 1.03587 0.75470
 N1006 N 0.74665 1.02671 0.74710
 C1007 C 0.75903 1.03599 0.74418
 C1008 C 0.72146 1.03099 0.75924
 C1009 C 0.71598 1.01519 0.75826
 C1010 C 0.70081 1.01057 0.76030
 C1011 C 0.70032 0.99434 0.75928
 C1012 C 0.71522 0.98942 0.75669
 N1013 N 0.72469 1.00220 0.75626
 C1014 C 0.71977 0.97343 0.75588
 C1015 C 0.73455 0.96856 0.75121
 C1016 C 0.73973 0.95313 0.75191
 C1017 C 0.75422 0.95324 0.74565
 C1018 C 0.75737 0.96868 0.74113
 N1019 N 0.74531 0.97800 0.74447
 C1020 C 0.77087 0.97372 0.73329
 C1021 C 0.77436 0.98974 0.73000
 C1022 C 0.78568 0.99479 0.71961
 C1023 C 0.78608 1.01102 0.72034
 C1024 C 0.77498 1.01547 0.73114
 N1025 N 0.76795 1.00242 0.73704
 C1026 C 0.77219 1.03125 0.73576
 H1027 H 0.76427 1.06128 0.74902
 H1028 H 0.73670 1.06124 0.76159
 H1029 H 0.76052 1.00211 0.74659
 H1030 H 0.69107 1.01805 0.76252
 H1031 H 0.69016 0.98700 0.76058
 H1032 H 0.73371 0.94281 0.75637
 H1033 H 0.76153 0.94305 0.74446
 H1034 H 0.79371 1.01868 0.71370
 H1035 H 0.73654 1.00196 0.75638
 H1036 H 0.79295 0.98752 0.71230
 C1037 C 0.73242 0.55178 0.23280
 C1038 C 0.74403 0.55101 0.22193
 C1039 C 0.75122 0.53666 0.22419
 N1040 N 0.74443 0.52870 0.23612
 C1041 C 0.73286 0.53786 0.24132
 C1042 C 0.76423 0.53154 0.21573
 C1043 C 0.77051 0.51624 0.21699
 C1044 C 0.78472 0.51203 0.21110
 C1045 C 0.78642 0.49620 0.21409
 C1046 C 0.77323 0.49111 0.22181
 N1047 N 0.76348 0.50338 0.22330
 C1048 C 0.77043 0.47534 0.22678
 C1049 C 0.75815 0.47082 0.23678
 C1050 C 0.75493 0.45542 0.24140
 C1051 C 0.74330 0.45622 0.25223
 C1052 C 0.73979 0.47209 0.25395
 N1053 N 0.74893 0.48097 0.24454
 C1054 C 0.72932 0.47811 0.26515
 C1055 C 0.72546 0.49426 0.26661
 C1056 C 0.71707 0.50058 0.27896
 C1057 C 0.71533 0.51640 0.27586
 C1058 C 0.72271 0.51936 0.26171
 N1059 N 0.72869 0.50577 0.25606
 C1060 C 0.72308 0.53419 0.25410
 H1061 H 0.72458 0.56149 0.23428
 H1062 H 0.74687 0.56001 0.21336
 H1063 H 0.73327 0.50412 0.24494
 H1064 H 0.79304 0.51958 0.20523
 H1065 H 0.79628 0.48926 0.21084
 H1066 H 0.76060 0.44472 0.23769
 H1067 H 0.73832 0.44625 0.25844
 H1068 H 0.70927 0.52476 0.28318
 H1069 H 0.75216 0.50274 0.22698
 H1070 H 0.71257 0.49442 0.28914
 C1071 C 0.25409 -0.03796 0.75724
 C1072 C 0.26827 -0.03781 0.76400
 C1073 C 0.27076 -0.02257 0.76954
 N1074 N 0.25859 -0.01343 0.76636
 C1075 C 0.24844 -0.02276 0.75870
 C1076 C 0.28378 -0.01758 0.77803
 C1077 C 0.28662 -0.00167 0.78243
 C1078 C 0.29747 0.00312 0.79329
 C1079 C 0.29728 0.01938 0.79366
 C1080 C 0.28634 0.02409 0.78300
 N1081 N 0.27995 0.01118 0.77615
 C1082 C 0.28318 0.04002 0.77929
 C1083 C 0.27026 0.04482 0.77073
 C1084 C 0.26762 0.06018 0.76586
 C1085 C 0.25357 0.06005 0.75882
 C1086 C 0.24811 0.04460 0.75950
 N1087 N 0.25828 0.03535 0.76690
 C1088 C 0.23351 0.03956 0.75434
 C1089 C 0.22859 0.02355 0.75407
 C1090 C 0.21363 0.01855 0.75159
 C1091 C 0.21368 0.00229 0.75153
 C1092 C 0.22868 -0.00224 0.75395
 N1093 N 0.23772 0.01079 0.75529
 C1094 C 0.23373 -0.01808 0.75393
 H1095 H 0.24856 -0.04815 0.75194
 H1096 H 0.27581 -0.04783 0.76484
 H1097 H 0.24958 0.01096 0.75532
 H1098 H 0.30480 -0.00433 0.80020
 H1099 H 0.30446 0.02688 0.80090
 H1100 H 0.27498 0.07045 0.76737
 H1101 H 0.24796 0.07023 0.75390
 H1102 H 0.20380 -0.00531 0.74970
 H1103 H 0.27282 0.01121 0.76648
 H1104 H 0.20368 0.02583 0.74984
 C1105 C 0.23195 0.27120 1.05305
 C1106 C 0.24287 0.26081 1.05791
 C1107 C 0.24546 0.25055 1.04551
 N1108 N 0.23644 0.25422 1.03328
 C1109 C 0.22810 0.26680 1.03789
 C1110 C 0.25495 0.23717 1.04609
 C1111 C 0.26007 0.22923 1.03244
 C1112 C 0.26714 0.21462 1.03216
 C1113 C 0.27123 0.21169 1.01681
 C1114 C 0.26638 0.22449 1.00814
 N1115 N 0.25967 0.23516 1.01774
 C1116 C 0.26890 0.22652 0.99189
 C1117 C 0.26047 0.23731 0.98287
 C1118 C 0.26371 0.24140 0.96745
 C1119 C 0.25199 0.25079 0.96259
 C1120 C 0.24211 0.25230 0.97527
 N1121 N 0.24728 0.24405 0.98764
 C1122 C 0.22789 0.25999 0.97485
 C1123 C 0.21969 0.26419 0.98855
 C1124 C 0.20461 0.26910 0.98894
 C1125 C 0.20130 0.27294 1.00429
 C1126 C 0.21445 0.27022 1.01283
 N1127 N 0.22561 0.26494 1.00314
 C1128 C 0.21623 0.27349 1.02898
 H1129 H 0.22729 0.28077 1.05997
 H1130 H 0.24824 0.26074 1.06931
 H1131 H 0.23706 0.26359 1.00604
 H1132 H 0.26926 0.20690 1.04199
 H1133 H 0.27709 0.20131 1.01252
 H1134 H 0.27340 0.23785 0.96034
 H1135 H 0.25080 0.25586 0.95103
 H1136 H 0.19047 0.27728 1.00865
 H1137 H 0.25651 0.24656 1.01467
 H1138 H 0.19682 0.26996 0.97918
 C1139 C 0.23867 0.76328 0.55606
 C1140 C 0.24509 0.74856 0.55548
 C1141 C 0.25012 0.74633 0.54020
 N1142 N 0.24690 0.75915 0.53143
 C1143 C 0.23976 0.76947 0.54105
 C1144 C 0.25833 0.73305 0.53482
 C1145 C 0.26278 0.73085 0.51901
 C1146 C 0.27376 0.72023 0.51397
 C1147 C 0.27420 0.72105 0.49789
 C1148 C 0.26345 0.73211 0.49354
 N1149 N 0.25650 0.73799 0.50648
 C1150 C 0.25968 0.73569 0.47788
 C1151 C 0.25079 0.74877 0.47350
 C1152 C 0.24559 0.75155 0.45846
 C1153 C 0.23810 0.76569 0.45897
 C1154 C 0.23889 0.77106 0.47433
 N1155 N 0.24679 0.76076 0.48314
 C1156 C 0.23330 0.78577 0.47966
 C1157 C 0.23356 0.79067 0.49553
 C1158 C 0.23096 0.80599 0.50066
 C1159 C 0.23160 0.80574 0.51676
 C1160 C 0.23448 0.79024 0.52107
 N1161 N 0.23548 0.78112 0.50805
 C1162 C 0.23512 0.78481 0.53674
 H1163 H 0.23383 0.76878 0.56641
 H1164 H 0.24611 0.74053 0.56527
 H1165 H 0.23577 0.76887 0.50777
 H1166 H 0.28071 0.71264 0.52113
 H1167 H 0.28152 0.71416 0.49025
 H1168 H 0.24712 0.74421 0.44816
 H1169 H 0.23284 0.77141 0.44907
 H1170 H 0.22987 0.81580 0.52441
 H1171 H 0.24680 0.74496 0.50668
 H1172 H 0.22872 0.81630 0.49358
 C1173 C 0.23748 0.75219 -0.05623
 C1174 C 0.25122 0.76018 -0.05719
 C1175 C 0.25765 0.75958 -0.04240
 N1176 N 0.24844 0.75131 -0.03254
 C1177 C 0.23607 0.74684 -0.04092
 C1178 C 0.27225 0.76559 -0.03849
 C1179 C 0.27784 0.76623 -0.02298
 C1180 C 0.29293 0.76945 -0.01899
 C1181 C 0.29338 0.77051 -0.00292
 C1182 C 0.27855 0.76798 0.00249
 N1183 N 0.26916 0.76534 -0.00980
 C1184 C 0.27378 0.76979 0.01827
 C1185 C 0.25973 0.76356 0.02399
 C1186 C 0.25349 0.76659 0.03868
 C1187 C 0.24015 0.75791 0.03968
 C1188 C 0.23860 0.75000 0.02551
 N1189 N 0.25063 0.75335 0.01600
 C1190 C 0.22643 0.73957 0.02174
 C1191 C 0.22351 0.73413 0.00634
 C1192 C 0.21348 0.72187 0.00259
 C1193 C 0.21266 0.72132 -0.01350
 C1194 C 0.22224 0.73322 -0.01915
 N1195 N 0.22881 0.74097 -0.00698
 C1196 C 0.22395 0.73724 -0.03515
 H1197 H 0.22953 0.75040 -0.06576
 H1198 H 0.25597 0.76568 -0.06761
 H1199 H 0.23495 0.75155 -0.00763
 H1200 H 0.30258 0.77125 -0.02683
 H1201 H 0.30341 0.77322 0.00400
 H1202 H 0.25797 0.77433 0.04771
 H1203 H 0.23238 0.75762 0.04961
 H1204 H 0.20567 0.71319 -0.02027
 H1205 H 0.25728 0.76518 -0.00932
 H1206 H 0.20719 0.71428 0.01063
 C1207 C 0.23322 0.25495 0.45982
 C1208 C 0.24490 0.26591 0.45957
 C1209 C 0.25122 0.26603 0.47444
 N1210 N 0.24370 0.25555 0.48372
 C1211 C 0.23267 0.24877 0.47486
 C1212 C 0.26380 0.27566 0.47901
 C1213 C 0.27068 0.27538 0.49402
 C1214 C 0.28416 0.28333 0.49774
 C1215 C 0.28734 0.27982 0.51309
 C1216 C 0.27572 0.26983 0.51843
 N1217 N 0.26550 0.26742 0.50680
 C1218 C 0.27509 0.26323 0.53372
 C1219 C 0.26416 0.25187 0.53897
 C1220 C 0.26425 0.24485 0.55366
 C1221 C 0.25229 0.23421 0.55401
 C1222 C 0.24521 0.23508 0.53956
 N1223 N 0.25247 0.24589 0.53044
 C1224 C 0.23216 0.22607 0.53521
 C1225 C 0.22511 0.22676 0.52031
 C1226 C 0.21112 0.21972 0.51685
 C1227 C 0.20820 0.22289 0.50139
 C1228 C 0.22044 0.23186 0.49575
 N1229 N 0.23081 0.23395 0.50731
 C1230 C 0.22165 0.23758 0.48018
 H1231 H 0.22582 0.25205 0.45007
 H1232 H 0.24833 0.27298 0.44955
 H1233 H 0.24170 0.23873 0.50599
 H1234 H 0.29114 0.29071 0.49011
 H1235 H 0.29721 0.28405 0.51952
 H1236 H 0.27221 0.24700 0.56311
 H1237 H 0.24922 0.22666 0.56380
 H1238 H 0.19810 0.21910 0.49507
 H1239 H 0.25514 0.26149 0.50781
 H1240 H 0.20369 0.21305 0.52468
 C1241 C 0.74573 0.75711 1.03543
 C1242 C 0.75953 0.74961 1.03632
 C1243 C 0.76337 0.74510 1.02117
 N1244 N 0.75246 0.74971 1.01109
 C1245 C 0.74178 0.75730 1.01971
 C1246 C 0.77639 0.73623 1.01697
 C1247 C 0.77982 0.73169 1.00142
 C1248 C 0.78953 0.71949 0.99731
 C1249 C 0.79045 0.71937 0.98121
 C1250 C 0.78148 0.73168 0.97593
 N1251 N 0.77502 0.73909 0.98836
 C1252 C 0.78057 0.73656 0.96010
 C1253 C 0.77012 0.74792 0.95475
 C1254 C 0.77090 0.75531 0.94028
 C1255 C 0.75882 0.76553 0.93974
 C1256 C 0.75094 0.76387 0.95383
 N1257 N 0.75780 0.75301 0.96291
 C1258 C 0.73739 0.77191 0.95788
 C1259 C 0.72990 0.77028 0.97253
 C1260 C 0.71486 0.77446 0.97548
 C1261 C 0.71222 0.77198 0.99119
 C1262 C 0.72577 0.76648 0.99747
 N1263 N 0.73649 0.76556 0.98598
 C1264 C 0.72825 0.76385 1.01365
 H1265 H 0.73943 0.76195 1.04526
 H1266 H 0.76586 0.74752 1.04696
 H1267 H 0.74810 0.76381 0.98747
 H1268 H 0.79535 0.71153 1.00513
 H1269 H 0.79725 0.71134 0.97421
 H1270 H 0.77944 0.75372 0.93116
 H1271 H 0.75614 0.77325 0.93007
 H1272 H 0.70162 0.77443 0.99733
 H1273 H 0.76938 0.74981 0.98815
 H1274 H 0.70668 0.77896 0.96718
 C1275 C 0.73700 0.25067 0.53526
 C1276 C 0.74664 0.23823 0.53776
 C1277 C 0.75604 0.23728 0.52465
 N1278 N 0.75259 0.24877 0.51431
 C1279 C 0.74087 0.25689 0.52072
 C1280 C 0.76794 0.22633 0.52258
 C1281 C 0.77607 0.22465 0.50833
 C1282 C 0.79003 0.21717 0.50676
 C1283 C 0.79317 0.21633 0.49096
 C1284 C 0.78095 0.22317 0.48333
 N1285 N 0.77066 0.22837 0.49403
 C1286 C 0.77874 0.22295 0.46692
 C1287 C 0.76822 0.23300 0.45950
 C1288 C 0.76399 0.23216 0.44388
 C1289 C 0.75437 0.24460 0.44134
 C1290 C 0.75284 0.25242 0.45555
 N1291 N 0.76139 0.24541 0.46659
 C1292 C 0.74457 0.26646 0.45787
 C1293 C 0.74105 0.27272 0.47283
 C1294 C 0.73535 0.28773 0.47556
 C1295 C 0.73239 0.28878 0.49140
 C1296 C 0.73637 0.27440 0.49790
 N1297 N 0.74160 0.26467 0.48649
 C1298 C 0.73395 0.27015 0.51376
 H1299 H 0.72809 0.25457 0.54321
 H1300 H 0.74668 0.23072 0.54801
 H1301 H 0.74365 0.25265 0.48765
 H1302 H 0.79705 0.21250 0.51602
 H1303 H 0.80310 0.21088 0.48567
 H1304 H 0.76744 0.22355 0.43519
 H1305 H 0.74908 0.24753 0.43031
 H1306 H 0.72764 0.29891 0.49742
 H1307 H 0.75958 0.23200 0.49171
 H1308 H 0.73330 0.29687 0.46700
 C1309 C 0.75814 0.24393 -0.04081
 C1310 C 0.76840 0.25617 -0.03870
 C1311 C 0.77308 0.25549 -0.02321
 N1312 N 0.76580 0.24344 -0.01575
 C1313 C 0.75659 0.23646 -0.02645
 C1314 C 0.78448 0.26524 -0.01633
 C1315 C 0.78779 0.26467 -0.00013
 C1316 C 0.80126 0.27015 0.00655
 C1317 C 0.79959 0.26845 0.02250
 C1318 C 0.78511 0.26203 0.02515
 N1319 N 0.77797 0.25984 0.01127
 C1320 C 0.77854 0.25941 0.04016
 C1321 C 0.76471 0.25096 0.04260
 C1322 C 0.75668 0.25031 0.05666
 C1323 C 0.74461 0.24002 0.05440
 C1324 C 0.74590 0.23444 0.03914
 N1325 N 0.75819 0.24115 0.03198
 C1326 C 0.73646 0.22259 0.03238
 C1327 C 0.73792 0.21773 0.01656
 C1328 C 0.73211 0.20366 0.01054
 C1329 C 0.73541 0.20364 -0.00526
 C1330 C 0.74298 0.21779 -0.00849
 N1331 N 0.74442 0.22632 0.00488
 C1332 C 0.74740 0.22291 -0.02365
 H1333 H 0.75233 0.24098 -0.05161
 H1334 H 0.77200 0.26451 -0.04763
 H1335 H 0.74804 0.23804 0.00568
 H1336 H 0.81123 0.27495 0.00055
 H1337 H 0.80801 0.27187 0.03116
 H1338 H 0.75924 0.25655 0.06743
 H1339 H 0.73606 0.23685 0.06311
 H1340 H 0.73234 0.19437 -0.01347
 H1341 H 0.76648 0.25699 0.00973
 H1342 H 0.72614 0.19437 0.01690
 C1343 C 0.73761 0.74767 0.44963
 C1344 C 0.74698 0.76082 0.44930
 C1345 C 0.75452 0.76129 0.46353
 N1346 N 0.75031 0.74873 0.47240
 C1347 C 0.73983 0.74048 0.46401
 C1348 C 0.76544 0.77290 0.46791
 C1349 C 0.77164 0.77413 0.48312
 C1350 C 0.78438 0.78321 0.48702
 C1351 C 0.78561 0.78271 0.50308
 C1352 C 0.77351 0.77345 0.50857
 N1353 N 0.76512 0.76820 0.49631
 C1354 C 0.76954 0.77157 0.52458
 C1355 C 0.75864 0.76030 0.52996
 C1356 C 0.75214 0.76014 0.54483
 C1357 C 0.74197 0.74765 0.54518
 C1358 C 0.74269 0.74052 0.53053
 N1359 N 0.75302 0.74816 0.52132
 C1360 C 0.73395 0.72717 0.52588
 C1361 C 0.73383 0.72135 0.51036
 C1362 C 0.72841 0.70652 0.50600
 C1363 C 0.72806 0.70629 0.48988
 C1364 C 0.73312 0.72106 0.48485
 N1365 N 0.73679 0.73008 0.49742
 C1366 C 0.73233 0.72651 0.46920
 H1367 H 0.72992 0.74399 0.44039
 H1368 H 0.74801 0.76915 0.43972
 H1369 H 0.73864 0.74223 0.49734
 H1370 H 0.79179 0.78983 0.47914
 H1371 H 0.79415 0.78889 0.50998
 H1372 H 0.75423 0.76837 0.55434
 H1373 H 0.73476 0.74434 0.55503
 H1374 H 0.72392 0.69659 0.48269
 H1375 H 0.75436 0.76293 0.49703
 H1376 H 0.72463 0.69705 0.51368
 C1377 C 1.05196 0.24437 0.24931
 C1378 C 1.05066 0.23027 0.25716
 C1379 C 1.03535 0.22845 0.26126
 N1380 N 1.02728 0.24093 0.25614
 C1381 C 1.03738 0.25060 0.24870
 C1382 C 1.02924 0.21582 0.27025
 C1383 C 1.01343 0.21375 0.27341
 C1384 C 1.00739 0.20378 0.28481
 C1385 C 0.99172 0.20434 0.28352
 C1386 C 0.98862 0.21462 0.27134
 N1387 N 1.00192 0.22029 0.26523
 C1388 C 0.97383 0.21749 0.26543
 C1389 C 0.97056 0.22985 0.25491
 C1390 C 0.95680 0.23154 0.24715
 C1391 C 0.95821 0.24495 0.23822
 C1392 C 0.97277 0.25106 0.24086
 N1393 N 0.98024 0.24189 0.25119
 C1394 C 0.97870 0.26512 0.23410
 C1395 C 0.99400 0.27039 0.23580
 C1396 C 0.99927 0.28548 0.23220
 C1397 C 1.01484 0.28557 0.23453
 C1398 C 1.01867 0.27048 0.23937
 N1399 N 1.00589 0.26130 0.24004
 C1400 C 1.03378 0.26535 0.24201
 H1401 H 1.06243 0.24944 0.24456
 H1402 H 1.05996 0.22234 0.25963
 H1403 H 1.00551 0.24913 0.24144
 H1404 H 1.01362 0.19671 0.29312
 H1405 H 0.98355 0.19774 0.29061
 H1406 H 0.94683 0.22384 0.24774
 H1407 H 0.94950 0.24962 0.23062
 H1408 H 1.02250 0.29555 0.23260
 H1409 H 1.00312 0.22657 0.25486
 H1410 H 0.99260 0.29537 0.22819
 C1411 C 0.46206 0.26442 0.77591
 C1412 C 0.46238 0.27305 0.76231
 C1413 C 0.47614 0.26973 0.75487
 N1414 N 0.48419 0.25934 0.76343
 C1415 C 0.47568 0.25621 0.77637
 C1416 C 0.48073 0.27572 0.74011
 C1417 C 0.49514 0.27276 0.73320
 C1418 C 0.49872 0.27511 0.71751
 C1419 C 0.51398 0.27164 0.71570
 C1420 C 0.51933 0.26743 0.73037
 N1421 N 0.50777 0.26822 0.74096
 C1422 C 0.53481 0.26432 0.73382
 C1423 C 0.53989 0.25883 0.74849
 C1424 C 0.55506 0.25846 0.75312
 C1425 C 0.55514 0.25194 0.76783
 C1426 C 0.54005 0.24825 0.77156
 N1427 N 0.53078 0.25242 0.75970
 C1428 C 0.53510 0.24032 0.78529
 C1429 C 0.51952 0.23734 0.78880
 C1430 C 0.51425 0.22605 0.79935
 C1431 C 0.49860 0.22742 0.80004
 C1432 C 0.49476 0.23960 0.79000
 N1433 N 0.50759 0.24558 0.78318
 C1434 C 0.47984 0.24565 0.78835
 H1435 H 0.45290 0.26430 0.78452
 H1436 H 0.45345 0.28081 0.75832
 H1437 H 0.50839 0.25593 0.77668
 H1438 H 0.49113 0.27901 0.70836
 H1439 H 0.52046 0.27250 0.70486
 H1440 H 0.56503 0.26254 0.74662
 H1441 H 0.56519 0.25000 0.77486
 H1442 H 0.49095 0.22038 0.80732
 H1443 H 0.50882 0.26762 0.75304
 H1444 H 0.52099 0.21773 0.80590
 C1445 C 0.04035 0.25349 0.75886
 C1446 C 0.04024 0.24349 0.74617
 C1447 C 0.02675 0.24622 0.73824
 N1448 N 0.01866 0.25764 0.74561
 C1449 C 0.02688 0.26196 0.75832
 C1450 C 0.02226 0.23842 0.72428
 C1451 C 0.00768 0.24009 0.71743
 C1452 C 0.00391 0.23496 0.70248
 C1453 C -0.01149 0.23752 0.70069
 C1454 C -0.01673 0.24418 0.71459
 N1455 N -0.00497 0.24563 0.72474
 C1456 C -0.03222 0.24771 0.71787
 C1457 C -0.03716 0.25678 0.73087
 C1458 C -0.05233 0.25986 0.73452
 C1459 C -0.05223 0.26986 0.74721
 C1460 C -0.03700 0.27255 0.75095
 N1461 N -0.02784 0.26466 0.74085
 C1462 C -0.03186 0.28305 0.76277
 C1463 C -0.01629 0.28502 0.76696
 C1464 C -0.01074 0.29687 0.77675
 C1465 C 0.00466 0.29428 0.77852
 C1466 C 0.00812 0.28093 0.76977
 N1467 N -0.00472 0.27529 0.76289
 C1468 C 0.02265 0.27376 0.76925
 H1469 H 0.04928 0.25434 0.76755
 H1470 H 0.04907 0.23509 0.74322
 H1471 H -0.00581 0.26444 0.75729
 H1472 H 0.01143 0.22970 0.69383
 H1473 H -0.01810 0.23456 0.69039
 H1474 H -0.06244 0.25561 0.72851
 H1475 H -0.06225 0.27477 0.75284
 H1476 H 0.01240 0.30134 0.78559
 H1477 H -0.00590 0.24832 0.73657
 H1478 H -0.01712 0.30631 0.78223
 C1479 C 0.45238 0.26046 0.26496
 C1480 C 0.45177 0.25034 0.25236
 C1481 C 0.46559 0.24247 0.25194
 N1482 N 0.47452 0.24728 0.26395
 C1483 C 0.46655 0.25840 0.27184
 C1484 C 0.46969 0.23089 0.24075
 C1485 C 0.48464 0.22484 0.23937
 C1486 C 0.48844 0.21129 0.23108
 C1487 C 0.50416 0.21058 0.23086
 C1488 C 0.50953 0.22377 0.23894
 N1489 N 0.49754 0.23230 0.24421
 C1490 C 0.52507 0.22862 0.23955
 C1491 C 0.53049 0.24037 0.25002
 C1492 C 0.54475 0.24767 0.24915
 C1493 C 0.54535 0.25842 0.26124
 C1494 C 0.53146 0.25725 0.26915
 N1495 N 0.52247 0.24609 0.26237
 C1496 C 0.52727 0.26629 0.28245
 C1497 C 0.51228 0.26614 0.28879
 C1498 C 0.50838 0.27183 0.30353
 C1499 C 0.49264 0.27187 0.30434
 C1500 C 0.48737 0.26629 0.29003
 N1501 N 0.49942 0.26265 0.28070
 C1502 C 0.47192 0.26665 0.28520
 H1503 H 0.44350 0.26859 0.26845
 H1504 H 0.44231 0.24910 0.24430
 H1505 H 0.49895 0.26048 0.26873
 H1506 H 0.48069 0.20304 0.22540
 H1507 H 0.51089 0.20168 0.22493
 H1508 H 0.55368 0.24572 0.24052
 H1509 H 0.55485 0.26633 0.26374
 H1510 H 0.48585 0.27612 0.31411
 H1511 H 0.49814 0.24374 0.24865
 H1512 H 0.51609 0.27604 0.31254
 C1513 C 0.95631 0.73715 0.74096
 C1514 C 0.95564 0.75039 0.73178
 C1515 C 0.97017 0.75271 0.72555
 N1516 N 0.97970 0.74138 0.73068
 C1517 C 0.97131 0.73196 0.74029
 C1518 C 0.97433 0.76479 0.71487
 C1519 C 0.98952 0.76744 0.70970
 C1520 C 0.99362 0.77674 0.69694
 C1521 C 1.00932 0.77784 0.69686
 C1522 C 1.01436 0.76920 0.70958
 N1523 N 1.00223 0.76282 0.71729
 C1524 C 1.02969 0.76877 0.71465
 C1525 C 1.03517 0.75727 0.72515
 C1526 C 1.04985 0.75693 0.73116
 C1527 C 1.05070 0.74350 0.74008
 C1528 C 1.03640 0.73624 0.73951
 N1529 N 1.02701 0.74457 0.73022
 C1530 C 1.03252 0.72165 0.74665
 C1531 C 1.01736 0.71560 0.74779
 C1532 C 1.01347 0.70049 0.75289
 C1533 C 0.99777 0.69952 0.75320
 C1534 C 0.99241 0.71404 0.74825
 N1535 N 1.00442 0.72383 0.74519
 C1536 C 0.97676 0.71817 0.74765
 H1537 H 0.94675 0.73197 0.74733
 H1538 H 0.94555 0.75740 0.72985
 H1539 H 1.00381 0.73588 0.74311
 H1540 H 0.98605 0.78244 0.68877
 H1541 H 1.01623 0.78456 0.68860
 H1542 H 1.05908 0.76537 0.72926
 H1543 H 1.06072 0.73959 0.74626
 H1544 H 0.99110 0.68932 0.75690
 H1545 H 1.00250 0.75775 0.72835
 H1546 H 1.02112 0.69118 0.75635
 C1547 C 0.44786 0.75604 0.26365
 C1548 C 0.44764 0.76647 0.25136
 C1549 C 0.46160 0.76514 0.24366
 N1550 N 0.47027 0.75416 0.25075
 C1551 C 0.46195 0.74870 0.26307
 C1552 C 0.46591 0.77362 0.23004
 C1553 C 0.48076 0.77321 0.22336
 C1554 C 0.48445 0.77832 0.20837
 C1555 C 0.50004 0.77679 0.20665
 C1556 C 0.50548 0.77091 0.22071
 N1557 N 0.49363 0.76887 0.23085
 C1558 C 0.52114 0.76864 0.22413
 C1559 C 0.52634 0.76115 0.23784
 C1560 C 0.54142 0.76104 0.24278
 C1561 C 0.54173 0.75189 0.25604
 C1562 C 0.52690 0.74641 0.25855
 N1563 N 0.51754 0.75207 0.24739
 C1564 C 0.52232 0.73571 0.27045
 C1565 C 0.50691 0.73102 0.27295
 C1566 C 0.50230 0.71792 0.28160
 C1567 C 0.48658 0.71819 0.28238
 C1568 C 0.48202 0.73150 0.27424
 N1569 N 0.49448 0.73921 0.26848
 C1570 C 0.46679 0.73693 0.27361
 H1571 H 0.43874 0.75420 0.27212
 H1572 H 0.43829 0.77420 0.24848
 H1573 H 0.49463 0.75051 0.26374
 H1574 H 0.47672 0.78278 0.19961
 H1575 H 0.50663 0.77999 0.19633
 H1576 H 0.55118 0.76695 0.23744
 H1577 H 0.55179 0.74943 0.26289
 H1578 H 0.47935 0.70974 0.28852
 H1579 H 0.49443 0.76642 0.24272
 H1580 H 0.50953 0.70919 0.28697
 C1581 C -0.04689 0.74686 0.26422
 C1582 C -0.04676 0.73726 0.25122
 C1583 C -0.03252 0.73022 0.25075
 N1584 N -0.02395 0.73528 0.26294
 C1585 C -0.03261 0.74562 0.27109
 C1586 C -0.02784 0.71885 0.23959
 C1587 C -0.01285 0.71281 0.23898
 C1588 C -0.00866 0.69930 0.23083
 C1589 C 0.00702 0.69852 0.23150
 C1590 C 0.01198 0.71161 0.23999
 N1591 N -0.00022 0.72017 0.24464
 C1592 C 0.02747 0.71635 0.24158
 C1593 C 0.03237 0.72728 0.25313
 C1594 C 0.04706 0.73348 0.25445
 C1595 C 0.04707 0.74300 0.26752
 C1596 C 0.03230 0.74256 0.27357
 N1597 N 0.02340 0.73281 0.26487
 C1598 C 0.02748 0.75035 0.28738
 C1599 C 0.01195 0.75190 0.29190
 C1600 C 0.00700 0.75735 0.30640
 C1601 C -0.00869 0.75817 0.30579
 C1602 C -0.01297 0.75316 0.29092
 N1603 N -0.00029 0.74954 0.28249
 C1604 C -0.02818 0.75306 0.28524
 H1605 H -0.05645 0.75390 0.26812
 H1606 H -0.05615 0.73558 0.24317
 H1607 H 0.00014 0.74729 0.27053
 H1608 H -0.01612 0.69111 0.22469
 H1609 H 0.01404 0.68961 0.22595
 H1610 H 0.05681 0.73139 0.24686
 H1611 H 0.05681 0.74957 0.27199
 H1612 H -0.01605 0.76226 0.31518
 H1613 H 0.00023 0.73159 0.24915
 H1614 H 0.01398 0.76067 0.31634
 C1615 C 0.45141 0.75003 0.75643
 C1616 C 0.44927 0.74111 0.74315
 C1617 C 0.46358 0.73923 0.73631
 N1618 N 0.47431 0.74698 0.74479
 C1619 C 0.46693 0.75352 0.75714
 C1620 C 0.46640 0.73129 0.72200
 C1621 C 0.48121 0.72765 0.71632
 C1622 C 0.48439 0.72189 0.70141
 C1623 C 0.49980 0.71874 0.70089
 C1624 C 0.50563 0.72268 0.71548
 N1625 N 0.49421 0.72801 0.72483
 C1626 C 0.52094 0.72034 0.72009
 C1627 C 0.52744 0.72730 0.73362
 C1628 C 0.54178 0.72385 0.73950
 C1629 C 0.54400 0.73355 0.75221
 C1630 C 0.53090 0.74250 0.75376
 N1631 N 0.52086 0.73879 0.74230
 C1632 C 0.52863 0.75427 0.76526
 C1633 C 0.51445 0.76166 0.76796
 C1634 C 0.51247 0.77504 0.77717
 C1635 C 0.49698 0.77754 0.77814
 C1636 C 0.48994 0.76561 0.76952
 N1637 N 0.50067 0.75600 0.76334
 C1638 C 0.47395 0.76316 0.76865
 H1639 H 0.44252 0.75363 0.76455
 H1640 H 0.43840 0.73653 0.73901
 H1641 H 0.49861 0.74506 0.75818
 H1642 H 0.47641 0.71988 0.69196
 H1643 H 0.50598 0.71394 0.69095
 H1644 H 0.54983 0.71523 0.73512
 H1645 H 0.55407 0.73392 0.75953
 H1646 H 0.49150 0.78693 0.78468
 H1647 H 0.49493 0.72992 0.73682
 H1648 H 0.52125 0.78209 0.78285
 C1649 C 0.41843 0.29396 0.31670
 C1650 C 0.42858 0.30597 0.31299
 C1651 C 0.42497 0.32187 0.31446
 C1652 C 0.41021 0.32557 0.31971
 C1653 C 0.39948 0.31344 0.32354
 C1654 C 0.40374 0.29739 0.32231
 O1655 O 0.42379 0.27969 0.31324
 C1656 C 0.43758 0.28281 0.30723
 C1657 C 0.44106 0.29872 0.30689
 C1658 C 0.45448 0.30476 0.30028
 C1659 C 0.46471 0.29398 0.29359
 C1660 C 0.46135 0.27752 0.29358
 C1661 C 0.44765 0.27184 0.30068
 H1662 H 0.43307 0.33110 0.31120
 H1663 H 0.40702 0.33788 0.32055
 H1664 H 0.39561 0.28793 0.32476
 H1665 H 0.45684 0.31736 0.29996
 H1666 H 0.47508 0.29843 0.28804
 H1667 H 0.44474 0.25935 0.30060
 C1668 C 0.42940 0.80293 0.80135
 C1669 C 0.43670 0.79382 0.81223
 C1670 C 0.43321 0.79433 0.82810
 C1671 C 0.42156 0.80451 0.83299
 C1672 C 0.41353 0.81397 0.82203
 C1673 C 0.41780 0.81321 0.80593
 O1674 O 0.43434 0.80045 0.78679
 C1675 C 0.44496 0.78951 0.78856
 C1676 C 0.44683 0.78505 0.80392
 C1677 C 0.45715 0.77358 0.80846
 C1678 C 0.46594 0.76641 0.79666
 C1679 C 0.46425 0.77082 0.78075
 C1680 C 0.45363 0.78257 0.77663
 H1681 H 0.43916 0.78703 0.83644
 H1682 H 0.41890 0.80479 0.84537
 H1683 H 0.41213 0.82005 0.79706
 H1684 H 0.45835 0.77023 0.82062
 H1685 H 0.47407 0.75743 0.79985
 H1686 H 0.45220 0.78613 0.76455
 C1687 C -0.08346 0.30656 0.79996
 C1688 C -0.07847 0.31842 0.79010
 C1689 C -0.08596 0.33274 0.78874
 C1690 C -0.09922 0.33489 0.79781
 C1691 C -0.10476 0.32282 0.80801
 C1692 C -0.09659 0.30850 0.80922
 O1693 O -0.07498 0.29364 0.79898
 C1694 C -0.06445 0.29746 0.78827
 C1695 C -0.06608 0.31252 0.78249
 C1696 C -0.05669 0.31876 0.77075
 C1697 C -0.04520 0.30903 0.76460
 C1698 C -0.04334 0.29345 0.77029
 C1699 C -0.05302 0.28761 0.78238
 H1700 H -0.08185 0.34186 0.78083
 H1701 H -0.10514 0.34601 0.79683
 H1702 H -0.10060 0.29898 0.81672
 H1703 H -0.05832 0.33059 0.76628
 H1704 H -0.03790 0.31346 0.75524
 H1705 H -0.05192 0.27565 0.78670
 C1706 C -0.07804 0.79237 0.30906
 C1707 C -0.07658 0.77950 0.31874
 C1708 C -0.08643 0.77650 0.33123
 C1709 C -0.09828 0.78720 0.33392
 C1710 C -0.10017 0.80062 0.32413
 C1711 C -0.08984 0.80318 0.31146
 O1712 O -0.06757 0.79280 0.29767
 C1713 C -0.05941 0.77990 0.30024
 C1714 C -0.06450 0.77135 0.31297
 C1715 C -0.05804 0.75712 0.31747
 C1716 C -0.04588 0.75138 0.30836
 C1717 C -0.04039 0.75997 0.29520
 C1718 C -0.04715 0.77452 0.29115
 H1719 H -0.08511 0.76621 0.33860
 H1720 H -0.10611 0.78475 0.34350
 H1721 H -0.09093 0.81324 0.30375
 H1722 H -0.06238 0.75054 0.32745
 H1723 H -0.04082 0.74017 0.31139
 H1724 H -0.04325 0.78113 0.28099
 C1725 C 0.57648 0.70511 0.29627
 C1726 C 0.56864 0.71229 0.30833
 C1727 C 0.57400 0.71275 0.32362
 C1728 C 0.58810 0.70566 0.32659
 C1729 C 0.59656 0.69830 0.31434
 C1730 C 0.59051 0.69788 0.29898
 O1731 O 0.56959 0.70649 0.28251
 C1732 C 0.55716 0.71475 0.28599
 C1733 C 0.55606 0.71858 0.30165
 C1734 C 0.54425 0.72761 0.30781
 C1735 C 0.53315 0.73301 0.29738
 C1736 C 0.53406 0.72933 0.28117
 C1737 C 0.54617 0.71991 0.27542
 H1738 H 0.56764 0.71853 0.33290
 H1739 H 0.59239 0.70596 0.33845
 H1740 H 0.59672 0.69256 0.28933
 H1741 H 0.54370 0.73056 0.32015
 H1742 H 0.52392 0.74024 0.30184
 H1743 H 0.54711 0.71698 0.26309
 C1744 C 0.58645 0.20730 0.81358
 C1745 C 0.58034 0.21722 0.82472
 C1746 C 0.58640 0.21877 0.83968
 C1747 C 0.59932 0.20976 0.84327
 C1748 C 0.60591 0.19947 0.83194
 C1749 C 0.59924 0.19826 0.81689
 O1750 O 0.57914 0.20767 0.80001
 C1751 C 0.56817 0.21808 0.80261
 C1752 C 0.56839 0.22429 0.81755
 C1753 C 0.55802 0.23559 0.82267
 C1754 C 0.54706 0.24072 0.81193
 C1755 C 0.54670 0.23454 0.79646
 C1756 C 0.55734 0.22295 0.79179
 H1757 H 0.58141 0.22667 0.84826
 H1758 H 0.60410 0.21086 0.85488
 H1759 H 0.60390 0.19072 0.80783
 H1760 H 0.55843 0.24034 0.83446
 H1761 H 0.53890 0.24959 0.81556
 H1762 H 0.55724 0.21803 0.78006
 C1763 C 1.08412 0.69620 0.78167
 C1764 C 1.08163 0.68681 0.76873
 C1765 C 1.09086 0.67413 0.76486
 C1766 C 1.10327 0.67104 0.77464
 C1767 C 1.10637 0.68068 0.78798
 C1768 C 1.09647 0.69339 0.79157
 O1769 O 1.07409 0.70784 0.78302
 C1770 C 1.06516 0.70574 0.77063
 C1771 C 1.06934 0.69305 0.76149
 C1772 C 1.06196 0.68903 0.74762
 C1773 C 1.04978 0.69853 0.74293
 C1774 C 1.04518 0.71160 0.75219
 C1775 C 1.05291 0.71522 0.76630
 H1776 H 1.08864 0.66691 0.75461
 H1777 H 1.11042 0.66114 0.77163
 H1778 H 1.09844 0.70106 0.80154
 H1779 H 1.06558 0.67908 0.74056
 H1780 H 1.04394 0.69580 0.73208
 H1781 H 1.04966 0.72526 0.77344
 C1782 C 1.07833 0.18628 0.30558
 C1783 C 1.07208 0.17501 0.29581
 C1784 C 1.07772 0.15973 0.29472
 C1785 C 1.09032 0.15593 0.30407
 C1786 C 1.09697 0.16736 0.31428
 C1787 C 1.09078 0.18275 0.31500
 O1788 O 1.07153 0.20019 0.30465
 C1789 C 1.06073 0.19766 0.29407
 C1790 C 1.06054 0.18244 0.28830
 C1791 C 1.05026 0.17732 0.27693
 C1792 C 1.03983 0.18839 0.27122
 C1793 C 1.03995 0.20417 0.27689
 C1794 C 1.05047 0.20883 0.28857
 H1795 H 1.07265 0.15106 0.28691
 H1796 H 1.09478 0.14406 0.30339
 H1797 H 1.09563 0.19187 0.32245
 H1798 H 1.05034 0.16530 0.27253
 H1799 H 1.03178 0.18480 0.26225
 H1800 H 1.05076 0.22083 0.29304
 C1801 C 0.58356 0.29144 0.69483
 C1802 C 0.58051 0.27639 0.68944
 C1803 C 0.58882 0.26946 0.67733
 C1804 C 0.60081 0.27838 0.67056
 C1805 C 0.60427 0.29392 0.67600
 C1806 C 0.59538 0.30049 0.68829
 O1807 O 0.57455 0.29575 0.70664
 C1808 C 0.56565 0.28312 0.70881
 C1809 C 0.56883 0.27092 0.69861
 C1810 C 0.56112 0.25642 0.69914
 C1811 C 0.54977 0.25442 0.71073
 C1812 C 0.54639 0.26684 0.72134
 C1813 C 0.55435 0.28142 0.72031
 H1814 H 0.58629 0.25755 0.67336
 H1815 H 0.60749 0.27302 0.66129
 H1816 H 0.59755 0.31229 0.69274
 H1817 H 0.56389 0.24695 0.69108
 H1818 H 0.54368 0.24322 0.71157
 H1819 H 0.55200 0.29098 0.72843
 C1820 C 0.57017 0.80019 0.18821
 C1821 C 0.56617 0.78631 0.18075
 C1822 C 0.57326 0.78116 0.16710
 C1823 C 0.58492 0.79072 0.16076
 C1824 C 0.58933 0.80519 0.16809
 C1825 C 0.58186 0.80991 0.18213
 O1826 O 0.56189 0.80281 0.20109
 C1827 C 0.55252 0.79030 0.20173
 C1828 C 0.55473 0.77986 0.18954
 C1829 C 0.54634 0.76588 0.18791
 C1830 C 0.53523 0.76245 0.19938
 C1831 C 0.53270 0.77299 0.21204
 C1832 C 0.54142 0.78717 0.21324
 H1833 H 0.56994 0.77014 0.16152
 H1834 H 0.59060 0.78665 0.15022
 H1835 H 0.58490 0.82085 0.18801
 H1836 H 0.54835 0.75786 0.17823
 H1837 H 0.52861 0.75158 0.19849
 H1838 H 0.53969 0.79531 0.22289
 C1839 C 1.08341 0.29885 0.20915
 C1840 C 1.08330 0.30378 0.22453
 C1841 C 1.09390 0.31458 0.23042
 C1842 C 1.10506 0.32059 0.22005
 C1843 C 1.10547 0.31573 0.20408
 C1844 C 1.09443 0.30464 0.19863
 O1845 O 1.07236 0.28844 0.20594
 C1846 C 1.06514 0.28675 0.21960
 C1847 C 1.07140 0.29586 0.23137
 C1848 C 1.06578 0.29573 0.24668
 C1849 C 1.05324 0.28572 0.25000
 C1850 C 1.04663 0.27624 0.23807
 C1851 C 1.05261 0.27679 0.22263
 H1852 H 1.09362 0.31823 0.24260
 H1853 H 1.11343 0.32890 0.22458
 H1854 H 1.09429 0.30069 0.18655
 H1855 H 1.07093 0.30296 0.25575
 H1856 H 1.04870 0.28524 0.26185
 H1857 H 1.04777 0.26953 0.21340
 C1858 C 1.08153 0.80471 0.68840
 C1859 C 1.07158 0.81512 0.69539
 C1860 C 1.07493 0.83111 0.69727
 C1861 C 1.08926 0.83655 0.69203
 C1862 C 1.09988 0.82604 0.68504
 C1863 C 1.09580 0.80993 0.68288
 O1864 O 1.07648 0.78983 0.68871
 C1865 C 1.06309 0.79089 0.69610
 C1866 C 1.05959 0.80613 0.70042
 C1867 C 1.04659 0.80991 0.70906
 C1868 C 1.03680 0.79745 0.71351
 C1869 C 1.04017 0.78163 0.70928
 C1870 C 1.05343 0.77831 0.70030
 H1871 H 1.06696 0.83901 0.70297
 H1872 H 1.09220 0.84892 0.69368
 H1873 H 1.10380 0.80158 0.67791
 H1874 H 1.04422 0.82197 0.71250
 H1875 H 1.02669 0.80003 0.72044
 H1876 H 1.05626 0.76630 0.69704
 C1877 C 0.41145 0.70085 0.69658
 C1878 C 0.41440 0.71440 0.68815
 C1879 C 0.40493 0.71959 0.67628
 C1880 C 0.39183 0.71047 0.67297
 C1881 C 0.38839 0.69643 0.68153
 C1882 C 0.39847 0.69157 0.69349
 O1883 O 0.42180 0.69817 0.70755
 C1884 C 0.43148 0.71031 0.70599
 C1885 C 0.42746 0.72058 0.69428
 C1886 C 0.43579 0.73430 0.69088
 C1887 C 0.44875 0.73759 0.69999
 C1888 C 0.45308 0.72719 0.71211
 C1889 C 0.44439 0.71331 0.71512
 H1890 H 0.40750 0.73030 0.66982
 H1891 H 0.38449 0.71441 0.66366
 H1892 H 0.39624 0.68105 0.70035
 H1893 H 0.43234 0.74225 0.68167
 H1894 H 0.45537 0.74827 0.69774
 H1895 H 0.44745 0.70531 0.72444
 C1896 C 0.41538 0.20320 0.21096
 C1897 C 0.42392 0.21086 0.19964
 C1898 C 0.41929 0.21187 0.18412
 C1899 C 0.40527 0.20472 0.18010
 C1900 C 0.39624 0.19667 0.19155
 C1901 C 0.40148 0.19588 0.20720
 O1902 O 0.42165 0.20390 0.22509
 C1903 C 0.43445 0.21217 0.22262
 C1904 C 0.43641 0.21667 0.20723
 C1905 C 0.44898 0.22551 0.20207
 C1906 C 0.45996 0.22993 0.21323
 C1907 C 0.45811 0.22556 0.22918
 C1908 C 0.44519 0.21652 0.23394
 H1909 H 0.42618 0.21803 0.17542
 H1910 H 0.40154 0.20537 0.16806
 H1911 H 0.39483 0.19003 0.21629
 H1912 H 0.45026 0.22894 0.18991
 H1913 H 0.46982 0.23691 0.20956
 H1914 H 0.44356 0.21309 0.24607
 C1915 C -0.08122 0.69418 0.20565
 C1916 C -0.07124 0.70105 0.19506
 C1917 C -0.07464 0.70283 0.17930
 C1918 C -0.08901 0.69748 0.17423
 C1919 C -0.09962 0.69043 0.18487
 C1920 C -0.09555 0.68854 0.20079
 O1921 O -0.07597 0.69436 0.22024
 C1922 C -0.06240 0.70151 0.21879
 C1923 C -0.05898 0.70578 0.20360
 C1924 C -0.04563 0.71387 0.19943
 C1925 C -0.03540 0.71784 0.21142
 C1926 C -0.03870 0.71374 0.22721
 C1927 C -0.05235 0.70532 0.23094
 H1928 H -0.06662 0.70840 0.17124
 H1929 H -0.09188 0.69889 0.16199
 H1930 H -0.10349 0.68344 0.20923
 H1931 H -0.04327 0.71720 0.18740
 H1932 H -0.02500 0.72433 0.20852
 H1933 H -0.05513 0.70216 0.24293
 C1934 C -0.08329 0.21258 0.69028
 C1935 C -0.07959 0.22491 0.68041
 C1936 C -0.08796 0.22826 0.66707
 C1937 C -0.10072 0.21857 0.66381
 C1938 C -0.10489 0.20584 0.67389
 C1939 C -0.09589 0.20280 0.68726
 O1940 O -0.07414 0.21167 0.70257
 C1941 C -0.06446 0.22369 0.70044
 C1942 C -0.06729 0.23219 0.68705
 C1943 C -0.05883 0.24561 0.68287
 C1944 C -0.04706 0.25050 0.69297
 C1945 C -0.04402 0.24192 0.70682
 C1946 C -0.05276 0.22827 0.71055
 H1947 H -0.08487 0.23806 0.65950
 H1948 H -0.10729 0.22108 0.65344
 H1949 H -0.09875 0.19337 0.69535
 H1950 H -0.06136 0.25219 0.67236
 H1951 H -0.04043 0.26105 0.69019
 H1952 H -0.05073 0.22171 0.72121
 C1953 C 0.30049 0.42044 0.29723
 C1954 C 0.31254 0.42878 0.29068
 C1955 C 0.32763 0.42397 0.29183
 C1956 C 0.33044 0.40991 0.29995
 C1957 C 0.31824 0.40103 0.30683
 C1958 C 0.30304 0.40651 0.30556
 O1959 O 0.28699 0.42685 0.29436
 C1960 C 0.29061 0.43950 0.28584
 C1961 C 0.30611 0.44124 0.28331
 C1962 C 0.31245 0.45358 0.27457
 C1963 C 0.30239 0.46457 0.26813
 C1964 C 0.28638 0.46296 0.27044
 C1965 C 0.28039 0.45027 0.27946
 H1966 H 0.33691 0.43070 0.28651
 H1967 H 0.34214 0.40599 0.30091
 H1968 H 0.29348 0.39992 0.31049
 H1969 H 0.32469 0.45466 0.27272
 H1970 H 0.30700 0.47428 0.26123
 H1971 H 0.26818 0.44885 0.28135
 C1972 C 0.31369 -0.07295 0.80468
 C1973 C 0.32370 -0.06573 0.79440
 C1974 C 0.33797 -0.07183 0.79079
 C1975 C 0.34212 -0.08598 0.79806
 C1976 C 0.33207 -0.09384 0.80884
 C1977 C 0.31761 -0.08700 0.81218
 O1978 O 0.30051 -0.06539 0.80613
 C1979 C 0.30228 -0.05313 0.79655
 C1980 C 0.31631 -0.05277 0.78913
 C1981 C 0.32053 -0.04111 0.77840
 C1982 C 0.30979 -0.02940 0.77509
 C1983 C 0.29519 -0.02963 0.78243
 C1984 C 0.29142 -0.04160 0.79341
 H1985 H 0.34562 -0.06594 0.78259
 H1986 H 0.35327 -0.09060 0.79519
 H1987 H 0.30946 -0.09247 0.82014
 H1988 H 0.33163 -0.04112 0.77268
 H1989 H 0.31269 -0.02028 0.76664
 H1990 H 0.28030 -0.04201 0.79909
 C1991 C 0.79505 0.41655 0.80351
 C1992 C 0.78798 0.42593 0.81448
 C1993 C 0.78838 0.42281 0.83043
 C1994 C 0.79638 0.40943 0.83531
 C1995 C 0.80391 0.39942 0.82427
 C1996 C 0.80317 0.40323 0.80807
 O1997 O 0.79311 0.42152 0.78891
 C1998 C 0.78464 0.43434 0.79074
 C1999 C 0.78123 0.43757 0.80619
 C2000 C 0.77251 0.45045 0.81082
 C2001 C 0.76705 0.46039 0.79903
 C2002 C 0.77032 0.45724 0.78303
 C2003 C 0.77927 0.44405 0.77882
 H2004 H 0.78269 0.43038 0.83884
 H2005 H 0.79667 0.40712 0.84775
 H2006 H 0.80855 0.39605 0.79914
 H2007 H 0.76999 0.45274 0.82306
 H2008 H 0.76020 0.47050 0.80228
 H2009 H 0.78192 0.44147 0.76666
 C2010 C 0.80101 -0.09011 0.28175
 C2011 C 0.80880 -0.08787 0.26787
 C2012 C 0.82185 -0.09631 0.26396
 C2013 C 0.82703 -0.10757 0.27475
 C2014 C 0.81910 -0.11032 0.28918
 C2015 C 0.80587 -0.10126 0.29259
 O2016 O 0.78896 -0.08082 0.28335
 C2017 C 0.78910 -0.07254 0.27016
 C2018 C 0.80099 -0.07641 0.26023
 C2019 C 0.80322 -0.06916 0.24574
 C2020 C 0.79282 -0.05742 0.24136
 C2021 C 0.78060 -0.05320 0.25150
 C2022 C 0.77871 -0.06087 0.26608
 H2023 H 0.82784 -0.09432 0.25298
 H2024 H 0.83713 -0.11416 0.27163
 H2025 H 0.79941 -0.10265 0.30336
 H2026 H 0.81263 -0.07239 0.23810
 H2027 H 0.79430 -0.05151 0.23020
 H2028 H 0.76946 -0.05778 0.27399
 C2029 C 0.31033 0.57253 0.70763
 C2030 C 0.30555 0.56105 0.69724
 C2031 C 0.30680 0.56273 0.68110
 C2032 C 0.31303 0.57694 0.67537
 C2033 C 0.31783 0.58916 0.68575
 C2034 C 0.31667 0.58677 0.70217
 O2035 O 0.30760 0.56869 0.72251
 C2036 C 0.30093 0.55451 0.72144
 C2037 C 0.29941 0.54936 0.70621
 C2038 C 0.29225 0.53516 0.70225
 C2039 C 0.28637 0.52586 0.71450
 C2040 C 0.28782 0.53080 0.73034
 C2041 C 0.29527 0.54534 0.73387
 H2042 H 0.30290 0.55353 0.67318
 H2043 H 0.31398 0.57841 0.66280
 H2044 H 0.32002 0.59591 0.71041
 H2045 H 0.29104 0.53148 0.69016
 H2046 H 0.28055 0.51485 0.71169
 H2047 H 0.29640 0.54943 0.74585
 C2048 C 0.30412 1.08242 0.21524
 C2049 C 0.29647 1.07489 0.20325
 C2050 C 0.29483 1.08147 0.18847
 C2051 C 0.30114 1.09656 0.18598
 C2052 C 0.30904 1.10464 0.19812
 C2053 C 0.31082 1.09734 0.21289
 O2054 O 0.30325 1.07459 0.22872
 C2055 C 0.29485 1.06189 0.22514
 C2056 C 0.29051 1.06151 0.20966
 C2057 C 0.28098 1.04981 0.20351
 C2058 C 0.27556 1.03808 0.21375
 C2059 C 0.27961 1.03832 0.22981
 C2060 C 0.28960 1.05027 0.23556
 H2061 H 0.28851 1.07542 0.17933
 H2062 H 0.29968 1.10209 0.17465
 H2063 H 0.31646 1.10346 0.22245
 H2064 H 0.27757 1.04992 0.19134
 H2065 H 0.26785 1.02902 0.20932
 H2066 H 0.29271 1.05075 0.24782
 C2067 C 0.79866 0.58559 0.19034
 C2068 C 0.79370 0.57639 0.17800
 C2069 C 0.79622 0.58049 0.16244
 C2070 C 0.80403 0.59476 0.15944
 C2071 C 0.80917 0.60457 0.17194
 C2072 C 0.80660 0.59977 0.18763
 O2073 O 0.79463 0.57976 0.20423
 C2074 C 0.78697 0.56662 0.20056
 C2075 C 0.78610 0.56400 0.18466
 C2076 C 0.77837 0.55109 0.17821
 C2077 C 0.77124 0.54042 0.18859
 C2078 C 0.77193 0.54292 0.20500
 C2079 C 0.77994 0.55618 0.21108
 H2080 H 0.79216 0.57308 0.15294
 H2081 H 0.80602 0.59815 0.14737
 H2082 H 0.81019 0.60707 0.19741
 H2083 H 0.77779 0.54933 0.16565
 H2084 H 0.76510 0.53027 0.18392
 H2085 H 0.78057 0.55829 0.22359
 C2086 C 0.80253 1.08465 0.70455
 C2087 C 0.81231 1.07902 0.71573
 C2088 C 0.82664 1.08578 0.71845
 C2089 C 0.83105 1.09886 0.70927
 C2090 C 0.82118 1.10482 0.69758
 C2091 C 0.80671 1.09753 0.69524
 O2092 O 0.78936 1.07671 0.70391
 C2093 C 0.79086 1.06579 0.71490
 C2094 C 0.80470 1.06664 0.72248
 C2095 C 0.80864 1.05624 0.73437
 C2096 C 0.79785 1.04454 0.73864
 C2097 C 0.78350 1.04358 0.73105
 C2098 C 0.77997 1.05432 0.71901
 H2099 H 0.83415 1.08116 0.72733
 H2100 H 0.84220 1.10419 0.71117
 H2101 H 0.79880 1.10183 0.68658
 H2102 H 0.81961 1.05710 0.74015
 H2103 H 0.80058 1.03628 0.74785
 H2104 H 0.76907 1.05373 0.71305
 C2105 C 0.69714 0.58959 0.28550
 C2106 C 0.68589 0.58255 0.27659
 C2107 C 0.67124 0.58861 0.27546
 C2108 C 0.66804 0.60253 0.28379
 C2109 C 0.67940 0.61006 0.29313
 C2110 C 0.69416 0.60337 0.29405
 O2111 O 0.71040 0.58208 0.28471
 C2112 C 0.70742 0.57003 0.27511
 C2113 C 0.69257 0.56975 0.26987
 C2114 C 0.68698 0.55819 0.25970
 C2115 C 0.69715 0.54643 0.25469
 C2116 C 0.71252 0.54657 0.25982
 C2117 C 0.71775 0.55851 0.27019
 H2118 H 0.66258 0.58287 0.26834
 H2119 H 0.65664 0.60733 0.28305
 H2120 H 0.70312 0.60888 0.30093
 H2121 H 0.67524 0.55822 0.25575
 H2122 H 0.69314 0.53729 0.24675
 H2123 H 0.72947 0.55879 0.27422
 C2124 C 0.69303 1.08111 0.79619
 C2125 C 0.68555 1.08009 0.78211
 C2126 C 0.67421 1.09055 0.77785
 C2127 C 0.67050 1.10266 0.78846
 C2128 C 0.67823 1.10426 0.80306
 C2129 C 0.68960 1.09307 0.80691
 O2130 O 0.70373 1.07025 0.79783
 C2131 C 0.70303 1.06223 0.78446
 C2132 C 0.69211 1.06780 0.77439
 C2133 C 0.68994 1.06159 0.75943
 C2134 C 0.69950 1.04923 0.75462
 C2135 C 0.71080 1.04333 0.76482
 C2136 C 0.71248 1.04982 0.78000
 H2137 H 0.66851 1.08955 0.76666
 H2138 H 0.66176 1.11084 0.78499
 H2139 H 0.69586 1.09361 0.81778
 H2140 H 0.68141 1.06630 0.75164
 H2141 H 0.69831 1.04437 0.74292
 H2142 H 0.72122 1.04564 0.78786
 C2143 C 0.21167 0.58101 0.80612
 C2144 C 0.20070 0.57096 0.80005
 C2145 C 0.18553 0.57525 0.79821
 C2146 C 0.18149 0.59061 0.80268
 C2147 C 0.19254 0.60122 0.80901
 C2148 C 0.20781 0.59627 0.81099
 O2149 O 0.22561 0.57488 0.80586
 C2150 C 0.22335 0.56067 0.79951
 C2151 C 0.20827 0.55769 0.79586
 C2152 C 0.20334 0.54384 0.78859
 C2153 C 0.21443 0.53260 0.78479
 C2154 C 0.23008 0.53547 0.78817
 C2155 C 0.23461 0.54965 0.79577
 H2156 H 0.17717 0.56720 0.79319
 H2157 H 0.16977 0.59428 0.80114
 H2158 H 0.21649 0.60427 0.81552
 H2159 H 0.19143 0.54186 0.78571
 H2160 H 0.21093 0.52182 0.77885
 H2161 H 0.24653 0.55214 0.79827
 C2162 C 0.20205 1.07381 0.31629
 C2163 C 0.21444 1.07015 0.32536
 C2164 C 0.21772 1.07796 0.33931
 C2165 C 0.20787 1.09009 0.34407
 C2166 C 0.19503 1.09425 0.33485
 C2167 C 0.19211 1.08582 0.32078
 O2168 O 0.20109 1.06517 0.30331
 C2169 C 0.21318 1.05587 0.30419
 C2170 C 0.22175 1.05844 0.31745
 C2171 C 0.23512 1.05024 0.32050
 C2172 C 0.23987 1.03900 0.30939
 C2173 C 0.23120 1.03622 0.29567
 C2174 C 0.21763 1.04468 0.29307
 H2175 H 0.22757 1.07489 0.34624
 H2176 H 0.21038 1.09621 0.35490
 H2177 H 0.18256 1.08859 0.31333
 H2178 H 0.24173 1.05254 0.33096
 H2179 H 0.25030 1.03253 0.31134
 H2180 H 0.21095 1.04278 0.28258
 C2181 C 0.70134 0.41022 0.69493
 C2182 C 0.68978 0.41792 0.70276
 C2183 C 0.67464 0.41280 0.70252
 C2184 C 0.67125 0.39904 0.69399
 C2185 C 0.68291 0.39077 0.68580
 C2186 C 0.69818 0.39657 0.68614
 O2187 O 0.71499 0.41696 0.69704
 C2188 C 0.71194 0.42915 0.70639
 C2189 C 0.69665 0.43026 0.71016
 C2190 C 0.69084 0.44206 0.71982
 C2191 C 0.70122 0.45324 0.72583
 C2192 C 0.71702 0.45233 0.72219
 C2193 C 0.72250 0.44012 0.71235
 H2194 H 0.66577 0.41907 0.70881
 H2195 H 0.65948 0.39492 0.69369
 H2196 H 0.70733 0.39044 0.68014
 H2197 H 0.67875 0.44264 0.72261
 H2198 H 0.69702 0.46260 0.73335
 H2199 H 0.73455 0.43927 0.70943
 C2200 C 0.69007 -0.08602 0.18271
 C2201 C 0.69986 -0.07957 0.17168
 C2202 C 0.70143 -0.08570 0.15665
 C2203 C 0.69271 -0.09916 0.15285
 C2204 C 0.68264 -0.10624 0.16403
 C2205 C 0.68112 -0.09938 0.17912
 O2206 O 0.69090 -0.07876 0.19653
 C2207 C 0.70145 -0.06754 0.19414
 C2208 C 0.70726 -0.06755 0.17910
 C2209 C 0.71892 -0.05733 0.17419
 C2210 C 0.72493 -0.04671 0.18526
 C2211 C 0.71918 -0.04649 0.20083
 C2212 C 0.70719 -0.05697 0.20532
 H2213 H 0.70928 -0.08047 0.14822
 H2214 H 0.69390 -0.10410 0.14119
 H2215 H 0.67372 -0.10463 0.18797
 H2216 H 0.72343 -0.05772 0.16234
 H2217 H 0.73420 -0.03880 0.18185
 H2218 H 0.70284 -0.05714 0.21724
 C2219 C 0.20230 0.42306 0.19454
 C2220 C 0.21011 0.43059 0.18262
 C2221 C 0.20853 0.42634 0.16698
 C2222 C 0.19850 0.41378 0.16345
 C2223 C 0.19022 0.40574 0.17550
 C2224 C 0.19224 0.41053 0.19131
 O2225 O 0.20532 0.42910 0.20859
 C2226 C 0.21525 0.44069 0.20544
 C2227 C 0.21855 0.44209 0.18970
 C2228 C 0.22847 0.45361 0.18373
 C2229 C 0.23518 0.46420 0.19441
 C2230 C 0.23190 0.46303 0.21067
 C2231 C 0.22186 0.45106 0.21629
 H2232 H 0.21480 0.43248 0.15780
 H2233 H 0.19733 0.41038 0.15130
 H2234 H 0.18612 0.40482 0.20085
 H2235 H 0.23083 0.45451 0.17128
 H2236 H 0.24283 0.47340 0.19010
 H2237 H 0.21913 0.45007 0.22865
 C2238 C 0.20209 -0.06867 0.71993
 C2239 C 0.19584 -0.06776 0.73474
 C2240 C 0.18470 -0.07827 0.74015
 C2241 C 0.17979 -0.09025 0.72988
 C2242 C 0.18608 -0.09156 0.71450
 C2243 C 0.19739 -0.08048 0.70951
 O2244 O 0.21280 -0.05773 0.71723
 C2245 C 0.21334 -0.04978 0.73065
 C2246 C 0.20319 -0.05544 0.74176
 C2247 C 0.20219 -0.04918 0.75684
 C2248 C 0.21216 -0.03664 0.76064
 C2249 C 0.22272 -0.03067 0.74938
 C2250 C 0.22325 -0.03723 0.73415
 H2251 H 0.18003 -0.07738 0.75191
 H2252 H 0.17126 -0.09859 0.73411
 H2253 H 0.20248 -0.08101 0.69793
 H2254 H 0.19420 -0.05393 0.76541
 H2255 H 0.21184 -0.03167 0.77235
 H2256 H 0.23140 -0.03294 0.72548
 C2257 C 0.29493 0.30254 0.42397
 C2258 C 0.28632 0.31418 0.43091
 C2259 C 0.28478 0.32913 0.42442
 C2260 C 0.29237 0.33221 0.41018
 C2261 C 0.30139 0.32044 0.40276
 C2262 C 0.30275 0.30541 0.40988
 O2263 O 0.29440 0.28896 0.43177
 C2264 C 0.28529 0.29212 0.44390
 C2265 C 0.28009 0.30743 0.44395
 C2266 C 0.27013 0.31318 0.45536
 C2267 C 0.26519 0.30267 0.46713
 C2268 C 0.27020 0.28681 0.46718
 C2269 C 0.28049 0.28147 0.45549
 H2270 H 0.27785 0.33807 0.43004
 H2271 H 0.29129 0.34382 0.40501
 H2272 H 0.30937 0.29611 0.40444
 H2273 H 0.26613 0.32524 0.45510
 H2274 H 0.25723 0.30674 0.47602
 H2275 H 0.28431 0.26933 0.45525
 C2276 C 0.30417 0.80359 -0.08604
 C2277 C 0.31089 0.78897 -0.08540
 C2278 C 0.32383 0.78513 -0.09408
 C2279 C 0.33020 0.79689 -0.10374
 C2280 C 0.32352 0.81209 -0.10466
 C2281 C 0.31017 0.81542 -0.09583
 O2282 O 0.29232 0.80494 -0.07629
 C2283 C 0.29158 0.79086 -0.06941
 C2284 C 0.30264 0.78064 -0.07465
 C2285 C 0.30416 0.76536 -0.06888
 C2286 C 0.29387 0.76043 -0.05713
 C2287 C 0.28254 0.77083 -0.05137
 C2288 C 0.28130 0.78622 -0.05763
 H2289 H 0.32896 0.77358 -0.09329
 H2290 H 0.34032 0.79410 -0.11056
 H2291 H 0.30496 0.82697 -0.09619
 H2292 H 0.31300 0.75758 -0.07318
 H2293 H 0.29481 0.74864 -0.05232
 H2294 H 0.27274 0.79433 -0.05331
 C2295 C 0.81889 0.29605 -0.06748
 C2296 C 0.81514 0.30729 -0.05645
 C2297 C 0.81753 0.32338 -0.05879
 C2298 C 0.82369 0.32815 -0.07325
 C2299 C 0.82723 0.31690 -0.08509
 C2300 C 0.82515 0.30055 -0.08199
 O2301 O 0.81479 0.28148 -0.06320
 C2302 C 0.80823 0.28364 -0.04924
 C2303 C 0.80813 0.29924 -0.04464
 C2304 C 0.80086 0.30440 -0.03104
 C2305 C 0.79328 0.29302 -0.02182
 C2306 C 0.79319 0.27682 -0.02622
 C2307 C 0.80104 0.27204 -0.04003
 H2308 H 0.81437 0.33199 -0.04997
 H2309 H 0.82534 0.34068 -0.07534
 H2310 H 0.82743 0.29171 -0.09089
 H2311 H 0.80068 0.31680 -0.02785
 H2312 H 0.78723 0.29683 -0.01137
 H2313 H 0.80112 0.25977 -0.04370
 C2314 C 0.79684 0.80558 0.41644
 C2315 C 0.78496 0.81491 0.42141
 C2316 C 0.78148 0.82919 0.41424
 C2317 C 0.79061 0.83400 0.40144
 C2318 C 0.80300 0.82460 0.39617
 C2319 C 0.80611 0.81020 0.40388
 O2320 O 0.79805 0.79228 0.42453
 C2321 C 0.78671 0.79322 0.43488
 C2322 C 0.77836 0.80686 0.43353
 C2323 C 0.76589 0.81017 0.44318
 C2324 C 0.76186 0.79894 0.45464
 C2325 C 0.77023 0.78478 0.45610
 C2326 C 0.78284 0.78188 0.44612
 H2327 H 0.77202 0.83631 0.41830
 H2328 H 0.78810 0.84508 0.39572
 H2329 H 0.81527 0.80256 0.40005
 H2330 H 0.75947 0.82095 0.44190
 H2331 H 0.75215 0.80113 0.46229
 H2332 H 0.78933 0.77109 0.44704
 C2333 C 0.70540 0.30548 0.56509
 C2334 C 0.69432 0.30178 0.55424
 C2335 C 0.67880 0.30385 0.55711
 C2336 C 0.67449 0.30969 0.57187
 C2337 C 0.68566 0.31349 0.58331
 C2338 C 0.70137 0.31168 0.57974
 O2339 O 0.71935 0.30129 0.56052
 C2340 C 0.71700 0.29479 0.54653
 C2341 C 0.70188 0.29487 0.54212
 C2342 C 0.69669 0.28776 0.52840
 C2343 C 0.70749 0.28010 0.51890
 C2344 C 0.72308 0.27961 0.52330
 C2345 C 0.72794 0.28728 0.53721
 H2346 H 0.67028 0.30055 0.54852
 H2347 H 0.66242 0.31096 0.57454
 H2348 H 0.71007 0.31405 0.58844
 H2349 H 0.68470 0.28777 0.52532
 H2350 H 0.70368 0.27413 0.50834
 H2351 H 0.73976 0.28685 0.54091
 C2352 C 0.69191 0.79563 1.06195
 C2353 C 0.68374 0.78261 1.05686
 C2354 C 0.66950 0.77841 1.06305
 C2355 C 0.66349 0.78796 1.07505
 C2356 C 0.67182 0.80130 1.08071
 C2357 C 0.68623 0.80518 1.07396
 O2358 O 0.70521 0.79756 1.05457
 C2359 C 0.70550 0.78544 1.04465
 C2360 C 0.69267 0.77588 1.04563
 C2361 C 0.69081 0.76227 1.03660
 C2362 C 0.70267 0.75836 1.02615
 C2363 C 0.71591 0.76814 1.02485
 C2364 C 0.71730 0.78191 1.03417
 H2365 H 0.66329 0.76810 1.05887
 H2366 H 0.65252 0.78471 1.08015
 H2367 H 0.69284 0.81531 1.07792
 H2368 H 0.68067 0.75486 1.03766
 H2369 H 0.70160 0.74779 1.01902
 H2370 H 0.72735 0.78950 1.03337
 C2371 C 0.17502 0.30209 1.07520
 C2372 C 0.17764 0.31291 1.06344
 C2373 C 0.17293 0.32852 1.06447
 C2374 C 0.16553 0.33327 1.07832
 C2375 C 0.16312 0.32250 1.09089
 C2376 C 0.16763 0.30655 1.08908
 O2377 O 0.18127 0.28813 1.07229
 C2378 C 0.18806 0.29024 1.05846
 C2379 C 0.18623 0.30521 1.05255
 C2380 C 0.19341 0.31036 1.03884
 C2381 C 0.20300 0.29970 1.03099
 C2382 C 0.20515 0.28420 1.03688
 C2383 C 0.19729 0.27935 1.05066
 H2384 H 0.17524 0.33686 1.05511
 H2385 H 0.16203 0.34546 1.07935
 H2386 H 0.16628 0.29808 1.09849
 H2387 H 0.19204 0.32231 1.03460
 H2388 H 0.20907 0.30358 1.02055
 H2389 H 0.19882 0.26764 1.05548
 C2390 C 0.20540 0.81702 0.58929
 C2391 C 0.21963 0.82379 0.58705
 C2392 C 0.22551 0.83547 0.59686
 C2393 C 0.21638 0.84034 0.60955
 C2394 C 0.20166 0.83347 0.61225
 C2395 C 0.19613 0.82166 0.60183
 O2396 O 0.20211 0.80585 0.57884
 C2397 C 0.21456 0.80553 0.56984
 C2398 C 0.22563 0.81627 0.57437
 C2399 C 0.23980 0.81756 0.56691
 C2400 C 0.24271 0.80727 0.55433
 C2401 C 0.23147 0.79610 0.54950
 C2402 C 0.21715 0.79530 0.55726
 H2403 H 0.23679 0.84054 0.59492
 H2404 H 0.22099 0.84925 0.61736
 H2405 H 0.18500 0.81614 0.60342
 H2406 H 0.24839 0.82601 0.57078
 H2407 H 0.25372 0.80781 0.54843
 H2408 H 0.20850 0.78671 0.55384
 C2409 C 0.28820 0.69975 0.58603
 C2410 C 0.27843 0.68928 0.57870
 C2411 C 0.27689 0.67356 0.58323
 C2412 C 0.28578 0.66843 0.59584
 C2413 C 0.29596 0.67901 0.60364
 C2414 C 0.29711 0.69493 0.59859
 O2415 O 0.28808 0.71413 0.57983
 C2416 C 0.27801 0.71271 0.56834
 C2417 C 0.27176 0.69773 0.56715
 C2418 C 0.26104 0.69361 0.55582
 C2419 C 0.25660 0.70541 0.54530
 C2420 C 0.26291 0.72091 0.54633
 C2421 C 0.27378 0.72460 0.55800
 H2422 H 0.26912 0.66553 0.57728
 H2423 H 0.28457 0.65625 0.59954
 H2424 H 0.30481 0.70333 0.60409
 H2425 H 0.25631 0.68174 0.55508
 H2426 H 0.24832 0.70254 0.53632
 H2427 H 0.27882 0.73633 0.55889
 C2428 C 0.28655 0.21355 1.10171
 C2429 C 0.27103 0.21284 1.10442
 C2430 C 0.26465 0.20704 1.11822
 C2431 C 0.27466 0.20155 1.12968
 C2432 C 0.29077 0.20179 1.12717
 C2433 C 0.29677 0.20810 1.11297
 O2434 O 0.29016 0.21939 1.08769
 C2435 C 0.27660 0.22236 1.08144
 C2436 C 0.26454 0.21850 1.09122
 C2437 C 0.24934 0.22025 1.08699
 C2438 C 0.24640 0.22629 1.07205
 C2439 C 0.25859 0.23057 1.06176
 C2440 C 0.27393 0.22856 1.06655
 H2441 H 0.25239 0.20668 1.12008
 H2442 H 0.26973 0.19708 1.14048
 H2443 H 0.30894 0.20840 1.11056
 H2444 H 0.24007 0.21698 1.09487
 H2445 H 0.23463 0.22766 1.06844
 H2446 H 0.28342 0.23171 1.05890
 C2447 C 0.80394 0.70853 1.07266
 C2448 C 0.81413 0.71936 1.06641
 C2449 C 0.82800 0.72316 1.07344
 C2450 C 0.83153 0.71545 1.08749
 C2451 C 0.82126 0.70413 1.09413
 C2452 C 0.80728 0.70064 1.08652
 O2453 O 0.79121 0.70696 1.06439
 C2454 C 0.79341 0.71700 1.05263
 C2455 C 0.80729 0.72484 1.05329
 C2456 C 0.81187 0.73605 1.04226
 C2457 C 0.80165 0.73942 1.03015
 C2458 C 0.78720 0.73168 1.02940
 C2459 C 0.78307 0.72020 1.04071
 H2460 H 0.83580 0.73179 1.06834
 H2461 H 0.84233 0.71819 1.09306
 H2462 H 0.79908 0.69225 1.09136
 H2463 H 0.82283 0.74209 1.04304
 H2464 H 0.80482 0.74825 1.02149
 H2465 H 0.77206 0.71419 1.04034
 C2466 C 0.79195 0.19998 0.58064
 C2467 C 0.78567 0.18782 0.57200
 C2468 C 0.78627 0.17211 0.57665
 C2469 C 0.79372 0.16876 0.59075
 C2470 C 0.80044 0.18107 0.59988
 C2471 C 0.79939 0.19694 0.59469
 O2472 O 0.79044 0.21404 0.57397
 C2473 C 0.78308 0.21068 0.56080
 C2474 C 0.77990 0.19479 0.55903
 C2475 C 0.77267 0.18857 0.54588
 C2476 C 0.76862 0.19917 0.53403
 C2477 C 0.77179 0.21558 0.53560
 C2478 C 0.77905 0.22144 0.54921
 H2479 H 0.78132 0.16273 0.56958
 H2480 H 0.79442 0.15654 0.59432
 H2481 H 0.80430 0.20669 0.60126
 H2482 H 0.77041 0.17601 0.54469
 H2483 H 0.76312 0.19466 0.52357
 H2484 H 0.78173 0.23391 0.55054
 C2485 C 0.70545 0.69493 0.41437
 C2486 C 0.69400 0.69797 0.42510
 C2487 C 0.67857 0.69582 0.42180
 C2488 C 0.67474 0.69061 0.40672
 C2489 C 0.68626 0.68752 0.39535
 C2490 C 0.70188 0.68939 0.39933
 O2491 O 0.71928 0.69892 0.41958
 C2492 C 0.71646 0.70461 0.43385
 C2493 C 0.70115 0.70422 0.43777
 C2494 C 0.69546 0.71040 0.45173
 C2495 C 0.70595 0.71738 0.46207
 C2496 C 0.72178 0.71807 0.45832
 C2497 C 0.72714 0.71143 0.44405
 H2498 H 0.66978 0.69854 0.43037
 H2499 H 0.66276 0.68925 0.40378
 H2500 H 0.71085 0.68751 0.39072
 H2501 H 0.68333 0.71018 0.45441
 H2502 H 0.70175 0.72258 0.47287
 H2503 H 0.73914 0.71202 0.44084
 C2504 C 0.71249 0.19300 -0.07428
 C2505 C 0.72736 0.18792 -0.07527
 C2506 C 0.73241 0.17768 -0.08693
 C2507 C 0.72172 0.17251 -0.09808
 C2508 C 0.70632 0.17769 -0.09747
 C2509 C 0.70169 0.18807 -0.08529
 O2510 O 0.71008 0.20280 -0.06233
 C2511 C 0.72373 0.20397 -0.05568
 C2512 C 0.73472 0.19512 -0.06318
 C2513 C 0.74990 0.19487 -0.05839
 C2514 C 0.75391 0.20411 -0.04532
 C2515 C 0.74277 0.21323 -0.03736
 C2516 C 0.72745 0.21314 -0.04258
 H2517 H 0.74419 0.17389 -0.08749
 H2518 H 0.72560 0.16474 -0.10735
 H2519 H 0.69005 0.19221 -0.08436
 H2520 H 0.75835 0.18789 -0.06453
 H2521 H 0.76565 0.20419 -0.04135
 H2522 H 0.71881 0.22011 -0.03670
 C2523 C 0.19546 0.70499 -0.08843
 C2524 C 0.18452 0.71412 -0.08124
 C2525 C 0.16984 0.71571 -0.08720
 C2526 C 0.16633 0.70758 -0.10114
 C2527 C 0.17742 0.69805 -0.10876
 C2528 C 0.19218 0.69672 -0.10219
 O2529 O 0.20886 0.70548 -0.08121
 C2530 C 0.20633 0.71511 -0.06919
 C2531 C 0.19160 0.72070 -0.06862
 C2532 C 0.18662 0.73124 -0.05715
 C2533 C 0.19730 0.73633 -0.04593
 C2534 C 0.21259 0.73091 -0.04647
 C2535 C 0.21711 0.72002 -0.05817
 H2536 H 0.16144 0.72304 -0.08141
 H2537 H 0.15495 0.70867 -0.10591
 H2538 H 0.20101 0.68979 -0.10778
 H2539 H 0.17500 0.73553 -0.05697
 H2540 H 0.19382 0.74472 -0.03701
 H2541 H 0.22875 0.71580 -0.05883
 C2542 C 0.19120 0.20250 0.43004
 C2543 C 0.18139 0.21403 0.43518
 C2544 C 0.16707 0.21627 0.42861
 C2545 C 0.16273 0.20623 0.41622
 C2546 C 0.17269 0.19425 0.41063
 C2547 C 0.18714 0.19242 0.41778
 O2548 O 0.20433 0.20238 0.43774
 C2549 C 0.20279 0.21410 0.44797
 C2550 C 0.18896 0.22164 0.44691
 C2551 C 0.18507 0.23439 0.45645
 C2552 C 0.19589 0.23956 0.46749
 C2553 C 0.21016 0.23190 0.46874
 C2554 C 0.21365 0.21900 0.45887
 H2555 H 0.15952 0.22542 0.43285
 H2556 H 0.15158 0.20784 0.41109
 H2557 H 0.19516 0.18358 0.41386
 H2558 H 0.17415 0.24019 0.45538
 H2559 H 0.19326 0.24951 0.47504
 H2560 H 0.22455 0.21308 0.45961
 C2561 C 0.30425 0.40935 0.71203
 C2562 C 0.29735 0.41873 0.70107
 C2563 C 0.29716 0.41502 0.68519
 C2564 C 0.30438 0.40107 0.68039
 C2565 C 0.31169 0.39121 0.69144
 C2566 C 0.31160 0.39549 0.70751
 O2567 O 0.30299 0.41493 0.72655
 C2568 C 0.29516 0.42815 0.72470
 C2569 C 0.29148 0.43103 0.70931
 C2570 C 0.28340 0.44425 0.70465
 C2571 C 0.27890 0.45494 0.71635
 C2572 C 0.28245 0.45218 0.73229
 C2573 C 0.29070 0.43860 0.73655
 H2574 H 0.29164 0.42260 0.67678
 H2575 H 0.30443 0.39811 0.66804
 H2576 H 0.31693 0.38820 0.71628
 H2577 H 0.28067 0.44626 0.69247
 H2578 H 0.27256 0.46535 0.71308
 H2579 H 0.29353 0.43630 0.74866
 C2580 C 0.29371 0.91617 0.20089
 C2581 C 0.28912 0.92670 0.18967
 C2582 C 0.29138 0.92419 0.17373
 C2583 C 0.29860 0.91019 0.16914
 C2584 C 0.30341 0.89900 0.18045
 C2585 C 0.30098 0.90216 0.19660
 O2586 O 0.29039 0.92083 0.21540
 C2587 C 0.28356 0.93460 0.21324
 C2588 C 0.28251 0.93872 0.19770
 C2589 C 0.27579 0.95264 0.19273
 C2590 C 0.26995 0.96280 0.20428
 C2591 C 0.27094 0.95885 0.22038
 C2592 C 0.27779 0.94453 0.22494
 H2593 H 0.28770 0.93269 0.16513
 H2594 H 0.30050 0.90819 0.15676
 H2595 H 0.30440 0.89389 0.20554
 H2596 H 0.27511 0.95560 0.18042
 H2597 H 0.26470 0.97375 0.20076
 H2598 H 0.27867 0.94132 0.23718
 C2599 C 0.80265 0.42016 0.20149
 C2600 C 0.81193 0.42772 0.21216
 C2601 C 0.82615 0.42207 0.21637
 C2602 C 0.83099 0.40794 0.20945
 C2603 C 0.82159 0.39959 0.19859
 C2604 C 0.80724 0.40598 0.19442
 O2605 O 0.78942 0.42747 0.19942
 C2606 C 0.79041 0.43985 0.20905
 C2607 C 0.80396 0.44048 0.21714
 C2608 C 0.80726 0.45205 0.22827
 C2609 C 0.79610 0.46347 0.23124
 C2610 C 0.78209 0.46323 0.22297
 C2611 C 0.77920 0.45127 0.21168
 H2612 H 0.83325 0.42828 0.22478
 H2613 H 0.84211 0.40357 0.21265
 H2614 H 0.79972 0.39994 0.18628
 H2615 H 0.81794 0.45215 0.23461
 H2616 H 0.79829 0.47250 0.24000
 H2617 H 0.76848 0.45076 0.20540
 C2618 C 0.79911 0.91906 0.70296
 C2619 C 0.80957 0.92568 0.71309
 C2620 C 0.82383 0.91915 0.71573
 C2621 C 0.82742 0.90516 0.70770
 C2622 C 0.81679 0.89799 0.69725
 C2623 C 0.80246 0.90519 0.69478
 O2624 O 0.78605 0.92689 0.70247
 C2625 C 0.78832 0.93869 0.71251
 C2626 C 0.80254 0.93850 0.71932
 C2627 C 0.80718 0.94955 0.73048
 C2628 C 0.79669 0.96122 0.73487
 C2629 C 0.78194 0.96157 0.72809
 C2630 C 0.77775 0.95022 0.71665
 H2631 H 0.83186 0.92455 0.72379
 H2632 H 0.83850 0.89997 0.70964
 H2633 H 0.79400 0.89998 0.68707
 H2634 H 0.81840 0.94910 0.73574
 H2635 H 0.79992 0.96989 0.74366
 H2636 H 0.76652 0.95027 0.71136
 C2637 C 0.70016 0.57487 0.69158
 C2638 C 0.68872 0.56534 0.69766
 C2639 C 0.67336 0.56932 0.69729
 C2640 C 0.66962 0.58384 0.69057
 C2641 C 0.68117 0.59406 0.68439
 C2642 C 0.69667 0.58935 0.68465
 O2643 O 0.71407 0.56917 0.69393
 C2644 C 0.71130 0.55581 0.70169
 C2645 C 0.69595 0.55295 0.70423
 C2646 C 0.69043 0.54011 0.71277
 C2647 C 0.70118 0.52981 0.71909
 C2648 C 0.71708 0.53250 0.71677
 C2649 C 0.72222 0.54558 0.70775
 H2650 H 0.66460 0.56166 0.70227
 H2651 H 0.65770 0.58716 0.69031
 H2652 H 0.70574 0.59701 0.68026
 H2653 H 0.67829 0.53825 0.71477
 H2654 H 0.69718 0.51986 0.72604
 H2655 H 0.73431 0.54792 0.70591
 C2656 C 0.69506 0.07789 0.20206
 C2657 C 0.68417 0.07020 0.21104
 C2658 C 0.66968 0.07628 0.21374
 C2659 C 0.66626 0.09090 0.20691
 C2660 C 0.67723 0.09907 0.19748
 C2661 C 0.69184 0.09237 0.19500
 O2662 O 0.70823 0.07023 0.20125
 C2663 C 0.70557 0.05740 0.20987
 C2664 C 0.69099 0.05678 0.21607
 C2665 C 0.68577 0.04439 0.22548
 C2666 C 0.69602 0.03217 0.22868
 C2667 C 0.71114 0.03265 0.22258
 C2668 C 0.71598 0.04542 0.21301
 H2669 H 0.66131 0.07003 0.22088
 H2670 H 0.65497 0.09570 0.20883
 H2671 H 0.70052 0.09835 0.18802
 H2672 H 0.67425 0.04417 0.23022
 H2673 H 0.69231 0.02242 0.23605
 H2674 H 0.72751 0.04601 0.20828
 C2675 C 0.20451 0.58627 0.19733
 C2676 C 0.21272 0.57897 0.18561
 C2677 C 0.21340 0.58462 0.17035
 C2678 C 0.20538 0.59844 0.16702
 C2679 C 0.19683 0.60634 0.17886
 C2680 C 0.19629 0.60002 0.19424
 O2681 O 0.20576 0.57913 0.21112
 C2682 C 0.21495 0.56708 0.20799
 C2683 C 0.21948 0.56646 0.19252
 C2684 C 0.22930 0.55501 0.18667
 C2685 C 0.23476 0.54375 0.19721
 C2686 C 0.23040 0.54418 0.21324
 C2687 C 0.22026 0.55595 0.21871
 H2688 H 0.21997 0.57866 0.16135
 H2689 H 0.20579 0.60291 0.15515
 H2690 H 0.19001 0.60582 0.20357
 H2691 H 0.23273 0.55483 0.17445
 H2692 H 0.24252 0.53478 0.19298
 H2693 H 0.21680 0.55649 0.23092
 C2694 C 0.20044 0.08873 0.72081
 C2695 C 0.19414 0.08724 0.73555
 C2696 C 0.18233 0.09673 0.74091
 C2697 C 0.17681 0.10827 0.73068
 C2698 C 0.18314 0.11020 0.71537
 C2699 C 0.19514 0.10014 0.71042
 O2700 O 0.21172 0.07865 0.71811
 C2701 C 0.21256 0.07068 0.73147
 C2702 C 0.20204 0.07549 0.74253
 C2703 C 0.20112 0.06898 0.75748
 C2704 C 0.21149 0.05704 0.76119
 C2705 C 0.22239 0.05187 0.74997
 C2706 C 0.22291 0.05874 0.73488
 H2707 H 0.17758 0.09537 0.75259
 H2708 H 0.16770 0.11573 0.73488
 H2709 H 0.20031 0.10115 0.69891
 H2710 H 0.19280 0.07304 0.76601
 H2711 H 0.21114 0.05183 0.77278
 H2712 H 0.23126 0.05503 0.72622
 C2713 C 0.30059 0.58633 0.29886
 C2714 C 0.28970 0.58017 0.30892
 C2715 C 0.28568 0.58736 0.32296
 C2716 C 0.29296 0.60169 0.32670
 C2717 C 0.30394 0.60866 0.31636
 C2718 C 0.30805 0.60065 0.30236
 O2719 O 0.30213 0.57789 0.28579
 C2720 C 0.29191 0.56624 0.28765
 C2721 C 0.28399 0.56717 0.30161
 C2722 C 0.27203 0.55691 0.30556
 C2723 C 0.26799 0.54522 0.29462
 C2724 C 0.27604 0.54392 0.28020
 C2725 C 0.28831 0.55446 0.27673
 H2726 H 0.27704 0.58228 0.33065
 H2727 H 0.28985 0.60741 0.33760
 H2728 H 0.31622 0.60573 0.29415
 H2729 H 0.26579 0.55810 0.31650
 H2730 H 0.25851 0.53727 0.29724
 H2731 H 0.29443 0.55380 0.26567
 C2732 C 0.31037 0.09432 0.81191
 C2733 C 0.32080 0.08897 0.80104
 C2734 C 0.33485 0.09641 0.79841
 C2735 C 0.33827 0.10995 0.80734
 C2736 C 0.32772 0.11572 0.81869
 C2737 C 0.31359 0.10767 0.82103
 O2738 O 0.29752 0.08578 0.81229
 C2739 C 0.29992 0.07479 0.80143
 C2740 C 0.31402 0.07617 0.79423
 C2741 C 0.31882 0.06598 0.78238
 C2742 C 0.30863 0.05393 0.77771
 C2743 C 0.29400 0.05242 0.78484
 C2744 C 0.28961 0.06293 0.79693
 H2745 H 0.34286 0.09201 0.78975
 H2746 H 0.34919 0.11582 0.80547
 H2747 H 0.30521 0.11183 0.82944
 H2748 H 0.32996 0.06732 0.77687
 H2749 H 0.31199 0.04589 0.76843
 H2750 H 0.27846 0.06198 0.80249
 C2751 C 0.79568 0.58118 0.79210
 C2752 C 0.80581 0.57524 0.78121
 C2753 C 0.81937 0.58288 0.77710
 C2754 C 0.82256 0.59740 0.78431
 C2755 C 0.81221 0.60409 0.79534
 C2756 C 0.79869 0.59567 0.79955
 O2757 O 0.78313 0.57226 0.79368
 C2758 C 0.78542 0.56054 0.78351
 C2759 C 0.79914 0.56188 0.77559
 C2760 C 0.80356 0.55152 0.76376
 C2761 C 0.79337 0.53927 0.75983
 C2762 C 0.77917 0.53755 0.76782
 C2763 C 0.77518 0.54823 0.77996
 H2764 H 0.82711 0.57796 0.76845
 H2765 H 0.83312 0.60346 0.78115
 H2766 H 0.79052 0.60055 0.80780
 H2767 H 0.81433 0.55301 0.75756
 H2768 H 0.79639 0.53117 0.75047
 H2769 H 0.76430 0.54723 0.78604
 C2770 C 0.79977 0.06669 0.29145
 C2771 C 0.79607 0.05555 0.30262
 C2772 C 0.79982 0.05730 0.31832
 C2773 C 0.80758 0.07120 0.32275
 C2774 C 0.81142 0.08302 0.31153
 C2775 C 0.80758 0.08059 0.29559
 O2776 O 0.79486 0.06282 0.27723
 C2777 C 0.78790 0.04895 0.27950
 C2778 C 0.78834 0.04398 0.29484
 C2779 C 0.78156 0.02992 0.29992
 C2780 C 0.77404 0.02056 0.28870
 C2781 C 0.77343 0.02540 0.27283
 C2782 C 0.78049 0.03980 0.26815
 H2783 H 0.79678 0.04836 0.32688
 H2784 H 0.81057 0.07269 0.33496
 H2785 H 0.81018 0.08940 0.28675
 H2786 H 0.78201 0.02631 0.31207
 H2787 H 0.76863 0.00955 0.29232
 H2788 H 0.78016 0.04370 0.25608
 C2789 C 0.69739 0.42509 0.29504
 C2790 C 0.70845 0.43066 0.30513
 C2791 C 0.71266 0.42260 0.31857
 C2792 C 0.70533 0.40809 0.32162
 C2793 C 0.69397 0.40202 0.31135
 C2794 C 0.68972 0.41081 0.29803
 O2795 O 0.69608 0.43389 0.28226
 C2796 C 0.70655 0.44521 0.28433
 C2797 C 0.71438 0.44380 0.29819
 C2798 C 0.72656 0.45370 0.30224
 C2799 C 0.73098 0.46542 0.29148
 C2800 C 0.72324 0.46694 0.27705
 C2801 C 0.71071 0.45686 0.27349
 H2802 H 0.72159 0.42708 0.32616
 H2803 H 0.70866 0.40147 0.33186
 H2804 H 0.68138 0.40624 0.28981
 H2805 H 0.73271 0.45216 0.31309
 H2806 H 0.74070 0.47302 0.29410
 H2807 H 0.70493 0.45761 0.26234
 C2808 C 0.68788 0.92044 0.78590
 C2809 C 0.68140 0.92269 0.77146
 C2810 C 0.67050 0.91236 0.76528
 C2811 C 0.66623 0.89911 0.77428
 C2812 C 0.67293 0.89636 0.78915
 C2813 C 0.68380 0.90740 0.79504
 O2814 O 0.69849 0.93121 0.78939
 C2815 C 0.69876 0.94045 0.77685
 C2816 C 0.68853 0.93577 0.76551
 C2817 C 0.68752 0.94330 0.75107
 C2818 C 0.69761 0.95604 0.74815
 C2819 C 0.70830 0.96094 0.75965
 C2820 C 0.70874 0.95318 0.77427
 H2821 H 0.66562 0.91430 0.75382
 H2822 H 0.65787 0.89096 0.76947
 H2823 H 0.68933 0.90580 0.80621
 H2824 H 0.67953 0.93928 0.74223
 H2825 H 0.69736 0.96189 0.73688
 H2826 H 0.71702 0.95658 0.78308
 C2827 C 0.20445 0.41363 0.81311
 C2828 C 0.19410 0.42399 0.80693
 C2829 C 0.17847 0.42080 0.80646
 C2830 C 0.17330 0.40627 0.81251
 C2831 C 0.18370 0.39535 0.81899
 C2832 C 0.19951 0.39920 0.81945
 O2833 O 0.21887 0.41863 0.81166
 C2834 C 0.21757 0.43245 0.80443
 C2835 C 0.20263 0.43629 0.80136
 C2836 C 0.19860 0.44998 0.79348
 C2837 C 0.21047 0.46007 0.78841
 C2838 C 0.22598 0.45629 0.79121
 C2839 C 0.22958 0.44233 0.79946
 H2840 H 0.17058 0.42909 0.80139
 H2841 H 0.16117 0.40356 0.81216
 H2842 H 0.20775 0.39100 0.82407
 H2843 H 0.18677 0.45267 0.79110
 H2844 H 0.20766 0.47067 0.78200
 H2845 H 0.24135 0.43914 0.80159
 C2846 C 0.19200 0.91481 0.29727
 C2847 C 0.18122 0.92527 0.29212
 C2848 C 0.16556 0.92234 0.29360
 C2849 C 0.16087 0.90814 0.30085
 C2850 C 0.17181 0.89731 0.30652
 C2851 C 0.18761 0.90072 0.30449
 O2852 O 0.20628 0.91980 0.29493
 C2853 C 0.20451 0.93377 0.28821
 C2854 C 0.18941 0.93772 0.28624
 C2855 C 0.18502 0.95202 0.27970
 C2856 C 0.19668 0.96259 0.27494
 C2857 C 0.21229 0.95865 0.27675
 C2858 C 0.21625 0.94405 0.28351
 H2859 H 0.15727 0.93075 0.28949
 H2860 H 0.14874 0.90583 0.30238
 H2861 H 0.19632 0.89273 0.30850
 H2862 H 0.17308 0.95494 0.27834
 H2863 H 0.19362 0.97380 0.26978
 H2864 H 0.22811 0.94086 0.28508
 C2865 C 0.42747 0.29874 0.70651
 C2866 C 0.43594 0.31161 0.71146
 C2867 C 0.43090 0.32707 0.71004
 C2868 C 0.41649 0.32936 0.70330
 C2869 C 0.40758 0.31628 0.69800
 C2870 C 0.41326 0.30077 0.69949
 O2871 O 0.43391 0.28502 0.70980
 C2872 C 0.44674 0.28931 0.71696
 C2873 C 0.44859 0.30546 0.71818
 C2874 C 0.46099 0.31253 0.72569
 C2875 C 0.47184 0.30254 0.73239
 C2876 C 0.46997 0.28589 0.73157
 C2877 C 0.45734 0.27916 0.72362
 H2878 H 0.43768 0.33700 0.71422
 H2879 H 0.41229 0.34130 0.70219
 H2880 H 0.40658 0.29055 0.69584
 H2881 H 0.46214 0.32526 0.72659
 H2882 H 0.48146 0.30768 0.73859
 H2883 H 0.45564 0.26646 0.72307
 C2884 C 0.41140 0.79762 0.19884
 C2885 C 0.41954 0.81025 0.20486
 C2886 C 0.41425 0.82567 0.20443
 C2887 C 0.39996 0.82820 0.19757
 C2888 C 0.39135 0.81543 0.19114
 C2889 C 0.39726 0.79991 0.19167
 O2890 O 0.41819 0.78384 0.20112
 C2891 C 0.43089 0.78788 0.20869
 C2892 C 0.43230 0.80393 0.21117
 C2893 C 0.44457 0.81075 0.21911
 C2894 C 0.45580 0.80061 0.22487
 C2895 C 0.45446 0.78404 0.22273
 C2896 C 0.44189 0.77756 0.21443
 H2897 H 0.42080 0.83539 0.20939
 H2898 H 0.39566 0.84015 0.19716
 H2899 H 0.39085 0.78992 0.18706
 H2900 H 0.44538 0.82341 0.22096
 H2901 H 0.46537 0.80558 0.23129
 H2902 H 0.44061 0.76491 0.21280
 C2903 C 0.92675 0.30108 0.21144
 C2904 C 0.93475 0.29542 0.19868
 C2905 C 0.92912 0.29595 0.18349
 C2906 C 0.91458 0.30242 0.18139
 C2907 C 0.90617 0.30842 0.19433
 C2908 C 0.91244 0.30799 0.20954
 O2909 O 0.93349 0.29809 0.22500
 C2910 C 0.94602 0.29041 0.22070
 C2911 C 0.94739 0.28860 0.20470
 C2912 C 0.95919 0.28017 0.19768
 C2913 C 0.96989 0.27312 0.20755
 C2914 C 0.96846 0.27446 0.22404
 C2915 C 0.95650 0.28341 0.23073
 H2916 H 0.93547 0.29108 0.17370
 H2917 H 0.90976 0.30260 0.16973
 H2918 H 0.90601 0.31209 0.21964
 H2919 H 0.95990 0.27873 0.18508
 H2920 H 0.97896 0.26612 0.20243
 H2921 H 0.95507 0.28429 0.24332
 C2922 C 0.91896 0.79284 0.68896
 C2923 C 0.92720 0.80442 0.69665
 C2924 C 0.92179 0.81963 0.69899
 C2925 C 0.90719 0.82301 0.69336
 C2926 C 0.89835 0.81129 0.68548
 C2927 C 0.90445 0.79604 0.68301
 O2928 O 0.92592 0.77894 0.68881
 C2929 C 0.93878 0.78185 0.69657
 C2930 C 0.94011 0.79730 0.70156
 C2931 C 0.95232 0.80286 0.71044
 C2932 C 0.96362 0.79202 0.71446
 C2933 C 0.96248 0.77599 0.70964
 C2934 C 0.94995 0.77085 0.70042
 H2935 H 0.92845 0.82847 0.70521
 H2936 H 0.90274 0.83477 0.69523
 H2937 H 0.89784 0.78681 0.67727
 H2938 H 0.95299 0.81504 0.71434
 H2939 H 0.97315 0.79598 0.72157
 H2940 H 0.94881 0.75863 0.69672
 C2941 C 0.58208 0.29640 0.30921
 C2942 C 0.57207 0.30800 0.30484
 C2943 C 0.57574 0.32402 0.30544
 C2944 C 0.59041 0.32829 0.31059
 C2945 C 0.60102 0.31662 0.31513
 C2946 C 0.59669 0.30042 0.31465
 O2947 O 0.57655 0.28186 0.30693
 C2948 C 0.56276 0.28437 0.30100
 C2949 C 0.55948 0.30018 0.29956
 C2950 C 0.54593 0.30556 0.29315
 C2951 C 0.53535 0.29419 0.28789
 C2952 C 0.53848 0.27782 0.28905
 C2953 C 0.55235 0.27282 0.29583
 H2954 H 0.56770 0.33290 0.30178
 H2955 H 0.59351 0.34073 0.31098
 H2956 H 0.60464 0.29125 0.31777
 H2957 H 0.54370 0.31807 0.29201
 H2958 H 0.52481 0.29809 0.28261
 H2959 H 0.55503 0.26038 0.29671
 C2960 C 0.58439 0.78404 0.78946
 C2961 C 0.57833 0.77443 0.80097
 C2962 C 0.58497 0.77290 0.81563
 C2963 C 0.59842 0.78161 0.81854
 C2964 C 0.60490 0.79168 0.80689
 C2965 C 0.59770 0.79289 0.79213
 O2966 O 0.57634 0.78378 0.77632
 C2967 C 0.56492 0.77382 0.77964
 C2968 C 0.56558 0.76780 0.79459
 C2969 C 0.55463 0.75732 0.80058
 C2970 C 0.54250 0.75290 0.79075
 C2971 C 0.54166 0.75891 0.77530
 C2972 C 0.55303 0.76948 0.76964
 H2973 H 0.57996 0.76528 0.82452
 H2974 H 0.60364 0.78063 0.82996
 H2975 H 0.60235 0.80034 0.78293
 H2976 H 0.55536 0.75280 0.81241
 H2977 H 0.53374 0.74483 0.79510
 H2978 H 0.55250 0.77426 0.75789
 C2979 C 0.07621 0.30059 0.80079
 C2980 C 0.06851 0.29091 0.81120
 C2981 C 0.07413 0.28737 0.82597
 C2982 C 0.08832 0.29399 0.83014
 C2983 C 0.09647 0.30406 0.81965
 C2984 C 0.09021 0.30757 0.80483
 O2985 O 0.06929 0.30171 0.78704
 C2986 C 0.05695 0.29256 0.78883
 C2987 C 0.05589 0.28575 0.80345
 C2988 C 0.04408 0.27541 0.80772
 C2989 C 0.03296 0.27186 0.79643
 C2990 C 0.03397 0.27853 0.78124
 C2991 C 0.04607 0.28909 0.77739
 H2992 H 0.06794 0.27956 0.83388
 H2993 H 0.09298 0.29125 0.84152
 H2994 H 0.09632 0.31496 0.79648
 H2995 H 0.04355 0.27013 0.81926
 H2996 H 0.02372 0.26371 0.79934
 H2997 H 0.04708 0.29418 0.76579
 C2998 C 0.07496 0.78980 0.31649
 C2999 C 0.07368 0.77594 0.32482
 C3000 C 0.08292 0.77258 0.33754
 C3001 C 0.09395 0.78396 0.34185
 C3002 C 0.09561 0.79838 0.33342
 C3003 C 0.08588 0.80127 0.32054
 O3004 O 0.06516 0.79060 0.30470
 C3005 C 0.05756 0.77693 0.30559
 C3006 C 0.06235 0.76751 0.31769
 C3007 C 0.05614 0.75256 0.32059
 C3008 C 0.04455 0.74708 0.31056
 C3009 C 0.03943 0.75659 0.29805
 C3010 C 0.04597 0.77175 0.29556
 H3011 H 0.08175 0.76155 0.34387
 H3012 H 0.10131 0.78135 0.35162
 H3013 H 0.08670 0.81210 0.31385
 H3014 H 0.06016 0.74533 0.33013
 H3015 H 0.03958 0.73543 0.31244
 H3016 H 0.04228 0.77913 0.28598
 C3017 C 0.57293 0.69448 0.68570
 C3018 C 0.56310 0.68218 0.68938
 C3019 C 0.56710 0.66640 0.68762
 C3020 C 0.58187 0.66317 0.68199
 C3021 C 0.59223 0.67565 0.67817
 C3022 C 0.58756 0.69154 0.67980
 O3023 O 0.56742 0.70855 0.68948
 C3024 C 0.55383 0.70507 0.69571
 C3025 C 0.55059 0.68909 0.69585
 C3026 C 0.53742 0.68276 0.70276
 C3027 C 0.52732 0.69330 0.71009
 C3028 C 0.53064 0.70974 0.71044
 C3029 C 0.54392 0.71574 0.70286
 H3030 H 0.55928 0.65691 0.69087
 H3031 H 0.58529 0.65096 0.68078
 H3032 H 0.59535 0.70130 0.67738
 H3033 H 0.53523 0.67013 0.70294
 H3034 H 0.51723 0.68866 0.71601
 H3035 H 0.54679 0.72823 0.70324
 C3036 C 0.57658 0.19733 0.20824
 C3037 C 0.56745 0.20393 0.19699
 C3038 C 0.57106 0.20355 0.18111
 C3039 C 0.58472 0.19622 0.17662
 C3040 C 0.59445 0.18940 0.18796
 C3041 C 0.59017 0.18982 0.20401
 O3042 O 0.57125 0.19945 0.22273
 C3043 C 0.55851 0.20756 0.22055
 C3044 C 0.55567 0.21057 0.20500
 C3045 C 0.54316 0.21917 0.20003
 C3046 C 0.53314 0.22493 0.21156
 C3047 C 0.53579 0.22203 0.22767
 C3048 C 0.54866 0.21318 0.23224
 H3049 H 0.56371 0.20889 0.17250
 H3050 H 0.58769 0.19589 0.16428
 H3051 H 0.59742 0.18492 0.21297
 H3052 H 0.54124 0.22147 0.18773
 H3053 H 0.52337 0.23179 0.20801
 H3054 H 0.55095 0.21089 0.24448
 C3055 C 0.08076 0.68904 0.20940
 C3056 C 0.07091 0.69494 0.19841
 C3057 C 0.07433 0.69548 0.18252
 C3058 C 0.08867 0.69004 0.17773
 C3059 C 0.09931 0.68426 0.18877
 C3060 C 0.09515 0.68339 0.20484
 O3061 O 0.07542 0.69039 0.22399
 C3062 C 0.06198 0.69737 0.22210
 C3063 C 0.05876 0.70040 0.20665
 C3064 C 0.04581 0.70841 0.20192
 C3065 C 0.03570 0.71354 0.21362
 C3066 C 0.03859 0.71050 0.22967
 C3067 C 0.05190 0.70217 0.23397
 H3068 H 0.06639 0.70026 0.17415
 H3069 H 0.09159 0.69060 0.16538
 H3070 H 0.10312 0.67927 0.21354
 H3071 H 0.04370 0.71087 0.18969
 H3072 H 0.02563 0.72001 0.21022
 H3073 H 0.05441 0.69980 0.24614
 C3074 C 0.07623 0.20958 0.69520
 C3075 C 0.06595 0.19777 0.69915
 C3076 C 0.06943 0.18180 0.69811
 C3077 C 0.08420 0.17783 0.69303
 C3078 C 0.09505 0.18976 0.68893
 C3079 C 0.09091 0.20588 0.68974
 O3080 O 0.07097 0.22399 0.69816
 C3081 C 0.05709 0.22117 0.70409
 C3082 C 0.05347 0.20531 0.70487
 C3083 C 0.03982 0.19962 0.71132
 C3084 C 0.02951 0.21073 0.71733
 C3085 C 0.03305 0.22712 0.71688
 C3086 C 0.04699 0.23244 0.71004
 H3087 H 0.06124 0.17273 0.70154
 H3088 H 0.08728 0.16547 0.69252
 H3089 H 0.09912 0.21520 0.68707
 H3090 H 0.03731 0.18707 0.71195
 H3091 H 0.01890 0.20660 0.72263
 H3092 H 0.04998 0.24490 0.70974
 C3093 C 0.41381 0.70553 0.30311
 C3094 C 0.42260 0.71230 0.31469
 C3095 C 0.41840 0.71200 0.33043
 C3096 C 0.40448 0.70456 0.33439
 C3097 C 0.39510 0.69756 0.32268
 C3098 C 0.39998 0.69791 0.30681
 O3099 O 0.41967 0.70760 0.28883
 C3100 C 0.43243 0.71585 0.29148
 C3101 C 0.43476 0.71900 0.30712
 C3102 C 0.44723 0.72775 0.31253
 C3103 C 0.45774 0.73350 0.30135
 C3104 C 0.45557 0.73046 0.28516
 C3105 C 0.44274 0.72146 0.28015
 H3106 H 0.42549 0.71747 0.33932
 H3107 H 0.40102 0.70429 0.34660
 H3108 H 0.39301 0.69289 0.29756
 H3109 H 0.44877 0.73015 0.32489
 H3110 H 0.46752 0.74042 0.30522
 H3111 H 0.44085 0.71905 0.26784
 C3112 C 0.42585 0.21695 0.81819
 C3113 C 0.43403 0.22491 0.82951
 C3114 C 0.42945 0.22544 0.84513
 C3115 C 0.41582 0.21750 0.84924
 C3116 C 0.40708 0.20923 0.83778
 C3117 C 0.41229 0.20894 0.82202
 O3118 O 0.43217 0.21798 0.80403
 C3119 C 0.44461 0.22677 0.80647
 C3120 C 0.44629 0.23132 0.82187
 C3121 C 0.45851 0.24060 0.82704
 C3122 C 0.46949 0.24534 0.81585
 C3123 C 0.46800 0.24075 0.79994
 C3124 C 0.45537 0.23137 0.79517
 H3125 H 0.43611 0.23175 0.85383
 H3126 H 0.41221 0.21776 0.86139
 H3127 H 0.40592 0.20289 0.81293
 H3128 H 0.45958 0.24403 0.83922
 H3129 H 0.47916 0.25254 0.81952
 H3130 H 0.45405 0.22771 0.78307
 C3131 C 0.92528 0.69198 0.78328
 C3132 C 0.92840 0.68187 0.77103
 C3133 C 0.91877 0.66938 0.76692
 C3134 C 0.90526 0.66734 0.77567
 C3135 C 0.90156 0.67779 0.78818
 C3136 C 0.91192 0.69013 0.79219
 O3137 O 0.93545 0.70369 0.78456
 C3138 C 0.94513 0.70094 0.77282
 C3139 C 0.94131 0.68773 0.76417
 C3140 C 0.94911 0.68339 0.75057
 C3141 C 0.96119 0.69324 0.74554
 C3142 C 0.96524 0.70697 0.75419
 C3143 C 0.95731 0.71070 0.76820
 H3144 H 0.92140 0.66168 0.75713
 H3145 H 0.89764 0.65768 0.77252
 H3146 H 0.90935 0.69848 0.80146
 H3147 H 0.94568 0.67313 0.74379
 H3148 H 0.96713 0.69049 0.73470
 H3149 H 0.96000 0.72136 0.77474
 C3150 C 0.91780 0.18971 0.29239
 C3151 C 0.92485 0.17844 0.28329
 C3152 C 0.91875 0.16335 0.28110
 C3153 C 0.90480 0.15972 0.28857
 C3154 C 0.89726 0.17108 0.29810
 C3155 C 0.90397 0.18630 0.30007
 O3156 O 0.92543 0.20340 0.29271
 C3157 C 0.93755 0.20067 0.28364
 C3158 C 0.93775 0.18555 0.27764
 C3159 C 0.94938 0.18013 0.26785
 C3160 C 0.96128 0.19076 0.26405
 C3161 C 0.96126 0.20643 0.26998
 C3162 C 0.94924 0.21147 0.27993
 H3163 H 0.92451 0.15469 0.27387
 H3164 H 0.90000 0.14796 0.28704
 H3165 H 0.89849 0.19528 0.30714
 H3166 H 0.94928 0.16817 0.26328
 H3167 H 0.97046 0.18689 0.25640
 H3168 H 0.94903 0.22340 0.28457
 C3169 C 0.30715 0.29182 0.58668
 C3170 C 0.31667 0.28082 0.57998
 C3171 C 0.33078 0.27704 0.58632
 C3172 C 0.33522 0.28491 0.60013
 C3173 C 0.32559 0.29633 0.60726
 C3174 C 0.31136 0.29981 0.60031
 O3175 O 0.29404 0.29336 0.57914
 C3176 C 0.29529 0.28313 0.56740
 C3177 C 0.30894 0.27516 0.56734
 C3178 C 0.31243 0.26358 0.55627
 C3179 C 0.30133 0.26000 0.54493
 C3180 C 0.28717 0.26799 0.54492
 C3181 C 0.28415 0.27979 0.55623
 H3182 H 0.33806 0.26828 0.58090
 H3183 H 0.34619 0.28214 0.60516
 H3184 H 0.30357 0.30823 0.60550
 H3185 H 0.32319 0.25737 0.55652
 H3186 H 0.30358 0.25084 0.53633
 H3187 H 0.27331 0.28585 0.55652
 C3188 C 0.30905 0.79388 0.07180
 C3189 C 0.30843 0.80550 0.06057
 C3190 C 0.31363 0.82087 0.06310
 C3191 C 0.31936 0.82456 0.07796
 C3192 C 0.31981 0.81295 0.08993
 C3193 C 0.31493 0.79725 0.08668
 O3194 O 0.30251 0.78036 0.06725
 C3195 C 0.29761 0.78359 0.05290
 C3196 C 0.30095 0.79883 0.04830
 C3197 C 0.29601 0.80514 0.03423
 C3198 C 0.28720 0.79536 0.02445
 C3199 C 0.28360 0.77956 0.02882
 C3200 C 0.28903 0.77354 0.04321
 H3201 H 0.31284 0.82984 0.05412
 H3202 H 0.32309 0.83659 0.08028
 H3203 H 0.31479 0.78828 0.09571
 H3204 H 0.29854 0.81728 0.03104
 H3205 H 0.28297 0.80012 0.01356
 H3206 H 0.28631 0.76158 0.04689
 C3207 C 0.80216 0.29139 0.09634
 C3208 C 0.81054 0.27801 0.09349
 C3209 C 0.82230 0.27316 0.10307
 C3210 C 0.82554 0.28239 0.11628
 C3211 C 0.81699 0.29619 0.11982
 C3212 C 0.80521 0.30086 0.10952
 O3213 O 0.79136 0.29365 0.08568
 C3214 C 0.79301 0.28140 0.07599
 C3215 C 0.80461 0.27150 0.08032
 C3216 C 0.80822 0.25777 0.07216
 C3217 C 0.79949 0.25403 0.05894
 C3218 C 0.78753 0.26402 0.05414
 C3219 C 0.78422 0.27794 0.06274
 H3220 H 0.82877 0.26261 0.10049
 H3221 H 0.83486 0.27871 0.12362
 H3222 H 0.79847 0.31128 0.11184
 H3223 H 0.81736 0.25016 0.07591
 H3224 H 0.80199 0.24335 0.05240
 H3225 H 0.77504 0.28566 0.05928
 C3226 C 0.80047 0.79957 0.57887
 C3227 C 0.79297 0.81136 0.57107
 C3228 C 0.79219 0.82678 0.57667
 C3229 C 0.79934 0.83018 0.59098
 C3230 C 0.80716 0.81825 0.59930
 C3231 C 0.80787 0.80275 0.59303
 O3232 O 0.79924 0.78556 0.57186
 C3233 C 0.79079 0.78860 0.55936
 C3234 C 0.78672 0.80424 0.55831
 C3235 C 0.77754 0.80996 0.54640
 C3236 C 0.77225 0.79911 0.53516
 C3237 C 0.77613 0.78291 0.53608
 C3238 C 0.78562 0.77759 0.54831
 H3239 H 0.78611 0.83582 0.57038
 H3240 H 0.79878 0.84212 0.59554
 H3241 H 0.81354 0.79334 0.59922
 H3242 H 0.77440 0.82230 0.54590
 H3243 H 0.76488 0.80320 0.52589
 H3244 H 0.78860 0.76524 0.54931
 C3245 C 0.29058 0.71006 0.42249
 C3246 C 0.28043 0.69881 0.42808
 C3247 C 0.27765 0.68457 0.42040
 C3248 C 0.28555 0.68185 0.40631
 C3249 C 0.29609 0.69326 0.40026
 C3250 C 0.29876 0.70750 0.40860
 O3251 O 0.29102 0.72306 0.43125
 C3252 C 0.28095 0.71992 0.44259
 C3253 C 0.27421 0.70519 0.44122
 C3254 C 0.26305 0.69961 0.45160
 C3255 C 0.25858 0.70968 0.46385
 C3256 C 0.26521 0.72497 0.46536
 C3257 C 0.27663 0.73014 0.45466
 H3258 H 0.26952 0.67596 0.42497
 H3259 H 0.28349 0.67082 0.40017
 H3260 H 0.30657 0.71649 0.40417
 H3261 H 0.25787 0.68801 0.45021
 H3262 H 0.24979 0.70575 0.47202
 H3263 H 0.28175 0.74183 0.45558
 C3264 C 0.30205 0.19129 0.94392
 C3265 C 0.31250 0.19692 0.95464
 C3266 C 0.32816 0.19734 0.95166
 C3267 C 0.33322 0.19204 0.93695
 C3268 C 0.32267 0.18640 0.92561
 C3269 C 0.30688 0.18564 0.92931
 O3270 O 0.28764 0.19353 0.94836
 C3271 C 0.28904 0.20080 0.96211
 C3272 C 0.30401 0.20310 0.96652
 C3273 C 0.30814 0.21183 0.97972
 C3274 C 0.29636 0.21880 0.98853
 C3275 C 0.28088 0.21699 0.98395
 C3276 C 0.27716 0.20743 0.97083
 H3277 H 0.33613 0.20218 0.96011
 H3278 H 0.34534 0.19272 0.93422
 H3279 H 0.29856 0.18188 0.92068
 H3280 H 0.32002 0.21378 0.98274
 H3281 H 0.29930 0.22622 0.99846
 H3282 H 0.26544 0.20613 0.96695
 C3283 C 0.80815 0.70174 0.90779
 C3284 C 0.81964 0.70953 0.91573
 C3285 C 0.83487 0.70911 0.91100
 C3286 C 0.83840 0.70048 0.89741
 C3287 C 0.82676 0.69245 0.88887
 C3288 C 0.81142 0.69294 0.89431
 O3289 O 0.79437 0.70405 0.91401
 C3290 C 0.79725 0.71350 0.92613
 C3291 C 0.81254 0.71719 0.92771
 C3292 C 0.81808 0.72713 0.93945
 C3293 C 0.80742 0.73347 0.95005
 C3294 C 0.79161 0.72982 0.94868
 C3295 C 0.78645 0.71972 0.93653
 H3296 H 0.84370 0.71538 0.91743
 H3297 H 0.85021 0.70014 0.89352
 H3298 H 0.80225 0.68714 0.88796
 H3299 H 0.83016 0.72992 0.94039
 H3300 H 0.81140 0.74124 0.95932
 H3301 H 0.77442 0.71681 0.93526
 C3302 C 0.81489 0.19160 0.41780
 C3303 C 0.80999 0.18040 0.42844
 C3304 C 0.81219 0.16431 0.42627
 C3305 C 0.81940 0.15949 0.41238
 C3306 C 0.82408 0.17069 0.40086
 C3307 C 0.82212 0.18705 0.40383
 O3308 O 0.81102 0.20621 0.42189
 C3309 C 0.80342 0.20412 0.43530
 C3310 C 0.80242 0.18852 0.43974
 C3311 C 0.79406 0.18344 0.45274
 C3312 C 0.78636 0.19493 0.46154
 C3313 C 0.78734 0.21116 0.45740
 C3314 C 0.79617 0.21582 0.44415
 H3315 H 0.80819 0.15574 0.43482
 H3316 H 0.82102 0.14696 0.41052
 H3317 H 0.82533 0.19589 0.39522
 H3318 H 0.79318 0.17104 0.45578
 H3319 H 0.77949 0.19120 0.47152
 H3320 H 0.79701 0.22810 0.44064
 C3321 C 0.71330 0.29125 0.40286
 C3322 C 0.72796 0.29733 0.40319
 C3323 C 0.73389 0.30710 0.39158
 C3324 C 0.72431 0.31090 0.37911
 C3325 C 0.70901 0.30495 0.37839
 C3326 C 0.70349 0.29490 0.39053
 O3327 O 0.71008 0.28202 0.41507
 C3328 C 0.72300 0.28233 0.42322
 C3329 C 0.73427 0.29157 0.41642
 C3330 C 0.74878 0.29347 0.42277
 C3331 C 0.75190 0.28535 0.43666
 C3332 C 0.74053 0.27567 0.44382
 C3333 C 0.72583 0.27420 0.43711
 H3334 H 0.74548 0.31171 0.39212
 H3335 H 0.72895 0.31867 0.37021
 H3336 H 0.69197 0.29007 0.39042
 H3337 H 0.75745 0.30079 0.41715
 H3338 H 0.76317 0.28639 0.44177
 H3339 H 0.71708 0.26671 0.44237
 C3340 C 0.70641 0.79872 0.90367
 C3341 C 0.71118 0.81097 0.91316
 C3342 C 0.70865 0.82675 0.90958
 C3343 C 0.70089 0.83004 0.89564
 C3344 C 0.69578 0.81762 0.88565
 C3345 C 0.69861 0.80171 0.88982
 O3346 O 0.71004 0.78458 0.90914
 C3347 C 0.71724 0.78797 0.92239
 C3348 C 0.71822 0.80396 0.92541
 C3349 C 0.72522 0.81014 0.93870
 C3350 C 0.73149 0.79940 0.94931
 C3351 C 0.73071 0.78290 0.94639
 C3352 C 0.72346 0.77709 0.93275
 H3353 H 0.71250 0.83619 0.91724
 H3354 H 0.69873 0.84227 0.89277
 H3355 H 0.69504 0.79193 0.88245
 H3356 H 0.72581 0.82276 0.94084
 H3357 H 0.73700 0.80386 0.95979
 H3358 H 0.72268 0.76452 0.93037
 C3359 C 0.20348 0.28839 0.91773
 C3360 C 0.20325 0.27221 0.91605
 C3361 C 0.19792 0.26464 0.90266
 C3362 C 0.19237 0.27411 0.89058
 C3363 C 0.19221 0.29086 0.89204
 C3364 C 0.19807 0.29809 0.90579
 O3365 O 0.20888 0.29313 0.93152
 C3366 C 0.21210 0.27962 0.93865
 C3367 C 0.20884 0.26649 0.92965
 C3368 C 0.21117 0.25113 0.93480
 C3369 C 0.21725 0.24920 0.94982
 C3370 C 0.22085 0.26252 0.95929
 C3371 C 0.21816 0.27797 0.95367
 H3372 H 0.19791 0.25187 0.90162
 H3373 H 0.18816 0.26833 0.88010
 H3374 H 0.19800 0.31080 0.90735
 H3375 H 0.20845 0.24100 0.92750
 H3376 H 0.21926 0.23736 0.95409
 H3377 H 0.22086 0.28830 0.96071
 C3378 C 0.19773 0.81330 0.42922
 C3379 C 0.21127 0.82167 0.43036
 C3380 C 0.21572 0.83311 0.41953
 C3381 C 0.20586 0.83597 0.40698
 C3382 C 0.19186 0.82739 0.40542
 C3383 C 0.18772 0.81599 0.41687
 O3384 O 0.19600 0.80243 0.44031
 C3385 C 0.20873 0.80395 0.44859
 C3386 C 0.21847 0.81558 0.44300
 C3387 C 0.23283 0.81856 0.44938
 C3388 C 0.23743 0.80902 0.46190
 C3389 C 0.22762 0.79690 0.46773
 C3390 C 0.21299 0.79447 0.46113
 H3391 H 0.22649 0.83947 0.42060
 H3392 H 0.20922 0.84487 0.39850
 H3393 H 0.17728 0.80905 0.41597
 H3394 H 0.24039 0.82761 0.44462
 H3395 H 0.24872 0.81073 0.46680
 H3396 H 0.20550 0.78503 0.46520
 C3397 C 0.70489 0.69721 0.58061
 C3398 C 0.69372 0.70338 0.57123
 C3399 C 0.67834 0.70345 0.57546
 C3400 C 0.67429 0.69693 0.59001
 C3401 C 0.68553 0.69038 0.59991
 C3402 C 0.70106 0.69037 0.59505
 O3403 O 0.71890 0.69904 0.57463
 C3404 C 0.71646 0.70651 0.56119
 C3405 C 0.70122 0.70933 0.55856
 C3406 C 0.69602 0.71727 0.54543
 C3407 C 0.70700 0.72267 0.53461
 C3408 C 0.72279 0.72018 0.53714
 C3409 C 0.72762 0.71187 0.55057
 H3410 H 0.66979 0.70852 0.56793
 H3411 H 0.66235 0.69690 0.59350
 H3412 H 0.70990 0.68563 0.60246
 H3413 H 0.68396 0.71940 0.54369
 H3414 H 0.70328 0.72911 0.52438
 H3415 H 0.73965 0.70997 0.55278
 C3416 C 0.70336 0.19024 0.08329
 C3417 C 0.69286 0.19631 0.07304
 C3418 C 0.67722 0.19620 0.07610
 C3419 C 0.67219 0.18977 0.09038
 C3420 C 0.68275 0.18352 0.10125
 C3421 C 0.69856 0.18351 0.09750
 O3422 O 0.71774 0.19244 0.07853
 C3423 C 0.71626 0.20007 0.06502
 C3424 C 0.70125 0.20266 0.06113
 C3425 C 0.69705 0.21106 0.04787
 C3426 C 0.70881 0.21720 0.03831
 C3427 C 0.72437 0.21493 0.04219
 C3428 C 0.72815 0.20602 0.05562
 H3429 H 0.66921 0.20123 0.06793
 H3430 H 0.66005 0.18979 0.09304
 H3431 H 0.70689 0.17912 0.10569
 H3432 H 0.68516 0.21309 0.04516
 H3433 H 0.70585 0.22404 0.02808
 H3434 H 0.73996 0.20424 0.05886
 C3435 C 0.20008 0.71065 0.07828
 C3436 C 0.18883 0.71904 0.07091
 C3437 C 0.17400 0.72004 0.07674
 C3438 C 0.17061 0.71212 0.09077
 C3439 C 0.18198 0.70336 0.09868
 C3440 C 0.19694 0.70259 0.09223
 O3441 O 0.21347 0.71135 0.07080
 C3442 C 0.21056 0.72034 0.05846
 C3443 C 0.19564 0.72532 0.05797
 C3444 C 0.19010 0.73484 0.04607
 C3445 C 0.20037 0.73943 0.03416
 C3446 C 0.21580 0.73448 0.03443
 C3447 C 0.22098 0.72481 0.04676
 H3448 H 0.16534 0.72669 0.07070
 H3449 H 0.15904 0.71270 0.09531
 H3450 H 0.20592 0.69613 0.09797
 H3451 H 0.17830 0.73860 0.04596
 H3452 H 0.19638 0.74687 0.02476
 H3453 H 0.23273 0.72090 0.04716
 C3454 C 0.19996 0.19972 0.58993
 C3455 C 0.20659 0.18749 0.58178
 C3456 C 0.20591 0.17191 0.58688
 C3457 C 0.19816 0.16879 0.60103
 C3458 C 0.19122 0.18117 0.60973
 C3459 C 0.19204 0.19686 0.60397
 O3460 O 0.20232 0.21373 0.58325
 C3461 C 0.21062 0.21024 0.57060
 C3462 C 0.21350 0.19434 0.56914
 C3463 C 0.22215 0.18809 0.55688
 C3464 C 0.22810 0.19869 0.54569
 C3465 C 0.22539 0.21512 0.54702
 C3466 C 0.21647 0.22099 0.55961
 H3467 H 0.21126 0.16249 0.58028
 H3468 H 0.19754 0.15670 0.60513
 H3469 H 0.18704 0.20661 0.61039
 H3470 H 0.22430 0.17554 0.55602
 H3471 H 0.23493 0.19418 0.53606
 H3472 H 0.21431 0.23352 0.56084
   
