data_POSCAR
  _audit_creation_date              2014-09-24
  _audit_creation_method            'ToBaCCo'
  _symmetry_space_group_name_H-M    'P1'
  _symmetry_Int_Tables_number       1
  _symmetry_cell_setting            triclinic
  loop_
  _symmetry_equiv_pos_as_xyz
 x,y,z
_cell_length_a 79.3820
_cell_length_b 79.1402
_cell_length_c 79.6645
_cell_angle_alpha 90.023800
_cell_angle_beta 90.463800
_cell_angle_gamma 89.946000
loop_
  _atom_site_label
  _atom_site_type_symbol
  _atom_site_fract_x
  _atom_site_fract_y
  _atom_site_fract_z
N1 N 0.31473 0.43440 0.94089
 N2 N 0.43628 0.81592 0.43183
 N3 N 0.93186 0.93550 0.81719
 N4 N 0.42743 -0.06454 0.31777
 N5 N 0.81845 0.32109 0.31377
 N6 N -0.17771 0.82036 0.82232
 N7 N 0.93614 0.31416 0.42920
 N8 N 0.43778 0.43123 0.81310
 N9 N 0.81247 0.94050 0.93522
 N10 N 0.31061 0.81199 0.31725
 N11 N 0.81033 0.43997 0.43993
 N12 N 0.93778 0.81177 -0.06847
 N13 N 0.31260 0.30601 0.81203
 N14 N 0.18720 0.55976 0.56777
 N15 N 0.56553 0.68760 0.06117
 N16 N 0.68518 0.18609 0.68006
 N17 N 1.05186 0.05890 0.19267
 N18 N 0.07395 0.18174 1.06224
 N19 N 0.18813 0.68391 0.68971
 N20 N 1.18427 0.18329 0.18460
 N21 N 0.68283 1.06577 0.56215
 N22 N 0.56728 0.57180 0.18099
 N23 N 0.68671 0.69550 0.19046
 N24 N 0.18440 0.06604 1.07460
 N25 N 0.56216 0.19299 0.55277
 N26 N 0.07044 0.56987 0.67809
 N27 N 0.68747 0.56766 0.06430
 N28 N 0.07175 0.68056 0.56687
 N29 N 0.55445 1.05123 0.69465
 N30 N 0.43716 0.31659 0.92649
 N31 N 0.93922 0.44080 0.30700
 N32 N 0.30502 0.93769 0.44990
 O33 O 0.26879 0.45025 0.75807
 O34 O 0.27006 0.45608 0.72873
 O35 O 0.29150 0.49454 0.77967
 O36 O 0.28703 0.52236 0.77956
 O37 O 0.24565 0.47424 0.79952
 O38 O 0.21666 0.47653 0.79106
 O39 O 0.24993 0.53970 0.73280
 O40 O 0.27864 0.53409 0.73782
 O41 O 0.22979 0.49732 0.70941
 O42 O 0.23062 0.46647 0.71539
 O43 O 0.20498 0.51819 0.74949
 O44 O 0.20839 0.51749 0.78003
 O45 O 0.22784 0.54020 0.75076
 O46 O 0.22729 0.53445 0.78187
 O47 O 0.20587 0.49727 0.73000
 O48 O 0.21172 0.46650 0.73204
 O49 O 0.25062 0.51697 0.71067
 O50 O 0.28062 0.51408 0.71883
 O51 O 0.24705 0.45089 0.77651
 O52 O 0.21756 0.45769 0.77221
 O53 O 0.26619 0.49418 0.80125
 O54 O 0.26399 0.52464 0.79436
 O55 O 0.29288 0.47397 0.75976
 O56 O 0.28867 0.47475 0.72979
 Zr57 Zr 0.26915 0.47474 0.74768
 O58 O 0.25575 0.48959 0.73017
 Zr59 Zr 0.26718 0.50470 0.77693
 O60 O 0.25409 0.52104 0.76048
 Zr61 Zr 0.23727 0.47551 0.77446
 O62 O 0.22257 0.49064 0.75829
 Zr63 Zr 0.25988 0.51526 0.73544
 O64 O 0.27479 0.50042 0.75194
 Zr65 Zr 0.22974 0.48617 0.73337
 O66 O 0.24319 0.46957 0.74944
 Zr67 Zr 0.22813 0.51629 0.76237
 O68 O 0.24116 0.50117 0.78020
 O69 O 0.26309 0.47918 0.77259
 O70 O 0.23394 0.51185 0.73732
 C71 C 0.25933 0.44336 0.76919
 C72 C 0.29927 0.48266 0.77189
 C73 C 0.25714 0.48235 0.80763
 C74 C 0.23726 0.54704 0.73961
 C75 C 0.23869 0.50915 0.70292
 C76 C 0.19855 0.50974 0.73725
 H77 H 0.25925 0.48658 0.71869
 H78 H 0.21053 0.48814 0.76010
 H79 H 0.26972 0.47191 0.78029
 H80 H 0.25693 0.53291 0.76312
 H81 H 0.28799 0.52905 0.74444
 H82 H 0.28435 0.53206 0.77218
 H83 H 0.20370 0.46813 0.74134
 H84 H 0.21934 0.45163 0.76149
 H85 H 0.27905 0.50430 0.71127
 H86 H 0.29427 0.48589 0.73068
 H87 H 0.20175 0.50697 0.77897
 H88 H 0.21704 0.48779 0.79646
 H89 H 0.25856 0.45131 0.72783
 H90 H 0.24105 0.46783 0.70882
 H91 H 0.25309 0.52273 0.80001
 H92 H 0.23707 0.54207 0.78057
 O93 O 0.19191 0.02126 0.26418
 O94 O 0.19830 0.02007 0.29323
 O95 O 0.23607 0.04403 0.24369
 O96 O 0.26359 0.03866 0.24291
 O97 O 0.21375 0.00058 0.22016
 O98 O 0.21470 -0.02883 0.22565
 O99 O 0.27997 -0.00374 0.28694
 O100 O 0.27624 0.02552 0.28441
 O101 O 0.23726 -0.02369 0.30802
 O102 O 0.20702 -0.02202 0.30233
 O103 O 0.25725 -0.04577 0.26537
 O104 O 0.25644 -0.03982 0.23562
 O105 O 0.28010 -0.02334 0.26608
 O106 O 0.27332 -0.02073 0.23489
 O107 O 0.23732 -0.04560 0.28566
 O108 O 0.20612 -0.03889 0.28331
 O109 O 0.25774 -0.00366 0.30882
 O110 O 0.25591 0.02739 0.30310
 O111 O 0.19079 0.00094 0.24400
 O112 O 0.19696 -0.02932 0.24516
 O113 O 0.23463 0.02023 0.21985
 O114 O 0.26522 0.01669 0.22665
 O115 O 0.21560 0.04418 0.26351
 O116 O 0.21812 0.03779 0.29345
 Zr117 Zr 0.21642 0.01972 0.27394
 O118 O 0.23071 0.00409 0.28994
 Zr119 Zr 0.24547 0.01915 0.24420
 O120 O 0.26155 0.00416 0.25932
 Zr121 Zr 0.21516 -0.00986 0.24433
 O122 O 0.23020 -0.02651 0.25864
 Zr123 Zr 0.25633 0.00781 0.28491
 O124 O 0.24208 0.02477 0.26989
 Zr125 Zr 0.22632 -0.02144 0.28415
 O126 O 0.21003 -0.00582 0.26986
 Zr127 Zr 0.25593 -0.02141 0.25489
 O128 O 0.24082 -0.00642 0.23860
 O129 O 0.21998 0.01557 0.24849
 O130 O 0.25197 -0.01774 0.28042
 C131 C 0.18418 0.01302 0.25257
 C132 C 0.22418 0.05132 0.25186
 C133 C 0.22236 0.01214 0.21286
 C134 C 0.28700 -0.01567 0.27861
 C135 C 0.24944 -0.01593 0.31536
 C136 C 0.24926 -0.05276 0.27748
 H137 H 0.22793 0.00666 0.30174
 H138 H 0.22733 -0.03830 0.25572
 H139 H 0.21280 0.02298 0.24143
 H140 H 0.27345 0.00684 0.25691
 H141 H 0.27184 0.03566 0.27855
 H142 H 0.27295 0.03550 0.25055
 H143 H 0.20837 -0.04709 0.27422
 H144 H 0.19107 -0.02814 0.25600
 H145 H 0.24641 0.02532 0.31079
 H146 H 0.22900 0.04371 0.29204
 H147 H 0.24543 -0.04564 0.23559
 H148 H 0.22600 -0.02885 0.22049
 H149 H 0.19303 0.00873 0.29327
 H150 H 0.20802 -0.01165 0.30920
 H151 H 0.26263 0.00666 0.21965
 H152 H 0.28172 -0.01184 0.23743
 O153 O 0.49645 0.70961 0.22381
 O154 O 0.46734 0.71573 0.22326
 O155 O 0.51649 0.75394 0.19874
 O156 O 0.51800 0.78137 0.20288
 O157 O 0.54027 0.73486 0.24475
 O158 O 0.53312 0.73605 0.27345
 O159 O 0.47249 0.79929 0.24220
 O160 O 0.47576 0.79353 0.21335
 O161 O 0.45075 0.75737 0.26387
 O162 O 0.45666 0.72719 0.26430
 O163 O 0.49361 0.77882 0.28607
 O164 O 0.52356 0.77845 0.28057
 O165 O 0.49239 0.80047 0.26283
 O166 O 0.52381 0.79475 0.26116
 O167 O 0.47317 0.75876 0.28662
 O168 O 0.47552 0.72719 0.28142
 O169 O 0.45084 0.77711 0.24317
 O170 O 0.45678 0.77304 0.21262
 O171 O 0.51735 0.71084 0.24352
 O172 O 0.51400 0.71773 0.27328
 O173 O 0.54037 0.75353 0.22306
 O174 O 0.53327 0.78436 0.22500
 O175 O 0.49750 0.73242 0.19922
 O176 O 0.46731 0.73445 0.20465
 Zr177 Zr 0.48649 0.73426 0.22321
 O178 O 0.46990 0.74934 0.23732
 Zr179 Zr 0.51592 0.76412 0.22302
 O180 O 0.50032 0.78082 0.23644
 Zr181 Zr 0.51544 0.73545 0.25348
 O182 O 0.50047 0.75112 0.26864
 Zr183 Zr 0.47484 0.77488 0.23233
 O184 O 0.49036 0.75980 0.21688
 Zr185 Zr 0.47496 0.74658 0.26311
 O186 O 0.48994 0.72959 0.24906
 Zr187 Zr 0.50423 0.77662 0.26220
 O188 O 0.52106 0.76100 0.24875
 O189 O 0.51191 0.73868 0.22782
 O190 O 0.47872 0.77209 0.25806
 C191 C 0.50867 0.70303 0.23223
 C192 C 0.50876 0.74143 0.19187
 C193 C 0.54761 0.74262 0.23270
 C194 C 0.48014 0.80689 0.25429
 C195 C 0.44378 0.76934 0.25542
 C196 C 0.48156 0.77097 0.29331
 H197 H 0.45814 0.74626 0.23457
 H198 H 0.50322 0.74893 0.28056
 H199 H 0.51931 0.73134 0.22102
 H200 H 0.50268 0.79263 0.23318
 H201 H 0.48161 0.78836 0.20369
 H202 H 0.50967 0.79044 0.20484
 H203 H 0.48480 0.72970 0.28939
 H204 H 0.50334 0.71145 0.27166
 H205 H 0.44896 0.76370 0.21522
 H206 H 0.46845 0.74523 0.19846
 H207 H 0.52308 0.76814 0.28757
 H208 H 0.53822 0.74746 0.27333
 H209 H 0.46682 0.71135 0.23488
 H210 H 0.45025 0.72729 0.25360
 H211 H 0.54011 0.78236 0.23525
 H212 H 0.52125 0.80262 0.25184
 O213 O 0.00207 0.70910 0.72309
 O214 O -0.02733 0.71518 0.72514
 O215 O 0.02008 0.75473 0.69897
 O216 O 0.01944 0.78251 0.70454
 O217 O 0.04719 0.73400 0.74127
 O218 O 0.04252 0.73365 0.77083
 O219 O -0.02073 0.79747 0.74904
 O220 O -0.01965 0.79297 0.71900
 O221 O -0.04083 0.75313 0.76886
 O222 O -0.03415 0.72298 0.76638
 O223 O 0.00298 0.77408 0.78952
 O224 O 0.03329 0.77350 0.78146
 O225 O 0.00101 0.79738 0.76778
 O226 O 0.03142 0.79215 0.76443
 O227 O -0.01703 0.75358 0.78991
 O228 O -0.01468 0.72272 0.78286
 O229 O -0.04233 0.77479 0.75022
 O230 O -0.04088 0.77286 0.72159
 O231 O 0.02455 0.70956 0.74102
 O232 O 0.02418 0.71451 0.77095
 O233 O 0.04516 0.75429 0.72114
 O234 O 0.03795 0.78433 0.72489
 O235 O 0.00147 0.73293 0.69986
 O236 O -0.02866 0.73394 0.70736
 Zr237 Zr -0.00813 0.73365 0.72446
 O238 O -0.02361 0.74773 0.74064
 Zr239 Zr 0.02059 0.76405 0.72370
 O240 O 0.00633 0.77952 0.73982
 Zr241 Zr 0.02327 0.73354 0.75234
 O242 O 0.00922 0.74762 0.76972
 Zr243 Zr -0.01934 0.77367 0.73737
 O244 O -0.00535 0.75968 0.71945
 Zr245 Zr -0.01656 0.74306 0.76568
 O246 O -0.00240 0.72737 0.74956
 Zr247 Zr 0.01231 0.77353 0.76488
 O248 O 0.02803 0.75943 0.74873
 O249 O 0.01747 0.73828 0.72735
 O250 O -0.01341 0.76897 0.76241
 C251 C 0.01498 0.70223 0.73015
 C252 C 0.01225 0.74222 0.69218
 C253 C 0.05332 0.74279 0.72921
 C254 C -0.01182 0.80438 0.76071
 C255 C -0.04847 0.76571 0.76205
 C256 C -0.00860 0.76558 0.79686
 H257 H -0.03556 0.74493 0.73838
 H258 H 0.01282 0.74461 0.78124
 H259 H 0.02445 0.73143 0.71969
 H260 H 0.00842 0.79155 0.73723
 H261 H -0.01658 0.78761 0.70821
 H262 H 0.01191 0.79161 0.70851
 H263 H -0.00465 0.72465 0.79005
 H264 H 0.01319 0.70864 0.77050
 H265 H -0.03766 0.76627 0.71159
 H266 H -0.02679 0.74340 0.69946
 H267 H 0.03230 0.76355 0.78889
 H268 H 0.04757 0.74508 0.77064
 H269 H -0.02632 0.70950 0.73618
 H270 H -0.04185 0.72429 0.75665
 H271 H 0.04506 0.78247 0.73498
 H272 H 0.02927 0.79952 0.75462
 O273 O 0.00169 0.04191 0.02172
 O274 O -0.02775 0.03573 0.01835
 O275 O 0.02012 -0.00151 0.04798
 O276 O 0.02122 -0.02938 0.04417
 O277 O 0.04650 0.01812 0.00511
 O278 O 0.04195 0.01515 -0.02472
 O279 O -0.01960 -0.04831 0.00136
 O280 O -0.01844 -0.04203 0.03036
 O281 O -0.04134 -0.00616 -0.02192
 O282 O -0.03493 0.02474 -0.02147
 O283 O 0.00275 -0.02749 -0.04099
 O284 O 0.03286 -0.02576 -0.03339
 O285 O 0.00124 -0.04884 -0.01802
 O286 O 0.03217 -0.04265 -0.01434
 O287 O -0.01744 -0.00723 -0.04314
 O288 O -0.01653 0.02351 -0.03857
 O289 O -0.04186 -0.02615 -0.00146
 O290 O -0.03821 -0.02253 0.02908
 O291 O 0.02297 0.04128 0.00279
 O292 O 0.02298 0.03393 -0.02666
 O293 O 0.04546 -0.00157 0.02585
 O294 O 0.03932 -0.03186 0.02378
 O295 O -0.00028 0.01862 0.04591
 O296 O -0.02916 0.01774 0.03746
 Zr297 Zr -0.00854 0.01735 0.02083
 O298 O -0.02385 0.00181 0.00568
 Zr299 Zr 0.02121 -0.01218 0.02383
 O300 O 0.00707 -0.02911 0.00893
 Zr301 Zr 0.02265 0.01642 -0.00663
 O302 O 0.00872 0.00073 -0.02305
 Zr303 Zr -0.01868 -0.02367 0.01107
 O304 O -0.00474 -0.00812 0.02767
 Zr305 Zr -0.01720 0.00482 -0.01959
 O306 O -0.00320 0.02200 -0.00458
 Zr307 Zr 0.01243 -0.02475 -0.01650
 O308 O 0.02809 -0.00909 -0.00143
 O309 O 0.01718 0.01320 0.01861
 O310 O -0.01336 -0.02068 -0.01431
 C311 C 0.01395 0.04887 0.01382
 C312 C 0.01087 0.01024 0.05422
 C313 C 0.05307 0.01004 0.01756
 C314 C -0.01109 -0.05569 -0.01017
 C315 C -0.04854 -0.01824 -0.01391
 C316 C -0.00897 -0.01969 -0.04907
 H317 H -0.03580 0.00471 0.00754
 H318 H 0.01210 0.00298 -0.03474
 H319 H 0.02384 0.02065 0.02611
 H320 H 0.00951 -0.04088 0.01233
 H321 H -0.01354 -0.03654 0.04044
 H322 H 0.01455 -0.03933 0.04065
 H323 H -0.00579 0.02224 -0.04466
 H324 H 0.01179 0.03946 -0.02684
 H325 H -0.04567 -0.01291 0.02628
 H326 H -0.02931 0.00658 0.04307
 H327 H 0.03217 -0.01568 -0.04069
 H328 H 0.04744 0.00400 -0.02329
 H329 H -0.02644 0.04085 0.00711
 H330 H -0.04286 0.02364 -0.01202
 H331 H 0.04612 -0.03045 0.01351
 H332 H 0.02964 -0.05011 -0.00473
 O333 O 0.04724 0.51814 0.49987
 O334 O 0.04298 0.51602 0.47014
 O335 O 0.00279 0.54492 0.51517
 O336 O -0.02482 0.54128 0.51493
 O337 O 0.02053 0.50075 0.54214
 O338 O 0.01725 0.47105 0.53720
 O339 O -0.04137 0.49982 0.47152
 O340 O -0.03458 0.52874 0.47314
 O341 O 0.00150 0.47545 0.45321
 O342 O 0.03168 0.47550 0.46112
 O343 O -0.02325 0.45665 0.49399
 O344 O -0.02323 0.46264 0.52424
 O345 O -0.04381 0.48053 0.49247
 O346 O -0.03893 0.48273 0.52362
 O347 O -0.00104 0.45403 0.47634
 O348 O 0.02993 0.45875 0.48001
 O349 O -0.01755 0.49678 0.45079
 O350 O -0.01374 0.52747 0.45525
 O351 O 0.04507 0.49814 0.52024
 O352 O 0.03686 0.46876 0.51961
 O353 O 0.00140 0.52207 0.54008
 O354 O -0.02880 0.52023 0.53151
 O355 O 0.02507 0.54287 0.49749
 O356 O 0.02502 0.53559 0.46797
 Zr357 Zr 0.02347 0.51808 0.48793
 O358 O 0.00900 0.50326 0.47124
 Zr359 Zr -0.00786 0.52066 0.51522
 O360 O -0.02387 0.50642 0.49948
 Zr361 Zr 0.02007 0.48947 0.51823
 O362 O 0.00512 0.47356 0.50304
 Zr363 Zr -0.01665 0.50898 0.47429
 O364 O -0.00205 0.52516 0.48980
 Zr365 Zr 0.01112 0.47762 0.47776
 O366 O 0.02743 0.49225 0.49307
 Zr367 Zr -0.02032 0.48066 0.50484
 O368 O -0.00558 0.49505 0.52188
 O369 O 0.01758 0.51508 0.51307
 O370 O -0.01444 0.48330 0.47957
 C371 C 0.05332 0.50945 0.51215
 C372 C 0.01574 0.55109 0.50781
 C373 C 0.01244 0.51338 0.54826
 C374 C -0.04970 0.48871 0.47979
 C375 C -0.00969 0.48385 0.44497
 C376 C -0.01457 0.44848 0.48313
 H377 H 0.01276 0.50528 0.45963
 H378 H 0.00692 0.46166 0.50635
 H379 H 0.02473 0.52227 0.52038
 H380 H -0.03565 0.51008 0.50111
 H381 H -0.02941 0.53863 0.47880
 H382 H -0.03368 0.53867 0.50653
 H383 H 0.02708 0.45154 0.48972
 H384 H 0.04330 0.46876 0.50903
 H385 H -0.00355 0.52473 0.44874
 H386 H 0.01416 0.54175 0.46769
 H387 H -0.01314 0.45531 0.52432
 H388 H 0.00563 0.47226 0.54146
 H389 H 0.04750 0.50440 0.47116
 H390 H 0.03147 0.48543 0.45359
 H391 H -0.02738 0.51029 0.53895
 H392 H -0.04601 0.49267 0.52092
 O393 O 0.53958 0.02204 0.50473
 O394 O 0.53404 0.02133 0.47519
 O395 O 0.49603 0.04738 0.52367
 O396 O 0.46834 0.04366 0.52382
 O397 O 0.51437 0.00156 0.54755
 O398 O 0.51212 -0.02771 0.54051
 O399 O 0.45032 0.00376 0.47926
 O400 O 0.45645 0.03289 0.48282
 O401 O 0.49181 -0.01861 0.45794
 O402 O 0.52294 -0.01806 0.46459
 O403 O 0.46976 -0.04005 0.49865
 O404 O 0.47146 -0.03541 0.52956
 O405 O 0.44879 -0.01632 0.49956
 O406 O 0.45487 -0.01617 0.53020
 O407 O 0.49134 -0.04141 0.48012
 O408 O 0.52181 -0.03656 0.48185
 O409 O 0.47298 0.00302 0.45763
 O410 O 0.47640 0.03314 0.46370
 O411 O 0.53859 0.00128 0.52443
 O412 O 0.53108 -0.02813 0.52229
 O413 O 0.49518 0.02289 0.54728
 O414 O 0.46516 0.02180 0.53988
 O415 O 0.51706 0.04654 0.50447
 O416 O 0.51600 0.04077 0.47482
 Zr417 Zr 0.51536 0.02225 0.49392
 O418 O 0.50026 0.00830 0.47711
 Zr419 Zr 0.48534 0.02309 0.52269
 O420 O 0.46876 0.00940 0.50704
 Zr421 Zr 0.51369 -0.00789 0.52282
 O422 O 0.49828 -0.02314 0.50737
 Zr423 Zr 0.47478 0.01352 0.48176
 O424 O 0.48995 0.02902 0.49733
 Zr425 Zr 0.50296 -0.01762 0.48204
 O426 O 0.51981 -0.00374 0.49750
 Zr427 Zr 0.47286 -0.01660 0.51074
 O428 O 0.48817 -0.00285 0.52780
 O429 O 0.51071 0.01793 0.51920
 O430 O 0.47749 -0.01241 0.48541
 C431 C 0.54632 0.01302 0.51640
 C432 C 0.50833 0.05414 0.51571
 C433 C 0.50614 0.01351 0.55475
 C434 C 0.44244 -0.00778 0.48735
 C435 C 0.48036 -0.00961 0.45073
 C436 C 0.47823 -0.04758 0.48717
 H437 H 0.50342 0.01104 0.46546
 H438 H 0.50040 -0.03517 0.50995
 H439 H 0.51802 0.02476 0.52669
 H440 H 0.45702 0.01276 0.50938
 H441 H 0.46184 0.04266 0.48848
 H442 H 0.45875 0.04099 0.51629
 H443 H 0.52046 -0.04347 0.49209
 H444 H 0.53695 -0.02741 0.51140
 H445 H 0.48655 0.03124 0.45685
 H446 H 0.50511 0.04685 0.47527
 H447 H 0.48088 -0.04341 0.52787
 H448 H 0.50058 -0.02728 0.54511
 H449 H 0.53863 0.00970 0.47533
 H450 H 0.52139 -0.00845 0.45679
 H451 H 0.46646 0.01109 0.54618
 H452 H 0.44794 -0.00587 0.52877
 O453 O 0.54997 0.51852 -0.00137
 O454 O 0.54445 0.51626 -0.03101
 O455 O 0.50681 0.54564 0.01594
 O456 O 0.47871 0.54238 0.01510
 O457 O 0.52443 0.50162 0.04220
 O458 O 0.52098 0.47173 0.03720
 O459 O 0.46077 0.49953 -0.02693
 O460 O 0.46678 0.52906 -0.02425
 O461 O 0.50216 0.47626 -0.04630
 O462 O 0.53336 0.47693 -0.03916
 O463 O 0.47964 0.45693 -0.00456
 O464 O 0.48110 0.46379 0.02623
 O465 O 0.45875 0.48071 -0.00553
 O466 O 0.46410 0.48275 0.02502
 O467 O 0.50151 0.45451 -0.02266
 O468 O 0.53159 0.45911 -0.02135
 O469 O 0.48392 0.49835 -0.04805
 O470 O 0.48681 0.52831 -0.04337
 O471 O 0.54841 0.49901 0.01950
 O472 O 0.54038 0.46970 0.01934
 O473 O 0.50509 0.52280 0.04060
 O474 O 0.47531 0.52161 0.03325
 O475 O 0.52793 0.54327 -0.00304
 O476 O 0.52693 0.53613 -0.03231
 Zr477 Zr 0.52579 0.51857 -0.01236
 O478 O 0.51062 0.50395 -0.02848
 Zr479 Zr 0.49544 0.52155 0.01596
 O480 O 0.47883 0.50701 0.00103
 Zr481 Zr 0.52337 0.49024 0.01825
 O482 O 0.50805 0.47429 0.00343
 Zr483 Zr 0.48513 0.50966 -0.02434
 O484 O 0.50042 0.52589 -0.00963
 Zr485 Zr 0.51306 0.47834 -0.02212
 O486 O 0.52989 0.49280 -0.00720
 Zr487 Zr 0.48262 0.48118 0.00612
 O488 O 0.49784 0.49588 0.02255
 O489 O 0.52076 0.51579 0.01302
 O490 O 0.48759 0.48393 -0.01935
 C491 C 0.55644 0.51010 0.01089
 C492 C 0.51945 0.55163 0.00785
 C493 C 0.51628 0.51412 0.04855
 C494 C 0.45271 0.48838 -0.01846
 C495 C 0.49120 0.48529 -0.05420
 C496 C 0.48838 0.44872 -0.01536
 H497 H 0.51393 0.50607 -0.04022
 H498 H 0.51008 0.46242 0.00671
 H499 H 0.52818 0.52291 0.02012
 H500 H 0.46706 0.51053 0.00299
 H501 H 0.47221 0.53914 -0.01920
 H502 H 0.46861 0.53884 0.00865
 H503 H 0.53059 0.45325 -0.01044
 H504 H 0.54644 0.46960 0.00853
 H505 H 0.49757 0.52670 -0.04932
 H506 H 0.51622 0.54254 -0.03216
 H507 H 0.49036 0.45552 0.02501
 H508 H 0.50961 0.47320 0.04202
 H509 H 0.54921 0.50474 -0.02989
 H510 H 0.53177 0.48587 -0.04769
 H511 H 0.47612 0.51098 0.03975
 H512 H 0.45759 0.49326 0.02313
 O513 O 0.79577 0.24808 0.47222
 O514 O 0.78662 0.21916 0.47118
 O515 O 0.75207 0.27432 0.45307
 O516 O 0.72471 0.27602 0.45958
 O517 O 0.77786 0.29209 0.49696
 O518 O 0.77749 0.28370 0.52602
 O519 O 0.70632 0.23204 0.49818
 O520 O 0.71056 0.23648 0.46845
 O521 O 0.74831 0.20381 0.51407
 O522 O 0.77903 0.20698 0.51084
 O523 O 0.73381 0.24608 0.54102
 O524 O 0.73754 0.27691 0.53738
 O525 O 0.70992 0.24995 0.52020
 O526 O 0.71868 0.28010 0.52070
 O527 O 0.75187 0.22405 0.53790
 O528 O 0.78231 0.22364 0.52984
 O529 O 0.72653 0.20728 0.49572
 O530 O 0.72735 0.21270 0.46795
 O531 O 0.79885 0.26665 0.49381
 O532 O 0.79445 0.26330 0.52342
 O533 O 0.75588 0.29576 0.47878
 O534 O 0.72557 0.29131 0.48219
 O535 O 0.77124 0.25314 0.45041
 O536 O 0.76740 0.22248 0.45390
 Zr537 Zr 0.77045 0.24025 0.47355
 O538 O 0.75515 0.22418 0.48796
 Zr539 Zr 0.74369 0.27215 0.47797
 O540 O 0.72723 0.25746 0.49256
 Zr541 Zr 0.77515 0.26706 0.50537
 O542 O 0.76013 0.25220 0.52120
 Zr543 Zr 0.72989 0.23185 0.48631
 O544 O 0.74487 0.24671 0.47000
 Zr545 Zr 0.76138 0.22685 0.51351
 O546 O 0.77811 0.24144 0.49890
 Zr547 Zr 0.73470 0.25890 0.51792
 O548 O 0.74997 0.27522 0.50352
 O549 O 0.76895 0.26559 0.48006
 O550 O 0.73600 0.23338 0.51172
 C551 C 0.80454 0.25850 0.48109
 C552 C 0.76310 0.26599 0.44469
 C553 C 0.76902 0.30105 0.48672
 C554 C 0.70100 0.23968 0.51137
 C555 C 0.73494 0.19858 0.50654
 C556 C 0.74115 0.23263 0.54640
 H557 H 0.75642 0.21241 0.48399
 H558 H 0.76392 0.25366 0.53296
 H559 H 0.77632 0.27278 0.47311
 H560 H 0.71552 0.26135 0.49075
 H561 H 0.71611 0.24026 0.45801
 H562 H 0.71507 0.26880 0.46266
 H563 H 0.78192 0.23270 0.53840
 H564 H 0.79882 0.25173 0.52162
 H565 H 0.73486 0.21586 0.45866
 H566 H 0.75786 0.22636 0.44681
 H567 H 0.74799 0.27416 0.54366
 H568 H 0.76689 0.29029 0.52643
 H569 H 0.79278 0.21812 0.48198
 H570 H 0.77629 0.20088 0.50033
 H571 H 0.72835 0.29651 0.49317
 H572 H 0.71043 0.27996 0.51133
 O573 O 0.77688 0.79892 0.00546
 O574 O 0.77550 0.79153 0.03501
 O575 O 0.79744 0.75531 -0.01708
 O576 O 0.79140 0.72741 -0.01799
 O577 O 0.75344 0.77878 -0.03839
 O578 O 0.72399 0.77840 -0.03115
 O579 O 0.75062 0.70979 0.02455
 O580 O 0.78011 0.71362 0.02077
 O581 O 0.73366 0.75254 0.04998
 O582 O 0.73603 0.78362 0.04501
 O583 O 0.70799 0.73577 0.00676
 O584 O 0.71346 0.73836 -0.02390
 O585 O 0.72893 0.71244 0.00591
 O586 O 0.73032 0.71922 -0.02478
 O587 O 0.71016 0.75414 0.02857
 O588 O 0.71689 0.78467 0.02831
 O589 O 0.75234 0.73088 0.04785
 O590 O 0.78242 0.73179 0.04175
 O591 O 0.75542 0.80125 -0.01354
 O592 O 0.72571 0.79632 -0.01170
 O593 O 0.77302 0.75781 -0.03979
 O594 O 0.76916 0.72770 -0.03514
 O595 O 0.79875 0.77454 0.00411
 O596 O 0.79359 0.77198 0.03361
 Zr597 Zr 0.77474 0.77416 0.01485
 O598 O 0.75994 0.75905 0.03061
 Zr599 Zr 0.77246 0.74614 -0.01612
 O600 O 0.75737 0.72977 -0.00174
 Zr601 Zr 0.74415 0.77715 -0.01369
 O602 O 0.72786 0.76224 0.00088
 Zr603 Zr 0.76258 0.73350 0.02383
 O604 O 0.77916 0.74846 0.00942
 Zr605 Zr 0.73439 0.76456 0.02641
 O606 O 0.74931 0.78119 0.01198
 Zr607 Zr 0.73187 0.73660 -0.00460
 O608 O 0.74682 0.75165 -0.02064
 O609 O 0.76953 0.77159 -0.01059
 O610 O 0.73705 0.73899 0.02092
 C611 C 0.76825 0.80719 -0.00553
 C612 C 0.80527 0.76654 -0.00827
 C613 C 0.76475 0.77023 -0.04621
 C614 C 0.73733 0.70423 0.01709
 C615 C 0.74128 0.73945 0.05587
 C616 C 0.70207 0.74311 0.01985
 H617 H 0.76325 0.76112 0.04241
 H618 H 0.71607 0.76565 -0.00132
 H619 H 0.77681 0.77880 -0.01761
 H620 H 0.75944 0.71789 -0.00498
 H621 H 0.79026 0.71860 0.01559
 H622 H 0.78715 0.71709 -0.01246
 H623 H 0.70930 0.78415 0.01842
 H624 H 0.72662 0.80082 -0.00013
 H625 H 0.78183 0.74175 0.04922
 H626 H 0.79846 0.76052 0.03245
 H627 H 0.70657 0.74853 -0.02172
 H628 H 0.72402 0.76757 -0.03737
 H629 H 0.76484 0.79803 0.03448
 H630 H 0.74618 0.78135 0.05193
 H631 H 0.75802 0.72983 -0.04040
 H632 H 0.73962 0.71100 -0.02348
 O633 O 0.99625 0.27849 0.28355
 O634 O 1.02577 0.27666 0.27828
 O635 O 0.97745 0.29895 0.23698
 O636 O 0.97921 0.29187 0.20956
 O637 O 0.95214 0.25766 0.25979
 O638 O 0.95748 0.22795 0.26147
 O639 O 1.02113 0.24732 0.19824
 O640 O 1.01893 0.27715 0.20021
 O641 O 1.04118 0.23055 0.24360
 O642 O 1.03405 0.23495 0.27348
 O643 O 0.99846 0.20743 0.22355
 O644 O 0.96797 0.21472 0.22280
 O645 O 1.00056 0.22743 0.19941
 O646 O 0.96961 0.23085 0.20325
 O647 O 1.01771 0.20861 0.24478
 O648 O 1.01551 0.21787 0.27443
 O649 O 1.04247 0.24851 0.22139
 O650 O 1.03796 0.27928 0.22048
 O651 O 0.97497 0.25926 0.28426
 O652 O 0.97565 0.22903 0.28076
 O653 O 0.95356 0.27623 0.23806
 O654 O 0.96092 0.27049 0.20881
 O655 O 0.99686 0.30028 0.25811
 O656 O 1.02652 0.29343 0.25795
 Zr657 Zr 1.00678 0.27560 0.25955
 O658 O 1.02301 0.25883 0.24705
 Zr659 Zr 0.97824 0.27362 0.22894
 O660 O 0.99336 0.25693 0.21488
 Zr661 Zr 0.97633 0.24680 0.26097
 O662 O 0.99116 0.22884 0.24838
 Zr663 Zr 1.01886 0.26056 0.22101
 O664 O 1.00393 0.27886 0.23343
 Zr665 Zr 1.01675 0.23381 0.25313
 O666 O 1.00184 0.25065 0.26732
 Zr667 Zr 0.98834 0.23196 0.22231
 O668 O 0.97179 0.24856 0.23497
 O669 O 0.98134 0.27173 0.25478
 O670 O 1.01389 0.23549 0.22717
 C671 C 0.98394 0.27106 0.29092
 C672 C 0.98540 0.30694 0.24867
 C673 C 0.94567 0.26901 0.25013
 C674 C 1.01312 0.23454 0.19220
 C675 C 1.04886 0.23716 0.23108
 C676 C 1.00978 0.20072 0.23305
 H677 H 1.03479 0.26143 0.25017
 H678 H 0.98789 0.21739 0.25205
 H679 H 0.97414 0.27968 0.26107
 H680 H 0.99137 0.25865 0.20274
 H681 H 1.01365 0.28783 0.20398
 H682 H 0.98556 0.28686 0.20016
 H683 H 1.00535 0.21073 0.27323
 H684 H 0.98654 0.22999 0.28683
 H685 H 1.04456 0.27855 0.23103
 H686 H 1.02623 0.29793 0.24636
 H687 H 0.96878 0.20825 0.23339
 H688 H 0.95253 0.22750 0.25003
 H689 H 1.02518 0.26586 0.28450
 H690 H 1.04179 0.24451 0.27146
 H691 H 0.95449 0.26005 0.21110
 H692 H 0.97195 0.23993 0.19507
 O693 O 0.74309 1.04312 0.72476
 O694 O 0.77303 1.03873 0.72471
 O695 O 0.72485 0.99674 0.70278
 O696 O 0.72717 0.96902 0.70828
 O697 O 0.70184 1.01687 0.74718
 O698 O 0.70986 1.01667 0.77646
 O699 O 0.77240 0.95569 0.74782
 O700 O 0.76769 0.96046 0.71818
 O701 O 0.79323 1.00021 0.76646
 O702 O 0.78540 1.03070 0.76394
 O703 O 0.75313 0.97846 0.79104
 O704 O 0.72212 0.97776 0.78613
 O705 O 0.75372 0.95542 0.76928
 O706 O 0.72271 0.95914 0.76888
 O707 O 0.77219 0.99978 0.78946
 O708 O 0.76835 1.03027 0.78275
 O709 O 0.79349 0.97938 0.74682
 O710 O 0.78851 0.98102 0.71887
 O711 O 0.72360 1.04200 0.74552
 O712 O 0.72711 1.03685 0.77498
 O713 O 0.70263 0.99666 0.72686
 O714 O 0.71093 0.96688 0.73035
 O715 O 0.74310 1.01883 0.70155
 O716 O 0.77364 1.02039 0.70668
 Zr717 Zr 0.75489 1.01921 0.72539
 O718 O 0.77273 1.00564 0.73974
 Zr719 Zr 0.72751 0.98760 0.72739
 O720 O 0.74409 0.97273 0.74193
 Zr721 Zr 0.72686 1.01796 0.75622
 O722 O 0.74357 1.00459 0.77201
 Zr723 Zr 0.76901 0.97957 0.73673
 O724 O 0.75254 0.99309 0.72049
 Zr725 Zr 0.76857 1.01002 0.76538
 O726 O 0.75184 1.02513 0.75097
 Zr727 Zr 0.74094 0.97858 0.76747
 O728 O 0.72281 0.99191 0.75302
 O729 O 0.73002 1.01349 0.73076
 O730 O 0.76600 0.98404 0.76228
 C731 C 0.73111 1.04962 0.73347
 C732 C 0.73181 1.00912 0.69505
 C733 C 0.69496 1.00801 0.73545
 C734 C 0.76554 0.94870 0.76062
 C735 C 0.80054 0.98818 0.75846
 C736 C 0.76516 0.98745 0.79719
 H737 H 0.78423 1.00885 0.73629
 H738 H 0.74127 1.00750 0.78383
 H739 H 0.72206 1.02007 0.72371
 H740 H 0.74214 0.96063 0.73955
 H741 H 0.76309 0.96580 0.70787
 H742 H 0.73510 0.96000 0.71171
 H743 H 0.75893 1.02837 0.79057
 H744 H 0.73794 1.04292 0.77387
 H745 H 0.78398 0.98758 0.70931
 H746 H 0.77188 1.01064 0.69909
 H747 H 0.72338 0.98795 0.79323
 H748 H 0.70491 1.00519 0.77621
 H749 H 0.77283 1.04426 0.73585
 H750 H 0.79253 1.02905 0.75394
 H751 H 0.70501 0.96858 0.74111
 H752 H 0.72405 0.95181 0.75892
 O753 O 0.74581 0.55306 0.23393
 O754 O 0.77587 0.54862 0.23557
 O755 O 0.72875 0.50872 0.20825
 O756 O 0.73082 0.48065 0.21181
 O757 O 0.70362 0.52596 0.25247
 O758 O 0.70988 0.52341 0.28206
 O759 O 0.77451 0.46456 0.25369
 O760 O 0.77103 0.47024 0.22426
 O761 O 0.79385 0.50772 0.27540
 O762 O 0.78573 0.53826 0.27486
 O763 O 0.75277 0.48379 0.29628
 O764 O 0.72179 0.48405 0.29006
 O765 O 0.75320 0.46212 0.27246
 O766 O 0.72279 0.46676 0.27169
 O767 O 0.77167 0.50532 0.29714
 O768 O 0.76795 0.53617 0.29268
 O769 O 0.79527 0.48826 0.25450
 O770 O 0.78981 0.49087 0.22447
 O771 O 0.72548 0.55074 0.25376
 O772 O 0.72733 0.54356 0.28299
 O773 O 0.70503 0.50650 0.23153
 O774 O 0.71332 0.47685 0.23290
 O775 O 0.74792 0.53006 0.20936
 O776 O 0.77718 0.53094 0.21609
 Zr777 Zr 0.75770 0.52916 0.23394
 O778 O 0.77479 0.51469 0.24831
 Zr779 Zr 0.73005 0.49768 0.23228
 O780 O 0.74594 0.48182 0.24662
 Zr781 Zr 0.72805 0.52603 0.26298
 O782 O 0.74383 0.51151 0.27871
 Zr783 Zr 0.77120 0.48884 0.24334
 O784 O 0.75548 0.50343 0.22732
 Zr785 Zr 0.76914 0.51734 0.27383
 O786 O 0.75326 0.53346 0.25960
 Zr787 Zr 0.74143 0.48587 0.27232
 O788 O 0.72410 0.50027 0.25787
 O789 O 0.73251 0.52325 0.23747
 O790 O 0.76677 0.49160 0.26890
 C791 C 0.73344 0.55904 0.24246
 C792 C 0.73676 0.52115 0.20164
 C793 C 0.69705 0.51750 0.24029
 C794 C 0.76606 0.45631 0.26467
 C795 C 0.80168 0.49633 0.26699
 C796 C 0.76450 0.49235 0.30356
 H797 H 0.78641 0.51835 0.24591
 H798 H 0.74092 0.51359 0.29057
 H799 H 0.72494 0.53026 0.23041
 H800 H 0.74409 0.46991 0.24332
 H801 H 0.76558 0.47542 0.21429
 H802 H 0.73773 0.47083 0.21531
 H803 H 0.75813 0.53369 0.29983
 H804 H 0.73822 0.54964 0.28287
 H805 H 0.79598 0.50159 0.22618
 H806 H 0.77781 0.51979 0.21050
 H807 H 0.72303 0.49352 0.29808
 H808 H 0.70510 0.51193 0.28085
 H809 H 0.77478 0.55365 0.24688
 H810 H 0.79343 0.53745 0.26519
 H811 H 0.70686 0.47776 0.24344
 H812 H 0.72408 0.46047 0.26105
 O813 O 0.49868 0.20205 0.71867
 O814 O 0.46943 0.20845 0.71772
 O815 O 0.52171 0.24603 0.69880
 O816 O 0.52153 0.27384 0.70397
 O817 O 0.54125 0.22372 0.74349
 O818 O 0.53301 0.22430 0.77218
 O819 O 0.47540 0.29059 0.74192
 O820 O 0.48011 0.28658 0.71309
 O821 O 0.45125 0.24775 0.75945
 O822 O 0.45673 0.21737 0.75825
 O823 O 0.49274 0.26711 0.78551
 O824 O 0.52302 0.26583 0.78230
 O825 O 0.49425 0.29006 0.76354
 O826 O 0.52548 0.28309 0.76382
 O827 O 0.47193 0.24753 0.78341
 O828 O 0.47424 0.21620 0.77674
 O829 O 0.45314 0.26899 0.74039
 O830 O 0.46070 0.26676 0.71000
 O831 O 0.51689 0.20062 0.74083
 O832 O 0.51350 0.20649 0.77052
 O833 O 0.54304 0.24457 0.72395
 O834 O 0.53679 0.27505 0.72717
 O835 O 0.50075 0.22657 0.69605
 O836 O 0.47054 0.22828 0.70027
 Zr837 Zr 0.48882 0.22665 0.71965
 O838 O 0.47177 0.24116 0.73375
 Zr839 Zr 0.51891 0.25558 0.72316
 O840 O 0.50297 0.27175 0.73679
 Zr841 Zr 0.51606 0.22500 0.75159
 O842 O 0.50049 0.24002 0.76687
 Zr843 Zr 0.47765 0.26681 0.73075
 O844 O 0.49368 0.25238 0.71521
 Zr845 Zr 0.47526 0.23655 0.75952
 O846 O 0.49071 0.22018 0.74529
 Zr847 Zr 0.50519 0.26579 0.76241
 O848 O 0.52246 0.25068 0.74889
 O849 O 0.51399 0.23000 0.72609
 O850 O 0.47989 0.26222 0.75640
 C851 C 0.50934 0.19412 0.72800
 C852 C 0.51351 0.23479 0.69046
 C853 C 0.54941 0.23235 0.73255
 C854 C 0.48270 0.29732 0.75469
 C855 C 0.44513 0.26054 0.75156
 C856 C 0.47986 0.25931 0.79131
 H857 H 0.46013 0.23858 0.73012
 H858 H 0.50236 0.23702 0.77878
 H859 H 0.52154 0.22280 0.71931
 H860 H 0.50586 0.28367 0.73447
 H861 H 0.48643 0.28189 0.70348
 H862 H 0.51445 0.28364 0.70704
 H863 H 0.48269 0.21830 0.78569
 H864 H 0.50242 0.20105 0.76864
 H865 H 0.45237 0.25764 0.71163
 H866 H 0.47194 0.23953 0.69502
 H867 H 0.52209 0.25488 0.78820
 H868 H 0.53845 0.23554 0.77267
 H869 H 0.46867 0.20299 0.72887
 H870 H 0.45094 0.21836 0.74726
 H871 H 0.54269 0.27250 0.73787
 H872 H 0.52394 0.29152 0.75477
 O873 O 0.25984 0.76278 0.46040
 O874 O 0.23022 0.75825 0.46565
 O875 O 0.27619 0.78918 0.50441
 O876 O 0.27588 0.78491 0.53222
 O877 O 0.30468 0.74686 0.48583
 O878 O 0.30087 0.71666 0.48753
 O879 O 0.23750 0.73980 0.54925
 O880 O 0.23787 0.76972 0.54320
 O881 O 0.21724 0.71711 0.50611
 O882 O 0.22416 0.71825 0.47583
 O883 O 0.26157 0.69866 0.52826
 O884 O 0.29191 0.70750 0.52686
 O885 O 0.25929 0.72117 0.54977
 O886 O 0.28971 0.72552 0.54472
 O887 O 0.24176 0.69635 0.50766
 O888 O 0.24335 0.70158 0.47706
 O889 O 0.21560 0.73702 0.52659
 O890 O 0.21646 0.76549 0.52349
 O891 O 0.28193 0.74450 0.46159
 O892 O 0.28281 0.71498 0.46807
 O893 O 0.30201 0.76779 0.50519
 O894 O 0.29530 0.76535 0.53488
 O895 O 0.25654 0.78677 0.48363
 O896 O 0.22738 0.77705 0.48277
 Zr897 Zr 0.24891 0.76133 0.48446
 O898 O 0.23396 0.74543 0.49939
 Zr899 Zr 0.27764 0.76480 0.51482
 O900 O 0.26404 0.74884 0.53096
 Zr901 Zr 0.28114 0.73457 0.48602
 O902 O 0.26748 0.71730 0.50072
 Zr903 Zr 0.23834 0.75027 0.52497
 O904 O 0.25162 0.76791 0.51006
 Zr905 Zr 0.24153 0.72023 0.49603
 O906 O 0.25537 0.73599 0.47966
 Zr907 Zr 0.27056 0.72355 0.52617
 O908 O 0.28579 0.73968 0.51154
 O909 O 0.27457 0.75975 0.48940
 O910 O 0.24476 0.72502 0.52155
 C911 C 0.27265 0.75536 0.45386
 C912 C 0.26717 0.79533 0.49240
 C913 C 0.31041 0.75961 0.49410
 C914 C 0.24648 0.72834 0.55647
 C915 C 0.20950 0.72463 0.51812
 C916 C 0.25016 0.69041 0.52019
 H917 H 0.22196 0.74723 0.49647
 H918 H 0.27133 0.70568 0.49834
 H919 H 0.28121 0.76755 0.48236
 H920 H 0.26615 0.75207 0.54278
 H921 H 0.24073 0.78036 0.53734
 H922 H 0.26913 0.78085 0.54178
 H923 H 0.25409 0.69546 0.47875
 H924 H 0.27162 0.71425 0.46254
 H925 H 0.21951 0.77556 0.51687
 H926 H 0.22789 0.78505 0.49230
 H927 H 0.29080 0.69927 0.51757
 H928 H 0.30612 0.71802 0.49876
 H929 H 0.23245 0.74726 0.46016
 H930 H 0.21619 0.72782 0.47669
 H931 H 0.30235 0.75509 0.53384
 H932 H 0.28722 0.73554 0.55170
 O933 O 0.26455 0.26491 0.95870
 O934 O 0.23487 0.26342 0.96356
 O935 O 0.28245 0.28812 1.00445
 O936 O 0.28088 0.28267 1.03208
 O937 O 0.30795 0.24537 0.98406
 O938 O 0.30249 0.21548 0.98476
 O939 O 0.23826 0.23965 1.04558
 O940 O 0.24084 0.26945 1.04157
 O941 O 0.21894 0.21936 1.00207
 O942 O 0.22586 0.22289 0.97130
 O943 O 0.26007 0.19814 1.02363
 O944 O 0.29100 0.20446 1.02360
 O945 O 0.25898 0.21982 1.04608
 O946 O 0.28989 0.22220 1.04192
 O947 O 0.24161 0.19794 1.00170
 O948 O 0.24419 0.20509 0.97159
 O949 O 0.21692 0.23988 1.02196
 O950 O 0.22181 0.27023 1.02126
 O951 O 0.28548 0.24525 0.95955
 O952 O 0.28456 0.21536 0.96501
 O953 O 0.30633 0.26527 1.00458
 O954 O 0.29878 0.26124 1.03417
 O955 O 0.26342 0.28835 0.98293
 O956 O 0.23381 0.28161 0.98264
 Zr957 Zr 0.25350 0.26360 0.98267
 O958 O 0.23693 0.24791 0.99609
 Zr959 Zr 0.28164 0.26331 1.01376
 O960 O 0.26621 0.24778 1.02866
 Zr961 Zr 0.28375 0.23444 0.98357
 O962 O 0.26854 0.21749 0.99707
 Zr963 Zr 0.24081 0.25137 1.02200
 O964 O 0.25606 0.26857 1.00857
 Zr965 Zr 0.24306 0.22247 0.99176
 O966 O 0.25834 0.23812 0.97666
 Zr967 Zr 0.27112 0.22231 1.02289
 O968 O 0.28800 0.23786 1.00944
 O969 O 0.27882 0.25979 0.98806
 O970 O 0.24569 0.22593 1.01754
 C971 C 0.27690 0.25682 0.95204
 C972 C 0.27463 0.29550 0.99229
 C973 C 0.31430 0.25741 0.99294
 C974 C 0.24635 0.22745 1.05264
 C975 C 0.21101 0.22724 1.01369
 C976 C 0.24871 0.19100 1.01448
 H977 H 0.22519 0.25039 0.99270
 H978 H 0.27166 0.20575 0.99421
 H979 H 0.28609 0.26735 0.98139
 H980 H 0.26813 0.25029 1.04068
 H981 H 0.24619 0.27978 1.03705
 H982 H 0.27418 0.27843 1.04160
 H983 H 0.25435 0.19801 0.97326
 H984 H 0.27370 0.21593 0.95884
 H985 H 0.21575 0.26934 1.01040
 H986 H 0.23389 0.28689 0.99391
 H987 H 0.28984 0.19708 1.01364
 H988 H 0.30720 0.21580 0.99630
 H989 H 0.23530 0.25207 0.95836
 H990 H 0.21728 0.23166 0.97356
 H991 H 0.30545 0.25083 1.03235
 H992 H 0.28783 0.23200 1.04933
 C993 C 0.30299 0.32293 0.78757
 C994 C 0.29640 0.33786 0.78080
 C995 C 0.29133 0.35103 0.79135
 C996 C 0.29291 0.34910 0.80883
 C997 C 0.29973 0.33431 0.81559
 C998 C 0.30490 0.32106 0.80504
 N999 N 0.28525 0.36645 0.78409
 N1000 N 0.27803 0.37768 0.79293
 C1001 C 0.27262 0.39354 0.78615
 C1002 C 0.26252 0.40402 0.79600
 C1003 C 0.25777 0.42000 0.79024
 C1004 C 0.26330 0.42590 0.77457
 C1005 C 0.27332 0.41528 0.76460
 C1006 C 0.27786 0.39916 0.77030
 H1007 H 0.30677 0.31288 0.77918
 H1008 H 0.29529 0.33921 0.76731
 H1009 H 0.28923 0.35917 0.81724
 H1010 H 0.30128 0.33332 0.82907
 H1011 H 0.25849 0.39986 0.80827
 H1012 H 0.25018 0.42793 0.79829
 H1013 H 0.27777 0.41947 0.75248
 H1014 H 0.28577 0.39130 0.76252
 C1015 C 0.30088 -0.17043 0.29328
 C1016 C 0.29361 -0.15560 0.28697
 C1017 C 0.28773 -0.14312 0.29792
 C1018 C 0.28931 -0.14558 0.31533
 C1019 C 0.29681 -0.16027 0.32164
 C1020 C 0.30267 -0.17288 0.31069
 N1021 N 0.28066 -0.12789 0.29111
 N1022 N 0.27275 -0.11738 0.30023
 C1023 C 0.26622 -0.10177 0.29379
 C1024 C 0.25566 -0.09207 0.30394
 C1025 C 0.24970 -0.07639 0.29842
 C1026 C 0.25446 -0.06999 0.28268
 C1027 C 0.26494 -0.07986 0.27241
 C1028 C 0.27069 -0.09567 0.27787
 H1029 H 0.30516 -0.18000 0.28458
 H1030 H 0.29250 -0.15385 0.27353
 H1031 H 0.28502 -0.13603 0.32405
 H1032 H 0.29822 -0.16171 0.33509
 H1033 H 0.25217 -0.09661 0.31625
 H1034 H 0.24173 -0.06910 0.30667
 H1035 H 0.26882 -0.07532 0.26023
 H1036 H 0.27892 -0.10292 0.26983
 C1037 C 0.80788 0.84767 0.82713
 C1038 C 0.80027 0.86235 0.82099
 C1039 C 0.79867 0.86500 0.80370
 C1040 C 0.80438 0.85256 0.79251
 C1041 C 0.81177 0.83775 0.79864
 C1042 C 0.81375 0.83523 0.81601
 N1043 N 0.79147 0.88052 0.79788
 N1044 N 0.79193 0.88500 0.78256
 C1045 C 0.78474 0.90066 0.77704
 C1046 C 0.78801 0.90638 0.76077
 C1047 C 0.78171 0.92197 0.75531
 C1048 C 0.77182 0.93195 0.76602
 C1049 C 0.76830 0.92598 0.78224
 C1050 C 0.77477 0.91052 0.78773
 H1051 H 0.80945 0.84613 0.84055
 H1052 H 0.79594 0.87187 0.82972
 H1053 H 0.80316 0.85431 0.77907
 H1054 H 0.81611 0.82829 0.78985
 H1055 H 0.79567 0.89887 0.75241
 H1056 H 0.78459 0.92620 0.74273
 H1057 H 0.76082 0.93340 0.79085
 H1058 H 0.77202 0.90634 0.80036
 C1059 C 0.45334 0.92122 0.30791
 C1060 C 0.46132 0.90758 0.30014
 C1061 C 0.45181 0.89461 0.29285
 C1062 C 0.43413 0.89543 0.29336
 C1063 C 0.42615 0.90891 0.30134
 C1064 C 0.43566 0.92193 0.30877
 N1065 N 0.46028 0.88038 0.28569
 N1066 N 0.45242 0.86957 0.27679
 C1067 C 0.46033 0.85473 0.27029
 C1068 C 0.45137 0.84471 0.25887
 C1069 C 0.45812 0.82949 0.25319
 C1070 C 0.47392 0.82385 0.25906
 C1071 C 0.48306 0.83412 0.27030
 C1072 C 0.47636 0.84949 0.27582
 H1073 H 0.46094 0.93113 0.31347
 H1074 H 0.47495 0.90707 0.29988
 H1075 H 0.42649 0.88546 0.28796
 H1076 H 0.41253 0.90900 0.30205
 H1077 H 0.43897 0.84860 0.25459
 H1078 H 0.45069 0.82189 0.24459
 H1079 H 0.49526 0.83014 0.27506
 H1080 H 0.48347 0.85701 0.28474
 C1081 C -0.07444 0.90774 0.80418
 C1082 C -0.06913 0.89267 0.79677
 C1083 C -0.05197 0.88932 0.79473
 C1084 C -0.04007 0.90138 0.80003
 C1085 C -0.04537 0.91657 0.80728
 C1086 C -0.06262 0.91989 0.80949
 N1087 N -0.04701 0.87357 0.78738
 N1088 N -0.03172 0.86875 0.78702
 C1089 C -0.02685 0.85294 0.77973
 C1090 C -0.01038 0.84710 0.78223
 C1091 C -0.00542 0.83141 0.77590
 C1092 C -0.01682 0.82137 0.76668
 C1093 C -0.03325 0.82746 0.76383
 C1094 C -0.03826 0.84306 0.77039
 H1095 H -0.08778 0.90987 0.80590
 H1096 H -0.07842 0.88346 0.79278
 H1097 H -0.02672 0.89911 0.79852
 H1098 H -0.03603 0.92578 0.81113
 H1099 H -0.00146 0.85461 0.78938
 H1100 H 0.00734 0.82711 0.77826
 H1101 H -0.04235 0.82000 0.75686
 H1102 H -0.05105 0.84734 0.76822
 C1103 C -0.05006 -0.15992 -0.07386
 C1104 C -0.04306 -0.14479 -0.06812
 C1105 C -0.04092 -0.14187 -0.05093
 C1106 C -0.04562 -0.15446 -0.03944
 C1107 C -0.05240 -0.16975 -0.04519
 C1108 C -0.05481 -0.17261 -0.06247
 N1109 N -0.03415 -0.12598 -0.04554
 N1110 N -0.03439 -0.12121 -0.03029
 C1111 C -0.02768 -0.10519 -0.02517
 C1112 C -0.03150 -0.09898 -0.00920
 C1113 C -0.02593 -0.08298 -0.00420
 C1114 C -0.01612 -0.07304 -0.01501
 C1115 C -0.01186 -0.07954 -0.03085
 C1116 C -0.01769 -0.09542 -0.03594
 H1117 H -0.05196 -0.16165 -0.08723
 H1118 H -0.03953 -0.13517 -0.07709
 H1119 H -0.04399 -0.15252 -0.02607
 H1120 H -0.05580 -0.17936 -0.03616
 H1121 H -0.03916 -0.10639 -0.00077
 H1122 H -0.02938 -0.07834 0.00810
 H1123 H -0.00440 -0.07218 -0.03950
 H1124 H -0.01449 -0.10000 -0.04832
 C1125 C -0.04244 0.32723 0.44759
 C1126 C -0.03469 0.34165 0.45427
 C1127 C -0.04017 0.35777 0.44941
 C1128 C -0.05303 0.35935 0.43727
 C1129 C -0.06041 0.34496 0.43027
 C1130 C -0.05536 0.32886 0.43560
 N1131 N -0.03277 0.37239 0.45705
 N1132 N -0.04099 0.38616 0.45808
 C1133 C -0.03395 0.40123 0.46511
 C1134 C -0.04487 0.41396 0.47050
 C1135 C -0.03850 0.42909 0.47691
 C1136 C -0.02103 0.43191 0.47760
 C1137 C -0.01004 0.41915 0.47211
 C1138 C -0.01645 0.40381 0.46610
 H1139 H -0.03846 0.31482 0.45175
 H1140 H -0.02476 0.34029 0.46357
 H1141 H -0.05731 0.37169 0.43322
 H1142 H -0.07039 0.34629 0.42101
 H1143 H -0.05837 0.41214 0.46969
 H1144 H -0.04725 0.43880 0.48084
 H1145 H 0.00346 0.42107 0.47246
 H1146 H -0.00781 0.39416 0.46183
 C1147 C 0.45718 -0.16939 0.44953
 C1148 C 0.46379 -0.15447 0.45630
 C1149 C 0.45645 -0.13885 0.45235
 C1150 C 0.44278 -0.13823 0.44103
 C1151 C 0.43650 -0.15310 0.43390
 C1152 C 0.44350 -0.16875 0.43832
 N1153 N 0.46301 -0.12379 0.45992
 N1154 N 0.45395 -0.11062 0.46154
 C1155 C 0.46040 -0.09526 0.46856
 C1156 C 0.44905 -0.08318 0.47455
 C1157 C 0.45490 -0.06787 0.48112
 C1158 C 0.47222 -0.06424 0.48136
 C1159 C 0.48361 -0.07634 0.47526
 C1160 C 0.47776 -0.09183 0.46908
 H1161 H 0.46266 -0.18144 0.45298
 H1162 H 0.47437 -0.15509 0.46494
 H1163 H 0.43705 -0.12627 0.43766
 H1164 H 0.42591 -0.15252 0.42526
 H1165 H 0.43564 -0.08565 0.47413
 H1166 H 0.44585 -0.05867 0.48555
 H1167 H 0.49702 -0.07381 0.47528
 H1168 H 0.48673 -0.10095 0.46438
 C1169 C 0.43721 0.34764 -0.07528
 C1170 C 0.44171 0.36342 -0.06871
 C1171 C 0.45208 0.36452 -0.05445
 C1172 C 0.45780 0.34960 -0.04667
 C1173 C 0.45295 0.33383 -0.05300
 C1174 C 0.44269 0.33278 -0.06737
 N1175 N 0.45650 0.38087 -0.04803
 N1176 N 0.46915 0.38306 -0.03836
 C1177 C 0.47347 0.39935 -0.03179
 C1178 C 0.49022 0.40259 -0.02728
 C1179 C 0.49504 0.41864 -0.02173
 C1180 C 0.48301 0.43153 -0.02001
 C1181 C 0.46606 0.42811 -0.02387
 C1182 C 0.46134 0.41218 -0.02996
 H1183 H 0.42916 0.34696 -0.08629
 H1184 H 0.43720 0.37480 -0.07479
 H1185 H 0.46573 0.35015 -0.03556
 H1186 H 0.45715 0.32241 -0.04675
 H1187 H 0.49966 0.39280 -0.02858
 H1188 H 0.50818 0.42104 -0.01881
 H1189 H 0.45661 0.43793 -0.02276
 H1190 H 0.44828 0.40987 -0.03324
 C1191 C 0.79133 0.42540 0.45948
 C1192 C 0.78469 0.41045 0.46603
 C1193 C 0.79004 0.39477 0.45986
 C1194 C 0.80156 0.39418 0.44657
 C1195 C 0.80777 0.40910 0.43970
 C1196 C 0.80292 0.42475 0.44632
 N1197 N 0.78371 0.37956 0.46713
 N1198 N 0.79249 0.36611 0.46710
 C1199 C 0.78628 0.35040 0.47333
 C1200 C 0.79782 0.33771 0.47759
 C1201 C 0.79216 0.32184 0.48268
 C1202 C 0.77484 0.31831 0.48310
 C1203 C 0.76325 0.33110 0.47893
 C1204 C 0.76893 0.34713 0.47427
 H1205 H 0.78753 0.43746 0.46463
 H1206 H 0.77575 0.41104 0.47621
 H1207 H 0.80565 0.38219 0.44149
 H1208 H 0.81672 0.40853 0.42953
 H1209 H 0.81122 0.34010 0.47680
 H1210 H 0.80134 0.31212 0.48565
 H1211 H 0.74983 0.32864 0.47914
 H1212 H 0.75983 0.35674 0.47085
 C1213 C 0.79413 0.92837 -0.04309
 C1214 C 0.78715 0.91432 -0.03506
 C1215 C 0.79162 0.89795 -0.04004
 C1216 C 0.80268 0.89575 -0.05357
 C1217 C 0.80919 0.90977 -0.06193
 C1218 C 0.80517 0.92613 -0.05656
 N1219 N 0.78480 0.88369 -0.03141
 N1220 N 0.79313 0.87000 -0.03019
 C1221 C 0.78646 0.85511 -0.02255
 C1222 C 0.79766 0.84277 -0.01669
 C1223 C 0.79163 0.82752 -0.01032
 C1224 C 0.77425 0.82418 -0.01018
 C1225 C 0.76298 0.83665 -0.01591
 C1226 C 0.76903 0.85213 -0.02186
 H1227 H 0.79089 0.94098 -0.03894
 H1228 H 0.77857 0.91617 -0.02472
 H1229 H 0.80610 0.88320 -0.05775
 H1230 H 0.81764 0.90794 -0.07237
 H1231 H 0.81112 0.84489 -0.01729
 H1232 H 0.80060 0.81803 -0.00621
 H1233 H 0.74953 0.83432 -0.01601
 H1234 H 0.76018 0.86146 -0.02651
 C1235 C 0.82431 0.30588 0.34035
 C1236 C 0.81879 0.29871 0.35535
 C1237 C 0.80186 0.29979 0.35993
 C1238 C 0.79040 0.30827 0.34933
 C1239 C 0.79588 0.31533 0.33424
 C1240 C 0.81286 0.31405 0.32950
 N1241 N 0.79668 0.29215 0.37535
 N1242 N 0.78187 0.29379 0.38112
 C1243 C 0.77695 0.28601 0.39656
 C1244 C 0.76158 0.29052 0.40378
 C1245 C 0.75685 0.28377 0.41927
 C1246 C 0.76736 0.27216 0.42769
 C1247 C 0.78257 0.26727 0.42013
 C1248 C 0.78736 0.27419 0.40477
 H1249 H 0.83752 0.30504 0.33720
 H1250 H 0.82776 0.29232 0.36347
 H1251 H 0.77724 0.30929 0.35262
 H1252 H 0.78684 0.32160 0.32612
 H1253 H 0.75342 0.29956 0.39756
 H1254 H 0.74505 0.28777 0.42474
 H1255 H 0.79101 0.25845 0.42632
 H1256 H 0.79927 0.27042 0.39939
 C1257 C 0.82771 0.80599 -0.15052
 C1258 C 0.82187 0.79889 -0.13562
 C1259 C 0.80459 0.79801 -0.13244
 C1260 C 0.79308 0.80381 -0.14463
 C1261 C 0.79890 0.81065 -0.15968
 C1262 C 0.81629 0.81208 -0.16269
 N1263 N 0.79913 0.79150 -0.11664
 N1264 N 0.78407 0.79312 -0.11151
 C1265 C 0.77899 0.78663 -0.09554
 C1266 C 0.76347 0.79157 -0.08888
 C1267 C 0.75865 0.78614 -0.07290
 C1268 C 0.76923 0.77543 -0.06345
 C1269 C 0.78461 0.77016 -0.07040
 C1270 C 0.78948 0.77577 -0.08623
 H1271 H 0.84115 0.80709 -0.15238
 H1272 H 0.83084 0.79445 -0.12630
 H1273 H 0.77965 0.80311 -0.14250
 H1274 H 0.78984 0.81507 -0.16891
 H1275 H 0.75527 0.79993 -0.09595
 H1276 H 0.74672 0.79038 -0.06792
 H1277 H 0.79310 0.76200 -0.06343
 H1278 H 0.80151 0.77172 -0.09112
 C1279 C 0.30585 0.45985 0.92497
 C1280 C 0.29873 0.46733 0.91068
 C1281 C 0.29199 0.45731 0.89780
 C1282 C 0.29246 0.43963 0.89938
 C1283 C 0.29981 0.43213 0.91353
 C1284 C 0.30661 0.44215 0.92649
 N1285 N 0.28538 0.46528 0.88300
 N1286 N 0.27683 0.45706 0.87216
 C1287 C 0.27088 0.46446 0.85682
 C1288 C 0.25994 0.45511 0.84660
 C1289 C 0.25489 0.46128 0.83093
 C1290 C 0.26092 0.47690 0.82506
 C1291 C 0.27162 0.48648 0.83553
 C1292 C 0.27650 0.48035 0.85133
 H1293 H 0.31091 0.46786 0.93481
 H1294 H 0.29849 0.48097 0.90960
 H1295 H 0.28750 0.43159 0.88951
 H1296 H 0.30045 0.41849 0.91423
 H1297 H 0.25558 0.44282 0.85067
 H1298 H 0.24676 0.45350 0.82317
 H1299 H 0.27650 0.49854 0.83139
 H1300 H 0.28504 0.48777 0.85899
 C1301 C 0.29308 -0.03773 0.43475
 C1302 C 0.28615 -0.03058 0.42021
 C1303 C 0.28167 -0.04082 0.40659
 C1304 C 0.28386 -0.05842 0.40778
 C1305 C 0.29100 -0.06555 0.42220
 C1306 C 0.29590 -0.05526 0.43577
 N1307 N 0.27569 -0.03308 0.39142
 N1308 N 0.26946 -0.04186 0.37953
 C1309 C 0.26411 -0.03466 0.36392
 C1310 C 0.25452 -0.04459 0.35298
 C1311 C 0.24953 -0.03832 0.33737
 C1312 C 0.25433 -0.02201 0.33226
 C1313 C 0.26405 -0.01202 0.34325
 C1314 C 0.26881 -0.01825 0.35905
 H1315 H 0.29669 -0.02955 0.44505
 H1316 H 0.28452 -0.01702 0.41946
 H1317 H 0.28059 -0.06660 0.39736
 H1318 H 0.29327 -0.07903 0.42251
 H1319 H 0.25094 -0.05729 0.35656
 H1320 H 0.24216 -0.04640 0.32918
 H1321 H 0.26795 0.00057 0.33964
 H1322 H 0.27638 -0.01041 0.36730
 C1323 C -0.05730 -0.04009 -0.16655
 C1324 C -0.04974 -0.03339 -0.15211
 C1325 C -0.04371 -0.04408 -0.13944
 C1326 C -0.04514 -0.06167 -0.14144
 C1327 C -0.05289 -0.06839 -0.15579
 C1328 C -0.05918 -0.05766 -0.16844
 N1329 N -0.03696 -0.03677 -0.12437
 N1330 N -0.02955 -0.04561 -0.11318
 C1331 C -0.02361 -0.03843 -0.09772
 C1332 C -0.01366 -0.04831 -0.08698
 C1333 C -0.00844 -0.04203 -0.07138
 C1334 C -0.01334 -0.02578 -0.06614
 C1335 C -0.02317 -0.01579 -0.07707
 C1336 C -0.02819 -0.02202 -0.09276
 H1337 H -0.06192 -0.03156 -0.17616
 H1338 H -0.04873 -0.01982 -0.15071
 H1339 H -0.04069 -0.07019 -0.13175
 H1340 H -0.05435 -0.08195 -0.15683
 H1341 H -0.01012 -0.06100 -0.09063
 H1342 H -0.00096 -0.05008 -0.06325
 H1343 H -0.02713 -0.00323 -0.07342
 H1344 H -0.03595 -0.01417 -0.10082
 C1345 C -0.05276 0.46515 0.32489
 C1346 C -0.04664 0.47172 0.34005
 C1347 C -0.04093 0.46090 0.35278
 C1348 C -0.04130 0.44334 0.35011
 C1349 C -0.04758 0.43676 0.33502
 C1350 C -0.05347 0.44759 0.32228
 N1351 N -0.03535 0.46800 0.36842
 N1352 N -0.02850 0.45900 0.37983
 C1353 C -0.02339 0.46582 0.39574
 C1354 C -0.01420 0.45557 0.40679
 C1355 C -0.00946 0.46156 0.42263
 C1356 C -0.01404 0.47792 0.42782
 C1357 C -0.02326 0.48823 0.41666
 C1358 C -0.02783 0.48227 0.40071
 H1359 H -0.05714 0.47376 0.31524
 H1360 H -0.04644 0.48527 0.34194
 H1361 H -0.03705 0.43470 0.35979
 H1362 H -0.04818 0.42319 0.33341
 H1363 H -0.01077 0.44285 0.40313
 H1364 H -0.00250 0.45323 0.43095
 H1365 H -0.02698 0.50088 0.42027
 H1366 H -0.03502 0.49040 0.39241
 C1367 C 0.44066 -0.07098 0.34527
 C1368 C 0.44762 -0.06574 0.36055
 C1369 C 0.44817 -0.04859 0.36472
 C1370 C 0.44163 -0.03662 0.35336
 C1371 C 0.43476 -0.04185 0.33797
 C1372 C 0.43426 -0.05908 0.33376
 N1373 N 0.45537 -0.04375 0.38055
 N1374 N 0.45516 -0.02857 0.38581
 C1375 C 0.46232 -0.02388 0.40170
 C1376 C 0.45951 -0.00756 0.40782
 C1377 C 0.46562 -0.00282 0.42362
 C1378 C 0.47490 -0.01429 0.43353
 C1379 C 0.47810 -0.03055 0.42716
 C1380 C 0.47180 -0.03534 0.41142
 H1381 H 0.44023 -0.08435 0.34241
 H1382 H 0.45255 -0.07509 0.36923
 H1383 H 0.44193 -0.02327 0.35630
 H1384 H 0.42998 -0.03246 0.32927
 H1385 H 0.45226 0.00139 0.40044
 H1386 H 0.46297 0.00981 0.42813
 H1387 H 0.48510 -0.03971 0.43452
 H1388 H 0.47420 -0.04802 0.40693
 C1389 C 0.44989 0.42422 -0.15907
 C1390 C 0.45707 0.42914 -0.14379
 C1391 C 0.45916 0.44626 -0.14003
 C1392 C 0.45400 0.45852 -0.15178
 C1393 C 0.44692 0.45360 -0.16714
 C1394 C 0.44484 0.43640 -0.17094
 N1395 N 0.46637 0.45083 -0.12415
 N1396 N 0.46747 0.46613 -0.11941
 C1397 C 0.47445 0.47074 -0.10345
 C1398 C 0.47292 0.48747 -0.09810
 C1399 C 0.47867 0.49225 -0.08221
 C1400 C 0.48628 0.48035 -0.07144
 C1401 C 0.48831 0.46364 -0.07703
 C1402 C 0.48234 0.45882 -0.09290
 H1403 H 0.44824 0.41089 -0.16165
 H1404 H 0.46091 0.41960 -0.13480
 H1405 H 0.45551 0.47185 -0.14914
 H1406 H 0.44319 0.46317 -0.17615
 H1407 H 0.46691 0.49675 -0.10614
 H1408 H 0.47702 0.50525 -0.07829
 H1409 H 0.49405 0.45419 -0.06897
 H1410 H 0.48371 0.44580 -0.09682
 C1411 C 0.42700 0.80511 0.40410
 C1412 C 0.43065 0.79953 0.38790
 C1413 C 0.44719 0.79991 0.38201
 C1414 C 0.46010 0.80619 0.39249
 C1415 C 0.45647 0.81167 0.40874
 C1416 C 0.43992 0.81096 0.41480
 N1417 N 0.45060 0.79367 0.36551
 N1418 N 0.46520 0.79468 0.35912
 C1419 C 0.46893 0.78834 0.34274
 C1420 C 0.48469 0.79185 0.33593
 C1421 C 0.48879 0.78611 0.31992
 C1422 C 0.47719 0.77652 0.31047
 C1423 C 0.46142 0.77275 0.31744
 C1424 C 0.45727 0.77869 0.33344
 H1425 H 0.41408 0.80476 0.40835
 H1426 H 0.42059 0.79484 0.37991
 H1427 H 0.47300 0.80664 0.38822
 H1428 H 0.46663 0.81614 0.41672
 H1429 H 0.49379 0.79921 0.34302
 H1430 H 0.50108 0.78916 0.31497
 H1431 H 0.45221 0.76546 0.31042
 H1432 H 0.44501 0.77576 0.33852
 C1433 C -0.06856 0.79885 0.90390
 C1434 C -0.06328 0.79229 0.88855
 C1435 C -0.04614 0.79160 0.88470
 C1436 C -0.03420 0.79724 0.89656
 C1437 C -0.03947 0.80359 0.91204
 C1438 C -0.05671 0.80458 0.91581
 N1439 N -0.04128 0.78540 0.86858
 N1440 N -0.02629 0.78662 0.86318
 C1441 C -0.02174 0.78052 0.84692
 C1442 C -0.00603 0.78485 0.84037
 C1443 C -0.00161 0.77985 0.82415
 C1444 C -0.01280 0.77016 0.81433
 C1445 C -0.02840 0.76545 0.82113
 C1446 C -0.03287 0.77065 0.83724
 H1447 H -0.08191 0.79966 0.90641
 H1448 H -0.07258 0.78802 0.87948
 H1449 H -0.02087 0.79675 0.89387
 H1450 H -0.03012 0.80785 0.92107
 H1451 H 0.00266 0.79243 0.84772
 H1452 H 0.01051 0.78362 0.81928
 H1453 H -0.03734 0.75809 0.81385
 H1454 H -0.04507 0.76708 0.84206
 C1455 C 0.32796 0.78761 0.30814
 C1456 C 0.34253 0.78105 0.30082
 C1457 C 0.35473 0.79187 0.29421
 C1458 C 0.35224 0.80943 0.29510
 C1459 C 0.33780 0.81601 0.30264
 C1460 C 0.32547 0.80518 0.30923
 N1461 N 0.36972 0.78478 0.28715
 N1462 N 0.38006 0.79365 0.27879
 C1463 C 0.39542 0.78683 0.27227
 C1464 C 0.40504 0.79670 0.26139
 C1465 C 0.42049 0.79078 0.25544
 C1466 C 0.42673 0.77493 0.26052
 C1467 C 0.41693 0.76495 0.27131
 C1468 C 0.40137 0.77079 0.27706
 H1469 H 0.31862 0.77898 0.31301
 H1470 H 0.34430 0.76750 0.30025
 H1471 H 0.36157 0.81807 0.29024
 H1472 H 0.33635 0.82958 0.30351
 H1473 H 0.40062 0.80910 0.25765
 H1474 H 0.42775 0.79884 0.24725
 H1475 H 0.42136 0.75268 0.27546
 H1476 H 0.39419 0.76296 0.28553
 C1477 C -0.15051 0.82674 0.80875
 C1478 C -0.13572 0.82148 0.80097
 C1479 C -0.13232 0.80428 0.79890
 C1480 C -0.14400 0.79228 0.80459
 C1481 C -0.15893 0.79754 0.81222
 C1482 C -0.16232 0.81484 0.81441
 N1483 N -0.11691 0.79941 0.79104
 N1484 N -0.11189 0.78415 0.79054
 C1485 C -0.09639 0.77955 0.78267
 C1486 C -0.08997 0.76327 0.78511
 C1487 C -0.07448 0.75866 0.77824
 C1488 C -0.06528 0.77024 0.76855
 C1489 C -0.07199 0.78646 0.76576
 C1490 C -0.08736 0.79112 0.77284
 H1491 H -0.15271 0.84013 0.81045
 H1492 H -0.12679 0.83083 0.79667
 H1493 H -0.14166 0.77889 0.80306
 H1494 H -0.16789 0.78815 0.81636
 H1495 H -0.09683 0.75424 0.79263
 H1496 H -0.06968 0.74606 0.78057
 H1497 H -0.06518 0.79569 0.75843
 H1498 H -0.09211 0.80377 0.77071
 C1499 C 0.91269 0.31728 0.44947
 C1500 C 0.89842 0.31089 0.45736
 C1501 C 0.89304 0.29439 0.45422
 C1502 C 0.90255 0.28397 0.44361
 C1503 C 0.91701 0.29027 0.43588
 C1504 C 0.92199 0.30719 0.43828
 N1505 N 0.87754 0.28888 0.46144
 N1506 N 0.87043 0.27504 0.45740
 C1507 C 0.85456 0.27026 0.46438
 C1508 C 0.84600 0.25629 0.45775
 C1509 C 0.82986 0.25218 0.46339
 C1510 C 0.82209 0.26194 0.47592
 C1511 C 0.83099 0.27563 0.48293
 C1512 C 0.84703 0.27979 0.47718
 H1513 H 0.91611 0.33029 0.45184
 H1514 H 0.89122 0.31901 0.46558
 H1515 H 0.89873 0.27107 0.44117
 H1516 H 0.92415 0.28200 0.42777
 H1517 H 0.85166 0.24885 0.44788
 H1518 H 0.82338 0.24153 0.45776
 H1519 H 0.82540 0.28345 0.49255
 H1520 H 0.85340 0.29063 0.48255
 C1521 C 0.92199 0.78651 -0.05912
 C1522 C 0.90768 0.77918 -0.05205
 C1523 C 0.89504 0.78934 -0.04522
 C1524 C 0.89693 0.80701 -0.04544
 C1525 C 0.91107 0.81436 -0.05277
 C1526 C 0.92373 0.80420 -0.05979
 N1527 N 0.88015 0.78158 -0.03874
 N1528 N 0.86974 0.78994 -0.02995
 C1529 C 0.85431 0.78297 -0.02392
 C1530 C 0.84522 0.79219 -0.01211
 C1531 C 0.82960 0.78648 -0.00664
 C1532 C 0.82257 0.77148 -0.01313
 C1533 C 0.83183 0.76207 -0.02487
 C1534 C 0.84766 0.76772 -0.03016
 H1535 H 0.93159 0.77840 -0.06437
 H1536 H 0.90639 0.76556 -0.05197
 H1537 H 0.88725 0.81516 -0.04038
 H1538 H 0.91193 0.82799 -0.05334
 H1539 H 0.85018 0.80399 -0.00729
 H1540 H 0.82281 0.79414 0.00232
 H1541 H 0.82676 0.75051 -0.03013
 H1542 H 0.85447 0.76046 -0.03942
 C1543 C -0.16863 -0.03498 -0.05989
 C1544 C -0.15322 -0.02828 -0.05442
 C1545 C -0.14107 -0.03872 -0.04693
 C1546 C -0.14463 -0.05597 -0.04473
 C1547 C -0.15992 -0.06269 -0.05030
 C1548 C -0.17204 -0.05235 -0.05821
 N1549 N -0.12512 -0.03175 -0.04196
 N1550 N -0.11429 -0.04064 -0.03408
 C1551 C -0.09804 -0.03447 -0.02918
 C1552 C -0.08792 -0.04471 -0.01898
 C1553 C -0.07190 -0.03937 -0.01401
 C1554 C -0.06559 -0.02366 -0.01932
 C1555 C -0.07573 -0.01341 -0.02972
 C1556 C -0.09189 -0.01873 -0.03455
 H1557 H -0.17784 -0.02665 -0.06562
 H1558 H -0.15070 -0.01494 -0.05610
 H1559 H -0.13548 -0.06434 -0.03896
 H1560 H -0.16205 -0.07609 -0.04873
 H1561 H -0.09249 -0.05689 -0.01486
 H1562 H -0.06440 -0.04766 -0.00613
 H1563 H -0.07123 -0.00125 -0.03400
 H1564 H -0.09950 -0.01066 -0.04255
 C1565 C -0.16360 0.43520 0.45689
 C1566 C -0.14784 0.44049 0.46266
 C1567 C -0.14172 0.45646 0.45852
 C1568 C -0.15186 0.46749 0.44904
 C1569 C -0.16780 0.46231 0.44341
 C1570 C -0.17370 0.44586 0.44678
 N1571 N -0.12506 0.46086 0.46389
 N1572 N -0.11750 0.47412 0.45897
 C1573 C -0.10067 0.47781 0.46449
 C1574 C -0.09216 0.49162 0.45761
 C1575 C -0.07556 0.49519 0.46248
 C1576 C -0.06725 0.48504 0.47447
 C1577 C -0.07591 0.47125 0.48141
 C1578 C -0.09241 0.46764 0.47645
 H1579 H -0.16761 0.42258 0.46013
 H1580 H -0.14018 0.43194 0.47011
 H1581 H -0.14746 0.48004 0.44592
 H1582 H -0.17542 0.47111 0.43624
 H1583 H -0.09836 0.49954 0.44835
 H1584 H -0.06927 0.50593 0.45692
 H1585 H -0.06991 0.46312 0.49062
 H1586 H -0.09869 0.45688 0.48197
 C1587 C 0.32293 -0.05289 0.47365
 C1588 C 0.33784 -0.04567 0.47972
 C1589 C 0.34957 -0.03887 0.46860
 C1590 C 0.34612 -0.03906 0.45127
 C1591 C 0.33133 -0.04641 0.44519
 C1592 C 0.31967 -0.05354 0.45630
 N1593 N 0.36530 -0.03278 0.47503
 N1594 N 0.37594 -0.02546 0.46566
 C1595 C 0.39212 -0.02028 0.47175
 C1596 C 0.40253 -0.01087 0.46122
 C1597 C 0.41879 -0.00647 0.46640
 C1598 C 0.42495 -0.01163 0.48219
 C1599 C 0.41437 -0.02094 0.49281
 C1600 C 0.39806 -0.02517 0.48767
 H1601 H 0.31409 -0.05830 0.48241
 H1602 H 0.34040 -0.04564 0.49309
 H1603 H 0.35506 -0.03399 0.44241
 H1604 H 0.32919 -0.04698 0.43176
 H1605 H 0.39810 -0.00713 0.44887
 H1606 H 0.42667 0.00062 0.45789
 H1607 H 0.41873 -0.02505 0.50507
 H1608 H 0.39025 -0.03255 0.49599
 C1609 C 0.33340 0.44208 -0.03520
 C1610 C 0.34864 0.44844 -0.02896
 C1611 C 0.36096 0.45443 -0.03993
 C1612 C 0.35788 0.45392 -0.05732
 C1613 C 0.34273 0.44739 -0.06358
 C1614 C 0.33031 0.44140 -0.05260
 N1615 N 0.37660 0.46053 -0.03317
 N1616 N 0.38750 0.46783 -0.04229
 C1617 C 0.40340 0.47348 -0.03576
 C1618 C 0.41396 0.48296 -0.04610
 C1619 C 0.42982 0.48816 -0.04036
 C1620 C 0.43549 0.48377 -0.02416
 C1621 C 0.42479 0.47433 -0.01375
 C1622 C 0.40886 0.46929 -0.01946
 H1623 H 0.32400 0.43763 -0.02649
 H1624 H 0.35087 0.44873 -0.01553
 H1625 H 0.36726 0.45834 -0.06608
 H1626 H 0.34077 0.44681 -0.07704
 H1627 H 0.40993 0.48621 -0.05871
 H1628 H 0.43778 0.49529 -0.04876
 H1629 H 0.42876 0.47074 -0.00121
 H1630 H 0.40095 0.46191 -0.01124
 C1631 C 0.42019 0.44109 0.78921
 C1632 C 0.40502 0.44753 0.78287
 C1633 C 0.39216 0.45239 0.79376
 C1634 C 0.39471 0.45094 0.81118
 C1635 C 0.40978 0.44430 0.81753
 C1636 C 0.42264 0.43915 0.80661
 N1637 N 0.37643 0.45807 0.78686
 N1638 N 0.36500 0.46444 0.79601
 C1639 C 0.34893 0.46945 0.78939
 C1640 C 0.33803 0.47865 0.79963
 C1641 C 0.32202 0.48322 0.79382
 C1642 C 0.31652 0.47841 0.77768
 C1643 C 0.32752 0.46918 0.76739
 C1644 C 0.34364 0.46482 0.77315
 H1645 H 0.42994 0.43736 0.78054
 H1646 H 0.40322 0.44860 0.76942
 H1647 H 0.38491 0.45451 0.81986
 H1648 H 0.41122 0.44278 0.83097
 H1649 H 0.34194 0.48220 0.81220
 H1650 H 0.31382 0.49022 0.80211
 H1651 H 0.32366 0.46533 0.75489
 H1652 H 0.35183 0.45761 0.76504
 C1653 C 0.40916 -0.05514 0.29417
 C1654 C 0.39358 -0.04957 0.28799
 C1655 C 0.38037 -0.04611 0.29899
 C1656 C 0.38296 -0.04816 0.31635
 C1657 C 0.39847 -0.05392 0.32253
 C1658 C 0.41172 -0.05760 0.31149
 N1659 N 0.36438 -0.04089 0.29227
 N1660 N 0.35261 -0.03570 0.30172
 C1661 C 0.33639 -0.03076 0.29543
 C1662 C 0.32533 -0.02257 0.30630
 C1663 C 0.30938 -0.01758 0.30074
 C1664 C 0.30404 -0.02095 0.28419
 C1665 C 0.31508 -0.02941 0.27330
 C1666 C 0.33121 -0.03417 0.27884
 H1667 H 0.41919 -0.05775 0.28541
 H1668 H 0.39177 -0.04800 0.27459
 H1669 H 0.37293 -0.04564 0.32512
 H1670 H 0.40000 -0.05588 0.33590
 H1671 H 0.32914 -0.01997 0.31912
 H1672 H 0.30112 -0.01126 0.30950
 H1673 H 0.31131 -0.03218 0.26050
 H1674 H 0.33953 -0.04062 0.27025
 C1675 C 0.09597 0.57459 0.69571
 C1676 C 0.11027 0.56847 0.70401
 C1677 C 0.11385 0.55118 0.70415
 C1678 C 0.10257 0.53990 0.69638
 C1679 C 0.08810 0.54598 0.68826
 C1680 C 0.08482 0.56345 0.68744
 N1681 N 0.12922 0.54557 0.71184
 N1682 N 0.13464 0.53051 0.71034
 C1683 C 0.15026 0.52525 0.71781
 C1684 C 0.15680 0.50937 0.71374
 C1685 C 0.17243 0.50422 0.72015
 C1686 C 0.18170 0.51486 0.73094
 C1687 C 0.17491 0.53068 0.73529
 C1688 C 0.15937 0.53586 0.72872
 H1689 H 0.09389 0.58809 0.69547
 H1690 H 0.11884 0.57728 0.71001
 H1691 H 0.10499 0.52643 0.69651
 H1692 H 0.07955 0.53704 0.68242
 H1693 H 0.14990 0.50108 0.70534
 H1694 H 0.17728 0.49195 0.71660
 H1695 H 0.18175 0.53921 0.74350
 H1696 H 0.15456 0.54820 0.73208
 C1697 C 0.06572 0.03408 0.20563
 C1698 C 0.07963 0.02676 0.21366
 C1699 C 0.09284 0.03689 0.21955
 C1700 C 0.09177 0.05453 0.21776
 C1701 C 0.07800 0.06183 0.20952
 C1702 C 0.06496 0.05165 0.20311
 N1703 N 0.10770 0.02902 0.22620
 N1704 N 0.11915 0.03769 0.23339
 C1705 C 0.13470 0.03051 0.23908
 C1706 C 0.14534 0.04043 0.24903
 C1707 C 0.16120 0.03449 0.25378
 C1708 C 0.16684 0.01852 0.24842
 C1709 C 0.15603 0.00844 0.23857
 C1710 C 0.14001 0.01436 0.23401
 H1711 H 0.05579 0.02599 0.20082
 H1712 H 0.08032 0.01315 0.21495
 H1713 H 0.10189 0.06263 0.22210
 H1714 H 0.07788 0.07536 0.20751
 H1715 H 0.14142 0.05295 0.25288
 H1716 H 0.16923 0.04265 0.26125
 H1717 H 0.16003 -0.00390 0.23426
 H1718 H 0.13200 0.00654 0.22616
 C1719 C 0.65859 0.70575 0.18154
 C1720 C 0.64265 0.71206 0.18530
 C1721 C 0.63774 0.71413 0.20197
 C1722 C 0.64903 0.70981 0.21499
 C1723 C 0.66509 0.70362 0.21123
 C1724 C 0.67004 0.70158 0.19446
 N1725 N 0.62123 0.72053 0.20526
 N1726 N 0.61522 0.72125 0.21999
 C1727 C 0.59862 0.72755 0.22309
 C1728 C 0.59167 0.72531 0.23899
 C1729 C 0.57517 0.73046 0.24218
 C1730 C 0.56540 0.73820 0.22953
 C1731 C 0.57258 0.74092 0.21369
 C1732 C 0.58903 0.73554 0.21045
 H1733 H 0.66200 0.70410 0.16851
 H1734 H 0.63403 0.71527 0.17518
 H1735 H 0.64550 0.71132 0.22800
 H1736 H 0.67373 0.70057 0.22137
 H1737 H 0.59894 0.71923 0.24883
 H1738 H 0.57003 0.72828 0.25454
 H1739 H 0.56535 0.74678 0.20368
 H1740 H 0.59418 0.73748 0.19806
 C1741 C 0.17078 0.69349 0.71357
 C1742 C 0.15622 0.70112 0.71978
 C1743 C 0.14428 0.70808 0.70877
 C1744 C 0.14708 0.70743 0.69139
 C1745 C 0.16153 0.69964 0.68516
 C1746 C 0.17350 0.69254 0.69619
 N1747 N 0.12907 0.71497 0.71545
 N1748 N 0.11847 0.72288 0.70631
 C1749 C 0.10281 0.72890 0.71278
 C1750 C 0.09234 0.73870 0.70245
 C1751 C 0.07643 0.74374 0.70798
 C1752 C 0.07069 0.73884 0.72391
 C1753 C 0.08141 0.72930 0.73438
 C1754 C 0.09735 0.72443 0.72890
 H1755 H 0.17987 0.68815 0.72229
 H1756 H 0.15416 0.70150 0.73320
 H1757 H 0.13795 0.71258 0.68262
 H1758 H 0.16323 0.69886 0.67172
 H1759 H 0.09640 0.74216 0.68998
 H1760 H 0.06844 0.75099 0.69958
 H1761 H 0.07738 0.72538 0.74674
 H1762 H 0.10521 0.71681 0.73710
 C1763 C 0.57975 0.20036 0.52833
 C1764 C 0.59476 0.20659 0.52167
 C1765 C 0.60685 0.21405 0.53216
 C1766 C 0.60346 0.21587 0.54936
 C1767 C 0.58851 0.20959 0.55603
 C1768 C 0.57668 0.20130 0.54567
 N1769 N 0.62280 0.21876 0.52531
 N1770 N 0.63419 0.22572 0.53426
 C1771 C 0.65052 0.22969 0.52789
 C1772 C 0.66183 0.23845 0.53822
 C1773 C 0.67815 0.24187 0.53278
 C1774 C 0.68352 0.23641 0.51688
 C1775 C 0.67208 0.22765 0.50647
 C1776 C 0.65569 0.22436 0.51191
 H1777 H 0.57072 0.19433 0.52002
 H1778 H 0.59717 0.20519 0.50838
 H1779 H 0.61258 0.22166 0.55773
 H1780 H 0.58658 0.21063 0.56942
 H1781 H 0.65802 0.24253 0.55060
 H1782 H 0.68664 0.24857 0.54115
 H1783 H 0.67579 0.22330 0.49415
 H1784 H 0.64718 0.21746 0.50374
 C1785 C 0.58288 0.69711 0.03722
 C1786 C 0.59783 0.70381 0.03087
 C1787 C 0.61061 0.70931 0.04175
 C1788 C 0.60820 0.70817 0.05918
 C1789 C 0.59333 0.70130 0.06555
 C1790 C 0.58054 0.69556 0.05464
 N1791 N 0.62606 0.71546 0.03484
 N1792 N 0.63741 0.72229 0.04396
 C1793 C 0.65316 0.72794 0.03732
 C1794 C 0.66401 0.73724 0.04769
 C1795 C 0.67972 0.74248 0.04188
 C1796 C 0.68499 0.73831 0.02557
 C1797 C 0.67404 0.72898 0.01513
 C1798 C 0.65822 0.72392 0.02092
 H1799 H 0.57319 0.69294 0.02852
 H1800 H 0.59951 0.70462 0.01741
 H1801 H 0.61793 0.71225 0.06787
 H1802 H 0.59199 0.70011 0.07901
 H1803 H 0.66030 0.74035 0.06037
 H1804 H 0.68787 0.74951 0.05031
 H1805 H 0.67773 0.72553 0.00253
 H1806 H 0.65008 0.71664 0.01269
 C1807 C 0.15753 0.07231 0.05975
 C1808 C 0.14259 0.06697 0.05200
 C1809 C 0.13866 0.04977 0.05100
 C1810 C 0.15002 0.03786 0.05770
 C1811 C 0.16507 0.04318 0.06530
 C1812 C 0.16897 0.06048 0.06649
 N1813 N 0.12300 0.04482 0.04336
 N1814 N 0.11767 0.02965 0.04376
 C1815 C 0.10191 0.02476 0.03629
 C1816 C 0.09555 0.00864 0.03963
 C1817 C 0.07982 0.00374 0.03331
 C1818 C 0.07024 0.01484 0.02326
 C1819 C 0.07687 0.03086 0.01950
 C1820 C 0.09253 0.03583 0.02605
 H1821 H 0.16008 0.08571 0.06064
 H1822 H 0.13393 0.07628 0.04694
 H1823 H 0.14730 0.02447 0.05703
 H1824 H 0.17371 0.03379 0.07024
 H1825 H 0.10266 -0.00003 0.04746
 H1826 H 0.07509 -0.00870 0.03638
 H1827 H 0.06976 0.03974 0.01190
 H1828 H 0.09721 0.04835 0.02323
 C1829 C 0.16058 0.56680 0.55292
 C1830 C 0.14542 0.56191 0.54535
 C1831 C 0.14084 0.54487 0.54470
 C1832 C 0.15176 0.53262 0.55153
 C1833 C 0.16705 0.53749 0.55893
 C1834 C 0.17157 0.55464 0.55979
 N1835 N 0.12497 0.54043 0.53725
 N1836 N 0.11893 0.52556 0.53804
 C1837 C 0.10293 0.52140 0.53067
 C1838 C 0.09557 0.50581 0.53443
 C1839 C 0.07956 0.50176 0.52820
 C1840 C 0.07073 0.51320 0.51785
 C1841 C 0.07837 0.52865 0.51370
 C1842 C 0.09429 0.53276 0.52013
 H1843 H 0.16366 0.58010 0.55357
 H1844 H 0.13709 0.57146 0.54018
 H1845 H 0.14850 0.51935 0.55111
 H1846 H 0.17536 0.52789 0.56403
 H1847 H 0.10212 0.49693 0.54251
 H1848 H 0.07404 0.48974 0.53158
 H1849 H 0.07187 0.53777 0.50585
 H1850 H 0.09974 0.54487 0.51698
 C1851 C 0.65428 0.07223 0.55112
 C1852 C 0.63863 0.06698 0.54496
 C1853 C 0.63502 0.04978 0.54323
 C1854 C 0.64740 0.03777 0.54743
 C1855 C 0.66319 0.04303 0.55334
 C1856 C 0.66676 0.06032 0.55538
 N1857 N 0.61865 0.04495 0.53730
 N1858 N 0.61329 0.02981 0.53793
 C1859 C 0.59681 0.02547 0.53188
 C1860 C 0.59001 0.00966 0.53584
 C1861 C 0.57363 0.00546 0.53073
 C1862 C 0.56390 0.01697 0.52131
 C1863 C 0.57094 0.03267 0.51703
 C1864 C 0.58718 0.03693 0.52233
 H1865 H 0.65656 0.08561 0.55277
 H1866 H 0.62916 0.07633 0.54179
 H1867 H 0.64490 0.02439 0.54608
 H1868 H 0.67262 0.03361 0.55642
 H1869 H 0.59732 0.00072 0.54317
 H1870 H 0.56857 -0.00675 0.53417
 H1871 H 0.56376 0.04187 0.50987
 H1872 H 0.59217 0.04920 0.51904
 C1873 C 0.66348 0.57129 0.04436
 C1874 C 0.64921 0.56492 0.03620
 C1875 C 0.64446 0.54806 0.03830
 C1876 C 0.65462 0.53732 0.04810
 C1877 C 0.66906 0.54361 0.05611
 C1878 C 0.67340 0.56081 0.05479
 N1879 N 0.62892 0.54247 0.03095
 N1880 N 0.62247 0.52814 0.03423
 C1881 C 0.60655 0.52310 0.02726
 C1882 C 0.59886 0.50838 0.03317
 C1883 C 0.58271 0.50389 0.02761
 C1884 C 0.57404 0.51402 0.01587
 C1885 C 0.58206 0.52851 0.00955
 C1886 C 0.59812 0.53305 0.01523
 H1887 H 0.66641 0.58454 0.04286
 H1888 H 0.64150 0.57330 0.02860
 H1889 H 0.65131 0.52416 0.04973
 H1890 H 0.67667 0.53509 0.06362
 H1891 H 0.60522 0.50061 0.04244
 H1892 H 0.57693 0.49263 0.03269
 H1893 H 0.57575 0.53664 0.00055
 H1894 H 0.60380 0.54448 0.01044
 C1895 C 0.06038 0.04383 0.16690
 C1896 C 0.05643 0.03655 0.15143
 C1897 C 0.03978 0.03626 0.14562
 C1898 C 0.02693 0.04295 0.15570
 C1899 C 0.03084 0.05004 0.17132
 C1900 C 0.04763 0.05072 0.17698
 N1901 N 0.03643 0.02967 0.12923
 N1902 N 0.02211 0.03114 0.12211
 C1903 C 0.01912 0.02490 0.10550
 C1904 C 0.00414 0.02928 0.09725
 C1905 C 0.00135 0.02436 0.08063
 C1906 C 0.01348 0.01476 0.07205
 C1907 C 0.02831 0.00996 0.08054
 C1908 C 0.03116 0.01506 0.09710
 H1909 H 0.07344 0.04439 0.17088
 H1910 H 0.06643 0.03150 0.14373
 H1911 H 0.01394 0.04280 0.15146
 H1912 H 0.02084 0.05521 0.17893
 H1913 H -0.00522 0.03685 0.10361
 H1914 H -0.01026 0.02816 0.07446
 H1915 H 0.03790 0.00260 0.07427
 H1916 H 0.04283 0.01147 0.10326
 C1917 C 0.07585 0.55459 0.65151
 C1918 C 0.07001 0.54687 0.63680
 C1919 C 0.05277 0.54646 0.63305
 C1920 C 0.04133 0.55378 0.64429
 C1921 C 0.04714 0.56133 0.65911
 C1922 C 0.06446 0.56175 0.66292
 N1923 N 0.04730 0.53874 0.61769
 N1924 N 0.03215 0.53969 0.61242
 C1925 C 0.02692 0.53203 0.59693
 C1926 C 0.01119 0.53625 0.59007
 C1927 C 0.00623 0.52988 0.57441
 C1928 C 0.01687 0.51892 0.56549
 C1929 C 0.03240 0.51422 0.57273
 C1930 C 0.03743 0.52079 0.58825
 H1931 H 0.08928 0.55509 0.65391
 H1932 H 0.07896 0.54139 0.62817
 H1933 H 0.02793 0.55361 0.64166
 H1934 H 0.03810 0.56679 0.66766
 H1935 H 0.00295 0.54486 0.59667
 H1936 H -0.00582 0.53370 0.56919
 H1937 H 0.04094 0.50590 0.56614
 H1938 H 0.04962 0.51726 0.59335
 C1939 C 0.55901 0.03227 0.67006
 C1940 C 0.55380 0.02582 0.65455
 C1941 C 0.53804 0.03007 0.64787
 C1942 C 0.52709 0.04020 0.65732
 C1943 C 0.53220 0.04652 0.67295
 C1944 C 0.54852 0.04323 0.67927
 N1945 N 0.53385 0.02459 0.63121
 N1946 N 0.52066 0.02966 0.62355
 C1947 C 0.51685 0.02473 0.60664
 C1948 C 0.50290 0.03194 0.59857
 C1949 C 0.49934 0.02819 0.58177
 C1950 C 0.50967 0.01701 0.57273
 C1951 C 0.52351 0.00950 0.58099
 C1952 C 0.52711 0.01336 0.59778
 H1953 H 0.57149 0.02897 0.67450
 H1954 H 0.56229 0.01789 0.64745
 H1955 H 0.51470 0.04343 0.65253
 H1956 H 0.52351 0.05433 0.67992
 H1957 H 0.49492 0.04073 0.60525
 H1958 H 0.48853 0.03414 0.57586
 H1959 H 0.53173 0.00085 0.57441
 H1960 H 0.53799 0.00762 0.60375
 C1961 C 0.57481 0.55698 0.15465
 C1962 C 0.57013 0.54910 0.13961
 C1963 C 0.55315 0.54797 0.13491
 C1964 C 0.54081 0.55479 0.14551
 C1965 C 0.54547 0.56255 0.16063
 C1966 C 0.56251 0.56365 0.16542
 N1967 N 0.54882 0.54010 0.11924
 N1968 N 0.53382 0.54015 0.11347
 C1969 C 0.52942 0.53253 0.09771
 C1970 C 0.51341 0.53560 0.09092
 C1971 C 0.50900 0.52928 0.07511
 C1972 C 0.52049 0.51951 0.06589
 C1973 C 0.53637 0.51592 0.07299
 C1974 C 0.54086 0.52248 0.08873
 H1975 H 0.58806 0.55800 0.15782
 H1976 H 0.57977 0.54403 0.13149
 H1977 H 0.52758 0.55409 0.14215
 H1978 H 0.53575 0.56760 0.16867
 H1979 H 0.50447 0.54328 0.09773
 H1980 H 0.49665 0.53221 0.07001
 H1981 H 0.54552 0.50852 0.06615
 H1982 H 0.55329 0.51987 0.09378
 C1983 C 0.18014 0.54818 0.59576
 C1984 C 0.18503 0.54140 0.61123
 C1985 C 0.20208 0.53897 0.61507
 C1986 C 0.21428 0.54309 0.60306
 C1987 C 0.20938 0.54963 0.58745
 C1988 C 0.19225 0.55239 0.58367
 N1989 N 0.20661 0.53247 0.63128
 N1990 N 0.22172 0.53242 0.63675
 C1991 C 0.22598 0.52591 0.65303
 C1992 C 0.24199 0.52914 0.65977
 C1993 C 0.24624 0.52358 0.67594
 C1994 C 0.23459 0.51441 0.68552
 C1995 C 0.21865 0.51085 0.67854
 C1996 C 0.21434 0.51663 0.66250
 H1997 H 0.16688 0.55035 0.59331
 H1998 H 0.17552 0.53830 0.62040
 H1999 H 0.22755 0.54121 0.60572
 H2000 H 0.21896 0.55262 0.57833
 H2001 H 0.25109 0.53625 0.65260
 H2002 H 0.25863 0.52649 0.68094
 H2003 H 0.20934 0.50392 0.68563
 H2004 H 0.20190 0.51391 0.65754
 C2005 C 0.20792 0.05558 0.09240
 C2006 C 0.21398 0.04901 0.10758
 C2007 C 0.20280 0.04429 0.12022
 C2008 C 0.18536 0.04601 0.11741
 C2009 C 0.17930 0.05278 0.10231
 C2010 C 0.19052 0.05779 0.08969
 N2011 N 0.20943 0.03840 0.13596
 N2012 N 0.20000 0.03204 0.14714
 C2013 C 0.20627 0.02668 0.16319
 C2014 C 0.19564 0.01743 0.17362
 C2015 C 0.20103 0.01244 0.18958
 C2016 C 0.21717 0.01684 0.19556
 C2017 C 0.22788 0.02616 0.18506
 C2018 C 0.22252 0.03095 0.16894
 H2019 H 0.21683 0.05924 0.08285
 H2020 H 0.22743 0.04775 0.10957
 H2021 H 0.17645 0.04254 0.12703
 H2022 H 0.16586 0.05454 0.10064
 H2023 H 0.18306 0.01415 0.16937
 H2024 H 0.19239 0.00542 0.19738
 H2025 H 0.24037 0.02975 0.18931
 H2026 H 0.23093 0.03820 0.16112
 C2027 C 0.69408 0.21100 0.66356
 C2028 C 0.70098 0.21802 0.64906
 C2029 C 0.70726 0.20758 0.63638
 C2030 C 0.70667 0.18995 0.63841
 C2031 C 0.69962 0.18293 0.65281
 C2032 C 0.69318 0.19338 0.66551
 N2033 N 0.71358 0.21510 0.62134
 N2034 N 0.72086 0.20637 0.61010
 C2035 C 0.72658 0.21358 0.59469
 C2036 C 0.73591 0.20350 0.58372
 C2037 C 0.74102 0.20983 0.56821
 C2038 C 0.73669 0.22636 0.56330
 C2039 C 0.72745 0.23652 0.57443
 C2040 C 0.72250 0.23022 0.59003
 H2041 H 0.68926 0.21930 0.67321
 H2042 H 0.70134 0.23162 0.64763
 H2043 H 0.71133 0.18160 0.62873
 H2044 H 0.69888 0.16931 0.65390
 H2045 H 0.73907 0.19064 0.58715
 H2046 H 0.74802 0.20162 0.55992
 H2047 H 0.72392 0.24930 0.57104
 H2048 H 0.71522 0.23822 0.59828
 C2049 C 0.69565 0.72026 0.17386
 C2050 C 0.70255 0.72714 0.15931
 C2051 C 0.70934 0.71657 0.14701
 C2052 C 0.70947 0.69900 0.14956
 C2053 C 0.70244 0.69211 0.16402
 C2054 C 0.69531 0.70267 0.17623
 N2055 N 0.71523 0.72385 0.13170
 N2056 N 0.72248 0.71493 0.12061
 C2057 C 0.72770 0.72174 0.10487
 C2058 C 0.73708 0.71151 0.09412
 C2059 C 0.74173 0.71738 0.07832
 C2060 C 0.73690 0.73362 0.07292
 C2061 C 0.72753 0.74393 0.08379
 C2062 C 0.72302 0.73806 0.09969
 H2063 H 0.69023 0.72861 0.18314
 H2064 H 0.70236 0.74069 0.15747
 H2065 H 0.71455 0.69055 0.14018
 H2066 H 0.70209 0.67852 0.16545
 H2067 H 0.74065 0.69887 0.09796
 H2068 H 0.74884 0.70907 0.07023
 H2069 H 0.72363 0.75649 0.08000
 H2070 H 0.71566 0.74615 0.10778
 C2071 C 0.55340 0.68092 0.08887
 C2072 C 0.54588 0.68597 0.10383
 C2073 C 0.54343 0.70311 0.10728
 C2074 C 0.54869 0.71526 0.09555
 C2075 C 0.55612 0.71020 0.08049
 C2076 C 0.55846 0.69297 0.07697
 N2077 N 0.53568 0.70775 0.12279
 N2078 N 0.53413 0.72307 0.12738
 C2079 C 0.52654 0.72759 0.14301
 C2080 C 0.52792 0.74425 0.14864
 C2081 C 0.52173 0.74885 0.16435
 C2082 C 0.51378 0.73686 0.17462
 C2083 C 0.51180 0.72025 0.16866
 C2084 C 0.51823 0.71561 0.15301
 H2085 H 0.55522 0.66757 0.08652
 H2086 H 0.54197 0.67650 0.11280
 H2087 H 0.54693 0.72861 0.09796
 H2088 H 0.55983 0.71969 0.07146
 H2089 H 0.53424 0.75360 0.14102
 H2090 H 0.52337 0.76177 0.16856
 H2091 H 0.50582 0.71072 0.17633
 H2092 H 0.51693 0.70265 0.14887
 C2093 C 0.05434 0.67616 0.59217
 C2094 C 0.04563 0.68252 0.60596
 C2095 C 0.04475 0.69993 0.60881
 C2096 C 0.05241 0.71105 0.59743
 C2097 C 0.06099 0.70470 0.58350
 C2098 C 0.06221 0.68718 0.58082
 N2099 N 0.03656 0.70588 0.62365
 N2100 N 0.03687 0.72131 0.62814
 C2101 C 0.02912 0.72690 0.64336
 C2102 C 0.03239 0.74326 0.64919
 C2103 C 0.02640 0.74852 0.66481
 C2104 C 0.01680 0.73753 0.67478
 C2105 C 0.01287 0.72137 0.66851
 C2106 C 0.01904 0.71607 0.65299
 H2107 H 0.05522 0.66261 0.59053
 H2108 H 0.03984 0.67383 0.61468
 H2109 H 0.05185 0.72458 0.59934
 H2110 H 0.06681 0.71346 0.57487
 H2111 H 0.04012 0.75174 0.64188
 H2112 H 0.02962 0.76106 0.66925
 H2113 H 0.00558 0.71255 0.67588
 H2114 H 0.01625 0.70338 0.64871
 C2115 C 0.56334 0.60230 0.17675
 C2116 C 0.55709 0.61787 0.18217
 C2117 C 0.54632 0.61874 0.19598
 C2118 C 0.54178 0.60379 0.20433
 C2119 C 0.54841 0.58825 0.19918
 C2120 C 0.55926 0.58747 0.18540
 N2121 N 0.54091 0.63497 0.20177
 N2122 N 0.52784 0.63693 0.21071
 C2123 C 0.52321 0.65326 0.21689
 C2124 C 0.50618 0.65712 0.21927
 C2125 C 0.50137 0.67331 0.22444
 C2126 C 0.51362 0.68563 0.22794
 C2127 C 0.53073 0.68154 0.22621
 C2128 C 0.53549 0.66554 0.22050
 H2129 H 0.57187 0.60183 0.16622
 H2130 H 0.56074 0.62931 0.17570
 H2131 H 0.53361 0.60421 0.21514
 H2132 H 0.54532 0.57687 0.20602
 H2133 H 0.49661 0.64773 0.21659
 H2134 H 0.48810 0.67623 0.22568
 H2135 H 0.54038 0.69091 0.22871
 H2136 H 0.54873 0.66274 0.21891
 C2137 C 0.06797 0.60054 0.67410
 C2138 C 0.06213 0.61630 0.67939
 C2139 C 0.05112 0.61751 0.69298
 C2140 C 0.04599 0.60274 0.70130
 C2141 C 0.05221 0.58700 0.69628
 C2142 C 0.06324 0.58586 0.68268
 N2143 N 0.04602 0.63389 0.69859
 N2144 N 0.03278 0.63622 0.70718
 C2145 C 0.02846 0.65265 0.71329
 C2146 C 0.01153 0.65673 0.71597
 C2147 C 0.00706 0.67292 0.72143
 C2148 C 0.01956 0.68501 0.72488
 C2149 C 0.03656 0.68072 0.72268
 C2150 C 0.04098 0.66474 0.71671
 H2151 H 0.07659 0.59976 0.66366
 H2152 H 0.06623 0.62760 0.67296
 H2153 H 0.03763 0.60344 0.71194
 H2154 H 0.04859 0.57571 0.70302
 H2155 H 0.00179 0.64749 0.71344
 H2156 H -0.00613 0.67597 0.72309
 H2157 H 0.04640 0.68990 0.72516
 H2158 H 0.05415 0.66176 0.71489
 C2159 C 0.07816 0.15457 0.04722
 C2160 C 0.07185 0.13964 0.04028
 C2161 C 0.05462 0.13608 0.04076
 C2162 C 0.04360 0.14790 0.04796
 C2163 C 0.04988 0.16299 0.05476
 C2164 C 0.06730 0.16639 0.05477
 N2165 N 0.04885 0.12027 0.03411
 N2166 N 0.03378 0.11507 0.03566
 C2167 C 0.02855 0.09898 0.02914
 C2168 C 0.01269 0.09265 0.03336
 C2169 C 0.00773 0.07651 0.02811
 C2170 C 0.01853 0.06648 0.01833
 C2171 C 0.03426 0.07311 0.01368
 C2172 C 0.03925 0.08916 0.01909
 H2173 H 0.09161 0.15668 0.04688
 H2174 H 0.08046 0.13066 0.03473
 H2175 H 0.03019 0.14549 0.04833
 H2176 H 0.04114 0.17198 0.06007
 H2177 H 0.00431 0.10009 0.04108
 H2178 H -0.00448 0.07180 0.03188
 H2179 H 0.04293 0.06572 0.00625
 H2180 H 0.05157 0.09378 0.01559
 C2181 C 0.07785 0.65252 0.55458
 C2182 C 0.07259 0.63785 0.54636
 C2183 C 0.05565 0.63563 0.54199
 C2184 C 0.04394 0.64840 0.54577
 C2185 C 0.04924 0.66319 0.55385
 C2186 C 0.06624 0.66536 0.55838
 N2187 N 0.05066 0.62014 0.53414
 N2188 N 0.03528 0.61636 0.53157
 C2189 C 0.03044 0.60062 0.52411
 C2190 C 0.01355 0.59568 0.52476
 C2191 C 0.00866 0.57974 0.51900
 C2192 C 0.02059 0.56857 0.51221
 C2193 C 0.03742 0.57385 0.51086
 C2194 C 0.04234 0.58971 0.51687
 H2195 H 0.09099 0.65380 0.55811
 H2196 H 0.08169 0.62805 0.54359
 H2197 H 0.03076 0.64696 0.54249
 H2198 H 0.04010 0.67296 0.55657
 H2199 H 0.00427 0.60400 0.53027
 H2200 H -0.00442 0.57605 0.52013
 H2201 H 0.04690 0.56548 0.50578
 H2202 H 0.05547 0.59330 0.51615
 C2203 C 0.56882 0.16447 0.54182
 C2204 C 0.56370 0.14839 0.53669
 C2205 C 0.54666 0.14396 0.53686
 C2206 C 0.53466 0.15591 0.54200
 C2207 C 0.53974 0.17207 0.54695
 C2208 C 0.55688 0.17654 0.54692
 N2209 N 0.54194 0.12722 0.53197
 N2210 N 0.52705 0.12163 0.53382
 C2211 C 0.52247 0.10486 0.52888
 C2212 C 0.50665 0.09860 0.53333
 C2213 C 0.50199 0.08212 0.52905
 C2214 C 0.51306 0.07169 0.52004
 C2215 C 0.52887 0.07811 0.51539
 C2216 C 0.53356 0.09451 0.51984
 H2217 H 0.58214 0.16739 0.54205
 H2218 H 0.57306 0.13924 0.53285
 H2219 H 0.52139 0.15277 0.54219
 H2220 H 0.53029 0.18110 0.55083
 H2221 H 0.49799 0.10647 0.54028
 H2222 H 0.48970 0.07756 0.53275
 H2223 H 0.53772 0.07038 0.50852
 H2224 H 0.54586 0.09909 0.51622
 C2225 C 0.54060 0.67137 0.05164
 C2226 C 0.53346 0.65672 0.04487
 C2227 C 0.54375 0.64376 0.03883
 C2228 C 0.56135 0.64572 0.03939
 C2229 C 0.56850 0.66027 0.04634
 C2230 C 0.55820 0.67319 0.05269
 N2231 N 0.53612 0.62844 0.03297
 N2232 N 0.54472 0.61695 0.02585
 C2233 C 0.53758 0.60118 0.02065
 C2234 C 0.54744 0.59017 0.01118
 C2235 C 0.54135 0.57427 0.00667
 C2236 C 0.52525 0.56898 0.01176
 C2237 C 0.51525 0.58015 0.02115
 C2238 C 0.52133 0.59618 0.02550
 H2239 H 0.53241 0.68118 0.05641
 H2240 H 0.51989 0.65536 0.04452
 H2241 H 0.56959 0.63581 0.03490
 H2242 H 0.58208 0.66126 0.04721
 H2243 H 0.56001 0.59386 0.00746
 H2244 H 0.54946 0.56597 -0.00045
 H2245 H 0.50282 0.57645 0.02525
 H2246 H 0.51352 0.60448 0.03293
 C2247 C 0.69736 0.09289 0.56772
 C2248 C 0.70429 0.10805 0.56210
 C2249 C 0.70409 0.11206 0.54501
 C2250 C 0.69715 0.10054 0.53345
 C2251 C 0.69044 0.08522 0.53904
 C2252 C 0.69037 0.08129 0.55626
 N2253 N 0.71093 0.12792 0.53984
 N2254 N 0.70889 0.13379 0.52509
 C2255 C 0.71592 0.14972 0.52032
 C2256 C 0.71080 0.15722 0.50521
 C2257 C 0.71700 0.17309 0.50060
 C2258 C 0.72868 0.18157 0.51097
 C2259 C 0.73404 0.17382 0.52597
 C2260 C 0.72766 0.15811 0.53066
 H2261 H 0.69727 0.09031 0.58107
 H2262 H 0.70958 0.11685 0.57112
 H2263 H 0.69696 0.10335 0.52015
 H2264 H 0.68522 0.07644 0.52997
 H2265 H 0.70178 0.15088 0.49713
 H2266 H 0.71267 0.17872 0.48895
 H2267 H 0.74294 0.18004 0.53428
 H2268 H 0.73187 0.15254 0.54237
 C2269 C 0.70878 0.58169 0.04685
 C2270 C 0.71652 0.59643 0.04104
 C2271 C 0.71096 0.61230 0.04649
 C2272 C 0.69795 0.61327 0.05833
 C2273 C 0.69056 0.59854 0.06449
 C2274 C 0.69576 0.58271 0.05858
 N2275 N 0.71848 0.62728 0.03980
 N2276 N 0.71040 0.64117 0.03937
 C2277 C 0.71759 0.65652 0.03323
 C2278 C 0.70678 0.66952 0.02810
 C2279 C 0.71328 0.68483 0.02237
 C2280 C 0.73076 0.68756 0.02213
 C2281 C 0.74164 0.67457 0.02745
 C2282 C 0.73511 0.65904 0.03275
 H2283 H 0.71289 0.56950 0.04227
 H2284 H 0.72657 0.59552 0.03196
 H2285 H 0.69357 0.62540 0.06284
 H2286 H 0.68052 0.59941 0.07356
 H2287 H 0.69326 0.66775 0.02852
 H2288 H 0.70461 0.69473 0.01857
 H2289 H 0.75516 0.67642 0.02744
 H2290 H 0.74367 0.64919 0.03684
 C2291 C 0.18044 0.65591 0.70119
 C2292 C 0.18496 0.64015 0.70769
 C2293 C 0.20193 0.63569 0.70944
 C2294 C 0.21444 0.64730 0.70477
 C2295 C 0.20992 0.66317 0.69843
 C2296 C 0.19286 0.66762 0.69651
 N2297 N 0.20604 0.61929 0.71587
 N2298 N 0.22100 0.61352 0.71594
 C2299 C 0.22493 0.59707 0.72239
 C2300 C 0.24103 0.59041 0.71980
 C2301 C 0.24510 0.57419 0.72546
 C2302 C 0.23314 0.56442 0.73406
 C2303 C 0.21706 0.57127 0.73691
 C2304 C 0.21296 0.58742 0.73105
 H2305 H 0.16721 0.65891 0.69966
 H2306 H 0.17521 0.63130 0.71121
 H2307 H 0.22765 0.64414 0.70608
 H2308 H 0.21972 0.67201 0.69504
 H2309 H 0.25037 0.59774 0.71317
 H2310 H 0.25761 0.56930 0.72312
 H2311 H 0.20755 0.56404 0.74340
 H2312 H 0.20043 0.59232 0.73325
 C2313 C 0.20846 0.16697 0.19612
 C2314 C 0.21493 0.15276 0.20441
 C2315 C 0.20409 0.14032 0.21057
 C2316 C 0.18663 0.14218 0.20823
 C2317 C 0.18016 0.15622 0.19971
 C2318 C 0.19099 0.16882 0.19357
 N2319 N 0.21107 0.12565 0.21860
 N2320 N 0.20193 0.11542 0.22683
 C2321 C 0.20845 0.10022 0.23419
 C2322 C 0.19804 0.09076 0.24470
 C2323 C 0.20346 0.07521 0.25106
 C2324 C 0.21936 0.06870 0.24680
 C2325 C 0.22996 0.07843 0.23655
 C2326 C 0.22459 0.09411 0.23036
 H2327 H 0.21709 0.17651 0.19165
 H2328 H 0.22842 0.15145 0.20608
 H2329 H 0.17799 0.13264 0.21270
 H2330 H 0.16669 0.15713 0.19773
 H2331 H 0.18555 0.09531 0.24769
 H2332 H 0.19491 0.06800 0.25879
 H2333 H 0.24228 0.07379 0.23304
 H2334 H 0.23284 0.10117 0.22220
 C2335 C 0.70991 1.16945 0.68962
 C2336 C 0.71691 1.15457 0.69606
 C2337 C 0.70651 1.14124 0.70103
 C2338 C 0.68894 1.14299 0.69955
 C2339 C 0.68194 1.15776 0.69289
 C2340 C 0.69235 1.17115 0.68779
 N2341 N 0.71405 1.12588 0.70697
 N2342 N 0.70533 1.11434 0.71382
 C2343 C 0.71246 1.09861 0.71920
 C2344 C 0.70266 1.08778 0.72894
 C2345 C 0.70890 1.07204 0.73389
 C2346 C 0.72502 1.06672 0.72892
 C2347 C 0.73489 1.07765 0.71916
 C2348 C 0.72870 1.09353 0.71443
 H2349 H 0.71819 1.17960 0.68586
 H2350 H 0.73047 1.15337 0.69712
 H2351 H 0.68064 1.13280 0.70317
 H2352 H 0.66840 1.15859 0.69137
 H2353 H 0.69009 1.09153 0.73262
 H2354 H 0.70091 1.06388 0.74128
 H2355 H 0.74736 1.07391 0.71516
 H2356 H 0.73646 1.10168 0.70679
 C2357 C 0.71137 0.67971 0.20147
 C2358 C 0.71848 0.66500 0.20820
 C2359 C 0.70822 0.65147 0.21286
 C2360 C 0.69064 0.65292 0.21102
 C2361 C 0.68354 0.66753 0.20409
 C2362 C 0.69384 0.68102 0.19904
 N2363 N 0.71592 0.63613 0.21865
 N2364 N 0.70725 0.62418 0.22485
 C2365 C 0.71455 0.60841 0.22990
 C2366 C 0.70465 0.59703 0.23887
 C2367 C 0.71098 0.58117 0.24330
 C2368 C 0.72733 0.57630 0.23858
 C2369 C 0.73732 0.58780 0.22964
 C2370 C 0.73103 0.60380 0.22541
 H2371 H 0.71959 0.68995 0.19780
 H2372 H 0.73203 0.66405 0.20956
 H2373 H 0.68244 0.64258 0.21444
 H2374 H 0.67003 0.66806 0.20218
 H2375 H 0.69191 0.60040 0.24230
 H2376 H 0.70288 0.57257 0.25005
 H2377 H 0.74995 0.58441 0.22583
 H2378 H 0.73887 0.61238 0.21836
 C2379 C 0.54491 0.07017 0.71733
 C2380 C 0.53958 0.08604 0.72289
 C2381 C 0.53697 0.09920 0.71144
 C2382 C 0.53984 0.09634 0.69428
 C2383 C 0.54538 0.08055 0.68875
 C2384 C 0.54783 0.06726 0.70020
 N2385 N 0.53184 0.11543 0.71752
 N2386 N 0.52703 0.12706 0.70756
 C2387 C 0.52231 0.14354 0.71324
 C2388 C 0.51467 0.15461 0.70183
 C2389 C 0.51022 0.17092 0.70674
 C2390 C 0.51358 0.17658 0.72317
 C2391 C 0.52132 0.16545 0.73464
 C2392 C 0.52556 0.14900 0.72975
 H2393 H 0.54686 0.06017 0.72640
 H2394 H 0.53750 0.08811 0.73615
 H2395 H 0.53813 0.10638 0.68520
 H2396 H 0.54804 0.07877 0.67556
 H2397 H 0.51220 0.15056 0.68906
 H2398 H 0.50442 0.17921 0.69754
 H2399 H 0.52406 0.16945 0.74737
 H2400 H 0.53156 0.14067 0.73876
 C2401 C 1.04203 0.08716 0.18336
 C2402 C 1.03613 0.10336 0.18696
 C2403 C 1.03353 0.10836 0.20356
 C2404 C 1.03647 0.09678 0.21663
 C2405 C 1.04211 0.08043 0.21303
 C2406 C 1.04513 0.07549 0.19636
 N2407 N 1.02820 0.12533 0.20674
 N2408 N 1.02843 0.13180 0.22137
 C2409 C 1.02317 0.14886 0.22424
 C2410 C 1.02667 0.15640 0.23977
 C2411 C 1.02230 0.17326 0.24269
 C2412 C 1.01408 0.18277 0.23016
 C2413 C 1.01028 0.17506 0.21469
 C2414 C 1.01487 0.15829 0.21171
 H2415 H 1.04447 0.08385 0.17042
 H2416 H 1.03394 0.11220 0.17680
 H2417 H 1.03443 0.10036 0.22957
 H2418 H 1.04428 0.07166 0.22325
 H2419 H 1.03304 0.14926 0.24953
 H2420 H 1.02532 0.17883 0.25477
 H2421 H 1.00402 0.18207 0.20477
 H2422 H 1.01198 0.15272 0.19962
 C2423 C 0.19893 0.57436 0.54298
 C2424 C 0.20712 0.58818 0.53581
 C2425 C 0.21369 0.60105 0.54596
 C2426 C 0.21217 0.59985 0.56349
 C2427 C 0.20376 0.58616 0.57066
 C2428 C 0.19692 0.57333 0.56048
 N2429 N 0.22097 0.61561 0.53818
 N2430 N 0.22900 0.62670 0.54660
 C2431 C 0.23538 0.64182 0.53911
 C2432 C 0.24586 0.65235 0.54864
 C2433 C 0.25124 0.66784 0.54222
 C2434 C 0.24598 0.67320 0.52617
 C2435 C 0.23574 0.66241 0.51646
 C2436 C 0.23055 0.64681 0.52283
 H2437 H 0.19385 0.56460 0.53488
 H2438 H 0.20818 0.58898 0.52229
 H2439 H 0.21701 0.60973 0.57160
 H2440 H 0.20220 0.58581 0.58415
 H2441 H 0.24962 0.64867 0.56122
 H2442 H 0.25908 0.67584 0.55006
 H2443 H 0.23147 0.66614 0.50406
 H2444 H 0.22237 0.63890 0.51525
 C2445 C 0.19948 0.09298 1.07953
 C2446 C 0.20812 0.10708 1.07356
 C2447 C 0.21049 0.10932 1.05633
 C2448 C 0.20423 0.09715 1.04504
 C2449 C 0.19574 0.08291 1.05103
 C2450 C 0.19324 0.08070 1.06834
 N2451 N 0.21908 0.12416 1.05071
 N2452 N 0.22002 0.12815 1.03528
 C2453 C 0.22846 0.14319 1.02994
 C2454 C 0.22624 0.14877 1.01341
 C2455 C 0.23324 0.16407 1.00818
 C2456 C 0.24285 0.17395 1.01939
 C2457 C 0.24564 0.16796 1.03580
 C2458 C 0.23842 0.15278 1.04107
 H2459 H 0.19756 0.09168 1.09291
 H2460 H 0.21282 0.11641 1.08237
 H2461 H 0.20595 0.09859 1.03166
 H2462 H 0.19115 0.07356 1.04218
 H2463 H 0.21863 0.14147 1.00470
 H2464 H 0.23088 0.16831 0.99545
 H2465 H 0.25290 0.17530 1.04476
 H2466 H 0.24041 0.14869 1.05389
 C2467 C 0.19913 0.70844 0.67392
 C2468 C 0.20625 0.71531 0.65947
 C2469 C 0.21154 0.70478 0.64644
 C2470 C 0.20978 0.68718 0.64807
 C2471 C 0.20241 0.68031 0.66239
 C2472 C 0.19687 0.69087 0.67543
 N2473 N 0.21796 0.71220 0.63141
 N2474 N 0.22535 0.70337 0.62034
 C2475 C 0.23112 0.71037 0.60487
 C2476 C 0.24185 0.70072 0.59488
 C2477 C 0.24718 0.70679 0.57937
 C2478 C 0.24158 0.72257 0.57340
 C2479 C 0.23081 0.73230 0.58348
 C2480 C 0.22572 0.72631 0.59917
 H2481 H 0.19508 0.71684 0.68383
 H2482 H 0.20753 0.72888 0.65836
 H2483 H 0.21365 0.67878 0.63809
 H2484 H 0.20062 0.66677 0.66309
 H2485 H 0.24601 0.68838 0.59911
 H2486 H 0.25537 0.69893 0.57188
 H2487 H 0.22628 0.74449 0.57921
 H2488 H 0.21729 0.73393 0.60665
 C2489 C 0.19357 0.20778 1.16774
 C2490 C 0.20086 0.21447 1.15329
 C2491 C 0.20799 0.20378 1.14130
 C2492 C 0.20792 0.18622 1.14401
 C2493 C 0.20045 0.17950 1.15838
 C2494 C 0.19308 0.19021 1.17034
 N2495 N 0.21462 0.21099 1.12624
 N2496 N 0.22285 0.20222 1.11570
 C2497 C 0.22899 0.20914 1.10032
 C2498 C 0.23997 0.19945 1.09063
 C2499 C 0.24585 0.20556 1.07532
 C2500 C 0.24063 0.22145 1.06926
 C2501 C 0.22957 0.23118 1.07903
 C2502 C 0.22387 0.22513 1.09449
 H2503 H 0.18803 0.21629 1.17681
 H2504 H 0.20082 0.22801 1.15135
 H2505 H 0.21326 0.17768 1.13487
 H2506 H 0.20004 0.16593 1.15996
 H2507 H 0.24393 0.18709 1.09494
 H2508 H 0.25427 0.19769 1.06809
 H2509 H 0.22531 0.24345 1.07473
 H2510 H 0.21529 0.23281 1.10174
 C2511 C 0.67944 0.55634 0.09212
 C2512 C 0.68385 0.55005 0.10795
 C2513 C 0.70078 0.54878 0.11278
 C2514 C 0.71336 0.55380 0.10151
 C2515 C 0.70897 0.55991 0.08560
 C2516 C 0.69197 0.56115 0.08068
 N2517 N 0.70486 0.54250 0.12918
 N2518 N 0.71978 0.54307 0.13511
 C2519 C 0.72394 0.53684 0.15151
 C2520 C 0.73974 0.54067 0.15838
 C2521 C 0.74399 0.53541 0.17461
 C2522 C 0.73255 0.52594 0.18415
 C2523 C 0.71684 0.52170 0.17705
 C2524 C 0.71251 0.52721 0.16089
 H2525 H 0.66624 0.55754 0.08882
 H2526 H 0.67404 0.54634 0.11656
 H2527 H 0.72655 0.55293 0.10495
 H2528 H 0.71886 0.56355 0.07707
 H2529 H 0.74867 0.54803 0.15124
 H2530 H 0.75622 0.53879 0.17970
 H2531 H 0.70774 0.51450 0.18413
 H2532 H 0.70024 0.52402 0.15579
 C2533 C 0.70807 1.05512 0.57728
 C2534 C 0.71553 1.04779 0.59146
 C2535 C 0.70556 1.04178 0.60456
 C2536 C 0.68793 1.04299 0.60324
 C2537 C 0.68047 1.05055 0.58920
 C2538 C 0.69046 1.05683 0.57611
 N2539 N 0.71355 1.03538 0.61943
 N2540 N 0.70529 1.02760 0.63064
 C2541 C 0.71284 1.02208 0.64607
 C2542 C 0.70367 1.01140 0.65655
 C2543 C 0.71011 1.00671 0.67223
 C2544 C 0.72579 1.01291 0.67783
 C2545 C 0.73511 1.02344 0.66716
 C2546 C 0.72874 1.02791 0.65134
 H2547 H 0.71603 1.05978 0.56733
 H2548 H 0.72913 1.04696 0.59235
 H2549 H 0.67995 1.03857 0.61328
 H2550 H 0.66690 1.05192 0.58875
 H2551 H 0.69136 1.00690 0.65265
 H2552 H 0.70256 0.99866 0.68017
 H2553 H 0.74723 1.02839 0.67110
 H2554 H 0.73601 1.03628 0.64347
 C2555 C 0.54221 0.21166 0.56737
 C2556 C 0.53465 0.21721 0.58221
 C2557 C 0.54000 0.21079 0.59775
 C2558 C 0.55274 0.19845 0.59829
 C2559 C 0.55994 0.19259 0.58347
 C2560 C 0.55485 0.19930 0.56797
 N2561 N 0.53241 0.21683 0.61285
 N2562 N 0.54030 0.21602 0.62678
 C2563 C 0.53309 0.22129 0.64231
 C2564 C 0.54391 0.22556 0.65556
 C2565 C 0.53743 0.23035 0.67106
 C2566 C 0.51996 0.23046 0.67371
 C2567 C 0.50905 0.22594 0.66048
 C2568 C 0.51558 0.22161 0.64476
 H2569 H 0.53809 0.21676 0.55542
 H2570 H 0.52480 0.22668 0.58163
 H2571 H 0.55693 0.19318 0.61015
 H2572 H 0.56959 0.18292 0.58400
 H2573 H 0.55743 0.22521 0.65383
 H2574 H 0.54610 0.23357 0.68113
 H2575 H 0.49554 0.22589 0.66229
 H2576 H 0.50702 0.21814 0.63469
 C2577 C 1.06656 0.20704 0.07902
 C2578 C 1.05984 0.21445 0.09341
 C2579 C 1.05280 0.20443 0.10599
 C2580 C 1.05272 0.18677 0.10409
 C2581 C 1.05964 0.17932 0.08977
 C2582 C 1.06651 0.18937 0.07696
 N2583 N 1.04615 0.21249 0.12064
 N2584 N 1.03759 0.20450 0.13150
 C2585 C 1.03126 0.21251 0.14631
 C2586 C 1.02008 0.20363 0.15651
 C2587 C 1.01389 0.21093 0.17121
 C2588 C 1.01899 0.22724 0.17612
 C2589 C 1.03023 0.23615 0.16583
 C2590 C 1.03625 0.22890 0.15101
 H2591 H 1.07176 0.21517 0.06945
 H2592 H 1.06004 0.22807 0.09476
 H2593 H 1.04753 0.17873 0.11374
 H2594 H 1.05981 0.16568 0.08879
 H2595 H 1.01618 0.19097 0.15307
 H2596 H 1.00537 0.20364 0.17890
 H2597 H 1.03443 0.24872 0.16925
 H2598 H 1.04495 0.23600 0.14336
 C2599 C 0.65713 0.19852 0.67403
 C2600 C 0.64167 0.20483 0.67942
 C2601 C 0.63781 0.20522 0.69651
 C2602 C 0.64977 0.19946 0.70829
 C2603 C 0.66539 0.19338 0.70292
 C2604 C 0.66921 0.19276 0.68571
 N2605 N 0.62166 0.21148 0.70143
 N2606 N 0.61600 0.20995 0.71625
 C2607 C 0.59972 0.21637 0.72063
 C2608 C 0.59239 0.21141 0.73577
 C2609 C 0.57610 0.21676 0.73985
 C2610 C 0.56702 0.22743 0.72893
 C2611 C 0.57466 0.23279 0.71398
 C2612 C 0.59079 0.22724 0.70982
 H2613 H 0.65961 0.19800 0.66070
 H2614 H 0.63253 0.20920 0.67023
 H2615 H 0.64708 0.19975 0.72159
 H2616 H 0.67452 0.18915 0.71218
 H2617 H 0.59915 0.20306 0.74423
 H2618 H 0.57059 0.21245 0.75148
 H2619 H 0.56802 0.24095 0.70525
 H2620 H 0.59622 0.23135 0.69809
 C2621 C 1.15631 0.19465 0.17651
 C2622 C 1.14070 0.20149 0.18077
 C2623 C 1.13643 0.20385 0.19760
 C2624 C 1.14808 0.19944 0.21025
 C2625 C 1.16382 0.19278 0.20599
 C2626 C 1.16806 0.19026 0.18908
 N2627 N 1.12023 0.21074 0.20143
 N2628 N 1.11458 0.21137 0.21632
 C2629 C 1.09834 0.21835 0.21991
 C2630 C 1.09159 0.21620 0.23593
 C2631 C 1.07554 0.22239 0.23964
 C2632 C 1.06607 0.23109 0.22739
 C2633 C 1.07303 0.23351 0.21139
 C2634 C 1.08898 0.22712 0.20765
 H2635 H 1.15921 0.19269 0.16340
 H2636 H 1.13181 0.20481 0.17092
 H2637 H 1.14509 0.20124 0.22336
 H2638 H 1.17272 0.18962 0.21587
 H2639 H 1.09870 0.20949 0.24549
 H2640 H 1.07056 0.22037 0.25209
 H2641 H 1.06602 0.24006 0.20165
 H2642 H 1.09396 0.22900 0.19518
 C2643 C 0.09907 0.69362 0.57474
 C2644 C 0.11499 0.69960 0.57032
 C2645 C 0.11990 0.69987 0.55349
 C2646 C 0.10845 0.69468 0.54098
 C2647 C 0.09244 0.68895 0.54536
 C2648 C 0.08768 0.68807 0.56231
 N2649 N 0.13662 0.70516 0.54948
 N2650 N 0.14290 0.70293 0.53499
 C2651 C 0.15962 0.70830 0.53104
 C2652 C 0.16660 0.70364 0.51563
 C2653 C 0.18291 0.70872 0.51144
 C2654 C 0.19242 0.71876 0.52258
 C2655 C 0.18535 0.72339 0.53805
 C2656 C 0.16914 0.71817 0.54228
 H2657 H 0.09581 0.69289 0.58789
 H2658 H 0.12371 0.70359 0.58006
 H2659 H 0.11191 0.69495 0.52787
 H2660 H 0.08384 0.68488 0.53555
 H2661 H 0.15937 0.69603 0.50687
 H2662 H 0.18798 0.70499 0.49942
 H2663 H 0.19237 0.73103 0.54696
 H2664 H 0.16403 0.72194 0.55427
 C2665 C 0.08836 0.20015 1.04198
 C2666 C 0.10315 0.20710 1.03551
 C2667 C 0.11886 0.20250 1.04224
 C2668 C 0.11960 0.19129 1.05591
 C2669 C 0.10479 0.18479 1.06272
 C2670 C 0.08912 0.18901 1.05564
 N2671 N 0.13389 0.20938 1.03515
 N2672 N 0.14774 0.20127 1.03567
 C2673 C 0.16310 0.20813 1.02932
 C2674 C 0.17596 0.19707 1.02456
 C2675 C 0.19133 0.20335 1.01885
 C2676 C 0.19424 0.22085 1.01835
 C2677 C 0.18138 0.23197 1.02325
 C2678 C 0.16580 0.22566 1.02847
 H2679 H 0.07630 0.20350 1.03647
 H2680 H 0.10242 0.21578 1.02503
 H2681 H 0.13161 0.18774 1.06141
 H2682 H 0.10548 0.17622 1.07329
 H2683 H 0.17406 0.18354 1.02528
 H2684 H 0.20114 0.19453 1.01537
 H2685 H 0.18340 0.24550 1.02303
 H2686 H 0.15607 0.23441 1.03228
 C2687 C 0.59175 0.57727 0.19983
 C2688 C 0.60584 0.57160 0.20878
 C2689 C 0.60995 0.55443 0.20908
 C2690 C 0.59937 0.54280 0.20084
 C2691 C 0.58510 0.54844 0.19206
 C2692 C 0.58134 0.56580 0.19107
 N2693 N 0.62531 0.54934 0.21716
 N2694 N 0.63120 0.53444 0.21590
 C2695 C 0.64697 0.52978 0.22344
 C2696 C 0.65422 0.51426 0.21920
 C2697 C 0.67033 0.51003 0.22504
 C2698 C 0.67939 0.52122 0.23544
 C2699 C 0.67178 0.53650 0.24026
 C2700 C 0.65575 0.54080 0.23423
 H2701 H 0.58928 0.59071 0.19944
 H2702 H 0.61389 0.58067 0.21510
 H2703 H 0.60222 0.52942 0.20104
 H2704 H 0.57712 0.53926 0.18581
 H2705 H 0.64758 0.50565 0.21090
 H2706 H 0.67581 0.49812 0.22117
 H2707 H 0.67845 0.54543 0.24819
 H2708 H 0.65038 0.55286 0.23774
 C2709 C 0.56980 1.03419 0.71571
 C2710 C 0.58500 1.02875 0.72294
 C2711 C 0.60038 1.03443 0.71655
 C2712 C 0.60043 1.04617 0.70333
 C2713 C 0.58528 1.05196 0.69646
 C2714 C 0.56992 1.04576 0.70239
 N2715 N 0.61586 1.02798 0.72330
 N2716 N 0.62881 1.02696 0.71406
 C2717 C 0.64483 1.02127 0.72010
 C2718 C 0.65646 1.01528 0.70846
 C2719 C 0.67254 1.01038 0.71365
 C2720 C 0.67742 1.01186 0.73058
 C2721 C 0.66574 1.01792 0.74231
 C2722 C 0.64943 1.02239 0.73713
 H2723 H 0.55797 1.02940 0.72041
 H2724 H 0.58482 1.01973 0.73316
 H2725 H 0.61218 1.05087 0.69835
 H2726 H 0.58545 1.06098 0.68624
 H2727 H 0.65307 1.01450 0.69528
 H2728 H 0.68137 1.00598 0.70431
 H2729 H 0.66926 1.01923 0.75541
 H2730 H 0.64062 1.02719 0.74628
 C2731 C 0.92118 0.44975 0.28302
 C2732 C 0.90606 0.45639 0.27672
 C2733 C 0.89338 0.46167 0.28766
 C2734 C 0.89594 0.46012 0.30506
 C2735 C 0.91092 0.45324 0.31136
 C2736 C 0.92374 0.44800 0.30043
 N2737 N 0.87789 0.46812 0.28086
 N2738 N 0.86709 0.47554 0.29001
 C2739 C 0.85125 0.48143 0.28355
 C2740 C 0.84112 0.49155 0.29375
 C2741 C 0.82524 0.49686 0.28817
 C2742 C 0.81906 0.49187 0.27233
 C2743 C 0.82937 0.48185 0.26202
 C2744 C 0.84536 0.47675 0.26753
 H2745 H 0.93088 0.44594 0.27433
 H2746 H 0.90423 0.45749 0.26328
 H2747 H 0.88627 0.46394 0.31378
 H2748 H 0.91246 0.45185 0.32481
 H2749 H 0.84550 0.49520 0.30614
 H2750 H 0.81764 0.50452 0.29645
 H2751 H 0.82501 0.47779 0.24974
 H2752 H 0.85293 0.46886 0.25945
 C2753 C 0.90489 0.95021 0.82263
 C2754 C 0.89007 0.95785 0.81687
 C2755 C 0.88663 0.95896 0.79966
 C2756 C 0.89840 0.95261 0.78817
 C2757 C 0.91334 0.94514 0.79392
 C2758 C 0.91668 0.94373 0.81122
 N2759 N 0.87095 0.96617 0.79424
 N2760 N 0.86601 0.96556 0.77902
 C2761 C 0.85015 0.97245 0.77371
 C2762 C 0.84408 0.96859 0.75764
 C2763 C 0.82810 0.97403 0.75250
 C2764 C 0.81801 0.98371 0.76331
 C2765 C 0.82442 0.98812 0.77923
 C2766 C 0.84030 0.98243 0.78445
 H2767 H 0.90708 0.94913 0.83602
 H2768 H 0.88107 0.96264 0.82584
 H2769 H 0.89605 0.95338 0.77478
 H2770 H 0.92229 0.94037 0.78488
 H2771 H 0.85156 0.96093 0.74925
 H2772 H 0.82355 0.97049 0.74014
 H2773 H 0.81693 0.99548 0.78787
 H2774 H 0.84477 0.98565 0.79692
 C2775 C 0.32941 0.28110 0.80343
 C2776 C 0.34378 0.27410 0.79611
 C2777 C 0.35609 0.28455 0.78912
 C2778 C 0.35392 0.30216 0.78961
 C2779 C 0.33969 0.30917 0.79712
 C2780 C 0.32725 0.29872 0.80408
 N2781 N 0.37089 0.27706 0.78211
 N2782 N 0.38139 0.28568 0.77369
 C2783 C 0.39663 0.27858 0.76726
 C2784 C 0.40669 0.28843 0.75677
 C2785 C 0.42218 0.28233 0.75114
 C2786 C 0.42798 0.26627 0.75610
 C2787 C 0.41767 0.25626 0.76638
 C2788 C 0.40210 0.26233 0.77186
 H2789 H 0.31998 0.27278 0.80864
 H2790 H 0.34533 0.26051 0.79586
 H2791 H 0.36335 0.31052 0.78446
 H2792 H 0.33849 0.32278 0.79768
 H2793 H 0.40264 0.30100 0.75318
 H2794 H 0.42982 0.29041 0.74331
 H2795 H 0.42175 0.24384 0.77044
 H2796 H 0.39456 0.25449 0.78001
 C2797 C 0.83204 0.29498 0.30315
 C2798 C 0.84515 0.28694 0.29464
 C2799 C 0.85734 0.29646 0.28629
 C2800 C 0.85605 0.31416 0.28619
 C2801 C 0.84310 0.32221 0.29486
 C2802 C 0.83112 0.31273 0.30376
 N2803 N 0.87148 0.28802 0.27902
 N2804 N 0.88199 0.29582 0.26988
 C2805 C 0.89692 0.28795 0.26364
 C2806 C 0.90703 0.29693 0.25245
 C2807 C 0.92257 0.29042 0.24746
 C2808 C 0.92837 0.27485 0.25379
 C2809 C 0.91795 0.26562 0.26464
 C2810 C 0.90232 0.27208 0.26948
 H2811 H 0.82281 0.28733 0.30955
 H2812 H 0.84598 0.27329 0.29478
 H2813 H 0.86536 0.32181 0.27988
 H2814 H 0.84280 0.33587 0.29502
 H2815 H 0.90305 0.30922 0.24795
 H2816 H 0.93032 0.29791 0.23918
 H2817 H 0.92203 0.25358 0.26971
 H2818 H 0.89474 0.26494 0.27821
 C2819 C 0.42252 0.78910 0.44000
 C2820 C 0.40961 0.78044 0.44812
 C2821 C 0.39826 0.78916 0.45830
 C2822 C 0.40035 0.80661 0.46079
 C2823 C 0.41315 0.81531 0.45257
 C2824 C 0.42412 0.80673 0.44169
 N2825 N 0.38407 0.78034 0.46497
 N2826 N 0.37378 0.78753 0.47483
 C2827 C 0.35883 0.77943 0.48064
 C2828 C 0.34873 0.78796 0.49217
 C2829 C 0.33325 0.78125 0.49695
 C2830 C 0.32751 0.76586 0.49013
 C2831 C 0.33790 0.75708 0.47886
 C2832 C 0.35346 0.76379 0.47418
 H2833 H 0.43102 0.78210 0.43201
 H2834 H 0.40818 0.76697 0.44616
 H2835 H 0.39174 0.81365 0.46861
 H2836 H 0.41403 0.82884 0.45425
 H2837 H 0.35271 0.80006 0.49715
 H2838 H 0.32559 0.78839 0.50562
 H2839 H 0.33388 0.74520 0.47341
 H2840 H 0.36105 0.75701 0.46516
 C2841 C 0.42458 0.28938 0.93557
 C2842 C 0.41199 0.28038 0.94390
 C2843 C 0.39967 0.28893 0.95306
 C2844 C 0.40019 0.30665 0.95399
 C2845 C 0.41258 0.31566 0.94547
 C2846 C 0.42480 0.30717 0.93593
 N2847 N 0.38626 0.27953 0.96056
 N2848 N 0.37615 0.28642 0.97083
 C2849 C 0.36189 0.27780 0.97759
 C2850 C 0.35240 0.28591 0.98991
 C2851 C 0.33736 0.27884 0.99552
 C2852 C 0.33141 0.26352 0.98873
 C2853 C 0.34130 0.25507 0.97677
 C2854 C 0.35645 0.26212 0.97128
 H2855 H 0.43402 0.28244 0.92866
 H2856 H 0.41176 0.26672 0.94311
 H2857 H 0.39075 0.31358 0.96091
 H2858 H 0.41234 0.32932 0.94603
 H2859 H 0.35643 0.29803 0.99481
 H2860 H 0.33007 0.28576 1.00467
 H2861 H 0.33709 0.24327 0.97128
 H2862 H 0.36356 0.25565 0.96168
 C2863 C 0.78576 0.44906 0.42297
 C2864 C 0.77872 0.45467 0.40783
 C2865 C 0.78904 0.45817 0.39412
 C2866 C 0.80654 0.45579 0.39564
 C2867 C 0.81355 0.44993 0.41069
 C2868 C 0.80326 0.44671 0.42459
 N2869 N 0.78152 0.46392 0.37875
 N2870 N 0.79039 0.47027 0.36713
 C2871 C 0.78334 0.47582 0.35150
 C2872 C 0.79326 0.48574 0.34100
 C2873 C 0.78696 0.49132 0.32559
 C2874 C 0.77066 0.48678 0.32022
 C2875 C 0.76072 0.47665 0.33071
 C2876 C 0.76696 0.47132 0.34634
 H2877 H 0.77754 0.44652 0.43344
 H2878 H 0.76522 0.45637 0.40679
 H2879 H 0.81476 0.45819 0.38513
 H2880 H 0.82699 0.44768 0.41142
 H2881 H 0.80592 0.48920 0.34482
 H2882 H 0.79500 0.49897 0.31773
 H2883 H 0.74813 0.47294 0.32688
 H2884 H 0.75912 0.46353 0.35425
 C2885 C 0.78771 0.94574 0.91679
 C2886 C 0.78075 0.95077 0.90141
 C2887 C 0.79113 0.95637 0.88846
 C2888 C 0.80867 0.95663 0.89094
 C2889 C 0.81567 0.95137 0.90622
 C2890 C 0.80527 0.94605 0.91942
 N2891 N 0.78362 0.96146 0.87285
 N2892 N 0.79202 0.96908 0.86162
 C2893 C 0.78476 0.97389 0.84582
 C2894 C 0.79397 0.98440 0.83520
 C2895 C 0.78744 0.98910 0.81956
 C2896 C 0.77162 0.98312 0.81414
 C2897 C 0.76238 0.97254 0.82485
 C2898 C 0.76885 0.96804 0.84061
 H2899 H 0.77936 0.94166 0.92666
 H2900 H 0.76722 0.95044 0.89962
 H2901 H 0.81698 0.96068 0.88101
 H2902 H 0.82924 0.95130 0.90765
 H2903 H 0.80627 0.98894 0.83907
 H2904 H 0.79493 0.99717 0.81159
 H2905 H 0.75017 0.96772 0.82104
 H2906 H 0.76153 0.95981 0.84859
 C2907 C 0.28680 0.80292 0.33506
 C2908 C 0.28065 0.79619 0.35004
 C2909 C 0.29178 0.79045 0.36252
 C2910 C 0.30923 0.79152 0.35981
 C2911 C 0.31539 0.79845 0.34494
 C2912 C 0.30424 0.80427 0.33241
 N2913 N 0.28512 0.78407 0.37795
 N2914 N 0.29448 0.77680 0.38880
 C2915 C 0.28828 0.77086 0.40458
 C2916 C 0.29898 0.76127 0.41483
 C2917 C 0.29372 0.75587 0.43062
 C2918 C 0.27763 0.76017 0.43659
 C2919 C 0.26680 0.76969 0.42619
 C2920 C 0.27205 0.77493 0.41027
 H2921 H 0.27795 0.80721 0.32557
 H2922 H 0.26718 0.79545 0.35196
 H2923 H 0.31810 0.78729 0.36931
 H2924 H 0.32887 0.79953 0.34332
 H2925 H 0.31153 0.75811 0.41061
 H2926 H 0.30245 0.74868 0.43832
 H2927 H 0.25435 0.77321 0.43040
 H2928 H 0.26357 0.78241 0.40258
 C2929 C 0.28922 0.29839 0.83100
 C2930 C 0.28344 0.29268 0.84653
 C2931 C 0.29486 0.28747 0.85896
 C2932 C 0.31222 0.28796 0.85566
 C2933 C 0.31802 0.29385 0.84021
 C2934 C 0.30659 0.29920 0.82773
 N2935 N 0.28859 0.28217 0.87495
 N2936 N 0.29820 0.27561 0.88603
 C2937 C 0.29231 0.27070 0.90226
 C2938 C 0.30312 0.26155 0.91280
 C2939 C 0.29801 0.25685 0.92887
 C2940 C 0.28199 0.26143 0.93479
 C2941 C 0.27114 0.27067 0.92417
 C2942 C 0.27621 0.27519 0.90799
 H2943 H 0.28016 0.30235 0.82155
 H2944 H 0.27003 0.29236 0.84891
 H2945 H 0.32132 0.28410 0.86510
 H2946 H 0.33146 0.29454 0.83812
 H2947 H 0.31558 0.25809 0.90855
 H2948 H 0.30674 0.24986 0.93675
 H2949 H 0.25872 0.27437 0.92836
 H2950 H 0.26767 0.28236 0.90008
 C2951 C 0.46035 0.31285 0.90623
 C2952 C 0.46647 0.30670 0.89099
 C2953 C 0.45581 0.29811 0.87982
 C2954 C 0.43874 0.29604 0.88391
 C2955 C 0.43257 0.30233 0.89908
 C2956 C 0.44336 0.31057 0.91054
 N2957 N 0.46261 0.29173 0.86445
 N2958 N 0.45414 0.28242 0.85444
 C2959 C 0.46103 0.27629 0.83900
 C2960 C 0.45143 0.26533 0.82898
 C2961 C 0.45766 0.25946 0.81366
 C2962 C 0.47362 0.26457 0.80802
 C2963 C 0.48328 0.27546 0.81822
 C2964 C 0.47708 0.28122 0.83357
 H2965 H 0.46893 0.31918 0.91478
 H2966 H 0.47963 0.30845 0.88795
 H2967 H 0.43019 0.28963 0.87539
 H2968 H 0.41934 0.30075 0.90190
 H2969 H 0.43903 0.26143 0.83301
 H2970 H 0.44983 0.25119 0.80607
 H2971 H 0.49562 0.27966 0.81431
 H2972 H 0.48476 0.28969 0.84107
 C2973 C 0.92763 0.30467 0.40072
 C2974 C 0.93179 0.29934 0.38455
 C2975 C 0.94866 0.29807 0.37976
 C2976 C 0.96143 0.30210 0.39141
 C2977 C 0.95729 0.30722 0.40766
 C2978 C 0.94035 0.30847 0.41252
 N2979 N 0.95248 0.29262 0.36308
 N2980 N 0.96733 0.29337 0.35721
 C2981 C 0.97119 0.28767 0.34062
 C2982 C 0.98708 0.29119 0.33401
 C2983 C 0.99123 0.28588 0.31783
 C2984 C 0.97958 0.27670 0.30806
 C2985 C 0.96367 0.27304 0.31480
 C2986 C 0.95947 0.27856 0.33090
 H2987 H 0.91448 0.30595 0.40399
 H2988 H 0.92184 0.29637 0.37565
 H2989 H 0.97457 0.30117 0.38802
 H2990 H 0.96731 0.31013 0.41648
 H2991 H 0.99623 0.29817 0.34141
 H2992 H 1.00361 0.28883 0.31303
 H2993 H 0.95439 0.26607 0.30756
 H2994 H 0.94712 0.27563 0.33576
 C2995 C 0.46264 0.41495 0.80381
 C2996 C 0.46968 0.40042 0.79679
 C2997 C 0.45929 0.38776 0.79018
 C2998 C 0.44171 0.38985 0.79049
 C2999 C 0.43466 0.40426 0.79771
 C3000 C 0.44505 0.41691 0.80454
 N3001 N 0.46677 0.37261 0.78387
 N3002 N 0.45811 0.36175 0.77583
 C3003 C 0.46504 0.34613 0.77010
 C3004 C 0.45541 0.33616 0.75920
 C3005 C 0.46136 0.32048 0.75392
 C3006 C 0.47701 0.31436 0.75969
 C3007 C 0.48672 0.32443 0.77061
 C3008 C 0.48083 0.34027 0.77571
 H3009 H 0.47088 0.42457 0.80896
 H3010 H 0.48324 0.39893 0.79664
 H3011 H 0.43341 0.38016 0.78558
 H3012 H 0.42108 0.40533 0.79836
 H3013 H 0.44318 0.34053 0.75490
 H3014 H 0.45351 0.31300 0.74560
 H3015 H 0.49882 0.32004 0.77526
 H3016 H 0.48842 0.34775 0.78426
 C3017 C 0.96435 0.42435 0.29840
 C3018 C 0.97158 0.40998 0.29117
 C3019 C 0.96139 0.39735 0.28416
 C3020 C 0.94379 0.39922 0.28452
 C3021 C 0.93654 0.41344 0.29198
 C3022 C 0.94673 0.42620 0.29900
 N3023 N 0.96912 0.38249 0.27735
 N3024 N 0.96081 0.37188 0.26858
 C3025 C 0.96806 0.35650 0.26245
 C3026 C 0.95860 0.34645 0.25144
 C3027 C 0.96461 0.33068 0.24630
 C3028 C 0.98019 0.32456 0.25230
 C3029 C 0.98990 0.33491 0.26300
 C3030 C 0.98393 0.35078 0.26797
 H3031 H 0.97250 0.43402 0.30360
 H3032 H 0.98516 0.40868 0.29102
 H3033 H 0.93563 0.38954 0.27937
 H3034 H 0.92295 0.41437 0.29249
 H3035 H 0.94633 0.35068 0.24713
 H3036 H 0.95673 0.32301 0.23817
 H3037 H 1.00193 0.33058 0.26785
 H3038 H 0.99146 0.35831 0.27654
 C3039 C 0.31453 0.90974 0.46027
 C3040 C 0.31107 0.89351 0.46612
 C3041 C 0.29445 0.88794 0.46748
 C3042 C 0.28117 0.89890 0.46312
 C3043 C 0.28462 0.91528 0.45748
 C3044 C 0.30135 0.92086 0.45594
 N3045 N 0.29152 0.87107 0.47321
 N3046 N 0.27709 0.86411 0.47251
 C3047 C 0.27455 0.84716 0.47825
 C3048 C 0.25950 0.83891 0.47418
 C3049 C 0.25701 0.82208 0.47888
 C3050 C 0.26950 0.81333 0.48802
 C3051 C 0.28443 0.82180 0.49248
 C3052 C 0.28699 0.83854 0.48754
 H3053 H 0.32755 0.91356 0.45898
 H3054 H 0.32139 0.88515 0.46938
 H3055 H 0.26820 0.89486 0.46415
 H3056 H 0.27426 0.92363 0.45432
 H3057 H 0.24981 0.84543 0.46705
 H3058 H 0.24534 0.81592 0.47534
 H3059 H 0.29430 0.81537 0.49944
 H3060 H 0.29872 0.84469 0.49091
 C3061 C 0.29051 0.41659 0.94929
 C3062 C 0.28402 0.40137 0.95541
 C3063 C 0.29487 0.38840 0.96060
 C3064 C 0.31237 0.39081 0.95957
 C3065 C 0.31886 0.40590 0.95321
 C3066 C 0.30801 0.41896 0.94796
 N3067 N 0.28790 0.37276 0.96638
 N3068 N 0.29696 0.36171 0.97376
 C3069 C 0.29052 0.34568 0.97903
 C3070 C 0.30063 0.33546 0.98927
 C3071 C 0.29521 0.31938 0.99400
 C3072 C 0.27959 0.31309 0.98832
 C3073 C 0.26936 0.32346 0.97813
 C3074 C 0.27472 0.33968 0.97361
 H3075 H 0.28187 0.42648 0.94547
 H3076 H 0.27051 0.39968 0.95612
 H3077 H 0.32103 0.38092 0.96335
 H3078 H 0.33238 0.40726 0.95212
 H3079 H 0.31286 0.33990 0.99346
 H3080 H 0.30349 0.31168 1.00171
 H3081 H 0.25728 0.31897 0.97355
 H3082 H 0.26673 0.34734 0.96559
 C3083 C 0.81847 0.35192 0.31753
 C3084 C 0.81378 0.36807 0.31212
 C3085 C 0.80286 0.37005 0.29837
 C3086 C 0.79676 0.35565 0.28994
 C3087 C 0.80180 0.33952 0.29509
 C3088 C 0.81262 0.33760 0.30894
 N3089 N 0.79833 0.38674 0.29308
 N3090 N 0.78525 0.38955 0.28418
 C3091 C 0.78087 0.40620 0.27866
 C3092 C 0.76396 0.40992 0.27522
 C3093 C 0.75917 0.42626 0.27059
 C3094 C 0.77133 0.43896 0.26874
 C3095 C 0.78838 0.43511 0.27157
 C3096 C 0.79311 0.41887 0.27674
 H3097 H 0.82697 0.35055 0.32813
 H3098 H 0.81859 0.37906 0.31868
 H3099 H 0.78840 0.35690 0.27920
 H3100 H 0.79733 0.32851 0.28832
 H3101 H 0.75444 0.40024 0.27660
 H3102 H 0.74595 0.42899 0.26842
 H3103 H 0.79794 0.44478 0.27029
 H3104 H 0.80628 0.41618 0.27919
   
