data_POSCAR
  _audit_creation_date              2014-09-24
  _audit_creation_method            'ToBaCCo'
  _symmetry_space_group_name_H-M    'P1'
  _symmetry_Int_Tables_number       1
  _symmetry_cell_setting            triclinic
  loop_
  _symmetry_equiv_pos_as_xyz
 x,y,z
_cell_length_a 106.9974
_cell_length_b 107.0806
_cell_length_c 107.5004
_cell_angle_alpha 89.977600
_cell_angle_beta 89.989700
_cell_angle_gamma 89.936300
loop_
  _atom_site_label
  _atom_site_type_symbol
  _atom_site_fract_x
  _atom_site_fract_y
  _atom_site_fract_z
N1 N 0.35226 0.31770 0.32676
 N2 N 0.35200 0.32626 0.31801
 C3 C 0.36214 0.32488 0.31070
 C4 C 0.36917 0.31491 0.31510
 C5 C 0.36252 0.31059 0.32531
 H6 H 0.36434 0.33087 0.30291
 H7 H 0.36506 0.30300 0.33144
 Cu8 Cu 0.33889 0.33887 0.31732
 Cu9 Cu 0.33983 0.31694 0.33993
 Cu10 Cu 0.31707 0.33987 0.33996
 N11 N 0.32633 0.35203 0.31804
 N12 N 0.31782 0.35230 0.32684
 C13 C 0.31067 0.36253 0.32541
 C14 C 0.31492 0.36914 0.31516
 C15 C 0.32489 0.36215 0.31071
 H16 H 0.30315 0.36512 0.33160
 H17 H 0.33075 0.36431 0.30282
 N18 N 0.31782 0.32653 0.35252
 N19 N 0.32647 0.31776 0.35252
 C20 C 0.32488 0.31048 0.36263
 C21 C 0.31475 0.31490 0.36936
 C22 C 0.31050 0.32508 0.36260
 H23 H 0.33084 0.30270 0.36502
 H24 H 0.30287 0.33122 0.36500
 H25 H 0.32561 0.32554 0.33020
 H26 H 0.33604 0.33586 0.33963
 N27 N 0.35236 0.81786 -0.17344
 N28 N 0.35219 0.82643 -0.18217
 C29 C 0.36234 0.82501 -0.18945
 C30 C 0.36934 0.81499 -0.18504
 C31 C 0.36258 0.81068 -0.17486
 H32 H 0.36453 0.83102 -0.19721
 H33 H 0.36499 0.80309 -0.16869
 Cu34 Cu 0.33913 0.83910 -0.18290
 Cu35 Cu 0.33986 0.81719 -0.16034
 Cu36 Cu 0.31727 0.84031 -0.16025
 N37 N 0.32667 0.85235 -0.18218
 N38 N 0.31817 0.85278 -0.17338
 C39 C 0.31115 0.86310 -0.17489
 C40 C 0.31548 0.86962 -0.18521
 C41 C 0.32536 0.86240 -0.18959
 H42 H 0.30359 0.86570 -0.16874
 H43 H 0.33134 0.86437 -0.19743
 N44 N 0.31790 0.82689 -0.14772
 N45 N 0.32650 0.81806 -0.14780
 C46 C 0.32491 0.81073 -0.13774
 C47 C 0.31485 0.81516 -0.13092
 C48 C 0.31062 0.82541 -0.13761
 H49 H 0.33086 0.80292 -0.13542
 H50 H 0.30302 0.83157 -0.13513
 H51 H 0.32564 0.82597 -0.17004
 H52 H 0.33616 0.83618 -0.16059
 N53 N 0.85214 0.31826 -0.17316
 N54 N 0.85211 0.32702 -0.18171
 C55 C 0.86220 0.32555 -0.18906
 C56 C 0.86894 0.31529 -0.18488
 C57 C 0.86220 0.31091 -0.17477
 H58 H 0.86455 0.33160 -0.19676
 H59 H 0.86458 0.30317 -0.16877
 Cu60 Cu 0.83914 0.33979 -0.18171
 Cu61 Cu 0.83966 0.31745 -0.15998
 Cu62 Cu 0.81678 0.34050 -0.15988
 N63 N 0.82646 0.35281 -0.18165
 N64 N 0.81771 0.35299 -0.17309
 C65 C 0.81049 0.36316 -0.17474
 C66 C 0.81497 0.36983 -0.18490
 C67 C 0.82513 0.36287 -0.18905
 H68 H 0.80274 0.36556 -0.16876
 H69 H 0.83128 0.36503 -0.19671
 N70 N 0.81756 0.32702 -0.14735
 N71 N 0.82626 0.31828 -0.14744
 C72 C 0.82474 0.31090 -0.13742
 C73 C 0.81462 0.31518 -0.13061
 C74 C 0.81028 0.32541 -0.13724
 H75 H 0.83083 0.30321 -0.13506
 H76 H 0.80253 0.33140 -0.13479
 H77 H 0.82543 0.32634 -0.16955
 H78 H 0.83558 0.33635 -0.15961
 N79 N 0.85196 0.81783 0.32666
 N80 N 0.85215 0.82675 0.31827
 C81 C 0.86231 0.82527 0.31101
 C82 C 0.86890 0.81488 0.31511
 C83 C 0.86197 0.81041 0.32505
 H84 H 0.86482 0.83144 0.30346
 H85 H 0.86423 0.80260 0.33101
 Cu86 Cu 0.83946 0.83978 0.31818
 Cu87 Cu 0.83952 0.81709 0.33984
 Cu88 Cu 0.81892 0.84198 0.34170
 N89 N 0.82660 0.85266 0.31845
 N90 N 0.81857 0.85344 0.32766
 C91 C 0.81127 0.86353 0.32597
 C92 C 0.81493 0.86954 0.31511
 C93 C 0.82467 0.86223 0.31057
 H94 H 0.80408 0.86640 0.33243
 H95 H 0.83020 0.86387 0.30233
 N96 N 0.81873 0.82794 0.35354
 N97 N 0.82643 0.81837 0.35265
 C98 C 0.82437 0.81056 0.36223
 C99 C 0.81487 0.81540 0.36956
 C100 C 0.81149 0.82643 0.36369
 H101 H 0.82968 0.80215 0.36392
 H102 H 0.80443 0.83300 0.36666
 H103 H 0.82549 0.82743 0.33108
 H104 H 0.83740 0.83603 0.34047
 N105 N 0.64765 0.68210 0.32712
 N106 N 0.64787 0.67361 0.31830
 C107 C 0.63773 0.67509 0.31101
 C108 C 0.63076 0.68506 0.31551
 C109 C 0.63742 0.68926 0.32573
 H110 H 0.63553 0.66925 0.30312
 H111 H 0.63487 0.69676 0.33196
 Cu112 Cu 0.66104 0.66103 0.31750
 Cu113 Cu 0.66010 0.68284 0.34023
 Cu114 Cu 0.68284 0.65996 0.34017
 N115 N 0.67356 0.64780 0.31826
 N116 N 0.68206 0.64753 0.32707
 C117 C 0.68922 0.63731 0.32566
 C118 C 0.68503 0.63071 0.31541
 C119 C 0.67505 0.63769 0.31093
 H120 H 0.69673 0.63474 0.33187
 H121 H 0.66922 0.63553 0.30301
 N122 N 0.68215 0.67328 0.35272
 N123 N 0.67347 0.68202 0.35277
 C124 C 0.67509 0.68931 0.36286
 C125 C 0.68528 0.68493 0.36952
 C126 C 0.68952 0.67476 0.36275
 H127 H 0.66914 0.69710 0.36527
 H128 H 0.69718 0.66864 0.36513
 H129 H 0.67431 0.67430 0.33042
 H130 H 0.66388 0.66392 0.33981
 N131 N 0.64765 0.18198 -0.17319
 N132 N 0.64803 0.17346 -0.18196
 C133 C 0.63798 0.17481 -0.18936
 C134 C 0.63086 0.18472 -0.18501
 C135 C 0.63736 0.18905 -0.17472
 H136 H 0.63586 0.16879 -0.19713
 H137 H 0.63473 0.19665 -0.16865
 Cu138 Cu 0.66114 0.16090 -0.18267
 Cu139 Cu 0.66008 0.18272 -0.16002
 Cu140 Cu 0.68286 0.15973 -0.15995
 N141 N 0.67361 0.14769 -0.18190
 N142 N 0.68208 0.14726 -0.17308
 C143 C 0.68912 0.13695 -0.17457
 C144 C 0.68482 0.13043 -0.18491
 C145 C 0.67495 0.13765 -0.18931
 H146 H 0.69666 0.13434 -0.16841
 H147 H 0.66898 0.13569 -0.19716
 N148 N 0.68211 0.17312 -0.14742
 N149 N 0.67344 0.18188 -0.14745
 C150 C 0.67499 0.18920 -0.13738
 C151 C 0.68512 0.18482 -0.13060
 C152 C 0.68940 0.17463 -0.13733
 H153 H 0.66898 0.19694 -0.13501
 H154 H 0.69709 0.16855 -0.13492
 H155 H 0.67439 0.17412 -0.16969
 H156 H 0.66390 0.16378 -0.16034
 N157 N 0.14842 0.68279 -0.17347
 N158 N 0.14807 0.67359 -0.18153
 C159 C 0.13744 0.67441 -0.18817
 C160 C 0.13074 0.68473 -0.18410
 C161 C 0.13807 0.68984 -0.17475
 H162 H 0.13481 0.66793 -0.19541
 H163 H 0.13613 0.69811 -0.16932
 Cu164 Cu 0.16167 0.66161 -0.18292
 Cu165 Cu 0.16236 0.68496 -0.16206
 Cu166 Cu 0.18257 0.65970 -0.15958
 N167 N 0.17367 0.64801 -0.18187
 N168 N 0.18177 0.64725 -0.17273
 C169 C 0.18866 0.63681 -0.17413
 C170 C 0.18464 0.63062 -0.18474
 C171 C 0.17511 0.63807 -0.18940
 H172 H 0.19601 0.63396 -0.16785
 H173 H 0.16945 0.63631 -0.19753
 N174 N 0.18196 0.67331 -0.14728
 N175 N 0.17444 0.68301 -0.14835
 C176 C 0.17596 0.69048 -0.13839
 C177 C 0.18487 0.68523 -0.13061
 C178 C 0.18847 0.67435 -0.13662
 H179 H 0.17071 0.69896 -0.13684
 H180 H 0.19521 0.66756 -0.13340
 H181 H 0.17628 0.67409 -0.17039
 H182 H 0.16417 0.66592 -0.16091
 N183 N 0.14742 0.18186 0.32684
 N184 N 0.14770 0.17318 0.31822
 C185 C 0.13758 0.17443 0.31089
 C186 C 0.13057 0.18448 0.31510
 C187 C 0.13716 0.18897 0.32525
 H188 H 0.13538 0.16830 0.30322
 H189 H 0.13466 0.19674 0.33115
 Cu190 Cu 0.16097 0.16076 0.31749
 Cu191 Cu 0.15990 0.18285 0.33991
 Cu192 Cu 0.18290 0.16018 0.34010
 N193 N 0.17358 0.14767 0.31842
 N194 N 0.18220 0.14761 0.32711
 C195 C 0.18948 0.13748 0.32569
 C196 C 0.18519 0.13070 0.31557
 C197 C 0.17506 0.13749 0.31120
 H198 H 0.19715 0.13509 0.33178
 H199 H 0.16911 0.13517 0.30341
 N200 N 0.18207 0.17365 0.35251
 N201 N 0.17330 0.18230 0.35242
 C202 C 0.17473 0.18967 0.36246
 C203 C 0.18486 0.18543 0.36929
 C204 C 0.18931 0.17527 0.36263
 H205 H 0.16855 0.19728 0.36483
 H206 H 0.19707 0.16930 0.36509
 H207 H 0.17424 0.17428 0.33017
 H208 H 0.16393 0.16392 0.33972
 N209 N 0.64749 0.31831 0.67298
 N210 N 0.64751 0.32709 0.68150
 C211 C 0.63741 0.32561 0.68886
 C212 C 0.63071 0.31533 0.68471
 C213 C 0.63746 0.31095 0.67461
 H214 H 0.63505 0.33167 0.69654
 H215 H 0.63511 0.30319 0.66864
 Cu216 Cu 0.66037 0.33996 0.68154
 Cu217 Cu 0.65996 0.31741 0.65984
 Cu218 Cu 0.68292 0.34021 0.65972
 N219 N 0.67332 0.35272 0.68140
 N220 N 0.68211 0.35269 0.67286
 C221 C 0.68951 0.36270 0.67448
 C222 C 0.68515 0.36947 0.68458
 C223 C 0.67484 0.36280 0.68874
 H224 H 0.69728 0.36503 0.66849
 H225 H 0.66880 0.36518 0.69643
 N226 N 0.68209 0.32677 0.64720
 N227 N 0.67334 0.31810 0.64729
 C228 C 0.67484 0.31070 0.63728
 C229 C 0.68500 0.31490 0.63049
 C230 C 0.68938 0.32510 0.63711
 H231 H 0.66871 0.30305 0.63492
 H232 H 0.69717 0.33102 0.63467
 H233 H 0.67407 0.32626 0.66954
 H234 H 0.66405 0.33629 0.65942
 N235 N 0.64751 0.81787 1.17300
 N236 N 0.64787 0.82644 1.18173
 C237 C 0.63779 0.82517 1.18910
 C238 C 0.63067 0.81527 1.18479
 C239 C 0.63720 0.81085 1.17454
 H240 H 0.63564 0.83124 1.19683
 H241 H 0.63457 0.80322 1.16851
 Cu242 Cu 0.66099 0.83899 1.18237
 Cu243 Cu 0.65995 0.81702 1.15981
 Cu244 Cu 0.68281 0.83986 1.15979
 N245 N 0.67358 0.85208 1.18167
 N246 N 0.68209 0.85231 1.17288
 C247 C 0.68927 0.86251 1.17431
 C248 C 0.68504 0.86914 1.18456
 C249 C 0.67505 0.86218 1.18900
 H250 H 0.69681 0.86503 1.16812
 H251 H 0.66917 0.86436 1.19688
 N252 N 0.68204 0.82651 1.14727
 N253 N 0.67334 0.81779 1.14722
 C254 C 0.67495 0.81053 1.13711
 C255 C 0.68514 0.81491 1.13043
 C256 C 0.68938 0.82504 1.13722
 H257 H 0.66899 0.80276 1.13468
 H258 H 0.69702 0.83116 1.13482
 H259 H 0.67419 0.82554 1.16954
 H260 H 0.66381 0.83591 1.16007
 N261 N 0.14753 0.31816 1.17287
 N262 N 0.14750 0.32696 1.18137
 C263 C 0.13738 0.32548 1.18871
 C264 C 0.13070 0.31519 1.18455
 C265 C 0.13749 0.31080 1.17448
 H266 H 0.13499 0.33154 1.19638
 H267 H 0.13517 0.30303 1.16851
 Cu268 Cu 0.16039 0.33978 1.18138
 Cu269 Cu 0.16006 0.31728 1.15977
 Cu270 Cu 0.18309 0.34006 1.15979
 N271 N 0.17330 0.35257 1.18139
 N272 N 0.18217 0.35256 1.17295
 C273 C 0.18949 0.36263 1.17461
 C274 C 0.18495 0.36941 1.18464
 C275 C 0.17466 0.36268 1.18872
 H276 H 0.19736 0.36494 1.16876
 H277 H 0.16842 0.36511 1.19623
 N278 N 0.18229 0.32660 1.14726
 N279 N 0.17351 0.31796 1.14729
 C280 C 0.17501 0.31061 1.13725
 C281 C 0.18519 0.31480 1.13050
 C282 C 0.18960 0.32495 1.13718
 H283 H 0.16885 0.30300 1.13484
 H284 H 0.19741 0.33087 1.13477
 H285 H 0.17417 0.32613 1.16952
 H286 H 0.16424 0.33617 1.15933
 N287 N 0.14770 0.81794 0.67306
 N288 N 0.14770 0.82672 0.68159
 C289 C 0.13763 0.82521 0.68896
 C290 C 0.13091 0.81496 0.68478
 C291 C 0.13767 0.81058 0.67469
 H292 H 0.13526 0.83127 0.69665
 H293 H 0.13528 0.80286 0.66868
 Cu294 Cu 0.16042 0.83973 0.68156
 Cu295 Cu 0.16009 0.81717 0.65983
 Cu296 Cu 0.18304 0.83993 0.65985
 N297 N 0.17351 0.85236 0.68159
 N298 N 0.18231 0.85230 0.67308
 C299 C 0.18971 0.86231 0.67468
 C300 C 0.18532 0.86912 0.68474
 C301 C 0.17503 0.86244 0.68893
 H302 H 0.19745 0.86463 0.66867
 H303 H 0.16894 0.86487 0.69657
 N304 N 0.18215 0.82665 0.64722
 N305 N 0.17340 0.81799 0.64722
 C306 C 0.17488 0.81071 0.63711
 C307 C 0.18504 0.81500 0.63036
 C308 C 0.18942 0.82511 0.63712
 H309 H 0.16877 0.80307 0.63469
 H310 H 0.19720 0.83108 0.63475
 H311 H 0.17413 0.82598 0.66973
 H312 H 0.16417 0.83602 0.65952
 N313 N 0.35249 0.68197 0.67319
 N314 N 0.35219 0.67334 0.68187
 C315 C 0.36227 0.67465 0.68925
 C316 C 0.36931 0.68464 0.68497
 C317 C 0.36274 0.68907 0.67476
 H318 H 0.36446 0.66857 0.69697
 H319 H 0.36528 0.69676 0.66877
 Cu320 Cu 0.33909 0.66075 0.68239
 Cu321 Cu 0.34007 0.68289 0.66003
 Cu322 Cu 0.31721 0.66008 0.65981
 N323 N 0.32647 0.64768 0.68162
 N324 N 0.31793 0.64754 0.67285
 C325 C 0.31072 0.63736 0.67424
 C326 C 0.31495 0.63066 0.68444
 C327 C 0.32498 0.63754 0.68890
 H328 H 0.30316 0.63489 0.66806
 H329 H 0.33085 0.63528 0.69676
 N330 N 0.31802 0.67353 0.64736
 N331 N 0.32672 0.68223 0.64744
 C332 C 0.32521 0.68959 0.63740
 C333 C 0.31508 0.68531 0.63058
 C334 C 0.31075 0.67512 0.63726
 H335 H 0.33128 0.69730 0.63506
 H336 H 0.30306 0.66909 0.63481
 H337 H 0.32580 0.67425 0.66969
 H338 H 0.33616 0.66397 0.66012
 N339 N 0.35247 0.18226 1.17308
 N340 N 0.35235 0.17346 1.18160
 C341 C 0.36240 0.17481 1.18900
 C342 C 0.36926 0.18499 1.18491
 C343 C 0.36260 0.18950 1.17478
 H344 H 0.36473 0.16860 1.19658
 H345 H 0.36503 0.19732 1.16891
 Cu346 Cu 0.33955 0.16058 1.18166
 Cu347 Cu 0.34001 0.18310 1.15989
 Cu348 Cu 0.31704 0.16023 1.15987
 N349 N 0.32665 0.14780 1.18155
 N350 N 0.31784 0.14773 1.17304
 C351 C 0.31059 0.13760 1.17469
 C352 C 0.31510 0.13088 1.18479
 C353 C 0.32530 0.13772 1.18890
 H354 H 0.30278 0.13520 1.16880
 H355 H 0.33151 0.13536 1.19647
 N356 N 0.31788 0.17364 1.14733
 N357 N 0.32662 0.18232 1.14732
 C358 C 0.32512 0.18960 1.13721
 C359 C 0.31497 0.18530 1.13045
 C360 C 0.31060 0.17518 1.13722
 H361 H 0.33122 0.19726 1.13479
 H362 H 0.30288 0.16916 1.13483
 H363 H 0.32591 0.17427 1.16965
 H364 H 0.33594 0.16421 1.15957
 N365 N 0.85261 0.68193 1.17288
 N366 N 0.85252 0.67307 1.18134
 C367 C 0.86256 0.67440 1.18875
 C368 C 0.86937 0.68465 1.18473
 C369 C 0.86272 0.68919 1.17463
 H370 H 0.86489 0.66818 1.19632
 H371 H 0.86509 0.69709 1.16883
 Cu372 Cu 0.83957 0.66034 1.18132
 Cu373 Cu 0.84007 0.68290 1.15976
 Cu374 Cu 0.81699 0.66007 1.15970
 N375 N 0.82674 0.64752 1.18127
 N376 N 0.81786 0.64750 1.17283
 C377 C 0.81055 0.63742 1.17455
 C378 C 0.81510 0.63069 1.18462
 C379 C 0.82538 0.63745 1.18864
 H380 H 0.80266 0.63509 1.16873
 H381 H 0.83161 0.63507 1.19618
 N382 N 0.81783 0.67358 1.14720
 N383 N 0.82660 0.68224 1.14727
 C384 C 0.82513 0.68961 1.13723
 C385 C 0.81497 0.68541 1.13044
 C386 C 0.81056 0.67524 1.13710
 H387 H 0.83128 0.69723 1.13483
 H388 H 0.80278 0.66931 1.13466
 H389 H 0.82589 0.67407 1.16943
 H390 H 0.83585 0.66405 1.15927
 N391 N 0.85261 0.18205 0.67284
 N392 N 0.85256 0.17320 0.68131
 C393 C 0.86263 0.17456 0.68868
 C394 C 0.86939 0.18483 0.68465
 C395 C 0.86269 0.18937 0.67457
 H396 H 0.86499 0.16836 0.69625
 H397 H 0.86504 0.19727 0.66877
 Cu398 Cu 0.83968 0.16040 0.68146
 Cu399 Cu 0.84008 0.18299 0.65971
 Cu400 Cu 0.81719 0.16006 0.65976
 N401 N 0.82688 0.14751 0.68133
 N402 N 0.81806 0.14754 0.67284
 C403 C 0.81068 0.13752 0.67449
 C404 C 0.81511 0.13074 0.68456
 C405 C 0.82543 0.13742 0.68866
 H406 H 0.80287 0.13523 0.66856
 H407 H 0.83151 0.13506 0.69633
 N408 N 0.81792 0.17348 0.64726
 N409 N 0.82661 0.18222 0.64720
 C410 C 0.82499 0.18948 0.63708
 C411 C 0.81482 0.18508 0.63041
 C412 C 0.81058 0.17495 0.63721
 H413 H 0.83095 0.19724 0.63463
 H414 H 0.80296 0.16880 0.63480
 H415 H 0.82606 0.17417 0.66948
 H416 H 0.83608 0.16417 0.65937
 N417 N 0.31784 0.35244 0.67282
 N418 N 0.32666 0.35233 0.68133
 C419 C 0.32523 0.36232 0.68878
 C420 C 0.31500 0.36914 0.68473
 C421 C 0.31053 0.36254 0.67457
 H422 H 0.33142 0.36465 0.69637
 H423 H 0.30266 0.36495 0.66874
 Cu424 Cu 0.33959 0.33959 0.68149
 Cu425 Cu 0.31704 0.33993 0.65967
 Cu426 Cu 0.34002 0.31706 0.65975
 N427 N 0.35239 0.32671 0.68139
 N428 N 0.35251 0.31789 0.67290
 C429 C 0.36259 0.31058 0.67465
 C430 C 0.36920 0.31504 0.68481
 C431 C 0.36239 0.32528 0.68885
 H432 H 0.36500 0.30271 0.66883
 H433 H 0.36470 0.33145 0.69645
 N434 N 0.32664 0.31781 0.64720
 N435 N 0.31789 0.32650 0.64713
 C436 C 0.31066 0.32491 0.63700
 C437 C 0.31508 0.31475 0.63032
 C438 C 0.32521 0.31048 0.63714
 H439 H 0.30290 0.33088 0.63455
 H440 H 0.33137 0.30286 0.63475
 H441 H 0.32592 0.32595 0.66957
 H442 H 0.33595 0.33598 0.65942
 N443 N 0.31803 0.85258 0.17276
 N444 N 0.32674 0.85252 0.18137
 C445 C 0.32526 0.86264 0.18868
 C446 C 0.31505 0.86942 0.18441
 C447 C 0.31071 0.86267 0.17430
 H448 H 0.33130 0.86501 0.19637
 H449 H 0.30303 0.86508 0.16824
 Cu450 Cu 0.33966 0.83966 0.18153
 Cu451 Cu 0.31729 0.84020 0.15956
 Cu452 Cu 0.34007 0.81723 0.15959
 N453 N 0.35242 0.82667 0.18140
 N454 N 0.35244 0.81793 0.17283
 C455 C 0.36251 0.81058 0.17439
 C456 C 0.36930 0.81495 0.18446
 C457 C 0.36257 0.82519 0.18869
 H458 H 0.36489 0.80288 0.16835
 H459 H 0.36498 0.83126 0.19634
 N460 N 0.32676 0.81812 0.14697
 N461 N 0.31809 0.82688 0.14696
 C462 C 0.31075 0.82537 0.13691
 C463 C 0.31500 0.81518 0.13018
 C464 C 0.32516 0.81080 0.13690
 H465 H 0.30309 0.83148 0.13449
 H466 H 0.33108 0.80297 0.13456
 H467 H 0.32603 0.82609 0.16938
 H468 H 0.33619 0.83614 0.15940
 N469 N 0.81805 0.35258 0.17254
 N470 N 0.82654 0.35236 0.18135
 C471 C 0.82504 0.36247 0.18866
 C472 C 0.81505 0.36942 0.18419
 C473 C 0.81085 0.36279 0.17394
 H474 H 0.83087 0.36467 0.19657
 H475 H 0.80333 0.36532 0.16774
 Cu476 Cu 0.83914 0.33924 0.18208
 Cu477 Cu 0.81735 0.34009 0.15949
 Cu478 Cu 0.84016 0.31717 0.15962
 N479 N 0.85223 0.32662 0.18151
 N480 N 0.85257 0.31802 0.17281
 C481 C 0.86286 0.31094 0.17439
 C482 C 0.86939 0.31536 0.18462
 C483 C 0.86229 0.32531 0.18890
 H484 H 0.86547 0.30329 0.16838
 H485 H 0.86445 0.33140 0.19662
 N486 N 0.82680 0.31795 0.14701
 N487 N 0.81813 0.32671 0.14700
 C488 C 0.81079 0.32521 0.13695
 C489 C 0.81503 0.31503 0.13022
 C490 C 0.82519 0.31064 0.13693
 H491 H 0.80316 0.33135 0.13452
 H492 H 0.83113 0.30283 0.13456
 H493 H 0.82593 0.32578 0.16930
 H494 H 0.83633 0.33606 0.15979
 N495 N 0.81826 0.85302 0.67289
 N496 N 0.82712 0.85286 0.68135
 C497 C 0.82580 0.86288 0.68879
 C498 C 0.81555 0.86974 0.68479
 C499 C 0.81100 0.86314 0.67467
 H500 H 0.83202 0.86517 0.69637
 H501 H 0.80309 0.86555 0.66889
 Cu502 Cu 0.83983 0.83986 0.68127
 Cu503 Cu 0.81723 0.84055 0.65972
 Cu504 Cu 0.84004 0.81742 0.65955
 N505 N 0.85269 0.82700 0.68116
 N506 N 0.85263 0.81819 0.67266
 C507 C 0.86266 0.81079 0.67429
 C508 C 0.86947 0.81519 0.68434
 C509 C 0.86280 0.82551 0.68847
 H510 H 0.86496 0.80298 0.66835
 H511 H 0.86520 0.83159 0.69612
 N512 N 0.82652 0.81834 0.64709
 N513 N 0.81786 0.82712 0.64718
 C514 C 0.81046 0.82565 0.63716
 C515 C 0.81465 0.81548 0.63037
 C516 C 0.82484 0.81106 0.63700
 H517 H 0.80283 0.83181 0.63478
 H518 H 0.83076 0.80327 0.63455
 H519 H 0.82601 0.82633 0.66933
 H520 H 0.83605 0.83629 0.65922
 N521 N 0.68207 0.64754 0.67304
 N522 N 0.67348 0.64788 0.68177
 C523 C 0.67479 0.63781 0.68914
 C524 C 0.68474 0.63071 0.68483
 C525 C 0.68914 0.63725 0.67458
 H526 H 0.66873 0.63565 0.69688
 H527 H 0.69679 0.63465 0.66855
 Cu528 Cu 0.66089 0.66100 0.68241
 Cu529 Cu 0.68290 0.65996 0.65986
 Cu530 Cu 0.66001 0.68281 0.65984
 N531 N 0.64778 0.67362 0.68173
 N532 N 0.64754 0.68212 0.67294
 C533 C 0.63733 0.68931 0.67438
 C534 C 0.63071 0.68509 0.68464
 C535 C 0.63769 0.67510 0.68908
 H536 H 0.63479 0.69685 0.66820
 H537 H 0.63552 0.66923 0.69696
 N538 N 0.67337 0.68202 0.64731
 N539 N 0.68212 0.67334 0.64728
 C540 C 0.68941 0.67494 0.63718
 C541 C 0.68503 0.68512 0.63050
 C542 C 0.67486 0.68937 0.63727
 H543 H 0.69721 0.66899 0.63477
 H544 H 0.66873 0.69701 0.63487
 H545 H 0.67435 0.67419 0.66959
 H546 H 0.66400 0.66383 0.66012
 N547 N 0.68215 0.14705 0.17275
 N548 N 0.67326 0.14712 0.18119
 C549 C 0.67461 0.13705 0.18857
 C550 C 0.68488 0.13026 0.18455
 C551 C 0.68945 0.13696 0.17449
 H552 H 0.66835 0.13468 0.19609
 H553 H 0.69736 0.13459 0.16869
 Cu554 Cu 0.66039 0.15994 0.18116
 Cu555 Cu 0.68311 0.15957 0.15959
 Cu556 Cu 0.66012 0.18248 0.15959
 N557 N 0.64751 0.17278 0.18113
 N558 N 0.64756 0.18162 0.17265
 C559 C 0.63753 0.18900 0.17429
 C560 C 0.63073 0.18458 0.18434
 C561 C 0.63739 0.17426 0.18846
 H562 H 0.63522 0.19681 0.16835
 H563 H 0.63499 0.16818 0.19612
 N564 N 0.67359 0.18174 0.14713
 N565 N 0.68234 0.17305 0.14708
 C566 C 0.68966 0.17470 0.13702
 C567 C 0.68530 0.18492 0.13038
 C568 C 0.67512 0.18914 0.13713
 H569 H 0.69745 0.16876 0.13459
 H570 H 0.66899 0.19678 0.13474
 H571 H 0.67422 0.17354 0.16933
 H572 H 0.66427 0.16357 0.15913
 N573 N 0.18203 0.64742 0.17278
 N574 N 0.17324 0.64756 0.18131
 C575 C 0.17459 0.63749 0.18869
 C576 C 0.18477 0.63061 0.18456
 C577 C 0.18927 0.63727 0.17444
 H578 H 0.16839 0.63514 0.19627
 H579 H 0.19709 0.63483 0.16856
 Cu580 Cu 0.16033 0.66038 0.18139
 Cu581 Cu 0.18289 0.65984 0.15956
 Cu582 Cu 0.15998 0.68275 0.15951
 N583 N 0.14754 0.67332 0.18125
 N584 N 0.14752 0.68204 0.17266
 C585 C 0.13747 0.68941 0.17425
 C586 C 0.13072 0.68510 0.18438
 C587 C 0.13745 0.67485 0.18861
 H588 H 0.13509 0.69712 0.16821
 H589 H 0.13509 0.66884 0.19633
 N590 N 0.17335 0.68191 0.14696
 N591 N 0.18209 0.67322 0.14695
 C592 C 0.18939 0.67479 0.13686
 C593 C 0.18502 0.68496 0.13015
 C594 C 0.17486 0.68923 0.13690
 H595 H 0.19719 0.66884 0.13447
 H596 H 0.16874 0.69688 0.13448
 H597 H 0.17409 0.67391 0.16932
 H598 H 0.16404 0.66384 0.15928
 N599 N 0.18182 0.14712 0.67296
 N600 N 0.17325 0.14751 0.68170
 C601 C 0.17457 0.13746 0.68911
 C602 C 0.18451 0.13034 0.68480
 C603 C 0.18889 0.13684 0.67452
 H604 H 0.16854 0.13535 0.69689
 H605 H 0.19653 0.13423 0.66849
 Cu606 Cu 0.16073 0.16068 0.68230
 Cu607 Cu 0.18270 0.15956 0.65983
 Cu608 Cu 0.16001 0.18263 0.65977
 N609 N 0.14771 0.17337 0.68162
 N610 N 0.14750 0.18195 0.67289
 C611 C 0.13727 0.18912 0.67437
 C612 C 0.13062 0.18479 0.68457
 C613 C 0.13760 0.17478 0.68894
 H614 H 0.13478 0.19675 0.66828
 H615 H 0.13536 0.16876 0.69668
 N616 N 0.17342 0.18173 0.64724
 N617 N 0.18205 0.17293 0.64728
 C618 C 0.18941 0.17438 0.63723
 C619 C 0.18521 0.18457 0.63046
 C620 C 0.17507 0.18901 0.63715
 H621 H 0.19702 0.16821 0.63482
 H622 H 0.16916 0.19684 0.63474
 H623 H 0.17420 0.17391 0.66954
 H624 H 0.16378 0.16367 0.66002
 N625 N 0.31805 0.64739 0.32697
 N626 N 0.32689 0.64732 0.31849
 C627 C 0.32541 0.63724 0.31115
 C628 C 0.31508 0.63059 0.31527
 C629 C 0.31065 0.63738 0.32533
 H630 H 0.33146 0.63486 0.30347
 H631 H 0.30284 0.63507 0.33126
 Cu632 Cu 0.33970 0.66020 0.31830
 Cu633 Cu 0.31719 0.65996 0.34000
 Cu634 Cu 0.34009 0.68289 0.33991
 N635 N 0.35259 0.67299 0.31839
 N636 N 0.35262 0.68190 0.32679
 C637 C 0.36272 0.68919 0.32502
 C638 C 0.36943 0.68459 0.31498
 C639 C 0.36266 0.67431 0.31101
 H640 H 0.36506 0.69712 0.33078
 H641 H 0.36503 0.66805 0.30348
 N642 N 0.32661 0.68217 0.35243
 N643 N 0.31793 0.67343 0.35244
 C644 C 0.31059 0.67495 0.36249
 C645 C 0.31483 0.68513 0.36921
 C646 C 0.32499 0.68949 0.36250
 H647 H 0.30297 0.66882 0.36494
 H648 H 0.33094 0.69727 0.36489
 H649 H 0.32606 0.67402 0.33019
 H650 H 0.33609 0.66408 0.34037
 N651 N 0.31805 0.14723 0.82696
 N652 N 0.32688 0.14714 0.81847
 C653 C 0.32540 0.13701 0.81117
 C654 C 0.31506 0.13038 0.81532
 C655 C 0.31065 0.13722 0.82535
 H656 H 0.33149 0.13457 0.80353
 H657 H 0.30286 0.13493 0.83132
 Cu658 Cu 0.33981 0.15994 0.81844
 Cu659 Cu 0.31720 0.15973 0.84010
 Cu660 Cu 0.34019 0.18252 0.84003
 N661 N 0.35271 0.17278 0.81840
 N662 N 0.35267 0.18160 0.82690
 C663 C 0.36268 0.18898 0.82526
 C664 C 0.36948 0.18458 0.81520
 C665 C 0.36282 0.17426 0.81106
 H666 H 0.36499 0.19675 0.83123
 H667 H 0.36523 0.16820 0.80339
 N668 N 0.32677 0.18183 0.85256
 N669 N 0.31802 0.17317 0.85261
 C670 C 0.31070 0.17483 0.86267
 C671 C 0.31508 0.18501 0.86933
 C672 C 0.32526 0.18921 0.86258
 H673 H 0.30290 0.16890 0.86508
 H674 H 0.33139 0.19684 0.86497
 H675 H 0.32610 0.17368 0.83030
 H676 H 0.33606 0.16366 0.84048
 N677 N 0.81813 0.64747 0.82691
 N678 N 0.82684 0.64750 0.81830
 C679 C 0.82530 0.63742 0.81095
 C680 C 0.81508 0.63070 0.81522
 C681 C 0.81077 0.63743 0.82535
 H682 H 0.83130 0.63507 0.80321
 H683 H 0.80309 0.63506 0.83142
 Cu684 Cu 0.83974 0.66031 0.81814
 Cu685 Cu 0.81741 0.65989 0.84007
 Cu686 Cu 0.84022 0.68284 0.83999
 N687 N 0.85251 0.67324 0.81820
 N688 N 0.85262 0.68203 0.82673
 C689 C 0.86274 0.68928 0.82506
 C690 C 0.86942 0.68480 0.81494
 C691 C 0.86258 0.67461 0.81082
 H692 H 0.86515 0.69709 0.83094
 H693 H 0.86496 0.66841 0.80325
 N694 N 0.82686 0.68199 0.85263
 N695 N 0.81822 0.67322 0.85262
 C696 C 0.81088 0.67469 0.86268
 C697 C 0.81508 0.68486 0.86943
 C698 C 0.82524 0.68928 0.86272
 H699 H 0.80326 0.66854 0.86510
 H700 H 0.83114 0.69709 0.86511
 H701 H 0.82619 0.67401 0.83025
 H702 H 0.83634 0.66399 0.84026
 N703 N 0.81789 0.14735 0.32689
 N704 N 0.82662 0.14737 0.31830
 C705 C 0.82513 0.13727 0.31097
 C706 C 0.81490 0.13053 0.31521
 C707 C 0.81055 0.13729 0.32532
 H708 H 0.83117 0.13489 0.30327
 H709 H 0.80285 0.13490 0.33137
 Cu710 Cu 0.83958 0.16015 0.31813
 Cu711 Cu 0.81714 0.15977 0.34010
 Cu712 Cu 0.84007 0.18256 0.33999
 N713 N 0.85241 0.17306 0.31820
 N714 N 0.85246 0.18179 0.32678
 C715 C 0.86250 0.18913 0.32518
 C716 C 0.86923 0.18481 0.31505
 C717 C 0.86250 0.17457 0.31083
 H718 H 0.86489 0.19682 0.33123
 H719 H 0.86486 0.16856 0.30311
 N720 N 0.82677 0.18180 0.35261
 N721 N 0.81802 0.17313 0.35269
 C722 C 0.81074 0.17477 0.36279
 C723 C 0.81512 0.18496 0.36944
 C724 C 0.82528 0.18917 0.36264
 H725 H 0.80294 0.16885 0.36521
 H726 H 0.83140 0.19682 0.36501
 H727 H 0.82594 0.17376 0.33026
 H728 H 0.83602 0.16367 0.34027
 N729 N 0.68213 0.35246 0.32670
 N730 N 0.67332 0.35235 0.31819
 C731 C 0.67467 0.36239 0.31079
 C732 C 0.68488 0.36923 0.31487
 C733 C 0.68939 0.36258 0.32499
 H734 H 0.66846 0.36474 0.30323
 H735 H 0.69723 0.36500 0.33084
 Cu736 Cu 0.66045 0.33955 0.31810
 Cu737 Cu 0.68296 0.33998 0.33987
 Cu738 Cu 0.66011 0.31701 0.33989
 N739 N 0.64771 0.32664 0.31822
 N740 N 0.64763 0.31781 0.32671
 C741 C 0.63753 0.31053 0.32500
 C742 C 0.63085 0.31504 0.31489
 C743 C 0.63766 0.32526 0.31083
 H744 H 0.63514 0.30268 0.33085
 H745 H 0.63528 0.33149 0.30328
 N746 N 0.67352 0.31785 0.35245
 N747 N 0.68220 0.32659 0.35242
 C748 C 0.68948 0.32513 0.36252
 C749 C 0.68520 0.31500 0.36932
 C750 C 0.67508 0.31060 0.36257
 H751 H 0.69712 0.33126 0.36492
 H752 H 0.66907 0.30287 0.36499
 H753 H 0.67414 0.32587 0.33006
 H754 H 0.66407 0.33587 0.34017
 N755 N 0.68200 0.85263 0.82694
 N756 N 0.67348 0.85245 0.81815
 C757 C 0.67496 0.86258 0.81085
 C758 C 0.68496 0.86950 0.81531
 C759 C 0.68919 0.86282 0.82553
 H760 H 0.66909 0.86481 0.80297
 H761 H 0.69671 0.86534 0.83173
 Cu762 Cu 0.66086 0.83936 0.81739
 Cu763 Cu 0.68272 0.84018 0.84006
 Cu764 Cu 0.65981 0.81747 0.83996
 N765 N 0.64770 0.82680 0.81803
 N766 N 0.64741 0.81828 0.82681
 C767 C 0.63719 0.81115 0.82534
 C768 C 0.63060 0.81541 0.81508
 C769 C 0.63761 0.82537 0.81066
 H770 H 0.63461 0.80362 0.83151
 H771 H 0.63547 0.83126 0.80278
 N772 N 0.67312 0.81816 0.85254
 N773 N 0.68187 0.82681 0.85261
 C774 C 0.68915 0.82518 0.86271
 C775 C 0.68475 0.81501 0.86937
 C776 C 0.67459 0.81079 0.86258
 H777 H 0.69694 0.83110 0.86513
 H778 H 0.66846 0.80315 0.86496
 H779 H 0.67415 0.82600 0.83025
 H780 H 0.66377 0.83640 0.83970
 N781 N 0.18183 0.35260 0.82686
 N782 N 0.17332 0.35239 0.81807
 C783 C 0.17479 0.36253 0.81077
 C784 C 0.18477 0.36947 0.81525
 C785 C 0.18900 0.36281 0.82547
 H786 H 0.16894 0.36474 0.80288
 H787 H 0.19652 0.36533 0.83168
 Cu788 Cu 0.16077 0.33923 0.81731
 Cu789 Cu 0.18263 0.34011 0.83993
 Cu790 Cu 0.15987 0.31726 0.83987
 N791 N 0.14766 0.32663 0.81799
 N792 N 0.14743 0.31808 0.82675
 C793 C 0.13721 0.31094 0.82531
 C794 C 0.13057 0.31522 0.81510
 C795 C 0.13753 0.32521 0.81068
 H796 H 0.13466 0.30340 0.83149
 H797 H 0.13533 0.33111 0.80282
 N798 N 0.17323 0.31799 0.85241
 N799 N 0.18191 0.32672 0.85243
 C800 C 0.18923 0.32517 0.86249
 C801 C 0.18495 0.31499 0.86922
 C802 C 0.17480 0.31066 0.86247
 H803 H 0.19691 0.33124 0.86490
 H804 H 0.16879 0.30292 0.86484
 H805 H 0.17410 0.32586 0.83011
 H806 H 0.16369 0.33618 0.83960
 N807 N 0.18201 0.85267 0.32689
 N808 N 0.17343 0.85234 0.31816
 C809 C 0.17475 0.86241 0.31078
 C810 C 0.18470 0.86948 0.31509
 C811 C 0.18909 0.86294 0.32534
 H812 H 0.16869 0.86457 0.30304
 H813 H 0.19674 0.86553 0.33137
 Cu814 Cu 0.16084 0.83927 0.31752
 Cu815 Cu 0.18281 0.84019 0.34004
 Cu816 Cu 0.15993 0.81733 0.33998
 N817 N 0.14777 0.82667 0.31813
 N818 N 0.14747 0.81810 0.32686
 C819 C 0.13723 0.81099 0.32531
 C820 C 0.13067 0.81534 0.31506
 C821 C 0.13771 0.82532 0.31074
 H822 H 0.13467 0.80335 0.33137
 H823 H 0.13555 0.83134 0.30298
 N824 N 0.17330 0.81809 0.35253
 N825 N 0.18202 0.82678 0.35258
 C826 C 0.18930 0.82519 0.36269
 C827 C 0.18493 0.81501 0.36937
 C828 C 0.17480 0.81075 0.36258
 H829 H 0.19706 0.83116 0.36511
 H830 H 0.16869 0.80309 0.36498
 H831 H 0.17424 0.82596 0.33029
 H832 H 0.16389 0.83628 0.33980
 C833 C 0.25680 0.97368 0.24062
 C834 C 0.24827 0.96735 0.24816
 C835 C 0.24055 0.97372 0.25651
 C836 C 0.24118 0.98688 0.25728
 C837 C 0.24968 0.99346 0.24953
 C838 C 0.25757 0.98684 0.24120
 C839 C 0.26589 0.99354 0.23360
 C840 C 0.26647 1.00653 0.23416
 C841 C 0.25874 1.01327 0.24233
 C842 C 0.25027 1.00668 0.25010
 C843 C 0.23345 0.99362 0.26545
 C844 C 0.23406 1.00661 0.26604
 C845 C 0.24238 1.01331 0.25843
 C846 C 0.24312 1.02647 0.25898
 C847 C 0.25158 1.03280 0.25137
 C848 C 0.25930 1.02644 0.24303
 H849 H 0.27200 0.98879 0.22712
 H850 H 0.27305 1.01126 0.22813
 H851 H 0.22684 0.98891 0.27145
 H852 H 0.22795 1.01137 0.27252
 H853 H 0.24777 0.95724 0.24767
 H854 H 0.25203 1.04292 0.25181
 C855 C 0.25958 0.47362 0.74337
 C856 C 0.25182 0.46729 0.75170
 C857 C 0.24322 0.47365 0.75915
 C858 C 0.24241 0.48680 0.75848
 C859 C 0.25035 0.49339 0.75018
 C860 C 0.25893 0.48678 0.74254
 C861 C 0.26671 0.49350 0.73440
 C862 C 0.26605 0.50648 0.73373
 C863 C 0.25763 0.51320 0.74121
 C864 C 0.24970 0.50661 0.74952
 C865 C 0.23399 0.49353 0.76596
 C866 C 0.23335 0.50651 0.76531
 C867 C 0.24113 0.51323 0.75717
 C868 C 0.24050 0.52639 0.75636
 C869 C 0.24823 0.53271 0.74801
 C870 C 0.25681 0.52635 0.74053
 H871 H 0.27340 0.48876 0.72850
 H872 H 0.27220 0.51121 0.72727
 H873 H 0.22783 0.48879 0.77241
 H874 H 0.22667 0.51125 0.77122
 H875 H 0.25233 0.45718 0.75224
 H876 H 0.24773 0.54282 0.74747
 C877 C 0.75915 -0.02668 0.25685
 C878 C 0.75134 -0.03302 0.24859
 C879 C 0.74294 -0.02664 0.24095
 C880 C 0.74236 -0.01347 0.24139
 C881 C 0.75033 -0.00688 0.24967
 C882 C 0.75873 -0.01351 0.25747
 C883 C 0.76654 -0.00682 0.26559
 C884 C 0.76607 0.00618 0.26608
 C885 C 0.75781 0.01293 0.25846
 C886 C 0.74986 0.00635 0.25016
 C887 C 0.73409 -0.00672 0.23377
 C888 C 0.73363 0.00627 0.23426
 C889 C 0.74143 0.01297 0.24238
 C890 C 0.74095 0.02613 0.24305
 C891 C 0.74871 0.03247 0.25135
 C892 C 0.75715 0.02610 0.25897
 H893 H 0.77308 -0.01159 0.27163
 H894 H 0.77224 0.01091 0.27253
 H895 H 0.72791 -0.01146 0.22734
 H896 H 0.72705 0.01103 0.22824
 H897 H 0.75168 -0.04315 0.24822
 H898 H 0.74829 0.04259 0.25177
 C899 C 0.75936 0.47373 0.75692
 C900 C 0.75169 0.46736 0.74856
 C901 C 0.74327 0.47370 0.74089
 C902 C 0.74254 0.48686 0.74140
 C903 C 0.75040 0.49348 0.74975
 C904 C 0.75882 0.48689 0.75758
 C905 C 0.76651 0.49363 0.76577
 C906 C 0.76595 0.50662 0.76629
 C907 C 0.75768 0.51332 0.75862
 C908 C 0.74981 0.50670 0.75028
 C909 C 0.73426 0.49356 0.73375
 C910 C 0.73366 0.50655 0.73430
 C911 C 0.74135 0.51329 0.74249
 C912 C 0.74075 0.52645 0.74322
 C913 C 0.74845 0.53282 0.75156
 C914 C 0.75694 0.52648 0.75915
 H915 H 0.77305 0.48889 0.77184
 H916 H 0.77203 0.51137 0.77278
 H917 H 0.72818 0.48881 0.72725
 H918 H 0.72708 0.51128 0.72826
 H919 H 0.75213 0.45724 0.74815
 H920 H 0.74797 0.54293 0.75201
 C921 C 0.25816 0.47358 0.25786
 C922 C 0.25003 0.46721 0.24994
 C923 C 0.24210 0.47359 0.24182
 C924 C 0.24216 0.48678 0.24158
 C925 C 0.25032 0.49339 0.24965
 C926 C 0.25841 0.48676 0.25778
 C927 C 0.26636 0.49348 0.26574
 C928 C 0.26629 0.50649 0.26581
 C929 C 0.25827 0.51323 0.25792
 C930 C 0.25024 0.50663 0.24972
 C931 C 0.23416 0.49352 0.23366
 C932 C 0.23408 0.50653 0.23375
 C933 C 0.24199 0.51326 0.24174
 C934 C 0.24174 0.52644 0.24215
 C935 C 0.24961 0.53280 0.25035
 C936 C 0.25786 0.52642 0.25815
 H937 H 0.27264 0.48872 0.27206
 H938 H 0.27251 0.51124 0.27218
 H939 H 0.22783 0.48877 0.22741
 H940 H 0.22766 0.51129 0.22756
 H941 H 0.24987 0.45708 0.25011
 H942 H 0.24931 0.54293 0.25064
 C943 C 0.74285 0.97389 0.75920
 C944 C 0.75136 0.96752 0.75166
 C945 C 0.75913 0.97384 0.74334
 C946 C 0.75858 0.98701 0.74259
 C947 C 0.75008 0.99363 0.75031
 C948 C 0.74213 0.98705 0.75861
 C949 C 0.73381 0.99380 0.76617
 C950 C 0.73327 1.00679 0.76561
 C951 C 0.74106 1.01349 0.75747
 C952 C 0.74954 1.00686 0.74973
 C953 C 0.76637 0.99371 0.73446
 C954 C 0.76584 1.00671 0.73389
 C955 C 0.75750 1.01344 0.74145
 C956 C 0.75684 1.02661 0.74093
 C957 C 0.74835 1.03299 0.74848
 C958 C 0.74055 1.02666 0.75677
 H959 H 0.72765 0.98907 0.77263
 H960 H 0.72667 1.01155 0.77159
 H961 H 0.77300 0.98896 0.72849
 H962 H 0.77202 1.01144 0.72746
 H963 H 0.75181 0.95740 0.75214
 H964 H 0.74796 1.04311 0.74805
 C965 C 0.75686 0.47360 0.24073
 C966 C 0.74836 0.46727 0.24829
 C967 C 0.74066 0.47362 0.25666
 C968 C 0.74127 0.48678 0.25743
 C969 C 0.74976 0.49337 0.24968
 C970 C 0.75763 0.48676 0.24132
 C971 C 0.76594 0.49346 0.23372
 C972 C 0.76653 0.50645 0.23430
 C973 C 0.75882 0.51318 0.24249
 C974 C 0.75037 0.50659 0.25027
 C975 C 0.73356 0.49352 0.26562
 C976 C 0.73418 0.50650 0.26623
 C977 C 0.74249 0.51321 0.25863
 C978 C 0.74326 0.52637 0.25921
 C979 C 0.75172 0.53270 0.25160
 C980 C 0.75939 0.52634 0.24322
 H981 H 0.77204 0.48871 0.22722
 H982 H 0.77312 0.51118 0.22828
 H983 H 0.72695 0.48879 0.27162
 H984 H 0.72807 0.51126 0.27272
 H985 H 0.74786 0.45715 0.24779
 H986 H 0.75219 0.54282 0.25206
 C987 C 0.25946 -0.02664 0.75667
 C988 C 0.25167 -0.03298 0.74839
 C989 C 0.24317 -0.02661 0.74084
 C990 C 0.24248 -0.01345 0.74137
 C991 C 0.25041 -0.00686 0.74967
 C992 C 0.25891 -0.01348 0.75740
 C993 C 0.26667 -0.00677 0.76554
 C994 C 0.26609 0.00622 0.76614
 C995 C 0.25775 0.01295 0.75857
 C996 C 0.24984 0.00636 0.75024
 C997 C 0.23414 -0.00672 0.73380
 C998 C 0.23359 0.00627 0.73436
 C999 C 0.24135 0.01298 0.74251
 C1000 C 0.24077 0.02614 0.74327
 C1001 C 0.24848 0.03247 0.75163
 C1002 C 0.25699 0.02611 0.75918
 H1003 H 0.27328 -0.01152 0.77153
 H1004 H 0.27221 0.01095 0.77261
 H1005 H 0.22799 -0.01146 0.72735
 H1006 H 0.22698 0.01102 0.72838
 H1007 H 0.25209 -0.04310 0.74794
 H1008 H 0.24800 0.04258 0.75213
 C1009 C 0.24112 0.25717 1.02612
 C1010 C 0.24918 0.24910 1.03244
 C1011 C 0.25755 0.24141 1.02606
 C1012 C 0.25788 0.24163 1.01293
 C1013 C 0.24971 0.24975 1.00637
 C1014 C 0.24131 0.25759 1.01299
 C1015 C 0.23329 0.26555 1.00631
 C1016 C 0.23355 0.26587 0.99335
 C1017 C 0.24181 0.25821 0.98663
 C1018 C 0.24995 0.25005 0.99318
 C1019 C 0.26613 0.23396 1.00620
 C1020 C 0.26637 0.23425 0.99324
 C1021 C 0.25836 0.24222 0.98656
 C1022 C 0.25858 0.24268 0.97343
 C1023 C 0.25059 0.25081 0.96712
 C1024 C 0.24222 0.25851 0.97350
 H1025 H 0.22675 0.27161 1.01106
 H1026 H 0.22722 0.27218 0.98863
 H1027 H 0.27249 0.22767 1.01092
 H1028 H 0.27292 0.22820 0.98848
 H1029 H 0.24901 0.24888 1.04253
 H1030 H 0.25082 0.25110 0.95703
 C1031 C 0.25758 0.74145 0.47353
 C1032 C 0.24926 0.74924 0.46720
 C1033 C 0.24145 0.75753 0.47355
 C1034 C 0.24180 0.75802 0.48668
 C1035 C 0.25014 0.75008 0.49325
 C1036 C 0.25812 0.74180 0.48665
 C1037 C 0.26626 0.73398 0.49335
 C1038 C 0.26652 0.73422 0.50631
 C1039 C 0.25863 0.74227 0.51302
 C1040 C 0.25039 0.75030 0.50644
 C1041 C 0.23392 0.76608 0.49340
 C1042 C 0.23415 0.76629 0.50636
 C1043 C 0.24228 0.75846 0.51305
 C1044 C 0.24246 0.75844 0.52619
 C1045 C 0.25064 0.75050 0.53252
 C1046 C 0.25868 0.74246 0.52616
 H1047 H 0.27245 0.72755 0.48861
 H1048 H 0.27293 0.72799 0.51104
 H1049 H 0.22743 0.77223 0.48868
 H1050 H 0.22786 0.77261 0.51111
 H1051 H 0.24891 0.74890 0.45712
 H1052 H 0.25068 0.75052 0.54262
 C1053 C 0.25854 0.75777 -0.02660
 C1054 C 0.25036 0.74989 -0.03297
 C1055 C 0.24225 0.74189 -0.02663
 C1056 C 0.24225 0.74170 -0.01349
 C1057 C 0.25046 0.74972 -0.00689
 C1058 C 0.25867 0.75778 -0.01346
 C1059 C 0.26667 0.76570 -0.00675
 C1060 C 0.26652 0.76583 0.00621
 C1061 C 0.25838 0.75803 0.01291
 C1062 C 0.25032 0.74984 0.00631
 C1063 C 0.23413 0.73387 -0.00679
 C1064 C 0.23401 0.73397 0.00617
 C1065 C 0.24199 0.74191 0.01289
 C1066 C 0.24172 0.74233 0.02602
 C1067 C 0.24960 0.75053 0.03237
 C1068 C 0.25791 0.75831 0.02604
 H1069 H 0.27306 0.77194 -0.01148
 H1070 H 0.27277 0.77218 0.01096
 H1071 H 0.22774 0.72766 -0.01154
 H1072 H 0.22752 0.72783 0.01090
 H1073 H 0.25026 0.75002 -0.04307
 H1074 H 0.24928 0.75083 0.04246
 C1075 C 0.25684 0.25906 0.47367
 C1076 C 0.24845 0.25137 0.46733
 C1077 C 0.24072 0.24300 0.47366
 C1078 C 0.24121 0.24234 0.48678
 C1079 C 0.24959 0.25020 0.49336
 C1080 C 0.25748 0.25857 0.48678
 C1081 C 0.26571 0.26627 0.49348
 C1082 C 0.26621 0.26575 0.50642
 C1083 C 0.25850 0.25753 0.51312
 C1084 C 0.25010 0.24968 0.50654
 C1085 C 0.23350 0.23411 0.49347
 C1086 C 0.23402 0.23358 0.50642
 C1087 C 0.24224 0.24128 0.51312
 C1088 C 0.24294 0.24074 0.52623
 C1089 C 0.25135 0.24842 0.53256
 C1090 C 0.25903 0.25683 0.52624
 H1091 H 0.27182 0.27278 0.48875
 H1092 H 0.27275 0.27183 0.51115
 H1093 H 0.22698 0.22802 0.48874
 H1094 H 0.22793 0.22705 0.51114
 H1095 H 0.24806 0.25178 0.45725
 H1096 H 0.25180 0.24797 0.54264
 C1097 C 0.75673 0.74067 0.97353
 C1098 C 0.74830 0.74834 0.96721
 C1099 C 0.74068 0.75683 0.97353
 C1100 C 0.74130 0.75761 0.98663
 C1101 C 0.74971 0.74975 0.99321
 C1102 C 0.75751 0.74128 0.98664
 C1103 C 0.76576 0.73358 0.99333
 C1104 C 0.76638 0.73420 1.00627
 C1105 C 0.75875 0.74252 1.01296
 C1106 C 0.75033 0.75037 1.00638
 C1107 C 0.73366 0.76593 0.99332
 C1108 C 0.73428 0.76654 1.00626
 C1109 C 0.74253 0.75884 1.01296
 C1110 C 0.74331 0.75945 1.02607
 C1111 C 0.75176 0.75178 1.03238
 C1112 C 0.75938 0.74331 1.02606
 H1113 H 0.77179 0.72698 0.98862
 H1114 H 0.77293 0.72812 1.01099
 H1115 H 0.72712 0.77201 0.98860
 H1116 H 0.72825 0.77313 1.01098
 H1117 H 0.74780 0.74785 0.95714
 H1118 H 0.75226 0.75228 1.04246
 C1119 C 0.75909 0.24307 0.47361
 C1120 C 0.75133 0.25144 0.46730
 C1121 C 0.74291 0.25910 0.47366
 C1122 C 0.74227 0.25858 0.48677
 C1123 C 0.75018 0.25021 0.49333
 C1124 C 0.75859 0.24237 0.48673
 C1125 C 0.76632 0.23413 0.49340
 C1126 C 0.76579 0.23356 0.50634
 C1127 C 0.75753 0.24124 0.51306
 C1128 C 0.74965 0.24964 0.50650
 C1129 C 0.73400 0.26625 0.49348
 C1130 C 0.73348 0.26570 0.50642
 C1131 C 0.74122 0.25747 0.51310
 C1132 C 0.74069 0.25674 0.52621
 C1133 C 0.74838 0.24831 0.53252
 C1134 C 0.75681 0.24065 0.52617
 H1135 H 0.77287 0.22806 0.48866
 H1136 H 0.77189 0.22702 0.51105
 H1137 H 0.72787 0.27276 0.48876
 H1138 H 0.72692 0.27176 0.51116
 H1139 H 0.75173 0.25187 0.45722
 H1140 H 0.74793 0.24783 0.54259
 C1141 C 0.75888 0.25709 -0.02645
 C1142 C 0.75102 0.24885 -0.03277
 C1143 C 0.74265 0.24115 -0.02641
 C1144 C 0.74216 0.24152 -0.01329
 C1145 C 0.75015 0.24980 -0.00673
 C1146 C 0.75852 0.25766 -0.01333
 C1147 C 0.76634 0.26580 -0.00665
 C1148 C 0.76589 0.26628 0.00629
 C1149 C 0.75765 0.25861 0.01301
 C1150 C 0.74972 0.25027 0.00646
 C1151 C 0.73391 0.23385 -0.00657
 C1152 C 0.73350 0.23430 0.00638
 C1153 C 0.74131 0.24244 0.01306
 C1154 C 0.74085 0.24311 0.02617
 C1155 C 0.74860 0.25146 0.03248
 C1156 C 0.75700 0.25913 0.02613
 H1157 H 0.77286 0.27187 -0.01140
 H1158 H 0.77205 0.27275 0.01100
 H1159 H 0.72770 0.22743 -0.01129
 H1160 H 0.72694 0.22825 0.01112
 H1161 H 0.75131 0.24853 -0.04286
 H1162 H 0.74819 0.25190 0.04256
 C1163 C 0.74317 0.74080 0.47375
 C1164 C 0.75160 0.74845 0.46743
 C1165 C 0.75925 0.75688 0.47375
 C1166 C 0.75866 0.75765 0.48685
 C1167 C 0.75024 0.74982 0.49343
 C1168 C 0.74240 0.74140 0.48686
 C1169 C 0.73413 0.73374 0.49356
 C1170 C 0.73354 0.73434 0.50649
 C1171 C 0.74121 0.74260 0.51318
 C1172 C 0.74964 0.75043 0.50660
 C1173 C 0.76633 0.76591 0.49353
 C1174 C 0.76573 0.76652 0.50647
 C1175 C 0.75746 0.75886 0.51317
 C1176 C 0.75669 0.75947 0.52627
 C1177 C 0.74826 0.75182 0.53260
 C1178 C 0.74062 0.74337 0.52629
 H1179 H 0.72807 0.72719 0.48884
 H1180 H 0.72698 0.72829 0.51122
 H1181 H 0.77289 0.77197 0.48881
 H1182 H 0.77180 0.77307 0.51118
 H1183 H 0.75209 0.74797 0.45735
 H1184 H 0.74777 0.75231 0.54268
 C1185 C 1.02636 0.24060 0.25660
 C1186 C 1.03273 0.24829 0.24824
 C1187 C 1.02639 0.25681 0.24069
 C1188 C 1.01322 0.25759 0.24128
 C1189 C 1.00660 0.24972 0.24962
 C1190 C 1.01320 0.24123 0.25737
 C1191 C 1.00646 0.23353 0.26557
 C1192 C 0.99347 0.23416 0.26617
 C1193 C 0.98675 0.24248 0.25858
 C1194 C 0.99337 0.25034 0.25023
 C1195 C 1.00651 0.26592 0.23369
 C1196 C 0.99352 0.26654 0.23429
 C1197 C 0.98678 0.25883 0.24248
 C1198 C 0.97361 0.25946 0.24324
 C1199 C 0.96724 0.25177 0.25161
 C1200 C 0.97358 0.24326 0.25917
 H1201 H 1.01119 0.22693 0.27157
 H1202 H 0.98872 0.22807 0.27268
 H1203 H 1.01127 0.27201 0.22720
 H1204 H 0.98879 0.27315 0.22829
 H1205 H 1.04285 0.24779 0.24776
 H1206 H 0.95712 0.25227 0.25209
 C1207 C 0.52645 0.24043 0.75653
 C1208 C 0.53281 0.24812 0.74817
 C1209 C 0.52646 0.25666 0.74064
 C1210 C 0.51330 0.25745 0.74125
 C1211 C 0.50669 0.24959 0.74960
 C1212 C 0.51329 0.24108 0.75733
 C1213 C 0.50656 0.23339 0.76554
 C1214 C 0.49357 0.23403 0.76617
 C1215 C 0.48685 0.24237 0.75860
 C1216 C 0.49346 0.25023 0.75024
 C1217 C 0.50658 0.26580 0.73368
 C1218 C 0.49359 0.26644 0.73432
 C1219 C 0.48686 0.25874 0.74252
 C1220 C 0.47369 0.25940 0.74333
 C1221 C 0.46734 0.25170 0.75170
 C1222 C 0.47369 0.24317 0.75923
 H1223 H 0.51130 0.22678 0.77154
 H1224 H 0.48883 0.22795 0.77269
 H1225 H 0.51133 0.27188 0.72718
 H1226 H 0.48885 0.27307 0.72834
 H1227 H 0.54293 0.24762 0.74767
 H1228 H 0.45722 0.25221 0.75221
 C1229 C -0.02652 0.25792 0.75829
 C1230 C -0.03290 0.24966 0.75053
 C1231 C -0.02654 0.24175 0.74236
 C1232 C -0.01335 0.24197 0.74193
 C1233 C -0.00672 0.25023 0.74986
 C1234 C -0.01332 0.25830 0.75804
 C1235 C -0.00657 0.26634 0.76587
 C1236 C 0.00645 0.26640 0.76577
 C1237 C 0.01317 0.25841 0.75783
 C1238 C 0.00654 0.25030 0.74975
 C1239 C -0.00663 0.23401 0.73396
 C1240 C 0.00639 0.23409 0.73384
 C1241 C 0.01314 0.24210 0.74170
 C1242 C 0.02634 0.24205 0.74188
 C1243 C 0.03274 0.25002 0.74994
 C1244 C 0.02637 0.25817 0.75786
 H1245 H -0.01132 0.27260 0.77223
 H1246 H 0.01122 0.27270 0.77205
 H1247 H -0.01139 0.22758 0.72782
 H1248 H 0.01114 0.22772 0.72760
 H1249 H -0.04304 0.24939 0.75083
 H1250 H 0.04288 0.24986 0.75006
 C1251 C 0.47370 0.25724 0.25872
 C1252 C 0.46733 0.24881 0.25112
 C1253 C 0.47370 0.24084 0.24302
 C1254 C 0.48689 0.24118 0.24250
 C1255 C 0.49350 0.24962 0.25026
 C1256 C 0.48689 0.25770 0.25841
 C1257 C 0.49361 0.26602 0.26597
 C1258 C 0.50662 0.26644 0.26554
 C1259 C 0.51335 0.25855 0.25751
 C1260 C 0.50675 0.25006 0.24980
 C1261 C 0.49363 0.23328 0.23449
 C1262 C 0.50664 0.23372 0.23402
 C1263 C 0.51336 0.24204 0.24158
 C1264 C 0.52654 0.24271 0.24105
 C1265 C 0.53289 0.25122 0.24859
 C1266 C 0.52653 0.25904 0.25683
 H1267 H 0.48884 0.27230 0.27229
 H1268 H 0.51136 0.27306 0.27150
 H1269 H 0.48888 0.22669 0.22849
 H1270 H 0.51139 0.22750 0.22764
 H1271 H 0.45719 0.24856 0.25140
 H1272 H 0.54302 0.25165 0.24813
 C1273 C 1.02665 0.74209 0.75828
 C1274 C 1.03304 0.75004 0.75019
 C1275 C 1.02668 0.75820 0.74228
 C1276 C 1.01348 0.75848 0.74233
 C1277 C 1.00684 0.75037 0.75043
 C1278 C 1.01344 0.74217 0.75848
 C1279 C 1.00668 0.73416 0.76634
 C1280 C 0.99366 0.73409 0.76622
 C1281 C 0.98694 0.74206 0.75826
 C1282 C 0.99358 0.75033 0.75033
 C1283 C 1.00677 0.76646 0.73438
 C1284 C 0.99374 0.76644 0.73430
 C1285 C 0.98698 0.75841 0.74215
 C1286 C 0.97379 0.75806 0.74192
 C1287 C 0.96740 0.74978 0.74968
 C1288 C 0.97375 0.74184 0.75782
 H1289 H 1.01143 0.72778 0.77258
 H1290 H 0.98889 0.72766 0.77237
 H1291 H 1.01154 0.77275 0.72809
 H1292 H 0.98900 0.77269 0.72794
 H1293 H 1.04319 0.74986 0.75004
 H1294 H 0.95726 0.74953 0.74938
 C1295 C 0.52643 0.74325 0.25926
 C1296 C 0.53278 0.75178 0.25173
 C1297 C 0.52643 0.75948 0.24336
 C1298 C 0.51326 0.75886 0.24257
 C1299 C 0.50666 0.75036 0.25029
 C1300 C 0.51327 0.74248 0.25863
 C1301 C 0.50655 0.73413 0.26619
 C1302 C 0.49356 0.73351 0.26556
 C1303 C 0.48683 0.74124 0.25737
 C1304 C 0.49343 0.74975 0.24966
 C1305 C 0.50653 0.76659 0.23439
 C1306 C 0.49354 0.76599 0.23377
 C1307 C 0.48682 0.75764 0.24133
 C1308 C 0.47366 0.75688 0.24071
 C1309 C 0.46731 0.74836 0.24823
 C1310 C 0.47366 0.74063 0.25658
 H1311 H 0.51129 0.72803 0.27269
 H1312 H 0.48882 0.72689 0.27153
 H1313 H 0.51126 0.77321 0.22841
 H1314 H 0.48879 0.77210 0.22728
 H1315 H 0.54290 0.75227 0.25224
 H1316 H 0.45719 0.74787 0.24773
 C1317 C -0.02642 0.74088 0.24312
 C1318 C -0.03279 0.74858 0.25147
 C1319 C -0.02647 0.75705 0.25906
 C1320 C -0.01329 0.75777 0.25852
 C1321 C -0.00666 0.74989 0.25019
 C1322 C -0.01324 0.74144 0.24240
 C1323 C -0.00649 0.73372 0.23424
 C1324 C 0.00651 0.73428 0.23370
 C1325 C 0.01321 0.74256 0.24133
 C1326 C 0.00658 0.75045 0.24965
 C1327 C -0.00659 0.76605 0.26615
 C1328 C 0.00641 0.76660 0.26562
 C1329 C 0.01316 0.75888 0.25745
 C1330 C 0.02634 0.75941 0.25678
 C1331 C 0.03272 0.75170 0.24844
 C1332 C 0.02639 0.74326 0.24081
 H1333 H -0.01122 0.72714 0.22822
 H1334 H 0.01128 0.72817 0.22723
 H1335 H -0.01135 0.77216 0.27263
 H1336 H 0.01114 0.77316 0.27166
 H1337 H -0.04292 0.74811 0.25193
 H1338 H 0.04285 0.75213 0.24803
 C1339 C 0.47341 0.75791 0.75847
 C1340 C 0.46703 0.74963 0.75071
 C1341 C 0.47339 0.74171 0.74257
 C1342 C 0.48659 0.74195 0.74212
 C1343 C 0.49321 0.75021 0.75005
 C1344 C 0.48661 0.75826 0.75825
 C1345 C 0.49336 0.76633 0.76606
 C1346 C 0.50638 0.76646 0.76589
 C1347 C 0.51310 0.75855 0.75788
 C1348 C 0.50647 0.75037 0.74985
 C1349 C 0.49331 0.73405 0.73409
 C1350 C 0.50633 0.73424 0.73386
 C1351 C 0.51308 0.74229 0.74170
 C1352 C 0.52628 0.74250 0.74162
 C1353 C 0.53267 0.75056 0.74959
 C1354 C 0.52630 0.75852 0.75770
 H1355 H 0.48860 0.77256 0.77243
 H1356 H 0.51115 0.77280 0.77213
 H1357 H 0.48855 0.72763 0.72794
 H1358 H 0.51109 0.72798 0.72752
 H1359 H 0.45689 0.74940 0.75098
 H1360 H 0.54282 0.75060 0.74952
 C1361 C 0.40442 0.30109 0.30109
 C1362 C 0.39877 0.29559 0.31155
 C1363 C 0.38738 0.30008 0.31608
 C1364 C 0.38133 0.31021 0.31030
 C1365 C 0.38706 0.31578 0.29990
 C1366 C 0.39846 0.31128 0.29536
 C1367 C 0.41623 0.29594 0.29597
 N1368 N 0.42140 0.30077 0.28548
 N1369 N 0.43163 0.29570 0.28052
 C1370 C 0.43716 0.28560 0.28586
 N1371 N 0.43209 0.28088 0.29645
 N1372 N 0.42186 0.28595 0.30140
 C1373 C 0.44787 0.27928 0.27975
 C1374 C 0.45292 0.26824 0.28482
 C1375 C 0.46190 0.26140 0.27826
 C1376 C 0.46605 0.26553 0.26661
 C1377 C 0.46152 0.27681 0.26178
 C1378 C 0.45253 0.28366 0.26831
 H1379 H 0.40308 0.28772 0.31620
 H1380 H 0.38336 0.29551 0.32409
 H1381 H 0.38277 0.32360 0.29518
 H1382 H 0.40254 0.31575 0.28729
 H1383 H 0.44960 0.26462 0.29361
 H1384 H 0.46525 0.25263 0.28203
 H1385 H 0.46456 0.28002 0.25272
 H1386 H 0.44889 0.29212 0.26414
 C1387 C 0.40397 0.80117 0.80120
 C1388 C 0.39818 0.79558 0.81151
 C1389 C 0.38681 0.80012 0.81604
 C1390 C 0.38086 0.81043 0.81039
 C1391 C 0.38677 0.81606 0.80009
 C1392 C 0.39816 0.81150 0.79558
 C1393 C 0.41578 0.79599 0.79611
 N1394 N 0.42128 0.80115 0.78595
 N1395 N 0.43153 0.79609 0.78101
 C1396 C 0.43674 0.78567 0.78604
 N1397 N 0.43133 0.78062 0.79630
 N1398 N 0.42109 0.78567 0.80124
 C1399 C 0.44749 0.77940 0.77993
 C1400 C 0.45184 0.76780 0.78433
 C1401 C 0.46085 0.76111 0.77768
 C1402 C 0.46576 0.76596 0.76662
 C1403 C 0.46194 0.77777 0.76249
 C1404 C 0.45289 0.78446 0.76910
 H1405 H 0.40237 0.78759 0.81608
 H1406 H 0.38275 0.79540 0.82396
 H1407 H 0.38269 0.82399 0.79539
 H1408 H 0.40235 0.81604 0.78761
 H1409 H 0.44792 0.76363 0.79264
 H1410 H 0.46363 0.75193 0.78089
 H1411 H 0.46557 0.78154 0.75386
 H1412 H 0.44980 0.79338 0.76547
 C1413 C -0.09610 0.30081 0.80110
 C1414 C -0.10093 0.31216 0.79659
 C1415 C -0.11227 0.31686 0.80110
 C1416 C -0.11904 0.31033 0.81023
 C1417 C -0.11417 0.29900 0.81474
 C1418 C -0.10285 0.29432 0.81025
 C1419 C -0.08429 0.29557 0.79608
 N1420 N -0.07966 0.28463 0.80053
 N1421 N -0.06940 0.27958 0.79566
 C1422 C -0.06328 0.28525 0.78614
 N1423 N -0.06781 0.29627 0.78179
 N1424 N -0.07808 0.30134 0.78667
 C1425 C -0.05250 0.27903 0.78005
 C1426 C -0.04653 0.28454 0.76975
 C1427 C -0.03745 0.27794 0.76307
 C1428 C -0.03417 0.26578 0.76662
 C1429 C -0.03965 0.26047 0.77720
 C1430 C -0.04868 0.26706 0.78391
 H1431 H -0.09599 0.31741 0.78953
 H1432 H -0.11564 0.32564 0.79743
 H1433 H -0.11910 0.29361 0.82169
 H1434 H -0.09946 0.28552 0.81391
 H1435 H -0.04921 0.29375 0.76654
 H1436 H -0.03339 0.28208 0.75481
 H1437 H -0.03729 0.25103 0.77995
 H1438 H -0.05303 0.26253 0.79181
 C1439 C -0.09586 0.80060 0.30159
 C1440 C -0.10068 0.81192 0.29703
 C1441 C -0.11210 0.81656 0.30138
 C1442 C -0.11899 0.80998 0.31040
 C1443 C -0.11411 0.79869 0.31499
 C1444 C -0.10270 0.79408 0.31067
 C1445 C -0.08401 0.79534 0.29667
 N1446 N -0.07940 0.78444 0.30122
 N1447 N -0.06917 0.77930 0.29636
 C1448 C -0.06308 0.78484 0.28675
 N1449 N -0.06758 0.79585 0.28231
 N1450 N -0.07782 0.80100 0.28718
 C1451 C -0.05238 0.77847 0.28066
 C1452 C -0.04637 0.78386 0.27032
 C1453 C -0.03733 0.77714 0.26369
 C1454 C -0.03416 0.76497 0.26730
 C1455 C -0.03972 0.75976 0.27789
 C1456 C -0.04869 0.76647 0.28456
 H1457 H -0.09566 0.81720 0.29005
 H1458 H -0.11547 0.82532 0.29766
 H1459 H -0.11911 0.79328 0.32186
 H1460 H -0.09932 0.78530 0.31437
 H1461 H -0.04896 0.79308 0.26706
 H1462 H -0.03322 0.78121 0.25542
 H1463 H -0.03746 0.75031 0.28069
 H1464 H -0.05309 0.76203 0.29247
 C1465 C 0.59561 0.69942 0.30186
 C1466 C 0.60049 0.68816 0.29720
 C1467 C 0.61188 0.68348 0.30161
 C1468 C 0.61866 0.68995 0.31077
 C1469 C 0.61371 0.70118 0.31545
 C1470 C 0.60234 0.70583 0.31107
 C1471 C 0.58380 0.70472 0.29689
 N1472 N 0.57911 0.71554 0.30155
 N1473 N 0.56890 0.72071 0.29668
 C1474 C 0.56291 0.71529 0.28695
 N1475 N 0.56748 0.70436 0.28240
 N1476 N 0.57770 0.69918 0.28727
 C1477 C 0.55223 0.72169 0.28086
 C1478 C 0.54631 0.71639 0.27042
 C1479 C 0.53732 0.72315 0.26378
 C1480 C 0.53409 0.73528 0.26748
 C1481 C 0.53954 0.74039 0.27816
 C1482 C 0.54847 0.73363 0.28485
 H1483 H 0.59555 0.68296 0.29011
 H1484 H 0.61531 0.67477 0.29783
 H1485 H 0.61864 0.70652 0.32242
 H1486 H 0.59891 0.71456 0.31485
 H1487 H 0.54895 0.70721 0.26711
 H1488 H 0.53328 0.71915 0.25545
 H1489 H 0.53721 0.74980 0.28105
 H1490 H 0.55278 0.73800 0.29285
 C1491 C 0.59572 0.19802 0.80028
 C1492 C 0.60043 0.20277 0.81153
 C1493 C 0.61180 0.19847 0.81631
 C1494 C 0.61875 0.18931 0.80997
 C1495 C 0.61398 0.18452 0.79876
 C1496 C 0.60262 0.18881 0.79399
 C1497 C 0.58392 0.20288 0.79489
 N1498 N 0.57955 0.19836 0.78393
 N1499 N 0.56933 0.20315 0.77871
 C1500 C 0.56301 0.21265 0.78423
 N1501 N 0.56728 0.21706 0.79529
 N1502 N 0.57751 0.21227 0.80052
 C1503 C 0.55230 0.21868 0.77784
 C1504 C 0.54600 0.22883 0.78333
 C1505 C 0.53698 0.23549 0.77663
 C1506 C 0.53411 0.23209 0.76437
 C1507 C 0.53994 0.22166 0.75906
 C1508 C 0.54890 0.21496 0.76575
 H1509 H 0.59537 0.20988 0.81662
 H1510 H 0.61509 0.20236 0.82500
 H1511 H 0.61903 0.17753 0.79352
 H1512 H 0.59932 0.18495 0.78528
 H1513 H 0.54836 0.23194 0.79262
 H1514 H 0.53265 0.24363 0.78078
 H1515 H 0.53789 0.21901 0.74955
 H1516 H 0.55351 0.20718 0.76124
 C1517 C 1.09550 0.69845 0.80176
 C1518 C 1.10065 0.70342 0.81272
 C1519 C 1.11203 0.69894 0.81735
 C1520 C 1.11853 0.68936 0.81115
 C1521 C 1.11328 0.68430 0.80027
 C1522 C 1.10192 0.68877 0.79565
 C1523 C 1.08376 0.70359 0.79644
 N1524 N 1.07908 0.69902 0.78561
 N1525 N 1.06895 0.70405 0.78044
 C1526 C 1.06302 0.71386 0.78587
 N1527 N 1.06760 0.71832 0.79679
 N1528 N 1.07774 0.71329 0.80197
 C1529 C 1.05240 0.72011 0.77953
 C1530 C 1.04654 0.73059 0.78489
 C1531 C 1.03757 0.73737 0.77823
 C1532 C 1.03429 0.73374 0.76615
 C1533 C 1.03966 0.72301 0.76097
 C1534 C 1.04859 0.71620 0.76762
 H1535 H 1.09595 0.71086 0.81768
 H1536 H 1.11568 0.70302 0.82580
 H1537 H 1.11798 0.67698 0.79517
 H1538 H 1.09826 0.68471 0.78718
 H1539 H 1.04921 0.73385 0.79405
 H1540 H 1.03359 0.74573 0.78228
 H1541 H 1.03729 0.72018 0.75159
 H1542 H 1.05285 0.70817 0.76321
 C1543 C 1.09564 0.19815 0.30026
 C1544 C 1.10035 0.20286 0.31153
 C1545 C 1.11166 0.19843 0.31636
 C1546 C 1.11853 0.18919 0.31003
 C1547 C 1.11379 0.18449 0.29878
 C1548 C 1.10250 0.18890 0.29397
 C1549 C 1.08386 0.20307 0.29489
 N1550 N 1.07944 0.19853 0.28395
 N1551 N 1.06921 0.20332 0.27876
 C1552 C 1.06292 0.21283 0.28429
 N1553 N 1.06723 0.21726 0.29532
 N1554 N 1.07748 0.21247 0.30052
 C1555 C 1.05220 0.21886 0.27792
 C1556 C 1.04593 0.22903 0.28339
 C1557 C 1.03691 0.23569 0.27669
 C1558 C 1.03401 0.23226 0.26445
 C1559 C 1.03981 0.22182 0.25915
 C1560 C 1.04877 0.21511 0.26584
 H1561 H 1.09534 0.21001 0.31662
 H1562 H 1.11494 0.20226 0.32506
 H1563 H 1.11881 0.17747 0.29356
 H1564 H 1.09920 0.18511 0.28523
 H1565 H 1.04831 0.23216 0.29267
 H1566 H 1.03260 0.24385 0.28083
 H1567 H 1.03775 0.21915 0.24965
 H1568 H 1.05336 0.20732 0.26134
 C1569 C 0.59581 0.30066 0.69864
 C1570 C 0.60255 0.29432 0.68938
 C1571 C 0.61384 0.29906 0.68494
 C1572 C 0.61871 0.31032 0.68959
 C1573 C 0.61194 0.31671 0.69883
 C1574 C 0.60063 0.31194 0.70331
 C1575 C 0.58403 0.29530 0.70358
 N1576 N 0.57783 0.30083 0.71314
 N1577 N 0.56760 0.29561 0.71794
 C1578 C 0.56312 0.28467 0.71335
 N1579 N 0.56923 0.27925 0.70369
 N1580 N 0.57944 0.28446 0.69890
 C1581 C 0.55240 0.27826 0.71933
 C1582 C 0.54869 0.26633 0.71527
 C1583 C 0.53970 0.25957 0.72184
 C1584 C 0.53414 0.26466 0.73248
 C1585 C 0.53732 0.27677 0.73625
 C1586 C 0.54637 0.28354 0.72972
 H1587 H 0.59918 0.28558 0.68559
 H1588 H 0.61875 0.29377 0.67790
 H1589 H 0.61532 0.32544 0.70262
 H1590 H 0.59568 0.31707 0.71046
 H1591 H 0.55309 0.26199 0.70730
 H1592 H 0.53742 0.25016 0.71892
 H1593 H 0.53320 0.28074 0.74457
 H1594 H 0.54897 0.29270 0.73310
 C1595 C 0.59546 0.80214 0.19948
 C1596 C 0.60244 0.81125 0.20583
 C1597 C 0.61381 0.81548 0.20106
 C1598 C 0.61853 0.81076 0.18979
 C1599 C 0.61149 0.80173 0.18338
 C1600 C 0.60010 0.79748 0.18816
 C1601 C 0.58367 0.79727 0.20490
 N1602 N 0.57723 0.78794 0.19924
 N1603 N 0.56703 0.78312 0.20450
 C1604 C 0.56283 0.78744 0.21562
 N1605 N 0.56918 0.79689 0.22118
 N1606 N 0.57936 0.80171 0.21593
 C1607 C 0.55218 0.78135 0.22205
 C1608 C 0.54887 0.78496 0.23420
 C1609 C 0.53996 0.77821 0.24091
 C1610 C 0.53409 0.76785 0.23554
 C1611 C 0.53686 0.76457 0.22323
 C1612 C 0.54584 0.77127 0.21652
 H1613 H 0.59919 0.81504 0.21459
 H1614 H 0.61893 0.82238 0.20635
 H1615 H 0.61472 0.79791 0.17464
 H1616 H 0.59497 0.79047 0.18301
 H1617 H 0.55351 0.79269 0.23875
 H1618 H 0.53798 0.78078 0.25045
 H1619 H 0.53249 0.75648 0.21903
 H1620 H 0.54812 0.76825 0.20718
 C1621 C 1.09581 0.30053 0.19850
 C1622 C 1.10262 0.29410 0.18933
 C1623 C 1.11390 0.29885 0.18487
 C1624 C 1.11871 0.31018 0.18942
 C1625 C 1.11188 0.31665 0.19856
 C1626 C 1.10057 0.31187 0.20305
 C1627 C 1.08403 0.29519 0.20346
 N1628 N 1.07782 0.30078 0.21298
 N1629 N 1.06758 0.29560 0.21779
 C1630 C 1.06310 0.28463 0.21327
 N1631 N 1.06922 0.27915 0.20365
 N1632 N 1.07945 0.28432 0.19885
 C1633 C 1.05236 0.27828 0.21928
 C1634 C 1.04862 0.26634 0.21526
 C1635 C 1.03962 0.25962 0.22187
 C1636 C 1.03407 0.26477 0.23249
 C1637 C 1.03728 0.27689 0.23621
 C1638 C 1.04634 0.28361 0.22965
 H1639 H 1.09929 0.28531 0.18563
 H1640 H 1.11887 0.29350 0.17791
 H1641 H 1.11520 0.32542 0.20226
 H1642 H 1.09558 0.31707 0.21013
 H1643 H 1.05301 0.26195 0.20730
 H1644 H 1.03732 0.25021 0.21898
 H1645 H 1.03318 0.28090 0.24451
 H1646 H 1.04896 0.29278 0.23298
 C1647 C 1.09572 0.80087 0.69852
 C1648 C 1.10242 0.79434 0.68934
 C1649 C 1.11382 0.79889 0.68493
 C1650 C 1.11881 0.81012 0.68955
 C1651 C 1.11204 0.81671 0.69865
 C1652 C 1.10064 0.81214 0.70307
 C1653 C 1.08392 0.79569 0.70359
 N1654 N 1.07784 0.80147 0.71309
 N1655 N 1.06764 0.79643 0.71811
 C1656 C 1.06307 0.78540 0.71384
 N1657 N 1.06904 0.77973 0.70423
 N1658 N 1.07924 0.78477 0.69921
 C1659 C 1.05242 0.77919 0.72013
 C1660 C 1.04855 0.76722 0.71637
 C1661 C 1.03964 0.76066 0.72325
 C1662 C 1.03434 0.76599 0.73390
 C1663 C 1.03768 0.77814 0.73739
 C1664 C 1.04663 0.78472 0.73054
 H1665 H 1.09895 0.78561 0.68563
 H1666 H 1.11873 0.79349 0.67798
 H1667 H 1.11548 0.82543 0.70237
 H1668 H 1.09572 0.81743 0.71012
 H1669 H 1.05276 0.76268 0.70840
 H1670 H 1.03722 0.75122 0.72054
 H1671 H 1.03374 0.78231 0.74569
 H1672 H 1.04936 0.79393 0.73367
 C1673 C 0.40435 0.69826 0.69954
 C1674 C 0.39957 0.70291 0.68828
 C1675 C 0.38824 0.69849 0.68355
 C1676 C 0.38140 0.68929 0.68995
 C1677 C 0.38626 0.68457 0.70116
 C1678 C 0.39758 0.68899 0.70589
 C1679 C 0.41610 0.70330 0.70487
 N1680 N 0.42055 0.69897 0.71589
 N1681 N 0.43073 0.70392 0.72102
 C1682 C 0.43693 0.71340 0.71534
 N1683 N 0.43258 0.71763 0.70424
 N1684 N 0.42239 0.71268 0.69910
 C1685 C 0.44759 0.71961 0.72161
 C1686 C 0.45374 0.72978 0.71600
 C1687 C 0.46273 0.73657 0.72258
 C1688 C 0.46573 0.73328 0.73483
 C1689 C 0.46006 0.72285 0.74028
 C1690 C 0.45113 0.71601 0.73371
 H1691 H 0.40453 0.71005 0.68314
 H1692 H 0.38491 0.70231 0.67485
 H1693 H 0.38129 0.67754 0.70642
 H1694 H 0.40096 0.68520 0.71460
 H1695 H 0.45128 0.73278 0.70670
 H1696 H 0.46695 0.74471 0.71832
 H1697 H 0.46222 0.72029 0.74979
 H1698 H 0.44664 0.70822 0.73831
 C1699 C 0.40438 0.19838 0.19953
 C1700 C 0.39770 0.18892 0.20567
 C1701 C 0.38634 0.18461 0.20094
 C1702 C 0.38135 0.18963 0.18992
 C1703 C 0.38808 0.19905 0.18372
 C1704 C 0.39945 0.20336 0.18847
 C1705 C 0.41619 0.20327 0.20487
 N1706 N 0.42244 0.21279 0.19930
 N1707 N 0.43268 0.21759 0.20447
 C1708 C 0.43713 0.21306 0.21542
 N1709 N 0.43098 0.20343 0.22089
 N1710 N 0.42075 0.19863 0.21572
 C1711 C 0.44785 0.21911 0.22176
 C1712 C 0.45151 0.21522 0.23372
 C1713 C 0.46048 0.22193 0.24039
 C1714 C 0.46605 0.23253 0.23517
 C1715 C 0.46293 0.23610 0.22302
 C1716 C 0.45391 0.22944 0.21635
 H1717 H 0.40119 0.18487 0.21423
 H1718 H 0.38147 0.17741 0.20605
 H1719 H 0.38462 0.20311 0.17518
 H1720 H 0.40434 0.21066 0.18348
 H1721 H 0.44709 0.20729 0.23816
 H1722 H 0.46273 0.21914 0.24982
 H1723 H 0.46707 0.24437 0.21893
 H1724 H 0.45136 0.23267 0.20715
 C1725 C -0.09579 0.69838 0.19968
 C1726 C -0.10261 0.68909 0.20595
 C1727 C -0.11388 0.68467 0.20111
 C1728 C -0.11863 0.68939 0.18985
 C1729 C -0.11178 0.69864 0.18355
 C1730 C -0.10050 0.70307 0.18840
 C1731 C -0.08405 0.70333 0.20508
 N1732 N -0.07767 0.71271 0.19941
 N1733 N -0.06744 0.71753 0.20459
 C1734 C -0.06313 0.71316 0.21566
 N1735 N -0.06942 0.70368 0.22124
 N1736 N -0.07964 0.69886 0.21607
 C1737 C -0.05239 0.71918 0.22197
 C1738 C -0.04889 0.71544 0.23404
 C1739 C -0.03987 0.72211 0.24066
 C1740 C -0.03407 0.73252 0.23530
 C1741 C -0.03703 0.73594 0.22306
 C1742 C -0.04611 0.72931 0.21643
 H1743 H -0.09932 0.68528 0.21468
 H1744 H -0.11889 0.67763 0.20631
 H1745 H -0.11505 0.70246 0.17483
 H1746 H -0.09550 0.71023 0.18332
 H1747 H -0.05348 0.70768 0.23858
 H1748 H -0.03776 0.71946 0.25015
 H1749 H -0.03273 0.74407 0.21887
 H1750 H -0.04854 0.73243 0.20716
 C1751 C -0.09567 0.19852 0.69935
 C1752 C -0.10036 0.20308 0.68800
 C1753 C -0.11167 0.19865 0.68324
 C1754 C -0.11859 0.18956 0.68969
 C1755 C -0.11385 0.18496 0.70100
 C1756 C -0.10254 0.18937 0.70576
 C1757 C -0.08392 0.20352 0.70468
 N1758 N -0.07957 0.19925 0.71576
 N1759 N -0.06937 0.20415 0.72089
 C1760 C -0.06306 0.21352 0.71517
 N1761 N -0.06730 0.21769 0.70400
 N1762 N -0.07751 0.21278 0.69886
 C1763 C -0.05237 0.21969 0.72144
 C1764 C -0.04611 0.22975 0.71577
 C1765 C -0.03710 0.23652 0.72235
 C1766 C -0.03421 0.23332 0.73465
 C1767 C -0.04001 0.22299 0.74015
 C1768 C -0.04896 0.21617 0.73359
 H1769 H -0.09532 0.21013 0.68281
 H1770 H -0.11493 0.20236 0.67446
 H1771 H -0.11889 0.17802 0.70631
 H1772 H -0.09925 0.18568 0.71454
 H1773 H -0.04848 0.23269 0.70643
 H1774 H -0.03278 0.24459 0.71805
 H1775 H -0.03794 0.22050 0.74970
 H1776 H -0.05355 0.20847 0.73824
 C1777 C 0.30076 0.40425 0.30128
 C1778 C 0.29422 0.39756 0.31045
 C1779 C 0.29881 0.38620 0.31492
 C1780 C 0.31008 0.38123 0.31036
 C1781 C 0.31667 0.38795 0.30124
 C1782 C 0.31206 0.39933 0.29675
 C1783 C 0.29558 0.41606 0.29622
 N1784 N 0.30141 0.42221 0.28681
 N1785 N 0.29638 0.43246 0.28186
 C1786 C 0.28533 0.43702 0.28614
 N1787 N 0.27960 0.43097 0.29566
 N1788 N 0.28462 0.42073 0.30060
 C1789 C 0.27914 0.44775 0.27993
 C1790 C 0.26713 0.45158 0.28367
 C1791 C 0.26057 0.46054 0.27684
 C1792 C 0.26595 0.46593 0.26626
 C1793 C 0.27815 0.46265 0.26282
 C1794 C 0.28472 0.45364 0.26962
 H1795 H 0.28546 0.40103 0.31413
 H1796 H 0.29339 0.38131 0.32187
 H1797 H 0.32542 0.38451 0.29756
 H1798 H 0.31735 0.40423 0.28969
 H1799 H 0.26256 0.44730 0.29158
 H1800 H 0.25111 0.46292 0.27952
 H1801 H 0.28236 0.46666 0.25457
 H1802 H 0.29397 0.45096 0.26651
 C1803 C 0.30212 -0.09588 0.80030
 C1804 C 0.31221 -0.10209 0.79468
 C1805 C 0.31662 -0.11341 0.79944
 C1806 C 0.31106 -0.11889 0.81001
 C1807 C 0.30098 -0.11257 0.81567
 C1808 C 0.29660 -0.10123 0.81089
 C1809 C 0.29716 -0.08411 0.79492
 N1810 N 0.28739 -0.07806 0.80029
 N1811 N 0.28255 -0.06784 0.79509
 C1812 C 0.28730 -0.06322 0.78431
 N1813 N 0.29717 -0.06919 0.77903
 N1814 N 0.30201 -0.07939 0.78423
 C1815 C 0.28124 -0.05252 0.77793
 C1816 C 0.28502 -0.04902 0.76588
 C1817 C 0.27830 -0.04006 0.75920
 C1818 C 0.26781 -0.03432 0.76450
 C1819 C 0.26435 -0.03728 0.77672
 C1820 C 0.27102 -0.04631 0.78340
 H1821 H 0.31670 -0.09825 0.78650
 H1822 H 0.32437 -0.11779 0.79469
 H1823 H 0.29634 -0.11629 0.82379
 H1824 H 0.28878 -0.09672 0.81546
 H1825 H 0.29285 -0.05357 0.76138
 H1826 H 0.28098 -0.03794 0.74971
 H1827 H 0.25617 -0.03301 0.78086
 H1828 H 0.26788 -0.04873 0.79266
 C1829 C 0.80146 0.40427 0.80064
 C1830 C 0.79571 0.39869 0.81098
 C1831 C 0.80012 0.38736 0.81574
 C1832 C 0.81046 0.38127 0.81030
 C1833 C 0.81622 0.38696 0.79994
 C1834 C 0.81178 0.39827 0.79521
 C1835 C 0.79652 0.41606 0.79530
 N1836 N 0.80165 0.42104 0.78486
 N1837 N 0.79686 0.43128 0.77970
 C1838 C 0.78675 0.43704 0.78478
 N1839 N 0.78173 0.43216 0.79532
 N1840 N 0.78651 0.42190 0.80048
 C1841 C 0.78078 0.44779 0.77842
 C1842 C 0.77022 0.45368 0.78361
 C1843 C 0.76367 0.46274 0.77689
 C1844 C 0.76757 0.46608 0.76490
 C1845 C 0.77838 0.46067 0.75990
 C1846 C 0.78498 0.45166 0.76663
 H1847 H 0.78770 0.40303 0.81539
 H1848 H 0.79531 0.38346 0.82368
 H1849 H 0.82416 0.38276 0.79536
 H1850 H 0.81644 0.40228 0.78721
 H1851 H 0.76674 0.45096 0.79267
 H1852 H 0.75523 0.46674 0.78079
 H1853 H 0.78140 0.46308 0.75058
 H1854 H 0.79308 0.44736 0.76235
 C1855 C 0.80123 -0.09627 0.30033
 C1856 C 0.81098 -0.10273 0.29440
 C1857 C 0.81542 -0.11402 0.29920
 C1858 C 0.81027 -0.11918 0.31013
 C1859 C 0.80047 -0.11264 0.31603
 C1860 C 0.79603 -0.10135 0.31120
 C1861 C 0.79633 -0.08447 0.29499
 N1862 N 0.78661 -0.07837 0.30041
 N1863 N 0.78184 -0.06810 0.29526
 C1864 C 0.78660 -0.06348 0.28448
 N1865 N 0.79641 -0.06949 0.27916
 N1866 N 0.80119 -0.07975 0.28431
 C1867 C 0.78061 -0.05272 0.27816
 C1868 C 0.78470 -0.04892 0.26630
 C1869 C 0.77808 -0.03988 0.25963
 C1870 C 0.76739 -0.03437 0.26476
 C1871 C 0.76361 -0.03764 0.27680
 C1872 C 0.77018 -0.04673 0.28347
 H1873 H 0.81519 -0.09912 0.28599
 H1874 H 0.82292 -0.11858 0.29424
 H1875 H 0.79612 -0.11614 0.32440
 H1876 H 0.78848 -0.09664 0.31599
 H1877 H 0.79270 -0.05330 0.26193
 H1878 H 0.78100 -0.03753 0.25027
 H1879 H 0.75525 -0.03356 0.28079
 H1880 H 0.76679 -0.04940 0.29258
 C1881 C 0.30050 0.59565 0.69822
 C1882 C 0.31175 0.60053 0.70290
 C1883 C 0.31646 0.61187 0.69845
 C1884 C 0.31002 0.61860 0.68921
 C1885 C 0.29880 0.61367 0.68452
 C1886 C 0.29412 0.60235 0.68895
 C1887 C 0.29521 0.58386 0.70319
 N1888 N 0.28442 0.57915 0.69848
 N1889 N 0.27928 0.56893 0.70331
 C1890 C 0.28471 0.56293 0.71304
 N1891 N 0.29559 0.56753 0.71766
 N1892 N 0.30074 0.57777 0.71282
 C1893 C 0.27836 0.55220 0.71907
 C1894 C 0.28365 0.54629 0.72952
 C1895 C 0.27690 0.53727 0.73611
 C1896 C 0.26481 0.53400 0.73234
 C1897 C 0.25972 0.53942 0.72162
 C1898 C 0.26646 0.54839 0.71499
 H1899 H 0.31692 0.59561 0.71005
 H1900 H 0.32516 0.61528 0.70225
 H1901 H 0.29349 0.61858 0.67749
 H1902 H 0.28539 0.59893 0.68516
 H1903 H 0.29279 0.54897 0.73290
 H1904 H 0.28088 0.53324 0.74447
 H1905 H 0.25033 0.53706 0.71868
 H1906 H 0.26211 0.55268 0.70696
 C1907 C 0.30167 1.09574 0.19932
 C1908 C 0.31143 1.10218 0.20525
 C1909 C 0.31575 1.11354 0.20054
 C1910 C 0.31046 1.11878 0.18976
 C1911 C 0.30076 1.11227 0.18376
 C1912 C 0.29642 1.10090 0.18848
 C1913 C 0.29676 1.08394 0.20466
 N1914 N 0.28701 1.07789 0.19927
 N1915 N 0.28219 1.06766 0.20447
 C1916 C 0.28692 1.06304 0.21526
 N1917 N 0.29678 1.06900 0.22055
 N1918 N 0.30160 1.07922 0.21536
 C1919 C 0.28088 1.05233 0.22163
 C1920 C 0.28497 1.04851 0.23348
 C1921 C 0.27831 1.03953 0.24019
 C1922 C 0.26757 1.03409 0.23510
 C1923 C 0.26379 1.03738 0.22306
 C1924 C 0.27040 1.04642 0.21636
 H1925 H 0.31569 1.09851 0.21362
 H1926 H 0.32319 1.11822 0.20549
 H1927 H 0.29646 1.11592 0.17541
 H1928 H 0.28889 1.09620 0.18366
 H1929 H 0.29302 1.05282 0.23782
 H1930 H 0.28125 1.03715 0.24954
 H1931 H 0.25540 1.03337 0.21909
 H1932 H 0.26700 1.04910 0.20726
 C1933 C 0.80148 0.59573 0.19940
 C1934 C 0.81119 0.60223 0.20535
 C1935 C 0.81557 0.61353 0.20057
 C1936 C 0.81038 0.61866 0.18968
 C1937 C 0.80071 0.61212 0.18369
 C1938 C 0.79631 0.60080 0.18848
 C1939 C 0.79656 0.58396 0.20478
 N1940 N 0.78685 0.57785 0.19937
 N1941 N 0.78207 0.56762 0.20457
 C1942 C 0.78680 0.56304 0.21538
 N1943 N 0.79661 0.56905 0.22068
 N1944 N 0.80140 0.57927 0.21549
 C1945 C 0.78082 0.55230 0.22175
 C1946 C 0.78494 0.54850 0.23360
 C1947 C 0.77834 0.53950 0.24032
 C1948 C 0.76762 0.53400 0.23525
 C1949 C 0.76380 0.53727 0.22322
 C1950 C 0.77035 0.54633 0.21650
 H1951 H 0.81538 0.59864 0.21379
 H1952 H 0.82297 0.61825 0.20553
 H1953 H 0.79649 0.61569 0.17526
 H1954 H 0.78881 0.59607 0.18365
 H1955 H 0.79297 0.55285 0.23792
 H1956 H 0.78130 0.53715 0.24967
 H1957 H 0.75542 0.53321 0.21927
 H1958 H 0.76693 0.54900 0.20740
 C1959 C 0.80066 1.09583 0.69864
 C1960 C 0.81150 1.10113 0.70380
 C1961 C 0.81620 1.11244 0.69926
 C1962 C 0.81017 1.11873 0.68945
 C1963 C 0.79936 1.11336 0.68428
 C1964 C 0.79469 1.10207 0.68880
 C1965 C 0.79537 1.08407 0.70368
 N1966 N 0.78484 1.07908 0.69869
 N1967 N 0.77970 1.06887 0.70356
 C1968 C 0.78487 1.06319 0.71361
 N1969 N 0.79550 1.06808 0.71851
 N1970 N 0.80065 1.07830 0.71363
 C1971 C 0.77852 1.05248 0.71965
 C1972 C 0.78355 1.04693 0.73042
 C1973 C 0.77678 1.03790 0.73697
 C1974 C 0.76493 1.03424 0.73283
 C1975 C 0.76010 1.03931 0.72182
 C1976 C 0.76686 1.04830 0.71524
 H1977 H 0.81634 1.09659 0.71140
 H1978 H 0.82455 1.11620 0.70349
 H1979 H 0.79439 1.11786 0.67676
 H1980 H 0.78630 1.09830 0.68461
 H1981 H 0.79250 1.04990 0.73407
 H1982 H 0.78054 1.03416 0.74556
 H1983 H 0.75088 1.03666 0.71861
 H1984 H 0.76271 1.05233 0.70697
 C1985 C 0.69957 0.59571 0.30163
 C1986 C 0.70604 0.60252 0.31075
 C1987 C 0.70132 0.61384 0.31516
 C1988 C 0.68998 0.61867 0.31062
 C1989 C 0.68346 0.61183 0.30154
 C1990 C 0.68819 0.60048 0.29710
 C1991 C 0.70490 0.58392 0.29667
 N1992 N 0.69926 0.57770 0.28719
 N1993 N 0.70444 0.56747 0.28235
 C1994 C 0.71546 0.56301 0.28680
 N1995 N 0.72100 0.56914 0.29638
 N1996 N 0.71582 0.57936 0.30121
 C1997 C 0.72183 0.55229 0.28075
 C1998 C 0.73384 0.54862 0.28466
 C1999 C 0.74055 0.53964 0.27801
 C2000 C 0.73532 0.53405 0.26746
 C2001 C 0.72314 0.53719 0.26385
 C2002 C 0.71642 0.54624 0.27046
 H2003 H 0.71485 0.59919 0.31442
 H2004 H 0.70671 0.61884 0.32206
 H2005 H 0.67465 0.61517 0.29787
 H2006 H 0.68295 0.59548 0.29008
 H2007 H 0.73829 0.55303 0.29256
 H2008 H 0.75001 0.53738 0.28081
 H2009 H 0.71906 0.53305 0.25561
 H2010 H 0.70719 0.54881 0.26721
 C2011 C 0.69816 1.09596 0.80055
 C2012 C 0.68809 1.10220 0.79493
 C2013 C 0.68369 1.11351 0.79971
 C2014 C 0.68924 1.11896 0.81030
 C2015 C 0.69930 1.11260 0.81596
 C2016 C 0.70367 1.10127 0.81116
 C2017 C 0.70309 1.08420 0.79514
 N2018 N 0.71285 1.07810 0.80050
 N2019 N 0.71766 1.06788 0.79527
 C2020 C 0.71290 1.06331 0.78448
 N2021 N 0.70304 1.06931 0.77922
 N2022 N 0.69823 1.07952 0.78445
 C2023 C 0.71891 1.05260 0.77808
 C2024 C 0.71511 1.04915 0.76603
 C2025 C 0.72178 1.04016 0.75933
 C2026 C 0.73224 1.03435 0.76462
 C2027 C 0.73571 1.03727 0.77684
 C2028 C 0.72910 1.04632 0.78353
 H2029 H 0.68360 1.09839 0.78674
 H2030 H 0.67596 1.11791 0.79495
 H2031 H 0.70392 1.11630 0.82410
 H2032 H 0.71147 1.09673 0.81573
 H2033 H 0.70731 1.05375 0.76154
 H2034 H 0.71908 1.03808 0.74985
 H2035 H 0.74388 1.03295 0.78097
 H2036 H 0.73225 1.04871 0.79280
 C2037 C 0.19813 0.59567 0.80028
 C2038 C 0.18918 0.60279 0.79384
 C2039 C 0.18485 0.61408 0.79869
 C2040 C 0.18930 0.61858 0.81015
 C2041 C 0.19821 0.61142 0.81664
 C2042 C 0.20257 0.60011 0.81177
 C2043 C 0.20303 0.58392 0.79481
 N2044 N 0.21224 0.57732 0.80054
 N2045 N 0.21703 0.56712 0.79526
 C2046 C 0.21279 0.56306 0.78404
 N2047 N 0.20348 0.56957 0.77842
 N2048 N 0.19869 0.57976 0.78369
 C2049 C 0.21881 0.55236 0.77762
 C2050 C 0.21524 0.54917 0.76542
 C2051 C 0.22191 0.54017 0.75874
 C2052 C 0.23213 0.53408 0.76417
 C2053 C 0.23536 0.53675 0.77651
 C2054 C 0.22875 0.54581 0.78320
 H2055 H 0.18558 0.59970 0.78495
 H2056 H 0.17806 0.61929 0.79334
 H2057 H 0.20185 0.61449 0.82550
 H2058 H 0.20947 0.59487 0.81698
 H2059 H 0.20762 0.55397 0.76083
 H2060 H 0.21939 0.53829 0.74916
 H2061 H 0.24336 0.53223 0.78076
 H2062 H 0.23173 0.54801 0.79258
 C2063 C 0.19981 1.09580 0.30166
 C2064 C 0.18849 1.10062 0.29708
 C2065 C 0.18373 1.11193 0.30158
 C2066 C 0.19020 1.11869 0.31076
 C2067 C 0.20151 1.11383 0.31534
 C2068 C 0.20625 1.10254 0.31086
 C2069 C 0.20508 1.08401 0.29667
 N2070 N 0.21590 1.07927 0.30130
 N2071 N 0.22100 1.06903 0.29644
 C2072 C 0.21548 1.06304 0.28676
 N2073 N 0.20457 1.06768 0.28222
 N2074 N 0.19947 1.07793 0.28709
 C2075 C 0.22177 1.05232 0.28066
 C2076 C 0.21639 1.04646 0.27024
 C2077 C 0.22307 1.03744 0.26357
 C2078 C 0.23520 1.03413 0.26723
 C2079 C 0.24038 1.03950 0.27792
 C2080 C 0.23370 1.04846 0.28463
 H2081 H 0.18328 1.09569 0.28999
 H2082 H 0.17497 1.11529 0.29786
 H2083 H 0.20685 1.11877 0.32231
 H2084 H 0.21504 1.09916 0.31456
 H2085 H 0.20722 1.04917 0.26694
 H2086 H 0.21903 1.03346 0.25523
 H2087 H 0.24979 1.03710 0.28078
 H2088 H 0.23812 1.05271 0.29264
 C2089 C 0.69978 0.40432 0.69855
 C2090 C 0.68841 0.39958 0.70307
 C2091 C 0.68365 0.38827 0.69858
 C2092 C 0.69016 0.38145 0.68946
 C2093 C 0.70151 0.38623 0.68494
 C2094 C 0.70625 0.39752 0.68941
 C2095 C 0.70510 0.41609 0.70352
 N2096 N 0.71603 0.42065 0.69898
 N2097 N 0.72117 0.43087 0.70380
 C2098 C 0.71561 0.43701 0.71336
 N2099 N 0.70459 0.43255 0.71782
 N2100 N 0.69944 0.42232 0.71299
 C2101 C 0.72193 0.44775 0.71939
 C2102 C 0.71651 0.45379 0.72969
 C2103 C 0.72319 0.46286 0.73628
 C2104 C 0.73536 0.46602 0.73266
 C2105 C 0.74060 0.46045 0.72209
 C2106 C 0.73392 0.45145 0.71546
 H2107 H 0.68318 0.40457 0.71012
 H2108 H 0.67485 0.38497 0.70225
 H2109 H 0.70688 0.38126 0.67801
 H2110 H 0.71507 0.40083 0.68574
 H2111 H 0.70729 0.45120 0.73296
 H2112 H 0.71910 0.46699 0.74453
 H2113 H 0.75005 0.46272 0.71928
 H2114 H 0.73838 0.44703 0.70756
 C2115 C 0.69931 -0.09585 0.19851
 C2116 C 0.68844 -0.10114 0.20361
 C2117 C 0.68379 -0.11247 0.19910
 C2118 C 0.68990 -0.11879 0.18937
 C2119 C 0.70073 -0.11344 0.18424
 C2120 C 0.70536 -0.10212 0.18873
 C2121 C 0.70456 -0.08408 0.20355
 N2122 N 0.71511 -0.07907 0.19861
 N2123 N 0.72022 -0.06886 0.20349
 C2124 C 0.71500 -0.06318 0.21353
 N2125 N 0.70436 -0.06809 0.21838
 N2126 N 0.69924 -0.07831 0.21349
 C2127 C 0.72133 -0.05247 0.21959
 C2128 C 0.71625 -0.04693 0.23033
 C2129 C 0.72300 -0.03791 0.23691
 C2130 C 0.73488 -0.03426 0.23282
 C2131 C 0.73975 -0.03932 0.22183
 C2132 C 0.73301 -0.04830 0.21522
 H2133 H 0.68353 -0.09656 0.21115
 H2134 H 0.67540 -0.11622 0.20327
 H2135 H 0.70578 -0.11798 0.17680
 H2136 H 0.71378 -0.09836 0.18459
 H2137 H 0.70728 -0.04989 0.23394
 H2138 H 0.71921 -0.03417 0.24548
 H2139 H 0.74898 -0.03668 0.21866
 H2140 H 0.73719 -0.05232 0.20697
 C2141 C 0.19876 0.40447 0.19896
 C2142 C 0.20394 0.39919 0.18816
 C2143 C 0.19947 0.38785 0.18351
 C2144 C 0.18970 0.38149 0.18955
 C2145 C 0.18447 0.38683 0.20032
 C2146 C 0.18894 0.39817 0.20496
 C2147 C 0.20382 0.41624 0.20419
 N2148 N 0.19914 0.42107 0.21489
 N2149 N 0.20410 0.43128 0.21995
 C2150 C 0.21395 0.43712 0.21451
 N2151 N 0.21853 0.43238 0.20370
 N2152 N 0.21357 0.42217 0.19865
 C2153 C 0.22016 0.44780 0.22073
 C2154 C 0.23074 0.45348 0.21539
 C2155 C 0.23751 0.46247 0.22198
 C2156 C 0.23377 0.46596 0.23397
 C2157 C 0.22293 0.46077 0.23912
 C2158 C 0.21614 0.45182 0.23254
 H2159 H 0.21152 0.40377 0.18330
 H2160 H 0.20372 0.38413 0.17518
 H2161 H 0.17698 0.38225 0.20529
 H2162 H 0.18474 0.40193 0.21332
 H2163 H 0.23409 0.45064 0.20631
 H2164 H 0.24596 0.46631 0.21797
 H2165 H 0.22003 0.46330 0.24844
 H2166 H 0.20803 0.44768 0.23693
 C2167 C 0.19947 -0.09566 0.69828
 C2168 C 0.18861 -0.10093 0.70343
 C2169 C 0.18402 -0.11234 0.69907
 C2170 C 0.19018 -0.11877 0.68944
 C2171 C 0.20099 -0.11343 0.68424
 C2172 C 0.20556 -0.10202 0.68858
 C2173 C 0.20470 -0.08386 0.70326
 N2174 N 0.21526 -0.07888 0.69832
 N2175 N 0.22040 -0.06869 0.70322
 C2176 C 0.21518 -0.06301 0.71326
 N2177 N 0.20452 -0.06788 0.71808
 N2178 N 0.19938 -0.07808 0.71318
 C2179 C 0.22155 -0.05235 0.71937
 C2180 C 0.21644 -0.04680 0.73010
 C2181 C 0.22320 -0.03783 0.73672
 C2182 C 0.23512 -0.03424 0.73270
 C2183 C 0.24003 -0.03933 0.72174
 C2184 C 0.23328 -0.04825 0.71508
 H2185 H 0.18367 -0.09628 0.71090
 H2186 H 0.17564 -0.11606 0.70329
 H2187 H 0.20605 -0.11803 0.67684
 H2188 H 0.21396 -0.09827 0.68440
 H2189 H 0.20744 -0.04972 0.73366
 H2190 H 0.21938 -0.03407 0.74528
 H2191 H 0.24930 -0.03673 0.71862
 H2192 H 0.23749 -0.05229 0.70685
 C2193 C 0.30044 0.30137 0.40446
 C2194 C 0.31138 0.29625 0.39930
 C2195 C 0.31602 0.30061 0.38794
 C2196 C 0.30985 0.31021 0.38144
 C2197 C 0.29894 0.31536 0.38666
 C2198 C 0.29432 0.31102 0.39801
 C2199 C 0.29518 0.29644 0.41625
 N2200 N 0.28449 0.30131 0.42106
 N2201 N 0.27936 0.29648 0.43127
 C2202 C 0.28470 0.28660 0.43715
 N2203 N 0.29549 0.28184 0.43244
 N2204 N 0.30063 0.28666 0.42222
 C2205 C 0.27837 0.28055 0.44785
 C2206 C 0.28357 0.26993 0.45358
 C2207 C 0.27685 0.26333 0.46259
 C2208 C 0.26484 0.26727 0.46604
 C2209 C 0.25983 0.27814 0.46078
 C2210 C 0.26656 0.28478 0.45182
 H2211 H 0.31634 0.28880 0.40401
 H2212 H 0.32447 0.29642 0.38431
 H2213 H 0.29385 0.32271 0.38199
 H2214 H 0.28585 0.31517 0.40167
 H2215 H 0.29264 0.26642 0.45077
 H2216 H 0.28075 0.25484 0.46647
 H2217 H 0.25050 0.28119 0.46327
 H2218 H 0.26227 0.29292 0.44765
 C2219 C 0.30103 0.80126 -0.09576
 C2220 C 0.29509 0.81132 -0.10175
 C2221 C 0.29955 0.81581 -0.11313
 C2222 C 0.31008 0.81038 -0.11881
 C2223 C 0.31606 0.80038 -0.11275
 C2224 C 0.31160 0.79588 -0.10138
 C2225 C 0.29598 0.79614 -0.08395
 N2226 N 0.30140 0.78610 -0.07840
 N2227 N 0.29648 0.78109 -0.06818
 C2228 C 0.28593 0.78591 -0.06303
 N2229 N 0.28061 0.79606 -0.06847
 N2230 N 0.28553 0.80108 -0.07870
 C2231 C 0.27979 0.77964 -0.05233
 C2232 C 0.26831 0.78409 -0.04770
 C2233 C 0.26172 0.77729 -0.03876
 C2234 C 0.26653 0.76601 -0.03421
 C2235 C 0.27823 0.76182 -0.03831
 C2236 C 0.28484 0.76860 -0.04727
 H2237 H 0.28691 0.81568 -0.09771
 H2238 H 0.29465 0.82350 -0.11744
 H2239 H 0.32421 0.79593 -0.11673
 H2240 H 0.31641 0.78812 -0.09704
 H2241 H 0.26416 0.79256 -0.05134
 H2242 H 0.25262 0.78055 -0.03575
 H2243 H 0.28198 0.75304 -0.03496
 H2244 H 0.29367 0.76492 -0.05058
 C2245 C 0.80117 0.30068 -0.09560
 C2246 C 0.79644 0.31196 -0.10037
 C2247 C 0.80076 0.31667 -0.11173
 C2248 C 0.80992 0.31021 -0.11858
 C2249 C 0.81466 0.29895 -0.11375
 C2250 C 0.81036 0.29427 -0.10241
 C2251 C 0.79632 0.29539 -0.08380
 N2252 N 0.80093 0.28448 -0.07928
 N2253 N 0.79617 0.27932 -0.06906
 C2254 C 0.78658 0.28487 -0.06288
 N2255 N 0.78207 0.29589 -0.06729
 N2256 N 0.78685 0.30104 -0.07752
 C2257 C 0.78055 0.27851 -0.05219
 C2258 C 0.77022 0.28393 -0.04612
 C2259 C 0.76357 0.27720 -0.03715
 C2260 C 0.76716 0.26500 -0.03409
 C2261 C 0.77776 0.25976 -0.03968
 C2262 C 0.78446 0.26648 -0.04859
 H2263 H 0.78935 0.31715 -0.09538
 H2264 H 0.79693 0.32539 -0.11506
 H2265 H 0.82164 0.29362 -0.11872
 H2266 H 0.81419 0.28553 -0.09906
 H2267 H 0.76698 0.29317 -0.04863
 H2268 H 0.75530 0.28129 -0.03299
 H2269 H 0.78056 0.25029 -0.03748
 H2270 H 0.79238 0.26203 -0.05303
 C2271 C 0.80093 0.80036 0.40417
 C2272 C 0.80995 0.79388 0.39720
 C2273 C 0.81438 0.79871 0.38598
 C2274 C 0.80994 0.81020 0.38142
 C2275 C 0.80089 0.81669 0.38838
 C2276 C 0.79643 0.81182 0.39962
 C2277 C 0.79609 0.79501 0.41595
 N2278 N 0.78676 0.80074 0.42237
 N2279 N 0.78209 0.79559 0.43265
 C2280 C 0.78657 0.78453 0.43698
 N2281 N 0.79600 0.77891 0.43064
 N2282 N 0.80066 0.78404 0.42037
 C2283 C 0.78068 0.77822 0.44777
 C2284 C 0.78460 0.76619 0.45134
 C2285 C 0.77802 0.75951 0.46036
 C2286 C 0.76753 0.76480 0.46610
 C2287 C 0.76394 0.77702 0.46309
 C2288 C 0.77048 0.78370 0.45400
 H2289 H 0.81358 0.78498 0.40037
 H2290 H 0.82128 0.79335 0.38094
 H2291 H 0.79722 0.82555 0.38523
 H2292 H 0.78945 0.81705 0.40472
 H2293 H 0.79243 0.76170 0.44679
 H2294 H 0.78080 0.75003 0.46252
 H2295 H 0.75574 0.78114 0.46734
 H2296 H 0.76723 0.79295 0.45151
 C2297 C 0.69850 0.30029 0.59553
 C2298 C 0.70316 0.31161 0.60024
 C2299 C 0.69882 0.31635 0.61157
 C2300 C 0.68971 0.30989 0.61847
 C2301 C 0.68504 0.29859 0.61371
 C2302 C 0.68936 0.29387 0.60239
 C2303 C 0.70336 0.29497 0.58374
 N2304 N 0.69878 0.28404 0.57926
 N2305 N 0.70353 0.27889 0.56903
 C2306 C 0.71306 0.28445 0.56279
 N2307 N 0.71754 0.29548 0.56717
 N2308 N 0.71278 0.30064 0.57741
 C2309 C 0.71906 0.27811 0.55207
 C2310 C 0.72929 0.28357 0.54589
 C2311 C 0.73590 0.27687 0.53687
 C2312 C 0.73238 0.26464 0.53386
 C2313 C 0.72187 0.25936 0.53956
 C2314 C 0.71521 0.26605 0.54852
 H2315 H 0.71021 0.31681 0.59520
 H2316 H 0.70259 0.32512 0.61485
 H2317 H 0.67811 0.29326 0.61873
 H2318 H 0.68559 0.28510 0.59910
 H2319 H 0.73248 0.29283 0.54836
 H2320 H 0.74411 0.28099 0.53264
 H2321 H 0.71913 0.24987 0.53741
 H2322 H 0.70736 0.26157 0.55303
 C2323 C 0.69963 0.80160 1.09534
 C2324 C 0.68826 0.79701 1.10002
 C2325 C 0.68355 0.80128 1.11140
 C2326 C 0.69010 0.81026 1.11837
 C2327 C 0.70145 0.81486 1.11364
 C2328 C 0.70613 0.81062 1.10228
 C2329 C 0.70494 0.79678 1.08353
 N2330 N 0.71593 0.80131 1.07910
 N2331 N 0.72111 0.79656 1.06888
 C2332 C 0.71552 0.78709 1.06261
 N2333 N 0.70443 0.78267 1.06692
 N2334 N 0.69925 0.78743 1.07716
 C2335 C 0.72190 0.78108 1.05190
 C2336 C 0.71643 0.77088 1.04570
 C2337 C 0.72314 0.76427 1.03668
 C2338 C 0.73540 0.76776 1.03371
 C2339 C 0.74070 0.77823 1.03945
 C2340 C 0.73399 0.78489 1.04840
 H2341 H 0.68299 0.79006 1.09492
 H2342 H 0.67474 0.79756 1.11466
 H2343 H 0.70685 0.82169 1.11872
 H2344 H 0.71494 0.81434 1.09901
 H2345 H 0.70714 0.76770 1.04814
 H2346 H 0.71901 0.75608 1.03243
 H2347 H 0.75022 0.78094 1.03733
 H2348 H 0.73849 0.79271 1.05294
 C2349 C 0.19861 0.30036 1.09543
 C2350 C 0.18945 0.29393 1.10226
 C2351 C 0.18516 0.29860 1.11361
 C2352 C 0.18987 0.30985 1.11845
 C2353 C 0.19899 0.31633 1.11158
 C2354 C 0.20330 0.31164 1.10021
 C2355 C 0.20347 0.29510 1.08362
 N2356 N 0.21286 0.30083 1.07730
 N2357 N 0.21765 0.29571 1.06706
 C2358 C 0.21324 0.28466 1.06267
 N2359 N 0.20374 0.27904 1.06889
 N2360 N 0.19895 0.28415 1.07912
 C2361 C 0.21930 0.27837 1.05195
 C2362 C 0.21549 0.26633 1.04833
 C2363 C 0.22223 0.25969 1.03937
 C2364 C 0.23277 0.26501 1.03377
 C2365 C 0.23625 0.27723 1.03685
 C2366 C 0.22956 0.28388 1.04586
 H2367 H 0.18564 0.28520 1.09891
 H2368 H 0.17821 0.29326 1.11861
 H2369 H 0.20280 0.32505 1.11491
 H2370 H 0.21036 0.31685 1.09520
 H2371 H 0.20762 0.26181 1.05277
 H2372 H 0.21952 0.25020 1.03715
 H2373 H 0.24447 0.28139 1.03269
 H2374 H 0.23272 0.29314 1.04838
 C2375 C 0.19893 0.80087 0.59536
 C2376 C 0.18937 0.79459 0.60178
 C2377 C 0.18489 0.79916 0.61311
 C2378 C 0.18982 0.81015 0.61831
 C2379 C 0.19932 0.81648 0.61182
 C2380 C 0.20382 0.81189 0.60050
 C2381 C 0.20401 0.79572 0.58358
 N2382 N 0.21364 0.80143 0.57763
 N2383 N 0.21862 0.79645 0.56741
 C2384 C 0.21416 0.78556 0.56268
 N2385 N 0.20442 0.77995 0.56855
 N2386 N 0.19944 0.78493 0.57876
 C2387 C 0.22040 0.77942 0.55198
 C2388 C 0.21640 0.76760 0.54787
 C2389 C 0.22324 0.76107 0.53891
 C2390 C 0.23409 0.76627 0.53382
 C2391 C 0.23781 0.77828 0.53741
 C2392 C 0.23100 0.78483 0.54639
 H2393 H 0.18540 0.78605 0.59813
 H2394 H 0.17762 0.79397 0.61779
 H2395 H 0.20334 0.82500 0.61543
 H2396 H 0.21119 0.81697 0.59581
 H2397 H 0.20828 0.76316 0.55193
 H2398 H 0.22035 0.75173 0.53631
 H2399 H 0.24627 0.78234 0.53364
 H2400 H 0.23432 0.79392 0.54930
 C2401 C 0.30132 0.69935 0.59546
 C2402 C 0.29574 0.68892 0.60112
 C2403 C 0.30019 0.68438 0.61249
 C2404 C 0.31034 0.69015 0.61850
 C2405 C 0.31596 0.70054 0.61277
 C2406 C 0.31151 0.70507 0.60140
 C2407 C 0.29629 0.70446 0.58365
 N2408 N 0.30147 0.71473 0.57832
 N2409 N 0.29656 0.71972 0.56808
 C2410 C 0.28626 0.71465 0.56269
 N2411 N 0.28118 0.70428 0.56792
 N2412 N 0.28610 0.69928 0.57816
 C2413 C 0.28013 0.72086 0.55196
 C2414 C 0.26893 0.71610 0.54700
 C2415 C 0.26230 0.72282 0.53801
 C2416 C 0.26679 0.73433 0.53376
 C2417 C 0.27822 0.73885 0.53821
 C2418 C 0.28488 0.73215 0.54719
 H2419 H 0.28786 0.68427 0.59683
 H2420 H 0.29558 0.67636 0.61652
 H2421 H 0.32378 0.70527 0.61703
 H2422 H 0.31603 0.71314 0.59733
 H2423 H 0.26501 0.70744 0.55042
 H2424 H 0.25339 0.71930 0.53475
 H2425 H 0.28172 0.74781 0.53509
 H2426 H 0.29348 0.73608 0.55076
 C2427 C 0.30116 0.19912 1.09525
 C2428 C 0.29575 0.18859 1.10088
 C2429 C 0.30021 0.18412 1.11226
 C2430 C 0.31022 0.19007 1.11833
 C2431 C 0.31568 0.20056 1.11264
 C2432 C 0.31122 0.20503 1.10125
 C2433 C 0.29607 0.20416 1.08342
 N2434 N 0.30097 0.21461 1.07818
 N2435 N 0.29595 0.21951 1.06794
 C2436 C 0.28584 0.21416 1.06248
 N2437 N 0.28105 0.20361 1.06762
 N2438 N 0.28607 0.19871 1.07786
 C2439 C 0.27955 0.22026 1.05177
 C2440 C 0.26845 0.21524 1.04682
 C2441 C 0.26163 0.22183 1.03787
 C2442 C 0.26584 0.23345 1.03365
 C2443 C 0.27718 0.23823 1.03807
 C2444 C 0.28401 0.23167 1.04703
 H2445 H 0.28797 0.18381 1.09655
 H2446 H 0.29574 0.17602 1.11626
 H2447 H 0.32339 0.20544 1.11695
 H2448 H 0.31560 0.21318 1.09720
 H2449 H 0.26476 0.20647 1.05022
 H2450 H 0.25281 0.21811 1.03462
 H2451 H 0.28045 0.24728 1.03498
 H2452 H 0.29252 0.23580 1.05059
 C2453 C 0.80168 0.69980 1.09530
 C2454 C 0.79702 0.68849 1.10005
 C2455 C 0.80129 0.68382 1.11144
 C2456 C 0.81033 0.69035 1.11836
 C2457 C 0.81501 0.70163 1.11356
 C2458 C 0.81076 0.70628 1.10218
 C2459 C 0.79686 0.70506 1.08346
 N2460 N 0.80148 0.71594 1.07891
 N2461 N 0.79673 0.72107 1.06866
 C2462 C 0.78715 0.71552 1.06249
 N2463 N 0.78264 0.70453 1.06693
 N2464 N 0.78741 0.69940 1.07719
 C2465 C 0.78111 0.72187 1.05179
 C2466 C 0.77078 0.71646 1.04574
 C2467 C 0.76411 0.72319 1.03677
 C2468 C 0.76769 0.73538 1.03368
 C2469 C 0.77829 0.74060 1.03925
 C2470 C 0.78501 0.73388 1.04816
 H2471 H 0.79002 0.68325 1.09500
 H2472 H 0.79752 0.67507 1.11475
 H2473 H 0.82190 0.70701 1.11860
 H2474 H 0.81453 0.71504 1.09885
 H2475 H 0.76754 0.70723 1.04828
 H2476 H 0.75583 0.71911 1.03264
 H2477 H 0.78108 0.75007 1.03703
 H2478 H 0.79293 0.73833 1.05257
 C2479 C 0.80043 0.19831 0.59527
 C2480 C 0.79388 0.18934 0.60224
 C2481 C 0.79854 0.18512 0.61362
 C2482 C 0.80989 0.18970 0.61833
 C2483 C 0.81650 0.19862 0.61133
 C2484 C 0.81182 0.20288 0.59994
 C2485 C 0.79515 0.20312 0.58345
 N2486 N 0.80088 0.21246 0.57707
 N2487 N 0.79571 0.21723 0.56683
 C2488 C 0.78463 0.21282 0.56251
 N2489 N 0.77902 0.20335 0.56879
 N2490 N 0.78417 0.19860 0.57901
 C2491 C 0.77825 0.21886 0.55184
 C2492 C 0.76614 0.21511 0.54838
 C2493 C 0.75941 0.22183 0.53949
 C2494 C 0.76472 0.23231 0.53377
 C2495 C 0.77701 0.23574 0.53668
 C2496 C 0.78374 0.22906 0.54564
 H2497 H 0.78506 0.18565 0.59898
 H2498 H 0.79310 0.17833 0.61872
 H2499 H 0.82532 0.20231 0.61457
 H2500 H 0.81712 0.20978 0.59481
 H2501 H 0.76162 0.20729 0.55291
 H2502 H 0.74987 0.21917 0.53740
 H2503 H 0.78116 0.24392 0.53243
 H2504 H 0.79305 0.23219 0.54804
 C2505 C 0.69979 0.69851 0.40447
 C2506 C 0.68848 0.70318 0.39970
 C2507 C 0.68376 0.69880 0.38837
 C2508 C 0.69025 0.68965 0.38154
 C2509 C 0.70153 0.68496 0.38637
 C2510 C 0.70623 0.68932 0.39768
 C2511 C 0.70508 0.70341 0.41625
 N2512 N 0.71601 0.69883 0.42078
 N2513 N 0.72113 0.70362 0.43100
 C2514 C 0.71555 0.71318 0.43716
 N2515 N 0.70453 0.71767 0.43273
 N2516 N 0.69940 0.71287 0.42250
 C2517 C 0.72186 0.71920 0.44788
 C2518 C 0.71639 0.72949 0.45397
 C2519 C 0.72307 0.73610 0.46301
 C2520 C 0.73527 0.73251 0.46612
 C2521 C 0.74055 0.72195 0.46050
 C2522 C 0.73388 0.71530 0.45153
 H2523 H 0.68327 0.71026 0.40468
 H2524 H 0.67501 0.70258 0.38505
 H2525 H 0.70688 0.67799 0.38140
 H2526 H 0.71499 0.68554 0.40102
 H2527 H 0.70716 0.73273 0.45142
 H2528 H 0.71895 0.74435 0.46716
 H2529 H 0.75003 0.71917 0.46273
 H2530 H 0.73838 0.70741 0.44709
 C2531 C 0.69912 0.19868 -0.09551
 C2532 C 0.70465 0.18826 -0.10125
 C2533 C 0.70012 0.18378 -0.11260
 C2534 C 0.68993 0.18959 -0.11851
 C2535 C 0.68435 0.19997 -0.11271
 C2536 C 0.68888 0.20444 -0.10135
 C2537 C 0.70427 0.20373 -0.08373
 N2538 N 0.69928 0.21411 -0.07841
 N2539 N 0.70433 0.21904 -0.06821
 C2540 C 0.71457 0.21379 -0.06285
 N2541 N 0.71945 0.20331 -0.06807
 N2542 N 0.71440 0.19839 -0.07828
 C2543 C 0.72085 0.21991 -0.05217
 C2544 C 0.73204 0.21499 -0.04730
 C2545 C 0.73881 0.22159 -0.03834
 C2546 C 0.73445 0.23314 -0.03402
 C2547 C 0.72303 0.23781 -0.03837
 C2548 C 0.71626 0.23124 -0.04734
 H2549 H 0.71256 0.18358 -0.09704
 H2550 H 0.70470 0.17578 -0.11669
 H2551 H 0.67649 0.20473 -0.11689
 H2552 H 0.68439 0.21250 -0.09721
 H2553 H 0.73584 0.20628 -0.05076
 H2554 H 0.74770 0.21796 -0.03515
 H2555 H 0.71965 0.24680 -0.03521
 H2556 H 0.70768 0.23529 -0.05084
 C2557 C 0.19806 0.69928 -0.09528
 C2558 C 0.18897 0.70584 -0.10211
 C2559 C 0.18467 0.70127 -0.11350
 C2560 C 0.18932 0.69000 -0.11838
 C2561 C 0.19829 0.68336 -0.11145
 C2562 C 0.20260 0.68793 -0.10005
 C2563 C 0.20311 0.70450 -0.08353
 N2564 N 0.21240 0.69856 -0.07724
 N2565 N 0.21745 0.70365 -0.06711
 C2566 C 0.21342 0.71488 -0.06281
 N2567 N 0.20400 0.72071 -0.06899
 N2568 N 0.19895 0.71563 -0.07911
 C2569 C 0.21978 0.72111 -0.05224
 C2570 C 0.21635 0.73330 -0.04872
 C2571 C 0.22331 0.73981 -0.03986
 C2572 C 0.23373 0.73423 -0.03426
 C2573 C 0.23688 0.72189 -0.03728
 C2574 C 0.22994 0.71536 -0.04618
 H2575 H 0.18525 0.71461 -0.09873
 H2576 H 0.17775 0.70668 -0.11848
 H2577 H 0.20210 0.67463 -0.11480
 H2578 H 0.20959 0.68262 -0.09505
 H2579 H 0.20858 0.73802 -0.05315
 H2580 H 0.22087 0.74939 -0.03770
 H2581 H 0.24500 0.71753 -0.03312
 H2582 H 0.23283 0.70599 -0.04864
 C2583 C 0.19822 0.19965 0.40445
 C2584 C 0.18891 0.20602 0.39775
 C2585 C 0.18461 0.20142 0.38638
 C2586 C 0.18947 0.19029 0.38141
 C2587 C 0.19870 0.18383 0.38817
 C2588 C 0.20302 0.18846 0.39956
 C2589 C 0.20314 0.20490 0.41624
 N2590 N 0.21273 0.19928 0.42238
 N2591 N 0.21757 0.20441 0.43259
 C2592 C 0.21302 0.21536 0.43712
 N2593 N 0.20333 0.22087 0.43108
 N2594 N 0.19849 0.21575 0.42087
 C2595 C 0.21909 0.22167 0.44782
 C2596 C 0.21510 0.23363 0.45156
 C2597 C 0.22178 0.24030 0.46053
 C2598 C 0.23244 0.23509 0.46602
 C2599 C 0.23613 0.22296 0.46280
 C2600 C 0.22949 0.21628 0.45377
 H2601 H 0.18501 0.21468 0.40121
 H2602 H 0.17755 0.20671 0.38148
 H2603 H 0.20261 0.17518 0.38475
 H2604 H 0.21018 0.18328 0.40447
 H2605 H 0.20712 0.23806 0.44722
 H2606 H 0.21892 0.24972 0.46284
 H2607 H 0.24446 0.21889 0.46686
 H2608 H 0.23281 0.20709 0.45114
 C2609 C 0.30172 0.40413 0.69969
 C2610 C 0.29724 0.39972 0.68821
 C2611 C 0.30149 0.38835 0.68336
 C2612 C 0.31032 0.38114 0.68987
 C2613 C 0.31479 0.38559 0.70134
 C2614 C 0.31057 0.39693 0.70617
 C2615 C 0.29695 0.41595 0.70512
 N2616 N 0.30131 0.42010 0.71624
 N2617 N 0.29659 0.43034 0.72148
 C2618 C 0.28732 0.43689 0.71583
 N2619 N 0.28307 0.43285 0.70463
 N2620 N 0.28779 0.42260 0.69937
 C2621 C 0.28134 0.44763 0.72222
 C2622 C 0.27142 0.45418 0.71660
 C2623 C 0.26479 0.46325 0.72325
 C2624 C 0.26798 0.46593 0.73561
 C2625 C 0.27819 0.45984 0.74108
 C2626 C 0.28487 0.45083 0.73443
 H2627 H 0.29042 0.40503 0.68296
 H2628 H 0.29788 0.38530 0.67447
 H2629 H 0.32148 0.38029 0.70672
 H2630 H 0.31419 0.39999 0.71506
 H2631 H 0.26847 0.45197 0.70722
 H2632 H 0.25682 0.46777 0.71897
 H2633 H 0.28067 0.46173 0.75066
 H2634 H 0.29247 0.44603 0.73905
 C2635 C 0.30061 0.90450 0.19809
 C2636 C 0.29415 0.89772 0.18894
 C2637 C 0.29883 0.88638 0.18455
 C2638 C 0.31012 0.88150 0.18916
 C2639 C 0.31664 0.88832 0.19827
 C2640 C 0.31193 0.89968 0.20268
 C2641 C 0.29530 0.91631 0.20305
 N2642 N 0.30091 0.92248 0.21257
 N2643 N 0.29573 0.93271 0.21741
 C2644 C 0.28474 0.93721 0.21293
 N2645 N 0.27924 0.93113 0.20330
 N2646 N 0.28441 0.92092 0.19846
 C2647 C 0.27835 0.94790 0.21901
 C2648 C 0.26635 0.95159 0.21508
 C2649 C 0.25960 0.96050 0.22177
 C2650 C 0.26477 0.96602 0.23239
 C2651 C 0.27695 0.96287 0.23602
 C2652 C 0.28371 0.95389 0.22937
 H2653 H 0.28538 0.90110 0.18522
 H2654 H 0.29347 0.88143 0.17761
 H2655 H 0.32540 0.88494 0.20199
 H2656 H 0.31716 0.90466 0.20973
 H2657 H 0.26195 0.94723 0.20713
 H2658 H 0.25015 0.96278 0.21894
 H2659 H 0.28099 0.96697 0.24430
 H2660 H 0.29294 0.95132 0.23263
 C2661 C 0.80055 0.40439 0.19807
 C2662 C 0.79416 0.39772 0.18879
 C2663 C 0.79887 0.38641 0.18433
 C2664 C 0.81011 0.38147 0.18898
 C2665 C 0.81656 0.38819 0.19821
 C2666 C 0.81183 0.39952 0.20270
 C2667 C 0.79522 0.41615 0.20310
 N2668 N 0.80080 0.42225 0.21269
 N2669 N 0.79562 0.43245 0.21758
 C2670 C 0.78466 0.43701 0.21307
 N2671 N 0.77918 0.43100 0.20338
 N2672 N 0.78436 0.42081 0.19849
 C2673 C 0.77830 0.44771 0.21915
 C2674 C 0.76633 0.45147 0.21519
 C2675 C 0.75962 0.46044 0.22186
 C2676 C 0.76480 0.46593 0.23249
 C2677 C 0.77695 0.46270 0.23615
 C2678 C 0.78367 0.45367 0.22953
 H2679 H 0.78542 0.40115 0.18503
 H2680 H 0.79355 0.38152 0.17730
 H2681 H 0.82529 0.38477 0.20197
 H2682 H 0.81701 0.40442 0.20983
 H2683 H 0.76192 0.44714 0.20723
 H2684 H 0.75019 0.46277 0.21900
 H2685 H 0.78100 0.46677 0.24444
 H2686 H 0.79286 0.45103 0.23282
 C2687 C 0.80183 0.90454 0.69982
 C2688 C 0.79719 0.89993 0.68849
 C2689 C 0.80163 0.88866 0.68361
 C2690 C 0.81081 0.88172 0.68994
 C2691 C 0.81547 0.88638 0.70125
 C2692 C 0.81104 0.89764 0.70612
 C2693 C 0.79686 0.91628 0.70526
 N2694 N 0.80127 0.92060 0.71629
 N2695 N 0.79644 0.93079 0.72150
 C2696 C 0.78700 0.93715 0.71590
 N2697 N 0.78268 0.93292 0.70479
 N2698 N 0.78752 0.92271 0.69957
 C2699 C 0.78094 0.94786 0.72225
 C2700 C 0.77087 0.95422 0.71667
 C2701 C 0.76421 0.96329 0.72329
 C2702 C 0.76752 0.96615 0.73557
 C2703 C 0.77786 0.96026 0.74099
 C2704 C 0.78457 0.95125 0.73437
 H2705 H 0.79009 0.90500 0.68338
 H2706 H 0.79786 0.88546 0.67484
 H2707 H 0.82246 0.88131 0.70647
 H2708 H 0.81480 0.90087 0.71490
 H2709 H 0.76783 0.95187 0.70735
 H2710 H 0.75612 0.96766 0.71906
 H2711 H 0.78044 0.96230 0.75052
 H2712 H 0.79229 0.94660 0.73895
 C2713 C 0.69807 0.59556 0.69946
 C2714 C 0.70278 0.60027 0.68819
 C2715 C 0.69846 0.61164 0.68343
 C2716 C 0.68933 0.61859 0.68982
 C2717 C 0.68457 0.61382 0.70104
 C2718 C 0.68887 0.60246 0.70579
 C2719 C 0.70297 0.58377 0.70484
 N2720 N 0.69847 0.57938 0.71582
 N2721 N 0.70329 0.56918 0.72103
 C2722 C 0.71281 0.56289 0.71549
 N2723 N 0.71720 0.56717 0.70442
 N2724 N 0.71238 0.57739 0.69920
 C2725 C 0.71889 0.55221 0.72189
 C2726 C 0.72907 0.54595 0.71641
 C2727 C 0.73577 0.53697 0.72311
 C2728 C 0.73238 0.53409 0.73537
 C2729 C 0.72191 0.53987 0.74068
 C2730 C 0.71517 0.54879 0.73398
 H2731 H 0.70987 0.59521 0.68306
 H2732 H 0.70232 0.61493 0.67473
 H2733 H 0.67759 0.61886 0.70630
 H2734 H 0.68504 0.59915 0.71451
 H2735 H 0.73217 0.54832 0.70711
 H2736 H 0.74393 0.53267 0.71896
 H2737 H 0.71926 0.53780 0.75019
 H2738 H 0.70735 0.55336 0.73848
 C2739 C 0.69841 0.09526 0.19929
 C2740 C 0.68904 0.10203 0.20551
 C2741 C 0.68469 0.11336 0.20074
 C2742 C 0.68957 0.11822 0.18960
 C2743 C 0.69891 0.11142 0.18334
 C2744 C 0.70327 0.10008 0.18813
 C2745 C 0.70331 0.08348 0.20466
 N2746 N 0.71282 0.07718 0.19909
 N2747 N 0.71763 0.06696 0.20430
 C2748 C 0.71312 0.06258 0.21529
 N2749 N 0.70351 0.06879 0.22075
 N2750 N 0.69870 0.07900 0.21555
 C2751 C 0.71918 0.05190 0.22168
 C2752 C 0.71536 0.04840 0.23371
 C2753 C 0.72209 0.03948 0.24043
 C2754 C 0.73263 0.03379 0.23518
 C2755 C 0.73612 0.03674 0.22297
 C2756 C 0.72945 0.04572 0.21625
 H2757 H 0.68511 0.09864 0.21415
 H2758 H 0.67758 0.11831 0.20590
 H2759 H 0.70286 0.11478 0.17471
 H2760 H 0.71050 0.09512 0.18309
 H2761 H 0.70748 0.05291 0.23817
 H2762 H 0.71936 0.03734 0.24990
 H2763 H 0.74434 0.03250 0.21887
 H2764 H 0.73262 0.04815 0.20700
 C2765 C 0.19829 0.59549 0.19904
 C2766 C 0.18911 0.60234 0.20545
 C2767 C 0.18475 0.61370 0.20076
 C2768 C 0.18942 0.61851 0.18952
 C2769 C 0.19853 0.61160 0.18305
 C2770 C 0.20290 0.60023 0.18775
 C2771 C 0.20329 0.58371 0.20435
 N2772 N 0.21261 0.57734 0.19856
 N2773 N 0.21755 0.56715 0.20370
 C2774 C 0.21337 0.56287 0.21485
 N2775 N 0.20393 0.56914 0.22055
 N2776 N 0.19899 0.57932 0.21540
 C2777 C 0.21959 0.55222 0.22115
 C2778 C 0.21605 0.54876 0.23328
 C2779 C 0.22290 0.53984 0.23987
 C2780 C 0.23330 0.53410 0.23441
 C2781 C 0.23654 0.53703 0.22212
 C2782 C 0.22973 0.54601 0.21552
 H2783 H 0.18535 0.59900 0.21419
 H2784 H 0.17779 0.61873 0.20607
 H2785 H 0.20230 0.61490 0.17432
 H2786 H 0.20997 0.59520 0.18256
 H2787 H 0.20828 0.55331 0.23790
 H2788 H 0.22038 0.53775 0.24940
 H2789 H 0.24467 0.53276 0.21786
 H2790 H 0.23270 0.54841 0.20620
 C2791 C 0.19806 0.09535 0.69961
 C2792 C 0.18875 0.10217 0.70587
 C2793 C 0.18437 0.11348 0.70106
 C2794 C 0.18916 0.11827 0.68985
 C2795 C 0.19840 0.11139 0.68354
 C2796 C 0.20279 0.10007 0.68836
 C2797 C 0.20302 0.08361 0.70503
 N2798 N 0.21244 0.07724 0.69939
 N2799 N 0.21730 0.06704 0.70461
 C2800 C 0.21292 0.06275 0.71568
 N2801 N 0.20339 0.06903 0.72123
 N2802 N 0.19854 0.07922 0.71601
 C2803 C 0.21899 0.05206 0.72205
 C2804 C 0.21529 0.04864 0.73415
 C2805 C 0.22200 0.03966 0.74081
 C2806 C 0.23241 0.03382 0.73545
 C2807 C 0.23578 0.03671 0.72319
 C2808 C 0.22912 0.04575 0.71653
 H2809 H 0.18490 0.09885 0.71457
 H2810 H 0.17731 0.11847 0.70626
 H2811 H 0.20228 0.11469 0.67485
 H2812 H 0.20996 0.09507 0.68328
 H2813 H 0.20752 0.05325 0.73868
 H2814 H 0.21937 0.03759 0.75032
 H2815 H 0.24391 0.03237 0.71901
 H2816 H 0.23221 0.04812 0.70723
 C2817 C 0.30062 0.59570 0.30125
 C2818 C 0.29400 0.60256 0.31025
 C2819 C 0.29868 0.61386 0.31474
 C2820 C 0.31012 0.61860 0.31038
 C2821 C 0.31677 0.61172 0.30142
 C2822 C 0.31208 0.60040 0.29690
 C2823 C 0.29540 0.58392 0.29623
 N2824 N 0.30126 0.57764 0.28692
 N2825 N 0.29621 0.56739 0.28202
 C2826 C 0.28509 0.56296 0.28624
 N2827 N 0.27932 0.56915 0.29566
 N2828 N 0.28437 0.57939 0.30055
 C2829 C 0.27889 0.55223 0.28010
 C2830 C 0.26683 0.54854 0.28381
 C2831 C 0.26026 0.53958 0.27703
 C2832 C 0.26566 0.53405 0.26653
 C2833 C 0.27791 0.53718 0.26313
 C2834 C 0.28449 0.54620 0.26988
 H2835 H 0.28512 0.59926 0.31377
 H2836 H 0.29320 0.61888 0.32155
 H2837 H 0.32564 0.61499 0.29788
 H2838 H 0.31743 0.59537 0.28998
 H2839 H 0.26224 0.55293 0.29165
 H2840 H 0.25076 0.53731 0.27967
 H2841 H 0.28213 0.53306 0.25495
 H2842 H 0.29377 0.54877 0.26680
 C2843 C 0.30053 0.09539 0.80160
 C2844 C 0.29397 0.10230 0.81060
 C2845 C 0.29867 0.11363 0.81498
 C2846 C 0.31008 0.11835 0.81054
 C2847 C 0.31669 0.11141 0.80158
 C2848 C 0.31196 0.10006 0.79716
 C2849 C 0.29523 0.08358 0.79667
 N2850 N 0.30092 0.07732 0.78724
 N2851 N 0.29577 0.06708 0.78242
 C2852 C 0.28473 0.06264 0.78685
 N2853 N 0.27915 0.06881 0.79638
 N2854 N 0.28429 0.07904 0.80120
 C2855 C 0.27840 0.05193 0.78080
 C2856 C 0.26639 0.04826 0.78469
 C2857 C 0.25968 0.03931 0.77802
 C2858 C 0.26492 0.03375 0.76744
 C2859 C 0.27711 0.03687 0.76386
 C2860 C 0.28382 0.04588 0.77049
 H2861 H 0.28510 0.09904 0.81420
 H2862 H 0.29323 0.11869 0.82179
 H2863 H 0.32554 0.11466 0.79797
 H2864 H 0.31727 0.09498 0.79024
 H2865 H 0.26193 0.05266 0.79260
 H2866 H 0.25022 0.03706 0.78081
 H2867 H 0.28120 0.03273 0.75561
 H2868 H 0.29305 0.04844 0.76726
 C2869 C 0.80057 0.59572 0.80149
 C2870 C 0.79413 0.60250 0.81066
 C2871 C 0.79882 0.61383 0.81505
 C2872 C 0.81011 0.61868 0.81042
 C2873 C 0.81659 0.61186 0.80128
 C2874 C 0.81187 0.60052 0.79686
 C2875 C 0.79527 0.58393 0.79655
 N2876 N 0.80089 0.57774 0.78703
 N2877 N 0.79573 0.56751 0.78221
 C2878 C 0.78476 0.56301 0.78672
 N2879 N 0.77925 0.56910 0.79635
 N2880 N 0.78439 0.57933 0.80116
 C2881 C 0.77840 0.55231 0.78068
 C2882 C 0.76641 0.54863 0.78462
 C2883 C 0.75969 0.53969 0.77797
 C2884 C 0.76488 0.53414 0.76737
 C2885 C 0.77706 0.53727 0.76373
 C2886 C 0.78379 0.54628 0.77034
 H2887 H 0.78536 0.59913 0.81441
 H2888 H 0.79347 0.61878 0.82202
 H2889 H 0.82534 0.61522 0.79754
 H2890 H 0.81708 0.59554 0.78979
 H2891 H 0.76199 0.55303 0.79255
 H2892 H 0.75024 0.53743 0.78080
 H2893 H 0.78111 0.53315 0.75546
 H2894 H 0.79300 0.54885 0.76707
 C2895 C 0.80056 0.09544 0.30148
 C2896 C 0.79408 0.10221 0.31064
 C2897 C 0.79872 0.11356 0.31504
 C2898 C 0.80999 0.11846 0.31043
 C2899 C 0.81653 0.11166 0.30131
 C2900 C 0.81187 0.10028 0.29689
 C2901 C 0.79531 0.08362 0.29653
 N2902 N 0.80095 0.07747 0.28700
 N2903 N 0.79583 0.06723 0.28215
 C2904 C 0.78486 0.06268 0.28664
 N2905 N 0.77933 0.06874 0.29628
 N2906 N 0.78445 0.07897 0.30112
 C2907 C 0.77854 0.05196 0.28057
 C2908 C 0.76657 0.04821 0.28452
 C2909 C 0.75988 0.03925 0.27784
 C2910 C 0.76509 0.03375 0.26722
 C2911 C 0.77724 0.03696 0.26358
 C2912 C 0.78394 0.04599 0.27021
 H2913 H 0.78532 0.09881 0.31437
 H2914 H 0.79334 0.11850 0.32198
 H2915 H 0.82528 0.11504 0.29758
 H2916 H 0.81712 0.09532 0.28984
 H2917 H 0.76213 0.05257 0.29246
 H2918 H 0.75045 0.03694 0.28068
 H2919 H 0.78131 0.03289 0.25529
 H2920 H 0.79314 0.04861 0.26694
 C2921 C 0.69819 0.40432 0.30018
 C2922 C 0.68910 0.39736 0.29379
 C2923 C 0.68483 0.38600 0.29854
 C2924 C 0.68951 0.38129 0.30983
 C2925 C 0.69857 0.38828 0.31626
 C2926 C 0.70286 0.39965 0.31149
 C2927 C 0.70303 0.41613 0.29483
 N2928 N 0.71234 0.42258 0.30053
 N2929 N 0.71712 0.43282 0.29534
 C2930 C 0.71278 0.43706 0.28423
 N2931 N 0.70335 0.43072 0.27863
 N2932 N 0.69857 0.42049 0.28382
 C2933 C 0.71884 0.44777 0.27787
 C2934 C 0.71516 0.45119 0.26577
 C2935 C 0.72188 0.46015 0.25911
 C2936 C 0.73228 0.46597 0.26447
 C2937 C 0.73564 0.46307 0.27674
 C2938 C 0.72897 0.45405 0.28340
 H2939 H 0.68532 0.40062 0.28503
 H2940 H 0.67794 0.38089 0.29324
 H2941 H 0.70236 0.38503 0.32501
 H2942 H 0.70987 0.40476 0.31666
 H2943 H 0.70739 0.44660 0.26123
 H2944 H 0.71926 0.46222 0.24959
 H2945 H 0.74377 0.46738 0.28093
 H2946 H 0.73204 0.45167 0.29270
 C2947 C 0.69929 0.90459 0.80162
 C2948 C 0.68802 0.89974 0.79699
 C2949 C 0.68335 0.88836 0.80140
 C2950 C 0.68985 0.88158 0.81056
 C2951 C 0.70109 0.88649 0.81522
 C2952 C 0.70574 0.89785 0.81082
 C2953 C 0.70456 0.91640 0.79667
 N2954 N 0.71539 0.92108 0.80132
 N2955 N 0.72052 0.93131 0.79649
 C2956 C 0.71504 0.93735 0.78681
 N2957 N 0.70411 0.93278 0.78226
 N2958 N 0.69897 0.92254 0.78709
 C2959 C 0.72137 0.94807 0.78076
 C2960 C 0.71602 0.95403 0.77037
 C2961 C 0.72274 0.96305 0.76375
 C2962 C 0.73488 0.96626 0.76743
 C2963 C 0.74004 0.96078 0.77809
 C2964 C 0.73332 0.95182 0.78475
 H2965 H 0.68280 0.90469 0.78990
 H2966 H 0.67462 0.88496 0.79765
 H2967 H 0.70645 0.88156 0.82218
 H2968 H 0.71448 0.90126 0.81458
 H2969 H 0.70684 0.95140 0.76706
 H2970 H 0.71872 0.96712 0.75544
 H2971 H 0.74946 0.96310 0.78096
 H2972 H 0.73773 0.94748 0.79272
 C2973 C 0.19927 0.40448 0.80150
 C2974 C 0.20567 0.39772 0.81072
 C2975 C 0.20097 0.38640 0.81513
 C2976 C 0.18970 0.38153 0.81048
 C2977 C 0.18324 0.38833 0.80131
 C2978 C 0.18797 0.39967 0.79687
 C2979 C 0.20461 0.41625 0.79652
 N2980 N 0.19908 0.42238 0.78692
 N2981 N 0.20428 0.43259 0.78207
 C2982 C 0.21523 0.43711 0.78664
 N2983 N 0.22065 0.43107 0.79635
 N2984 N 0.21546 0.42087 0.80119
 C2985 C 0.22163 0.44780 0.78059
 C2986 C 0.23358 0.45152 0.78462
 C2987 C 0.24033 0.46048 0.77800
 C2988 C 0.23522 0.46599 0.76734
 C2989 C 0.22309 0.46280 0.76361
 C2990 C 0.21632 0.45378 0.77019
 H2991 H 0.21443 0.40109 0.81447
 H2992 H 0.20631 0.38145 0.82211
 H2993 H 0.17449 0.38495 0.79756
 H2994 H 0.18278 0.40463 0.78978
 H2995 H 0.23794 0.44715 0.79260
 H2996 H 0.24975 0.46277 0.78090
 H2997 H 0.21909 0.46689 0.75529
 H2998 H 0.20715 0.45118 0.76684
 C2999 C 0.19801 0.90454 0.30029
 C3000 C 0.20253 0.90001 0.31171
 C3001 C 0.19822 0.88866 0.31653
 C3002 C 0.18928 0.88157 0.31005
 C3003 C 0.18471 0.88618 0.29867
 C3004 C 0.18900 0.89751 0.29388
 C3005 C 0.20290 0.91631 0.29487
 N3006 N 0.19853 0.92056 0.28378
 N3007 N 0.20332 0.93075 0.27854
 C3008 C 0.21268 0.93718 0.28416
 N3009 N 0.21694 0.93304 0.29534
 N3010 N 0.21214 0.92283 0.30058
 C3011 C 0.21873 0.94787 0.27776
 C3012 C 0.22875 0.95428 0.28333
 C3013 C 0.23542 0.96330 0.27664
 C3014 C 0.23215 0.96607 0.26432
 C3015 C 0.22184 0.96013 0.25892
 C3016 C 0.21513 0.95117 0.26560
 H3017 H 0.20947 0.90518 0.31692
 H3018 H 0.20191 0.88550 0.32536
 H3019 H 0.17790 0.88101 0.29334
 H3020 H 0.18533 0.90067 0.28504
 H3021 H 0.23176 0.95201 0.29267
 H3022 H 0.24347 0.96772 0.28088
 H3023 H 0.21929 0.96210 0.24937
 H3024 H 0.20743 0.94649 0.26103
 C3025 C 0.40413 0.30152 0.69974
 C3026 C 0.39711 0.31058 0.70612
 C3027 C 0.38579 0.31490 0.70129
 C3028 C 0.38119 0.31030 0.68994
 C3029 C 0.38823 0.30126 0.68353
 C3030 C 0.39957 0.29692 0.68837
 C3031 C 0.41593 0.29667 0.70515
 N3032 N 0.42244 0.28739 0.69946
 N3033 N 0.43270 0.28265 0.70468
 C3034 C 0.43690 0.28701 0.71579
 N3035 N 0.43047 0.29640 0.72138
 N3036 N 0.42022 0.30114 0.71617
 C3037 C 0.44766 0.28104 0.72215
 C3038 C 0.45102 0.28472 0.73427
 C3039 C 0.46005 0.27807 0.74091
 C3040 C 0.46601 0.26776 0.73552
 C3041 C 0.46318 0.26442 0.72324
 C3042 C 0.45408 0.27101 0.71659
 H3043 H 0.40029 0.31430 0.71493
 H3044 H 0.38064 0.32176 0.70659
 H3045 H 0.38506 0.29754 0.67473
 H3046 H 0.40472 0.28993 0.68320
 H3047 H 0.44630 0.29240 0.73883
 H3048 H 0.46206 0.28066 0.75045
 H3049 H 0.46760 0.25635 0.71902
 H3050 H 0.45176 0.26795 0.70728
 C3051 C 0.40446 0.80059 0.19812
 C3052 C 0.39958 0.81186 0.20276
 C3053 C 0.38819 0.81653 0.19835
 C3054 C 0.38140 0.81004 0.18920
 C3055 C 0.38634 0.79881 0.18454
 C3056 C 0.39771 0.79416 0.18892
 C3057 C 0.41628 0.79531 0.20307
 N3058 N 0.42097 0.78449 0.19844
 N3059 N 0.43120 0.77934 0.20328
 C3060 C 0.43721 0.78481 0.21297
 N3061 N 0.43263 0.79574 0.21751
 N3062 N 0.42239 0.80089 0.21265
 C3063 C 0.44790 0.77844 0.21907
 C3064 C 0.45381 0.78375 0.22950
 C3065 C 0.46278 0.77699 0.23617
 C3066 C 0.46600 0.76485 0.23248
 C3067 C 0.46058 0.75973 0.22179
 C3068 C 0.45167 0.76649 0.21509
 H3069 H 0.40453 0.81707 0.20984
 H3070 H 0.38478 0.82525 0.20212
 H3071 H 0.38142 0.79346 0.17756
 H3072 H 0.40114 0.78542 0.18516
 H3073 H 0.45117 0.79294 0.23280
 H3074 H 0.46681 0.78099 0.24450
 H3075 H 0.46291 0.75032 0.21892
 H3076 H 0.44737 0.76212 0.20708
 C3077 C 0.90456 0.30210 0.19931
 C3078 C 0.89762 0.31126 0.20564
 C3079 C 0.88625 0.31554 0.20088
 C3080 C 0.88152 0.31080 0.18963
 C3081 C 0.88852 0.30171 0.18324
 C3082 C 0.89990 0.29742 0.18802
 C3083 C 0.91635 0.29721 0.20472
 N3084 N 0.92276 0.28782 0.19909
 N3085 N 0.93296 0.28299 0.20434
 C3086 C 0.93720 0.28737 0.21543
 N3087 N 0.93089 0.29687 0.22095
 N3088 N 0.92070 0.30170 0.21571
 C3089 C 0.94787 0.28129 0.22186
 C3090 C 0.95120 0.28496 0.23398
 C3091 C 0.96011 0.27822 0.24071
 C3092 C 0.96596 0.26781 0.23539
 C3093 C 0.96317 0.26447 0.22310
 C3094 C 0.95419 0.27115 0.21637
 H3095 H 0.90089 0.31507 0.21438
 H3096 H 0.88116 0.32248 0.20614
 H3097 H 0.88527 0.29788 0.17451
 H3098 H 0.90500 0.29036 0.18288
 H3099 H 0.94658 0.29273 0.23849
 H3100 H 0.96212 0.28084 0.25023
 H3101 H 0.96753 0.25635 0.21893
 H3102 H 0.95189 0.26809 0.20705
 C3103 C 0.90439 0.80075 0.69854
 C3104 C 0.89944 0.81203 0.70310
 C3105 C 0.88814 0.81671 0.69851
 C3106 C 0.88149 0.81024 0.68925
 C3107 C 0.88648 0.79899 0.68468
 C3108 C 0.89778 0.79432 0.68925
 C3109 C 0.91616 0.79554 0.70367
 N3110 N 0.92090 0.78464 0.69923
 N3111 N 0.93113 0.77962 0.70420
 C3112 C 0.93711 0.78528 0.71380
 N3113 N 0.93248 0.79626 0.71815
 N3114 N 0.92223 0.80129 0.71318
 C3115 C 0.94787 0.77910 0.71999
 C3116 C 0.95370 0.78460 0.73037
 C3117 C 0.96276 0.77803 0.73712
 C3118 C 0.96615 0.76591 0.73356
 C3119 C 0.96080 0.76060 0.72292
 C3120 C 0.95179 0.76716 0.71615
 H3121 H 0.90428 0.81724 0.71026
 H3122 H 0.88469 0.82543 0.70225
 H3123 H 0.88165 0.79366 0.67762
 H3124 H 0.90126 0.78558 0.68555
 H3125 H 0.95094 0.79379 0.73357
 H3126 H 0.96672 0.78217 0.74542
 H3127 H 0.96324 0.75118 0.72016
 H3128 H 0.94755 0.76264 0.70819
 C3129 C 0.59576 0.30171 0.30023
 C3130 C 0.60044 0.29703 0.31152
 C3131 C 0.61182 0.30131 0.31628
 C3132 C 0.61879 0.31040 0.30986
 C3133 C 0.61406 0.31510 0.29859
 C3134 C 0.60270 0.31083 0.29385
 C3135 C 0.58395 0.29686 0.29487
 N3136 N 0.57964 0.30125 0.28382
 N3137 N 0.56942 0.29645 0.27863
 C3138 C 0.56304 0.28707 0.28427
 N3139 N 0.56724 0.28281 0.29543
 N3140 N 0.57747 0.28761 0.30062
 C3141 C 0.55236 0.28098 0.27792
 C3142 C 0.54601 0.27094 0.28353
 C3143 C 0.53701 0.26422 0.27690
 C3144 C 0.53420 0.26746 0.26458
 C3145 C 0.54008 0.27777 0.25913
 C3146 C 0.54902 0.28454 0.26576
 H3147 H 0.59535 0.28999 0.31668
 H3148 H 0.61509 0.29751 0.32502
 H3149 H 0.61915 0.32201 0.29330
 H3150 H 0.59942 0.31462 0.28510
 H3151 H 0.54833 0.26796 0.29288
 H3152 H 0.53265 0.25616 0.28116
 H3153 H 0.53808 0.28028 0.24957
 H3154 H 0.55367 0.29223 0.26115
 C3155 C 0.59555 0.80128 0.80103
 C3156 C 0.60194 0.79501 0.81060
 C3157 C 0.61327 0.79960 0.81513
 C3158 C 0.61852 0.81059 0.81024
 C3159 C 0.61208 0.81691 0.80072
 C3160 C 0.60074 0.81231 0.79618
 C3161 C 0.58378 0.79609 0.79590
 N3162 N 0.57788 0.80171 0.78620
 N3163 N 0.56766 0.79668 0.78121
 C3164 C 0.56288 0.78584 0.78572
 N3165 N 0.56869 0.78032 0.79552
 N3166 N 0.57890 0.78534 0.80051
 C3167 C 0.55216 0.77965 0.77951
 C3168 C 0.54797 0.76790 0.78363
 C3169 C 0.53898 0.76132 0.77687
 C3170 C 0.53396 0.76641 0.76596
 C3171 C 0.53764 0.77835 0.76211
 C3172 C 0.54664 0.78495 0.76885
 H3173 H 0.59826 0.78647 0.81454
 H3174 H 0.61792 0.79439 0.82240
 H3175 H 0.61574 0.82544 0.79676
 H3176 H 0.59607 0.81738 0.78880
 H3177 H 0.55196 0.76355 0.79180
 H3178 H 0.53631 0.75204 0.77986
 H3179 H 0.53391 0.78232 0.75361
 H3180 H 0.54961 0.79399 0.76544
 C3181 C 0.09545 0.30109 0.80126
 C3182 C 0.10041 0.31233 0.79664
 C3183 C 0.11178 0.31693 0.80112
 C3184 C 0.11847 0.31041 0.81032
 C3185 C 0.11344 0.29921 0.81499
 C3186 C 0.10208 0.29463 0.81053
 C3187 C 0.08366 0.29589 0.79619
 N3188 N 0.07898 0.28498 0.80064
 N3189 N 0.06879 0.27992 0.79567
 C3190 C 0.06279 0.28554 0.78604
 N3191 N 0.06736 0.29655 0.78169
 N3192 N 0.07757 0.30162 0.78667
 C3193 C 0.05212 0.27929 0.77982
 C3194 C 0.04628 0.28477 0.76942
 C3195 C 0.03731 0.27815 0.76264
 C3196 C 0.03403 0.26600 0.76618
 C3197 C 0.03938 0.26072 0.77683
 C3198 C 0.04830 0.26732 0.78364
 H3199 H 0.09554 0.31756 0.78950
 H3200 H 0.11527 0.32562 0.79735
 H3201 H 0.11829 0.29385 0.82201
 H3202 H 0.09858 0.28593 0.81428
 H3203 H 0.04897 0.29398 0.76624
 H3204 H 0.03333 0.28229 0.75434
 H3205 H 0.03699 0.25128 0.77959
 H3206 H 0.05255 0.26282 0.79161
 C3207 C 0.09560 0.80180 0.30044
 C3208 C 0.10209 0.81149 0.29446
 C3209 C 0.11342 0.81586 0.29919
 C3210 C 0.11858 0.81068 0.31007
 C3211 C 0.11203 0.80104 0.31611
 C3212 C 0.10069 0.79665 0.31136
 C3213 C 0.08382 0.79686 0.29509
 N3214 N 0.07773 0.78716 0.30053
 N3215 N 0.06750 0.78234 0.29535
 C3216 C 0.06291 0.78702 0.28452
 N3217 N 0.06891 0.79682 0.27918
 N3218 N 0.07913 0.80164 0.28436
 C3219 C 0.05219 0.78099 0.27817
 C3220 C 0.04842 0.78504 0.26629
 C3221 C 0.03945 0.77838 0.25959
 C3222 C 0.03398 0.76767 0.26470
 C3223 C 0.03721 0.76393 0.27677
 C3224 C 0.04624 0.77054 0.28347
 H3225 H 0.09848 0.81567 0.28601
 H3226 H 0.11813 0.82326 0.29422
 H3227 H 0.11562 0.79681 0.32452
 H3228 H 0.09595 0.78917 0.31622
 H3229 H 0.05276 0.79306 0.26194
 H3230 H 0.03711 0.78129 0.25022
 H3231 H 0.03316 0.75557 0.28076
 H3232 H 0.04888 0.76719 0.29260
 C3233 C 0.59566 0.69934 0.69869
 C3234 C 0.60091 0.68838 0.70365
 C3235 C 0.61225 0.68374 0.69910
 C3236 C 0.61863 0.68996 0.68948
 C3237 C 0.61332 0.70089 0.68449
 C3238 C 0.60199 0.70551 0.68903
 C3239 C 0.58387 0.70456 0.70380
 N3240 N 0.57887 0.71518 0.69901
 N3241 N 0.56864 0.72023 0.70396
 C3242 C 0.56293 0.71487 0.71390
 N3243 N 0.56784 0.70415 0.71860
 N3244 N 0.57808 0.69910 0.71365
 C3245 C 0.55219 0.72110 0.72004
 C3246 C 0.54675 0.71597 0.73082
 C3247 C 0.53771 0.72264 0.73748
 C3248 C 0.53392 0.73449 0.73343
 C3249 C 0.53886 0.73940 0.72241
 C3250 C 0.54787 0.73275 0.71573
 H3251 H 0.59629 0.68337 0.71109
 H3252 H 0.61595 0.67527 0.70315
 H3253 H 0.61792 0.70601 0.67714
 H3254 H 0.59826 0.71400 0.68500
 H3255 H 0.54981 0.70702 0.73439
 H3256 H 0.53406 0.71881 0.74607
 H3257 H 0.53610 0.74861 0.71926
 H3258 H 0.55180 0.73697 0.70745
 C3259 C 0.59588 0.19924 0.19841
 C3260 C 0.60275 0.20579 0.18939
 C3261 C 0.61402 0.20105 0.18487
 C3262 C 0.61874 0.18959 0.18923
 C3263 C 0.61185 0.18300 0.19823
 C3264 C 0.60055 0.18777 0.20277
 C3265 C 0.58411 0.20456 0.20344
 N3266 N 0.57786 0.19884 0.21286
 N3267 N 0.56763 0.20398 0.21773
 C3268 C 0.56318 0.21505 0.21337
 N3269 N 0.56935 0.22066 0.20386
 N3270 N 0.57957 0.21553 0.19899
 C3271 C 0.55245 0.22136 0.21944
 C3272 C 0.54873 0.23335 0.21555
 C3273 C 0.53974 0.24003 0.22222
 C3274 C 0.53419 0.23479 0.23280
 C3275 C 0.53737 0.22261 0.23638
 C3276 C 0.54642 0.21592 0.22975
 H3277 H 0.59948 0.21468 0.18585
 H3278 H 0.61905 0.20648 0.17804
 H3279 H 0.61510 0.17412 0.20177
 H3280 H 0.59551 0.18246 0.20972
 H3281 H 0.55312 0.23781 0.20764
 H3282 H 0.53746 0.24948 0.21943
 H3283 H 0.53325 0.21852 0.24464
 H3284 H 0.54902 0.20670 0.23298
 C3285 C 0.09574 0.69965 0.19826
 C3286 C 0.10246 0.70605 0.18902
 C3287 C 0.11379 0.70134 0.18457
 C3288 C 0.11869 0.69008 0.18921
 C3289 C 0.11192 0.68362 0.19840
 C3290 C 0.10058 0.68835 0.20288
 C3291 C 0.08395 0.70496 0.20325
 N3292 N 0.07781 0.69937 0.21281
 N3293 N 0.06758 0.70454 0.21768
 C3294 C 0.06304 0.71550 0.21318
 N3295 N 0.06909 0.72099 0.20351
 N3296 N 0.07931 0.71583 0.19865
 C3297 C 0.05232 0.72185 0.21925
 C3298 C 0.04858 0.73382 0.21530
 C3299 C 0.03959 0.74052 0.22196
 C3300 C 0.03408 0.73533 0.23258
 C3301 C 0.03730 0.72319 0.23624
 C3302 C 0.04635 0.71648 0.22962
 H3303 H 0.09906 0.71480 0.18527
 H3304 H 0.11870 0.70666 0.17757
 H3305 H 0.11531 0.67488 0.20216
 H3306 H 0.09565 0.68317 0.20999
 H3307 H 0.05294 0.73824 0.20735
 H3308 H 0.03728 0.74995 0.21911
 H3309 H 0.03322 0.71914 0.24453
 H3310 H 0.04898 0.70729 0.23290
 C3311 C 0.09544 0.19855 0.69885
 C3312 C 0.10167 0.18861 0.70474
 C3313 C 0.11304 0.18415 0.70011
 C3314 C 0.11848 0.18950 0.68945
 C3315 C 0.11218 0.19936 0.68350
 C3316 C 0.10081 0.20382 0.68813
 C3317 C 0.08366 0.20363 0.70409
 N3318 N 0.07776 0.21343 0.69860
 N3319 N 0.06756 0.21842 0.70368
 C3320 C 0.06279 0.21382 0.71446
 N3321 N 0.06860 0.20391 0.71986
 N3322 N 0.07880 0.19892 0.71478
 C3323 C 0.05211 0.22006 0.72071
 C3324 C 0.04802 0.21598 0.73247
 C3325 C 0.03908 0.22280 0.73908
 C3326 C 0.03398 0.23372 0.73400
 C3327 C 0.03754 0.23752 0.72205
 C3328 C 0.04652 0.23073 0.71543
 H3329 H 0.09783 0.18432 0.71302
 H3330 H 0.11754 0.17656 0.70500
 H3331 H 0.11598 0.20373 0.67527
 H3332 H 0.09628 0.21150 0.68335
 H3333 H 0.05208 0.20780 0.73681
 H3334 H 0.03648 0.21985 0.74837
 H3335 H 0.03376 0.24602 0.71809
 H3336 H 0.04940 0.23412 0.70639
 C3337 C 0.40442 0.69812 0.30020
 C3338 C 0.39765 0.68878 0.29397
 C3339 C 0.38633 0.68443 0.29876
 C3340 C 0.38147 0.68927 0.30991
 C3341 C 0.38829 0.69856 0.31619
 C3342 C 0.39962 0.70293 0.31139
 C3343 C 0.41620 0.70303 0.29482
 N3344 N 0.42252 0.71248 0.30042
 N3345 N 0.43275 0.71729 0.29522
 C3346 C 0.43711 0.71283 0.28421
 N3347 N 0.43088 0.70327 0.27871
 N3348 N 0.42067 0.69846 0.28390
 C3349 C 0.44782 0.71887 0.27784
 C3350 C 0.45132 0.71510 0.26579
 C3351 C 0.46028 0.72181 0.25911
 C3352 C 0.46600 0.73228 0.26441
 C3353 C 0.46304 0.73573 0.27663
 C3354 C 0.45402 0.72907 0.28331
 H3355 H 0.40102 0.68489 0.28531
 H3356 H 0.38137 0.67734 0.29358
 H3357 H 0.38494 0.70247 0.32484
 H3358 H 0.40459 0.71013 0.31644
 H3359 H 0.44679 0.70727 0.26130
 H3360 H 0.46240 0.71912 0.24963
 H3361 H 0.46729 0.74391 0.28077
 H3362 H 0.45159 0.73221 0.29257
 C3363 C 0.40437 0.19933 0.80138
 C3364 C 0.39975 0.18788 0.79693
 C3365 C 0.38843 0.18309 0.80137
 C3366 C 0.38147 0.18963 0.81036
 C3367 C 0.38613 0.20106 0.81479
 C3368 C 0.39743 0.20583 0.81039
 C3369 C 0.41616 0.20469 0.79646
 N3370 N 0.42064 0.21563 0.80101
 N3371 N 0.43086 0.22082 0.79623
 C3372 C 0.43710 0.21529 0.78671
 N3373 N 0.43272 0.20425 0.78226
 N3374 N 0.42248 0.19905 0.78704
 C3375 C 0.44782 0.22167 0.78071
 C3376 C 0.45394 0.21628 0.77043
 C3377 C 0.46297 0.22303 0.76384
 C3378 C 0.46603 0.23522 0.76745
 C3379 C 0.46039 0.24042 0.77800
 C3380 C 0.45142 0.23368 0.78463
 H3381 H 0.40486 0.18262 0.78999
 H3382 H 0.38521 0.17422 0.79778
 H3383 H 0.38105 0.20647 0.82162
 H3384 H 0.40064 0.21470 0.81399
 H3385 H 0.45143 0.20705 0.76718
 H3386 H 0.46716 0.21897 0.75561
 H3387 H 0.46259 0.24988 0.78080
 H3388 H 0.44696 0.23811 0.79252
 C3389 C 0.90457 0.69830 0.80053
 C3390 C 0.89773 0.68915 0.79409
 C3391 C 0.88636 0.68480 0.79876
 C3392 C 0.88152 0.68945 0.81000
 C3393 C 0.88842 0.69853 0.81649
 C3394 C 0.89980 0.70289 0.81182
 C3395 C 0.91637 0.70329 0.79526
 N3396 N 0.92274 0.71255 0.80112
 N3397 N 0.93295 0.71749 0.79601
 C3398 C 0.93725 0.71336 0.78485
 N3399 N 0.93098 0.70398 0.77909
 N3400 N 0.92078 0.69904 0.78419
 C3401 C 0.94793 0.71960 0.77862
 C3402 C 0.95143 0.71611 0.76648
 C3403 C 0.96038 0.72299 0.75996
 C3404 C 0.96607 0.73336 0.76549
 C3405 C 0.96309 0.73654 0.77777
 C3406 C 0.95410 0.72970 0.78431
 H3407 H 0.90109 0.68542 0.78535
 H3408 H 0.88133 0.67787 0.79343
 H3409 H 0.88510 0.70229 0.82522
 H3410 H 0.90482 0.70993 0.81704
 H3411 H 0.94692 0.70838 0.76182
 H3412 H 0.96251 0.72052 0.75042
 H3413 H 0.96732 0.74464 0.78209
 H3414 H 0.95165 0.73263 0.79364
 C3415 C 0.90426 0.19937 0.30134
 C3416 C 0.89953 0.18801 0.29678
 C3417 C 0.88817 0.18327 0.30119
 C3418 C 0.88127 0.18979 0.31024
 C3419 C 0.88604 0.20113 0.31479
 C3420 C 0.89738 0.20584 0.31042
 C3421 C 0.91607 0.20470 0.29643
 N3422 N 0.92061 0.21560 0.30104
 N3423 N 0.93083 0.22079 0.29625
 C3424 C 0.93699 0.21531 0.28665
 N3425 N 0.93256 0.20432 0.28215
 N3426 N 0.92233 0.19911 0.28694
 C3427 C 0.94770 0.22172 0.28064
 C3428 C 0.95380 0.21637 0.27033
 C3429 C 0.96282 0.22312 0.26374
 C3430 C 0.96591 0.23530 0.26738
 C3431 C 0.96029 0.24047 0.27796
 C3432 C 0.95132 0.23372 0.28458
 H3433 H 0.90458 0.18278 0.28978
 H3434 H 0.88486 0.17448 0.29750
 H3435 H 0.88102 0.20651 0.32167
 H3436 H 0.90068 0.21464 0.31411
 H3437 H 0.95127 0.20715 0.26705
 H3438 H 0.96699 0.21908 0.25549
 H3439 H 0.96250 0.24992 0.28079
 H3440 H 0.94688 0.23812 0.29250
 C3441 C 0.30168 0.30034 0.59524
 C3442 C 0.29702 0.31166 0.59999
 C3443 C 0.30134 0.31634 0.61135
 C3444 C 0.31043 0.30982 0.61824
 C3445 C 0.31512 0.29855 0.61343
 C3446 C 0.31082 0.29388 0.60208
 C3447 C 0.29679 0.29506 0.58344
 N3448 N 0.30134 0.28412 0.57894
 N3449 N 0.29652 0.27897 0.56874
 C3450 C 0.28695 0.28455 0.56257
 N3451 N 0.28251 0.29560 0.56696
 N3452 N 0.28734 0.30075 0.57717
 C3453 C 0.28085 0.27819 0.55192
 C3454 C 0.27056 0.28366 0.54583
 C3455 C 0.26386 0.27696 0.53688
 C3456 C 0.26736 0.26471 0.53386
 C3457 C 0.27791 0.25942 0.53948
 C3458 C 0.28466 0.26612 0.54837
 H3459 H 0.28997 0.31689 0.59497
 H3460 H 0.29755 0.32509 0.61467
 H3461 H 0.32205 0.29318 0.61843
 H3462 H 0.31459 0.28512 0.59875
 H3463 H 0.26739 0.29294 0.54830
 H3464 H 0.25562 0.28109 0.53271
 H3465 H 0.28063 0.24991 0.53733
 H3466 H 0.29255 0.26162 0.55282
 C3467 C 0.30066 0.80140 0.09525
 C3468 C 0.29414 0.81056 0.10199
 C3469 C 0.29877 0.81499 0.11331
 C3470 C 0.31008 0.81040 0.11817
 C3471 C 0.31665 0.80128 0.11138
 C3472 C 0.31200 0.79684 0.10006
 C3473 C 0.29544 0.79638 0.08349
 N3474 N 0.30126 0.78698 0.07727
 N3475 N 0.29620 0.78207 0.06706
 C3476 C 0.28512 0.78638 0.06260
 N3477 N 0.27939 0.79589 0.06873
 N3478 N 0.28445 0.80079 0.07893
 C3479 C 0.27891 0.78023 0.05189
 C3480 C 0.26687 0.78400 0.04817
 C3481 C 0.26031 0.77724 0.03919
 C3482 C 0.26571 0.76669 0.03367
 C3483 C 0.27793 0.76323 0.03686
 C3484 C 0.28450 0.76996 0.04589
 H3485 H 0.28536 0.81427 0.09861
 H3486 H 0.29337 0.82194 0.11825
 H3487 H 0.32543 0.79757 0.11473
 H3488 H 0.31728 0.78979 0.09511
 H3489 H 0.26229 0.79188 0.05254
 H3490 H 0.25083 0.77993 0.03690
 H3491 H 0.28215 0.75500 0.03276
 H3492 H 0.29376 0.76682 0.04849
 C3493 C 0.80057 0.30155 0.09521
 C3494 C 0.79408 0.31065 0.10207
 C3495 C 0.79875 0.31496 0.11340
 C3496 C 0.81008 0.31032 0.11819
 C3497 C 0.81662 0.30126 0.11129
 C3498 C 0.81192 0.29693 0.09994
 C3499 C 0.79528 0.29668 0.08342
 N3500 N 0.80099 0.28726 0.07712
 N3501 N 0.79582 0.28246 0.06690
 C3502 C 0.78475 0.28688 0.06254
 N3503 N 0.77915 0.29641 0.06874
 N3504 N 0.78431 0.30121 0.07894
 C3505 C 0.77840 0.28082 0.05186
 C3506 C 0.76635 0.28469 0.04827
 C3507 C 0.75965 0.27799 0.03935
 C3508 C 0.76492 0.26743 0.03373
 C3509 C 0.77714 0.26388 0.03679
 C3510 C 0.78385 0.27053 0.04578
 H3511 H 0.78528 0.31439 0.09876
 H3512 H 0.79336 0.32185 0.11843
 H3513 H 0.82540 0.29752 0.11459
 H3514 H 0.81717 0.28992 0.09490
 H3515 H 0.76186 0.29258 0.05272
 H3516 H 0.75015 0.28076 0.03716
 H3517 H 0.78126 0.25563 0.03264
 H3518 H 0.79311 0.26731 0.04829
 C3519 C 0.80011 0.80201 0.59539
 C3520 C 0.79360 0.81106 0.60229
 C3521 C 0.79830 0.81538 0.61362
 C3522 C 0.80966 0.81080 0.61834
 C3523 C 0.81623 0.80179 0.61140
 C3524 C 0.81151 0.79744 0.60006
 C3525 C 0.79482 0.79712 0.58360
 N3526 N 0.80055 0.78772 0.57730
 N3527 N 0.79541 0.78291 0.56708
 C3528 C 0.78433 0.78731 0.56271
 N3529 N 0.77870 0.79682 0.56891
 N3530 N 0.78384 0.80163 0.57912
 C3531 C 0.77800 0.78124 0.55202
 C3532 C 0.76592 0.78504 0.54846
 C3533 C 0.75924 0.77832 0.53954
 C3534 C 0.76456 0.76781 0.53390
 C3535 C 0.77682 0.76433 0.53691
 C3536 C 0.78351 0.77100 0.54590
 H3537 H 0.78477 0.81475 0.59902
 H3538 H 0.79289 0.82223 0.61868
 H3539 H 0.82505 0.79808 0.61464
 H3540 H 0.81678 0.79047 0.59499
 H3541 H 0.76139 0.79290 0.55293
 H3542 H 0.74972 0.78103 0.53738
 H3543 H 0.78099 0.75612 0.53273
 H3544 H 0.79279 0.76784 0.54838
 C3545 C 0.30053 0.69859 0.40430
 C3546 C 0.29396 0.68957 0.39743
 C3547 C 0.29858 0.68527 0.38606
 C3548 C 0.30992 0.68983 0.38127
 C3549 C 0.31653 0.69880 0.38818
 C3550 C 0.31189 0.70313 0.39956
 C3551 C 0.29531 0.70348 0.41612
 N3552 N 0.30115 0.71277 0.42245
 N3553 N 0.29607 0.71761 0.43270
 C3554 C 0.28495 0.71334 0.43706
 N3555 N 0.27922 0.70392 0.43083
 N3556 N 0.28429 0.69909 0.42060
 C3557 C 0.27869 0.71946 0.44776
 C3558 C 0.26659 0.71578 0.45136
 C3559 C 0.25998 0.72257 0.46029
 C3560 C 0.26539 0.73305 0.46590
 C3561 C 0.27766 0.73642 0.46284
 C3562 C 0.28428 0.72967 0.45385
 H3563 H 0.28515 0.68589 0.40075
 H3564 H 0.29314 0.67844 0.38102
 H3565 H 0.32533 0.70249 0.38487
 H3566 H 0.31721 0.71008 0.40460
 H3567 H 0.26200 0.70796 0.44691
 H3568 H 0.25046 0.71995 0.46248
 H3569 H 0.28189 0.74460 0.46700
 H3570 H 0.29358 0.73274 0.45134
 C3571 C 0.30139 0.19952 0.90425
 C3572 C 0.29669 0.18827 0.89943
 C3573 C 0.30110 0.18356 0.88812
 C3574 C 0.31033 0.18999 0.88134
 C3575 C 0.31505 0.20121 0.88622
 C3576 C 0.31066 0.20591 0.89752
 C3577 C 0.29643 0.20481 0.91601
 N3578 N 0.30094 0.21575 0.92055
 N3579 N 0.29608 0.22086 0.93075
 C3580 C 0.28652 0.21525 0.93689
 N3581 N 0.28212 0.20421 0.93246
 N3582 N 0.28698 0.19909 0.92225
 C3583 C 0.28042 0.22153 0.94759
 C3584 C 0.27012 0.21602 0.95362
 C3585 C 0.26342 0.22265 0.96264
 C3586 C 0.26693 0.23485 0.96578
 C3587 C 0.27749 0.24018 0.96021
 C3588 C 0.28423 0.23356 0.95125
 H3589 H 0.28955 0.18310 0.90437
 H3590 H 0.29728 0.17485 0.88476
 H3591 H 0.32208 0.20651 0.88129
 H3592 H 0.31447 0.21463 0.90091
 H3593 H 0.26695 0.20678 0.95105
 H3594 H 0.25518 0.21850 0.96676
 H3595 H 0.28021 0.24965 0.96246
 H3596 H 0.29212 0.23808 0.94684
 C3597 C 0.80044 0.69834 0.90438
 C3598 C 0.79399 0.68926 0.89748
 C3599 C 0.79872 0.68495 0.88617
 C3600 C 0.81007 0.68957 0.88144
 C3601 C 0.81657 0.69862 0.88837
 C3602 C 0.81181 0.70295 0.89970
 C3603 C 0.79510 0.70321 0.91616
 N3604 N 0.80078 0.71258 0.92251
 N3605 N 0.79559 0.71736 0.93273
 C3606 C 0.78451 0.71294 0.93705
 N3607 N 0.77893 0.70345 0.93080
 N3608 N 0.78411 0.69868 0.92059
 C3609 C 0.77813 0.71897 0.94774
 C3610 C 0.76604 0.71517 0.95126
 C3611 C 0.75933 0.72185 0.96020
 C3612 C 0.76463 0.73234 0.96590
 C3613 C 0.77688 0.73583 0.96292
 C3614 C 0.78360 0.72919 0.95392
 H3615 H 0.78518 0.68553 0.90075
 H3616 H 0.79336 0.67807 0.88112
 H3617 H 0.82537 0.70235 0.88511
 H3618 H 0.81703 0.70995 0.90477
 H3619 H 0.76154 0.70733 0.94675
 H3620 H 0.74981 0.71914 0.96233
 H3621 H 0.78102 0.74402 0.96714
 H3622 H 0.79289 0.73236 0.95147
 C3623 C 0.80147 0.19961 0.40433
 C3624 C 0.79682 0.18829 0.39959
 C3625 C 0.80122 0.18353 0.38829
 C3626 C 0.81038 0.18997 0.38144
 C3627 C 0.81505 0.20126 0.38622
 C3628 C 0.81067 0.20600 0.39751
 C3629 C 0.79655 0.20493 0.41609
 N3630 N 0.80110 0.21587 0.42059
 N3631 N 0.79631 0.22102 0.43080
 C3632 C 0.78676 0.21544 0.43700
 N3633 N 0.78232 0.20441 0.43261
 N3634 N 0.78712 0.19925 0.42238
 C3635 C 0.78074 0.22176 0.44772
 C3636 C 0.77047 0.21630 0.45383
 C3637 C 0.76384 0.22298 0.46288
 C3638 C 0.76740 0.23518 0.46596
 C3639 C 0.77794 0.24045 0.46032
 C3640 C 0.78461 0.23378 0.45134
 H3641 H 0.78973 0.18311 0.40459
 H3642 H 0.79744 0.17478 0.38499
 H3643 H 0.82202 0.20658 0.38124
 H3644 H 0.81444 0.21477 0.40083
 H3645 H 0.76725 0.20706 0.45131
 H3646 H 0.75561 0.21886 0.46706
 H3647 H 0.78070 0.24992 0.46253
 H3648 H 0.79249 0.23827 0.44688
 C3649 C 0.69930 0.30149 0.40452
 C3650 C 0.68855 0.29620 0.39918
 C3651 C 0.68396 0.30057 0.38779
 C3652 C 0.69002 0.31034 0.38145
 C3653 C 0.70072 0.31567 0.38686
 C3654 C 0.70529 0.31132 0.39824
 C3655 C 0.70451 0.29655 0.41632
 N3656 N 0.71505 0.30154 0.42131
 N3657 N 0.72015 0.29670 0.43153
 C3658 C 0.71493 0.28667 0.43724
 N3659 N 0.70429 0.28178 0.43237
 N3660 N 0.69918 0.28662 0.42214
 C3661 C 0.72126 0.28060 0.44793
 C3662 C 0.71618 0.26984 0.45349
 C3663 C 0.72295 0.26322 0.46247
 C3664 C 0.73485 0.26728 0.46606
 C3665 C 0.73973 0.27830 0.46099
 C3666 C 0.73296 0.28496 0.45206
 H3667 H 0.68369 0.28861 0.40375
 H3668 H 0.67567 0.29623 0.38401
 H3669 H 0.70570 0.32318 0.38233
 H3670 H 0.71361 0.31561 0.40204
 H3671 H 0.70720 0.26624 0.45057
 H3672 H 0.71915 0.25463 0.46621
 H3673 H 0.74897 0.28146 0.46360
 H3674 H 0.73714 0.29322 0.44804
 C3675 C 0.69829 0.80048 0.90435
 C3676 C 0.68911 0.79407 0.89755
 C3677 C 0.68477 0.79877 0.88623
 C3678 C 0.68945 0.81003 0.88141
 C3679 C 0.69859 0.81650 0.88826
 C3680 C 0.70296 0.81178 0.89959
 C3681 C 0.70321 0.79517 0.91613
 N3682 N 0.71271 0.80080 0.92236
 N3683 N 0.71753 0.79563 0.93257
 C3684 C 0.71304 0.78462 0.93700
 N3685 N 0.70343 0.77910 0.93086
 N3686 N 0.69861 0.78426 0.92066
 C3687 C 0.71908 0.77826 0.94769
 C3688 C 0.71515 0.76626 0.95133
 C3689 C 0.72181 0.75956 0.96029
 C3690 C 0.73241 0.76477 0.96589
 C3691 C 0.73604 0.77694 0.96276
 C3692 C 0.72942 0.78365 0.95374
 H3693 H 0.68533 0.78531 0.90089
 H3694 H 0.67781 0.79344 0.88125
 H3695 H 0.70238 0.82524 0.88493
 H3696 H 0.71003 0.81698 0.90458
 H3697 H 0.70723 0.76182 0.94691
 H3698 H 0.71900 0.75010 0.96253
 H3699 H 0.74432 0.78101 0.96690
 H3700 H 0.73270 0.79287 0.95118
 C3701 C 0.19903 0.30112 0.90427
 C3702 C 0.18847 0.29567 0.89871
 C3703 C 0.18392 0.30015 0.88736
 C3704 C 0.18979 0.31020 0.88128
 C3705 C 0.20031 0.31568 0.88691
 C3706 C 0.20485 0.31121 0.89826
 C3707 C 0.20417 0.29609 0.91607
 N3708 N 0.21454 0.30118 0.92128
 N3709 N 0.21956 0.29628 0.93151
 C3710 C 0.21440 0.28609 0.93701
 N3711 N 0.20393 0.28109 0.93189
 N3712 N 0.19891 0.28600 0.92165
 C3713 C 0.22064 0.27998 0.94773
 C3714 C 0.21572 0.26896 0.95292
 C3715 C 0.22243 0.26233 0.96192
 C3716 C 0.23411 0.26665 0.96591
 C3717 C 0.23880 0.27790 0.96122
 C3718 C 0.23210 0.28456 0.95225
 H3719 H 0.18375 0.28788 0.90307
 H3720 H 0.17579 0.29567 0.88340
 H3721 H 0.20514 0.32340 0.88259
 H3722 H 0.21302 0.31563 0.90225
 H3723 H 0.20692 0.26517 0.94969
 H3724 H 0.21879 0.25355 0.96537
 H3725 H 0.24789 0.28125 0.96413
 H3726 H 0.23615 0.29302 0.94850
 C3727 C 0.19846 0.80067 0.40444
 C3728 C 0.18936 0.79416 0.39761
 C3729 C 0.18502 0.79880 0.38626
 C3730 C 0.18963 0.81010 0.38143
 C3731 C 0.19869 0.81666 0.38831
 C3732 C 0.20304 0.81200 0.39967
 C3733 C 0.20340 0.79542 0.41623
 N3734 N 0.21278 0.80119 0.42251
 N3735 N 0.21766 0.79608 0.43272
 C3736 C 0.21335 0.78498 0.43711
 N3737 N 0.20385 0.77931 0.43093
 N3738 N 0.19898 0.78442 0.42073
 C3739 C 0.21949 0.77869 0.44779
 C3740 C 0.21576 0.76662 0.45140
 C3741 C 0.22254 0.76000 0.46033
 C3742 C 0.23306 0.76536 0.46593
 C3743 C 0.23648 0.77760 0.46285
 C3744 C 0.22974 0.78424 0.45385
 H3745 H 0.18564 0.78538 0.40096
 H3746 H 0.17813 0.79340 0.38126
 H3747 H 0.20242 0.82542 0.38498
 H3748 H 0.21006 0.81727 0.40468
 H3749 H 0.20791 0.76206 0.44696
 H3750 H 0.21988 0.75049 0.46254
 H3751 H 0.24470 0.78179 0.46699
 H3752 H 0.23286 0.79351 0.45133
 C3753 C 0.69846 0.69964 0.59548
 C3754 C 0.70314 0.68832 0.60021
 C3755 C 0.69882 0.68361 0.61156
 C3756 C 0.68972 0.69010 0.61846
 C3757 C 0.68504 0.70139 0.61368
 C3758 C 0.68932 0.70608 0.60234
 C3759 C 0.70331 0.70496 0.58368
 N3760 N 0.69870 0.71590 0.57920
 N3761 N 0.70346 0.72107 0.56899
 C3762 C 0.71303 0.71554 0.56278
 N3763 N 0.71752 0.70450 0.56715
 N3764 N 0.71276 0.69931 0.57737
 C3765 C 0.71903 0.72192 0.55209
 C3766 C 0.72931 0.71649 0.54595
 C3767 C 0.73592 0.72322 0.53694
 C3768 C 0.73234 0.73544 0.53392
 C3769 C 0.72179 0.74069 0.53960
 C3770 C 0.71514 0.73397 0.54854
 H3771 H 0.71019 0.68311 0.59517
 H3772 H 0.70261 0.67485 0.61487
 H3773 H 0.67811 0.70675 0.61870
 H3774 H 0.68554 0.71485 0.59903
 H3775 H 0.73255 0.70724 0.54842
 H3776 H 0.74416 0.71912 0.53273
 H3777 H 0.71901 0.75018 0.53744
 H3778 H 0.70726 0.73843 0.55303
 C3779 C 0.69872 0.19950 0.09539
 C3780 C 0.68967 0.20599 0.10233
 C3781 C 0.68539 0.20128 0.11366
 C3782 C 0.69000 0.18992 0.11836
 C3783 C 0.69902 0.18339 0.11140
 C3784 C 0.70333 0.18812 0.10005
 C3785 C 0.70353 0.20481 0.08359
 N3786 N 0.71288 0.19909 0.07719
 N3787 N 0.71762 0.20427 0.06696
 C3788 C 0.71320 0.21537 0.06267
 N3789 N 0.70374 0.22098 0.06897
 N3790 N 0.69901 0.21581 0.07919
 C3791 C 0.71921 0.22174 0.05197
 C3792 C 0.71542 0.23385 0.04853
 C3793 C 0.72209 0.24056 0.03959
 C3794 C 0.73255 0.23523 0.03382
 C3795 C 0.73601 0.22295 0.03673
 C3796 C 0.72939 0.21624 0.04574
 H3797 H 0.68594 0.21480 0.09907
 H3798 H 0.67853 0.20667 0.11873
 H3799 H 0.70275 0.17458 0.11465
 H3800 H 0.71031 0.18288 0.09496
 H3801 H 0.70762 0.23837 0.05309
 H3802 H 0.71940 0.25009 0.03751
 H3803 H 0.74418 0.21879 0.03245
 H3804 H 0.73254 0.20693 0.04813
 C3805 C 0.19865 0.69936 0.09515
 C3806 C 0.18955 0.70589 0.10199
 C3807 C 0.18518 0.70123 0.11331
 C3808 C 0.18976 0.68989 0.11811
 C3809 C 0.19881 0.68332 0.11123
 C3810 C 0.20320 0.68800 0.09989
 C3811 C 0.20361 0.70463 0.08337
 N3812 N 0.21293 0.69879 0.07704
 N3813 N 0.21780 0.70389 0.06683
 C3814 C 0.21355 0.71504 0.06249
 N3815 N 0.20412 0.72077 0.06873
 N3816 N 0.19925 0.71568 0.07894
 C3817 C 0.21969 0.72130 0.05180
 C3818 C 0.21605 0.73342 0.04826
 C3819 C 0.22284 0.74001 0.03932
 C3820 C 0.23328 0.73455 0.03364
 C3821 C 0.23660 0.72226 0.03664
 C3822 C 0.22985 0.71566 0.04564
 H3823 H 0.18585 0.71469 0.09866
 H3824 H 0.17828 0.70664 0.11832
 H3825 H 0.20251 0.67452 0.11453
 H3826 H 0.21021 0.68271 0.09487
 H3827 H 0.20826 0.73805 0.05276
 H3828 H 0.22026 0.74956 0.03717
 H3829 H 0.24475 0.71799 0.03243
 H3830 H 0.23289 0.70633 0.04811
 C3831 C 0.19963 0.19805 0.59541
 C3832 C 0.20611 0.18892 0.60224
 C3833 C 0.20145 0.18459 0.61358
 C3834 C 0.19016 0.18925 0.61840
 C3835 C 0.18362 0.19833 0.61152
 C3836 C 0.18830 0.20268 0.60017
 C3837 C 0.20490 0.20298 0.58362
 N3838 N 0.19919 0.21243 0.57738
 N3839 N 0.20432 0.21728 0.56717
 C3840 C 0.21537 0.21287 0.56274
 N3841 N 0.22098 0.20330 0.56888
 N3842 N 0.21585 0.19845 0.57908
 C3843 C 0.22169 0.21896 0.55205
 C3844 C 0.23372 0.21511 0.54839
 C3845 C 0.24037 0.22183 0.53944
 C3846 C 0.23507 0.23240 0.53387
 C3847 C 0.22286 0.23595 0.53700
 C3848 C 0.21620 0.22927 0.54601
 H3849 H 0.21489 0.18517 0.59889
 H3850 H 0.20683 0.17767 0.61859
 H3851 H 0.17485 0.20209 0.61484
 H3852 H 0.18304 0.20971 0.59516
 H3853 H 0.23823 0.20721 0.55280
 H3854 H 0.24986 0.21908 0.53720
 H3855 H 0.21872 0.24421 0.53288
 H3856 H 0.20695 0.23249 0.54858
   
