data_POSCAR
  _audit_creation_date              2014-09-24
  _audit_creation_method            'ToBaCCo'
  _symmetry_space_group_name_H-M    'P1'
  _symmetry_Int_Tables_number       1
  _symmetry_cell_setting            triclinic
  loop_
  _symmetry_equiv_pos_as_xyz
 x,y,z
_cell_length_a 89.6578
_cell_length_b 89.7085
_cell_length_c 90.7877
_cell_angle_alpha 89.922900
_cell_angle_beta 89.977000
_cell_angle_gamma 89.876300
loop_
  _atom_site_label
  _atom_site_type_symbol
  _atom_site_fract_x
  _atom_site_fract_y
  _atom_site_fract_z
N1 N 0.35313 0.31204 0.32353
 N2 N 0.35293 0.32287 0.31376
 C3 C 0.36383 0.32042 0.30380
 C4 C 0.37115 0.30730 0.30753
 C5 C 0.36402 0.30234 0.32011
 H6 H 0.36622 0.32756 0.29450
 H7 H 0.36677 0.29255 0.32651
 Cu8 Cu 0.33841 0.33903 0.31520
 Cu9 Cu 0.33964 0.31137 0.34022
 Cu10 Cu 0.31324 0.33939 0.34285
 N11 N 0.32308 0.35443 0.31657
 N12 N 0.31347 0.35457 0.32751
 C13 C 0.30449 0.36651 0.32612
 C14 C 0.30859 0.37429 0.31359
 C15 C 0.32041 0.36625 0.30776
 H16 H 0.29554 0.36927 0.33364
 H17 H 0.32677 0.36901 0.29801
 N18 N 0.31483 0.32302 0.35729
 N19 N 0.32508 0.31249 0.35635
 C20 C 0.32365 0.30319 0.36789
 C21 C 0.31189 0.30801 0.37651
 C22 C 0.30652 0.32061 0.36943
 H23 H 0.33056 0.29350 0.36982
 H24 H 0.29741 0.32763 0.37302
 H25 H 0.32249 0.32288 0.32996
 H26 H 0.33558 0.33409 0.34150
 N27 N 0.35399 0.81564 -0.17683
 N28 N 0.35398 0.82736 -0.18551
 C29 C 0.36549 0.82638 -0.19495
 C30 C 0.37324 0.81326 -0.19217
 C31 C 0.36548 0.80670 -0.18056
 H32 H 0.36791 0.83464 -0.20327
 H33 H 0.36819 0.79644 -0.17489
 Cu34 Cu 0.33894 0.84285 -0.18393
 Cu35 Cu 0.33966 0.81339 -0.16073
 Cu36 Cu 0.31658 0.84392 -0.15455
 N37 N 0.32280 0.85726 -0.18249
 N38 N 0.31440 0.85790 -0.17069
 C39 C 0.30486 0.86940 -0.17190
 C40 C 0.30725 0.87638 -0.18537
 C41 C 0.31874 0.86824 -0.19180
 H42 H 0.29676 0.87227 -0.16356
 H43 H 0.32411 0.87034 -0.20225
 N44 N 0.31601 0.82576 -0.14255
 N45 N 0.32458 0.81402 -0.14484
 C46 C 0.32103 0.80339 -0.13490
 C47 C 0.30949 0.80869 -0.12619
 C48 C 0.30663 0.82288 -0.13137
 H49 H 0.32621 0.79252 -0.13422
 H50 H 0.29828 0.83055 -0.12731
 H51 H 0.32299 0.82716 -0.16903
 H52 H 0.33839 0.83560 -0.15795
 N53 N 0.85108 0.31233 -0.17433
 N54 N 0.85163 0.32254 -0.18467
 C55 C 0.86311 0.31955 -0.19376
 C56 C 0.87017 0.30675 -0.18886
 C57 C 0.86219 0.30243 -0.17650
 H58 H 0.86608 0.32616 -0.20327
 H59 H 0.86451 0.29303 -0.16940
 Cu60 Cu 0.83721 0.33863 -0.18540
 Cu61 Cu 0.83652 0.31319 -0.15837
 Cu62 Cu 0.81423 0.34496 -0.15706
 N63 N 0.82288 0.35482 -0.18591
 N64 N 0.81390 0.35734 -0.17479
 C65 C 0.80534 0.36929 -0.17788
 C66 C 0.80908 0.37455 -0.19184
 C67 C 0.82028 0.36497 -0.19655
 H68 H 0.79699 0.37368 -0.17048
 H69 H 0.82625 0.36535 -0.20686
 N70 N 0.81306 0.32878 -0.14232
 N71 N 0.82128 0.31657 -0.14308
 C72 C 0.81771 0.30756 -0.13177
 C73 C 0.80669 0.31435 -0.12345
 C74 C 0.80402 0.32781 -0.13049
 H75 H 0.82296 0.29693 -0.12963
 H76 H 0.79596 0.33620 -0.12736
 H77 H 0.82028 0.32617 -0.16869
 H78 H 0.83567 0.33585 -0.15872
 N79 N 0.85473 0.81375 0.32509
 N80 N 0.85535 0.82474 0.31551
 C81 C 0.86684 0.82223 0.30621
 C82 C 0.87366 0.80889 0.31014
 C83 C 0.86566 0.80391 0.32220
 H84 H 0.86976 0.82933 0.29702
 H85 H 0.86761 0.79382 0.32842
 Cu86 Cu 0.84066 0.84091 0.31568
 Cu87 Cu 0.83962 0.81243 0.34034
 Cu88 Cu 0.81148 0.83849 0.33914
 N89 N 0.82373 0.85472 0.31468
 N90 N 0.81235 0.85330 0.32366
 C91 C 0.80211 0.86376 0.32058
 C92 C 0.80723 0.87247 0.30901
 C93 C 0.82111 0.86635 0.30557
 H94 H 0.79183 0.86501 0.32664
 H95 H 0.82867 0.86991 0.29698
 N96 N 0.81238 0.82278 0.35413
 N97 N 0.82328 0.81293 0.35481
 C98 C 0.82078 0.80370 0.36626
 C99 C 0.80760 0.80793 0.37307
 C100 C 0.80263 0.82008 0.36507
 H101 H 0.82785 0.79441 0.36926
 H102 H 0.79269 0.82658 0.36716
 H103 H 0.82400 0.82308 0.32739
 H104 H 0.83423 0.83480 0.34116
 N105 N 0.64475 0.68702 0.32565
 N106 N 0.64549 0.67682 0.31530
 C107 C 0.63445 0.67928 0.30548
 C108 C 0.62651 0.69177 0.30993
 C109 C 0.63336 0.69634 0.32278
 H110 H 0.63261 0.67277 0.29564
 H111 H 0.63027 0.70573 0.32960
 Cu112 Cu 0.66140 0.66197 0.31546
 Cu113 Cu 0.65875 0.68794 0.34195
 Cu114 Cu 0.68706 0.66164 0.34254
 N115 N 0.67713 0.64695 0.31613
 N116 N 0.68723 0.64710 0.32662
 C117 C 0.69699 0.63592 0.32440
 C118 C 0.69279 0.62826 0.31184
 C119 C 0.68010 0.63557 0.30688
 H120 H 0.70630 0.63341 0.33156
 H121 H 0.67368 0.63298 0.29715
 N122 N 0.68489 0.67725 0.35767
 N123 N 0.67395 0.68711 0.35754
 C124 C 0.67532 0.69609 0.36933
 C125 C 0.68774 0.69173 0.37727
 C126 C 0.69356 0.67976 0.36953
 H127 H 0.66794 0.70529 0.37184
 H128 H 0.70327 0.67322 0.37243
 H129 H 0.67648 0.67828 0.33087
 H130 H 0.66441 0.66551 0.34194
 N131 N 0.64598 0.18890 -0.17528
 N132 N 0.64325 0.17698 -0.18318
 C133 C 0.63154 0.17976 -0.19208
 C134 C 0.62671 0.19427 -0.18962
 C135 C 0.63620 0.19967 -0.17886
 H136 H 0.62695 0.17179 -0.19975
 H137 H 0.63589 0.21054 -0.17375
 Cu138 Cu 0.65517 0.15893 -0.18094
 Cu139 Cu 0.66155 0.18945 -0.16052
 Cu140 Cu 0.68652 0.16021 -0.16001
 N141 N 0.67104 0.14420 -0.18276
 N142 N 0.68335 0.14490 -0.17496
 C143 C 0.69235 0.13350 -0.17878
 C144 C 0.68526 0.12503 -0.18953
 C145 C 0.67171 0.13228 -0.19171
 H146 H 0.70314 0.13148 -0.17387
 H147 H 0.66297 0.12934 -0.19935
 N148 N 0.68745 0.17692 -0.14585
 N149 N 0.67791 0.18813 -0.14628
 C150 C 0.68127 0.19787 -0.13557
 C151 C 0.69354 0.19262 -0.12793
 C152 C 0.69713 0.17923 -0.13471
 H153 H 0.67507 0.20795 -0.13331
 H154 H 0.70620 0.17182 -0.13183
 H155 H 0.67523 0.17505 -0.17295
 H156 H 0.66488 0.16645 -0.15709
 N157 N 0.14503 0.68558 -0.17607
 N158 N 0.14665 0.67557 -0.18650
 C159 C 0.13589 0.67758 -0.19668
 C160 C 0.12701 0.68943 -0.19232
 C161 C 0.13316 0.69421 -0.17917
 H162 H 0.13455 0.67087 -0.20647
 H163 H 0.12949 0.70350 -0.17251
 Cu164 Cu 0.16267 0.66093 -0.18572
 Cu165 Cu 0.15873 0.68715 -0.15954
 Cu166 Cu 0.18822 0.66215 -0.15857
 N167 N 0.17929 0.64699 -0.18498
 N168 N 0.18930 0.64760 -0.17443
 C169 C 0.19946 0.63674 -0.17653
 C170 C 0.19559 0.62883 -0.18905
 C171 C 0.18273 0.63568 -0.19412
 H172 H 0.20879 0.63457 -0.16929
 H173 H 0.17639 0.63271 -0.20380
 N174 N 0.18515 0.67766 -0.14351
 N175 N 0.17378 0.68702 -0.14375
 C176 C 0.17469 0.69610 -0.13199
 C177 C 0.18726 0.69234 -0.12395
 C178 C 0.19361 0.68058 -0.13161
 H179 H 0.16692 0.70500 -0.12958
 H180 H 0.20359 0.67451 -0.12866
 H181 H 0.17690 0.67821 -0.17054
 H182 H 0.16543 0.66506 -0.15931
 N183 N 0.14560 0.18813 0.32575
 N184 N 0.14538 0.17809 0.31522
 C185 C 0.13390 0.18111 0.30608
 C186 C 0.12664 0.19379 0.31112
 C187 C 0.13439 0.19787 0.32365
 H188 H 0.13130 0.17485 0.29625
 H189 H 0.13211 0.20731 0.33070
 Cu190 Cu 0.16071 0.16266 0.31410
 Cu191 Cu 0.16073 0.18842 0.34109
 Cu192 Cu 0.18832 0.16150 0.33913
 N193 N 0.17626 0.14740 0.31336
 N194 N 0.18711 0.14730 0.32308
 C195 C 0.19668 0.13622 0.31991
 C196 C 0.19162 0.12888 0.30751
 C197 C 0.17856 0.13624 0.30366
 H198 H 0.20656 0.13365 0.32624
 H199 H 0.17148 0.13385 0.29433
 N200 N 0.18767 0.17675 0.35462
 N201 N 0.17703 0.18688 0.35555
 C202 C 0.17977 0.19570 0.36724
 C203 C 0.19281 0.19093 0.37391
 C204 C 0.19749 0.17889 0.36562
 H205 H 0.17299 0.20513 0.37044
 H206 H 0.20731 0.17215 0.36749
 H207 H 0.17717 0.17864 0.32848
 H208 H 0.16571 0.16599 0.34028
 N209 N 0.64737 0.31040 0.67649
 N210 N 0.64694 0.32090 0.68654
 C211 C 0.63553 0.31816 0.69583
 C212 C 0.62845 0.30522 0.69132
 C213 C 0.63630 0.30064 0.67899
 H214 H 0.63275 0.32491 0.70529
 H215 H 0.63408 0.29098 0.67225
 Cu216 Cu 0.66173 0.33672 0.68646
 Cu217 Cu 0.66238 0.30992 0.66104
 Cu218 Cu 0.68881 0.33823 0.66090
 N219 N 0.67667 0.35237 0.68678
 N220 N 0.68716 0.35306 0.67667
 C221 C 0.69616 0.36469 0.67967
 C222 C 0.69111 0.37156 0.69242
 C223 C 0.67870 0.36342 0.69657
 H224 H 0.70589 0.36766 0.67328
 H225 H 0.67170 0.36538 0.70606
 N226 N 0.68840 0.32203 0.64604
 N227 N 0.67837 0.31129 0.64630
 C228 C 0.68119 0.30167 0.63531
 C229 C 0.69364 0.30646 0.62770
 C230 C 0.69788 0.31949 0.63476
 H231 H 0.67464 0.29186 0.63299
 H232 H 0.70739 0.32638 0.63208
 H233 H 0.67897 0.32114 0.67252
 H234 H 0.66666 0.33258 0.66040
 N235 N 0.64491 0.81347 1.17468
 N236 N 0.64526 0.82426 1.18446
 C237 C 0.63371 0.82267 1.19379
 C238 C 0.62563 0.81022 1.18968
 C239 C 0.63311 0.80463 1.17751
 H240 H 0.63139 0.82997 1.20296
 H241 H 0.63001 0.79505 1.17098
 Cu242 Cu 0.66065 0.83950 1.18435
 Cu243 Cu 0.65932 0.81221 1.15860
 Cu244 Cu 0.68739 0.83861 1.15844
 N245 N 0.67733 0.85335 1.18456
 N246 N 0.68774 0.85288 1.17441
 C247 C 0.69789 0.86353 1.17710
 C248 C 0.69367 0.87116 1.18967
 C249 C 0.68053 0.86437 1.19411
 H250 H 0.70752 0.86567 1.17027
 H251 H 0.67386 0.86714 1.20365
 N252 N 0.68539 0.82336 1.14316
 N253 N 0.67497 0.81301 1.14325
 C254 C 0.67673 0.80432 1.13122
 C255 C 0.68875 0.80965 1.12318
 C256 C 0.69394 0.82166 1.13113
 H257 H 0.66959 0.79509 1.12829
 H258 H 0.70334 0.82864 1.12834
 H259 H 0.67615 0.82225 1.17037
 H260 H 0.66453 0.83449 1.15821
 N261 N 0.14886 0.30968 1.17825
 N262 N 0.14752 0.32122 1.18704
 C263 C 0.13553 0.31914 1.19581
 C264 C 0.12915 0.30548 1.19235
 C265 C 0.13794 0.29988 1.18111
 H266 H 0.13193 0.32680 1.20429
 H267 H 0.13653 0.28944 1.17535
 Cu268 Cu 0.16211 0.33738 1.18633
 Cu269 Cu 0.16495 0.30756 1.16419
 Cu270 Cu 0.18665 0.33877 1.15803
 N271 N 0.17602 0.35394 1.18397
 N272 N 0.18516 0.35456 1.17266
 C273 C 0.19346 0.36699 1.17364
 C274 C 0.18939 0.37463 1.18627
 C275 C 0.17826 0.36598 1.19257
 H276 H 0.20216 0.36999 1.16595
 H277 H 0.17224 0.36830 1.20263
 N278 N 0.18668 0.32134 1.14480
 N279 N 0.17863 0.30936 1.14745
 C280 C 0.18132 0.29916 1.13694
 C281 C 0.19172 0.30487 1.12717
 C282 C 0.19484 0.31901 1.13253
 H283 H 0.17597 0.28840 1.13644
 H284 H 0.20269 0.32692 1.12803
 H285 H 0.18058 0.32279 1.17260
 H286 H 0.16529 0.33031 1.16069
 N287 N 0.14380 0.81474 0.67375
 N288 N 0.14515 0.82415 0.68475
 C289 C 0.13351 0.82227 0.69402
 C290 C 0.12439 0.81118 0.68837
 C291 C 0.13134 0.80668 0.67555
 H292 H 0.13163 0.82869 0.70392
 H293 H 0.12767 0.79804 0.66810
 Cu294 Cu 0.16167 0.83831 0.68548
 Cu295 Cu 0.15821 0.81325 0.65795
 Cu296 Cu 0.18669 0.83892 0.65749
 N297 N 0.17701 0.85366 0.68391
 N298 N 0.18658 0.85382 0.67294
 C299 C 0.19547 0.86579 0.67421
 C300 C 0.19132 0.87365 0.68665
 C301 C 0.17957 0.86558 0.69259
 H302 H 0.20430 0.86857 0.66659
 H303 H 0.17312 0.86840 0.70226
 N304 N 0.18492 0.82297 0.64276
 N305 N 0.17385 0.81334 0.64284
 C306 C 0.17528 0.80418 0.63121
 C307 C 0.18788 0.80822 0.62339
 C308 C 0.19376 0.82016 0.63108
 H309 H 0.16775 0.79517 0.62864
 H310 H 0.20354 0.82654 0.62817
 H311 H 0.17620 0.82216 0.66921
 H312 H 0.16397 0.83557 0.65892
 N313 N 0.35585 0.68323 0.67487
 N314 N 0.35592 0.67191 0.68408
 C315 C 0.36795 0.67294 0.69288
 C316 C 0.37586 0.68561 0.68906
 C317 C 0.36781 0.69188 0.67757
 H318 H 0.37056 0.66525 0.70169
 H319 H 0.37048 0.70195 0.67158
 Cu320 Cu 0.34011 0.65707 0.68434
 Cu321 Cu 0.34020 0.68594 0.66018
 Cu322 Cu 0.31068 0.66127 0.66170
 N323 N 0.32276 0.64407 0.68547
 N324 N 0.31126 0.64590 0.67670
 C325 C 0.30086 0.63562 0.67988
 C326 C 0.30604 0.62680 0.69131
 C327 C 0.32003 0.63251 0.69457
 H328 H 0.29036 0.63456 0.67414
 H329 H 0.32759 0.62866 0.70304
 N330 N 0.31189 0.67743 0.64718
 N331 N 0.32323 0.68674 0.64631
 C332 C 0.32078 0.69626 0.63503
 C333 C 0.30717 0.69281 0.62864
 C334 C 0.30193 0.68080 0.63663
 H335 H 0.32822 0.70516 0.63181
 H336 H 0.29169 0.67479 0.63471
 H337 H 0.32427 0.67608 0.67322
 H338 H 0.33362 0.66404 0.65912
 N339 N 0.35769 0.18482 1.17640
 N340 N 0.35829 0.17329 1.18531
 C341 C 0.37030 0.17461 1.19411
 C342 C 0.37762 0.18770 1.19056
 C343 C 0.36926 0.19390 1.17925
 H344 H 0.37336 0.16675 1.20262
 H345 H 0.37150 0.20416 1.17341
 Cu346 Cu 0.34308 0.15795 1.18467
 Cu347 Cu 0.34204 0.18703 1.16163
 Cu348 Cu 0.31481 0.15946 1.16053
 N349 N 0.32781 0.14268 1.18432
 N350 N 0.31662 0.14337 1.17500
 C351 C 0.30751 0.13167 1.17736
 C352 C 0.31338 0.12316 1.18876
 C353 C 0.32625 0.13053 1.19288
 H354 H 0.29745 0.12948 1.17119
 H355 H 0.33376 0.12744 1.20167
 N356 N 0.31509 0.17670 1.14689
 N357 N 0.32536 0.18721 1.14747
 C358 C 0.32265 0.19729 1.13680
 C359 C 0.31010 0.19296 1.12906
 C360 C 0.30561 0.17982 1.13577
 H361 H 0.32953 0.20690 1.13459
 H362 H 0.29613 0.17306 1.13278
 H363 H 0.32582 0.17522 1.17288
 H364 H 0.33721 0.16458 1.15929
 N365 N 0.85505 0.68537 1.17756
 N366 N 0.85479 0.67379 1.18640
 C367 C 0.86634 0.67471 1.19586
 C368 C 0.87425 0.68760 1.19278
 C369 C 0.86671 0.69409 1.18109
 H370 H 0.86873 0.66667 1.20441
 H371 H 0.86964 0.70425 1.17538
 Cu372 Cu 0.83939 0.65860 1.18495
 Cu373 Cu 0.84055 0.68809 1.16181
 Cu374 Cu 0.81269 0.66159 1.15905
 N375 N 0.82297 0.64447 1.18373
 N376 N 0.81264 0.64571 1.17360
 C377 C 0.80246 0.63488 1.17548
 C378 C 0.80658 0.62631 1.18753
 C379 C 0.81972 0.63276 1.19248
 H380 H 0.79271 0.63353 1.16865
 H381 H 0.82631 0.62938 1.20186
 N382 N 0.81451 0.67848 1.14537
 N383 N 0.82490 0.68880 1.14656
 C384 C 0.82297 0.69892 1.13572
 C385 C 0.81084 0.69469 1.12728
 C386 C 0.80577 0.68169 1.13375
 H387 H 0.83004 0.70850 1.13392
 H388 H 0.79629 0.67515 1.13033
 H389 H 0.82359 0.67678 1.17241
 H390 H 0.83540 0.66586 1.15931
 N391 N 0.85650 0.18527 0.67641
 N392 N 0.85701 0.17385 0.68545
 C393 C 0.86895 0.17523 0.69432
 C394 C 0.87633 0.18826 0.69069
 C395 C 0.86807 0.19436 0.67926
 H396 H 0.87194 0.16744 0.70291
 H397 H 0.87041 0.20454 0.67331
 Cu398 Cu 0.84190 0.15843 0.68488
 Cu399 Cu 0.84103 0.18720 0.66145
 Cu400 Cu 0.81403 0.15940 0.66009
 N401 N 0.82683 0.14300 0.68420
 N402 N 0.81575 0.14340 0.67474
 C403 C 0.80692 0.13145 0.67703
 C404 C 0.81294 0.12308 0.68846
 C405 C 0.82552 0.13081 0.69271
 H406 H 0.79700 0.12893 0.67074
 H407 H 0.83305 0.12786 0.70155
 N408 N 0.81440 0.17660 0.64632
 N409 N 0.82457 0.18719 0.64709
 C410 C 0.82193 0.19733 0.63649
 C411 C 0.80951 0.19300 0.62856
 C412 C 0.80504 0.17975 0.63508
 H413 H 0.82874 0.20704 0.63447
 H414 H 0.79561 0.17298 0.63192
 H415 H 0.82463 0.17533 0.67251
 H416 H 0.83640 0.16461 0.65929
 N417 N 0.31394 0.35646 0.67370
 N418 N 0.32413 0.35607 0.68410
 C419 C 0.32225 0.36797 0.69298
 C420 C 0.31035 0.37629 0.68769
 C421 C 0.30537 0.36862 0.67547
 H422 H 0.32916 0.37057 0.70239
 H423 H 0.29607 0.37157 0.66848
 Cu424 Cu 0.33906 0.34024 0.68446
 Cu425 Cu 0.31221 0.34122 0.65868
 Cu426 Cu 0.33808 0.31256 0.65942
 N427 N 0.35335 0.32386 0.68493
 N428 N 0.35285 0.31312 0.67509
 C429 C 0.36377 0.30323 0.67789
 C430 C 0.37163 0.30799 0.69013
 C431 C 0.36470 0.32116 0.69429
 H432 H 0.36591 0.29337 0.67139
 H433 H 0.36759 0.32813 0.70355
 N434 N 0.32221 0.31398 0.64448
 N435 N 0.31222 0.32481 0.64440
 C436 C 0.30253 0.32247 0.63334
 C437 C 0.30662 0.30959 0.62604
 C438 C 0.31919 0.30452 0.63335
 H439 H 0.29321 0.32965 0.63071
 H440 H 0.32543 0.29450 0.63096
 H441 H 0.32199 0.32430 0.67084
 H442 H 0.33450 0.33527 0.65844
 N443 N 0.31429 0.85576 0.17690
 N444 N 0.32546 0.85535 0.18626
 C445 C 0.32427 0.86698 0.19556
 C446 C 0.31161 0.87506 0.19189
 C447 C 0.30558 0.86757 0.17998
 H448 H 0.33197 0.86934 0.20441
 H449 H 0.29572 0.87063 0.17382
 Cu450 Cu 0.34053 0.83970 0.18535
 Cu451 Cu 0.31198 0.84121 0.16119
 Cu452 Cu 0.33942 0.81424 0.15812
 N453 N 0.35594 0.82452 0.18322
 N454 N 0.35558 0.81485 0.17237
 C455 C 0.36760 0.80590 0.17323
 C456 C 0.37596 0.81011 0.18533
 C457 C 0.36821 0.82195 0.19144
 H458 H 0.36995 0.79684 0.16575
 H459 H 0.37139 0.82835 0.20102
 N460 N 0.32217 0.81537 0.14478
 N461 N 0.31162 0.82555 0.14599
 C462 C 0.30140 0.82332 0.13534
 C463 C 0.30575 0.81114 0.12698
 C464 C 0.31897 0.80641 0.13334
 H465 H 0.29163 0.83018 0.13365
 H466 H 0.32572 0.79703 0.12997
 H467 H 0.32341 0.82402 0.17136
 H468 H 0.33453 0.83676 0.15932
 N469 N 0.81317 0.35595 0.17555
 N470 N 0.82253 0.35415 0.18653
 C471 C 0.82021 0.36487 0.19661
 C472 C 0.80869 0.37392 0.19175
 C473 C 0.80453 0.36794 0.17828
 H474 H 0.82647 0.36598 0.20672
 H475 H 0.79564 0.37178 0.17117
 Cu476 Cu 0.83650 0.33772 0.18690
 Cu477 Cu 0.81261 0.34211 0.15895
 Cu478 Cu 0.83985 0.31441 0.15812
 N479 N 0.85356 0.32469 0.18484
 N480 N 0.85461 0.31500 0.17404
 C481 C 0.86731 0.30708 0.17574
 C482 C 0.87465 0.31232 0.18814
 C483 C 0.86558 0.32350 0.19358
 H484 H 0.87112 0.29846 0.16832
 H485 H 0.86751 0.33018 0.20330
 N486 N 0.82392 0.31619 0.14308
 N487 N 0.81387 0.32698 0.14321
 C488 C 0.80491 0.32549 0.13141
 C489 C 0.80946 0.31316 0.12342
 C490 C 0.82154 0.30752 0.13119
 H491 H 0.79558 0.33271 0.12891
 H492 H 0.82823 0.29794 0.12825
 H493 H 0.82188 0.32359 0.16906
 H494 H 0.83515 0.33682 0.16017
 N495 N 0.81139 0.85388 0.67803
 N496 N 0.82256 0.85462 0.68736
 C497 C 0.81990 0.86582 0.69695
 C498 C 0.80627 0.87229 0.69344
 C499 C 0.80128 0.86441 0.68134
 H500 H 0.82718 0.86884 0.70595
 H501 H 0.79109 0.86630 0.67527
 Cu502 Cu 0.83926 0.84059 0.68626
 Cu503 Cu 0.81047 0.83944 0.66223
 Cu504 Cu 0.83823 0.81291 0.66089
 N505 N 0.85387 0.82436 0.68606
 N506 N 0.85327 0.81366 0.67620
 C507 C 0.86424 0.80378 0.67879
 C508 C 0.87224 0.80843 0.69096
 C509 C 0.86536 0.82161 0.69527
 H510 H 0.86626 0.79393 0.67224
 H511 H 0.86829 0.82848 0.70460
 N512 N 0.82204 0.81394 0.64634
 N513 N 0.81133 0.82400 0.64697
 C514 C 0.80168 0.82160 0.63588
 C515 C 0.80654 0.80944 0.62785
 C516 C 0.81953 0.80489 0.63479
 H517 H 0.79186 0.82827 0.63375
 H518 H 0.82646 0.79549 0.63183
 H519 H 0.82246 0.82346 0.67380
 H520 H 0.83318 0.83537 0.66054
 N521 N 0.68717 0.64767 0.67437
 N522 N 0.67606 0.64586 0.68363
 C523 C 0.67925 0.63444 0.69274
 C524 C 0.69313 0.62876 0.68899
 C525 C 0.69783 0.63749 0.67729
 H526 H 0.67201 0.63057 0.70145
 H527 H 0.70805 0.63628 0.67108
 Cu528 Cu 0.65826 0.65825 0.68281
 Cu529 Cu 0.68663 0.66258 0.65882
 Cu530 Cu 0.65703 0.68731 0.65917
 N531 N 0.64307 0.67368 0.68423
 N532 N 0.64266 0.68502 0.67507
 C533 C 0.63104 0.69385 0.67854
 C534 C 0.62370 0.68772 0.69053
 C535 C 0.63168 0.67490 0.69384
 H536 H 0.62801 0.70386 0.67260
 H537 H 0.62947 0.66711 0.70266
 N538 N 0.67273 0.68774 0.64399
 N539 N 0.68409 0.67837 0.64397
 C540 C 0.69289 0.68140 0.63234
 C541 C 0.68679 0.69325 0.62462
 C542 C 0.67398 0.69695 0.63233
 H543 H 0.70287 0.67525 0.62955
 H544 H 0.66620 0.70578 0.62970
 H545 H 0.67372 0.67711 0.67121
 H546 H 0.66368 0.66531 0.65740
 N547 N 0.68698 0.14546 0.17453
 N548 N 0.67590 0.14407 0.18389
 C549 C 0.67861 0.13234 0.19277
 C550 C 0.69213 0.12603 0.18877
 C551 C 0.69710 0.13468 0.17712
 H552 H 0.67140 0.12884 0.20167
 H553 H 0.70729 0.13323 0.17091
 Cu554 Cu 0.65909 0.15784 0.18397
 Cu555 Cu 0.68753 0.16116 0.15980
 Cu556 Cu 0.65940 0.18752 0.16098
 N557 N 0.64404 0.17346 0.18499
 N558 N 0.64432 0.18507 0.17617
 C559 C 0.63277 0.19409 0.17941
 C560 C 0.62477 0.18781 0.19091
 C561 C 0.63228 0.17469 0.19415
 H562 H 0.63028 0.20436 0.17368
 H563 H 0.62952 0.16675 0.20267
 N564 N 0.67562 0.18805 0.14635
 N565 N 0.68622 0.17785 0.14580
 C566 C 0.69540 0.18097 0.13448
 C567 C 0.69039 0.19378 0.12756
 C568 C 0.67783 0.19799 0.13541
 H569 H 0.70510 0.17444 0.13156
 H570 H 0.67066 0.20741 0.13314
 H571 H 0.67560 0.17608 0.17264
 H572 H 0.66479 0.16523 0.15867
 N573 N 0.18767 0.64601 0.17572
 N574 N 0.17686 0.64577 0.18549
 C575 C 0.17942 0.63450 0.19505
 C576 C 0.19262 0.62745 0.19105
 C577 C 0.19744 0.63506 0.17870
 H578 H 0.17246 0.63185 0.20442
 H579 H 0.20736 0.63281 0.17230
 Cu580 Cu 0.16109 0.66086 0.18495
 Cu581 Cu 0.18882 0.66066 0.16004
 Cu582 Cu 0.16116 0.68749 0.15858
 N583 N 0.14556 0.67615 0.18399
 N584 N 0.14584 0.68655 0.17377
 C585 C 0.13451 0.69612 0.17604
 C586 C 0.12664 0.69154 0.18835
 C587 C 0.13393 0.67876 0.19308
 H588 H 0.13226 0.70579 0.16928
 H589 H 0.13127 0.67218 0.20270
 N590 N 0.17766 0.68653 0.14421
 N591 N 0.18823 0.67631 0.14492
 C592 C 0.19815 0.67872 0.13408
 C593 C 0.19369 0.69109 0.12609
 C594 C 0.18059 0.69572 0.13279
 H595 H 0.20792 0.67195 0.13210
 H596 H 0.17389 0.70528 0.12979
 H597 H 0.17744 0.67744 0.17108
 H598 H 0.16612 0.66509 0.15888
 N599 N 0.18386 0.14491 0.67483
 N600 N 0.17290 0.14444 0.68444
 C601 C 0.17433 0.13216 0.69280
 C602 C 0.18687 0.12447 0.68830
 C603 C 0.19276 0.13293 0.67690
 H604 H 0.16681 0.12902 0.70157
 H605 H 0.20250 0.13035 0.67035
 Cu606 Cu 0.15755 0.15963 0.68525
 Cu607 Cu 0.18496 0.16055 0.65984
 Cu608 Cu 0.15699 0.18744 0.66064
 N609 N 0.14202 0.17468 0.68550
 N610 N 0.14195 0.18571 0.67598
 C611 C 0.13013 0.19457 0.67868
 C612 C 0.12232 0.18873 0.69052
 C613 C 0.13020 0.17608 0.69454
 H614 H 0.12732 0.20440 0.67237
 H615 H 0.12762 0.16857 0.70349
 N616 N 0.17311 0.18737 0.64596
 N617 N 0.18387 0.17730 0.64565
 C618 C 0.19275 0.18009 0.63397
 C619 C 0.18721 0.19243 0.62653
 C620 C 0.17481 0.19674 0.63452
 H621 H 0.20220 0.17333 0.63077
 H622 H 0.16746 0.20597 0.63206
 H623 H 0.17396 0.17651 0.67186
 H624 H 0.16236 0.16483 0.65933
 N625 N 0.31140 0.64601 0.32358
 N626 N 0.32196 0.64537 0.31355
 C627 C 0.31902 0.63398 0.30431
 C628 C 0.30585 0.62721 0.30877
 C629 C 0.30140 0.63518 0.32105
 H630 H 0.32581 0.63095 0.29493
 H631 H 0.29166 0.63319 0.32777
 Cu632 Cu 0.33838 0.65969 0.31361
 Cu633 Cu 0.31105 0.66086 0.33917
 Cu634 Cu 0.33987 0.68634 0.33960
 N635 N 0.35459 0.67425 0.31412
 N636 N 0.35512 0.68435 0.32459
 C637 C 0.36743 0.69267 0.32292
 C638 C 0.37510 0.68765 0.31070
 C639 C 0.36660 0.67596 0.30529
 H640 H 0.37050 0.70185 0.32998
 H641 H 0.36914 0.66909 0.29584
 N642 N 0.32349 0.68667 0.35394
 N643 N 0.31263 0.67678 0.35402
 C644 C 0.30326 0.67992 0.36521
 C645 C 0.30842 0.69249 0.37239
 C646 C 0.32126 0.69645 0.36495
 H647 H 0.29325 0.67375 0.36777
 H648 H 0.32850 0.70570 0.36748
 H649 H 0.32268 0.67679 0.32760
 H650 H 0.33376 0.66406 0.33972
 N651 N 0.31411 0.14314 0.82581
 N652 N 0.32532 0.14253 0.81651
 C653 C 0.32408 0.13020 0.80821
 C654 C 0.31142 0.12261 0.81247
 C655 C 0.30525 0.13120 0.82363
 H656 H 0.33169 0.12707 0.79952
 H657 H 0.29526 0.12878 0.82986
 Cu658 Cu 0.34039 0.15792 0.81576
 Cu659 Cu 0.31239 0.15924 0.84028
 Cu660 Cu 0.33965 0.18688 0.83889
 N661 N 0.35554 0.17324 0.81503
 N662 N 0.35513 0.18472 0.82395
 C663 C 0.36679 0.19368 0.82100
 C664 C 0.37499 0.18740 0.80961
 C665 C 0.36746 0.17446 0.80610
 H666 H 0.36924 0.20389 0.82683
 H667 H 0.37032 0.16662 0.79753
 N668 N 0.32308 0.18699 0.85321
 N669 N 0.31280 0.17648 0.85390
 C670 C 0.30345 0.17959 0.86514
 C671 C 0.30804 0.19270 0.87179
 C672 C 0.32050 0.19704 0.86390
 H673 H 0.29399 0.17282 0.86824
 H674 H 0.32742 0.20664 0.86602
 H675 H 0.32320 0.17518 0.82786
 H676 H 0.33476 0.16447 0.84121
 N677 N 0.81421 0.64462 0.82237
 N678 N 0.82556 0.64495 0.81319
 C679 C 0.82455 0.63326 0.80393
 C680 C 0.81187 0.62521 0.80748
 C681 C 0.80561 0.63277 0.81925
 H682 H 0.83231 0.63090 0.79511
 H683 H 0.79564 0.62977 0.82524
 Cu684 Cu 0.84006 0.66105 0.81406
 Cu685 Cu 0.81152 0.65936 0.83794
 Cu686 Cu 0.83782 0.68762 0.83986
 N687 N 0.85456 0.67718 0.81484
 N688 N 0.85348 0.68757 0.82498
 C689 C 0.86428 0.69772 0.82287
 C690 C 0.87261 0.69356 0.81069
 C691 C 0.86611 0.68042 0.80590
 H692 H 0.86587 0.70747 0.82966
 H693 H 0.86931 0.67394 0.79637
 N694 N 0.82112 0.68579 0.85384
 N695 N 0.81089 0.67527 0.85292
 C696 C 0.80088 0.67722 0.86384
 C697 C 0.80505 0.68951 0.87205
 C698 C 0.81794 0.69463 0.86539
 H699 H 0.79141 0.67007 0.86585
 H700 H 0.82441 0.70423 0.86864
 H701 H 0.82218 0.67659 0.82718
 H702 H 0.83369 0.66491 0.83987
 N703 N 0.81509 0.14234 0.32489
 N704 N 0.82604 0.14271 0.31530
 C705 C 0.82480 0.13104 0.30612
 C706 C 0.81235 0.12290 0.31008
 C707 C 0.80641 0.13044 0.32205
 H708 H 0.83233 0.12869 0.29712
 H709 H 0.79666 0.12737 0.32837
 Cu710 Cu 0.84101 0.15822 0.31563
 Cu711 Cu 0.81337 0.15715 0.34048
 Cu712 Cu 0.84018 0.18514 0.34142
 N713 N 0.85613 0.17354 0.31654
 N714 N 0.85575 0.18432 0.32632
 C715 C 0.86768 0.19324 0.32423
 C716 C 0.87602 0.18754 0.31264
 C717 C 0.86830 0.17509 0.30807
 H718 H 0.87031 0.20289 0.33086
 H719 H 0.87134 0.16772 0.29915
 N720 N 0.82353 0.18384 0.35572
 N721 N 0.81350 0.17309 0.35540
 C722 C 0.80414 0.17477 0.36688
 C723 C 0.80842 0.18716 0.37487
 C724 C 0.82074 0.19268 0.36741
 H725 H 0.79490 0.16745 0.36930
 H726 H 0.82744 0.20215 0.37056
 H727 H 0.82405 0.17426 0.32943
 H728 H 0.83592 0.16247 0.34168
 N729 N 0.68689 0.35571 0.32763
 N730 N 0.67712 0.35548 0.31684
 C731 C 0.67940 0.36741 0.30808
 C732 C 0.69117 0.37558 0.31376
 C733 C 0.69561 0.36780 0.32618
 H734 H 0.67292 0.37004 0.29838
 H735 H 0.70473 0.37054 0.33347
 Cu736 Cu 0.66238 0.33961 0.31537
 Cu737 Cu 0.68808 0.34007 0.34246
 Cu738 Cu 0.66310 0.31092 0.33928
 N739 N 0.64843 0.32304 0.31379
 N740 N 0.64897 0.31182 0.32309
 C741 C 0.63830 0.30192 0.31962
 C742 C 0.63056 0.30719 0.30751
 C743 C 0.63729 0.32067 0.30410
 H744 H 0.63612 0.29179 0.32570
 H745 H 0.63434 0.32813 0.29521
 N746 N 0.67817 0.31197 0.35498
 N747 N 0.68757 0.32317 0.35634
 C748 C 0.69642 0.32063 0.36807
 C749 C 0.69243 0.30715 0.37438
 C750 C 0.68080 0.30201 0.36577
 H751 H 0.70531 0.32791 0.37159
 H752 H 0.67463 0.29179 0.36730
 H753 H 0.67939 0.32360 0.32913
 H754 H 0.66598 0.33367 0.34137
 N755 N 0.68736 0.85262 0.82498
 N756 N 0.67656 0.85365 0.81525
 C757 C 0.67965 0.86490 0.80587
 C758 C 0.69316 0.87122 0.80993
 C759 C 0.69768 0.86309 0.82211
 H760 H 0.67265 0.86817 0.79672
 H761 H 0.70760 0.86487 0.82864
 Cu762 Cu 0.65939 0.84027 0.81570
 Cu763 Cu 0.68711 0.83827 0.84103
 Cu764 Cu 0.65894 0.81222 0.84055
 N765 N 0.64497 0.82398 0.81455
 N766 N 0.64511 0.81303 0.82418
 C767 C 0.63439 0.80319 0.82077
 C768 C 0.62702 0.80815 0.80832
 C769 C 0.63400 0.82147 0.80468
 H770 H 0.63200 0.79321 0.82702
 H771 H 0.63145 0.82863 0.79543
 N772 N 0.67394 0.81311 0.85625
 N773 N 0.68489 0.82289 0.85637
 C774 C 0.69341 0.82047 0.86838
 C775 C 0.68745 0.80865 0.87622
 C776 C 0.67511 0.80428 0.86818
 H777 H 0.70310 0.82697 0.87133
 H778 H 0.66765 0.79520 0.87074
 H779 H 0.67559 0.82286 0.82863
 H780 H 0.66440 0.83471 0.84159
 N781 N 0.18574 0.35471 0.82892
 N782 N 0.17634 0.35437 0.81782
 C783 C 0.17847 0.36654 0.80936
 C784 C 0.18976 0.37498 0.81555
 C785 C 0.19408 0.36712 0.82797
 H786 H 0.17223 0.36915 0.79950
 H787 H 0.20288 0.37003 0.83556
 Cu788 Cu 0.16220 0.33804 0.81557
 Cu789 Cu 0.18706 0.33882 0.84348
 Cu790 Cu 0.16198 0.30982 0.83999
 N791 N 0.14762 0.32200 0.81438
 N792 N 0.14780 0.31094 0.82389
 C793 C 0.13683 0.30132 0.82062
 C794 C 0.12925 0.30659 0.80841
 C795 C 0.13638 0.31980 0.80476
 H796 H 0.13438 0.29136 0.82686
 H797 H 0.13365 0.32717 0.79572
 N798 N 0.17711 0.31057 0.85561
 N799 N 0.18664 0.32164 0.85705
 C800 C 0.19560 0.31880 0.86864
 C801 C 0.19153 0.30524 0.87477
 C802 C 0.17974 0.30040 0.86620
 H803 H 0.20460 0.32594 0.87219
 H804 H 0.17346 0.29024 0.86761
 H805 H 0.17875 0.32224 0.83016
 H806 H 0.16500 0.33267 0.84174
 N807 N 0.18929 0.85253 0.32442
 N808 N 0.17825 0.85360 0.31498
 C809 C 0.18046 0.86560 0.30634
 C810 C 0.19366 0.87239 0.31054
 C811 C 0.19895 0.86375 0.32208
 H812 H 0.17318 0.86895 0.29745
 H813 H 0.20904 0.86547 0.32836
 Cu814 Cu 0.16242 0.83883 0.31455
 Cu815 Cu 0.19050 0.83644 0.33869
 Cu816 Cu 0.16033 0.81229 0.34086
 N817 N 0.14640 0.82432 0.31488
 N818 N 0.14561 0.81387 0.32502
 C819 C 0.13343 0.80546 0.32251
 C820 C 0.12614 0.81105 0.31020
 C821 C 0.13473 0.82299 0.30568
 H822 H 0.12999 0.79614 0.32927
 H823 H 0.13268 0.83011 0.29628
 N824 N 0.17656 0.81264 0.35563
 N825 N 0.18789 0.82196 0.35472
 C826 C 0.19668 0.82020 0.36658
 C827 C 0.19075 0.80915 0.37540
 C828 C 0.17802 0.80450 0.36808
 H829 H 0.20667 0.82656 0.36871
 H830 H 0.17020 0.79614 0.37179
 H831 H 0.17704 0.82046 0.32823
 H832 H 0.16746 0.83425 0.34042
 C833 C 0.24979 1.01389 0.24033
 C834 C 0.23739 1.01412 0.24997
 C835 C 0.23151 1.00062 0.25513
 C836 C 0.23761 0.98690 0.25086
 C837 C 0.24995 0.98664 0.24115
 C838 C 0.25605 1.00015 0.23622
 H839 H 0.26530 0.99994 0.22851
 H840 H 0.22219 1.00081 0.26275
 C841 C 0.25671 0.51302 0.74822
 C842 C 0.24384 0.51311 0.75724
 C843 C 0.23758 0.49951 0.76174
 C844 C 0.24374 0.48584 0.75734
 C845 C 0.25645 0.48578 0.74814
 C846 C 0.26280 0.49935 0.74376
 H847 H 0.27257 0.49925 0.73672
 H848 H 0.22778 0.49957 0.76876
 C849 C 0.75558 -0.01449 0.25417
 C850 C 0.74223 -0.01486 0.24589
 C851 C 0.73517 -0.00146 0.24203
 C852 C 0.74089 0.01231 0.24653
 C853 C 0.75382 0.01267 0.25543
 C854 C 0.76122 -0.00070 0.25882
 H855 H 0.77107 -0.00045 0.26574
 H856 H 0.72525 -0.00175 0.23520
 C857 C 0.75339 0.48687 0.75567
 C858 C 0.74403 0.48650 0.74315
 C859 C 0.73842 0.49993 0.73744
 C860 C 0.74220 0.51370 0.74371
 C861 C 0.75231 0.51410 0.75564
 C862 C 0.75764 0.50067 0.76156
 H863 H 0.76509 0.50097 0.77096
 H864 H 0.73085 0.49966 0.72813
 C865 C 0.25540 0.48531 0.25453
 C866 C 0.24271 0.48538 0.24532
 C867 C 0.23640 0.49903 0.24106
 C868 C 0.24254 0.51266 0.24564
 C869 C 0.25551 0.51258 0.25455
 C870 C 0.26169 0.49889 0.25894
 H871 H 0.27150 0.49880 0.26593
 H872 H 0.22660 0.49905 0.23407
 C873 C 0.75455 1.01409 0.74633
 C874 C 0.74270 1.01416 0.75659
 C875 C 0.73650 1.00059 0.76120
 C876 C 0.74245 0.98688 0.75652
 C877 C 0.75513 0.98682 0.74720
 C878 C 0.76085 1.00043 0.74207
 H879 H 0.77006 1.00036 0.73432
 H880 H 0.72725 1.00067 0.76890
 C881 C 0.75338 0.51468 0.24462
 C882 C 0.74119 0.51430 0.25445
 C883 C 0.73535 0.50046 0.25876
 C884 C 0.74103 0.48707 0.25304
 C885 C 0.75264 0.48756 0.24252
 C886 C 0.75885 0.50136 0.23866
 H887 H 0.76798 0.50175 0.23082
 H888 H 0.72621 0.50009 0.26658
 C889 C 0.25419 -0.01395 0.75489
 C890 C 0.24324 -0.01394 0.74372
 C891 C 0.23841 -0.00033 0.73779
 C892 C 0.24391 0.01328 0.74313
 C893 C 0.25418 0.01325 0.75495
 C894 C 0.25939 -0.00039 0.76050
 H895 H 0.26756 -0.00046 0.76930
 H896 H 0.23025 -0.00032 0.72898
 C897 C 0.24831 0.25508 1.01426
 C898 C 0.25614 0.24136 1.01433
 C899 C 0.25986 0.23460 1.00087
 C900 C 0.25614 0.24127 0.98735
 C901 C 0.24834 0.25501 0.98733
 C902 C 0.24463 0.26175 1.00077
 H903 H 0.23833 0.27208 1.00074
 H904 H 0.26612 0.22425 1.00092
 C905 C 0.24678 0.75538 0.51330
 C906 C 0.25815 0.74442 0.51330
 C907 C 0.26230 0.73771 0.49996
 C908 C 0.25543 0.74173 0.48664
 C909 C 0.24420 0.75282 0.48661
 C910 C 0.24002 0.75947 0.49996
 H911 H 0.23136 0.76792 0.49997
 H912 H 0.27095 0.72924 0.49994
 C913 C 0.25989 0.75287 -0.01345
 C914 C 0.24686 0.74402 -0.01362
 C915 C 0.23957 0.74079 -0.00031
 C916 C 0.24531 0.74568 0.01322
 C917 C 0.25860 0.75418 0.01342
 C918 C 0.26565 0.75772 0.00006
 H919 H 0.27558 0.76460 0.00018
 H920 H 0.22970 0.73384 -0.00044
 C921 C 0.25405 0.25504 0.48721
 C922 C 0.24179 0.24516 0.48770
 C923 C 0.23708 0.23942 0.50131
 C924 C 0.24446 0.24313 0.51442
 C925 C 0.25673 0.25300 0.51390
 C926 C 0.26143 0.25873 0.50031
 H927 H 0.27064 0.26654 0.49998
 H928 H 0.22787 0.23162 0.50165
 C929 C 0.74364 0.75261 1.01313
 C930 C 0.75510 0.74177 1.01311
 C931 C 0.76173 0.73761 0.99974
 C932 C 0.75719 0.74399 0.98637
 C933 C 0.74574 0.75485 0.98636
 C934 C 0.73911 0.75900 0.99974
 H935 H 0.73033 0.76733 0.99974
 H936 H 0.77051 0.72927 0.99974
 C937 C 0.75000 0.25812 0.51424
 C938 C 0.75846 0.24477 0.51389
 C939 C 0.76301 0.23897 0.50023
 C940 C 0.75939 0.24619 0.48696
 C941 C 0.75040 0.25916 0.48733
 C942 C 0.74599 0.26503 0.50095
 H943 H 0.73905 0.27494 0.50121
 H944 H 0.76997 0.22907 0.49995
 C945 C 0.75806 0.25176 -0.01321
 C946 C 0.74841 0.23929 -0.01321
 C947 C 0.74354 0.23339 0.00026
 C948 C 0.74819 0.23946 0.01373
 C949 C 0.75800 0.25179 0.01375
 C950 C 0.76256 0.25798 0.00027
 H951 H 0.77032 0.26723 0.00025
 H952 H 0.73590 0.22403 0.00027
 C953 C 0.76150 0.75140 0.48727
 C954 C 0.74909 0.74168 0.48730
 C955 C 0.74278 0.73729 0.50077
 C956 C 0.74894 0.74191 0.51421
 C957 C 0.76136 0.75160 0.51416
 C958 C 0.76743 0.75625 0.50070
 H959 H 0.77680 0.76388 0.50068
 H960 H 0.73350 0.72956 0.50080
 C961 C 1.01296 0.24489 0.25532
 C962 C 1.01301 0.25727 0.24564
 C963 C 0.99937 0.26294 0.24045
 C964 C 0.98572 0.25682 0.24498
 C965 C 0.98568 0.24535 0.25567
 C966 C 0.99930 0.23926 0.26038
 H967 H 0.99930 0.23029 0.26841
 H968 H 0.99942 0.27189 0.23241
 C969 C 0.51264 0.24619 0.75603
 C970 C 0.51302 0.25934 0.74740
 C971 C 0.49959 0.26625 0.74335
 C972 C 0.48580 0.26048 0.74784
 C973 C 0.48544 0.24765 0.75688
 C974 C 0.49884 0.24048 0.76058
 H975 H 0.49856 0.23070 0.76761
 H976 H 0.49987 0.27605 0.73635
 C977 C -0.01444 0.26334 0.75284
 C978 C -0.01456 0.25123 0.74290
 C979 C -0.00098 0.24521 0.73802
 C980 C 0.01268 0.25132 0.74244
 C981 C 0.01280 0.26348 0.75234
 C982 C -0.00077 0.26932 0.75741
 H983 H -0.00069 0.27848 0.76519
 H984 H -0.00106 0.23614 0.73014
 C985 C 0.48725 0.26337 0.25093
 C986 C 0.48732 0.25098 0.24130
 C987 C 0.50098 0.24476 0.23689
 C988 C 0.51457 0.25091 0.24147
 C989 C 0.51451 0.26331 0.25109
 C990 C 0.50084 0.26935 0.25570
 H991 H 0.50079 0.27867 0.26329
 H992 H 0.50104 0.23550 0.22923
 C993 C 1.01331 0.74710 0.75875
 C994 C 1.01371 0.75914 0.74873
 C995 C 1.00025 0.76497 0.74329
 C996 C 0.98644 0.75889 0.74738
 C997 C 0.98612 0.74632 0.75679
 C998 C 0.99955 0.74072 0.76248
 H999 H 0.99929 0.73135 0.77005
 H1000 H 1.00053 0.77441 0.73583
 C1001 C 0.51312 0.73885 0.25064
 C1002 C 0.51359 0.75088 0.24056
 C1003 C 0.50021 0.75770 0.23617
 C1004 C 0.48637 0.75266 0.24140
 C1005 C 0.48590 0.74042 0.25122
 C1006 C 0.49928 0.73376 0.25580
 H1007 H 0.49891 0.72448 0.26347
 H1008 H 0.50056 0.76698 0.22852
 C1009 C -0.01264 0.75736 0.25450
 C1010 C -0.01338 0.74498 0.24487
 C1011 C -0.00020 0.73747 0.24099
 C1012 C 0.01373 0.74210 0.24631
 C1013 C 0.01447 0.75440 0.25602
 C1014 C 0.00129 0.76194 0.25987
 H1015 H 0.00183 0.77119 0.26753
 H1016 H -0.00074 0.72822 0.23334
 C1017 C 0.48508 0.75796 0.75401
 C1018 C 0.48533 0.74651 0.74334
 C1019 C 0.49910 0.74136 0.73801
 C1020 C 0.51256 0.74784 0.74260
 C1021 C 0.51225 0.75972 0.75285
 C1022 C 0.49849 0.76456 0.75847
 H1023 H 0.49824 0.77335 0.76667
 H1024 H 0.49931 0.73265 0.72974
 C1025 C 0.39948 0.27828 0.29597
 C1026 C 0.40959 0.28655 0.28721
 C1027 C 0.40650 0.30192 0.28504
 C1028 C 0.39378 0.30855 0.29133
 C1029 C 0.38406 0.30020 0.30014
 C1030 C 0.38702 0.28502 0.30231
 C1031 C 0.41622 0.31068 0.27677
 C1032 C 0.42919 0.30466 0.27087
 C1033 C 0.43293 0.28949 0.27288
 C1034 C 0.42273 0.28018 0.28079
 C1035 C 0.42600 0.26481 0.28200
 C1036 C 0.43896 0.25880 0.27612
 C1037 C 0.44929 0.26781 0.26892
 C1038 C 0.44650 0.28329 0.26719
 C1039 C 0.45758 0.29194 0.26007
 C1040 C 0.47069 0.28542 0.25482
 C1041 C 0.47321 0.27012 0.25642
 C1042 C 0.46249 0.26138 0.26353
 H1043 H 0.40098 0.26663 0.29843
 H1044 H 0.39171 0.32034 0.28970
 H1045 H 0.37965 0.27824 0.30895
 H1046 H 0.41388 0.32240 0.27498
 H1047 H 0.43600 0.31226 0.26463
 H1048 H 0.41869 0.25699 0.28733
 H1049 H 0.44099 0.24694 0.27735
 H1050 H 0.45663 0.30380 0.25854
 H1051 H 0.47891 0.29237 0.24942
 H1052 H 0.46455 0.24956 0.26502
 C1053 C 0.40670 0.81228 0.78344
 C1054 C 0.41292 0.79813 0.78654
 C1055 C 0.40511 0.78876 0.79644
 C1056 C 0.39211 0.79382 0.80356
 C1057 C 0.38623 0.80807 0.80065
 C1058 C 0.39365 0.81708 0.79031
 C1059 C 0.41027 0.77434 0.79917
 C1060 C 0.42293 0.76891 0.79214
 C1061 C 0.43126 0.77789 0.78237
 C1062 C 0.42648 0.79293 0.77998
 C1063 C 0.43560 0.80240 0.77142
 C1064 C 0.44874 0.79731 0.76510
 C1065 C 0.45319 0.78252 0.76675
 C1066 C 0.44442 0.77248 0.77517
 C1067 C 0.44917 0.75742 0.77590
 C1068 C 0.46224 0.75274 0.76891
 C1069 C 0.47101 0.76288 0.76105
 C1070 C 0.46645 0.77774 0.76001
 H1071 H 0.41147 0.81984 0.77552
 H1072 H 0.38649 0.78642 0.81118
 H1073 H 0.38961 0.82807 0.78749
 H1074 H 0.40436 0.76709 0.80674
 H1075 H 0.42615 0.75769 0.79495
 H1076 H 0.43314 0.81404 0.76975
 H1077 H 0.45545 0.80504 0.75875
 H1078 H 0.44293 0.74891 0.78157
 H1079 H 0.46561 0.74116 0.76973
 H1080 H 0.47318 0.78553 0.75375
 C1081 C -0.10048 0.27794 0.80125
 C1082 C -0.09080 0.28606 0.79186
 C1083 C -0.09420 0.30129 0.78930
 C1084 C -0.10691 0.30784 0.79556
 C1085 C -0.11643 0.29962 0.80469
 C1086 C -0.11303 0.28466 0.80755
 C1087 C -0.08490 0.31000 0.78055
 C1088 C -0.07205 0.30406 0.77442
 C1089 C -0.06804 0.28899 0.77665
 C1090 C -0.07780 0.27972 0.78514
 C1091 C -0.07433 0.26441 0.78646
 C1092 C -0.06160 0.25842 0.78005
 C1093 C -0.05168 0.26742 0.77228
 C1094 C -0.05467 0.28286 0.77054
 C1095 C -0.04396 0.29157 0.76295
 C1096 C -0.03104 0.28515 0.75723
 C1097 C -0.02834 0.26989 0.75879
 C1098 C -0.03868 0.26106 0.76634
 H1099 H -0.09857 0.26645 0.80416
 H1100 H -0.10923 0.31951 0.79347
 H1101 H -0.12017 0.27802 0.81459
 H1102 H -0.08752 0.32162 0.77849
 H1103 H -0.06564 0.31158 0.76770
 H1104 H -0.08138 0.25664 0.79220
 H1105 H -0.05941 0.24660 0.78136
 H1106 H -0.04501 0.30343 0.76146
 H1107 H -0.02308 0.29214 0.75150
 H1108 H -0.03644 0.24926 0.76778
 C1109 C -0.09967 0.77830 0.29864
 C1110 C -0.08888 0.78597 0.29016
 C1111 C -0.09083 0.80155 0.28823
 C1112 C -0.10319 0.80896 0.29444
 C1113 C -0.11364 0.80115 0.30295
 C1114 C -0.11174 0.78578 0.30490
 C1115 C -0.08033 0.80971 0.28027
 C1116 C -0.06773 0.80285 0.27443
 C1117 C -0.06516 0.78740 0.27616
 C1118 C -0.07614 0.77875 0.28379
 C1119 C -0.07404 0.76317 0.28477
 C1120 C -0.06149 0.75630 0.27896
 C1121 C -0.05042 0.76460 0.27202
 C1122 C -0.05202 0.78027 0.27049
 C1123 C -0.04022 0.78812 0.26356
 C1124 C -0.02756 0.78067 0.25837
 C1125 C -0.02623 0.76520 0.25980
 C1126 C -0.03768 0.75725 0.26670
 H1127 H -0.09905 0.76654 0.30092
 H1128 H -0.10446 0.82088 0.29296
 H1129 H -0.11968 0.77937 0.31126
 H1130 H -0.08178 0.82160 0.27867
 H1131 H -0.06025 0.81002 0.26846
 H1132 H -0.08199 0.75582 0.28987
 H1133 H -0.06038 0.74430 0.28003
 H1134 H -0.04029 0.80004 0.26215
 H1135 H -0.01875 0.78702 0.25315
 H1136 H -0.03654 0.74529 0.26811
 C1137 C 0.59904 0.72141 0.29792
 C1138 C 0.58911 0.71344 0.28873
 C1139 C 0.59183 0.69799 0.28670
 C1140 C 0.60419 0.69104 0.29334
 C1141 C 0.61381 0.69913 0.30245
 C1142 C 0.61110 0.71434 0.30466
 C1143 C 0.58210 0.68949 0.27822
 C1144 C 0.56945 0.69584 0.27200
 C1145 C 0.56612 0.71114 0.27379
 C1146 C 0.57643 0.72019 0.28181
 C1147 C 0.57376 0.73569 0.28259
 C1148 C 0.56120 0.74209 0.27627
 C1149 C 0.55068 0.73333 0.26907
 C1150 C 0.55291 0.71773 0.26773
 C1151 C 0.54163 0.70936 0.26061
 C1152 C 0.52884 0.71625 0.25504
 C1153 C 0.52688 0.73166 0.25630
 C1154 C 0.53782 0.74014 0.26334
 H1155 H 0.59764 0.73305 0.30043
 H1156 H 0.60608 0.67921 0.29173
 H1157 H 0.61840 0.72091 0.31158
 H1158 H 0.58420 0.67771 0.27652
 H1159 H 0.56261 0.68844 0.26559
 H1160 H 0.58131 0.74333 0.28784
 H1161 H 0.55964 0.75404 0.27718
 H1162 H 0.54216 0.69743 0.25939
 H1163 H 0.52041 0.70951 0.24972
 H1164 H 0.53616 0.75205 0.26459
 C1165 C 0.59980 0.22517 0.79990
 C1166 C 0.58896 0.21766 0.79136
 C1167 C 0.59106 0.20218 0.78894
 C1168 C 0.60343 0.19467 0.79494
 C1169 C 0.61394 0.20227 0.80353
 C1170 C 0.61200 0.21760 0.80582
 C1171 C 0.58074 0.19419 0.78066
 C1172 C 0.56822 0.20112 0.77483
 C1173 C 0.56545 0.21647 0.77705
 C1174 C 0.57609 0.22492 0.78530
 C1175 C 0.57347 0.24033 0.78730
 C1176 C 0.56078 0.24719 0.78178
 C1177 C 0.55016 0.23907 0.77402
 C1178 C 0.55234 0.22362 0.77140
 C1179 C 0.54115 0.21599 0.76339
 C1180 C 0.52841 0.22338 0.75839
 C1181 C 0.52639 0.23858 0.76108
 C1182 C 0.53728 0.24636 0.76895
 H1183 H 0.59920 0.23688 0.80237
 H1184 H 0.60469 0.18281 0.79309
 H1185 H 0.61993 0.22392 0.81223
 H1186 H 0.58231 0.18236 0.77873
 H1187 H 0.56087 0.19403 0.76864
 H1188 H 0.58101 0.24751 0.79316
 H1189 H 0.55922 0.25902 0.78369
 H1190 H 0.54178 0.20430 0.76083
 H1191 H 0.52006 0.21718 0.75233
 H1192 H 0.53561 0.25810 0.77128
 C1193 C 1.09957 0.69983 0.77757
 C1194 C 1.08897 0.70865 0.78521
 C1195 C 1.09104 0.71055 0.80058
 C1196 C 1.10342 0.70429 0.80775
 C1197 C 1.11390 0.69581 0.79997
 C1198 C 1.11178 0.69352 0.78487
 C1199 C 1.08075 0.71869 0.80881
 C1200 C 1.06822 0.72482 0.80221
 C1201 C 1.06554 0.72324 0.78697
 C1202 C 1.07633 0.71546 0.77823
 C1203 C 1.07422 0.71492 0.76282
 C1204 C 1.06182 0.72138 0.75620
 C1205 C 1.05088 0.72841 0.76462
 C1206 C 1.05249 0.72933 0.78015
 C1207 C 1.04078 0.73611 0.78824
 C1208 C 1.02823 0.74184 0.78117
 C1209 C 1.02690 0.74113 0.76587
 C1210 C 1.03824 0.73441 0.75761
 H1211 H 1.09869 0.69741 0.76599
 H1212 H 1.10474 0.70589 0.81950
 H1213 H 1.11967 0.68697 0.77857
 H1214 H 1.08234 0.72025 0.82054
 H1215 H 1.06098 0.73103 0.80942
 H1216 H 1.08212 0.70977 0.75547
 H1217 H 1.06071 0.72072 0.74432
 H1218 H 1.04077 0.73691 0.80007
 H1219 H 1.01946 0.74689 0.78770
 H1220 H 1.03707 0.73367 0.74574
 C1221 C 1.09892 0.22422 0.30158
 C1222 C 1.08901 0.21701 0.29177
 C1223 C 1.09181 0.20179 0.28852
 C1224 C 1.10416 0.19435 0.29465
 C1225 C 1.11380 0.20169 0.30436
 C1226 C 1.11101 0.21666 0.30775
 C1227 C 1.08218 0.19400 0.27928
 C1228 C 1.06959 0.20083 0.27343
 C1229 C 1.06619 0.21591 0.27643
 C1230 C 1.07633 0.22427 0.28534
 C1231 C 1.07349 0.23961 0.28749
 C1232 C 1.06091 0.24645 0.28165
 C1233 C 1.05055 0.23832 0.27357
 C1234 C 1.05299 0.22293 0.27081
 C1235 C 1.04191 0.21517 0.26278
 C1236 C 1.02908 0.22240 0.25778
 C1237 C 1.02685 0.23758 0.26048
 C1238 C 1.03763 0.24551 0.26836
 H1239 H 1.09753 0.23564 0.30497
 H1240 H 1.10606 0.18270 0.29208
 H1241 H 1.11828 0.22270 0.31514
 H1242 H 1.08430 0.18240 0.27667
 H1243 H 1.06282 0.19395 0.26641
 H1244 H 1.08089 0.24678 0.29353
 H1245 H 1.05920 0.25825 0.28365
 H1246 H 1.04262 0.20344 0.26038
 H1247 H 1.02080 0.21610 0.25174
 H1248 H 1.03582 0.25724 0.27062
 C1249 C 0.59958 0.27599 0.70085
 C1250 C 0.58994 0.28367 0.71061
 C1251 C 0.59337 0.29873 0.71389
 C1252 C 0.60600 0.30560 0.70778
 C1253 C 0.61537 0.29782 0.69811
 C1254 C 0.61202 0.28297 0.69475
 C1255 C 0.58410 0.30696 0.72314
 C1256 C 0.57128 0.30073 0.72904
 C1257 C 0.56724 0.28582 0.72605
 C1258 C 0.57693 0.27703 0.71698
 C1259 C 0.57329 0.26190 0.71462
 C1260 C 0.56039 0.25570 0.72040
 C1261 C 0.55055 0.26425 0.72874
 C1262 C 0.55383 0.27941 0.73180
 C1263 C 0.54336 0.28756 0.74030
 C1264 C 0.53027 0.28094 0.74537
 C1265 C 0.52716 0.26603 0.74223
 C1266 C 0.53735 0.25771 0.73394
 H1267 H 0.59776 0.26464 0.69748
 H1268 H 0.60833 0.31715 0.71034
 H1269 H 0.61907 0.27660 0.68740
 H1270 H 0.58669 0.31847 0.72572
 H1271 H 0.56480 0.30796 0.73600
 H1272 H 0.58025 0.25443 0.70838
 H1273 H 0.55804 0.24406 0.71820
 H1274 H 0.54479 0.29911 0.74312
 H1275 H 0.52250 0.28750 0.75182
 H1276 H 0.53485 0.24618 0.73137
 C1277 C 0.58983 0.80877 0.21180
 C1278 C 0.58514 0.79381 0.21004
 C1279 C 0.59431 0.78427 0.20146
 C1280 C 0.60739 0.78967 0.19478
 C1281 C 0.61180 0.80452 0.19663
 C1282 C 0.60291 0.81395 0.20524
 C1283 C 0.59043 0.76936 0.19958
 C1284 C 0.57763 0.76361 0.20603
 C1285 C 0.56802 0.77260 0.21458
 C1286 C 0.57176 0.78800 0.21650
 C1287 C 0.56191 0.79712 0.22468
 C1288 C 0.54891 0.79147 0.23077
 C1289 C 0.54516 0.77651 0.22912
 C1290 C 0.55469 0.76677 0.22114
 C1291 C 0.55040 0.75160 0.22008
 C1292 C 0.53716 0.74651 0.22642
 C1293 C 0.52779 0.75627 0.23409
 C1294 C 0.53184 0.77125 0.23539
 H1295 H 0.58374 0.81681 0.21823
 H1296 H 0.61427 0.78220 0.18829
 H1297 H 0.60593 0.82552 0.20680
 H1298 H 0.59739 0.76202 0.19305
 H1299 H 0.57553 0.75200 0.20392
 H1300 H 0.56381 0.80881 0.22648
 H1301 H 0.54167 0.79895 0.23687
 H1302 H 0.55698 0.74333 0.21447
 H1303 H 0.53415 0.73489 0.22523
 H1304 H 0.52462 0.77880 0.24142
 C1305 C 1.10160 0.27551 0.20331
 C1306 C 1.09069 0.28347 0.21138
 C1307 C 1.09294 0.29899 0.21337
 C1308 C 1.10556 0.30611 0.20739
 C1309 C 1.11609 0.29804 0.19921
 C1310 C 1.11399 0.28269 0.19737
 C1311 C 1.08251 0.30739 0.22118
 C1312 C 1.06973 0.30084 0.22688
 C1313 C 1.06680 0.28548 0.22502
 C1314 C 1.07759 0.27660 0.21736
 C1315 C 1.07486 0.26116 0.21584
 C1316 C 1.06196 0.25466 0.22125
 C1317 C 1.05118 0.26318 0.22839
 C1318 C 1.05342 0.27870 0.23049
 C1319 C 1.04202 0.28678 0.23781
 C1320 C 1.02906 0.27973 0.24269
 C1321 C 1.02699 0.26444 0.24055
 C1322 C 1.03807 0.25623 0.23335
 H1323 H 1.10093 0.26373 0.20123
 H1324 H 1.10699 0.31801 0.20886
 H1325 H 1.12201 0.27604 0.19134
 H1326 H 1.08419 0.31924 0.22281
 H1327 H 1.06232 0.30822 0.23271
 H1328 H 1.08250 0.25367 0.21047
 H1329 H 1.06035 0.24278 0.21972
 H1330 H 1.04265 0.29857 0.23987
 H1331 H 1.02057 0.28626 0.24823
 H1332 H 1.03639 0.24442 0.23146
 C1333 C 1.08682 0.79232 0.69011
 C1334 C 1.08340 0.79244 0.70533
 C1335 C 1.09375 0.79938 0.71495
 C1336 C 1.10693 0.80583 0.70940
 C1337 C 1.11019 0.80528 0.69432
 C1338 C 1.09995 0.79858 0.68479
 C1339 C 1.09098 0.79972 0.73005
 C1340 C 1.07825 0.79320 0.73593
 C1341 C 1.06762 0.78607 0.72688
 C1342 C 1.07017 0.78584 0.71129
 C1343 C 1.05942 0.77901 0.70217
 C1344 C 1.04666 0.77261 0.70797
 C1345 C 1.04405 0.77263 0.72307
 C1346 C 1.05448 0.77923 0.73283
 C1347 C 1.05122 0.77867 0.74812
 C1348 C 1.03810 0.77208 0.75331
 C1349 C 1.02788 0.76578 0.74351
 C1350 C 1.03095 0.76607 0.72843
 H1351 H 1.07970 0.78738 0.68193
 H1352 H 1.11482 0.81092 0.71689
 H1353 H 1.10203 0.79819 0.67305
 H1354 H 1.09881 0.80503 0.73747
 H1355 H 1.07703 0.79402 0.74770
 H1356 H 1.06040 0.77845 0.69038
 H1357 H 1.03871 0.76757 0.70049
 H1358 H 1.05852 0.78320 0.75638
 H1359 H 1.03584 0.77204 0.76504
 H1360 H 1.02306 0.76111 0.72083
 C1361 C 0.41193 0.68696 0.71079
 C1362 C 0.41606 0.70216 0.70983
 C1363 C 0.40648 0.71185 0.70185
 C1364 C 0.39356 0.70637 0.69496
 C1365 C 0.38968 0.69129 0.69604
 C1366 C 0.39897 0.68169 0.70405
 C1367 C 0.40976 0.72699 0.70084
 C1368 C 0.42227 0.73286 0.70768
 C1369 C 0.43222 0.72375 0.71574
 C1370 C 0.42925 0.70809 0.71656
 C1371 C 0.43964 0.69887 0.72393
 C1372 C 0.45241 0.70469 0.73038
 C1373 C 0.45530 0.71993 0.72997
 C1374 C 0.44517 0.72975 0.72283
 C1375 C 0.44846 0.74519 0.72315
 C1376 C 0.46137 0.75049 0.72991
 C1377 C 0.47140 0.74069 0.73667
 C1378 C 0.46832 0.72541 0.73666
 H1379 H 0.41833 0.67882 0.71681
 H1380 H 0.38636 0.71398 0.68898
 H1381 H 0.39632 0.66997 0.70505
 H1382 H 0.40251 0.73444 0.69471
 H1383 H 0.42393 0.74464 0.70619
 H1384 H 0.43840 0.68696 0.72474
 H1385 H 0.46010 0.69713 0.73580
 H1386 H 0.44130 0.75353 0.71836
 H1387 H 0.46362 0.76235 0.72973
 H1388 H 0.47607 0.71781 0.74196
 C1389 C 0.41366 0.19010 0.21223
 C1390 C 0.41758 0.20533 0.21084
 C1391 C 0.40790 0.21464 0.20255
 C1392 C 0.39500 0.20883 0.19594
 C1393 C 0.39132 0.19375 0.19745
 C1394 C 0.40076 0.18448 0.20567
 C1395 C 0.41108 0.22973 0.20090
 C1396 C 0.42370 0.23591 0.20723
 C1397 C 0.43380 0.22718 0.21551
 C1398 C 0.43071 0.21162 0.21734
 C1399 C 0.44086 0.20287 0.22555
 C1400 C 0.45361 0.20902 0.23169
 C1401 C 0.45680 0.22410 0.22999
 C1402 C 0.44695 0.23347 0.22195
 C1403 C 0.45076 0.24875 0.22066
 C1404 C 0.46378 0.25432 0.22696
 C1405 C 0.47339 0.24498 0.23484
 C1406 C 0.46989 0.22987 0.23627
 H1407 H 0.42025 0.18216 0.21830
 H1408 H 0.38772 0.21619 0.18977
 H1409 H 0.39831 0.17275 0.20696
 H1410 H 0.40369 0.23690 0.19460
 H1411 H 0.42520 0.24765 0.20533
 H1412 H 0.43937 0.19113 0.22742
 H1413 H 0.46109 0.20182 0.23784
 H1414 H 0.44402 0.25673 0.21482
 H1415 H 0.46644 0.26602 0.22558
 H1416 H 0.47735 0.22262 0.24239
 C1417 C -0.09031 0.68843 0.21554
 C1418 C -0.08550 0.70339 0.21404
 C1419 C -0.09450 0.71313 0.20550
 C1420 C -0.10756 0.70795 0.19867
 C1421 C -0.11206 0.69307 0.20018
 C1422 C -0.10334 0.68343 0.20875
 C1423 C -0.09045 0.72802 0.20377
 C1424 C -0.07759 0.73354 0.21024
 C1425 C -0.06810 0.72434 0.21872
 C1426 C -0.07211 0.70900 0.22065
 C1427 C -0.06256 0.69975 0.22902
 C1428 C -0.04954 0.70520 0.23524
 C1429 C -0.04546 0.72005 0.23345
 C1430 C -0.05467 0.72992 0.22526
 C1431 C -0.04993 0.74494 0.22392
 C1432 C -0.03663 0.74978 0.23031
 C1433 C -0.02764 0.73991 0.23830
 C1434 C -0.03211 0.72507 0.23981
 H1435 H -0.08431 0.68023 0.22186
 H1436 H -0.11429 0.71561 0.19225
 H1437 H -0.10643 0.67186 0.21009
 H1438 H -0.09733 0.73552 0.19729
 H1439 H -0.07537 0.74516 0.20825
 H1440 H -0.06473 0.68812 0.23095
 H1441 H -0.04255 0.69763 0.24152
 H1442 H -0.05617 0.75327 0.21799
 H1443 H -0.03328 0.76129 0.22891
 H1444 H -0.02516 0.71742 0.24604
 C1445 C -0.08787 0.19062 0.71269
 C1446 C -0.08386 0.20582 0.71127
 C1447 C -0.09341 0.21515 0.70287
 C1448 C -0.10623 0.20936 0.69609
 C1449 C -0.10999 0.19429 0.69762
 C1450 C -0.10068 0.18503 0.70599
 C1451 C -0.09020 0.23025 0.70131
 C1452 C -0.07773 0.23643 0.70795
 C1453 C -0.06779 0.22767 0.71640
 C1454 C -0.07080 0.21206 0.71792
 C1455 C -0.06058 0.20320 0.72593
 C1456 C -0.04791 0.20930 0.73227
 C1457 C -0.04491 0.22446 0.73103
 C1458 C -0.05484 0.23395 0.72322
 C1459 C -0.05130 0.24933 0.72254
 C1460 C -0.03836 0.25486 0.72905
 C1461 C -0.02859 0.24536 0.73655
 C1462 C -0.03192 0.23018 0.73752
 H1463 H -0.08145 0.18271 0.71898
 H1464 H -0.11342 0.21671 0.68980
 H1465 H -0.10320 0.17331 0.70732
 H1466 H -0.09745 0.23743 0.69488
 H1467 H -0.07614 0.24816 0.70607
 H1468 H -0.06189 0.19137 0.72739
 H1469 H -0.04036 0.20201 0.73821
 H1470 H -0.05823 0.25743 0.71708
 H1471 H -0.03586 0.26663 0.72807
 H1472 H -0.02434 0.22282 0.74337
 C1473 C 0.28785 0.41106 0.31237
 C1474 C 0.28886 0.41520 0.29734
 C1475 C 0.29636 0.40531 0.28766
 C1476 C 0.30297 0.39214 0.29302
 C1477 C 0.30191 0.38830 0.30795
 C1478 C 0.29424 0.39785 0.31750
 C1479 C 0.29714 0.40853 0.27265
 C1480 C 0.29045 0.42125 0.26692
 C1481 C 0.28292 0.43153 0.27607
 C1482 C 0.28252 0.42868 0.29160
 C1483 C 0.27600 0.43949 0.30089
 C1484 C 0.26979 0.45247 0.29526
 C1485 C 0.26959 0.45516 0.28016
 C1486 C 0.27598 0.44470 0.27027
 C1487 C 0.27502 0.44787 0.25498
 C1488 C 0.26829 0.46097 0.24989
 C1489 C 0.26232 0.47128 0.25980
 C1490 C 0.26302 0.46834 0.27490
 H1491 H 0.28200 0.41761 0.32044
 H1492 H 0.30868 0.38472 0.28547
 H1493 H 0.29324 0.39520 0.32910
 H1494 H 0.30289 0.40103 0.26519
 H1495 H 0.29166 0.42286 0.25523
 H1496 H 0.27578 0.43845 0.31270
 H1497 H 0.26500 0.46048 0.30286
 H1498 H 0.27917 0.44041 0.24665
 H1499 H 0.26782 0.46310 0.23815
 H1500 H 0.25826 0.47631 0.28256
 C1501 C 0.28304 -0.08984 0.81243
 C1502 C 0.28586 -0.08456 0.79802
 C1503 C 0.29546 -0.09314 0.78897
 C1504 C 0.30253 -0.10596 0.79451
 C1505 C 0.29994 -0.11088 0.80900
 C1506 C 0.28990 -0.10274 0.81775
 C1507 C 0.29800 -0.08891 0.77441
 C1508 C 0.29108 -0.07641 0.76851
 C1509 C 0.28158 -0.06734 0.77711
 C1510 C 0.27936 -0.07119 0.79226
 C1511 C 0.27103 -0.06137 0.80122
 C1512 C 0.26484 -0.04839 0.79557
 C1513 C 0.26639 -0.04480 0.78072
 C1514 C 0.27452 -0.05434 0.77117
 C1515 C 0.27516 -0.05047 0.75605
 C1516 C 0.26843 -0.03747 0.75083
 C1517 C 0.26087 -0.02794 0.76045
 C1518 C 0.25985 -0.03164 0.77536
 H1519 H 0.27539 -0.08442 0.81986
 H1520 H 0.30989 -0.11216 0.78731
 H1521 H 0.28737 -0.10607 0.82891
 H1522 H 0.30535 -0.09540 0.76742
 H1523 H 0.29378 -0.07391 0.75722
 H1524 H 0.26945 -0.06316 0.81285
 H1525 H 0.25869 -0.04110 0.80292
 H1526 H 0.28057 -0.05732 0.74790
 H1527 H 0.26923 -0.03475 0.73922
 H1528 H 0.25381 -0.02430 0.78276
 C1529 C 0.80181 0.40238 0.77835
 C1530 C 0.79093 0.41178 0.78477
 C1531 C 0.78637 0.40852 0.79937
 C1532 C 0.79223 0.39615 0.80696
 C1533 C 0.80302 0.38686 0.80045
 C1534 C 0.80771 0.39026 0.78605
 C1535 C 0.77604 0.41767 0.80643
 C1536 C 0.77037 0.43025 0.79950
 C1537 C 0.77464 0.43411 0.78502
 C1538 C 0.78468 0.42443 0.77733
 C1539 C 0.78801 0.42764 0.76245
 C1540 C 0.78214 0.44010 0.75543
 C1541 C 0.77292 0.45001 0.76297
 C1542 C 0.76909 0.44725 0.77790
 C1543 C 0.76010 0.45796 0.78517
 C1544 C 0.75508 0.47068 0.77785
 C1545 C 0.75871 0.47316 0.76308
 C1546 C 0.76763 0.46280 0.75567
 H1547 H 0.80632 0.40424 0.76751
 H1548 H 0.78842 0.39400 0.81807
 H1549 H 0.81602 0.38360 0.78048
 H1550 H 0.77240 0.41516 0.81755
 H1551 H 0.76238 0.43659 0.80578
 H1552 H 0.79496 0.42057 0.75575
 H1553 H 0.78503 0.44210 0.74400
 H1554 H 0.75700 0.45706 0.79659
 H1555 H 0.74828 0.47869 0.78377
 H1556 H 0.77065 0.46487 0.74428
 C1557 C 0.77764 -0.09952 0.30075
 C1558 C 0.78447 -0.09022 0.29018
 C1559 C 0.79935 -0.09359 0.28603
 C1560 C 0.80678 -0.10609 0.29199
 C1561 C 0.79980 -0.11524 0.30254
 C1562 C 0.78513 -0.11168 0.30676
 C1563 C 0.80681 -0.08434 0.27611
 C1564 C 0.79999 -0.07160 0.27050
 C1565 C 0.78520 -0.06773 0.27434
 C1566 C 0.77714 -0.07755 0.28388
 C1567 C 0.76196 -0.07444 0.28674
 C1568 C 0.75505 -0.06185 0.28110
 C1569 C 0.76295 -0.05174 0.27249
 C1570 C 0.77814 -0.05445 0.26894
 C1571 C 0.78564 -0.04355 0.26040
 C1572 C 0.77829 -0.03067 0.25560
 C1573 C 0.76327 -0.02827 0.25903
 C1574 C 0.75569 -0.03882 0.26751
 H1575 H 0.76658 -0.09756 0.30496
 H1576 H 0.81813 -0.10839 0.28860
 H1577 H 0.77911 -0.11827 0.31474
 H1578 H 0.81816 -0.08685 0.27280
 H1579 H 0.80657 -0.06509 0.26295
 H1580 H 0.75492 -0.08168 0.29315
 H1581 H 0.74339 -0.05992 0.28365
 H1582 H 0.79724 -0.04448 0.25747
 H1583 H 0.78436 -0.02252 0.24915
 H1584 H 0.74412 -0.03682 0.27043
 C1585 C 0.27572 0.59950 0.70217
 C1586 C 0.28342 0.58910 0.71114
 C1587 C 0.29884 0.59157 0.71358
 C1588 C 0.30609 0.60391 0.70727
 C1589 C 0.29830 0.61400 0.69832
 C1590 C 0.28305 0.61167 0.69592
 C1591 C 0.30704 0.58167 0.72221
 C1592 C 0.30038 0.56917 0.72835
 C1593 C 0.28511 0.56604 0.72614
 C1594 C 0.27642 0.57630 0.71759
 C1595 C 0.26106 0.57339 0.71572
 C1596 C 0.25446 0.56075 0.72162
 C1597 C 0.26283 0.55045 0.72961
 C1598 C 0.27825 0.55293 0.73211
 C1599 C 0.28617 0.54204 0.74031
 C1600 C 0.27908 0.52927 0.74558
 C1601 C 0.26391 0.52692 0.74298
 C1602 C 0.25583 0.53755 0.73500
 H1603 H 0.26404 0.59857 0.69962
 H1604 H 0.31791 0.60544 0.70915
 H1605 H 0.27662 0.61930 0.68920
 H1606 H 0.31882 0.58353 0.72417
 H1607 H 0.30762 0.56216 0.73481
 H1608 H 0.25371 0.58069 0.70972
 H1609 H 0.24265 0.55896 0.71979
 H1610 H 0.29788 0.54289 0.74275
 H1611 H 0.28551 0.52114 0.75174
 H1612 H 0.24410 0.53564 0.73278
 C1613 C 0.31078 1.08713 0.21041
 C1614 C 0.29559 1.08314 0.20887
 C1615 C 0.28637 1.09266 0.20031
 C1616 C 0.29222 1.10555 0.19365
 C1617 C 0.30726 1.10935 0.19541
 C1618 C 0.31643 1.09999 0.20382
 C1619 C 0.27131 1.08936 0.19848
 C1620 C 0.26509 1.07681 0.20495
 C1621 C 0.27373 1.06691 0.21357
 C1622 C 0.28926 1.07009 0.21551
 C1623 C 0.29794 1.06011 0.22400
 C1624 C 0.29176 1.04747 0.23033
 C1625 C 0.27669 1.04422 0.22856
 C1626 C 0.26738 1.05390 0.22025
 C1627 C 0.25211 1.05005 0.21896
 C1628 C 0.24649 1.03715 0.22551
 C1629 C 0.25579 1.02770 0.23362
 C1630 C 0.27089 1.03125 0.23507
 H1631 H 0.31866 1.08064 0.21666
 H1632 H 0.28494 1.11275 0.18729
 H1633 H 0.32814 1.10249 0.20528
 H1634 H 0.26421 1.09660 0.19195
 H1635 H 0.25339 1.07519 0.20290
 H1636 H 0.30966 1.06167 0.22597
 H1637 H 0.29891 1.04013 0.23670
 H1638 H 0.24416 1.05670 0.21296
 H1639 H 0.23479 1.03447 0.22414
 H1640 H 0.27811 1.02392 0.24138
 C1641 C 0.77694 0.59684 0.19399
 C1642 C 0.78262 0.58876 0.20617
 C1643 C 0.79661 0.59320 0.21193
 C1644 C 0.80429 0.60542 0.20591
 C1645 C 0.79843 0.61339 0.19392
 C1646 C 0.78470 0.60889 0.18804
 C1647 C 0.80295 0.58539 0.22365
 C1648 C 0.79594 0.57297 0.22957
 C1649 C 0.78208 0.56795 0.22412
 C1650 C 0.77503 0.57633 0.21262
 C1651 C 0.76060 0.57207 0.20806
 C1652 C 0.75350 0.55976 0.21407
 C1653 C 0.76055 0.55099 0.22467
 C1654 C 0.77499 0.55486 0.22981
 C1655 C 0.78187 0.54520 0.24016
 C1656 C 0.77470 0.53231 0.24503
 C1657 C 0.76044 0.52877 0.24000
 C1658 C 0.75333 0.53817 0.22994
 H1659 H 0.76665 0.59400 0.18858
 H1660 H 0.81493 0.60858 0.21057
 H1661 H 0.77982 0.61463 0.17874
 H1662 H 0.81358 0.58882 0.22822
 H1663 H 0.80159 0.56768 0.23864
 H1664 H 0.75431 0.57818 0.19994
 H1665 H 0.74244 0.55690 0.21018
 H1666 H 0.79294 0.54700 0.24438
 H1667 H 0.78036 0.52499 0.25273
 H1668 H 0.74234 0.53524 0.22590
 C1669 C 0.81236 1.08676 0.70962
 C1670 C 0.79712 1.08269 0.70936
 C1671 C 0.78714 1.09212 0.70154
 C1672 C 0.79234 1.10505 0.69438
 C1673 C 0.80743 1.10901 0.69506
 C1674 C 0.81734 1.09966 0.70263
 C1675 C 0.77199 1.08871 0.70104
 C1676 C 0.76640 1.07628 0.70831
 C1677 C 0.77581 1.06661 0.71639
 C1678 C 0.79147 1.06972 0.71669
 C1679 C 0.80096 1.05974 0.72429
 C1680 C 0.79544 1.04724 0.73141
 C1681 C 0.78023 1.04417 0.73144
 C1682 C 0.77012 1.05384 0.72408
 C1683 C 0.75475 1.05028 0.72478
 C1684 C 0.74979 1.03756 0.73217
 C1685 C 0.75989 1.02799 0.73919
 C1686 C 0.77509 1.03138 0.73880
 H1687 H 0.82078 1.08039 0.71526
 H1688 H 0.78455 1.11225 0.68862
 H1689 H 0.82911 1.10226 0.70317
 H1690 H 0.76431 1.09581 0.69502
 H1691 H 0.75458 1.07451 0.70725
 H1692 H 0.81286 1.06114 0.72487
 H1693 H 0.80320 1.03989 0.73701
 H1694 H 0.74622 1.05706 0.71977
 H1695 H 0.73797 1.03505 0.73220
 H1696 H 0.78294 1.02402 0.74428
 C1697 C 0.72261 0.59991 0.30217
 C1698 C 0.71504 0.59009 0.29254
 C1699 C 0.69982 0.59316 0.28949
 C1700 C 0.69270 0.60565 0.29566
 C1701 C 0.70039 0.61522 0.30516
 C1702 C 0.71538 0.61220 0.30835
 C1703 C 0.69170 0.58372 0.28037
 C1704 C 0.69821 0.57106 0.27437
 C1705 C 0.71327 0.56736 0.27715
 C1706 C 0.72195 0.57726 0.28604
 C1707 C 0.73725 0.57405 0.28806
 C1708 C 0.74379 0.56145 0.28197
 C1709 C 0.73539 0.55141 0.27375
 C1710 C 0.71999 0.55414 0.27124
 C1711 C 0.71193 0.54336 0.26311
 C1712 C 0.71891 0.53058 0.25770
 C1713 C 0.73411 0.52809 0.26011
 C1714 C 0.74230 0.53853 0.26816
 H1715 H 0.73406 0.59834 0.30536
 H1716 H 0.68104 0.60772 0.29327
 H1717 H 0.72166 0.61943 0.31558
 H1718 H 0.68011 0.58610 0.27789
 H1719 H 0.69110 0.56451 0.26736
 H1720 H 0.74462 0.58117 0.29419
 H1721 H 0.75557 0.55948 0.28385
 H1722 H 0.70017 0.54428 0.26091
 H1723 H 0.71238 0.52255 0.25157
 H1724 H 0.75402 0.53646 0.27032
 C1725 C 0.68629 1.09094 0.78690
 C1726 C 0.70077 1.08525 0.78950
 C1727 C 0.71021 1.09350 0.79897
 C1728 C 0.70503 1.10651 0.80596
 C1729 C 0.69050 1.11195 0.80345
 C1730 C 0.68132 1.10399 0.79369
 C1731 C 0.72483 1.08875 0.80142
 C1732 C 0.73044 1.07615 0.79445
 C1733 C 0.72149 1.06751 0.78493
 C1734 C 0.70625 1.07182 0.78288
 C1735 C 0.69691 1.06239 0.77453
 C1736 C 0.70229 1.04940 0.76815
 C1737 C 0.71725 1.04539 0.76950
 C1738 C 0.72717 1.05451 0.77766
 C1739 C 0.74240 1.05028 0.77805
 C1740 C 0.74735 1.03734 0.77104
 C1741 C 0.73736 1.02818 0.76345
 C1742 C 0.72233 1.03226 0.76271
 H1743 H 0.67855 1.08575 0.77945
 H1744 H 0.71253 1.11246 0.81319
 H1745 H 0.67011 1.10766 0.79125
 H1746 H 0.73209 1.09492 0.80874
 H1747 H 0.74179 1.07323 0.79709
 H1748 H 0.68519 1.06452 0.77303
 H1749 H 0.69465 1.04245 0.76197
 H1750 H 0.75083 1.05682 0.78348
 H1751 H 0.75906 1.03437 0.77167
 H1752 H 0.71463 1.02525 0.75668
 C1753 C 0.22537 0.60005 0.80243
 C1754 C 0.21793 0.59016 0.79276
 C1755 C 0.20285 0.59339 0.78925
 C1756 C 0.19575 0.60605 0.79505
 C1757 C 0.20329 0.61568 0.80461
 C1758 C 0.21814 0.61253 0.80823
 C1759 C 0.19483 0.58390 0.78007
 C1760 C 0.20130 0.57105 0.77447
 C1761 C 0.21622 0.56718 0.77774
 C1762 C 0.22481 0.57712 0.78667
 C1763 C 0.23999 0.57372 0.78915
 C1764 C 0.24647 0.56086 0.78354
 C1765 C 0.23810 0.55076 0.77538
 C1766 C 0.22285 0.55371 0.77234
 C1767 C 0.21483 0.54287 0.76422
 C1768 C 0.22171 0.52982 0.75936
 C1769 C 0.23677 0.52712 0.76231
 C1770 C 0.24491 0.53762 0.77034
 H1771 H 0.23672 0.59839 0.80596
 H1772 H 0.18418 0.60819 0.79232
 H1773 H 0.22429 0.61979 0.81555
 H1774 H 0.18333 0.58637 0.77726
 H1775 H 0.19427 0.56444 0.76745
 H1776 H 0.24732 0.58088 0.79530
 H1777 H 0.25816 0.55873 0.78577
 H1778 H 0.20316 0.54396 0.76162
 H1779 H 0.21524 0.52176 0.75321
 H1780 H 0.25655 0.53542 0.77281
 C1781 C 0.22108 1.10113 0.29563
 C1782 C 0.21299 1.09110 0.28665
 C1783 C 0.19756 1.09395 0.28458
 C1784 C 0.19071 1.10642 0.29110
 C1785 C 0.19890 1.11611 0.30006
 C1786 C 0.21412 1.11334 0.30219
 C1787 C 0.18897 1.08424 0.27616
 C1788 C 0.19522 1.07151 0.27002
 C1789 C 0.21047 1.06802 0.27191
 C1790 C 0.21961 1.07823 0.27996
 C1791 C 0.23505 1.07525 0.28103
 C1792 C 0.24129 1.06250 0.27497
 C1793 C 0.23245 1.05211 0.26770
 C1794 C 0.21692 1.05466 0.26602
 C1795 C 0.20846 1.04355 0.25876
 C1796 C 0.21518 1.03056 0.25348
 C1797 C 0.23051 1.02822 0.25515
 C1798 C 0.23909 1.03904 0.26224
 H1799 H 0.23275 1.09976 0.29807
 H1800 H 0.17888 1.10834 0.28950
 H1801 H 0.22079 1.12068 0.30895
 H1802 H 0.17720 1.08640 0.27443
 H1803 H 0.18774 1.06467 0.26370
 H1804 H 0.24275 1.08265 0.28640
 H1805 H 0.25319 1.06068 0.27614
 H1806 H 0.19658 1.04435 0.25720
 H1807 H 0.20836 1.02226 0.24807
 H1808 H 0.25094 1.03712 0.26377
 C1809 C 0.70010 0.39931 0.72257
 C1810 C 0.70973 0.40952 0.71544
 C1811 C 0.71307 0.40692 0.70038
 C1812 C 0.70720 0.39446 0.69301
 C1813 C 0.69766 0.38451 0.70026
 C1814 C 0.69420 0.38710 0.71509
 C1815 C 0.72213 0.41685 0.69269
 C1816 C 0.72772 0.42953 0.69947
 C1817 C 0.72465 0.43273 0.71440
 C1818 C 0.71588 0.42232 0.72264
 C1819 C 0.71361 0.42502 0.73781
 C1820 C 0.71912 0.43773 0.74458
 C1821 C 0.72705 0.44832 0.73658
 C1822 C 0.73003 0.44600 0.72139
 C1823 C 0.73801 0.45727 0.71379
 C1824 C 0.74264 0.47021 0.72097
 C1825 C 0.73961 0.47237 0.73592
 C1826 C 0.73186 0.46136 0.74369
 H1827 H 0.69664 0.40053 0.73386
 H1828 H 0.70982 0.39272 0.68148
 H1829 H 0.68695 0.37960 0.72106
 H1830 H 0.72479 0.41490 0.68120
 H1831 H 0.73458 0.43655 0.69265
 H1832 H 0.70769 0.41743 0.74489
 H1833 H 0.71699 0.43935 0.75623
 H1834 H 0.74064 0.45661 0.70224
 H1835 H 0.74858 0.47865 0.71478
 H1836 H 0.72930 0.46313 0.75523
 C1837 C 0.72352 -0.10052 0.19885
 C1838 C 0.71630 -0.09111 0.20915
 C1839 C 0.70137 -0.09459 0.21302
 C1840 C 0.69416 -0.10699 0.20685
 C1841 C 0.70147 -0.11608 0.19659
 C1842 C 0.71621 -0.11273 0.19273
 C1843 C 0.69360 -0.08559 0.22289
 C1844 C 0.70015 -0.07295 0.22881
 C1845 C 0.71489 -0.06881 0.22516
 C1846 C 0.72325 -0.07829 0.21551
 C1847 C 0.73827 -0.07461 0.21252
 C1848 C 0.74476 -0.06186 0.21828
 C1849 C 0.73659 -0.05219 0.22716
 C1850 C 0.72155 -0.05550 0.23081
 C1851 C 0.71375 -0.04514 0.23973
 C1852 C 0.72057 -0.03212 0.24464
 C1853 C 0.73537 -0.02899 0.24096
 C1854 C 0.74336 -0.03908 0.23227
 H1855 H 0.73474 -0.09867 0.19506
 H1856 H 0.68271 -0.10932 0.20985
 H1857 H 0.72224 -0.11957 0.18492
 H1858 H 0.68223 -0.08824 0.22597
 H1859 H 0.69329 -0.06668 0.23632
 H1860 H 0.74544 -0.08141 0.20580
 H1861 H 0.75630 -0.05947 0.21559
 H1862 H 0.70228 -0.04657 0.24293
 H1863 H 0.71424 -0.02440 0.25137
 H1864 H 0.75478 -0.03655 0.22926
 C1865 C 0.21035 0.41124 0.18749
 C1866 C 0.20926 0.41545 0.20248
 C1867 C 0.20143 0.40577 0.21212
 C1868 C 0.19476 0.39265 0.20677
 C1869 C 0.19597 0.38870 0.19188
 C1870 C 0.20383 0.39813 0.18236
 C1871 C 0.20038 0.40914 0.22707
 C1872 C 0.20709 0.42182 0.23279
 C1873 C 0.21502 0.43185 0.22371
 C1874 C 0.21578 0.42882 0.20823
 C1875 C 0.22286 0.43933 0.19900
 C1876 C 0.22914 0.45224 0.20462
 C1877 C 0.22887 0.45516 0.21968
 C1878 C 0.22202 0.44495 0.22953
 C1879 C 0.22259 0.44829 0.24479
 C1880 C 0.22937 0.46132 0.24989
 C1881 C 0.23575 0.47142 0.24001
 C1882 C 0.23546 0.46830 0.22494
 H1883 H 0.21635 0.41767 0.17942
 H1884 H 0.18890 0.38536 0.21432
 H1885 H 0.20494 0.39545 0.17079
 H1886 H 0.19436 0.40182 0.23449
 H1887 H 0.20561 0.42357 0.24443
 H1888 H 0.22353 0.43809 0.18723
 H1889 H 0.23435 0.46002 0.19706
 H1890 H 0.21807 0.44102 0.25311
 H1891 H 0.22956 0.46357 0.26161
 H1892 H 0.24056 0.47609 0.21731
 C1893 C 0.21229 -0.08977 0.68724
 C1894 C 0.21077 -0.08506 0.70204
 C1895 C 0.20268 -0.09442 0.71178
 C1896 C 0.19620 -0.10773 0.70670
 C1897 C 0.19784 -0.11218 0.69200
 C1898 C 0.20595 -0.10306 0.68238
 C1899 C 0.20114 -0.09052 0.72655
 C1900 C 0.20763 -0.07763 0.73202
 C1901 C 0.21584 -0.06791 0.72284
 C1902 C 0.21712 -0.07150 0.70752
 C1903 C 0.22456 -0.06135 0.69816
 C1904 C 0.23075 -0.04830 0.70354
 C1905 C 0.22998 -0.04484 0.71847
 C1906 C 0.22267 -0.05463 0.72841
 C1907 C 0.22262 -0.05071 0.74353
 C1908 C 0.22930 -0.03757 0.74840
 C1909 C 0.23630 -0.02794 0.73846
 C1910 C 0.23656 -0.03160 0.72351
 H1911 H 0.21846 -0.08358 0.67911
 H1912 H 0.19011 -0.11477 0.71431
 H1913 H 0.20735 -0.10610 0.67093
 H1914 H 0.19491 -0.09759 0.73403
 H1915 H 0.20577 -0.07548 0.74354
 H1916 H 0.22565 -0.06302 0.68648
 H1917 H 0.23629 -0.04083 0.69590
 H1918 H 0.21766 -0.05758 0.75193
 H1919 H 0.22893 -0.03486 0.76002
 H1920 H 0.24208 -0.02418 0.71581
 C1921 C 0.31090 0.28545 0.41172
 C1922 C 0.29608 0.28751 0.41674
 C1923 C 0.28650 0.29655 0.40805
 C1924 C 0.29174 0.30337 0.39510
 C1925 C 0.30643 0.30115 0.39034
 C1926 C 0.31591 0.29213 0.39876
 C1927 C 0.27170 0.29867 0.41225
 C1928 C 0.26606 0.29194 0.42485
 C1929 C 0.27510 0.28288 0.43395
 C1930 C 0.29044 0.28084 0.42995
 C1931 C 0.29966 0.27230 0.43936
 C1932 C 0.29414 0.26582 0.45210
 C1933 C 0.27921 0.26746 0.45601
 C1934 C 0.26940 0.27591 0.44701
 C1935 C 0.25428 0.27699 0.45151
 C1936 C 0.24933 0.27018 0.46446
 C1937 C 0.25918 0.26201 0.47329
 C1938 C 0.27409 0.26070 0.46900
 H1939 H 0.31894 0.27863 0.41741
 H1940 H 0.28424 0.31018 0.38856
 H1941 H 0.32736 0.29028 0.39542
 H1942 H 0.26432 0.30557 0.40566
 H1943 H 0.25452 0.29422 0.42723
 H1944 H 0.31135 0.27052 0.43733
 H1945 H 0.30168 0.25942 0.45899
 H1946 H 0.24596 0.28297 0.44531
 H1947 H 0.23775 0.27140 0.46766
 H1948 H 0.28172 0.25429 0.47580
 C1949 C 0.27930 0.79824 -0.09910
 C1950 C 0.28664 0.78811 -0.08956
 C1951 C 0.30177 0.78463 -0.09262
 C1952 C 0.30902 0.79086 -0.10492
 C1953 C 0.30161 0.80108 -0.11402
 C1954 C 0.28672 0.80463 -0.11102
 C1955 C 0.30970 0.77521 -0.08322
 C1956 C 0.30314 0.76957 -0.07052
 C1957 C 0.28819 0.77289 -0.06684
 C1958 C 0.27961 0.78172 -0.07689
 C1959 C 0.26428 0.78384 -0.07397
 C1960 C 0.25769 0.77819 -0.06133
 C1961 C 0.26609 0.77037 -0.05098
 C1962 C 0.28147 0.76761 -0.05350
 C1963 C 0.28953 0.75998 -0.04236
 C1964 C 0.28251 0.75522 -0.02944
 C1965 C 0.26729 0.75780 -0.02723
 C1966 C 0.25916 0.76542 -0.03802
 H1967 H 0.26797 0.80187 -0.09743
 H1968 H 0.32063 0.78821 -0.10707
 H1969 H 0.28071 0.81245 -0.11794
 H1970 H 0.32123 0.77239 -0.08555
 H1971 H 0.31008 0.76243 -0.06387
 H1972 H 0.25692 0.78966 -0.08139
 H1973 H 0.24588 0.78014 -0.05955
 H1974 H 0.30132 0.75779 -0.04311
 H1975 H 0.28900 0.74944 -0.02114
 H1976 H 0.24742 0.76768 -0.03618
 C1977 C 0.78522 0.31232 -0.08744
 C1978 C 0.78654 0.29706 -0.08352
 C1979 C 0.79446 0.28762 -0.09331
 C1980 C 0.80080 0.29331 -0.10628
 C1981 C 0.79953 0.30844 -0.10991
 C1982 C 0.79157 0.31784 -0.10041
 C1983 C 0.79607 0.27251 -0.09017
 C1984 C 0.79018 0.26645 -0.07739
 C1985 C 0.78241 0.27533 -0.06708
 C1986 C 0.78039 0.29086 -0.07027
 C1987 C 0.77231 0.29964 -0.06012
 C1988 C 0.76650 0.29357 -0.04726
 C1989 C 0.76856 0.27855 -0.04390
 C1990 C 0.77658 0.26918 -0.05370
 C1991 C 0.77852 0.25405 -0.04958
 C1992 C 0.77258 0.24853 -0.03647
 C1993 C 0.76448 0.25780 -0.02703
 C1994 C 0.76263 0.27284 -0.03072
 H1995 H 0.77946 0.32035 -0.08071
 H1996 H 0.80670 0.28580 -0.11359
 H1997 H 0.79042 0.32960 -0.10284
 H1998 H 0.80203 0.26524 -0.09768
 H1999 H 0.79190 0.25467 -0.07600
 H2000 H 0.77020 0.31134 -0.06176
 H2001 H 0.76037 0.30077 -0.03982
 H2002 H 0.78466 0.24614 -0.05612
 H2003 H 0.77436 0.23693 -0.03365
 H2004 H 0.75641 0.28005 -0.02335
 C2005 C 0.77807 0.79712 0.40093
 C2006 C 0.78609 0.78815 0.41105
 C2007 C 0.80149 0.78581 0.40827
 C2008 C 0.80837 0.79207 0.39581
 C2009 C 0.80025 0.80098 0.38599
 C2010 C 0.78506 0.80340 0.38868
 C2011 C 0.81003 0.77734 0.41800
 C2012 C 0.80375 0.77135 0.43065
 C2013 C 0.78853 0.77348 0.43407
 C2014 C 0.77945 0.78165 0.42389
 C2015 C 0.76403 0.78301 0.42686
 C2016 C 0.75776 0.77703 0.43952
 C2017 C 0.76654 0.76958 0.44983
 C2018 C 0.78206 0.76768 0.44731
 C2019 C 0.79048 0.76027 0.45833
 C2020 C 0.78373 0.75499 0.47116
 C2021 C 0.76843 0.75682 0.47345
 C2022 C 0.75988 0.76412 0.46275
 H2023 H 0.76642 0.79973 0.40220
 H2024 H 0.82018 0.79024 0.39397
 H2025 H 0.77843 0.81013 0.38124
 H2026 H 0.82178 0.77541 0.41589
 H2027 H 0.81120 0.76494 0.43748
 H2028 H 0.75639 0.78856 0.41954
 H2029 H 0.74588 0.77839 0.44133
 H2030 H 0.80233 0.75855 0.45756
 H2031 H 0.79051 0.74939 0.47935
 H2032 H 0.74804 0.76576 0.46463
 C2033 C 0.70426 0.27650 0.60029
 C2034 C 0.71351 0.28417 0.59019
 C2035 C 0.71642 0.29946 0.59300
 C2036 C 0.71018 0.30662 0.60535
 C2037 C 0.70081 0.29887 0.61503
 C2038 C 0.69805 0.28375 0.61241
 C2039 C 0.72538 0.30759 0.58340
 C2040 C 0.73138 0.30103 0.57087
 C2041 C 0.72869 0.28592 0.56742
 C2042 C 0.71977 0.27729 0.57735
 C2043 C 0.71731 0.26210 0.57405
 C2044 C 0.72299 0.25562 0.56136
 C2045 C 0.73137 0.26394 0.55141
 C2046 C 0.73449 0.27917 0.55430
 C2047 C 0.74313 0.28702 0.54378
 C2048 C 0.74819 0.28008 0.53097
 C2049 C 0.74493 0.26511 0.52818
 C2050 C 0.73653 0.25708 0.53846
 H2051 H 0.70143 0.26490 0.59916
 H2052 H 0.71237 0.31834 0.60721
 H2053 H 0.69108 0.27734 0.61980
 H2054 H 0.72770 0.31925 0.58550
 H2055 H 0.73806 0.30823 0.56408
 H2056 H 0.71095 0.25479 0.58104
 H2057 H 0.72069 0.24396 0.55928
 H2058 H 0.74611 0.29857 0.54498
 H2059 H 0.75474 0.28645 0.52316
 H2060 H 0.73384 0.24552 0.53625
 C2061 C 0.70883 0.80929 1.08664
 C2062 C 0.70811 0.79416 1.08234
 C2063 C 0.70040 0.78415 1.09176
 C2064 C 0.69367 0.78926 1.10484
 C2065 C 0.69481 0.80425 1.10899
 C2066 C 0.70235 0.81416 1.09971
 C2067 C 0.69964 0.76906 1.08819
 C2068 C 0.70652 0.76356 1.07559
 C2069 C 0.71436 0.77303 1.06586
 C2070 C 0.71493 0.78863 1.06916
 C2071 C 0.72229 0.79821 1.05917
 C2072 C 0.72909 0.79280 1.04656
 C2073 C 0.72891 0.77765 1.04333
 C2074 C 0.72161 0.76747 1.05288
 C2075 C 0.72194 0.75216 1.04899
 C2076 C 0.72910 0.74735 1.03616
 C2077 C 0.73621 0.75755 1.02686
 C2078 C 0.73604 0.77267 1.03050
 H2079 H 0.71452 0.81771 1.08035
 H2080 H 0.68796 0.78147 1.11202
 H2081 H 0.70324 0.82585 1.10253
 H2082 H 0.69377 0.76134 1.09532
 H2083 H 0.70539 0.75177 1.07377
 H2084 H 0.72294 0.81008 1.06065
 H2085 H 0.73459 0.80062 1.03924
 H2086 H 0.71683 0.74360 1.05558
 H2087 H 0.72899 0.73560 1.03342
 H2088 H 0.74159 0.78057 1.02331
 C2089 C 0.20158 0.27477 1.09949
 C2090 C 0.21056 0.28242 1.08913
 C2091 C 0.21327 0.29778 1.09166
 C2092 C 0.20715 0.30502 1.10401
 C2093 C 0.19823 0.29725 1.11412
 C2094 C 0.19558 0.28206 1.11169
 C2095 C 0.22204 0.30589 1.08185
 C2096 C 0.22821 0.29916 1.06950
 C2097 C 0.22584 0.28393 1.06639
 C2098 C 0.21686 0.27541 1.07638
 C2099 C 0.21440 0.26019 1.07323
 C2100 C 0.22030 0.25353 1.06073
 C2101 C 0.22894 0.26167 1.05086
 C2102 C 0.23200 0.27695 1.05355
 C2103 C 0.24101 0.28457 1.04316
 C2104 C 0.24640 0.27739 1.03061
 C2105 C 0.24313 0.26240 1.02799
 C2106 C 0.23441 0.25459 1.03818
 H2107 H 0.19893 0.26311 1.09857
 H2108 H 0.20928 0.31678 1.10562
 H2109 H 0.18890 0.27561 1.11928
 H2110 H 0.22415 0.31763 1.08371
 H2111 H 0.23475 0.30633 1.06254
 H2112 H 0.20785 0.25300 1.08016
 H2113 H 0.21801 0.24184 1.05875
 H2114 H 0.24409 0.29610 1.04431
 H2115 H 0.25318 0.28358 1.02285
 H2116 H 0.23169 0.24302 1.03608
 C2117 C 0.18905 0.78661 0.58767
 C2118 C 0.20407 0.78820 0.58309
 C2119 C 0.21373 0.79658 0.59225
 C2120 C 0.20840 0.80317 0.60528
 C2121 C 0.19350 0.80143 0.60960
 C2122 C 0.18394 0.79309 0.60067
 C2123 C 0.22868 0.79831 0.58843
 C2124 C 0.23439 0.79182 0.57575
 C2125 C 0.22529 0.78335 0.56623
 C2126 C 0.20982 0.78171 0.56985
 C2127 C 0.20058 0.77369 0.56007
 C2128 C 0.20621 0.76733 0.54734
 C2129 C 0.22126 0.76857 0.54379
 C2130 C 0.23109 0.77653 0.55315
 C2131 C 0.24633 0.77724 0.54898
 C2132 C 0.25141 0.77043 0.53608
 C2133 C 0.24155 0.76266 0.52699
 C2134 C 0.22650 0.76183 0.53087
 H2135 H 0.18091 0.78034 0.58157
 H2136 H 0.21597 0.80945 0.61219
 H2137 H 0.17233 0.79166 0.60361
 H2138 H 0.23611 0.80474 0.59537
 H2139 H 0.24604 0.79378 0.57368
 H2140 H 0.18881 0.77220 0.56182
 H2141 H 0.19866 0.76130 0.54017
 H2142 H 0.25466 0.78288 0.55542
 H2143 H 0.26310 0.77125 0.53316
 H2144 H 0.21888 0.75573 0.52384
 C2145 C 0.27693 0.70478 0.60209
 C2146 C 0.28494 0.71237 0.59094
 C2147 C 0.30060 0.71375 0.59273
 C2148 C 0.30778 0.70779 0.60523
 C2149 C 0.29965 0.70005 0.61596
 C2150 C 0.28418 0.69873 0.61429
 C2151 C 0.30908 0.72085 0.58194
 C2152 C 0.30248 0.72625 0.56915
 C2153 C 0.28698 0.72491 0.56667
 C2154 C 0.27800 0.71832 0.57798
 C2155 C 0.26238 0.71787 0.57594
 C2156 C 0.25578 0.72313 0.56314
 C2157 C 0.26441 0.72895 0.55176
 C2158 C 0.28013 0.72996 0.55329
 C2159 C 0.28832 0.73572 0.54120
 C2160 C 0.28114 0.74035 0.52832
 C2161 C 0.26563 0.73948 0.52704
 C2162 C 0.25733 0.73370 0.53877
 H2163 H 0.26508 0.70300 0.60163
 H2164 H 0.31977 0.70877 0.60633
 H2165 H 0.27756 0.69298 0.62247
 H2166 H 0.32103 0.72207 0.58329
 H2167 H 0.30989 0.73156 0.56144
 H2168 H 0.25482 0.71361 0.58413
 H2169 H 0.24376 0.72249 0.56208
 H2170 H 0.30029 0.73661 0.54121
 H2171 H 0.28775 0.74472 0.51931
 H2172 H 0.24532 0.73276 0.53769
 C2173 C 0.30076 0.22279 1.10092
 C2174 C 0.29130 0.21524 1.09092
 C2175 C 0.28793 0.20010 1.09398
 C2176 C 0.29382 0.19299 1.10652
 C2177 C 0.30333 0.20061 1.11616
 C2178 C 0.30663 0.21557 1.11325
 C2179 C 0.27883 0.19206 1.08444
 C2180 C 0.27318 0.19855 1.07172
 C2181 C 0.27636 0.21350 1.06799
 C2182 C 0.28533 0.22208 1.07791
 C2183 C 0.28808 0.23719 1.07445
 C2184 C 0.28272 0.24359 1.06159
 C2185 C 0.27439 0.23529 1.05160
 C2186 C 0.27095 0.22017 1.05464
 C2187 C 0.26241 0.21233 1.04404
 C2188 C 0.25763 0.21925 1.03108
 C2189 C 0.26112 0.23415 1.02822
 C2190 C 0.26955 0.24209 1.03851
 H2191 H 0.30403 0.23423 1.09951
 H2192 H 0.29126 0.18136 1.10854
 H2193 H 0.31378 0.22185 1.12055
 H2194 H 0.27615 0.18051 1.08675
 H2195 H 0.26632 0.19145 1.06500
 H2196 H 0.29436 0.24449 1.08149
 H2197 H 0.28522 0.25521 1.05939
 H2198 H 0.25927 0.20083 1.04533
 H2199 H 0.25109 0.21293 1.02324
 H2200 H 0.27246 0.25360 1.03623
 C2201 C 0.80089 0.72448 1.09926
 C2202 C 0.79203 0.71654 1.08900
 C2203 C 0.78999 0.70107 1.09148
 C2204 C 0.79609 0.69412 1.10395
 C2205 C 0.80461 0.70219 1.11409
 C2206 C 0.80709 0.71738 1.11154
 C2207 C 0.78189 0.69254 1.08149
 C2208 C 0.77594 0.69891 1.06888
 C2209 C 0.77763 0.71425 1.06582
 C2210 C 0.78534 0.72332 1.07631
 C2211 C 0.78592 0.73886 1.07386
 C2212 C 0.77965 0.74528 1.06138
 C2213 C 0.77279 0.73651 1.05071
 C2214 C 0.77175 0.72085 1.05268
 C2215 C 0.76510 0.71242 1.04125
 C2216 C 0.75969 0.71930 1.02854
 C2217 C 0.76057 0.73474 1.02683
 C2218 C 0.76709 0.74332 1.03794
 H2219 H 0.80345 0.73614 1.09802
 H2220 H 0.79438 0.68228 1.10559
 H2221 H 0.81369 0.72388 1.11915
 H2222 H 0.78023 0.68072 1.08338
 H2223 H 0.76979 0.69147 1.06185
 H2224 H 0.79095 0.74647 1.08155
 H2225 H 0.78035 0.75726 1.05999
 H2226 H 0.76418 0.70046 1.04157
 H2227 H 0.75476 0.71252 1.01997
 H2228 H 0.76797 0.75528 1.03648
 C2229 C 0.80033 0.22360 0.60125
 C2230 C 0.79151 0.21621 0.59059
 C2231 C 0.78835 0.20091 0.59299
 C2232 C 0.79392 0.19345 0.60550
 C2233 C 0.80288 0.20092 0.61575
 C2234 C 0.80588 0.21607 0.61352
 C2235 C 0.77981 0.19306 0.58280
 C2236 C 0.77453 0.19992 0.57009
 C2237 C 0.77757 0.21506 0.56702
 C2238 C 0.78595 0.22342 0.57759
 C2239 C 0.78857 0.23869 0.57478
 C2240 C 0.78356 0.24550 0.56197
 C2241 C 0.77577 0.23745 0.55139
 C2242 C 0.77256 0.22214 0.55372
 C2243 C 0.76463 0.21456 0.54248
 C2244 C 0.76014 0.22193 0.52965
 C2245 C 0.76331 0.23704 0.52755
 C2246 C 0.77124 0.24469 0.53842
 H2247 H 0.80334 0.23517 0.60042
 H2248 H 0.79158 0.18170 0.60703
 H2249 H 0.81256 0.22225 0.62132
 H2250 H 0.77726 0.18138 0.58459
 H2251 H 0.76805 0.19298 0.56287
 H2252 H 0.79448 0.24582 0.58227
 H2253 H 0.78592 0.25723 0.56030
 H2254 H 0.76178 0.20293 0.54317
 H2255 H 0.75404 0.21581 0.52132
 H2256 H 0.77396 0.25634 0.53672
 C2257 C 0.68963 0.71362 0.41287
 C2258 C 0.70464 0.71161 0.41734
 C2259 C 0.71401 0.70292 0.40811
 C2260 C 0.70843 0.69642 0.39518
 C2261 C 0.69354 0.69849 0.39100
 C2262 C 0.68425 0.70717 0.39995
 C2263 C 0.72894 0.70077 0.41177
 C2264 C 0.73490 0.70701 0.42442
 C2265 C 0.72609 0.71568 0.43408
 C2266 C 0.71067 0.71791 0.43055
 C2267 C 0.70178 0.72626 0.44040
 C2268 C 0.70768 0.73230 0.45318
 C2269 C 0.72267 0.73035 0.45671
 C2270 C 0.73216 0.72209 0.44721
 C2271 C 0.74734 0.72061 0.45132
 C2272 C 0.75271 0.72695 0.46428
 C2273 C 0.74325 0.73506 0.47354
 C2274 C 0.72822 0.73665 0.46975
 H2275 H 0.68172 0.72017 0.41901
 H2276 H 0.71581 0.68990 0.38826
 H2277 H 0.67266 0.70890 0.39707
 H2278 H 0.73615 0.69416 0.40473
 H2279 H 0.74651 0.70467 0.42634
 H2280 H 0.69008 0.72828 0.43865
 H2281 H 0.70038 0.73859 0.46041
 H2282 H 0.75543 0.71467 0.44481
 H2283 H 0.76436 0.72547 0.46714
 H2284 H 0.72090 0.74298 0.47693
 C2285 C 0.70521 0.22230 -0.10075
 C2286 C 0.71359 0.21421 -0.09021
 C2287 C 0.71562 0.19871 -0.09268
 C2288 C 0.70941 0.19177 -0.10514
 C2289 C 0.70088 0.19995 -0.11524
 C2290 C 0.69899 0.21527 -0.11296
 C2291 C 0.72369 0.19018 -0.08261
 C2292 C 0.72948 0.19653 -0.06990
 C2293 C 0.72749 0.21182 -0.06672
 C2294 C 0.71976 0.22089 -0.07725
 C2295 C 0.71839 0.23632 -0.07442
 C2296 C 0.72395 0.24264 -0.06162
 C2297 C 0.73102 0.23390 -0.05103
 C2298 C 0.73294 0.21837 -0.05337
 C2299 C 0.74001 0.21003 -0.04208
 C2300 C 0.74497 0.21687 -0.02918
 C2301 C 0.74313 0.23221 -0.02705
 C2302 C 0.73609 0.24065 -0.03800
 H2303 H 0.70301 0.23406 -0.09986
 H2304 H 0.71088 0.17988 -0.10672
 H2305 H 0.69266 0.22197 -0.12068
 H2306 H 0.72542 0.17836 -0.08449
 H2307 H 0.73556 0.18908 -0.06280
 H2308 H 0.71309 0.24396 -0.08193
 H2309 H 0.72256 0.25452 -0.05994
 H2310 H 0.74175 0.19818 -0.04273
 H2311 H 0.75037 0.21014 -0.02081
 H2312 H 0.73441 0.25249 -0.03629
 C2313 C 0.18850 0.71479 -0.08861
 C2314 C 0.20350 0.71304 -0.08397
 C2315 C 0.21303 0.70426 -0.09293
 C2316 C 0.20767 0.69756 -0.10586
 C2317 C 0.19281 0.69943 -0.11026
 C2318 C 0.18333 0.70812 -0.10152
 C2319 C 0.22791 0.70218 -0.08902
 C2320 C 0.23365 0.70856 -0.07634
 C2321 C 0.22468 0.71732 -0.06692
 C2322 C 0.20936 0.71965 -0.07081
 C2323 C 0.20042 0.72850 -0.06143
 C2324 C 0.20616 0.73483 -0.04870
 C2325 C 0.22100 0.73262 -0.04472
 C2326 C 0.23052 0.72384 -0.05372
 C2327 C 0.24549 0.72191 -0.04904
 C2328 C 0.25066 0.72844 -0.03609
 C2329 C 0.24122 0.73719 -0.02740
 C2330 C 0.22637 0.73916 -0.03171
 H2331 H 0.18042 0.72121 -0.08255
 H2332 H 0.21521 0.69102 -0.11259
 H2333 H 0.17175 0.70967 -0.10454
 H2334 H 0.23525 0.69553 -0.09588
 H2335 H 0.24526 0.70637 -0.07428
 H2336 H 0.18884 0.73080 -0.06357
 H2337 H 0.19885 0.74153 -0.04186
 H2338 H 0.25352 0.71536 -0.05503
 H2339 H 0.26212 0.72658 -0.03279
 H2340 H 0.21903 0.74592 -0.02495
 C2341 C 0.22284 0.20100 0.40139
 C2342 C 0.21503 0.20979 0.41180
 C2343 C 0.19955 0.21209 0.40947
 C2344 C 0.19243 0.20610 0.39704
 C2345 C 0.20037 0.19746 0.38687
 C2346 C 0.21560 0.19495 0.38920
 C2347 C 0.19120 0.22025 0.41960
 C2348 C 0.19775 0.22595 0.43223
 C2349 C 0.21309 0.22389 0.43517
 C2350 C 0.22196 0.21611 0.42453
 C2351 C 0.23749 0.21500 0.42692
 C2352 C 0.24408 0.22078 0.43948
 C2353 C 0.23551 0.22777 0.45025
 C2354 C 0.21989 0.22943 0.44834
 C2355 C 0.21173 0.23634 0.45985
 C2356 C 0.21886 0.24144 0.47254
 C2357 C 0.23428 0.23992 0.47416
 C2358 C 0.24253 0.23301 0.46302
 H2359 H 0.23451 0.19833 0.40241
 H2360 H 0.18058 0.20793 0.39548
 H2361 H 0.22206 0.18837 0.38151
 H2362 H 0.17938 0.22213 0.41782
 H2363 H 0.19046 0.23213 0.43941
 H2364 H 0.24500 0.20989 0.41917
 H2365 H 0.25604 0.21965 0.44083
 H2366 H 0.19981 0.23777 0.45956
 H2367 H 0.21230 0.24665 0.48115
 H2368 H 0.25446 0.23156 0.46441
 C2369 C 0.29052 0.41341 0.68933
 C2370 C 0.29118 0.41709 0.70448
 C2371 C 0.29843 0.40689 0.71407
 C2372 C 0.30505 0.39382 0.70853
 C2373 C 0.30417 0.39038 0.69352
 C2374 C 0.29686 0.40028 0.68403
 C2375 C 0.29884 0.40966 0.72917
 C2376 C 0.29196 0.42220 0.73507
 C2377 C 0.28461 0.43271 0.72601
 C2378 C 0.28467 0.43036 0.71041
 C2379 C 0.27838 0.44143 0.70124
 C2380 C 0.27190 0.45416 0.70705
 C2381 C 0.27123 0.45634 0.72221
 C2382 C 0.27740 0.44563 0.73198
 C2383 C 0.27598 0.44832 0.74731
 C2384 C 0.26907 0.46124 0.75256
 C2385 C 0.26333 0.47182 0.74276
 C2386 C 0.26442 0.46930 0.72762
 H2387 H 0.28491 0.42021 0.68128
 H2388 H 0.31051 0.38609 0.71599
 H2389 H 0.29605 0.39792 0.67236
 H2390 H 0.30440 0.40195 0.73656
 H2391 H 0.29285 0.42345 0.74683
 H2392 H 0.27854 0.44080 0.68940
 H2393 H 0.26728 0.46238 0.69955
 H2394 H 0.27994 0.44063 0.75555
 H2395 H 0.26830 0.46305 0.76434
 H2396 H 0.25984 0.47747 0.72004
 C2397 C 0.30961 0.91076 0.21421
 C2398 C 0.29461 0.91538 0.21218
 C2399 C 0.28529 0.90612 0.20353
 C2400 C 0.29091 0.89307 0.19702
 C2401 C 0.30580 0.88878 0.19900
 C2402 C 0.31504 0.89769 0.20774
 C2403 C 0.27038 0.90988 0.20134
 C2404 C 0.26438 0.92265 0.20756
 C2405 C 0.27312 0.93237 0.21620
 C2406 C 0.28855 0.92878 0.21841
 C2407 C 0.29741 0.93879 0.22660
 C2408 C 0.29148 0.95182 0.23243
 C2409 C 0.27647 0.95539 0.23052
 C2410 C 0.26700 0.94566 0.22254
 C2411 C 0.25176 0.94970 0.22123
 C2412 C 0.24635 0.96291 0.22732
 C2413 C 0.25582 0.97250 0.23501
 C2414 C 0.27089 0.96871 0.23655
 H2415 H 0.31747 0.91692 0.22077
 H2416 H 0.28354 0.88617 0.19050
 H2417 H 0.32661 0.89470 0.20946
 H2418 H 0.26322 0.90284 0.19471
 H2419 H 0.25280 0.92467 0.20515
 H2420 H 0.30911 0.93700 0.22857
 H2421 H 0.29877 0.95921 0.23853
 H2422 H 0.24365 0.94295 0.21563
 H2423 H 0.23468 0.96573 0.22593
 H2424 H 0.27822 0.97613 0.24256
 C2425 C 0.79787 0.40071 0.22219
 C2426 C 0.78935 0.41161 0.21465
 C2427 C 0.78752 0.40987 0.19923
 C2428 C 0.79369 0.39754 0.19187
 C2429 C 0.80205 0.38684 0.19954
 C2430 C 0.80409 0.38860 0.21473
 C2431 C 0.77961 0.42048 0.19116
 C2432 C 0.77369 0.43301 0.19796
 C2433 C 0.77527 0.43537 0.21326
 C2434 C 0.78280 0.42426 0.22183
 C2435 C 0.78343 0.42610 0.23727
 C2436 C 0.77733 0.43854 0.24409
 C2437 C 0.77055 0.44977 0.23586
 C2438 C 0.76947 0.44843 0.22031
 C2439 C 0.76284 0.46039 0.21246
 C2440 C 0.75744 0.47294 0.21978
 C2441 C 0.75835 0.47402 0.23510
 C2442 C 0.76493 0.46243 0.24311
 H2443 H 0.80017 0.40126 0.23381
 H2444 H 0.79219 0.39644 0.18008
 H2445 H 0.81044 0.38052 0.22100
 H2446 H 0.77807 0.41916 0.17939
 H2447 H 0.76771 0.44055 0.19087
 H2448 H 0.78838 0.41797 0.24451
 H2449 H 0.77808 0.43944 0.25598
 H2450 H 0.76187 0.46058 0.20065
 H2451 H 0.75247 0.48189 0.21342
 H2452 H 0.76585 0.46339 0.25498
 C2453 C 0.77551 0.89876 0.70492
 C2454 C 0.78315 0.90968 0.71322
 C2455 C 0.79872 0.90767 0.71534
 C2456 C 0.80618 0.89530 0.70924
 C2457 C 0.79843 0.88484 0.70075
 C2458 C 0.78304 0.88665 0.69882
 C2459 C 0.80682 0.91813 0.72335
 C2460 C 0.79993 0.93074 0.72908
 C2461 C 0.78453 0.93343 0.72708
 C2462 C 0.77595 0.92259 0.71923
 C2463 C 0.76047 0.92509 0.71753
 C2464 C 0.75366 0.93787 0.72288
 C2465 C 0.76190 0.94872 0.73018
 C2466 C 0.77742 0.94666 0.73254
 C2467 C 0.78518 0.95808 0.74008
 C2468 C 0.77784 0.97093 0.74485
 C2469 C 0.76257 0.97288 0.74237
 C2470 C 0.75465 0.96173 0.73501
 H2471 H 0.76373 0.89924 0.70273
 H2472 H 0.81810 0.89407 0.71077
 H2473 H 0.77666 0.87864 0.69255
 H2474 H 0.81869 0.91665 0.72508
 H2475 H 0.80711 0.93822 0.73502
 H2476 H 0.75318 0.91738 0.71204
 H2477 H 0.74177 0.93933 0.72118
 H2478 H 0.79694 0.95755 0.74241
 H2479 H 0.78414 0.97945 0.75055
 H2480 H 0.74285 0.96330 0.73289
 C2481 C 0.72362 0.60144 0.69966
 C2482 C 0.71576 0.59057 0.70791
 C2483 C 0.70017 0.59261 0.70967
 C2484 C 0.69296 0.60514 0.70369
 C2485 C 0.70092 0.61578 0.69560
 C2486 C 0.71629 0.61377 0.69362
 C2487 C 0.69176 0.58210 0.71730
 C2488 C 0.69836 0.56936 0.72301
 C2489 C 0.71381 0.56666 0.72147
 C2490 C 0.72275 0.57769 0.71425
 C2491 C 0.73835 0.57552 0.71376
 C2492 C 0.74498 0.56287 0.71972
 C2493 C 0.73636 0.55172 0.72617
 C2494 C 0.72063 0.55336 0.72704
 C2495 C 0.71237 0.54145 0.73324
 C2496 C 0.71948 0.52869 0.73852
 C2497 C 0.73499 0.52734 0.73789
 C2498 C 0.74340 0.53885 0.73168
 H2499 H 0.73539 0.60064 0.69743
 H2500 H 0.68103 0.60638 0.70509
 H2501 H 0.72275 0.62180 0.68743
 H2502 H 0.67985 0.58367 0.71877
 H2503 H 0.69100 0.56194 0.72884
 H2504 H 0.74587 0.58356 0.70903
 H2505 H 0.75700 0.56173 0.71913
 H2506 H 0.70039 0.54147 0.73396
 H2507 H 0.71282 0.51982 0.74323
 H2508 H 0.75542 0.53770 0.73101
 C2509 C 0.72211 0.09813 0.19930
 C2510 C 0.71435 0.08801 0.20852
 C2511 C 0.69895 0.09066 0.21092
 C2512 C 0.69183 0.10307 0.20457
 C2513 C 0.69971 0.11300 0.19555
 C2514 C 0.71488 0.11035 0.19297
 C2515 C 0.69065 0.08089 0.21957
 C2516 C 0.69720 0.06833 0.22577
 C2517 C 0.71247 0.06509 0.22370
 C2518 C 0.72128 0.07530 0.21524
 C2519 C 0.73673 0.07251 0.21385
 C2520 C 0.74330 0.05999 0.22008
 C2521 C 0.73480 0.04967 0.22786
 C2522 C 0.71926 0.05200 0.22982
 C2523 C 0.71117 0.04096 0.23763
 C2524 C 0.71824 0.02824 0.24314
 C2525 C 0.73355 0.02612 0.24117
 C2526 C 0.74178 0.03688 0.23355
 H2527 H 0.73372 0.09687 0.19657
 H2528 H 0.68003 0.10481 0.20650
 H2529 H 0.72133 0.11780 0.18610
 H2530 H 0.67888 0.08289 0.22150
 H2531 H 0.68992 0.06145 0.23230
 H2532 H 0.74419 0.07989 0.20810
 H2533 H 0.75519 0.05831 0.21867
 H2534 H 0.69933 0.04163 0.23949
 H2535 H 0.71169 0.01999 0.24898
 H2536 H 0.75362 0.03513 0.23180
 C2537 C 0.22301 0.60030 0.20201
 C2538 C 0.21538 0.58982 0.21089
 C2539 C 0.19996 0.59231 0.21349
 C2540 C 0.19263 0.60474 0.20734
 C2541 C 0.20035 0.61478 0.19831
 C2542 C 0.21561 0.61247 0.19586
 C2543 C 0.19187 0.58227 0.22205
 C2544 C 0.19860 0.56959 0.22785
 C2545 C 0.21384 0.56642 0.22537
 C2546 C 0.22245 0.57688 0.21703
 C2547 C 0.23782 0.57399 0.21500
 C2548 C 0.24447 0.56116 0.22045
 C2549 C 0.23616 0.55062 0.22815
 C2550 C 0.22076 0.55309 0.23086
 C2551 C 0.21291 0.54194 0.23875
 C2552 C 0.22006 0.52898 0.24355
 C2553 C 0.23522 0.52666 0.24075
 C2554 C 0.24321 0.53752 0.23303
 H2555 H 0.23468 0.59939 0.19938
 H2556 H 0.18081 0.60635 0.20926
 H2557 H 0.22197 0.62014 0.18915
 H2558 H 0.18011 0.58414 0.22417
 H2559 H 0.19145 0.56247 0.23426
 H2560 H 0.24514 0.58145 0.20920
 H2561 H 0.25628 0.55940 0.21850
 H2562 H 0.20121 0.54275 0.24130
 H2563 H 0.21370 0.52068 0.24953
 H2564 H 0.25492 0.53566 0.23065
 C2565 C 0.18707 0.08718 0.70760
 C2566 C 0.20232 0.08310 0.70743
 C2567 C 0.21249 0.09300 0.70052
 C2568 C 0.20740 0.10627 0.69390
 C2569 C 0.19228 0.11014 0.69437
 C2570 C 0.18222 0.10044 0.70121
 C2571 C 0.22769 0.08974 0.70046
 C2572 C 0.23315 0.07700 0.70732
 C2573 C 0.22352 0.06679 0.71438
 C2574 C 0.20781 0.06969 0.71407
 C2575 C 0.19809 0.05903 0.72031
 C2576 C 0.20347 0.04618 0.72693
 C2577 C 0.21872 0.04342 0.72776
 C2578 C 0.22903 0.05368 0.72162
 C2579 C 0.24443 0.05036 0.72310
 C2580 C 0.24922 0.03734 0.73014
 C2581 C 0.23889 0.02727 0.73597
 C2582 C 0.22367 0.03037 0.73473
 H2583 H 0.17857 0.08058 0.71282
 H2584 H 0.21530 0.11380 0.68877
 H2585 H 0.17043 0.10307 0.70165
 H2586 H 0.23552 0.09724 0.69517
 H2587 H 0.24503 0.07539 0.70671
 H2588 H 0.18614 0.06012 0.72009
 H2589 H 0.19555 0.03831 0.73151
 H2590 H 0.25308 0.05760 0.71907
 H2591 H 0.26107 0.03507 0.73094
 H2592 H 0.21567 0.02260 0.73934
 C2593 C 0.27555 0.59943 0.29932
 C2594 C 0.28295 0.58921 0.28994
 C2595 C 0.29819 0.59195 0.28672
 C2596 C 0.30553 0.60444 0.29263
 C2597 C 0.29803 0.61433 0.30203
 C2598 C 0.28298 0.61169 0.30522
 C2599 C 0.30610 0.58214 0.27774
 C2600 C 0.29936 0.56946 0.27207
 C2601 C 0.28427 0.56607 0.27507
 C2602 C 0.27583 0.57631 0.28386
 C2603 C 0.26056 0.57330 0.28627
 C2604 C 0.25385 0.56056 0.28073
 C2605 C 0.26202 0.55022 0.27262
 C2606 C 0.27734 0.55279 0.26960
 C2607 C 0.28510 0.54178 0.26142
 C2608 C 0.27794 0.52889 0.25657
 C2609 C 0.26283 0.52651 0.25958
 C2610 C 0.25493 0.53721 0.26763
 H2611 H 0.26406 0.59822 0.30254
 H2612 H 0.31721 0.60625 0.29016
 H2613 H 0.27679 0.61917 0.31230
 H2614 H 0.31772 0.58420 0.27516
 H2615 H 0.30635 0.56255 0.26526
 H2616 H 0.25334 0.58063 0.29238
 H2617 H 0.24211 0.55873 0.28295
 H2618 H 0.29676 0.54263 0.25872
 H2619 H 0.28423 0.52070 0.25036
 H2620 H 0.24327 0.53530 0.27015
 C2621 C 0.31125 0.08556 0.79274
 C2622 C 0.29593 0.08181 0.79238
 C2623 C 0.28574 0.09172 0.79926
 C2624 C 0.29083 0.10478 0.80620
 C2625 C 0.30602 0.10841 0.80616
 C2626 C 0.31612 0.09860 0.79948
 C2627 C 0.27050 0.08867 0.79903
 C2628 C 0.26504 0.07617 0.79181
 C2629 C 0.27468 0.06602 0.78464
 C2630 C 0.29041 0.06869 0.78526
 C2631 C 0.30012 0.05813 0.77882
 C2632 C 0.29473 0.04553 0.77182
 C2633 C 0.27947 0.04296 0.77077
 C2634 C 0.26916 0.05318 0.77702
 C2635 C 0.25376 0.05008 0.77529
 C2636 C 0.24896 0.03727 0.76797
 C2637 C 0.25927 0.02719 0.76209
 C2638 C 0.27450 0.03010 0.76351
 H2639 H 0.31981 0.07887 0.78771
 H2640 H 0.28291 0.11237 0.81125
 H2641 H 0.32796 0.10097 0.79946
 H2642 H 0.26266 0.09611 0.80439
 H2643 H 0.25314 0.07469 0.79222
 H2644 H 0.31207 0.05909 0.77915
 H2645 H 0.30266 0.03772 0.76712
 H2646 H 0.24511 0.05731 0.77938
 H2647 H 0.23711 0.03513 0.76705
 H2648 H 0.28250 0.02231 0.75889
 C2649 C 0.81055 0.58934 0.78554
 C2650 C 0.79543 0.58495 0.78689
 C2651 C 0.78574 0.59446 0.79491
 C2652 C 0.79116 0.60748 0.80161
 C2653 C 0.80619 0.61152 0.80030
 C2654 C 0.81576 0.60241 0.79209
 C2655 C 0.77065 0.59099 0.79621
 C2656 C 0.76485 0.57827 0.78970
 C2657 C 0.77400 0.56830 0.78173
 C2658 C 0.78960 0.57155 0.78054
 C2659 C 0.79889 0.56119 0.77325
 C2660 C 0.79320 0.54820 0.76722
 C2661 C 0.77802 0.54502 0.76802
 C2662 C 0.76811 0.55507 0.77510
 C2663 C 0.75272 0.55137 0.77521
 C2664 C 0.74759 0.53815 0.76886
 C2665 C 0.75755 0.52826 0.76216
 C2666 C 0.77272 0.53175 0.76178
 H2667 H 0.81867 0.58304 0.77942
 H2668 H 0.78356 0.61458 0.80769
 H2669 H 0.82742 0.60525 0.79088
 H2670 H 0.76319 0.59824 0.80231
 H2671 H 0.75310 0.57648 0.79134
 H2672 H 0.81076 0.56262 0.77221
 H2673 H 0.80080 0.54051 0.76184
 H2674 H 0.74432 0.55845 0.78001
 H2675 H 0.73580 0.53559 0.76926
 H2676 H 0.78042 0.52410 0.75648
 C2677 C 0.81132 0.08769 0.28724
 C2678 C 0.79631 0.08301 0.28862
 C2679 C 0.78667 0.09183 0.29745
 C2680 C 0.79196 0.10467 0.30457
 C2681 C 0.80682 0.10915 0.30296
 C2682 C 0.81641 0.10051 0.29427
 C2683 C 0.77175 0.08787 0.29909
 C2684 C 0.76608 0.07531 0.29218
 C2685 C 0.77518 0.06607 0.28334
 C2686 C 0.79057 0.06996 0.28156
 C2687 C 0.79970 0.06065 0.27282
 C2688 C 0.79411 0.04798 0.26609
 C2689 C 0.77920 0.04402 0.26772
 C2690 C 0.76945 0.05300 0.27628
 C2691 C 0.75438 0.04840 0.27748
 C2692 C 0.74940 0.03543 0.27063
 C2693 C 0.75914 0.02667 0.26226
 C2694 C 0.77403 0.03101 0.26086
 H2695 H 0.81948 0.08179 0.28079
 H2696 H 0.78440 0.11134 0.31116
 H2697 H 0.82800 0.10355 0.29295
 H2698 H 0.76431 0.09459 0.30578
 H2699 H 0.75443 0.07317 0.29407
 H2700 H 0.81136 0.06275 0.27096
 H2701 H 0.80159 0.04116 0.25956
 H2702 H 0.74614 0.05446 0.28368
 H2703 H 0.73787 0.03212 0.27202
 H2704 H 0.78158 0.02421 0.25437
 C2705 C 0.71229 0.41201 0.31168
 C2706 C 0.71071 0.41620 0.29671
 C2707 C 0.70259 0.40649 0.28738
 C2708 C 0.69609 0.39340 0.29300
 C2709 C 0.69775 0.38951 0.30786
 C2710 C 0.70595 0.39892 0.31708
 C2711 C 0.70104 0.40982 0.27245
 C2712 C 0.70741 0.42257 0.26648
 C2713 C 0.71548 0.43271 0.27528
 C2714 C 0.71696 0.42958 0.29070
 C2715 C 0.72447 0.44002 0.29964
 C2716 C 0.73042 0.45299 0.29380
 C2717 C 0.72928 0.45610 0.27882
 C2718 C 0.72195 0.44599 0.26925
 C2719 C 0.72144 0.44969 0.25405
 C2720 C 0.72767 0.46293 0.24877
 C2721 C 0.73465 0.47286 0.25840
 C2722 C 0.73543 0.46937 0.27338
 H2723 H 0.71848 0.41848 0.31955
 H2724 H 0.68997 0.38610 0.28569
 H2725 H 0.70738 0.39626 0.32863
 H2726 H 0.69487 0.40243 0.26526
 H2727 H 0.70560 0.42423 0.25487
 H2728 H 0.72579 0.43866 0.31134
 H2729 H 0.73600 0.46070 0.30114
 H2730 H 0.71637 0.44260 0.24591
 H2731 H 0.72695 0.46550 0.23713
 H2732 H 0.74094 0.47705 0.28081
 C2733 C 0.72347 0.89892 0.80007
 C2734 C 0.71586 0.90945 0.79118
 C2735 C 0.70052 0.90686 0.78833
 C2736 C 0.69327 0.89428 0.79418
 C2737 C 0.70096 0.88411 0.80315
 C2738 C 0.71612 0.88655 0.80593
 C2739 C 0.69240 0.91692 0.77980
 C2740 C 0.69901 0.92972 0.77424
 C2741 C 0.71417 0.93301 0.77692
 C2742 C 0.72283 0.92253 0.78524
 C2743 C 0.73815 0.92549 0.78737
 C2744 C 0.74472 0.93839 0.78198
 C2745 C 0.73635 0.94895 0.77431
 C2746 C 0.72097 0.94644 0.77160
 C2747 C 0.71301 0.95765 0.76385
 C2748 C 0.72006 0.97064 0.75906
 C2749 C 0.73523 0.97295 0.76172
 C2750 C 0.74332 0.96208 0.76941
 H2751 H 0.73507 0.89995 0.80293
 H2752 H 0.68151 0.89263 0.79203
 H2753 H 0.72244 0.87885 0.81267
 H2754 H 0.68070 0.91496 0.77750
 H2755 H 0.69185 0.93682 0.76778
 H2756 H 0.74550 0.91801 0.79315
 H2757 H 0.75651 0.94018 0.78395
 H2758 H 0.70129 0.95686 0.76141
 H2759 H 0.71361 0.97895 0.75315
 H2760 H 0.75504 0.96393 0.77167
 C2761 C 0.20972 0.41208 0.81474
 C2762 C 0.20914 0.41611 0.79966
 C2763 C 0.20204 0.40611 0.78984
 C2764 C 0.19545 0.39291 0.79509
 C2765 C 0.19616 0.38915 0.81006
 C2766 C 0.20337 0.39884 0.81978
 C2767 C 0.20167 0.40923 0.77480
 C2768 C 0.20841 0.42195 0.76917
 C2769 C 0.21559 0.43231 0.77846
 C2770 C 0.21556 0.42956 0.79401
 C2771 C 0.22176 0.44044 0.80341
 C2772 C 0.22811 0.45336 0.79787
 C2773 C 0.22874 0.45595 0.78276
 C2774 C 0.22265 0.44544 0.77277
 C2775 C 0.22400 0.44853 0.75750
 C2776 C 0.23087 0.46157 0.75251
 C2777 C 0.23661 0.47191 0.76251
 C2778 C 0.23547 0.46906 0.77760
 H2779 H 0.21524 0.41873 0.82295
 H2780 H 0.19011 0.38537 0.78742
 H2781 H 0.20407 0.39624 0.83140
 H2782 H 0.19623 0.40164 0.76723
 H2783 H 0.20755 0.42346 0.75744
 H2784 H 0.22164 0.43948 0.81523
 H2785 H 0.23266 0.46141 0.80554
 H2786 H 0.22005 0.44106 0.74909
 H2787 H 0.23164 0.46364 0.74077
 H2788 H 0.24003 0.47704 0.78534
 C2789 C 0.22256 0.90127 0.29985
 C2790 C 0.21437 0.91110 0.29067
 C2791 C 0.19904 0.90796 0.28845
 C2792 C 0.19242 0.89540 0.29493
 C2793 C 0.20073 0.88572 0.30387
 C2794 C 0.21582 0.88884 0.30630
 C2795 C 0.19032 0.91737 0.27978
 C2796 C 0.19636 0.93003 0.27338
 C2797 C 0.21152 0.93379 0.27529
 C2798 C 0.22078 0.92396 0.28376
 C2799 C 0.23613 0.92728 0.28496
 C2800 C 0.24219 0.93990 0.27844
 C2801 C 0.23323 0.94984 0.27061
 C2802 C 0.21776 0.94700 0.26894
 C2803 C 0.20915 0.95768 0.26115
 C2804 C 0.21567 0.97048 0.25529
 C2805 C 0.23094 0.97307 0.25688
 C2806 C 0.23968 0.96272 0.26455
 H2807 H 0.23417 0.90287 0.30241
 H2808 H 0.18067 0.89330 0.29312
 H2809 H 0.22257 0.88158 0.31311
 H2810 H 0.17861 0.91497 0.27797
 H2811 H 0.18879 0.93656 0.26680
 H2812 H 0.24389 0.92024 0.29076
 H2813 H 0.25403 0.94196 0.27967
 H2814 H 0.19730 0.95668 0.25957
 H2815 H 0.20873 0.97842 0.24944
 H2816 H 0.25150 0.96485 0.26599
 C2817 C 0.39973 0.27835 0.70086
 C2818 C 0.40971 0.28619 0.71011
 C2819 C 0.40683 0.30154 0.71259
 C2820 C 0.39433 0.30852 0.70625
 C2821 C 0.38460 0.30056 0.69712
 C2822 C 0.38745 0.28544 0.69452
 C2823 C 0.41650 0.30991 0.72127
 C2824 C 0.42918 0.30351 0.72738
 C2825 C 0.43265 0.28831 0.72518
 C2826 C 0.42253 0.27940 0.71676
 C2827 C 0.42551 0.26400 0.71533
 C2828 C 0.43814 0.25758 0.72147
 C2829 C 0.44841 0.26619 0.72917
 C2830 C 0.44589 0.28168 0.73117
 C2831 C 0.45690 0.28990 0.73886
 C2832 C 0.46972 0.28297 0.74431
 C2833 C 0.47199 0.26769 0.74236
 C2834 C 0.46130 0.25936 0.73478
 H2835 H 0.40115 0.26677 0.69808
 H2836 H 0.39239 0.32028 0.70820
 H2837 H 0.38011 0.27895 0.68759
 H2838 H 0.41431 0.32162 0.72328
 H2839 H 0.43597 0.31082 0.73393
 H2840 H 0.41819 0.25647 0.70963
 H2841 H 0.43995 0.24571 0.72003
 H2842 H 0.45612 0.30172 0.74069
 H2843 H 0.47792 0.28958 0.75012
 H2844 H 0.46318 0.24754 0.73305
 C2845 C 0.41234 0.78870 0.18545
 C2846 C 0.41692 0.78955 0.20035
 C2847 C 0.40752 0.79734 0.21030
 C2848 C 0.39437 0.80428 0.20532
 C2849 C 0.39006 0.80328 0.19052
 C2850 C 0.39915 0.79541 0.18069
 C2851 C 0.41119 0.79805 0.22520
 C2852 C 0.42384 0.79093 0.23059
 C2853 C 0.43357 0.78300 0.22118
 C2854 C 0.43031 0.78274 0.20574
 C2855 C 0.44063 0.77583 0.19616
 C2856 C 0.45345 0.76904 0.20145
 C2857 C 0.45648 0.76865 0.21649
 C2858 C 0.44656 0.77548 0.22664
 C2859 C 0.45004 0.77431 0.24184
 C2860 C 0.46290 0.76690 0.24659
 C2861 C 0.47266 0.76042 0.23643
 C2862 C 0.46943 0.76139 0.22141
 H2863 H 0.41851 0.78269 0.17718
 H2864 H 0.38729 0.81014 0.21308
 H2865 H 0.39614 0.79448 0.16919
 H2866 H 0.40409 0.80404 0.23286
 H2867 H 0.42582 0.79210 0.24223
 H2868 H 0.43929 0.77569 0.18438
 H2869 H 0.46106 0.76393 0.19365
 H2870 H 0.44300 0.77881 0.25036
 H2871 H 0.46526 0.76627 0.25828
 H2872 H 0.47695 0.75625 0.21354
 C2873 C 0.91105 0.31275 0.20907
 C2874 C 0.91590 0.29775 0.20822
 C2875 C 0.90684 0.28759 0.20029
 C2876 C 0.89368 0.29246 0.19329
 C2877 C 0.88901 0.30732 0.19447
 C2878 C 0.89783 0.31736 0.20237
 C2879 C 0.91080 0.27257 0.19958
 C2880 C 0.92339 0.26728 0.20682
 C2881 C 0.93278 0.27689 0.21490
 C2882 C 0.92924 0.29246 0.21520
 C2883 C 0.93920 0.30225 0.22235
 C2884 C 0.95197 0.29704 0.22929
 C2885 C 0.95530 0.28188 0.22959
 C2886 C 0.94572 0.27152 0.22255
 C2887 C 0.94948 0.25620 0.22358
 C2888 C 0.96232 0.25154 0.23098
 C2889 C 0.97181 0.26188 0.23766
 C2890 C 0.96824 0.27704 0.23691
 H2891 H 0.91697 0.32118 0.21512
 H2892 H 0.88680 0.28457 0.18736
 H2893 H 0.89451 0.32893 0.20340
 H2894 H 0.90395 0.26476 0.19350
 H2895 H 0.92558 0.25553 0.20565
 H2896 H 0.93763 0.31414 0.22257
 H2897 H 0.95930 0.30501 0.23456
 H2898 H 0.94271 0.24751 0.21892
 H2899 H 0.96495 0.23975 0.23135
 H2900 H 0.97553 0.28507 0.24215
 C2901 C 0.90005 0.77823 0.70105
 C2902 C 0.91027 0.78579 0.71026
 C2903 C 0.90754 0.80112 0.71308
 C2904 C 0.89505 0.80837 0.70700
 C2905 C 0.88515 0.80071 0.69781
 C2906 C 0.88778 0.78559 0.69497
 C2907 C 0.91736 0.80920 0.72186
 C2908 C 0.93001 0.80255 0.72775
 C2909 C 0.93336 0.78737 0.72519
 C2910 C 0.92316 0.77877 0.71656
 C2911 C 0.92620 0.76344 0.71451
 C2912 C 0.93890 0.75681 0.72032
 C2913 C 0.94916 0.76511 0.72836
 C2914 C 0.94657 0.78050 0.73098
 C2915 C 0.95747 0.78839 0.73913
 C2916 C 0.97025 0.78128 0.74438
 C2917 C 0.97266 0.76611 0.74179
 C2918 C 0.96209 0.75807 0.73374
 H2919 H 0.90124 0.76667 0.69813
 H2920 H 0.89325 0.82011 0.70919
 H2921 H 0.88028 0.77928 0.68804
 H2922 H 0.91532 0.82090 0.72410
 H2923 H 0.93692 0.80969 0.73435
 H2924 H 0.91891 0.75613 0.70850
 H2925 H 0.94076 0.74502 0.71841
 H2926 H 0.95660 0.80009 0.74156
 H2927 H 0.97833 0.78767 0.75059
 H2928 H 0.96404 0.74635 0.73152
 C2929 C 0.60245 0.27808 0.29580
 C2930 C 0.59211 0.28642 0.28735
 C2931 C 0.59498 0.30185 0.28541
 C2932 C 0.60766 0.30848 0.29169
 C2933 C 0.61761 0.30007 0.30023
 C2934 C 0.61491 0.28482 0.30212
 C2935 C 0.58511 0.31066 0.27735
 C2936 C 0.57220 0.30465 0.27141
 C2937 C 0.56863 0.28943 0.27323
 C2938 C 0.57895 0.28007 0.28099
 C2939 C 0.57575 0.26470 0.28215
 C2940 C 0.56280 0.25870 0.27631
 C2941 C 0.55240 0.26773 0.26918
 C2942 C 0.55510 0.28323 0.26753
 C2943 C 0.54397 0.29189 0.26044
 C2944 C 0.53091 0.28537 0.25515
 C2945 C 0.52848 0.27006 0.25669
 C2946 C 0.53923 0.26131 0.26379
 H2947 H 0.60120 0.26635 0.29798
 H2948 H 0.60953 0.32032 0.29025
 H2949 H 0.62247 0.27797 0.30850
 H2950 H 0.58731 0.32243 0.27571
 H2951 H 0.56528 0.31229 0.26534
 H2952 H 0.58311 0.25687 0.28746
 H2953 H 0.56083 0.24684 0.27751
 H2954 H 0.54485 0.30375 0.25893
 H2955 H 0.52267 0.29232 0.24975
 H2956 H 0.53723 0.24948 0.26524
 C2957 C 0.60018 0.77807 0.79625
 C2958 C 0.58944 0.78604 0.78794
 C2959 C 0.59159 0.80162 0.78619
 C2960 C 0.60407 0.80873 0.79244
 C2961 C 0.61441 0.80064 0.80084
 C2962 C 0.61235 0.78527 0.80257
 C2963 C 0.58117 0.81008 0.77843
 C2964 C 0.56841 0.80355 0.77265
 C2965 C 0.56561 0.78814 0.77424
 C2966 C 0.57653 0.77916 0.78160
 C2967 C 0.57420 0.76361 0.78238
 C2968 C 0.56146 0.75708 0.77663
 C2969 C 0.55043 0.76571 0.76999
 C2970 C 0.55226 0.78137 0.76868
 C2971 C 0.54050 0.78960 0.76210
 C2972 C 0.52764 0.78252 0.75700
 C2973 C 0.52606 0.76706 0.75818
 C2974 C 0.53747 0.75873 0.76474
 H2975 H 0.59941 0.76629 0.79837
 H2976 H 0.60546 0.82066 0.79114
 H2977 H 0.62022 0.77869 0.80888
 H2978 H 0.58279 0.82196 0.77696
 H2979 H 0.56100 0.81095 0.76683
 H2980 H 0.58211 0.75604 0.78726
 H2981 H 0.56017 0.74509 0.77753
 H2982 H 0.54073 0.80154 0.76092
 H2983 H 0.51887 0.78916 0.75204
 H2984 H 0.53615 0.74677 0.76592
 C2985 C 0.10084 0.27774 0.79686
 C2986 C 0.09064 0.28613 0.78829
 C2987 C 0.09363 0.30153 0.78632
 C2988 C 0.10637 0.30807 0.79259
 C2989 C 0.11622 0.29960 0.80118
 C2990 C 0.11334 0.28440 0.80317
 C2991 C 0.08380 0.31041 0.77827
 C2992 C 0.07082 0.30447 0.77239
 C2993 C 0.06718 0.28927 0.77419
 C2994 C 0.07749 0.27984 0.78187
 C2995 C 0.07431 0.26445 0.78284
 C2996 C 0.06133 0.25852 0.77698
 C2997 C 0.05090 0.26764 0.77003
 C2998 C 0.05359 0.28315 0.76853
 C2999 C 0.04240 0.29191 0.76165
 C3000 C 0.02929 0.28546 0.75642
 C3001 C 0.02686 0.27014 0.75780
 C3002 C 0.03768 0.26129 0.76466
 H3003 H 0.09942 0.26606 0.79917
 H3004 H 0.10837 0.31988 0.79109
 H3005 H 0.12080 0.27751 0.80964
 H3006 H 0.08607 0.32216 0.77663
 H3007 H 0.06392 0.31216 0.76632
 H3008 H 0.08173 0.25655 0.78797
 H3009 H 0.05938 0.24664 0.77804
 H3010 H 0.04328 0.30379 0.76031
 H3011 H 0.02098 0.29249 0.75120
 H3012 H 0.03568 0.24944 0.76598
 C3013 C 0.09069 0.81048 0.28762
 C3014 C 0.08571 0.79559 0.28916
 C3015 C 0.09443 0.78583 0.29798
 C3016 C 0.10743 0.79095 0.30503
 C3017 C 0.11219 0.80570 0.30326
 C3018 C 0.10368 0.81537 0.29452
 C3019 C 0.09022 0.77098 0.29964
 C3020 C 0.07758 0.76548 0.29271
 C3021 C 0.06844 0.77471 0.28386
 C3022 C 0.07249 0.79006 0.28220
 C3023 C 0.06313 0.79941 0.27372
 C3024 C 0.05032 0.79403 0.26706
 C3025 C 0.04628 0.77913 0.26847
 C3026 C 0.05530 0.76916 0.27675
 C3027 C 0.05069 0.75406 0.27755
 C3028 C 0.03758 0.74929 0.27071
 C3029 C 0.02870 0.75930 0.26278
 C3030 C 0.03314 0.77418 0.26166
 H3031 H 0.08494 0.81869 0.28108
 H3032 H 0.11401 0.78332 0.31164
 H3033 H 0.10697 0.82687 0.29304
 H3034 H 0.09684 0.76346 0.30636
 H3035 H 0.07520 0.75389 0.29466
 H3036 H 0.06526 0.81109 0.27208
 H3037 H 0.04346 0.80168 0.26074
 H3038 H 0.05688 0.74563 0.28339
 H3039 H 0.03426 0.73774 0.27179
 H3040 H 0.02630 0.78194 0.25543
 C3041 C 0.58844 0.68942 0.71355
 C3042 C 0.58377 0.70443 0.71181
 C3043 C 0.59288 0.71390 0.70313
 C3044 C 0.60581 0.70841 0.69628
 C3045 C 0.61014 0.69349 0.69798
 C3046 C 0.60139 0.68412 0.70677
 C3047 C 0.58906 0.72885 0.70128
 C3048 C 0.57636 0.73471 0.70781
 C3049 C 0.56675 0.72577 0.71641
 C3050 C 0.57045 0.71034 0.71834
 C3051 C 0.56063 0.70129 0.72659
 C3052 C 0.54767 0.70704 0.73273
 C3053 C 0.54395 0.72203 0.73103
 C3054 C 0.55346 0.73169 0.72298
 C3055 C 0.54919 0.74689 0.72185
 C3056 C 0.53599 0.75207 0.72822
 C3057 C 0.52666 0.74238 0.73599
 C3058 C 0.53068 0.72738 0.73734
 H3059 H 0.58241 0.68144 0.72010
 H3060 H 0.61260 0.71586 0.68971
 H3061 H 0.60439 0.67253 0.70828
 H3062 H 0.59601 0.73615 0.69468
 H3063 H 0.57431 0.74635 0.70572
 H3064 H 0.56251 0.68958 0.72840
 H3065 H 0.54044 0.69962 0.73888
 H3066 H 0.55574 0.75511 0.71614
 H3067 H 0.53299 0.76371 0.72700
 H3068 H 0.52347 0.71989 0.74343
 C3069 C 0.58905 0.19020 0.21321
 C3070 C 0.58490 0.20538 0.21164
 C3071 C 0.59442 0.21466 0.20319
 C3072 C 0.60732 0.20887 0.19653
 C3073 C 0.61118 0.19382 0.19811
 C3074 C 0.60195 0.18459 0.20657
 C3075 C 0.59108 0.22971 0.20139
 C3076 C 0.57841 0.23587 0.20770
 C3077 C 0.56843 0.22716 0.21610
 C3078 C 0.57171 0.21165 0.21810
 C3079 C 0.56164 0.20292 0.22640
 C3080 C 0.54880 0.20904 0.23246
 C3081 C 0.54543 0.22409 0.23058
 C3082 C 0.55520 0.23343 0.22246
 C3083 C 0.55123 0.24867 0.22101
 C3084 C 0.53812 0.25423 0.22721
 C3085 C 0.52858 0.24491 0.23514
 C3086 C 0.53225 0.22983 0.23676
 H3087 H 0.58261 0.18230 0.21947
 H3088 H 0.61444 0.21622 0.19020
 H3089 H 0.60457 0.17289 0.20796
 H3090 H 0.59834 0.23686 0.19497
 H3091 H 0.57678 0.24758 0.20567
 H3092 H 0.56327 0.19120 0.22838
 H3093 H 0.54139 0.20186 0.23868
 H3094 H 0.55791 0.25665 0.21512
 H3095 H 0.53535 0.26589 0.22571
 H3096 H 0.52483 0.22261 0.24293
 C3097 C 0.09923 0.72180 0.19917
 C3098 C 0.08905 0.71418 0.20842
 C3099 C 0.09143 0.69871 0.21072
 C3100 C 0.10377 0.69143 0.20435
 C3101 C 0.11374 0.69920 0.19528
 C3102 C 0.11128 0.71440 0.19273
 C3103 C 0.08142 0.69055 0.21926
 C3104 C 0.06890 0.69728 0.22537
 C3105 C 0.06598 0.71264 0.22341
 C3106 C 0.07650 0.72132 0.21521
 C3107 C 0.07421 0.73687 0.21419
 C3108 C 0.06183 0.74366 0.22047
 C3109 C 0.05112 0.73529 0.22787
 C3110 C 0.05296 0.71965 0.22945
 C3111 C 0.04149 0.71169 0.23678
 C3112 C 0.02889 0.71900 0.24229
 C3113 C 0.02733 0.73444 0.24083
 C3114 C 0.03848 0.74252 0.23360
 H3115 H 0.09810 0.73342 0.19643
 H3116 H 0.10542 0.67961 0.20623
 H3117 H 0.11879 0.72074 0.18582
 H3118 H 0.08320 0.67873 0.22112
 H3119 H 0.06181 0.69011 0.23180
 H3120 H 0.08193 0.74424 0.20878
 H3121 H 0.06056 0.75564 0.21937
 H3122 H 0.04173 0.69978 0.23821
 H3123 H 0.02030 0.71257 0.24775
 H3124 H 0.03715 0.75445 0.23219
 C3125 C 0.08670 0.19102 0.71281
 C3126 C 0.08235 0.20611 0.71103
 C3127 C 0.09167 0.21539 0.70235
 C3128 C 0.10454 0.20964 0.69561
 C3129 C 0.10861 0.19468 0.69747
 C3130 C 0.09958 0.18547 0.70615
 C3131 C 0.08818 0.23040 0.70047
 C3132 C 0.07563 0.23654 0.70704
 C3133 C 0.06588 0.22782 0.71570
 C3134 C 0.06919 0.21230 0.71758
 C3135 C 0.05917 0.20347 0.72583
 C3136 C 0.04643 0.20954 0.73210
 C3137 C 0.04314 0.22463 0.73053
 C3138 C 0.05283 0.23406 0.72241
 C3139 C 0.04897 0.24936 0.72135
 C3140 C 0.03601 0.25488 0.72788
 C3141 C 0.02654 0.24544 0.73577
 C3142 C 0.03012 0.23032 0.73703
 H3143 H 0.08050 0.18318 0.71936
 H3144 H 0.11154 0.21695 0.68909
 H3145 H 0.10238 0.17384 0.70774
 H3146 H 0.09527 0.23754 0.69387
 H3147 H 0.07385 0.24822 0.70495
 H3148 H 0.06072 0.19170 0.72754
 H3149 H 0.03904 0.20228 0.73826
 H3150 H 0.05567 0.25742 0.71559
 H3151 H 0.03330 0.26659 0.72668
 H3152 H 0.02276 0.22302 0.74317
 C3153 C 0.41244 0.70706 0.30948
 C3154 C 0.41615 0.70675 0.29432
 C3155 C 0.40596 0.69975 0.28458
 C3156 C 0.39282 0.69311 0.28998
 C3157 C 0.38933 0.69370 0.30500
 C3158 C 0.39927 0.70070 0.31464
 C3159 C 0.40884 0.69955 0.26950
 C3160 C 0.42148 0.70635 0.26375
 C3161 C 0.43199 0.71347 0.27294
 C3162 C 0.42947 0.71331 0.28852
 C3163 C 0.44044 0.71958 0.29781
 C3164 C 0.45330 0.72592 0.29213
 C3165 C 0.45574 0.72653 0.27700
 C3166 C 0.44507 0.72052 0.26712
 C3167 C 0.44797 0.72191 0.25182
 C3168 C 0.46108 0.72854 0.24671
 C3169 C 0.47166 0.73406 0.25660
 C3170 C 0.46890 0.73307 0.27172
 H3171 H 0.41928 0.71236 0.31767
 H3172 H 0.38509 0.68789 0.28241
 H3173 H 0.39690 0.70124 0.32632
 H3174 H 0.40113 0.69419 0.26199
 H3175 H 0.42281 0.70560 0.25199
 H3176 H 0.43960 0.71952 0.30963
 H3177 H 0.46144 0.73046 0.29972
 H3178 H 0.44035 0.71808 0.24350
 H3179 H 0.46307 0.72920 0.23495
 H3180 H 0.47707 0.73746 0.27938
 C3181 C 0.41085 0.18890 0.78760
 C3182 C 0.41508 0.20405 0.78877
 C3183 C 0.40578 0.21360 0.79719
 C3184 C 0.39283 0.20812 0.80402
 C3185 C 0.38878 0.19312 0.80262
 C3186 C 0.39795 0.18360 0.79439
 C3187 C 0.40939 0.22861 0.79876
 C3188 C 0.42205 0.23446 0.79215
 C3189 C 0.43174 0.22546 0.78368
 C3190 C 0.42817 0.21001 0.78191
 C3191 C 0.43782 0.20103 0.77338
 C3192 C 0.45054 0.20683 0.76688
 C3193 C 0.45423 0.22179 0.76857
 C3194 C 0.44492 0.23138 0.77695
 C3195 C 0.44931 0.24649 0.77831
 C3196 C 0.46234 0.25169 0.77171
 C3197 C 0.47139 0.24212 0.76346
 C3198 C 0.46731 0.22718 0.76195
 H3199 H 0.41720 0.18077 0.78155
 H3200 H 0.38580 0.21564 0.81026
 H3201 H 0.39530 0.17190 0.79328
 H3202 H 0.40234 0.23596 0.80520
 H3203 H 0.42390 0.24616 0.79396
 H3204 H 0.43592 0.18936 0.77146
 H3205 H 0.45762 0.19945 0.76049
 H3206 H 0.44306 0.25461 0.78448
 H3207 H 0.46549 0.26324 0.77320
 H3208 H 0.47435 0.21975 0.75558
 C3209 C 0.89971 0.72452 0.80128
 C3210 C 0.90987 0.71744 0.79159
 C3211 C 0.90746 0.70217 0.78838
 C3212 C 0.89524 0.69453 0.79445
 C3213 C 0.88532 0.70173 0.80404
 C3214 C 0.88770 0.71678 0.80735
 C3215 C 0.91734 0.69452 0.77924
 C3216 C 0.92981 0.70155 0.77345
 C3217 C 0.93285 0.71670 0.77643
 C3218 C 0.92246 0.72490 0.78526
 C3219 C 0.92496 0.74028 0.78742
 C3220 C 0.93749 0.74730 0.78176
 C3221 C 0.94811 0.73933 0.77379
 C3222 C 0.94595 0.72393 0.77090
 C3223 C 0.95722 0.71637 0.76288
 C3224 C 0.97006 0.72376 0.75821
 C3225 C 0.97207 0.73890 0.76119
 C3226 C 0.96102 0.74667 0.76890
 H3227 H 0.90083 0.73596 0.80466
 H3228 H 0.89365 0.68284 0.79192
 H3229 H 0.88023 0.72273 0.81464
 H3230 H 0.91549 0.68287 0.77665
 H3231 H 0.93679 0.69476 0.76652
 H3232 H 0.91736 0.74733 0.79340
 H3233 H 0.93898 0.75910 0.78384
 H3234 H 0.95668 0.70468 0.76028
 H3235 H 0.97853 0.71760 0.75226
 H3236 H 0.96268 0.75837 0.77138
 C3237 C 0.91283 0.18793 0.29245
 C3238 C 0.91677 0.20320 0.29245
 C3239 C 0.90705 0.21328 0.29975
 C3240 C 0.89402 0.20814 0.30677
 C3241 C 0.89022 0.19301 0.30635
 C3242 C 0.89981 0.18302 0.29923
 C3243 C 0.91024 0.22848 0.29982
 C3244 C 0.92274 0.23400 0.29261
 C3245 C 0.93275 0.22447 0.28511
 C3246 C 0.92988 0.20877 0.28531
 C3247 C 0.94024 0.19915 0.27842
 C3248 C 0.95285 0.20460 0.27142
 C3249 C 0.95564 0.21984 0.27084
 C3250 C 0.94562 0.23006 0.27754
 C3251 C 0.94895 0.24545 0.27632
 C3252 C 0.96179 0.25032 0.26908
 C3253 C 0.97169 0.24011 0.26271
 C3254 C 0.96853 0.22489 0.26362
 H3255 H 0.91936 0.17945 0.28709
 H3256 H 0.88660 0.21598 0.31216
 H3257 H 0.89727 0.17123 0.29889
 H3258 H 0.90289 0.23625 0.30540
 H3259 H 0.92430 0.24587 0.29326
 H3260 H 0.93910 0.18722 0.27836
 H3261 H 0.96050 0.19675 0.26637
 H3262 H 0.94190 0.25405 0.28080
 H3263 H 0.96412 0.26216 0.26862
 H3264 H 0.97615 0.21695 0.25863
 C3265 C 0.27643 0.29917 0.59891
 C3266 C 0.28404 0.28974 0.58891
 C3267 C 0.29944 0.28711 0.59140
 C3268 C 0.30667 0.29336 0.60364
 C3269 C 0.29893 0.30266 0.61339
 C3270 C 0.28380 0.30552 0.61087
 C3271 C 0.30761 0.27838 0.58159
 C3272 C 0.30096 0.27247 0.56910
 C3273 C 0.28569 0.27482 0.56604
 C3274 C 0.27697 0.28311 0.57641
 C3275 C 0.26146 0.28439 0.57401
 C3276 C 0.25475 0.27833 0.56165
 C3277 C 0.26320 0.27092 0.55106
 C3278 C 0.27881 0.26909 0.55301
 C3279 C 0.28687 0.26184 0.54163
 C3280 C 0.27967 0.25659 0.52905
 C3281 C 0.26426 0.25826 0.52741
 C3282 C 0.25610 0.26547 0.53842
 H3283 H 0.26487 0.30216 0.59769
 H3284 H 0.31846 0.29127 0.60536
 H3285 H 0.27751 0.31262 0.61825
 H3286 H 0.31937 0.27626 0.58348
 H3287 H 0.30811 0.26585 0.56215
 H3288 H 0.25405 0.28984 0.58164
 H3289 H 0.24280 0.27961 0.56028
 H3290 H 0.29878 0.26033 0.54194
 H3291 H 0.28616 0.25117 0.52052
 H3292 H 0.24418 0.26704 0.53700
 C3293 C 0.27613 0.80219 0.09845
 C3294 C 0.28368 0.79229 0.08882
 C3295 C 0.29876 0.78886 0.09211
 C3296 C 0.30577 0.79495 0.10453
 C3297 C 0.29813 0.80469 0.11395
 C3298 C 0.28326 0.80825 0.11074
 C3299 C 0.30689 0.77941 0.08295
 C3300 C 0.30051 0.77339 0.07041
 C3301 C 0.28558 0.77649 0.06649
 C3302 C 0.27692 0.78586 0.07601
 C3303 C 0.26181 0.78845 0.07240
 C3304 C 0.25546 0.78250 0.05976
 C3305 C 0.26387 0.77376 0.05015
 C3306 C 0.27903 0.77055 0.05337
 C3307 C 0.28705 0.76169 0.04315
 C3308 C 0.28031 0.75639 0.03036
 C3309 C 0.26539 0.75964 0.02728
 C3310 C 0.25720 0.76832 0.03722
 H3311 H 0.26474 0.80562 0.09676
 H3312 H 0.31734 0.79223 0.10667
 H3313 H 0.27701 0.81569 0.11781
 H3314 H 0.31841 0.77671 0.08545
 H3315 H 0.30767 0.76624 0.06404
 H3316 H 0.25447 0.79503 0.07917
 H3317 H 0.24384 0.78486 0.05743
 H3318 H 0.29860 0.75872 0.04455
 H3319 H 0.28680 0.74966 0.02279
 H3320 H 0.24566 0.77100 0.03477
 C3321 C 0.78764 0.31135 0.08769
 C3322 C 0.78945 0.29631 0.08328
 C3323 C 0.79811 0.28690 0.09251
 C3324 C 0.80476 0.29247 0.10541
 C3325 C 0.80276 0.30737 0.10961
 C3326 C 0.79414 0.31670 0.10062
 C3327 C 0.80005 0.27194 0.08890
 C3328 C 0.79352 0.26597 0.07637
 C3329 C 0.78482 0.27480 0.06674
 C3330 C 0.78293 0.29029 0.07014
 C3331 C 0.77469 0.29925 0.06023
 C3332 C 0.76843 0.29335 0.04753
 C3333 C 0.76997 0.27827 0.04417
 C3334 C 0.77807 0.26871 0.05376
 C3335 C 0.77904 0.25344 0.04988
 C3336 C 0.77248 0.24806 0.03701
 C3337 C 0.76463 0.25761 0.02759
 C3338 C 0.76345 0.27272 0.03120
 H3339 H 0.78115 0.31930 0.08152
 H3340 H 0.81126 0.28507 0.11235
 H3341 H 0.79248 0.32830 0.10348
 H3342 H 0.80667 0.26469 0.09589
 H3343 H 0.79567 0.25432 0.07449
 H3344 H 0.77296 0.31101 0.06185
 H3345 H 0.76228 0.30071 0.04024
 H3346 H 0.78475 0.24529 0.05652
 H3347 H 0.77365 0.23636 0.03431
 H3348 H 0.75735 0.28013 0.02392
 C3349 C 0.77733 0.79905 0.59954
 C3350 C 0.78534 0.78968 0.58978
 C3351 C 0.80064 0.78710 0.59285
 C3352 C 0.80741 0.79344 0.60529
 C3353 C 0.79929 0.80265 0.61482
 C3354 C 0.78423 0.80540 0.61179
 C3355 C 0.80919 0.77828 0.58346
 C3356 C 0.80303 0.77215 0.57085
 C3357 C 0.78790 0.77446 0.56716
 C3358 C 0.77879 0.78299 0.57702
 C3359 C 0.76343 0.78445 0.57383
 C3360 C 0.75725 0.77824 0.56125
 C3361 C 0.76609 0.77048 0.55123
 C3362 C 0.78155 0.76848 0.55397
 C3363 C 0.79004 0.76079 0.54321
 C3364 C 0.78341 0.75531 0.53044
 C3365 C 0.76815 0.75722 0.52794
 C3366 C 0.75953 0.76481 0.53837
 H3367 H 0.76578 0.80191 0.59795
 H3368 H 0.81914 0.79139 0.60736
 H3369 H 0.77762 0.81241 0.61898
 H3370 H 0.82087 0.77618 0.58581
 H3371 H 0.81046 0.76545 0.56430
 H3372 H 0.75575 0.79022 0.58096
 H3373 H 0.74541 0.77969 0.55927
 H3374 H 0.80188 0.75903 0.54414
 H3375 H 0.79025 0.74951 0.52243
 H3376 H 0.74773 0.76650 0.53632
 C3377 C 0.29830 0.72271 0.39965
 C3378 C 0.28935 0.71502 0.41002
 C3379 C 0.28692 0.69958 0.40771
 C3380 C 0.29286 0.69239 0.39527
 C3381 C 0.30170 0.70020 0.38518
 C3382 C 0.30439 0.71537 0.38752
 C3383 C 0.27876 0.69132 0.41790
 C3384 C 0.27329 0.69791 0.43063
 C3385 C 0.27550 0.71321 0.43355
 C3386 C 0.28307 0.72204 0.42275
 C3387 C 0.28398 0.73759 0.42496
 C3388 C 0.27829 0.74423 0.43757
 C3389 C 0.27172 0.73567 0.44860
 C3390 C 0.27029 0.72002 0.44684
 C3391 C 0.26401 0.71181 0.45866
 C3392 C 0.25924 0.71891 0.47149
 C3393 C 0.26044 0.73436 0.47294
 C3394 C 0.26670 0.74269 0.46149
 H3395 H 0.30114 0.73431 0.40076
 H3396 H 0.29093 0.68058 0.39369
 H3397 H 0.31118 0.72168 0.37988
 H3398 H 0.27676 0.67954 0.41613
 H3399 H 0.26709 0.69071 0.43787
 H3400 H 0.28879 0.74505 0.41698
 H3401 H 0.27924 0.75621 0.43878
 H3402 H 0.26293 0.69986 0.45851
 H3403 H 0.25453 0.71231 0.48034
 H3404 H 0.26784 0.75466 0.46275
 C3405 C 0.29935 0.22250 0.90005
 C3406 C 0.29012 0.21495 0.91029
 C3407 C 0.28661 0.19984 0.90730
 C3408 C 0.29221 0.19272 0.89465
 C3409 C 0.30151 0.20033 0.88479
 C3410 C 0.30490 0.21529 0.88759
 C3411 C 0.27767 0.19181 0.91703
 C3412 C 0.27226 0.19831 0.92984
 C3413 C 0.27559 0.21323 0.93351
 C3414 C 0.28446 0.22177 0.92343
 C3415 C 0.28743 0.23682 0.92687
 C3416 C 0.28234 0.24323 0.93983
 C3417 C 0.27407 0.23499 0.94994
 C3418 C 0.27045 0.21990 0.94695
 C3419 C 0.26199 0.21212 0.95770
 C3420 C 0.25743 0.21907 0.97072
 C3421 C 0.26106 0.23396 0.97350
 C3422 C 0.26946 0.24181 0.96309
 H3423 H 0.30269 0.23394 0.90134
 H3424 H 0.28957 0.18111 0.89271
 H3425 H 0.31189 0.22155 0.88010
 H3426 H 0.27491 0.18028 0.91477
 H3427 H 0.26545 0.19125 0.93667
 H3428 H 0.29372 0.24406 0.91975
 H3429 H 0.28502 0.25480 0.94200
 H3430 H 0.25874 0.20065 0.95647
 H3431 H 0.25091 0.21282 0.97865
 H3432 H 0.27251 0.25328 0.96530
 C3433 C 0.77515 0.69920 0.89998
 C3434 C 0.78295 0.70824 0.91018
 C3435 C 0.79836 0.71065 0.90763
 C3436 C 0.80540 0.70465 0.89515
 C3437 C 0.79748 0.69584 0.88513
 C3438 C 0.78235 0.69309 0.88773
 C3439 C 0.80676 0.71894 0.91757
 C3440 C 0.80033 0.72466 0.93026
 C3441 C 0.78505 0.72257 0.93340
 C3442 C 0.77609 0.71472 0.92291
 C3443 C 0.76058 0.71375 0.92543
 C3444 C 0.75409 0.71975 0.93798
 C3445 C 0.76277 0.72672 0.94867
 C3446 C 0.77839 0.72818 0.94661
 C3447 C 0.78671 0.73497 0.95806
 C3448 C 0.77976 0.74010 0.97083
 C3449 C 0.76435 0.73879 0.97261
 C3450 C 0.75589 0.73211 0.96150
 H3451 H 0.76355 0.69639 0.90124
 H3452 H 0.81719 0.70663 0.89344
 H3453 H 0.77595 0.68631 0.88018
 H3454 H 0.81853 0.72088 0.91562
 H3455 H 0.80766 0.73091 0.93730
 H3456 H 0.75304 0.70863 0.91773
 H3457 H 0.74213 0.71876 0.93942
 H3458 H 0.79865 0.73621 0.95767
 H3459 H 0.78646 0.74516 0.97940
 H3460 H 0.74395 0.73089 0.96301
 C3461 C 0.78643 0.18857 0.41053
 C3462 C 0.78869 0.20338 0.41544
 C3463 C 0.79760 0.21281 0.40650
 C3464 C 0.80401 0.20749 0.39337
 C3465 C 0.80165 0.19279 0.38872
 C3466 C 0.79278 0.18345 0.39743
 C3467 C 0.80008 0.22754 0.41066
 C3468 C 0.79394 0.23322 0.42352
 C3469 C 0.78505 0.22433 0.43290
 C3470 C 0.78245 0.20912 0.42884
 C3471 C 0.77377 0.20016 0.43834
 C3472 C 0.76784 0.20577 0.45133
 C3473 C 0.77018 0.22054 0.45541
 C3474 C 0.77873 0.23010 0.44625
 C3475 C 0.78059 0.24506 0.45091
 C3476 C 0.77434 0.25014 0.46405
 C3477 C 0.76596 0.24061 0.47300
 C3478 C 0.76398 0.22579 0.46866
 H3479 H 0.77982 0.18059 0.41650
 H3480 H 0.81072 0.21490 0.38667
 H3481 H 0.79086 0.17199 0.39427
 H3482 H 0.80686 0.23481 0.40387
 H3483 H 0.79651 0.24469 0.42582
 H3484 H 0.77137 0.18863 0.43615
 H3485 H 0.76130 0.19842 0.45828
 H3486 H 0.78678 0.25318 0.44469
 H3487 H 0.77613 0.26161 0.46731
 H3488 H 0.75745 0.21839 0.47556
 C3489 C 0.70318 0.27735 0.40206
 C3490 C 0.71214 0.28524 0.41225
 C3491 C 0.71436 0.30068 0.40968
 C3492 C 0.70803 0.30770 0.39731
 C3493 C 0.69923 0.29968 0.38735
 C3494 C 0.69688 0.28447 0.38989
 C3495 C 0.72279 0.30910 0.41949
 C3496 C 0.72899 0.30263 0.43196
 C3497 C 0.72712 0.28732 0.43511
 C3498 C 0.71879 0.27842 0.42494
 C3499 C 0.71742 0.26300 0.42777
 C3500 C 0.72361 0.25652 0.44024
 C3501 C 0.73137 0.26509 0.45045
 C3502 C 0.73331 0.28061 0.44808
 C3503 C 0.74120 0.28874 0.45894
 C3504 C 0.74682 0.28173 0.47152
 C3505 C 0.74486 0.26644 0.47370
 C3506 C 0.73712 0.25818 0.46312
 H3507 H 0.70066 0.26568 0.40319
 H3508 H 0.70981 0.31952 0.39562
 H3509 H 0.69021 0.27791 0.38238
 H3510 H 0.72455 0.32089 0.41756
 H3511 H 0.73530 0.31002 0.43889
 H3512 H 0.71169 0.25548 0.42049
 H3513 H 0.72221 0.24464 0.44195
 H3514 H 0.74312 0.30055 0.45821
 H3515 H 0.75275 0.28831 0.47962
 H3516 H 0.73536 0.24636 0.46491
 C3517 C 0.68828 0.78717 0.91210
 C3518 C 0.70330 0.78860 0.91670
 C3519 C 0.71306 0.79692 0.90755
 C3520 C 0.70782 0.80362 0.89452
 C3521 C 0.69292 0.80199 0.89016
 C3522 C 0.68326 0.79372 0.89908
 C3523 C 0.72803 0.79842 0.91136
 C3524 C 0.73367 0.79173 0.92399
 C3525 C 0.72447 0.78332 0.93350
 C3526 C 0.70896 0.78196 0.92993
 C3527 C 0.69962 0.77408 0.93974
 C3528 C 0.70518 0.76753 0.95244
 C3529 C 0.72027 0.76847 0.95591
 C3530 C 0.73020 0.77630 0.94653
 C3531 C 0.74546 0.77671 0.95062
 C3532 C 0.75047 0.76975 0.96348
 C3533 C 0.74053 0.76213 0.97263
 C3534 C 0.72545 0.76156 0.96881
 H3535 H 0.68008 0.78092 0.91817
 H3536 H 0.71546 0.80984 0.88762
 H3537 H 0.67166 0.79235 0.89608
 H3538 H 0.73555 0.80477 0.90442
 H3539 H 0.74536 0.79349 0.92603
 H3540 H 0.68781 0.77286 0.93805
 H3541 H 0.69755 0.76163 0.95963
 H3542 H 0.75386 0.78223 0.94415
 H3543 H 0.76218 0.77040 0.96635
 H3544 H 0.71774 0.75558 0.97588
 C3545 C 0.20142 0.27495 0.90227
 C3546 C 0.21091 0.28240 0.91230
 C3547 C 0.21400 0.29766 0.90955
 C3548 C 0.20779 0.30498 0.89729
 C3549 C 0.19832 0.29744 0.88756
 C3550 C 0.19528 0.28236 0.89018
 C3551 C 0.22317 0.30561 0.91909
 C3552 C 0.22927 0.29886 0.93146
 C3553 C 0.22649 0.28373 0.93482
 C3554 C 0.21729 0.27532 0.92498
 C3555 C 0.21470 0.26013 0.92821
 C3556 C 0.22051 0.25346 0.94075
 C3557 C 0.22920 0.26156 0.95059
 C3558 C 0.23248 0.27677 0.94775
 C3559 C 0.24149 0.28438 0.95814
 C3560 C 0.24670 0.27723 0.97080
 C3561 C 0.24324 0.26230 0.97354
 C3562 C 0.23449 0.25452 0.96339
 H3563 H 0.19838 0.26341 0.90341
 H3564 H 0.21019 0.31668 0.89551
 H3565 H 0.18817 0.27611 0.88283
 H3566 H 0.22559 0.31726 0.91703
 H3567 H 0.23612 0.30592 0.93822
 H3568 H 0.20813 0.25298 0.92128
 H3569 H 0.21809 0.24181 0.94281
 H3570 H 0.24467 0.29587 0.95692
 H3571 H 0.25350 0.28341 0.97853
 H3572 H 0.23162 0.24299 0.96559
 C3573 C 0.21141 0.80899 0.41166
 C3574 C 0.20956 0.79418 0.41672
 C3575 C 0.20105 0.78435 0.40785
 C3576 C 0.19451 0.78936 0.39463
 C3577 C 0.19671 0.80400 0.38974
 C3578 C 0.20515 0.81372 0.39840
 C3579 C 0.19929 0.76951 0.41209
 C3580 C 0.20607 0.76405 0.42477
 C3581 C 0.21474 0.77333 0.43395
 C3582 C 0.21611 0.78875 0.43009
 C3583 C 0.22391 0.79827 0.43977
 C3584 C 0.23051 0.79291 0.45252
 C3585 C 0.22979 0.77785 0.45614
 C3586 C 0.22199 0.76776 0.44692
 C3587 C 0.22194 0.75251 0.45108
 C3588 C 0.22914 0.74767 0.46389
 C3589 C 0.23667 0.75779 0.47291
 C3590 C 0.23690 0.77285 0.46900
 H3591 H 0.21790 0.81718 0.41745
 H3592 H 0.18812 0.78171 0.38791
 H3593 H 0.20693 0.82514 0.39496
 H3594 H 0.19274 0.76195 0.40541
 H3595 H 0.20412 0.75246 0.42717
 H3596 H 0.22497 0.81008 0.43796
 H3597 H 0.23636 0.80068 0.45960
 H3598 H 0.21658 0.74400 0.44464
 H3599 H 0.22877 0.73596 0.46680
 H3600 H 0.24280 0.78069 0.47595
 C3601 C 0.68894 0.71529 0.58899
 C3602 C 0.70398 0.71321 0.58459
 C3603 C 0.71328 0.70461 0.59397
 C3604 C 0.70762 0.69823 0.60693
 C3605 C 0.69268 0.70026 0.61101
 C3606 C 0.68346 0.70893 0.60196
 C3607 C 0.72822 0.70236 0.59041
 C3608 C 0.73426 0.70840 0.57769
 C3609 C 0.72552 0.71695 0.56785
 C3610 C 0.71010 0.71933 0.57131
 C3611 C 0.70131 0.72763 0.56131
 C3612 C 0.70730 0.73342 0.54842
 C3613 C 0.72228 0.73129 0.54494
 C3614 C 0.73167 0.72310 0.55461
 C3615 C 0.74685 0.72141 0.55054
 C3616 C 0.75232 0.72749 0.53748
 C3617 C 0.74296 0.73554 0.52806
 C3618 C 0.72793 0.73732 0.53178
 H3619 H 0.68107 0.72177 0.58270
 H3620 H 0.71498 0.69176 0.61393
 H3621 H 0.67185 0.71068 0.60477
 H3622 H 0.73537 0.69581 0.59756
 H3623 H 0.74587 0.70602 0.57587
 H3624 H 0.68963 0.72979 0.56303
 H3625 H 0.70007 0.73966 0.54107
 H3626 H 0.75486 0.71547 0.55715
 H3627 H 0.76395 0.72586 0.53467
 H3628 H 0.72067 0.74356 0.52446
 C3629 C 0.70023 0.22314 0.09906
 C3630 C 0.70977 0.21526 0.08933
 C3631 C 0.71253 0.20001 0.09245
 C3632 C 0.70627 0.19318 0.10492
 C3633 C 0.69696 0.20117 0.11446
 C3634 C 0.69394 0.21617 0.11136
 C3635 C 0.72148 0.19155 0.08310
 C3636 C 0.72760 0.19776 0.07049
 C3637 C 0.72515 0.21285 0.06675
 C3638 C 0.71648 0.22188 0.07656
 C3639 C 0.71491 0.23721 0.07334
 C3640 C 0.72120 0.24345 0.06078
 C3641 C 0.72911 0.23468 0.05080
 C3642 C 0.73116 0.21924 0.05356
 C3643 C 0.73894 0.21079 0.04283
 C3644 C 0.74445 0.21743 0.03006
 C3645 C 0.74253 0.23268 0.02753
 C3646 C 0.73486 0.24127 0.03795
 H3647 H 0.69721 0.23465 0.09741
 H3648 H 0.70849 0.18149 0.10700
 H3649 H 0.68679 0.22264 0.11854
 H3650 H 0.72371 0.17991 0.08549
 H3651 H 0.73443 0.19039 0.06400
 H3652 H 0.70902 0.24482 0.08044
 H3653 H 0.71969 0.25528 0.05879
 H3654 H 0.74074 0.19896 0.04378
 H3655 H 0.75029 0.21061 0.02207
 H3656 H 0.73316 0.25306 0.03588
 C3657 C 0.22426 0.70089 0.09901
 C3658 C 0.21689 0.71026 0.08877
 C3659 C 0.20155 0.71329 0.09121
 C3660 C 0.19409 0.70725 0.10347
 C3661 C 0.20158 0.69790 0.11340
 C3662 C 0.21672 0.69486 0.11104
 C3663 C 0.19366 0.72221 0.08132
 C3664 C 0.20054 0.72800 0.06885
 C3665 C 0.21574 0.72520 0.06580
 C3666 C 0.22414 0.71648 0.07611
 C3667 C 0.23951 0.71425 0.07343
 C3668 C 0.24635 0.71985 0.06091
 C3669 C 0.23824 0.72787 0.05049
 C3670 C 0.22284 0.73077 0.05275
 C3671 C 0.21519 0.73892 0.04168
 C3672 C 0.22254 0.74382 0.02901
 C3673 C 0.23772 0.74088 0.02694
 C3674 C 0.24549 0.73287 0.03772
 H3675 H 0.23582 0.69778 0.09802
 H3676 H 0.18234 0.70959 0.10508
 H3677 H 0.22289 0.68782 0.11857
 H3678 H 0.18196 0.72464 0.08315
 H3679 H 0.19356 0.73472 0.06184
 H3680 H 0.24669 0.70824 0.08085
 H3681 H 0.25816 0.71775 0.05930
 H3682 H 0.20349 0.74156 0.04234
 H3683 H 0.21634 0.74996 0.02074
 H3684 H 0.25720 0.73034 0.03601
 C3685 C 0.18800 0.21413 0.59076
 C3686 C 0.20287 0.21220 0.58584
 C3687 C 0.21257 0.20354 0.59477
 C3688 C 0.20742 0.19703 0.60793
 C3689 C 0.19268 0.19913 0.61261
 C3690 C 0.18308 0.20774 0.60389
 C3691 C 0.22737 0.20145 0.59058
 C3692 C 0.23288 0.20779 0.57773
 C3693 C 0.22372 0.21647 0.56839
 C3694 C 0.20841 0.21859 0.57244
 C3695 C 0.19914 0.22695 0.56293
 C3696 C 0.20455 0.23307 0.54997
 C3697 C 0.21942 0.23125 0.54593
 C3698 C 0.22930 0.22303 0.55508
 C3699 C 0.24436 0.22175 0.55044
 C3700 C 0.24922 0.22823 0.53730
 C3701 C 0.23933 0.23626 0.52839
 C3702 C 0.22444 0.23768 0.53274
 H3703 H 0.17983 0.22056 0.58483
 H3704 H 0.21501 0.19050 0.61465
 H3705 H 0.17157 0.20944 0.60708
 H3706 H 0.23484 0.19484 0.59736
 H3707 H 0.24444 0.20555 0.57540
 H3708 H 0.18750 0.22892 0.56507
 H3709 H 0.19697 0.23935 0.54301
 H3710 H 0.25271 0.21587 0.55668
 H3711 H 0.26077 0.22692 0.53404
 H3712 H 0.21679 0.24395 0.52585
   
