data_POSCAR
  _audit_creation_date              2014-09-24
  _audit_creation_method            'ToBaCCo'
  _symmetry_space_group_name_H-M    'P1'
  _symmetry_Int_Tables_number       1
  _symmetry_cell_setting            triclinic
  loop_
  _symmetry_equiv_pos_as_xyz
 x,y,z
_cell_length_a 75.3163
_cell_length_b 73.2978
_cell_length_c 79.4761
_cell_angle_alpha 88.290500
_cell_angle_beta 89.049200
_cell_angle_gamma 89.682600
loop_
  _atom_site_label
  _atom_site_type_symbol
  _atom_site_fract_x
  _atom_site_fract_y
  _atom_site_fract_z
C1 C 0.30199 0.46015 0.92716
 N2 N 0.29475 0.44438 0.93323
 C3 C 0.30298 0.43417 0.94527
 N4 N 0.31888 0.43968 0.95124
 C5 C 0.32633 0.45551 0.94511
 N6 N 0.31779 0.46565 0.93311
 C7 C 0.44836 0.82638 0.43934
 N8 N 0.45272 0.81950 0.42411
 C9 C 0.44508 0.80379 0.41908
 N10 N 0.43294 0.79513 0.42928
 C11 C 0.42853 0.80198 0.44449
 N12 N 0.43626 0.81750 0.44939
 C13 C 0.93371 0.91711 0.82245
 N14 N 0.91761 0.92021 0.81552
 C15 C 0.90651 0.93300 0.82175
 N16 N 0.91154 0.94281 0.83508
 C17 C 0.92758 0.93974 0.84220
 N18 N 0.93866 0.92686 0.83581
 C19 C 0.46414 -0.06938 0.31695
 N20 N 0.45036 -0.06180 0.30831
 C21 C 0.44049 -0.04824 0.31513
 N22 N 0.44433 -0.04238 0.33068
 C23 C 0.45800 -0.04992 0.33941
 N24 N 0.46787 -0.06338 0.33249
 C25 C 0.81023 0.28422 0.33353
 N26 N 0.82650 0.27734 0.32977
 C27 C 0.83702 0.28548 0.31785
 N28 N 0.83110 0.30067 0.30946
 C29 C 0.81476 0.30772 0.31297
 N30 N 0.80428 0.29951 0.32514
 C31 C -0.17752 0.84188 0.81184
 N32 N -0.16383 0.83274 0.80441
 C33 C -0.15711 0.81732 0.81180
 N34 N -0.16410 0.81111 0.82662
 C35 C -0.17771 0.81994 0.83423
 N36 N -0.18451 0.83546 0.82685
 C37 C 0.93868 0.32084 0.42900
 N38 N 0.92372 0.31498 0.43718
 C39 C 0.91522 0.29980 0.43229
 N40 N 0.92177 0.29035 0.41904
 C41 C 0.93682 0.29609 0.41082
 N42 N 0.94515 0.31134 0.41586
 C43 C 0.42293 0.43867 0.84395
 N44 N 0.40703 0.44310 0.83699
 C45 C 0.40085 0.43361 0.82391
 N46 N 0.41054 0.41960 0.81787
 C47 C 0.42640 0.41493 0.82465
 N48 N 0.43262 0.42452 0.83771
 C49 C 0.80231 0.94526 0.93918
 N50 N 0.79322 0.95442 0.92702
 C51 C 0.80039 0.96892 0.91861
 N52 N 0.81693 0.97452 0.92248
 C53 C 0.82624 0.96569 0.93483
 N54 N 0.81893 0.95088 0.94315
 C55 C 0.31325 0.82480 0.31852
 N56 N 0.32878 0.81796 0.31228
 C57 C 0.33655 0.80314 0.31987
 N58 N 0.32871 0.79515 0.33370
 C59 C 0.31321 0.80185 0.34001
 N60 N 0.30558 0.81669 0.33240
 C61 C 0.80749 0.41716 0.43865
 N62 N 0.79826 0.41937 0.42425
 C63 C 0.80233 0.43290 0.41293
 N64 N 0.81594 0.44442 0.41599
 C65 C 0.82532 0.44233 0.43044
 N66 N 0.82108 0.42858 0.44168
 C67 C 0.94616 0.84177 -0.07345
 N68 N 0.93232 0.83109 -0.06861
 C69 C 0.92706 0.81713 -0.07810
 N70 N 0.93578 0.81390 -0.09283
 C71 C 0.94982 0.82453 -0.09793
 N72 N 0.95496 0.83847 -0.08816
 C73 C 0.31930 0.34222 0.83186
 N74 N 0.31477 0.33993 0.84847
 C75 C 0.32492 0.32910 0.85870
 N76 N 0.33939 0.32057 0.85233
 C77 C 0.34366 0.32229 0.83579
 N78 N 0.33364 0.33318 0.82553
 C79 C 0.16642 0.52282 0.56285
 N80 N 0.17077 0.51804 0.57889
 C81 C 0.18360 0.52723 0.58693
 N82 N 0.19208 0.54142 0.57881
 C83 C 0.18776 0.54621 0.56269
 N84 N 0.17495 0.53690 0.55488
 C85 C 0.59012 0.69011 0.06953
 N86 N 0.58063 0.69380 0.08369
 C87 C 0.56590 0.68400 0.08803
 N88 N 0.56070 0.67035 0.07809
 C89 C 0.57006 0.66651 0.06382
 N90 N 0.58479 0.67642 0.05960
 C91 C 0.69246 0.21853 0.67656
 N92 N 0.67788 0.22518 0.68471
 C93 C 0.67408 0.21955 0.70084
 N94 N 0.68483 0.20721 0.70868
 C95 C 0.69921 0.20034 0.70058
 N96 N 0.70296 0.20596 0.68450
 C97 C 1.09975 0.05452 0.17390
 N98 N 1.09120 0.06850 0.18168
 C99 C 1.07567 0.07525 0.17533
 N100 N 1.06891 0.06807 0.16125
 C101 C 1.07737 0.05419 0.15347
 N102 N 1.09270 0.04750 0.15989
 C103 C 0.04579 0.19106 1.05463
 N104 N 0.05957 0.19856 1.04549
 C105 C 0.06671 0.21464 1.05014
 N106 N 0.06023 0.22300 1.06391
 C107 C 0.04696 0.21541 1.07335
 N108 N 0.03976 0.19943 1.06866
 C109 C 0.19491 0.71096 0.70252
 N110 N 0.20421 0.69800 0.71117
 C111 C 0.21893 0.69035 0.70430
 N112 N 0.22432 0.69568 0.68862
 C113 C 0.21515 0.70861 0.67971
 N114 N 0.20027 0.71616 0.68663
 C115 C 1.22893 0.18797 0.21826
 N116 N 1.23406 0.19319 0.20241
 C117 C 1.22355 0.20417 0.19277
 N118 N 1.20759 0.20988 0.19906
 C119 C 1.20245 0.20482 0.21504
 N120 N 1.21314 0.19383 0.22450
 C121 C 0.63660 1.05369 0.57311
 N122 N 0.64552 1.04576 0.58607
 C123 C 0.66175 1.05189 0.59033
 N124 N 0.66916 1.06621 0.58149
 C125 C 0.66028 1.07428 0.56841
 N126 N 0.64403 1.06796 0.56433
 C127 C 0.54425 0.55267 0.16762
 N128 N 0.53590 0.56715 0.17455
 C129 C 0.54209 0.57453 0.18870
 N130 N 0.55676 0.56730 0.19600
 C131 C 0.56523 0.55275 0.18934
 N132 N 0.55903 0.54541 0.17500
 C133 C 0.66499 0.67729 0.17046
 N134 N 0.67411 0.68351 0.15657
 C135 C 0.68418 0.67189 0.14740
 N136 N 0.68501 0.65406 0.15209
 C137 C 0.67627 0.64772 0.16604
 N138 N 0.66625 0.65934 0.17535
 C139 C 0.18137 0.04344 1.04954
 N140 N 0.18856 0.05883 1.04249
 C141 C 0.20276 0.06676 1.04942
 N142 N 0.20990 0.05924 1.06365
 C143 C 0.20289 0.04367 1.07073
 N144 N 0.18863 0.03589 1.06362
 C145 C 0.56263 0.19115 0.55571
 N146 N 0.55803 0.19968 0.57005
 C147 C 0.54226 0.19612 0.57795
 N148 N 0.53099 0.18374 0.57146
 C149 C 0.53554 0.17523 0.55699
 N150 N 0.55131 0.17905 0.54921
 C151 C 0.07146 0.56007 0.67262
 N152 N 0.06548 0.57599 0.67917
 C153 C 0.05191 0.58533 0.67175
 N154 N 0.04440 0.57871 0.65783
 C155 C 0.05031 0.56297 0.65117
 N156 N 0.06390 0.55367 0.65857
 C157 C 0.67252 0.55986 0.06204
 N158 N 0.67764 0.57604 0.05491
 C159 C 0.69112 0.58561 0.06143
 N160 N 0.69950 0.57896 0.07546
 C161 C 0.69427 0.56270 0.08277
 N162 N 0.68082 0.55331 0.07592
 C163 C 0.05299 0.69445 0.57210
 N164 N 0.06908 0.70029 0.56636
 C165 C 0.07776 0.69149 0.55389
 N166 N 0.07025 0.67660 0.54707
 C167 C 0.05402 0.67074 0.55273
 N168 N 0.04554 0.67967 0.56527
 C169 C 0.54663 1.04456 0.67039
 N170 N 0.56290 1.03923 0.67580
 C171 C 0.57119 1.04854 0.68791
 N172 N 0.56313 1.06341 0.69461
 C173 C 0.54677 1.06875 0.68928
 N174 N 0.53866 1.05929 0.67723
 C175 C 0.44777 0.32359 0.94353
 N176 N 0.45402 0.32014 0.92782
 C177 C 0.44527 0.30859 0.91786
 N178 N 0.43000 0.30050 0.92366
 C179 C 0.42364 0.30400 0.93939
 N180 N 0.43262 0.31551 0.94919
 C181 C 0.93476 0.43105 0.32840
 N182 N 0.91970 0.44021 0.32398
 C183 C 0.91068 0.43559 0.31011
 N184 N 0.91673 0.42164 0.30065
 C185 C 0.93174 0.41244 0.30490
 N186 N 0.94072 0.41718 0.31881
 C187 C 0.29347 0.92562 0.40790
 N188 N 0.28754 0.90949 0.41447
 C189 C 0.29331 0.90307 0.42960
 N190 N 0.30511 0.91300 0.43833
 C191 C 0.31098 0.92936 0.43187
 N192 N 0.30516 0.93550 0.41663
 O193 O 0.23252 0.55162 0.74228
 O194 O 0.26186 0.54510 0.74649
 O195 O 0.21394 0.50297 0.71799
 O196 O 0.21220 0.47301 0.72447
 O197 O 0.18306 0.52691 0.75805
 O198 O 0.18498 0.52580 0.78773
 O199 O 0.25327 0.45581 0.77150
 O200 O 0.25338 0.45968 0.74228
 O201 O 0.27248 0.50257 0.79209
 O202 O 0.26648 0.53533 0.78867
 O203 O 0.22467 0.48088 0.81024
 O204 O 0.19390 0.48151 0.80042
 O205 O 0.22917 0.45618 0.78918
 O206 O 0.19675 0.46212 0.78297
 O207 O 0.24575 0.50285 0.81148
 O208 O 0.24459 0.53631 0.80339
 O209 O 0.27559 0.47987 0.77335
 O210 O 0.27395 0.48479 0.74204
 O211 O 0.20856 0.55214 0.76018
 O212 O 0.20473 0.54528 0.78985
 O213 O 0.18565 0.50483 0.73862
 O214 O 0.19224 0.47158 0.74408
 O215 O 0.23432 0.52563 0.71951
 O216 O 0.26524 0.52081 0.72970
 Zr217 Zr 0.24215 0.52476 0.74488
 O218 O 0.25691 0.50931 0.76253
 Zr219 Zr 0.21094 0.49305 0.74304
 O220 O 0.22486 0.47583 0.76015
 Zr221 Zr 0.20709 0.52563 0.77099
 O222 O 0.22016 0.50976 0.78949
 Zr223 Zr 0.25218 0.48150 0.75913
 O224 O 0.23860 0.49687 0.74026
 Zr225 Zr 0.24759 0.51421 0.78700
 O226 O 0.23436 0.53143 0.76956
 Zr227 Zr 0.21698 0.48187 0.78486
 O228 O 0.20170 0.49785 0.76767
 O229 O 0.21486 0.52071 0.74634
 O230 O 0.24420 0.48641 0.78379
 C231 C 0.21956 0.55980 0.74969
 C232 C 0.22350 0.51586 0.71134
 C233 C 0.17713 0.51782 0.74582
 C234 C 0.24325 0.44862 0.78313
 C235 C 0.28105 0.48927 0.78565
 C236 C 0.23624 0.49000 0.81814
 H237 H 0.26967 0.51217 0.76106
 H238 H 0.21551 0.51296 0.80073
 H239 H 0.20850 0.52861 0.73809
 H240 H 0.22276 0.46289 0.75766
 H241 H 0.25103 0.46504 0.73094
 H242 H 0.22110 0.46389 0.72824
 H243 H 0.23382 0.53410 0.81045
 H244 H 0.21638 0.55141 0.79034
 H245 H 0.28230 0.47448 0.74409
 H246 H 0.26533 0.53000 0.72028
 H247 H 0.19365 0.49298 0.80666
 H248 H 0.17963 0.51351 0.78744
 H249 H 0.26093 0.54986 0.75800
 H250 H 0.27548 0.53372 0.77962
 H251 H 0.18381 0.47417 0.75340
 H252 H 0.20050 0.45343 0.77430
 O253 O 0.22959 0.02863 0.23685
 O254 O 0.23466 0.02386 0.26513
 O255 O 0.27920 0.04824 0.21617
 O256 O 0.30693 0.03875 0.21311
 O257 O 0.25069 0.00434 0.19232
 O258 O 0.24815 -0.02744 0.19841
 O259 O 0.32001 -0.00787 0.25741
 O260 O 0.31841 0.02334 0.25451
 O261 O 0.27281 -0.02565 0.28076
 O262 O 0.24125 -0.02153 0.27521
 O263 O 0.29199 -0.05104 0.23728
 O264 O 0.29152 -0.04444 0.20780
 O265 O 0.31792 -0.02894 0.23706
 O266 O 0.31042 -0.02486 0.20564
 O267 O 0.27145 -0.04944 0.25846
 O268 O 0.23915 -0.03947 0.25654
 O269 O 0.29678 -0.00688 0.28002
 O270 O 0.29442 0.02669 0.27448
 O271 O 0.22639 0.00703 0.21708
 O272 O 0.22962 -0.02622 0.21832
 O273 O 0.27413 0.02379 0.19182
 O274 O 0.30593 0.01602 0.19765
 O275 O 0.25807 0.05014 0.23685
 O276 O 0.25981 0.04054 0.26677
 Zr277 Zr 0.25499 0.02323 0.24640
 O278 O 0.26869 0.00449 0.26203
 Zr279 Zr 0.28549 0.02035 0.21573
 O280 O 0.30089 0.00224 0.23049
 Zr281 Zr 0.25083 -0.00744 0.21681
 O282 O 0.26508 -0.02737 0.23096
 Zr283 Zr 0.29587 0.00619 0.25618
 O284 O 0.28242 0.02611 0.24145
 Zr285 Zr 0.26174 -0.02240 0.25671
 O286 O 0.24613 -0.00354 0.24258
 Zr287 Zr 0.29257 -0.02453 0.22649
 O288 O 0.27809 -0.00647 0.21039
 O289 O 0.25838 0.01929 0.22073
 O290 O 0.28897 -0.02079 0.25216
 C291 C 0.22063 0.02060 0.22564
 C292 C 0.26843 0.05726 0.22546
 C293 C 0.26086 0.01624 0.18493
 C294 C 0.32621 -0.02120 0.24894
 C295 C 0.28650 -0.01859 0.28743
 C296 C 0.28332 -0.05800 0.24991
 H297 H 0.26624 0.00735 0.27394
 H298 H 0.26098 -0.03969 0.22820
 H299 H 0.25177 0.02846 0.21387
 H300 H 0.31360 0.00404 0.22763
 H301 H 0.31408 0.03561 0.25093
 H302 H 0.31502 0.03586 0.22248
 H303 H 0.24085 -0.04825 0.24743
 H304 H 0.22401 -0.02495 0.22958
 H305 H 0.30444 0.02475 0.28229
 H306 H 0.25168 0.05123 0.26598
 H307 H 0.27910 -0.04866 0.20736
 H308 H 0.25997 -0.02869 0.19292
 H309 H 0.22844 0.01201 0.26492
 H310 H 0.24294 -0.01035 0.28166
 H311 H 0.30199 0.00604 0.19050
 H312 H 0.32040 -0.01665 0.20801
 O313 O 0.50991 0.70676 0.23343
 O314 O 0.48034 0.71504 0.23372
 O315 O 0.53525 0.75263 0.20734
 O316 O 0.54010 0.78211 0.21121
 O317 O 0.55675 0.72868 0.25369
 O318 O 0.54946 0.73275 0.28264
 O319 O 0.49159 0.80578 0.24743
 O320 O 0.49578 0.79856 0.21968
 O321 O 0.46441 0.76283 0.27159
 O322 O 0.46801 0.72989 0.27349
 O323 O 0.51014 0.78278 0.29338
 O324 O 0.54086 0.78005 0.28925
 O325 O 0.51170 0.80554 0.26853
 O326 O 0.54483 0.79559 0.26780
 O327 O 0.48732 0.76258 0.29476
 O328 O 0.48724 0.72834 0.29079
 O329 O 0.46679 0.78370 0.24994
 O330 O 0.47357 0.77513 0.22018
 O331 O 0.52963 0.70601 0.25491
 O332 O 0.52750 0.71519 0.28416
 O333 O 0.55946 0.74909 0.23168
 O334 O 0.55494 0.78349 0.23301
 O335 O 0.51372 0.73093 0.20828
 O336 O 0.48158 0.73794 0.21371
 Zr337 Zr 0.50137 0.73409 0.23220
 O338 O 0.48478 0.75197 0.24566
 Zr339 Zr 0.53500 0.76340 0.23142
 O340 O 0.51938 0.78293 0.24378
 Zr341 Zr 0.53084 0.73312 0.26301
 O342 O 0.51592 0.75168 0.27732
 Zr343 Zr 0.49225 0.77886 0.23947
 O344 O 0.50806 0.76110 0.22490
 Zr345 Zr 0.48894 0.74903 0.27169
 O346 O 0.50374 0.72928 0.25842
 Zr347 Zr 0.52213 0.77870 0.26980
 O348 O 0.53915 0.76004 0.25740
 O349 O 0.52822 0.73653 0.23715
 O350 O 0.49513 0.77604 0.26546
 C351 C 0.52086 0.69841 0.24328
 C352 C 0.52640 0.73984 0.20077
 C353 C 0.56542 0.73602 0.24123
 C354 C 0.50000 0.81348 0.25917
 C355 C 0.45828 0.77603 0.26236
 C356 C 0.49671 0.77533 0.30088
 H357 H 0.47224 0.74985 0.24278
 H358 H 0.51820 0.74933 0.28940
 H359 H 0.53534 0.72769 0.23066
 H360 H 0.52308 0.79531 0.23994
 H361 H 0.49980 0.79184 0.20968
 H362 H 0.52986 0.79060 0.21086
 H363 H 0.49668 0.73051 0.29899
 H364 H 0.51567 0.70955 0.28316
 H365 H 0.46578 0.78608 0.21964
 H366 H 0.48259 0.72795 0.20559
 H367 H 0.54149 0.76777 0.29470
 H368 H 0.55630 0.74422 0.28132
 H369 H 0.47911 0.71112 0.24571
 H370 H 0.46173 0.73035 0.26265
 H371 H 0.56223 0.78010 0.24289
 H372 H 0.54276 0.80487 0.25875
 O373 O 0.01784 0.71850 0.71483
 O374 O -0.01280 0.72136 0.71578
 O375 O 0.03574 0.76940 0.69236
 O376 O 0.03276 0.79915 0.69763
 O377 O 0.06048 0.74747 0.73702
 O378 O 0.05188 0.74724 0.76649
 O379 O -0.01680 0.81112 0.73655
 O380 O -0.01061 0.80774 0.70803
 O381 O -0.03671 0.76318 0.75650
 O382 O -0.02746 0.73000 0.75443
 O383 O 0.00425 0.78725 0.78075
 O384 O 0.03667 0.78917 0.77613
 O385 O 0.00289 0.81205 0.75797
 O386 O 0.03617 0.80897 0.75798
 O387 O -0.01439 0.76303 0.77974
 O388 O -0.00989 0.73062 0.77326
 O389 O -0.03737 0.78531 0.73583
 O390 O -0.02898 0.78103 0.70593
 O391 O 0.03769 0.71954 0.73612
 O392 O 0.03452 0.72500 0.76557
 O393 O 0.05927 0.77025 0.71697
 O394 O 0.04915 0.80181 0.71972
 O395 O 0.01696 0.74523 0.69165
 O396 O -0.01542 0.74533 0.69720
 Zr397 Zr 0.00471 0.74388 0.71560
 O398 O -0.01471 0.75759 0.72985
 Zr399 Zr 0.03270 0.77877 0.71704
 O400 O 0.01442 0.79396 0.73129
 Zr401 Zr 0.03403 0.74554 0.74635
 O402 O 0.01576 0.75929 0.76200
 Zr403 Zr -0.01146 0.78581 0.72597
 O404 O 0.00672 0.77214 0.71020
 Zr405 Zr -0.01041 0.75279 0.75559
 O406 O 0.00794 0.73734 0.74135
 Zr407 Zr 0.01750 0.78755 0.75707
 O408 O 0.03733 0.77389 0.74287
 O409 O 0.03078 0.75069 0.72077
 O410 O -0.00855 0.78086 0.75176
 C411 C 0.03014 0.71142 0.72404
 C412 C 0.02842 0.75619 0.68482
 C413 C 0.06764 0.75802 0.72559
 C414 C -0.00994 0.81874 0.74923
 C415 C -0.04461 0.77587 0.74786
 C416 C -0.00778 0.77663 0.78719
 H417 H -0.02669 0.75374 0.72653
 H418 H 0.01819 0.75607 0.77391
 H419 H 0.03945 0.74394 0.71379
 H420 H 0.01602 0.80713 0.72871
 H421 H -0.00571 0.80273 0.69747
 H422 H 0.02371 0.80835 0.70068
 H423 H 0.00034 0.73240 0.78066
 H424 H 0.02323 0.71823 0.76482
 H425 H -0.03815 0.79079 0.70584
 H426 H -0.01282 0.73617 0.68853
 H427 H 0.03630 0.77759 0.78285
 H428 H 0.05650 0.75987 0.76611
 H429 H -0.01316 0.71624 0.72745
 H430 H -0.03552 0.73212 0.74486
 H431 H 0.05511 0.80021 0.73068
 H432 H 0.03403 0.81744 0.74830
 O433 O 0.04865 0.04028 -0.01010
 O434 O 0.04273 0.03730 -0.03865
 O435 O 0.00029 0.06131 0.01084
 O436 O -0.02894 0.05319 0.01027
 O437 O 0.02593 0.01631 0.03540
 O438 O 0.02756 -0.01559 0.03061
 O439 O -0.04254 0.00630 -0.03004
 O440 O -0.04046 0.03777 -0.02836
 O441 O 0.00541 -0.01168 -0.05206
 O442 O 0.03707 -0.00627 -0.04689
 O443 O -0.01405 -0.03752 -0.00962
 O444 O -0.01266 -0.03059 0.02171
 O445 O -0.04014 -0.01537 -0.00905
 O446 O -0.03425 -0.01417 0.02089
 O447 O 0.00874 -0.03544 -0.02870
 O448 O 0.03982 -0.02456 -0.02791
 O449 O -0.01901 0.00673 -0.05225
 O450 O -0.01663 0.04055 -0.04870
 O451 O 0.05068 0.01821 0.01063
 O452 O 0.04707 -0.01430 0.01187
 O453 O 0.00235 0.03584 0.03510
 O454 O -0.02880 0.03030 0.02891
 O455 O 0.02142 0.06300 -0.00996
 O456 O 0.01793 0.05535 -0.03968
 Zr457 Zr 0.02293 0.03661 -0.01939
 O458 O 0.00923 0.01868 -0.03469
 Zr459 Zr -0.00809 0.03376 0.01079
 O460 O -0.02319 0.01566 -0.00337
 Zr461 Zr 0.02602 0.00492 0.01141
 O462 O 0.01257 -0.01438 -0.00264
 Zr463 Zr -0.01812 0.02014 -0.02921
 O464 O -0.00462 0.03979 -0.01513
 Zr465 Zr 0.01656 -0.00821 -0.02838
 O466 O 0.03170 0.00972 -0.01432
 Zr467 Zr -0.01494 -0.01148 0.00134
 O468 O -0.00129 0.00647 0.01711
 O469 O 0.01906 0.03191 0.00636
 O470 O -0.01082 -0.00692 -0.02433
 C471 C 0.05718 0.03134 0.00140
 C472 C 0.01197 0.07005 0.00175
 C473 C 0.01560 0.02801 0.04235
 C474 C -0.04857 -0.00732 -0.02110
 C475 C -0.00863 -0.00513 -0.05890
 C476 C -0.00375 -0.04420 -0.02102
 H477 H 0.01170 0.02182 -0.04669
 H478 H 0.01683 -0.02677 0.00052
 H479 H 0.02594 0.04040 0.01314
 H480 H -0.03594 0.01738 -0.00069
 H481 H -0.03598 0.04989 -0.02531
 H482 H -0.03847 0.04819 0.00339
 H483 H 0.03899 -0.03291 -0.01792
 H484 H 0.05309 -0.01334 0.00071
 H485 H -0.02659 0.03857 -0.05644
 H486 H 0.02659 0.06549 -0.03935
 H487 H -0.00233 -0.03857 0.01939
 H488 H 0.01551 -0.01663 0.03570
 H489 H 0.04922 0.02553 -0.03785
 H490 H 0.03432 0.00417 -0.05459
 H491 H -0.02624 0.01883 0.03533
 H492 H -0.04198 -0.00323 0.02024
 O493 O 0.04699 0.51238 0.48426
 O494 O 0.03808 0.51112 0.45611
 O495 O 0.00637 0.54336 0.50835
 O496 O -0.02310 0.54226 0.51204
 O497 O 0.02393 0.49207 0.53080
 O498 O 0.01793 0.46092 0.52520
 O499 O -0.05103 0.50103 0.47083
 O500 O -0.04216 0.53144 0.47361
 O501 O -0.01186 0.47352 0.44536
 O502 O 0.02031 0.47008 0.44764
 O503 O -0.03180 0.45169 0.49079
 O504 O -0.02676 0.45738 0.52065
 O505 O -0.05185 0.47969 0.49226
 O506 O -0.04230 0.47954 0.52221
 O507 O -0.01264 0.44889 0.46859
 O508 O 0.02067 0.45126 0.46663
 O509 O -0.03012 0.49823 0.44711
 O510 O -0.01980 0.52992 0.45148
 O511 O 0.04597 0.48982 0.50462
 O512 O 0.03532 0.45878 0.50443
 O513 O 0.00582 0.51692 0.53254
 O514 O -0.02678 0.51919 0.52904
 O515 O 0.02586 0.54064 0.48635
 O516 O 0.01801 0.53469 0.45685
 Zr517 Zr 0.02034 0.51483 0.47670
 O518 O 0.00125 0.50125 0.46263
 Zr519 Zr -0.00745 0.51845 0.50941
 O520 O -0.02783 0.50547 0.49653
 Zr521 Zr 0.01912 0.48225 0.50672
 O522 O -0.00018 0.46748 0.49408
 Zr523 Zr -0.02430 0.50936 0.47042
 O524 O -0.00520 0.52450 0.48338
 Zr525 Zr 0.00223 0.47309 0.46806
 O526 O 0.02283 0.48637 0.48061
 Zr527 Zr -0.02561 0.47713 0.50068
 O528 O -0.00633 0.49024 0.51509
 O529 O 0.01798 0.51032 0.50259
 O530 O -0.02337 0.48120 0.47472
 C531 C 0.05430 0.50181 0.49539
 C532 C 0.01894 0.54945 0.49858
 C533 C 0.01740 0.50569 0.53864
 C534 C -0.05914 0.48918 0.48038
 C535 C -0.02399 0.48427 0.43954
 C536 C -0.02533 0.44304 0.47828
 H537 H 0.00322 0.50411 0.45050
 H538 H 0.00126 0.45433 0.49689
 H539 H 0.02713 0.51682 0.50885
 H540 H -0.03952 0.51022 0.50023
 H541 H -0.03486 0.54215 0.47622
 H542 H -0.03344 0.54099 0.50467
 H543 H 0.01861 0.44301 0.47653
 H544 H 0.04031 0.45919 0.49282
 H545 H -0.03070 0.53113 0.44471
 H546 H 0.02876 0.54247 0.45660
 H547 H -0.01720 0.44835 0.51869
 H548 H 0.00681 0.46281 0.53175
 H549 H 0.04162 0.49809 0.45642
 H550 H 0.02038 0.48168 0.44096
 H551 H -0.02568 0.50757 0.53563
 H552 H -0.04887 0.49123 0.52107
 O553 O 0.44926 -0.04795 0.51195
 O554 O 0.45071 -0.04409 0.54085
 O555 O 0.41566 -0.00461 0.49429
 O556 O 0.41459 0.02596 0.49642
 O557 O 0.46485 -0.01447 0.46853
 O558 O 0.49501 -0.00861 0.47391
 O559 O 0.45573 0.04878 0.53979
 O560 O 0.42666 0.03872 0.53677
 O561 O 0.48611 0.00568 0.55768
 O562 O 0.49096 -0.02595 0.55026
 O563 O 0.50382 0.03567 0.51524
 O564 O 0.49632 0.03632 0.48525
 O565 O 0.47579 0.05469 0.51861
 O566 O 0.47403 0.05124 0.48732
 O567 O 0.50857 0.01240 0.53421
 O568 O 0.50797 -0.02169 0.53080
 O569 O 0.46126 0.02328 0.55987
 O570 O 0.43058 0.01203 0.55493
 O571 O 0.46952 -0.04205 0.49087
 O572 O 0.49922 -0.02954 0.49181
 O573 O 0.43986 0.00301 0.47011
 O574 O 0.43587 0.03464 0.47920
 O575 O 0.42038 -0.02794 0.51327
 O576 O 0.42707 -0.02474 0.54361
 Zr577 Zr 0.44553 -0.02259 0.52318
 O578 O 0.45876 -0.00546 0.53963
 Zr579 Zr 0.43882 0.01133 0.49530
 O580 O 0.45123 0.03007 0.51091
 Zr581 Zr 0.47545 -0.01409 0.49274
 O582 O 0.48962 0.00380 0.50768
 Zr583 Zr 0.44918 0.02132 0.53627
 O584 O 0.43454 0.00387 0.52087
 Zr585 Zr 0.48583 -0.00397 0.53310
 O586 O 0.47307 -0.02301 0.51803
 Zr587 Zr 0.47863 0.03020 0.50559
 O588 O 0.46600 0.01277 0.48876
 O589 O 0.44838 -0.01518 0.49781
 O590 O 0.47634 0.02268 0.53096
 C591 C 0.45919 -0.05281 0.49954
 C592 C 0.41099 -0.01948 0.50215
 C593 C 0.45112 -0.00679 0.46201
 C594 C 0.46662 0.05934 0.53162
 C595 C 0.47559 0.01623 0.56580
 C596 C 0.51322 0.02721 0.52634
 H597 H 0.45682 -0.00996 0.55137
 H598 H 0.50229 0.00357 0.50422
 H599 H 0.44233 -0.02361 0.49030
 H600 H 0.44584 0.04232 0.50930
 H601 H 0.41646 0.03133 0.53330
 H602 H 0.41600 0.03541 0.50491
 H603 H 0.51541 -0.01713 0.52122
 H604 H 0.49962 -0.03697 0.50241
 H605 H 0.42941 0.02159 0.56345
 H606 H 0.41984 -0.03587 0.54236
 H607 H 0.50567 0.02680 0.48527
 H608 H 0.49266 0.00392 0.46950
 H609 H 0.46361 -0.04669 0.54010
 H610 H 0.48020 -0.02780 0.55739
 H611 H 0.44705 0.03588 0.47255
 H612 H 0.46273 0.05738 0.49030
 O613 O 0.45721 0.49007 -0.01972
 O614 O 0.45777 0.52117 -0.01573
 O615 O 0.50450 0.48061 -0.04971
 O616 O 0.53358 0.48573 -0.04771
 O617 O 0.49279 0.44537 -0.00700
 O618 O 0.49527 0.44795 0.02252
 O619 O 0.54697 0.52948 -0.00423
 O620 O 0.53887 0.52959 -0.03226
 O621 O 0.50120 0.54048 0.02421
 O622 O 0.47091 0.52857 0.02529
 O623 O 0.53286 0.49643 0.03853
 O624 O 0.53750 0.46579 0.02920
 O625 O 0.55302 0.50550 0.01369
 O626 O 0.55270 0.47137 0.00867
 O627 O 0.50789 0.51314 0.04344
 O628 O 0.47534 0.50582 0.03947
 O629 O 0.52058 0.54751 0.00278
 O630 O 0.51146 0.54582 -0.02736
 O631 O 0.46331 0.46574 -0.00220
 O632 O 0.47294 0.46421 0.02678
 O633 O 0.51164 0.45246 -0.02887
 O634 O 0.54162 0.46623 -0.02868
 O635 O 0.47876 0.49633 -0.04532
 O636 O 0.47846 0.52899 -0.03602
 Zr637 Zr 0.48080 0.50525 -0.02026
 O638 O 0.49422 0.52325 -0.00460
 Zr639 Zr 0.51712 0.48032 -0.02637
 O640 O 0.53223 0.49766 -0.01172
 Zr641 Zr 0.48963 0.46999 0.00566
 O642 O 0.50402 0.48630 0.02197
 Zr643 Zr 0.52110 0.52400 -0.01185
 O644 O 0.50742 0.50728 -0.02863
 Zr645 Zr 0.49420 0.51315 0.02043
 O646 O 0.47864 0.49642 0.00523
 Zr647 Zr 0.53056 0.48847 0.01352
 O648 O 0.51673 0.46998 -0.00138
 O649 O 0.49048 0.47864 -0.01940
 O650 O 0.52081 0.51506 0.01330
 C651 C 0.45290 0.47510 -0.01187
 C652 C 0.48947 0.48699 -0.05456
 C653 C 0.50202 0.44121 -0.02011
 C654 C 0.55706 0.52068 0.00606
 C655 C 0.51204 0.55134 0.01637
 C656 C 0.52276 0.50599 0.04801
 H657 H 0.48884 0.53557 -0.00552
 H658 H 0.50311 0.48101 0.03353
 H659 H 0.48370 0.47039 -0.02651
 H660 H 0.54460 0.49794 -0.01608
 H661 H 0.53256 0.52651 -0.04263
 H662 H 0.54059 0.49666 -0.04526
 H663 H 0.48020 0.49530 0.04602
 H664 H 0.46469 0.47470 0.02774
 H665 H 0.51994 0.55607 -0.02678
 H666 H 0.46877 0.52708 -0.04408
 H667 H 0.52703 0.46276 0.03639
 H668 H 0.50799 0.44495 0.02082
 H669 H 0.45464 0.51927 -0.00367
 H670 H 0.46942 0.53746 0.01580
 H671 H 0.54215 0.45724 -0.01915
 H672 H 0.55969 0.47701 -0.00075
 O673 O 0.78418 0.23594 0.46861
 O674 O 0.77704 0.20555 0.47377
 O675 O 0.73516 0.26099 0.45342
 O676 O 0.70736 0.26268 0.46359
 O677 O 0.76644 0.28655 0.49048
 O678 O 0.77152 0.28095 0.51940
 O679 O 0.69545 0.21901 0.51036
 O680 O 0.69514 0.22000 0.48134
 O681 O 0.74299 0.19305 0.52457
 O682 O 0.77418 0.19691 0.51684
 O683 O 0.72837 0.24167 0.54640
 O684 O 0.72977 0.27380 0.53818
 O685 O 0.70070 0.24170 0.52858
 O686 O 0.70863 0.27485 0.52311
 O687 O 0.74863 0.21871 0.54441
 O688 O 0.77962 0.21829 0.53127
 O689 O 0.71751 0.19368 0.50960
 O690 O 0.71770 0.19706 0.47814
 O691 O 0.78953 0.25874 0.48674
 O692 O 0.78909 0.25896 0.51738
 O693 O 0.74118 0.28715 0.47514
 O694 O 0.70993 0.28142 0.48374
 O695 O 0.75543 0.23807 0.45075
 O696 O 0.75042 0.20549 0.46040
 Zr697 Zr 0.75847 0.22723 0.47552
 O698 O 0.74571 0.21147 0.49476
 Zr699 Zr 0.72966 0.26133 0.47940
 O700 O 0.71522 0.24671 0.49815
 Zr701 Zr 0.76640 0.26037 0.50208
 O702 O 0.75334 0.24638 0.52219
 Zr703 Zr 0.71870 0.21848 0.49549
 O704 O 0.73108 0.23312 0.47512
 Zr705 Zr 0.75517 0.21819 0.51850
 O706 O 0.76971 0.23216 0.49911
 Zr707 Zr 0.72594 0.25206 0.52169
 O708 O 0.73943 0.26815 0.50304
 O709 O 0.75658 0.25527 0.47848
 O710 O 0.72809 0.22396 0.51932
 C711 C 0.79406 0.24837 0.47455
 C712 C 0.74579 0.25118 0.44466
 C713 C 0.75530 0.29453 0.48061
 C714 C 0.69099 0.22907 0.52273
 C715 C 0.72822 0.18611 0.52017
 C716 C 0.73778 0.22867 0.55282
 H717 H 0.74731 0.19834 0.49259
 H718 H 0.75865 0.24982 0.53292
 H719 H 0.76298 0.26240 0.46953
 H720 H 0.70253 0.25015 0.49748
 H721 H 0.69880 0.22288 0.46954
 H722 H 0.69859 0.25392 0.46840
 H723 H 0.77950 0.22882 0.53877
 H724 H 0.79439 0.24670 0.51595
 H725 H 0.70750 0.18913 0.48141
 H726 H 0.75769 0.20578 0.44987
 H727 H 0.74198 0.27273 0.54251
 H728 H 0.76000 0.28705 0.52164
 H729 H 0.78400 0.20550 0.48423
 H730 H 0.77093 0.18930 0.50730
 H731 H 0.71421 0.28901 0.49292
 H732 H 0.69834 0.27259 0.51588
 O733 O 0.80451 0.76716 -0.02299
 O734 O 0.80008 0.73616 -0.02289
 O735 O 0.75582 0.79014 -0.04182
 O736 O 0.72709 0.79016 -0.03476
 O737 O 0.77982 0.81143 0.00285
 O738 O 0.78081 0.80221 0.03098
 O739 O 0.71294 0.73690 0.00223
 O740 O 0.71753 0.74202 -0.02600
 O741 O 0.76061 0.71292 0.02063
 O742 O 0.79091 0.72018 0.01959
 O743 O 0.73765 0.75752 0.04651
 O744 O 0.73481 0.78865 0.04232
 O745 O 0.71281 0.75555 0.02465
 O746 O 0.71780 0.79099 0.02282
 O747 O 0.75870 0.73529 0.04429
 O748 O 0.79194 0.74045 0.03640
 O749 O 0.73701 0.71396 0.00315
 O750 O 0.74248 0.72202 -0.02801
 O751 O 0.80509 0.78633 -0.00095
 O752 O 0.79915 0.78102 0.02972
 O753 O 0.75789 0.81335 -0.01649
 O754 O 0.72541 0.80415 -0.01212
 O755 O 0.77852 0.76975 -0.04445
 O756 O 0.77570 0.73571 -0.03946
 Zr757 Zr 0.77922 0.75548 -0.02085
 O758 O 0.76549 0.73592 -0.00568
 Zr759 Zr 0.74722 0.78657 -0.01677
 O760 O 0.73139 0.76766 -0.00286
 Zr761 Zr 0.77976 0.78405 0.01086
 O762 O 0.76466 0.76655 0.02680
 Zr763 Zr 0.73823 0.74054 -0.00831
 O764 O 0.75187 0.75953 -0.02447
 Zr765 Zr 0.77009 0.73966 0.02002
 O766 O 0.78618 0.75717 0.00472
 Zr767 Zr 0.73725 0.77001 0.02261
 O768 O 0.75237 0.78989 0.00885
 O769 O 0.77432 0.78237 -0.01454
 O770 O 0.74282 0.74297 0.01727
 C771 C 0.81224 0.77882 -0.01388
 C772 C 0.76837 0.78260 -0.05024
 C773 C 0.77046 0.82031 -0.00793
 C774 C 0.70566 0.74348 0.01542
 C775 C 0.74711 0.70571 0.01393
 C776 C 0.74649 0.74389 0.05240
 H777 H 0.76884 0.72348 -0.00910
 H778 H 0.76772 0.76879 0.03861
 H779 H 0.78133 0.79111 -0.02164
 H780 H 0.71871 0.77009 -0.00515
 H781 H 0.72272 0.74745 -0.03651
 H782 H 0.72066 0.77846 -0.03490
 H783 H 0.78855 0.74813 0.04598
 H784 H 0.80670 0.77047 0.02669
 H785 H 0.73316 0.71254 -0.02695
 H786 H 0.78411 0.73837 -0.04895
 H787 H 0.74696 0.79092 0.04627
 H788 H 0.76868 0.80728 0.03237
 H789 H 0.80549 0.73497 -0.01165
 H790 H 0.79178 0.71569 0.00799
 H791 H 0.72855 0.81160 -0.00241
 H792 H 0.70787 0.78728 0.01570
 O793 O 1.01800 0.19440 0.23217
 O794 O 0.98718 0.19805 0.23906
 O795 O 1.03117 0.24251 0.20353
 O796 O 1.03151 0.27254 0.20659
 O797 O 1.06375 0.22484 0.24667
 O798 O 1.05908 0.22692 0.27679
 O799 O 0.98848 0.29032 0.25107
 O800 O 0.99031 0.28393 0.22217
 O801 O 0.97005 0.24435 0.27662
 O802 O 0.97919 0.21079 0.27649
 O803 O 1.01541 0.27005 0.29280
 O804 O 1.04749 0.26962 0.28358
 O805 O 1.01214 0.29276 0.26835
 O806 O 1.04434 0.28826 0.26485
 O807 O 0.99568 0.24687 0.29659
 O808 O 0.99854 0.21416 0.29359
 O809 O 0.96743 0.26518 0.25499
 O810 O 0.97083 0.25786 0.22499
 O811 O 1.04078 0.19711 0.25046
 O812 O 1.04163 0.20487 0.27938
 O813 O 1.05952 0.24433 0.22425
 O814 O 1.05099 0.27654 0.22554
 O815 O 1.01253 0.21844 0.20803
 O816 O 0.98190 0.21955 0.21817
 Zr817 Zr 1.00481 0.21990 0.23338
 O818 O 0.98813 0.23606 0.24850
 Zr819 Zr 1.03349 0.25403 0.22742
 O820 O 1.01823 0.27139 0.24255
 Zr821 Zr 1.03871 0.22393 0.25912
 O822 O 1.02329 0.23981 0.27567
 Zr823 Zr 0.99151 0.26380 0.24179
 O824 O 1.00651 0.24758 0.22520
 Zr825 Zr 0.99614 0.23366 0.27357
 O826 O 1.01189 0.21602 0.25873
 Zr827 Zr 1.02516 0.26738 0.26794
 O828 O 1.04214 0.25167 0.25248
 O829 O 1.03162 0.22653 0.23402
 O830 O 0.99828 0.26125 0.26705
 C831 C 1.03180 0.18814 0.23987
 C832 C 1.02236 0.22874 0.19853
 C833 C 1.06918 0.23356 0.23326
 C834 C 0.99803 0.29907 0.26141
 C835 C 0.96143 0.25667 0.26815
 C836 C 1.00385 0.26096 0.30164
 H837 H 0.97565 0.23232 0.24717
 H838 H 1.02742 0.23777 0.28731
 H839 H 1.03900 0.21905 0.22642
 H840 H 1.01982 0.28420 0.23860
 H841 H 0.99321 0.27767 0.21159
 H842 H 1.02294 0.28214 0.20979
 H843 H 1.01051 0.21544 0.29831
 H844 H 1.03008 0.19857 0.28079
 H845 H 0.96210 0.26803 0.22524
 H846 H 0.98266 0.20885 0.21081
 H847 H 1.04680 0.25974 0.29231
 H848 H 1.06401 0.23930 0.27479
 H849 H 0.99049 0.19276 0.25019
 H850 H 0.96989 0.21197 0.26788
 H851 H 1.05875 0.27571 0.23547
 H852 H 1.04199 0.29485 0.25407
 O853 O 0.75475 1.05976 0.71598
 O854 O 0.78437 1.05090 0.71776
 O855 O 0.72722 1.01093 0.70474
 O856 O 0.72588 0.98201 0.71580
 O857 O 0.70722 1.04421 0.74378
 O858 O 0.71495 1.04864 0.77205
 O859 O 0.77204 0.96826 0.75779
 O860 O 0.76751 0.96744 0.72892
 O861 O 0.79967 1.01626 0.76668
 O862 O 0.79610 1.04849 0.75838
 O863 O 0.75473 1.00409 0.79542
 O864 O 0.72224 1.00659 0.79058
 O865 O 0.75224 0.97490 0.77871
 O866 O 0.72021 0.98365 0.77756
 O867 O 0.77746 1.02362 0.78937
 O868 O 0.77755 1.05491 0.77573
 O869 O 0.79651 0.98954 0.75323
 O870 O 0.79037 0.98938 0.72215
 O871 O 0.73526 1.06650 0.73720
 O872 O 0.73630 1.06582 0.76755
 O873 O 0.70403 1.01817 0.72927
 O874 O 0.70890 0.98607 0.73792
 O875 O 0.75036 1.03011 0.69905
 O876 O 0.78203 1.02359 0.70473
 Zr877 Zr 0.76275 1.03296 0.72230
 O878 O 0.77929 1.01916 0.73960
 Zr879 Zr 0.72897 1.00504 0.73085
 O880 O 0.74430 0.98966 0.74827
 Zr881 Zr 0.73337 1.04267 0.75260
 O882 O 0.74848 1.02900 0.77111
 Zr883 Zr 0.77142 0.99178 0.74203
 O884 O 0.75591 1.00510 0.72325
 Zr885 Zr 0.77532 1.02972 0.76359
 O886 O 0.76039 1.04502 0.74597
 Zr887 Zr 0.74203 1.00108 0.77218
 O888 O 0.72511 1.01532 0.75513
 O889 O 0.73583 1.03238 0.72866
 O890 O 0.76890 1.00216 0.76606
 C891 C 0.74431 1.07071 0.72376
 C892 C 0.73673 1.02109 0.69468
 C893 C 0.69809 1.03325 0.73511
 C894 C 0.76379 0.96440 0.77173
 C895 C 0.80517 1.00050 0.76235
 C896 C 0.76835 1.01338 0.79954
 H897 H 0.79181 1.02011 0.73575
 H898 H 0.74641 1.03481 0.78204
 H899 H 0.72849 1.03937 0.72048
 H900 H 0.74053 0.97676 0.74847
 H901 H 0.76374 0.97118 0.71744
 H902 H 0.73356 0.97225 0.72056
 H903 H 0.76805 1.05547 0.78444
 H904 H 0.74835 1.07064 0.76512
 H905 H 0.79796 0.97862 0.72481
 H906 H 0.78145 1.03136 0.69431
 H907 H 0.72470 1.01875 0.79506
 H908 H 0.70878 1.03706 0.77501
 H909 H 0.78519 1.05858 0.72775
 H910 H 0.80292 1.04418 0.74851
 H911 H 0.70331 0.99047 0.74842
 H912 H 0.72070 0.97365 0.76948
 O913 O 0.75979 0.43018 0.25141
 O914 O 0.75574 0.43356 0.22173
 O915 O 0.78137 0.48024 0.26624
 O916 O 0.77487 0.51017 0.26247
 O917 O 0.73644 0.45800 0.29288
 O918 O 0.70467 0.45766 0.28658
 O919 O 0.72981 0.52356 0.22024
 O920 O 0.76089 0.52035 0.22375
 O921 O 0.71126 0.47556 0.20200
 O922 O 0.71582 0.44186 0.21110
 O923 O 0.68642 0.49841 0.24222
 O924 O 0.69233 0.49788 0.27372
 O925 O 0.70910 0.52372 0.24149
 O926 O 0.70932 0.51893 0.27185
 O927 O 0.68754 0.47439 0.22479
 O928 O 0.69555 0.44246 0.22814
 O929 O 0.73107 0.49883 0.20044
 O930 O 0.76305 0.49459 0.20540
 O931 O 0.73757 0.43054 0.27125
 O932 O 0.70656 0.43525 0.27086
 O933 O 0.75590 0.48160 0.29008
 O934 O 0.75262 0.51262 0.28063
 O935 O 0.78239 0.45720 0.24764
 O936 O 0.77501 0.45734 0.21785
 Zr937 Zr 0.75657 0.45562 0.23833
 O938 O 0.74024 0.46999 0.22107
 Zr939 Zr 0.75496 0.48995 0.26480
 O940 O 0.73816 0.50539 0.24901
 Zr941 Zr 0.72551 0.45636 0.26850
 O942 O 0.70758 0.47006 0.25227
 Zr943 Zr 0.74288 0.49826 0.22400
 O944 O 0.76103 0.48401 0.23968
 Zr945 Zr 0.71359 0.46451 0.22693
 O946 O 0.72988 0.44877 0.24339
 Zr947 Zr 0.71147 0.49826 0.25389
 O948 O 0.72821 0.48461 0.27137
 O949 O 0.75207 0.46191 0.26341
 O950 O 0.71617 0.49258 0.22873
 C951 C 0.75075 0.42285 0.26377
 C952 C 0.78955 0.46752 0.25834
 C953 C 0.74784 0.46912 0.29875
 C954 C 0.71699 0.53099 0.22857
 C955 C 0.71894 0.48909 0.19415
 C956 C 0.67960 0.48807 0.23124
 H957 H 0.74342 0.46662 0.20944
 H958 H 0.69528 0.46654 0.25537
 H959 H 0.76008 0.45520 0.27119
 H960 H 0.74030 0.51853 0.25055
 H961 H 0.77255 0.51520 0.22704
 H962 H 0.77022 0.52018 0.25515
 H963 H 0.68894 0.44308 0.23897
 H964 H 0.70655 0.42920 0.25988
 H965 H 0.76230 0.50491 0.19707
 H966 H 0.78422 0.44773 0.21945
 H967 H 0.68414 0.48763 0.27199
 H968 H 0.70508 0.47000 0.29128
 H969 H 0.74435 0.42717 0.22391
 H970 H 0.72498 0.44470 0.20236
 H971 H 0.74107 0.51146 0.28667
 H972 H 0.71991 0.52679 0.27045
 O973 O 0.53839 0.23437 0.74198
 O974 O 0.53521 0.23698 0.77120
 O975 O 0.49616 0.19817 0.72951
 O976 O 0.46650 0.19719 0.73333
 O977 O 0.50435 0.24778 0.70027
 O978 O 0.49677 0.27954 0.70545
 O979 O 0.44468 0.24074 0.77571
 O980 O 0.45481 0.21028 0.77254
 O981 O 0.48556 0.27194 0.79071
 O982 O 0.51743 0.27615 0.78066
 O983 O 0.45588 0.28916 0.75027
 O984 O 0.45604 0.28142 0.71935
 O985 O 0.43787 0.25985 0.75357
 O986 O 0.44071 0.25934 0.72315
 O987 O 0.47910 0.29459 0.76730
 O988 O 0.51147 0.29470 0.76222
 O989 O 0.46941 0.24591 0.79406
 O990 O 0.48088 0.21482 0.78944
 O991 O 0.53128 0.25461 0.72077
 O992 O 0.51874 0.28426 0.72056
 O993 O 0.48787 0.22207 0.70457
 O994 O 0.45784 0.21811 0.71506
 O995 O 0.51956 0.20423 0.74620
 O996 O 0.51766 0.21203 0.77608
 Zr997 Zr 0.51411 0.23037 0.75520
 O998 O 0.49728 0.24369 0.77244
 Zr999 Zr 0.48042 0.22207 0.73003
 O1000 O 0.46227 0.23531 0.74600
 Zr1001 Zr 0.50406 0.25993 0.72417
 O1002 O 0.48721 0.27482 0.74028
 Zr1003 Zr 0.47134 0.23356 0.77077
 O1004 O 0.48860 0.21852 0.75506
 Zr1005 Zr 0.49520 0.27136 0.76547
 O1006 O 0.51343 0.25848 0.74903
 Zr1007 Zr 0.46171 0.26347 0.73996
 O1008 O 0.47815 0.24978 0.72247
 O1009 O 0.50605 0.23229 0.73029
 O1010 O 0.46947 0.26138 0.76493
 C1011 C 0.54237 0.24455 0.72897
 C1012 C 0.51091 0.19382 0.73659
 C1013 C 0.49698 0.23315 0.69517
 C1014 C 0.43397 0.25121 0.76739
 C1015 C 0.47559 0.26084 0.79944
 C1016 C 0.46417 0.29896 0.76075
 H1017 H 0.50183 0.24186 0.78397
 H1018 H 0.48716 0.28782 0.73660
 H1019 H 0.51422 0.22585 0.72256
 H1020 H 0.45041 0.22972 0.74517
 H1021 H 0.46227 0.19976 0.76928
 H1022 H 0.45659 0.19932 0.74135
 H1023 H 0.50761 0.30142 0.75193
 H1024 H 0.52488 0.28623 0.73127
 H1025 H 0.47151 0.21330 0.79829
 H1026 H 0.52890 0.20512 0.77441
 H1027 H 0.46398 0.29208 0.71993
 H1028 H 0.48508 0.27577 0.70127
 H1029 H 0.53755 0.25018 0.76941
 H1030 H 0.51802 0.26623 0.78936
 H1031 H 0.45602 0.22954 0.70836
 H1032 H 0.43645 0.24669 0.72508
 O1033 O 0.23711 0.72422 0.54572
 O1034 O 0.23865 0.75394 0.53658
 O1035 O 0.21697 0.69617 0.50293
 O1036 O 0.22509 0.69085 0.47661
 O1037 O 0.26190 0.67459 0.53083
 O1038 O 0.29230 0.68104 0.53048
 O1039 O 0.26793 0.73984 0.45649
 O1040 O 0.23778 0.73580 0.45936
 O1041 O 0.28602 0.76771 0.49715
 O1042 O 0.28358 0.76467 0.52726
 O1043 O 0.31168 0.71887 0.48335
 O1044 O 0.30624 0.68759 0.48669
 O1045 O 0.28949 0.71822 0.45986
 O1046 O 0.28608 0.68420 0.47019
 O1047 O 0.31001 0.74361 0.49991
 O1048 O 0.30124 0.74420 0.53126
 O1049 O 0.26616 0.76567 0.47605
 O1050 O 0.23374 0.75882 0.48003
 O1051 O 0.25976 0.70400 0.55020
 O1052 O 0.29192 0.70441 0.54459
 O1053 O 0.24240 0.67119 0.50960
 O1054 O 0.24838 0.67520 0.47802
 O1055 O 0.21465 0.71980 0.52077
 O1056 O 0.22173 0.75247 0.51333
 Zr1057 Zr 0.24023 0.73171 0.52021
 O1058 O 0.25730 0.74777 0.50472
 Zr1059 Zr 0.24373 0.69609 0.49540
 O1060 O 0.25963 0.71131 0.47805
 Zr1061 Zr 0.27218 0.70082 0.52638
 O1062 O 0.29012 0.71483 0.51008
 Zr1063 Zr 0.25483 0.73949 0.47988
 O1064 O 0.23673 0.72408 0.49517
 Zr1065 Zr 0.28408 0.74276 0.51051
 O1066 O 0.26690 0.72885 0.52778
 Zr1067 Zr 0.28618 0.70781 0.48490
 O1068 O 0.27038 0.69141 0.50164
 O1069 O 0.24563 0.70388 0.52021
 O1070 O 0.28154 0.73579 0.48551
 C1071 C 0.24649 0.71370 0.55527
 C1072 C 0.20812 0.70632 0.51294
 C1073 C 0.25048 0.66538 0.52291
 C1074 C 0.28137 0.73071 0.45115
 C1075 C 0.27804 0.77420 0.48417
 C1076 C 0.31829 0.73313 0.48967
 H1077 H 0.25403 0.76078 0.50581
 H1078 H 0.30240 0.71218 0.51363
 H1079 H 0.23755 0.69700 0.52799
 H1080 H 0.25751 0.70733 0.46648
 H1081 H 0.22622 0.73177 0.46424
 H1082 H 0.22599 0.70112 0.46831
 H1083 H 0.31065 0.73486 0.52995
 H1084 H 0.29004 0.71671 0.54913
 H1085 H 0.23498 0.76673 0.46975
 H1086 H 0.21148 0.75190 0.52133
 H1087 H 0.31030 0.68729 0.49847
 H1088 H 0.29333 0.67409 0.52001
 H1089 H 0.25060 0.75530 0.54136
 H1090 H 0.27214 0.77117 0.52578
 H1091 H 0.25815 0.66749 0.48251
 H1092 H 0.27875 0.68683 0.46019
 O1093 O 0.29991 0.26252 0.99612
 O1094 O 0.29737 0.23133 0.99795
 O1095 O 0.25176 0.27986 0.97133
 O1096 O 0.22279 0.28039 0.97635
 O1097 O 0.26989 0.30710 1.01681
 O1098 O 0.26896 0.29976 1.04536
 O1099 O 0.20879 0.22726 1.01535
 O1100 O 0.21492 0.23187 0.98735
 O1101 O 0.25433 0.20881 1.03921
 O1102 O 0.28417 0.21732 1.04029
 O1103 O 0.22570 0.25207 1.05910
 O1104 O 0.22264 0.28287 1.05418
 O1105 O 0.20394 0.24961 1.03422
 O1106 O 0.20871 0.28492 1.03249
 O1107 O 0.24985 0.23348 1.06135
 O1108 O 0.28313 0.23920 1.05526
 O1109 O 0.23488 0.20641 1.01782
 O1110 O 0.24169 0.21410 0.98740
 O1111 O 0.29717 0.28374 1.01636
 O1112 O 0.28853 0.27970 1.04686
 O1113 O 0.25092 0.30584 0.99488
 O1114 O 0.21853 0.29535 0.99759
 O1115 O 0.27665 0.26214 0.97248
 O1116 O 0.27518 0.22822 0.97917
 Zr1117 Zr 0.27538 0.24942 0.99676
 O1118 O 0.26130 0.23015 1.01182
 Zr1119 Zr 0.24144 0.27860 0.99589
 O1120 O 0.22534 0.25969 1.00936
 Zr1121 Zr 0.27097 0.28026 1.02635
 O1122 O 0.25515 0.26293 1.04193
 Zr1123 Zr 0.23436 0.23275 1.00625
 O1124 O 0.24848 0.25144 0.99030
 Zr1125 Zr 0.26279 0.23595 1.03754
 O1126 O 0.27946 0.25337 1.02265
 Zr1127 Zr 0.22823 0.26417 1.03503
 O1128 O 0.24364 0.28407 1.02156
 O1129 O 0.26832 0.27639 1.00078
 O1130 O 0.23587 0.23714 1.03199
 C1131 C 0.30597 0.27561 1.00467
 C1132 C 0.26594 0.27321 0.96480
 C1133 C 0.26171 0.31436 1.00428
 C1134 C 0.19902 0.23565 1.02597
 C1135 C 0.24351 0.19978 1.03045
 C1136 C 0.23556 0.24075 1.06727
 H1137 H 0.26578 0.21776 1.00945
 H1138 H 0.25669 0.26619 1.05380
 H1139 H 0.27549 0.28503 0.99372
 H1140 H 0.21292 0.26119 1.00568
 H1141 H 0.22043 0.23727 0.97698
 H1142 H 0.21749 0.26812 0.97574
 H1143 H 0.27888 0.24806 1.06359
 H1144 H 0.29718 0.26974 1.04489
 H1145 H 0.23290 0.20406 0.98776
 H1146 H 0.28440 0.23084 0.97038
 H1147 H 0.23419 0.28674 1.05855
 H1148 H 0.25637 0.30369 1.04574
 H1149 H 0.30151 0.23125 1.00971
 H1150 H 0.28674 0.21237 1.02907
 H1151 H 0.22061 0.30408 1.00661
 H1152 H 0.20014 0.28105 1.02401
 C1153 C 0.30938 0.35487 0.82066
 C1154 C 0.29440 0.36457 0.82592
 C1155 C 0.28606 0.37882 0.81513
 N1156 N 0.27094 0.38724 0.82037
 N1157 N 0.26371 0.40071 0.81109
 C1158 C 0.27137 0.40632 0.79623
 N1159 N 0.28646 0.39787 0.79098
 N1160 N 0.29365 0.38436 0.80022
 C1161 C 0.26427 0.42199 0.78635
 C1162 C 0.24849 0.43085 0.79078
 H1163 H 0.28891 0.36205 0.83845
 H1164 H 0.27221 0.42726 0.77582
 H1165 H 0.31450 0.35706 0.80794
 H1166 H 0.24040 0.42534 0.80109
 C1167 C 0.30512 -0.15984 0.31111
 C1168 C 0.31183 -0.15079 0.29665
 C1169 C 0.30349 -0.13409 0.28950
 N1170 N 0.31000 -0.12640 0.27494
 N1171 N 0.30294 -0.11105 0.26854
 C1172 C 0.28910 -0.10275 0.27646
 N1173 N 0.28256 -0.11045 0.29101
 N1174 N 0.28960 -0.12584 0.29739
 C1175 C 0.28176 -0.08525 0.26998
 C1176 C 0.28802 -0.07688 0.25505
 H1177 H 0.32363 -0.15595 0.29038
 H1178 H 0.27186 -0.07839 0.27759
 H1179 H 0.29305 -0.15475 0.31697
 H1180 H 0.29786 -0.08386 0.24747
 C1181 C 0.81584 0.85871 0.80334
 C1182 C 0.80224 0.86974 0.80966
 C1183 C 0.79660 0.88672 0.80061
 N1184 N 0.78332 0.89725 0.80695
 N1185 N 0.77830 0.91263 0.79889
 C1186 C 0.78637 0.91806 0.78416
 N1187 N 0.79961 0.90753 0.77784
 N1188 N 0.80462 0.89219 0.78588
 C1189 C 0.78128 0.93512 0.77503
 C1190 C 0.76791 0.94689 0.78062
 H1191 H 0.79569 0.86596 0.82148
 H1192 H 0.78862 0.93865 0.76356
 H1193 H 0.82224 0.86267 0.79149
 H1194 H 0.76063 0.94349 0.79215
 C1195 C 0.47407 0.91626 0.31050
 C1196 C 0.47062 0.90868 0.29501
 C1197 C 0.47963 0.89197 0.28955
 N1198 N 0.47481 0.88423 0.27504
 N1199 N 0.48206 0.86850 0.27043
 C1200 C 0.49443 0.85995 0.28015
 N1201 N 0.49941 0.86780 0.29456
 N1202 N 0.49214 0.88352 0.29918
 C1203 C 0.50163 0.84197 0.27580
 C1204 C 0.49539 0.83262 0.26211
 H1205 H 0.46038 0.91447 0.28703
 H1206 H 0.51110 0.83549 0.28420
 H1207 H 0.48449 0.91041 0.31823
 H1208 H 0.48578 0.83911 0.25387
 C1209 C -0.05396 0.90389 0.81509
 C1210 C -0.05735 0.89641 0.79957
 C1211 C -0.04533 0.88340 0.79160
 N1212 N -0.04930 0.87710 0.77626
 N1213 N -0.03886 0.86486 0.76895
 C1214 C -0.02405 0.85851 0.77671
 N1215 N -0.02000 0.86491 0.79202
 N1216 N -0.03044 0.87718 0.79933
 C1217 C -0.01322 0.84403 0.76937
 C1218 C -0.01789 0.83601 0.75441
 H1219 H -0.06926 0.90029 0.79287
 H1220 H -0.00226 0.83856 0.77663
 H1221 H -0.04183 0.90051 0.82164
 H1222 H -0.02884 0.84152 0.74716
 C1223 C -0.04935 -0.14394 -0.06319
 C1224 C -0.03510 -0.13225 -0.06635
 C1225 C -0.03160 -0.11702 -0.05521
 N1226 N -0.01630 -0.10747 -0.05701
 N1227 N -0.01315 -0.09348 -0.04719
 C1228 C -0.02517 -0.08845 -0.03522
 N1229 N -0.04050 -0.09797 -0.03344
 N1230 N -0.04362 -0.11204 -0.04321
 C1231 C -0.02215 -0.07227 -0.02508
 C1232 C -0.00613 -0.06297 -0.02641
 H1233 H -0.02624 -0.13434 -0.07700
 H1234 H -0.03304 -0.06682 -0.01767
 H1235 H -0.05752 -0.14198 -0.05203
 H1236 H 0.00456 -0.06866 -0.03392
 C1237 C -0.05272 0.33667 0.43361
 C1238 C -0.05881 0.34737 0.44678
 C1239 C -0.05026 0.36463 0.45083
 N1240 N -0.05672 0.37457 0.46370
 N1241 N -0.04934 0.39042 0.46732
 C1242 C -0.03523 0.39692 0.45817
 N1243 N -0.02874 0.38696 0.44531
 N1244 N -0.03612 0.37111 0.44170
 C1245 C -0.02709 0.41450 0.46182
 C1246 C -0.03316 0.42522 0.47493
 H1247 H -0.07038 0.34324 0.45420
 H1248 H -0.01611 0.41916 0.45385
 H1249 H -0.04102 0.34089 0.42643
 H1250 H -0.04408 0.42051 0.48295
 C1251 C 0.45566 -0.15721 0.44439
 C1252 C 0.45142 -0.15017 0.46012
 C1253 C 0.45640 -0.13190 0.46537
 N1254 N 0.45075 -0.12628 0.48065
 N1255 N 0.45407 -0.10945 0.48550
 C1256 C 0.46318 -0.09756 0.47525
 N1257 N 0.46903 -0.10322 0.46000
 N1258 N 0.46567 -0.12011 0.45511
 C1259 C 0.46605 -0.07866 0.48028
 C1260 C 0.45810 -0.07199 0.49486
 H1261 H 0.44324 -0.15807 0.46898
 H1262 H 0.47379 -0.06966 0.47200
 H1263 H 0.46438 -0.14965 0.43577
 H1264 H 0.45001 -0.08098 0.50284
 C1265 C 0.45610 0.33597 -0.04633
 C1266 C 0.47104 0.34588 -0.05159
 C1267 C 0.47729 0.36136 -0.04205
 N1268 N 0.48997 0.37254 -0.04880
 N1269 N 0.49459 0.38758 -0.04100
 C1270 C 0.48670 0.39195 -0.02615
 N1271 N 0.47426 0.38059 -0.01924
 N1272 N 0.46962 0.36558 -0.02706
 C1273 C 0.49037 0.40932 -0.01822
 C1274 C 0.50109 0.42252 -0.02610
 H1275 H 0.47737 0.34334 -0.06364
 H1276 H 0.48331 0.41234 -0.00664
 H1277 H 0.45003 0.33861 -0.03418
 H1278 H 0.50818 0.41945 -0.03766
 C1279 C 0.80321 0.40193 0.45046
 C1280 C 0.78759 0.39211 0.44873
 C1281 C 0.78384 0.37482 0.45776
 N1282 N 0.76847 0.36609 0.45470
 N1283 N 0.76514 0.34976 0.46174
 C1284 C 0.77708 0.34149 0.47208
 N1285 N 0.79242 0.35029 0.47531
 N1286 N 0.79577 0.36668 0.46825
 C1287 C 0.77376 0.32305 0.47916
 C1288 C 0.75878 0.31332 0.47471
 H1289 H 0.77793 0.39676 0.43958
 H1290 H 0.78346 0.31686 0.48750
 H1291 H 0.81262 0.39803 0.46009
 H1292 H 0.74923 0.31961 0.46627
 C1293 C 0.79433 0.92980 -0.05351
 C1294 C 0.80213 0.91798 -0.04171
 C1295 C 0.79324 0.90073 -0.03660
 N1296 N 0.80004 0.88978 -0.02423
 N1297 N 0.79230 0.87394 -0.02000
 C1298 C 0.77751 0.86842 -0.02800
 N1299 N 0.77073 0.87936 -0.04037
 N1300 N 0.77842 0.89521 -0.04455
 C1301 C 0.76937 0.85053 -0.02399
 C1302 C 0.77550 0.83951 -0.01076
 H1303 H 0.81498 0.92104 -0.03659
 H1304 H 0.75904 0.84565 -0.03202
 H1305 H 0.78124 0.92649 -0.05796
 H1306 H 0.78570 0.84472 -0.00276
 C1307 C 0.79980 0.27470 0.34688
 C1308 C 0.78500 0.28195 0.35510
 C1309 C 0.77750 0.27262 0.37035
 N1310 N 0.76433 0.28054 0.37948
 N1311 N 0.75845 0.27268 0.39387
 C1312 C 0.76553 0.25661 0.39965
 N1313 N 0.77852 0.24862 0.39042
 N1314 N 0.78437 0.25645 0.37606
 C1315 C 0.76043 0.24848 0.41621
 C1316 C 0.74768 0.25635 0.42666
 H1317 H 0.77968 0.29509 0.35107
 H1318 H 0.76795 0.23677 0.42080
 H1319 H 0.80511 0.26172 0.35137
 H1320 H 0.74001 0.26791 0.42195
 C1321 C 0.81611 0.81257 -0.15042
 C1322 C 0.80236 0.81957 -0.14053
 C1323 C 0.79770 0.81048 -0.12419
 N1324 N 0.78379 0.81643 -0.11473
 N1325 N 0.77976 0.80822 -0.09995
 C1326 C 0.78951 0.79375 -0.09408
 N1327 N 0.80339 0.78784 -0.10353
 N1328 N 0.80738 0.79602 -0.11827
 C1329 C 0.78564 0.78474 -0.07761
 C1330 C 0.77136 0.78997 -0.06749
 H1331 H 0.79509 0.83163 -0.14468
 H1332 H 0.79457 0.77407 -0.07317
 H1333 H 0.82282 0.80030 -0.14588
 H1334 H 0.76245 0.80061 -0.07202
 C1335 C 0.29332 0.47071 0.91358
 C1336 C 0.27743 0.46496 0.90675
 C1337 C 0.27005 0.47340 0.89141
 N1338 N 0.25585 0.46571 0.88415
 N1339 N 0.24970 0.47243 0.86961
 C1340 C 0.25752 0.48713 0.86185
 N1341 N 0.27156 0.49497 0.86924
 N1342 N 0.27774 0.48823 0.88375
 C1343 C 0.25185 0.49391 0.84524
 C1344 C 0.23912 0.48504 0.83594
 H1345 H 0.27073 0.45306 0.91213
 H1346 H 0.25891 0.50549 0.83967
 H1347 H 0.30005 0.48263 0.90828
 H1348 H 0.23196 0.47351 0.84147
 C1349 C 0.28774 -0.06832 0.39107
 C1350 C 0.29566 -0.05366 0.38236
 C1351 C 0.29139 -0.04899 0.36480
 N1352 N 0.30083 -0.03592 0.35626
 N1353 N 0.29745 -0.03186 0.34018
 C1354 C 0.28449 -0.04073 0.33207
 N1355 N 0.27497 -0.05374 0.34063
 N1356 N 0.27839 -0.05783 0.35670
 C1357 C 0.28060 -0.03635 0.31436
 C1358 C 0.29077 -0.02390 0.30484
 H1359 H 0.30593 -0.04592 0.38827
 H1360 H 0.26943 -0.04301 0.30875
 H1361 H 0.27778 -0.07632 0.38500
 H1362 H 0.30210 -0.01751 0.31043
 C1363 C -0.06739 -0.04980 -0.14437
 C1364 C -0.05074 -0.05154 -0.13707
 C1365 C -0.04533 -0.04022 -0.12316
 N1366 N -0.02875 -0.04213 -0.11697
 N1367 N -0.02365 -0.03219 -0.10419
 C1368 C -0.03492 -0.01995 -0.09716
 N1369 N -0.05150 -0.01798 -0.10339
 N1370 N -0.05661 -0.02792 -0.11620
 C1371 C -0.02966 -0.00964 -0.08250
 C1372 C -0.01311 -0.01235 -0.07527
 H1373 H -0.04120 -0.06137 -0.14174
 H1374 H -0.03935 -0.00075 -0.07668
 H1375 H -0.07672 -0.03976 -0.13970
 H1376 H -0.00358 -0.02146 -0.08105
 C1377 C -0.05597 0.43547 0.34277
 C1378 C -0.06129 0.44958 0.35318
 C1379 C -0.05195 0.45378 0.36870
 N1380 N -0.05746 0.46807 0.37793
 N1381 N -0.04939 0.47194 0.39216
 C1382 C -0.03550 0.46165 0.39772
 N1383 N -0.02998 0.44734 0.38849
 N1384 N -0.03804 0.44348 0.37423
 C1385 C -0.02671 0.46563 0.41361
 C1386 C -0.03177 0.48049 0.42317
 H1387 H -0.07279 0.45786 0.35000
 H1388 H -0.01624 0.45655 0.41795
 H1389 H -0.04426 0.42751 0.34594
 H1390 H -0.04216 0.48959 0.41867
 C1391 C 0.46170 -0.04439 0.35660
 C1392 C 0.45052 -0.03261 0.36534
 C1393 C 0.45319 -0.02883 0.38317
 N1394 N 0.44126 -0.01842 0.39161
 N1395 N 0.44329 -0.01536 0.40792
 C1396 C 0.45732 -0.02262 0.41634
 N1397 N 0.46927 -0.03296 0.40788
 N1398 N 0.46723 -0.03603 0.39161
 C1399 C 0.45981 -0.01964 0.43431
 C1400 C 0.44796 -0.00956 0.44405
 H1401 H 0.43906 -0.02662 0.35921
 H1402 H 0.47147 -0.02570 0.44005
 H1403 H 0.47301 -0.05056 0.36284
 H1404 H 0.43627 -0.00346 0.43840
 C1405 C 0.42882 0.44868 -0.14253
 C1406 C 0.44522 0.44578 -0.13492
 C1407 C 0.45086 0.45619 -0.12031
 N1408 N 0.46765 0.45424 -0.11458
 N1409 N 0.47286 0.46316 -0.10117
 C1410 C 0.46148 0.47437 -0.09290
 N1411 N 0.44467 0.47633 -0.09862
 N1412 N 0.43947 0.46746 -0.11210
 C1413 C 0.46687 0.48346 -0.07744
 C1414 C 0.48423 0.48212 -0.07164
 H1415 H 0.45434 0.43567 -0.13981
 H1416 H 0.45681 0.49028 -0.06999
 H1417 H 0.42017 0.45932 -0.13784
 H1418 H 0.49414 0.47530 -0.07927
 C1419 C 0.44942 0.79616 0.40257
 C1420 C 0.46197 0.80397 0.39150
 C1421 C 0.46606 0.79637 0.37492
 N1422 N 0.47901 0.80401 0.36502
 N1423 N 0.48289 0.79734 0.34998
 C1424 C 0.47394 0.78278 0.34425
 N1425 N 0.46095 0.77516 0.35414
 N1426 N 0.45709 0.78182 0.36920
 C1427 C 0.47815 0.77531 0.32762
 C1428 C 0.49206 0.78222 0.31759
 H1429 H 0.46911 0.81600 0.39509
 H1430 H 0.47025 0.76415 0.32326
 H1431 H 0.44247 0.78399 0.39905
 H1432 H 0.50002 0.79325 0.32216
 C1433 C -0.04107 0.82150 0.88690
 C1434 C -0.04541 0.80739 0.87626
 C1435 C -0.03605 0.80431 0.86012
 N1436 N -0.04056 0.78983 0.85088
 N1437 N -0.03246 0.78681 0.83620
 C1438 C -0.01952 0.79817 0.83011
 N1439 N -0.01500 0.81270 0.83933
 N1440 N -0.02310 0.81571 0.85407
 C1441 C -0.01072 0.79502 0.81366
 C1442 C -0.01498 0.77996 0.80419
 H1443 H -0.05608 0.79812 0.87982
 H1444 H -0.00107 0.80482 0.80882
 H1445 H -0.03021 0.83052 0.88333
 H1446 H -0.02468 0.77029 0.80922
 C1447 C 0.35354 0.79570 0.31360
 C1448 C 0.36295 0.80334 0.29987
 C1449 C 0.38034 0.79601 0.29444
 N1450 N 0.38927 0.80386 0.28114
 N1451 N 0.40511 0.79747 0.27631
 C1452 C 0.41260 0.78297 0.28461
 N1453 N 0.40366 0.77512 0.29787
 N1454 N 0.38784 0.78150 0.30269
 C1455 C 0.43019 0.77579 0.27977
 C1456 C 0.44035 0.78305 0.26635
 H1457 H 0.35762 0.81512 0.29309
 H1458 H 0.43540 0.76446 0.28727
 H1459 H 0.35896 0.78391 0.32031
 H1460 H 0.43519 0.79434 0.25877
 C1461 C -0.14205 0.80725 0.80453
 C1462 C -0.13383 0.81197 0.78922
 C1463 C -0.11805 0.80196 0.78319
 N1464 N -0.11050 0.80649 0.76805
 N1465 N -0.09589 0.79792 0.76275
 C1466 C -0.08827 0.78448 0.77239
 N1467 N -0.09587 0.77989 0.78750
 N1468 N -0.11050 0.78844 0.79278
 C1469 C -0.07148 0.77574 0.76713
 C1470 C -0.06308 0.78076 0.75199
 H1471 H -0.13882 0.82337 0.78167
 H1472 H -0.06503 0.76629 0.77584
 H1473 H -0.13710 0.79562 0.81180
 H1474 H -0.06961 0.79036 0.74347
 C1475 C 0.89888 0.29427 0.44143
 C1476 C 0.88829 0.27974 0.43689
 C1477 C 0.87152 0.27551 0.44601
 N1478 N 0.86102 0.26176 0.44100
 N1479 N 0.84568 0.25812 0.44900
 C1480 C 0.84028 0.26810 0.46231
 N1481 N 0.85081 0.28179 0.46734
 N1482 N 0.86612 0.28542 0.45935
 C1483 C 0.82323 0.26463 0.47112
 C1484 C 0.81157 0.25108 0.46635
 H1485 H 0.89211 0.27158 0.42627
 H1486 H 0.81962 0.27329 0.48146
 H1487 H 0.89484 0.30240 0.45200
 H1488 H 0.81519 0.24243 0.45601
 C1489 C 0.91167 0.80603 -0.07250
 C1490 C 0.90399 0.80847 -0.05659
 C1491 C 0.88739 0.79988 -0.05064
 N1492 N 0.88071 0.80412 -0.03528
 N1493 N 0.86529 0.79728 -0.02975
 C1494 C 0.85594 0.78591 -0.03939
 N1495 N 0.86268 0.78152 -0.05473
 N1496 N 0.87813 0.78841 -0.06028
 C1497 C 0.83855 0.77886 -0.03368
 C1498 C 0.83033 0.78450 -0.01880
 H1499 H 0.91005 0.81781 -0.04810
 H1500 H 0.83175 0.76962 -0.04174
 H1501 H 0.90610 0.79637 -0.08098
 H1502 H 0.83702 0.79400 -0.01090
 C1503 C -0.15678 -0.02799 -0.06162
 C1504 C -0.14575 -0.03578 -0.04936
 C1505 C -0.12789 -0.02841 -0.04627
 N1506 N -0.11764 -0.03602 -0.03402
 N1507 N -0.10154 -0.02944 -0.03111
 C1508 C -0.09503 -0.01499 -0.04035
 N1509 N -0.10526 -0.00740 -0.05262
 N1510 N -0.12136 -0.01397 -0.05552
 C1511 C -0.07724 -0.00747 -0.03726
 C1512 C -0.06636 -0.01454 -0.02457
 H1513 H -0.15025 -0.04747 -0.04182
 H1514 H -0.07266 0.00393 -0.04513
 H1515 H -0.15198 -0.01625 -0.06893
 H1516 H -0.07105 -0.02594 -0.01676
 C1517 C -0.15965 0.45451 0.43361
 C1518 C -0.15132 0.45419 0.44916
 C1519 C -0.13511 0.46448 0.45255
 N1520 N -0.12809 0.46323 0.46813
 N1521 N -0.11288 0.47146 0.47140
 C1522 C -0.10406 0.48130 0.45920
 N1523 N -0.11117 0.48274 0.44361
 N1524 N -0.12644 0.47449 0.44034
 C1525 C -0.08650 0.48917 0.46248
 C1526 C -0.07803 0.48552 0.47771
 H1527 H -0.15657 0.44552 0.45932
 H1528 H -0.07953 0.49647 0.45235
 H1529 H -0.15496 0.46363 0.42354
 H1530 H -0.08493 0.47764 0.48752
 C1531 C 0.32311 -0.06002 0.44027
 C1532 C 0.33048 -0.06497 0.45577
 C1533 C 0.34398 -0.05349 0.46349
 N1534 N 0.35193 -0.05916 0.47795
 N1535 N 0.36459 -0.04914 0.48465
 C1536 C 0.36972 -0.03306 0.47717
 N1537 N 0.36166 -0.02734 0.46281
 N1538 N 0.34904 -0.03735 0.45611
 C1539 C 0.38440 -0.02230 0.48376
 C1540 C 0.39421 -0.02819 0.49763
 H1541 H 0.32673 -0.07768 0.46214
 H1542 H 0.38832 -0.01002 0.47677
 H1543 H 0.32716 -0.04728 0.43414
 H1544 H 0.39035 -0.04056 0.50452
 C1545 C 0.34284 0.46146 -0.04961
 C1546 C 0.35359 0.45184 -0.03821
 C1547 C 0.37147 0.45851 -0.03424
 N1548 N 0.38227 0.44858 -0.02390
 N1549 N 0.39858 0.45443 -0.02062
 C1550 C 0.40466 0.47042 -0.02758
 N1551 N 0.39384 0.48033 -0.03784
 N1552 N 0.37759 0.47450 -0.04111
 C1553 C 0.42264 0.47719 -0.02446
 C1554 C 0.43488 0.46792 -0.01429
 H1555 H 0.34913 0.43902 -0.03251
 H1556 H 0.42640 0.49001 -0.03062
 H1557 H 0.34773 0.47418 -0.05520
 H1558 H 0.43121 0.45512 -0.00805
 C1559 C 0.38380 0.43813 0.81604
 C1560 C 0.37314 0.45267 0.82092
 C1561 C 0.35632 0.45701 0.81250
 N1562 N 0.34650 0.47157 0.81730
 N1563 N 0.33130 0.47570 0.80971
 C1564 C 0.32535 0.46543 0.79704
 N1565 N 0.33516 0.45085 0.79225
 N1566 N 0.35037 0.44673 0.79983
 C1567 C 0.30854 0.46984 0.78861
 C1568 C 0.29821 0.48474 0.79325
 H1569 H 0.37727 0.46120 0.83103
 H1570 H 0.30416 0.46112 0.77874
 H1571 H 0.37964 0.42973 0.80585
 H1572 H 0.30266 0.49330 0.80321
 C1573 C 0.42527 -0.04013 0.30629
 C1574 C 0.41833 -0.04733 0.29175
 C1575 C 0.40197 -0.03983 0.28432
 N1576 N 0.39400 -0.04841 0.27157
 N1577 N 0.37878 -0.04203 0.26530
 C1578 C 0.37105 -0.02682 0.27156
 N1579 N 0.37911 -0.01819 0.28417
 N1580 N 0.39426 -0.02457 0.29044
 C1581 C 0.35397 -0.01977 0.26548
 C1582 C 0.34400 -0.02816 0.25328
 H1583 H 0.42446 -0.05918 0.28622
 H1584 H 0.34880 -0.00767 0.27139
 H1585 H 0.41874 -0.02861 0.31201
 H1586 H 0.34911 -0.04013 0.24714
 C1587 C 0.08623 0.54977 0.68034
 C1588 C 0.09360 0.55457 0.69555
 C1589 C 0.10868 0.54458 0.70306
 N1590 N 0.11472 0.54944 0.71825
 N1591 N 0.12861 0.54091 0.72510
 C1592 C 0.13703 0.52717 0.71702
 N1593 N 0.13096 0.52225 0.70183
 N1594 N 0.11702 0.53077 0.69498
 C1595 C 0.15297 0.51831 0.72417
 C1596 C 0.15968 0.52360 0.73951
 H1597 H 0.08820 0.56608 0.70221
 H1598 H 0.16006 0.50832 0.71682
 H1599 H 0.09134 0.53798 0.67389
 H1600 H 0.15252 0.53373 0.74665
 C1601 C 0.11576 0.04712 0.17961
 C1602 C 0.12514 0.05315 0.19338
 C1603 C 0.14241 0.04477 0.19793
 N1604 N 0.15196 0.05129 0.21078
 N1605 N 0.16767 0.04393 0.21468
 C1606 C 0.17442 0.02975 0.20590
 N1607 N 0.16484 0.02321 0.19312
 N1608 N 0.14918 0.03057 0.18922
 C1609 C 0.19191 0.02157 0.20975
 C1610 C 0.20273 0.02803 0.22231
 H1611 H 0.12003 0.06432 0.20069
 H1612 H 0.19652 0.01038 0.20220
 H1613 H 0.12136 0.03602 0.17250
 H1614 H 0.19812 0.03931 0.22977
 C1615 C 0.65357 0.69015 0.17961
 C1616 C 0.64410 0.68538 0.19429
 C1617 C 0.63135 0.69808 0.20206
 N1618 N 0.62285 0.69327 0.21671
 N1619 N 0.61067 0.70428 0.22342
 C1620 C 0.60652 0.72052 0.21572
 N1621 N 0.61509 0.72537 0.20113
 N1622 N 0.62729 0.71439 0.19445
 C1623 C 0.59206 0.73215 0.22218
 C1624 C 0.58276 0.72776 0.23706
 H1625 H 0.64569 0.67187 0.19999
 H1626 H 0.58775 0.74361 0.21433
 H1627 H 0.65225 0.70384 0.17425
 H1628 H 0.58729 0.71645 0.24499
 C1629 C 0.17837 0.71776 0.71021
 C1630 C 0.16654 0.72943 0.70194
 C1631 C 0.14891 0.73343 0.70929
 N1632 N 0.13795 0.74557 0.70144
 N1633 N 0.12172 0.74873 0.70765
 C1634 C 0.11579 0.73983 0.72189
 N1635 N 0.12675 0.72770 0.72975
 N1636 N 0.14301 0.72458 0.72358
 C1637 C 0.09759 0.74269 0.72842
 C1638 C 0.08654 0.75591 0.72119
 H1639 H 0.16995 0.73516 0.68960
 H1640 H 0.09269 0.73396 0.73869
 H1641 H 0.17492 0.71241 0.72269
 H1642 H 0.09178 0.76479 0.71117
 C1643 C 0.57995 0.19435 0.54739
 C1644 C 0.59262 0.20584 0.55395
 C1645 C 0.61038 0.20798 0.54624
 N1646 N 0.62220 0.21946 0.55299
 N1647 N 0.63842 0.22141 0.54625
 C1648 C 0.64342 0.21189 0.53254
 N1649 N 0.63161 0.20040 0.52580
 N1650 N 0.61539 0.19847 0.53252
 C1651 C 0.66121 0.21398 0.52488
 C1652 C 0.67351 0.22625 0.53084
 H1653 H 0.58959 0.21325 0.56524
 H1654 H 0.66454 0.20590 0.51406
 H1655 H 0.58298 0.18702 0.53606
 H1656 H 0.67008 0.23445 0.54156
 C1657 C 0.60613 0.70096 0.06540
 C1658 C 0.61619 0.69873 0.05072
 C1659 C 0.63234 0.70945 0.04679
 N1660 N 0.64105 0.70717 0.03193
 N1661 N 0.65577 0.71652 0.02817
 C1662 C 0.66242 0.72853 0.03911
 N1663 N 0.65371 0.73084 0.05400
 N1664 N 0.63893 0.72150 0.05776
 C1665 C 0.67906 0.73851 0.03510
 C1666 C 0.68799 0.73609 0.01981
 H1667 H 0.61211 0.68882 0.04173
 H1668 H 0.68463 0.74721 0.04442
 H1669 H 0.61006 0.71109 0.07425
 H1670 H 0.68222 0.72720 0.01074
 C1671 C 0.16592 0.03612 0.04321
 C1672 C 0.15694 0.04437 0.02974
 C1673 C 0.13890 0.03901 0.02538
 N1674 N 0.12983 0.04892 0.01363
 N1675 N 0.11305 0.04491 0.01028
 C1676 C 0.10476 0.03084 0.01860
 N1677 N 0.11388 0.02083 0.03022
 N1678 N 0.13063 0.02486 0.03359
 C1679 C 0.08619 0.02641 0.01547
 C1680 C 0.07568 0.03649 0.00426
 H1681 H 0.16261 0.05608 0.02300
 H1682 H 0.08062 0.01477 0.02238
 H1683 H 0.16018 0.02431 0.04973
 H1684 H 0.08120 0.04807 -0.00278
 C1685 C 0.15189 0.51340 0.55455
 C1686 C 0.14630 0.51881 0.53849
 C1687 C 0.13018 0.51162 0.53098
 N1688 N 0.12412 0.51923 0.51638
 N1689 N 0.10892 0.51371 0.50991
 C1690 C 0.09927 0.50030 0.51780
 N1691 N 0.10546 0.49251 0.53227
 N1692 N 0.12062 0.49808 0.53876
 C1693 C 0.08179 0.49501 0.51168
 C1694 C 0.07333 0.50436 0.49848
 H1695 H 0.15331 0.52957 0.53156
 H1696 H 0.07471 0.48446 0.51884
 H1697 H 0.14488 0.50271 0.56157
 H1698 H 0.08033 0.51496 0.49131
 C1699 C 0.61988 0.04714 0.56921
 C1700 C 0.60953 0.05476 0.55637
 C1701 C 0.59183 0.04763 0.55276
 N1702 N 0.58190 0.05571 0.54052
 N1703 N 0.56584 0.04934 0.53715
 C1704 C 0.55915 0.03466 0.54590
 N1705 N 0.56909 0.02659 0.55812
 N1706 N 0.58512 0.03296 0.56150
 C1707 C 0.54158 0.02728 0.54230
 C1708 C 0.53056 0.03510 0.53012
 H1709 H 0.61437 0.06631 0.54884
 H1710 H 0.53726 0.01524 0.54945
 H1711 H 0.61474 0.03568 0.57669
 H1712 H 0.53476 0.04727 0.52311
 C1713 C 0.65776 0.54958 0.05522
 C1714 C 0.64797 0.55615 0.04160
 C1715 C 0.63228 0.54654 0.03578
 N1716 N 0.62221 0.55420 0.02345
 N1717 N 0.60756 0.54595 0.01850
 C1718 C 0.60249 0.52972 0.02571
 N1719 N 0.61265 0.52200 0.03794
 N1720 N 0.62728 0.53026 0.04290
 C1721 C 0.58602 0.52080 0.02095
 C1722 C 0.57435 0.52881 0.00945
 H1723 H 0.65145 0.56903 0.03541
 H1724 H 0.58267 0.50792 0.02722
 H1725 H 0.65417 0.53676 0.06147
 H1726 H 0.57767 0.54172 0.00322
 C1727 C 0.07085 0.04685 0.13881
 C1728 C 0.05541 0.05313 0.13098
 C1729 C 0.04956 0.04580 0.11493
 N1730 N 0.03481 0.05266 0.10739
 N1731 N 0.02967 0.04646 0.09265
 C1732 C 0.03910 0.03316 0.08490
 N1733 N 0.05378 0.02626 0.09248
 N1734 N 0.05892 0.03245 0.10720
 C1735 C 0.03405 0.02654 0.06836
 C1736 C 0.01945 0.03344 0.05961
 H1737 H 0.04760 0.06398 0.13646
 H1738 H 0.04249 0.01632 0.06268
 H1739 H 0.07842 0.03594 0.13315
 H1740 H 0.01098 0.04362 0.06529
 C1741 C 0.04201 0.55663 0.63583
 C1742 C 0.04777 0.54127 0.62735
 C1743 C 0.03976 0.53625 0.61137
 N1744 N 0.04596 0.52162 0.60296
 N1745 N 0.03905 0.51730 0.58828
 C1746 C 0.02567 0.52747 0.58148
 N1747 N 0.01944 0.54204 0.58993
 N1748 N 0.02634 0.54634 0.60459
 C1749 C 0.01817 0.52335 0.56509
 C1750 C 0.02413 0.50881 0.55557
 H1751 H 0.05862 0.53305 0.63224
 H1752 H 0.00790 0.53236 0.56022
 H1753 H 0.03118 0.56479 0.63079
 H1754 H 0.03432 0.49971 0.56047
 C1755 C 0.53866 0.03537 0.65741
 C1756 C 0.52218 0.04065 0.65101
 C1757 C 0.51489 0.03283 0.63581
 N1758 N 0.49928 0.03926 0.62968
 N1759 N 0.49294 0.03308 0.61540
 C1760 C 0.50200 0.02023 0.60672
 N1761 N 0.51753 0.01369 0.61292
 N1762 N 0.52388 0.01988 0.62721
 C1763 C 0.49575 0.01398 0.59048
 C1764 C 0.48040 0.02090 0.58299
 H1765 H 0.51469 0.05155 0.65676
 H1766 H 0.50395 0.00422 0.58390
 H1767 H 0.54586 0.02419 0.65179
 H1768 H 0.47207 0.03053 0.58961
 C1769 C 0.53707 0.54569 0.15196
 C1770 C 0.54605 0.53370 0.14149
 C1771 C 0.53891 0.52925 0.12490
 N1772 N 0.54847 0.51881 0.11418
 N1773 N 0.54234 0.51533 0.09896
 C1774 C 0.52642 0.52218 0.09388
 N1775 N 0.51683 0.53252 0.10463
 N1776 N 0.52296 0.53599 0.11982
 C1777 C 0.51958 0.51890 0.07695
 C1778 C 0.52904 0.50879 0.06520
 H1779 H 0.55887 0.52823 0.14509
 H1780 H 0.50689 0.52489 0.07359
 H1781 H 0.52445 0.55135 0.14797
 H1782 H 0.54171 0.50282 0.06864
 C1783 C 0.18758 0.52182 0.60448
 C1784 C 0.19978 0.53086 0.61425
 C1785 C 0.20266 0.52553 0.63207
 N1786 N 0.21449 0.53474 0.64128
 N1787 N 0.21698 0.53021 0.65746
 C1788 C 0.20771 0.51629 0.66504
 N1789 N 0.19592 0.50707 0.65582
 N1790 N 0.19344 0.51159 0.63966
 C1791 C 0.21001 0.51124 0.68299
 C1792 C 0.22183 0.52025 0.69319
 H1793 H 0.20718 0.54228 0.60883
 H1794 H 0.20193 0.50028 0.68835
 H1795 H 0.18024 0.51041 0.61002
 H1796 H 0.22990 0.53120 0.68780
 C1797 C 0.20949 0.03589 0.08559
 C1798 C 0.22356 0.04320 0.09435
 C1799 C 0.22895 0.03549 0.11083
 N1800 N 0.24267 0.04293 0.11904
 N1801 N 0.24729 0.03641 0.13419
 C1802 C 0.23834 0.02223 0.14169
 N1803 N 0.22466 0.01478 0.13346
 N1804 N 0.22006 0.02127 0.11831
 C1805 C 0.24290 0.01522 0.15863
 C1806 C 0.25695 0.02224 0.16755
 H1807 H 0.23048 0.05514 0.08933
 H1808 H 0.23474 0.00450 0.16431
 H1809 H 0.20293 0.02379 0.09074
 H1810 H 0.26522 0.03280 0.16175
 C1811 C 0.69631 0.22432 0.65898
 C1812 C 0.71033 0.21675 0.64978
 C1813 C 0.71387 0.22157 0.63195
 N1814 N 0.72702 0.21285 0.62345
 N1815 N 0.73023 0.21679 0.60721
 C1816 C 0.72040 0.22965 0.59889
 N1817 N 0.70731 0.23842 0.60742
 N1818 N 0.70408 0.23446 0.62365
 C1819 C 0.72346 0.23400 0.58091
 C1820 C 0.73588 0.22475 0.57104
 H1821 H 0.71883 0.20655 0.65570
 H1822 H 0.71525 0.24458 0.57517
 H1823 H 0.68767 0.23438 0.65306
 H1824 H 0.74398 0.21402 0.57667
 C1825 C 0.69485 0.67825 0.13285
 C1826 C 0.69832 0.69660 0.12951
 C1827 C 0.71039 0.70246 0.11574
 N1828 N 0.71339 0.72047 0.11278
 N1829 N 0.72398 0.72600 0.10008
 C1830 C 0.73203 0.71372 0.08995
 N1831 N 0.72922 0.69568 0.09306
 N1832 N 0.71861 0.69015 0.10575
 C1833 C 0.74229 0.71982 0.07496
 C1834 C 0.74176 0.73801 0.06959
 H1835 H 0.69237 0.70689 0.13735
 H1836 H 0.74829 0.70968 0.06697
 H1837 H 0.70113 0.66800 0.12518
 H1838 H 0.73487 0.74788 0.07725
 C1839 C 0.55569 0.68798 0.10350
 C1840 C 0.55977 0.70290 0.11316
 C1841 C 0.55047 0.70722 0.12897
 N1842 N 0.55506 0.72247 0.13704
 N1843 N 0.54726 0.72659 0.15157
 C1844 C 0.53454 0.71564 0.15868
 N1845 N 0.52987 0.70036 0.15059
 N1846 N 0.53768 0.69622 0.13597
 C1847 C 0.52646 0.72000 0.17515
 C1848 C 0.53188 0.73539 0.18355
 H1849 H 0.57041 0.71195 0.10903
 H1850 H 0.51686 0.71074 0.18097
 H1851 H 0.54480 0.67909 0.10728
 H1852 H 0.54166 0.74434 0.17755
 C1853 C 0.04404 0.70320 0.58633
 C1854 C 0.05167 0.71760 0.59467
 C1855 C 0.04423 0.72425 0.61056
 N1856 N 0.05271 0.73750 0.61882
 N1857 N 0.04668 0.74288 0.63374
 C1858 C 0.03194 0.73516 0.64093
 N1859 N 0.02338 0.72204 0.63260
 N1860 N 0.02940 0.71667 0.61770
 C1861 C 0.02561 0.74006 0.65777
 C1862 C 0.03392 0.75312 0.66729
 H1863 H 0.06402 0.72349 0.58998
 H1864 H 0.01435 0.73261 0.66306
 H1865 H 0.03162 0.69743 0.59096
 H1866 H 0.04488 0.76096 0.66192
 C1867 C 0.53339 0.59084 0.19542
 C1868 C 0.53959 0.59933 0.20962
 C1869 C 0.53267 0.61706 0.21495
 N1870 N 0.53990 0.62522 0.22830
 N1871 N 0.53449 0.64175 0.23273
 C1872 C 0.52164 0.65073 0.22396
 N1873 N 0.51429 0.64251 0.21070
 N1874 N 0.51970 0.62598 0.20627
 C1875 C 0.51629 0.66942 0.22803
 C1876 C 0.52426 0.67891 0.24081
 H1877 H 0.55049 0.59330 0.21660
 H1878 H 0.50649 0.67618 0.22016
 H1879 H 0.52237 0.59675 0.18854
 H1880 H 0.53399 0.67210 0.24872
 C1881 C 0.04528 0.60277 0.67808
 C1882 C 0.05308 0.61204 0.69110
 C1883 C 0.04660 0.63024 0.69583
 N1884 N 0.05464 0.63943 0.70815
 N1885 N 0.04904 0.65607 0.71217
 C1886 C 0.03521 0.66411 0.70399
 N1887 N 0.02717 0.65490 0.69172
 N1888 N 0.03275 0.63830 0.68772
 C1889 C 0.02891 0.68255 0.70796
 C1890 C 0.03640 0.69284 0.72047
 H1891 H 0.06438 0.60614 0.69757
 H1892 H 0.01804 0.68820 0.70069
 H1893 H 0.03407 0.60891 0.67165
 H1894 H 0.04717 0.68716 0.72785
 C1895 C 0.03785 0.17474 0.05019
 C1896 C 0.04257 0.16525 0.03581
 C1897 C 0.03393 0.14798 0.03161
 N1898 N 0.03814 0.13992 0.01693
 N1899 N 0.03072 0.12416 0.01306
 C1900 C 0.01878 0.11582 0.02370
 N1901 N 0.01453 0.12390 0.03839
 N1902 N 0.02193 0.13970 0.04225
 C1903 C 0.01122 0.09789 0.01984
 C1904 C 0.01575 0.08930 0.00495
 H1905 H 0.05277 0.17061 0.02728
 H1906 H 0.00297 0.09089 0.02925
 H1907 H 0.02732 0.16937 0.05834
 H1908 H 0.02419 0.09644 -0.00423
 C1909 C 0.04553 0.65446 0.54612
 C1910 C 0.05301 0.64380 0.53359
 C1911 C 0.04428 0.62696 0.52836
 N1912 N 0.05146 0.61695 0.51582
 N1913 N 0.04378 0.60152 0.51131
 C1914 C 0.02866 0.59552 0.51920
 N1915 N 0.02151 0.60553 0.53170
 N1916 N 0.02914 0.62094 0.53618
 C1917 C 0.02023 0.57824 0.51486
 C1918 C 0.02650 0.56748 0.50183
 H1919 H 0.06557 0.64767 0.52772
 H1920 H 0.00892 0.57370 0.52243
 H1921 H 0.03286 0.65055 0.55173
 H1922 H 0.03764 0.57215 0.49408
 C1923 C 0.52403 0.16166 0.54945
 C1924 C 0.50996 0.15285 0.55787
 C1925 C 0.50099 0.13734 0.55019
 N1926 N 0.48949 0.12667 0.55936
 N1927 N 0.48239 0.11191 0.55273
 C1928 C 0.48651 0.10735 0.53667
 N1929 N 0.49779 0.11816 0.52747
 N1930 N 0.50487 0.13285 0.53409
 C1931 C 0.48021 0.09038 0.52938
 C1932 C 0.46930 0.07781 0.53801
 H1933 H 0.50639 0.15645 0.57061
 H1934 H 0.48541 0.08715 0.51702
 H1935 H 0.52785 0.15738 0.53696
 H1936 H 0.46357 0.08112 0.55013
 C1937 C 0.56453 0.65160 0.05301
 C1938 C 0.54941 0.64117 0.05666
 C1939 C 0.54401 0.62576 0.04642
 N1940 N 0.52942 0.61593 0.05104
 N1941 N 0.52450 0.60168 0.04222
 C1942 C 0.53399 0.59672 0.02839
 N1943 N 0.54854 0.60661 0.02371
 N1944 N 0.55346 0.62087 0.03254
 C1945 C 0.52916 0.58051 0.01892
 C1946 C 0.51517 0.56908 0.02403
 H1947 H 0.54129 0.64417 0.06761
 H1948 H 0.53746 0.57694 0.00824
 H1949 H 0.57265 0.64869 0.04203
 H1950 H 0.50712 0.57252 0.03491
 C1951 C 0.66724 0.08913 0.55915
 C1952 C 0.68367 0.09701 0.56221
 C1953 C 0.68995 0.11320 0.55239
 N1954 N 0.70600 0.12059 0.55554
 N1955 N 0.71161 0.13541 0.54692
 C1956 C 0.70137 0.14340 0.53482
 N1957 N 0.68535 0.13599 0.53165
 N1958 N 0.67976 0.12118 0.54025
 C1959 C 0.70705 0.16010 0.52549
 C1960 C 0.72328 0.16846 0.52824
 H1961 H 0.69202 0.09143 0.57209
 H1962 H 0.69791 0.16624 0.51656
 H1963 H 0.65921 0.09488 0.54909
 H1964 H 0.73242 0.16228 0.53715
 C1965 C 0.69573 0.60322 0.05307
 C1966 C 0.71107 0.61307 0.05601
 C1967 C 0.71511 0.63013 0.04629
 N1968 N 0.73114 0.63824 0.04767
 N1969 N 0.73493 0.65353 0.03886
 C1970 C 0.72284 0.66135 0.02830
 N1971 N 0.70678 0.65328 0.02697
 N1972 N 0.70301 0.63796 0.03575
 C1973 C 0.72672 0.67866 0.01892
 C1974 C 0.74333 0.68684 0.01972
 H1975 H 0.72056 0.60790 0.06509
 H1976 H 0.71613 0.68552 0.01214
 H1977 H 0.68677 0.60824 0.04345
 H1978 H 0.75368 0.67984 0.02674
 C1979 C 0.22753 0.67454 0.71254
 C1980 C 0.21953 0.66543 0.72626
 C1981 C 0.22336 0.64618 0.73024
 N1982 N 0.21234 0.63669 0.74089
 N1983 N 0.21440 0.61876 0.74330
 C1984 C 0.22754 0.60968 0.73510
 N1985 N 0.23876 0.61921 0.72468
 N1986 N 0.23666 0.63714 0.72222
 C1987 C 0.22953 0.58983 0.73722
 C1988 C 0.21705 0.57938 0.74625
 H1989 H 0.20830 0.67160 0.73266
 H1990 H 0.24106 0.58337 0.73159
 H1991 H 0.23871 0.66834 0.70609
 H1992 H 0.20551 0.58591 0.75180
 C1993 C 0.23878 0.17377 0.22764
 C1994 C 0.25236 0.16393 0.21994
 C1995 C 0.25605 0.14488 0.22497
 N1996 N 0.26621 0.13444 0.21478
 N1997 N 0.26772 0.11655 0.21784
 C1998 C 0.25907 0.10846 0.23118
 N1999 N 0.24922 0.11895 0.24158
 N2000 N 0.24767 0.13684 0.23850
 C2001 C 0.25956 0.08860 0.23400
 C2002 C 0.26812 0.07713 0.22277
 H2003 H 0.25822 0.16901 0.20819
 H2004 H 0.25265 0.08288 0.24498
 H2005 H 0.23312 0.16884 0.23953
 H2006 H 0.27529 0.08288 0.21196
 C2007 C 0.70932 1.18557 0.70883
 C2008 C 0.72024 1.17382 0.69982
 C2009 C 0.72553 1.15597 0.70706
 N2010 N 0.73357 1.14345 0.69722
 N2011 N 0.73689 1.12665 0.70327
 C2012 C 0.73223 1.12179 0.71936
 N2013 N 0.72444 1.13437 0.72925
 N2014 N 0.72112 1.15114 0.72321
 C2015 C 0.73474 1.10312 0.72606
 C2016 C 0.74254 1.08936 0.71670
 H2017 H 0.72320 1.17674 0.68664
 H2018 H 0.73005 1.10010 0.73879
 H2019 H 0.70613 1.18238 0.72193
 H2020 H 0.74789 1.09241 0.70420
 C2021 C 0.67883 0.62850 0.17096
 C2022 C 0.67793 0.62213 0.18758
 C2023 C 0.68611 0.60453 0.19251
 N2024 N 0.68622 0.59897 0.20892
 N2025 N 0.69451 0.58358 0.21357
 C2026 C 0.70310 0.57326 0.20202
 N2027 N 0.70296 0.57881 0.18562
 N2028 N 0.69465 0.59417 0.18096
 C2029 C 0.71215 0.55618 0.20705
 C2030 C 0.71045 0.54910 0.22339
 H2031 H 0.67283 0.63088 0.19731
 H2032 H 0.71934 0.54859 0.19760
 H2033 H 0.68433 0.61974 0.16143
 H2034 H 0.70244 0.55634 0.23249
 C2035 C 0.53771 0.08495 0.69576
 C2036 C 0.54543 0.09695 0.70673
 C2037 C 0.53630 0.11394 0.71142
 N2038 N 0.54428 0.12579 0.72165
 N2039 N 0.53631 0.14143 0.72552
 C2040 C 0.52007 0.14581 0.71931
 N2041 N 0.51207 0.13393 0.70915
 N2042 N 0.52003 0.11830 0.70528
 C2043 C 0.51127 0.16323 0.72308
 C2044 C 0.51899 0.17593 0.73336
 H2045 H 0.55859 0.09419 0.71148
 H2046 H 0.49857 0.16623 0.71740
 H2047 H 0.52457 0.08793 0.69103
 H2048 H 0.53164 0.17280 0.73910
 C2049 C 1.06589 0.09043 0.18308
 C2050 C 1.07112 0.09906 0.19758
 C2051 C 1.06091 0.11464 0.20428
 N2052 N 1.06631 0.12295 0.21834
 N2053 N 1.05740 0.13727 0.22421
 C2054 C 1.04273 0.14383 0.21626
 N2055 N 1.03731 0.13547 0.20226
 N2056 N 1.04619 0.12115 0.19640
 C2057 C 1.03323 0.16025 0.22204
 C2058 C 1.03874 0.16988 0.23588
 H2059 H 1.08297 0.09451 0.20403
 H2060 H 1.02232 0.16549 0.21457
 H2061 H 1.05394 0.09508 0.17684
 H2062 H 1.04978 0.16466 0.24318
 C2063 C 0.19604 0.56171 0.55347
 C2064 C 0.20887 0.57290 0.56013
 C2065 C 0.21551 0.58908 0.55055
 N2066 N 0.22838 0.59957 0.55697
 N2067 N 0.23408 0.61448 0.54856
 C2068 C 0.22711 0.61948 0.53342
 N2069 N 0.21426 0.60897 0.52700
 N2070 N 0.20859 0.59406 0.53539
 C2071 C 0.23274 0.63632 0.52431
 C2072 C 0.24609 0.64731 0.53034
 H2073 H 0.21387 0.56998 0.57263
 H2074 H 0.22580 0.64045 0.51298
 H2075 H 0.19136 0.56467 0.54086
 H2076 H 0.25306 0.64297 0.54160
 C2077 C 0.20922 0.08403 1.04184
 C2078 C 0.22079 0.09550 1.04989
 C2079 C 0.22411 0.11420 1.04338
 N2080 N 0.23433 0.12561 1.05215
 N2081 N 0.23666 0.14285 1.04681
 C2082 C 0.22883 0.14932 1.03252
 N2083 N 0.21871 0.13787 1.02370
 N2084 N 0.21638 0.12064 1.02903
 C2085 C 0.23092 0.16846 1.02676
 C2086 C 0.24114 0.18054 1.03561
 H2087 H 0.22656 0.09119 1.06177
 H2088 H 0.22423 0.17310 1.01544
 H2089 H 0.20334 0.08857 1.03008
 H2090 H 0.24793 0.17570 1.04680
 C2091 C 0.22040 0.71296 0.66210
 C2092 C 0.23564 0.70516 0.65503
 C2093 C 0.23990 0.70587 0.63692
 N2094 N 0.22896 0.71415 0.62559
 N2095 N 0.23276 0.71380 0.60916
 C2096 C 0.24758 0.70510 0.60347
 N2097 N 0.25850 0.69689 0.61481
 N2098 N 0.25470 0.69725 0.63122
 C2099 C 0.25200 0.70448 0.58540
 C2100 C 0.24145 0.71296 0.57322
 H2101 H 0.24452 0.69722 0.66299
 H2102 H 0.26409 0.69753 0.58165
 H2103 H 0.21167 0.72137 0.65439
 H2104 H 0.22951 0.72016 0.57704
 C2105 C 0.22903 0.20832 1.17627
 C2106 C 0.21869 0.21801 1.16464
 C2107 C 0.22445 0.22041 1.14689
 N2108 N 0.21378 0.22925 1.13572
 N2109 N 0.21872 0.23124 1.11960
 C2110 C 0.23450 0.22441 1.11401
 N2111 N 0.24517 0.21557 1.12519
 N2112 N 0.24023 0.21358 1.14131
 C2113 C 0.24020 0.22679 1.09626
 C2114 C 0.22977 0.23635 1.08466
 H2115 H 0.20585 0.22342 1.16838
 H2116 H 0.25305 0.22148 1.09241
 H2117 H 0.24180 0.20301 1.17219
 H2118 H 0.21705 0.24180 1.08873
 C2119 C 0.70257 0.55541 0.09835
 C2120 C 0.69672 0.53895 0.10596
 C2121 C 0.70330 0.53131 0.12206
 N2122 N 0.69613 0.51564 0.12865
 N2123 N 0.70154 0.50857 0.14336
 C2124 C 0.71440 0.51694 0.15202
 N2125 N 0.72162 0.53258 0.14539
 N2126 N 0.71619 0.53965 0.13070
 C2127 C 0.72041 0.50973 0.16848
 C2128 C 0.71326 0.49429 0.17691
 H2129 H 0.68638 0.53131 0.10005
 H2130 H 0.73066 0.51744 0.17445
 H2131 H 0.71291 0.56319 0.10408
 H2132 H 0.70294 0.48651 0.17115
 C2133 C 0.67053 1.04307 0.60484
 C2134 C 0.68726 1.04793 0.61035
 C2135 C 0.69477 1.03958 0.62579
 N2136 N 0.71124 1.04425 0.63071
 N2137 N 0.71786 1.03730 0.64499
 C2138 C 0.70824 1.02541 0.65489
 N2139 N 0.69181 1.02067 0.64991
 N2140 N 0.68521 1.02759 0.63562
 C2141 C 0.71487 1.01864 0.67127
 C2142 C 0.73143 1.02373 0.67704
 H2143 H 0.69483 1.05831 0.60346
 H2144 H 0.70602 1.01067 0.67943
 H2145 H 0.66323 1.03244 0.61167
 H2146 H 0.74017 1.03173 0.66879
 C2147 C 0.53801 0.20574 0.59350
 C2148 C 0.52268 0.20259 0.60315
 C2149 C 0.51949 0.21176 0.61919
 N2150 N 0.50527 0.20702 0.62901
 N2151 N 0.50258 0.21468 0.64383
 C2152 C 0.51395 0.22742 0.64940
 N2153 N 0.52807 0.23233 0.63949
 N2154 N 0.53079 0.22463 0.62467
 C2155 C 0.51151 0.23520 0.66621
 C2156 C 0.49891 0.22797 0.67752
 H2157 H 0.51306 0.19273 0.59917
 H2158 H 0.52038 0.24581 0.67008
 H2159 H 0.54765 0.21546 0.59769
 H2160 H 0.49065 0.21685 0.67361
 C2161 C 1.04216 0.22342 0.08842
 C2162 C 1.03073 0.21514 0.10025
 C2163 C 1.02979 0.22124 0.11768
 N2164 N 1.02100 0.21101 0.12957
 N2165 N 1.02122 0.21555 0.14565
 C2166 C 1.03026 0.23046 0.15046
 N2167 N 1.03886 0.24084 0.13855
 N2168 N 1.03869 0.23627 0.12246
 C2169 C 1.03092 0.23526 0.16826
 C2170 C 1.02320 0.22406 0.18075
 H2171 H 1.02380 0.20275 0.09731
 H2172 H 1.03744 0.24777 0.17155
 H2173 H 1.04894 0.23582 0.09162
 H2174 H 1.01667 0.21161 0.17728
 C2175 C 0.65771 0.22514 0.70961
 C2176 C 0.64375 0.23402 0.70148
 C2177 C 0.62606 0.23542 0.70951
 N2178 N 0.61253 0.24355 0.70104
 N2179 N 0.59623 0.24394 0.70778
 C2180 C 0.59282 0.23615 0.72323
 N2181 N 0.60636 0.22810 0.73174
 N2182 N 0.62267 0.22774 0.72500
 C2183 C 0.57474 0.23598 0.73056
 C2184 C 0.56071 0.24473 0.72241
 H2185 H 0.64541 0.23885 0.68853
 H2186 H 0.57244 0.22880 0.74250
 H2187 H 0.65591 0.22036 0.72255
 H2188 H 0.56325 0.25225 0.71068
 C2189 C 1.18489 0.20962 0.22195
 C2190 C 1.17151 0.21753 0.21227
 C2191 C 1.15321 0.21921 0.21887
 N2192 N 1.14042 0.22677 0.20905
 N2193 N 1.12371 0.22782 0.21468
 C2194 C 1.11911 0.22128 0.23033
 N2195 N 1.13190 0.21372 0.24017
 N2196 N 1.14863 0.21269 0.23454
 C2197 C 1.10065 0.22236 0.23666
 C2198 C 1.08757 0.23121 0.22727
 H2199 H 1.17425 0.22174 0.19931
 H2200 H 1.09743 0.21652 0.24900
 H2201 H 1.18199 0.20541 0.23489
 H2202 H 1.09108 0.23741 0.21513
 C2203 C 0.09547 0.69804 0.54864
 C2204 C 0.10663 0.68888 0.53755
 C2205 C 0.12498 0.69504 0.53416
 N2206 N 0.13582 0.68550 0.52380
 N2207 N 0.15258 0.69066 0.52106
 C2208 C 0.15915 0.70556 0.52858
 N2209 N 0.14829 0.71514 0.53888
 N2210 N 0.13154 0.70998 0.54162
 C2211 C 0.17776 0.71119 0.52593
 C2212 C 0.18931 0.70159 0.51553
 H2213 H 0.10210 0.67661 0.53173
 H2214 H 0.18249 0.72296 0.53244
 H2215 H 0.10020 0.71023 0.55446
 H2216 H 0.18442 0.68990 0.50902
 C2217 C 0.08244 0.22259 1.04172
 C2218 C 0.09648 0.21186 1.03605
 C2219 C 0.11462 0.21927 1.03451
 N2220 N 0.12841 0.20817 1.03046
 N2221 N 0.14500 0.21439 1.03029
 C2222 C 0.14847 0.23191 1.03430
 N2223 N 0.13469 0.24303 1.03828
 N2224 N 0.11810 0.23682 1.03842
 C2225 C 0.16679 0.23891 1.03422
 C2226 C 0.18096 0.22848 1.02840
 H2227 H 0.09465 0.19731 1.03485
 H2228 H 0.16901 0.25278 1.03800
 H2229 H 0.08460 0.23702 1.04338
 H2230 H 0.17845 0.21494 1.02389
 C2231 C 0.58121 0.54580 0.19785
 C2232 C 0.59060 0.53020 0.19337
 C2233 C 0.60658 0.52430 0.20265
 N2234 N 0.61499 0.50847 0.19891
 N2235 N 0.62950 0.50319 0.20716
 C2236 C 0.63617 0.51354 0.21948
 N2237 N 0.62776 0.52935 0.22321
 N2238 N 0.61324 0.53460 0.21499
 C2239 C 0.65262 0.50831 0.22827
 C2240 C 0.66169 0.49216 0.22495
 H2241 H 0.58614 0.52217 0.18305
 H2242 H 0.65812 0.51781 0.23695
 H2243 H 0.58565 0.55342 0.20846
 H2244 H 0.65609 0.48275 0.21624
 C2245 C 0.58893 1.04243 0.69322
 C2246 C 0.59908 1.05175 0.70466
 C2247 C 0.61711 1.04560 0.70915
 N2248 N 0.62695 1.05546 0.71973
 N2249 N 0.64335 1.05015 0.72369
 C2250 C 0.65052 1.03476 0.71723
 N2251 N 0.64067 1.02488 0.70670
 N2252 N 0.62428 1.03019 0.70273
 C2253 C 0.66870 1.02878 0.72129
 C2254 C 0.67969 1.03880 0.73147
 H2255 H 0.59386 1.06402 0.71024
 H2256 H 0.67362 1.01630 0.71587
 H2257 H 0.59433 1.03028 0.68757
 H2258 H 0.67480 1.05137 0.73673
 C2259 C 0.89421 0.44540 0.30571
 C2260 C 0.88519 0.44185 0.29102
 C2261 C 0.86798 0.45021 0.28686
 N2262 N 0.85999 0.44568 0.27243
 N2263 N 0.84406 0.45238 0.26865
 C2264 C 0.83546 0.46389 0.27913
 N2265 N 0.84351 0.46858 0.29353
 N2266 N 0.85950 0.46186 0.29733
 C2267 C 0.81738 0.47043 0.27535
 C2268 C 0.80833 0.46377 0.26169
 H2269 H 0.89069 0.43214 0.28232
 H2270 H 0.81078 0.47962 0.28389
 H2271 H 0.88899 0.45537 0.31431
 H2272 H 0.81498 0.45418 0.25356
 C2273 C 0.88983 0.93688 0.81314
 C2274 C 0.88088 0.95334 0.81497
 C2275 C 0.86659 0.95897 0.80365
 N2276 N 0.86108 0.97659 0.80320
 N2277 N 0.84866 0.98215 0.79249
 C2278 C 0.84130 0.97031 0.78182
 N2279 N 0.84668 0.95263 0.78236
 N2280 N 0.85919 0.94707 0.79303
 C2281 C 0.82710 0.97630 0.77049
 C2282 C 0.82222 0.99460 0.76918
 H2283 H 0.88557 0.96313 0.82380
 H2284 H 0.81954 0.96606 0.76420
 H2285 H 0.88566 0.92749 0.80372
 H2286 H 0.82994 1.00470 0.77549
 C2287 C 0.35866 0.31159 0.82938
 C2288 C 0.36027 0.30675 0.81264
 C2289 C 0.37382 0.29354 0.80724
 N2290 N 0.37437 0.28814 0.79108
 N2291 N 0.38663 0.27623 0.78605
 C2292 C 0.39872 0.26920 0.79701
 N2293 N 0.39808 0.27451 0.81321
 N2294 N 0.38581 0.28640 0.81824
 C2295 C 0.41341 0.25755 0.79122
 C2296 C 0.41614 0.25458 0.77417
 H2297 H 0.35088 0.31200 0.80350
 H2298 H 0.42368 0.25376 0.80008
 H2299 H 0.36768 0.30572 0.83856
 H2300 H 0.40615 0.25911 0.76530
 C2301 C 0.85472 0.27770 0.31444
 C2302 C 0.86623 0.28511 0.30223
 C2303 C 0.88391 0.27731 0.29879
 N2304 N 0.89393 0.28448 0.28597
 N2305 N 0.90991 0.27761 0.28250
 C2306 C 0.91656 0.26331 0.29171
 N2307 N 0.90659 0.25617 0.30465
 N2308 N 0.89053 0.26303 0.30811
 C2309 C 0.93429 0.25575 0.28764
 C2310 C 0.94344 0.26215 0.27331
 H2311 H 0.86211 0.29693 0.29474
 H2312 H 0.94009 0.24532 0.29581
 H2313 H 0.85876 0.26575 0.32179
 H2314 H 0.93715 0.27239 0.26526
 C2315 C 0.41478 0.79359 0.45546
 C2316 C 0.40593 0.77771 0.45153
 C2317 C 0.39065 0.77109 0.46167
 N2318 N 0.38277 0.75517 0.45794
 N2319 N 0.36839 0.74948 0.46649
 C2320 C 0.36132 0.75951 0.47908
 N2321 N 0.36924 0.77540 0.48288
 N2322 N 0.38366 0.78107 0.47435
 C2323 C 0.34475 0.75393 0.48780
 C2324 C 0.33647 0.73763 0.48414
 H2325 H 0.40988 0.77029 0.44049
 H2326 H 0.33845 0.76327 0.49639
 H2327 H 0.41108 0.80065 0.46678
 H2328 H 0.34301 0.72833 0.47567
 C2329 C 0.40679 0.29593 0.94564
 C2330 C 0.39931 0.30089 0.96109
 C2331 C 0.38216 0.29400 0.96760
 N2332 N 0.37522 0.30053 0.98213
 N2333 N 0.35961 0.29463 0.98819
 C2334 C 0.35039 0.28191 0.97992
 N2335 N 0.35736 0.27534 0.96543
 N2336 N 0.37294 0.28127 0.95936
 C2337 C 0.33305 0.27525 0.98613
 C2338 C 0.32400 0.28210 1.00014
 H2339 H 0.40609 0.31062 0.96867
 H2340 H 0.32691 0.26478 0.97888
 H2341 H 0.39997 0.28645 0.93783
 H2342 H 0.32982 0.29281 1.00731
 C2343 C 0.79200 0.43424 0.39742
 C2344 C 0.79310 0.44888 0.38596
 C2345 C 0.78224 0.44965 0.37072
 N2346 N 0.78199 0.46506 0.36091
 N2347 N 0.77238 0.46590 0.34700
 C2348 C 0.76266 0.45137 0.34232
 N2349 N 0.76292 0.43592 0.35213
 N2350 N 0.77249 0.43510 0.36610
 C2351 C 0.75284 0.45207 0.32638
 C2352 C 0.75275 0.46804 0.31651
 H2353 H 0.80180 0.46021 0.38835
 H2354 H 0.74700 0.43973 0.32181
 H2355 H 0.78274 0.42334 0.39523
 H2356 H 0.75895 0.48011 0.32128
 C2357 C 0.79040 0.97729 0.90468
 C2358 C 0.79795 0.98933 0.89279
 C2359 C 0.78897 0.99372 0.87686
 N2360 N 0.79716 1.00439 0.86490
 N2361 N 0.78973 1.00732 0.84996
 C2362 C 0.77388 0.99966 0.84641
 N2363 N 0.76562 0.98914 0.85843
 N2364 N 0.77303 0.98623 0.87338
 C2365 C 0.76611 1.00188 0.82962
 C2366 C 0.77448 1.01232 0.81696
 H2367 H 0.81126 0.99439 0.89450
 H2368 H 0.75401 0.99464 0.82702
 H2369 H 0.77710 0.97226 0.90280
 H2370 H 0.78645 1.01970 0.81977
 C2371 C 0.30468 0.79344 0.35515
 C2372 C 0.31185 0.77830 0.36377
 C2373 C 0.30355 0.77046 0.37928
 N2374 N 0.31127 0.75607 0.38752
 N2375 N 0.30409 0.74912 0.40176
 C2376 C 0.28888 0.75632 0.40825
 N2377 N 0.28114 0.77065 0.39996
 N2378 N 0.28832 0.77759 0.38575
 C2379 C 0.28100 0.74947 0.42428
 C2380 C 0.28835 0.73528 0.43408
 H2381 H 0.32405 0.77216 0.35921
 H2382 H 0.26928 0.75651 0.42887
 H2383 H 0.29247 0.79955 0.35974
 H2384 H 0.30002 0.72811 0.42956
 C2385 C 0.32033 0.32543 0.87644
 C2386 C 0.30288 0.32326 0.88207
 C2387 C 0.29885 0.31319 0.89798
 N2388 N 0.28179 0.30928 0.90237
 N2389 N 0.27811 0.29922 0.91621
 C2390 C 0.29135 0.29257 0.92611
 N2391 N 0.30839 0.29652 0.92175
 N2392 N 0.31207 0.30658 0.90792
 C2393 C 0.28743 0.28187 0.94168
 C2394 C 0.27008 0.27952 0.94754
 H2395 H 0.29205 0.32705 0.87385
 H2396 H 0.29839 0.27716 0.94936
 H2397 H 0.33104 0.32087 0.88450
 H2398 H 0.25923 0.28511 0.94019
 C2399 C 0.45240 0.30559 0.90079
 C2400 C 0.44522 0.29311 0.88997
 C2401 C 0.45279 0.29026 0.87301
 N2402 N 0.44689 0.27629 0.86386
 N2403 N 0.45370 0.27336 0.84860
 C2404 C 0.46663 0.28432 0.84183
 N2405 N 0.47243 0.29843 0.85092
 N2406 N 0.46567 0.30131 0.86625
 C2407 C 0.47416 0.28099 0.82491
 C2408 C 0.47014 0.26501 0.81676
 H2409 H 0.43401 0.28485 0.89414
 H2410 H 0.48279 0.29108 0.81887
 H2411 H 0.46394 0.31340 0.89672
 H2412 H 0.46183 0.25495 0.82327
 C2413 C 0.94385 0.28609 0.39630
 C2414 C 0.95930 0.29175 0.38772
 C2415 C 0.96623 0.28299 0.37255
 N2416 N 0.98088 0.28990 0.36454
 N2417 N 0.98715 0.28253 0.35051
 C2418 C 0.97901 0.26793 0.34397
 N2419 N 0.96442 0.26094 0.35203
 N2420 N 0.95813 0.26833 0.36606
 C2421 C 0.98532 0.26005 0.32813
 C2422 C 0.99934 0.26752 0.31852
 H2423 H 0.96649 0.30344 0.39203
 H2424 H 0.97808 0.24855 0.32351
 H2425 H 0.93662 0.27437 0.39214
 H2426 H 1.00645 0.27918 0.32301
 C2427 C 0.43656 0.39938 0.81794
 C2428 C 0.43009 0.38947 0.80459
 C2429 C 0.43906 0.37338 0.79772
 N2430 N 0.43142 0.36438 0.78505
 N2431 N 0.43909 0.34960 0.77873
 C2432 C 0.45474 0.34328 0.78487
 N2433 N 0.46242 0.35231 0.79751
 N2434 N 0.45474 0.36709 0.80384
 C2435 C 0.46329 0.32677 0.77834
 C2436 C 0.45585 0.31623 0.76589
 H2437 H 0.41762 0.39347 0.79894
 H2438 H 0.47571 0.32250 0.78395
 H2439 H 0.44903 0.39554 0.82368
 H2440 H 0.44335 0.32031 0.76033
 C2441 C 0.93777 0.39713 0.29463
 C2442 C 0.95391 0.38827 0.29735
 C2443 C 0.95967 0.37232 0.28783
 N2444 N 0.97603 0.36511 0.29043
 N2445 N 0.98134 0.35032 0.28241
 C2446 C 0.97049 0.34210 0.27147
 N2447 N 0.95411 0.34934 0.26881
 N2448 N 0.94880 0.36420 0.27682
 C2449 C 0.97603 0.32512 0.26332
 C2450 C 0.99273 0.31751 0.26629
 H2451 H 0.96269 0.39309 0.30691
 H2452 H 0.96656 0.31801 0.25581
 H2453 H 0.92923 0.39273 0.28471
 H2454 H 1.00198 0.32478 0.27392
 C2455 C 0.28700 0.88512 0.43576
 C2456 C 0.29431 0.87562 0.44941
 C2457 C 0.28893 0.85677 0.45383
 N2458 N 0.29709 0.84742 0.46651
 N2459 N 0.29263 0.83021 0.47034
 C2460 C 0.27986 0.82168 0.46164
 N2461 N 0.27167 0.83105 0.44899
 N2462 N 0.27613 0.84826 0.44514
 C2463 C 0.27483 0.80267 0.46583
 C2464 C 0.28311 0.79280 0.47873
 H2465 H 0.30470 0.88179 0.45655
 H2466 H 0.26431 0.79649 0.45885
 H2467 H 0.27684 0.87869 0.42852
 H2468 H 0.29358 0.79917 0.48562
 C2469 C 0.29449 0.41706 0.95098
 C2470 C 0.29959 0.40683 0.96510
 C2471 C 0.29000 0.39005 0.97026
 N2472 N 0.29324 0.38172 0.98536
 N2473 N 0.28460 0.36656 0.99008
 C2474 C 0.27241 0.35914 0.97989
 N2475 N 0.26923 0.36743 0.96477
 N2476 N 0.27781 0.38264 0.96007
 C2477 C 0.26350 0.34186 0.98466
 C2478 C 0.26614 0.33350 1.00036
 H2479 H 0.31036 0.41143 0.97275
 H2480 H 0.25585 0.33505 0.97531
 H2481 H 0.28315 0.41271 0.94392
 H2482 H 0.27383 0.34051 1.00956
 C2483 C 0.80896 0.32419 0.30334
 C2484 C 0.79223 0.33223 0.30512
 C2485 C 0.78698 0.34867 0.29509
 N2486 N 0.77057 0.35605 0.29727
 N2487 N 0.76570 0.37097 0.28847
 C2488 C 0.77703 0.37912 0.27709
 N2489 N 0.79343 0.37170 0.27486
 N2490 N 0.79830 0.35677 0.28367
 C2491 C 0.77196 0.39608 0.26772
 C2492 C 0.75564 0.40461 0.27063
 H2493 H 0.78271 0.32637 0.31407
 H2494 H 0.78155 0.40241 0.25911
 H2495 H 0.81835 0.33010 0.29428
 H2496 H 0.74640 0.39831 0.27960
   
