data_POSCAR
  _audit_creation_date              2014-09-24
  _audit_creation_method            'ToBaCCo'
  _symmetry_space_group_name_H-M    'P1'
  _symmetry_Int_Tables_number       1
  _symmetry_cell_setting            triclinic
  loop_
  _symmetry_equiv_pos_as_xyz
 x,y,z
_cell_length_a 94.9361
_cell_length_b 95.6142
_cell_length_c 95.5987
_cell_angle_alpha 90.247700
_cell_angle_beta 90.594600
_cell_angle_gamma 89.674000
loop_
  _atom_site_label
  _atom_site_type_symbol
  _atom_site_fract_x
  _atom_site_fract_y
  _atom_site_fract_z
C1 C 0.33883 0.39709 0.88489
 C2 C 0.34045 0.38585 0.89414
 C3 C 0.35215 0.38513 0.90280
 C4 C 0.36228 0.39572 0.90247
 C5 C 0.36044 0.40709 0.89373
 C6 C 0.34869 0.40767 0.88467
 C7 C 0.32755 0.40135 0.87688
 N8 N 0.33023 0.41423 0.87158
 C9 C 0.34319 0.41818 0.87636
 C10 C 0.36990 0.41715 0.89811
 N11 N 0.37750 0.41213 0.90923
 C12 C 0.37294 0.39890 0.91171
 C13 C 0.34955 0.37507 0.91268
 N14 N 0.33648 0.36979 0.91037
 C15 C 0.33093 0.37621 0.89890
 H16 H 0.31775 0.39572 0.87577
 H17 H 0.34817 0.42810 0.87434
 H18 H 0.37059 0.42757 0.89385
 H19 H 0.37590 0.39253 0.92061
 H20 H 0.35609 0.37290 0.92176
 H21 H 0.32031 0.37480 0.89492
 C22 C 0.42482 0.83665 0.43362
 C23 C 0.41429 0.82651 0.43223
 C24 C 0.41494 0.81671 0.42159
 C25 C 0.42611 0.81698 0.41212
 C26 C 0.43647 0.82701 0.41350
 C27 C 0.43584 0.83685 0.42437
 C28 C 0.42708 0.84721 0.44316
 N29 N 0.43932 0.85390 0.44002
 C30 C 0.44464 0.84750 0.42841
 C31 C 0.44599 0.82480 0.40299
 N32 N 0.44167 0.81367 0.39519
 C33 C 0.42951 0.80881 0.40074
 C34 C 0.40355 0.80802 0.42302
 N35 N 0.39595 0.81232 0.43426
 C36 C 0.40249 0.82369 0.43989
 H37 H 0.42037 0.84938 0.45197
 H38 H 0.45412 0.85031 0.42297
 H39 H 0.45546 0.83076 0.40128
 H40 H 0.42344 0.80011 0.39670
 H41 H 0.40122 0.79903 0.41650
 H42 H 0.39895 0.82961 0.44887
 C43 C 0.89653 0.88221 0.84695
 C44 C 0.88517 0.89166 0.84686
 C45 C 0.88524 0.90299 0.85586
 C46 C 0.89667 0.90506 0.86499
 C47 C 0.90809 0.89605 0.86477
 C48 C 0.90803 0.88447 0.85564
 C49 C 0.90031 0.87210 0.83745
 N50 N 0.91396 0.86820 0.83982
 C51 C 0.91868 0.87576 0.85107
 C52 C 0.91881 0.90247 0.87220
 N53 N 0.91422 0.91520 0.87694
 C54 C 0.90058 0.91665 0.87255
 C55 C 0.87515 0.91226 0.85111
 N56 N 0.86914 0.90704 0.83925
 C57 C 0.87507 0.89430 0.83676
 H58 H 0.89392 0.86909 0.82852
 H59 H 0.92928 0.87557 0.85532
 H60 H 0.92933 0.89825 0.87342
 H61 H 0.89417 0.92597 0.87346
 H62 H 0.87336 0.92264 0.85530
 H63 H 0.87349 0.88816 0.82734
 C64 C 0.41908 -0.09240 0.32300
 C65 C 0.40879 -0.08184 0.32350
 C66 C 0.40903 -0.07216 0.33422
 C67 C 0.41952 -0.07288 0.34458
 C68 C 0.42976 -0.08323 0.34411
 C69 C 0.42951 -0.09313 0.33315
 C70 C 0.42135 -0.10311 0.31370
 N71 N 0.43298 -0.11058 0.31777
 C72 C 0.43800 -0.10438 0.32976
 C73 C 0.43853 -0.08115 0.35555
 N74 N 0.43373 -0.06988 0.36290
 C75 C 0.42213 -0.06479 0.35618
 C76 C 0.39793 -0.06311 0.33206
 N77 N 0.39089 -0.06706 0.32024
 C78 C 0.39750 -0.07856 0.31496
 H79 H 0.41495 -0.10490 0.30448
 H80 H 0.44705 -0.10772 0.33584
 H81 H 0.44760 -0.08747 0.35841
 H82 H 0.41611 -0.05570 0.35938
 H83 H 0.39537 -0.05414 0.33851
 H84 H 0.39429 -0.08425 0.30566
 C85 C 0.81001 0.32218 0.33464
 C86 C 0.81012 0.33202 0.32389
 C87 C 0.82031 0.33140 0.31373
 C88 C 0.83053 0.32076 0.31417
 C89 C 0.83043 0.31094 0.32478
 C90 C 0.82006 0.31168 0.33518
 C91 C 0.80176 0.32102 0.34623
 N92 N 0.80651 0.31009 0.35401
 C93 C 0.81767 0.30423 0.34728
 C94 C 0.84181 0.30220 0.32270
 N95 N 0.84881 0.30645 0.31111
 C96 C 0.84194 0.31785 0.30590
 C97 C 0.81817 0.34274 0.30508
 N98 N 0.80692 0.35020 0.30985
 C99 C 0.80195 0.34361 0.32133
 H100 H 0.79299 0.32778 0.34888
 H101 H 0.82393 0.29553 0.35114
 H102 H 0.84470 0.29335 0.32917
 H103 H 0.84516 0.32388 0.29695
 H104 H 0.82460 0.34557 0.29627
 H105 H 0.79303 0.34700 0.32747
 C106 C -0.14993 0.86002 0.84600
 C107 C -0.13929 0.84970 0.84603
 C108 C -0.13866 0.84012 0.85684
 C109 C -0.14865 0.84046 0.86751
 C110 C -0.15890 0.85068 0.86758
 C111 C -0.15941 0.86064 0.85688
 C112 C -0.15500 0.86887 0.83571
 N113 N -0.16724 0.87494 0.84015
 C114 C -0.16980 0.86995 0.85318
 C115 C -0.16901 0.84658 0.87690
 N116 N -0.16539 0.83385 0.88230
 C117 C -0.15266 0.83031 0.87677
 C118 C -0.12903 0.83005 0.85324
 N119 N -0.12356 0.83317 0.84056
 C120 C -0.12985 0.84519 0.83603
 H121 H -0.15030 0.87026 0.82556
 H122 H -0.17931 0.87171 0.85909
 H123 H -0.17906 0.85179 0.87811
 H124 H -0.14703 0.82059 0.87839
 H125 H -0.12691 0.82060 0.85911
 H126 H -0.12809 0.85007 0.82601
 C127 C 0.93532 0.33466 0.42351
 C128 C 0.93515 0.32420 0.41314
 C129 C 0.92526 0.31370 0.41368
 C130 C 0.91544 0.31347 0.42448
 C131 C 0.91553 0.32373 0.43469
 C132 C 0.92564 0.33444 0.43420
 C133 C 0.94357 0.34629 0.42552
 N134 N 0.93929 0.35328 0.43724
 C135 C 0.92823 0.34594 0.44254
 C136 C 0.90439 0.32099 0.44344
 N137 N 0.89758 0.30938 0.43867
 C138 C 0.90439 0.30473 0.42711
 C139 C 0.92710 0.30528 0.40218
 N140 N 0.93788 0.31037 0.39452
 C141 C 0.94292 0.32195 0.40120
 H142 H 0.95222 0.34910 0.41885
 H143 H 0.92213 0.34872 0.45162
 H144 H 0.90124 0.32725 0.45235
 H145 H 0.90153 0.29563 0.42096
 H146 H 0.92098 0.29609 0.39961
 H147 H 0.95133 0.32850 0.39746
 C148 C 0.40403 0.39526 0.86253
 C149 C 0.40549 0.38509 0.85204
 C150 C 0.39570 0.38423 0.84124
 C151 C 0.38405 0.39336 0.84101
 C152 C 0.38241 0.40308 0.85168
 C153 C 0.39255 0.40414 0.86238
 C154 C 0.41372 0.40075 0.87181
 N155 N 0.40861 0.41298 0.87719
 C156 C 0.39544 0.41485 0.87161
 C157 C 0.37185 0.41211 0.84766
 N158 N 0.36709 0.40833 0.83476
 C159 C 0.37448 0.39685 0.83059
 C160 C 0.40126 0.37533 0.83129
 N161 N 0.41407 0.37072 0.83588
 C162 C 0.41669 0.37670 0.84854
 H163 H 0.42413 0.39645 0.87357
 H164 H 0.38898 0.42413 0.87266
 H165 H 0.36878 0.42155 0.85317
 H166 H 0.37362 0.39195 0.82040
 H167 H 0.39655 0.37288 0.82122
 H168 H 0.42648 0.37579 0.85439
 C169 C 0.84150 0.88287 0.89765
 C170 C 0.84166 0.89346 0.88750
 C171 C 0.85274 0.90282 0.88725
 C172 C 0.86367 0.90190 0.89719
 C173 C 0.86355 0.89145 0.90704
 C174 C 0.85252 0.88177 0.90715
 C175 C 0.83094 0.87421 0.90227
 N176 N 0.83530 0.86781 0.91432
 C177 C 0.84861 0.87237 0.91715
 C178 C 0.87341 0.89485 0.91711
 N179 N 0.87957 0.90726 0.91379
 C180 C 0.87370 0.91143 0.90138
 C181 C 0.84904 0.91332 0.87819
 N182 N 0.83602 0.91069 0.87278
 C183 C 0.83143 0.89852 0.87846
 H184 H 0.82064 0.87325 0.89745
 H185 H 0.85456 0.87036 0.92665
 H186 H 0.87466 0.88930 0.92686
 H187 H 0.87572 0.92113 0.89602
 H188 H 0.85502 0.92277 0.87655
 H189 H 0.82115 0.89397 0.87672
 C190 C 0.31731 0.83745 0.32777
 C191 C 0.31867 0.82687 0.33778
 C192 C 0.32959 0.81729 0.33695
 C193 C 0.33932 0.81821 0.32607
 C194 C 0.33795 0.82865 0.31618
 C195 C 0.32680 0.83828 0.31701
 C196 C 0.30756 0.84796 0.32584
 N197 N 0.31079 0.85521 0.31405
 C198 C 0.32266 0.84923 0.30865
 C199 C 0.34872 0.82693 0.30681
 N200 N 0.35661 0.81570 0.31077
 C201 C 0.35090 0.81030 0.32255
 C202 C 0.32806 0.80804 0.34780
 N203 N 0.31645 0.81177 0.35519
 C204 C 0.31071 0.82333 0.34912
 H205 H 0.29852 0.84971 0.33242
 H206 H 0.32823 0.85261 0.29947
 H207 H 0.35052 0.83328 0.29766
 H208 H 0.35496 0.80138 0.32828
 H209 H 0.33472 0.79905 0.34990
 H210 H 0.30142 0.82885 0.35269
 C211 C 0.80940 0.42031 0.42469
 C212 C 0.81129 0.43053 0.41436
 C213 C 0.82233 0.43989 0.41554
 C214 C 0.83164 0.43916 0.42703
 C215 C 0.82981 0.42902 0.43702
 C216 C 0.81864 0.41964 0.43590
 C217 C 0.79975 0.40972 0.42641
 N218 N 0.80300 0.40272 0.43843
 C219 C 0.81461 0.40876 0.44419
 C220 C 0.84038 0.43041 0.44676
 N221 N 0.84881 0.44126 0.44309
 C222 C 0.84339 0.44668 0.43095
 C223 C 0.82173 0.44841 0.40397
 N224 N 0.81066 0.44445 0.39575
 C225 C 0.80423 0.43350 0.40208
 H226 H 0.79100 0.40737 0.41947
 H227 H 0.82002 0.40533 0.45360
 H228 H 0.84144 0.42406 0.45604
 H229 H 0.84779 0.45519 0.42503
 H230 H 0.82885 0.45690 0.40179
 H231 H 0.79526 0.42784 0.39794
 C232 C 0.89565 0.86188 -0.09066
 C233 C 0.88586 0.85093 -0.09011
 C234 C 0.88589 0.84075 -0.10042
 C235 C 0.89577 0.84112 -0.11116
 C236 C 0.90526 0.85194 -0.11184
 C237 C 0.90505 0.86252 -0.10165
 C238 C 0.89994 0.87166 -0.08087
 N239 N 0.91144 0.87834 -0.08584
 C240 C 0.91460 0.87281 -0.09851
 C241 C 0.91563 0.84787 -0.12101
 N242 N 0.91294 0.83461 -0.12560
 C243 C 0.90050 0.83069 -0.11984
 C244 C 0.87710 0.83030 -0.09624
 N245 N 0.87150 0.83379 -0.08367
 C246 C 0.87687 0.84643 -0.07980
 H247 H 0.89551 0.87325 -0.07060
 H248 H 0.92384 0.87536 -0.10453
 H249 H 0.92531 0.85353 -0.12258
 H250 H 0.89558 0.82057 -0.12088
 H251 H 0.87568 0.82042 -0.10162
 H252 H 0.87484 0.85176 -0.07002
 C253 C 0.34179 0.36306 0.85305
 C254 C 0.34175 0.35219 0.86283
 C255 C 0.35127 0.34121 0.86180
 C256 C 0.36128 0.34121 0.85104
 C257 C 0.36145 0.35216 0.84159
 C258 C 0.35150 0.36299 0.84245
 C259 C 0.33169 0.37290 0.84969
 N260 N 0.33476 0.37857 0.83704
 C261 C 0.34705 0.37265 0.83272
 C262 C 0.37077 0.34867 0.83127
 N263 N 0.37628 0.33584 0.83405
 C264 C 0.37046 0.33112 0.84608
 C265 C 0.34692 0.33100 0.87098
 N266 N 0.33500 0.33554 0.87743
 C267 C 0.33187 0.34848 0.87245
 H268 H 0.32222 0.37483 0.85559
 H269 H 0.35169 0.37398 0.82253
 H270 H 0.37275 0.35469 0.82193
 H271 H 0.37234 0.32093 0.85062
 H272 H 0.35167 0.32077 0.87227
 H273 H 0.32239 0.35437 0.87473
 C274 C 0.17776 0.56401 0.55116
 C275 C 0.18816 0.57423 0.54995
 C276 C 0.19880 0.57517 0.55984
 C277 C 0.19928 0.56571 0.57102
 C278 C 0.18899 0.55558 0.57222
 C279 C 0.17805 0.55478 0.56224
 C280 C 0.16542 0.56191 0.54391
 N281 N 0.15801 0.55170 0.55033
 C282 C 0.16573 0.54718 0.56152
 C283 C 0.19163 0.54853 0.58451
 N284 N 0.20330 0.55405 0.59075
 C285 C 0.20798 0.56461 0.58255
 C286 C 0.20632 0.58708 0.55692
 N287 N 0.20044 0.59340 0.54551
 C288 C 0.18939 0.58545 0.54116
 H289 H 0.16189 0.56778 0.53486
 H290 H 0.16228 0.53956 0.56908
 H291 H 0.18525 0.54025 0.58875
 H292 H 0.21706 0.57107 0.58477
 H293 H 0.21486 0.59126 0.56322
 H294 H 0.18237 0.58783 0.53250
 C295 C 0.57669 0.68042 0.05431
 C296 C 0.56622 0.67024 0.05315
 C297 C 0.55589 0.66930 0.06314
 C298 C 0.55585 0.67874 0.07445
 C299 C 0.56623 0.68881 0.07562
 C300 C 0.57678 0.68962 0.06547
 C301 C 0.58842 0.68298 0.04652
 N302 N 0.59580 0.69353 0.05266
 C303 C 0.58870 0.69771 0.06426
 C304 C 0.56389 0.69607 0.08783
 N305 N 0.55231 0.69075 0.09412
 C306 C 0.54737 0.68011 0.08597
 C307 C 0.54787 0.65775 0.05979
 N308 N 0.55318 0.65167 0.04805
 C309 C 0.56436 0.65938 0.04391
 H310 H 0.59140 0.67744 0.03710
 H311 H 0.59218 0.70568 0.07157
 H312 H 0.57041 0.70440 0.09196
 H313 H 0.53822 0.67381 0.08815
 H314 H 0.53924 0.65372 0.06586
 H315 H 0.57089 0.65716 0.03495
 C316 C 0.67842 0.18447 0.67198
 C317 C 0.66741 0.18522 0.68160
 C318 C 0.66619 0.17517 0.69186
 C319 C 0.67606 0.16417 0.69262
 C320 C 0.68695 0.16343 0.68311
 C321 C 0.68812 0.17367 0.67268
 C322 C 0.68183 0.19263 0.66072
 N323 N 0.69344 0.18713 0.65449
 C324 C 0.69734 0.17549 0.66178
 C325 C 0.69467 0.15157 0.68617
 N326 N 0.68880 0.14506 0.69732
 C327 C 0.67740 0.15277 0.70129
 C328 C 0.65429 0.17843 0.69940
 N329 N 0.64827 0.19020 0.69395
 C330 C 0.65633 0.19440 0.68308
 H331 H 0.67599 0.20171 0.65714
 H332 H 0.70625 0.16882 0.65940
 H333 H 0.70372 0.14782 0.68045
 H334 H 0.67057 0.15035 0.70994
 H335 H 0.65016 0.17243 0.70799
 H336 H 0.65437 0.20351 0.67667
 C337 C 1.07577 0.06875 0.18578
 C338 C 1.06660 0.08027 0.18612
 C339 C 1.05580 0.08139 0.17637
 C340 C 1.05403 0.07098 0.16612
 C341 C 1.06302 0.05961 0.16585
 C342 C 1.07399 0.05849 0.17571
 C343 C 1.08762 0.06532 0.19343
 N344 N 1.09311 0.05321 0.18825
 C345 C 1.08476 0.04896 0.17741
 C346 C 1.05924 0.05152 0.15455
 N347 N 1.04809 0.05763 0.14775
 C348 C 1.04490 0.06961 0.15493
 C349 C 1.04892 0.09382 0.17893
 N350 N 1.05525 0.10027 0.19003
 C351 C 1.06610 0.09201 0.19446
 H352 H 1.09219 0.07152 0.20180
 H353 H 1.08644 0.03970 0.17110
 H354 H 1.06479 0.04216 0.15138
 H355 H 1.03658 0.07696 0.15241
 H356 H 1.04015 0.09799 0.17291
 H357 H 1.07310 0.09429 0.20316
 C358 C 0.08358 0.15718 1.06555
 C359 C 0.09407 0.16735 1.06673
 C360 C 0.09328 0.17761 1.07695
 C361 C 0.08187 0.17769 1.08626
 C362 C 0.07162 0.16755 1.08513
 C363 C 0.07242 0.15726 1.07467
 C364 C 0.08159 0.14626 1.05637
 N365 N 0.06945 0.13964 1.05966
 C366 C 0.06378 0.14632 1.07089
 C367 C 0.06189 0.17013 1.09536
 N368 N 0.06582 0.18169 1.10285
 C369 C 0.07811 0.18634 1.09720
 C370 C 0.10483 0.18615 1.07527
 N371 N 0.11257 0.18118 1.06438
 C372 C 0.10598 0.16971 1.05914
 H373 H 0.08837 0.14357 1.04772
 H374 H 0.05412 0.14343 1.07602
 H375 H 0.05245 0.16407 1.09679
 H376 H 0.08421 0.19518 1.10080
 H377 H 0.10743 0.19525 1.08155
 H378 H 0.10943 0.16366 1.05019
 C379 C 0.17184 0.69142 0.68099
 C380 C 0.18262 0.69044 0.67111
 C381 C 0.19232 0.67964 0.67187
 C382 C 0.19137 0.66964 0.68250
 C383 C 0.18075 0.67059 0.69224
 C384 C 0.17092 0.68160 0.69150
 C385 C 0.16078 0.70062 0.68260
 N386 N 0.15314 0.69664 0.69385
 C387 C 0.15930 0.68499 0.69934
 C388 C 0.18216 0.65926 0.70100
 N389 N 0.19337 0.65143 0.69680
 C390 C 0.19904 0.65775 0.68547
 C391 C 0.20132 0.68112 0.66079
 N392 N 0.19731 0.69254 0.65325
 C393 C 0.18584 0.69828 0.65955
 H394 H 0.15853 0.70960 0.67608
 H395 H 0.15545 0.67918 0.70819
 H396 H 0.17548 0.65694 0.70978
 H397 H 0.20786 0.65382 0.67951
 H398 H 0.21016 0.67434 0.65846
 H399 H 0.17998 0.70728 0.65584
 C400 C 1.17472 0.16605 0.17826
 C401 C 1.16493 0.17697 0.17684
 C402 C 1.16625 0.18652 0.16616
 C403 C 1.17743 0.18530 0.15677
 C404 C 1.18708 0.17453 0.15808
 C405 C 1.18575 0.16480 0.16898
 C406 C 1.17598 0.15534 0.18772
 N407 N 1.18751 0.14753 0.18447
 C408 C 1.19356 0.15327 0.17301
 C409 C 1.19668 0.17604 0.14748
 N410 N 1.19316 0.18755 0.13972
 C411 C 1.18129 0.19316 0.14549
 C412 C 1.15531 0.19596 0.16735
 N413 N 1.14739 0.19236 0.17853
 C414 C 1.15323 0.18073 0.18437
 H415 H 1.16909 0.15352 0.19647
 H416 H 1.20285 0.14929 0.16783
 H417 H 1.20570 0.16930 0.14590
 H418 H 1.17545 0.20215 0.14174
 H419 H 1.15342 0.20490 0.16067
 H420 H 1.14918 0.17524 0.19335
 C421 C 0.68505 1.05464 0.56871
 C422 C 0.69697 1.05350 0.57740
 C423 C 0.70722 1.06361 0.57699
 C424 C 0.70563 1.07510 0.56812
 C425 C 0.69387 1.07639 0.55962
 C426 C 0.68345 1.06597 0.55985
 C427 C 0.67308 1.04674 0.56758
 N428 N 0.66415 1.05290 0.55824
 C429 C 0.67042 1.06470 0.55345
 C430 C 0.69464 1.08932 0.55333
 N431 N 0.70653 1.09601 0.55796
 C432 C 0.71326 1.08713 0.56697
 C433 C 0.71672 1.06082 0.58753
 N434 N 0.71240 1.04932 0.59459
 C435 C 0.70033 1.04472 0.58833
 H436 H 0.67105 1.03718 0.57321
 H437 H 0.66570 1.07206 0.54620
 H438 H 0.68658 1.09370 0.54657
 H439 H 0.72298 1.08909 0.57260
 H440 H 0.72577 1.06715 0.59019
 H441 H 0.69384 1.03628 0.59204
 C442 C 0.56369 0.55359 0.16589
 C443 C 0.57489 0.55215 0.17546
 C444 C 0.57636 0.56161 0.18633
 C445 C 0.56671 0.57265 0.18777
 C446 C 0.55569 0.57409 0.17833
 C447 C 0.55416 0.56448 0.16730
 C448 C 0.56008 0.54638 0.15392
 N449 N 0.54854 0.55258 0.14802
 C450 C 0.54487 0.56367 0.15619
 C451 C 0.54854 0.58615 0.18181
 N452 N 0.55493 0.59206 0.19317
 C453 C 0.56605 0.58379 0.19688
 C454 C 0.58853 0.55819 0.19346
 N455 N 0.59452 0.54685 0.18722
 C456 C 0.58618 0.54309 0.17619
 H457 H 0.56578 0.53757 0.14960
 H458 H 0.53613 0.57073 0.15421
 H459 H 0.53966 0.59052 0.17611
 H460 H 0.57326 0.58572 0.20550
 H461 H 0.59296 0.56394 0.20222
 H462 H 0.58822 0.53449 0.16908
 C463 C 0.68237 0.69114 0.19717
 C464 C 0.69197 0.67996 0.19766
 C465 C 0.70270 0.67909 0.18802
 C466 C 0.70398 0.68943 0.17775
 C467 C 0.69452 0.70046 0.17731
 C468 C 0.68365 0.70131 0.18707
 C469 C 0.67017 0.69390 0.20431
 N470 N 0.66399 0.70554 0.19881
 C471 C 0.67226 0.71015 0.18827
 C472 C 0.69746 0.70818 0.16564
 N473 N 0.70852 0.70216 0.15893
 C474 C 0.71258 0.69067 0.16632
 C475 C 0.70962 0.66662 0.19027
 N476 N 0.70340 0.65989 0.20107
 C477 C 0.69259 0.66805 0.20565
 H478 H 0.66577 0.68743 0.21241
 H479 H 0.67003 0.71908 0.18168
 H480 H 0.69145 0.71711 0.16195
 H481 H 0.72095 0.68352 0.16347
 H482 H 0.71817 0.66250 0.18404
 H483 H 0.68551 0.66548 0.21404
 C484 C 0.15442 0.08617 1.06948
 C485 C 0.16320 0.09799 1.06976
 C486 C 0.17372 0.09902 1.07984
 C487 C 0.17575 0.08834 1.08963
 C488 C 0.16717 0.07675 1.08935
 C489 C 0.15641 0.07569 1.07926
 C490 C 0.14337 0.08210 1.06093
 N491 N 0.13862 0.06947 1.06535
 C492 C 0.14662 0.06551 1.07654
 C493 C 0.17176 0.06797 1.09983
 N494 N 0.18298 0.07394 1.10645
 C495 C 0.18545 0.08645 1.10025
 C496 C 0.18076 0.11127 1.07760
 N497 N 0.17490 0.11779 1.06636
 C498 C 0.16415 0.10971 1.06143
 H499 H 0.13902 0.08801 1.05226
 H500 H 0.14557 0.05579 1.08219
 H501 H 0.16719 0.05799 1.10245
 H502 H 0.19389 0.09353 1.10300
 H503 H 0.18982 0.11496 1.08349
 H504 H 0.15756 0.11215 1.05245
 C505 C 0.57334 0.19601 0.56642
 C506 C 0.56313 0.19489 0.57691
 C507 C 0.55284 0.18469 0.57587
 C508 C 0.55258 0.17548 0.56439
 C509 C 0.56245 0.17683 0.55401
 C510 C 0.57284 0.18707 0.55503
 C511 C 0.58562 0.20364 0.56528
 N512 N 0.59250 0.19933 0.55358
 C513 C 0.58462 0.18930 0.54724
 C514 C 0.56084 0.16578 0.54498
 N515 N 0.55035 0.15746 0.54966
 C516 C 0.54513 0.16344 0.56150
 C517 C 0.54491 0.18547 0.58779
 N518 N 0.55002 0.19589 0.59610
 C519 C 0.56123 0.20165 0.58952
 H520 H 0.58965 0.21110 0.57285
 H521 H 0.58748 0.18362 0.53787
 H522 H 0.56732 0.16373 0.53595
 H523 H 0.53720 0.15888 0.56812
 H524 H 0.53599 0.17892 0.59015
 H525 H 0.56777 0.20994 0.59370
 C526 C 0.07509 0.56808 0.70413
 C527 C 0.06363 0.57737 0.70535
 C528 C 0.05211 0.57590 0.69655
 C529 C 0.05190 0.56539 0.68634
 C530 C 0.06321 0.55639 0.68492
 C531 C 0.07488 0.55767 0.69399
 C532 C 0.08792 0.56725 0.71090
 N533 N 0.09553 0.55658 0.70521
 C534 C 0.08761 0.55075 0.69479
 C535 C 0.06062 0.54833 0.67315
 N536 N 0.04805 0.55236 0.66742
 C537 C 0.04265 0.56271 0.67557
 C538 C 0.04319 0.58694 0.69902
 N539 N 0.04901 0.59531 0.70902
 C540 C 0.06151 0.58944 0.71305
 H541 H 0.09137 0.57390 0.71945
 H542 H 0.09094 0.54226 0.68804
 H543 H 0.06776 0.54071 0.66867
 H544 H 0.03286 0.56826 0.67364
 H545 H 0.03336 0.58891 0.69354
 H546 H 0.06894 0.59402 0.72038
 C547 C 0.66585 0.56616 0.06618
 C548 C 0.67700 0.56713 0.07589
 C549 C 0.68617 0.57826 0.07533
 C550 C 0.68439 0.58856 0.06506
 C551 C 0.67343 0.58765 0.05547
 C552 C 0.66405 0.57632 0.05603
 C553 C 0.65517 0.55663 0.06442
 N554 N 0.64685 0.56070 0.05348
 C555 C 0.65226 0.57276 0.04829
 C556 C 0.67428 0.59922 0.04694
 N557 N 0.68548 0.60710 0.05114
 C558 C 0.69165 0.60060 0.06228
 C559 C 0.69578 0.57667 0.08608
 N560 N 0.69268 0.56484 0.09325
 C561 C 0.68117 0.55895 0.08704
 H562 H 0.65368 0.54734 0.07065
 H563 H 0.64780 0.57872 0.03972
 H564 H 0.66730 0.60161 0.03825
 H565 H 0.70061 0.60444 0.06819
 H566 H 0.70446 0.58362 0.08841
 H567 H 0.67597 0.54956 0.09052
 C568 C 0.06785 0.69440 0.58502
 C569 C 0.07740 0.69529 0.57406
 C570 C 0.07832 0.68468 0.56429
 C571 C 0.06944 0.67306 0.56529
 C572 C 0.05992 0.67216 0.57614
 C573 C 0.05917 0.68292 0.58619
 C574 C 0.06593 0.70261 0.59662
 N575 N 0.05635 0.69644 0.60499
 C576 C 0.05203 0.68441 0.59863
 C577 C 0.05322 0.65949 0.57479
 N578 N 0.05837 0.65270 0.56337
 C579 C 0.06834 0.66095 0.55756
 C580 C 0.08955 0.68774 0.55580
 N581 N 0.09546 0.69993 0.56030
 C582 C 0.08793 0.70463 0.57139
 H583 H 0.07144 0.71224 0.59895
 H584 H 0.04482 0.67694 0.60306
 H585 H 0.04538 0.65541 0.58180
 H586 H 0.07432 0.65843 0.54830
 H587 H 0.09359 0.68113 0.54753
 H588 H 0.09013 0.71397 0.57743
 C589 C 0.56418 1.05551 0.68171
 C590 C 0.57480 1.05552 0.69205
 C591 C 0.57418 1.06503 0.70295
 C592 C 0.56303 1.07465 0.70368
 C593 C 0.55267 1.07469 0.69350
 C594 C 0.55323 1.06501 0.68244
 C595 C 0.56238 1.04802 0.66950
 N596 N 0.55056 1.05271 0.66265
 C597 C 0.54498 1.06317 0.67070
 C598 C 0.54388 1.08582 0.69627
 N599 N 0.54865 1.09270 0.70794
 C600 C 0.56040 1.08571 0.71250
 C601 C 0.58617 1.06331 0.71093
 N602 N 0.59414 1.05298 0.70517
 C603 C 0.58722 1.04813 0.69361
 H604 H 0.56961 1.04006 0.66590
 H605 H 0.53565 1.06927 0.66839
 H606 H 0.53480 1.08861 0.68995
 H607 H 0.56719 1.08872 0.72112
 H608 H 0.58891 1.06927 0.72021
 H609 H 0.59115 1.04018 0.68653
 C610 C 0.40586 0.36143 0.89431
 C611 C 0.40426 0.35115 0.88391
 C612 C 0.39392 0.34113 0.88514
 C613 C 0.38513 0.34117 0.89682
 C614 C 0.38684 0.35113 0.90722
 C615 C 0.39734 0.36135 0.90595
 C616 C 0.41655 0.37073 0.89694
 N617 N 0.41504 0.37624 0.91002
 C618 C 0.40316 0.37053 0.91551
 C619 C 0.37887 0.34692 0.91842
 N620 N 0.37245 0.33462 0.91509
 C621 C 0.37624 0.33113 0.90185
 C622 C 0.39666 0.33086 0.87541
 N623 N 0.40855 0.33422 0.86843
 C624 C 0.41318 0.34671 0.87348
 H625 H 0.42549 0.37219 0.89019
 H626 H 0.39915 0.37238 0.92590
 H627 H 0.37843 0.35209 0.92850
 H628 H 0.37373 0.32139 0.89662
 H629 H 0.39125 0.32095 0.87457
 H630 H 0.42294 0.35168 0.87064
 C631 C 0.94661 0.43569 0.33267
 C632 C 0.94683 0.42584 0.32184
 C633 C 0.93628 0.42572 0.31181
 C634 C 0.92537 0.43567 0.31246
 C635 C 0.92520 0.44548 0.32315
 C636 C 0.93592 0.44545 0.33341
 C637 C 0.95498 0.43730 0.34430
 N638 N 0.94972 0.44784 0.35242
 C639 C 0.93802 0.45293 0.34562
 C640 C 0.91316 0.45341 0.32139
 N641 N 0.90602 0.44867 0.30990
 C642 C 0.91345 0.43777 0.30444
 C643 C 0.93878 0.41437 0.30321
 N644 N 0.95058 0.40762 0.30789
 C645 C 0.95556 0.41468 0.31924
 H646 H 0.96418 0.43097 0.34649
 H647 H 0.93100 0.46099 0.34943
 H648 H 0.90994 0.46204 0.32800
 H649 H 0.91030 0.43153 0.29549
 H650 H 0.93216 0.41097 0.29458
 H651 H 0.96480 0.41185 0.32535
 C652 C 0.32332 0.92115 0.40852
 C653 C 0.32324 0.91097 0.41913
 C654 C 0.33364 0.91110 0.42942
 C655 C 0.34418 0.92130 0.42932
 C656 C 0.34420 0.93121 0.41896
 C657 C 0.33377 0.93111 0.40850
 C658 C 0.31464 0.92394 0.39717
 N659 N 0.31960 0.93538 0.39022
 C660 C 0.33136 0.93970 0.39731
 C661 C 0.35545 0.93984 0.42147
 N662 N 0.36246 0.93551 0.43324
 C663 C 0.35549 0.92404 0.43802
 C664 C 0.33107 0.90021 0.43831
 N665 N 0.31939 0.89333 0.43377
 C666 C 0.31448 0.89989 0.42205
 H667 H 0.30548 0.91788 0.39430
 H668 H 0.33773 0.94869 0.39496
 H669 H 0.35822 0.94852 0.41487
 H670 H 0.35805 0.91813 0.44732
 H671 H 0.33721 0.89762 0.44755
 H672 H 0.30536 0.89673 0.41596
 O673 O 0.25405 0.53412 0.72820
 O674 O 0.27785 0.52970 0.72960
 O675 O 0.23706 0.49700 0.70890
 O676 O 0.23626 0.47409 0.71323
 O677 O 0.21752 0.51502 0.74530
 O678 O 0.22281 0.51395 0.76980
 O679 O 0.27453 0.46087 0.74723
 O680 O 0.27063 0.46441 0.72289
 O681 O 0.29105 0.49402 0.76573
 O682 O 0.28761 0.52066 0.76250
 O683 O 0.25646 0.47928 0.78283
 O684 O 0.23126 0.47934 0.77772
 O685 O 0.25887 0.46135 0.76509
 O686 O 0.23159 0.46481 0.76149
 O687 O 0.27303 0.49636 0.78314
 O688 O 0.27206 0.52179 0.77748
 O689 O 0.29170 0.47812 0.74799
 O690 O 0.28740 0.48360 0.72249
 O691 O 0.23711 0.53418 0.74491
 O692 O 0.23883 0.52924 0.76989
 O693 O 0.21724 0.49790 0.72872
 O694 O 0.22334 0.47244 0.73125
 O695 O 0.25322 0.51449 0.70899
 O696 O 0.27895 0.51121 0.71450
 Zr697 Zr 0.26248 0.51376 0.72914
 O698 O 0.27632 0.50173 0.74171
 Zr699 Zr 0.23771 0.48916 0.72940
 O700 O 0.25072 0.47581 0.74146
 Zr701 Zr 0.23801 0.51403 0.75379
 O702 O 0.25050 0.50164 0.76727
 Zr703 Zr 0.27197 0.48054 0.73807
 O704 O 0.25905 0.49247 0.72448
 Zr705 Zr 0.27188 0.50504 0.76295
 O706 O 0.25934 0.51853 0.75045
 Zr707 Zr 0.24743 0.48029 0.76271
 O708 O 0.23333 0.49273 0.75065
 O709 O 0.24121 0.51032 0.73269
 O710 O 0.26851 0.48402 0.75921
 C711 C 0.24411 0.54009 0.73511
 C712 C 0.24364 0.50705 0.70296
 C713 C 0.21136 0.50791 0.73560
 C714 C 0.26928 0.45581 0.75845
 C715 C 0.29670 0.48358 0.75927
 C716 C 0.26658 0.48604 0.78874
 H717 H 0.28624 0.50386 0.73955
 H718 H 0.24819 0.50393 0.77708
 H719 H 0.23511 0.51623 0.72667
 H720 H 0.24880 0.46590 0.73919
 H721 H 0.26793 0.46894 0.71396
 H722 H 0.24398 0.46730 0.71486
 H723 H 0.26369 0.52079 0.78346
 H724 H 0.24788 0.53421 0.76886
 H725 H 0.29396 0.47550 0.72284
 H726 H 0.27777 0.51834 0.70705
 H727 H 0.23131 0.48833 0.78288
 H728 H 0.21831 0.50464 0.76944
 H729 H 0.27908 0.53241 0.73953
 H730 H 0.29523 0.51738 0.75630
 H731 H 0.21772 0.47429 0.73973
 H732 H 0.23528 0.45686 0.75596
 O733 O 0.24919 0.03713 0.23054
 O734 O 0.27307 0.03155 0.23237
 O735 O 0.23071 0.00241 0.20952
 O736 O 0.23044 -0.02268 0.21367
 O737 O 0.21146 0.01817 0.24666
 O738 O 0.21666 0.01667 0.27091
 O739 O 0.26605 -0.03774 0.24636
 O740 O 0.26326 -0.03322 0.22279
 O741 O 0.28478 -0.00437 0.26585
 O742 O 0.28110 0.02128 0.26573
 O743 O 0.24889 -0.02081 0.28233
 O744 O 0.22339 -0.01835 0.27726
 O745 O 0.24919 -0.03785 0.26311
 O746 O 0.22294 -0.03216 0.26090
 O747 O 0.26633 -0.00470 0.28355
 O748 O 0.26507 0.02176 0.27980
 O749 O 0.28449 -0.02046 0.24828
 O750 O 0.28049 -0.01442 0.22296
 O751 O 0.23171 0.03710 0.24671
 O752 O 0.23332 0.03117 0.27168
 O753 O 0.21108 0.00233 0.22884
 O754 O 0.21556 -0.02268 0.22911
 O755 O 0.24778 0.01900 0.21066
 O756 O 0.27327 0.01394 0.21606
 Zr757 Zr 0.25684 0.01652 0.23074
 O758 O 0.26986 0.00340 0.24298
 Zr759 Zr 0.23120 -0.00703 0.22936
 O760 O 0.24331 -0.02133 0.24109
 Zr761 Zr 0.23197 0.01660 0.25502
 O762 O 0.24368 0.00309 0.26814
 Zr763 Zr 0.26484 -0.01744 0.23833
 O764 O 0.25274 -0.00437 0.22494
 Zr765 Zr 0.26521 0.00589 0.26428
 O766 O 0.25352 0.02044 0.25219
 Zr767 Zr 0.23980 -0.01782 0.26245
 O768 O 0.22654 -0.00434 0.25069
 O769 O 0.23541 0.01375 0.23385
 O770 O 0.26121 -0.01491 0.25960
 C771 C 0.23913 0.04310 0.23725
 C772 C 0.23771 0.01256 0.20428
 C773 C 0.20529 0.01188 0.23641
 C774 C 0.25938 -0.04359 0.25636
 C775 C 0.29025 -0.01461 0.25901
 C776 C 0.25943 -0.01505 0.28854
 H777 H 0.27987 0.00530 0.24101
 H778 H 0.24136 0.00493 0.27804
 H779 H 0.22950 0.02013 0.22814
 H780 H 0.24095 -0.03098 0.23818
 H781 H 0.26100 -0.02846 0.21388
 H782 H 0.23906 -0.02170 0.20804
 H783 H 0.25746 0.01963 0.28644
 H784 H 0.24259 0.03577 0.27091
 H785 H 0.28682 -0.02269 0.22315
 H786 H 0.27259 0.02161 0.20912
 H787 H 0.22473 -0.01037 0.28374
 H788 H 0.21236 0.00726 0.27075
 H789 H 0.27316 0.03489 0.24219
 H790 H 0.28713 0.02032 0.25741
 H791 H 0.21080 -0.02216 0.23827
 H792 H 0.22501 -0.03875 0.25317
 O793 O 0.50246 0.71182 0.22917
 O794 O 0.47859 0.71746 0.23069
 O795 O 0.52149 0.74850 0.21292
 O796 O 0.52114 0.77316 0.22008
 O797 O 0.54017 0.72895 0.24862
 O798 O 0.53469 0.72762 0.27264
 O799 O 0.48527 0.78430 0.25424
 O800 O 0.48879 0.78316 0.23018
 O801 O 0.46640 0.74873 0.26760
 O802 O 0.47045 0.72340 0.26458
 O803 O 0.50214 0.76329 0.28751
 O804 O 0.52812 0.76099 0.28281
 O805 O 0.50253 0.78258 0.27082
 O806 O 0.52836 0.77723 0.26907
 O807 O 0.48485 0.74698 0.28620
 O808 O 0.48600 0.72143 0.27916
 O809 O 0.46706 0.76702 0.25251
 O810 O 0.47173 0.76447 0.22672
 O811 O 0.51957 0.70998 0.24597
 O812 O 0.51835 0.71317 0.27114
 O813 O 0.54085 0.74679 0.23298
 O814 O 0.53624 0.77139 0.23567
 O815 O 0.50415 0.73224 0.21151
 O816 O 0.47876 0.73672 0.21663
 Zr817 Zr 0.49497 0.73240 0.23147
 O818 O 0.48184 0.74410 0.24480
 Zr819 Zr 0.52060 0.75584 0.23375
 O820 O 0.50845 0.76873 0.24693
 Zr821 Zr 0.51956 0.72950 0.25637
 O822 O 0.50764 0.74130 0.27069
 Zr823 Zr 0.48693 0.76536 0.24312
 O824 O 0.49909 0.75383 0.22850
 Zr825 Zr 0.48618 0.73898 0.26573
 O826 O 0.49807 0.72600 0.25235
 Zr827 Zr 0.51165 0.76269 0.26780
 O828 O 0.52501 0.75076 0.25476
 O829 O 0.51639 0.73467 0.23554
 O830 O 0.49026 0.76020 0.26398
 C831 C 0.51214 0.70498 0.23578
 C832 C 0.51434 0.73918 0.20622
 C833 C 0.54656 0.73652 0.23964
 C834 C 0.49208 0.78897 0.26498
 C835 C 0.46099 0.75970 0.26192
 C836 C 0.49164 0.75670 0.29262
 H837 H 0.47187 0.74248 0.24221
 H838 H 0.50985 0.73828 0.28034
 H839 H 0.52237 0.72889 0.22935
 H840 H 0.51084 0.77865 0.24539
 H841 H 0.49155 0.77969 0.22084
 H842 H 0.51287 0.77239 0.21375
 H843 H 0.49374 0.72254 0.28608
 H844 H 0.50894 0.70891 0.26992
 H845 H 0.46532 0.77262 0.22783
 H846 H 0.47943 0.72984 0.20886
 H847 H 0.52607 0.75291 0.28887
 H848 H 0.53897 0.73698 0.27379
 H849 H 0.47854 0.71278 0.23990
 H850 H 0.46453 0.72533 0.25623
 H851 H 0.54055 0.77026 0.24507
 H852 H 0.52688 0.78424 0.26160
 O853 O 0.04071 0.73670 0.75825
 O854 O 0.03768 0.74124 0.78206
 O855 O 0.00335 0.71569 0.74542
 O856 O -0.02008 0.71958 0.74616
 O857 O 0.01879 0.74974 0.72124
 O858 O 0.01774 0.77455 0.72359
 O859 O -0.03222 0.75805 0.77919
 O860 O -0.02833 0.73346 0.77882
 O861 O 0.00368 0.77736 0.79300
 O862 O 0.02926 0.77509 0.78725
 O863 O -0.01661 0.79044 0.75867
 O864 O -0.01525 0.78369 0.73264
 O865 O -0.03387 0.77240 0.76029
 O866 O -0.03034 0.76835 0.73465
 O867 O 0.00195 0.79284 0.77367
 O868 O 0.02824 0.78796 0.76993
 O869 O -0.01347 0.76109 0.79549
 O870 O -0.00823 0.73511 0.79444
 O871 O 0.03944 0.75157 0.73970
 O872 O 0.03404 0.77656 0.73863
 O873 O 0.00209 0.73300 0.72381
 O874 O -0.02293 0.73568 0.73051
 O875 O 0.02144 0.71760 0.76108
 O876 O 0.01961 0.72600 0.78571
 Zr877 Zr 0.02083 0.73869 0.76760
 O878 O 0.00927 0.75267 0.78020
 Zr879 Zr -0.00535 0.73595 0.74431
 O880 O -0.01823 0.74945 0.75611
 Zr881 Zr 0.01905 0.76043 0.74050
 O882 O 0.00711 0.77527 0.75178
 Zr883 Zr -0.01228 0.74865 0.77732
 O884 O -0.00071 0.73364 0.76578
 Zr885 Zr 0.01204 0.77322 0.77314
 O886 O 0.02505 0.75945 0.76169
 Zr887 Zr -0.01437 0.77021 0.75015
 O888 O -0.00256 0.75655 0.73724
 O889 O 0.01602 0.73982 0.74638
 O890 O -0.00931 0.76915 0.77122
 C891 C 0.04597 0.74251 0.74737
 C892 C 0.01382 0.71057 0.75239
 C893 C 0.01157 0.73929 0.71671
 C894 C -0.03862 0.76739 0.77178
 C895 C -0.00677 0.77207 0.79952
 C896 C -0.00968 0.79716 0.76817
 H897 H 0.01205 0.75161 0.79014
 H898 H 0.00898 0.78481 0.74838
 H899 H 0.02171 0.73320 0.74078
 H900 H -0.02825 0.74689 0.75485
 H901 H -0.02383 0.72430 0.77685
 H902 H -0.02703 0.72263 0.75319
 H903 H 0.02515 0.79434 0.76237
 H904 H 0.03940 0.77680 0.74757
 H905 H -0.01587 0.73656 0.80131
 H906 H 0.02708 0.71872 0.78527
 H907 H -0.00854 0.79140 0.73430
 H908 H 0.00778 0.77453 0.72042
 H909 H 0.04135 0.75080 0.78072
 H910 H 0.02823 0.76786 0.79453
 H911 H -0.02186 0.74369 0.72409
 H912 H -0.03638 0.76039 0.73725
 O913 O -0.00086 0.03506 0.01152
 O914 O -0.02486 0.03040 0.00917
 O915 O 0.01643 -0.00163 0.03062
 O916 O 0.01859 -0.02457 0.02591
 O917 O 0.03602 0.01670 -0.00578
 O918 O 0.03098 0.01548 -0.03025
 O919 O -0.01856 -0.03903 -0.00725
 O920 O -0.01616 -0.03430 0.01672
 O921 O -0.03711 -0.00479 -0.02633
 O922 O -0.03366 0.02115 -0.02415
 O923 O -0.00141 -0.02040 -0.04349
 O924 O 0.02353 -0.01975 -0.03843
 O925 O -0.00331 -0.03804 -0.02544
 O926 O 0.02399 -0.03367 -0.02177
 O927 O -0.01888 -0.00404 -0.04360
 O928 O -0.01767 0.02210 -0.03844
 O929 O -0.03639 -0.02205 -0.01007
 O930 O -0.03357 -0.01587 0.01588
 O931 O 0.01612 0.03529 -0.00518
 O932 O 0.01424 0.03028 -0.03047
 O933 O 0.03642 0.00044 0.01150
 O934 O 0.03173 -0.02554 0.00814
 O935 O -0.00022 0.01559 0.03040
 O936 O -0.02569 0.01205 0.02448
 Zr937 Zr -0.00907 0.01470 0.01008
 O938 O -0.02235 0.00228 -0.00263
 Zr939 Zr 0.01654 -0.00937 0.01003
 O940 O 0.00409 -0.02309 -0.00210
 Zr941 Zr 0.01565 0.01522 -0.01438
 O942 O 0.00374 0.00243 -0.02797
 Zr943 Zr -0.01738 -0.01880 0.00101
 O944 O -0.00497 -0.00649 0.01473
 Zr945 Zr -0.01773 0.00556 -0.02380
 O946 O -0.00582 0.01941 -0.01117
 Zr947 Zr 0.00745 -0.01879 -0.02331
 O948 O 0.02104 -0.00593 -0.01118
 O949 O 0.01229 0.01160 0.00669
 O950 O -0.01379 -0.01543 -0.02007
 C951 C 0.00920 0.04100 0.00490
 C952 C 0.00948 0.00832 0.03651
 C953 C 0.04204 0.01045 0.00456
 C954 C -0.01316 -0.04400 -0.01848
 C955 C -0.04204 -0.01590 -0.02068
 C956 C -0.01207 -0.01425 -0.04919
 H957 H -0.03237 0.00422 -0.00060
 H958 H 0.00606 0.00460 -0.03778
 H959 H 0.01807 0.01760 0.01290
 H960 H 0.00636 -0.03292 0.00026
 H961 H -0.01361 -0.02942 0.02555
 H962 H 0.01052 -0.03096 0.02473
 H963 H -0.00990 0.02033 -0.04504
 H964 H 0.00517 0.03527 -0.02921
 H965 H -0.04004 -0.02394 0.01501
 H966 H -0.02491 0.01940 0.03181
 H967 H 0.02354 -0.01065 -0.04331
 H968 H 0.03573 0.00624 -0.02999
 H969 H -0.02520 0.03375 -0.00060
 H970 H -0.04019 0.01927 -0.01640
 H971 H 0.03772 -0.02315 0.00009
 H972 H 0.02053 -0.04173 -0.01637
 O973 O -0.00109 0.53480 0.53154
 O974 O -0.02522 0.53157 0.52963
 O975 O 0.01460 0.49604 0.54803
 O976 O 0.01378 0.47331 0.54213
 O977 O 0.03469 0.51496 0.51298
 O978 O 0.02966 0.51607 0.48867
 O979 O -0.02387 0.46377 0.50714
 O980 O -0.02104 0.46589 0.53126
 O981 O -0.04014 0.50131 0.49216
 O982 O -0.03425 0.52606 0.49527
 O983 O -0.00565 0.48372 0.47297
 O984 O 0.01970 0.48265 0.47788
 O985 O -0.00736 0.46415 0.49007
 O986 O 0.01926 0.46732 0.49247
 O987 O -0.02156 0.50152 0.47398
 O988 O -0.01837 0.52682 0.48129
 O989 O -0.04087 0.48284 0.50700
 O990 O -0.03659 0.48574 0.53299
 O991 O 0.01582 0.53524 0.51481
 O992 O 0.01421 0.53188 0.48946
 O993 O 0.03432 0.49695 0.52840
 O994 O 0.02722 0.47214 0.52412
 O995 O -0.00118 0.51399 0.54913
 O996 O -0.02687 0.51227 0.54345
 Zr997 Zr -0.01031 0.51503 0.52899
 O998 O -0.02443 0.50464 0.51544
 Zr999 Zr 0.01346 0.48938 0.52703
 O1000 O 0.00001 0.47758 0.51389
 Zr1001 Zr 0.01428 0.51572 0.50448
 O1002 O 0.00146 0.50487 0.49004
 Zr1003 Zr -0.02114 0.48303 0.51731
 O1004 O -0.00783 0.49332 0.53194
 Zr1005 Zr -0.01971 0.50921 0.49456
 O1006 O -0.00682 0.52113 0.50816
 Zr1007 Zr 0.00359 0.48316 0.49302
 O1008 O 0.01807 0.49404 0.50608
 O1009 O 0.01083 0.51084 0.52526
 O1010 O -0.01750 0.48766 0.49643
 C1011 C 0.00898 0.54081 0.52502
 C1012 C 0.00827 0.50596 0.55464
 C1013 C 0.04058 0.50704 0.52217
 C1014 C -0.01775 0.45843 0.49642
 C1015 C -0.04631 0.49070 0.49747
 C1016 C -0.01541 0.49140 0.46756
 H1017 H -0.03424 0.50720 0.51778
 H1018 H 0.00391 0.50765 0.48043
 H1019 H 0.01714 0.51606 0.53168
 H1020 H 0.00156 0.46748 0.51550
 H1021 H -0.01782 0.46956 0.54044
 H1022 H 0.00603 0.46687 0.53965
 H1023 H -0.01079 0.52500 0.47448
 H1024 H 0.00541 0.53729 0.49082
 H1025 H -0.04373 0.47831 0.53168
 H1026 H -0.02554 0.51894 0.55133
 H1027 H 0.01964 0.49180 0.47310
 H1028 H 0.03340 0.50641 0.48793
 H1029 H -0.02517 0.53602 0.52030
 H1030 H -0.04013 0.52484 0.50366
 H1031 H 0.03287 0.47416 0.51573
 H1032 H 0.01674 0.46009 0.49936
 O1033 O 0.50547 0.03267 0.52289
 O1034 O 0.48226 0.02563 0.52221
 O1035 O 0.52778 -0.00218 0.54062
 O1036 O 0.53009 -0.02662 0.53455
 O1037 O 0.54355 0.01757 0.50390
 O1038 O 0.53750 0.01658 0.47981
 O1039 O 0.49333 -0.04201 0.50264
 O1040 O 0.49743 -0.03883 0.52650
 O1041 O 0.47116 -0.00878 0.48707
 O1042 O 0.47321 0.01695 0.48850
 O1043 O 0.50730 -0.02196 0.46723
 O1044 O 0.53276 -0.01821 0.47115
 O1045 O 0.50943 -0.04020 0.48527
 O1046 O 0.53522 -0.03287 0.48650
 O1047 O 0.48834 -0.00742 0.46840
 O1048 O 0.48822 0.01896 0.47352
 O1049 O 0.47385 -0.02620 0.50297
 O1050 O 0.47871 -0.02129 0.52850
 O1051 O 0.52139 0.03479 0.50536
 O1052 O 0.51980 0.02978 0.48038
 O1053 O 0.54623 0.00069 0.52041
 O1054 O 0.54379 -0.02463 0.51824
 O1055 O 0.50935 0.01304 0.54170
 O1056 O 0.48409 0.00707 0.53699
 Zr1057 Zr 0.49957 0.01157 0.52181
 O1058 O 0.48687 -0.00163 0.50937
 Zr1059 Zr 0.52698 -0.01017 0.52011
 O1060 O 0.51528 -0.02457 0.50809
 Zr1061 Zr 0.52292 0.01470 0.49624
 O1062 O 0.51148 0.00125 0.48284
 Zr1063 Zr 0.49370 -0.02232 0.51222
 O1064 O 0.50558 -0.00929 0.52582
 Zr1065 Zr 0.49009 0.00241 0.48808
 O1066 O 0.50136 0.01691 0.50052
 Zr1067 Zr 0.51727 -0.01964 0.48683
 O1068 O 0.53017 -0.00601 0.49879
 O1069 O 0.52093 0.01052 0.51740
 O1070 O 0.49591 -0.01830 0.49103
 C1071 C 0.51409 0.03982 0.51553
 C1072 C 0.52012 0.00680 0.54714
 C1073 C 0.55076 0.01116 0.51338
 C1074 C 0.49986 -0.04685 0.49194
 C1075 C 0.46695 -0.01992 0.49318
 C1076 C 0.49579 -0.01682 0.46223
 H1077 H 0.47687 -0.00052 0.51199
 H1078 H 0.51305 0.00381 0.47298
 H1079 H 0.52651 0.01704 0.52328
 H1080 H 0.51850 -0.03420 0.51019
 H1081 H 0.49962 -0.03445 0.53566
 H1082 H 0.52154 -0.02702 0.54035
 H1083 H 0.49517 0.01732 0.46604
 H1084 H 0.51009 0.03342 0.48148
 H1085 H 0.47307 -0.02998 0.52805
 H1086 H 0.48461 0.01424 0.54451
 H1087 H 0.53061 -0.00980 0.46550
 H1088 H 0.54258 0.00752 0.47929
 H1089 H 0.48116 0.02934 0.51261
 H1090 H 0.46769 0.01513 0.49702
 H1091 H 0.54808 -0.02300 0.50900
 H1092 H 0.53415 -0.03994 0.49393
 O1093 O 0.53280 0.51829 -0.00801
 O1094 O 0.52758 0.51693 -0.03178
 O1095 O 0.49572 0.53516 0.01049
 O1096 O 0.47125 0.52865 0.01062
 O1097 O 0.51520 0.49873 0.02850
 O1098 O 0.51613 0.47470 0.02242
 O1099 O 0.45919 0.49628 -0.02629
 O1100 O 0.46187 0.52034 -0.02254
 O1101 O 0.49454 0.48055 -0.04516
 O1102 O 0.52032 0.48304 -0.04119
 O1103 O 0.47984 0.46115 -0.01000
 O1104 O 0.48139 0.46558 0.01536
 O1105 O 0.46108 0.47835 -0.01077
 O1106 O 0.46590 0.48075 0.01590
 O1107 O 0.49535 0.46250 -0.02788
 O1108 O 0.52193 0.46823 -0.02554
 O1109 O 0.47614 0.49580 -0.04390
 O1110 O 0.48051 0.52171 -0.04002
 O1111 O 0.53429 0.50128 0.00857
 O1112 O 0.53067 0.47599 0.00606
 O1113 O 0.49773 0.51509 0.02937
 O1114 O 0.47260 0.51241 0.02459
 O1115 O 0.51237 0.53634 -0.00641
 O1116 O 0.50826 0.53130 -0.03194
 Zr1117 Zr 0.51216 0.51640 -0.01596
 O1118 O 0.50017 0.50355 -0.02948
 Zr1119 Zr 0.48836 0.51448 0.00929
 O1120 O 0.47511 0.50201 -0.00330
 Zr1121 Zr 0.51451 0.49118 0.00783
 O1122 O 0.50221 0.47735 -0.00438
 Zr1123 Zr 0.47883 0.50602 -0.02452
 O1124 O 0.49066 0.52002 -0.01190
 Zr1125 Zr 0.50469 0.48237 -0.02558
 O1126 O 0.51810 0.49528 -0.01341
 Zr1127 Zr 0.48071 0.48094 -0.00051
 O1128 O 0.49312 0.49331 0.01319
 O1129 O 0.50964 0.51217 0.00517
 O1130 O 0.48347 0.48502 -0.02152
 C1131 C 0.53946 0.51160 0.00169
 C1132 C 0.50521 0.54171 0.00367
 C1133 C 0.50795 0.50809 0.03494
 C1134 C 0.45469 0.48497 -0.02071
 C1135 C 0.48301 0.48588 -0.04994
 C1136 C 0.48561 0.45625 -0.02109
 H1137 H 0.50186 0.50604 -0.03935
 H1138 H 0.50497 0.46757 -0.00241
 H1139 H 0.51547 0.51824 0.01127
 H1140 H 0.46515 0.50387 -0.00100
 H1141 H 0.46604 0.52962 -0.02064
 H1142 H 0.47123 0.53421 0.00193
 H1143 H 0.51980 0.46059 -0.01896
 H1144 H 0.53512 0.47747 -0.00313
 H1145 H 0.47214 0.52091 -0.04625
 H1146 H 0.51516 0.53900 -0.03090
 H1147 H 0.49014 0.46007 0.01412
 H1148 H 0.50672 0.47383 0.02668
 H1149 H 0.53164 0.50739 -0.03239
 H1150 H 0.51844 0.49137 -0.04703
 H1151 H 0.47410 0.50319 0.02903
 H1152 H 0.45800 0.48702 0.01328
 O1153 O 0.76879 0.29109 0.50567
 O1154 O 0.76648 0.28680 0.52991
 O1155 O 0.78686 0.25408 0.48905
 O1156 O 0.78242 0.23074 0.49033
 O1157 O 0.75118 0.27191 0.46926
 O1158 O 0.72613 0.27145 0.47409
 O1159 O 0.74709 0.21813 0.52494
 O1160 O 0.77149 0.22121 0.52259
 O1161 O 0.73082 0.25413 0.54295
 O1162 O 0.73355 0.27973 0.53816
 O1163 O 0.71197 0.23812 0.50777
 O1164 O 0.71708 0.23912 0.48204
 O1165 O 0.73016 0.21892 0.50794
 O1166 O 0.73120 0.22330 0.48259
 O1167 O 0.71235 0.25553 0.52402
 O1168 O 0.71871 0.28064 0.52289
 O1169 O 0.74663 0.23619 0.54285
 O1170 O 0.77237 0.24013 0.53934
 O1171 O 0.75174 0.29134 0.48871
 O1172 O 0.72679 0.28747 0.48938
 O1173 O 0.76715 0.25409 0.46958
 O1174 O 0.76459 0.22942 0.47534
 O1175 O 0.78741 0.27103 0.50584
 O1176 O 0.78188 0.26823 0.53096
 Zr1177 Zr 0.76705 0.27092 0.51440
 O1178 O 0.75408 0.25925 0.52776
 Zr1179 Zr 0.76625 0.24605 0.48995
 O1180 O 0.75330 0.23336 0.50225
 Zr1181 Zr 0.74233 0.27155 0.48943
 O1182 O 0.72830 0.26007 0.50176
 Zr1183 Zr 0.75670 0.23783 0.52350
 O1184 O 0.77099 0.24938 0.51126
 Zr1185 Zr 0.73287 0.26345 0.52308
 O1186 O 0.74579 0.27631 0.51071
 Zr1187 Zr 0.73205 0.23864 0.49860
 O1188 O 0.74497 0.25016 0.48495
 O1189 O 0.76343 0.26729 0.49323
 O1190 O 0.73547 0.24209 0.51983
 C1191 C 0.76192 0.29704 0.49560
 C1192 C 0.79311 0.26391 0.49593
 C1193 C 0.76071 0.26426 0.46348
 C1194 C 0.73673 0.21276 0.51802
 C1195 C 0.73676 0.24336 0.54858
 C1196 C 0.70623 0.24545 0.51751
 H1197 H 0.75644 0.26136 0.53764
 H1198 H 0.71851 0.26276 0.49932
 H1199 H 0.76960 0.27295 0.48724
 H1200 H 0.75526 0.22339 0.50020
 H1201 H 0.78060 0.22541 0.51996
 H1202 H 0.77910 0.22293 0.49616
 H1203 H 0.71262 0.27972 0.51448
 H1204 H 0.72738 0.29211 0.49864
 H1205 H 0.77159 0.23208 0.54579
 H1206 H 0.78918 0.27557 0.53022
 H1207 H 0.71096 0.24741 0.48342
 H1208 H 0.72654 0.26217 0.46946
 H1209 H 0.75708 0.29129 0.52922
 H1210 H 0.74155 0.27785 0.54459
 H1211 H 0.75559 0.23080 0.47018
 H1212 H 0.73953 0.21714 0.48371
 O1213 O 0.78263 0.76184 -0.01786
 O1214 O 0.77811 0.73744 -0.01599
 O1215 O 0.74532 0.77933 -0.03496
 O1216 O 0.72191 0.77880 -0.03022
 O1217 O 0.76504 0.79756 -0.00020
 O1218 O 0.76399 0.79306 0.02492
 O1219 O 0.70967 0.74255 0.00402
 O1220 O 0.71221 0.74563 -0.02009
 O1221 O 0.74594 0.72413 0.01949
 O1222 O 0.77116 0.72862 0.01770
 O1223 O 0.73026 0.75997 0.03921
 O1224 O 0.73012 0.78433 0.03491
 O1225 O 0.71044 0.75921 0.02108
 O1226 O 0.71564 0.78554 0.01912
 O1227 O 0.74681 0.74274 0.03824
 O1228 O 0.77260 0.74424 0.03191
 O1229 O 0.72778 0.72453 0.00383
 O1230 O 0.73128 0.72901 -0.02172
 O1231 O 0.78372 0.77811 -0.00038
 O1232 O 0.77956 0.77684 0.02476
 O1233 O 0.74700 0.79801 -0.01607
 O1234 O 0.72136 0.79302 -0.01177
 O1235 O 0.76271 0.76285 -0.03584
 O1236 O 0.75905 0.73728 -0.03115
 Zr1237 Zr 0.76236 0.75321 -0.01598
 O1238 O 0.75075 0.73977 -0.00314
 Zr1239 Zr 0.73769 0.77811 -0.01446
 O1240 O 0.72484 0.76550 -0.00196
 Zr1241 Zr 0.76375 0.77761 0.00904
 O1242 O 0.75193 0.76533 0.02277
 Zr1243 Zr 0.72924 0.74428 -0.00567
 O1244 O 0.74070 0.75685 -0.01971
 Zr1245 Zr 0.75511 0.74407 0.01800
 O1246 O 0.76817 0.75633 0.00517
 Zr1247 Zr 0.73031 0.76877 0.01912
 O1248 O 0.74223 0.78261 0.00670
 O1249 O 0.75900 0.77418 -0.01181
 O1250 O 0.73361 0.74756 0.01547
 C1251 C 0.78892 0.77169 -0.01103
 C1252 C 0.75567 0.77318 -0.04108
 C1253 C 0.75809 0.80330 -0.01033
 C1254 C 0.70435 0.74912 0.01449
 C1255 C 0.73519 0.71853 0.01342
 C1256 C 0.73726 0.74978 0.04464
 H1257 H 0.75281 0.72992 -0.00563
 H1258 H 0.75469 0.76761 0.03252
 H1259 H 0.76486 0.77998 -0.01791
 H1260 H 0.71480 0.76764 -0.00384
 H1261 H 0.71623 0.74879 -0.02905
 H1262 H 0.71419 0.77266 -0.02719
 H1263 H 0.77114 0.75191 0.03873
 H1264 H 0.78446 0.76775 0.02364
 H1265 H 0.72325 0.72247 -0.02097
 H1266 H 0.76625 0.73827 -0.03852
 H1267 H 0.73991 0.78532 0.03837
 H1268 H 0.75505 0.79838 0.02398
 H1269 H 0.78297 0.73797 -0.00680
 H1270 H 0.77023 0.72337 0.00880
 H1271 H 0.72405 0.79890 -0.00363
 H1272 H 0.70813 0.78334 0.01222
 O1273 O 0.98235 0.29303 0.24344
 O1274 O 0.98361 0.28838 0.21966
 O1275 O 0.96262 0.25696 0.26061
 O1276 O 0.96629 0.23368 0.26080
 O1277 O 0.99974 0.27350 0.28007
 O1278 O 1.02413 0.27199 0.27520
 O1279 O 0.99918 0.21872 0.22462
 O1280 O 0.97541 0.22391 0.22635
 O1281 O 1.01827 0.25381 0.20658
 O1282 O 1.01769 0.27899 0.21130
 O1283 O 1.03623 0.23629 0.24196
 O1284 O 1.03179 0.23678 0.26665
 O1285 O 1.01687 0.21841 0.24087
 O1286 O 1.01513 0.22356 0.26727
 O1287 O 1.03649 0.25280 0.22493
 O1288 O 1.03193 0.27916 0.22739
 O1289 O 1.00210 0.23640 0.20674
 O1290 O 0.97623 0.24265 0.20983
 O1291 O 0.99951 0.29268 0.26030
 O1292 O 1.02468 0.28680 0.25902
 O1293 O 0.98234 0.25725 0.28002
 O1294 O 0.98439 0.23159 0.27431
 O1295 O 0.96266 0.27407 0.24415
 O1296 O 0.96791 0.27032 0.21870
 Zr1297 Zr 0.98290 0.27265 0.23515
 O1298 O 0.99536 0.26030 0.22171
 Zr1299 Zr 0.98291 0.24824 0.25983
 O1300 O 0.99466 0.23454 0.24715
 Zr1301 Zr 1.00802 0.27225 0.25979
 O1302 O 1.02125 0.25936 0.24771
 Zr1303 Zr 0.99145 0.23918 0.22587
 O1304 O 0.97795 0.25150 0.23852
 Zr1305 Zr 1.01683 0.26296 0.22647
 O1306 O 1.00448 0.27683 0.23856
 Zr1307 Zr 1.01616 0.23821 0.25078
 O1308 O 1.00440 0.25109 0.26453
 O1309 O 0.98667 0.26923 0.25630
 O1310 O 1.01287 0.24186 0.22962
 C1311 C 0.98960 0.29883 0.25330
 C1312 C 0.95674 0.26713 0.25398
 C1313 C 0.98961 0.26697 0.28596
 C1314 C 1.00948 0.21269 0.23104
 C1315 C 1.01230 0.24307 0.20107
 C1316 C 1.04209 0.24257 0.23172
 H1317 H 0.99319 0.26254 0.21183
 H1318 H 1.03121 0.26128 0.25011
 H1319 H 0.98083 0.27538 0.26226
 H1320 H 0.99201 0.22478 0.24918
 H1321 H 0.96667 0.22882 0.22917
 H1322 H 0.96773 0.22698 0.25304
 H1323 H 1.03906 0.27664 0.23457
 H1324 H 1.02362 0.29186 0.25006
 H1325 H 0.97688 0.23474 0.20312
 H1326 H 0.96063 0.27774 0.21966
 H1327 H 1.03684 0.24580 0.26691
 H1328 H 1.02393 0.26259 0.27949
 H1329 H 0.99343 0.29182 0.21954
 H1330 H 1.00903 0.27841 0.20550
 H1331 H 0.99281 0.23337 0.28024
 H1332 H 1.00775 0.21668 0.26485
 O1333 O 0.75084 1.02967 0.73445
 O1334 O 0.77485 1.02528 0.73744
 O1335 O 0.73446 0.99281 0.71533
 O1336 O 0.73422 0.96830 0.72128
 O1337 O 0.71386 1.01095 0.75088
 O1338 O 0.71839 1.01039 0.77554
 O1339 O 0.76989 0.95631 0.75522
 O1340 O 0.76722 0.95963 0.73110
 O1341 O 0.78740 0.99133 0.77301
 O1342 O 0.78286 1.01695 0.77111
 O1343 O 0.75165 0.97486 0.78986
 O1344 O 0.72615 0.97642 0.78432
 O1345 O 0.75307 0.95701 0.77203
 O1346 O 0.72640 0.96153 0.76863
 O1347 O 0.76902 0.99112 0.79004
 O1348 O 0.76649 1.01754 0.78515
 O1349 O 0.78727 0.97366 0.75702
 O1350 O 0.78441 0.97867 0.73116
 O1351 O 0.73347 1.03013 0.75073
 O1352 O 0.73450 1.02562 0.77585
 O1353 O 0.71411 0.99377 0.73434
 O1354 O 0.71919 0.96899 0.73640
 O1355 O 0.75132 1.00961 0.71574
 O1356 O 0.77660 1.00676 0.72244
 Zr1357 Zr 0.75944 1.00938 0.73629
 O1358 O 0.77262 0.99729 0.74943
 Zr1359 Zr 0.73446 0.98498 0.73587
 O1360 O 0.74672 0.97173 0.74866
 Zr1361 Zr 0.73408 1.01012 0.76002
 O1362 O 0.74600 0.99781 0.77415
 Zr1363 Zr 0.76817 0.97608 0.74598
 O1364 O 0.75600 0.98805 0.73171
 Zr1365 Zr 0.76752 1.00097 0.77043
 O1366 O 0.75557 1.01443 0.75738
 Zr1367 Zr 0.74275 0.97649 0.76971
 O1368 O 0.72931 0.98882 0.75691
 O1369 O 0.73803 1.00612 0.73908
 O1370 O 0.76403 0.97989 0.76691
 C1371 C 0.74066 1.03579 0.74090
 C1372 C 0.74178 1.00237 0.70945
 C1373 C 0.70802 1.00381 0.74099
 C1374 C 0.76360 0.95118 0.76586
 C1375 C 0.79276 0.98027 0.76745
 C1376 C 0.76241 0.98082 0.79549
 H1377 H 0.78263 0.99930 0.74756
 H1378 H 0.74349 1.00017 0.78389
 H1379 H 0.73217 1.01194 0.73273
 H1380 H 0.74471 0.96184 0.74635
 H1381 H 0.76572 0.96401 0.72184
 H1382 H 0.74321 0.96867 0.71618
 H1383 H 0.75941 1.01509 0.79224
 H1384 H 0.74382 1.03017 0.77533
 H1385 H 0.79082 0.97048 0.73199
 H1386 H 0.77584 1.01392 0.71498
 H1387 H 0.72709 0.98490 0.79021
 H1388 H 0.71413 1.00097 0.77547
 H1389 H 0.77458 1.02912 0.74706
 H1390 H 0.78916 1.01554 0.76305
 H1391 H 0.71432 0.96992 0.74546
 H1392 H 0.72921 0.95419 0.76188
 O1393 O 0.75416 0.53631 0.22409
 O1394 O 0.77790 0.53089 0.22541
 O1395 O 0.73581 0.50061 0.20375
 O1396 O 0.73596 0.47573 0.20857
 O1397 O 0.71651 0.51718 0.24043
 O1398 O 0.72165 0.51632 0.26469
 O1399 O 0.77193 0.46195 0.24167
 O1400 O 0.76911 0.46571 0.21816
 O1401 O 0.79022 0.49636 0.26011
 O1402 O 0.78606 0.52184 0.25929
 O1403 O 0.75401 0.48036 0.27745
 O1404 O 0.72885 0.48152 0.27188
 O1405 O 0.75511 0.46224 0.25847
 O1406 O 0.72888 0.46729 0.25620
 O1407 O 0.77154 0.49642 0.27810
 O1408 O 0.77019 0.52251 0.27334
 O1409 O 0.79029 0.47986 0.24293
 O1410 O 0.78582 0.48487 0.21748
 O1411 O 0.73692 0.53648 0.24049
 O1412 O 0.73788 0.53096 0.26525
 O1413 O 0.71621 0.50074 0.22316
 O1414 O 0.72121 0.47583 0.22414
 O1415 O 0.75256 0.51752 0.20432
 O1416 O 0.77815 0.51281 0.20975
 Zr1417 Zr 0.76179 0.51568 0.22446
 O1418 O 0.77504 0.50312 0.23710
 Zr1419 Zr 0.73653 0.49179 0.22386
 O1420 O 0.74892 0.47802 0.23597
 Zr1421 Zr 0.73701 0.51607 0.24885
 O1422 O 0.74896 0.50317 0.26230
 Zr1423 Zr 0.77041 0.48206 0.23312
 O1424 O 0.75804 0.49456 0.21936
 Zr1425 Zr 0.77044 0.50614 0.25835
 O1426 O 0.75849 0.52011 0.24583
 Zr1427 Zr 0.74539 0.48206 0.25723
 O1428 O 0.73189 0.49497 0.24512
 O1429 O 0.74039 0.51279 0.22771
 O1430 O 0.76681 0.48510 0.25438
 C1431 C 0.74442 0.54245 0.23110
 C1432 C 0.74264 0.51066 0.19813
 C1433 C 0.71031 0.51039 0.23052
 C1434 C 0.76526 0.45633 0.25182
 C1435 C 0.79601 0.48622 0.25340
 C1436 C 0.76431 0.48657 0.28361
 H1437 H 0.78501 0.50514 0.23503
 H1438 H 0.74655 0.50530 0.27212
 H1439 H 0.73442 0.51903 0.22191
 H1440 H 0.74670 0.46825 0.23334
 H1441 H 0.76650 0.47010 0.20914
 H1442 H 0.74460 0.47663 0.20296
 H1443 H 0.76243 0.52069 0.27989
 H1444 H 0.74722 0.53547 0.26471
 H1445 H 0.79237 0.47677 0.21789
 H1446 H 0.77730 0.52020 0.20252
 H1447 H 0.72954 0.49006 0.27771
 H1448 H 0.71721 0.50697 0.26454
 H1449 H 0.77830 0.53428 0.23520
 H1450 H 0.79217 0.52066 0.25105
 H1451 H 0.71647 0.47653 0.23329
 H1452 H 0.73096 0.46064 0.24853
 O1453 O 0.49557 0.21522 0.73131
 O1454 O 0.47183 0.22127 0.73154
 O1455 O 0.51586 0.25142 0.71498
 O1456 O 0.51693 0.27567 0.72169
 O1457 O 0.53252 0.23138 0.75166
 O1458 O 0.52634 0.23167 0.77567
 O1459 O 0.47926 0.28899 0.75276
 O1460 O 0.48331 0.28609 0.72884
 O1461 O 0.45853 0.25395 0.76723
 O1462 O 0.46225 0.22852 0.76524
 O1463 O 0.49383 0.26865 0.78819
 O1464 O 0.51959 0.26590 0.78500
 O1465 O 0.49476 0.28699 0.77099
 O1466 O 0.52127 0.28112 0.76988
 O1467 O 0.47549 0.25360 0.78600
 O1468 O 0.47755 0.22699 0.78066
 O1469 O 0.46092 0.27250 0.75266
 O1470 O 0.46529 0.26805 0.72672
 O1471 O 0.51132 0.21330 0.74936
 O1472 O 0.50942 0.21771 0.77439
 O1473 O 0.53436 0.24866 0.73550
 O1474 O 0.53053 0.27394 0.73852
 O1475 O 0.49852 0.23517 0.71321
 O1476 O 0.47291 0.24028 0.71716
 Zr1477 Zr 0.48839 0.23598 0.73276
 O1478 O 0.47487 0.24833 0.74514
 Zr1479 Zr 0.51456 0.25882 0.73570
 O1480 O 0.50201 0.27244 0.74773
 Zr1481 Zr 0.51173 0.23324 0.75892
 O1482 O 0.49947 0.24585 0.77231
 Zr1483 Zr 0.48059 0.26937 0.74299
 O1484 O 0.49326 0.25718 0.72940
 Zr1485 Zr 0.47820 0.24386 0.76641
 O1486 O 0.49034 0.23017 0.75396
 Zr1487 Zr 0.50415 0.26704 0.76891
 O1488 O 0.51786 0.25427 0.75701
 O1489 O 0.50962 0.23786 0.73782
 O1490 O 0.48299 0.26482 0.76405
 C1491 C 0.50449 0.20825 0.73878
 C1492 C 0.50893 0.24203 0.70819
 C1493 C 0.53938 0.23818 0.74239
 C1494 C 0.48502 0.29352 0.76412
 C1495 C 0.45424 0.26559 0.76200
 C1496 C 0.48227 0.26330 0.79249
 H1497 H 0.46495 0.24686 0.74226
 H1498 H 0.50109 0.24315 0.78216
 H1499 H 0.51557 0.23171 0.73196
 H1500 H 0.50470 0.28225 0.74596
 H1501 H 0.48549 0.28185 0.71965
 H1502 H 0.50819 0.27613 0.71598
 H1503 H 0.48353 0.22939 0.78885
 H1504 H 0.49993 0.21367 0.77299
 H1505 H 0.45914 0.27642 0.72748
 H1506 H 0.47385 0.23327 0.70954
 H1507 H 0.51773 0.25739 0.79052
 H1508 H 0.53088 0.24093 0.77651
 H1509 H 0.47107 0.21706 0.74094
 H1510 H 0.45679 0.23016 0.75652
 H1511 H 0.53493 0.27210 0.74777
 H1512 H 0.51942 0.28868 0.76306
 O1513 O 0.21225 0.73313 0.50084
 O1514 O 0.21696 0.73446 0.47708
 O1515 O 0.25002 0.71628 0.51897
 O1516 O 0.27450 0.72330 0.51940
 O1517 O 0.23037 0.75252 0.53745
 O1518 O 0.22984 0.77668 0.53177
 O1519 O 0.28520 0.75576 0.48255
 O1520 O 0.28334 0.73189 0.48619
 O1521 O 0.24891 0.77016 0.46357
 O1522 O 0.22345 0.76803 0.46811
 O1523 O 0.26543 0.79004 0.49803
 O1524 O 0.26322 0.78636 0.52410
 O1525 O 0.28440 0.77249 0.49953
 O1526 O 0.27912 0.77197 0.52501
 O1527 O 0.24828 0.78908 0.48130
 O1528 O 0.22234 0.78297 0.48325
 O1529 O 0.26724 0.75479 0.46450
 O1530 O 0.26403 0.72920 0.46939
 O1531 O 0.21104 0.75050 0.51718
 O1532 O 0.21476 0.77559 0.51560
 O1533 O 0.24789 0.73619 0.53810
 O1534 O 0.27287 0.73927 0.53371
 O1535 O 0.23295 0.71503 0.50217
 O1536 O 0.23618 0.72005 0.47683
 Zr1537 Zr 0.23271 0.73500 0.49293
 O1538 O 0.24432 0.74782 0.47948
 Zr1539 Zr 0.25704 0.73709 0.51814
 O1540 O 0.26987 0.74964 0.50560
 Zr1541 Zr 0.23088 0.76030 0.51690
 O1542 O 0.24269 0.77414 0.50460
 Zr1543 Zr 0.26580 0.74557 0.48435
 O1544 O 0.25433 0.73153 0.49692
 Zr1545 Zr 0.23970 0.76896 0.48341
 O1546 O 0.22673 0.75610 0.49567
 Zr1547 Zr 0.26428 0.77073 0.50838
 O1548 O 0.25240 0.75827 0.52213
 O1549 O 0.23566 0.73928 0.51407
 O1550 O 0.26114 0.76663 0.48725
 C1551 C 0.20571 0.74015 0.51029
 C1552 C 0.24051 0.70962 0.51201
 C1553 C 0.23767 0.74301 0.54373
 C1554 C 0.29048 0.76617 0.48931
 C1555 C 0.25981 0.76422 0.45829
 C1556 C 0.25863 0.79517 0.48753
 H1557 H 0.24235 0.74516 0.46964
 H1558 H 0.23991 0.78391 0.50658
 H1559 H 0.22993 0.73314 0.52004
 H1560 H 0.27988 0.74781 0.50794
 H1561 H 0.27960 0.72261 0.48871
 H1562 H 0.27428 0.71747 0.51083
 H1563 H 0.22403 0.79016 0.49053
 H1564 H 0.21025 0.77445 0.50629
 H1565 H 0.27212 0.72993 0.46297
 H1566 H 0.22923 0.71241 0.47777
 H1567 H 0.25528 0.79270 0.52176
 H1568 H 0.23946 0.77764 0.53574
 H1569 H 0.21246 0.74382 0.47694
 H1570 H 0.22501 0.75950 0.46242
 H1571 H 0.27123 0.74842 0.53832
 H1572 H 0.28556 0.76384 0.52420
 O1573 O 0.27160 0.28634 0.98986
 O1574 O 0.27051 0.28180 1.01451
 O1575 O 0.28578 0.24888 0.97165
 O1576 O 0.27989 0.22576 0.97265
 O1577 O 0.25071 0.26988 0.95495
 O1578 O 0.22576 0.27028 0.96077
 O1579 O 0.24508 0.21574 1.01073
 O1580 O 0.26990 0.21594 1.00582
 O1581 O 0.23390 0.25203 1.02918
 O1582 O 0.23694 0.27712 1.02428
 O1583 O 0.21226 0.23590 0.99579
 O1584 O 0.21496 0.23884 0.96914
 O1585 O 0.22858 0.21668 0.99327
 O1586 O 0.22839 0.22189 0.96804
 O1587 O 0.21448 0.25292 1.01234
 O1588 O 0.22134 0.27872 1.00931
 O1589 O 0.24851 0.23315 1.02820
 O1590 O 0.27419 0.23480 1.02235
 O1591 O 0.25325 0.28842 0.97438
 O1592 O 0.22784 0.28571 0.97687
 O1593 O 0.26595 0.25143 0.95384
 O1594 O 0.26072 0.22626 0.95885
 O1595 O 0.28846 0.26597 0.98812
 O1596 O 0.28483 0.26211 1.01382
 Zr1597 Zr 0.26894 0.26635 0.99864
 O1598 O 0.25600 0.25544 1.01259
 Zr1599 Zr 0.26488 0.24214 0.97380
 O1600 O 0.25211 0.22996 0.98683
 Zr1601 Zr 0.24259 0.26915 0.97538
 O1602 O 0.22862 0.25812 0.98823
 Zr1603 Zr 0.25705 0.23397 1.00795
 O1604 O 0.27128 0.24469 0.99485
 Zr1605 Zr 0.23481 0.26099 1.00919
 O1606 O 0.24787 0.27327 0.99643
 Zr1607 Zr 0.23110 0.23658 0.98445
 O1608 O 0.24367 0.24773 0.97019
 O1609 O 0.26346 0.26334 0.97788
 O1610 O 0.23611 0.23968 1.00540
 C1611 C 0.26464 0.29293 0.98026
 C1612 C 0.29278 0.25886 0.97749
 C1613 C 0.26030 0.26262 0.94877
 C1614 C 0.23427 0.21092 1.00407
 C1615 C 0.23949 0.24097 1.03451
 C1616 C 0.20791 0.24264 1.00659
 H1617 H 0.25913 0.25730 1.02233
 H1618 H 0.21883 0.26126 0.98653
 H1619 H 0.26958 0.26886 0.97176
 H1620 H 0.25326 0.21991 0.98461
 H1621 H 0.27909 0.21923 1.00233
 H1622 H 0.27642 0.21803 0.97850
 H1623 H 0.21330 0.27682 1.00293
 H1624 H 0.22953 0.29025 0.98606
 H1625 H 0.27324 0.22684 1.02888
 H1626 H 0.29250 0.26901 1.01265
 H1627 H 0.20825 0.24605 0.97245
 H1628 H 0.22520 0.26098 0.95622
 H1629 H 0.26168 0.28734 1.01411
 H1630 H 0.24586 0.27545 1.02946
 H1631 H 0.25222 0.22922 0.95352
 H1632 H 0.23653 0.21541 0.96834
 C1633 C 0.30187 0.39613 0.82322
 C1634 C 0.30665 0.40283 0.81101
 C1635 C 0.32102 0.40108 0.80754
 C1636 C 0.33025 0.39361 0.81637
 C1637 C 0.32541 0.38714 0.82854
 C1638 C 0.31104 0.38839 0.83170
 C1639 C 0.32612 0.40658 0.79514
 C1640 C 0.31744 0.41427 0.78628
 C1641 C 0.30317 0.41682 0.78947
 C1642 C 0.29767 0.41104 0.80207
 C1643 C 0.28345 0.41379 0.80538
 C1644 C 0.27499 0.42217 0.79691
 C1645 C 0.28027 0.42815 0.78480
 C1646 C 0.29427 0.42520 0.78063
 C1647 C 0.29881 0.43093 0.76784
 C1648 C 0.29019 0.43997 0.76015
 C1649 C 0.27676 0.44373 0.76489
 C1650 C 0.27170 0.43740 0.77703
 H1651 H 0.29103 0.39636 0.82640
 H1652 H 0.34124 0.39280 0.81360
 H1653 H 0.30665 0.38318 0.84064
 H1654 H 0.33698 0.40486 0.79220
 H1655 H 0.32240 0.41827 0.77706
 H1656 H 0.27856 0.40989 0.81467
 H1657 H 0.26420 0.42411 0.79998
 H1658 H 0.30905 0.42888 0.76353
 H1659 H 0.29444 0.44458 0.75077
 H1660 H 0.26130 0.44011 0.78079
 C1661 C 0.28576 -0.11512 0.31095
 C1662 C 0.28824 -0.11028 0.29723
 C1663 C 0.29836 -0.11760 0.28921
 C1664 C 0.30581 -0.12900 0.29484
 C1665 C 0.30341 -0.13365 0.30856
 C1666 C 0.29314 -0.12653 0.31643
 C1667 C 0.30106 -0.11354 0.27552
 C1668 C 0.29407 -0.10225 0.26959
 C1669 C 0.28407 -0.09439 0.27718
 C1670 C 0.28111 -0.09845 0.29125
 C1671 C 0.27129 -0.09043 0.29892
 C1672 C 0.26475 -0.07875 0.29319
 C1673 C 0.26762 -0.07459 0.27957
 C1674 C 0.27716 -0.08241 0.27127
 C1675 C 0.27957 -0.07771 0.25747
 C1676 C 0.27334 -0.06544 0.25248
 C1677 C 0.26433 -0.05753 0.26093
 C1678 C 0.26124 -0.06238 0.27436
 H1679 H 0.27819 -0.11034 0.31780
 H1680 H 0.31325 -0.13440 0.28823
 H1681 H 0.29094 -0.12942 0.32709
 H1682 H 0.30875 -0.11915 0.26930
 H1683 H 0.29693 -0.09987 0.25901
 H1684 H 0.26853 -0.09274 0.30955
 H1685 H 0.25747 -0.07280 0.29958
 H1686 H 0.28638 -0.08308 0.25027
 H1687 H 0.27584 -0.06200 0.24202
 H1688 H 0.25435 -0.05630 0.28105
 C1689 C 0.80371 0.89944 0.83196
 C1690 C 0.80376 0.89981 0.81720
 C1691 C 0.81426 0.89191 0.81025
 C1692 C 0.82413 0.88388 0.81790
 C1693 C 0.82375 0.88337 0.83261
 C1694 C 0.81342 0.89140 0.83943
 C1695 C 0.81487 0.89204 0.79568
 C1696 C 0.80569 0.90032 0.78784
 C1697 C 0.79527 0.90867 0.79429
 C1698 C 0.79393 0.90795 0.80917
 C1699 C 0.78278 0.91535 0.81553
 C1700 C 0.77388 0.92397 0.80782
 C1701 C 0.77576 0.92568 0.79352
 C1702 C 0.78625 0.91786 0.78642
 C1703 C 0.78755 0.92001 0.77184
 C1704 C 0.77957 0.93024 0.76494
 C1705 C 0.76974 0.93840 0.77221
 C1706 C 0.76750 0.93562 0.78639
 H1707 H 0.79638 0.90535 0.83815
 H1708 H 0.83179 0.87771 0.81223
 H1709 H 0.81293 0.89180 0.85071
 H1710 H 0.82277 0.88591 0.79026
 H1711 H 0.80706 0.89994 0.77669
 H1712 H 0.78051 0.91466 0.82650
 H1713 H 0.76558 0.92956 0.81320
 H1714 H 0.79509 0.91445 0.76554
 H1715 H 0.78150 0.93214 0.75397
 H1716 H 0.75999 0.94189 0.79219
 C1717 C 0.43711 0.86046 0.29220
 C1718 C 0.45030 0.85463 0.29599
 C1719 C 0.45736 0.86048 0.30774
 C1720 C 0.45157 0.87196 0.31500
 C1721 C 0.43856 0.87797 0.31092
 C1722 C 0.43143 0.87180 0.29946
 C1723 C 0.47023 0.85488 0.31219
 C1724 C 0.47629 0.84358 0.30529
 C1725 C 0.46978 0.83743 0.29343
 C1726 C 0.45665 0.84318 0.28859
 C1727 C 0.45038 0.83740 0.27642
 C1728 C 0.45652 0.82626 0.26937
 C1729 C 0.46909 0.82030 0.27413
 C1730 C 0.47596 0.82577 0.28620
 C1731 C 0.48866 0.81919 0.29057
 C1732 C 0.49408 0.80764 0.28339
 C1733 C 0.48713 0.80218 0.27158
 C1734 C 0.47470 0.80874 0.26693
 H1735 H 0.43073 0.85643 0.28375
 H1736 H 0.45749 0.87624 0.32372
 H1737 H 0.42122 0.87546 0.29598
 H1738 H 0.47571 0.85928 0.32118
 H1739 H 0.48623 0.83999 0.30949
 H1740 H 0.44073 0.84133 0.27189
 H1741 H 0.45130 0.82223 0.26006
 H1742 H 0.49458 0.82251 0.29965
 H1743 H 0.50365 0.80279 0.28734
 H1744 H 0.46911 0.80461 0.25788
 C1745 C -0.07732 0.84314 0.81171
 C1746 C -0.06251 0.84404 0.81109
 C1747 C -0.05560 0.85237 0.82130
 C1748 C -0.06339 0.85997 0.83126
 C1749 C -0.07825 0.85966 0.83121
 C1750 C -0.08496 0.85078 0.82149
 C1751 C -0.04092 0.85321 0.82141
 C1752 C -0.03291 0.84555 0.81196
 C1753 C -0.03932 0.83701 0.80164
 C1754 C -0.05437 0.83679 0.80080
 C1755 C -0.06080 0.82959 0.78954
 C1756 C -0.05290 0.82202 0.78001
 C1757 C -0.03832 0.82104 0.78145
 C1758 C -0.03123 0.82866 0.79212
 C1759 C -0.01640 0.82717 0.79308
 C1760 C -0.00916 0.81781 0.78442
 C1761 C -0.01639 0.80974 0.77442
 C1762 C -0.03090 0.81195 0.77258
 H1763 H -0.08336 0.83651 0.80484
 H1764 H -0.05775 0.86657 0.83860
 H1765 H -0.09627 0.84953 0.82142
 H1766 H -0.03552 0.85968 0.82909
 H1767 H -0.02167 0.84670 0.81289
 H1768 H -0.07199 0.82981 0.78760
 H1769 H -0.05831 0.81664 0.77156
 H1770 H -0.01014 0.83248 0.80089
 H1771 H 0.00204 0.81633 0.78611
 H1772 H -0.03669 0.80576 0.76496
 C1773 C -0.06447 -0.09161 -0.07949
 C1774 C -0.06045 -0.09342 -0.06534
 C1775 C -0.06733 -0.10392 -0.05759
 C1776 C -0.07693 -0.11300 -0.06424
 C1777 C -0.07998 -0.11161 -0.07856
 C1778 C -0.07395 -0.10065 -0.08597
 C1779 C -0.06450 -0.10532 -0.04330
 C1780 C -0.05505 -0.09644 -0.03650
 C1781 C -0.04764 -0.08611 -0.04389
 C1782 C -0.04993 -0.08506 -0.05865
 C1783 C -0.04127 -0.07609 -0.06639
 C1784 C -0.03129 -0.06775 -0.05987
 C1785 C -0.02983 -0.06764 -0.04538
 C1786 C -0.03793 -0.07680 -0.03710
 C1787 C -0.03632 -0.07585 -0.02238
 C1788 C -0.02757 -0.06575 -0.01626
 C1789 C -0.01982 -0.05660 -0.02457
 C1790 C -0.02064 -0.05798 -0.03913
 H1791 H -0.06060 -0.08319 -0.08577
 H1792 H -0.08175 -0.12136 -0.05839
 H1793 H -0.07657 -0.09916 -0.09691
 H1794 H -0.06976 -0.11328 -0.03727
 H1795 H -0.05347 -0.09821 -0.02548
 H1796 H -0.04163 -0.07564 -0.07763
 H1797 H -0.02481 -0.06112 -0.06625
 H1798 H -0.04228 -0.08218 -0.01530
 H1799 H -0.02727 -0.06475 -0.00497
 H1800 H -0.01495 -0.05075 -0.04568
 C1801 C -0.03881 0.38519 0.44071
 C1802 C -0.04273 0.39051 0.45395
 C1803 C -0.05297 0.38297 0.46144
 C1804 C -0.05894 0.37069 0.45584
 C1805 C -0.05494 0.36540 0.44266
 C1806 C -0.04476 0.37297 0.43525
 C1807 C -0.05724 0.38766 0.47457
 C1808 C -0.05157 0.39967 0.48050
 C1809 C -0.04131 0.40761 0.47353
 C1810 C -0.03683 0.40298 0.46000
 C1811 C -0.02662 0.41096 0.45299
 C1812 C -0.02095 0.42299 0.45893
 C1813 C -0.02515 0.42761 0.47210
 C1814 C -0.03540 0.42004 0.47961
 C1815 C -0.03932 0.42531 0.49289
 C1816 C -0.03343 0.43755 0.49833
 C1817 C -0.02334 0.44501 0.49084
 C1818 C -0.01921 0.43989 0.47772
 H1819 H -0.03117 0.39019 0.43421
 H1820 H -0.06654 0.36521 0.46209
 H1821 H -0.04134 0.36975 0.42500
 H1822 H -0.06507 0.38195 0.48037
 H1823 H -0.05552 0.40243 0.49066
 H1824 H -0.02273 0.40824 0.44280
 H1825 H -0.01317 0.42876 0.45311
 H1826 H -0.04699 0.42033 0.49939
 H1827 H -0.03689 0.44122 0.50847
 H1828 H -0.01153 0.44561 0.47172
 C1829 C 0.44369 -0.11685 0.46517
 C1830 C 0.45758 -0.11235 0.46253
 C1831 C 0.46514 -0.11944 0.45194
 C1832 C 0.45905 -0.13062 0.44453
 C1833 C 0.44524 -0.13512 0.44728
 C1834 C 0.43772 -0.12796 0.45775
 C1835 C 0.47881 -0.11538 0.44874
 C1836 C 0.48511 -0.10422 0.45562
 C1837 C 0.47801 -0.09666 0.46615
 C1838 C 0.46412 -0.10101 0.46989
 C1839 C 0.45727 -0.09388 0.48088
 C1840 C 0.46351 -0.08266 0.48769
 C1841 C 0.47677 -0.07798 0.48382
 C1842 C 0.48427 -0.08487 0.47302
 C1843 C 0.49758 -0.07939 0.46936
 C1844 C 0.50290 -0.06740 0.47588
 C1845 C 0.49530 -0.06058 0.48638
 C1846 C 0.48237 -0.06615 0.49049
 H1847 H 0.43700 -0.11190 0.47276
 H1848 H 0.46538 -0.13590 0.43679
 H1849 H 0.42698 -0.13059 0.46016
 H1850 H 0.48470 -0.12083 0.44071
 H1851 H 0.49568 -0.10186 0.45247
 H1852 H 0.44702 -0.09673 0.48458
 H1853 H 0.45776 -0.07744 0.49597
 H1854 H 0.50399 -0.08381 0.46122
 H1855 H 0.51289 -0.06329 0.47244
 H1856 H 0.47627 -0.06090 0.49850
 C1857 C 0.44493 0.40026 -0.08398
 C1858 C 0.44501 0.40197 -0.06929
 C1859 C 0.43457 0.39484 -0.06167
 C1860 C 0.42447 0.38652 -0.06858
 C1861 C 0.42452 0.38484 -0.08324
 C1862 C 0.43494 0.39193 -0.09075
 C1863 C 0.43419 0.39605 -0.04714
 C1864 C 0.44362 0.40459 -0.03998
 C1865 C 0.45395 0.41230 -0.04709
 C1866 C 0.45491 0.41067 -0.06195
 C1867 C 0.46566 0.41787 -0.06898
 C1868 C 0.47448 0.42713 -0.06199
 C1869 C 0.47310 0.42953 -0.04769
 C1870 C 0.46315 0.42185 -0.03991
 C1871 C 0.46256 0.42442 -0.02533
 C1872 C 0.47057 0.43498 -0.01908
 C1873 C 0.47969 0.44315 -0.02701
 C1874 C 0.48133 0.43994 -0.04122
 H1875 H 0.45240 0.40524 -0.09065
 H1876 H 0.41685 0.38109 -0.06232
 H1877 H 0.43534 0.39135 -0.10202
 H1878 H 0.42631 0.39053 -0.04121
 H1879 H 0.44236 0.40505 -0.02882
 H1880 H 0.46756 0.41664 -0.07999
 H1881 H 0.48238 0.43262 -0.06791
 H1882 H 0.45564 0.41886 -0.01849
 H1883 H 0.46917 0.43710 -0.00804
 H1884 H 0.48836 0.44615 -0.04751
 C1885 C 0.78216 0.36955 0.44063
 C1886 C 0.78343 0.36611 0.45501
 C1887 C 0.79101 0.37544 0.46379
 C1888 C 0.79686 0.38767 0.45836
 C1889 C 0.79583 0.39075 0.44404
 C1890 C 0.78830 0.38163 0.43529
 C1891 C 0.79294 0.37245 0.47794
 C1892 C 0.78799 0.36009 0.48356
 C1893 C 0.78062 0.35028 0.47525
 C1894 C 0.77776 0.35363 0.46089
 C1895 C 0.76928 0.34442 0.45293
 C1896 C 0.76419 0.33215 0.45859
 C1897 C 0.76755 0.32837 0.47229
 C1898 C 0.77591 0.33726 0.48083
 C1899 C 0.77948 0.33254 0.49447
 C1900 C 0.77485 0.31960 0.49935
 C1901 C 0.76639 0.31104 0.49090
 C1902 C 0.76273 0.31558 0.47741
 H1903 H 0.77691 0.36292 0.43311
 H1904 H 0.80239 0.39475 0.46534
 H1905 H 0.78748 0.38359 0.42418
 H1906 H 0.79859 0.37965 0.48473
 H1907 H 0.78993 0.35863 0.49458
 H1908 H 0.76616 0.34651 0.44228
 H1909 H 0.75770 0.32542 0.45207
 H1910 H 0.78616 0.33839 0.50152
 H1911 H 0.77795 0.31628 0.50976
 H1912 H 0.75642 0.30893 0.47062
 C1913 C 0.82620 0.84491 -0.05624
 C1914 C 0.81135 0.84564 -0.05618
 C1915 C 0.80459 0.85293 -0.06726
 C1916 C 0.81256 0.85976 -0.07753
 C1917 C 0.82741 0.85977 -0.07686
 C1918 C 0.83399 0.85185 -0.06627
 C1919 C 0.78991 0.85363 -0.06787
 C1920 C 0.78176 0.84684 -0.05801
 C1921 C 0.78800 0.83942 -0.04679
 C1922 C 0.80304 0.83930 -0.04557
 C1923 C 0.80928 0.83313 -0.03361
 C1924 C 0.80122 0.82662 -0.02358
 C1925 C 0.78666 0.82571 -0.02514
 C1926 C 0.77976 0.83213 -0.03669
 C1927 C 0.76496 0.83050 -0.03787
 C1928 C 0.75760 0.82217 -0.02846
 C1929 C 0.76463 0.81536 -0.01744
 C1930 C 0.77908 0.81778 -0.01551
 H1931 H 0.83217 0.83902 -0.04867
 H1932 H 0.80705 0.86563 -0.08555
 H1933 H 0.84532 0.85087 -0.06568
 H1934 H 0.78463 0.85932 -0.07620
 H1935 H 0.77052 0.84785 -0.05933
 H1936 H 0.82043 0.83337 -0.03150
 H1937 H 0.80651 0.82197 -0.01463
 H1938 H 0.75887 0.83486 -0.04637
 H1939 H 0.74647 0.82041 -0.03033
 H1940 H 0.78476 0.81245 -0.00717
 C1941 C 0.78855 0.31231 0.38866
 C1942 C 0.78831 0.29819 0.39302
 C1943 C 0.79503 0.28812 0.38438
 C1944 C 0.80119 0.29207 0.37167
 C1945 C 0.80087 0.30604 0.36733
 C1946 C 0.79468 0.31609 0.37606
 C1947 C 0.79550 0.27413 0.38839
 C1948 C 0.78959 0.26986 0.40088
 C1949 C 0.78272 0.27944 0.40985
 C1950 C 0.78177 0.29378 0.40568
 C1951 C 0.77414 0.30319 0.41421
 C1952 C 0.76803 0.29890 0.42658
 C1953 C 0.76934 0.28512 0.43108
 C1954 C 0.77672 0.27516 0.42284
 C1955 C 0.77801 0.26140 0.42813
 C1956 C 0.77243 0.25784 0.44107
 C1957 C 0.76524 0.26776 0.44916
 C1958 C 0.76353 0.28134 0.44397
 H1959 H 0.78424 0.32076 0.39478
 H1960 H 0.80597 0.28422 0.36501
 H1961 H 0.79467 0.32703 0.37321
 H1962 H 0.80057 0.26637 0.38181
 H1963 H 0.79041 0.25886 0.40307
 H1964 H 0.77250 0.31401 0.41155
 H1965 H 0.76233 0.30654 0.43278
 H1966 H 0.78358 0.25318 0.42275
 H1967 H 0.77395 0.24727 0.44486
 H1968 H 0.75816 0.28916 0.45024
 C1969 C 0.81988 0.80211 -0.10145
 C1970 C 0.80754 0.80727 -0.09507
 C1971 C 0.80444 0.82168 -0.09665
 C1972 C 0.81366 0.83054 -0.10379
 C1973 C 0.82604 0.82533 -0.10999
 C1974 C 0.82889 0.81092 -0.10867
 C1975 C 0.79205 0.82723 -0.09121
 C1976 C 0.78285 0.81895 -0.08376
 C1977 C 0.78568 0.80464 -0.08141
 C1978 C 0.79821 0.79867 -0.08720
 C1979 C 0.80113 0.78439 -0.08470
 C1980 C 0.79249 0.77636 -0.07637
 C1981 C 0.78053 0.78213 -0.07025
 C1982 C 0.77663 0.79618 -0.07308
 C1983 C 0.76401 0.80126 -0.06710
 C1984 C 0.75644 0.79318 -0.05772
 C1985 C 0.76111 0.77976 -0.05395
 C1986 C 0.77281 0.77407 -0.06079
 H1987 H 0.82290 0.79125 -0.10121
 H1988 H 0.81110 0.84155 -0.10431
 H1989 H 0.83791 0.80610 -0.11353
 H1990 H 0.78942 0.83816 -0.09277
 H1991 H 0.77369 0.82423 -0.07977
 H1992 H 0.81029 0.77911 -0.08869
 H1993 H 0.79539 0.76555 -0.07443
 H1994 H 0.75988 0.81158 -0.06909
 H1995 H 0.74737 0.79789 -0.05273
 H1996 H 0.77649 0.76366 -0.05811
 C1997 C 0.29988 0.42341 0.84782
 C1998 C 0.30107 0.43805 0.84641
 C1999 C 0.31242 0.44473 0.85343
 C2000 C 0.32191 0.43695 0.86179
 C2001 C 0.32053 0.42238 0.86308
 C2002 C 0.30943 0.41580 0.85593
 C2003 C 0.31443 0.45908 0.85183
 C2004 C 0.30578 0.46686 0.84293
 C2005 C 0.29452 0.46063 0.83547
 C2006 C 0.29170 0.44615 0.83784
 C2007 C 0.27963 0.44021 0.83151
 C2008 C 0.27150 0.44765 0.82198
 C2009 C 0.27507 0.46123 0.81831
 C2010 C 0.28621 0.46819 0.82540
 C2011 C 0.28892 0.48221 0.82156
 C2012 C 0.28199 0.48834 0.81014
 C2013 C 0.27179 0.48092 0.80249
 C2014 C 0.26788 0.46764 0.80716
 H2015 H 0.29189 0.41741 0.84250
 H2016 H 0.33035 0.44231 0.86723
 H2017 H 0.30814 0.40460 0.85641
 H2018 H 0.32304 0.46429 0.85721
 H2019 H 0.30829 0.47779 0.84205
 H2020 H 0.27614 0.42976 0.83371
 H2021 H 0.26252 0.44256 0.81712
 H2022 H 0.29690 0.48846 0.82662
 H2023 H 0.28507 0.49873 0.80693
 H2024 H 0.25988 0.46180 0.80148
 C2025 C 0.31515 -0.04062 0.36015
 C2026 C 0.30169 -0.04417 0.35489
 C2027 C 0.29468 -0.05549 0.36126
 C2028 C 0.30068 -0.06236 0.37292
 C2029 C 0.31387 -0.05833 0.37850
 C2030 C 0.32104 -0.04751 0.37163
 C2031 C 0.28167 -0.05987 0.35599
 C2032 C 0.27549 -0.05336 0.34447
 C2033 C 0.28195 -0.04189 0.33787
 C2034 C 0.29509 -0.03699 0.34343
 C2035 C 0.30107 -0.02489 0.33755
 C2036 C 0.29474 -0.01810 0.32633
 C2037 C 0.28232 -0.02312 0.32035
 C2038 C 0.27569 -0.03506 0.32599
 C2039 C 0.26317 -0.03975 0.31933
 C2040 C 0.25768 -0.03296 0.30754
 C2041 C 0.26439 -0.02124 0.30195
 C2042 C 0.27663 -0.01629 0.30858
 H2043 H 0.32161 -0.03272 0.35549
 H2044 H 0.29479 -0.07069 0.37767
 H2045 H 0.33145 -0.04425 0.37481
 H2046 H 0.27621 -0.06852 0.36077
 H2047 H 0.26545 -0.05744 0.34114
 H2048 H 0.31056 -0.02017 0.34156
 H2049 H 0.29971 -0.00882 0.32223
 H2050 H 0.25752 -0.04885 0.32271
 H2051 H 0.24828 -0.03716 0.30261
 H2052 H 0.28203 -0.00732 0.30435
 C2053 C -0.07685 -0.05242 -0.10373
 C2054 C -0.06208 -0.05343 -0.10217
 C2055 C -0.05532 -0.06527 -0.10807
 C2056 C -0.06319 -0.07571 -0.11498
 C2057 C -0.07799 -0.07473 -0.11622
 C2058 C -0.08458 -0.06286 -0.11041
 C2059 C -0.04073 -0.06676 -0.10686
 C2060 C -0.03276 -0.05713 -0.09932
 C2061 C -0.03909 -0.04552 -0.09264
 C2062 C -0.05392 -0.04335 -0.09455
 C2063 C -0.06015 -0.03135 -0.08851
 C2064 C -0.05253 -0.02250 -0.07983
 C2065 C -0.03839 -0.02515 -0.07688
 C2066 C -0.03125 -0.03631 -0.08363
 C2067 C -0.01675 -0.03818 -0.08045
 C2068 C -0.01019 -0.03036 -0.06987
 C2069 C -0.01768 -0.02011 -0.06248
 C2070 C -0.03156 -0.01706 -0.06663
 H2071 H -0.08289 -0.04377 -0.09975
 H2072 H -0.05760 -0.08451 -0.11944
 H2073 H -0.09587 -0.06153 -0.11066
 H2074 H -0.03543 -0.07568 -0.11151
 H2075 H -0.02163 -0.05927 -0.09868
 H2076 H -0.07104 -0.02854 -0.09006
 H2077 H -0.05790 -0.01370 -0.07504
 H2078 H -0.01035 -0.04609 -0.08536
 H2079 H 0.00063 -0.03281 -0.06705
 H2080 H -0.03748 -0.00906 -0.06112
 C2081 C -0.02924 0.44811 0.38524
 C2082 C -0.03460 0.45993 0.39236
 C2083 C -0.04515 0.46795 0.38548
 C2084 C -0.05031 0.46395 0.37219
 C2085 C -0.04508 0.45197 0.36528
 C2086 C -0.03436 0.44425 0.37209
 C2087 C -0.05052 0.47995 0.39186
 C2088 C -0.04567 0.48422 0.40495
 C2089 C -0.03528 0.47652 0.41233
 C2090 C -0.02979 0.46406 0.40601
 C2091 C -0.01982 0.45602 0.41361
 C2092 C -0.01519 0.46007 0.42680
 C2093 C -0.02022 0.47229 0.43299
 C2094 C -0.03029 0.48076 0.42590
 C2095 C -0.03493 0.49309 0.43277
 C2096 C -0.02996 0.49662 0.44613
 C2097 C -0.02013 0.48808 0.45310
 C2098 C -0.01526 0.47597 0.44637
 H2099 H -0.02101 0.44154 0.38946
 H2100 H -0.05827 0.47044 0.36728
 H2101 H -0.02988 0.43491 0.36758
 H2102 H -0.05859 0.48617 0.38666
 H2103 H -0.05046 0.49359 0.40905
 H2104 H -0.01545 0.44635 0.40978
 H2105 H -0.00758 0.45350 0.43223
 H2106 H -0.04241 0.50027 0.42817
 H2107 H -0.03392 0.50606 0.45104
 H2108 H -0.00771 0.46920 0.45163
 C2109 C 0.43664 -0.05079 0.39709
 C2110 C 0.45137 -0.05041 0.39951
 C2111 C 0.46011 -0.05763 0.38989
 C2112 C 0.45427 -0.06435 0.37807
 C2113 C 0.43971 -0.06404 0.37555
 C2114 C 0.43099 -0.05744 0.38532
 C2115 C 0.47466 -0.05795 0.39201
 C2116 C 0.48080 -0.05124 0.40344
 C2117 C 0.47262 -0.04371 0.41321
 C2118 C 0.45767 -0.04311 0.41108
 C2119 C 0.44954 -0.03500 0.42043
 C2120 C 0.45570 -0.02792 0.43157
 C2121 C 0.47016 -0.02870 0.43402
 C2122 C 0.47888 -0.03665 0.42498
 C2123 C 0.49346 -0.03733 0.42827
 C2124 C 0.49900 -0.03056 0.44008
 C2125 C 0.49029 -0.02272 0.44892
 C2126 C 0.47589 -0.02171 0.44568
 H2127 H 0.42912 -0.04613 0.40408
 H2128 H 0.46111 -0.06946 0.37059
 H2129 H 0.41967 -0.05741 0.38385
 H2130 H 0.48141 -0.06345 0.38472
 H2131 H 0.49210 -0.05198 0.40417
 H2132 H 0.43832 -0.03369 0.41933
 H2133 H 0.44901 -0.02181 0.43842
 H2134 H 0.50087 -0.04327 0.42217
 H2135 H 0.51014 -0.03163 0.44239
 H2136 H 0.46897 -0.01591 0.45258
 C2137 C 0.41649 0.44435 -0.10136
 C2138 C 0.43127 0.44351 -0.09959
 C2139 C 0.43828 0.43200 -0.10582
 C2140 C 0.43069 0.42169 -0.11317
 C2141 C 0.41595 0.42261 -0.11489
 C2142 C 0.40906 0.43417 -0.10882
 C2143 C 0.45291 0.43089 -0.10488
 C2144 C 0.46075 0.44062 -0.09737
 C2145 C 0.45425 0.45196 -0.09042
 C2146 C 0.43929 0.45360 -0.09180
 C2147 C 0.43285 0.46521 -0.08523
 C2148 C 0.44054 0.47439 -0.07694
 C2149 C 0.45496 0.47249 -0.07486
 C2150 C 0.46215 0.46153 -0.08188
 C2151 C 0.47689 0.46040 -0.07967
 C2152 C 0.48386 0.46897 -0.06999
 C2153 C 0.47649 0.47916 -0.06241
 C2154 C 0.46213 0.48124 -0.06538
 H2155 H 0.41026 0.45278 -0.09720
 H2156 H 0.43657 0.41325 -0.11794
 H2157 H 0.39778 0.43544 -0.10961
 H2158 H 0.45839 0.42228 -0.10989
 H2159 H 0.47194 0.43878 -0.09708
 H2160 H 0.42177 0.46747 -0.08615
 H2161 H 0.43506 0.48298 -0.07190
 H2162 H 0.48333 0.45272 -0.08486
 H2163 H 0.49498 0.46718 -0.06804
 H2164 H 0.45625 0.48910 -0.05963
 C2165 C 0.46384 0.81159 0.36304
 C2166 C 0.46298 0.79726 0.35934
 C2167 C 0.45455 0.78853 0.36776
 C2168 C 0.44763 0.79396 0.37952
 C2169 C 0.44875 0.80813 0.38310
 C2170 C 0.45686 0.81686 0.37471
 C2171 C 0.45304 0.77442 0.36443
 C2172 C 0.45946 0.76874 0.35272
 C2173 C 0.46787 0.77697 0.34390
 C2174 C 0.47001 0.79136 0.34751
 C2175 C 0.47917 0.79935 0.33923
 C2176 C 0.48566 0.79367 0.32757
 C2177 C 0.48318 0.77988 0.32357
 C2178 C 0.47423 0.77129 0.33159
 C2179 C 0.47175 0.75749 0.32669
 C2180 C 0.47774 0.75262 0.31430
 C2181 C 0.48654 0.76121 0.30648
 C2182 C 0.48939 0.77475 0.31132
 H2183 H 0.46960 0.81910 0.35704
 H2184 H 0.44146 0.78707 0.38599
 H2185 H 0.45765 0.82792 0.37702
 H2186 H 0.44669 0.76767 0.37089
 H2187 H 0.45776 0.75774 0.35100
 H2188 H 0.48174 0.81007 0.34154
 H2189 H 0.49254 0.80025 0.32149
 H2190 H 0.46491 0.75031 0.33192
 H2191 H 0.47529 0.74214 0.31072
 H2192 H 0.49599 0.78159 0.30521
 C2193 C -0.06992 0.80262 0.86070
 C2194 C -0.05834 0.80801 0.85336
 C2195 C -0.05650 0.82270 0.85350
 C2196 C -0.06620 0.83153 0.86025
 C2197 C -0.07789 0.82605 0.86729
 C2198 C -0.07946 0.81142 0.86740
 C2199 C -0.04491 0.82855 0.84695
 C2200 C -0.03543 0.82026 0.83967
 C2201 C -0.03715 0.80563 0.83862
 C2202 C -0.04865 0.79937 0.84581
 C2203 C -0.05023 0.78470 0.84499
 C2204 C -0.04142 0.77652 0.83684
 C2205 C -0.03067 0.78255 0.82918
 C2206 C -0.02799 0.79709 0.83033
 C2207 C -0.01650 0.80247 0.82276
 C2208 C -0.00884 0.79399 0.81364
 C2209 C -0.01237 0.77990 0.81166
 C2210 C -0.02294 0.77413 0.81992
 H2211 H -0.07204 0.79161 0.86149
 H2212 H -0.06467 0.84272 0.85973
 H2213 H -0.08788 0.80646 0.87299
 H2214 H -0.04317 0.83973 0.84746
 H2215 H -0.02690 0.82572 0.83482
 H2216 H -0.05843 0.77915 0.85025
 H2217 H -0.04332 0.76537 0.83621
 H2218 H -0.01336 0.81326 0.82330
 H2219 H -0.00062 0.79873 0.80752
 H2220 H -0.02567 0.76320 0.81864
 C2221 C 0.38950 0.81440 0.28941
 C2222 C 0.39324 0.80004 0.28990
 C2223 C 0.38445 0.79101 0.29761
 C2224 C 0.37242 0.79620 0.30432
 C2225 C 0.36889 0.81042 0.30370
 C2226 C 0.37754 0.81944 0.29618
 C2227 C 0.38768 0.77683 0.29864
 C2228 C 0.39965 0.77135 0.29245
 C2229 C 0.40890 0.77987 0.28481
 C2230 C 0.40544 0.79438 0.28319
 C2231 C 0.41426 0.80271 0.27487
 C2232 C 0.42623 0.79721 0.26867
 C2233 C 0.43005 0.78327 0.27063
 C2234 C 0.42149 0.77436 0.27873
 C2235 C 0.42610 0.76037 0.28063
 C2236 C 0.43869 0.75559 0.27489
 C2237 C 0.44710 0.76447 0.26695
 C2238 C 0.44259 0.77827 0.26471
 H2239 H 0.39568 0.82210 0.28409
 H2240 H 0.36571 0.78909 0.30996
 H2241 H 0.37520 0.83052 0.29574
 H2242 H 0.38092 0.76986 0.30442
 H2243 H 0.40125 0.76028 0.29376
 H2244 H 0.41215 0.81358 0.27278
 H2245 H 0.43267 0.80403 0.26239
 H2246 H 0.42045 0.75289 0.28677
 H2247 H 0.44194 0.74488 0.27683
 H2248 H 0.44909 0.78532 0.25874
 C2249 C -0.09590 0.80600 0.83383
 C2250 C -0.09505 0.80569 0.81911
 C2251 C -0.10353 0.81529 0.81147
 C2252 C -0.11283 0.82445 0.81848
 C2253 C -0.11363 0.82443 0.83315
 C2254 C -0.10488 0.81525 0.84064
 C2255 C -0.10262 0.81574 0.79692
 C2256 C -0.09309 0.80724 0.78981
 C2257 C -0.08434 0.79758 0.79698
 C2258 C -0.08584 0.79637 0.81180
 C2259 C -0.07816 0.78580 0.81885
 C2260 C -0.06859 0.77739 0.81189
 C2261 C -0.06607 0.77925 0.79772
 C2262 C -0.07407 0.78913 0.78992
 C2263 C -0.07109 0.79037 0.77549
 C2264 C -0.06003 0.78282 0.76943
 C2265 C -0.05180 0.77353 0.77740
 C2266 C -0.05526 0.77147 0.79145
 H2267 H -0.08964 0.79935 0.84046
 H2268 H -0.11951 0.83146 0.81247
 H2269 H -0.10497 0.81515 0.85194
 H2270 H -0.10910 0.82299 0.79097
 H2271 H -0.09290 0.80844 0.77862
 H2272 H -0.07941 0.78358 0.82979
 H2273 H -0.06290 0.76946 0.81775
 H2274 H -0.07669 0.79750 0.76872
 H2275 H -0.05765 0.78462 0.75853
 H2276 H -0.04899 0.76437 0.79780
 C2277 C 0.86388 0.28928 0.44094
 C2278 C 0.86080 0.28989 0.45538
 C2279 C 0.86994 0.29779 0.46414
 C2280 C 0.88196 0.30426 0.45864
 C2281 C 0.88505 0.30318 0.44436
 C2282 C 0.87576 0.29579 0.43560
 C2283 C 0.86705 0.29919 0.47835
 C2284 C 0.85512 0.29318 0.48406
 C2285 C 0.84567 0.28522 0.47579
 C2286 C 0.84884 0.28314 0.46132
 C2287 C 0.84005 0.27426 0.45330
 C2288 C 0.82820 0.26816 0.45897
 C2289 C 0.82450 0.27073 0.47281
 C2290 C 0.83314 0.27926 0.48147
 C2291 C 0.82862 0.28177 0.49534
 C2292 C 0.81593 0.27635 0.50017
 C2293 C 0.80738 0.26808 0.49147
 C2294 C 0.81193 0.26507 0.47788
 H2295 H 0.85721 0.28410 0.43339
 H2296 H 0.88903 0.30996 0.46553
 H2297 H 0.87755 0.29516 0.42446
 H2298 H 0.87402 0.30515 0.48514
 H2299 H 0.85374 0.29480 0.49511
 H2300 H 0.84213 0.27161 0.44255
 H2301 H 0.82172 0.26151 0.45234
 H2302 H 0.83437 0.28827 0.50261
 H2303 H 0.81266 0.27890 0.51070
 H2304 H 0.80532 0.25885 0.47096
 C2305 C 0.84593 0.80552 -0.07503
 C2306 C 0.84486 0.80650 -0.06034
 C2307 C 0.85265 0.81713 -0.05344
 C2308 C 0.86143 0.82610 -0.06106
 C2309 C 0.86234 0.82492 -0.07568
 C2310 C 0.85437 0.81461 -0.08248
 C2311 C 0.85153 0.81885 -0.03899
 C2312 C 0.84237 0.81066 -0.03132
 C2313 C 0.83422 0.80007 -0.03776
 C2314 C 0.83605 0.79751 -0.05238
 C2315 C 0.82905 0.78602 -0.05857
 C2316 C 0.81976 0.77795 -0.05104
 C2317 C 0.81687 0.78108 -0.03714
 C2318 C 0.82421 0.79200 -0.03015
 C2319 C 0.82078 0.79466 -0.01601
 C2320 C 0.80993 0.78742 -0.00949
 C2321 C 0.80230 0.77711 -0.01671
 C2322 C 0.80625 0.77364 -0.03037
 H2323 H 0.84017 0.79800 -0.08116
 H2324 H 0.86754 0.83395 -0.05557
 H2325 H 0.85460 0.81355 -0.09373
 H2326 H 0.85753 0.82689 -0.03360
 H2327 H 0.84198 0.81284 -0.02027
 H2328 H 0.83063 0.78283 -0.06925
 H2329 H 0.81453 0.76932 -0.05628
 H2330 H 0.82579 0.80272 -0.00987
 H2331 H 0.80713 0.79036 0.00108
 H2332 H 0.80042 0.76575 -0.03616
 C2333 C -0.09677 -0.08331 -0.05660
 C2334 C -0.09359 -0.06918 -0.05935
 C2335 C -0.09963 -0.06315 -0.07153
 C2336 C -0.10814 -0.07111 -0.08065
 C2337 C -0.11136 -0.08519 -0.07777
 C2338 C -0.10544 -0.09106 -0.06555
 C2339 C -0.09740 -0.04908 -0.07445
 C2340 C -0.08902 -0.04086 -0.06578
 C2341 C -0.08246 -0.04641 -0.05368
 C2342 C -0.08479 -0.06081 -0.05040
 C2343 C -0.07823 -0.06637 -0.03831
 C2344 C -0.06947 -0.05831 -0.02988
 C2345 C -0.06690 -0.04435 -0.03304
 C2346 C -0.07353 -0.03808 -0.04482
 C2347 C -0.07076 -0.02375 -0.04727
 C2348 C -0.06118 -0.01634 -0.03894
 C2349 C -0.05417 -0.02281 -0.02772
 C2350 C -0.05743 -0.03675 -0.02462
 H2351 H -0.09286 -0.08877 -0.04753
 H2352 H -0.11257 -0.06597 -0.08972
 H2353 H -0.10725 -0.10181 -0.06276
 H2354 H -0.10227 -0.04430 -0.08357
 H2355 H -0.08785 -0.03016 -0.06895
 H2356 H -0.07947 -0.07705 -0.03508
 H2357 H -0.06454 -0.06312 -0.02082
 H2358 H -0.07560 -0.01797 -0.05570
 H2359 H -0.05894 -0.00559 -0.04160
 H2360 H -0.05205 -0.04197 -0.01603
 C2361 C -0.12144 0.44189 0.46836
 C2362 C -0.11519 0.45497 0.46570
 C2363 C -0.12148 0.46345 0.45521
 C2364 C -0.13332 0.45880 0.44760
 C2365 C -0.13947 0.44574 0.45034
 C2366 C -0.13326 0.43743 0.46088
 C2367 C -0.11597 0.47660 0.45236
 C2368 C -0.10435 0.48159 0.45969
 C2369 C -0.09759 0.47353 0.47016
 C2370 C -0.10298 0.45991 0.47308
 C2371 C -0.09587 0.45161 0.48313
 C2372 C -0.08389 0.45635 0.49004
 C2373 C -0.07857 0.46960 0.48739
 C2374 C -0.08543 0.47850 0.47760
 C2375 C -0.07969 0.49197 0.47558
 C2376 C -0.06733 0.49605 0.48243
 C2377 C -0.06031 0.48697 0.49165
 C2378 C -0.06619 0.47386 0.49431
 H2379 H -0.11754 0.43478 0.47621
 H2380 H -0.13793 0.46568 0.43984
 H2381 H -0.13721 0.42717 0.46330
 H2382 H -0.12072 0.48315 0.44434
 H2383 H -0.10079 0.49180 0.45667
 H2384 H -0.09909 0.44119 0.48578
 H2385 H -0.07868 0.44950 0.49751
 H2386 H -0.08438 0.49962 0.46872
 H2387 H -0.06314 0.50632 0.48027
 H2388 H -0.06087 0.46672 0.50142
 C2389 C 0.39094 -0.03902 0.44026
 C2390 C 0.39836 -0.04518 0.45157
 C2391 C 0.39348 -0.05821 0.45650
 C2392 C 0.38160 -0.06461 0.45038
 C2393 C 0.37418 -0.05833 0.43916
 C2394 C 0.37919 -0.04542 0.43425
 C2395 C 0.40048 -0.06484 0.46755
 C2396 C 0.41218 -0.05882 0.47392
 C2397 C 0.41742 -0.04578 0.46951
 C2398 C 0.41039 -0.03885 0.45813
 C2399 C 0.41559 -0.02581 0.45370
 C2400 C 0.42719 -0.01971 0.46010
 C2401 C 0.43417 -0.02632 0.47113
 C2402 C 0.42946 -0.03942 0.47607
 C2403 C 0.43708 -0.04558 0.48732
 C2404 C 0.44893 -0.03907 0.49315
 C2405 C 0.45361 -0.02621 0.48803
 C2406 C 0.44602 -0.01986 0.47710
 H2407 H 0.39383 -0.02917 0.43575
 H2408 H 0.37839 -0.07463 0.45439
 H2409 H 0.37399 -0.03987 0.42586
 H2410 H 0.39684 -0.07484 0.47136
 H2411 H 0.41688 -0.06470 0.48235
 H2412 H 0.41095 -0.01991 0.44526
 H2413 H 0.43078 -0.00969 0.45630
 H2414 H 0.43431 -0.05549 0.49179
 H2415 H 0.45459 -0.04429 0.50154
 H2416 H 0.44951 -0.00994 0.47296
 C2417 C 0.40448 0.41943 -0.06375
 C2418 C 0.40411 0.43417 -0.06277
 C2419 C 0.39518 0.44146 -0.07222
 C2420 C 0.38662 0.43414 -0.08185
 C2421 C 0.38667 0.41941 -0.08231
 C2422 C 0.39596 0.41227 -0.07326
 C2423 C 0.39474 0.45605 -0.07196
 C2424 C 0.40327 0.46360 -0.06279
 C2425 C 0.41244 0.45682 -0.05324
 C2426 C 0.41243 0.44186 -0.05287
 C2427 C 0.42057 0.43507 -0.04247
 C2428 C 0.42922 0.44251 -0.03340
 C2429 C 0.43020 0.45699 -0.03433
 C2430 C 0.42169 0.46444 -0.04407
 C2431 C 0.42317 0.47917 -0.04449
 C2432 C 0.43330 0.48597 -0.03626
 C2433 C 0.44205 0.47843 -0.02710
 C2434 C 0.44005 0.46399 -0.02584
 H2435 H 0.41134 0.41307 -0.05741
 H2436 H 0.37958 0.44004 -0.08858
 H2437 H 0.39688 0.40100 -0.07359
 H2438 H 0.38788 0.46172 -0.07910
 H2439 H 0.40234 0.47480 -0.06341
 H2440 H 0.42034 0.42395 -0.04087
 H2441 H 0.43536 0.43681 -0.02568
 H2442 H 0.41713 0.48571 -0.05150
 H2443 H 0.43463 0.49715 -0.03747
 H2444 H 0.44683 0.45797 -0.01889
 C2445 C 0.33863 0.43376 0.82532
 C2446 C 0.34134 0.43649 0.81109
 C2447 C 0.35167 0.42822 0.80432
 C2448 C 0.35982 0.41851 0.81200
 C2449 C 0.35763 0.41671 0.82638
 C2450 C 0.34670 0.42411 0.83281
 C2451 C 0.35380 0.42974 0.78997
 C2452 C 0.34564 0.43906 0.78213
 C2453 C 0.33553 0.44781 0.78853
 C2454 C 0.33400 0.44703 0.80337
 C2455 C 0.32568 0.45720 0.81013
 C2456 C 0.31843 0.46732 0.80259
 C2457 C 0.31860 0.46732 0.78804
 C2458 C 0.32708 0.45755 0.78072
 C2459 C 0.32633 0.45767 0.76591
 C2460 C 0.31715 0.46677 0.75882
 C2461 C 0.30868 0.47628 0.76619
 C2462 C 0.30988 0.47678 0.78080
 H2463 H 0.33020 0.43881 0.83088
 H2464 H 0.36814 0.41270 0.80687
 H2465 H 0.34454 0.42252 0.84377
 H2466 H 0.36166 0.42344 0.78468
 H2467 H 0.34784 0.43956 0.77111
 H2468 H 0.32507 0.45797 0.82135
 H2469 H 0.31243 0.47510 0.80823
 H2470 H 0.33210 0.45030 0.75956
 H2471 H 0.31625 0.46598 0.74754
 H2472 H 0.30317 0.48384 0.78668
 C2473 C 0.35800 -0.04528 0.31717
 C2474 C 0.35496 -0.04584 0.30264
 C2475 C 0.36391 -0.05411 0.29414
 C2476 C 0.37566 -0.06103 0.29996
 C2477 C 0.37868 -0.06013 0.31432
 C2478 C 0.36964 -0.05229 0.32284
 C2479 C 0.36114 -0.05544 0.27986
 C2480 C 0.34953 -0.04890 0.27376
 C2481 C 0.34029 -0.04050 0.28172
 C2482 C 0.34330 -0.03860 0.29632
 C2483 C 0.33470 -0.02935 0.30405
 C2484 C 0.32335 -0.02248 0.29788
 C2485 C 0.31990 -0.02472 0.28386
 C2486 C 0.32821 -0.03381 0.27555
 C2487 C 0.32388 -0.03601 0.26148
 C2488 C 0.31181 -0.02952 0.25604
 C2489 C 0.30372 -0.02050 0.26432
 C2490 C 0.30796 -0.01804 0.27819
 H2491 H 0.35148 -0.03974 0.32452
 H2492 H 0.38258 -0.06698 0.29321
 H2493 H 0.37144 -0.05170 0.33402
 H2494 H 0.36798 -0.06171 0.27329
 H2495 H 0.34826 -0.05045 0.26266
 H2496 H 0.33661 -0.02693 0.31491
 H2497 H 0.31711 -0.01543 0.30423
 H2498 H 0.32933 -0.04298 0.25447
 H2499 H 0.30871 -0.03172 0.24532
 H2500 H 0.30165 -0.01128 0.28481
 C2501 C 0.13224 0.55763 0.72023
 C2502 C 0.13710 0.54374 0.71818
 C2503 C 0.12783 0.53426 0.71137
 C2504 C 0.11424 0.53852 0.70719
 C2505 C 0.10955 0.55228 0.70945
 C2506 C 0.11875 0.56176 0.71595
 C2507 C 0.13213 0.52054 0.70877
 C2508 C 0.14552 0.51597 0.71261
 C2509 C 0.15519 0.52494 0.71944
 C2510 C 0.15079 0.53897 0.72255
 C2511 C 0.16016 0.54769 0.73007
 C2512 C 0.17340 0.54301 0.73425
 C2513 C 0.17798 0.52953 0.73098
 C2514 C 0.16905 0.52031 0.72340
 C2515 C 0.17450 0.50690 0.71997
 C2516 C 0.18812 0.50288 0.72401
 C2517 C 0.19676 0.51197 0.73170
 C2518 C 0.19156 0.52529 0.73518
 H2519 H 0.13864 0.56566 0.72494
 H2520 H 0.10723 0.53101 0.70230
 H2521 H 0.11561 0.57253 0.71757
 H2522 H 0.12507 0.51323 0.70362
 H2523 H 0.14787 0.50519 0.71026
 H2524 H 0.15752 0.55822 0.73313
 H2525 H 0.18019 0.55010 0.74005
 H2526 H 0.16865 0.49932 0.71395
 H2527 H 0.19189 0.49258 0.72108
 H2528 H 0.19823 0.53254 0.74091
 C2529 C 0.12665 0.03229 0.18797
 C2530 C 0.13186 0.03410 0.20180
 C2531 C 0.12373 0.04238 0.21108
 C2532 C 0.11091 0.04835 0.20666
 C2533 C 0.10597 0.04652 0.19291
 C2534 C 0.11397 0.03841 0.18366
 C2535 C 0.12848 0.04479 0.22471
 C2536 C 0.14135 0.03953 0.22930
 C2537 C 0.15000 0.03142 0.22043
 C2538 C 0.14494 0.02825 0.20661
 C2539 C 0.15311 0.01930 0.19811
 C2540 C 0.16599 0.01405 0.20268
 C2541 C 0.17138 0.01760 0.21583
 C2542 C 0.16352 0.02635 0.22491
 C2543 C 0.16972 0.02990 0.23799
 C2544 C 0.18309 0.02501 0.24175
 C2545 C 0.19076 0.01634 0.23272
 C2546 C 0.18474 0.01257 0.21982
 H2547 H 0.13225 0.02650 0.18008
 H2548 H 0.10476 0.05447 0.21398
 H2549 H 0.11062 0.03704 0.17290
 H2550 H 0.12224 0.05100 0.23189
 H2551 H 0.14415 0.04190 0.23998
 H2552 H 0.14978 0.01597 0.18783
 H2553 H 0.17191 0.00727 0.19574
 H2554 H 0.16470 0.03672 0.24544
 H2555 H 0.18749 0.02816 0.25178
 H2556 H 0.19061 0.00601 0.21264
 C2557 C 0.62894 0.72378 0.19654
 C2558 C 0.62323 0.72134 0.20992
 C2559 C 0.63155 0.71364 0.21962
 C2560 C 0.64506 0.70888 0.21605
 C2561 C 0.65048 0.71124 0.20270
 C2562 C 0.64228 0.71878 0.19303
 C2563 C 0.62632 0.71055 0.23281
 C2564 C 0.61276 0.71447 0.23647
 C2565 C 0.60391 0.72190 0.22711
 C2566 C 0.60946 0.72595 0.21387
 C2567 C 0.60110 0.73453 0.20508
 C2568 C 0.58758 0.73856 0.20881
 C2569 C 0.58173 0.73402 0.22129
 C2570 C 0.58973 0.72552 0.23058
 C2571 C 0.58306 0.72073 0.24283
 C2572 C 0.56915 0.72437 0.24571
 C2573 C 0.56139 0.73296 0.23660
 C2574 C 0.56781 0.73781 0.22443
 H2575 H 0.62322 0.72912 0.18835
 H2576 H 0.65132 0.70321 0.22371
 H2577 H 0.64598 0.72052 0.18252
 H2578 H 0.63271 0.70482 0.24033
 H2579 H 0.60961 0.71169 0.24687
 H2580 H 0.60478 0.73855 0.19528
 H2581 H 0.58156 0.74516 0.20172
 H2582 H 0.58813 0.71386 0.25024
 H2583 H 0.56444 0.72041 0.25517
 H2584 H 0.56185 0.74430 0.21718
 C2585 C 0.11930 0.71713 0.69442
 C2586 C 0.11546 0.71655 0.70869
 C2587 C 0.12456 0.70914 0.71794
 C2588 C 0.13693 0.70275 0.71303
 C2589 C 0.14054 0.70342 0.69888
 C2590 C 0.13160 0.71069 0.68967
 C2591 C 0.12127 0.70808 0.73206
 C2592 C 0.10897 0.71394 0.73726
 C2593 C 0.09940 0.72123 0.72850
 C2594 C 0.10287 0.72286 0.71404
 C2595 C 0.09365 0.73077 0.70544
 C2596 C 0.08130 0.73653 0.71062
 C2597 C 0.07751 0.73459 0.72451
 C2598 C 0.08646 0.72692 0.73369
 C2599 C 0.08188 0.72504 0.74762
 C2600 C 0.06895 0.73036 0.75208
 C2601 C 0.06016 0.73787 0.74293
 C2602 C 0.06464 0.74010 0.72919
 H2603 H 0.11296 0.72227 0.68657
 H2604 H 0.14383 0.69731 0.72031
 H2605 H 0.13396 0.71119 0.67863
 H2606 H 0.12825 0.70255 0.73921
 H2607 H 0.10735 0.71262 0.74829
 H2608 H 0.09569 0.73280 0.69459
 H2609 H 0.07453 0.74244 0.70357
 H2610 H 0.08784 0.71922 0.75529
 H2611 H 0.06576 0.72844 0.76274
 H2612 H 0.05786 0.74574 0.72193
 C2613 C 0.62816 0.19769 0.53732
 C2614 C 0.63312 0.21152 0.53899
 C2615 C 0.62453 0.22111 0.54647
 C2616 C 0.61126 0.21705 0.55144
 C2617 C 0.60633 0.20345 0.54916
 C2618 C 0.61504 0.19380 0.54230
 C2619 C 0.62918 0.23472 0.54887
 C2620 C 0.64223 0.23905 0.54413
 C2621 C 0.65114 0.22996 0.53652
 C2622 C 0.64633 0.21608 0.53360
 C2623 C 0.65477 0.20728 0.52519
 C2624 C 0.66764 0.21166 0.52016
 C2625 C 0.67274 0.22493 0.52336
 C2626 C 0.66464 0.23429 0.53163
 C2627 C 0.67055 0.24751 0.53479
 C2628 C 0.68388 0.25116 0.53001
 C2629 C 0.69177 0.24186 0.52182
 C2630 C 0.68604 0.22880 0.51843
 H2631 H 0.63420 0.18952 0.53240
 H2632 H 0.60464 0.22456 0.55683
 H2633 H 0.61175 0.18307 0.54085
 H2634 H 0.62267 0.24212 0.55454
 H2635 H 0.64492 0.24975 0.54641
 H2636 H 0.65164 0.19692 0.52205
 H2637 H 0.67374 0.20451 0.51377
 H2638 H 0.66532 0.25520 0.54119
 H2639 H 0.68805 0.26131 0.53284
 H2640 H 0.69211 0.22142 0.51226
 C2641 C 0.63075 0.69519 0.03493
 C2642 C 0.63485 0.70923 0.03721
 C2643 C 0.62599 0.71778 0.04555
 C2644 C 0.61323 0.71258 0.05069
 C2645 C 0.60910 0.69879 0.04786
 C2646 C 0.61813 0.69014 0.04015
 C2647 C 0.62989 0.73149 0.04867
 C2648 C 0.64245 0.73693 0.04380
 C2649 C 0.65155 0.72892 0.03529
 C2650 C 0.64746 0.71498 0.03161
 C2651 C 0.65594 0.70734 0.02219
 C2652 C 0.66819 0.71291 0.01686
 C2653 C 0.67264 0.72621 0.02081
 C2654 C 0.66451 0.73442 0.03016
 C2655 C 0.66985 0.74770 0.03409
 C2656 C 0.68264 0.75253 0.02889
 C2657 C 0.69048 0.74439 0.01952
 C2658 C 0.68532 0.73127 0.01548
 H2659 H 0.63713 0.68773 0.02936
 H2660 H 0.60638 0.71937 0.05671
 H2661 H 0.61553 0.67930 0.03823
 H2662 H 0.62317 0.73810 0.05502
 H2663 H 0.64458 0.74762 0.04665
 H2664 H 0.65325 0.69706 0.01842
 H2665 H 0.67430 0.70667 0.00960
 H2666 H 0.66459 0.75450 0.04139
 H2667 H 0.68642 0.76267 0.03228
 H2668 H 0.69137 0.72477 0.00839
 C2669 C 0.10856 0.04435 0.06198
 C2670 C 0.10513 0.04497 0.04754
 C2671 C 0.11284 0.05442 0.03920
 C2672 C 0.12374 0.06251 0.04509
 C2673 C 0.12717 0.06151 0.05935
 C2674 C 0.11937 0.05245 0.06770
 C2675 C 0.10968 0.05573 0.02500
 C2676 C 0.09889 0.04804 0.01885
 C2677 C 0.09085 0.03851 0.02666
 C2678 C 0.09425 0.03671 0.04117
 C2679 C 0.08671 0.02664 0.04881
 C2680 C 0.07588 0.01900 0.04270
 C2681 C 0.07203 0.02106 0.02876
 C2682 C 0.07947 0.03076 0.02047
 C2683 C 0.07494 0.03253 0.00642
 C2684 C 0.06326 0.02538 0.00110
 C2685 C 0.05574 0.01610 0.00948
 C2686 C 0.06044 0.01373 0.02321
 H2687 H 0.10301 0.03785 0.06923
 H2688 H 0.12972 0.06943 0.03849
 H2689 H 0.12151 0.05171 0.07881
 H2690 H 0.11557 0.06289 0.01855
 H2691 H 0.09722 0.04976 0.00784
 H2692 H 0.08896 0.02431 0.05961
 H2693 H 0.07031 0.01152 0.04906
 H2694 H 0.07987 0.03967 -0.00066
 H2695 H 0.05987 0.02746 -0.00954
 H2696 H 0.05462 0.00671 0.02988
 C2697 C 0.12107 0.55347 0.53632
 C2698 C 0.11599 0.53981 0.53869
 C2699 C 0.12509 0.53023 0.54565
 C2700 C 0.13889 0.53414 0.54949
 C2701 C 0.14384 0.54762 0.54665
 C2702 C 0.13470 0.55723 0.54021
 C2703 C 0.12039 0.51680 0.54871
 C2704 C 0.10679 0.51266 0.54513
 C2705 C 0.09736 0.52175 0.53807
 C2706 C 0.10218 0.53544 0.53451
 C2707 C 0.09313 0.54425 0.52668
 C2708 C 0.07974 0.54005 0.52274
 C2709 C 0.07472 0.52696 0.52648
 C2710 C 0.08333 0.51760 0.53428
 C2711 C 0.07740 0.50456 0.53802
 C2712 C 0.06361 0.50107 0.53407
 C2713 C 0.05532 0.51035 0.52618
 C2714 C 0.06102 0.52327 0.52244
 H2715 H 0.11476 0.56165 0.53170
 H2716 H 0.14583 0.52663 0.55454
 H2717 H 0.13800 0.56786 0.53834
 H2718 H 0.12728 0.50941 0.55400
 H2719 H 0.10407 0.50211 0.54785
 H2720 H 0.09613 0.55447 0.52313
 H2721 H 0.07320 0.54720 0.51671
 H2722 H 0.08304 0.49691 0.54417
 H2723 H 0.05944 0.49105 0.53721
 H2724 H 0.05467 0.53069 0.51654
 C2725 C 0.62970 0.03408 0.56006
 C2726 C 0.62382 0.03627 0.54657
 C2727 C 0.63135 0.04491 0.53726
 C2728 C 0.64450 0.05050 0.54117
 C2729 C 0.65037 0.04777 0.55440
 C2730 C 0.64270 0.03972 0.56383
 C2731 C 0.62578 0.04785 0.52404
 C2732 C 0.61283 0.04251 0.51983
 C2733 C 0.60497 0.03371 0.52863
 C2734 C 0.61074 0.03027 0.54209
 C2735 C 0.60339 0.02072 0.55051
 C2736 C 0.59069 0.01499 0.54615
 C2737 C 0.58468 0.01862 0.53332
 C2738 C 0.59162 0.02810 0.52437
 C2739 C 0.58476 0.03167 0.51163
 C2740 C 0.57167 0.02604 0.50802
 C2741 C 0.56497 0.01658 0.51687
 C2742 C 0.57162 0.01287 0.52948
 H2743 H 0.62447 0.02822 0.56805
 H2744 H 0.65030 0.05673 0.53378
 H2745 H 0.64671 0.03782 0.57429
 H2746 H 0.63148 0.05443 0.51686
 H2747 H 0.60939 0.04527 0.50943
 H2748 H 0.60728 0.01719 0.56051
 H2749 H 0.58546 0.00769 0.55299
 H2750 H 0.58906 0.03900 0.50432
 H2751 H 0.56674 0.02918 0.49825
 H2752 H 0.56647 0.00572 0.53654
 C2753 C 0.61455 0.53811 0.05279
 C2754 C 0.60966 0.53943 0.03880
 C2755 C 0.61739 0.54822 0.02981
 C2756 C 0.62960 0.55508 0.03463
 C2757 C 0.63434 0.55358 0.04850
 C2758 C 0.62662 0.54505 0.05749
 C2759 C 0.61290 0.55019 0.01602
 C2760 C 0.60071 0.54388 0.01098
 C2761 C 0.59252 0.53513 0.01951
 C2762 C 0.59730 0.53253 0.03353
 C2763 C 0.58963 0.52306 0.04176
 C2764 C 0.57746 0.51672 0.03670
 C2765 C 0.57230 0.51963 0.02332
 C2766 C 0.57971 0.52887 0.01450
 C2767 C 0.57376 0.53170 0.00115
 C2768 C 0.56098 0.52578 -0.00308
 C2769 C 0.55368 0.51672 0.00571
 C2770 C 0.55956 0.51352 0.01884
 H2771 H 0.60917 0.53200 0.06049
 H2772 H 0.63549 0.56152 0.02749
 H2773 H 0.62975 0.54390 0.06833
 H2774 H 0.61881 0.55681 0.00906
 H2775 H 0.59808 0.54598 0.00021
 H2776 H 0.59281 0.52016 0.05219
 H2777 H 0.57191 0.50959 0.04346
 H2778 H 0.57848 0.53874 -0.00618
 H2779 H 0.55669 0.52850 -0.01326
 H2780 H 0.55395 0.50668 0.02585
 C2781 C 0.02589 0.05655 0.11563
 C2782 C 0.02922 0.04327 0.10995
 C2783 C 0.03875 0.03473 0.11762
 C2784 C 0.04473 0.03944 0.13026
 C2785 C 0.04166 0.05283 0.13569
 C2786 C 0.03195 0.06118 0.12819
 C2787 C 0.04241 0.02151 0.11262
 C2788 C 0.03716 0.01664 0.09994
 C2789 C 0.02792 0.02483 0.09166
 C2790 C 0.02362 0.03824 0.09689
 C2791 C 0.01395 0.04620 0.08884
 C2792 C 0.00899 0.04147 0.07597
 C2793 C 0.01346 0.02868 0.07051
 C2794 C 0.02293 0.02012 0.07827
 C2795 C 0.02725 0.00731 0.07211
 C2796 C 0.02259 0.00341 0.05879
 C2797 C 0.01339 0.01201 0.05111
 C2798 C 0.00870 0.02456 0.05717
 H2799 H 0.01880 0.06379 0.11056
 H2800 H 0.05174 0.03242 0.13581
 H2801 H 0.02916 0.07158 0.13165
 H2802 H 0.04959 0.01486 0.11852
 H2803 H 0.04061 0.00632 0.09696
 H2804 H 0.00997 0.05622 0.09216
 H2805 H 0.00168 0.04802 0.07013
 H2806 H 0.03446 0.00014 0.07712
 H2807 H 0.02639 -0.00636 0.05441
 H2808 H 0.00165 0.03138 0.05131
 C2809 C 0.02713 0.55212 0.63393
 C2810 C 0.02981 0.53861 0.62849
 C2811 C 0.03917 0.52980 0.63610
 C2812 C 0.04506 0.53427 0.64894
 C2813 C 0.04202 0.54762 0.65431
 C2814 C 0.03314 0.55649 0.64655
 C2815 C 0.04268 0.51663 0.63082
 C2816 C 0.03740 0.51210 0.61796
 C2817 C 0.02807 0.52049 0.60996
 C2818 C 0.02379 0.53372 0.61560
 C2819 C 0.01350 0.54158 0.60826
 C2820 C 0.00814 0.53710 0.59549
 C2821 C 0.01286 0.52469 0.58942
 C2822 C 0.02284 0.51613 0.59652
 C2823 C 0.02739 0.50376 0.58965
 C2824 C 0.02240 0.50028 0.57628
 C2825 C 0.01264 0.50889 0.56930
 C2826 C 0.00776 0.52097 0.57610
 H2827 H 0.02075 0.55977 0.62855
 H2828 H 0.05195 0.52731 0.65477
 H2829 H 0.03098 0.56704 0.65006
 H2830 H 0.04977 0.50979 0.63661
 H2831 H 0.04070 0.50182 0.61467
 H2832 H 0.00915 0.55122 0.61220
 H2833 H 0.00035 0.54357 0.59019
 H2834 H 0.03509 0.49674 0.59413
 H2835 H 0.02641 0.49090 0.57129
 H2836 H 0.00027 0.52781 0.57085
 C2837 C 0.52885 0.05026 0.63025
 C2838 C 0.53516 0.03892 0.62307
 C2839 C 0.54671 0.03216 0.62970
 C2840 C 0.55167 0.03665 0.64287
 C2841 C 0.54545 0.04809 0.64990
 C2842 C 0.53387 0.05469 0.64329
 C2843 C 0.55338 0.02092 0.62315
 C2844 C 0.54902 0.01634 0.61002
 C2845 C 0.53769 0.02282 0.60283
 C2846 C 0.53049 0.03417 0.60956
 C2847 C 0.51892 0.04041 0.60253
 C2848 C 0.51466 0.03594 0.58933
 C2849 C 0.52173 0.02513 0.58251
 C2850 C 0.53333 0.01836 0.58913
 C2851 C 0.54016 0.00751 0.58163
 C2852 C 0.53573 0.00372 0.56819
 C2853 C 0.52432 0.01051 0.56168
 C2854 C 0.51730 0.02115 0.56900
 H2855 H 0.52007 0.05610 0.62605
 H2856 H 0.56041 0.03102 0.64751
 H2857 H 0.52857 0.06354 0.64794
 H2858 H 0.56218 0.01562 0.62819
 H2859 H 0.55482 0.00760 0.60582
 H2860 H 0.51282 0.04884 0.60692
 H2861 H 0.50575 0.04112 0.58434
 H2862 H 0.54910 0.00182 0.58571
 H2863 H 0.54141 -0.00454 0.56283
 H2864 H 0.50848 0.02656 0.56410
 C2865 C 0.52823 0.55436 0.11414
 C2866 C 0.52939 0.54050 0.10897
 C2867 C 0.53700 0.53070 0.11722
 C2868 C 0.54293 0.53465 0.13014
 C2869 C 0.54181 0.54844 0.13505
 C2870 C 0.53436 0.55821 0.12691
 C2871 C 0.53880 0.51700 0.11251
 C2872 C 0.53366 0.51287 0.09952
 C2873 C 0.52626 0.52227 0.09073
 C2874 C 0.52356 0.53613 0.09579
 C2875 C 0.51508 0.54512 0.08753
 C2876 C 0.50991 0.54096 0.07454
 C2877 C 0.51315 0.52779 0.06912
 C2878 C 0.52143 0.51825 0.07707
 C2879 C 0.52484 0.50523 0.07082
 C2880 C 0.52026 0.50192 0.05730
 C2881 C 0.51202 0.51136 0.04956
 C2882 C 0.50836 0.52422 0.05562
 H2883 H 0.52301 0.56260 0.10842
 H2884 H 0.54849 0.52692 0.13637
 H2885 H 0.53353 0.56901 0.13024
 H2886 H 0.54447 0.50942 0.11886
 H2887 H 0.53551 0.50209 0.09675
 H2888 H 0.51205 0.55546 0.09089
 H2889 H 0.50349 0.54825 0.06857
 H2890 H 0.53138 0.49749 0.07589
 H2891 H 0.52329 0.49192 0.05286
 H2892 H 0.50216 0.53171 0.04965
 C2893 C 0.22299 0.55507 0.62501
 C2894 C 0.22151 0.54123 0.62999
 C2895 C 0.21368 0.53174 0.62157
 C2896 C 0.20785 0.53598 0.60869
 C2897 C 0.20945 0.54972 0.60392
 C2898 C 0.21706 0.55918 0.61224
 C2899 C 0.21163 0.51806 0.62604
 C2900 C 0.21688 0.51359 0.63887
 C2901 C 0.22458 0.52264 0.64777
 C2902 C 0.22731 0.53656 0.64307
 C2903 C 0.23578 0.54530 0.65157
 C2904 C 0.24100 0.54084 0.66441
 C2905 C 0.23791 0.52756 0.66943
 C2906 C 0.22966 0.51823 0.66123
 C2907 C 0.22658 0.50500 0.66703
 C2908 C 0.23136 0.50134 0.68038
 C2909 C 0.23947 0.51062 0.68842
 C2910 C 0.24286 0.52366 0.68277
 H2911 H 0.22843 0.56310 0.63081
 H2912 H 0.20212 0.52850 0.60231
 H2913 H 0.21825 0.56994 0.60901
 H2914 H 0.20576 0.51073 0.61959
 H2915 H 0.21481 0.50285 0.64142
 H2916 H 0.23872 0.55571 0.64855
 H2917 H 0.24739 0.54797 0.67059
 H2918 H 0.22022 0.49731 0.66171
 H2919 H 0.22855 0.49119 0.68447
 H2920 H 0.24900 0.53102 0.68893
 C2921 C 0.20586 0.07095 0.13857
 C2922 C 0.20687 0.05629 0.14046
 C2923 C 0.19955 0.04762 0.13079
 C2924 C 0.19186 0.05347 0.11961
 C2925 C 0.19101 0.06799 0.11788
 C2926 C 0.19807 0.07664 0.12748
 C2927 C 0.19985 0.03314 0.13234
 C2928 C 0.20686 0.02700 0.14356
 C2929 C 0.21408 0.03515 0.15366
 C2930 C 0.21460 0.04998 0.15175
 C2931 C 0.22286 0.05798 0.16115
 C2932 C 0.22979 0.05185 0.17243
 C2933 C 0.22862 0.03757 0.17496
 C2934 C 0.22076 0.02897 0.16564
 C2935 C 0.21950 0.01462 0.16902
 C2936 C 0.22547 0.00922 0.18128
 C2937 C 0.23310 0.01782 0.19046
 C2938 C 0.23491 0.03193 0.18705
 H2939 H 0.21067 0.07836 0.14563
 H2940 H 0.18659 0.04664 0.11219
 H2941 H 0.19738 0.08790 0.12660
 H2942 H 0.19443 0.02645 0.12487
 H2943 H 0.20657 0.01576 0.14390
 H2944 H 0.22433 0.06908 0.16001
 H2945 H 0.23590 0.05845 0.17944
 H2946 H 0.21350 0.00736 0.16275
 H2947 H 0.22385 -0.00170 0.18372
 H2948 H 0.24058 0.03873 0.19422
 C2949 C 0.71372 0.18874 0.62095
 C2950 C 0.71233 0.20299 0.61710
 C2951 C 0.70459 0.21189 0.62614
 C2952 C 0.69870 0.20668 0.63849
 C2953 C 0.70007 0.19251 0.64209
 C2954 C 0.70769 0.18366 0.63319
 C2955 C 0.70267 0.22595 0.62281
 C2956 C 0.70797 0.23141 0.61051
 C2957 C 0.71561 0.22302 0.60103
 C2958 C 0.71816 0.20866 0.60456
 C2959 C 0.72650 0.20048 0.59548
 C2960 C 0.73193 0.20598 0.58327
 C2961 C 0.72916 0.21979 0.57946
 C2962 C 0.72088 0.22852 0.58817
 C2963 C 0.71804 0.24232 0.58348
 C2964 C 0.72328 0.24715 0.57077
 C2965 C 0.73163 0.23852 0.56234
 C2966 C 0.73456 0.22484 0.56683
 H2967 H 0.71915 0.18113 0.61463
 H2968 H 0.69303 0.21374 0.64533
 H2969 H 0.70875 0.17263 0.63550
 H2970 H 0.69686 0.23283 0.62974
 H2971 H 0.70601 0.24238 0.60885
 H2972 H 0.72921 0.18974 0.59757
 H2973 H 0.73828 0.19927 0.57664
 H2974 H 0.71158 0.24959 0.58921
 H2975 H 0.72074 0.25772 0.56752
 H2976 H 0.74079 0.21792 0.56031
 C2977 C 0.72511 0.70118 0.12346
 C2978 C 0.72342 0.71516 0.11886
 C2979 C 0.71696 0.72480 0.12813
 C2980 C 0.71259 0.72056 0.14142
 C2981 C 0.71408 0.70663 0.14570
 C2982 C 0.72048 0.69704 0.13662
 C2983 C 0.71467 0.73861 0.12407
 C2984 C 0.71817 0.74302 0.11076
 C2985 C 0.72433 0.73379 0.10098
 C2986 C 0.72758 0.71980 0.10531
 C2987 C 0.73493 0.71098 0.09598
 C2988 C 0.73854 0.71545 0.08271
 C2989 C 0.73477 0.72877 0.07808
 C2990 C 0.72749 0.73811 0.08706
 C2991 C 0.72339 0.75127 0.08158
 C2992 C 0.72659 0.75501 0.06790
 C2993 C 0.73405 0.74584 0.05920
 C2994 C 0.73814 0.73274 0.06440
 H2995 H 0.72955 0.69305 0.11701
 H2996 H 0.70786 0.72816 0.14840
 H2997 H 0.72157 0.68615 0.13947
 H2998 H 0.70990 0.74607 0.13119
 H2999 H 0.71608 0.75387 0.10853
 H3000 H 0.73828 0.70055 0.09869
 H3001 H 0.74420 0.70831 0.07592
 H3002 H 0.71740 0.75883 0.08746
 H3003 H 0.72321 0.76516 0.06412
 H3004 H 0.74372 0.72545 0.05769
 C3005 C 0.53277 0.69071 0.12810
 C3006 C 0.53498 0.70444 0.13325
 C3007 C 0.54335 0.71349 0.12513
 C3008 C 0.54883 0.70901 0.11225
 C3009 C 0.54645 0.69539 0.10726
 C3010 C 0.53841 0.68632 0.11538
 C3011 C 0.54629 0.72697 0.12991
 C3012 C 0.54141 0.73162 0.14276
 C3013 C 0.53310 0.72302 0.15132
 C3014 C 0.52941 0.70939 0.14624
 C3015 C 0.52014 0.70124 0.15423
 C3016 C 0.51506 0.70595 0.16697
 C3017 C 0.51914 0.71888 0.17240
 C3018 C 0.52827 0.72760 0.16475
 C3019 C 0.53241 0.74041 0.17104
 C3020 C 0.52770 0.74426 0.18433
 C3021 C 0.51860 0.73561 0.19176
 C3022 C 0.51426 0.72298 0.18562
 H3023 H 0.52700 0.68294 0.13378
 H3024 H 0.55492 0.71623 0.10608
 H3025 H 0.53666 0.67564 0.11206
 H3026 H 0.55260 0.73398 0.12370
 H3027 H 0.54415 0.74218 0.14559
 H3028 H 0.51638 0.69117 0.15084
 H3029 H 0.50799 0.69929 0.17274
 H3030 H 0.53959 0.74754 0.16618
 H3031 H 0.53132 0.75403 0.18885
 H3032 H 0.50740 0.71606 0.19133
 C3033 C 0.05854 0.71449 0.63973
 C3034 C 0.04481 0.71281 0.64506
 C3035 C 0.03516 0.70468 0.63709
 C3036 C 0.03902 0.69911 0.62401
 C3037 C 0.05249 0.70143 0.61867
 C3038 C 0.06223 0.70893 0.62680
 C3039 C 0.02167 0.70226 0.64214
 C3040 C 0.01750 0.70769 0.65496
 C3041 C 0.02661 0.71604 0.66321
 C3042 C 0.04040 0.71888 0.65802
 C3043 C 0.04923 0.72792 0.66581
 C3044 C 0.04493 0.73378 0.67834
 C3045 C 0.03173 0.73080 0.68374
 C3046 C 0.02238 0.72181 0.67639
 C3047 C 0.00927 0.71888 0.68267
 C3048 C 0.00569 0.72469 0.69561
 C3049 C 0.01495 0.73370 0.70268
 C3050 C 0.02793 0.73675 0.69660
 H3051 H 0.06678 0.71989 0.64532
 H3052 H 0.03144 0.69324 0.61784
 H3053 H 0.07288 0.71045 0.62319
 H3054 H 0.01424 0.69605 0.63611
 H3055 H 0.00688 0.70535 0.65798
 H3056 H 0.05953 0.73097 0.66240
 H3057 H 0.05209 0.74068 0.68392
 H3058 H 0.00163 0.71195 0.67803
 H3059 H -0.00436 0.72206 0.70013
 H3060 H 0.03531 0.74350 0.70208
 C3061 C 0.55743 0.62577 0.21332
 C3062 C 0.54358 0.63123 0.21220
 C3063 C 0.53356 0.62335 0.20444
 C3064 C 0.53727 0.61041 0.19848
 C3065 C 0.55104 0.60515 0.19971
 C3066 C 0.56105 0.61301 0.20717
 C3067 C 0.51989 0.62845 0.20257
 C3068 C 0.51599 0.64143 0.20786
 C3069 C 0.52559 0.64978 0.21552
 C3070 C 0.53943 0.64433 0.21823
 C3071 C 0.54859 0.65209 0.22697
 C3072 C 0.54463 0.66497 0.23244
 C3073 C 0.53150 0.67078 0.22925
 C3074 C 0.52180 0.66335 0.22067
 C3075 C 0.50882 0.67001 0.21735
 C3076 C 0.50569 0.68337 0.22239
 C3077 C 0.51527 0.69056 0.23098
 C3078 C 0.52811 0.68412 0.23447
 H3079 H 0.56586 0.63125 0.21855
 H3080 H 0.52936 0.60444 0.19285
 H3081 H 0.57186 0.60947 0.20803
 H3082 H 0.51214 0.62241 0.19677
 H3083 H 0.50522 0.64451 0.20595
 H3084 H 0.55890 0.64839 0.23003
 H3085 H 0.55203 0.67055 0.23910
 H3086 H 0.50100 0.66536 0.21059
 H3087 H 0.49571 0.68813 0.21946
 H3088 H 0.53571 0.68965 0.24095
 C3089 C 0.02907 0.62929 0.70844
 C3090 C 0.03237 0.63521 0.72165
 C3091 C 0.04177 0.62770 0.73051
 C3092 C 0.04709 0.61454 0.72642
 C3093 C 0.04347 0.60873 0.71338
 C3094 C 0.03453 0.61635 0.70444
 C3095 C 0.04587 0.63339 0.74337
 C3096 C 0.04114 0.64654 0.74751
 C3097 C 0.03181 0.65447 0.73905
 C3098 C 0.02693 0.64845 0.72616
 C3099 C 0.01665 0.65579 0.71828
 C3100 C 0.01179 0.66884 0.72244
 C3101 C 0.01704 0.67521 0.73452
 C3102 C 0.02712 0.66818 0.74304
 C3103 C 0.03230 0.67537 0.75501
 C3104 C 0.02776 0.68894 0.75818
 C3105 C 0.01782 0.69579 0.74967
 C3106 C 0.01237 0.68873 0.73796
 H3107 H 0.02259 0.63453 0.70075
 H3108 H 0.05402 0.60882 0.73345
 H3109 H 0.03192 0.61249 0.69410
 H3110 H 0.05298 0.62768 0.75024
 H3111 H 0.04486 0.65012 0.75758
 H3112 H 0.01191 0.65163 0.70888
 H3113 H 0.00395 0.67409 0.71598
 H3114 H 0.04017 0.67099 0.76193
 H3115 H 0.03221 0.69414 0.76728
 H3116 H 0.00479 0.69394 0.73117
 C3117 C 0.06677 0.10721 0.03760
 C3118 C 0.05207 0.10480 0.03707
 C3119 C 0.04327 0.11403 0.04472
 C3120 C 0.04901 0.12541 0.05213
 C3121 C 0.06357 0.12779 0.05230
 C3122 C 0.07235 0.11849 0.04507
 C3123 C 0.02876 0.11190 0.04493
 C3124 C 0.02274 0.10062 0.03796
 C3125 C 0.03100 0.09107 0.03023
 C3126 C 0.04585 0.09347 0.02940
 C3127 C 0.05398 0.08455 0.02081
 C3128 C 0.04796 0.07338 0.01371
 C3129 C 0.03366 0.07048 0.01499
 C3130 C 0.02494 0.07921 0.02328
 C3131 C 0.01059 0.07540 0.02457
 C3132 C 0.00534 0.06331 0.01817
 C3133 C 0.01408 0.05476 0.01006
 C3134 C 0.02817 0.05860 0.00829
 H3135 H 0.07432 0.10046 0.03258
 H3136 H 0.04207 0.13255 0.05761
 H3137 H 0.08366 0.11981 0.04530
 H3138 H 0.02196 0.11898 0.05068
 H3139 H 0.01146 0.09982 0.03867
 H3140 H 0.06507 0.08601 0.01918
 H3141 H 0.05465 0.06677 0.00732
 H3142 H 0.00325 0.08122 0.03086
 H3143 H -0.00556 0.06050 0.01981
 H3144 H 0.03512 0.05189 0.00228
 C3145 C 0.05915 0.61775 0.54533
 C3146 C 0.04536 0.61266 0.54752
 C3147 C 0.03610 0.62112 0.55553
 C3148 C 0.04044 0.63419 0.56072
 C3149 C 0.05405 0.63914 0.55825
 C3150 C 0.06335 0.63073 0.55059
 C3151 C 0.02251 0.61655 0.55828
 C3152 C 0.01784 0.60369 0.55339
 C3153 C 0.02658 0.59484 0.54535
 C3154 C 0.04049 0.59952 0.54214
 C3155 C 0.04898 0.59097 0.53352
 C3156 C 0.04419 0.57824 0.52838
 C3157 C 0.03083 0.57338 0.53169
 C3158 C 0.02185 0.58151 0.54031
 C3159 C 0.00854 0.57585 0.54363
 C3160 C 0.00440 0.56278 0.53855
 C3161 C 0.01327 0.55489 0.52993
 C3162 C 0.02647 0.56032 0.52649
 H3163 H 0.06704 0.61193 0.53972
 H3164 H 0.03309 0.64062 0.56652
 H3165 H 0.07403 0.63410 0.54878
 H3166 H 0.01537 0.62299 0.56435
 H3167 H 0.00716 0.60110 0.55597
 H3168 H 0.05940 0.59388 0.53036
 H3169 H 0.05110 0.57207 0.52179
 H3170 H 0.00111 0.58110 0.55030
 H3171 H -0.00583 0.55884 0.54144
 H3172 H 0.03354 0.55422 0.51998
 C3173 C 0.55343 0.12319 0.53066
 C3174 C 0.54024 0.11692 0.53306
 C3175 C 0.53043 0.12439 0.54138
 C3176 C 0.53365 0.13781 0.54657
 C3177 C 0.54677 0.14391 0.54397
 C3178 C 0.55660 0.13636 0.53605
 C3179 C 0.51753 0.11837 0.54462
 C3180 C 0.51431 0.10489 0.54018
 C3181 C 0.52377 0.09697 0.53199
 C3182 C 0.53665 0.10336 0.52783
 C3183 C 0.54547 0.09603 0.51848
 C3184 C 0.54224 0.08264 0.51393
 C3185 C 0.53023 0.07590 0.51863
 C3186 C 0.52080 0.08290 0.52774
 C3187 C 0.50899 0.07536 0.53249
 C3188 C 0.50676 0.06151 0.52838
 C3189 C 0.51611 0.05471 0.51932
 C3190 C 0.52774 0.06206 0.51438
 H3191 H 0.56177 0.11803 0.52506
 H3192 H 0.52593 0.14346 0.55268
 H3193 H 0.56701 0.14043 0.53424
 H3194 H 0.50993 0.12405 0.55087
 H3195 H 0.50414 0.10105 0.54317
 H3196 H 0.55489 0.10047 0.51422
 H3197 H 0.54938 0.07740 0.50680
 H3198 H 0.50148 0.07970 0.53969
 H3199 H 0.49769 0.05608 0.53241
 H3200 H 0.53515 0.05689 0.50749
 C3201 C 0.55373 0.61812 0.02758
 C3202 C 0.53968 0.61342 0.02859
 C3203 C 0.53021 0.62160 0.03664
 C3204 C 0.53463 0.63419 0.04291
 C3205 C 0.54855 0.63879 0.04158
 C3206 C 0.55803 0.63052 0.03396
 C3207 C 0.51640 0.61715 0.03844
 C3208 C 0.51181 0.60456 0.03276
 C3209 C 0.52083 0.59598 0.02474
 C3210 C 0.53482 0.60077 0.02216
 C3211 C 0.54344 0.59283 0.01312
 C3212 C 0.53885 0.58033 0.00730
 C3213 C 0.52557 0.57511 0.01036
 C3214 C 0.51635 0.58279 0.01914
 C3215 C 0.50316 0.57673 0.02222
 C3216 C 0.49946 0.56361 0.01692
 C3217 C 0.50864 0.55611 0.00826
 C3218 C 0.52161 0.56206 0.00486
 H3219 H 0.56180 0.61230 0.02223
 H3220 H 0.52718 0.64046 0.04876
 H3221 H 0.56896 0.63348 0.03311
 H3222 H 0.50907 0.62340 0.04449
 H3223 H 0.50098 0.60196 0.03467
 H3224 H 0.55381 0.59609 0.01010
 H3225 H 0.54588 0.57458 0.00048
 H3226 H 0.49562 0.58163 0.02903
 H3227 H 0.48939 0.55924 0.01979
 H3228 H 0.52891 0.55628 -0.00166
 C3229 C 0.72590 0.12950 0.55930
 C3230 C 0.71948 0.13722 0.54839
 C3231 C 0.70861 0.13062 0.54058
 C3232 C 0.70427 0.11698 0.54382
 C3233 C 0.71071 0.10937 0.55476
 C3234 C 0.72162 0.11596 0.56238
 C3235 C 0.70214 0.13762 0.52947
 C3236 C 0.70636 0.15095 0.52573
 C3237 C 0.71721 0.15797 0.53310
 C3238 C 0.72362 0.15114 0.54486
 C3239 C 0.73389 0.15847 0.55274
 C3240 C 0.73812 0.17180 0.54902
 C3241 C 0.73240 0.17837 0.53728
 C3242 C 0.72184 0.17161 0.52915
 C3243 C 0.71649 0.17876 0.51729
 C3244 C 0.72138 0.19199 0.51377
 C3245 C 0.73181 0.19862 0.52185
 C3246 C 0.73724 0.19172 0.53364
 H3247 H 0.73440 0.13351 0.56565
 H3248 H 0.69608 0.11227 0.53747
 H3249 H 0.72690 0.11092 0.57106
 H3250 H 0.69376 0.13268 0.52348
 H3251 H 0.70074 0.15551 0.51703
 H3252 H 0.73884 0.15429 0.56200
 H3253 H 0.74606 0.17699 0.55539
 H3254 H 0.70862 0.17443 0.51037
 H3255 H 0.71695 0.19701 0.50458
 H3256 H 0.74526 0.19674 0.54005
 C3257 C 0.68480 0.64164 0.03238
 C3258 C 0.69883 0.64641 0.03414
 C3259 C 0.70834 0.63764 0.04159
 C3260 C 0.70396 0.62468 0.04682
 C3261 C 0.69000 0.62017 0.04513
 C3262 C 0.68052 0.62880 0.03780
 C3263 C 0.72220 0.64185 0.04391
 C3264 C 0.72684 0.65475 0.03931
 C3265 C 0.71780 0.66400 0.03198
 C3266 C 0.70369 0.65958 0.02896
 C3267 C 0.69498 0.66841 0.02077
 C3268 C 0.69975 0.68120 0.01592
 C3269 C 0.71326 0.68589 0.01923
 C3270 C 0.72246 0.67746 0.02743
 C3271 C 0.73588 0.68299 0.03091
 C3272 C 0.73996 0.69618 0.02628
 C3273 C 0.73092 0.70435 0.01796
 C3274 C 0.71758 0.69907 0.01445
 H3275 H 0.67676 0.64771 0.02714
 H3276 H 0.71154 0.61808 0.05222
 H3277 H 0.66962 0.62578 0.03649
 H3278 H 0.72955 0.63513 0.04950
 H3279 H 0.73773 0.65706 0.04151
 H3280 H 0.68441 0.66566 0.01770
 H3281 H 0.69269 0.68756 0.00960
 H3282 H 0.74340 0.67755 0.03743
 H3283 H 0.75028 0.70000 0.02928
 H3284 H 0.71037 0.70534 0.00819
 C3285 C 0.19325 0.61704 0.71567
 C3286 C 0.20739 0.61241 0.71437
 C3287 C 0.21680 0.62121 0.70713
 C3288 C 0.21219 0.63407 0.70164
 C3289 C 0.19814 0.63844 0.70294
 C3290 C 0.18877 0.62979 0.71005
 C3291 C 0.23077 0.61713 0.70530
 C3292 C 0.23562 0.60430 0.71015
 C3293 C 0.22666 0.59501 0.71722
 C3294 C 0.21244 0.59933 0.71977
 C3295 C 0.20377 0.59044 0.72766
 C3296 C 0.20865 0.57763 0.73256
 C3297 C 0.22226 0.57303 0.72966
 C3298 C 0.23147 0.58157 0.72188
 C3299 C 0.24502 0.57611 0.71884
 C3300 C 0.24913 0.56281 0.72331
 C3301 C 0.24001 0.55450 0.73109
 C3302 C 0.22662 0.55976 0.73433
 H3303 H 0.18528 0.61095 0.72070
 H3304 H 0.21963 0.64071 0.69634
 H3305 H 0.17780 0.63271 0.71101
 H3306 H 0.23805 0.62388 0.69989
 H3307 H 0.24657 0.60207 0.70831
 H3308 H 0.19313 0.59313 0.73041
 H3309 H 0.20158 0.57117 0.73855
 H3310 H 0.25261 0.58167 0.71272
 H3311 H 0.25951 0.55898 0.72058
 H3312 H 0.21936 0.55334 0.74015
 C3313 C 0.18739 0.11524 0.20665
 C3314 C 0.20181 0.11142 0.20720
 C3315 C 0.21140 0.11980 0.19968
 C3316 C 0.20666 0.13161 0.19224
 C3317 C 0.19236 0.13531 0.19196
 C3318 C 0.18281 0.12695 0.19919
 C3319 C 0.22567 0.11636 0.19957
 C3320 C 0.23069 0.10457 0.20647
 C3321 C 0.22160 0.09575 0.21397
 C3322 C 0.20700 0.09948 0.21471
 C3323 C 0.19809 0.09119 0.22298
 C3324 C 0.20307 0.07931 0.22975
 C3325 C 0.21707 0.07510 0.22850
 C3326 C 0.22660 0.08326 0.22067
 C3327 C 0.24063 0.07831 0.21954
 C3328 C 0.24479 0.06562 0.22548
 C3329 C 0.23524 0.05748 0.23292
 C3330 C 0.22148 0.06248 0.23470
 H3331 H 0.17928 0.10930 0.21166
 H3332 H 0.21418 0.13803 0.18680
 H3333 H 0.17165 0.12934 0.19891
 H3334 H 0.23307 0.12278 0.19394
 H3335 H 0.24186 0.10275 0.20581
 H3336 H 0.18714 0.09363 0.22455
 H3337 H 0.19577 0.07319 0.23583
 H3338 H 0.24858 0.08370 0.21373
 H3339 H 0.25550 0.06200 0.22393
 H3340 H 0.21393 0.05618 0.24028
 C3341 C 0.68883 1.11101 0.71689
 C3342 C 0.70305 1.10652 0.71597
 C3343 C 0.71244 1.11518 0.70854
 C3344 C 0.70774 1.12783 0.70258
 C3345 C 0.69363 1.13214 0.70363
 C3346 C 0.68427 1.12354 0.71084
 C3347 C 0.72649 1.11118 0.70705
 C3348 C 0.73145 1.09864 0.71252
 C3349 C 0.72256 1.08954 0.71992
 C3350 C 0.70821 1.09373 0.72199
 C3351 C 0.69954 1.08502 0.73009
 C3352 C 0.70454 1.07255 0.73570
 C3353 C 0.71833 1.06809 0.73336
 C3354 C 0.72755 1.07643 0.72538
 C3355 C 0.74129 1.07112 0.72298
 C3356 C 0.74557 1.05813 0.72823
 C3357 C 0.73643 1.05000 0.73618
 C3358 C 0.72284 1.05516 0.73881
 H3359 H 0.68086 1.10498 0.72201
 H3360 H 0.71518 1.13439 0.69719
 H3361 H 0.67325 1.12635 0.71161
 H3362 H 0.73374 1.11780 0.70146
 H3363 H 0.74245 1.09646 0.71090
 H3364 H 0.68877 1.08762 0.73247
 H3365 H 0.69745 1.06624 0.74182
 H3366 H 0.74893 1.07656 0.71683
 H3367 H 0.75609 1.05439 0.72595
 H3368 H 0.71556 1.04888 0.74474
 C3369 C 0.70040 0.62443 0.21743
 C3370 C 0.71411 0.61880 0.21574
 C3371 C 0.72420 0.62722 0.20897
 C3372 C 0.72071 0.64076 0.20446
 C3373 C 0.70708 0.64616 0.20621
 C3374 C 0.69700 0.63783 0.21272
 C3375 C 0.73773 0.62206 0.20662
 C3376 C 0.74141 0.60854 0.21043
 C3377 C 0.73171 0.59963 0.21701
 C3378 C 0.71803 0.60505 0.22024
 C3379 C 0.70879 0.59658 0.22795
 C3380 C 0.71254 0.58312 0.23193
 C3381 C 0.72552 0.57742 0.22820
 C3382 C 0.73528 0.58552 0.22060
 C3383 C 0.74807 0.57901 0.21664
 C3384 C 0.75101 0.56516 0.22017
 C3385 C 0.74140 0.55729 0.22783
 C3386 C 0.72870 0.56355 0.23190
 H3387 H 0.69192 0.61864 0.22199
 H3388 H 0.72866 0.64711 0.19957
 H3389 H 0.68628 0.64151 0.21392
 H3390 H 0.74554 0.62850 0.20158
 H3391 H 0.75209 0.60546 0.20826
 H3392 H 0.69860 0.60014 0.23133
 H3393 H 0.70509 0.57702 0.23784
 H3394 H 0.75591 0.58418 0.21049
 H3395 H 0.76088 0.56058 0.21682
 H3396 H 0.72108 0.55752 0.23767
 C3397 C 0.54339 0.12279 0.73188
 C3398 C 0.53339 0.13103 0.72452
 C3399 C 0.52801 0.12561 0.71175
 C3400 C 0.53281 0.11272 0.70648
 C3401 C 0.54324 0.10485 0.71358
 C3402 C 0.54818 0.11006 0.72652
 C3403 C 0.51799 0.13316 0.70411
 C3404 C 0.51339 0.14619 0.70866
 C3405 C 0.51870 0.15229 0.72110
 C3406 C 0.52872 0.14450 0.72928
 C3407 C 0.53392 0.15055 0.74180
 C3408 C 0.52978 0.16382 0.74605
 C3409 C 0.52029 0.17166 0.73805
 C3410 C 0.51447 0.16601 0.72554
 C3411 C 0.50484 0.17447 0.71791
 C3412 C 0.50145 0.18798 0.72237
 C3413 C 0.50747 0.19359 0.73459
 C3414 C 0.51677 0.18525 0.74246
 H3415 H 0.54786 0.12586 0.74181
 H3416 H 0.52865 0.10923 0.69651
 H3417 H 0.55574 0.10433 0.73279
 H3418 H 0.51374 0.12902 0.69438
 H3419 H 0.50571 0.15125 0.70202
 H3420 H 0.54138 0.14537 0.74859
 H3421 H 0.53420 0.16806 0.75566
 H3422 H 0.49981 0.17110 0.70834
 H3423 H 0.49422 0.19413 0.71604
 H3424 H 0.52148 0.18940 0.75198
 C3425 C 1.05746 0.13485 0.20863
 C3426 C 1.04344 0.13993 0.20767
 C3427 C 1.03345 0.13149 0.20048
 C3428 C 1.03737 0.11849 0.19483
 C3429 C 1.05127 0.11360 0.19595
 C3430 C 1.06125 0.12195 0.20288
 C3431 C 1.01957 0.13605 0.19892
 C3432 C 1.01534 0.14896 0.20409
 C3433 C 1.02486 0.15785 0.21123
 C3434 C 1.03903 0.15309 0.21341
 C3435 C 1.04827 0.16158 0.22137
 C3436 C 1.04397 0.17442 0.22670
 C3437 C 1.03038 0.17945 0.22419
 C3438 C 1.02064 0.17132 0.21633
 C3439 C 1.00713 0.17716 0.21371
 C3440 C 1.00354 0.19041 0.21869
 C3441 C 1.01317 0.19833 0.22654
 C3442 C 1.02656 0.19271 0.22935
 H3443 H 1.06585 0.14067 0.21354
 H3444 H 1.02950 0.11209 0.18964
 H3445 H 1.07214 0.11862 0.20366
 H3446 H 1.01187 0.12960 0.19353
 H3447 H 1.00440 0.15155 0.20247
 H3448 H 1.05894 0.15853 0.22386
 H3449 H 1.05145 0.18056 0.23274
 H3450 H 0.99916 0.17195 0.20757
 H3451 H 0.99314 0.19452 0.21628
 H3452 H 1.03419 0.19883 0.23522
 C3453 C 0.19770 0.62804 0.52731
 C3454 C 0.21125 0.63379 0.52947
 C3455 C 0.22120 0.62576 0.53721
 C3456 C 0.21773 0.61240 0.54216
 C3457 C 0.20424 0.60686 0.53990
 C3458 C 0.19430 0.61489 0.53247
 C3459 C 0.23453 0.63116 0.54011
 C3460 C 0.23812 0.64454 0.53589
 C3461 C 0.22855 0.65303 0.52828
 C3462 C 0.21512 0.64733 0.52452
 C3463 C 0.20605 0.65529 0.51582
 C3464 C 0.20968 0.66858 0.51143
 C3465 C 0.22236 0.67459 0.51565
 C3466 C 0.23198 0.66699 0.52420
 C3467 C 0.24449 0.67384 0.52854
 C3468 C 0.24726 0.68755 0.52449
 C3469 C 0.23777 0.69492 0.51591
 C3470 C 0.22538 0.68829 0.51146
 H3471 H 0.18930 0.63359 0.52205
 H3472 H 0.22557 0.60634 0.54782
 H3473 H 0.18366 0.61121 0.53087
 H3474 H 0.24224 0.62503 0.54592
 H3475 H 0.24863 0.64785 0.53856
 H3476 H 0.19609 0.65145 0.51198
 H3477 H 0.20235 0.67429 0.50478
 H3478 H 0.25220 0.66904 0.53535
 H3479 H 0.25690 0.69243 0.52816
 H3480 H 0.21784 0.69392 0.50496
 C3481 C 0.19268 0.15243 1.06342
 C3482 C 0.19359 0.15423 1.04876
 C3483 C 0.18672 0.14425 1.04007
 C3484 C 0.17994 0.13263 1.04591
 C3485 C 0.18001 0.13059 1.06041
 C3486 C 0.18610 0.14078 1.06907
 C3487 C 0.18700 0.14567 1.02557
 C3488 C 0.19441 0.15646 1.01941
 C3489 C 0.20200 0.16629 1.02753
 C3490 C 0.20137 0.16530 1.04247
 C3491 C 0.20886 0.17518 1.05062
 C3492 C 0.21700 0.18540 1.04447
 C3493 C 0.21799 0.18632 1.03000
 C3494 C 0.21037 0.17696 1.02125
 C3495 C 0.21149 0.17875 1.00658
 C3496 C 0.21963 0.18946 1.00099
 C3497 C 0.22719 0.19852 1.00976
 C3498 C 0.22642 0.19679 1.02424
 H3499 H 0.19716 0.15964 1.07088
 H3500 H 0.17524 0.12480 1.03912
 H3501 H 0.18594 0.13963 1.08033
 H3502 H 0.18162 0.13819 1.01888
 H3503 H 0.19418 0.15662 1.00815
 H3504 H 0.20886 0.17526 1.06187
 H3505 H 0.22263 0.19267 1.05117
 H3506 H 0.20603 0.17225 0.99910
 H3507 H 0.21989 0.19075 0.98975
 H3508 H 0.23193 0.20403 1.03110
 C3509 C 0.21759 0.69287 0.61971
 C3510 C 0.21612 0.70692 0.61528
 C3511 C 0.20814 0.71611 0.62381
 C3512 C 0.20226 0.71141 0.63636
 C3513 C 0.20379 0.69745 0.64058
 C3514 C 0.21151 0.68827 0.63209
 C3515 C 0.20595 0.72994 0.61974
 C3516 C 0.21111 0.73481 0.60714
 C3517 C 0.21895 0.72606 0.59815
 C3518 C 0.22200 0.71206 0.60257
 C3519 C 0.23092 0.70372 0.59420
 C3520 C 0.23617 0.70861 0.58165
 C3521 C 0.23261 0.72190 0.57680
 C3522 C 0.22390 0.73083 0.58490
 C3523 C 0.22021 0.74402 0.57918
 C3524 C 0.22491 0.74804 0.56601
 C3525 C 0.23356 0.73918 0.55811
 C3526 C 0.23751 0.72619 0.56369
 H3527 H 0.22304 0.68503 0.61368
 H3528 H 0.19646 0.71870 0.64284
 H3529 H 0.21264 0.67735 0.63482
 H3530 H 0.19998 0.73707 0.62629
 H3531 H 0.20894 0.74563 0.60485
 H3532 H 0.23425 0.69335 0.59714
 H3533 H 0.24294 0.70180 0.57556
 H3534 H 0.21336 0.75133 0.58440
 H3535 H 0.22162 0.75810 0.56193
 H3536 H 0.24403 0.71913 0.55760
 C3537 C 0.21766 0.18976 1.10980
 C3538 C 0.21427 0.20299 1.10404
 C3539 C 0.20371 0.21097 1.11080
 C3540 C 0.19688 0.20584 1.12265
 C3541 C 0.20016 0.19259 1.12825
 C3542 C 0.21078 0.18472 1.12162
 C3543 C 0.19992 0.22411 1.10573
 C3544 C 0.20618 0.22951 1.09392
 C3545 C 0.21661 0.22196 1.08660
 C3546 C 0.22087 0.20855 1.09183
 C3547 C 0.23152 0.20115 1.08465
 C3548 C 0.23759 0.20648 1.07265
 C3549 C 0.23326 0.21932 1.06718
 C3550 C 0.22282 0.22733 1.07414
 C3551 C 0.21887 0.24031 1.06815
 C3552 C 0.22467 0.24484 1.05564
 C3553 C 0.23468 0.23671 1.04858
 C3554 C 0.23912 0.22405 1.05461
 H3555 H 0.22549 0.18291 1.10537
 H3556 H 0.18913 0.21250 1.12756
 H3557 H 0.21371 0.17442 1.12524
 H3558 H 0.19190 0.23030 1.11091
 H3559 H 0.20251 0.23971 1.09081
 H3560 H 0.23542 0.19110 1.08800
 H3561 H 0.24561 0.20033 1.06743
 H3562 H 0.21113 0.24719 1.07266
 H3563 H 0.22100 0.25468 1.05133
 H3564 H 0.24688 0.21762 1.04931
 C3565 C 0.71472 0.56395 0.12612
 C3566 C 0.71471 0.54958 0.12966
 C3567 C 0.70706 0.54037 0.12078
 C3568 C 0.69999 0.54540 0.10880
 C3569 C 0.70013 0.55967 0.10544
 C3570 C 0.70757 0.56884 0.11426
 C3571 C 0.70640 0.52617 0.12391
 C3572 C 0.71282 0.52089 0.13590
 C3573 C 0.72037 0.52961 0.14524
 C3574 C 0.72177 0.54410 0.14181
 C3575 C 0.73019 0.55260 0.15061
 C3576 C 0.73653 0.54733 0.16266
 C3577 C 0.73464 0.53345 0.16656
 C3578 C 0.72655 0.52435 0.15793
 C3579 C 0.72466 0.51046 0.16262
 C3580 C 0.73027 0.50598 0.17540
 C3581 C 0.73812 0.51506 0.18392
 C3582 C 0.74050 0.52872 0.17928
 H3583 H 0.71990 0.57178 0.13242
 H3584 H 0.69442 0.53814 0.10204
 H3585 H 0.70765 0.57995 0.11216
 H3586 H 0.70069 0.51905 0.11709
 H3587 H 0.71177 0.50980 0.13744
 H3588 H 0.73223 0.56343 0.14844
 H3589 H 0.74281 0.55431 0.16913
 H3590 H 0.71852 0.50287 0.15692
 H3591 H 0.72825 0.49537 0.17873
 H3592 H 0.74640 0.53591 0.18587
 C3593 C 0.73178 1.04842 0.62897
 C3594 C 0.72874 1.03489 0.63399
 C3595 C 0.72033 1.02607 0.62540
 C3596 C 0.71548 1.03065 0.61225
 C3597 C 0.71840 1.04419 0.60754
 C3598 C 0.72665 1.05295 0.61606
 C3599 C 0.71655 1.01284 0.63008
 C3600 C 0.72040 1.00836 0.64339
 C3601 C 0.72850 1.01686 0.65247
 C3602 C 0.73334 1.03004 0.64740
 C3603 C 0.74262 1.03792 0.65591
 C3604 C 0.74639 1.03354 0.66923
 C3605 C 0.74097 1.02124 0.67469
 C3606 C 0.73196 1.01267 0.66645
 C3607 C 0.72649 1.00049 0.67272
 C3608 C 0.72980 0.99708 0.68657
 C3609 C 0.73873 1.00561 0.69461
 C3610 C 0.74439 1.01759 0.68850
 H3611 H 0.73763 1.05601 0.63498
 H3612 H 0.70922 1.02368 0.60578
 H3613 H 0.72884 1.06359 0.61303
 H3614 H 0.71026 1.00598 0.62351
 H3615 H 0.71698 0.99803 0.64619
 H3616 H 0.74736 1.04751 0.65251
 H3617 H 0.75346 1.04000 0.67542
 H3618 H 0.71931 0.99356 0.66739
 H3619 H 0.72524 0.98777 0.69101
 H3620 H 0.75123 1.02437 0.69462
 C3621 C 0.53132 0.19435 0.63050
 C3622 C 0.53283 0.20813 0.63575
 C3623 C 0.54074 0.21766 0.62771
 C3624 C 0.54637 0.21360 0.61475
 C3625 C 0.54450 0.19998 0.60956
 C3626 C 0.53705 0.19041 0.61767
 C3627 C 0.54299 0.23123 0.63260
 C3628 C 0.53775 0.23556 0.64543
 C3629 C 0.52978 0.22652 0.65386
 C3630 C 0.52691 0.21271 0.64873
 C3631 C 0.51806 0.20403 0.65665
 C3632 C 0.51251 0.20847 0.66929
 C3633 C 0.51568 0.22164 0.67472
 C3634 C 0.52444 0.23085 0.66718
 C3635 C 0.52769 0.24391 0.67345
 C3636 C 0.52245 0.24757 0.68658
 C3637 C 0.51370 0.23847 0.69389
 C3638 C 0.51026 0.22556 0.68780
 H3639 H 0.52599 0.18624 0.63612
 H3640 H 0.55205 0.22116 0.60860
 H3641 H 0.53576 0.17970 0.61421
 H3642 H 0.54897 0.23859 0.62648
 H3643 H 0.53994 0.24623 0.64832
 H3644 H 0.51496 0.19374 0.65324
 H3645 H 0.50575 0.20142 0.67497
 H3646 H 0.53452 0.25142 0.66869
 H3647 H 0.52538 0.25758 0.69106
 H3648 H 0.50369 0.21831 0.69345
 C3649 C 1.04004 0.18619 0.13142
 C3650 C 1.04344 0.19953 0.13687
 C3651 C 1.05466 0.20678 0.13052
 C3652 C 1.06213 0.20078 0.11933
 C3653 C 1.05864 0.18749 0.11393
 C3654 C 1.04743 0.18036 0.12026
 C3655 C 1.05840 0.22005 0.13532
 C3656 C 1.05123 0.22638 0.14625
 C3657 C 1.03996 0.21965 0.15296
 C3658 C 1.03612 0.20591 0.14832
 C3659 C 1.02518 0.19898 0.15537
 C3660 C 1.01826 0.20517 0.16655
 C3661 C 1.02178 0.21857 0.17112
 C3662 C 1.03256 0.22610 0.16432
 C3663 C 1.03551 0.23976 0.16926
 C3664 C 1.02852 0.24537 0.18077
 C3665 C 1.01823 0.23770 0.18777
 C3666 C 1.01474 0.22437 0.18268
 H3667 H 1.03166 0.17991 0.13548
 H3668 H 1.07045 0.20681 0.11469
 H3669 H 1.04435 0.17002 0.11691
 H3670 H 1.06699 0.22565 0.13055
 H3671 H 1.05495 0.23657 0.14927
 H3672 H 1.02177 0.18860 0.15265
 H3673 H 1.01005 0.19935 0.17171
 H3674 H 1.04325 0.24641 0.16459
 H3675 H 1.03143 0.25573 0.18436
 H3676 H 1.00685 0.21826 0.18801
 C3677 C 0.61512 0.21186 0.69359
 C3678 C 0.61033 0.21072 0.70751
 C3679 C 0.61829 0.20217 0.71680
 C3680 C 0.63074 0.19551 0.71234
 C3681 C 0.63545 0.19696 0.69856
 C3682 C 0.62740 0.20511 0.68926
 C3683 C 0.61379 0.20029 0.73049
 C3684 C 0.60139 0.20643 0.73516
 C3685 C 0.59303 0.21498 0.72633
 C3686 C 0.59784 0.21755 0.71243
 C3687 C 0.59008 0.22697 0.70396
 C3688 C 0.57777 0.23324 0.70864
 C3689 C 0.57255 0.23030 0.72187
 C3690 C 0.58004 0.22112 0.73093
 C3691 C 0.57398 0.21822 0.74409
 C3692 C 0.56103 0.22403 0.74790
 C3693 C 0.55370 0.23307 0.73887
 C3694 C 0.55968 0.23631 0.72594
 H3695 H 0.60950 0.21765 0.68566
 H3696 H 0.63683 0.18930 0.71970
 H3697 H 0.63046 0.20613 0.67844
 H3698 H 0.61986 0.19385 0.73769
 H3699 H 0.59876 0.20441 0.74588
 H3700 H 0.59334 0.22991 0.69364
 H3701 H 0.57216 0.24034 0.70172
 H3702 H 0.57875 0.21118 0.75154
 H3703 H 0.55665 0.22129 0.75793
 H3704 H 0.55403 0.24313 0.71876
 C3705 C 1.11415 0.21383 0.17870
 C3706 C 1.11028 0.21356 0.19298
 C3707 C 1.11917 0.20606 0.20234
 C3708 C 1.13136 0.19927 0.19754
 C3709 C 1.13499 0.19961 0.18338
 C3710 C 1.12628 0.20698 0.17405
 C3711 C 1.11589 0.20531 0.21648
 C3712 C 1.10379 0.21159 0.22160
 C3713 C 1.09442 0.21900 0.21274
 C3714 C 1.09788 0.22031 0.19825
 C3715 C 1.08886 0.22833 0.18956
 C3716 C 1.07676 0.23463 0.19471
 C3717 C 1.07301 0.23308 0.20867
 C3718 C 1.08170 0.22518 0.21790
 C3719 C 1.07710 0.22356 0.23185
 C3720 C 1.06446 0.22946 0.23633
 C3721 C 1.05599 0.23731 0.22719
 C3722 C 1.06042 0.23920 0.21339
 H3723 H 1.10796 0.21906 0.17077
 H3724 H 1.13811 0.19378 0.20492
 H3725 H 1.12870 0.20725 0.16301
 H3726 H 1.12274 0.19970 0.22370
 H3727 H 1.10220 0.21053 0.23267
 H3728 H 1.09089 0.23007 0.17865
 H3729 H 1.07015 0.24065 0.18761
 H3730 H 1.08281 0.21752 0.23953
 H3731 H 1.06123 0.22776 0.24703
 H3732 H 1.05380 0.24504 0.20614
 C3733 C 0.12885 0.72064 0.55935
 C3734 C 0.13358 0.71839 0.54554
 C3735 C 0.12546 0.70950 0.53674
 C3736 C 0.11285 0.70364 0.54153
 C3737 C 0.10823 0.70616 0.55521
 C3738 C 0.11646 0.71462 0.56404
 C3739 C 0.13003 0.70641 0.52326
 C3740 C 0.14271 0.71160 0.51841
 C3741 C 0.15122 0.72043 0.52679
 C3742 C 0.14625 0.72437 0.54034
 C3743 C 0.15402 0.73427 0.54818
 C3744 C 0.16659 0.73960 0.54333
 C3745 C 0.17204 0.73519 0.53058
 C3746 C 0.16450 0.72553 0.52209
 C3747 C 0.17079 0.72113 0.50943
 C3748 C 0.18399 0.72607 0.50551
 C3749 C 0.19133 0.73563 0.51396
 C3750 C 0.18516 0.74027 0.52640
 H3751 H 0.13467 0.72666 0.56697
 H3752 H 0.10663 0.69711 0.53457
 H3753 H 0.11354 0.71639 0.57480
 H3754 H 0.12383 0.69970 0.51643
 H3755 H 0.14543 0.70867 0.50789
 H3756 H 0.15056 0.73835 0.55809
 H3757 H 0.17223 0.74712 0.54977
 H3758 H 0.16601 0.71358 0.50249
 H3759 H 0.18852 0.72225 0.49585
 H3760 H 0.19079 0.74753 0.53314
 C3761 C 0.14690 0.18397 1.04572
 C3762 C 0.14884 0.19861 1.04487
 C3763 C 0.13912 0.20734 1.05201
 C3764 C 0.12747 0.20157 1.05887
 C3765 C 0.12526 0.18708 1.05880
 C3766 C 0.13529 0.17838 1.05249
 C3767 C 0.14088 0.22181 1.05199
 C3768 C 0.15196 0.22789 1.04489
 C3769 C 0.16166 0.21972 1.03722
 C3770 C 0.15996 0.20484 1.03707
 C3771 C 0.16913 0.19671 1.02875
 C3772 C 0.17952 0.20284 1.02081
 C3773 C 0.18149 0.21726 1.02104
 C3774 C 0.17283 0.22594 1.02944
 C3775 C 0.17585 0.24046 1.02976
 C3776 C 0.18695 0.24599 1.02205
 C3777 C 0.19519 0.23733 1.01355
 C3778 C 0.19230 0.22299 1.01304
 H3779 H 0.15413 0.17649 1.04129
 H3780 H 0.11983 0.20839 1.06380
 H3781 H 0.13411 0.16713 1.05271
 H3782 H 0.13353 0.22854 1.05747
 H3783 H 0.15237 0.23913 1.04528
 H3784 H 0.16834 0.18551 1.02780
 H3785 H 0.18615 0.19617 1.01443
 H3786 H 0.17012 0.24779 1.03616
 H3787 H 0.18919 0.25706 1.02286
 H3788 H 0.19891 0.21611 1.00685
 C3789 C 0.62923 0.52799 0.18490
 C3790 C 0.63465 0.52923 0.19871
 C3791 C 0.62620 0.53627 0.20869
 C3792 C 0.61291 0.54164 0.20493
 C3793 C 0.60780 0.54051 0.19117
 C3794 C 0.61607 0.53355 0.18125
 C3795 C 0.63109 0.53809 0.22236
 C3796 C 0.64444 0.53355 0.22630
 C3797 C 0.65344 0.52678 0.21671
 C3798 C 0.64825 0.52405 0.20286
 C3799 C 0.65679 0.51622 0.19366
 C3800 C 0.67014 0.51165 0.19764
 C3801 C 0.67565 0.51489 0.21083
 C3802 C 0.66745 0.52258 0.22054
 C3803 C 0.67378 0.52604 0.23357
 C3804 C 0.68756 0.52197 0.23676
 C3805 C 0.69554 0.51423 0.22719
 C3806 C 0.68944 0.51063 0.21426
 H3807 H 0.63502 0.52313 0.17654
 H3808 H 0.60656 0.54680 0.21278
 H3809 H 0.61256 0.53272 0.17047
 H3810 H 0.62460 0.54330 0.23008
 H3811 H 0.64731 0.53535 0.23708
 H3812 H 0.65340 0.51324 0.18330
 H3813 H 0.67632 0.50568 0.19021
 H3814 H 0.66854 0.53220 0.24143
 H3815 H 0.69201 0.52495 0.24682
 H3816 H 0.69557 0.50481 0.20667
 C3817 C 0.62974 1.05353 0.72251
 C3818 C 0.63472 1.03971 0.72037
 C3819 C 0.62594 1.03044 0.71267
 C3820 C 0.61265 1.03483 0.70771
 C3821 C 0.60782 1.04849 0.71015
 C3822 C 0.61656 1.05778 0.71750
 C3823 C 0.63043 1.01680 0.70996
 C3824 C 0.64354 1.01213 0.71456
 C3825 C 0.65272 1.02091 0.72227
 C3826 C 0.64810 1.03484 0.72548
 C3827 C 0.65695 1.04338 0.73381
 C3828 C 0.66994 1.03865 0.73863
 C3829 C 0.67476 1.02528 0.73527
 C3830 C 0.66632 1.01621 0.72697
 C3831 C 0.67199 1.00288 0.72360
 C3832 C 0.68538 0.99884 0.72828
 C3833 C 0.69357 1.00783 0.73657
 C3834 C 0.68812 1.02102 0.74008
 H3835 H 0.63581 1.06144 0.72784
 H3836 H 0.60597 1.02752 0.70210
 H3837 H 0.61331 1.06851 0.71923
 H3838 H 0.62375 1.00965 0.70413
 H3839 H 0.64608 1.00143 0.71204
 H3840 H 0.65409 1.05381 0.73701
 H3841 H 0.67635 1.04560 0.74499
 H3842 H 0.66649 0.99539 0.71715
 H3843 H 0.68936 0.98861 0.72534
 H3844 H 0.69443 1.02817 0.74632
 C3845 C 0.87067 0.46651 0.30824
 C3846 C 0.86662 0.46468 0.29404
 C3847 C 0.87595 0.45714 0.28527
 C3848 C 0.88889 0.45209 0.29049
 C3849 C 0.89278 0.45408 0.30455
 C3850 C 0.88348 0.46129 0.31334
 C3851 C 0.87233 0.45462 0.27132
 C3852 C 0.85952 0.45920 0.26586
 C3853 C 0.84983 0.46677 0.27410
 C3854 C 0.85364 0.46992 0.28831
 C3855 C 0.84444 0.47839 0.29624
 C3856 C 0.83185 0.48338 0.29064
 C3857 C 0.82776 0.47996 0.27702
 C3858 C 0.83655 0.47147 0.26857
 C3859 C 0.83154 0.46790 0.25500
 C3860 C 0.81849 0.47274 0.25007
 C3861 C 0.81003 0.48137 0.25839
 C3862 C 0.81479 0.48494 0.27187
 H3863 H 0.86407 0.47166 0.31579
 H3864 H 0.89598 0.44667 0.28349
 H3865 H 0.88596 0.46272 0.32432
 H3866 H 0.87945 0.44892 0.26455
 H3867 H 0.85766 0.45686 0.25497
 H3868 H 0.84677 0.48164 0.30681
 H3869 H 0.82519 0.48993 0.29711
 H3870 H 0.83728 0.46117 0.24800
 H3871 H 0.81502 0.46969 0.23967
 H3872 H 0.80824 0.49141 0.27854
 C3873 C 0.84408 0.91476 0.80966
 C3874 C 0.84401 0.92955 0.80916
 C3875 C 0.85228 0.93678 0.81923
 C3876 C 0.86046 0.92938 0.82909
 C3877 C 0.86033 0.91469 0.82947
 C3878 C 0.85201 0.90754 0.81967
 C3879 C 0.85230 0.95137 0.81946
 C3880 C 0.84377 0.95899 0.81035
 C3881 C 0.83514 0.95229 0.80028
 C3882 C 0.83583 0.93736 0.79923
 C3883 C 0.82841 0.93074 0.78821
 C3884 C 0.81982 0.93828 0.77915
 C3885 C 0.81806 0.95266 0.78080
 C3886 C 0.82581 0.95997 0.79123
 C3887 C 0.82347 0.97458 0.79243
 C3888 C 0.81325 0.98136 0.78423
 C3889 C 0.80533 0.97393 0.77427
 C3890 C 0.80819 0.95966 0.77231
 H3891 H 0.83799 0.90843 0.80257
 H3892 H 0.86702 0.93517 0.83638
 H3893 H 0.85164 0.89625 0.81969
 H3894 H 0.85871 0.95698 0.82705
 H3895 H 0.84428 0.97020 0.81139
 H3896 H 0.82919 0.91969 0.78613
 H3897 H 0.81429 0.93272 0.77088
 H3898 H 0.82884 0.98098 0.80006
 H3899 H 0.81124 0.99238 0.78601
 H3900 H 0.80207 0.95371 0.76474
 C3901 C 0.40444 0.32919 0.80780
 C3902 C 0.40333 0.31467 0.80524
 C3903 C 0.39357 0.30703 0.81328
 C3904 C 0.38483 0.31394 0.82297
 C3905 C 0.38580 0.32844 0.82497
 C3906 C 0.39582 0.33588 0.81746
 C3907 C 0.39261 0.29256 0.81161
 C3908 C 0.40138 0.28543 0.80241
 C3909 C 0.41127 0.29258 0.79416
 C3910 C 0.41176 0.30750 0.79516
 C3911 C 0.42048 0.31481 0.78585
 C3912 C 0.42920 0.30780 0.77662
 C3913 C 0.42980 0.29326 0.77638
 C3914 C 0.42072 0.28537 0.78497
 C3915 C 0.42190 0.27060 0.78431
 C3916 C 0.43224 0.26411 0.77618
 C3917 C 0.44149 0.27205 0.76814
 C3918 C 0.43982 0.28661 0.76792
 H3919 H 0.41196 0.33568 0.80264
 H3920 H 0.37713 0.30807 0.82878
 H3921 H 0.39697 0.34702 0.81905
 H3922 H 0.38515 0.28664 0.81769
 H3923 H 0.40003 0.27427 0.80188
 H3924 H 0.42059 0.32604 0.78523
 H3925 H 0.43573 0.31387 0.76972
 H3926 H 0.41550 0.26377 0.79049
 H3927 H 0.43332 0.25284 0.77661
 H3928 H 0.44700 0.29290 0.76188
 C3929 C 0.88309 0.28675 0.30868
 C3930 C 0.88683 0.28861 0.29449
 C3931 C 0.87756 0.29660 0.28595
 C3932 C 0.86501 0.30215 0.29139
 C3933 C 0.86149 0.30026 0.30547
 C3934 C 0.87069 0.29249 0.31402
 C3935 C 0.88088 0.29913 0.27202
 C3936 C 0.89340 0.29421 0.26638
 C3937 C 0.90307 0.28629 0.27444
 C3938 C 0.89949 0.28302 0.28858
 C3939 C 0.90862 0.27418 0.29629
 C3940 C 0.92099 0.26904 0.29059
 C3941 C 0.92495 0.27266 0.27709
 C3942 C 0.91615 0.28141 0.26881
 C3943 C 0.92102 0.28512 0.25535
 C3944 C 0.93403 0.28033 0.25044
 C3945 C 0.94255 0.27156 0.25866
 C3946 C 0.93783 0.26769 0.27194
 H3947 H 0.88968 0.28122 0.31606
 H3948 H 0.85797 0.30796 0.28455
 H3949 H 0.86848 0.29107 0.32499
 H3950 H 0.87378 0.30516 0.26540
 H3951 H 0.89507 0.29663 0.25554
 H3952 H 0.90640 0.27079 0.30676
 H3953 H 0.92764 0.26226 0.29692
 H3954 H 0.91524 0.29201 0.24847
 H3955 H 0.93746 0.28360 0.24020
 H3956 H 0.94442 0.26112 0.27855
 C3957 C 0.36294 0.79090 0.43581
 C3958 C 0.35876 0.79268 0.44988
 C3959 C 0.36700 0.80157 0.45852
 C3960 C 0.37923 0.80783 0.45339
 C3961 C 0.38337 0.80580 0.43948
 C3962 C 0.37500 0.79738 0.43075
 C3963 C 0.36303 0.80423 0.47228
 C3964 C 0.35084 0.79848 0.47763
 C3965 C 0.34227 0.78950 0.46950
 C3966 C 0.34660 0.78611 0.45559
 C3967 C 0.33883 0.77604 0.44796
 C3968 C 0.32699 0.76983 0.45354
 C3969 C 0.32216 0.77363 0.46674
 C3970 C 0.32962 0.78362 0.47489
 C3971 C 0.32392 0.78749 0.48799
 C3972 C 0.31145 0.78159 0.49275
 C3973 C 0.30424 0.77160 0.48471
 C3974 C 0.30977 0.76759 0.47175
 H3975 H 0.35696 0.78486 0.42832
 H3976 H 0.38558 0.81419 0.46037
 H3977 H 0.37762 0.79590 0.41986
 H3978 H 0.36934 0.81096 0.47897
 H3979 H 0.34863 0.80103 0.48837
 H3980 H 0.34183 0.77244 0.43773
 H3981 H 0.32146 0.76203 0.44737
 H3982 H 0.32858 0.79533 0.49467
 H3983 H 0.30736 0.78504 0.50273
 H3984 H 0.30419 0.76005 0.46529
 C3985 C 0.35885 0.31775 0.94778
 C3986 C 0.34936 0.30765 0.94236
 C3987 C 0.34790 0.30671 0.92761
 C3988 C 0.35514 0.31587 0.91884
 C3989 C 0.36447 0.32583 0.92434
 C3990 C 0.36625 0.32663 0.93891
 C3991 C 0.33927 0.29658 0.92160
 C3992 C 0.33181 0.28739 0.92984
 C3993 C 0.33257 0.28805 0.94458
 C3994 C 0.34128 0.29851 0.95097
 C3995 C 0.34127 0.29970 0.96571
 C3996 C 0.33263 0.29141 0.97386
 C3997 C 0.32394 0.28133 0.96775
 C3998 C 0.32439 0.27898 0.95311
 C3999 C 0.31640 0.26777 0.94759
 C4000 C 0.30718 0.26034 0.95597
 C4001 C 0.30548 0.26382 0.97012
 C4002 C 0.31437 0.27395 0.97609
 H4003 H 0.36096 0.31895 0.95881
 H4004 H 0.35347 0.31520 0.90763
 H4005 H 0.37358 0.33399 0.94353
 H4006 H 0.33837 0.29567 0.91034
 H4007 H 0.32516 0.28014 0.92428
 H4008 H 0.34739 0.30741 0.97127
 H4009 H 0.33252 0.29312 0.98508
 H4010 H 0.31686 0.26458 0.93678
 H4011 H 0.30066 0.25243 0.95103
 H4012 H 0.31337 0.27660 0.98708
 C4013 C 0.81266 0.46334 0.36142
 C4014 C 0.79865 0.46250 0.35625
 C4015 C 0.78873 0.45535 0.36456
 C4016 C 0.79269 0.44963 0.37753
 C4017 C 0.80660 0.45059 0.38251
 C4018 C 0.81651 0.45748 0.37428
 C4019 C 0.77487 0.45390 0.35989
 C4020 C 0.77061 0.45909 0.34700
 C4021 C 0.78006 0.46618 0.33823
 C4022 C 0.79420 0.46831 0.34312
 C4023 C 0.80334 0.47628 0.33479
 C4024 C 0.79897 0.48173 0.32200
 C4025 C 0.78542 0.47927 0.31683
 C4026 C 0.77579 0.47135 0.32478
 C4027 C 0.76236 0.46871 0.31878
 C4028 C 0.75869 0.47382 0.30559
 C4029 C 0.76816 0.48181 0.29788
 C4030 C 0.78151 0.48457 0.30364
 H4031 H 0.82101 0.46820 0.35569
 H4032 H 0.78485 0.44449 0.38381
 H4033 H 0.82740 0.45815 0.37764
 H4034 H 0.76721 0.44855 0.36625
 H4035 H 0.75968 0.45756 0.34432
 H4036 H 0.81396 0.47873 0.33795
 H4037 H 0.80635 0.48783 0.31602
 H4038 H 0.75451 0.46247 0.32382
 H4039 H 0.74834 0.47142 0.30138
 H4040 H 0.78902 0.49056 0.29769
 C4041 C 0.82789 0.93957 0.84756
 C4042 C 0.81301 0.93990 0.84721
 C4043 C 0.80581 0.92975 0.85513
 C4044 C 0.81334 0.92007 0.86343
 C4045 C 0.82814 0.92008 0.86380
 C4046 C 0.83524 0.92982 0.85561
 C4047 C 0.79112 0.92930 0.85472
 C4048 C 0.78342 0.93838 0.84622
 C4049 C 0.79011 0.94862 0.83806
 C4050 C 0.80511 0.94979 0.83909
 C4051 C 0.81171 0.96091 0.83211
 C4052 C 0.80412 0.96997 0.82362
 C4053 C 0.78971 0.96821 0.82150
 C4054 C 0.78239 0.95769 0.82883
 C4055 C 0.76773 0.95642 0.82617
 C4056 C 0.76099 0.96455 0.81595
 C4057 C 0.76848 0.97450 0.80834
 C4058 C 0.78272 0.97664 0.81164
 H4059 H 0.83423 0.94659 0.84159
 H4060 H 0.80762 0.91268 0.86972
 H4061 H 0.84661 0.92997 0.85542
 H4062 H 0.78551 0.92162 0.86080
 H4063 H 0.77215 0.93718 0.84640
 H4064 H 0.82279 0.96308 0.83315
 H4065 H 0.80966 0.97831 0.81842
 H4066 H 0.76131 0.94877 0.83127
 H4067 H 0.74997 0.96264 0.81362
 H4068 H 0.78871 0.98422 0.80578
 C4069 C 0.31472 0.78991 0.38764
 C4070 C 0.30023 0.79060 0.39099
 C4071 C 0.29128 0.79866 0.38217
 C4072 C 0.29664 0.80537 0.37037
 C4073 C 0.31100 0.80458 0.36719
 C4074 C 0.31996 0.79679 0.37595
 C4075 C 0.27702 0.80008 0.38518
 C4076 C 0.27143 0.79404 0.39704
 C4077 C 0.27989 0.78607 0.40630
 C4078 C 0.29438 0.78382 0.40290
 C4079 C 0.30249 0.77477 0.41143
 C4080 C 0.29685 0.76862 0.42322
 C4081 C 0.28305 0.77146 0.42718
 C4082 C 0.27433 0.78022 0.41882
 C4083 C 0.26052 0.78307 0.42359
 C4084 C 0.25574 0.77756 0.43615
 C4085 C 0.26444 0.76895 0.44437
 C4086 C 0.27802 0.76576 0.43966
 H4087 H 0.32238 0.78446 0.39400
 H4088 H 0.28955 0.81120 0.36361
 H4089 H 0.33114 0.79622 0.37394
 H4090 H 0.27011 0.80611 0.37838
 H4091 H 0.26031 0.79564 0.39851
 H4092 H 0.31325 0.77201 0.40917
 H4093 H 0.30346 0.76171 0.42942
 H4094 H 0.25328 0.78987 0.41813
 H4095 H 0.24521 0.78027 0.43955
 H4096 H 0.28493 0.75924 0.44598
 C4097 C 0.30703 0.32763 0.90343
 C4098 C 0.30570 0.31296 0.90243
 C4099 C 0.31527 0.30567 0.89371
 C4100 C 0.32528 0.31301 0.88584
 C4101 C 0.32599 0.32767 0.88654
 C4102 C 0.31695 0.33476 0.89564
 C4103 C 0.31469 0.29111 0.89280
 C4104 C 0.30507 0.28358 0.90063
 C4105 C 0.29529 0.29038 0.90943
 C4106 C 0.29525 0.30534 0.90986
 C4107 C 0.28458 0.31223 0.91747
 C4108 C 0.27472 0.30482 0.92496
 C4109 C 0.27524 0.29029 0.92549
 C4110 C 0.28549 0.28278 0.91776
 C4111 C 0.28576 0.26802 0.91916
 C4112 C 0.27673 0.26123 0.92839
 C4113 C 0.26693 0.26883 0.93628
 C4114 C 0.26589 0.28331 0.93427
 H4115 H 0.30059 0.33395 0.91014
 H4116 H 0.33218 0.30733 0.87886
 H4117 H 0.31740 0.34601 0.89660
 H4118 H 0.32190 0.28544 0.88611
 H4119 H 0.30538 0.27239 0.89935
 H4120 H 0.28332 0.32342 0.91764
 H4121 H 0.26676 0.31059 0.93066
 H4122 H 0.29334 0.26150 0.91389
 H4123 H 0.27793 0.25005 0.92985
 H4124 H 0.25858 0.28942 0.94047
 C4125 C 0.41597 0.30531 0.84295
 C4126 C 0.43087 0.30498 0.84257
 C4127 C 0.43824 0.31494 0.85083
 C4128 C 0.43089 0.32473 0.85905
 C4129 C 0.41612 0.32487 0.85927
 C4130 C 0.40881 0.31505 0.85116
 C4131 C 0.45292 0.31502 0.85098
 C4132 C 0.46053 0.30576 0.84273
 C4133 C 0.45374 0.29584 0.83403
 C4134 C 0.43867 0.29520 0.83425
 C4135 C 0.43189 0.28478 0.82618
 C4136 C 0.43944 0.27580 0.81762
 C4137 C 0.45401 0.27684 0.81663
 C4138 C 0.46146 0.28666 0.82499
 C4139 C 0.47631 0.28709 0.82360
 C4140 C 0.48320 0.27888 0.81363
 C4141 C 0.47564 0.26969 0.80496
 C4142 C 0.46110 0.26837 0.80692
 H4143 H 0.40947 0.29816 0.83712
 H4144 H 0.43672 0.33204 0.86553
 H4145 H 0.39743 0.31485 0.85121
 H4146 H 0.45862 0.32251 0.85740
 H4147 H 0.47181 0.30670 0.84339
 H4148 H 0.42069 0.28322 0.82621
 H4149 H 0.43374 0.26807 0.81153
 H4150 H 0.48289 0.29404 0.82963
 H4151 H 0.49445 0.28011 0.81237
 H4152 H 0.45507 0.26138 0.80024
 C4153 C 0.93797 0.29122 0.36020
 C4154 C 0.95216 0.29234 0.35595
 C4155 C 0.96145 0.30015 0.36465
 C4156 C 0.95671 0.30613 0.37724
 C4157 C 0.94270 0.30460 0.38143
 C4158 C 0.93340 0.29722 0.37268
 C4159 C 0.97543 0.30193 0.36077
 C4160 C 0.98044 0.29630 0.34835
 C4161 C 0.97166 0.28842 0.33931
 C4162 C 0.95738 0.28611 0.34335
 C4163 C 0.94883 0.27753 0.33474
 C4164 C 0.95387 0.27173 0.32243
 C4165 C 0.96756 0.27431 0.31807
 C4166 C 0.97668 0.28271 0.32637
 C4167 C 0.99037 0.28524 0.32120
 C4168 C 0.99463 0.27982 0.30832
 C4169 C 0.98554 0.27157 0.30018
 C4170 C 0.97207 0.26871 0.30525
 H4171 H 0.93004 0.28594 0.35406
 H4172 H 0.96403 0.31179 0.38391
 H4173 H 0.92242 0.29620 0.37540
 H4174 H 0.98260 0.30784 0.36739
 H4175 H 0.99138 0.29817 0.34626
 H4176 H 0.93816 0.27490 0.33729
 H4177 H 0.94689 0.26525 0.31617
 H4178 H 0.99795 0.29166 0.32664
 H4179 H 1.00508 0.28227 0.30465
 H4180 H 0.96483 0.26251 0.29897
 C4181 C 0.44343 0.34547 0.82879
 C4182 C 0.44421 0.34546 0.81402
 C4183 C 0.43442 0.35391 0.80655
 C4184 C 0.42443 0.36211 0.81372
 C4185 C 0.42389 0.36198 0.82838
 C4186 C 0.43345 0.35354 0.83576
 C4187 C 0.43456 0.35405 0.79197
 C4188 C 0.44387 0.34562 0.78456
 C4189 C 0.45364 0.33679 0.79150
 C4190 C 0.45416 0.33713 0.80647
 C4191 C 0.46462 0.32912 0.81340
 C4192 C 0.47353 0.32026 0.80611
 C4193 C 0.47241 0.31895 0.79164
 C4194 C 0.46275 0.32742 0.78402
 C4195 C 0.46229 0.32572 0.76929
 C4196 C 0.47019 0.31527 0.76268
 C4197 C 0.47912 0.30645 0.77042
 C4198 C 0.48061 0.30879 0.78484
 H4199 H 0.45026 0.33929 0.83533
 H4200 H 0.41717 0.36869 0.80787
 H4201 H 0.43319 0.35313 0.84705
 H4202 H 0.42717 0.36056 0.78618
 H4203 H 0.44310 0.34625 0.77334
 H4204 H 0.46628 0.32948 0.82455
 H4205 H 0.48123 0.31416 0.81193
 H4206 H 0.45545 0.33181 0.76261
 H4207 H 0.46887 0.31375 0.75151
 H4208 H 0.48744 0.30203 0.79100
 C4209 C 0.97000 0.37345 0.30605
 C4210 C 0.96840 0.36959 0.29183
 C4211 C 0.96024 0.37850 0.28307
 C4212 C 0.95448 0.39101 0.28834
 C4213 C 0.95643 0.39479 0.30241
 C4214 C 0.96412 0.38579 0.31118
 C4215 C 0.95783 0.37486 0.26912
 C4216 C 0.96299 0.36235 0.26371
 C4217 C 0.97111 0.35308 0.27201
 C4218 C 0.97435 0.35705 0.28612
 C4219 C 0.98354 0.34845 0.29404
 C4220 C 0.98880 0.33602 0.28865
 C4221 C 0.98502 0.33155 0.27526
 C4222 C 0.97613 0.33996 0.26669
 C4223 C 0.97236 0.33465 0.25332
 C4224 C 0.97703 0.32151 0.24885
 C4225 C 0.98574 0.31327 0.25743
 C4226 C 0.98988 0.31850 0.27054
 H4227 H 0.97543 0.36702 0.31362
 H4228 H 0.94854 0.39786 0.28143
 H4229 H 0.96541 0.38813 0.32220
 H4230 H 0.95169 0.38166 0.26233
 H4231 H 0.96062 0.36038 0.25284
 H4232 H 0.98710 0.35113 0.30443
 H4233 H 0.99574 0.32972 0.29517
 H4234 H 0.96544 0.34016 0.24621
 H4235 H 0.97362 0.31771 0.23868
 H4236 H 0.99647 0.31216 0.27737
 C4237 C 0.31655 0.86067 0.45509
 C4238 C 0.30190 0.85798 0.45483
 C4239 C 0.29320 0.86695 0.44665
 C4240 C 0.29898 0.87844 0.43958
 C4241 C 0.31346 0.88119 0.44039
 C4242 C 0.32215 0.87205 0.44803
 C4243 C 0.27877 0.86447 0.44562
 C4244 C 0.27272 0.85322 0.45243
 C4245 C 0.28087 0.84404 0.46081
 C4246 C 0.29565 0.84668 0.46231
 C4247 C 0.30366 0.83809 0.47141
 C4248 C 0.29759 0.82707 0.47850
 C4249 C 0.28336 0.82402 0.47675
 C4250 C 0.27475 0.83235 0.46783
 C4251 C 0.26046 0.82839 0.46613
 C4252 C 0.25512 0.81662 0.47284
 C4253 C 0.26371 0.80851 0.48165
 C4254 C 0.27778 0.81243 0.48369
 H4255 H 0.32405 0.85411 0.46050
 H4256 H 0.29213 0.88540 0.43370
 H4257 H 0.33342 0.87362 0.44849
 H4258 H 0.27204 0.87130 0.43942
 H4259 H 0.26150 0.85216 0.45110
 H4260 H 0.31469 0.83971 0.47350
 H4261 H 0.30420 0.82076 0.48534
 H4262 H 0.25320 0.83391 0.45937
 H4263 H 0.24424 0.81373 0.47096
 H4264 H 0.28464 0.80606 0.49024
 C4265 C 0.32961 0.34291 0.93781
 C4266 C 0.31485 0.34382 0.93951
 C4267 C 0.30728 0.35329 0.93085
 C4268 C 0.31441 0.36181 0.92132
 C4269 C 0.32908 0.36083 0.91988
 C4270 C 0.33653 0.35127 0.92819
 C4271 C 0.29264 0.35409 0.93160
 C4272 C 0.28524 0.34533 0.94042
 C4273 C 0.29227 0.33569 0.94924
 C4274 C 0.30735 0.33546 0.94927
 C4275 C 0.31443 0.32705 0.95922
 C4276 C 0.30710 0.31849 0.96822
 C4277 C 0.29248 0.31761 0.96743
 C4278 C 0.28478 0.32627 0.95805
 C4279 C 0.26995 0.32470 0.95754
 C4280 C 0.26327 0.31447 0.96544
 C4281 C 0.27104 0.30567 0.97435
 C4282 C 0.28560 0.30769 0.97565
 H4283 H 0.33607 0.33565 0.94357
 H4284 H 0.30847 0.36924 0.91507
 H4285 H 0.34782 0.35022 0.92719
 H4286 H 0.28679 0.36134 0.92504
 H4287 H 0.27395 0.34654 0.94025
 H4288 H 0.32571 0.32708 0.96055
 H4289 H 0.31295 0.31227 0.97573
 H4290 H 0.26328 0.33069 0.95061
 H4291 H 0.25201 0.31308 0.96414
 H4292 H 0.29181 0.30083 0.98232
 C4293 C 0.78864 0.38493 0.30746
 C4294 C 0.78961 0.38815 0.29308
 C4295 C 0.79719 0.37872 0.28444
 C4296 C 0.80289 0.36629 0.28997
 C4297 C 0.80142 0.36309 0.30417
 C4298 C 0.79442 0.37265 0.31284
 C4299 C 0.79902 0.38172 0.27032
 C4300 C 0.79371 0.39401 0.26457
 C4301 C 0.78603 0.40372 0.27271
 C4302 C 0.78353 0.40048 0.28707
 C4303 C 0.77481 0.40953 0.29490
 C4304 C 0.76919 0.42162 0.28912
 C4305 C 0.77213 0.42530 0.27539
 C4306 C 0.78065 0.41650 0.26695
 C4307 C 0.78364 0.42108 0.25322
 C4308 C 0.77843 0.43383 0.24822
 C4309 C 0.76994 0.44236 0.25662
 C4310 C 0.76672 0.43792 0.27015
 H4311 H 0.78373 0.39180 0.31495
 H4312 H 0.80830 0.35901 0.28314
 H4313 H 0.79355 0.37075 0.32395
 H4314 H 0.80474 0.37453 0.26363
 H4315 H 0.79558 0.39545 0.25358
 H4316 H 0.77186 0.40746 0.30553
 H4317 H 0.76258 0.42826 0.29556
 H4318 H 0.79029 0.41527 0.24620
 H4319 H 0.78117 0.43706 0.23776
 H4320 H 0.76038 0.44456 0.27686
   
