data_POSCAR
  _audit_creation_date              2014-09-24
  _audit_creation_method            'ToBaCCo'
  _symmetry_space_group_name_H-M    'P1'
  _symmetry_Int_Tables_number       1
  _symmetry_cell_setting            triclinic
  loop_
  _symmetry_equiv_pos_as_xyz
 x,y,z
_cell_length_a 62.7681
_cell_length_b 62.8193
_cell_length_c 63.0249
_cell_angle_alpha 91.939500
_cell_angle_beta 91.979600
_cell_angle_gamma 91.997600
loop_
  _atom_site_label
  _atom_site_type_symbol
  _atom_site_fract_x
  _atom_site_fract_y
  _atom_site_fract_z
N1 N 0.17558 0.22432 0.23069
 N2 N 0.18154 0.20745 0.24085
 C3 C 0.16845 0.20421 0.25701
 C4 C 0.15365 0.21988 0.25679
 C5 C 0.15850 0.23238 0.23998
 H6 H 0.16950 0.19144 0.26804
 H7 H 0.15021 0.24623 0.23488
 Cu8 Cu 0.20570 0.19134 0.23191
 Cu9 Cu 0.19023 0.23454 0.20616
 Cu10 Cu 0.23406 0.20673 0.19043
 N11 N 0.23058 0.17626 0.22317
 N12 N 0.24161 0.18237 0.20693
 C13 C 0.25782 0.16921 0.20420
 C14 C 0.25679 0.15419 0.21956
 C15 C 0.23943 0.15897 0.23135
 H16 H 0.26941 0.17040 0.19195
 H17 H 0.23368 0.15045 0.24476
 N18 N 0.22390 0.23178 0.17580
 N19 N 0.20717 0.24237 0.18177
 C20 C 0.20415 0.25849 0.16855
 C21 C 0.21972 0.25789 0.15374
 C22 C 0.23197 0.24088 0.15863
 H23 H 0.19155 0.26975 0.16953
 H24 H 0.24563 0.23550 0.15023
 H25 H 0.20191 0.20561 0.19656
 H26 H 0.21957 0.22295 0.21489
 N27 N 0.67573 0.72468 0.73112
 N28 N 0.68231 0.70841 0.74186
 C29 C 0.66921 0.70511 0.75800
 C30 C 0.65378 0.72015 0.75719
 C31 C 0.65825 0.73231 0.74004
 H32 H 0.67073 0.69278 0.76946
 H33 H 0.64948 0.74568 0.73450
 Cu34 Cu 0.70726 0.69307 0.73373
 Cu35 Cu 0.69018 0.73475 0.70645
 Cu36 Cu 0.73401 0.70702 0.69065
 N37 N 0.73141 0.67733 0.72413
 N38 N 0.74180 0.68287 0.70728
 C39 C 0.75765 0.66935 0.70415
 C40 C 0.75704 0.65469 0.71987
 C41 C 0.74029 0.66005 0.73229
 H42 H 0.76875 0.67011 0.69142
 H43 H 0.73501 0.65196 0.74615
 N44 N 0.72365 0.73191 0.67589
 N45 N 0.70693 0.74248 0.68189
 C46 C 0.70387 0.75860 0.66869
 C47 C 0.71940 0.75800 0.65383
 C48 C 0.73168 0.74101 0.65871
 H49 H 0.69132 0.76991 0.66975
 H50 H 0.74539 0.73572 0.65034
 H51 H 0.70207 0.70559 0.69780
 H52 H 0.71996 0.72404 0.71479
 N53 N 0.31988 0.76995 0.73713
 N54 N 0.31462 0.78772 0.74695
 C55 C 0.32788 0.79151 0.76406
 C56 C 0.34201 0.77522 0.76485
 C57 C 0.33660 0.76184 0.74761
 H58 H 0.32749 0.80515 0.77495
 H59 H 0.34447 0.74747 0.74288
 Cu60 Cu 0.29117 0.80427 0.73625
 Cu61 Cu 0.30522 0.75901 0.71112
 Cu62 Cu 0.26279 0.78749 0.69205
 N63 N 0.26670 0.81950 0.72576
 N64 N 0.25567 0.81289 0.70851
 C65 C 0.23953 0.82607 0.70506
 C66 C 0.24064 0.84165 0.72101
 C67 C 0.25794 0.83713 0.73391
 H68 H 0.22780 0.82435 0.69207
 H69 H 0.26356 0.84589 0.74821
 N70 N 0.27243 0.76138 0.67767
 N71 N 0.28854 0.75046 0.68502
 C72 C 0.29145 0.73373 0.67161
 C73 C 0.27645 0.73423 0.65519
 C74 C 0.26466 0.75188 0.65938
 H75 H 0.30374 0.72222 0.67342
 H76 H 0.25162 0.75749 0.64967
 H77 H 0.29477 0.78794 0.70092
 H78 H 0.27622 0.77226 0.71751
 N79 N 0.82112 0.26949 0.23719
 N80 N 0.81531 0.28676 0.24754
 C81 C 0.82854 0.29053 0.26469
 C82 C 0.84322 0.27472 0.26492
 C83 C 0.83820 0.26166 0.24735
 H84 H 0.82769 0.30380 0.27598
 H85 H 0.84648 0.24768 0.24221
 Cu86 Cu 0.79111 0.30256 0.23737
 Cu87 Cu 0.80656 0.25868 0.21105
 Cu88 Cu 0.76390 0.28711 0.19225
 N89 N 0.76723 0.31847 0.22662
 N90 N 0.75664 0.31233 0.20896
 C91 C 0.74077 0.32578 0.20533
 C92 C 0.74156 0.34104 0.22158
 C93 C 0.75844 0.33605 0.23484
 H94 H 0.72940 0.32444 0.19202
 H95 H 0.76371 0.34447 0.24943
 N96 N 0.77370 0.26118 0.17762
 N97 N 0.78989 0.25029 0.18485
 C98 C 0.79281 0.23363 0.17134
 C99 C 0.77774 0.23415 0.15499
 C100 C 0.76589 0.25172 0.15933
 H101 H 0.80508 0.22210 0.17310
 H102 H 0.75271 0.25725 0.14975
 H103 H 0.79576 0.28769 0.20166
 H104 H 0.77716 0.27097 0.21717
 N105 N 0.81968 0.72728 0.26689
 N106 N 0.81292 0.70971 0.25643
 C107 C 0.82607 0.70578 0.24040
 C108 C 0.84174 0.72173 0.24101
 C109 C 0.83731 0.73511 0.25792
 H110 H 0.82432 0.69248 0.22904
 H111 H 0.84613 0.74955 0.26315
 Cu112 Cu 0.78745 0.69396 0.26468
 Cu113 Cu 0.80494 0.73901 0.29106
 Cu114 Cu 0.75931 0.71137 0.30579
 N115 N 0.76191 0.67849 0.27325
 N116 N 0.75094 0.68548 0.28932
 C117 C 0.73431 0.67186 0.29210
 C118 C 0.73497 0.65558 0.27698
 C119 C 0.75261 0.66014 0.26527
 H120 H 0.72278 0.67350 0.30436
 H121 H 0.75832 0.65065 0.25215
 N122 N 0.77032 0.73784 0.32053
 N123 N 0.78778 0.74832 0.31505
 C124 C 0.79131 0.76541 0.32839
 C125 C 0.77528 0.76558 0.34276
 C126 C 0.76228 0.74798 0.33747
 H127 H 0.80462 0.77677 0.32787
 H128 H 0.74818 0.74286 0.34555
 H129 H 0.79159 0.71044 0.30025
 H130 H 0.77514 0.72642 0.28186
 N131 N 0.32014 0.22727 -0.23342
 N132 N 0.31345 0.20967 -0.24389
 C133 C 0.32667 0.20572 -0.25985
 C134 C 0.34231 0.22171 -0.25918
 C135 C 0.33781 0.23512 -0.24232
 H136 H 0.32499 0.19240 -0.27119
 H137 H 0.34658 0.24959 -0.23706
 Cu138 Cu 0.28793 0.19392 -0.23574
 Cu139 Cu 0.30528 0.23898 -0.20932
 Cu140 Cu 0.25960 0.21131 -0.19475
 N141 N 0.26235 0.17845 -0.22729
 N142 N 0.25131 0.18543 -0.21126
 C143 C 0.23471 0.17177 -0.20849
 C144 C 0.23544 0.15548 -0.22360
 C145 C 0.25310 0.16006 -0.23526
 H146 H 0.22317 0.17339 -0.19624
 H147 H 0.25888 0.15056 -0.24834
 N148 N 0.27056 0.23779 -0.17997
 N149 N 0.28803 0.24830 -0.18541
 C150 C 0.29153 0.26536 -0.17203
 C151 C 0.27549 0.26547 -0.15766
 C152 C 0.26251 0.24787 -0.16300
 H153 H 0.30485 0.27671 -0.17249
 H154 H 0.24844 0.24268 -0.15490
 H155 H 0.29188 0.21036 -0.20014
 H156 H 0.27550 0.22634 -0.21858
 N157 N 0.67721 0.27205 -0.23855
 N158 N 0.68466 0.28817 -0.24924
 C159 C 0.67126 0.29131 -0.26595
 C160 C 0.65473 0.27632 -0.26556
 C161 C 0.65886 0.26436 -0.24806
 H162 H 0.67321 0.30368 -0.27732
 H163 H 0.64913 0.25126 -0.24252
 Cu164 Cu 0.71075 0.30378 -0.23981
 Cu165 Cu 0.69164 0.26247 -0.21289
 Cu166 Cu 0.73822 0.29028 -0.19590
 N167 N 0.73686 0.31926 -0.23019
 N168 N 0.74747 0.31398 -0.21289
 C169 C 0.76451 0.32746 -0.20949
 C170 C 0.76447 0.34181 -0.22554
 C171 C 0.74680 0.33629 -0.23839
 H172 H 0.77588 0.32704 -0.19623
 H173 H 0.74149 0.34429 -0.25243
 N174 N 0.72628 0.26584 -0.18089
 N175 N 0.70856 0.25521 -0.18734
 C176 C 0.70483 0.23926 -0.17401
 C177 C 0.72094 0.24004 -0.15858
 C178 C 0.73426 0.25696 -0.16329
 H179 H 0.69156 0.22781 -0.17549
 H180 H 0.74877 0.26222 -0.15463
 H181 H 0.70609 0.29158 -0.20389
 H182 H 0.72195 0.27302 -0.22025
 N183 N 0.17799 0.77271 0.26196
 N184 N 0.18536 0.78893 0.25136
 C185 C 0.17195 0.79208 0.23468
 C186 C 0.15548 0.77702 0.23494
 C187 C 0.15969 0.76499 0.25239
 H188 H 0.17381 0.80452 0.22336
 H189 H 0.15003 0.75181 0.25783
 Cu190 Cu 0.21141 0.80462 0.26082
 Cu191 Cu 0.19243 0.76311 0.28757
 Cu192 Cu 0.23894 0.79101 0.30467
 N193 N 0.23750 0.82012 0.27051
 N194 N 0.24817 0.81477 0.28777
 C195 C 0.26519 0.82827 0.29118
 C196 C 0.26507 0.84267 0.27518
 C197 C 0.24737 0.83721 0.26236
 H198 H 0.27659 0.82779 0.30441
 H199 H 0.24199 0.84528 0.24835
 N200 N 0.22703 0.76649 0.31959
 N201 N 0.20933 0.75584 0.31308
 C202 C 0.20560 0.73987 0.32637
 C203 C 0.22168 0.74063 0.34183
 C204 C 0.23499 0.75757 0.33717
 H205 H 0.19232 0.72841 0.32486
 H206 H 0.24948 0.76284 0.34586
 H207 H 0.20684 0.79224 0.29667
 H208 H 0.22277 0.77380 0.28024
 N209 N 0.47619 0.42504 0.47961
 N210 N 0.45987 0.43054 0.49088
 C211 C 0.45751 0.41676 0.50664
 C212 C 0.47318 0.40200 0.50508
 C213 C 0.48477 0.40761 0.48781
 H214 H 0.44531 0.41731 0.51832
 H215 H 0.49832 0.39956 0.48164
 Cu216 Cu 0.44315 0.45502 0.48369
 Cu217 Cu 0.48490 0.44075 0.45501
 Cu218 Cu 0.45497 0.48398 0.44144
 N219 N 0.42621 0.47909 0.47565
 N220 N 0.43097 0.49036 0.45912
 C221 C 0.41685 0.50587 0.45702
 C222 C 0.40259 0.50420 0.47307
 C223 C 0.40886 0.48709 0.48463
 H224 H 0.41690 0.51747 0.44472
 H225 H 0.40130 0.48096 0.49844
 N226 N 0.47984 0.47503 0.42547
 N227 N 0.49122 0.45856 0.43065
 C228 C 0.50691 0.45641 0.41674
 C229 C 0.50525 0.47227 0.40226
 C230 C 0.48800 0.48379 0.40813
 H231 H 0.51863 0.44420 0.41701
 H232 H 0.48186 0.49745 0.40028
 H233 H 0.47315 0.46979 0.46456
 H234 H 0.45508 0.45186 0.44730
 N235 N -0.02373 -0.07469 0.97905
 N236 N -0.04021 -0.06935 0.99016
 C237 C -0.04254 -0.08311 1.00596
 C238 C -0.02668 -0.09769 1.00457
 C239 C -0.01501 -0.09198 0.98739
 H240 H -0.05485 -0.08265 1.01754
 H241 H -0.00130 -0.09986 0.98138
 Cu242 Cu -0.05706 -0.04506 0.98269
 Cu243 Cu -0.01494 -0.05890 0.95450
 Cu244 Cu -0.04481 -0.01561 0.94099
 N245 N -0.07376 -0.02071 0.97504
 N246 N -0.06885 -0.00927 0.95868
 C247 C -0.08281 0.00639 0.95673
 C248 C -0.09717 0.00463 0.97269
 C249 C -0.09109 -0.01267 0.98406
 H250 H -0.08262 0.01813 0.94457
 H251 H -0.09875 -0.01893 0.99775
 N252 N -0.01993 -0.02452 0.92504
 N253 N -0.00854 -0.04100 0.93021
 C254 C 0.00720 -0.04308 0.91634
 C255 C 0.00556 -0.02719 0.90190
 C256 C -0.01171 -0.01570 0.90776
 H257 H 0.01895 -0.05526 0.91663
 H258 H -0.01784 -0.00201 0.89993
 H259 H -0.02690 -0.03002 0.96416
 H260 H -0.04470 -0.04783 0.94649
 N261 N 1.03319 0.58002 0.97770
 N262 N 1.05075 0.57567 0.98847
 C263 C 1.05404 0.59026 1.00456
 C264 C 1.03768 0.60436 1.00363
 C265 C 1.02473 0.59746 0.98651
 H266 H 1.06715 0.59054 1.01616
 H267 H 1.01015 0.60450 0.98103
 Cu268 Cu 1.06721 0.55110 0.98046
 Cu269 Cu 1.02234 0.56272 0.95322
 Cu270 Cu 1.05179 0.51943 0.93821
 N271 N 1.08380 0.52688 0.97165
 N272 N 1.07760 0.51462 0.95507
 C273 C 1.09145 0.49892 0.95261
 C274 C 1.10708 0.50155 0.96843
 C275 C 1.10186 0.51934 0.98031
 H276 H 1.09008 0.48634 0.94045
 H277 H 1.11038 0.52603 0.99432
 N278 N 1.02522 0.52686 0.92315
 N279 N 1.01397 0.54334 0.92892
 C280 C 0.99689 0.54436 0.91549
 C281 C 0.99753 0.52775 0.90074
 C282 C 1.01560 0.51696 0.90590
 H283 H 0.98500 0.55638 0.91618
 H284 H 1.02137 0.50311 0.89756
 H285 H 1.03569 0.53460 0.96207
 H286 H 1.05162 0.55192 0.94454
 N287 N 0.53294 0.08019 0.47798
 N288 N 0.55053 0.07589 0.48872
 C289 C 0.55381 0.09051 0.50478
 C290 C 0.53742 0.10456 0.50387
 C291 C 0.52445 0.09762 0.48678
 H292 H 0.56695 0.09084 0.51636
 H293 H 0.50984 0.10462 0.48131
 Cu294 Cu 0.56705 0.05135 0.48069
 Cu295 Cu 0.52210 0.06284 0.45353
 Cu296 Cu 0.55165 0.01962 0.43847
 N297 N 0.58367 0.02716 0.47187
 N298 N 0.57750 0.01489 0.45530
 C299 C 0.59138 -0.00076 0.45281
 C300 C 0.60703 0.00190 0.46861
 C301 C 0.60177 0.01968 0.48050
 H302 H 0.59002 -0.01335 0.44065
 H303 H 0.61031 0.02638 0.49450
 N304 N 0.52503 0.02699 0.42346
 N305 N 0.51374 0.04343 0.42924
 C306 C 0.49668 0.04443 0.41579
 C307 C 0.49737 0.02785 0.40101
 C308 C 0.51545 0.01710 0.40618
 H309 H 0.48477 0.05644 0.41647
 H310 H 0.52127 0.00329 0.39780
 H311 H 0.53555 0.03478 0.46235
 H312 H 0.55141 0.05215 0.44479
 N313 N -0.02802 0.08542 0.52746
 N314 N -0.04452 0.07864 0.51532
 C315 C -0.04716 0.09205 0.49929
 C316 C -0.03156 0.10799 0.50162
 C317 C -0.01962 0.10340 0.51956
 H318 H -0.05925 0.09022 0.48665
 H319 H -0.00568 0.11222 0.52612
 Cu320 Cu -0.06059 0.05265 0.52124
 Cu321 Cu -0.01822 0.06994 0.55208
 Cu322 Cu -0.04620 0.02299 0.56231
 N323 N -0.07604 0.02627 0.52708
 N324 N -0.07025 0.01471 0.54317
 C325 C -0.08369 -0.00238 0.54396
 C326 C -0.09858 -0.00139 0.52750
 C327 C -0.09342 0.01690 0.51707
 H328 H -0.08293 -0.01442 0.55580
 H329 H -0.10188 0.02302 0.50347
 N330 N -0.02146 0.03398 0.57991
 N331 N -0.01083 0.05191 0.57616
 C332 C 0.00524 0.05490 0.59086
 C333 C 0.00450 0.03809 0.60435
 C334 C -0.01248 0.02512 0.59704
 H335 H 0.01674 0.06815 0.59160
 H336 H -0.01774 0.01025 0.60365
 H337 H -0.02933 0.04037 0.54065
 H338 H -0.04733 0.05551 0.55812
 N339 N 0.47223 0.58491 0.02732
 N340 N 0.45614 0.57780 0.01480
 C341 C 0.45348 0.59126 -0.00119
 C342 C 0.46868 0.60755 0.00154
 C343 C 0.48037 0.60314 0.01970
 H344 H 0.44166 0.58923 -0.01406
 H345 H 0.49396 0.61228 0.02660
 Cu346 Cu 0.44049 0.55141 0.02022
 Cu347 Cu 0.48184 0.56958 0.05209
 Cu348 Cu 0.45383 0.52273 0.06242
 N349 N 0.42457 0.52546 0.02665
 N350 N 0.42995 0.51429 0.04315
 C351 C 0.41623 0.49744 0.04420
 C352 C 0.40161 0.49818 0.02747
 C353 C 0.40720 0.51609 0.01663
 H354 H 0.41664 0.48571 0.05637
 H355 H 0.39905 0.52196 0.00272
 N356 N 0.47842 0.53385 0.08015
 N357 N 0.48907 0.55175 0.07635
 C358 C 0.50502 0.55486 0.09117
 C359 C 0.50418 0.53814 0.10477
 C360 C 0.48725 0.52512 0.09743
 H361 H 0.51651 0.56811 0.09190
 H362 H 0.48195 0.51030 0.10409
 H363 H 0.47129 0.53971 0.04086
 H364 H 0.45259 0.55508 0.05738
 N365 N 0.52602 -0.07685 0.02594
 N366 N 0.54272 -0.07108 0.01518
 C367 C 0.54401 -0.08437 -0.00193
 C368 C 0.52723 -0.09909 -0.00174
 C369 C 0.51611 -0.09399 0.01608
 H370 H 0.55633 -0.08364 -0.01348
 H371 H 0.50208 -0.10230 0.02160
 Cu372 Cu 0.56140 -0.04713 0.02493
 Cu373 Cu 0.51869 -0.06202 0.05215
 Cu374 Cu 0.55171 -0.01903 0.06970
 N375 N 0.57964 -0.02285 0.03466
 N376 N 0.57587 -0.01193 0.05224
 C377 C 0.59063 0.00411 0.05508
 C378 C 0.60427 0.00303 0.03841
 C379 C 0.59692 -0.01413 0.02573
 H380 H 0.59123 0.01581 0.06810
 H381 H 0.60355 -0.01964 0.01100
 N382 N 0.52643 -0.02872 0.08504
 N383 N 0.51387 -0.04506 0.07828
 C384 C 0.49784 -0.04744 0.09176
 C385 C 0.50051 -0.03192 0.10765
 C386 C 0.51866 -0.02027 0.10302
 H387 H 0.48498 -0.05934 0.09004
 H388 H 0.52547 -0.00651 0.11191
 H389 H 0.53258 -0.03278 0.04538
 H390 H 0.54930 -0.05106 0.06102
 N391 N 1.02561 0.42349 0.52547
 N392 N 1.04185 0.42970 0.51426
 C393 C 1.04311 0.41639 0.49717
 C394 C 1.02679 0.40121 0.49781
 C395 C 1.01598 0.40605 0.51590
 H396 H 1.05513 0.41742 0.48533
 H397 H 1.00235 0.39737 0.52179
 Cu398 Cu 1.06012 0.45420 0.52332
 Cu399 Cu 1.01854 0.43816 0.55181
 Cu400 Cu 1.05153 0.48114 0.56918
 N401 N 1.07874 0.47800 0.53356
 N402 N 1.07542 0.48845 0.55153
 C403 C 1.09048 0.50418 0.55462
 C404 C 1.10383 0.50340 0.53771
 C405 C 1.09602 0.48671 0.52463
 H406 H 1.09149 0.51547 0.56799
 H407 H 1.10236 0.48151 0.50967
 N408 N 1.02651 0.47129 0.58478
 N409 N 1.01394 0.45496 0.57807
 C410 C 0.99800 0.45254 0.59165
 C411 C 1.00075 0.46803 0.60755
 C412 C 1.01886 0.47970 0.60283
 H413 H 0.98511 0.44066 0.58994
 H414 H 1.02567 0.49350 0.61167
 H415 H 1.03179 0.46773 0.54508
 H416 H 1.04933 0.44930 0.55967
 C417 C 0.35962 0.02183 0.24318
 C418 C 0.34682 0.00102 0.24604
 C419 C 0.35924 -0.01595 0.24956
 C420 C 0.38338 -0.01066 0.24987
 C421 C 0.37418 0.02468 0.26314
 C422 C 0.38659 0.00767 0.26662
 C423 C 0.37457 0.01703 0.22509
 C424 C 0.38702 0.00006 0.22862
 H425 H 0.32949 -0.00009 0.24585
 H426 H 0.39349 -0.02454 0.25271
 H427 H 0.37485 0.03895 0.27341
 H428 H 0.37568 0.02657 0.21107
 C429 C 0.13742 -0.02777 0.74812
 C430 C 0.15083 -0.00728 0.75306
 C431 C 0.13898 0.01012 0.75680
 C432 C 0.11472 0.00554 0.75534
 C433 C 0.12289 -0.03006 0.76699
 C434 C 0.11101 -0.01265 0.77075
 C435 C 0.12255 -0.02257 0.72936
 C436 C 0.11070 -0.00514 0.73315
 H437 H 0.16816 -0.00647 0.75296
 H438 H 0.10505 0.01972 0.75845
 H439 H 0.12196 -0.04420 0.77642
 H440 H 0.12163 -0.03171 0.71438
 C441 C 0.63724 0.47233 0.24850
 C442 C 0.65056 0.49287 0.25346
 C443 C 0.63863 0.51021 0.25725
 C444 C 0.61438 0.50551 0.25580
 C445 C 0.62274 0.46994 0.26737
 C446 C 0.61076 0.48728 0.27117
 C447 C 0.62234 0.47750 0.22975
 C448 C 0.61039 0.49486 0.23359
 H449 H 0.66788 0.49378 0.25330
 H450 H 0.60465 0.51964 0.25895
 H451 H 0.62187 0.45576 0.27677
 H452 H 0.62148 0.46842 0.21474
 C453 C 0.85970 0.52209 0.74298
 C454 C 0.84691 0.50127 0.74576
 C455 C 0.85933 0.48429 0.74922
 C456 C 0.88347 0.48958 0.74955
 C457 C 0.87427 0.52487 0.76295
 C458 C 0.88668 0.50785 0.76636
 C459 C 0.87466 0.51737 0.72487
 C460 C 0.88711 0.50038 0.72834
 H461 H 0.82958 0.50015 0.74554
 H462 H 0.89357 0.47569 0.75233
 H463 H 0.87494 0.53911 0.77328
 H464 H 0.87574 0.52693 0.71087
 C465 C 0.24308 0.36061 0.02167
 C466 C 0.24588 0.34786 0.00091
 C467 C 0.24941 0.36031 -0.01599
 C468 C 0.24978 0.38442 -0.01070
 C469 C 0.26315 0.37513 0.02449
 C470 C 0.26661 0.38757 0.00756
 C471 C 0.22494 0.37560 0.01693
 C472 C 0.22847 0.38806 0.00002
 H473 H 0.24564 0.33055 -0.00023
 H474 H 0.25261 0.39454 -0.02452
 H475 H 0.27348 0.37578 0.03872
 H476 H 0.21090 0.37674 0.02648
 C477 C 0.74831 0.13615 -0.02738
 C478 C 0.75334 0.14954 -0.00697
 C479 C 0.75717 0.13768 0.01037
 C480 C 0.75568 0.11344 0.00581
 C481 C 0.76724 0.12162 -0.02971
 C482 C 0.77108 0.10974 -0.01236
 C483 C 0.72948 0.12130 -0.02214
 C484 C 0.73336 0.10944 -0.00478
 H485 H 0.75319 0.16684 -0.00615
 H486 H 0.75884 0.10377 0.01995
 H487 H 0.77665 0.12068 -0.04384
 H488 H 0.71440 0.12039 -0.03119
 C489 C 0.24850 0.63624 0.47271
 C490 C 0.25336 0.64961 0.49316
 C491 C 0.25711 0.63773 0.51050
 C492 C 0.25570 0.61349 0.50590
 C493 C 0.26748 0.62178 0.47048
 C494 C 0.27124 0.60987 0.48783
 C495 C 0.22967 0.62133 0.47780
 C496 C 0.23345 0.60945 0.49516
 H497 H 0.25320 0.66691 0.49400
 H498 H 0.25880 0.60381 0.52004
 H499 H 0.27697 0.62086 0.45639
 H500 H 0.21464 0.62041 0.46866
 C501 C 0.74291 0.86094 0.52195
 C502 C 0.74567 0.84819 0.50118
 C503 C 0.74925 0.86063 0.48428
 C504 C 0.74968 0.88474 0.48959
 C505 C 0.76302 0.87541 0.52478
 C506 C 0.76652 0.88784 0.50784
 C507 C 0.72481 0.87598 0.51721
 C508 C 0.72838 0.88844 0.50031
 H509 H 0.74536 0.83088 0.50004
 H510 H 0.75255 0.89486 0.47577
 H511 H 0.77335 0.87604 0.53901
 H512 H 0.71075 0.87711 0.52672
 C513 C 0.02183 0.24308 0.36013
 C514 C 0.00101 0.24602 0.34741
 C515 C -0.01595 0.24959 0.35980
 C516 C -0.01064 0.24985 0.38384
 C517 C 0.02476 0.26310 0.37463
 C518 C 0.00777 0.26660 0.38703
 C519 C 0.01699 0.22493 0.37502
 C520 C 0.00001 0.22849 0.38743
 H521 H -0.00011 0.24583 0.33015
 H522 H -0.02451 0.25272 0.39391
 H523 H 0.03905 0.27340 0.37525
 H524 H 0.02650 0.21086 0.37614
 C525 C -0.02724 0.74826 0.13653
 C526 C -0.00676 0.75335 0.14988
 C527 C 0.01063 0.75726 0.13808
 C528 C 0.00605 0.75580 0.11391
 C529 C -0.02967 0.76718 0.12206
 C530 C -0.01226 0.77112 0.11022
 C531 C -0.02192 0.72950 0.12171
 C532 C -0.00449 0.73346 0.10990
 H533 H -0.00593 0.75317 0.16713
 H534 H 0.02023 0.75905 0.10428
 H535 H -0.04391 0.77651 0.12112
 H536 H -0.03098 0.71441 0.12076
 C537 C 0.47260 0.24813 0.63729
 C538 C 0.49311 0.25317 0.65062
 C539 C 0.51049 0.25707 0.63881
 C540 C 0.50588 0.25565 0.61464
 C541 C 0.47019 0.26709 0.62285
 C542 C 0.48759 0.27101 0.61101
 C543 C 0.47787 0.22939 0.62242
 C544 C 0.49529 0.23334 0.61060
 H545 H 0.49395 0.25300 0.66787
 H546 H 0.52005 0.25890 0.60501
 H547 H 0.45594 0.27639 0.62189
 H548 H 0.46875 0.21434 0.62141
 C549 C 0.52174 0.74304 0.86034
 C550 C 0.50089 0.74589 0.84765
 C551 C 0.48394 0.74945 0.86006
 C552 C 0.48929 0.74978 0.88409
 C553 C 0.52464 0.76308 0.87480
 C554 C 0.50766 0.76657 0.88722
 C555 C 0.51695 0.72490 0.87527
 C556 C 0.50000 0.72845 0.88771
 H557 H 0.49973 0.74567 0.83039
 H558 H 0.47543 0.75263 0.89419
 H559 H 0.53892 0.77340 0.87540
 H560 H 0.52646 0.71082 0.87635
 C561 C 0.10430 0.22795 0.29683
 C562 C 0.10093 0.25140 0.30298
 C563 C 0.08432 0.25426 0.31599
 C564 C 0.07273 0.23338 0.32157
 C565 C 0.09017 0.21961 0.33103
 C566 C 0.10679 0.21676 0.31800
 C567 C 0.08276 0.21954 0.28709
 C568 C 0.06615 0.22239 0.30011
 C569 C 0.12207 0.22493 0.28274
 C570 C 0.13655 0.22256 0.27097
 C571 C 0.05484 0.23655 0.33548
 C572 C 0.04001 0.23938 0.34671
 H573 H 0.11071 0.26461 0.29757
 H574 H 0.07984 0.26991 0.32173
 H575 H 0.08949 0.21267 0.34655
 H576 H 0.12039 0.20740 0.32236
 H577 H 0.08073 0.21199 0.27136
 H578 H 0.04988 0.21730 0.29554
 C579 C 0.60419 0.72794 0.79700
 C580 C 0.59590 0.70728 0.80667
 C581 C 0.57928 0.71014 0.81970
 C582 C 0.57263 0.73338 0.82175
 C583 C 0.56801 0.74001 0.79888
 C584 C 0.58462 0.73716 0.78586
 C585 C 0.60963 0.74325 0.81606
 C586 C 0.59302 0.74612 0.82908
 C587 C 0.62200 0.72496 0.78296
 C588 C 0.63656 0.72268 0.77127
 C589 C 0.55473 0.73655 0.83566
 C590 C 0.53990 0.73936 0.84690
 H591 H 0.60249 0.69177 0.80356
 H592 H 0.57162 0.69709 0.82776
 H593 H 0.55303 0.74642 0.79341
 H594 H 0.58387 0.74111 0.76922
 H595 H 0.62516 0.75116 0.81904
 H596 H 0.59431 0.75649 0.84324
 C597 C 0.39357 0.76730 0.80531
 C598 C 0.41174 0.75754 0.79303
 C599 C 0.42942 0.75416 0.80536
 C600 C 0.42728 0.76085 0.82881
 C601 C 0.40722 0.74870 0.83580
 C602 C 0.38948 0.75209 0.82343
 C603 C 0.40346 0.78771 0.81621
 C604 C 0.42121 0.78432 0.82858
 C605 C 0.37470 0.77071 0.79163
 C606 C 0.35959 0.77303 0.77972
 C607 C 0.44667 0.75704 0.84158
 C608 C 0.46329 0.75365 0.85078
 H609 H 0.41083 0.75370 0.77609
 H610 H 0.44365 0.74743 0.79896
 H611 H 0.40695 0.73845 0.84931
 H612 H 0.37400 0.74473 0.82635
 H613 H 0.39710 0.80342 0.81439
 H614 H 0.43004 0.79713 0.83736
 C615 C -0.10617 0.26720 0.30468
 C616 C -0.08582 0.26484 0.29214
 C617 C -0.06817 0.26154 0.30456
 C618 C -0.07252 0.26090 0.32835
 C619 C -0.09025 0.24365 0.33005
 C620 C -0.10794 0.24697 0.31761
 C621 C -0.10082 0.28534 0.32116
 C622 C -0.08309 0.28203 0.33362
 C623 C -0.12501 0.27051 0.29093
 C624 C -0.14011 0.27273 0.27897
 C625 C -0.05318 0.25714 0.34121
 C626 C -0.03658 0.25378 0.35047
 H627 H -0.08529 0.26579 0.27499
 H628 H -0.05254 0.25965 0.29803
 H629 H -0.08904 0.23007 0.34018
 H630 H -0.12189 0.23622 0.31706
 H631 H -0.11008 0.29954 0.32285
 H632 H -0.07719 0.29337 0.34600
 C633 C -0.10934 0.73047 0.20023
 C634 C -0.11572 0.74281 0.18051
 C635 C -0.09940 0.74623 0.16719
 C636 C -0.07830 0.73698 0.17489
 C637 C -0.08357 0.71329 0.17817
 C638 C -0.09990 0.70987 0.19150
 C639 C -0.09032 0.74337 0.21065
 C640 C -0.07401 0.74678 0.19734
 C641 C -0.12687 0.72694 0.21464
 C642 C -0.14121 0.72438 0.22662
 C643 C -0.06061 0.74077 0.16073
 C644 C -0.04575 0.74407 0.14953
 H645 H -0.13166 0.74838 0.17731
 H646 H -0.10135 0.75473 0.15257
 H647 H -0.07521 0.70036 0.17070
 H648 H -0.10553 0.69400 0.19545
 H649 H -0.08972 0.74929 0.22705
 H650 H -0.05944 0.75564 0.20234
 C651 C 0.39038 0.23033 0.70087
 C652 C 0.40143 0.25244 0.70407
 C653 C 0.41779 0.25585 0.69081
 C654 C 0.42152 0.23682 0.67564
 C655 C 0.39993 0.23206 0.66396
 C656 C 0.38354 0.22864 0.67723
 C657 C 0.40831 0.21451 0.70338
 C658 C 0.42468 0.21792 0.69011
 C659 C 0.37282 0.22681 0.71525
 C660 C 0.35846 0.22424 0.72722
 C661 C 0.43924 0.24062 0.66152
 C662 C 0.45410 0.24393 0.65032
 H663 H 0.39681 0.26437 0.71574
 H664 H 0.42720 0.27070 0.69114
 H665 H 0.39771 0.23139 0.64678
 H666 H 0.36728 0.22506 0.67143
 H667 H 0.40815 0.20175 0.71458
 H668 H 0.43856 0.20808 0.68996
 C669 C 0.60239 0.27007 0.69552
 C670 C 0.60663 0.26948 0.67165
 C671 C 0.58853 0.26718 0.65902
 C672 C 0.56801 0.26569 0.67153
 C673 C 0.56875 0.28580 0.68611
 C674 C 0.58681 0.28810 0.69872
 C675 C 0.58928 0.24952 0.69913
 C676 C 0.57123 0.24722 0.68652
 C677 C 0.62171 0.27248 0.70929
 C678 C 0.63733 0.27433 0.72097
 C679 C 0.54827 0.26305 0.65840
 C680 C 0.53140 0.26054 0.64874
 H681 H 0.62244 0.27080 0.66524
 H682 H 0.58882 0.26654 0.64180
 H683 H 0.55618 0.29724 0.68650
 H684 H 0.58968 0.30147 0.70994
 H685 H 0.59374 0.23783 0.71063
 H686 H 0.56026 0.23353 0.68722
 C687 C 0.10241 0.77048 0.19495
 C688 C 0.10671 0.76990 0.17109
 C689 C 0.08865 0.76753 0.15842
 C690 C 0.06810 0.76597 0.17089
 C691 C 0.06873 0.78608 0.18546
 C692 C 0.08676 0.78845 0.19811
 C693 C 0.08937 0.74988 0.19853
 C694 C 0.07135 0.74751 0.18589
 C695 C 0.12166 0.77294 0.20881
 C696 C 0.13721 0.77484 0.22059
 C697 C 0.04839 0.76328 0.15771
 C698 C 0.03153 0.76074 0.14803
 H699 H 0.12253 0.77126 0.16472
 H700 H 0.08898 0.76685 0.14120
 H701 H 0.05610 0.79745 0.18584
 H702 H 0.08957 0.80184 0.20932
 H703 H 0.09386 0.73820 0.21002
 H704 H 0.06042 0.73379 0.18657
 C705 C 0.29644 0.10450 0.22803
 C706 C 0.29165 0.08571 0.21219
 C707 C 0.30462 0.06903 0.21506
 C708 C 0.32108 0.07281 0.23350
 C709 C 0.30796 0.07827 0.25292
 C710 C 0.29500 0.09494 0.25004
 C711 C 0.32018 0.11033 0.22574
 C712 C 0.33316 0.09364 0.22861
 C713 C 0.28243 0.12234 0.22498
 C714 C 0.27077 0.13692 0.22250
 C715 C 0.33494 0.05486 0.23669
 C716 C 0.34618 0.04001 0.23951
 H717 H 0.27917 0.08552 0.19981
 H718 H 0.30327 0.05454 0.20514
 H719 H 0.30872 0.06974 0.26761
 H720 H 0.28465 0.10073 0.26227
 H721 H 0.32626 0.12614 0.22213
 H722 H 0.35035 0.09514 0.22744
 C723 C 0.79648 0.60480 0.72808
 C724 C 0.79058 0.59121 0.74692
 C725 C 0.80354 0.57453 0.74979
 C726 C 0.82112 0.57310 0.73353
 C727 C 0.83298 0.59491 0.73515
 C728 C 0.82001 0.61160 0.73229
 C729 C 0.79636 0.58908 0.70889
 C730 C 0.80933 0.57240 0.71176
 C731 C 0.78251 0.62268 0.72507
 C732 C 0.77092 0.63733 0.72268
 C733 C 0.83500 0.55515 0.73667
 C734 C 0.84625 0.54029 0.73941
 H735 H 0.77738 0.59440 0.75712
 H736 H 0.80145 0.56343 0.76245
 H737 H 0.85006 0.59707 0.73826
 H738 H 0.82595 0.62806 0.73294
 H739 H 0.78694 0.59090 0.69433
 H740 H 0.81104 0.55992 0.69966
 C741 C 0.80451 0.39376 0.76657
 C742 C 0.80847 0.40819 0.78657
 C743 C 0.82080 0.42598 0.78326
 C744 C 0.82796 0.42758 0.76029
 C745 C 0.80723 0.42598 0.74660
 C746 C 0.79492 0.40823 0.74990
 C747 C 0.82682 0.38890 0.75883
 C748 C 0.83917 0.40671 0.75552
 C749 C 0.79089 0.37481 0.76986
 C750 C 0.77908 0.35959 0.77213
 C751 C 0.84072 0.44701 0.75657
 C752 C 0.84996 0.46364 0.75328
 H753 H 0.80212 0.40477 0.80194
 H754 H 0.82500 0.43781 0.79580
 H755 H 0.80255 0.43783 0.73536
 H756 H 0.77971 0.40489 0.74151
 H757 H 0.83245 0.37290 0.75628
 H758 H 0.85536 0.40598 0.75009
 C759 C 0.30437 -0.10638 0.26720
 C760 C 0.31427 -0.10645 0.24526
 C761 C 0.32661 -0.08869 0.24191
 C762 C 0.32786 -0.07261 0.26083
 C763 C 0.33570 -0.08526 0.27983
 C764 C 0.32332 -0.10305 0.28318
 C765 C 0.29225 -0.08563 0.26867
 C766 C 0.30458 -0.06791 0.26532
 C767 C 0.29073 -0.12530 0.27057
 C768 C 0.27890 -0.14050 0.27292
 C769 C 0.34064 -0.05320 0.25705
 C770 C 0.34988 -0.03658 0.25371
 H771 H 0.31177 -0.11931 0.23339
 H772 H 0.33470 -0.08633 0.22717
 H773 H 0.34964 -0.08061 0.28982
 H774 H 0.32666 -0.11365 0.29605
 H775 H 0.27546 -0.08491 0.27214
 H776 H 0.29833 -0.05200 0.26593
 C777 C 0.20085 -0.11016 0.73024
 C778 C 0.17734 -0.11733 0.73193
 C779 C 0.16411 -0.10092 0.73544
 C780 C 0.17568 -0.07897 0.73693
 C781 C 0.18770 -0.07742 0.71619
 C782 C 0.20093 -0.09382 0.71268
 C783 C 0.20636 -0.09714 0.75086
 C784 C 0.19313 -0.08075 0.75438
 C785 C 0.21518 -0.12776 0.72659
 C786 C 0.22710 -0.14215 0.72385
 C787 C 0.16161 -0.06120 0.74079
 C788 C 0.15045 -0.04630 0.74406
 H789 H 0.17161 -0.13384 0.73048
 H790 H 0.14703 -0.10336 0.73701
 H791 H 0.18596 -0.06457 0.70523
 H792 H 0.21053 -0.09502 0.69871
 H793 H 0.21949 -0.10050 0.76175
 H794 H 0.19494 -0.07008 0.76829
 C795 C 0.70104 0.39018 0.23082
 C796 C 0.70022 0.40585 0.21266
 C797 C 0.68693 0.42222 0.21611
 C798 C 0.67577 0.42131 0.23737
 C799 C 0.69390 0.42033 0.25425
 C800 C 0.70717 0.40397 0.25081
 C801 C 0.67774 0.38287 0.23364
 C802 C 0.66445 0.39924 0.23708
 C803 C 0.71542 0.37261 0.22723
 C804 C 0.72733 0.35821 0.22453
 C805 C 0.66162 0.43902 0.24117
 C806 C 0.65036 0.45386 0.24443
 H807 H 0.70926 0.40423 0.19835
 H808 H 0.68458 0.43462 0.20475
 H809 H 0.69611 0.43149 0.26774
 H810 H 0.72077 0.40113 0.26132
 H811 H 0.67218 0.36629 0.23297
 H812 H 0.64749 0.39670 0.23937
 C813 C 0.69526 0.60222 0.27014
 C814 C 0.70778 0.58169 0.27030
 C815 C 0.69520 0.56362 0.26800
 C816 C 0.67129 0.56779 0.26575
 C817 C 0.66923 0.58261 0.24697
 C818 C 0.68183 0.60072 0.24928
 C819 C 0.67910 0.59977 0.28773
 C820 C 0.66648 0.58165 0.28542
 C821 C 0.70907 0.62155 0.27257
 C822 C 0.72077 0.63717 0.27455
 C823 C 0.65816 0.54803 0.26313
 C824 C 0.64853 0.53114 0.26065
 H825 H 0.72503 0.58137 0.27211
 H826 H 0.70169 0.54782 0.26785
 H827 H 0.65883 0.57917 0.23307
 H828 H 0.68224 0.61278 0.23735
 H829 H 0.67776 0.61119 0.30089
 H830 H 0.65434 0.57755 0.29660
 C831 C 0.19576 0.10209 0.76959
 C832 C 0.20484 0.08306 0.78106
 C833 C 0.19224 0.06498 0.77877
 C834 C 0.17177 0.06766 0.76522
 C835 C 0.17943 0.07611 0.74411
 C836 C 0.19203 0.09420 0.74640
 C837 C 0.17334 0.10452 0.77821
 C838 C 0.16071 0.08640 0.77591
 C839 C 0.20958 0.12141 0.77200
 C840 C 0.22127 0.13704 0.77397
 C841 C 0.15864 0.04790 0.76262
 C842 C 0.14897 0.03102 0.76016
 H843 H 0.21985 0.08372 0.79019
 H844 H 0.19647 0.05017 0.78595
 H845 H 0.17538 0.06850 0.72870
 H846 H 0.19877 0.10207 0.73297
 H847 H 0.16790 0.11915 0.78554
 H848 H 0.14447 0.08549 0.78127
 C849 C 0.22798 0.29756 0.10418
 C850 C 0.23320 0.32091 0.11095
 C851 C 0.23609 0.33385 0.09429
 C852 C 0.23345 0.32213 0.07254
 C853 C 0.21123 0.31112 0.07238
 C854 C 0.20834 0.29819 0.08904
 C855 C 0.24627 0.29104 0.09008
 C856 C 0.24914 0.30396 0.07343
 C857 C 0.22492 0.28358 0.12200
 C858 C 0.22250 0.27192 0.13654
 C859 C 0.23662 0.33595 0.05461
 C860 C 0.23942 0.34717 0.03978
 H861 H 0.23451 0.32677 0.12737
 H862 H 0.23988 0.35080 0.09642
 H863 H 0.19886 0.31326 0.06025
 H864 H 0.19350 0.28927 0.09121
 H865 H 0.25608 0.27745 0.09291
 H866 H 0.26141 0.30144 0.06197
 C867 C 0.72759 0.79771 0.60431
 C868 C 0.73260 0.78569 0.58358
 C869 C 0.73551 0.79865 0.56696
 C870 C 0.73312 0.82236 0.57273
 C871 C 0.74895 0.82719 0.59152
 C872 C 0.74605 0.81422 0.60814
 C873 C 0.70805 0.81074 0.59878
 C874 C 0.71096 0.82372 0.58215
 C875 C 0.72453 0.78370 0.62210
 C876 C 0.72213 0.77203 0.63664
 C877 C 0.73634 0.83623 0.55484
 C878 C 0.73920 0.84748 0.54005
 H879 H 0.73374 0.76850 0.58208
 H880 H 0.73915 0.79258 0.55122
 H881 H 0.76135 0.83969 0.59174
 H882 H 0.75595 0.81561 0.62262
 H883 H 0.69324 0.80983 0.60716
 H884 H 0.69863 0.83394 0.57627
 C885 C 0.76709 0.80588 0.39422
 C886 C 0.77433 0.79585 0.41499
 C887 C 0.77093 0.80818 0.43264
 C888 C 0.76061 0.82937 0.42783
 C889 C 0.74015 0.82309 0.41475
 C890 C 0.74355 0.81076 0.39709
 C891 C 0.77882 0.82778 0.39447
 C892 C 0.77541 0.84015 0.41218
 C893 C 0.77054 0.79223 0.37541
 C894 C 0.77294 0.78035 0.36033
 C895 C 0.75678 0.84212 0.44715
 C896 C 0.75341 0.85132 0.46372
 H897 H 0.78158 0.78044 0.41578
 H898 H 0.77526 0.80331 0.44853
 H899 H 0.72436 0.82792 0.41898
 H900 H 0.73068 0.80501 0.38620
 H901 H 0.78896 0.83304 0.38191
 H902 H 0.78261 0.85602 0.41479
 C903 C 0.26726 0.30564 -0.10610
 C904 C 0.27454 0.29560 -0.08535
 C905 C 0.27115 0.30790 -0.06769
 C906 C 0.26080 0.32908 -0.07246
 C907 C 0.24033 0.32280 -0.08552
 C908 C 0.24372 0.31048 -0.10320
 C909 C 0.27897 0.32755 -0.10584
 C910 C 0.27556 0.33990 -0.08811
 C911 C 0.27072 0.29203 -0.12494
 C912 C 0.27313 0.28019 -0.14005
 C913 C 0.25697 0.34181 -0.05312
 C914 C 0.25359 0.35100 -0.03655
 H915 H 0.28181 0.28019 -0.08460
 H916 H 0.27553 0.30302 -0.05181
 H917 H 0.22454 0.32759 -0.08125
 H918 H 0.23083 0.30471 -0.11406
 H919 H 0.28911 0.33284 -0.11838
 H920 H 0.28277 0.35576 -0.08547
 C921 C 0.73015 0.19957 -0.10951
 C922 C 0.74399 0.18070 -0.11531
 C923 C 0.74754 0.16748 -0.09896
 C924 C 0.73690 0.17442 -0.07841
 C925 C 0.71320 0.17622 -0.08471
 C926 C 0.70965 0.18945 -0.10108
 C927 C 0.74159 0.21066 -0.09003
 C928 C 0.74514 0.19744 -0.07369
 C929 C 0.72648 0.21388 -0.12708
 C930 C 0.72378 0.22576 -0.14147
 C931 C 0.74081 0.16035 -0.06070
 C932 C 0.74416 0.14918 -0.04585
 H933 H 0.75039 0.17794 -0.13092
 H934 H 0.75698 0.15339 -0.10054
 H935 H 0.70034 0.16782 -0.07703
 H936 H 0.69376 0.19240 -0.10740
 H937 H 0.74644 0.22744 -0.08913
 H938 H 0.75305 0.20290 -0.05880
 C939 C 0.23073 0.69996 0.39075
 C940 C 0.22868 0.71070 0.41278
 C941 C 0.23214 0.69741 0.42908
 C942 C 0.23732 0.67467 0.42177
 C943 C 0.25648 0.67735 0.40750
 C944 C 0.25302 0.69064 0.39120
 C945 C 0.21515 0.68054 0.39033
 C946 C 0.21862 0.66723 0.40666
 C947 C 0.22714 0.71435 0.37323
 C948 C 0.22449 0.72630 0.35889
 C949 C 0.24115 0.66053 0.43943
 C950 C 0.24443 0.64931 0.45425
 H951 H 0.22477 0.72727 0.41535
 H952 H 0.23121 0.70260 0.44562
 H953 H 0.27145 0.66947 0.40997
 H954 H 0.26503 0.69416 0.37970
 H955 H 0.20250 0.67753 0.37832
 H956 H 0.20894 0.65282 0.40862
 C957 C 0.26991 0.69439 0.60215
 C958 C 0.25649 0.67381 0.60492
 C959 C 0.25420 0.66121 0.58687
 C960 C 0.26555 0.67043 0.56785
 C961 C 0.28886 0.67438 0.57559
 C962 C 0.29115 0.68698 0.59363
 C963 C 0.25899 0.70531 0.58351
 C964 C 0.25670 0.69274 0.56551
 C965 C 0.27231 0.70819 0.62139
 C966 C 0.27421 0.71993 0.63693
 C967 C 0.26294 0.65731 0.54816
 C968 C 0.26048 0.64767 0.53134
 H969 H 0.24942 0.66953 0.61973
 H970 H 0.24516 0.64613 0.58622
 H971 H 0.30237 0.66790 0.56760
 H972 H 0.30662 0.69129 0.60108
 H973 H 0.25358 0.72154 0.58436
 H974 H 0.24932 0.69822 0.55095
 C975 C 0.77086 0.19438 0.10190
 C976 C 0.75753 0.17378 0.10484
 C977 C 0.75504 0.16117 0.08681
 C978 C 0.76614 0.17040 0.06765
 C979 C 0.78952 0.17440 0.07511
 C980 C 0.79200 0.18701 0.09313
 C981 C 0.75969 0.20528 0.08339
 C982 C 0.75721 0.19269 0.06541
 C983 C 0.77343 0.20818 0.12115
 C984 C 0.77542 0.21989 0.13670
 C985 C 0.76333 0.15728 0.04798
 C986 C 0.76071 0.14763 0.03118
 H987 H 0.75066 0.16951 0.11974
 H988 H 0.74603 0.14608 0.08628
 H989 H 0.80293 0.16791 0.06696
 H990 H 0.80755 0.19134 0.10040
 H991 H 0.75421 0.22147 0.08431
 H992 H 0.74958 0.19811 0.05095
 C993 C 0.48158 0.35165 0.54426
 C994 C 0.49060 0.33172 0.53359
 C995 C 0.49274 0.31516 0.54688
 C996 C 0.48566 0.32017 0.56953
 C997 C 0.46265 0.32740 0.56677
 C998 C 0.46051 0.34392 0.55352
 C999 C 0.49656 0.35690 0.56365
 C1000 C 0.49871 0.34036 0.57693
 C1001 C 0.47902 0.36954 0.53006
 C1002 C 0.47652 0.38431 0.51858
 C1003 C 0.48755 0.30240 0.58399
 C1004 C 0.48814 0.28799 0.59615
 H1005 H 0.49491 0.33070 0.51707
 H1006 H 0.49889 0.29997 0.54174
 H1007 H 0.44917 0.32012 0.57452
 H1008 H 0.44521 0.35078 0.54993
 H1009 H 0.50480 0.37225 0.56666
 H1010 H 0.50879 0.34154 0.59130
 C1011 C -0.01828 0.85190 0.04365
 C1012 C -0.02804 0.85573 0.06538
 C1013 C -0.02592 0.83917 0.07860
 C1014 C -0.01423 0.82035 0.06884
 C1015 C 0.00715 0.82999 0.06195
 C1016 C 0.00502 0.84658 0.04870
 C1017 C -0.02890 0.83091 0.03479
 C1018 C -0.02678 0.81434 0.04803
 C1019 C -0.02082 0.86982 0.02950
 C1020 C -0.02333 0.88462 0.01806
 C1021 C -0.01233 0.80255 0.08325
 C1022 C -0.01173 0.78810 0.09539
 H1023 H -0.03593 0.87020 0.06999
 H1024 H -0.03199 0.83947 0.09452
 H1025 H 0.02258 0.82428 0.06701
 H1026 H 0.01864 0.85509 0.04241
 H1027 H -0.03733 0.82921 0.01946
 H1028 H -0.03338 0.79845 0.04402
 C1029 C 0.02504 0.65474 0.04399
 C1030 C 0.01325 0.67234 0.03260
 C1031 C 0.00798 0.68882 0.04579
 C1032 C 0.01501 0.68612 0.06908
 C1033 C 0.03910 0.68271 0.06867
 C1034 C 0.04438 0.66620 0.05547
 C1035 C 0.01037 0.64803 0.06174
 C1036 C 0.00510 0.66451 0.07491
 C1037 C 0.03039 0.63687 0.02976
 C1038 C 0.03410 0.62206 0.01794
 C1039 C 0.00898 0.70369 0.08336
 C1040 C 0.00326 0.71759 0.09531
 H1041 H 0.00936 0.67187 0.01567
 H1042 H -0.00043 0.70247 0.04015
 H1043 H 0.05096 0.69240 0.07792
 H1044 H 0.06076 0.66174 0.05341
 H1045 H 0.00459 0.63176 0.06379
 H1046 H -0.00520 0.66233 0.08822
 C1047 C 0.52473 0.15484 0.54436
 C1048 C 0.51300 0.17249 0.53302
 C1049 C 0.50772 0.18894 0.54625
 C1050 C 0.51468 0.18614 0.56955
 C1051 C 0.53877 0.18269 0.56919
 C1052 C 0.54406 0.16622 0.55594
 C1053 C 0.50999 0.14808 0.56205
 C1054 C 0.50471 0.16451 0.57526
 C1055 C 0.53009 0.13701 0.53008
 C1056 C 0.53380 0.12224 0.51822
 C1057 C 0.50865 0.20365 0.58389
 C1058 C 0.50296 0.21751 0.59592
 H1059 H 0.50916 0.17210 0.51608
 H1060 H 0.49935 0.20262 0.54064
 H1061 H 0.55061 0.19234 0.57849
 H1062 H 0.56044 0.16176 0.55390
 H1063 H 0.50417 0.13181 0.56400
 H1064 H 0.49435 0.16230 0.58852
 C1065 C -0.02110 0.15564 0.45972
 C1066 C -0.04135 0.16169 0.44728
 C1067 C -0.03781 0.17699 0.43283
 C1068 C -0.01438 0.18472 0.43226
 C1069 C -0.00191 0.16446 0.42827
 C1070 C -0.00544 0.14919 0.44269
 C1071 C -0.01175 0.17673 0.46966
 C1072 C -0.00821 0.19203 0.45522
 C1073 C -0.02482 0.13902 0.47512
 C1074 C -0.02784 0.12503 0.48742
 C1075 C -0.01027 0.20098 0.41658
 C1076 C -0.00609 0.21383 0.40342
 H1077 H -0.05706 0.15455 0.44958
 H1078 H -0.05049 0.18296 0.42277
 H1079 H 0.00877 0.16229 0.41524
 H1080 H 0.00221 0.13395 0.44201
 H1081 H -0.00818 0.17940 0.48654
 H1082 H -0.00162 0.20781 0.45973
 C1083 C 0.47908 0.65542 0.95987
 C1084 C 0.45861 0.66262 0.94861
 C1085 C 0.46211 0.67799 0.93423
 C1086 C 0.48573 0.68462 0.93251
 C1087 C 0.49697 0.66380 0.92754
 C1088 C 0.49347 0.64847 0.94190
 C1089 C 0.48989 0.67593 0.96964
 C1090 C 0.49339 0.69129 0.95525
 C1091 C 0.47538 0.63873 0.97521
 C1092 C 0.47237 0.62469 0.98745
 C1093 C 0.48980 0.70092 0.91687
 C1094 C 0.49394 0.71379 0.90371
 H1095 H 0.44277 0.65621 0.95166
 H1096 H 0.44927 0.68475 0.92498
 H1097 H 0.50682 0.66132 0.91391
 H1098 H 0.50033 0.63287 0.94057
 H1099 H 0.49442 0.67819 0.98636
 H1100 H 0.50089 0.70672 0.95966
 C1101 C 0.51668 0.84991 0.95633
 C1102 C 0.50830 0.82958 0.96658
 C1103 C 0.50552 0.81254 0.95266
 C1104 C 0.51141 0.81752 0.92988
 C1105 C 0.53447 0.82653 0.93179
 C1106 C 0.53724 0.84354 0.94569
 C1107 C 0.50073 0.85359 0.93790
 C1108 C 0.49796 0.83654 0.92398
 C1109 C 0.51991 0.86821 0.97129
 C1110 C 0.52304 0.88318 0.98359
 C1111 C 0.50884 0.79920 0.91487
 C1112 C 0.50772 0.78424 0.90237
 H1113 H 0.50482 0.82865 0.98329
 H1114 H 0.49965 0.79703 0.95743
 H1115 H 0.54749 0.82016 0.92293
 H1116 H 0.55262 0.85173 0.94874
 H1117 H 0.49240 0.86829 0.93594
 H1118 H 0.48723 0.83662 0.91010
 C1119 C 0.01649 0.35006 0.45602
 C1120 C 0.00552 0.33056 0.46559
 C1121 C 0.00284 0.31348 0.45171
 C1122 C 0.01139 0.31759 0.42964
 C1123 C 0.03480 0.32491 0.43374
 C1124 C 0.03748 0.34196 0.44760
 C1125 C 0.00283 0.35458 0.43611
 C1126 C 0.00015 0.33750 0.42223
 C1127 C 0.01964 0.36839 0.47095
 C1128 C 0.02270 0.38340 0.48322
 C1129 C 0.00890 0.29924 0.41466
 C1130 C 0.00782 0.28427 0.40217
 H1131 H 0.00034 0.33020 0.48183
 H1132 H -0.00464 0.29848 0.45605
 H1133 H 0.04812 0.31736 0.42638
 H1134 H 0.05309 0.34902 0.45209
 H1135 H -0.00407 0.36985 0.43315
 H1136 H -0.00907 0.33813 0.40738
 C1137 C 0.35203 0.54309 0.48205
 C1138 C 0.33086 0.53146 0.48670
 C1139 C 0.31425 0.54472 0.48884
 C1140 C 0.32044 0.56831 0.48611
 C1141 C 0.33060 0.56903 0.46433
 C1142 C 0.34717 0.55580 0.46220
 C1143 C 0.35556 0.55996 0.50016
 C1144 C 0.33895 0.57321 0.50230
 C1145 C 0.36998 0.52892 0.47944
 C1146 C 0.38481 0.51752 0.47676
 C1147 C 0.30262 0.58276 0.48798
 C1148 C 0.28820 0.59495 0.48850
 H1149 H 0.32907 0.51433 0.48817
 H1150 H 0.29824 0.53894 0.49213
 H1151 H 0.32520 0.57903 0.45164
 H1152 H 0.35596 0.55450 0.44770
 H1153 H 0.36983 0.56135 0.51042
 H1154 H 0.33900 0.58595 0.51439
 C1155 C 0.85215 0.04334 -0.01836
 C1156 C 0.85905 0.06678 -0.01379
 C1157 C 0.84241 0.07994 -0.01159
 C1158 C 0.82046 0.06842 -0.01417
 C1159 C 0.82094 0.05074 0.00206
 C1160 C 0.83761 0.03755 -0.00014
 C1161 C 0.83721 0.04354 -0.03814
 C1162 C 0.82057 0.05670 -0.03594
 C1163 C 0.87015 0.02926 -0.02100
 C1164 C 0.88502 0.01792 -0.02365
 C1165 C 0.80258 0.08278 -0.01226
 C1166 C 0.78810 0.09490 -0.01171
 H1167 H 0.87557 0.07252 -0.01234
 H1168 H 0.84468 0.09695 -0.00824
 H1169 H 0.80927 0.04879 0.01422
 H1170 H 0.84021 0.02428 0.01013
 H1171 H 0.83946 0.03414 -0.05261
 H1172 H 0.80860 0.05855 -0.04853
 C1173 C 0.65458 0.04336 0.02488
 C1174 C 0.65869 0.04279 0.00101
 C1175 C 0.67514 0.05601 -0.00436
 C1176 C 0.68593 0.06852 0.01466
 C1177 C 0.69253 0.05151 0.03028
 C1178 C 0.67604 0.03827 0.03566
 C1179 C 0.65132 0.06691 0.03071
 C1180 C 0.66780 0.08014 0.02534
 C1181 C 0.63674 0.02910 0.03041
 C1182 C 0.62196 0.01729 0.03438
 C1183 C 0.70349 0.08284 0.00858
 C1184 C 0.71742 0.09482 0.00289
 H1185 H 0.64945 0.03290 -0.01067
 H1186 H 0.67998 0.05744 -0.02064
 H1187 H 0.70872 0.04999 0.03654
 H1188 H 0.67811 0.02539 0.04652
 H1189 H 0.63728 0.07271 0.03832
 H1190 H 0.66786 0.09726 0.02834
 C1191 C 0.15438 0.54352 0.52447
 C1192 C 0.15852 0.54302 0.50061
 C1193 C 0.17504 0.55618 0.49531
 C1194 C 0.18585 0.56859 0.51438
 C1195 C 0.19235 0.55149 0.52995
 C1196 C 0.17579 0.53830 0.53526
 C1197 C 0.15121 0.56707 0.53038
 C1198 C 0.16775 0.58025 0.52508
 C1199 C 0.13647 0.52931 0.52991
 C1200 C 0.12162 0.51756 0.53380
 C1201 C 0.20348 0.58287 0.50837
 C1202 C 0.21746 0.59483 0.50275
 H1203 H 0.14927 0.53318 0.48888
 H1204 H 0.17994 0.55762 0.47905
 H1205 H 0.20851 0.54987 0.53623
 H1206 H 0.17777 0.52537 0.54607
 H1207 H 0.13719 0.57290 0.53800
 H1208 H 0.16790 0.59736 0.52818
 C1209 C 0.15533 0.46029 -0.02086
 C1210 C 0.15705 0.45334 0.00221
 C1211 C 0.17243 0.43898 0.00571
 C1212 C 0.18462 0.43295 -0.01420
 C1213 C 0.19326 0.45422 -0.02234
 C1214 C 0.17785 0.46862 -0.02584
 C1215 C 0.15195 0.43948 -0.03423
 C1216 C 0.16734 0.42512 -0.03073
 C1217 C 0.13856 0.47557 -0.02458
 C1218 C 0.12439 0.48768 -0.02767
 C1219 C 0.20096 0.41731 -0.01013
 C1220 C 0.21382 0.40412 -0.00600
 H1221 H 0.14705 0.45917 0.01471
 H1222 H 0.17559 0.43249 0.02121
 H1223 H 0.20998 0.45767 -0.02512
 H1224 H 0.18137 0.48440 -0.03160
 H1225 H 0.13861 0.43630 -0.04545
 H1226 H 0.16719 0.40964 -0.03895
 C1227 C 0.65531 0.96072 0.47938
 C1228 C 0.65706 0.95379 0.50247
 C1229 C 0.67243 0.93942 0.50596
 C1230 C 0.68458 0.93336 0.48604
 C1231 C 0.69323 0.95461 0.47786
 C1232 C 0.67783 0.96901 0.47436
 C1233 C 0.65189 0.93990 0.46604
 C1234 C 0.66727 0.92552 0.46954
 C1235 C 0.63854 0.97598 0.47565
 C1236 C 0.62436 0.98807 0.47253
 C1237 C 0.70090 0.91770 0.49011
 C1238 C 0.71375 0.90450 0.49425
 H1239 H 0.64708 0.95963 0.51497
 H1240 H 0.67560 0.93294 0.52146
 H1241 H 0.70995 0.95803 0.47504
 H1242 H 0.68135 0.98478 0.46856
 H1243 H 0.63854 0.93673 0.45483
 H1244 H 0.66710 0.91004 0.46132
 C1245 C 0.85000 0.95711 0.51665
 C1246 C 0.83358 0.96371 0.49970
 C1247 C 0.81647 0.94978 0.49697
 C1248 C 0.81750 0.93066 0.51146
 C1249 C 0.82025 0.94043 0.53409
 C1250 C 0.83732 0.95432 0.53681
 C1251 C 0.85599 0.93450 0.50973
 C1252 C 0.83890 0.92058 0.50700
 C1253 C 0.86838 0.97202 0.51987
 C1254 C 0.88348 0.98420 0.52308
 C1255 C 0.79915 0.91562 0.50895
 C1256 C 0.78418 0.90307 0.50788
 H1257 H 0.83527 0.97802 0.49064
 H1258 H 0.80350 0.95214 0.48555
 H1259 H 0.80973 0.93671 0.54687
 H1260 H 0.84143 0.96251 0.55193
 H1261 H 0.87223 0.92982 0.50722
 H1262 H 0.84048 0.90399 0.50213
 C1263 C 0.35013 0.45676 0.01650
 C1264 C 0.35073 0.44257 -0.00379
 C1265 C 0.33358 0.42869 -0.00655
 C1266 C 0.31757 0.43039 0.01125
 C1267 C 0.31156 0.45387 0.01217
 C1268 C 0.32869 0.46774 0.01492
 C1269 C 0.34782 0.44121 0.03460
 C1270 C 0.33072 0.42736 0.03184
 C1271 C 0.36853 0.47164 0.01977
 C1272 C 0.38364 0.48380 0.02302
 C1273 C 0.29920 0.41539 0.00870
 C1274 C 0.28423 0.40283 0.00760
 H1275 H 0.36348 0.44336 -0.01498
 H1276 H 0.33164 0.41757 -0.02010
 H1277 H 0.29530 0.45914 0.01077
 H1278 H 0.32711 0.48490 0.01588
 H1279 H 0.35869 0.44108 0.04838
 H1280 H 0.32693 0.41537 0.04327
 C1281 C 0.54419 0.48114 0.35186
 C1282 C 0.53457 0.49361 0.33352
 C1283 C 0.54777 0.49579 0.31691
 C1284 C 0.56930 0.48529 0.32028
 C1285 C 0.56357 0.46202 0.32504
 C1286 C 0.55040 0.45984 0.34161
 C1287 C 0.56547 0.49294 0.35795
 C1288 C 0.57866 0.49512 0.34136
 C1289 C 0.53008 0.47849 0.36979
 C1290 C 0.51867 0.47583 0.38457
 C1291 C 0.58370 0.48721 0.30249
 C1292 C 0.59586 0.48782 0.28809
 H1293 H 0.51877 0.50011 0.33356
 H1294 H 0.54328 0.50413 0.30272
 H1295 H 0.56930 0.44841 0.31612
 H1296 H 0.54489 0.44439 0.34688
 H1297 H 0.56981 0.49906 0.37389
 H1298 H 0.59427 0.50311 0.34310
 C1299 C 0.04443 -0.01846 0.85143
 C1300 C 0.06434 -0.03186 0.85317
 C1301 C 0.07755 -0.02973 0.83663
 C1302 C 0.06959 -0.01440 0.81989
 C1303 C 0.06625 0.00662 0.83228
 C1304 C 0.05301 0.00449 0.84887
 C1305 C 0.03383 -0.02507 0.82977
 C1306 C 0.04705 -0.02294 0.81320
 C1307 C 0.03031 -0.02105 0.86936
 C1308 C 0.01894 -0.02366 0.88418
 C1309 C 0.08399 -0.01252 0.80210
 C1310 C 0.09614 -0.01199 0.78769
 H1311 H 0.06778 -0.04213 0.86628
 H1312 H 0.09229 -0.03818 0.83559
 H1313 H 0.07359 0.02182 0.82836
 H1314 H 0.04902 0.01787 0.85915
 H1315 H 0.01738 -0.03088 0.82763
 H1316 H 0.04192 -0.02693 0.79688
 C1317 C 0.04484 0.02477 0.65453
 C1318 C 0.06165 0.00886 0.64809
 C1319 C 0.07482 0.00344 0.66451
 C1320 C 0.06992 0.01446 0.68581
 C1321 C 0.04629 0.00889 0.68912
 C1322 C 0.03311 0.01431 0.67269
 C1323 C 0.05760 0.04382 0.66508
 C1324 C 0.07080 0.03840 0.68154
 C1325 C 0.03062 0.03031 0.63673
 C1326 C 0.01881 0.03422 0.62198
 C1327 C 0.08419 0.00831 0.70333
 C1328 C 0.09613 0.00256 0.71723
 H1329 H 0.06307 0.00237 0.63203
 H1330 H 0.08751 -0.00769 0.66251
 H1331 H 0.04044 0.00125 0.70309
 H1332 H 0.01596 0.01132 0.67259
 H1333 H 0.05642 0.06010 0.66004
 H1334 H 0.08093 0.05004 0.69058
 C1335 C 0.54455 0.52478 0.15494
 C1336 C 0.53791 0.53358 0.17667
 C1337 C 0.55109 0.52817 0.19314
 C1338 C 0.56961 0.51449 0.18625
 C1339 C 0.58092 0.52740 0.16940
 C1340 C 0.56775 0.53281 0.15295
 C1341 C 0.54582 0.50064 0.15748
 C1342 C 0.55898 0.49525 0.17392
 C1343 C 0.53033 0.53033 0.13714
 C1344 C 0.51850 0.53427 0.12240
 C1345 C 0.58388 0.50834 0.20378
 C1346 C 0.59582 0.50257 0.21767
 H1347 H 0.52407 0.54319 0.17891
 H1348 H 0.54853 0.53314 0.20949
 H1349 H 0.59780 0.53190 0.17032
 H1350 H 0.57335 0.54192 0.13977
 H1351 H 0.53714 0.48881 0.14727
 H1352 H 0.56154 0.47879 0.17778
 C1353 C 0.45903 -0.02124 0.15557
 C1354 C 0.43734 -0.03288 0.15111
 C1355 C 0.42300 -0.02929 0.16645
 C1356 C 0.43174 -0.01442 0.18478
 C1357 C 0.43953 0.00590 0.17411
 C1358 C 0.45386 0.00232 0.15877
 C1359 C 0.46648 -0.02831 0.17763
 C1360 C 0.45212 -0.02472 0.19300
 C1361 C 0.47430 -0.02502 0.13886
 C1362 C 0.48647 -0.02811 0.12479
 C1363 C 0.41613 -0.01026 0.20109
 C1364 C 0.40300 -0.00606 0.21396
 H1365 H 0.43355 -0.04297 0.13707
 H1366 H 0.40692 -0.03629 0.16554
 H1367 H 0.43419 0.02172 0.17821
 H1368 H 0.46081 0.01506 0.14974
 H1369 H 0.48170 -0.03545 0.18089
 H1370 H 0.45503 -0.02878 0.20943
 C1371 C 0.95919 0.47902 0.65533
 C1372 C 0.95158 0.45875 0.66621
 C1373 C 0.93722 0.46239 0.68156
 C1374 C 0.93190 0.48594 0.68452
 C1375 C 0.92439 0.49272 0.66240
 C1376 C 0.93872 0.48909 0.64707
 C1377 C 0.96786 0.49415 0.67349
 C1378 C 0.95351 0.49779 0.68884
 C1379 C 0.97448 0.47515 0.63866
 C1380 C 0.98668 0.47196 0.62464
 C1381 C 0.91628 0.49013 0.70082
 C1382 C 0.90312 0.49432 0.71367
 H1383 H 0.95699 0.44293 0.66220
 H1384 H 0.93035 0.44970 0.69072
 H1385 H 0.90915 0.49980 0.65906
 H1386 H 0.93575 0.49305 0.63062
 H1387 H 0.98384 0.50138 0.67421
 H1388 H 0.95722 0.50813 0.70272
 C1389 C 0.95576 0.51673 0.84971
 C1390 C 0.96558 0.52231 0.82854
 C1391 C 0.95170 0.51951 0.81149
 C1392 C 0.92937 0.51142 0.81728
 C1393 C 0.92216 0.52758 0.83414
 C1394 C 0.93603 0.53038 0.85117
 C1395 C 0.94689 0.49372 0.84637
 C1396 C 0.93299 0.49092 0.82929
 C1397 C 0.97068 0.52005 0.86801
 C1398 C 0.98294 0.52333 0.88299
 C1399 C 0.91438 0.50885 0.79894
 C1400 C 0.90188 0.50779 0.78398
 H1401 H 0.98197 0.52800 0.82708
 H1402 H 0.95622 0.52279 0.79542
 H1403 H 0.90741 0.53605 0.83284
 H1404 H 0.93317 0.54124 0.86445
 H1405 H 0.95108 0.48080 0.85656
 H1406 H 0.92526 0.47561 0.82485
 C1407 C 0.45562 0.01680 0.34996
 C1408 C 0.43250 0.01214 0.35605
 C1409 C 0.41861 0.00928 0.33900
 C1410 C 0.42923 0.01138 0.31755
 C1411 C 0.44710 -0.00469 0.31784
 C1412 C 0.46100 -0.00183 0.33490
 C1413 C 0.45459 0.03622 0.33589
 C1414 C 0.44072 0.03337 0.31888
 C1415 C 0.47055 0.02017 0.36826
 C1416 C 0.48280 0.02345 0.38324
 C1417 C 0.41425 0.00876 0.29922
 C1418 C 0.40176 0.00766 0.28425
 H1419 H 0.42747 0.01119 0.37231
 H1420 H 0.40169 0.00586 0.34066
 H1421 H 0.44865 -0.01724 0.30579
 H1422 H 0.47449 -0.01191 0.33745
 H1423 H 0.46388 0.05096 0.33907
 H1424 H 0.43813 0.04568 0.30748
   
