data_POSCAR
  _audit_creation_date              2014-09-24
  _audit_creation_method            'ToBaCCo'
  _symmetry_space_group_name_H-M    'P1'
  _symmetry_Int_Tables_number       1
  _symmetry_cell_setting            triclinic
  loop_
  _symmetry_equiv_pos_as_xyz
 x,y,z
_cell_length_a 58.0923
_cell_length_b 57.3055
_cell_length_c 57.5353
_cell_angle_alpha 90.020800
_cell_angle_beta 90.232800
_cell_angle_gamma 90.203900
loop_
  _atom_site_label
  _atom_site_type_symbol
  _atom_site_fract_x
  _atom_site_fract_y
  _atom_site_fract_z
C1 C 0.36134 1.36783 0.34259
 C2 C 0.36895 1.34552 0.34975
 C3 C 0.35934 1.33448 0.36924
 C4 C 0.34241 1.34593 0.38214
 C5 C 0.33384 1.36773 0.37523
 C6 C 0.34345 1.37843 0.35543
 H7 H 0.38261 1.33666 0.34060
 H8 H 0.33496 1.33695 0.39688
 H9 H 0.33672 1.39509 0.34994
 C10 C 0.37365 0.86545 0.83569
 C11 C 0.35359 0.87701 0.84259
 C12 C 0.34037 0.86904 0.86162
 C13 C 0.34779 0.84865 0.87340
 C14 C 0.36840 0.83745 0.86708
 C15 C 0.38103 0.84594 0.84816
 H16 H 0.34800 0.89187 0.83246
 H17 H 0.33854 0.84225 0.88841
 H18 H 0.39646 0.83690 0.84272
 C19 C 0.84629 1.35600 0.82600
 C20 C 0.85564 1.33512 0.83464
 C21 C 0.84800 1.32596 0.85585
 C22 C 0.83199 1.33840 0.86907
 C23 C 0.82224 1.35926 0.86083
 C24 C 0.82945 1.36774 0.83900
 H25 H 0.86793 1.32545 0.82434
 H26 H 0.82605 1.33074 0.88518
 H27 H 0.82270 1.38404 0.83238
 C28 C 0.84297 0.83533 0.30457
 C29 C 0.82339 0.84836 0.31061
 C30 C 0.80884 0.84090 0.32856
 C31 C 0.81367 0.81996 0.34016
 C32 C 0.83310 0.80684 0.33446
 C33 C 0.84781 0.81462 0.31677
 H34 H 0.81950 0.86437 0.30141
 H35 H 0.80239 0.81393 0.35389
 H36 H 0.86297 0.80455 0.31253
 C37 C 0.64398 0.63467 0.33164
 C38 C 0.66446 0.62820 0.34322
 C39 C 0.67001 0.63718 0.36518
 C40 C 0.65504 0.65279 0.37593
 C41 C 0.63458 0.65959 0.36496
 C42 C 0.62898 0.65038 0.34298
 H43 H 0.67612 0.61577 0.33546
 H44 H 0.65957 0.66007 0.39273
 H45 H 0.61348 0.65642 0.33441
 C46 C 0.64244 0.14329 0.82752
 C47 C 0.66263 0.13145 0.83378
 C48 C 0.67548 0.13770 0.85364
 C49 C 0.66710 0.15594 0.86776
 C50 C 0.64706 0.16821 0.86162
 C51 C 0.63481 0.16175 0.84150
 H52 H 0.66769 0.11647 0.82357
 H53 H 0.67690 0.16184 0.88270
 H54 H 0.61940 0.17119 0.83667
 C55 C 1.14421 0.64111 0.83055
 C56 C 1.13291 0.66163 0.83725
 C57 C 1.14124 0.67532 0.85564
 C58 C 1.16080 0.66796 0.86795
 C59 C 1.17235 0.64739 0.86165
 C60 C 1.16387 0.63403 0.84293
 H61 H 1.11745 0.66700 0.82814
 H62 H 1.16729 0.67851 0.88218
 H63 H 1.17312 0.61864 0.83737
 C64 C 1.14757 0.13625 0.33104
 C65 C 1.16511 0.12587 0.34427
 C66 C 1.17255 0.13533 0.36556
 C67 C 1.16217 0.15601 0.37362
 C68 C 1.14328 0.16566 0.36159
 C69 C 1.13602 0.15558 0.34048
 H70 H 1.17344 0.11034 0.33770
 H71 H 1.16766 0.16367 0.38995
 H72 H 1.12235 0.16395 0.33075
 C73 C 0.65285 1.36032 0.67564
 C74 C 0.64021 1.34019 0.66977
 C75 C 0.64810 1.32480 0.65268
 C76 C 0.66911 1.32949 0.64174
 C77 C 0.68225 1.34944 0.64722
 C78 C 0.67348 1.36526 0.66380
 H79 H 0.62423 1.33644 0.67869
 H80 H 0.67467 1.31809 0.62785
 H81 H 0.68342 1.38050 0.66882
 C82 C 0.63749 0.85966 1.16073
 C83 C 0.62982 0.84132 1.14662
 C84 C 0.64370 0.83253 1.12874
 C85 C 0.66520 0.84302 1.12440
 C86 C 0.67320 0.86141 1.13859
 C87 C 0.65925 0.86951 1.15675
 H88 H 0.61319 0.83341 1.14998
 H89 H 0.67612 0.83619 1.11080
 H90 H 0.66522 0.88372 1.16769
 C91 C 1.12118 1.37923 1.15612
 C92 C 1.11168 1.36102 1.14280
 C93 C 1.12383 1.35103 1.12436
 C94 C 1.14575 1.35964 1.11866
 C95 C 1.15526 1.37894 1.13066
 C96 C 1.14272 1.38840 1.14941
 H97 H 1.09553 1.35302 1.14783
 H98 H 1.15469 1.35198 1.10406
 H99 H 1.15000 1.40276 1.15919
 C100 C 1.13345 0.86740 0.66258
 C101 C 1.12702 0.84724 0.65040
 C102 C 1.14001 0.83928 0.63145
 C103 C 1.15960 0.85209 0.62466
 C104 C 1.16618 0.87250 0.63663
 C105 C 1.15301 0.87997 0.65565
 H106 H 1.11239 0.83719 0.65643
 H107 H 1.16957 0.84640 0.60985
 H108 H 1.15814 0.89542 0.66527
 C109 C 0.35470 0.64766 0.67169
 C110 C 0.33558 0.63535 0.66287
 C111 C 0.32172 0.64469 0.64498
 C112 C 0.32789 0.66662 0.63576
 C113 C 0.34722 0.67886 0.64394
 C114 C 0.36064 0.66926 0.66183
 H115 H 0.33105 0.61887 0.67083
 H116 H 0.31843 0.67392 0.62125
 H117 H 0.37518 0.67903 0.66863
 C118 C 0.36809 0.12529 1.15999
 C119 C 0.35064 0.11339 1.14799
 C120 C 0.34432 0.12004 1.12550
 C121 C 0.35586 0.13860 1.11472
 C122 C 0.37380 0.15049 1.12626
 C123 C 0.37996 0.14355 1.14894
 H124 H 0.34126 0.09949 1.15659
 H125 H 0.35030 0.14424 1.09763
 H126 H 0.39345 0.15275 1.15826
 C127 C 0.84924 0.65403 1.17701
 C128 C 0.85631 0.67448 1.16532
 C129 C 0.84290 0.68434 1.14748
 C130 C 0.82216 0.67343 1.14103
 C131 C 0.81460 0.65322 1.15243
 C132 C 0.82817 0.64366 1.17023
 H133 H 0.87158 0.68374 1.17100
 H134 H 0.81171 0.68082 1.12726
 H135 H 0.82260 0.62737 1.17791
 C136 C 0.87094 0.13489 0.66182
 C137 C 0.85065 0.12274 0.65590
 C138 C 0.83764 0.12839 0.63602
 C139 C 0.84559 0.14665 0.62166
 C140 C 0.86539 0.15961 0.62760
 C141 C 0.87820 0.15319 0.64733
 H142 H 0.84578 0.10762 0.66603
 H143 H 0.83565 0.15185 0.60660
 H144 H 0.89278 0.16382 0.65251
 C145 C 1.34747 0.35162 0.67153
 C146 C 1.32665 0.35980 0.66222
 C147 C 1.31479 0.34707 0.64517
 C148 C 1.32406 0.32593 0.63735
 C149 C 1.34487 0.31700 0.64643
 C150 C 1.35659 0.33034 0.66351
 H151 H 1.31927 0.37579 0.66888
 H152 H 1.31538 0.31705 0.62320
 H153 H 1.37233 0.32395 0.67131
 C154 C 1.33278 0.83077 1.19341
 C155 C 1.31210 0.84172 1.18690
 C156 C 1.29794 0.83180 1.16971
 C157 C 1.30456 0.81101 1.15890
 C158 C 1.32563 0.80024 1.16425
 C159 C 1.33970 0.81048 1.18154
 H160 H 1.30660 0.85747 1.19567
 H161 H 1.29380 0.80422 1.14502
 H162 H 1.35570 0.80220 1.18653
 C163 C 0.87328 0.37305 1.15632
 C164 C 0.87935 0.35362 1.14294
 C165 C 0.86658 0.34726 1.12299
 C166 C 0.84778 0.36136 1.11649
 C167 C 0.84115 0.38057 1.13011
 C168 C 0.85407 0.38638 1.14997
 H169 H 0.89436 0.34369 1.14809
 H170 H 0.83734 0.35675 1.10152
 H171 H 0.84899 0.40102 1.16070
 C172 C 0.87436 0.87022 0.66062
 C173 C 0.88367 0.85128 0.64858
 C174 C 0.87219 0.84155 0.62940
 C175 C 0.85124 0.85129 0.62197
 C176 C 0.84183 0.87068 0.63355
 C177 C 0.85343 0.87986 0.65309
 H178 H 0.89950 0.84345 0.65479
 H179 H 0.84259 0.84409 0.60686
 H180 H 0.84618 0.89445 0.66250
 C181 C 0.65347 0.64882 0.68630
 C182 C 0.64291 0.66477 0.67114
 C183 C 0.65249 0.66948 0.64916
 C184 C 0.67261 0.65772 0.64237
 C185 C 0.68341 0.64193 0.65752
 C186 C 0.67367 0.63755 0.67930
 H187 H 0.62738 0.67366 0.67651
 H188 H 0.68037 0.66154 0.62570
 H189 H 0.68167 0.62491 0.69075
 C190 C 0.64187 1.14324 1.16689
 C191 C 0.65938 1.12869 1.15855
 C192 C 0.67008 1.13346 1.13730
 C193 C 0.66248 1.15233 1.12379
 C194 C 0.64524 1.16746 1.13189
 C195 C 0.63514 1.16268 1.15366
 H196 H 0.66550 1.11434 1.16914
 H197 H 0.67125 1.15600 1.10761
 H198 H 0.62125 1.17349 1.16000
 C199 C 0.14986 0.64811 1.18056
 C200 C 0.13855 0.66872 1.17388
 C201 C 0.14506 0.68130 1.15390
 C202 C 0.16284 0.67221 1.13992
 C203 C 0.17468 0.65189 1.14653
 C204 C 0.16816 0.64014 1.16687
 H205 H 0.12460 0.67514 1.18449
 H206 H 0.16862 0.68168 1.12473
 H207 H 0.17659 0.62389 1.17124
 C208 C 0.15430 1.14025 0.67089
 C209 C 0.14070 1.15915 0.66357
 C210 C 0.14679 1.17252 0.64391
 C211 C 0.16636 1.16574 0.63113
 C212 C 0.17972 1.14656 0.63786
 C213 C 0.17373 1.13406 0.65789
 H214 H 0.12634 1.16436 0.67431
 H215 H 0.17112 1.17504 0.61548
 H216 H 0.18399 1.11921 0.66316
 C217 C 1.33561 0.66536 0.30755
 C218 C 1.31520 0.65379 0.31371
 C219 C 1.30156 0.66218 0.33192
 C220 C 1.30829 0.68256 0.34370
 C221 C 1.32900 0.69415 0.33833
 C222 C 1.34257 0.68522 0.32010
 H223 H 1.30997 0.63823 0.30434
 H224 H 1.29770 0.68870 0.35787
 H225 H 1.35827 0.69405 0.31504
 C226 C 1.36829 1.12462 0.83299
 C227 C 1.35071 1.11535 0.84677
 C228 C 1.34262 1.12747 0.86621
 C229 C 1.35234 1.14922 0.87210
 C230 C 1.36996 1.15914 0.85831
 C231 C 1.37784 1.14634 0.83897
 H232 H 1.34257 1.09901 0.84190
 H233 H 1.34537 1.15870 0.88674
 H234 H 1.39227 1.15280 0.82899
 C235 C 0.85585 0.64212 0.83334
 C236 C 0.86577 0.65941 0.84750
 C237 C 0.85324 0.66977 0.86547
 C238 C 0.83038 0.66281 0.86946
 C239 C 0.82011 0.64538 0.85553
 C240 C 0.83301 0.63519 0.83756
 H241 H 0.88318 0.66537 0.84421
 H242 H 0.82066 0.67096 0.88327
 H243 H 0.82535 0.62141 0.82717
 C244 C 0.86418 1.13208 0.33499
 C245 C 0.84419 1.12448 0.34655
 C246 C 0.83867 1.13318 0.36860
 C247 C 0.85381 1.14859 0.37972
 C248 C 0.87392 1.15616 0.36871
 C249 C 0.87898 1.14806 0.34625
 H250 H 0.83244 1.11244 0.33810
 H251 H 0.84940 1.15554 0.39665
 H252 H 0.89406 1.15471 0.33740
 C253 C 0.63207 0.36730 0.34123
 C254 C 0.62432 0.34816 0.35460
 C255 C 0.63571 0.34132 0.37517
 C256 C 0.65479 0.35444 0.38270
 C257 C 0.66351 0.37281 0.36926
 C258 C 0.65206 0.37928 0.34874
 H259 H 0.60957 0.33814 0.34876
 H260 H 0.66409 0.34935 0.39823
 H261 H 0.65872 0.39392 0.33894
 C262 C 0.64950 0.84665 0.82552
 C263 C 0.64055 0.82619 0.83550
 C264 C 0.65322 0.81365 0.85210
 C265 C 0.67494 0.82200 0.85890
 C266 C 0.68415 0.84243 0.84924
 C267 C 0.67138 0.85479 0.83249
 H268 H 0.62401 0.81961 0.82965
 H269 H 0.68468 0.81279 0.87209
 H270 H 0.67849 0.87049 0.82482
 C271 C 0.12867 0.37054 0.83953
 C272 C 0.12206 0.34957 0.85062
 C273 C 0.13476 0.34068 0.86939
 C274 C 0.15338 0.35351 0.87809
 C275 C 0.16066 0.37408 0.86728
 C276 C 0.14822 0.38261 0.84815
 H277 H 0.10829 0.33898 0.84344
 H278 H 0.16270 0.34704 0.89311
 H279 H 0.15385 0.39873 0.84016
 C280 C 0.13239 0.86736 0.33929
 C281 C 0.12470 0.84654 0.34990
 C282 C 0.13596 0.83723 0.36937
 C283 C 0.15446 0.84948 0.37916
 C284 C 0.16254 0.87017 0.36913
 C285 C 0.15199 0.87872 0.34880
 H286 H 0.11085 0.83655 0.34206
 H287 H 0.16287 0.84275 0.39461
 H288 H 0.15824 0.89491 0.34141
 O289 O 0.97929 0.91605 0.88618
 O290 O 0.97931 0.88787 0.86009
 C291 C 0.97110 0.90691 0.86781
 C292 C 0.95104 0.91809 0.85624
 C293 C 0.94142 0.90881 0.83568
 H294 H 0.94931 0.89394 0.82729
 O295 O 1.02364 1.07884 0.87883
 O296 O 1.02291 1.10461 0.85038
 C297 C 1.03115 1.08623 0.85947
 C298 C 1.05006 1.07370 0.84765
 C299 C 1.05630 1.07973 0.82490
 H300 H 1.04682 1.09321 0.81582
 O301 O 0.88470 0.97571 0.92015
 O302 O 0.85708 0.97492 0.89373
 C303 C 0.86566 0.96762 0.91267
 C304 C 0.85377 0.94902 0.92574
 C305 C 0.83167 0.94158 0.91919
 H306 H 0.82274 0.95020 0.90503
 O307 O 1.11988 1.02386 0.91346
 O308 O 1.14614 1.02345 0.88591
 C309 C 1.13809 1.03216 0.90451
 C310 C 1.14926 1.05270 0.91556
 C311 C 1.16993 1.06219 0.90687
 H312 H 1.17860 1.05394 0.89241
 O313 O 0.92020 0.88601 0.98121
 O314 O 0.89384 0.85829 0.98300
 C315 C 0.91197 0.86678 0.97394
 C316 C 0.92291 0.85469 0.95408
 C317 C 0.91225 0.83505 0.94412
 H318 H 0.89656 0.82805 0.95156
 O319 O 1.08319 1.11865 0.97063
 O320 O 1.10892 1.14703 0.96918
 C321 C 1.09029 1.13774 0.96207
 C322 C 1.07680 1.14885 0.94337
 C323 C 1.08025 1.17236 0.93750
 H324 H 1.09266 1.18274 0.94714
 O325 O 0.91608 1.01961 0.88607
 O326 O 0.88836 1.01869 0.85978
 C327 C 0.90747 1.02672 0.86704
 C328 C 0.91931 1.04506 0.85353
 C329 C 0.90938 1.05347 0.83297
 H330 H 0.89391 1.04526 0.82624
 O331 O 1.08795 0.97607 0.88547
 O332 O 1.11408 0.97521 0.85780
 C333 C 1.09564 0.96732 0.86683
 C334 C 1.08345 0.94743 0.85575
 C335 C 1.09270 0.93712 0.83583
 H336 H 1.10823 0.94426 0.82819
 O337 O 1.02433 0.88646 0.91989
 O338 O 1.02458 0.85776 0.89434
 C339 C 1.03235 0.86715 0.91286
 C340 C 1.05126 0.85592 0.92614
 C341 C 1.05806 0.83297 0.92105
 H342 H 1.04899 0.82309 0.90780
 O343 O 0.97917 1.11225 0.90968
 O344 O 0.97883 1.13821 0.88135
 C345 C 0.97157 1.13107 0.90091
 C346 C 0.95407 1.14480 0.91346
 C347 C 0.94821 1.16724 0.90580
 H348 H 0.95670 1.17460 0.89073
 O349 O 0.88928 1.08741 0.97581
 O350 O 0.86231 1.11438 0.97429
 C351 C 0.87023 1.09480 0.96786
 C352 C 0.85710 1.08056 0.95097
 C353 C 0.83426 1.08625 0.94568
 H354 H 0.82636 1.10113 0.95406
 O355 O 1.12094 0.92183 0.97879
 O356 O 1.14708 0.89407 0.98034
 C357 C 1.13947 0.91275 0.97139
 C358 C 1.15178 0.92337 0.95152
 C359 C 1.17189 0.91311 0.94295
 H360 H 1.17933 0.89844 0.95213
 O361 O 0.97835 1.07898 0.87939
 O362 O 0.97760 1.10488 0.85106
 C363 C 0.96971 1.08653 0.86055
 C364 C 0.94967 1.07438 0.85021
 C365 C 0.93913 1.08298 0.82992
 H366 H 0.94619 1.09822 0.82137
 O367 O 1.02460 0.91582 0.88578
 O368 O 1.02491 0.88743 0.85993
 C369 C 1.03291 0.90666 0.86751
 C370 C 1.05272 0.91799 0.85563
 C371 C 1.06234 0.90801 0.83547
 H372 H 1.05474 0.89250 0.82784
 O373 O 1.12191 0.97827 0.91456
 O374 O 1.14828 0.97744 0.88715
 C375 C 1.14054 0.97009 0.90643
 C376 C 1.15251 0.95122 0.91937
 C377 C 1.17257 0.94044 0.91074
 H378 H 1.18009 0.94645 0.89462
 O379 O 0.88558 1.02126 0.91883
 O380 O 0.85776 1.02031 0.89263
 C381 C 0.86660 1.02895 0.91097
 C382 C 0.85506 1.04840 0.92316
 C383 C 0.83213 1.05444 0.91798
 H384 H 0.82244 1.04438 0.90532
 O385 O 0.92136 1.11892 0.97336
 O386 O 0.89462 1.14609 0.97167
 C387 C 0.91324 1.13727 0.96419
 C388 C 0.92548 1.14800 0.94432
 C389 C 0.91962 1.17035 0.93623
 H390 H 0.90635 1.18025 0.94494
 O391 O 1.08758 0.89148 0.98006
 O392 O 1.11369 0.86366 0.98130
 C393 C 1.09498 0.87185 0.97318
 C394 C 1.08181 0.85839 0.95553
 C395 C 1.08816 0.83541 0.95028
 H396 H 1.10262 0.82755 0.95925
 O397 O 1.08820 1.02121 0.88165
 O398 O 1.11421 1.02060 0.85386
 C399 C 1.09540 1.02826 0.86203
 C400 C 1.08176 1.04573 0.84889
 C401 C 1.08784 1.05214 0.82609
 H402 H 1.10236 1.04388 0.81772
 O403 O 0.91626 0.97439 0.88848
 O404 O 0.88870 0.97341 0.86201
 C405 C 0.90770 0.96582 0.87001
 C406 C 0.91975 0.94660 0.85791
 C407 C 0.91037 0.93697 0.83760
 H408 H 0.89462 0.94407 0.83038
 O409 O 1.02349 1.11255 0.90898
 O410 O 1.02293 1.13855 0.88069
 C411 C 1.03059 1.13153 0.90016
 C412 C 1.04773 1.14565 0.91288
 C413 C 1.05124 1.16917 0.90722
 H414 H 1.04150 1.17699 0.89315
 O415 O 0.97933 0.88473 0.91855
 O416 O 0.97941 0.85647 0.89254
 C417 C 0.97133 0.86546 0.91096
 C418 C 0.95182 0.85397 0.92317
 C419 C 0.94081 0.83424 0.91352
 H420 H 0.94703 0.82667 0.89748
 O421 O 1.11637 1.08845 0.97088
 O422 O 1.14220 1.11670 0.96930
 C423 C 1.13465 1.09712 0.96229
 C424 C 1.14709 1.08464 0.94367
 C425 C 1.16747 1.09400 0.93456
 H426 H 1.17449 1.11009 0.94159
 O427 O 0.88678 0.91575 0.98128
 O428 O 0.86041 0.88803 0.98316
 C429 C 0.86785 0.90688 0.97432
 C430 C 0.85485 0.91866 0.95549
 C431 C 0.83286 0.91095 0.94831
 H432 H 0.82477 0.89617 0.95675
 Cu433 Cu 1.00185 0.90361 0.90508
 Cu434 Cu 1.00217 0.86961 0.87409
 Cu435 Cu 1.00128 1.09287 0.89693
 Cu436 Cu 1.00061 1.12398 0.86281
 Cu437 Cu 0.90337 0.99786 0.90611
 Cu438 Cu 0.87022 0.99675 0.87436
 Cu439 Cu 1.10203 1.00001 0.90163
 Cu440 Cu 1.13332 0.99911 0.86842
 C441 C 0.94017 0.93717 0.86701
 H442 H 0.94723 0.94428 0.88297
 C443 C 0.92096 0.91812 0.82645
 C444 C 1.06272 1.05650 0.85940
 H445 H 1.05811 1.05195 0.87706
 C446 C 1.07504 1.06901 0.81392
 C447 C 0.86502 0.93774 0.94410
 H448 H 0.88213 0.94346 0.94911
 C449 C 0.82113 0.92264 0.93032
 C450 C 1.13820 1.06393 0.93418
 H451 H 1.12220 1.05694 0.94087
 C452 C 1.17896 1.08294 0.91628
 C453 C 0.94281 0.86391 0.94359
 H454 H 0.95084 0.87935 0.95090
 C455 C 0.92098 0.82490 0.92389
 C456 C 1.06040 1.13570 0.93108
 H457 H 1.05779 1.11748 0.93541
 C458 C 1.06732 1.18270 0.91957
 C459 C 0.93966 1.05535 0.86184
 H460 H 0.94727 1.04906 0.87787
 C461 C 0.91884 1.07271 0.82128
 C462 C 1.06336 0.93784 0.86551
 H463 H 1.05637 0.94545 0.88119
 C464 C 1.08250 0.91738 0.82575
 C465 C 1.06316 0.86844 0.94356
 H466 H 1.05825 0.88624 0.94741
 C467 C 1.07636 0.82255 0.93321
 C468 C 0.94284 1.13544 0.93290
 H469 H 0.94725 1.11807 0.93880
 C470 C 0.93112 1.18016 0.91709
 C471 C 0.86729 1.06145 0.93986
 H472 H 0.88502 1.05710 0.94380
 C473 C 0.82153 1.07321 0.92946
 C474 C 1.14247 0.94260 0.93986
 H475 H 1.12678 0.95034 0.94634
 C476 C 1.18227 0.92113 0.92239
 O477 O 1.02859 0.92441 1.11934
 O478 O 1.02948 0.89786 1.14703
 C479 C 1.03717 0.91663 1.13816
 C480 C 1.05672 0.92932 1.14925
 C481 C 1.06707 0.92121 1.16995
 H482 H 1.06046 0.90564 1.17827
 O483 O 0.98085 1.09278 1.11026
 O484 O 0.98135 1.12031 1.13707
 C485 C 0.97355 1.10103 1.12934
 C486 C 0.95587 1.08804 1.14265
 C487 C 0.95112 1.09403 1.16578
 H488 H 0.96050 1.10820 1.17401
 O489 O 0.88925 1.02869 1.08286
 O490 O 0.86295 1.03013 1.11034
 C491 C 0.87097 1.03745 1.09114
 C492 C 0.85951 1.05691 1.07870
 C493 C 0.83922 1.06691 1.08745
 H494 H 0.83138 1.05990 1.10302
 O495 O 1.11920 0.98676 1.08329
 O496 O 1.14643 0.98900 1.11004
 C497 C 1.13827 0.97987 1.09162
 C498 C 1.15053 0.96040 1.08029
 C499 C 1.17123 0.95203 1.08964
 H500 H 1.17899 0.96060 1.10455
 O501 O 1.08821 0.89256 1.02528
 O502 O 1.11440 0.86478 1.02620
 C503 C 1.09577 0.87351 1.03360
 C504 C 1.08301 0.86125 1.05214
 C505 C 1.08898 0.83836 1.05807
 H506 H 1.10286 0.82982 1.04891
 O507 O 0.92032 1.12330 1.01861
 O508 O 0.89342 1.15032 1.01708
 C509 C 0.91205 1.14259 1.02561
 C510 C 0.92391 1.15541 1.04454
 C511 C 0.91451 1.17585 1.05431
 H512 H 0.89871 1.18303 1.04734
 O513 O 0.92111 0.98412 1.11577
 O514 O 0.89454 0.98489 1.14301
 C515 C 0.91324 0.97676 1.13499
 C516 C 0.92567 0.95821 1.14788
 C517 C 0.91739 0.95021 1.16933
 H518 H 0.90211 0.95800 1.17672
 O519 O 1.08661 1.03204 1.11365
 O520 O 1.11345 1.03418 1.14081
 C521 C 1.09431 1.04081 1.13241
 C522 C 1.08092 1.05916 1.14420
 C523 C 1.08562 1.06549 1.16736
 H524 H 1.09875 1.05623 1.17702
 O525 O 0.98322 0.89164 1.08839
 O526 O 0.98389 0.86499 1.11603
 C527 C 0.97575 0.87264 1.09696
 C528 C 0.95719 0.85952 1.08485
 C529 C 0.95046 0.83735 1.09282
 H530 H 0.95914 0.82965 1.10764
 O531 O 1.02557 1.12426 1.07783
 O532 O 1.02620 1.15206 1.10435
 C533 C 1.03378 1.14332 1.08558
 C534 C 1.05281 1.15486 1.07287
 C535 C 1.06240 1.17603 1.08080
 H536 H 1.05535 1.18468 1.09591
 O537 O 0.88953 0.91911 1.02623
 O538 O 0.86311 0.89143 1.02802
 C539 C 0.87098 0.91107 1.03468
 C540 C 0.85842 0.92466 1.05242
 C541 C 0.83560 0.91902 1.05783
 H542 H 0.82710 0.90474 1.04885
 O543 O 1.11609 1.08921 1.01622
 O544 O 1.14238 1.11704 1.01462
 C545 C 1.13470 1.09826 1.02352
 C546 C 1.14712 1.08729 1.04308
 C547 C 1.16850 1.09609 1.05021
 H548 H 1.17647 1.11018 1.04057
 O549 O 1.02552 1.09306 1.11034
 O550 O 1.02581 1.12078 1.13698
 C551 C 1.03327 1.10152 1.12923
 C552 C 1.05111 1.08889 1.14239
 C553 C 1.05613 1.09522 1.16536
 H554 H 1.04692 1.10956 1.17326
 O555 O 0.98340 0.92453 1.11918
 O556 O 0.98390 0.89810 1.14701
 C557 C 0.97560 0.91664 1.13820
 C558 C 0.95614 0.92879 1.14959
 C559 C 0.94739 0.92091 1.17096
 H560 H 0.95551 0.90640 1.17980
 O561 O 1.11783 1.03208 1.08145
 O562 O 1.14492 1.03447 1.10831
 C563 C 1.13643 1.04106 1.08903
 C564 C 1.14799 1.05956 1.07534
 C565 C 1.16951 1.06860 1.08223
 H566 H 1.17807 1.06178 1.09754
 O567 O 0.88847 0.98305 1.08485
 O568 O 0.86163 0.98425 1.11180
 C569 C 0.86964 0.97550 1.09322
 C570 C 0.85748 0.95607 1.08121
 C571 C 0.83460 0.94990 1.08672
 H572 H 0.82530 0.95960 1.09982
 O573 O 1.08505 1.12124 1.01591
 O574 O 1.11134 1.14905 1.01423
 C575 C 1.09315 1.14063 1.02305
 C576 C 1.08186 1.15324 1.04230
 C577 C 1.09138 1.17416 1.05066
 H578 H 1.10648 1.18158 1.04244
 O579 O 0.92131 0.88743 1.02681
 O580 O 0.89522 0.85947 1.02876
 C581 C 0.91395 0.86861 1.03583
 C582 C 0.92704 0.85756 1.05505
 C583 C 0.92053 0.83550 1.06341
 H584 H 0.90643 0.82615 1.05521
 O585 O 1.08798 0.98672 1.11515
 O586 O 1.11514 0.98885 1.14197
 C587 C 1.09663 0.97980 1.13424
 C588 C 1.08551 0.96049 1.14720
 C589 C 1.09520 0.95253 1.16806
 H590 H 1.10983 0.96173 1.17538
 O591 O 0.92104 1.02959 1.11433
 O592 O 0.89498 1.03049 1.14209
 C593 C 0.91355 1.03813 1.13321
 C594 C 0.92651 1.05735 1.14462
 C595 C 0.92178 1.06385 1.16766
 H596 H 0.90879 1.05449 1.17743
 O597 O 0.98075 1.12464 1.07817
 O598 O 0.98124 1.15230 1.10484
 C599 C 0.97318 1.14379 1.08613
 C600 C 0.95415 1.15581 1.07405
 C601 C 0.94495 1.17633 1.08326
 H602 H 0.95314 1.18435 1.09822
 O603 O 1.02790 0.89234 1.08766
 O604 O 1.02863 0.86543 1.11505
 C605 C 1.03587 0.87341 1.09579
 C606 C 1.05396 0.86095 1.08270
 C607 C 1.06025 0.83795 1.08846
 H608 H 1.05145 0.82891 1.10239
 O609 O 1.12037 0.92406 1.02431
 O610 O 1.14652 0.89631 1.02583
 C611 C 1.13872 0.91571 1.03298
 C612 C 1.15058 0.92852 1.05199
 C613 C 1.17100 0.91998 1.06205
 H614 H 1.17873 0.90410 1.05555
 O615 O 0.89089 1.08950 1.02078
 O616 O 0.86385 1.11640 1.01937
 C617 C 0.87219 1.09794 1.02832
 C618 C 0.86035 1.08652 1.04805
 C619 C 0.84009 1.09612 1.05699
 H620 H 0.83257 1.11128 1.04871
 Cu621 Cu 1.00576 0.91097 1.10100
 Cu622 Cu 1.00655 0.87903 1.13416
 Cu623 Cu 1.00312 1.10596 1.09140
 Cu624 Cu 1.00364 1.13923 1.12342
 Cu625 Cu 0.90711 0.90480 1.00368
 Cu626 Cu 0.87568 0.87136 1.00611
 Cu627 Cu 1.10176 0.91039 1.00199
 Cu628 Cu 1.13310 0.87699 1.00349
 Cu629 Cu 0.90828 1.10223 0.99724
 Cu630 Cu 0.87585 1.13452 0.99534
 Cu631 Cu 1.09752 1.10159 0.99347
 Cu632 Cu 1.12887 1.13523 0.99160
 Cu633 Cu 0.90752 1.00619 1.09669
 Cu634 Cu 0.87585 1.00750 1.12954
 Cu635 Cu 1.10020 1.00929 1.09568
 Cu636 Cu 1.13274 1.01192 1.12798
 C637 C 1.06612 0.94899 1.13811
 H638 H 1.05870 0.95503 1.12190
 C639 C 1.08650 0.93267 1.17942
 C640 C 0.94367 1.06949 1.13231
 H641 H 0.94726 1.06477 1.11445
 C642 C 0.93425 1.08195 1.17845
 C643 C 0.86984 1.06677 1.05889
 H644 H 0.88570 1.05948 1.05228
 C645 C 0.82956 1.08666 1.07679
 C646 C 1.14059 0.94881 1.06120
 H647 H 1.12452 0.95515 1.05402
 C648 C 1.18141 0.93180 1.08076
 C649 C 1.06531 0.87234 1.06433
 H650 H 1.06079 0.89012 1.05989
 C651 C 1.07761 0.82644 1.07596
 C652 C 0.94381 1.14573 1.05447
 H653 H 0.95079 1.12969 1.04750
 C654 C 0.92486 1.18624 1.07394
 C655 C 0.94523 0.94757 1.13830
 H656 H 0.95156 0.95348 1.12162
 C657 C 0.92807 0.93159 1.18096
 C658 C 1.06341 1.07074 1.13199
 H659 H 1.05974 1.06605 1.11410
 C660 C 1.07310 1.08345 1.17816
 C661 C 0.94551 0.86938 1.06578
 H662 H 0.95042 0.88656 1.05966
 C663 C 0.93217 0.82525 1.08222
 C664 C 1.06252 1.14379 1.05341
 H665 H 1.05544 1.12737 1.04731
 C666 C 1.08183 1.18558 1.06983
 C667 C 0.86912 0.94335 1.06396
 H668 H 0.88678 0.94772 1.05979
 C669 C 0.82347 0.93164 1.07469
 C670 C 1.13705 1.06890 1.05561
 H671 H 1.12032 1.06230 1.05037
 C672 C 1.17975 1.08696 1.06976
 O673 O 1.07824 0.53352 0.61477
 O674 O 1.10559 0.53648 0.64131
 C675 C 1.08610 0.54261 0.63334
 C676 C 1.07290 0.56117 0.64525
 C677 C 1.08173 0.57188 0.66539
 H678 H 1.09789 0.56598 0.67276
 O679 O 0.92149 0.47093 0.61889
 O680 O 0.89460 0.46798 0.64567
 C681 C 0.91402 0.46196 0.63763
 C682 C 0.92779 0.44379 0.64963
 C683 C 0.92122 0.43519 0.67154
 H684 H 0.90661 0.44279 0.68033
 O685 O 1.00917 0.62212 0.58403
 O686 O 1.00691 0.64961 0.61075
 C687 C 1.01523 0.64198 0.59184
 C688 C 1.03253 0.65591 0.57900
 C689 C 1.03844 0.67864 0.58611
 H690 H 1.02991 0.68633 0.60095
 O691 O 0.98868 0.38191 0.58534
 O692 O 0.99176 0.35478 0.61233
 C693 C 0.98300 0.36211 0.59342
 C694 C 0.96573 0.34784 0.58070
 C695 C 0.96105 0.32465 0.58719
 H696 H 0.97030 0.31694 0.60164
 O697 O 1.10167 0.59753 0.52172
 O698 O 1.12598 0.62717 0.52108
 C699 C 1.11973 0.60755 0.52925
 C700 C 1.13320 0.59660 0.54816
 C701 C 1.15343 0.60721 0.55642
 H702 H 1.15988 0.62278 0.54795
 O703 O 0.89438 0.40492 0.52417
 O704 O 0.86945 0.37583 0.52502
 C705 C 0.87626 0.39563 0.53237
 C706 C 0.86328 0.40819 0.55067
 C707 C 0.84029 0.40227 0.55605
 H708 H 0.83166 0.38830 0.54674
 O709 O 0.96833 0.58587 0.61671
 O710 O 0.96586 0.61318 0.64359
 C711 C 0.95988 0.59338 0.63563
 C712 C 0.94231 0.57920 0.64786
 C713 C 0.93120 0.58779 0.66778
 H714 H 0.93616 0.60452 0.67505
 O715 O 1.03018 0.41881 0.61656
 O716 O 1.03352 0.39212 0.64395
 C717 C 1.03918 0.41180 0.63544
 C718 C 1.05673 0.42658 0.64714
 C719 C 1.06685 0.41966 0.66829
 H720 H 1.06156 0.40345 0.67636
 O721 O 1.11309 0.49084 0.58253
 O722 O 1.14037 0.49378 0.60913
 C723 C 1.13262 0.48481 0.59046
 C724 C 1.14616 0.46664 0.57832
 C725 C 1.16793 0.46013 0.58684
 H726 H 1.17519 0.46895 0.60185
 O727 O 0.88557 0.51266 0.58646
 O728 O 0.85855 0.50977 0.61315
 C729 C 0.86593 0.51843 0.59426
 C730 C 0.85177 0.53563 0.58133
 C731 C 0.82933 0.54116 0.58864
 H732 H 0.82199 0.53266 0.60373
 O733 O 0.90510 0.60849 0.52280
 O734 O 0.87503 0.63189 0.52260
 C735 C 0.89468 0.62629 0.53056
 C736 C 0.90539 0.64032 0.54932
 C737 C 0.89557 0.66146 0.55643
 H738 H 0.88038 0.66801 0.54764
 O739 O 1.09117 0.39228 0.52173
 O740 O 1.12101 0.36860 0.52205
 C741 C 1.10150 0.37459 0.52994
 C742 C 1.09123 0.36140 0.54947
 C743 C 1.10198 0.34122 0.55788
 H744 H 1.11681 0.33442 0.54881
 O745 O 0.91723 0.51661 0.61808
 O746 O 0.89017 0.51366 0.64469
 C747 C 0.90781 0.52392 0.63657
 C748 C 0.91679 0.54516 0.64815
 C749 C 0.90567 0.55421 0.66777
 H750 H 0.89114 0.54500 0.67524
 O751 O 1.08239 0.48804 0.61505
 O752 O 1.10964 0.49111 0.64167
 C753 C 1.09165 0.48114 0.63386
 C754 C 1.08201 0.46077 0.64636
 C755 C 1.09156 0.45383 0.66764
 H756 H 1.10486 0.46446 0.67563
 O757 O 1.03326 0.38662 0.58524
 O758 O 1.03656 0.35971 0.61243
 C759 C 1.04325 0.36870 0.59342
 C760 C 1.06312 0.35864 0.58085
 C761 C 1.07449 0.33873 0.58936
 H762 H 1.06853 0.33049 0.60517
 O763 O 0.96468 0.61668 0.58400
 O764 O 0.96223 0.64424 0.61063
 C765 C 0.95506 0.63487 0.59190
 C766 C 0.93504 0.64470 0.57929
 C767 C 0.92514 0.66599 0.58603
 H768 H 0.93250 0.67579 0.60037
 O769 O 0.87828 0.57240 0.52320
 O770 O 0.84808 0.59563 0.52291
 C771 C 0.85865 0.57800 0.53098
 C772 C 0.84822 0.56427 0.55001
 C773 C 0.82572 0.56904 0.55718
 H774 H 0.81571 0.58224 0.54825
 O775 O 1.11862 0.42800 0.52159
 O776 O 1.14850 0.40438 0.52185
 C777 C 1.13816 0.42223 0.52968
 C778 C 1.14874 0.43597 0.54882
 C779 C 1.17035 0.42962 0.55781
 H780 H 1.17969 0.41522 0.55017
 O781 O 0.98566 0.41374 0.61719
 O782 O 0.98872 0.38692 0.64449
 C783 C 0.97895 0.40496 0.63628
 C784 C 0.95940 0.41572 0.64880
 C785 C 0.95252 0.40728 0.67061
 H786 H 0.96171 0.39283 0.67840
 O787 O 1.01294 0.58974 0.61504
 O788 O 1.01086 0.61702 0.64198
 C789 C 1.02041 0.59889 0.63368
 C790 C 1.04086 0.58878 0.64532
 C791 C 1.05000 0.59923 0.66539
 H792 H 1.04137 0.61406 0.67308
 O793 O 0.89155 0.46768 0.58552
 O794 O 0.86441 0.46501 0.61211
 C795 C 0.87338 0.45812 0.59321
 C796 C 0.86225 0.43896 0.58011
 C797 C 0.83947 0.43296 0.58503
 H798 H 0.83031 0.44239 0.59844
 O799 O 1.10907 0.53631 0.58257
 O800 O 1.13643 0.53915 0.60912
 C801 C 1.12710 0.54622 0.59043
 C802 C 1.13683 0.56665 0.57811
 C803 C 1.15689 0.57772 0.58638
 H804 H 1.16557 0.57092 0.60161
 O805 O 0.92856 0.37583 0.52383
 O806 O 0.90405 0.34637 0.52456
 C807 C 0.92229 0.35623 0.53196
 C808 C 0.93613 0.34507 0.55049
 C809 C 0.93181 0.32192 0.55706
 H810 H 0.91892 0.31187 0.54773
 O811 O 1.06796 0.62699 0.52197
 O812 O 1.09217 0.65672 0.52110
 C813 C 1.07444 0.64683 0.52946
 C814 C 1.06154 0.65821 0.54845
 C815 C 1.06721 0.68090 0.55575
 H816 H 1.08049 0.69057 0.54672
 Cu817 Cu 1.09295 0.51188 0.59606
 Cu818 Cu 1.12574 0.51536 0.62798
 Cu819 Cu 0.90677 0.49228 0.59969
 Cu820 Cu 0.87434 0.48870 0.63169
 Cu821 Cu 0.98896 0.60089 0.59727
 Cu822 Cu 0.98624 0.63372 0.62949
 Cu823 Cu 1.00911 0.40292 0.59837
 Cu824 Cu 1.01291 0.37068 0.63106
 C825 C 1.05232 0.56961 0.63548
 H826 H 1.04563 0.56173 0.61972
 C827 C 1.07051 0.59104 0.67541
 C828 C 0.94703 0.43409 0.63857
 H829 H 0.95204 0.44044 0.62159
 C830 C 0.93353 0.41695 0.68223
 C831 C 1.04405 0.64598 0.56003
 H832 H 1.03983 0.62836 0.55464
 C833 C 1.05576 0.69129 0.57456
 C834 C 0.95328 0.35779 0.56222
 H835 H 0.95651 0.37575 0.55733
 C836 C 0.94411 0.31153 0.57540
 C837 C 1.12520 0.57616 0.55891
 H838 H 1.10945 0.56803 0.55276
 C839 C 1.16530 0.59806 0.57567
 C840 C 0.87399 0.42672 0.56272
 H841 H 0.89166 0.43138 0.55886
 C842 C 0.82816 0.41506 0.57292
 C843 C 0.93519 0.55769 0.63843
 H844 H 0.94345 0.55109 0.62293
 C845 C 0.91271 0.57547 0.67759
 C846 C 1.06439 0.44723 0.63638
 H847 H 1.05712 0.45242 0.61981
 C848 C 1.08440 0.43316 0.67861
 C849 C 1.13682 0.45461 0.55912
 H850 H 1.11993 0.45930 0.55263
 C851 C 1.18000 0.44154 0.57682
 C852 C 0.86101 0.54726 0.56192
 H853 H 0.87845 0.54356 0.55649
 C854 C 0.81620 0.55768 0.57643
 C855 C 0.92517 0.63217 0.56075
 H856 H 0.93257 0.61566 0.55555
 C857 C 0.90539 0.67444 0.57466
 C858 C 1.07161 0.36978 0.56086
 H859 H 1.06335 0.38548 0.55454
 C860 C 1.09405 0.32992 0.57802
 O861 O 1.08111 0.48526 0.38489
 O862 O 1.10769 0.48847 0.35778
 C863 C 1.09012 0.47824 0.36607
 C864 C 1.08050 0.45763 0.35395
 C865 C 1.08990 0.45033 0.33280
 H866 H 1.10353 0.46047 0.32483
 O867 O 0.91362 0.51256 0.38362
 O868 O 0.88604 0.50950 0.35733
 C869 C 0.90396 0.51963 0.36507
 C870 C 0.91293 0.54056 0.35303
 C871 C 0.90172 0.54917 0.33318
 H872 H 0.88758 0.53936 0.32563
 O873 O 0.96283 0.61286 0.41567
 O874 O 0.96014 0.64003 0.38863
 C875 C 0.95347 0.63116 0.40770
 C876 C 0.93447 0.64204 0.42063
 C877 C 0.92661 0.66426 0.41459
 H878 H 0.93484 0.67378 0.40059
 O879 O 1.03188 0.38390 0.41471
 O880 O 1.03436 0.35663 0.38782
 C881 C 1.04155 0.36575 0.40663
 C882 C 1.06178 0.35585 0.41902
 C883 C 1.07285 0.33553 0.41102
 H884 H 1.06621 0.32645 0.39589
 O885 O 1.11908 0.42722 0.47617
 O886 O 1.14893 0.40356 0.47640
 C887 C 1.13861 0.42130 0.46829
 C888 C 1.14904 0.43490 0.44910
 C889 C 1.17011 0.42812 0.43919
 H890 H 1.17888 0.41286 0.44582
 O891 O 0.87797 0.57179 0.47803
 O892 O 0.84785 0.59513 0.47773
 C893 C 0.85824 0.57720 0.47018
 C894 C 0.84745 0.56278 0.45178
 C895 C 0.82474 0.56713 0.44468
 H896 H 0.81478 0.58036 0.45352
 O897 O 1.00982 0.58534 0.38379
 O898 O 1.00696 0.61200 0.35630
 C899 C 1.01659 0.59399 0.36471
 C900 C 1.03610 0.58314 0.35246
 C901 C 1.04267 0.59101 0.33039
 H902 H 1.03333 0.60525 0.32244
 O903 O 0.98396 0.41111 0.38290
 O904 O 0.98624 0.38412 0.35570
 C905 C 0.97664 0.40215 0.36402
 C906 C 0.95622 0.41246 0.35234
 C907 C 0.94705 0.40276 0.33172
 H908 H 0.95540 0.38807 0.32349
 O909 O 1.10709 0.53487 0.41606
 O910 O 1.13370 0.53786 0.38898
 C911 C 1.12480 0.54490 0.40782
 C912 C 1.13493 0.56519 0.42005
 C913 C 1.15608 0.57458 0.41284
 H914 H 1.16543 0.56636 0.39881
 O915 O 0.88761 0.46425 0.41648
 O916 O 0.86005 0.46131 0.39014
 C917 C 0.86935 0.45452 0.40894
 C918 C 0.85902 0.43492 0.42198
 C919 C 0.83775 0.42537 0.41512
 H920 H 0.82875 0.43257 0.40025
 O921 O 1.06664 0.62570 0.47669
 O922 O 1.09087 0.65541 0.47585
 C923 C 1.07283 0.64524 0.46838
 C924 C 1.05924 0.65587 0.44941
 C925 C 1.06407 0.67860 0.44182
 H926 H 1.07714 0.68884 0.45068
 O927 O 0.92742 0.37542 0.47845
 O928 O 0.90282 0.34604 0.47891
 C929 C 0.92058 0.35591 0.47047
 C930 C 0.93298 0.34519 0.45061
 C931 C 0.92500 0.32435 0.44034
 H932 H 0.91020 0.31533 0.44747
 O933 O 0.91887 0.46715 0.38448
 O934 O 0.89128 0.46420 0.35820
 C935 C 0.91089 0.45817 0.36595
 C936 C 0.92410 0.43994 0.35363
 C937 C 0.91521 0.42998 0.33326
 H938 H 0.89924 0.43646 0.32596
 O939 O 1.07573 0.53033 0.38409
 O940 O 1.10226 0.53337 0.35692
 C941 C 1.08269 0.53884 0.36497
 C942 C 1.06818 0.55582 0.35240
 C943 C 1.07412 0.56337 0.32999
 H944 H 1.08861 0.55542 0.32130
 O945 O 0.98702 0.38129 0.41645
 O946 O 0.98913 0.35411 0.38941
 C947 C 0.98059 0.36178 0.40827
 C948 C 0.96233 0.34832 0.42023
 C949 C 0.95394 0.32769 0.41025
 H950 H 0.96157 0.32105 0.39442
 O951 O 1.00711 0.61802 0.41469
 O952 O 1.00444 0.64488 0.38736
 C953 C 1.01297 0.63770 0.40640
 C954 C 1.03010 0.65217 0.41894
 C955 C 1.03520 0.67495 0.41149
 H956 H 1.02635 0.68215 0.39653
 O957 O 0.89346 0.40437 0.47898
 O958 O 0.86870 0.37511 0.47979
 C959 C 0.87520 0.39459 0.47155
 C960 C 0.86179 0.40572 0.45272
 C961 C 0.84044 0.39648 0.44573
 H962 H 0.83323 0.38172 0.45498
 O963 O 1.10124 0.59742 0.47651
 O964 O 1.12564 0.62699 0.47585
 C965 C 1.11911 0.60720 0.46832
 C966 C 1.13218 0.59562 0.44960
 C967 C 1.15333 0.60481 0.44212
 H968 H 1.16025 0.62037 0.45031
 O969 O 1.02847 0.41676 0.38403
 O970 O 1.03106 0.38979 0.35683
 C971 C 1.03704 0.40949 0.36513
 C972 C 1.05459 0.42394 0.35325
 C973 C 1.06422 0.41690 0.33198
 H974 H 1.05837 0.40096 0.32368
 O975 O 0.96515 0.58156 0.38342
 O976 O 0.96207 0.60849 0.35622
 C977 C 0.95615 0.58890 0.36464
 C978 C 0.93815 0.57473 0.35296
 C979 C 0.92650 0.58327 0.33327
 H980 H 0.93108 0.60018 0.32626
 O981 O 0.88394 0.50944 0.41688
 O982 O 0.85634 0.50630 0.39060
 C983 C 0.86420 0.51517 0.40927
 C984 C 0.85039 0.53259 0.42199
 C985 C 0.82773 0.53741 0.41495
 H986 H 0.82035 0.52816 0.40027
 O987 O 1.11242 0.48966 0.41667
 O988 O 1.13897 0.49279 0.38954
 C989 C 1.13186 0.48396 0.40845
 C990 C 1.14588 0.46605 0.42034
 C991 C 1.16724 0.45956 0.41121
 H992 H 1.17427 0.46928 0.39674
 O993 O 1.09129 0.39169 0.47627
 O994 O 1.12112 0.36801 0.47669
 C995 C 1.10159 0.37378 0.46854
 C996 C 1.09111 0.35997 0.44941
 C997 C 1.10186 0.33969 0.44123
 H998 H 1.11729 0.33347 0.44981
 O999 O 0.90432 0.60835 0.47752
 O1000 O 0.87441 0.63195 0.47726
 C1001 C 0.89397 0.62612 0.46946
 C1002 C 0.90492 0.63967 0.45059
 C1003 C 0.89681 0.66185 0.44395
 H1004 H 0.88226 0.66957 0.45277
 Cu1005 Cu 1.09141 0.50980 0.40318
 Cu1006 Cu 1.12335 0.51349 0.37060
 Cu1007 Cu 0.90385 0.48862 0.40296
 Cu1008 Cu 0.87074 0.48501 0.37133
 Cu1009 Cu 1.08191 0.60895 0.49931
 Cu1010 Cu 1.11111 0.64457 0.49838
 Cu1011 Cu 1.10205 0.41216 0.49885
 Cu1012 Cu 1.13788 0.38376 0.49931
 Cu1013 Cu 0.89449 0.58799 0.50035
 Cu1014 Cu 0.85828 0.61598 0.50010
 Cu1015 Cu 0.91343 0.39303 0.50136
 Cu1016 Cu 0.88386 0.35781 0.50227
 Cu1017 Cu 0.98653 0.59669 0.40209
 Cu1018 Cu 0.98313 0.62901 0.36930
 Cu1019 Cu 1.00766 0.40096 0.40217
 Cu1020 Cu 1.01046 0.36839 0.36978
 C1021 C 1.06274 0.44446 0.36396
 H1022 H 1.05568 0.44988 0.38050
 C1023 C 1.08201 0.42999 0.32178
 C1024 C 0.93134 0.55329 0.36259
 H1025 H 0.93984 0.54688 0.37809
 C1026 C 0.90810 0.57068 0.32337
 C1027 C 0.92378 0.63003 0.43884
 H1028 H 0.92985 0.61280 0.44353
 C1029 C 0.90797 0.67432 0.42619
 C1030 C 1.07098 0.36774 0.43835
 H1031 H 1.06283 0.38357 0.44440
 C1032 C 1.09302 0.32739 0.42199
 C1033 C 1.13710 0.45391 0.43953
 H1034 H 1.12051 0.45877 0.44653
 C1035 C 1.17930 0.44028 0.42008
 C1036 C 0.86007 0.54525 0.44053
 H1037 H 0.87769 0.54194 0.44577
 C1038 C 0.81478 0.55466 0.42617
 C1039 C 1.04890 0.56549 0.36329
 H1040 H 1.04428 0.55978 0.38061
 C1041 C 1.06157 0.58113 0.31885
 C1042 C 0.94470 0.43122 0.36295
 H1043 H 0.95136 0.43858 0.37898
 C1044 C 0.92636 0.41136 0.32232
 C1045 C 1.12321 0.57568 0.43858
 H1046 H 1.10677 0.56865 0.44406
 C1047 C 1.16544 0.59435 0.42381
 C1048 C 0.87081 0.42510 0.44090
 H1049 H 0.88739 0.43216 0.44604
 C1050 C 0.82830 0.40617 0.42691
 C1051 C 1.04206 0.64288 0.43804
 H1052 H 1.03845 0.62520 0.44365
 C1053 C 1.05220 0.68826 0.42283
 C1054 C 0.95186 0.35689 0.44051
 H1055 H 0.95792 0.37315 0.44799
 C1056 C 0.93527 0.31579 0.42000
 O1057 O 0.47364 0.91962 0.37893
 O1058 O 0.47112 0.89288 0.35147
 C1059 C 0.46442 0.91199 0.36034
 C1060 C 0.44513 0.92507 0.34950
 C1061 C 0.43488 0.91731 0.32866
 H1062 H 0.44187 0.90228 0.31975
 O1063 O 0.52931 1.08224 0.38226
 O1064 O 0.53005 1.10903 0.35474
 C1065 C 0.53703 1.08975 0.36301
 C1066 C 0.55456 1.07597 0.35044
 C1067 C 0.56101 1.08168 0.32758
 H1068 H 0.55270 1.09604 0.31867
 O1069 O 0.38520 0.98408 0.41690
 O1070 O 0.35763 0.98663 0.39059
 C1071 C 0.36596 0.97728 0.40881
 C1072 C 0.35371 0.95752 0.41999
 C1073 C 0.33344 0.94865 0.41004
 H1074 H 0.32600 0.95708 0.39493
 O1075 O 0.61773 1.01490 0.41307
 O1076 O 0.64451 1.01381 0.38601
 C1077 C 0.63693 1.02178 0.40506
 C1078 C 0.65048 1.03944 0.41784
 C1079 C 0.67356 1.04357 0.41207
 H1080 H 0.68141 1.03362 0.39822
 O1081 O 0.41462 0.88725 0.47402
 O1082 O 0.38736 0.86038 0.47430
 C1083 C 0.40598 0.86846 0.46604
 C1084 C 0.41747 0.85633 0.44657
 C1085 C 0.40968 0.83435 0.43879
 H1086 H 0.39557 0.82571 0.44756
 O1087 O 0.59342 1.11245 0.47376
 O1088 O 0.62197 1.13789 0.47310
 C1089 C 0.60259 1.13083 0.46556
 C1090 C 0.59072 1.14342 0.44653
 C1091 C 0.59972 1.16423 0.43709
 H1092 H 0.61529 1.17187 0.44425
 O1093 O 0.41880 1.02772 0.38479
 O1094 O 0.39159 1.03015 0.35806
 C1095 C 0.41121 1.03619 0.36587
 C1096 C 0.42548 1.05326 0.35307
 C1097 C 0.42091 1.05864 0.32965
 H1098 H 0.40679 1.05010 0.32063
 O1099 O 0.58353 0.97197 0.38026
 O1100 O 0.61052 0.97092 0.35341
 C1101 C 0.59133 0.96393 0.36130
 C1102 C 0.57845 0.94562 0.34867
 C1103 C 0.58824 0.93486 0.32925
 H1104 H 0.60471 0.94087 0.32275
 O1105 O 0.51791 0.88513 0.40945
 O1106 O 0.51537 0.85839 0.38197
 C1107 C 0.52424 0.86577 0.40085
 C1108 C 0.54241 0.85182 0.41251
 C1109 C 0.54989 0.83097 0.40232
 H1110 H 0.54186 0.82475 0.38644
 O1111 O 0.48728 1.11659 0.41525
 O1112 O 0.48798 1.14355 0.38791
 C1113 C 0.48047 1.13603 0.40724
 C1114 C 0.46345 1.14988 0.42042
 C1115 C 0.45788 1.17263 0.41345
 H1116 H 0.46635 1.18027 0.39851
 O1117 O 0.39651 1.09151 0.47897
 O1118 O 0.37156 1.12041 0.47993
 C1119 C 0.37818 1.10102 0.47159
 C1120 C 0.36463 1.08985 0.45277
 C1121 C 0.34400 1.10004 0.44539
 H1122 H 0.33755 1.11528 0.45436
 O1123 O 0.61143 0.90568 0.47229
 O1124 O 0.63649 0.87692 0.47041
 C1125 C 0.62939 0.89673 0.46356
 C1126 C 0.64200 0.90938 0.44512
 C1127 C 0.66355 0.90144 0.43767
 H1128 H 0.67100 0.88603 0.44556
 O1129 O 0.48452 1.08409 0.38391
 O1130 O 0.48543 1.11087 0.35638
 C1131 C 0.47691 1.09236 0.36493
 C1132 C 0.45789 1.08042 0.35270
 C1133 C 0.45329 1.08544 0.32933
 H1134 H 0.46390 1.09802 0.32021
 O1135 O 0.51879 0.91650 0.37708
 O1136 O 0.51637 0.88975 0.34961
 C1137 C 0.52587 0.90784 0.35807
 C1138 C 0.54622 0.91825 0.34661
 C1139 C 0.55625 0.90768 0.32700
 H1140 H 0.54829 0.89248 0.31910
 O1141 O 0.61460 0.96942 0.41253
 O1142 O 0.64157 0.96853 0.38566
 C1143 C 0.63287 0.96062 0.40432
 C1144 C 0.64382 0.94066 0.41631
 C1145 C 0.66541 0.93245 0.40912
 H1146 H 0.67454 0.94136 0.39532
 O1147 O 0.38809 1.02998 0.41733
 O1148 O 0.36061 1.03279 0.39097
 C1149 C 0.37001 1.03983 0.40971
 C1150 C 0.36037 1.06012 0.42248
 C1151 C 0.33975 1.07084 0.41519
 H1152 H 0.33037 1.06393 0.40038
 O1153 O 0.42953 1.12186 0.47882
 O1154 O 0.40478 1.15093 0.47960
 C1155 C 0.42260 1.14139 0.47111
 C1156 C 0.43513 1.15263 0.45166
 C1157 C 0.42956 1.17530 0.44421
 H1158 H 0.41643 1.18513 0.45322
 O1159 O 0.57788 0.87587 0.47240
 O1160 O 0.60267 0.84692 0.47047
 C1161 C 0.58447 0.85690 0.46322
 C1162 C 0.57146 0.84703 0.44316
 C1163 C 0.57854 0.82607 0.43264
 H1164 H 0.59290 0.81641 0.43983
 O1165 O 0.58579 1.01724 0.38163
 O1166 O 0.61241 1.01615 0.35441
 C1167 C 0.59411 1.02486 0.36272
 C1168 C 0.58245 1.04417 0.35042
 C1169 C 0.58859 1.05000 0.32761
 H1170 H 0.60192 1.04017 0.31891
 O1171 O 0.41512 0.98267 0.38385
 O1172 O 0.38756 0.98514 0.35749
 C1173 C 0.40593 0.97572 0.36497
 C1174 C 0.41646 0.95616 0.35191
 C1175 C 0.40655 0.94820 0.33104
 H1176 H 0.39131 0.95669 0.32425
 O1177 O 0.53187 1.11380 0.41434
 O1178 O 0.53256 1.14067 0.38690
 C1179 C 0.54043 1.13226 0.40574
 C1180 C 0.56011 1.14379 0.41733
 C1181 C 0.56912 1.16452 0.40830
 H1182 H 0.56071 1.17273 0.39360
 O1183 O 0.47334 0.88738 0.41052
 O1184 O 0.47091 0.86055 0.38311
 C1185 C 0.46440 0.86880 0.40249
 C1186 C 0.44608 0.85673 0.41559
 C1187 C 0.43822 0.83483 0.40821
 H1188 H 0.44584 0.82676 0.39306
 O1189 O 0.62206 1.07795 0.47289
 O1190 O 0.65093 1.10309 0.47236
 C1191 C 0.64137 1.08453 0.46493
 C1192 C 0.65268 1.07034 0.44688
 C1193 C 0.67585 1.07414 0.44109
 H1194 H 0.68570 1.08731 0.45032
 O1195 O 0.38417 0.92023 0.47509
 O1196 O 0.35673 0.89356 0.47507
 C1197 C 0.36511 0.91255 0.46727
 C1198 C 0.35316 0.92562 0.44841
 C1199 C 0.33261 0.91718 0.43827
 H1200 H 0.32468 0.90134 0.44475
 Cu1201 Cu 0.49616 0.90503 0.39658
 Cu1202 Cu 0.49314 0.87278 0.36371
 Cu1203 Cu 0.50813 1.09643 0.40167
 Cu1204 Cu 0.50900 1.12878 0.36874
 Cu1205 Cu 0.40444 1.00596 0.40346
 Cu1206 Cu 0.37141 1.00905 0.37180
 Cu1207 Cu 0.59774 0.99351 0.39963
 Cu1208 Cu 0.62997 0.99231 0.36716
 C1209 C 0.43587 0.94462 0.36085
 H1210 H 0.44341 0.95048 0.37709
 C1211 C 0.41558 0.92878 0.31928
 C1212 C 0.56527 1.05709 0.36160
 H1213 H 0.56058 1.05273 0.37928
 C1214 C 0.57784 1.06856 0.31596
 C1215 C 0.36335 0.94599 0.43926
 H1216 H 0.37932 0.95246 0.44666
 C1217 C 0.32289 0.92853 0.41892
 C1218 C 0.64022 1.05276 0.43536
 H1219 H 0.62230 1.04980 0.43964
 C1220 C 0.68647 1.06073 0.42372
 C1221 C 0.43584 0.86725 0.43496
 H1222 H 0.44174 0.88431 0.44057
 C1223 C 0.42019 0.82343 0.41972
 C1224 C 0.57081 1.13351 0.43658
 H1225 H 0.56400 1.11728 0.44338
 C1226 C 0.58902 1.17472 0.41777
 C1227 C 0.44411 1.06413 0.36436
 H1228 H 0.44762 1.06027 0.38247
 C1229 C 0.43504 1.07447 0.31759
 C1230 C 0.55732 0.93743 0.35705
 H1231 H 0.54999 0.94540 0.37239
 C1232 C 0.57746 0.91578 0.31852
 C1233 C 0.55319 0.85967 0.43303
 H1234 H 0.54785 0.87603 0.44071
 C1235 C 0.56798 0.81813 0.41209
 C1236 C 0.45222 1.14016 0.43972
 H1237 H 0.45635 1.12254 0.44507
 C1238 C 0.44102 1.18546 0.42523
 C1239 C 0.37260 1.06977 0.44139
 H1240 H 0.38870 1.06200 0.44689
 C1241 C 0.33155 1.09094 0.42653
 C1242 C 0.63234 0.92914 0.43448
 H1243 H 0.61558 0.93522 0.43996
 C1244 C 0.67544 0.91292 0.41979
 O1245 O 0.52706 0.91301 0.61342
 O1246 O 0.52553 0.88583 0.64047
 C1247 C 0.53487 0.90405 0.63204
 C1248 C 0.55574 0.91441 0.64310
 C1249 C 0.56633 0.90396 0.66260
 H1250 H 0.55863 0.88875 0.67065
 O1251 O 0.49052 1.08055 0.61254
 O1252 O 0.49275 1.10639 0.64087
 C1253 C 0.48338 1.08846 0.63180
 C1254 C 0.46333 1.07750 0.64335
 C1255 C 0.45473 1.08727 0.66390
 H1256 H 0.46355 1.10190 0.67194
 O1257 O 0.39233 1.02563 0.58076
 O1258 O 0.36641 1.02696 0.60861
 C1259 C 0.37470 1.03494 0.58981
 C1260 C 0.36435 1.05598 0.57917
 C1261 C 0.34536 1.06658 0.58970
 H1262 H 0.33740 1.05852 0.60470
 O1263 O 0.62198 0.96663 0.57632
 O1264 O 0.65000 0.96529 0.60224
 C1265 C 0.64042 0.95746 0.58393
 C1266 C 0.65031 0.93703 0.57170
 C1267 C 0.67108 0.92695 0.57924
 H1268 H 0.68022 0.93451 0.59387
 O1269 O 0.58050 0.87409 0.51819
 O1270 O 0.60549 0.84529 0.51663
 C1271 C 0.58808 0.85480 0.52592
 C1272 C 0.57721 0.84428 0.54675
 C1273 C 0.58740 0.82522 0.55835
 H1274 H 0.60271 0.81715 0.55134
 O1275 O 0.43035 1.12130 0.52436
 O1276 O 0.40547 1.15024 0.52526
 C1277 C 0.42362 1.14056 0.53287
 C1278 C 0.43666 1.15127 0.55236
 C1279 C 0.42962 1.17247 0.56235
 H1280 H 0.41517 1.18179 0.55491
 O1281 O 0.42175 0.97776 0.61143
 O1282 O 0.39583 0.97949 0.63927
 C1283 C 0.41379 0.97043 0.63063
 C1284 C 0.42500 0.95075 0.64280
 C1285 C 0.41515 0.94169 0.66309
 H1286 H 0.39995 0.94979 0.67034
 O1287 O 0.59430 1.01438 0.60849
 O1288 O 0.62236 1.01329 0.63438
 C1289 C 0.60368 1.02212 0.62692
 C1290 C 0.59311 1.04196 0.63949
 C1291 C 0.60357 1.05086 0.65971
 H1292 H 0.61884 1.04256 0.66665
 O1293 O 0.47982 0.88521 0.58063
 O1294 O 0.47822 0.85767 0.60736
 C1295 C 0.47094 0.86654 0.58840
 C1296 C 0.45185 0.85503 0.57551
 C1297 C 0.44499 0.83243 0.58171
 H1298 H 0.45391 0.82338 0.59559
 O1299 O 0.53641 1.11201 0.58167
 O1300 O 0.53879 1.13773 0.61011
 C1301 C 0.54562 1.13004 0.59062
 C1302 C 0.56506 1.14157 0.57864
 C1303 C 0.57619 1.16092 0.58867
 H1304 H 0.56994 1.16810 0.60488
 O1305 O 0.38517 0.91947 0.52040
 O1306 O 0.35781 0.89271 0.52068
 C1307 C 0.36654 0.91143 0.52870
 C1308 C 0.35541 0.92346 0.54844
 C1309 C 0.33557 0.91406 0.55861
 H1310 H 0.32764 0.89863 0.55114
 O1311 O 0.62338 1.07726 0.51758
 O1312 O 0.65215 1.10250 0.51703
 C1313 C 0.64313 1.08376 0.52460
 C1314 C 0.65583 1.06937 0.54162
 C1315 C 0.67898 1.07423 0.54643
 H1316 H 0.68741 1.08863 0.53767
 O1317 O 0.53580 1.07882 0.61212
 O1318 O 0.53790 1.10454 0.64057
 C1319 C 0.54479 1.08583 0.63107
 C1320 C 0.56414 1.07277 0.64169
 C1321 C 0.57489 1.08132 0.66191
 H1322 H 0.56844 1.09699 0.67014
 O1323 O 0.48177 0.91542 0.61405
 O1324 O 0.48005 0.88814 0.64100
 C1325 C 0.47316 0.90743 0.63273
 C1326 C 0.45417 0.92014 0.64424
 C1327 C 0.44403 0.91135 0.66468
 H1328 H 0.45079 0.89575 0.67280
 O1329 O 0.62487 1.01231 0.57584
 O1330 O 0.65309 1.01093 0.60156
 C1331 C 0.64444 1.01926 0.58304
 C1332 C 0.65682 1.03771 0.57002
 C1333 C 0.68008 1.04295 0.57475
 H1334 H 0.68947 1.03286 0.58756
 O1335 O 0.38832 0.97983 0.58138
 O1336 O 0.36242 0.98121 0.60924
 C1337 C 0.36952 0.97269 0.59021
 C1338 C 0.35655 0.95353 0.57862
 C1339 C 0.33652 0.94384 0.58859
 H1340 H 0.32961 0.95109 0.60449
 O1341 O 0.59432 1.11127 0.51921
 O1342 O 0.62292 1.13666 0.51896
 C1343 C 0.60407 1.12932 0.52745
 C1344 C 0.59376 1.14121 0.54771
 C1345 C 0.60475 1.16045 0.55806
 H1346 H 0.62026 1.16757 0.55038
 O1347 O 0.41651 0.88746 0.51949
 O1348 O 0.38935 0.86049 0.51982
 C1349 C 0.40841 0.86848 0.52747
 C1350 C 0.42119 0.85584 0.54605
 C1351 C 0.41440 0.83326 0.55291
 H1352 H 0.39999 0.82472 0.54439
 O1353 O 0.59182 0.96897 0.60921
 O1354 O 0.61980 0.96776 0.63518
 C1355 C 0.60031 0.96073 0.62784
 C1356 C 0.58784 0.94214 0.64061
 C1357 C 0.59809 0.93146 0.65992
 H1358 H 0.61465 0.93763 0.66619
 O1359 O 0.42444 1.02309 0.61191
 O1360 O 0.39848 1.02473 0.63973
 C1361 C 0.41745 1.03150 0.63105
 C1362 C 0.43109 1.04988 0.64299
 C1363 C 0.42288 1.05993 0.66363
 H1364 H 0.40692 1.05377 0.67120
 O1365 O 0.49176 1.11514 0.58357
 O1366 O 0.49419 1.14092 0.61195
 C1367 C 0.48534 1.13415 0.59290
 C1368 C 0.46689 1.14808 0.58181
 C1369 C 0.45964 1.16930 0.59158
 H1370 H 0.46805 1.17588 0.60710
 O1371 O 0.52441 0.88073 0.58185
 O1372 O 0.52276 0.85367 0.60905
 C1373 C 0.53105 0.86129 0.59013
 C1374 C 0.54931 0.84788 0.57826
 C1375 C 0.55959 0.82883 0.58945
 H1376 H 0.55312 0.82312 0.60616
 O1377 O 0.61373 0.90420 0.51722
 O1378 O 0.63881 0.87546 0.51538
 C1379 C 0.63237 0.89480 0.52400
 C1380 C 0.64630 0.90627 0.54246
 C1381 C 0.66718 0.89655 0.55010
 H1382 H 0.67370 0.88103 0.54168
 O1383 O 0.39677 1.09134 0.52412
 O1384 O 0.37180 1.12020 0.52522
 C1385 C 0.37875 1.10050 0.53253
 C1386 C 0.36628 1.08830 0.55145
 C1387 C 0.34705 1.09856 0.56219
 H1388 H 0.34064 1.11524 0.55618
 Cu1389 Cu 0.50350 0.90145 0.59496
 Cu1390 Cu 0.50134 0.86869 0.62723
 Cu1391 Cu 0.51337 1.09401 0.59465
 Cu1392 Cu 0.51613 1.12486 0.62883
 Cu1393 Cu 0.40283 0.90624 0.49717
 Cu1394 Cu 0.37006 0.87412 0.49753
 Cu1395 Cu 0.59323 0.89267 0.49524
 Cu1396 Cu 0.62319 0.85808 0.49294
 Cu1397 Cu 0.41588 1.10370 0.50155
 Cu1398 Cu 0.38592 1.13838 0.50254
 Cu1399 Cu 0.60526 1.09238 0.49585
 Cu1400 Cu 0.63977 1.12277 0.49532
 Cu1401 Cu 0.40918 1.00135 0.59345
 Cu1402 Cu 0.37813 1.00325 0.62693
 Cu1403 Cu 0.60552 0.99072 0.58980
 Cu1404 Cu 0.63911 0.98924 0.62096
 C1405 C 0.56657 0.93368 0.63249
 H1406 H 0.55885 0.94159 0.61726
 C1407 C 0.58769 0.91229 0.67085
 C1408 C 0.45148 1.05867 0.63304
 H1409 H 0.45770 1.05138 0.61688
 C1410 C 0.43446 1.07878 0.67396
 C1411 C 0.37461 1.06686 0.55994
 H1412 H 0.38962 1.05901 0.55208
 C1413 C 0.33677 1.08788 0.58152
 C1414 C 0.63819 0.92664 0.55322
 H1415 H 0.62200 0.93410 0.54758
 C1416 C 0.67971 0.90669 0.56855
 C1417 C 0.55805 0.85529 0.55681
 H1418 H 0.55044 0.87030 0.54836
 C1419 C 0.57889 0.81770 0.57997
 C1420 C 0.45546 1.13940 0.56208
 H1421 H 0.46077 1.12289 0.55470
 C1422 C 0.44097 1.18162 0.58202
 C1423 C 0.44463 0.94000 0.63359
 H1424 H 0.45202 0.94666 0.61765
 C1425 C 0.42433 0.92192 0.67398
 C1426 C 0.57328 1.05295 0.63069
 H1427 H 0.56536 1.04651 0.61485
 C1428 C 0.59469 1.07063 0.67092
 C1429 C 0.44007 0.86653 0.55741
 H1430 H 0.44526 0.88403 0.55256
 C1431 C 0.42646 0.82139 0.57050
 C1432 C 0.57379 1.13207 0.55800
 H1433 H 0.56548 1.11692 0.55039
 C1434 C 0.59612 1.17032 0.57858
 C1435 C 0.36560 0.94333 0.55839
 H1436 H 0.38121 0.95036 0.55084
 C1437 C 0.32614 0.92389 0.57877
 C1438 C 0.64494 1.05090 0.55325
 H1439 H 0.62696 1.04721 0.54968
 C1440 C 0.69134 1.06104 0.56274
 O1441 O 0.47372 0.41067 0.88699
 O1442 O 0.47462 0.38313 0.86024
 C1443 C 0.46567 0.40150 0.86854
 C1444 C 0.44530 0.41182 0.85695
 C1445 C 0.43562 0.40098 0.83734
 H1446 H 0.44371 0.38562 0.83008
 O1447 O 0.50553 0.58453 0.88570
 O1448 O 0.50285 0.61190 0.85890
 C1449 C 0.51219 0.59342 0.86664
 C1450 C 0.53142 0.58254 0.85375
 C1451 C 0.53840 0.59159 0.83221
 H1452 H 0.52919 0.60610 0.82452
 O1453 O 0.38177 0.46625 0.92112
 O1454 O 0.35338 0.46400 0.89564
 C1455 C 0.36320 0.45683 0.91408
 C1456 C 0.35314 0.43703 0.92712
 C1457 C 0.33196 0.42745 0.92014
 H1458 H 0.32285 0.43485 0.90544
 O1459 O 0.60433 0.52959 0.91234
 O1460 O 0.63014 0.53162 0.88441
 C1461 C 0.62236 0.53878 0.90372
 C1462 C 0.63400 0.55810 0.91639
 C1463 C 0.65640 0.56564 0.91055
 H1464 H 0.66565 0.55711 0.89664
 O1465 O 0.42086 0.37534 0.98355
 O1466 O 0.39619 0.34601 0.98439
 C1467 C 0.41405 0.35563 0.97604
 C1468 C 0.42670 0.34387 0.95714
 C1469 C 0.42134 0.32078 0.95123
 H1470 H 0.40806 0.31166 0.96081
 O1471 O 0.56841 0.61853 0.97700
 O1472 O 0.59322 0.64772 0.97619
 C1473 C 0.57474 0.63816 0.96899
 C1474 C 0.56090 0.64970 0.95063
 C1475 C 0.56765 0.67152 0.94188
 H1476 H 0.58248 0.68041 0.94924
 O1477 O 0.40742 0.51411 0.88739
 O1478 O 0.37918 0.51187 0.86177
 C1479 C 0.39754 0.52153 0.86911
 C1480 C 0.40702 0.54220 0.85694
 C1481 C 0.39649 0.55077 0.83667
 H1482 H 0.38214 0.54133 0.82906
 O1483 O 0.57437 0.48159 0.88199
 O1484 O 0.59990 0.48361 0.85382
 C1485 C 0.58247 0.47386 0.86299
 C1486 C 0.57221 0.45264 0.85216
 C1487 C 0.58294 0.44188 0.83302
 H1488 H 0.59825 0.44963 0.82554
 O1489 O 0.52251 0.38282 0.91717
 O1490 O 0.52321 0.35547 0.89021
 C1491 C 0.53138 0.36449 0.90865
 C1492 C 0.55191 0.35393 0.91967
 C1493 C 0.56235 0.33447 0.90945
 H1494 H 0.55464 0.32648 0.89421
 O1495 O 0.45973 0.61322 0.91898
 O1496 O 0.45710 0.64087 0.89247
 C1497 C 0.45042 0.63179 0.91143
 C1498 C 0.43123 0.64239 0.92462
 C1499 C 0.42131 0.66365 0.91763
 H1500 H 0.42820 0.67296 0.90280
 O1501 O 0.37453 0.57197 0.98366
 O1502 O 0.34566 0.59681 0.98489
 C1503 C 0.35496 0.57861 0.97644
 C1504 C 0.34335 0.56536 0.95755
 C1505 C 0.32110 0.57144 0.95012
 H1506 H 0.31193 0.58534 0.95883
 O1507 O 0.61385 0.42178 0.97432
 O1508 O 0.64246 0.39666 0.97276
 C1509 C 0.63250 0.41492 0.96519
 C1510 C 0.64217 0.42797 0.94515
 C1511 C 0.66234 0.42030 0.93405
 H1512 H 0.67114 0.40494 0.94041
 O1513 O 0.46082 0.58143 0.88695
 O1514 O 0.45798 0.60889 0.86027
 C1515 C 0.45176 0.58925 0.86841
 C1516 C 0.43343 0.57553 0.85667
 C1517 C 0.42264 0.58387 0.83641
 H1518 H 0.42814 0.60031 0.82893
 O1519 O 0.51865 0.41479 0.88559
 O1520 O 0.51956 0.38739 0.85871
 C1521 C 0.52652 0.40695 0.86658
 C1522 C 0.54478 0.42007 0.85404
 C1523 C 0.55560 0.40990 0.83480
 H1524 H 0.54941 0.39330 0.82824
 O1525 O 0.60587 0.48418 0.91369
 O1526 O 0.63149 0.48618 0.88558
 C1527 C 0.62467 0.47754 0.90473
 C1528 C 0.63834 0.45887 0.91601
 C1529 C 0.65873 0.45127 0.90562
 H1530 H 0.66521 0.46032 0.89046
 O1531 O 0.37771 0.51148 0.92083
 O1532 O 0.34939 0.50921 0.89529
 C1533 C 0.35791 0.51778 0.91382
 C1534 C 0.34486 0.53559 0.92703
 C1535 C 0.32252 0.54181 0.92006
 H1536 H 0.31460 0.53319 0.90527
 O1537 O 0.40234 0.60737 0.98229
 O1538 O 0.37359 0.63234 0.98380
 C1539 C 0.39242 0.62571 0.97492
 C1540 C 0.40265 0.63915 0.95553
 C1541 C 0.39273 0.66021 0.94807
 H1542 H 0.37782 0.66709 0.95697
 O1543 O 0.58575 0.38661 0.97580
 O1544 O 0.61429 0.36138 0.97471
 C1545 C 0.59480 0.36825 0.96746
 C1546 C 0.58294 0.35546 0.94844
 C1547 C 0.59316 0.33583 0.93793
 H1548 H 0.60943 0.32923 0.94437
 O1549 O 0.57031 0.52738 0.88284
 O1550 O 0.59595 0.52953 0.85478
 C1551 C 0.57712 0.53616 0.86380
 C1552 C 0.56331 0.55474 0.85245
 C1553 C 0.57023 0.56435 0.83111
 H1554 H 0.58533 0.55765 0.82240
 O1555 O 0.41026 0.46840 0.88677
 O1556 O 0.38201 0.46601 0.86117
 C1557 C 0.40157 0.45939 0.86851
 C1558 C 0.41400 0.44027 0.85651
 C1559 C 0.40462 0.42921 0.83669
 H1560 H 0.38859 0.43534 0.82924
 O1561 O 0.50455 0.61574 0.91821
 O1562 O 0.50205 0.64329 0.89158
 C1563 C 0.51102 0.63528 0.91012
 C1564 C 0.52967 0.64842 0.92198
 C1565 C 0.53661 0.67037 0.91364
 H1566 H 0.52777 0.67814 0.89895
 O1567 O 0.47782 0.37879 0.91898
 O1568 O 0.47869 0.35118 0.89231
 C1569 C 0.47125 0.35895 0.91155
 C1570 C 0.45447 0.34520 0.92539
 C1571 C 0.44891 0.32186 0.91972
 H1572 H 0.45751 0.31336 0.90538
 O1573 O 0.60241 0.58933 0.97483
 O1574 O 0.62736 0.61843 0.97415
 C1575 C 0.62026 0.59894 0.96639
 C1576 C 0.63280 0.58735 0.94728
 C1577 C 0.65514 0.59449 0.94142
 H1578 H 0.66327 0.60854 0.95107
 O1579 O 0.38764 0.40532 0.98385
 O1580 O 0.36285 0.37609 0.98410
 C1581 C 0.36948 0.39567 0.97609
 C1582 C 0.35620 0.40710 0.95726
 C1583 C 0.33497 0.39778 0.94996
 H1584 H 0.32789 0.38266 0.95872
 Cu1585 Cu 0.49797 0.39951 0.90487
 Cu1586 Cu 0.49905 0.36664 0.87260
 Cu1587 Cu 0.48286 0.59600 0.90513
 Cu1588 Cu 0.47975 0.62901 0.87313
 Cu1589 Cu 0.39722 0.49032 0.90646
 Cu1590 Cu 0.36319 0.48757 0.87586
 Cu1591 Cu 0.58609 0.50564 0.90041
 Cu1592 Cu 0.61684 0.50797 0.86676
 C1593 C 0.43449 0.43156 0.86627
 H1594 H 0.44165 0.43967 0.88171
 C1595 C 0.41526 0.40936 0.82722
 C1596 C 0.54380 0.56390 0.86357
 H1597 H 0.53863 0.55697 0.88028
 C1598 C 0.55782 0.58270 0.82089
 C1599 C 0.36507 0.42687 0.94584
 H1600 H 0.38158 0.43398 0.95113
 C1601 C 0.32277 0.40786 0.93142
 C1602 C 0.62249 0.56904 0.93484
 H1603 H 0.60521 0.56353 0.93934
 C1604 C 0.66724 0.58358 0.92335
 C1605 C 0.44343 0.35585 0.94432
 H1606 H 0.44737 0.37382 0.94870
 C1607 C 0.43249 0.30940 0.93284
 C1608 C 0.54175 0.63835 0.94069
 H1609 H 0.53673 0.62127 0.94699
 C1610 C 0.55568 0.68188 0.92337
 C1611 C 0.42564 0.55457 0.86661
 H1612 H 0.43361 0.54825 0.88244
 C1613 C 0.40407 0.57166 0.82635
 C1614 C 0.55308 0.44158 0.86247
 H1615 H 0.54514 0.44931 0.87762
 C1616 C 0.57500 0.42029 0.82453
 C1617 C 0.56219 0.36418 0.93929
 H1618 H 0.55443 0.37951 0.94695
 C1619 C 0.58305 0.32549 0.91821
 C1620 C 0.42193 0.63050 0.94378
 H1621 H 0.42936 0.61405 0.94919
 C1622 C 0.40200 0.67261 0.92924
 C1623 C 0.35503 0.54729 0.94597
 H1624 H 0.37235 0.54277 0.95129
 C1625 C 0.31056 0.55971 0.93143
 C1626 C 0.63031 0.44732 0.93595
 H1627 H 0.61440 0.45297 0.94390
 C1628 C 0.67059 0.43174 0.91410
 O1629 O 0.52845 0.41609 1.11920
 O1630 O 0.53162 0.38877 1.14599
 C1631 C 0.53792 0.40823 1.13757
 C1632 C 0.55701 0.42153 1.14858
 C1633 C 0.56754 0.41373 1.16927
 H1634 H 0.56124 0.39808 1.17769
 O1635 O 0.47124 0.57741 1.11913
 O1636 O 0.47029 0.60459 1.14623
 C1637 C 0.46331 0.58517 1.13820
 C1638 C 0.44535 0.57179 1.15081
 C1639 C 0.43675 0.57985 1.17219
 H1640 H 0.44396 0.59545 1.18004
 O1641 O 0.38160 0.51041 1.09041
 O1642 O 0.35582 0.50885 1.11840
 C1643 C 0.36298 0.51754 1.09940
 C1644 C 0.35007 0.53686 1.08827
 C1645 C 0.33074 0.54638 1.09935
 H1646 H 0.32443 0.53854 1.11523
 O1647 O 0.61635 0.48210 1.08195
 O1648 O 0.64436 0.48429 1.10783
 C1649 C 0.63587 0.47546 1.08940
 C1650 C 0.64825 0.45669 1.07683
 C1651 C 0.66903 0.44751 1.08558
 H1652 H 0.67665 0.45469 1.10124
 O1653 O 0.58711 0.38789 1.02127
 O1654 O 0.61565 0.36266 1.02038
 C1655 C 0.59689 0.36979 1.02923
 C1656 C 0.58667 0.35760 1.04953
 C1657 C 0.59745 0.33793 1.05943
 H1658 H 0.61301 0.33099 1.05181
 O1659 O 0.40554 0.60647 1.02748
 O1660 O 0.37707 0.63177 1.02904
 C1661 C 0.39673 0.62483 1.03594
 C1662 C 0.40941 0.63769 1.05438
 C1663 C 0.40174 0.65949 1.06253
 H1664 H 0.38668 0.66751 1.05483
 O1665 O 0.41637 0.46670 1.12140
 O1666 O 0.39050 0.46468 1.14925
 C1667 C 0.40947 0.45814 1.14053
 C1668 C 0.42352 0.44005 1.15233
 C1669 C 0.41620 0.42974 1.17325
 H1670 H 0.40030 0.43537 1.18122
 O1671 O 0.58292 0.52504 1.11488
 O1672 O 0.61063 0.52761 1.14108
 C1673 C 0.59085 0.53356 1.13367
 C1674 C 0.57678 0.55063 1.14674
 C1675 C 0.58252 0.55721 1.16963
 H1676 H 0.59726 0.54941 1.17815
 O1677 O 0.48431 0.38144 1.08849
 O1678 O 0.48753 0.35407 1.11524
 C1679 C 0.47814 0.36188 1.09685
 C1680 C 0.45933 0.34843 1.08558
 C1681 C 0.45198 0.32713 1.09509
 H1682 H 0.46071 0.32003 1.11018
 O1683 O 0.51353 0.61228 1.08617
 O1684 O 0.51288 0.63911 1.11365
 C1685 C 0.52068 0.63157 1.09447
 C1686 C 0.53886 0.64496 1.08221
 C1687 C 0.54788 0.66553 1.09201
 H1688 H 0.54036 0.67239 1.10777
 O1689 O 0.38746 0.40481 1.02915
 O1690 O 0.36254 0.37569 1.02929
 C1691 C 0.36931 0.39528 1.03705
 C1692 C 0.35626 0.40680 1.05584
 C1693 C 0.33474 0.39813 1.06274
 H1694 H 0.32713 0.38370 1.05323
 O1695 O 0.60480 0.58853 1.02007
 O1696 O 0.62967 0.61770 1.01917
 C1697 C 0.62336 0.59802 1.02713
 C1698 C 0.63746 0.58634 1.04514
 C1699 C 0.65930 0.59509 1.05112
 H1700 H 0.66604 0.61024 1.04214
 O1701 O 0.51629 0.57958 1.11715
 O1702 O 0.51516 0.60637 1.14465
 C1703 C 0.52402 0.58810 1.13600
 C1704 C 0.54380 0.57695 1.14779
 C1705 C 0.54979 0.58337 1.17051
 H1706 H 0.53966 0.59640 1.17944
 O1707 O 0.48328 0.41328 1.12035
 O1708 O 0.48653 0.38588 1.14705
 C1709 C 0.47668 0.40404 1.13927
 C1710 C 0.45666 0.41385 1.15177
 C1711 C 0.44907 0.40375 1.17262
 H1712 H 0.45879 0.38964 1.18037
 O1713 O 0.61273 0.52751 1.08145
 O1714 O 0.64078 0.53000 1.10727
 C1715 C 0.63120 0.53701 1.08865
 C1716 C 0.64129 0.55665 1.07538
 C1717 C 0.66311 0.56567 1.08115
 H1718 H 0.67305 0.55766 1.09496
 O1719 O 0.38362 0.46489 1.09056
 O1720 O 0.35749 0.46309 1.11819
 C1721 C 0.36552 0.45579 1.09902
 C1722 C 0.35429 0.43621 1.08646
 C1723 C 0.33285 0.42709 1.09344
 H1724 H 0.32414 0.43461 1.10825
 O1725 O 0.57126 0.61795 1.02246
 O1726 O 0.59608 0.64713 1.02171
 C1727 C 0.57862 0.63721 1.03059
 C1728 C 0.56728 0.64769 1.05110
 C1729 C 0.57633 0.66800 1.06144
 H1730 H 0.59140 0.67625 1.05401
 O1731 O 0.42184 0.37595 1.02900
 O1732 O 0.39698 0.34680 1.02976
 C1733 C 0.41523 0.35654 1.03733
 C1734 C 0.42860 0.34565 1.05646
 C1735 C 0.42169 0.32419 1.06612
 H1736 H 0.40686 0.31504 1.05910
 O1737 O 0.58608 0.47997 1.11471
 O1738 O 0.61395 0.48239 1.14076
 C1739 C 0.59547 0.47295 1.13339
 C1740 C 0.58513 0.45325 1.14635
 C1741 C 0.59514 0.44548 1.16713
 H1742 H 0.60970 0.45491 1.17434
 O1743 O 0.41407 0.51205 1.12105
 O1744 O 0.38843 0.51027 1.14917
 C1745 C 0.40628 0.51949 1.14024
 C1746 C 0.41764 0.53956 1.15184
 C1747 C 0.40938 0.54785 1.17317
 H1748 H 0.39503 0.53908 1.18142
 O1749 O 0.46869 0.60859 1.08648
 O1750 O 0.46815 0.63582 1.11357
 C1751 C 0.46023 0.62717 1.09482
 C1752 C 0.44069 0.63865 1.08294
 C1753 C 0.43293 0.66039 1.09067
 H1754 H 0.44162 0.66888 1.10508
 O1755 O 0.52904 0.38581 1.08572
 O1756 O 0.53211 0.35847 1.11250
 C1757 C 0.53859 0.36745 1.09338
 C1758 C 0.55799 0.35674 1.08063
 C1759 C 0.56886 0.33710 1.08996
 H1760 H 0.56209 0.32912 1.10559
 O1761 O 0.61682 0.42157 1.01976
 O1762 O 0.64542 0.39644 1.01832
 C1763 C 0.63639 0.41465 1.02688
 C1764 C 0.64833 0.42715 1.04606
 C1765 C 0.66903 0.41838 1.05501
 H1766 H 0.67696 0.40338 1.04687
 O1767 O 0.37597 0.57266 1.02922
 O1768 O 0.34736 0.59779 1.03055
 C1769 C 0.35727 0.57964 1.03825
 C1770 C 0.34738 0.56721 1.05850
 C1771 C 0.32821 0.57654 1.07002
 H1772 H 0.32038 0.59243 1.06362
 Cu1773 Cu 0.50596 0.40199 1.10085
 Cu1774 Cu 0.50981 0.36907 1.13286
 Cu1775 Cu 0.49250 0.59172 1.09953
 Cu1776 Cu 0.49151 0.62417 1.13225
 Cu1777 Cu 0.40696 0.39327 1.00640
 Cu1778 Cu 0.37718 0.35819 1.00690
 Cu1779 Cu 0.59802 0.40693 0.99787
 Cu1780 Cu 0.63233 0.37680 0.99643
 Cu1781 Cu 0.39243 0.58712 1.00550
 Cu1782 Cu 0.35797 0.61709 1.00721
 Cu1783 Cu 0.58418 0.60070 0.99863
 Cu1784 Cu 0.61398 0.63576 0.99766
 Cu1785 Cu 0.40147 0.48853 1.10304
 Cu1786 Cu 0.37044 0.48650 1.13654
 Cu1787 Cu 0.59680 0.50350 1.09560
 Cu1788 Cu 0.63031 0.50641 1.12679
 C1789 C 0.56590 0.44137 1.13738
 H1790 H 0.55825 0.44720 1.12120
 C1791 C 0.58674 0.42558 1.17862
 C1792 C 0.43579 0.55151 1.14091
 H1793 H 0.44201 0.54541 1.12427
 C1794 C 0.41877 0.56797 1.18348
 C1795 C 0.35815 0.54728 1.06771
 H1796 H 0.37330 0.54036 1.05928
 C1797 C 0.31993 0.56644 1.09058
 C1798 C 0.63817 0.44646 1.05694
 H1799 H 0.62193 0.45302 1.05038
 C1800 C 0.67930 0.42810 1.07491
 C1801 C 0.56687 0.36680 1.06028
 H1802 H 0.55874 0.38224 1.05320
 C1803 C 0.58875 0.32787 1.07988
 C1804 C 0.42903 0.62756 1.06459
 H1805 H 0.43486 0.61062 1.05874
 C1806 C 0.41363 0.67103 1.08056
 C1807 C 0.44389 0.43211 1.14191
 H1808 H 0.44946 0.43968 1.12561
 C1809 C 0.42881 0.41144 1.18344
 C1810 C 0.55724 0.56044 1.13612
 H1811 H 0.55278 0.55564 1.11845
 C1812 C 0.56888 0.57342 1.18177
 C1813 C 0.44761 0.35748 1.06618
 H1814 H 0.45289 0.37415 1.05906
 C1815 C 0.43318 0.31499 1.08557
 C1816 C 0.54850 0.63635 1.06159
 H1817 H 0.54182 0.62036 1.05407
 C1818 C 0.56689 0.67699 1.08202
 C1819 C 0.36572 0.42597 1.06759
 H1820 H 0.38242 0.43255 1.06238
 C1821 C 0.32287 0.40798 1.08159
 C1822 C 0.62872 0.56698 1.05720
 H1823 H 0.61176 0.56033 1.05286
 C1824 C 0.67230 0.58483 1.06902
 C1825 C 1.11969 1.12777 1.29975
 C1826 C 1.11474 1.11842 1.27771
 C1827 C 1.13278 1.10976 1.26376
 C1828 C 1.15533 1.10999 1.27225
 C1829 C 1.16004 1.11854 1.29442
 C1830 C 1.14238 1.12762 1.30858
 C1831 C 1.12805 1.10092 1.24155
 C1832 C 1.10538 1.10004 1.23328
 C1833 C 1.08718 1.10790 1.24750
 C1834 C 1.09198 1.11726 1.26953
 C1835 C 1.06448 1.10635 1.23939
 C1836 C 1.05990 1.09763 1.21719
 C1837 C 1.07794 1.09061 1.20252
 C1838 C 1.10067 1.09158 1.21089
 H1839 H 1.10566 1.13403 1.31040
 H1840 H 1.16938 1.10350 1.26175
 H1841 H 1.17786 1.11889 1.30000
 H1842 H 1.14199 1.09462 1.23077
 H1843 H 1.07804 1.12356 1.28031
 H1844 H 1.05028 1.11198 1.25015
 H1845 H 1.04216 1.09654 1.21144
 H1846 H 1.11478 1.08644 1.19976
 C1847 C 1.12789 0.63978 0.79030
 C1848 C 1.11884 0.62761 0.77123
 C1849 C 1.11803 0.60296 0.77158
 C1850 C 1.12647 0.59094 0.79107
 C1851 C 1.13525 0.60326 0.81017
 C1852 C 1.13583 0.62779 0.81005
 C1853 C 1.10863 0.59081 0.75257
 C1854 C 1.09985 0.60306 0.73336
 C1855 C 1.10072 0.62774 0.73313
 C1856 C 1.11033 0.63982 0.75197
 C1857 C 1.09183 0.64001 0.71408
 C1858 C 1.08200 0.62800 0.69544
 C1859 C 1.08093 0.60349 0.69544
 C1860 C 1.09003 0.59109 0.71444
 H1861 H 1.12872 0.65867 0.78975
 H1862 H 1.12600 0.57205 0.79166
 H1863 H 1.14114 0.59362 0.82522
 H1864 H 1.10796 0.57189 0.75281
 H1865 H 1.11093 0.65875 0.75177
 H1866 H 1.09245 0.65890 0.71361
 H1867 H 1.07546 0.63789 0.68082
 H1868 H 1.08915 0.57219 0.71462
 C1869 C 0.64148 1.12898 0.78639
 C1870 C 0.62972 1.11973 0.76717
 C1871 C 0.60545 1.11796 0.76756
 C1872 C 0.59339 1.12575 0.78715
 C1873 C 0.60531 1.13458 0.80645
 C1874 C 0.62948 1.13595 0.80640
 C1875 C 0.59372 1.10812 0.74853
 C1876 C 0.60603 1.09979 0.72928
 C1877 C 0.63031 1.10164 0.72897
 C1878 C 0.64197 1.11175 0.74782
 C1879 C 0.64259 1.09321 0.70985
 C1880 C 0.63098 1.08297 0.69116
 C1881 C 0.60686 1.08098 0.69121
 C1882 C 0.59447 1.08949 0.71038
 H1883 H 0.66009 1.13040 0.78590
 H1884 H 0.57479 1.12454 0.78777
 H1885 H 0.59566 1.13965 0.82168
 H1886 H 0.57510 1.10669 0.74882
 H1887 H 0.66060 1.11308 0.74758
 H1888 H 0.66120 1.09456 0.70932
 H1889 H 0.64089 1.07697 0.67643
 H1890 H 0.57588 1.08787 0.71068
 C1891 C 0.61606 0.62182 1.30178
 C1892 C 0.61130 0.61221 1.27978
 C1893 C 0.62954 0.60725 1.26439
 C1894 C 0.65223 0.61149 1.27142
 C1895 C 0.65691 0.62042 1.29350
 C1896 C 0.63897 0.62580 1.30913
 C1897 C 0.62485 0.59810 1.24224
 C1898 C 0.60211 0.59345 1.23537
 C1899 C 0.58389 0.59777 1.25102
 C1900 C 0.58857 0.60724 1.27304
 C1901 C 0.56123 0.59271 1.24431
 C1902 C 0.55655 0.58407 1.22211
 C1903 C 0.57441 0.58046 1.20605
 C1904 C 0.59726 0.58483 1.21300
 H1905 H 0.60188 0.62504 1.31350
 H1906 H 0.66643 0.60790 1.25981
 H1907 H 0.67473 0.62396 1.29783
 H1908 H 0.63888 0.59460 1.23037
 H1909 H 0.57454 0.61077 1.28490
 H1910 H 0.54707 0.59564 1.25616
 H1911 H 0.53884 0.58036 1.21742
 H1912 H 0.61118 0.58226 1.20079
 C1913 C 0.86403 0.86705 1.28333
 C1914 C 0.87741 0.87489 1.26462
 C1915 C 0.88522 0.85876 1.24783
 C1916 C 0.87985 0.83502 1.25029
 C1917 C 0.86645 0.82737 1.26894
 C1918 C 0.85819 0.84332 1.28548
 C1919 C 0.89793 0.86667 1.22866
 C1920 C 0.90268 0.89054 1.22594
 C1921 C 0.89515 0.90660 1.24295
 C1922 C 0.88272 0.89866 1.26225
 C1923 C 0.89971 0.93045 1.24010
 C1924 C 0.91099 0.93844 1.22024
 C1925 C 0.91811 0.92273 1.20297
 C1926 C 0.91429 0.89870 1.20616
 H1927 H 0.85807 0.87945 1.29619
 H1928 H 0.88570 0.82241 1.23760
 H1929 H 0.86204 0.80904 1.27010
 H1930 H 0.90370 0.85432 1.21565
 H1931 H 0.87676 0.91103 1.27515
 H1932 H 0.89415 0.94298 1.25300
 H1933 H 0.91397 0.95700 1.21824
 H1934 H 0.91949 0.88648 1.19280
 C1935 C 0.87684 0.36734 0.79733
 C1936 C 0.88350 0.37670 0.77577
 C1937 C 0.86648 0.38363 0.75955
 C1938 C 0.84314 0.38128 0.76523
 C1939 C 0.83669 0.37229 0.78681
 C1940 C 0.85341 0.36523 0.80303
 C1941 C 0.87302 0.39288 0.73797
 C1942 C 0.89639 0.39559 0.73246
 C1943 C 0.91341 0.38893 0.74878
 C1944 C 0.90687 0.37943 0.77027
 C1945 C 0.93672 0.39190 0.74332
 C1946 C 0.94316 0.40123 0.72187
 C1947 C 0.92645 0.40767 0.70533
 C1948 C 0.90302 0.40484 0.71086
 H1949 H 0.88984 0.36213 0.80985
 H1950 H 0.82987 0.38650 0.75303
 H1951 H 0.81855 0.37063 0.79078
 H1952 H 0.85994 0.39807 0.72551
 H1953 H 0.91995 0.37426 0.78273
 H1954 H 0.95000 0.38703 0.75567
 H1955 H 0.96131 0.40356 0.71829
 H1956 H 0.88992 0.40943 0.69821
 C1957 C 0.37509 0.87799 0.79407
 C1958 C 0.38736 0.88473 0.77422
 C1959 C 0.41159 0.88708 0.77530
 C1960 C 0.42312 0.88245 0.79625
 C1961 C 0.41077 0.87555 0.81590
 C1962 C 0.38668 0.87332 0.81501
 C1963 C 0.42385 0.89405 0.75547
 C1964 C 0.41217 0.89873 0.73459
 C1965 C 0.38794 0.89613 0.73354
 C1966 C 0.37573 0.88910 0.75330
 C1967 C 0.37622 0.90087 0.71278
 C1968 C 0.38825 0.90871 0.69337
 C1969 C 0.41225 0.91183 0.69427
 C1970 C 0.42421 0.90639 0.71483
 H1971 H 0.35654 0.87597 0.79315
 H1972 H 0.44167 0.88415 0.79744
 H1973 H 0.42003 0.87210 0.83191
 H1974 H 0.44242 0.89598 0.75634
 H1975 H 0.35715 0.88723 0.75246
 H1976 H 0.35769 0.89884 0.71164
 H1977 H 0.37875 0.91251 0.67759
 H1978 H 0.44271 0.90887 0.71565
 C1979 C 0.38017 0.36649 1.30401
 C1980 C 0.38848 0.37789 1.28406
 C1981 C 0.38797 0.40249 1.28278
 C1982 C 0.37939 0.41529 1.30151
 C1983 C 0.37099 0.40390 1.32118
 C1984 C 0.37089 0.37926 1.32282
 C1985 C 0.39588 0.41395 1.26276
 C1986 C 0.40421 0.40109 1.24385
 C1987 C 0.40482 0.37645 1.24513
 C1988 C 0.39698 0.36502 1.26520
 C1989 C 0.41319 0.36362 1.22625
 C1990 C 0.42090 0.37505 1.20629
 C1991 C 0.42040 0.39954 1.20476
 C1992 C 0.41193 0.41246 1.22365
 H1993 H 0.37990 0.34760 1.30411
 H1994 H 0.37916 0.43419 1.30097
 H1995 H 0.36530 0.41475 1.33541
 H1996 H 0.39541 0.43285 1.26184
 H1997 H 0.39739 0.34611 1.26608
 H1998 H 0.41372 0.34473 1.22688
 H1999 H 0.42703 0.36466 1.19187
 H2000 H 0.41164 0.43135 1.22275
 C2001 C 0.87144 1.12080 0.70199
 C2002 C 0.88333 1.11429 0.72211
 C2003 C 0.90758 1.11568 0.72281
 C2004 C 0.91945 1.12454 0.70356
 C2005 C 0.90742 1.13148 0.68363
 C2006 C 0.88325 1.12915 0.68230
 C2007 C 0.91950 1.10809 0.74268
 C2008 C 0.90732 1.09951 0.76192
 C2009 C 0.88297 1.09909 0.76142
 C2010 C 0.87116 1.10636 0.74152
 C2011 C 0.87076 1.09119 0.78079
 C2012 C 0.88250 1.08321 0.80034
 C2013 C 0.90671 1.08258 0.80080
 C2014 C 0.91904 1.09112 0.78158
 H2015 H 0.85279 1.12002 0.70208
 H2016 H 0.93806 1.12588 0.70381
 H2017 H 0.91729 1.13753 0.66888
 H2018 H 0.93816 1.10875 0.74312
 H2019 H 0.85250 1.10564 0.74106
 H2020 H 0.85210 1.09110 0.78080
 H2021 H 0.87254 1.07751 0.81517
 H2022 H 0.93769 1.09073 0.78166
 C2023 C 0.85236 0.63141 0.21334
 C2024 C 0.86557 0.62178 0.23136
 C2025 C 0.88970 0.62475 0.23152
 C2026 C 0.90017 0.63756 0.21373
 C2027 C 0.88691 0.64731 0.19591
 C2028 C 0.86274 0.64432 0.19524
 C2029 C 0.90292 0.61499 0.24951
 C2030 C 0.89222 0.60254 0.26751
 C2031 C 0.86801 0.59983 0.26743
 C2032 C 0.85487 0.60937 0.24934
 C2033 C 0.85728 0.58769 0.28551
 C2034 C 0.87035 0.57830 0.30358
 C2035 C 0.89448 0.58063 0.30384
 C2036 C 0.90530 0.59284 0.28567
 H2037 H 0.83383 0.62959 0.21418
 H2038 H 0.91868 0.63996 0.21352
 H2039 H 0.89594 0.65636 0.18218
 H2040 H 0.92148 0.61720 0.24958
 H2041 H 0.83631 0.60719 0.24930
 H2042 H 0.83873 0.58560 0.28580
 H2043 H 0.86148 0.56949 0.31759
 H2044 H 0.92388 0.59465 0.28556
 C2045 C 0.39478 1.11410 0.19242
 C2046 C 0.39842 1.10696 0.21549
 C2047 C 0.37958 1.10561 0.23098
 C2048 C 0.35748 1.11143 0.22319
 C2049 C 0.35397 1.11817 0.20018
 C2050 C 0.37250 1.11942 0.18460
 C2051 C 0.38306 1.09835 0.25398
 C2052 C 0.40513 1.09232 0.26173
 C2053 C 0.42397 1.09355 0.24625
 C2054 C 0.42050 1.10087 0.22325
 C2055 C 0.44603 1.08758 0.25411
 C2056 C 0.44947 1.08089 0.27718
 C2057 C 0.43092 1.07993 0.29278
 C2058 C 0.40871 1.08537 0.28484
 H2059 H 0.40907 1.11490 0.18038
 H2060 H 0.34287 1.11053 0.23481
 H2061 H 0.33669 1.12239 0.19446
 H2062 H 0.36860 1.09740 0.26582
 H2063 H 0.43496 1.10183 0.21141
 H2064 H 0.46065 1.08831 0.24250
 H2065 H 0.46671 1.07654 0.28292
 H2066 H 0.39437 1.08489 0.29684
 C2067 C 0.35580 0.62846 0.71077
 C2068 C 0.36779 0.61932 0.72988
 C2069 C 0.39210 0.62014 0.73036
 C2070 C 0.40398 0.63020 0.71166
 C2071 C 0.39188 0.63924 0.69262
 C2072 C 0.36770 0.63833 0.69192
 C2073 C 0.40410 0.61090 0.74949
 C2074 C 0.39203 0.60084 0.76811
 C2075 C 0.36769 0.60009 0.76754
 C2076 C 0.35575 0.60935 0.74848
 C2077 C 0.35564 0.59008 0.78609
 C2078 C 0.36753 0.58084 0.80506
 C2079 C 0.39171 0.58137 0.80588
 C2080 C 0.40388 0.59149 0.78730
 H2081 H 0.33714 0.62809 0.71068
 H2082 H 0.42262 0.63099 0.71170
 H2083 H 0.40143 0.64664 0.67826
 H2084 H 0.42276 0.61151 0.74988
 H2085 H 0.33708 0.60874 0.74809
 H2086 H 0.33699 0.58947 0.78597
 H2087 H 0.35772 0.57356 0.81931
 H2088 H 0.42253 0.59185 0.78766
 C2089 C 1.13166 0.87732 0.70474
 C2090 C 1.11921 0.88295 0.72480
 C2091 C 1.09512 0.88629 0.72339
 C2092 C 1.08387 0.88347 0.70195
 C2093 C 1.09636 0.87741 0.68213
 C2094 C 1.12032 0.87448 0.68336
 C2095 C 1.08275 0.89245 0.74340
 C2096 C 1.09417 0.89526 0.76478
 C2097 C 1.11819 0.89135 0.76617
 C2098 C 1.13052 0.88522 0.74622
 C2099 C 1.12966 0.89412 0.78743
 C2100 C 1.11768 0.90162 0.80697
 C2101 C 1.09399 0.90634 0.80568
 C2102 C 1.08214 0.90254 0.78467
 H2103 H 1.15011 0.87468 0.70580
 H2104 H 1.06542 0.88585 0.70053
 H2105 H 1.08735 0.87516 0.66575
 H2106 H 1.06433 0.89531 0.74227
 H2107 H 1.14896 0.88249 0.74731
 H2108 H 1.14801 0.89104 0.78883
 H2109 H 1.12704 0.90427 0.82308
 H2110 H 1.06389 0.90629 0.78359
 C2111 C 1.12292 0.39438 0.19606
 C2112 C 1.11212 0.39998 0.21706
 C2113 C 1.08789 0.39896 0.21872
 C2114 C 1.07487 0.39234 0.19928
 C2115 C 1.08575 0.38625 0.17854
 C2116 C 1.10999 0.38699 0.17657
 C2117 C 1.07711 0.40430 0.23984
 C2118 C 1.09033 0.41038 0.25940
 C2119 C 1.11462 0.41117 0.25772
 C2120 C 1.12533 0.40606 0.23659
 C2121 C 1.12786 0.41715 0.27723
 C2122 C 1.11716 0.42272 0.29813
 C2123 C 1.09304 0.42239 0.29994
 C2124 C 1.07969 0.41588 0.28057
 H2125 H 1.14156 0.39433 0.19562
 H2126 H 1.05625 0.39163 0.20015
 H2127 H 1.07497 0.38151 0.16389
 H2128 H 1.05849 0.40360 0.24108
 H2129 H 1.14395 0.40671 0.23536
 H2130 H 1.14648 0.41770 0.27628
 H2131 H 1.12777 0.42741 0.31295
 H2132 H 1.06107 0.41574 0.28183
 C2133 C 0.63280 0.86954 0.20267
 C2134 C 0.61927 0.87654 0.22152
 C2135 C 0.59580 0.88210 0.21799
 C2136 C 0.58622 0.88015 0.19566
 C2137 C 0.59978 0.87288 0.17701
 C2138 C 0.62318 0.86769 0.18035
 C2139 C 0.58240 0.88965 0.23679
 C2140 C 0.59221 0.89178 0.25903
 C2141 C 0.61560 0.88576 0.26252
 C2142 C 0.62891 0.87812 0.24380
 C2143 C 0.62549 0.88796 0.28464
 C2144 C 0.61265 0.89691 0.30296
 C2145 C 0.58965 0.90362 0.29959
 C2146 C 0.57927 0.90047 0.27772
 H2147 H 0.65077 0.86519 0.20539
 H2148 H 0.56827 0.88426 0.19261
 H2149 H 0.59207 0.87152 0.15989
 H2150 H 0.56448 0.89418 0.23405
 H2151 H 0.64688 0.87374 0.24650
 H2152 H 0.64332 0.88330 0.28763
 H2153 H 0.62084 0.89905 0.31979
 H2154 H 0.56155 0.90575 0.27506
 C2155 C 0.63760 0.36496 0.71588
 C2156 C 0.62831 0.37849 0.73381
 C2157 C 0.62616 0.40289 0.73100
 C2158 C 0.63402 0.41334 0.71040
 C2159 C 0.64332 0.39966 0.69256
 C2160 C 0.64477 0.37532 0.69499
 C2161 C 0.61590 0.41627 0.74866
 C2162 C 0.60773 0.40547 0.76900
 C2163 C 0.61047 0.38110 0.77184
 C2164 C 0.62078 0.36784 0.75432
 C2165 C 0.60256 0.37023 0.79207
 C2166 C 0.59149 0.38317 0.80916
 C2167 C 0.58793 0.40729 0.80641
 C2168 C 0.59653 0.41846 0.78641
 H2169 H 0.63904 0.34622 0.71807
 H2170 H 0.63265 0.43203 0.70794
 H2171 H 0.64877 0.40800 0.67661
 H2172 H 0.61397 0.43495 0.74642
 H2173 H 0.62258 0.34912 0.75649
 H2174 H 0.60475 0.35163 0.79460
 H2175 H 0.58566 0.37423 0.82465
 H2176 H 0.59395 0.43704 0.78412
 C2177 C 1.30545 1.12337 1.10768
 C2178 C 1.28456 1.11331 1.10064
 C2179 C 1.28225 1.08873 1.09991
 C2180 C 1.30102 1.07466 1.10603
 C2181 C 1.32161 1.08486 1.11359
 C2182 C 1.32386 1.10924 1.11466
 C2183 C 1.26109 1.07865 1.09363
 C2184 C 1.24213 1.09286 1.08846
 C2185 C 1.24454 1.11744 1.08918
 C2186 C 1.26576 1.12749 1.09511
 C2187 C 1.22562 1.13164 1.08410
 C2188 C 1.20451 1.12162 1.07819
 C2189 C 1.20193 1.09724 1.07724
 C2190 C 1.22078 1.08292 1.08257
 H2191 H 1.30702 1.14220 1.10890
 H2192 H 1.29958 1.05581 1.10558
 H2193 H 1.33568 1.07374 1.11903
 H2194 H 1.25927 1.05981 1.09312
 H2195 H 1.26753 1.14633 1.09576
 H2196 H 1.22715 1.15048 1.08468
 H2197 H 1.19010 1.13295 1.07436
 H2198 H 1.21893 1.06411 1.08167
 C2199 C 1.28287 0.64491 0.62773
 C2200 C 1.26335 0.63313 0.61936
 C2201 C 1.26268 0.60851 0.61954
 C2202 C 1.28144 0.59610 0.62848
 C2203 C 1.30076 0.60793 0.63706
 C2204 C 1.30198 0.63257 0.63665
 C2205 C 1.24326 0.59672 0.61084
 C2206 C 1.22438 0.60932 0.60225
 C2207 C 1.22493 0.63399 0.60250
 C2208 C 1.24442 0.64572 0.61096
 C2209 C 1.20595 0.64656 0.59429
 C2210 C 1.18660 0.63484 0.58578
 C2211 C 1.18592 0.61031 0.58505
 C2212 C 1.20493 0.59765 0.59343
 H2213 H 1.28257 0.66380 0.62811
 H2214 H 1.28125 0.57719 0.62871
 H2215 H 1.31510 0.59752 0.64304
 H2216 H 1.24281 0.57779 0.61083
 H2217 H 1.24486 0.66465 0.61099
 H2218 H 1.20602 0.66547 0.59455
 H2219 H 1.17202 0.64506 0.57998
 H2220 H 1.20474 0.57875 0.59281
 C2221 C 0.80903 1.11281 0.60819
 C2222 C 0.78825 1.10099 0.60367
 C2223 C 0.77449 1.09318 0.62233
 C2224 C 0.78207 1.09659 0.64516
 C2225 C 0.80295 1.10785 0.64956
 C2226 C 0.81675 1.11640 0.63122
 C2227 C 0.75324 1.08234 0.61791
 C2228 C 0.74561 1.07904 0.59501
 C2229 C 0.75980 1.08601 0.57630
 C2230 C 0.78100 1.09695 0.58074
 C2231 C 0.75227 1.08246 0.55342
 C2232 C 0.73045 1.07316 0.54910
 C2233 C 0.71571 1.06727 0.56755
 C2234 C 0.72370 1.06959 0.59051
 H2235 H 0.81950 1.11839 0.59367
 H2236 H 0.77172 1.09076 0.65968
 H2237 H 0.80761 1.11080 0.66756
 H2238 H 0.74250 1.07679 0.63229
 H2239 H 0.79166 1.10265 0.56636
 H2240 H 0.76302 1.08741 0.53887
 H2241 H 0.72481 1.07112 0.53124
 H2242 H 0.71244 1.06522 0.60485
 C2243 C 0.78626 0.63898 1.12251
 C2244 C 0.76521 0.62842 1.11648
 C2245 C 0.74998 0.62103 1.13415
 C2246 C 0.75612 0.62418 1.15753
 C2247 C 0.77713 0.63459 1.16337
 C2248 C 0.79236 0.64211 1.14598
 C2249 C 0.72886 0.61066 1.12821
 C2250 C 0.72276 0.60754 1.10481
 C2251 C 0.73804 0.61477 1.08712
 C2252 C 0.75917 0.62516 1.09307
 C2253 C 0.73187 0.61162 1.06376
 C2254 C 0.71065 0.60164 1.05793
 C2255 C 0.69519 0.59460 1.07534
 C2256 C 0.70148 0.59748 1.09880
 H2257 H 0.79801 0.64448 1.10897
 H2258 H 0.74466 0.61865 1.17129
 H2259 H 0.78136 0.63704 1.18156
 H2260 H 0.71717 0.60509 1.14179
 H2261 H 0.77085 0.63077 1.07949
 H2262 H 0.74340 0.61697 1.04998
 H2263 H 0.70634 0.59933 1.03974
 H2264 H 0.68960 0.59239 1.11238
 C2265 C 1.30126 0.86998 0.87855
 C2266 C 1.28124 0.88240 0.88454
 C2267 C 1.28047 0.90685 0.88151
 C2268 C 1.29949 0.91841 0.87207
 C2269 C 1.31903 0.90595 0.86552
 C2270 C 1.32039 0.88150 0.86861
 C2271 C 1.26070 0.91937 0.88789
 C2272 C 1.24141 0.90768 0.89686
 C2273 C 1.24195 0.88311 0.89921
 C2274 C 1.26186 0.87067 0.89323
 C2275 C 1.22258 0.87133 0.90763
 C2276 C 1.20307 0.88374 0.91429
 C2277 C 1.20251 0.90828 0.91299
 C2278 C 1.22168 0.92013 0.90376
 H2279 H 1.30133 0.85119 0.88060
 H2280 H 1.29928 0.93717 0.86971
 H2281 H 1.33346 0.91586 0.85888
 H2282 H 1.26031 0.93818 0.88582
 H2283 H 1.26225 0.85186 0.89531
 H2284 H 1.22255 0.85249 0.90924
 H2285 H 1.18837 0.87403 0.92068
 H2286 H 1.22152 0.93901 0.90262
 C2287 C 1.29808 0.39053 0.37518
 C2288 C 1.27858 0.39896 0.38673
 C2289 C 1.27645 0.39590 0.41098
 C2290 C 1.29372 0.38412 0.42323
 C2291 C 1.31267 0.37497 0.41151
 C2292 C 1.31521 0.37798 0.38728
 C2293 C 1.25686 0.40420 0.42251
 C2294 C 1.23897 0.41476 0.40990
 C2295 C 1.24093 0.41726 0.38554
 C2296 C 1.26084 0.40971 0.37417
 C2297 C 1.22275 0.42693 0.37282
 C2298 C 1.20277 0.43405 0.38406
 C2299 C 1.20070 0.43224 0.40839
 C2300 C 1.21901 0.42252 0.42120
 H2301 H 1.29895 0.39239 0.35647
 H2302 H 1.29242 0.38165 0.44185
 H2303 H 1.32569 0.36609 0.42167
 H2304 H 1.25530 0.40197 0.44116
 H2305 H 1.26230 0.41176 0.35549
 H2306 H 1.22383 0.42866 0.35410
 H2307 H 1.18878 0.44071 0.37353
 H2308 H 1.21782 0.42109 0.43993
 C2309 C 0.78450 0.85874 0.35937
 C2310 C 0.76472 0.87056 0.36654
 C2311 C 0.74894 0.87896 0.34977
 C2312 C 0.75360 0.87585 0.32606
 C2313 C 0.77338 0.86396 0.31906
 C2314 C 0.78875 0.85497 0.33567
 C2315 C 0.72862 0.88990 0.35701
 C2316 C 0.72387 0.89237 0.38079
 C2317 C 0.73994 0.88437 0.39749
 C2318 C 0.76030 0.87364 0.39026
 C2319 C 0.73519 0.88681 0.42121
 C2320 C 0.71442 0.89654 0.42839
 C2321 C 0.69806 0.90405 0.41200
 C2322 C 0.70306 0.90223 0.38817
 H2323 H 0.79652 0.85220 0.37227
 H2324 H 0.74175 0.88225 0.31295
 H2325 H 0.77633 0.86120 0.30069
 H2326 H 0.71636 0.89610 0.34418
 H2327 H 0.77249 0.86727 0.40309
 H2328 H 0.74739 0.88092 0.43422
 H2329 H 0.71110 0.89812 0.44683
 H2330 H 0.69046 0.90776 0.37538
 C2331 C 0.78629 0.38166 0.86229
 C2332 C 0.76759 0.39040 0.87492
 C2333 C 0.76769 0.38915 0.89945
 C2334 C 0.78643 0.37904 0.91092
 C2335 C 0.80456 0.36956 0.89824
 C2336 C 0.80474 0.37048 0.87370
 C2337 C 0.74883 0.39754 0.91208
 C2338 C 0.72952 0.40646 0.90043
 C2339 C 0.72931 0.40730 0.87585
 C2340 C 0.74843 0.39959 0.86329
 C2341 C 0.70981 0.41556 0.86417
 C2342 C 0.69072 0.42305 0.87667
 C2343 C 0.69083 0.42284 0.90115
 C2344 C 0.71034 0.41436 0.91292
 H2345 H 0.78548 0.38207 0.84347
 H2346 H 0.78688 0.37805 0.92973
 H2347 H 0.81873 0.36193 0.90783
 H2348 H 0.74898 0.39666 0.93092
 H2349 H 0.74821 0.40031 0.84444
 H2350 H 0.70925 0.41606 0.84535
 H2351 H 0.67573 0.42888 0.86709
 H2352 H 0.71070 0.41417 0.93176
 C2353 C 0.70364 0.87910 1.11312
 C2354 C 0.72534 0.88967 1.11022
 C2355 C 0.74015 0.89255 1.12960
 C2356 C 0.73290 0.88506 1.15158
 C2357 C 0.71121 0.87486 1.15436
 C2358 C 0.69641 0.87174 1.13521
 C2359 C 0.76198 0.90275 1.12670
 C2360 C 0.76927 0.91006 1.10464
 C2361 C 0.75428 0.90749 1.08533
 C2362 C 0.73243 0.89739 1.08825
 C2363 C 0.76158 0.91462 1.06327
 C2364 C 0.78379 0.92337 1.06016
 C2365 C 0.79908 0.92543 1.07905
 C2366 C 0.79154 0.91928 1.10140
 H2367 H 0.69222 0.87697 1.09831
 H2368 H 0.74399 0.88712 1.16664
 H2369 H 0.70602 0.86920 1.17153
 H2370 H 0.77339 0.90473 1.14155
 H2371 H 0.72107 0.89529 1.07338
 H2372 H 0.75031 0.91289 1.04831
 H2373 H 0.78928 0.92812 1.04281
 H2374 H 0.80333 0.92063 1.11600
 C2375 C 0.71150 0.37547 0.63015
 C2376 C 0.73226 0.37850 0.61799
 C2377 C 0.74627 0.35900 0.61307
 C2378 C 0.73893 0.33671 0.61961
 C2379 C 0.71786 0.33368 0.63074
 C2380 C 0.70379 0.35296 0.63631
 C2381 C 0.76742 0.36204 0.60173
 C2382 C 0.77457 0.38434 0.59476
 C2383 C 0.76000 0.40370 0.59865
 C2384 C 0.73907 0.40070 0.61038
 C2385 C 0.76687 0.42589 0.59123
 C2386 C 0.78848 0.42913 0.58128
 C2387 C 0.80373 0.41030 0.57867
 C2388 C 0.79635 0.38774 0.58466
 H2389 H 0.70082 0.39054 0.63362
 H2390 H 0.74943 0.32155 0.61602
 H2391 H 0.71303 0.31613 0.63577
 H2392 H 0.77837 0.34710 0.59849
 H2393 H 0.72818 0.41566 0.61373
 H2394 H 0.75581 0.44087 0.59374
 H2395 H 0.79372 0.44663 0.57646
 H2396 H 0.80802 0.37315 0.58275
 C2397 C 0.20773 0.87416 0.62495
 C2398 C 0.22749 0.88668 0.61837
 C2399 C 0.22653 0.91124 0.61609
 C2400 C 0.20585 0.92285 0.62083
 C2401 C 0.18632 0.91026 0.62760
 C2402 C 0.18700 0.88582 0.62957
 C2403 C 0.24616 0.92372 0.60894
 C2404 C 0.26674 0.91193 0.60401
 C2405 C 0.26771 0.88740 0.60673
 C2406 C 0.24815 0.87498 0.61393
 C2407 C 0.28815 0.87555 0.60181
 C2408 C 0.30724 0.88770 0.59349
 C2409 C 0.30639 0.91196 0.59002
 C2410 C 0.28622 0.92412 0.59585
 H2411 H 0.20853 0.85534 0.62675
 H2412 H 0.20476 0.94165 0.61923
 H2413 H 0.17051 0.91962 0.63098
 H2414 H 0.24533 0.94252 0.60696
 H2415 H 0.24894 0.85616 0.61579
 H2416 H 0.28924 0.85680 0.60396
 H2417 H 0.32270 0.87804 0.58941
 H2418 H 0.28542 0.94282 0.59314
 C2419 C 0.19483 0.37433 1.11582
 C2420 C 0.21667 0.38378 1.11092
 C2421 C 0.22062 0.40797 1.11363
 C2422 C 0.20284 0.42223 1.12162
 C2423 C 0.18144 0.41266 1.12720
 C2424 C 0.17696 0.38855 1.12444
 C2425 C 0.24232 0.41752 1.10850
 C2426 C 0.26036 0.40308 1.10122
 C2427 C 0.25659 0.37877 1.09915
 C2428 C 0.23475 0.36931 1.10377
 C2429 C 0.27476 0.36428 1.09249
 C2430 C 0.29634 0.37376 1.08750
 C2431 C 0.30021 0.39801 1.08871
 C2432 C 0.28209 0.41255 1.09590
 H2433 H 0.19230 0.35567 1.11412
 H2434 H 0.20551 0.44085 1.12370
 H2435 H 0.16813 0.42451 1.13287
 H2436 H 0.24520 0.43614 1.11036
 H2437 H 0.23189 0.35068 1.10196
 H2438 H 0.27228 0.34557 1.09110
 H2439 H 0.31006 0.36201 1.08263
 H2440 H 0.28469 0.43126 1.09682
 C2441 C 0.70420 1.12353 0.88197
 C2442 C 0.72507 1.11223 0.88692
 C2443 C 0.73889 1.10391 0.86856
 C2444 C 0.73132 1.10642 0.84561
 C2445 C 0.71038 1.11725 0.84080
 C2446 C 0.69648 1.12622 0.85882
 C2447 C 0.76015 1.09342 0.87339
 C2448 C 0.76773 1.09098 0.89641
 C2449 C 0.75355 1.09860 0.91483
 C2450 C 0.73234 1.10917 0.90998
 C2451 C 0.76104 1.09595 0.93783
 C2452 C 0.78276 1.08672 0.94253
 C2453 C 0.79743 1.08001 0.92433
 C2454 C 0.78954 1.08164 0.90128
 H2455 H 0.69367 1.12939 0.89631
 H2456 H 0.74172 1.10020 0.83131
 H2457 H 0.70576 1.11953 0.82271
 H2458 H 0.77090 1.08742 0.85923
 H2459 H 0.72166 1.11531 0.92413
 H2460 H 0.75032 1.10145 0.95218
 H2461 H 0.78830 1.08523 0.96046
 H2462 H 0.80075 1.07665 0.88712
 C2463 C 0.69848 0.60730 0.37828
 C2464 C 0.71963 0.60129 0.38841
 C2465 C 0.73449 0.61905 0.39675
 C2466 C 0.72774 0.64246 0.39528
 C2467 C 0.70658 0.64827 0.38533
 C2468 C 0.69193 0.63080 0.37657
 C2469 C 0.75593 0.61318 0.40622
 C2470 C 0.76267 0.58976 0.40757
 C2471 C 0.74764 0.57195 0.39971
 C2472 C 0.72621 0.57782 0.39015
 C2473 C 0.75444 0.54856 0.40133
 C2474 C 0.77609 0.54289 0.41030
 C2475 C 0.79134 0.56051 0.41774
 C2476 C 0.78439 0.58394 0.41641
 H2477 H 0.68708 0.59376 0.37177
 H2478 H 0.73889 0.65627 0.40164
 H2479 H 0.70185 0.66649 0.38403
 H2480 H 0.76742 0.62682 0.41239
 H2481 H 0.71476 0.56419 0.38389
 H2482 H 0.74308 0.53467 0.39555
 H2483 H 0.78090 0.52469 0.41145
 H2484 H 0.79610 0.59773 0.42170
 C2485 C 0.20903 1.13699 0.38726
 C2486 C 0.22905 1.12545 0.39487
 C2487 C 0.22986 1.10076 0.39471
 C2488 C 0.21073 1.08803 0.38707
 C2489 C 0.19152 1.09955 0.37831
 C2490 C 0.19054 1.12415 0.37772
 C2491 C 0.25003 1.08914 0.40137
 C2492 C 0.26982 1.10185 0.40730
 C2493 C 0.26918 1.12654 0.40721
 C2494 C 0.24872 1.13817 0.40139
 C2495 C 0.28915 1.13919 0.41260
 C2496 C 0.30949 1.12754 0.41822
 C2497 C 0.31024 1.10299 0.41882
 C2498 C 0.29031 1.09025 0.41314
 H2499 H 0.20881 1.15590 0.38670
 H2500 H 0.21097 1.06912 0.38701
 H2501 H 0.17727 1.08908 0.37190
 H2502 H 0.25053 1.07022 0.40124
 H2503 H 0.24831 1.15709 0.40127
 H2504 H 0.28909 1.15810 0.41240
 H2505 H 0.32470 1.13781 0.42214
 H2506 H 0.29063 1.07134 0.41369
 C2507 C 0.19823 0.61687 0.87894
 C2508 C 0.21896 0.61023 0.88964
 C2509 C 0.23550 0.62743 0.89556
 C2510 C 0.23097 0.65094 0.89079
 C2511 C 0.21040 0.65738 0.87998
 C2512 C 0.19385 0.64045 0.87386
 C2513 C 0.25641 0.62083 0.90583
 C2514 C 0.26114 0.59723 0.91003
 C2515 C 0.24457 0.58002 0.90422
 C2516 C 0.22352 0.58664 0.89423
 C2517 C 0.24951 0.55642 0.90817
 C2518 C 0.27082 0.54987 0.91734
 C2519 C 0.28749 0.56680 0.92297
 C2520 C 0.28240 0.59051 0.91952
 H2521 H 0.18552 0.60368 0.87454
 H2522 H 0.24349 0.66434 0.89512
 H2523 H 0.20766 0.67562 0.87595
 H2524 H 0.26913 0.63404 0.91024
 H2525 H 0.21086 0.57343 0.88968
 H2526 H 0.23700 0.54300 0.90387
 H2527 H 0.27433 0.53152 0.92003
 H2528 H 0.29528 0.60367 0.92351
 C2529 C 1.12599 1.30984 1.10996
 C2530 C 1.11507 1.28954 1.10170
 C2531 C 1.09159 1.29028 1.09507
 C2532 C 1.07961 1.31142 1.09627
 C2533 C 1.09050 1.33142 1.10483
 C2534 C 1.11361 1.33073 1.11211
 C2535 C 1.08032 1.26983 1.08780
 C2536 C 1.09220 1.24858 1.08712
 C2537 C 1.11578 1.24791 1.09337
 C2538 C 1.12705 1.26837 1.10062
 C2539 C 1.12773 1.22674 1.09227
 C2540 C 1.11650 1.20647 1.08488
 C2541 C 1.09307 1.20693 1.07880
 C2542 C 1.08092 1.22799 1.08013
 H2543 H 1.14375 1.30914 1.11579
 H2544 H 1.06167 1.31236 1.09115
 H2545 H 1.08070 1.34740 1.10629
 H2546 H 1.06228 1.27041 1.08290
 H2547 H 1.14507 1.26777 1.10562
 H2548 H 1.14580 1.22590 1.09695
 H2549 H 1.12611 1.19033 1.08389
 H2550 H 1.06289 1.22841 1.07517
 C2551 C 1.11022 0.81096 0.61657
 C2552 C 1.10397 0.78902 0.60765
 C2553 C 1.12127 0.77304 0.60117
 C2554 C 1.14450 0.77940 0.60347
 C2555 C 1.15058 0.80113 0.61273
 C2556 C 1.13355 0.81704 0.61966
 C2557 C 1.11509 0.75083 0.59288
 C2558 C 1.09182 0.74430 0.59128
 C2559 C 1.07452 0.76035 0.59766
 C2560 C 1.08070 0.78266 0.60564
 C2561 C 1.05131 0.75370 0.59623
 C2562 C 1.04525 0.73130 0.58872
 C2563 C 1.06227 0.71515 0.58240
 C2564 C 1.08558 0.72187 0.58367
 H2565 H 1.09688 0.82318 0.62142
 H2566 H 1.15799 0.76735 0.59860
 H2567 H 1.16865 0.80516 0.61516
 H2568 H 1.12838 0.73853 0.58802
 H2569 H 1.06741 0.79491 0.61065
 H2570 H 1.03783 0.76579 0.60100
 H2571 H 1.02719 0.72667 0.58762
 H2572 H 1.09889 0.70947 0.57917
 C2573 C 0.64568 1.28309 0.63982
 C2574 C 0.63337 1.26425 0.63046
 C2575 C 0.60924 1.26580 0.62770
 C2576 C 0.59784 1.28618 0.63462
 C2577 C 0.61035 1.30516 0.64338
 C2578 C 0.63443 1.30395 0.64570
 C2579 C 0.59702 1.24721 0.61758
 C2580 C 0.60875 1.22736 0.60971
 C2581 C 0.63291 1.22588 0.61252
 C2582 C 0.64500 1.24419 0.62314
 C2583 C 0.64466 1.20626 0.60430
 C2584 C 0.63265 1.18831 0.59317
 C2585 C 0.60868 1.18958 0.59023
 C2586 C 0.59677 1.20909 0.59873
 H2587 H 0.66416 1.28169 0.64202
 H2588 H 0.57935 1.28770 0.63263
 H2589 H 0.60125 1.32105 0.64758
 H2590 H 0.57851 1.24840 0.61537
 H2591 H 0.66354 1.24308 0.62518
 H2592 H 0.66315 1.20485 0.60635
 H2593 H 0.64209 1.17325 0.58709
 H2594 H 0.57828 1.21023 0.59638
 C2595 C 0.62701 0.79239 1.12815
 C2596 C 0.61778 0.77308 1.11641
 C2597 C 0.61746 0.77270 1.09186
 C2598 C 0.62703 0.79152 1.07952
 C2599 C 0.63626 0.81076 1.09142
 C2600 C 0.63591 0.81153 1.11581
 C2601 C 0.60739 0.75366 1.08014
 C2602 C 0.59775 0.73502 1.09274
 C2603 C 0.59858 0.73534 1.11731
 C2604 C 0.60855 0.75433 1.12896
 C2605 C 0.58935 0.71667 1.12992
 C2606 C 0.57920 0.69784 1.11839
 C2607 C 0.57777 0.69736 1.09397
 C2608 C 0.58722 0.71609 1.08124
 H2609 H 0.62707 0.79267 1.14700
 H2610 H 0.62707 0.79151 1.06069
 H2611 H 0.64304 0.82535 1.08160
 H2612 H 0.60692 0.75342 1.06130
 H2613 H 0.60895 0.75461 1.14781
 H2614 H 0.59007 0.71656 1.14875
 H2615 H 0.57276 0.68346 1.12870
 H2616 H 0.58617 0.71609 1.06244
 C2617 C 0.87820 1.29656 0.86645
 C2618 C 0.88431 1.27472 0.87572
 C2619 C 0.86687 1.25852 0.88175
 C2620 C 0.84372 1.26427 0.87829
 C2621 C 0.83782 1.28606 0.86941
 C2622 C 0.85492 1.30243 0.86365
 C2623 C 0.87277 1.23689 0.89137
 C2624 C 0.89589 1.23121 0.89518
 C2625 C 0.91339 1.24731 0.88913
 C2626 C 0.90749 1.26896 0.87942
 C2627 C 0.93651 1.24142 0.89287
 C2628 C 0.94223 1.21973 0.90228
 C2629 C 0.92495 1.20360 0.90827
 C2630 C 0.90178 1.20955 0.90482
 H2631 H 0.89142 1.30921 0.86212
 H2632 H 0.83016 1.25205 0.88274
 H2633 H 0.81978 1.29026 0.86715
 H2634 H 0.85935 1.22453 0.89598
 H2635 H 0.92091 1.28133 0.87484
 H2636 H 0.95016 1.25353 0.88839
 H2637 H 0.96021 1.21552 0.90494
 H2638 H 0.88837 1.19708 0.90909
 C2639 C 0.85930 0.78273 0.35903
 C2640 C 0.86375 0.76273 0.37234
 C2641 C 0.84696 0.74483 0.37378
 C2642 C 0.82583 0.74750 0.36224
 C2643 C 0.82140 0.76765 0.34935
 C2644 C 0.83814 0.78528 0.34751
 C2645 C 0.85165 0.72452 0.38652
 C2646 C 0.87296 0.72181 0.39775
 C2647 C 0.88950 0.74000 0.39674
 C2648 C 0.88474 0.76036 0.38415
 C2649 C 0.91087 0.73721 0.40771
 C2650 C 0.91631 0.71615 0.41852
 C2651 C 0.90034 0.69772 0.41890
 C2652 C 0.87840 0.70085 0.40913
 H2653 H 0.87209 0.79651 0.35791
 H2654 H 0.81273 0.73403 0.36321
 H2655 H 0.80494 0.76945 0.34063
 H2656 H 0.83892 0.71065 0.38732
 H2657 H 0.89755 0.77413 0.38317
 H2658 H 0.92370 0.75097 0.40719
 H2659 H 0.93334 0.71390 0.42592
 H2660 H 0.86619 0.68649 0.40915
 C2661 C 0.38924 1.30433 0.37898
 C2662 C 0.39512 1.28201 0.38722
 C2663 C 0.37754 1.26558 0.39210
 C2664 C 0.35448 1.27157 0.38839
 C2665 C 0.34879 1.29379 0.38044
 C2666 C 0.36602 1.31045 0.37594
 C2667 C 0.38321 1.24350 0.40082
 C2668 C 0.40625 1.23753 0.40479
 C2669 C 0.42390 1.25382 0.39974
 C2670 C 0.41823 1.27596 0.39101
 C2671 C 0.44694 1.24763 0.40349
 C2672 C 0.45246 1.22549 0.41198
 C2673 C 0.43504 1.20923 0.41710
 C2674 C 0.41193 1.21544 0.41359
 H2675 H 0.40260 1.31715 0.37567
 H2676 H 0.34081 1.25916 0.39191
 H2677 H 0.33080 1.29808 0.37793
 H2678 H 0.36967 1.23099 0.40462
 H2679 H 0.43176 1.28847 0.38725
 H2680 H 0.46071 1.25985 0.39973
 H2681 H 0.47039 1.22106 0.41466
 H2682 H 0.39842 1.20286 0.41720
 C2683 C 0.36364 0.79746 0.88477
 C2684 C 0.37345 0.77706 0.89417
 C2685 C 0.39730 0.77651 0.89931
 C2686 C 0.41076 0.79648 0.89569
 C2687 C 0.40097 0.81651 0.88618
 C2688 C 0.37750 0.81708 0.88013
 C2689 C 0.40746 0.75590 0.90749
 C2690 C 0.39416 0.73571 0.91060
 C2691 C 0.37021 0.73633 0.90609
 C2692 C 0.36000 0.75699 0.89790
 C2693 C 0.35691 0.71618 0.90965
 C2694 C 0.36726 0.69557 0.91736
 C2695 C 0.39111 0.69464 0.92140
 C2696 C 0.40447 0.71483 0.91802
 H2697 H 0.34555 0.79772 0.88008
 H2698 H 0.42900 0.79643 0.89972
 H2699 H 0.41191 0.83152 0.88304
 H2700 H 0.42580 0.75549 0.91111
 H2701 H 0.34170 0.75735 0.89413
 H2702 H 0.33853 0.71632 0.90638
 H2703 H 0.35667 0.68018 0.91981
 H2704 H 0.42284 0.71429 0.92138
 C2705 C 1.12577 0.70421 0.88435
 C2706 C 1.11546 0.72571 0.88949
 C2707 C 1.10937 0.74104 0.87122
 C2708 C 1.11346 0.73452 0.84815
 C2709 C 1.12367 0.71310 0.84319
 C2710 C 1.13000 0.69780 0.86119
 C2711 C 1.09953 0.76274 0.87628
 C2712 C 1.09581 0.76940 0.89940
 C2713 C 1.10164 0.75397 0.91767
 C2714 C 1.11133 0.73218 0.91260
 C2715 C 1.09802 0.76076 0.94077
 C2716 C 1.08928 0.78285 0.94575
 C2717 C 1.08385 0.79849 0.92774
 C2718 C 1.08682 0.79149 0.90456
 H2719 H 1.13038 0.69240 0.89832
 H2720 H 1.10893 0.74606 0.83394
 H2721 H 1.12700 0.70865 0.82522
 H2722 H 1.09504 0.77456 0.86226
 H2723 H 1.11594 0.72043 0.92663
 H2724 H 1.10228 0.74913 0.95498
 H2725 H 1.08688 0.78781 0.96374
 H2726 H 1.08292 0.80354 0.89058
 C2727 C 1.14270 0.20645 0.37785
 C2728 C 1.13055 0.22636 0.38515
 C2729 C 1.10621 0.22585 0.38589
 C2730 C 1.09444 0.20550 0.37929
 C2731 C 1.10661 0.18595 0.37172
 C2732 C 1.13078 0.18622 0.37084
 C2733 C 1.09400 0.24571 0.39304
 C2734 C 1.10578 0.26621 0.39930
 C2735 C 1.13011 0.26676 0.39840
 C2736 C 1.14233 0.24686 0.39141
 C2737 C 1.14187 0.28725 0.40453
 C2738 C 1.12972 0.30692 0.41177
 C2739 C 1.10554 0.30658 0.41311
 C2740 C 1.09365 0.28615 0.40657
 H2741 H 1.16134 0.20688 0.37700
 H2742 H 1.07581 0.20476 0.37975
 H2743 H 1.09709 0.17050 0.36652
 H2744 H 1.07534 0.24522 0.39366
 H2745 H 1.16099 0.24736 0.39076
 H2746 H 1.16049 0.28806 0.40380
 H2747 H 1.13931 0.32253 0.41630
 H2748 H 1.07503 0.28560 0.40765
 C2749 C 0.61497 0.69831 0.36382
 C2750 C 0.60512 0.71737 0.37540
 C2751 C 0.60004 0.71570 0.39938
 C2752 C 0.60435 0.69477 0.41120
 C2753 C 0.61458 0.67607 0.39966
 C2754 C 0.62034 0.67782 0.37602
 C2755 C 0.59137 0.73514 0.41129
 C2756 C 0.58800 0.75634 0.39960
 C2757 C 0.59272 0.75786 0.37553
 C2758 C 0.60113 0.73836 0.36358
 C2759 C 0.58922 0.77898 0.36383
 C2760 C 0.58122 0.79847 0.37583
 C2761 C 0.57666 0.79726 0.39977
 C2762 C 0.58013 0.77612 0.41161
 H2763 H 0.61967 0.69987 0.34566
 H2764 H 0.60049 0.69313 0.42954
 H2765 H 0.61858 0.66038 0.40933
 H2766 H 0.58770 0.73390 0.42972
 H2767 H 0.60500 0.73967 0.34520
 H2768 H 0.59277 0.78047 0.34541
 H2769 H 0.57883 0.81466 0.36642
 H2770 H 0.57645 0.77505 0.43004
 C2771 C 0.63333 0.20947 0.86470
 C2772 C 0.62616 0.22876 0.87779
 C2773 C 0.62493 0.22711 0.90228
 C2774 C 0.63130 0.20622 0.91324
 C2775 C 0.63860 0.18711 0.90005
 C2776 C 0.63949 0.18850 0.87568
 C2777 C 0.61721 0.24627 0.91534
 C2778 C 0.61063 0.26703 0.90418
 C2779 C 0.61227 0.26868 0.87969
 C2780 C 0.62008 0.24961 0.86670
 C2781 C 0.60569 0.28928 0.86846
 C2782 C 0.59686 0.30785 0.88122
 C2783 C 0.59453 0.30630 0.90547
 C2784 C 0.60193 0.28600 0.91697
 H2785 H 0.63434 0.21082 0.84593
 H2786 H 0.63054 0.20461 0.93198
 H2787 H 0.64324 0.17111 0.90888
 H2788 H 0.61605 0.24493 0.93410
 H2789 H 0.62112 0.25090 0.84792
 H2790 H 0.60699 0.29089 0.84974
 H2791 H 0.59156 0.32347 0.87206
 H2792 H 0.60011 0.28466 0.93567
 C2793 C 0.87355 0.71092 1.13154
 C2794 C 0.88057 0.73232 1.12200
 C2795 C 0.86397 0.74953 1.11675
 C2796 C 0.84066 0.74505 1.12114
 C2797 C 0.83385 0.72383 1.13091
 C2798 C 0.85018 0.70656 1.13628
 C2799 C 0.87092 0.77102 1.10742
 C2800 C 0.89431 0.77565 1.10353
 C2801 C 0.91095 0.75848 1.10886
 C2802 C 0.90396 0.73687 1.11791
 C2803 C 0.93434 0.76332 1.10526
 C2804 C 0.94122 0.78501 1.09659
 C2805 C 0.92483 0.80216 1.09118
 C2806 C 0.90136 0.79730 1.09462
 H2807 H 0.88631 0.69767 1.13529
 H2808 H 0.82772 0.75808 1.11732
 H2809 H 0.81580 0.72117 1.13474
 H2810 H 0.85816 0.78422 1.10341
 H2811 H 0.91673 0.72372 1.12201
 H2812 H 0.94732 0.75038 1.10925
 H2813 H 0.95938 0.78833 1.09389
 H2814 H 0.88862 0.81055 1.09080
 C2815 C 0.89446 0.18835 0.61221
 C2816 C 0.90000 0.21066 0.60381
 C2817 C 0.88217 0.22612 0.59737
 C2818 C 0.85918 0.21886 0.59901
 C2819 C 0.85381 0.19688 0.60793
 C2820 C 0.87132 0.18151 0.61502
 C2821 C 0.88753 0.24879 0.59002
 C2822 C 0.91050 0.25637 0.58938
 C2823 C 0.92839 0.24088 0.59556
 C2824 C 0.92304 0.21804 0.60255
 C2825 C 0.95130 0.24865 0.59498
 C2826 C 0.95644 0.27159 0.58850
 C2827 C 0.93876 0.28717 0.58245
 C2828 C 0.91579 0.27934 0.58296
 H2829 H 0.90817 0.17659 0.61726
 H2830 H 0.84532 0.23051 0.59415
 H2831 H 0.83585 0.19238 0.61023
 H2832 H 0.87382 0.26070 0.58527
 H2833 H 0.93674 0.20621 0.60751
 H2834 H 0.96525 0.23700 0.59959
 H2835 H 0.97428 0.27708 0.58795
 H2836 H 0.90195 0.29127 0.57873
 C2837 C 0.37566 0.70647 0.62613
 C2838 C 0.38098 0.72779 0.61535
 C2839 C 0.36362 0.74480 0.61235
 C2840 C 0.34121 0.74012 0.62004
 C2841 C 0.33601 0.71876 0.63049
 C2842 C 0.35314 0.70178 0.63363
 C2843 C 0.36892 0.76621 0.60178
 C2844 C 0.39139 0.77088 0.59420
 C2845 C 0.40868 0.75375 0.59699
 C2846 C 0.40336 0.73232 0.60748
 C2847 C 0.43116 0.75850 0.58962
 C2848 C 0.43667 0.78027 0.58026
 C2849 C 0.41977 0.79759 0.57787
 C2850 C 0.39701 0.79262 0.58442
 H2851 H 0.38889 0.69333 0.62827
 H2852 H 0.32769 0.75293 0.61790
 H2853 H 0.31857 0.71550 0.63625
 H2854 H 0.35563 0.77930 0.59966
 H2855 H 0.41667 0.71928 0.60971
 H2856 H 0.44460 0.74557 0.59153
 H2857 H 0.45429 0.78375 0.57519
 H2858 H 0.38396 0.80602 0.58282
 C2859 C 0.38905 0.19152 1.12807
 C2860 C 0.39757 0.21170 1.11720
 C2861 C 0.40193 0.21153 1.09303
 C2862 C 0.39815 0.19103 1.08027
 C2863 C 0.38964 0.17104 1.09121
 C2864 C 0.38473 0.17113 1.11513
 C2865 C 0.40974 0.23191 1.08199
 C2866 C 0.41332 0.25244 1.09483
 C2867 C 0.40933 0.25245 1.11908
 C2868 C 0.40142 0.23212 1.13008
 C2869 C 0.41326 0.27283 1.13197
 C2870 C 0.42106 0.29305 1.12098
 C2871 C 0.42486 0.29335 1.09688
 C2872 C 0.42087 0.27299 1.08385
 H2873 H 0.38504 0.19196 1.14644
 H2874 H 0.40153 0.19052 1.06177
 H2875 H 0.38674 0.15548 1.08089
 H2876 H 0.41291 0.23181 1.06342
 H2877 H 0.39817 0.23225 1.14863
 H2878 H 0.41032 0.27314 1.15055
 H2879 H 0.42389 0.30863 1.13129
 H2880 H 0.42397 0.27308 1.06528
 C2881 C 1.12599 1.12126 0.69786
 C2882 C 1.12067 1.11027 0.71899
 C2883 C 1.13838 1.10564 0.73528
 C2884 C 1.16116 1.11164 0.72992
 C2885 C 1.16632 1.12251 0.70883
 C2886 C 1.14880 1.12764 0.69272
 C2887 C 1.13301 1.09544 0.75677
 C2888 C 1.11011 1.08993 0.76226
 C2889 C 1.09248 1.09412 0.74576
 C2890 C 1.09788 1.10416 0.72422
 C2891 C 1.06963 1.08863 0.75126
 C2892 C 1.06415 1.07979 0.77316
 C2893 C 1.08140 1.07618 0.78998
 C2894 C 1.10446 1.08085 0.78421
 H2895 H 1.11240 1.12491 0.68542
 H2896 H 1.17496 1.10820 0.74216
 H2897 H 1.18398 1.12743 0.70535
 H2898 H 1.14657 1.09217 0.76935
 H2899 H 1.08429 1.10761 0.71171
 H2900 H 1.05592 1.09157 0.73878
 H2901 H 1.04630 1.07599 0.77707
 H2902 H 1.11788 1.07832 0.79711
 C2903 C 1.11952 0.63474 0.20694
 C2904 C 1.11257 0.62306 0.22710
 C2905 C 1.12923 0.61277 0.24177
 C2906 C 1.15246 0.61330 0.23538
 C2907 C 1.15920 0.62434 0.21485
 C2908 C 1.14293 0.63575 0.20061
 C2909 C 1.12240 0.60220 0.26260
 C2910 C 1.09903 0.60128 0.26860
 C2911 C 1.08229 0.61050 0.25330
 C2912 C 1.08917 0.62154 0.23276
 C2913 C 1.05893 0.60872 0.25891
 C2914 C 1.05220 0.59844 0.27979
 C2915 C 1.06872 0.59019 0.29574
 C2916 C 1.09218 0.59149 0.28980
 H2917 H 1.10647 0.64231 0.19576
 H2918 H 1.16545 0.60534 0.24634
 H2919 H 1.17740 0.62496 0.21090
 H2920 H 1.13523 0.59474 0.27414
 H2921 H 1.07634 0.62905 0.22126
 H2922 H 1.04585 0.61534 0.24719
 H2923 H 1.03399 0.59708 0.28347
 H2924 H 1.10523 0.58555 0.30189
 C2925 C 0.62500 1.11570 0.19616
 C2926 C 0.61538 1.11112 0.21803
 C2927 C 0.61180 1.12966 0.23384
 C2928 C 0.61765 1.15249 0.22734
 C2929 C 0.62720 1.15690 0.20553
 C2930 C 0.63111 1.13857 0.18979
 C2931 C 0.60272 1.12504 0.25594
 C2932 C 0.59732 1.10208 0.26251
 C2933 C 0.60063 1.08361 0.24655
 C2934 C 0.60952 1.08826 0.22440
 C2935 C 0.59537 1.06069 0.25314
 C2936 C 0.58746 1.05598 0.27552
 C2937 C 0.58454 1.07409 0.29172
 C2938 C 0.58913 1.09721 0.28495
 H2939 H 0.62769 1.10148 0.18404
 H2940 H 0.61505 1.16691 0.23922
 H2941 H 0.63197 1.17464 0.20112
 H2942 H 0.60016 1.13924 0.26812
 H2943 H 0.61220 1.07404 0.21227
 H2944 H 0.59769 1.04635 0.24110
 H2945 H 0.58374 1.03807 0.28026
 H2946 H 0.58710 1.11126 0.29738
 C2947 C 0.62032 0.63772 0.71200
 C2948 C 0.61195 0.62955 0.73342
 C2949 C 0.62715 0.62750 0.75260
 C2950 C 0.65020 0.63429 0.75027
 C2951 C 0.65841 0.64214 0.72891
 C2952 C 0.64373 0.64346 0.70948
 C2953 C 0.61926 0.61820 0.77364
 C2954 C 0.59637 0.61077 0.77580
 C2955 C 0.58095 0.61334 0.75689
 C2956 C 0.58883 0.62274 0.73581
 C2957 C 0.55795 0.60623 0.75934
 C2958 C 0.55038 0.59642 0.78022
 C2959 C 0.56574 0.59330 0.79887
 C2960 C 0.58870 0.60063 0.79657
 H2961 H 0.60892 0.63857 0.69705
 H2962 H 0.66203 0.63302 0.76483
 H2963 H 0.67644 0.64677 0.72742
 H2964 H 0.63103 0.61638 0.78821
 H2965 H 0.57710 0.62440 0.72120
 H2966 H 0.54585 0.60816 0.74509
 H2967 H 0.53260 0.59091 0.78172
 H2968 H 0.60052 0.59860 0.81107
 C2969 C 0.87449 0.88073 0.70279
 C2970 C 0.88628 0.88697 0.72323
 C2971 C 0.91011 0.89212 0.72240
 C2972 C 0.92172 0.89087 0.70113
 C2973 C 0.90994 0.88423 0.68095
 C2974 C 0.88629 0.87907 0.68163
 C2975 C 0.92194 0.89829 0.74284
 C2976 C 0.91027 0.89932 0.76412
 C2977 C 0.88647 0.89396 0.76491
 C2978 C 0.87466 0.88782 0.74450
 C2979 C 0.87476 0.89514 0.78610
 C2980 C 0.88630 0.90223 0.80621
 C2981 C 0.90980 0.90805 0.80557
 C2982 C 0.92186 0.90611 0.78455
 H2983 H 0.85631 0.87641 0.70344
 H2984 H 0.93996 0.89473 0.70014
 H2985 H 0.91932 0.88299 0.66477
 H2986 H 0.94018 0.90235 0.74217
 H2987 H 0.85641 0.88379 0.74516
 H2988 H 0.85657 0.89101 0.78705
 H2989 H 0.87678 0.90354 0.82230
 H2990 H 0.93994 0.91079 0.78396
 C2991 C 0.87593 0.37856 0.19926
 C2992 C 0.88874 0.38296 0.21954
 C2993 C 0.91252 0.38816 0.21798
 C2994 C 0.92316 0.38829 0.19613
 C2995 C 0.91035 0.38340 0.17606
 C2996 C 0.88666 0.37874 0.17748
 C2997 C 0.92519 0.39326 0.23823
 C2998 C 0.91438 0.39318 0.26002
 C2999 C 0.89073 0.38732 0.26153
 C3000 C 0.87811 0.38224 0.24133
 C3001 C 0.87988 0.38720 0.28321
 C3002 C 0.89199 0.39388 0.30309
 C3003 C 0.91522 0.40063 0.30174
 C3004 C 0.92658 0.39960 0.28026
 H3005 H 0.85770 0.37459 0.20039
 H3006 H 0.94137 0.39210 0.19457
 H3007 H 0.91888 0.38343 0.15935
 H3008 H 0.94333 0.39760 0.23699
 H3009 H 0.85992 0.37805 0.24255
 H3010 H 0.86183 0.38259 0.28470
 H3011 H 0.88302 0.39446 0.31955
 H3012 H 0.94446 0.40495 0.27913
 C3013 C 0.35085 0.86369 0.21629
 C3014 C 0.36361 0.87188 0.23550
 C3015 C 0.37214 0.85582 0.25208
 C3016 C 0.36797 0.83192 0.24908
 C3017 C 0.35536 0.82394 0.22995
 C3018 C 0.34663 0.83966 0.21337
 C3019 C 0.38455 0.86389 0.27148
 C3020 C 0.38857 0.88784 0.27460
 C3021 C 0.38027 0.90390 0.25793
 C3022 C 0.36788 0.89583 0.23848
 C3023 C 0.38431 0.92783 0.26114
 C3024 C 0.39610 0.93581 0.28084
 C3025 C 0.40417 0.92005 0.29773
 C3026 C 0.40050 0.89600 0.29432
 H3027 H 0.34436 0.87597 0.20354
 H3028 H 0.37431 0.81938 0.26164
 H3029 H 0.35206 0.80540 0.22833
 H3030 H 0.39093 0.85153 0.28423
 H3031 H 0.36142 0.90819 0.22578
 H3032 H 0.37818 0.94040 0.24850
 H3033 H 0.39894 0.95438 0.28288
 H3034 H 0.40635 0.88367 0.30732
 C3035 C 0.36533 0.35408 0.71127
 C3036 C 0.37387 0.36726 0.73006
 C3037 C 0.37639 0.39172 0.72785
 C3038 C 0.37050 0.40254 0.70681
 C3039 C 0.36171 0.38936 0.68834
 C3040 C 0.35887 0.36508 0.69043
 C3041 C 0.38452 0.40500 0.74674
 C3042 C 0.39012 0.39414 0.76788
 C3043 C 0.38762 0.36966 0.77003
 C3044 C 0.37952 0.35640 0.75115
 C3045 C 0.39337 0.35875 0.79103
 C3046 C 0.40188 0.37186 0.80963
 C3047 C 0.40468 0.39615 0.80771
 C3048 C 0.39843 0.40729 0.78686
 H3049 H 0.36290 0.33540 0.71314
 H3050 H 0.37235 0.42125 0.70475
 H3051 H 0.35691 0.39817 0.67240
 H3052 H 0.38642 0.42376 0.74501
 H3053 H 0.37758 0.33765 0.75290
 H3054 H 0.39150 0.34004 0.79301
 H3055 H 0.40641 0.36296 0.82561
 H3056 H 0.40069 0.42600 0.78521
 C3057 C 1.13265 0.88747 1.30135
 C3058 C 1.12109 0.89436 1.28093
 C3059 C 1.09701 0.89121 1.27899
 C3060 C 1.08497 0.88077 1.29725
 C3061 C 1.09664 0.87305 1.31703
 C3062 C 1.12068 0.87616 1.31947
 C3063 C 1.08538 0.89821 1.25872
 C3064 C 1.09763 0.90765 1.23996
 C3065 C 1.12182 0.91009 1.24161
 C3066 C 1.13334 0.90376 1.26215
 C3067 C 1.13416 0.91871 1.22262
 C3068 C 1.12267 0.92527 1.20232
 C3069 C 1.09849 0.92384 1.20065
 C3070 C 1.08610 0.91466 1.21956
 H3071 H 1.15117 0.88959 1.30235
 H3072 H 1.06649 0.87827 1.29613
 H3073 H 1.08655 0.86525 1.33078
 H3074 H 1.06686 0.89602 1.25743
 H3075 H 1.15187 0.90587 1.26340
 H3076 H 1.15273 0.92036 1.22342
 H3077 H 1.13283 0.93152 1.18787
 H3078 H 1.06750 0.91343 1.21862
 C3079 C 1.12870 0.39000 0.80143
 C3080 C 1.11740 0.39641 0.78083
 C3081 C 1.09361 0.39194 0.77817
 C3082 C 1.08160 0.38079 0.79608
 C3083 C 1.09309 0.37382 0.81629
 C3084 C 1.11684 0.37832 0.81938
 C3085 C 1.08231 0.39843 0.75755
 C3086 C 1.09467 0.40882 0.73935
 C3087 C 1.11860 0.41276 0.74190
 C3088 C 1.12975 0.40675 0.76266
 C3089 C 1.13108 0.42257 0.72357
 C3090 C 1.11997 0.42871 0.70297
 C3091 C 1.09606 0.42549 0.70034
 C3092 C 1.08354 0.41531 0.71862
 H3093 H 1.14709 0.39291 0.80267
 H3094 H 1.06333 0.37727 0.79439
 H3095 H 1.08305 0.36553 0.82979
 H3096 H 1.06400 0.39516 0.75558
 H3097 H 1.14808 0.40993 0.76459
 H3098 H 1.14947 0.42545 0.72514
 H3099 H 1.13018 0.43592 0.68899
 H3100 H 1.06511 0.41281 0.71689
 C3101 C 0.64559 0.86208 0.78499
 C3102 C 0.63198 0.87086 0.76672
 C3103 C 0.60873 0.87682 0.77081
 C3104 C 0.59949 0.87385 0.79310
 C3105 C 0.61300 0.86463 0.81102
 C3106 C 0.63608 0.85860 0.80712
 C3107 C 0.59503 0.88540 0.75252
 C3108 C 0.60425 0.88796 0.73013
 C3109 C 0.62747 0.88179 0.72609
 C3110 C 0.64115 0.87333 0.74436
 C3111 C 0.63676 0.88437 0.70381
 C3112 C 0.62343 0.89358 0.68584
 C3113 C 0.60049 0.90024 0.68967
 C3114 C 0.59080 0.89697 0.71178
 H3115 H 0.66328 0.85709 0.78180
 H3116 H 0.58172 0.87828 0.79658
 H3117 H 0.60536 0.86195 0.82796
 H3118 H 0.57724 0.89006 0.75571
 H3119 H 0.65895 0.86866 0.74118
 H3120 H 0.65446 0.87963 0.70037
 H3121 H 0.63115 0.89584 0.66888
 H3122 H 0.57316 0.90222 0.71487
 C3123 C 0.63247 0.38328 1.30142
 C3124 C 0.62099 0.38918 1.28073
 C3125 C 0.59688 0.38635 1.27903
 C3126 C 0.58474 0.37711 1.29788
 C3127 C 0.59632 0.37070 1.31822
 C3128 C 0.62038 0.37380 1.32049
 C3129 C 0.58532 0.39271 1.25850
 C3130 C 0.59767 0.40147 1.23945
 C3131 C 0.62189 0.40361 1.24097
 C3132 C 0.63336 0.39763 1.26160
 C3133 C 0.63430 0.41179 1.22182
 C3134 C 0.62285 0.41828 1.20150
 C3135 C 0.59868 0.41704 1.19993
 C3136 C 0.58621 0.40826 1.21897
 H3137 H 0.65103 0.38505 1.30207
 H3138 H 0.56623 0.37484 1.29693
 H3139 H 0.58608 0.36421 1.33252
 H3140 H 0.56677 0.39079 1.25733
 H3141 H 0.65191 0.39954 1.26276
 H3142 H 0.65290 0.41325 1.22257
 H3143 H 0.63300 0.42432 1.18694
 H3144 H 0.56759 0.40725 1.21807
 C3145 C 0.89123 1.11966 1.30319
 C3146 C 0.89536 1.11260 1.28018
 C3147 C 0.87671 1.11006 1.26450
 C3148 C 0.85431 1.11483 1.27199
 C3149 C 0.85037 1.12205 1.29479
 C3150 C 0.86870 1.12442 1.31071
 C3151 C 0.88071 1.10297 1.24153
 C3152 C 0.90318 1.09865 1.23391
 C3153 C 0.92189 1.10137 1.24951
 C3154 C 0.91785 1.10816 1.27258
 C3155 C 0.94437 1.09745 1.24170
 C3156 C 0.94832 1.09109 1.21862
 C3157 C 0.92985 1.08827 1.20300
 C3158 C 0.90728 1.09190 1.21083
 H3159 H 0.90551 1.12124 1.31527
 H3160 H 0.83984 1.11317 1.26015
 H3161 H 0.83291 1.12611 1.29985
 H3162 H 0.86636 1.10101 1.22955
 H3163 H 0.93221 1.11019 1.28454
 H3164 H 0.95892 1.09944 1.25339
 H3165 H 0.96584 1.08820 1.21296
 H3166 H 0.89298 1.08999 1.19880
 C3167 C 0.85867 0.62666 0.79254
 C3168 C 0.87150 0.61762 0.77399
 C3169 C 0.89538 0.61376 0.77677
 C3170 C 0.90591 0.61856 0.79820
 C3171 C 0.89298 0.62733 0.81664
 C3172 C 0.86929 0.63171 0.81398
 C3173 C 0.90834 0.60518 0.75810
 C3174 C 0.89765 0.60010 0.73678
 C3175 C 0.87366 0.60356 0.73417
 C3176 C 0.86080 0.61247 0.75270
 C3177 C 0.86289 0.59790 0.71306
 C3178 C 0.87569 0.58877 0.69474
 C3179 C 0.89953 0.58549 0.69707
 C3180 C 0.91049 0.59136 0.71806
 H3181 H 0.84050 0.63019 0.79009
 H3182 H 0.92415 0.61552 0.80071
 H3183 H 0.90157 0.63062 0.83306
 H3184 H 0.92668 0.60236 0.76021
 H3185 H 0.84244 0.61527 0.75060
 H3186 H 0.84453 0.60038 0.71078
 H3187 H 0.86702 0.58439 0.67861
 H3188 H 0.92887 0.58864 0.71993
 C3189 C 0.38264 1.12442 0.79197
 C3190 C 0.39090 1.11278 0.77233
 C3191 C 0.39248 1.08817 0.77237
 C3192 C 0.38581 1.07566 0.79218
 C3193 C 0.37796 1.08744 0.81187
 C3194 C 0.37638 1.11194 0.81202
 C3195 C 0.40089 1.07654 0.75272
 C3196 C 0.40805 1.08927 0.73319
 C3197 C 0.40656 1.11392 0.73329
 C3198 C 0.39782 1.12548 0.75276
 C3199 C 0.41402 1.12666 0.71395
 C3200 C 0.42308 1.11514 0.69474
 C3201 C 0.42468 1.09068 0.69444
 C3202 C 0.41694 1.07780 0.71366
 H3203 H 0.38102 1.14325 0.79157
 H3204 H 0.38693 1.05680 0.79255
 H3205 H 0.37346 1.07736 0.82711
 H3206 H 0.40209 1.05765 0.75272
 H3207 H 0.39671 1.14438 0.75281
 H3208 H 0.41295 1.14553 0.71371
 H3209 H 0.42870 1.12535 0.67996
 H3210 H 0.41828 1.05893 0.71356
 C3211 C 0.35515 0.63321 1.28570
 C3212 C 0.36799 0.62519 1.26670
 C3213 C 0.37513 0.64111 1.24934
 C3214 C 0.36968 0.66482 1.25155
 C3215 C 0.35708 0.67267 1.27061
 C3216 C 0.34955 0.65695 1.28774
 C3217 C 0.38739 0.63306 1.22999
 C3218 C 0.39263 0.60928 1.22775
 C3219 C 0.38590 0.59345 1.24534
 C3220 C 0.37365 0.60151 1.26470
 C3221 C 0.39121 0.56973 1.24309
 C3222 C 0.40251 0.56162 1.22331
 C3223 C 0.40875 0.57706 1.20540
 C3224 C 0.40408 0.60099 1.20795
 H3225 H 0.34961 0.62103 1.29899
 H3226 H 0.37504 0.67726 1.23845
 H3227 H 0.35280 0.69102 1.27178
 H3228 H 0.39262 0.64523 1.21656
 H3229 H 0.36829 0.58931 1.27805
 H3230 H 0.38634 0.55739 1.25647
 H3231 H 0.40621 0.54317 1.22191
 H3232 H 0.40857 0.61304 1.19416
 C3233 C 1.10780 1.30862 0.88174
 C3234 C 1.10397 1.28573 0.88956
 C3235 C 1.12296 1.27101 0.89420
 C3236 C 1.14537 1.27934 0.89100
 C3237 C 1.14902 1.30199 0.88309
 C3238 C 1.13035 1.31687 0.87842
 C3239 C 1.11930 1.24808 0.90167
 C3240 C 1.09689 1.23952 0.90437
 C3241 C 1.07784 1.25416 0.89983
 C3242 C 1.08150 1.27724 0.89258
 C3243 C 1.05546 1.24533 0.90236
 C3244 C 1.05201 1.22214 0.90900
 C3245 C 1.07089 1.20747 0.91337
 C3246 C 1.09329 1.21636 0.91120
 H3247 H 1.09331 1.31998 0.87828
 H3248 H 1.16008 1.26824 0.89434
 H3249 H 1.16655 1.30774 0.88018
 H3250 H 1.13389 1.23681 0.90512
 H3251 H 1.06691 1.28847 0.88902
 H3252 H 1.04064 1.25628 0.89902
 H3253 H 1.03458 1.21566 0.91081
 H3254 H 1.10793 1.20506 0.91423
 C3255 C 1.10583 0.80780 0.38064
 C3256 C 1.09957 0.78561 0.38883
 C3257 C 1.11689 0.76959 0.39540
 C3258 C 1.14010 0.77601 0.39374
 C3259 C 1.14617 0.79804 0.38547
 C3260 C 1.12917 0.81414 0.37881
 C3261 C 1.11078 0.74736 0.40340
 C3262 C 1.08757 0.74087 0.40489
 C3263 C 1.07019 0.75682 0.39837
 C3264 C 1.07630 0.77913 0.39041
 C3265 C 1.04700 0.75010 0.39985
 C3266 C 1.04110 0.72781 0.40775
 C3267 C 1.05829 0.71190 0.41434
 C3268 C 1.08151 0.71858 0.41276
 H3269 H 1.09257 0.82015 0.37577
 H3270 H 1.15357 0.76391 0.39863
 H3271 H 1.16427 0.80232 0.38385
 H3272 H 1.12409 0.73509 0.40840
 H3273 H 1.06299 0.79138 0.38537
 H3274 H 1.03344 0.76209 0.39495
 H3275 H 1.02308 0.72309 0.40900
 H3276 H 1.09492 0.70630 0.41740
 C3277 C 0.62251 1.30071 0.37448
 C3278 C 0.61848 1.27946 0.38581
 C3279 C 0.62006 1.27814 0.41028
 C3280 C 0.62640 1.29804 0.42294
 C3281 C 0.63144 1.31893 0.41145
 C3282 C 0.62943 1.32066 0.38705
 C3283 C 0.61548 1.25692 0.42161
 C3284 C 0.60995 1.23688 0.40867
 C3285 C 0.60940 1.23812 0.38409
 C3286 C 0.61342 1.25939 0.37287
 C3287 C 0.60453 1.21809 0.37106
 C3288 C 0.59921 1.19723 0.38220
 C3289 C 0.59841 1.19599 0.40660
 C3290 C 0.60449 1.21573 0.41980
 H3291 H 0.62175 1.30116 0.35566
 H3292 H 0.62776 1.29739 0.44172
 H3293 H 0.63627 1.33394 0.42185
 H3294 H 0.61626 1.25600 0.44043
 H3295 H 0.61263 1.26031 0.35405
 H3296 H 0.60440 1.21867 0.35223
 H3297 H 0.59507 1.18209 0.37169
 H3298 H 0.60394 1.21491 0.43862
 C3299 C 0.62067 0.78944 0.86789
 C3300 C 0.61219 0.76869 0.87765
 C3301 C 0.62736 0.74988 0.88179
 C3302 C 0.65062 0.75200 0.87583
 C3303 C 0.65887 0.77262 0.86600
 C3304 C 0.64408 0.79161 0.86208
 C3305 C 0.61909 0.72925 0.89181
 C3306 C 0.59579 0.72707 0.89763
 C3307 C 0.58049 0.74571 0.89324
 C3308 C 0.58881 0.76647 0.88338
 C3309 C 0.55710 0.74320 0.89874
 C3310 C 0.54896 0.72243 0.90850
 C3311 C 0.56414 0.70398 0.91317
 C3312 C 0.58753 0.70643 0.90766
 H3313 H 0.60912 0.80402 0.86517
 H3314 H 0.66243 0.73769 0.87872
 H3315 H 0.67687 0.77362 0.86126
 H3316 H 0.63078 0.71487 0.89507
 H3317 H 0.57712 0.78083 0.88011
 H3318 H 0.54510 0.75727 0.89545
 H3319 H 0.53086 0.72083 0.91266
 H3320 H 0.59925 0.69208 0.91086
 C3321 C 0.88065 1.30697 1.12210
 C3322 C 0.88593 1.28648 1.11001
 C3323 C 0.88345 1.28562 1.08561
 C3324 C 0.87468 1.30511 1.07385
 C3325 C 0.86868 1.32529 1.08612
 C3326 C 0.87203 1.32675 1.11041
 C3327 C 0.88982 1.26536 1.07345
 C3328 C 0.89819 1.24581 1.08555
 C3329 C 0.89952 1.24647 1.11011
 C3330 C 0.89356 1.26678 1.12212
 C3331 C 0.90711 1.22688 1.12236
 C3332 C 0.91428 1.20709 1.11045
 C3333 C 0.91438 1.20653 1.08599
 C3334 C 0.90566 1.22577 1.07359
 H3335 H 0.88234 1.30703 1.14087
 H3336 H 0.87251 1.30478 1.05514
 H3337 H 0.86245 1.34010 1.07630
 H3338 H 0.88840 1.26485 1.05465
 H3339 H 0.89505 1.26731 1.14092
 H3340 H 0.90782 1.22697 1.14119
 H3341 H 0.92015 1.19225 1.12046
 H3342 H 0.90550 1.22549 1.05476
 C3343 C 0.86803 0.80100 0.61362
 C3344 C 0.87785 0.78017 0.60556
 C3345 C 0.90182 0.77913 0.60139
 C3346 C 0.91545 0.79906 0.60486
 C3347 C 0.90560 0.81959 0.61316
 C3348 C 0.88192 0.82066 0.61796
 C3349 C 0.91187 0.75811 0.59428
 C3350 C 0.89829 0.73803 0.59143
 C3351 C 0.87427 0.73913 0.59523
 C3352 C 0.86420 0.76020 0.60222
 C3353 C 0.86074 0.71906 0.59214
 C3354 C 0.87090 0.69807 0.58545
 C3355 C 0.89477 0.69673 0.58189
 C3356 C 0.90839 0.71680 0.58493
 H3357 H 0.84980 0.80162 0.61750
 H3358 H 0.93381 0.79862 0.60164
 H3359 H 0.91657 0.83462 0.61620
 H3360 H 0.93027 0.75730 0.59129
 H3361 H 0.84582 0.76097 0.60537
 H3362 H 0.84232 0.71958 0.59496
 H3363 H 0.86012 0.68275 0.58332
 H3364 H 0.92678 0.71593 0.58193
 C3365 C 0.37732 1.29049 0.63738
 C3366 C 0.38548 1.26956 0.62755
 C3367 C 0.36963 1.25271 0.61926
 C3368 C 0.34603 1.25687 0.62104
 C3369 C 0.33806 1.27777 0.63032
 C3370 C 0.35344 1.29523 0.63833
 C3371 C 0.37754 1.23204 0.60902
 C3372 C 0.40118 1.22805 0.60658
 C3373 C 0.41715 1.24481 0.61484
 C3374 C 0.40922 1.26541 0.62538
 C3375 C 0.44080 1.24069 0.61227
 C3376 C 0.44852 1.22025 0.60156
 C3377 C 0.43277 1.20350 0.59319
 C3378 C 0.40906 1.20757 0.59588
 H3379 H 0.38971 1.30353 0.64292
 H3380 H 0.33365 1.24398 0.61506
 H3381 H 0.31961 1.27982 0.63175
 H3382 H 0.36527 1.21920 0.60266
 H3383 H 0.42149 1.27829 0.63163
 H3384 H 0.45332 1.25332 0.61845
 H3385 H 0.46686 1.21764 0.59957
 H3386 H 0.39673 1.19465 0.58990
 C3387 C 0.35585 0.77597 1.14685
 C3388 C 0.36245 0.75660 1.13353
 C3389 C 0.34571 0.74020 1.12619
 C3390 C 0.32258 0.74377 1.13176
 C3391 C 0.31601 0.76349 1.14429
 C3392 C 0.33249 0.77992 1.15213
 C3393 C 0.35233 0.72054 1.11334
 C3394 C 0.37547 0.71729 1.10737
 C3395 C 0.39209 0.73415 1.11403
 C3396 C 0.38551 0.75360 1.12717
 C3397 C 0.41514 0.73110 1.10773
 C3398 C 0.42185 0.71109 1.09578
 C3399 C 0.40568 0.69369 1.08998
 C3400 C 0.38237 0.69719 1.09531
 H3401 H 0.36886 0.78861 1.15190
 H3402 H 0.30951 0.73135 1.12633
 H3403 H 0.29796 0.76533 1.14851
 H3404 H 0.33951 0.70777 1.10806
 H3405 H 0.39835 0.76633 1.13250
 H3406 H 0.42805 0.74397 1.11244
 H3407 H 0.43986 0.70894 1.09152
 H3408 H 0.36979 0.68382 1.09104
 C3409 C 0.85821 0.71159 0.87688
 C3410 C 0.87147 0.72938 0.88728
 C3411 C 0.89088 0.72350 0.90099
 C3412 C 0.89657 0.69996 0.90424
 C3413 C 0.88363 0.68244 0.89340
 C3414 C 0.86451 0.68812 0.87956
 C3415 C 0.90461 0.74120 0.91079
 C3416 C 0.89938 0.76476 0.90684
 C3417 C 0.87993 0.77065 0.89316
 C3418 C 0.86606 0.75294 0.88358
 C3419 C 0.87468 0.79420 0.88926
 C3420 C 0.88845 0.81176 0.89893
 C3421 C 0.90775 0.80608 0.91248
 C3422 C 0.91322 0.78258 0.91638
 H3423 H 0.84371 0.71599 0.86582
 H3424 H 0.91140 0.69512 0.91464
 H3425 H 0.88884 0.66441 0.89534
 H3426 H 0.91951 0.73665 0.92124
 H3427 H 0.85122 0.75750 0.87303
 H3428 H 0.85984 0.79904 0.87889
 H3429 H 0.88394 0.82986 0.89604
 H3430 H 0.92800 0.77825 0.92710
 C3431 C 0.89125 0.19594 0.36866
 C3432 C 0.90040 0.21509 0.38080
 C3433 C 0.90689 0.21262 0.40440
 C3434 C 0.90456 0.19087 0.41529
 C3435 C 0.89490 0.17205 0.40324
 C3436 C 0.88786 0.17457 0.37999
 C3437 C 0.91494 0.23206 0.41690
 C3438 C 0.91634 0.25398 0.40616
 C3439 C 0.91010 0.25632 0.38245
 C3440 C 0.90228 0.23687 0.36993
 C3441 C 0.91168 0.27815 0.37165
 C3442 C 0.91953 0.29747 0.38411
 C3443 C 0.92572 0.29537 0.40763
 C3444 C 0.92392 0.27363 0.41868
 H3445 H 0.88546 0.19804 0.35084
 H3446 H 0.90949 0.18861 0.43334
 H3447 H 0.89228 0.15567 0.41224
 H3448 H 0.91976 0.23020 0.43504
 H3449 H 0.89731 0.23877 0.35183
 H3450 H 0.90697 0.28025 0.35353
 H3451 H 0.92083 0.31417 0.37537
 H3452 H 0.92893 0.27196 0.43678
 C3453 C 0.35971 0.71820 0.35562
 C3454 C 0.36682 0.73729 0.36914
 C3455 C 0.35033 0.75304 0.37791
 C3456 C 0.32694 0.74902 0.37356
 C3457 C 0.31991 0.72961 0.36065
 C3458 C 0.33615 0.71395 0.35127
 C3459 C 0.35750 0.77256 0.39080
 C3460 C 0.38097 0.77637 0.39526
 C3461 C 0.39738 0.76011 0.38718
 C3462 C 0.39022 0.74074 0.37413
 C3463 C 0.42078 0.76373 0.39186
 C3464 C 0.42800 0.78380 0.40353
 C3465 C 0.41198 0.80064 0.41070
 C3466 C 0.38838 0.79650 0.40709
 H3467 H 0.37261 0.70608 0.34949
 H3468 H 0.31404 0.76092 0.38012
 H3469 H 0.30167 0.72753 0.35726
 H3470 H 0.34486 0.78488 0.39717
 H3471 H 0.40287 0.72850 0.36766
 H3472 H 0.43355 0.75132 0.38602
 H3473 H 0.44625 0.78646 0.40646
 H3474 H 0.37592 0.80945 0.41243
 C3475 C 0.38230 0.18946 0.88630
 C3476 C 0.39298 0.21109 0.89092
 C3477 C 0.39988 0.22559 0.87231
 C3478 C 0.39673 0.21792 0.84945
 C3479 C 0.38700 0.19608 0.84498
 C3480 C 0.37951 0.18144 0.86324
 C3481 C 0.40986 0.24750 0.87680
 C3482 C 0.41359 0.25493 0.89973
 C3483 C 0.40764 0.23998 0.91835
 C3484 C 0.39718 0.21830 0.91386
 C3485 C 0.41202 0.24708 0.94122
 C3486 C 0.42126 0.26914 0.94569
 C3487 C 0.42605 0.28478 0.92744
 C3488 C 0.42274 0.27725 0.90438
 H3489 H 0.37735 0.17842 0.90075
 H3490 H 0.40190 0.22879 0.83496
 H3491 H 0.38456 0.19114 0.82697
 H3492 H 0.41470 0.25874 0.86245
 H3493 H 0.39230 0.20708 0.92821
 H3494 H 0.40796 0.23571 0.95569
 H3495 H 0.42423 0.27417 0.96360
 H3496 H 0.42634 0.28905 0.89013
 C3497 C 1.13068 0.70976 1.12525
 C3498 C 1.11939 0.73079 1.12009
 C3499 C 1.11227 0.74562 1.13832
 C3500 C 1.11594 0.73889 1.16137
 C3501 C 1.12654 0.71769 1.16641
 C3502 C 1.13422 0.70275 1.14850
 C3503 C 1.10168 0.76698 1.13325
 C3504 C 1.09778 0.77360 1.11013
 C3505 C 1.10412 0.75838 1.09189
 C3506 C 1.11497 0.73715 1.09697
 C3507 C 1.09983 0.76483 1.06882
 C3508 C 1.09019 0.78652 1.06379
 C3509 C 1.08479 0.80227 1.08171
 C3510 C 1.08810 0.79542 1.10493
 H3511 H 1.13571 0.69843 1.11108
 H3512 H 1.11068 0.75007 1.17557
 H3513 H 1.12960 0.71361 1.18453
 H3514 H 1.09662 0.77851 1.14728
 H3515 H 1.12012 0.72567 1.08293
 H3516 H 1.10430 0.75328 1.05463
 H3517 H 1.08737 0.79119 1.04577
 H3518 H 1.08412 0.80745 1.11888
 C3519 C 1.14509 0.21176 0.62680
 C3520 C 1.13270 0.23159 0.62009
 C3521 C 1.10865 0.23238 0.62338
 C3522 C 1.09755 0.21354 0.63414
 C3523 C 1.11009 0.19401 0.64134
 C3524 C 1.13403 0.19256 0.63739
 C3525 C 1.09617 0.25197 0.61588
 C3526 C 1.10761 0.27097 0.60559
 C3527 C 1.13182 0.27042 0.60316
 C3528 C 1.14416 0.25071 0.61024
 C3529 C 1.14336 0.28957 0.59360
 C3530 C 1.13107 0.30899 0.58605
 C3531 C 1.10689 0.30954 0.58746
 C3532 C 1.09528 0.29048 0.59758
 H3533 H 1.16360 0.21186 0.62457
 H3534 H 1.07911 0.21385 0.63691
 H3535 H 1.10070 0.17962 0.64900
 H3536 H 1.07765 0.25245 0.61807
 H3537 H 1.16269 0.25023 0.60804
 H3538 H 1.16194 0.28956 0.59196
 H3539 H 1.14061 0.32365 0.57909
 H3540 H 1.07667 0.29057 0.59878
 C3541 C 0.63591 0.70926 0.64268
 C3542 C 0.62672 0.72656 0.62810
 C3543 C 0.62338 0.72190 0.60418
 C3544 C 0.62956 0.70002 0.59525
 C3545 C 0.63896 0.68297 0.60986
 C3546 C 0.64212 0.68738 0.63370
 C3547 C 0.61391 0.73916 0.58965
 C3548 C 0.60781 0.76104 0.59876
 C3549 C 0.61151 0.76567 0.62266
 C3550 C 0.62091 0.74845 0.63713
 C3551 C 0.60554 0.78742 0.63185
 C3552 C 0.59547 0.80430 0.61771
 C3553 C 0.59112 0.79985 0.59405
 C3554 C 0.59776 0.77828 0.58453
 H3555 H 0.63864 0.71296 0.66097
 H3556 H 0.62718 0.69611 0.57697
 H3557 H 0.64358 0.66620 0.60257
 H3558 H 0.61119 0.73553 0.57134
 H3559 H 0.62359 0.75206 0.65545
 H3560 H 0.60844 0.79131 0.65007
 H3561 H 0.59093 0.82093 0.62534
 H3562 H 0.59447 0.77471 0.56631
 C3563 C 0.63284 0.20832 1.13030
 C3564 C 0.62734 0.22844 1.11763
 C3565 C 0.62694 0.22776 1.09309
 C3566 C 0.63297 0.20711 1.08164
 C3567 C 0.63923 0.18732 1.09436
 C3568 C 0.63895 0.18746 1.11891
 C3569 C 0.62045 0.24769 1.08047
 C3570 C 0.61475 0.26839 1.09215
 C3571 C 0.61624 0.26923 1.11670
 C3572 C 0.62240 0.24927 1.12925
 C3573 C 0.61108 0.28992 1.12844
 C3574 C 0.60339 0.30929 1.11613
 C3575 C 0.60053 0.30836 1.09186
 C3576 C 0.60697 0.28808 1.07982
 H3577 H 0.63341 0.20938 1.14910
 H3578 H 0.63284 0.20624 1.06282
 H3579 H 0.64334 0.17161 1.08481
 H3580 H 0.61965 0.24703 1.06164
 H3581 H 0.62309 0.24990 1.14809
 H3582 H 0.61247 0.29095 1.14720
 H3583 H 0.59899 0.32493 1.12570
 H3584 H 0.60486 0.28725 1.06111
 C3585 C 1.30164 1.12936 0.87894
 C3586 C 1.28164 1.11807 0.88689
 C3587 C 1.28300 1.09499 0.89555
 C3588 C 1.30440 1.08379 0.89651
 C3589 C 1.32408 1.09493 0.88805
 C3590 C 1.32280 1.11762 0.87895
 C3591 C 1.26292 1.08328 0.90253
 C3592 C 1.24143 1.09427 0.90086
 C3593 C 1.24012 1.11744 0.89244
 C3594 C 1.26021 1.12918 0.88555
 C3595 C 1.21871 1.12855 0.89109
 C3596 C 1.19882 1.11699 0.89834
 C3597 C 1.19990 1.09402 0.90673
 C3598 C 1.22122 1.08259 0.90771
 H3599 H 1.30055 1.14671 0.87152
 H3600 H 1.30579 1.06614 0.90311
 H3601 H 1.34026 1.08558 0.88795
 H3602 H 1.26398 1.06554 0.90903
 H3603 H 1.25913 1.14687 0.87893
 H3604 H 1.21739 1.14629 0.88472
 H3605 H 1.18250 1.12606 0.89761
 H3606 H 1.22211 1.06497 0.91449
 C3607 C 1.27588 0.64646 0.36298
 C3608 C 1.25539 0.63587 0.37027
 C3609 C 1.23926 0.62793 0.35358
 C3610 C 1.24411 0.63048 0.32983
 C3611 C 1.26455 0.64124 0.32272
 C3612 C 1.28046 0.64957 0.33922
 C3613 C 1.21848 0.61783 0.36090
 C3614 C 1.21364 0.61571 0.38470
 C3615 C 1.22991 0.62352 0.40135
 C3616 C 1.25071 0.63345 0.39403
 C3617 C 1.22502 0.62146 0.42509
 C3618 C 1.20412 0.61191 0.43233
 C3619 C 1.18773 0.60423 0.41598
 C3620 C 1.19268 0.60611 0.39214
 H3621 H 1.28827 0.65241 0.37585
 H3622 H 1.23196 0.62447 0.31679
 H3623 H 1.26767 0.64355 0.30432
 H3624 H 1.20602 0.61182 0.34812
 H3625 H 1.26312 0.63955 0.40681
 H3626 H 1.23734 0.62729 0.43806
 H3627 H 1.20083 0.61034 0.45078
 H3628 H 1.18004 0.60051 0.37937
 C3629 C 0.80802 1.10509 0.38110
 C3630 C 0.78617 1.10060 0.39045
 C3631 C 0.77211 1.11944 0.39749
 C3632 C 0.78033 1.14235 0.39562
 C3633 C 0.80215 1.14664 0.38657
 C3634 C 0.81605 1.12812 0.37908
 C3635 C 0.74999 1.11513 0.40605
 C3636 C 0.74173 1.09222 0.40781
 C3637 C 0.75595 1.07333 0.40138
 C3638 C 0.77808 1.07763 0.39269
 C3639 C 0.74766 1.05044 0.40347
 C3640 C 0.72530 1.04634 0.41132
 C3641 C 0.71077 1.06504 0.41709
 C3642 C 0.71927 1.08796 0.41556
 H3643 H 0.81879 1.09077 0.37547
 H3644 H 0.76982 1.15697 0.40098
 H3645 H 0.80802 1.16452 0.38495
 H3646 H 0.73913 1.12961 0.41115
 H3647 H 0.78889 1.06316 0.38748
 H3648 H 0.75839 1.03573 0.39885
 H3649 H 0.71933 1.02848 0.41278
 H3650 H 0.70819 1.10255 0.41968
 C3651 C 0.78845 0.63188 0.88212
 C3652 C 0.76613 0.62296 0.88568
 C3653 C 0.75105 0.61993 0.86654
 C3654 C 0.75855 0.62591 0.84418
 C3655 C 0.78084 0.63449 0.84076
 C3656 C 0.79604 0.63748 0.85962
 C3657 C 0.72878 0.61091 0.87002
 C3658 C 0.72136 0.60482 0.89243
 C3659 C 0.73653 0.60778 0.91153
 C3660 C 0.75876 0.61679 0.90805
 C3661 C 0.72914 0.60184 0.93391
 C3662 C 0.70684 0.59350 0.93746
 C3663 C 0.69142 0.59078 0.91874
 C3664 C 0.69894 0.59613 0.89613
 H3665 H 0.80013 0.63387 0.89674
 H3666 H 0.74725 0.62377 0.82930
 H3667 H 0.78623 0.63884 0.82329
 H3668 H 0.71724 0.60868 0.85532
 H3669 H 0.77031 0.61904 0.92275
 H3670 H 0.74054 0.60390 0.94873
 H3671 H 0.70153 0.58926 0.95499
 H3672 H 0.68713 0.59424 0.88161
 C3673 C 1.27718 0.86590 1.15266
 C3674 C 1.25788 0.87502 1.14106
 C3675 C 1.23754 0.86147 1.13921
 C3676 C 1.23662 0.83934 1.14951
 C3677 C 1.25601 0.83023 1.16058
 C3678 C 1.27652 0.84322 1.16186
 C3679 C 1.21865 0.86995 1.12660
 C3680 C 1.21982 0.89177 1.11569
 C3681 C 1.23998 0.90556 1.11789
 C3682 C 1.25887 0.89710 1.13056
 C3683 C 1.24086 0.92761 1.10734
 C3684 C 1.22190 0.93598 1.09489
 C3685 C 1.20198 0.92226 1.09243
 C3686 C 1.20107 0.90011 1.10273
 H3687 H 1.29310 0.87583 1.15336
 H3688 H 1.22115 0.82876 1.14834
 H3689 H 1.25526 0.81269 1.16756
 H3690 H 1.20315 0.85944 1.12503
 H3691 H 1.27442 0.90756 1.13201
 H3692 H 1.25610 0.93846 1.10891
 H3693 H 1.22272 0.95322 1.08721
 H3694 H 1.18551 0.88971 1.10119
 C3695 C 1.28919 0.37941 0.63072
 C3696 C 1.26828 0.38723 0.62120
 C3697 C 1.25050 0.37100 0.61637
 C3698 C 1.25377 0.34734 0.62143
 C3699 C 1.27452 0.33973 0.63099
 C3700 C 1.29253 0.35558 0.63557
 C3701 C 1.22974 0.37862 0.60653
 C3702 C 1.22643 0.40232 0.60156
 C3703 C 1.24404 0.41866 0.60666
 C3704 C 1.26491 0.41100 0.61635
 C3705 C 1.24043 0.44240 0.60201
 C3706 C 1.21959 0.44988 0.59238
 C3707 C 1.20213 0.43371 0.58698
 C3708 C 1.20569 0.40994 0.59165
 H3709 H 1.30297 0.39179 0.63397
 H3710 H 1.24025 0.33470 0.61799
 H3711 H 1.27643 0.32136 0.63497
 H3712 H 1.21617 0.36612 0.60273
 H3713 H 1.27848 0.42350 0.62015
 H3714 H 1.25370 0.45518 0.60586
 H3715 H 1.21717 0.46827 0.58887
 H3716 H 1.19214 0.39742 0.58789
 C3717 C 0.80145 0.86768 0.61769
 C3718 C 0.78110 0.87804 0.60939
 C3719 C 0.77943 0.90263 0.60832
 C3720 C 0.79805 0.91641 0.61571
 C3721 C 0.81818 0.90599 0.62402
 C3722 C 0.82015 0.88156 0.62506
 C3723 C 0.75921 0.91305 0.59989
 C3724 C 0.74053 0.89921 0.59265
 C3725 C 0.74213 0.87462 0.59387
 C3726 C 0.76240 0.86420 0.60218
 C3727 C 0.72339 0.86086 0.58680
 C3728 C 0.70322 0.87129 0.57860
 C3729 C 0.70138 0.89573 0.57715
 C3730 C 0.72023 0.90957 0.58423
 H3731 H 0.80265 0.84883 0.61865
 H3732 H 0.79709 0.93528 0.61499
 H3733 H 0.83240 0.91708 0.62930
 H3734 H 0.75800 0.93191 0.59903
 H3735 H 0.76361 0.84533 0.60305
 H3736 H 0.72426 0.84199 0.58773
 H3737 H 0.68889 0.86017 0.57372
 H3738 H 0.71921 0.92841 0.58299
 C3739 C 0.79951 0.38146 1.11918
 C3740 C 0.77938 0.39346 1.11314
 C3741 C 0.77956 0.41811 1.11198
 C3742 C 0.79988 0.43030 1.11743
 C3743 C 0.81988 0.41817 1.12361
 C3744 C 0.81993 0.39365 1.12423
 C3745 C 0.75952 0.43006 1.10519
 C3746 C 0.73936 0.41762 1.09951
 C3747 C 0.73923 0.39297 1.10118
 C3748 C 0.75916 0.38110 1.10803
 C3749 C 0.71924 0.38046 1.09558
 C3750 C 0.69972 0.39211 1.08768
 C3751 C 0.69972 0.41652 1.08524
 C3752 C 0.71948 0.42929 1.09169
 H3753 H 0.79930 0.36255 1.12006
 H3754 H 0.80037 0.44919 1.11675
 H3755 H 0.83545 0.42790 1.12748
 H3756 H 0.75970 0.44895 1.10404
 H3757 H 0.75902 0.36220 1.10905
 H3758 H 0.71880 0.36160 1.09697
 H3759 H 0.68456 0.38196 1.08324
 H3760 H 0.71961 0.44811 1.08984
 C3761 C 0.71067 1.13273 1.12381
 C3762 C 0.73054 1.12089 1.11696
 C3763 C 0.73063 1.09623 1.11631
 C3764 C 0.71082 1.08387 1.12301
 C3765 C 0.69107 1.09587 1.13004
 C3766 C 0.69080 1.12037 1.13019
 C3767 C 0.75046 1.08444 1.10888
 C3768 C 0.77012 1.09707 1.10215
 C3769 C 0.76997 1.12175 1.10326
 C3770 C 0.75024 1.13346 1.11066
 C3771 C 0.78951 1.13442 1.09669
 C3772 C 0.80892 1.12286 1.08856
 C3773 C 0.80919 1.09840 1.08681
 C3774 C 0.78982 1.08553 1.09401
 H3775 H 0.71071 1.15165 1.12438
 H3776 H 0.71057 1.06496 1.12274
 H3777 H 0.67590 1.08607 1.13502
 H3778 H 0.75053 1.06553 1.10816
 H3779 H 0.75013 1.15238 1.11131
 H3780 H 0.78972 1.15331 1.09763
 H3781 H 0.82380 1.13311 1.08357
 H3782 H 0.78987 1.06666 1.09265
 C3783 C 0.70748 0.61922 0.62942
 C3784 C 0.72783 0.60731 0.62386
 C3785 C 0.74617 0.60664 0.64011
 C3786 C 0.74382 0.61776 0.66165
 C3787 C 0.72349 0.62939 0.66709
 C3788 C 0.70516 0.63022 0.65109
 C3789 C 0.76664 0.59507 0.63453
 C3790 C 0.76915 0.58435 0.61279
 C3791 C 0.75074 0.58481 0.59661
 C3792 C 0.73014 0.59613 0.60231
 C3793 C 0.75347 0.57448 0.57471
 C3794 C 0.77455 0.56467 0.56854
 C3795 C 0.79306 0.56461 0.58431
 C3796 C 0.79010 0.57393 0.60664
 H3797 H 0.69331 0.61959 0.61710
 H3798 H 0.75770 0.61747 0.67428
 H3799 H 0.72210 0.63791 0.68384
 H3800 H 0.78076 0.59476 0.64693
 H3801 H 0.71610 0.59659 0.58984
 H3802 H 0.73957 0.57463 0.56211
 H3803 H 0.77664 0.55762 0.55121
 H3804 H 0.80449 0.57423 0.61870
 C3805 C 0.22108 1.13479 0.63502
 C3806 C 0.24037 1.12830 0.62196
 C3807 C 0.23866 1.12663 0.59749
 C3808 C 0.21769 1.13175 0.58649
 C3809 C 0.19858 1.13828 0.59962
 C3810 C 0.20006 1.13974 0.62397
 C3811 C 0.25781 1.11963 0.58445
 C3812 C 0.27860 1.11406 0.59562
 C3813 C 0.28032 1.11604 0.62010
 C3814 C 0.26127 1.12327 0.63307
 C3815 C 0.30095 1.11024 0.63131
 C3816 C 0.31947 1.10177 0.61854
 C3817 C 0.31781 1.09920 0.59430
 C3818 C 0.29751 1.10589 0.58282
 H3819 H 0.22244 1.13617 0.65377
 H3820 H 0.21603 1.13056 0.56776
 H3821 H 0.18250 1.14187 0.59076
 H3822 H 0.25643 1.11815 0.56570
 H3823 H 0.26260 1.12460 0.65184
 H3824 H 0.30261 1.11175 0.65002
 H3825 H 0.33509 1.09688 0.62763
 H3826 H 0.29613 1.10379 0.56414
 C3827 C 0.21356 0.63348 1.14357
 C3828 C 0.23097 0.62267 1.13075
 C3829 C 0.22915 0.62135 1.10628
 C3830 C 0.21001 0.63123 1.09508
 C3831 C 0.19255 0.64174 1.10806
 C3832 C 0.19399 0.64264 1.13243
 C3833 C 0.24632 0.60996 1.09350
 C3834 C 0.26519 0.59977 1.10495
 C3835 C 0.26698 0.60128 1.12942
 C3836 C 0.24993 0.61278 1.14214
 C3837 C 0.28580 0.59120 1.14085
 C3838 C 0.30278 0.57972 1.12820
 C3839 C 0.30124 0.57796 1.10386
 C3840 C 0.28230 0.58807 1.09234
 H3841 H 0.21510 0.63449 1.16233
 H3842 H 0.20833 0.63043 1.07634
 H3843 H 0.17759 0.64854 1.09907
 H3844 H 0.24492 0.60886 1.07473
 H3845 H 0.25130 0.61382 1.16092
 H3846 H 0.28749 0.59232 1.15958
 H3847 H 0.31740 0.57261 1.13749
 H3848 H 0.28082 0.58671 1.07360
 C3849 C 0.71021 0.87183 0.86821
 C3850 C 0.73145 0.87755 0.87867
 C3851 C 0.75003 0.86169 0.87736
 C3852 C 0.74715 0.84054 0.86546
 C3853 C 0.72590 0.83481 0.85553
 C3854 C 0.70724 0.85025 0.85699
 C3855 C 0.77108 0.86703 0.88824
 C3856 C 0.77387 0.88804 0.90046
 C3857 C 0.75533 0.90396 0.90170
 C3858 C 0.73426 0.89861 0.89084
 C3859 C 0.75830 0.92515 0.91356
 C3860 C 0.77954 0.93078 0.92359
 C3861 C 0.79805 0.91515 0.92235
 C3862 C 0.79505 0.89363 0.91106
 H3863 H 0.69574 0.88363 0.86966
 H3864 H 0.76118 0.82818 0.86426
 H3865 H 0.72384 0.81804 0.84706
 H3866 H 0.78528 0.85483 0.88720
 H3867 H 0.72007 0.91081 0.89188
 H3868 H 0.74433 0.93758 0.91465
 H3869 H 0.78172 0.94756 0.93201
 H3870 H 0.80947 0.88175 0.90971
 C3871 C 0.70425 0.36989 0.38274
 C3872 C 0.72513 0.37993 0.38982
 C3873 C 0.72759 0.40447 0.39010
 C3874 C 0.70909 0.41851 0.38301
 C3875 C 0.68827 0.40832 0.37596
 C3876 C 0.68562 0.38394 0.37601
 C3877 C 0.74846 0.41450 0.39750
 C3878 C 0.76683 0.40025 0.40456
 C3879 C 0.76430 0.37569 0.40409
 C3880 C 0.74349 0.36571 0.39672
 C3881 C 0.78264 0.36147 0.41103
 C3882 C 0.80335 0.37142 0.41842
 C3883 C 0.80612 0.39579 0.41913
 C3884 C 0.78771 0.41012 0.41213
 H3885 H 0.70251 0.35104 0.38236
 H3886 H 0.71068 0.43736 0.38306
 H3887 H 0.67411 0.41946 0.37087
 H3888 H 0.75038 0.43333 0.39780
 H3889 H 0.74156 0.34687 0.39645
 H3890 H 0.78099 0.34263 0.41066
 H3891 H 0.81736 0.35999 0.42330
 H3892 H 0.78955 0.42894 0.41281
 C3893 C 0.20283 0.88602 0.36874
 C3894 C 0.22238 0.89418 0.38084
 C3895 C 0.22082 0.89935 0.40485
 C3896 C 0.19971 0.89667 0.41624
 C3897 C 0.18054 0.88815 0.40421
 C3898 C 0.18199 0.88246 0.38051
 C3899 C 0.24045 0.90665 0.41721
 C3900 C 0.26171 0.90881 0.40593
 C3901 C 0.26322 0.90390 0.38187
 C3902 C 0.24358 0.89663 0.36949
 C3903 C 0.28439 0.90640 0.37054
 C3904 C 0.30380 0.91397 0.38282
 C3905 C 0.30251 0.91888 0.40670
 C3906 C 0.28146 0.91602 0.41827
 H3907 H 0.20409 0.88135 0.35052
 H3908 H 0.19817 0.90059 0.43459
 H3909 H 0.16460 0.88544 0.41355
 H3910 H 0.23921 0.91049 0.43563
 H3911 H 0.24483 0.89272 0.35109
 H3912 H 0.28589 0.90274 0.35213
 H3913 H 0.31991 0.91613 0.37364
 H3914 H 0.28036 0.92007 0.43664
 C3915 C 0.20129 0.37155 0.88112
 C3916 C 0.22150 0.38159 0.88985
 C3917 C 0.22308 0.40607 0.89235
 C3918 C 0.20430 0.42005 0.88594
 C3919 C 0.18401 0.40981 0.87748
 C3920 C 0.18227 0.38546 0.87524
 C3921 C 0.24335 0.41608 0.90128
 C3922 C 0.26192 0.40184 0.90781
 C3923 C 0.26018 0.37734 0.90535
 C3924 C 0.24002 0.36739 0.89631
 C3925 C 0.27866 0.36313 0.91194
 C3926 C 0.29884 0.37307 0.92071
 C3927 C 0.30089 0.39739 0.92308
 C3928 C 0.28227 0.41168 0.91670
 H3929 H 0.20036 0.35277 0.87893
 H3930 H 0.20520 0.43886 0.88773
 H3931 H 0.16955 0.42088 0.87315
 H3932 H 0.24466 0.43487 0.90319
 H3933 H 0.23871 0.34860 0.89442
 H3934 H 0.27758 0.34433 0.91013
 H3935 H 0.31306 0.36174 0.92518
 H3936 H 0.28360 0.43045 0.91871
   
