data_POSCAR
  _audit_creation_date              2014-09-24
  _audit_creation_method            'ToBaCCo'
  _symmetry_space_group_name_H-M    'P1'
  _symmetry_Int_Tables_number       1
  _symmetry_cell_setting            triclinic
  loop_
  _symmetry_equiv_pos_as_xyz
 x,y,z
_cell_length_a 51.4964
_cell_length_b 51.9497
_cell_length_c 43.2053
_cell_angle_alpha 88.222500
_cell_angle_beta 90.948500
_cell_angle_gamma 89.812700
loop_
  _atom_site_label
  _atom_site_type_symbol
  _atom_site_fract_x
  _atom_site_fract_y
  _atom_site_fract_z
C1 C 0.31017 -0.02748 0.22840
 C2 C 0.32604 -0.00563 0.22544
 C3 C 0.34604 -0.00505 0.20390
 C4 C 0.35060 -0.02612 0.18531
 C5 C 0.33436 -0.04759 0.18783
 C6 C 0.31461 -0.04903 0.21009
 C7 C 0.32613 0.01405 0.24915
 C8 C 0.34469 0.01184 0.27314
 C9 C 0.34799 0.03148 0.29454
 C10 C 0.33125 0.05289 0.29229
 C11 C 0.31303 0.05560 0.26783
 C12 C 0.31062 0.03621 0.24606
 H13 H 0.29586 -0.02828 0.24651
 H14 H 0.35895 0.01139 0.20297
 H15 H 0.35717 -0.00502 0.27419
 H16 H 0.29710 0.03850 0.22667
 H17 H 0.33836 -0.06393 0.17366
 H18 H 0.33341 0.06840 0.30835
 C19 C 0.19167 -0.03371 0.76317
 C20 C 0.17947 -0.01006 0.76820
 C21 C 0.16196 -0.00802 0.79247
 C22 C 0.15560 -0.02960 0.81107
 C23 C 0.16819 -0.05302 0.80627
 C24 C 0.18592 -0.05533 0.78212
 C25 C 0.17875 0.01043 0.74398
 C26 C 0.16002 0.00838 0.72032
 C27 C 0.15269 0.02990 0.70158
 C28 C 0.16577 0.05324 0.70585
 C29 C 0.18459 0.05550 0.72951
 C30 C 0.19120 0.03399 0.74847
 H31 H 0.20383 -0.03573 0.74315
 H32 H 0.15163 0.00999 0.79504
 H33 H 0.14981 -0.00973 0.71830
 H34 H 0.20438 0.03604 0.76805
 H35 H 0.16295 -0.06996 0.82001
 H36 H 0.16031 0.07024 0.69204
 C37 C 0.68965 0.46558 0.26026
 C38 C 0.67549 0.48795 0.26639
 C39 C 0.65582 0.48686 0.28834
 C40 C 0.64920 0.46356 0.30339
 C41 C 0.66341 0.44130 0.29721
 C42 C 0.68354 0.44214 0.27559
 C43 C 0.67558 0.51053 0.24491
 C44 C 0.65631 0.51164 0.22168
 C45 C 0.65066 0.53468 0.20514
 C46 C 0.66555 0.55659 0.21106
 C47 C 0.68517 0.55567 0.23409
 C48 C 0.69008 0.53264 0.25118
 H49 H 0.70386 0.46599 0.24203
 H50 H 0.64439 0.50404 0.29198
 H51 H 0.64458 0.49469 0.21789
 H52 H 0.70408 0.53230 0.27020
 H53 H 0.65804 0.42304 0.30807
 H54 H 0.66110 0.57468 0.19892
 C55 C 0.81531 0.46940 0.73994
 C56 C 0.83327 0.48953 0.73666
 C57 C 0.85362 0.48739 0.71579
 C58 C 0.85621 0.46553 0.69785
 C59 C 0.83750 0.44607 0.70014
 C60 C 0.81740 0.44762 0.72161
 C61 C 0.83372 0.51115 0.75793
 C62 C 0.85420 0.51234 0.77952
 C63 C 0.85728 0.53366 0.79853
 C64 C 0.83870 0.55355 0.79616
 C65 C 0.81862 0.55302 0.77375
 C66 C 0.81614 0.53177 0.75460
 H67 H 0.80033 0.47033 0.75720
 H68 H 0.86796 0.50259 0.71436
 H69 H 0.86804 0.49656 0.78087
 H70 H 0.80104 0.53152 0.73685
 H71 H 0.83956 0.42885 0.68682
 H72 H 0.84072 0.57035 0.81026
 C73 C 0.24915 0.38563 1.04156
 C74 C 0.26030 0.39946 1.01685
 C75 C 0.28138 0.41558 1.02216
 C76 C 0.29158 0.41826 1.05208
 C77 C 0.28012 0.40483 1.07698
 C78 C 0.25876 0.38833 1.07203
 C79 C 0.24810 0.40013 0.98596
 C80 C 0.22790 0.41759 0.97988
 C81 C 0.21732 0.42096 0.94996
 C82 C 0.22743 0.40659 0.92588
 C83 C 0.24794 0.38898 0.93174
 C84 C 0.25814 0.38578 0.96199
 H85 H 0.23241 0.37364 1.03701
 H86 H 0.28973 0.42616 1.00274
 H87 H 0.22049 0.42860 0.99876
 H88 H 0.27421 0.37265 0.96678
 H89 H 0.28816 0.40707 1.10007
 H90 H 0.21921 0.40894 0.90271
 C91 C 0.75657 0.11565 1.03687
 C92 C 0.74637 0.10136 1.01259
 C93 C 0.72655 0.08370 1.01813
 C94 C 0.71655 0.07999 1.04786
 C95 C 0.72717 0.09389 1.07240
 C96 C 0.74727 0.11196 1.06720
 C97 C 0.75774 0.10289 0.98170
 C98 C 0.77907 0.08729 0.97572
 C99 C 0.78905 0.08627 0.94580
 C100 C 0.77718 0.10097 0.92166
 C101 C 0.75546 0.11657 0.92741
 C102 C 0.74595 0.11759 0.95763
 H103 H 0.77222 0.12901 1.03208
 H104 H 0.71880 0.07298 0.99894
 H105 H 0.78788 0.07591 0.99458
 H106 H 0.72902 0.12921 0.96231
 H107 H 0.71931 0.09096 1.09535
 H108 H 0.78485 0.10030 0.89849
 C109 C 0.25528 0.61184 0.53877
 C110 C 0.24595 0.59616 0.51533
 C111 C 0.22711 0.57761 0.52187
 C112 C 0.21703 0.57467 0.55172
 C113 C 0.22675 0.59017 0.57535
 C114 C 0.24597 0.60875 0.56901
 C115 C 0.25694 0.59762 0.48425
 C116 C 0.27738 0.58115 0.47743
 C117 C 0.28739 0.58078 0.44748
 C118 C 0.27618 0.59679 0.42407
 C119 C 0.25529 0.61321 0.43064
 C120 C 0.24596 0.61376 0.46098
 H121 H 0.27015 0.62597 0.53358
 H122 H 0.22001 0.56579 0.50332
 H123 H 0.28569 0.56885 0.49578
 H124 H 0.22977 0.62615 0.46633
 H125 H 0.21904 0.58813 0.59847
 H126 H 0.28382 0.59660 0.40086
 C127 C 0.74406 0.88673 0.53926
 C128 C 0.75391 0.90198 0.51501
 C129 C 0.77505 0.91804 0.52021
 C130 C 0.78741 0.91859 0.54945
 C131 C 0.77726 0.90327 0.57390
 C132 C 0.75542 0.88752 0.56897
 C133 C 0.74190 0.90208 0.48403
 C134 C 0.72124 0.91882 0.47709
 C135 C 0.71071 0.92088 0.44696
 C136 C 0.72152 0.90617 0.42358
 C137 C 0.74256 0.88942 0.43037
 C138 C 0.75251 0.88735 0.46079
 H139 H 0.72734 0.87462 0.53507
 H140 H 0.78218 0.92956 0.50081
 H141 H 0.71331 0.93011 0.49541
 H142 H 0.76892 0.87481 0.46629
 H143 H 0.78634 0.90341 0.59670
 H144 H 0.71344 0.90759 0.40027
 C145 C -0.02937 0.23598 0.38198
 C146 C -0.00686 0.23447 0.40058
 C147 C -0.00122 0.21189 0.41808
 C148 C -0.01864 0.19102 0.41837
 C149 C -0.04127 0.19290 0.39942
 C150 C -0.04663 0.21504 0.38054
 C151 C 0.01082 0.25673 0.40176
 C152 C 0.00498 0.27763 0.42032
 C153 C 0.02230 0.29834 0.42243
 C154 C 0.04508 0.29834 0.40495
 C155 C 0.05069 0.27802 0.38527
 C156 C 0.03353 0.25703 0.38425
 H157 H -0.03307 0.25351 0.36835
 H158 H 0.01631 0.21113 0.43233
 H159 H -0.01260 0.27740 0.43376
 H160 H 0.03760 0.24094 0.36970
 H161 H -0.05461 0.17682 0.39898
 H162 H 0.05823 0.31452 0.40638
 C163 C -0.03630 0.75990 0.11850
 C164 C -0.01433 0.76035 0.09981
 C165 C -0.00938 0.78193 0.08061
 C166 C -0.02673 0.80281 0.07916
 C167 C -0.04885 0.80218 0.09785
 C168 C -0.05366 0.78099 0.11825
 C169 C 0.00432 0.73877 0.10154
 C170 C 0.00010 0.71670 0.08424
 C171 C 0.01885 0.69686 0.08420
 C172 C 0.04139 0.69921 0.10307
 C173 C 0.04528 0.72083 0.12142
 C174 C 0.02675 0.74071 0.12002
 H175 H -0.03939 0.74321 0.13366
 H176 H 0.00786 0.78230 0.06655
 H177 H -0.01733 0.71565 0.06994
 H178 H 0.02955 0.75777 0.13348
 H179 H -0.06188 0.81861 0.09697
 H180 H 0.05596 0.68411 0.10371
 C181 C 0.45823 0.25309 0.61692
 C182 C 0.48040 0.25318 0.59851
 C183 C 0.48574 0.27460 0.57919
 C184 C 0.46862 0.29563 0.57736
 C185 C 0.44636 0.29537 0.59574
 C186 C 0.44122 0.27438 0.61614
 C187 C 0.49858 0.23123 0.60001
 C188 C 0.49369 0.20941 0.58260
 C189 C 0.51216 0.18950 0.58182
 C190 C 0.53525 0.19130 0.59956
 C191 C 0.54001 0.21280 0.61791
 C192 C 0.52156 0.23283 0.61760
 H193 H 0.45464 0.23660 0.63221
 H194 H 0.50305 0.27467 0.56524
 H195 H 0.47602 0.20846 0.56870
 H196 H 0.52498 0.24985 0.63093
 H197 H 0.43342 0.31187 0.59465
 H198 H 0.54946 0.17591 0.59903
 C199 C 0.46406 0.74280 0.87991
 C200 C 0.48659 0.74199 0.89852
 C201 C 0.49203 0.72021 0.91759
 C202 C 0.47435 0.69959 0.91945
 C203 C 0.45159 0.70093 0.90082
 C204 C 0.44666 0.72203 0.88033
 C205 C 0.50475 0.76385 0.89766
 C206 C 0.49999 0.78562 0.91516
 C207 C 0.51788 0.80595 0.91546
 C208 C 0.54020 0.80463 0.89719
 C209 C 0.54476 0.78328 0.87868
 C210 C 0.52698 0.76278 0.87949
 H211 H 0.46045 0.75947 0.86474
 H212 H 0.50970 0.71983 0.93158
 H213 H 0.48279 0.78634 0.92923
 H214 H 0.53022 0.74595 0.86584
 H215 H 0.43796 0.68510 0.90150
 H216 H 0.55388 0.82043 0.89724
 C217 C -0.27834 0.56376 1.02358
 C218 C -0.25601 0.57898 1.02667
 C219 C -0.25499 0.59798 1.04887
 C220 C -0.27611 0.60218 1.06803
 C221 C -0.29805 0.58656 1.06545
 C222 C -0.29993 0.56784 1.04254
 C223 C -0.23609 0.57945 1.00273
 C224 C -0.23844 0.59793 0.97856
 C225 C -0.21839 0.60179 0.95719
 C226 C -0.19645 0.58565 0.95962
 C227 C -0.19365 0.56755 0.98429
 C228 C -0.21340 0.56464 1.00607
 H229 H -0.27945 0.55023 1.00501
 H230 H -0.23818 0.61046 1.04992
 H231 H -0.25570 0.60995 0.97738
 H232 H -0.21100 0.55125 1.02565
 H233 H -0.31441 0.59031 1.08011
 H234 H -0.18064 0.58819 0.94357
 C235 C -0.28186 0.43578 0.47508
 C236 C -0.25858 0.42219 0.47123
 C237 C -0.25702 0.40373 0.44846
 C238 C -0.27861 0.39822 0.42975
 C239 C -0.30167 0.41204 0.43337
 C240 C -0.30390 0.43043 0.45658
 C241 C -0.23814 0.42206 0.49535
 C242 C -0.23994 0.40383 0.51976
 C243 C -0.21933 0.39993 0.54101
 C244 C -0.19735 0.41563 0.53859
 C245 C -0.19513 0.43365 0.51386
 C246 C -0.21542 0.43659 0.49191
 H247 H -0.28322 0.44887 0.49404
 H248 H -0.23936 0.39248 0.44679
 H249 H -0.25709 0.39183 0.52118
 H250 H -0.21344 0.44979 0.47218
 H251 H -0.31839 0.40723 0.41917
 H252 H -0.18116 0.41270 0.55467
 C253 C 0.21825 -0.06675 -0.02060
 C254 C 0.24074 -0.08138 -0.02502
 C255 C 0.24021 -0.10133 -0.04606
 C256 C 0.21727 -0.10748 -0.06239
 C257 C 0.19488 -0.09256 -0.05778
 C258 C 0.19515 -0.07252 -0.03663
 C259 C 0.26231 -0.08109 -0.00221
 C260 C 0.26141 -0.09882 0.02275
 C261 C 0.28243 -0.10194 0.04374
 C262 C 0.30403 -0.08569 0.04014
 C263 C 0.30545 -0.06818 0.01469
 C264 C 0.28462 -0.06614 -0.00674
 H265 H 0.21815 -0.05244 -0.00286
 H266 H 0.25755 -0.11300 -0.04810
 H267 H 0.24430 -0.11082 0.02494
 H268 H 0.28582 -0.05316 -0.02679
 H269 H 0.17676 -0.09723 -0.06941
 H270 H 0.32051 -0.08763 0.05598
 C271 C 0.21872 1.06976 0.51881
 C272 C 0.23936 1.08701 0.52259
 C273 C 0.23727 1.10672 0.54379
 C274 C 0.21499 1.10923 0.56171
 C275 C 0.19498 1.09118 0.55889
 C276 C 0.19647 1.07184 0.53697
 C277 C 0.26134 1.08750 0.50121
 C278 C 0.26255 1.10763 0.47904
 C279 C 0.28369 1.11005 0.45896
 C280 C 0.30352 1.09138 0.46121
 C281 C 0.30304 1.07172 0.48429
 C282 C 0.28186 1.06975 0.50429
 H283 H 0.21963 1.05536 0.50125
 H284 H 0.25285 1.12062 0.54555
 H285 H 0.24678 1.12153 0.47780
 H286 H 0.28153 1.05480 0.52233
 H287 H 0.17744 1.09325 0.57213
 H288 H 0.32021 1.09291 0.44630
 C289 C 0.13693 0.50008 0.21338
 C290 C 0.15021 0.51083 0.23837
 C291 C 0.16508 0.53296 0.23372
 C292 C 0.16695 0.54467 0.20420
 C293 C 0.15364 0.53387 0.17914
 C294 C 0.13861 0.51149 0.18358
 C295 C 0.15120 0.49766 0.26886
 C296 C 0.16828 0.47696 0.27361
 C297 C 0.17170 0.46532 0.30310
 C298 C 0.15779 0.47486 0.32804
 C299 C 0.14054 0.49579 0.32348
 C300 C 0.13732 0.50710 0.29371
 H301 H 0.12585 0.48258 0.21705
 H302 H 0.17538 0.54090 0.25331
 H303 H 0.17893 0.47002 0.25409
 H304 H 0.12446 0.52349 0.28992
 H305 H 0.15491 0.54290 0.15627
 H306 H 0.16015 0.46583 0.35086
 C307 C -0.13027 1.00152 0.20960
 C308 C -0.14485 0.99270 0.23478
 C309 C -0.16260 0.97277 0.23125
 C310 C -0.16586 0.96086 0.20271
 C311 C -0.15144 0.97013 0.17726
 C312 C -0.13366 0.99065 0.18033
 C313 C -0.14391 1.00589 0.26429
 C314 C -0.16056 1.02673 0.26818
 C315 C -0.16194 1.03886 0.29678
 C316 C -0.14665 1.02900 0.32182
 C317 C -0.13029 1.00753 0.31825
 C318 C -0.12875 0.99628 0.28922
 H319 H -0.11706 1.01747 0.21275
 H320 H -0.17368 0.96653 0.25123
 H321 H -0.17228 1.03348 0.24847
 H322 H -0.11651 0.97955 0.28625
 H323 H -0.15397 0.96122 0.15507
 H324 H -0.14751 1.03784 0.34417
 C325 C 0.36967 0.50109 -0.29285
 C326 C 0.35506 0.49215 -0.26766
 C327 C 0.33706 0.47243 -0.27145
 C328 C 0.33328 0.46141 -0.30034
 C329 C 0.34744 0.47082 -0.32573
 C330 C 0.36583 0.49073 -0.32235
 C331 C 0.35577 0.50542 -0.23817
 C332 C 0.33890 0.52616 -0.23455
 C333 C 0.33714 0.53834 -0.20603
 C334 C 0.35240 0.52875 -0.18083
 C335 C 0.36908 0.50749 -0.18412
 C336 C 0.37092 0.49609 -0.21305
 H337 H 0.38316 0.51678 -0.28956
 H338 H 0.32594 0.46579 -0.25169
 H339 H 0.32720 0.53271 -0.25437
 H340 H 0.38339 0.47950 -0.21581
 H341 H 0.34432 0.46227 -0.34803
 H342 H 0.35131 0.53769 -0.15856
 C343 C 0.63617 -0.00246 -0.29395
 C344 C 0.65032 0.00731 -0.26904
 C345 C 0.66663 0.02839 -0.27363
 C346 C 0.66913 0.04005 -0.30308
 C347 C 0.65528 0.02995 -0.32824
 C348 C 0.63854 0.00862 -0.32396
 C349 C 0.65009 -0.00569 -0.23843
 C350 C 0.66588 -0.02728 -0.23302
 C351 C 0.66798 -0.03897 -0.20339
 C352 C 0.65403 -0.02856 -0.17899
 C353 C 0.63805 -0.00673 -0.18426
 C354 C 0.63611 0.00456 -0.21417
 H355 H 0.62390 -0.01910 -0.28986
 H356 H 0.67732 0.03570 -0.25396
 H357 H 0.67656 -0.03490 -0.25213
 H358 H 0.62421 0.02158 -0.21849
 H359 H 0.65724 0.03908 -0.35097
 H360 H 0.65543 -0.03752 -0.15605
 C361 C -0.01620 0.22574 0.87657
 C362 C -0.01821 0.24877 0.85892
 C363 C -0.04095 0.25426 0.84161
 C364 C -0.06134 0.23640 0.84097
 C365 C -0.05918 0.21338 0.85895
 C366 C -0.03677 0.20798 0.87718
 C367 C 0.00412 0.26642 0.85715
 C368 C 0.02514 0.26057 0.83829
 C369 C 0.04599 0.27770 0.83538
 C370 C 0.04613 0.30029 0.85233
 C371 C 0.02576 0.30592 0.87240
 C372 C 0.00450 0.28898 0.87422
 H373 H 0.00148 0.22179 0.88984
 H374 H -0.04222 0.27189 0.82756
 H375 H 0.02491 0.24304 0.82532
 H376 H -0.01163 0.29307 0.88911
 H377 H -0.07494 0.19962 0.85853
 H378 H 0.06255 0.31319 0.85034
 C379 C 0.50913 0.21462 0.12656
 C380 C 0.50982 0.23690 0.14411
 C381 C 0.53197 0.24230 0.16208
 C382 C 0.55298 0.22504 0.16364
 C383 C 0.55203 0.20269 0.14620
 C384 C 0.53044 0.19753 0.12694
 C385 C 0.48775 0.25510 0.14304
 C386 C 0.46539 0.24995 0.16031
 C387 C 0.44530 0.26828 0.16120
 C388 C 0.44736 0.29137 0.14347
 C389 C 0.46935 0.29644 0.12535
 C390 C 0.48964 0.27827 0.12574
 H391 H 0.49217 0.21099 0.11220
 H392 H 0.53260 0.25969 0.17532
 H393 H 0.46418 0.23219 0.17406
 H394 H 0.50698 0.28198 0.11247
 H395 H 0.56852 0.18966 0.14709
 H396 H 0.43184 0.30548 0.14398
 C397 C 0.00314 0.70770 0.63093
 C398 C 0.00279 0.73043 0.64772
 C399 C 0.02401 0.73645 0.66693
 C400 C 0.04507 0.71941 0.67049
 C401 C 0.04516 0.69665 0.65387
 C402 C 0.02459 0.69081 0.63342
 C403 C -0.01955 0.74826 0.64523
 C404 C -0.04212 0.74313 0.66210
 C405 C -0.06213 0.76166 0.66319
 C406 C -0.05955 0.78487 0.64555
 C407 C -0.03748 0.78976 0.62752
 C408 C -0.01735 0.77143 0.62802
 H409 H -0.01313 0.70348 0.61573
 H410 H 0.02382 0.75412 0.67962
 H411 H -0.04326 0.72530 0.67570
 H412 H 0.00020 0.77511 0.61514
 H413 H 0.06177 0.68384 0.65630
 H414 H -0.07481 0.79926 0.64575
 C415 C 0.49116 0.71731 0.37348
 C416 C 0.48974 0.74068 0.35645
 C417 C 0.46737 0.74682 0.33876
 C418 C 0.44679 0.72925 0.33710
 C419 C 0.44833 0.70591 0.35439
 C420 C 0.47028 0.69993 0.37313
 C421 C 0.51192 0.75852 0.35674
 C422 C 0.53404 0.75324 0.33953
 C423 C 0.55474 0.77071 0.33853
 C424 C 0.55354 0.79310 0.35592
 C425 C 0.53188 0.79816 0.37431
 C426 C 0.51089 0.78088 0.37405
 H427 H 0.50845 0.71295 0.38732
 H428 H 0.46639 0.76487 0.32551
 H429 H 0.53473 0.73596 0.32613
 H430 H 0.49380 0.78452 0.38755
 H431 H 0.43228 0.69251 0.35338
 H432 H 0.56969 0.80641 0.35537
 B433 B -0.02708 0.01540 1.00106
 B434 B -0.03812 0.01097 0.96463
 B435 B -0.01545 0.03332 0.97163
 B436 B 0.00500 0.02199 0.99999
 B437 B -0.00556 -0.00815 1.01065
 B438 B -0.03266 -0.01458 0.98880
 B439 B 0.00794 -0.00878 0.94989
 B440 B 0.01919 -0.00433 0.98590
 B441 B -0.00384 -0.02670 0.97930
 B442 B -0.02400 -0.01526 0.95078
 B443 B -0.01338 0.01483 0.94019
 B444 B 0.01351 0.02134 0.96200
 B445 B 0.47193 0.50801 0.49779
 B446 B 0.45971 0.50349 0.46192
 B447 B 0.48335 0.52517 0.46767
 B448 B 0.50413 0.51353 0.49540
 B449 B 0.49286 0.48391 0.50697
 B450 B 0.46501 0.47805 0.48631
 B451 B 0.50464 0.48215 0.44561
 B452 B 0.51699 0.48665 0.48123
 B453 B 0.49315 0.46499 0.47589
 B454 B 0.47256 0.47667 0.44797
 B455 B 0.48383 0.50633 0.43647
 B456 B 0.51160 0.51216 0.45709
 B457 B 0.52678 0.98432 0.49928
 B458 B 0.53731 0.99109 0.46314
 B459 B 0.51605 0.96705 0.46970
 B460 B 0.49515 0.97589 0.49724
 B461 B 0.50390 1.00611 0.50789
 B462 B 0.53040 1.01518 0.48689
 B463 B 0.49007 1.00862 0.44658
 B464 B 0.47931 1.00187 0.48233
 B465 B 0.50069 1.02585 0.47627
 B466 B 0.52148 1.01704 0.44858
 B467 B 0.51275 0.98677 0.43798
 B468 B 0.48640 0.97769 0.45891
 B469 B 0.03419 0.49095 1.00036
 B470 B 0.04651 0.49824 0.96520
 B471 B 0.02406 0.47499 0.96946
 B472 B 0.00241 0.48394 0.99606
 B473 B 0.01186 0.51343 1.00850
 B474 B 0.03959 0.52191 0.98952
 B475 B 0.00065 0.51815 0.94662
 B476 B -0.01176 0.51085 0.98140
 B477 B 0.01073 0.53411 0.97759
 B478 B 0.03231 0.52520 0.95080
 B479 B 0.02284 0.49567 0.93842
 B480 B -0.00463 0.48708 0.95736
 B481 B 0.03307 0.50677 0.50288
 B482 B 0.04598 0.49852 0.53797
 B483 B 0.02370 0.52225 0.53419
 B484 B 0.00147 0.51429 0.50698
 B485 B 0.01033 0.48491 0.49372
 B486 B 0.03828 0.47546 0.51284
 B487 B 0.00019 0.47912 0.55535
 B488 B -0.01276 0.48737 0.52059
 B489 B 0.00948 0.46366 0.52405
 B490 B 0.03170 0.47158 0.55140
 B491 B 0.02281 0.50096 0.56460
 B492 B -0.00492 0.51045 0.54552
 B493 B 0.53070 0.01493 -0.00680
 B494 B 0.54352 0.00756 0.02861
 B495 B 0.52126 0.03125 0.02385
 B496 B 0.49904 0.02259 -0.00311
 B497 B 0.50794 -0.00717 -0.01518
 B498 B 0.53588 -0.01611 0.00434
 B499 B 0.49775 -0.01136 0.04654
 B500 B 0.48477 -0.00405 0.01150
 B501 B 0.50710 -0.02766 0.01588
 B502 B 0.52922 -0.01902 0.04295
 B503 B 0.52029 0.01073 0.05498
 B504 B 0.49258 0.01972 0.03548
 B505 B 0.47655 0.48808 0.00012
 B506 B 0.46435 0.49310 0.03541
 B507 B 0.48790 0.47112 0.03101
 B508 B 0.50871 0.48226 0.00391
 B509 B 0.49752 0.51192 -0.00856
 B510 B 0.46967 0.51822 0.01086
 B511 B 0.50932 0.51424 0.05315
 B512 B 0.52164 0.50921 0.01812
 B513 B 0.49781 0.53120 0.02221
 B514 B 0.47724 0.51994 0.04945
 B515 B 0.48848 0.49034 0.06187
 B516 B 0.51622 0.48399 0.04248
 B517 B -0.02471 0.98190 0.50295
 B518 B -0.03798 0.98763 0.53757
 B519 B -0.01541 0.96444 0.53438
 B520 B 0.00698 0.97448 0.50849
 B521 B -0.00221 1.00464 0.49547
 B522 B -0.03046 1.01237 0.51333
 B523 B 0.00730 1.00643 0.55768
 B524 B 0.02070 1.00075 0.52347
 B525 B -0.00202 1.02390 0.52621
 B526 B -0.02424 1.01382 0.55228
 B527 B -0.01501 0.98368 0.56529
 B528 B 0.01301 0.97582 0.54737
 B529 B 0.76921 0.22089 0.24000
 B530 B 0.76246 0.20889 0.27574
 B531 B 0.78581 0.23118 0.27083
 B532 B 0.77628 0.25250 0.24242
 B533 B 0.74632 0.24290 0.22961
 B534 B 0.73816 0.21552 0.25018
 B535 B 0.74256 0.25441 0.29056
 B536 B 0.74919 0.26656 0.25526
 B537 B 0.72594 0.24400 0.25979
 B538 B 0.73554 0.22295 0.28832
 B539 B 0.76546 0.23256 0.30106
 B540 B 0.77367 0.25977 0.28052
 B541 B 0.73106 0.77523 0.74781
 B542 B 0.73816 0.78728 0.78279
 B543 B 0.71418 0.76565 0.77878
 B544 B 0.72305 0.74388 0.75260
 B545 B 0.75327 0.75246 0.74023
 B546 B 0.76223 0.77976 0.75877
 B547 B 0.75672 0.74135 0.80231
 B548 B 0.74967 0.72912 0.76774
 B549 B 0.77359 0.75088 0.77128
 B550 B 0.76471 0.77252 0.79761
 B551 B 0.73448 0.76391 0.80996
 B552 B 0.72543 0.73683 0.79142
 B553 B 0.25995 0.28060 0.75707
 B554 B 0.25221 0.29322 0.72166
 B555 B 0.27507 0.27006 0.72591
 B556 B 0.26602 0.24886 0.75410
 B557 B 0.23686 0.25931 0.76742
 B558 B 0.22866 0.28714 0.74739
 B559 B 0.23049 0.24852 0.70632
 B560 B 0.23816 0.23587 0.74146
 B561 B 0.21536 0.25914 0.73752
 B562 B 0.22442 0.28020 0.70917
 B563 B 0.25359 0.26974 0.69592
 B564 B 0.26177 0.24202 0.71590
 B565 B 0.23240 0.72955 0.25617
 B566 B 0.23872 0.71762 0.22122
 B567 B 0.21589 0.74050 0.22481
 B568 B 0.22592 0.76135 0.25176
 B569 B 0.25573 0.75086 0.26500
 B570 B 0.26327 0.72339 0.24620
 B571 B 0.25948 0.76268 0.20320
 B572 B 0.25322 0.77475 0.23785
 B573 B 0.27599 0.75161 0.23468
 B574 B 0.26588 0.73099 0.20755
 B575 B 0.23608 0.74150 0.19439
 B576 B 0.22855 0.76886 0.21315
 B577 B 0.25982 0.71998 0.74312
 B578 B 0.25473 0.70656 0.77857
 B579 B 0.27712 0.72980 0.77358
 B580 B 0.26598 0.75162 0.74672
 B581 B 0.23594 0.74146 0.73499
 B582 B 0.22935 0.71319 0.75459
 B583 B 0.23404 0.75087 0.79676
 B584 B 0.23904 0.76428 0.76160
 B585 B 0.21669 0.74092 0.76623
 B586 B 0.22787 0.71928 0.79328
 B587 B 0.25791 0.72945 0.80494
 B588 B 0.26451 0.75758 0.78530
 B589 B 0.23602 0.28165 0.25100
 B590 B 0.24478 0.29387 0.28537
 B591 B 0.22082 0.27200 0.28318
 B592 B 0.22854 0.25027 0.25650
 B593 B 0.25797 0.25910 0.24190
 B594 B 0.26767 0.28650 0.25967
 B595 B 0.26462 0.24816 0.30373
 B596 B 0.25590 0.23582 0.26974
 B597 B 0.27981 0.25773 0.27148
 B598 B 0.27211 0.27940 0.29832
 B599 B 0.24266 0.27057 0.31286
 B600 B 0.23290 0.24338 0.29516
 B601 B 0.76621 0.77906 0.25923
 B602 B 0.75846 0.79171 0.22377
 B603 B 0.78247 0.76978 0.22829
 B604 B 0.77405 0.74772 0.25591
 B605 B 0.74406 0.75644 0.26862
 B606 B 0.73483 0.78408 0.24881
 B607 B 0.73952 0.74617 0.20726
 B608 B 0.74712 0.73344 0.24235
 B609 B 0.72320 0.75554 0.23810
 B610 B 0.73170 0.77740 0.21037
 B611 B 0.76161 0.76865 0.19773
 B612 B 0.77094 0.74122 0.21754
 B613 B 0.72919 0.22674 0.74851
 B614 B 0.73714 0.21418 0.71436
 B615 B 0.71299 0.23594 0.71617
 B616 B 0.72114 0.25805 0.74252
 B617 B 0.75109 0.24953 0.75726
 B618 B 0.76062 0.22194 0.73994
 B619 B 0.75594 0.25979 0.69531
 B620 B 0.74803 0.27251 0.72908
 B621 B 0.77210 0.25061 0.72770
 B622 B 0.76393 0.22864 0.70118
 B623 B 0.73398 0.23720 0.68647
 B624 B 0.72439 0.26457 0.70377
 C625 C 0.41041 1.02897 0.35562
 N626 N 0.40687 1.01037 0.33467
 N627 N 0.38648 1.01103 0.31543
 C628 C 0.36870 1.03035 0.31620
 N629 N 0.37225 1.04898 0.33737
 N630 N 0.39262 1.04823 0.35687
 C631 C 0.43270 1.02711 0.37709
 N632 N 0.43446 1.04165 0.40267
 N633 N 0.45341 1.03732 0.42367
 C634 C 0.47127 1.01843 0.41964
 N635 N 0.46988 1.00462 0.39356
 N636 N 0.45103 1.00889 0.37270
 C637 C -0.07745 0.53842 0.85473
 N638 N -0.08007 0.51936 0.83423
 N639 N -0.10122 0.51784 0.81640
 C640 C -0.12072 0.53537 0.81812
 N641 N -0.11797 0.55466 0.83857
 N642 N -0.09685 0.55602 0.85678
 C643 C -0.05484 0.53804 0.87581
 N644 N -0.05468 0.55115 0.90255
 N645 N -0.03601 0.54683 0.92392
 C646 C -0.01688 0.52936 0.91916
 N647 N -0.01653 0.51725 0.89182
 N648 N -0.03510 0.52151 0.87059
 C649 C 0.08962 -0.02800 0.86643
 N650 N 0.10771 -0.04686 0.87114
 N651 N 0.12899 -0.04722 0.85397
 C652 C 0.13315 -0.02851 0.83189
 N653 N 0.11509 -0.00962 0.82751
 N654 N 0.09379 -0.00936 0.84445
 C655 C 0.06648 -0.02657 0.88556
 N656 N 0.04822 -0.00837 0.87860
 N657 N 0.02872 -0.00444 0.89764
 C658 C 0.02661 -0.01862 0.92435
 N659 N 0.04439 -0.03750 0.93085
 N660 N 0.06396 -0.04148 0.91171
 C661 C 0.58200 0.46108 0.35695
 N662 N 0.60076 0.44284 0.36155
 N663 N 0.62215 0.44335 0.34446
 C664 C 0.62568 0.46236 0.32258
 N665 N 0.60679 0.48040 0.31803
 N666 N 0.58543 0.47979 0.33486
 C667 C 0.55941 0.46257 0.37711
 N668 N 0.54166 0.48155 0.37165
 N669 N 0.52332 0.48608 0.39206
 C670 C 0.52188 0.47177 0.41876
 N671 N 0.53892 0.45199 0.42364
 N672 N 0.55740 0.44744 0.40318
 C673 C 0.58503 0.53683 0.14626
 N674 N 0.58728 0.51920 0.16994
 N675 N 0.60809 0.51877 0.18852
 C676 C 0.62761 0.53593 0.18424
 N677 N 0.62525 0.55392 0.16079
 N678 N 0.60440 0.55424 0.14195
 C679 C 0.56307 0.53496 0.12436
 N680 N 0.56220 0.54886 0.09721
 N681 N 0.54417 0.54394 0.07566
 C682 C 0.52645 0.52498 0.08048
 N683 N 0.52682 0.51186 0.10811
 N684 N 0.54471 0.51678 0.12962
 C685 C 0.08719 1.02696 0.64562
 N686 N 0.10232 1.04829 0.64506
 N687 N 0.12373 1.04918 0.66280
 C688 C 0.13106 1.02865 0.68134
 N689 N 0.11599 1.00725 0.68130
 N690 N 0.09452 1.00644 0.66388
 C691 C 0.06392 1.02508 0.62589
 N692 N 0.04764 1.00493 0.63037
 N693 N 0.02841 1.00069 0.61034
 C694 C 0.02462 1.01645 0.58505
 N695 N 0.04033 1.03724 0.58110
 N696 N 0.05959 1.04157 0.60130
 C697 C -0.07717 0.45775 0.64440
 N698 N -0.09885 0.44400 0.63772
 N699 N -0.12005 0.44616 0.65482
 C700 C -0.12044 0.46246 0.67885
 N701 N -0.09865 0.47594 0.68555
 N702 N -0.07749 0.47366 0.66866
 C703 C -0.05472 0.45814 0.62396
 N704 N -0.03419 0.47331 0.63086
 N705 N -0.01579 0.47786 0.61022
 C706 C -0.01709 0.46734 0.58192
 N707 N -0.03699 0.45111 0.57552
 N708 N -0.05551 0.44658 0.59619
 C709 C 0.41843 -0.03025 0.13345
 N710 N 0.39819 -0.04609 0.12746
 N711 N 0.37648 -0.04465 0.14370
 C712 C 0.37406 -0.02704 0.16613
 N713 N 0.39435 -0.01122 0.17197
 N714 N 0.41606 -0.01275 0.15590
 C715 C 0.44156 -0.02997 0.11422
 N716 N 0.46086 -0.01310 0.12024
 N717 N 0.47984 -0.00925 0.10022
 C718 C 0.48038 -0.02220 0.07346
 N719 N 0.46176 -0.04007 0.06811
 N720 N 0.44267 -0.04392 0.08819
 C721 C 0.36032 0.46032 0.05911
 N722 N 0.34191 0.46693 0.03749
 N723 N 0.31958 0.45422 0.03620
 C724 C 0.31472 0.43446 0.05655
 N725 N 0.33281 0.42834 0.07883
 N726 N 0.35528 0.44097 0.08000
 C727 C 0.38634 0.47145 0.05680
 N728 N 0.40659 0.46115 0.07350
 N729 N 0.43082 0.46850 0.06763
 C730 C 0.43567 0.48610 0.04458
 N731 N 0.41531 0.49734 0.02906
 N732 N 0.39111 0.48999 0.03485
 C733 C -0.14386 0.95857 0.55656
 N734 N -0.15999 0.96234 0.53177
 N735 N -0.18247 0.94997 0.53008
 C736 C -0.18995 0.93337 0.55315
 N737 N -0.17414 0.93028 0.57855
 N738 N -0.15138 0.94246 0.58009
 C739 C -0.11753 0.96916 0.55545
 N740 N -0.09834 0.95955 0.57442
 N741 N -0.07368 0.96602 0.56961
 C742 C -0.06730 0.98201 0.54545
 N743 N -0.08666 0.99276 0.52771
 N744 N -0.11127 0.98624 0.53240
 C745 C -0.14221 0.04426 0.93724
 N746 N -0.16060 0.03645 0.95753
 N747 N -0.18290 0.04924 0.95924
 C748 C -0.18778 0.07031 0.94066
 N749 N -0.16972 0.07769 0.91963
 N750 N -0.14725 0.06497 0.91807
 C751 C -0.11615 0.03287 0.93961
 N752 N -0.11141 0.01293 0.95997
 N753 N -0.08719 0.00536 0.96657
 C754 C -0.06676 0.01775 0.95352
 N755 N -0.07156 0.03669 0.93179
 N756 N -0.09582 0.04426 0.92511
 C757 C 0.35550 0.53806 0.43737
 N758 N 0.35045 0.55892 0.41845
 N759 N 0.32815 0.57184 0.42046
 C760 C 0.31022 0.56449 0.44168
 N761 N 0.31508 0.54325 0.45999
 N762 N 0.33724 0.53028 0.45784
 C763 C 0.38148 0.52644 0.43926
 N764 N 0.38640 0.50669 0.45982
 N765 N 0.41065 0.49888 0.46579
 C766 C 0.43094 0.51081 0.45185
 N767 N 0.42591 0.52957 0.42997
 N768 N 0.40163 0.53741 0.42395
 C769 C 0.15116 0.52834 0.56102
 N770 N 0.16863 0.52398 0.53863
 N771 N 0.19022 0.53789 0.53671
 C772 C 0.19523 0.55671 0.55708
 N773 N 0.17815 0.56049 0.58015
 N774 N 0.15646 0.54663 0.58200
 C775 C 0.12530 0.51669 0.55914
 N776 N 0.10597 0.52490 0.57740
 N777 N 0.08146 0.51819 0.57172
 C778 C 0.07530 0.50343 0.54732
 N779 N 0.09484 0.49387 0.53033
 N780 N 0.11936 0.50057 0.53594
 C781 C 0.64890 0.03592 0.05420
 N782 N 0.66674 0.03118 0.03235
 N783 N 0.68884 0.04435 0.03138
 C784 C 0.69402 0.06276 0.05223
 N785 N 0.67653 0.06692 0.07475
 N786 N 0.65433 0.05380 0.07564
 C787 C 0.62279 0.02496 0.05141
 N788 N 0.60327 0.03342 0.06922
 N789 N 0.57874 0.02710 0.06291
 C790 C 0.57278 0.01252 0.03826
 N791 N 0.59246 0.00274 0.02170
 N792 N 0.61699 0.00904 0.02796
 C793 C 0.64207 0.96368 0.43665
 N794 N 0.64709 0.94427 0.41721
 N795 N 0.66958 0.93147 0.41925
 C796 C 0.68773 0.93747 0.44100
 N797 N 0.68293 0.95737 0.45977
 N798 N 0.66057 0.97023 0.45762
 C799 C 0.61582 0.97441 0.43881
 N800 N 0.61068 0.99208 0.46039
 N801 N 0.58629 0.99821 0.46688
 C802 C 0.56613 0.98651 0.45249
 N803 N 0.57131 0.97014 0.42947
 N804 N 0.59570 0.96400 0.42292
 C805 C 0.15076 0.46710 0.94143
 N806 N 0.16905 0.47154 0.96351
 N807 N 0.19077 0.45763 0.96518
 C808 C 0.19510 0.43871 0.94487
 N809 N 0.17718 0.43484 0.92207
 N810 N 0.15534 0.44872 0.92047
 C811 C 0.12499 0.47888 0.94363
 N812 N 0.10501 0.47091 0.92553
 N813 N 0.08073 0.47789 0.93145
 C814 C 0.07549 0.49264 0.95599
 N815 N 0.09564 0.50193 0.97283
 N816 N 0.11993 0.49498 0.96697
 C817 C 0.00883 0.36184 0.47775
 N818 N -0.01092 0.35159 0.46095
 N819 N -0.00692 0.33088 0.44406
 C820 C 0.01707 0.31998 0.44291
 N821 N 0.03672 0.33020 0.45982
 N822 N 0.03264 0.35061 0.47701
 C823 C 0.00559 0.38610 0.49410
 N824 N 0.02396 0.39334 0.51491
 N825 N 0.02363 0.41686 0.52629
 C826 C 0.00497 0.43419 0.51731
 N827 N -0.01381 0.42672 0.49706
 N828 N -0.01364 0.40306 0.48584
 C829 C 0.50666 -0.12951 -0.03010
 N830 N 0.48614 -0.14068 -0.04454
 N831 N 0.48956 -0.16151 -0.06137
 C832 C 0.51369 -0.17163 -0.06489
 N833 N 0.53414 -0.16043 -0.05043
 N834 N 0.53067 -0.13987 -0.03328
 C835 C 0.50370 -0.10534 -0.01352
 N836 N 0.52292 -0.09754 0.00584
 N837 N 0.52248 -0.07407 0.01732
 C838 C 0.50288 -0.05732 0.00988
 N839 N 0.48328 -0.06538 -0.00885
 N840 N 0.48354 -0.08902 -0.02013
 C841 C -0.01158 -0.13114 1.02407
 N842 N -0.03618 -0.14017 1.02686
 N843 N -0.04098 -0.16130 1.04410
 C844 C -0.02133 -0.17437 1.05898
 N845 N 0.00333 -0.16556 1.05577
 N846 N 0.00808 -0.14421 1.03890
 C847 C -0.00682 -0.10621 1.00807
 N848 N 0.01355 -0.09146 1.01678
 N849 N 0.01576 -0.06730 1.00587
 C850 C -0.00183 -0.05705 0.98523
 N851 N -0.02180 -0.07219 0.97585
 N852 N -0.02430 -0.09623 0.98709
 C853 C 0.48468 0.36115 0.52201
 N854 N 0.50405 0.34840 0.53777
 N855 N 0.49903 0.32718 0.55473
 C856 C 0.47437 0.31821 0.55707
 N857 N 0.45500 0.33095 0.54126
 N858 N 0.46008 0.35195 0.52393
 C859 C 0.48966 0.38596 0.50600
 N860 N 0.47296 0.39545 0.48381
 N861 N 0.47561 0.41939 0.47230
 C862 C 0.49496 0.43485 0.48260
 N863 N 0.51168 0.42517 0.50466
 N864 N 0.50935 0.40112 0.51582
 C865 C 0.50019 1.12644 0.52484
 N866 N 0.52425 1.13659 0.52878
 N867 N 0.52800 1.15657 0.54691
 C868 C 0.50780 1.16734 0.56167
 N869 N 0.48364 1.15741 0.55744
 N870 N 0.47994 1.13716 0.53962
 C871 C 0.49694 1.10286 0.50712
 N872 N 0.47692 1.08650 0.51277
 N873 N 0.47657 1.06316 0.50070
 C874 C 0.49594 1.05546 0.48207
 N875 N 0.51532 1.07233 0.47545
 N876 N 0.51584 1.09551 0.48773
 C877 C 0.00996 0.63389 1.02873
 N878 N 0.03314 0.63906 1.04250
 N879 N 0.03584 0.65919 1.06057
 C880 C 0.01559 0.67535 1.06534
 N881 N -0.00763 0.67025 1.05122
 N882 N -0.01049 0.64975 1.03357
 C883 C 0.00743 0.61078 1.01008
 N884 N -0.01415 0.59580 1.01130
 N885 N -0.01427 0.57259 0.99878
 C886 C 0.00697 0.56375 0.98408
 N887 N 0.02805 0.57929 0.98188
 N888 N 0.02833 0.60224 0.99470
 C889 C 0.48882 0.63487 -0.02485
 N890 N 0.50815 0.65183 -0.03123
 N891 N 0.50338 0.67310 -0.04855
 C892 C 0.47928 0.67786 -0.06093
 N893 N 0.46007 0.66071 -0.05446
 N894 N 0.46469 0.63979 -0.03663
 C895 C 0.49405 0.61037 -0.00806
 N896 N 0.47639 0.60043 0.01191
 N897 N 0.47905 0.57650 0.02357
 C898 C 0.49930 0.56140 0.01547
 N899 N 0.51694 0.57151 -0.00447
 N900 N 0.51461 0.59561 -0.01568
 C901 C -0.00535 1.12596 0.47425
 N902 N -0.02896 1.13057 0.46080
 N903 N -0.03307 1.15138 0.44260
 C904 C -0.01388 1.16881 0.43741
 N905 N 0.00976 1.16427 0.45123
 N906 N 0.01406 1.14311 0.46898
 C907 C -0.00126 1.10217 0.49316
 N908 N 0.02016 1.08720 0.48980
 N909 N 0.02129 1.06343 0.50252
 C910 C 0.00133 1.05395 0.51960
 N911 N -0.01950 1.06947 0.52391
 N912 N -0.02084 1.09298 0.51087
 C913 C 0.77870 0.66406 0.89563
 N914 N 0.75983 0.66018 0.91675
 N915 N 0.76063 0.63984 0.93616
 C916 C 0.78036 0.62248 0.93541
 N917 N 0.79928 0.62640 0.91412
 N918 N 0.79838 0.64671 0.89444
 C919 C 0.77658 0.68609 0.87372
 N920 N 0.79132 0.68787 0.84793
 N921 N 0.78663 0.70634 0.82637
 C922 C 0.76720 0.72370 0.83003
 N923 N 0.75322 0.72235 0.85634
 N924 N 0.75783 0.70395 0.87776
 C925 C 0.28747 0.17287 0.39845
 N926 N 0.26895 0.17123 0.42031
 N927 N 0.26777 0.15090 0.43961
 C928 C 0.28516 0.13130 0.43807
 N929 N 0.30395 0.13307 0.41628
 N930 N 0.30494 0.15336 0.39660
 C931 C 0.28664 0.19456 0.37597
 N932 N 0.29819 0.19332 0.34799
 N933 N 0.29322 0.21125 0.32586
 C934 C 0.27663 0.23101 0.33105
 N935 N 0.26613 0.23272 0.35948
 N936 N 0.27102 0.21488 0.38147
 C937 C 0.72141 0.33306 0.37509
 N938 N 0.73898 0.33555 0.39852
 N939 N 0.73920 0.35649 0.41542
 C940 C 0.72191 0.37585 0.40952
 N941 N 0.70424 0.37334 0.38606
 N942 N 0.70413 0.35241 0.36896
 C943 C 0.72272 0.31057 0.35563
 N944 N 0.70942 0.30978 0.32827
 N945 N 0.71382 0.29093 0.30876
 C946 C 0.73155 0.27218 0.31604
 N947 N 0.74400 0.27252 0.34392
 N948 N 0.73964 0.29131 0.36336
 C949 C 0.21526 0.82765 0.88478
 N950 N 0.19467 0.84407 0.88435
 N951 N 0.19520 0.86507 0.90139
 C952 C 0.21650 0.87072 0.91902
 N953 N 0.23704 0.85426 0.91904
 N954 N 0.23640 0.83319 0.90239
 C955 C 0.21604 0.80510 0.86519
 N956 N 0.23532 0.78755 0.86993
 N957 N 0.23920 0.76920 0.84976
 C958 C 0.22397 0.76760 0.82399
 N959 N 0.20393 0.78452 0.81983
 N960 N 0.19996 0.80293 0.84015
 C961 C 0.28157 0.83767 0.10808
 N962 N 0.26231 0.84083 0.08658
 N963 N 0.26254 0.86054 0.06630
 C964 C 0.28210 0.87800 0.06643
 N965 N 0.30150 0.87482 0.08807
 N966 N 0.30114 0.85514 0.10870
 C967 C 0.27986 0.81621 0.13081
 N968 N 0.29385 0.81566 0.15777
 N969 N 0.28908 0.79779 0.17982
 C970 C 0.27029 0.77986 0.17558
 N971 N 0.25714 0.77997 0.14814
 N972 N 0.26183 0.79774 0.12623
 C973 C 0.77962 0.33600 0.60264
 N974 N 0.76281 0.33792 0.57820
 N975 N 0.76306 0.35839 0.55899
 C976 C 0.78007 0.37785 0.56345
 N977 N 0.79707 0.37589 0.58786
 N978 N 0.79672 0.35541 0.60727
 C979 C 0.77752 0.31410 0.62463
 N980 N 0.79069 0.31341 0.65216
 N981 N 0.78562 0.29518 0.67363
 C982 C 0.76727 0.27704 0.66823
 N983 N 0.75492 0.27726 0.64027
 N984 N 0.75999 0.29538 0.61888
 C985 C 0.20765 0.17375 0.61682
 N986 N 0.19404 0.15200 0.62361
 N987 N 0.19603 0.13148 0.60595
 C988 C 0.21205 0.13186 0.58123
 N989 N 0.22541 0.15372 0.57443
 N990 N 0.22327 0.17423 0.59186
 C991 C 0.20825 0.19541 0.63779
 N992 N 0.22254 0.21649 0.63028
 N993 N 0.22739 0.23425 0.65107
 C994 C 0.21809 0.23172 0.68019
 N995 N 0.20279 0.21119 0.68730
 N996 N 0.19791 0.19334 0.66647
 C997 C 0.72045 0.66792 0.12147
 N998 N 0.70485 0.64752 0.12794
 N999 N 0.70613 0.62643 0.11123
 C1000 C 0.72334 0.62482 0.08783
 N1001 N 0.73895 0.64524 0.08154
 N1002 N 0.73757 0.66634 0.09808
 C1003 C 0.72073 0.69046 0.14089
 N1004 N 0.73654 0.71046 0.13359
 N1005 N 0.74038 0.72919 0.15338
 C1006 C 0.72848 0.72873 0.18115
 N1007 N 0.71173 0.70929 0.18792
 N1008 N 0.70786 0.69048 0.16807
 C1009 C 0.20770 0.61411 0.19820
 N1010 N 0.21417 0.59577 0.21997
 N1011 N 0.20180 0.57335 0.22104
 C1012 C 0.18248 0.56834 0.20036
 N1013 N 0.17646 0.58643 0.17797
 N1014 N 0.18877 0.60898 0.17701
 C1015 C 0.21856 0.64002 0.20050
 N1016 N 0.20877 0.65998 0.18291
 N1017 N 0.21578 0.68407 0.18855
 C1018 C 0.23248 0.68908 0.21224
 N1019 N 0.24330 0.66900 0.22868
 N1020 N 0.23631 0.64494 0.22309
 C1021 C 0.71038 0.10932 0.69202
 N1022 N 0.69272 0.10369 0.66953
 N1023 N 0.68043 0.08113 0.67013
 C1024 C 0.68522 0.06346 0.69339
 N1025 N 0.70338 0.06892 0.71536
 N1026 N 0.71572 0.09138 0.71469
 C1027 C 0.72070 0.13546 0.69455
 N1028 N 0.73643 0.14132 0.71883
 N1029 N 0.74242 0.16570 0.72427
 C1030 C 0.73252 0.18515 0.70596
 N1031 N 0.71804 0.17916 0.68065
 N1032 N 0.71204 0.15478 0.67517
 C1033 C 0.79386 0.10485 0.30172
 N1034 N 0.81026 0.09775 0.32544
 N1035 N 0.82389 0.07590 0.32453
 C1036 C 0.82205 0.06063 0.29955
 N1037 N 0.80522 0.06768 0.27623
 N1038 N 0.79138 0.08925 0.27732
 C1039 C 0.78190 0.13049 0.29974
 N1040 N 0.76443 0.13623 0.27670
 N1041 N 0.75733 0.16049 0.27044
 C1042 C 0.76789 0.18000 0.28650
 N1043 N 0.78397 0.17410 0.31094
 N1044 N 0.79104 0.14978 0.31733
 C1045 C 0.29140 0.60334 0.79912
 N1046 N 0.30748 0.59618 0.82312
 N1047 N 0.32169 0.57472 0.82202
 C1048 C 0.32075 0.55987 0.79661
 N1049 N 0.30429 0.56700 0.77294
 N1050 N 0.28989 0.58821 0.77419
 C1051 C 0.27841 0.62850 0.79786
 N1052 N 0.26122 0.63433 0.77454
 N1053 N 0.25280 0.65837 0.76966
 C1054 C 0.26170 0.67760 0.78746
 N1055 N 0.27761 0.67150 0.81200
 N1056 N 0.28597 0.64739 0.81702
 C1057 C 0.28592 0.39622 0.69541
 N1058 N 0.28263 0.41359 0.71781
 N1059 N 0.29702 0.43479 0.71843
 C1060 C 0.31528 0.43948 0.69666
 N1061 N 0.31807 0.42243 0.67372
 N1062 N 0.30374 0.40112 0.67320
 C1063 C 0.27340 0.37097 0.69816
 N1064 N 0.25701 0.36579 0.72179
 N1065 N 0.24937 0.34177 0.72806
 C1066 C 0.25824 0.32199 0.71134
 N1067 N 0.27324 0.32742 0.68645
 N1068 N 0.28087 0.35145 0.68011
 C1069 C 0.78841 0.89600 0.19903
 N1070 N 0.78776 0.91137 0.22376
 N1071 N 0.80196 0.93267 0.22443
 C1072 C 0.81739 0.93962 0.20038
 N1073 N 0.81734 0.92461 0.17511
 N1074 N 0.80332 0.90307 0.17458
 C1075 C 0.77644 0.87047 0.20123
 N1076 N 0.76098 0.86434 0.22547
 N1077 N 0.75421 0.84001 0.23141
 C1078 C 0.76315 0.82084 0.21381
 N1079 N 0.77712 0.82720 0.18832
 N1080 N 0.78382 0.85156 0.18224
 C1081 C 0.70987 0.89186 0.80435
 N1082 N 0.69159 0.89735 0.82551
 N1083 N 0.67899 0.91984 0.82401
 C1084 C 0.68407 0.93755 0.80112
 N1085 N 0.70281 0.93221 0.78050
 N1086 N 0.71546 0.90984 0.78207
 C1087 C 0.72065 0.86579 0.80253
 N1088 N 0.73715 0.86016 0.77949
 N1089 N 0.74352 0.83584 0.77423
 C1090 C 0.73323 0.81623 0.79141
 N1091 N 0.71804 0.82199 0.81566
 N1092 N 0.71165 0.84630 0.82097
 C1093 C 0.21637 0.39789 0.30895
 N1094 N 0.22049 0.41596 0.28629
 N1095 N 0.20704 0.43787 0.28531
 C1096 C 0.18893 0.44261 0.30693
 N1097 N 0.18538 0.42485 0.33021
 N1098 N 0.19878 0.40284 0.33112
 C1099 C 0.22757 0.37209 0.30648
 N1100 N 0.21963 0.35247 0.32543
 N1101 N 0.22597 0.32825 0.31959
 C1102 C 0.24003 0.32272 0.29433
 N1103 N 0.24936 0.34249 0.27657
 N1104 N 0.24303 0.36672 0.28235
 C1105 C 0.11128 0.26297 0.78212
 N1106 N 0.10066 0.24395 0.80005
 N1107 N 0.07929 0.24833 0.81612
 C1108 C 0.06805 0.27203 0.81529
 N1109 N 0.07860 0.29099 0.79723
 N1110 N 0.09973 0.28650 0.78081
 C1111 C 0.13643 0.25916 0.76731
 N1112 N 0.14392 0.27479 0.74334
 N1113 N 0.16795 0.27335 0.73246
 C1114 C 0.18548 0.25634 0.74522
 N1115 N 0.17787 0.24083 0.76922
 N1116 N 0.15376 0.24193 0.77979
 C1117 C 0.62012 0.75751 0.28455
 N1118 N 0.60979 0.78149 0.28624
 N1119 N 0.58895 0.78561 0.30328
 C1120 C 0.57747 0.76586 0.31909
 N1121 N 0.58757 0.74177 0.31706
 N1122 N 0.60868 0.73771 0.30035
 C1123 C 0.64462 0.75382 0.26819
 N1124 N 0.66111 0.73433 0.27676
 N1125 N 0.68503 0.73348 0.26545
 C1126 C 0.69323 0.75172 0.24468
 N1127 N 0.67633 0.77067 0.23539
 N1128 N 0.65255 0.77175 0.24694
 C1129 C 0.62063 0.23965 0.21541
 N1130 N 0.60874 0.25885 0.19840
 N1131 N 0.58679 0.25441 0.18265
 C1132 C 0.57622 0.23048 0.18282
 N1133 N 0.58811 0.21131 0.19987
 N1134 N 0.60981 0.21585 0.21600
 C1135 C 0.64610 0.24376 0.23036
 N1136 N 0.65463 0.22787 0.25394
 N1137 N 0.67890 0.22955 0.26487
 C1138 C 0.69570 0.24708 0.25260
 N1139 N 0.68701 0.26298 0.22912
 N1140 N 0.66263 0.26162 0.21848
 C1141 C 0.11103 0.73564 0.72439
 N1142 N 0.09910 0.75453 0.70691
 N1143 N 0.07755 0.74962 0.69063
 C1144 C 0.06743 0.72551 0.69075
 N1145 N 0.07928 0.70667 0.70838
 N1146 N 0.10059 0.71167 0.72501
 C1147 C 0.13644 0.74009 0.73920
 N1148 N 0.14557 0.72396 0.76223
 N1149 N 0.17001 0.72577 0.77259
 C1150 C 0.18634 0.74369 0.76024
 N1151 N 0.17705 0.75985 0.73732
 N1152 N 0.15253 0.75834 0.72728
 C1153 C 0.87442 0.75068 0.71956
 N1154 N 0.87981 0.77421 0.70684
 N1155 N 0.90005 0.77757 0.68842
 C1156 C 0.91612 0.75764 0.68223
 N1157 N 0.91080 0.73405 0.69527
 N1158 N 0.89017 0.73055 0.71326
 C1159 C 0.85113 0.74748 0.73856
 N1160 N 0.83542 0.72667 0.73583
 N1161 N 0.81194 0.72636 0.74855
 C1162 C 0.80352 0.74659 0.76496
 N1163 N 0.81982 0.76681 0.76871
 N1164 N 0.84304 0.76730 0.75569
 C1165 C 0.38072 0.25705 0.21826
 N1166 N 0.39146 0.23685 0.20377
 N1167 N 0.41222 0.24024 0.18598
 C1168 C 0.42269 0.26405 0.18152
 N1169 N 0.41190 0.28418 0.19602
 N1170 N 0.39143 0.28073 0.21411
 C1171 C 0.35681 0.25415 0.23637
 N1172 N 0.34979 0.27290 0.25577
 N1173 N 0.32661 0.27249 0.26897
 C1174 C 0.30939 0.25338 0.26333
 N1175 N 0.31668 0.23425 0.24449
 N1176 N 0.34003 0.23450 0.23148
 C1177 C 0.38018 0.74514 0.28258
 N1178 N 0.39167 0.76397 0.29903
 N1179 N 0.41319 0.75910 0.31582
 C1180 C 0.42373 0.73508 0.31729
 N1181 N 0.41225 0.71627 0.30078
 N1182 N 0.39096 0.72124 0.28363
 C1183 C 0.35513 0.74974 0.26649
 N1184 N 0.34698 0.73416 0.24364
 N1185 N 0.32298 0.73634 0.23176
 C1186 C 0.30612 0.75411 0.24231
 N1187 N 0.31442 0.76967 0.26512
 N1188 N 0.33852 0.76781 0.27667
 C1189 C 0.87361 0.24941 0.78256
 N1190 N 0.88396 0.22546 0.78674
 N1191 N 0.90452 0.22138 0.80539
 C1192 C 0.91570 0.24114 0.82047
 N1193 N 0.90553 0.26520 0.81604
 N1194 N 0.88470 0.26922 0.79769
 C1195 C 0.84963 0.25305 0.76381
 N1196 N 0.83295 0.27270 0.76906
 N1197 N 0.80942 0.27344 0.75559
 C1198 C 0.80187 0.25489 0.73589
 N1199 N 0.81903 0.23586 0.72981
 N1200 N 0.84239 0.23493 0.74349
 C1201 C 0.59563 0.98143 0.60250
 N1202 N 0.61569 0.99786 0.59770
 N1203 N 0.62963 1.00647 0.62140
 C1204 C 0.62429 0.99881 0.65096
 N1205 N 0.60447 0.98191 0.65564
 N1206 N 0.59018 0.97364 0.63194
 C1207 C 0.57857 0.97498 0.57636
 N1208 N 0.55267 0.97166 0.58030
 N1209 N 0.53645 0.97174 0.55587
 C1210 C 0.54559 0.97481 0.52664
 N1211 N 0.57159 0.97666 0.52291
 N1212 N 0.58777 0.97685 0.54720
 C1213 C 0.09766 0.48241 1.10782
 N1214 N 0.12127 0.49352 1.10407
 N1215 N 0.13450 0.50230 1.12825
 C1216 C 0.12469 0.50021 1.15717
 N1217 N 0.10133 0.48854 1.16105
 N1218 N 0.08794 0.48003 1.13678
 C1219 C 0.08150 0.47707 1.08049
 N1220 N 0.05524 0.47618 1.08258
 N1221 N 0.04027 0.47760 1.05711
 C1222 C 0.05099 0.47973 1.02861
 N1223 N 0.07721 0.47907 1.02665
 N1224 N 0.09220 0.47782 1.05203
 C1225 C -0.09245 0.01733 1.10476
 N1226 N -0.11293 0.00128 1.10120
 N1227 N -0.12621 -0.00724 1.12558
 C1228 C -0.11976 0.00011 1.15460
 N1229 N -0.09946 0.01660 1.15804
 N1230 N -0.08585 0.02479 1.13366
 C1231 C -0.07637 0.02386 1.07793
 N1232 N -0.05044 0.02788 1.08131
 N1233 N -0.03507 0.02808 1.05672
 C1234 C -0.04513 0.02462 1.02785
 N1235 N -0.07119 0.02195 1.02456
 N1236 N -0.08651 0.02152 1.04903
 C1237 C 0.40788 0.51574 0.60206
 N1238 N 0.38635 0.50112 0.59848
 N1239 N 0.37275 0.49327 0.62287
 C1240 C 0.37991 0.49991 0.65195
 N1241 N 0.40122 0.51508 0.65543
 N1242 N 0.41517 0.52256 0.63100
 C1243 C 0.42428 0.52103 0.57518
 N1244 N 0.45052 0.52233 0.57838
 N1245 N 0.46563 0.52097 0.55367
 C1246 C 0.45502 0.51855 0.52488
 N1247 N 0.42880 0.51864 0.52175
 N1248 N 0.41372 0.51977 0.54634
 C1249 C 0.41272 0.48048 -0.10697
 N1250 N 0.42236 0.47891 -0.13593
 N1251 N 0.40825 0.48685 -0.16060
 C1252 C 0.38419 0.49712 -0.15715
 N1253 N 0.37452 0.49844 -0.12822
 N1254 N 0.38848 0.49023 -0.10364
 C1255 C 0.42924 0.47541 -0.07940
 N1256 N 0.41863 0.47548 -0.05089
 N1257 N 0.43366 0.47649 -0.02563
 C1258 C 0.45987 0.47752 -0.02775
 N1259 N 0.47054 0.47619 -0.05624
 N1260 N 0.45551 0.47504 -0.08159
 C1261 C -0.08719 0.97809 0.39455
 N1262 N -0.07740 0.97739 0.36560
 N1263 N -0.09132 0.98624 0.34120
 C1264 C -0.11528 0.99663 0.34496
 N1265 N -0.12508 0.99715 0.37389
 N1266 N -0.11133 0.98802 0.39819
 C1267 C -0.07088 0.97184 0.42196
 N1268 N -0.08176 0.97002 0.45030
 N1269 N -0.06699 0.97008 0.47585
 C1270 C -0.04082 0.97209 0.47419
 N1271 N -0.02985 0.97256 0.44577
 N1272 N -0.04459 0.97232 0.42013
 C1273 C 0.09686 0.51997 0.39826
 N1274 N 0.08709 0.52215 0.36891
 N1275 N 0.10130 0.51524 0.34501
 C1276 C 0.12561 0.50542 0.34962
 N1277 N 0.13544 0.50352 0.37895
 N1278 N 0.12135 0.51071 0.40279
 C1279 C 0.08013 0.52359 0.42497
 N1280 N 0.09064 0.52331 0.45396
 N1281 N 0.07558 0.52091 0.47860
 C1282 C 0.04948 0.51853 0.47532
 N1283 N 0.03887 0.52009 0.44631
 N1284 N 0.05390 0.52269 0.42159
 C1285 C 0.59491 0.02178 -0.11132
 N1286 N 0.58549 0.02348 -0.14085
 N1287 N 0.59951 0.01504 -0.16415
 C1288 C 0.62323 0.00409 -0.15873
 N1289 N 0.63270 0.00259 -0.12922
 N1290 N 0.61882 0.01132 -0.10599
 C1291 C 0.57825 0.02738 -0.08510
 N1292 N 0.58867 0.02820 -0.05613
 N1293 N 0.57347 0.02744 -0.03151
 C1294 C 0.54733 0.02568 -0.03476
 N1295 N 0.53684 0.02625 -0.06386
 N1296 N 0.55200 0.02722 -0.08857
 C1297 C 0.62807 0.53759 0.02278
 N1298 N 0.63121 0.55543 0.04464
 N1299 N 0.65462 0.56426 0.05169
 C1300 C 0.67599 0.55597 0.03690
 N1301 N 0.67288 0.53769 0.01518
 N1302 N 0.64932 0.52849 0.00839
 C1303 C 0.60168 0.52992 0.01455
 N1304 N 0.59480 0.50480 0.01278
 N1305 N 0.56975 0.49827 0.01151
 C1306 C 0.55083 0.51664 0.01171
 N1307 N 0.55800 0.54163 0.01231
 N1308 N 0.58285 0.54816 0.01384
 C1309 C 0.12737 1.03183 0.52275
 N1310 N 0.13909 1.03173 0.55113
 N1311 N 0.16162 1.04368 0.55542
 C1312 C 0.17353 1.05579 0.53134
 N1313 N 0.16208 1.05553 0.50278
 N1314 N 0.13931 1.04387 0.49857
 C1315 C 0.10120 1.02106 0.51947
 N1316 N 0.08458 1.02945 0.49650
 N1317 N 0.05967 1.02233 0.49655
 C1318 C 0.05062 1.00652 0.51953
 N1319 N 0.06757 0.99741 0.54168
 N1320 N 0.09228 1.00465 0.54179
 C1321 C 0.12447 -0.03898 0.98714
 N1322 N 0.12689 -0.06486 0.98502
 N1323 N 0.14940 -0.07535 0.97736
 C1324 C 0.17045 -0.06039 0.97177
 N1325 N 0.16821 -0.03447 0.97430
 N1326 N 0.14550 -0.02391 0.98150
 C1327 C 0.09880 -0.02781 0.99272
 N1328 N 0.09242 -0.00390 0.98146
 N1329 N 0.06784 0.00424 0.98170
 C1330 C 0.04877 -0.01105 0.99349
 N1331 N 0.05552 -0.03434 1.00610
 N1332 N 0.07998 -0.04265 1.00560
 C1333 C 0.62339 0.45748 0.47772
 N1334 N 0.62645 0.43893 0.45677
 N1335 N 0.64998 0.43095 0.44938
 C1336 C 0.67157 0.44087 0.46291
 N1337 N 0.66847 0.45970 0.48384
 N1338 N 0.64480 0.46807 0.49090
 C1339 C 0.59702 0.46511 0.48557
 N1340 N 0.59021 0.49020 0.48823
 N1341 N 0.56520 0.49691 0.48942
 C1342 C 0.54623 0.47876 0.48834
 N1343 N 0.55334 0.45373 0.48698
 N1344 N 0.57817 0.44702 0.48549
 C1345 C -0.12154 0.46614 0.50727
 N1346 N -0.13566 0.46847 0.53327
 N1347 N -0.15961 0.45910 0.53481
 C1348 C -0.17052 0.44743 0.51019
 N1349 N -0.15665 0.44556 0.48386
 N1350 N -0.13250 0.45468 0.48246
 C1351 C -0.09419 0.47381 0.50768
 N1352 N -0.07708 0.46463 0.48703
 N1353 N -0.05170 0.46925 0.49023
 C1354 C -0.04265 0.48313 0.51422
 N1355 N -0.05992 0.49289 0.53417
 N1356 N -0.08514 0.48819 0.53110
 C1357 C 0.37705 -0.03160 0.00399
 N1358 N 0.36430 -0.03093 0.03120
 N1359 N 0.34112 -0.04187 0.03423
 C1360 C 0.32957 -0.05354 0.01000
 N1361 N 0.34205 -0.05381 -0.01747
 N1362 N 0.36547 -0.04316 -0.02038
 C1363 C 0.40374 -0.02181 0.00238
 N1364 N 0.42068 -0.03037 -0.01887
 N1365 N 0.44579 -0.02407 -0.01720
 C1366 C 0.45477 -0.00899 0.00574
 N1367 N 0.43756 0.00031 0.02611
 N1368 N 0.41262 -0.00610 0.02461
 C1369 C 0.37236 1.03022 0.49344
 N1370 N 0.35868 1.03088 0.46630
 N1371 N 0.33599 1.04315 0.46379
 C1372 C 0.32588 1.05487 0.48850
 N1373 N 0.33926 1.05378 0.51590
 N1374 N 0.36218 1.04178 0.51830
 C1375 C 0.39884 1.01966 0.49431
 N1376 N 0.41670 1.02717 0.51571
 N1377 N 0.44169 1.02073 0.51316
 C1378 C 0.44962 1.00658 0.48912
 N1379 N 0.43150 0.99821 0.46863
 N1380 N 0.40668 1.00476 0.47102
 C1381 C -0.12009 0.53419 0.99201
 N1382 N -0.13432 0.53275 0.96542
 N1383 N -0.15823 0.54245 0.96343
 C1384 C -0.16897 0.55358 0.98814
 N1385 N -0.15499 0.55455 1.01503
 N1386 N -0.13087 0.54511 1.01691
 C1387 C -0.09285 0.52600 0.99227
 N1388 N -0.07546 0.53452 1.01363
 N1389 N -0.05017 0.52943 1.01107
 C1390 C -0.04149 0.51575 0.98700
 N1391 N -0.05906 0.50665 0.96635
 N1392 N -0.08418 0.51181 0.96879
 C1393 C 0.02895 0.62418 0.58070
 N1394 N 0.04827 0.63014 0.60092
 N1395 N 0.04685 0.65130 0.61743
 C1396 C 0.02598 0.66734 0.61463
 N1397 N 0.00669 0.66143 0.59420
 N1398 N 0.00811 0.64023 0.57763
 C1399 C 0.02972 0.59966 0.56453
 N1400 N 0.00991 0.59273 0.54547
 N1401 N 0.00918 0.56921 0.53400
 C1402 C 0.02826 0.55172 0.54100
 N1403 N 0.04834 0.55898 0.55940
 N1404 N 0.04916 0.58249 0.57081
 C1405 C 0.53060 0.13258 0.07100
 N1406 N 0.55179 0.13853 0.08842
 N1407 N 0.55174 0.15916 0.10599
 C1408 C 0.53046 0.17465 0.10705
 N1409 N 0.50933 0.16876 0.08939
 N1410 N 0.50936 0.14810 0.07183
 C1411 C 0.52986 0.10849 0.05389
 N1412 N 0.50769 0.10102 0.03937
 N1413 N 0.50587 0.07764 0.02768
 C1414 C 0.52616 0.06083 0.02986
 N1415 N 0.54858 0.06873 0.04339
 N1416 N 0.55045 0.09209 0.05510
 C1417 C -0.02944 0.13847 0.92942
 N1418 N -0.00842 0.15347 0.92367
 N1419 N -0.01087 0.17562 0.90750
 C1420 C -0.03438 0.18362 0.89608
 N1421 N -0.05546 0.16865 0.90200
 N1422 N -0.05304 0.14652 0.91834
 C1423 C -0.02613 0.11293 0.94485
 N1424 N -0.04696 0.09824 0.95264
 N1425 N -0.04374 0.07399 0.96317
 C1426 C -0.01963 0.06343 0.96607
 N1427 N 0.00117 0.07847 0.95924
 N1428 N -0.00200 0.10273 0.94899
 C1429 C 0.47404 0.63062 0.42590
 N1430 N 0.45105 0.63926 0.41366
 N1431 N 0.44981 0.66133 0.39711
 C1432 C 0.47150 0.67562 0.39210
 N1433 N 0.49441 0.66706 0.40469
 N1434 N 0.49568 0.64494 0.42110
 C1435 C 0.47602 0.60507 0.44140
 N1436 N 0.49967 0.59425 0.44720
 N1437 N 0.50171 0.56985 0.45729
 C1438 C 0.48022 0.55531 0.46223
 N1439 N 0.45655 0.56648 0.45766
 N1440 N 0.45446 0.59087 0.44733
 C1441 C 0.52931 0.86440 0.42785
 N1442 N 0.50837 0.84873 0.42565
 N1443 N 0.50929 0.82761 0.40897
 C1444 C 0.53112 0.82139 0.39355
 N1445 N 0.55214 0.83701 0.39600
 N1446 N 0.55125 0.85812 0.41275
 C1447 C 0.52734 0.88900 0.44370
 N1448 N 0.54788 0.90529 0.44498
 N1449 N 0.54501 0.92901 0.45540
 C1450 C 0.52156 0.93740 0.46488
 N1451 N 0.50129 0.92072 0.46464
 N1452 N 0.50413 0.89699 0.45436
 C1453 C 0.02963 0.37238 0.92547
 N1454 N 0.00845 0.35689 0.92672
 N1455 N 0.00723 0.33569 0.91011
 C1456 C 0.02706 0.32926 0.89141
 N1457 N 0.04828 0.34473 0.89043
 N1458 N 0.04952 0.36588 0.90703
 C1459 C 0.03014 0.39699 0.94144
 N1460 N 0.05035 0.41340 0.93752
 N1461 N 0.04940 0.43710 0.94837
 C1462 C 0.02834 0.44533 0.96372
 N1463 N 0.00847 0.42857 0.96849
 N1464 N 0.00936 0.40485 0.95764
 C1465 C 0.47582 0.36614 0.07385
 N1466 N 0.45236 0.35800 0.08411
 N1467 N 0.45024 0.33581 0.10024
 C1468 C 0.47148 0.32086 0.10672
 N1469 N 0.49487 0.32894 0.09612
 N1470 N 0.49702 0.35117 0.08017
 C1471 C 0.47869 0.39169 0.05854
 N1472 N 0.50265 0.40200 0.05485
 N1473 N 0.50538 0.42623 0.04447
 C1474 C 0.48429 0.44109 0.03707
 N1475 N 0.46035 0.43044 0.03966
 N1476 N 0.45758 0.40623 0.05029
 C1477 C -0.03051 0.85962 0.57629
 N1478 N -0.00980 0.84357 0.58052
 N1479 N -0.01211 0.82130 0.59639
 C1480 C -0.03515 0.81424 0.60894
 N1481 N -0.05589 0.83027 0.60448
 N1482 N -0.05362 0.85251 0.58851
 C1483 C -0.02736 0.88520 0.56110
 N1484 N -0.04800 0.90131 0.55667
 N1485 N -0.04462 0.92551 0.54631
 C1486 C -0.02053 0.93457 0.54004
 N1487 N -0.00001 0.91817 0.54362
 N1488 N -0.00336 0.89396 0.55383
 C1489 C 0.22781 0.34734 0.14584
 N1490 N 0.24358 0.36775 0.15050
 N1491 N 0.25329 0.38112 0.12666
 C1492 C 0.24744 0.37483 0.09708
 N1493 N 0.23104 0.35475 0.09246
 N1494 N 0.22172 0.34100 0.11636
 C1495 C 0.22128 0.33043 0.17231
 N1496 N 0.22115 0.30449 0.16943
 N1497 N 0.22263 0.28887 0.19449
 C1498 C 0.22403 0.29862 0.22331
 N1499 N 0.22236 0.32448 0.22603
 N1500 N 0.22116 0.34010 0.20108
 C1501 C 0.72633 0.84190 0.64216
 N1502 N 0.72529 0.83354 0.61271
 N1503 N 0.73402 0.84828 0.58935
 C1504 C 0.74464 0.87169 0.59465
 N1505 N 0.74554 0.88008 0.62408
 N1506 N 0.73651 0.86548 0.64736
 C1507 C 0.72020 0.82453 0.66847
 N1508 N 0.71812 0.83399 0.69723
 N1509 N 0.71830 0.81820 0.72208
 C1510 C 0.72074 0.79239 0.71929
 N1511 N 0.72142 0.78286 0.69037
 N1512 N 0.72101 0.79862 0.66541
 C1513 C 0.27098 0.65636 0.64001
 N1514 N 0.26496 0.63132 0.64618
 N1515 N 0.25745 0.61606 0.62353
 C1516 C 0.25581 0.62523 0.59380
 N1517 N 0.26238 0.65013 0.58752
 N1518 N 0.26958 0.66549 0.61025
 C1519 C 0.27491 0.67392 0.66562
 N1520 N 0.26966 0.69942 0.66146
 N1521 N 0.26748 0.71444 0.68574
 C1522 C 0.27073 0.70460 0.71507
 N1523 N 0.27752 0.67946 0.71898
 N1524 N 0.27944 0.66436 0.69478
 C1525 C 0.77542 0.15493 0.13914
 N1526 N 0.76077 0.13369 0.14476
 N1527 N 0.75191 0.11972 0.12157
 C1528 C 0.75754 0.12622 0.09173
 N1529 N 0.77274 0.14722 0.08623
 N1530 N 0.78121 0.16152 0.10942
 C1531 C 0.78157 0.17201 0.16465
 N1532 N 0.78155 0.19797 0.15987
 N1533 N 0.78066 0.21357 0.18378
 C1534 C 0.78007 0.20382 0.21334
 N1535 N 0.78175 0.17794 0.21792
 N1536 N 0.78234 0.16232 0.19413
 C1537 C 0.72274 0.16101 0.85413
 N1538 N 0.73254 0.13721 0.84928
 N1539 N 0.74247 0.12289 0.87269
 C1540 C 0.74290 0.13177 0.90190
 N1541 N 0.73251 0.15533 0.90691
 N1542 N 0.72286 0.16980 0.88340
 C1543 C 0.71648 0.17829 0.82752
 N1544 N 0.71778 0.20420 0.83040
 N1545 N 0.71872 0.21977 0.80535
 C1546 C 0.71815 0.21006 0.77650
 N1547 N 0.71514 0.18432 0.77378
 N1548 N 0.71441 0.16870 0.79875
 C1549 C 0.22456 0.66134 0.35951
 N1550 N 0.23309 0.63728 0.35355
 N1551 N 0.24241 0.62182 0.37627
 C1552 C 0.24346 0.62979 0.40588
 N1553 N 0.23435 0.65365 0.41199
 N1554 N 0.22532 0.66925 0.38917
 C1555 C 0.21887 0.67959 0.33366
 N1556 N 0.22137 0.70530 0.33753
 N1557 N 0.22264 0.72147 0.31306
 C1558 C 0.22121 0.71260 0.28382
 N1559 N 0.21708 0.68711 0.28015
 N1560 N 0.21601 0.67089 0.30454
 C1561 C 0.77298 0.84434 0.36075
 N1562 N 0.77299 0.83547 0.39063
 N1563 N 0.76392 0.85009 0.41287
 C1564 C 0.75398 0.87388 0.40598
 N1565 N 0.75417 0.88281 0.37612
 N1566 N 0.76354 0.86832 0.35395
 C1567 C 0.77895 0.82703 0.33561
 N1568 N 0.78174 0.83665 0.30633
 N1569 N 0.78103 0.82111 0.28241
 C1570 C 0.77725 0.79545 0.28671
 N1571 N 0.77600 0.78569 0.31619
 N1572 N 0.77697 0.80115 0.34020
 C1573 C 0.27412 0.34449 0.85921
 N1574 N 0.27518 0.33507 0.88887
 N1575 N 0.26767 0.34954 0.91208
 C1576 C 0.25834 0.37376 0.90642
 N1577 N 0.25761 0.38325 0.87680
 N1578 N 0.26539 0.36892 0.85366
 C1579 C 0.27802 0.32749 0.83318
 N1580 N 0.27858 0.33754 0.80386
 N1581 N 0.27597 0.32239 0.77974
 C1582 C 0.27253 0.29667 0.78389
 N1583 N 0.27338 0.28646 0.81324
 N1584 N 0.27619 0.30157 0.83743
 C1585 C 0.77644 0.37899 0.73336
 N1586 N 0.77666 0.39168 0.70542
 N1587 N 0.78871 0.41418 0.70200
 C1588 C 0.80060 0.42510 0.72654
 N1589 N 0.79994 0.41271 0.75468
 N1590 N 0.78816 0.38998 0.75802
 C1591 C 0.76607 0.35271 0.73553
 N1592 N 0.77396 0.33582 0.75850
 N1593 N 0.76748 0.31098 0.75758
 C1594 C 0.75289 0.30221 0.73366
 N1595 N 0.74425 0.31936 0.71146
 N1596 N 0.75084 0.34405 0.71224
 C1597 C 0.28229 0.88016 0.23061
 N1598 N 0.27297 0.90147 0.24418
 N1599 N 0.28283 0.92464 0.23708
 C1600 C 0.30204 0.92731 0.21588
 N1601 N 0.31055 0.90590 0.20189
 N1602 N 0.30105 0.88286 0.20924
 C1603 C 0.27408 0.85413 0.23949
 N1604 N 0.29239 0.83540 0.24171
 N1605 N 0.28566 0.81080 0.24390
 C1606 C 0.26040 0.80378 0.24370
 N1607 N 0.24192 0.82260 0.24235
 N1608 N 0.24864 0.84741 0.24042
 C1609 C 0.21010 0.87058 0.76043
 N1610 N 0.22678 0.89067 0.75723
 N1611 N 0.21918 0.91449 0.76370
 C1612 C 0.19483 0.91882 0.77414
 N1613 N 0.17829 0.89870 0.77718
 N1614 N 0.18574 0.87509 0.77038
 C1615 C 0.21809 0.84398 0.75551
 N1616 N 0.19971 0.82543 0.75466
 N1617 N 0.20638 0.80074 0.75450
 C1618 C 0.23164 0.79349 0.75518
 N1619 N 0.25016 0.81211 0.75531
 N1620 N 0.24351 0.83696 0.75536
 C1621 C 0.71646 0.37182 0.25194
 N1622 N 0.69033 0.37504 0.25241
 N1623 N 0.68003 0.39754 0.25962
 C1624 C 0.69545 0.41781 0.26635
 N1625 N 0.72165 0.41481 0.26537
 N1626 N 0.73199 0.39210 0.25858
 C1627 C 0.72720 0.34602 0.24724
 N1628 N 0.75105 0.33921 0.25864
 N1629 N 0.75873 0.31465 0.25897
 C1630 C 0.74299 0.29604 0.24767
 N1631 N 0.71969 0.30318 0.23516
 N1632 N 0.71187 0.32761 0.23503
 C1633 C 0.71927 0.62664 0.25148
 N1634 N 0.73190 0.60901 0.23460
 N1635 N 0.72158 0.58589 0.23009
 C1636 C 0.69822 0.57964 0.24224
 N1637 N 0.68568 0.59715 0.25930
 N1638 N 0.69605 0.62020 0.26394
 C1639 C 0.72895 0.65317 0.25313
 N1640 N 0.71638 0.67080 0.27005
 N1641 N 0.72298 0.69558 0.26825
 C1642 C 0.74220 0.70373 0.24928
 N1643 N 0.75530 0.68593 0.23316
 N1644 N 0.74884 0.66114 0.23505
 C1645 C 0.21018 0.12958 0.74894
 N1646 N 0.18486 0.12489 0.74232
 N1647 N 0.17692 0.10124 0.73636
 C1648 C 0.19396 0.08128 0.73700
 N1649 N 0.21930 0.08578 0.74419
 N1650 N 0.22734 0.10962 0.74978
 C1651 C 0.21854 0.15624 0.75242
 N1652 N 0.24369 0.16329 0.74868
 N1653 N 0.25014 0.18814 0.74720
 C1654 C 0.23172 0.20676 0.74960
 N1655 N 0.20684 0.19952 0.75423
 N1656 N 0.20034 0.17481 0.75559
 C1657 C 0.27850 0.12822 0.26025
 N1658 N 0.28868 0.11740 0.23493
 N1659 N 0.29839 0.09355 0.23682
 C1660 C 0.29848 0.07988 0.26416
 N1661 N 0.28806 0.09066 0.28931
 N1662 N 0.27806 0.11429 0.28732
 C1663 C 0.27026 0.15525 0.25980
 N1664 N 0.25655 0.16399 0.28381
 N1665 N 0.25151 0.18894 0.28596
 C1666 C 0.26030 0.20625 0.26447
 N1667 N 0.27349 0.19750 0.23992
 N1668 N 0.27842 0.17239 0.23764
 C1669 C 0.77824 0.62253 0.76255
 N1670 N 0.78938 0.61162 0.73785
 N1671 N 0.80099 0.58867 0.74098
 C1672 C 0.80210 0.57598 0.76897
 N1673 N 0.79080 0.58683 0.79353
 N1674 N 0.77890 0.60955 0.79031
 C1675 C 0.76795 0.64894 0.76063
 N1676 N 0.75316 0.65748 0.78385
 N1677 N 0.74655 0.68218 0.78486
 C1678 C 0.75476 0.69948 0.76297
 N1679 N 0.76890 0.69084 0.73912
 N1680 N 0.77538 0.66598 0.73796
 C1681 C 0.88343 0.78083 0.17658
 N1682 N 0.89977 0.76030 0.17624
 N1683 N 0.92014 0.76045 0.15760
 C1684 C 0.92494 0.78101 0.13827
 N1685 N 0.90857 0.80161 0.13887
 N1686 N 0.88823 0.80150 0.15756
 C1687 C 0.85958 0.77971 0.19492
 N1688 N 0.84268 0.79982 0.19409
 N1689 N 0.81942 0.79751 0.20692
 C1690 C 0.81211 0.77512 0.22117
 N1691 N 0.82944 0.75532 0.22295
 N1692 N 0.85274 0.75759 0.21019
 C1693 C 0.37666 0.27598 0.67448
 N1694 N 0.38317 0.29705 0.65698
 N1695 N 0.40370 0.29656 0.63862
 C1696 C 0.41850 0.27495 0.63688
 N1697 N 0.41205 0.25395 0.65464
 N1698 N 0.39149 0.25441 0.67296
 C1699 C 0.35264 0.27578 0.69248
 N1700 N 0.34416 0.25365 0.70636
 N1701 N 0.32073 0.25255 0.71895
 C1702 C 0.30490 0.27355 0.71836
 N1703 N 0.31383 0.29587 0.70549
 N1704 N 0.33724 0.29702 0.69282
 C1705 C 0.38100 0.72209 0.82112
 N1706 N 0.38809 0.70053 0.83772
 N1707 N 0.40898 0.70052 0.85631
 C1708 C 0.42360 0.72208 0.85920
 N1709 N 0.41663 0.74356 0.84226
 N1710 N 0.39567 0.74361 0.82373
 C1711 C 0.35638 0.72286 0.80337
 N1712 N 0.34709 0.74546 0.79104
 N1713 N 0.32304 0.74701 0.77929
 C1714 C 0.30736 0.72601 0.77923
 N1715 N 0.31709 0.70322 0.79041
 N1716 N 0.34113 0.70164 0.80223
 C1717 C 0.88842 0.21877 0.32272
 N1718 N 0.89424 0.19688 0.33943
 N1719 N 0.91520 0.19564 0.35796
 C1720 C 0.93127 0.21623 0.36065
 N1721 N 0.92547 0.23803 0.34360
 N1722 N 0.90444 0.23932 0.32519
 C1723 C 0.86400 0.22095 0.30451
 N1724 N 0.85560 0.24426 0.29326
 N1725 N 0.83195 0.24694 0.28056
 C1726 C 0.81579 0.22642 0.27832
 N1727 N 0.82466 0.20297 0.28844
 N1728 N 0.84826 0.20025 0.30131
 C1729 C 0.11806 0.28013 0.33137
 N1730 N 0.11211 0.29994 0.34977
 N1731 N 0.09067 0.29932 0.36663
 C1732 C 0.07435 0.27882 0.36596
 N1733 N 0.08026 0.25910 0.34730
 N1734 N 0.10171 0.25970 0.33042
 C1735 C 0.14286 0.27991 0.31486
 N1736 N 0.14992 0.25923 0.29845
 N1737 N 0.17362 0.25772 0.28667
 C1738 C 0.19118 0.27687 0.29069
 N1739 N 0.18381 0.29779 0.30640
 N1740 N 0.16012 0.29936 0.31816
 C1741 C 0.61122 0.77974 0.82355
 N1742 N 0.59510 0.75922 0.82649
 N1743 N 0.57391 0.76048 0.84367
 C1744 C 0.56804 0.78222 0.85884
 N1745 N 0.58411 0.80282 0.85567
 N1746 N 0.60529 0.80160 0.83842
 C1747 C 0.63587 0.77744 0.80706
 N1748 N 0.65242 0.79767 0.80474
 N1749 N 0.67618 0.79458 0.79359
 C1750 C 0.68435 0.77123 0.78436
 N1751 N 0.66741 0.75124 0.78570
 N1752 N 0.64363 0.75430 0.79672
 C1753 C 0.60926 0.21927 0.67021
 N1754 N 0.59243 0.23936 0.66702
 N1755 N 0.57039 0.23714 0.65075
 C1756 C 0.56432 0.21482 0.63675
 N1757 N 0.58114 0.19465 0.64013
 N1758 N 0.60318 0.19684 0.65650
 C1759 C 0.63452 0.22254 0.68609
 N1760 N 0.65147 0.20256 0.68966
 N1761 N 0.67538 0.20630 0.70094
 C1762 C 0.68332 0.23009 0.70901
 N1763 N 0.66606 0.24990 0.70623
 N1764 N 0.64213 0.24619 0.69511
 C1765 C 0.11225 0.72719 0.17772
 N1766 N 0.09701 0.74804 0.17095
 N1767 N 0.07564 0.74591 0.15343
 C1768 C 0.06876 0.72291 0.14164
 N1769 N 0.08398 0.70201 0.14859
 N1770 N 0.10530 0.70411 0.16627
 C1771 C 0.13708 0.73019 0.19458
 N1772 N 0.15199 0.70939 0.20284
 N1773 N 0.17590 0.71244 0.21449
 C1774 C 0.18587 0.73633 0.21815
 N1775 N 0.17056 0.75705 0.21086
 N1776 N 0.14662 0.75406 0.19945
   
