data_POSCAR
  _audit_creation_date              2014-09-24
  _audit_creation_method            'ToBaCCo'
  _symmetry_space_group_name_H-M    'P1'
  _symmetry_Int_Tables_number       1
  _symmetry_cell_setting            triclinic
  loop_
  _symmetry_equiv_pos_as_xyz
 x,y,z
_cell_length_a 70.2607
_cell_length_b 70.4134
_cell_length_c 70.1857
_cell_angle_alpha 89.925000
_cell_angle_beta 89.956800
_cell_angle_gamma 89.932400
loop_
  _atom_site_label
  _atom_site_type_symbol
  _atom_site_fract_x
  _atom_site_fract_y
  _atom_site_fract_z
C1 C 0.29973 0.35678 -0.01718
 C2 C 0.29289 0.36367 0.00019
 C3 C 0.29956 0.35647 0.01749
 C4 C 0.31344 0.34195 0.01763
 C5 C 0.32049 0.33478 0.00010
 C6 C 0.31361 0.34220 -0.01741
 C7 C 0.32084 0.33489 -0.03461
 C8 C 0.33459 0.32064 -0.03463
 C9 C 0.34168 0.31313 -0.01744
 C10 C 0.33454 0.32025 0.00008
 C11 C 0.32051 0.33446 0.03481
 C12 C 0.33429 0.32024 0.03480
 C13 C 0.34152 0.31296 0.01760
 C14 C 0.35560 0.29863 0.01743
 C15 C 0.36250 0.29170 0.00012
 C16 C 0.35577 0.29875 -0.01724
 H17 H 0.31592 0.34016 -0.04825
 H18 H 0.33967 0.31556 -0.04827
 H19 H 0.31544 0.33957 0.04845
 H20 H 0.33927 0.31500 0.04842
 H21 H 0.28229 0.37491 0.00029
 H22 H 0.37339 0.28074 0.00020
 C23 C 0.64297 0.69981 -0.01853
 C24 C 0.63596 0.70656 -0.00117
 C25 C 0.64305 0.69982 0.01615
 C26 C 0.65761 0.68597 0.01633
 C27 C 0.66489 0.67900 -0.00119
 C28 C 0.65757 0.68594 -0.01872
 C29 C 0.66499 0.67877 -0.03590
 C30 C 0.67926 0.66502 -0.03587
 C31 C 0.68664 0.65791 -0.01867
 C32 C 0.67943 0.66498 -0.00117
 C33 C 0.66501 0.67885 0.03353
 C34 C 0.67926 0.66509 0.03355
 C35 C 0.68664 0.65794 0.01636
 C36 C 0.70100 0.64387 0.01620
 C37 C 0.70799 0.63705 -0.00112
 C38 C 0.70101 0.64385 -0.01846
 H39 H 0.65980 0.68373 -0.04955
 H40 H 0.68444 0.65997 -0.04949
 H41 H 0.65981 0.68386 0.04715
 H42 H 0.68444 0.66007 0.04718
 H43 H 0.62469 0.71714 -0.00109
 H44 H 0.71896 0.62617 -0.00110
 C45 C 0.64479 0.29794 0.98253
 C46 C 0.63787 0.29104 0.99986
 C47 C 0.64481 0.29786 1.01720
 C48 C 0.65914 0.31198 1.01737
 C49 C 0.66628 0.31907 0.99982
 C50 C 0.65909 0.31203 0.98232
 C51 C 0.66632 0.31929 0.96511
 C52 C 0.68033 0.33326 0.96506
 C53 C 0.68763 0.34049 0.98223
 C54 C 0.68057 0.33332 0.99977
 C55 C 0.66646 0.31925 1.03454
 C56 C 0.68046 0.33323 1.03448
 C57 C 0.68769 0.34047 1.01726
 C58 C 0.70181 0.35475 1.01702
 C59 C 0.70865 0.36166 0.99967
 C60 C 0.70175 0.35475 0.98237
 H61 H 0.66118 0.31423 0.95149
 H62 H 0.68540 0.33838 0.95142
 H63 H 0.66138 0.31419 1.04820
 H64 H 0.68557 0.33834 1.04809
 H65 H 0.62682 0.28027 0.99981
 H66 H 0.71945 0.37268 0.99964
 C67 C 0.29844 0.64516 1.01833
 C68 C 0.29157 0.63822 1.00101
 C69 C 0.29842 0.64513 0.98366
 C70 C 0.31252 0.65941 0.98341
 C71 C 0.31962 0.66661 1.00090
 C72 C 0.31257 0.65947 1.01846
 C73 C 0.31987 0.66679 1.03561
 C74 C 0.33385 0.68078 1.03552
 C75 C 0.34109 0.68803 1.01829
 C76 C 0.33389 0.68089 1.00081
 C77 C 0.31975 0.66663 0.96618
 C78 C 0.33373 0.68063 0.96610
 C79 C 0.34100 0.68793 0.98324
 C80 C 0.35527 0.70205 0.98331
 C81 C 0.36224 0.70898 1.00057
 C82 C 0.35539 0.70217 1.01798
 H83 H 0.31483 0.66172 1.04928
 H84 H 0.33898 0.68588 1.04913
 H85 H 0.31465 0.66149 0.95258
 H86 H 0.33881 0.68568 0.95243
 H87 H 0.28078 0.62718 1.00098
 H88 H 0.37327 0.71978 1.00042
 C89 C 0.01732 0.29938 0.35540
 C90 C 0.00008 0.29260 0.36255
 C91 C -0.01731 0.29946 0.35574
 C92 C -0.01760 0.31349 0.34127
 C93 C -0.00014 0.32048 0.33389
 C94 C 0.01740 0.31341 0.34098
 C95 C 0.03454 0.32058 0.33354
 C96 C 0.03446 0.33449 0.31943
 C97 C 0.01725 0.34175 0.31223
 C98 C -0.00022 0.33467 0.31948
 C99 C -0.03482 0.32075 0.33404
 C100 C -0.03489 0.33464 0.31991
 C101 C -0.01776 0.34183 0.31244
 C102 C -0.01761 0.35606 0.29817
 C103 C -0.00030 0.36289 0.29115
 C104 C 0.01702 0.35596 0.29800
 H105 H 0.04818 0.31550 0.33860
 H106 H 0.04805 0.33955 0.31421
 H107 H -0.04841 0.31575 0.33929
 H108 H -0.04854 0.33974 0.31488
 H109 H 0.00023 0.28189 0.37371
 H110 H -0.00026 0.37387 0.28027
 C111 C -0.01766 0.64402 0.70151
 C112 C -0.00028 0.63719 0.70839
 C113 C 0.01698 0.64412 0.70141
 C114 C 0.01709 0.65829 0.68715
 C115 C -0.00044 0.66540 0.68005
 C116 C -0.01792 0.65827 0.68727
 C117 C -0.03512 0.66552 0.67999
 C118 C -0.03516 0.67945 0.66589
 C119 C -0.01801 0.68666 0.65848
 C120 C -0.00049 0.67958 0.66564
 C121 C 0.03424 0.66548 0.67975
 C122 C 0.03419 0.67936 0.66560
 C123 C 0.01699 0.68657 0.65833
 C124 C 0.01679 0.70056 0.64388
 C125 C -0.00052 0.70746 0.63697
 C126 C -0.01785 0.70072 0.64405
 H127 H -0.04873 0.66045 0.68515
 H128 H -0.04881 0.68450 0.66080
 H129 H 0.04787 0.66040 0.68483
 H130 H 0.04779 0.68438 0.66038
 H131 H -0.00016 0.62621 0.71928
 H132 H -0.00047 0.71817 0.62582
 C133 C 1.01683 0.70047 0.35571
 C134 C 0.99949 0.70732 0.36260
 C135 C 0.98222 0.70060 0.35548
 C136 C 0.98210 0.68665 0.34102
 C137 C 0.99964 0.67960 0.33387
 C138 C 1.01710 0.68655 0.34124
 C139 C 1.03431 0.67934 0.33400
 C140 C 1.03439 0.66552 0.31983
 C141 C 1.01725 0.65836 0.31236
 C142 C 0.99972 0.66549 0.31944
 C143 C 0.96497 0.67953 0.33359
 C144 C 0.96503 0.66568 0.31944
 C145 C 0.98224 0.65846 0.31219
 C146 C 0.98247 0.64432 0.29794
 C147 C 0.99980 0.63741 0.29105
 C148 C 1.01711 0.64420 0.29806
 H149 H 1.04789 0.68433 0.33926
 H150 H 1.04805 0.66044 0.31478
 H151 H 0.95133 0.68459 0.33869
 H152 H 0.95144 0.66066 0.31423
 H153 H 0.99943 0.71797 0.37378
 H154 H 0.99976 0.62648 0.28014
 C155 C 1.01854 0.35472 0.70172
 C156 C 1.00117 0.36157 0.70854
 C157 C 0.98393 0.35455 0.70163
 C158 C 0.98387 0.34024 0.68754
 C159 C 1.00144 0.33315 0.68050
 C160 C 1.01887 0.34042 0.68762
 C161 C 1.03611 0.33325 0.68042
 C162 C 1.03625 0.31924 0.66643
 C163 C 1.01914 0.31186 0.65911
 C164 C 1.00157 0.31887 0.66625
 C165 C 0.96676 0.33290 0.68025
 C166 C 0.96689 0.31888 0.66628
 C167 C 0.98412 0.31169 0.65906
 C168 C 0.98441 0.29757 0.64479
 C169 C 1.00177 0.29076 0.63789
 C170 C 1.01905 0.29771 0.64481
 H171 H 1.04967 0.33844 0.68553
 H172 H 1.04992 0.31424 0.66136
 H173 H 0.95310 0.33796 0.68530
 H174 H 0.95332 0.31373 0.66114
 H175 H 1.00107 0.37262 0.71931
 H176 H 1.00178 0.27996 0.62685
 C177 C 0.29913 -0.01751 0.35561
 C178 C 0.29223 -0.00019 0.36244
 C179 C 0.29897 0.01705 0.35528
 C180 C 0.31300 0.01718 0.34086
 C181 C 0.32012 -0.00030 0.33374
 C182 C 0.31315 -0.01775 0.34112
 C183 C 0.32044 -0.03490 0.33385
 C184 C 0.33433 -0.03492 0.31968
 C185 C 0.34149 -0.01780 0.31223
 C186 C 0.33431 -0.00033 0.31932
 C187 C 0.32015 0.03430 0.33344
 C188 C 0.33409 0.03428 0.31932
 C189 C 0.34137 0.01713 0.31209
 C190 C 0.35561 0.01695 0.29786
 C191 C 0.36254 -0.00031 0.29096
 C192 C 0.35571 -0.01760 0.29794
 H193 H 0.31546 -0.04849 0.33909
 H194 H 0.33944 -0.04853 0.31463
 H195 H 0.31505 0.04790 0.33852
 H196 H 0.33913 0.04786 0.31413
 H197 H 0.28151 -0.00008 0.37361
 H198 H 0.37354 -0.00023 0.28007
 C199 C 0.64418 -0.01720 0.70214
 C200 C 0.63726 0.00016 0.70889
 C201 C 0.64417 0.01737 0.70183
 C202 C 0.65844 0.01744 0.68764
 C203 C 0.66563 -0.00007 0.68068
 C204 C 0.65850 -0.01749 0.68795
 C205 C 0.66582 -0.03467 0.68077
 C206 C 0.67981 -0.03475 0.66670
 C207 C 0.68701 -0.01765 0.65926
 C208 C 0.67988 -0.00015 0.66632
 C209 C 0.66565 0.03453 0.68019
 C210 C 0.67962 0.03445 0.66610
 C211 C 0.68690 0.01726 0.65895
 C212 C 0.70097 0.01699 0.64456
 C213 C 0.70788 -0.00032 0.63776
 C214 C 0.70109 -0.01755 0.64489
 H215 H 0.66076 -0.04824 0.68598
 H216 H 0.68493 -0.04836 0.66167
 H217 H 0.66051 0.04815 0.68518
 H218 H 0.68466 0.04800 0.66083
 H219 H 0.62622 0.00031 0.71974
 H220 H 0.71864 -0.00038 0.62664
 C221 C 0.29744 1.01814 0.64476
 C222 C 0.29056 1.00086 0.63784
 C223 C 0.29737 0.98358 0.64484
 C224 C 0.31144 0.98335 0.65921
 C225 C 0.31854 1.00079 0.66640
 C226 C 0.31152 1.01829 0.65917
 C227 C 0.31882 1.03539 0.66650
 C228 C 0.33277 1.03531 0.68059
 C229 C 0.33995 1.01814 0.68789
 C230 C 0.33277 1.00071 0.68075
 C231 C 0.31864 0.96618 0.66651
 C232 C 0.33261 0.96612 0.68058
 C233 C 0.33988 0.98322 0.68787
 C234 C 0.35415 0.98334 0.70205
 C235 C 0.36108 1.00057 0.70897
 C236 C 0.35420 1.01788 0.70208
 H237 H 0.31381 1.04901 0.66137
 H238 H 0.33790 1.04887 0.68571
 H239 H 0.31355 0.95262 0.66137
 H240 H 0.33769 0.95251 0.68569
 H241 H 0.27980 1.00083 0.62673
 H242 H 0.37210 1.00052 0.71981
 C243 C 0.64305 1.01772 0.30066
 C244 C 0.63608 1.00047 0.29377
 C245 C 0.64311 0.98316 0.30047
 C246 C 0.65758 0.98288 0.31443
 C247 C 0.66481 1.00029 0.32157
 C248 C 0.65753 1.01781 0.31467
 C249 C 0.66488 1.03488 0.32202
 C250 C 0.67901 1.03476 0.33592
 C251 C 0.68638 1.01756 0.34301
 C252 C 0.67924 1.00016 0.33574
 C253 C 0.66495 0.96568 0.32149
 C254 C 0.67911 0.96556 0.33536
 C255 C 0.68642 0.98263 0.34270
 C256 C 0.70067 0.98266 0.35688
 C257 C 0.70759 0.99984 0.36394
 C258 C 0.70063 1.01721 0.35725
 H259 H 0.65971 1.04852 0.31709
 H260 H 0.68411 1.04831 0.34109
 H261 H 0.65980 0.95214 0.31635
 H262 H 0.68426 0.95193 0.34032
 H263 H 0.62489 1.00048 0.28309
 H264 H 0.71847 0.99965 0.37492
 O265 O 0.81160 0.83731 0.51906
 O266 O 0.83767 0.81103 0.48208
 O267 O 0.81153 0.83728 0.48210
 O268 O 0.83773 0.81103 0.51904
 O269 O 0.81546 0.78886 0.51920
 O270 O 0.78915 0.81521 0.48213
 O271 O 0.81541 0.78885 0.48211
 O272 O 0.78922 0.81524 0.51922
 Cu273 Cu 0.82688 0.82639 0.50056
 Cu274 Cu 0.80005 0.79980 0.50068
 C275 C 0.79597 0.83081 0.52531
 C276 C 0.83103 0.79547 0.47592
 C277 C 0.79588 0.83077 0.47595
 C278 C 0.83111 0.79547 0.52528
 O279 O 0.16242 0.18855 0.48110
 O280 O 0.18862 0.16220 0.51797
 O281 O 0.16253 0.18849 0.51806
 O282 O 0.18855 0.16226 0.48101
 O283 O 0.21094 0.18430 0.48088
 O284 O 0.18483 0.21064 0.51806
 O285 O 0.21102 0.18423 0.51798
 O286 O 0.18472 0.21070 0.48097
 Cu287 Cu 0.17328 0.17315 0.49954
 Cu288 Cu 0.20014 0.19970 0.49946
 C289 C 0.16905 0.20411 0.47488
 C290 C 0.20427 0.16868 0.52414
 C291 C 0.16921 0.20403 0.52425
 C292 C 0.20418 0.16876 0.47476
 O293 O 0.18646 0.83998 0.48107
 O294 O 0.16034 0.81386 0.51816
 O295 O 0.18659 0.83995 0.51804
 O296 O 0.16024 0.81387 0.48119
 O297 O 0.18243 0.79157 0.48105
 O298 O 0.20888 0.81775 0.51803
 O299 O 0.18253 0.79155 0.51816
 O300 O 0.20876 0.81778 0.48093
 Cu301 Cu 0.17117 0.82915 0.49962
 Cu302 Cu 0.19790 0.80240 0.49954
 C303 C 0.20205 0.83337 0.47480
 C304 C 0.16694 0.79826 0.52436
 C305 C 0.20222 0.83334 0.52419
 C306 C 0.16681 0.79828 0.47496
 O307 O 0.84086 0.18609 0.51818
 O308 O 0.81469 0.15966 0.48143
 O309 O 0.84076 0.18593 0.48120
 O310 O 0.81478 0.15983 0.51841
 O311 O 0.79235 0.18190 0.51842
 O312 O 0.81844 0.20809 0.48108
 O313 O 0.79227 0.18173 0.48131
 O314 O 0.81853 0.20826 0.51818
 Cu315 Cu 0.83002 0.17065 0.49981
 Cu316 Cu 0.80313 0.19723 0.49974
 C317 C 0.83419 0.20168 0.52431
 C318 C 0.79903 0.16615 0.47524
 C319 C 0.83407 0.20145 0.47493
 C320 C 0.79915 0.16637 0.52463
 O321 O 0.48116 0.83896 0.81223
 O322 O 0.51820 0.81286 0.83844
 O323 O 0.51809 0.83910 0.81225
 O324 O 0.48127 0.81271 0.83842
 O325 O 0.48135 0.79052 0.81614
 O326 O 0.51831 0.81702 0.78987
 O327 O 0.51841 0.79068 0.81617
 O328 O 0.48124 0.81687 0.78985
 Cu329 Cu 0.49966 0.82813 0.82758
 Cu330 Cu 0.49984 0.80153 0.80075
 C331 C 0.47502 0.83241 0.79658
 C332 C 0.52449 0.79733 0.83182
 C333 C 0.52435 0.83260 0.79661
 C334 C 0.47516 0.79712 0.83178
 O335 O 0.51927 0.18776 0.16137
 O336 O 0.48244 0.16144 0.18760
 O337 O 0.48234 0.18776 0.16150
 O338 O 0.51937 0.16144 0.18749
 O339 O 0.51946 0.18346 0.20993
 O340 O 0.48230 0.20988 0.18384
 O341 O 0.48240 0.18346 0.21004
 O342 O 0.51936 0.20989 0.18371
 Cu343 Cu 0.50085 0.17238 0.17224
 Cu344 Cu 0.50089 0.19891 0.19915
 C345 C 0.52546 0.20331 0.16802
 C346 C 0.47626 0.16792 0.20328
 C347 C 0.47613 0.20330 0.16820
 C348 C 0.52559 0.16792 0.20314
 O349 O 0.51767 0.16217 0.81194
 O350 O 0.48089 0.18846 0.83829
 O351 O 0.48074 0.16228 0.81210
 O352 O 0.51781 0.18836 0.83811
 O353 O 0.51783 0.21059 0.81583
 O354 O 0.48063 0.18441 0.78971
 O355 O 0.48078 0.21070 0.81600
 O356 O 0.51769 0.18430 0.78955
 Cu357 Cu 0.49928 0.17309 0.82735
 Cu358 Cu 0.49923 0.19975 0.80051
 C359 C 0.52382 0.16871 0.79626
 C360 C 0.47470 0.20406 0.83168
 C361 C 0.47450 0.16885 0.79648
 C362 C 0.52401 0.20392 0.83145
 O363 O 0.51825 0.83956 0.18661
 O364 O 0.48134 0.81309 0.16075
 O365 O 0.48132 0.83927 0.18694
 O366 O 0.51827 0.81337 0.16044
 O367 O 0.51869 0.79113 0.18273
 O368 O 0.48162 0.81714 0.20932
 O369 O 0.48164 0.79086 0.18303
 O370 O 0.51867 0.81742 0.20899
 Cu371 Cu 0.49975 0.82855 0.17144
 Cu372 Cu 0.50019 0.80189 0.19828
 C373 C 0.52463 0.83304 0.20220
 C374 C 0.47533 0.79747 0.16743
 C375 C 0.47531 0.83267 0.20264
 C376 C 0.52465 0.79784 0.16703
 O377 O 0.83850 0.51768 0.81112
 O378 O 0.81218 0.48087 0.83734
 O379 O 0.83851 0.48083 0.81119
 O380 O 0.81215 0.51772 0.83724
 O381 O 0.78995 0.51777 0.81492
 O382 O 0.81641 0.48075 0.78877
 O383 O 0.78997 0.48080 0.81503
 O384 O 0.81640 0.51773 0.78870
 Cu385 Cu 0.82756 0.49927 0.82647
 Cu386 Cu 0.80094 0.49926 0.79959
 C387 C 0.83198 0.52385 0.79545
 C388 C 0.79659 0.47469 0.83070
 C389 C 0.83200 0.47463 0.79555
 C390 C 0.79656 0.52390 0.83056
 O391 O 0.16205 0.51924 0.18821
 O392 O 0.18856 0.48256 0.16202
 O393 O 0.16216 0.48239 0.18809
 O394 O 0.18846 0.51940 0.16214
 O395 O 0.21061 0.51940 0.18452
 O396 O 0.18420 0.48226 0.21057
 O397 O 0.21071 0.48242 0.18439
 O398 O 0.18409 0.51924 0.21069
 Cu399 Cu 0.17309 0.50091 0.17286
 Cu400 Cu 0.19964 0.50082 0.19982
 C401 C 0.16850 0.52536 0.20391
 C402 C 0.20415 0.47637 0.16870
 C403 C 0.16865 0.47615 0.20374
 C404 C 0.20402 0.52557 0.16886
 O405 O 0.83807 0.48126 0.18785
 O406 O 0.81179 0.51797 0.16140
 O407 O 0.83797 0.51810 0.18766
 O408 O 0.81187 0.48112 0.16161
 O409 O 0.78954 0.48111 0.18383
 O410 O 0.81574 0.51823 0.20999
 O411 O 0.78946 0.51809 0.18362
 O412 O 0.81584 0.48125 0.21018
 Cu413 Cu 0.82716 0.49960 0.17239
 Cu414 Cu 0.80039 0.49968 0.19916
 C415 C 0.83149 0.47513 0.20352
 C416 C 0.79615 0.52416 0.16796
 C417 C 0.83135 0.52434 0.20326
 C418 C 0.79626 0.47495 0.16823
 O419 O 0.18789 0.51873 0.83911
 O420 O 0.16179 0.48194 0.81276
 O421 O 0.18783 0.48187 0.83915
 O422 O 0.16183 0.51879 0.81272
 O423 O 0.18418 0.51880 0.79051
 O424 O 0.21028 0.48175 0.81704
 O425 O 0.18415 0.48183 0.79056
 O426 O 0.21034 0.51874 0.81701
 Cu427 Cu 0.17259 0.50034 0.82816
 Cu428 Cu 0.19951 0.50028 0.80154
 C429 C 0.20356 0.52487 0.83260
 C430 C 0.16848 0.47574 0.79717
 C431 C 0.20347 0.47564 0.83264
 C432 C 0.16852 0.52494 0.79711
 C433 C 0.29194 0.36464 0.03477
 C434 C 0.28530 0.37195 0.04881
 C435 C 0.27704 0.38125 0.06508
 C436 C 0.28865 0.39074 0.07817
 C437 C 0.28048 0.40103 0.09312
 C438 C 0.26056 0.40199 0.09515
 C439 C 0.24905 0.39202 0.08217
 C440 C 0.25725 0.38175 0.06724
 C441 C 0.25176 0.41409 0.11008
 C442 C 0.23529 0.40810 0.11980
 C443 C 0.22623 0.42014 0.13279
 C444 C 0.23352 0.43829 0.13628
 C445 C 0.25013 0.44421 0.12702
 C446 C 0.25921 0.43221 0.11403
 C447 C 0.22337 0.45130 0.14840
 C448 C 0.21468 0.46256 0.15799
 H449 H 0.30399 0.39046 0.07661
 H450 H 0.28972 0.40837 0.10301
 H451 H 0.23369 0.39269 0.08315
 H452 H 0.24813 0.37457 0.05711
 H453 H 0.22933 0.39416 0.11723
 H454 H 0.21335 0.41542 0.13986
 H455 H 0.25582 0.45829 0.12950
 H456 H 0.27169 0.43736 0.10659
 C457 C 0.70871 0.63575 0.03346
 C458 C 0.71542 0.62847 0.04750
 C459 C 0.72373 0.61920 0.06378
 C460 C 0.74353 0.61827 0.06559
 C461 C 0.75173 0.60802 0.08056
 C462 C 0.74021 0.59851 0.09391
 C463 C 0.72029 0.59989 0.09220
 C464 C 0.71212 0.61015 0.07721
 C465 C 0.74897 0.58644 0.10891
 C466 C 0.74118 0.56857 0.11333
 C467 C 0.75019 0.55657 0.12640
 C468 C 0.76707 0.56227 0.13527
 C469 C 0.77470 0.58020 0.13132
 C470 C 0.76571 0.59223 0.11825
 C471 C 0.77711 0.54925 0.14749
 C472 C 0.78572 0.53798 0.15715
 H473 H 0.75265 0.62510 0.05519
 H474 H 0.76709 0.60702 0.08129
 H475 H 0.71104 0.59291 0.10237
 H476 H 0.69676 0.61076 0.07592
 H477 H 0.72848 0.56358 0.10619
 H478 H 0.74423 0.54266 0.12924
 H479 H 0.78778 0.58474 0.13809
 H480 H 0.77194 0.60599 0.11532
 C481 C 0.70936 0.36294 0.96509
 C482 C 0.71599 0.37025 0.95103
 C483 C 0.72422 0.37955 0.93472
 C484 C 0.74401 0.38018 0.93262
 C485 C 0.75215 0.39043 0.91764
 C486 C 0.74059 0.40026 0.90456
 C487 C 0.72068 0.39919 0.90654
 C488 C 0.71256 0.38891 0.92154
 C489 C 0.74933 0.41236 0.88956
 C490 C 0.74172 0.43040 0.88546
 C491 C 0.75074 0.44241 0.87241
 C492 C 0.76743 0.43655 0.86324
 C493 C 0.77486 0.41846 0.86687
 C494 C 0.76587 0.40642 0.87993
 C495 C 0.77750 0.44957 0.85106
 C496 C 0.78613 0.46085 0.84144
 H497 H 0.75316 0.37310 0.94283
 H498 H 0.76752 0.39120 0.91669
 H499 H 0.71140 0.40642 0.89658
 H500 H 0.69722 0.38854 0.92306
 H501 H 0.72918 0.43551 0.89283
 H502 H 0.74494 0.45644 0.86982
 H503 H 0.78780 0.41380 0.85988
 H504 H 0.77194 0.39253 0.88261
 C505 C 0.29078 0.63691 0.96643
 C506 C 0.28412 0.62955 0.95245
 C507 C 0.27586 0.62020 0.93622
 C508 C 0.28749 0.61086 0.92302
 C509 C 0.27933 0.60053 0.90811
 C510 C 0.25942 0.59939 0.90624
 C511 C 0.24788 0.60921 0.91935
 C512 C 0.25606 0.61951 0.93424
 C513 C 0.25065 0.58726 0.89134
 C514 C 0.23406 0.59314 0.88177
 C515 C 0.22507 0.58108 0.86878
 C516 C 0.23256 0.56301 0.86515
 C517 C 0.24929 0.55720 0.87426
 C518 C 0.25830 0.56924 0.88725
 C519 C 0.22252 0.54998 0.85300
 C520 C 0.21394 0.53871 0.84337
 H521 H 0.30283 0.61128 0.92444
 H522 H 0.28859 0.59331 0.89812
 H523 H 0.23252 0.60839 0.91849
 H524 H 0.24692 0.62658 0.94447
 H525 H 0.22795 0.60701 0.88445
 H526 H 0.21210 0.58571 0.86183
 H527 H 0.25513 0.54320 0.87167
 H528 H 0.27088 0.56417 0.89457
 C529 C 0.03462 0.29175 0.36350
 C530 C 0.04868 0.28509 0.37074
 C531 C 0.06499 0.27681 0.37997
 C532 C 0.07827 0.28838 0.38921
 C533 C 0.09328 0.28022 0.39943
 C534 C 0.09517 0.26034 0.40057
 C535 C 0.08199 0.24886 0.39086
 C536 C 0.06700 0.25705 0.38066
 C537 C 0.11018 0.25156 0.41261
 C538 C 0.11968 0.23499 0.40664
 C539 C 0.13275 0.22595 0.41866
 C540 C 0.13652 0.23338 0.43675
 C541 C 0.12748 0.25009 0.44263
 C542 C 0.11442 0.25914 0.43066
 C543 C 0.14870 0.22326 0.44976
 C544 C 0.15832 0.21460 0.46103
 H545 H 0.07683 0.30370 0.38879
 H546 H 0.10332 0.28943 0.40657
 H547 H 0.08286 0.23353 0.39168
 H548 H 0.05672 0.24796 0.37367
 H549 H 0.11689 0.22893 0.39276
 H550 H 0.13963 0.21300 0.41397
 H551 H 0.13019 0.25588 0.45667
 H552 H 0.10716 0.27170 0.43579
 C553 C 0.03401 0.70799 0.63545
 C554 C 0.04801 0.71444 0.62791
 C555 C 0.06424 0.72244 0.61831
 C556 C 0.07408 0.73773 0.62636
 C557 C 0.08889 0.74643 0.61630
 C558 C 0.09403 0.73997 0.59804
 C559 C 0.08433 0.72431 0.59028
 C560 C 0.06953 0.71563 0.60035
 C561 C 0.10872 0.75007 0.58667
 C562 C 0.12159 0.73993 0.57514
 C563 C 0.13445 0.74956 0.56338
 C564 C 0.13463 0.76943 0.56300
 C565 C 0.12220 0.77964 0.57474
 C566 C 0.10934 0.77005 0.58651
 C567 C 0.14672 0.77938 0.54978
 C568 C 0.15628 0.78791 0.53836
 H569 H 0.07008 0.74313 0.64024
 H570 H 0.09623 0.75831 0.62275
 H571 H 0.08773 0.71916 0.57615
 H572 H 0.06192 0.70390 0.59394
 H573 H 0.12162 0.72455 0.57512
 H574 H 0.14399 0.74151 0.55432
 H575 H 0.12212 0.79503 0.57445
 H576 H 0.09945 0.77828 0.59498
 C577 C 0.96494 0.70821 0.36365
 C578 C 0.95090 0.71484 0.37097
 C579 C 0.93462 0.72308 0.38029
 C580 C 0.92142 0.71147 0.38964
 C581 C 0.90646 0.71960 0.39997
 C582 C 0.90455 0.73947 0.40110
 C583 C 0.91765 0.75099 0.39127
 C584 C 0.93259 0.74283 0.38096
 C585 C 0.88960 0.74822 0.41325
 C586 C 0.88004 0.76478 0.40734
 C587 C 0.86704 0.77378 0.41945
 C588 C 0.86340 0.76632 0.43758
 C589 C 0.87249 0.74961 0.44341
 C590 C 0.88549 0.74059 0.43134
 C591 C 0.85128 0.77640 0.45067
 C592 C 0.84171 0.78502 0.46201
 H593 H 0.92288 0.69616 0.38924
 H594 H 0.89648 0.71036 0.40720
 H595 H 0.91675 0.76632 0.39208
 H596 H 0.94281 0.75195 0.37389
 H597 H 0.88274 0.77087 0.39343
 H598 H 0.86010 0.78673 0.41480
 H599 H 0.86989 0.74379 0.45747
 H600 H 0.89280 0.72803 0.43643
 C601 C 0.96723 0.28985 0.63657
 C602 C 0.95329 0.28312 0.62922
 C603 C 0.93714 0.27475 0.61986
 C604 C 0.92386 0.28625 0.61046
 C605 C 0.90902 0.27800 0.60010
 C606 C 0.90730 0.25812 0.59899
 C607 C 0.92048 0.24671 0.60886
 C608 C 0.93530 0.25498 0.61920
 C609 C 0.89248 0.24926 0.58683
 C610 C 0.88304 0.23264 0.59276
 C611 C 0.87013 0.22356 0.58066
 C612 C 0.86647 0.23097 0.56251
 C613 C 0.87545 0.24772 0.55666
 C614 C 0.88835 0.25682 0.56873
 C615 C 0.85441 0.22083 0.54945
 C616 C 0.84487 0.21217 0.53816
 H617 H 0.92517 0.30158 0.61086
 H618 H 0.89898 0.28717 0.59284
 H619 H 0.91973 0.23137 0.60807
 H620 H 0.94558 0.24595 0.62630
 H621 H 0.88575 0.22660 0.60669
 H622 H 0.86328 0.21058 0.58532
 H623 H 0.87282 0.25350 0.54259
 H624 H 0.89557 0.26942 0.56362
 C625 C 0.36379 0.03416 0.29018
 C626 C 0.37112 0.04814 0.28352
 C627 C 0.38048 0.06436 0.27529
 C628 C 0.38138 0.06633 0.25547
 C629 C 0.39171 0.08122 0.24734
 C630 C 0.40135 0.09435 0.25894
 C631 C 0.40000 0.09250 0.27887
 C632 C 0.38964 0.07759 0.28697
 C633 C 0.41353 0.10926 0.25024
 C634 C 0.43149 0.11342 0.25804
 C635 C 0.44359 0.12641 0.24908
 C636 C 0.43791 0.13545 0.23225
 C637 C 0.41990 0.13175 0.22461
 C638 C 0.40777 0.11876 0.23355
 C639 C 0.45103 0.14758 0.22225
 C640 C 0.46237 0.15718 0.21368
 H641 H 0.37445 0.05609 0.24629
 H642 H 0.39270 0.08207 0.23196
 H643 H 0.40707 0.10251 0.28817
 H644 H 0.38905 0.07618 0.30234
 H645 H 0.43647 0.10616 0.27069
 H646 H 0.45756 0.12906 0.25503
 H647 H 0.41537 0.13865 0.21157
 H648 H 0.39394 0.11603 0.22733
 C649 C 0.63596 0.03463 0.70935
 C650 C 0.62861 0.04865 0.71592
 C651 C 0.61927 0.06492 0.72408
 C652 C 0.60982 0.07797 0.71237
 C653 C 0.59948 0.09293 0.72045
 C654 C 0.59844 0.09498 0.74037
 C655 C 0.60836 0.08202 0.75199
 C656 C 0.61867 0.06709 0.74389
 C657 C 0.58630 0.10993 0.74908
 C658 C 0.59226 0.11962 0.76555
 C659 C 0.58018 0.13265 0.77452
 C660 C 0.56202 0.13618 0.76712
 C661 C 0.55613 0.12695 0.75050
 C662 C 0.56818 0.11393 0.74151
 C663 C 0.54897 0.14834 0.77718
 C664 C 0.53767 0.15796 0.78580
 H665 H 0.61016 0.07640 0.69702
 H666 H 0.59218 0.10279 0.71113
 H667 H 0.60762 0.08303 0.76736
 H668 H 0.62582 0.05699 0.75309
 H669 H 0.60620 0.11701 0.77159
 H670 H 0.58486 0.13969 0.78740
 H671 H 0.54205 0.12947 0.74474
 H672 H 0.56306 0.10652 0.72903
 C673 C 0.36234 0.96610 0.70968
 C674 C 0.36968 0.95209 0.71631
 C675 C 0.37904 0.93585 0.72454
 C676 C 0.38818 0.92258 0.71285
 C677 C 0.39854 0.90765 0.72095
 C678 C 0.39992 0.90583 0.74087
 C679 C 0.39030 0.91900 0.75248
 C680 C 0.37996 0.93391 0.74436
 C681 C 0.41211 0.89090 0.74957
 C682 C 0.40638 0.88146 0.76630
 C683 C 0.41853 0.86848 0.77525
 C684 C 0.43654 0.86474 0.76757
 C685 C 0.44219 0.87371 0.75069
 C686 C 0.43006 0.88668 0.74173
 C687 C 0.44969 0.85264 0.77759
 C688 C 0.46107 0.84308 0.78617
 H689 H 0.38758 0.92397 0.69748
 H690 H 0.40561 0.89762 0.71164
 H691 H 0.39130 0.91817 0.76786
 H692 H 0.37305 0.94418 0.75354
 H693 H 0.39256 0.88424 0.77256
 H694 H 0.41403 0.86164 0.78833
 H695 H 0.45615 0.87102 0.74471
 H696 H 0.43502 0.89390 0.72904
 C697 C 0.63479 0.96601 0.29288
 C698 C 0.62734 0.95208 0.28629
 C699 C 0.61786 0.93591 0.27815
 C700 C 0.62576 0.92651 0.26246
 C701 C 0.61580 0.91175 0.25365
 C702 C 0.59777 0.90622 0.26042
 C703 C 0.59016 0.91549 0.27648
 C704 C 0.60014 0.93023 0.28525
 C705 C 0.58648 0.89157 0.25026
 C706 C 0.57541 0.87835 0.26044
 C707 C 0.56374 0.86548 0.25080
 C708 C 0.56301 0.86562 0.23087
 C709 C 0.57428 0.87843 0.22061
 C710 C 0.58595 0.89130 0.23021
 C711 C 0.54989 0.85347 0.22095
 C712 C 0.53854 0.84383 0.21247
 H713 H 0.63946 0.93081 0.25683
 H714 H 0.62213 0.90475 0.24147
 H715 H 0.57621 0.91178 0.28186
 H716 H 0.59383 0.93750 0.29730
 H717 H 0.57568 0.87805 0.27586
 H718 H 0.55505 0.85564 0.25888
 H719 H 0.57371 0.87876 0.20518
 H720 H 0.59407 0.90146 0.22196
 C721 C 0.36348 0.29148 0.96642
 C722 C 0.37073 0.28481 0.95236
 C723 C 0.37995 0.27653 0.93604
 C724 C 0.38898 0.28811 0.92258
 C725 C 0.39919 0.27995 0.90755
 C726 C 0.40051 0.26008 0.90582
 C727 C 0.39100 0.24858 0.91919
 C728 C 0.38083 0.25676 0.93420
 C729 C 0.41252 0.25132 0.89077
 C730 C 0.40664 0.23464 0.88144
 C731 C 0.41863 0.22565 0.86834
 C732 C 0.43661 0.23321 0.86435
 C733 C 0.44240 0.25003 0.87320
 C734 C 0.43044 0.25905 0.88630
 C735 C 0.44961 0.22314 0.85213
 C736 C 0.46087 0.21452 0.84247
 H737 H 0.38841 0.30343 0.92389
 H738 H 0.40616 0.28918 0.89736
 H739 H 0.39197 0.23325 0.91844
 H740 H 0.37400 0.24766 0.94462
 H741 H 0.39284 0.22847 0.88441
 H742 H 0.41402 0.21261 0.86159
 H743 H 0.45634 0.25594 0.87033
 H744 H 0.43550 0.27170 0.89342
 C745 C 0.63502 0.70683 0.96514
 C746 C 0.62753 0.71328 0.95109
 C747 C 0.61800 0.72128 0.93481
 C748 C 0.60003 0.71456 0.92957
 C749 C 0.59001 0.72325 0.91473
 C750 C 0.59784 0.73886 0.90494
 C751 C 0.61612 0.74524 0.91003
 C752 C 0.62612 0.73651 0.92488
 C753 C 0.58653 0.74900 0.89021
 C754 C 0.58647 0.76897 0.88951
 C755 C 0.57476 0.77860 0.87662
 C756 C 0.56299 0.76843 0.86423
 C757 C 0.56326 0.74856 0.86450
 C758 C 0.57497 0.73889 0.87739
 C759 C 0.54983 0.77842 0.85211
 C760 C 0.53844 0.78697 0.84252
 H761 H 0.59355 0.70287 0.93725
 H762 H 0.57587 0.71818 0.91137
 H763 H 0.62262 0.75707 0.90262
 H764 H 0.64002 0.74185 0.92885
 H765 H 0.59498 0.77718 0.89937
 H766 H 0.57456 0.79399 0.87663
 H767 H 0.55418 0.74054 0.85499
 H768 H 0.57486 0.72351 0.87743
 C769 C 0.36318 0.70944 0.03426
 C770 C 0.37050 0.71613 0.04826
 C771 C 0.37982 0.72444 0.06448
 C772 C 0.38926 0.71291 0.07770
 C773 C 0.39959 0.72112 0.09259
 C774 C 0.40062 0.74100 0.09441
 C775 C 0.39071 0.75244 0.08129
 C776 C 0.38040 0.74420 0.06642
 C777 C 0.41277 0.74983 0.10927
 C778 C 0.40682 0.76639 0.11880
 C779 C 0.41892 0.77547 0.13171
 C780 C 0.43708 0.76810 0.13531
 C781 C 0.44295 0.75140 0.12625
 C782 C 0.43089 0.74230 0.11334
 C783 C 0.45014 0.77826 0.14733
 C784 C 0.46146 0.78695 0.15683
 H785 H 0.38892 0.69759 0.07630
 H786 H 0.40688 0.71193 0.10259
 H787 H 0.39145 0.76777 0.08212
 H788 H 0.37326 0.75327 0.05618
 H789 H 0.39288 0.77240 0.11614
 H790 H 0.41424 0.78841 0.13862
 H791 H 0.45703 0.74566 0.12881
 H792 H 0.43601 0.72976 0.10605
 C793 C 0.63708 0.29063 0.03356
 C794 C 0.62982 0.28400 0.04764
 C795 C 0.62057 0.27576 0.06397
 C796 C 0.61125 0.28737 0.07720
 C797 C 0.60100 0.27924 0.09222
 C798 C 0.59990 0.25937 0.09417
 C799 C 0.60969 0.24785 0.08103
 C800 C 0.61993 0.25601 0.06603
 C801 C 0.58782 0.25062 0.10917
 C802 C 0.59378 0.23408 0.11875
 C803 C 0.58174 0.22507 0.13181
 C804 C 0.56362 0.23250 0.13550
 C805 C 0.55775 0.24919 0.12639
 C806 C 0.56976 0.25821 0.11334
 C807 C 0.55059 0.22241 0.14767
 C808 C 0.53931 0.21377 0.15729
 H809 H 0.61163 0.30268 0.07572
 H810 H 0.59380 0.28848 0.10223
 H811 H 0.60891 0.23252 0.08195
 H812 H 0.62697 0.24689 0.05578
 H813 H 0.60769 0.22801 0.11602
 H814 H 0.58642 0.21214 0.13876
 H815 H 0.54370 0.25498 0.12903
 H816 H 0.56463 0.27076 0.10601
 C817 C 0.29032 0.03446 0.63692
 C818 C 0.28380 0.04850 0.62953
 C819 C 0.27571 0.06479 0.62014
 C820 C 0.28748 0.07784 0.61079
 C821 C 0.27949 0.09281 0.60040
 C822 C 0.25960 0.09490 0.59920
 C823 C 0.24792 0.08194 0.60903
 C824 C 0.25593 0.06699 0.61940
 C825 C 0.25100 0.10986 0.58699
 C826 C 0.23448 0.11957 0.59283
 C827 C 0.22561 0.13261 0.58067
 C828 C 0.23315 0.13613 0.56255
 C829 C 0.24982 0.12689 0.55678
 C830 C 0.25871 0.11386 0.56891
 C831 C 0.22320 0.14830 0.54941
 C832 C 0.21466 0.15793 0.53805
 H833 H 0.30281 0.07624 0.61125
 H834 H 0.28886 0.10268 0.59317
 H835 H 0.23256 0.08298 0.60817
 H836 H 0.24668 0.05689 0.62647
 H837 H 0.22833 0.11697 0.60674
 H838 H 0.21269 0.13966 0.58527
 H839 H 0.25570 0.12940 0.54273
 H840 H 0.27124 0.10643 0.56387
 C841 C 0.70782 0.03342 0.36518
 C842 C 0.71440 0.04735 0.37265
 C843 C 0.72255 0.06351 0.38215
 C844 C 0.71569 0.06896 0.40005
 C845 C 0.72449 0.08369 0.41003
 C846 C 0.74033 0.09315 0.40225
 C847 C 0.74685 0.08785 0.38405
 C848 C 0.73801 0.07311 0.37408
 C849 C 0.75055 0.10778 0.41353
 C850 C 0.77057 0.10821 0.41375
 C851 C 0.78025 0.12104 0.42542
 C852 C 0.77007 0.13365 0.43698
 C853 C 0.75016 0.13365 0.43655
 C854 C 0.74044 0.12082 0.42489
 C855 C 0.78009 0.14577 0.45006
 C856 C 0.78866 0.15538 0.46138
 H857 H 0.70381 0.06153 0.40649
 H858 H 0.71930 0.08722 0.42412
 H859 H 0.75886 0.09501 0.37758
 H860 H 0.74345 0.06898 0.36024
 H861 H 0.77876 0.09819 0.40540
 H862 H 0.79566 0.12083 0.42574
 H863 H 0.74214 0.14333 0.44547
 H864 H 0.72503 0.12099 0.42487
 C865 C 0.70877 0.96520 0.63680
 C866 C 0.71546 0.95118 0.62956
 C867 C 0.72375 0.93491 0.62033
 C868 C 0.71212 0.92149 0.61140
 C869 C 0.72028 0.90650 0.60117
 C870 C 0.74019 0.90478 0.59974
 C871 C 0.75173 0.91812 0.60915
 C872 C 0.74355 0.93308 0.61935
 C873 C 0.74893 0.88977 0.58770
 C874 C 0.76571 0.88048 0.59350
 C875 C 0.77468 0.86741 0.58148
 C876 C 0.76698 0.86342 0.56355
 C877 C 0.75006 0.87224 0.55784
 C878 C 0.74107 0.88530 0.56983
 C879 C 0.77701 0.85122 0.55051
 C880 C 0.78558 0.84157 0.53920
 H881 H 0.69677 0.92279 0.61205
 H882 H 0.71102 0.89634 0.59427
 H883 H 0.76709 0.91737 0.60809
 H884 H 0.75269 0.94348 0.62610
 H885 H 0.77198 0.88345 0.60727
 H886 H 0.78779 0.86069 0.58603
 H887 H 0.74406 0.86936 0.54392
 H888 H 0.72834 0.89240 0.56482
 C889 C 0.29212 0.96623 0.36364
 C890 C 0.28570 0.95224 0.37119
 C891 C 0.27775 0.93602 0.38080
 C892 C 0.26249 0.92613 0.37274
 C893 C 0.25381 0.91132 0.38280
 C894 C 0.26028 0.90625 0.40109
 C895 C 0.27592 0.91601 0.40886
 C896 C 0.28456 0.93080 0.39878
 C897 C 0.25019 0.89157 0.41247
 C898 C 0.26040 0.87878 0.42404
 C899 C 0.25078 0.86593 0.43582
 C900 C 0.23086 0.86567 0.43615
 C901 C 0.22060 0.87802 0.42437
 C902 C 0.23018 0.89087 0.41259
 C903 C 0.22092 0.85359 0.44937
 C904 C 0.21240 0.84404 0.46080
 H905 H 0.25708 0.93008 0.35883
 H906 H 0.24195 0.90394 0.37635
 H907 H 0.28106 0.91266 0.42301
 H908 H 0.29628 0.93845 0.40521
 H909 H 0.27581 0.87883 0.42410
 H910 H 0.25887 0.85646 0.44491
 H911 H 0.20518 0.87803 0.42461
 H912 H 0.22190 0.90069 0.40408
 C913 C 0.03570 0.36302 0.70939
 C914 C 0.04963 0.37044 0.71607
 C915 C 0.06578 0.37986 0.72437
 C916 C 0.06781 0.38043 0.74419
 C917 C 0.08260 0.39082 0.75241
 C918 C 0.09557 0.40085 0.74090
 C919 C 0.09367 0.39984 0.72096
 C920 C 0.07885 0.38942 0.71276
 C921 C 0.11035 0.41308 0.74972
 C922 C 0.11422 0.43120 0.74218
 C923 C 0.12709 0.44330 0.75126
 C924 C 0.13629 0.43747 0.76795
 C925 C 0.13288 0.41932 0.77532
 C926 C 0.12001 0.40718 0.76627
 C927 C 0.14832 0.45056 0.77806
 C928 C 0.15783 0.46187 0.78671
 H929 H 0.05769 0.37320 0.75331
 H930 H 0.08349 0.39154 0.76779
 H931 H 0.10355 0.40722 0.71172
 H932 H 0.07739 0.38910 0.69740
 H933 H 0.10682 0.43628 0.72964
 H934 H 0.12951 0.45738 0.74551
 H935 H 0.13991 0.41467 0.78825
 H936 H 0.11750 0.39323 0.77228
 C937 C 0.03346 0.63648 0.29084
 C938 C 0.04754 0.62923 0.28422
 C939 C 0.06388 0.62000 0.27600
 C940 C 0.07720 0.61090 0.28769
 C941 C 0.09225 0.60069 0.27959
 C942 C 0.09414 0.59944 0.25966
 C943 C 0.08091 0.60901 0.24805
 C944 C 0.06588 0.61920 0.25618
 C945 C 0.10921 0.58743 0.25096
 C946 C 0.11868 0.59332 0.23429
 C947 C 0.13182 0.58134 0.22534
 C948 C 0.13569 0.56336 0.23294
 C949 C 0.12668 0.55756 0.24975
 C950 C 0.11355 0.56951 0.25872
 C951 C 0.14795 0.55039 0.22291
 C952 C 0.15766 0.53915 0.21433
 H953 H 0.07576 0.61141 0.30305
 H954 H 0.10232 0.59366 0.28890
 H955 H 0.08179 0.60810 0.23268
 H956 H 0.05557 0.62608 0.24700
 H957 H 0.11581 0.60711 0.22809
 H958 H 0.13868 0.58596 0.21231
 H959 H 0.12946 0.54362 0.25568
 H960 H 0.10631 0.56444 0.27137
 C961 C 0.96604 0.36380 0.29097
 C962 C 0.95197 0.37107 0.28435
 C963 C 0.93565 0.38032 0.27612
 C964 C 0.92244 0.38961 0.28778
 C965 C 0.90742 0.39985 0.27965
 C966 C 0.90546 0.40094 0.25972
 C967 C 0.91857 0.39117 0.24815
 C968 C 0.93356 0.38096 0.25630
 C969 C 0.89044 0.41298 0.25096
 C970 C 0.88086 0.40703 0.23441
 C971 C 0.86778 0.41903 0.22539
 C972 C 0.86408 0.43710 0.23281
 C973 C 0.87319 0.44297 0.24951
 C974 C 0.88626 0.43100 0.25855
 C975 C 0.85188 0.45008 0.22269
 C976 C 0.84224 0.46133 0.21403
 H977 H 0.92394 0.38923 0.30314
 H978 H 0.89744 0.40704 0.28893
 H979 H 0.91763 0.39195 0.23277
 H980 H 0.94379 0.37392 0.24714
 H981 H 0.88360 0.39315 0.22835
 H982 H 0.86083 0.41435 0.21245
 H983 H 0.87054 0.45699 0.25529
 H984 H 0.89359 0.43613 0.27109
 C985 C 0.96606 0.63622 0.70877
 C986 C 0.95204 0.62888 0.71541
 C987 C 0.93578 0.61953 0.72361
 C988 C 0.93380 0.61859 0.74343
 C989 C 0.91887 0.60827 0.75153
 C990 C 0.90572 0.59867 0.73990
 C991 C 0.90758 0.60006 0.71997
 C992 C 0.92253 0.61041 0.71190
 C993 C 0.89076 0.58651 0.74857
 C994 C 0.88658 0.56860 0.74075
 C995 C 0.87356 0.55652 0.74968
 C996 C 0.86450 0.56217 0.76651
 C997 C 0.86821 0.58013 0.77417
 C998 C 0.88124 0.59224 0.76526
 C999 C 0.85234 0.54906 0.77649
 C1000 C 0.84273 0.53773 0.78505
 H1001 H 0.94406 0.62548 0.75263
 H1002 H 0.91801 0.60726 0.76690
 H1003 H 0.89756 0.59302 0.71065
 H1004 H 0.92395 0.61102 0.69654
 H1005 H 0.89387 0.56366 0.72809
 H1006 H 0.87091 0.54259 0.74371
 H1007 H 0.86130 0.58463 0.78721
 H1008 H 0.88398 0.60602 0.77150
 C1009 C 0.70875 0.63573 0.96430
 C1010 C 0.71548 0.62846 0.95029
 C1011 C 0.72381 0.61921 0.93403
 C1012 C 0.71222 0.61014 0.92063
 C1013 C 0.72042 0.59988 0.90567
 C1014 C 0.74034 0.59853 0.90396
 C1015 C 0.75184 0.60808 0.91726
 C1016 C 0.74362 0.61832 0.93219
 C1017 C 0.74914 0.58644 0.88902
 C1018 C 0.76589 0.59221 0.87965
 C1019 C 0.77492 0.58014 0.86666
 C1020 C 0.76733 0.56218 0.86284
 C1021 C 0.75044 0.55649 0.87174
 C1022 C 0.74138 0.56853 0.88472
 C1023 C 0.77744 0.54911 0.85076
 C1024 C 0.78609 0.53779 0.84121
 H1025 H 0.69687 0.61072 0.92193
 H1026 H 0.71119 0.59287 0.89553
 H1027 H 0.76720 0.60709 0.91652
 H1028 H 0.75272 0.62517 0.94257
 H1029 H 0.77208 0.60599 0.88249
 H1030 H 0.78801 0.58467 0.85988
 H1031 H 0.74452 0.54256 0.86899
 H1032 H 0.72868 0.56355 0.89188
 C1033 C 0.29278 0.36483 0.96650
 C1034 C 0.28643 0.37239 0.95245
 C1035 C 0.27856 0.38198 0.93614
 C1036 C 0.26341 0.37391 0.92607
 C1037 C 0.25483 0.38395 0.91115
 C1038 C 0.26128 0.40221 0.90616
 C1039 C 0.27680 0.40998 0.91610
 C1040 C 0.28536 0.39993 0.93099
 C1041 C 0.25128 0.41354 0.89136
 C1042 C 0.26156 0.42511 0.87863
 C1043 C 0.25202 0.43684 0.86568
 C1044 C 0.23211 0.43713 0.86524
 C1045 C 0.22177 0.42535 0.87752
 C1046 C 0.23127 0.41361 0.89048
 C1047 C 0.22223 0.45030 0.85305
 C1048 C 0.21377 0.46169 0.84341
 H1049 H 0.25803 0.36003 0.92995
 H1050 H 0.24305 0.37749 0.90363
 H1051 H 0.28193 0.42411 0.91281
 H1052 H 0.29699 0.40636 0.93879
 H1053 H 0.27697 0.42521 0.87881
 H1054 H 0.26016 0.44593 0.85625
 H1055 H 0.20635 0.42556 0.87740
 H1056 H 0.22294 0.40510 0.90025
 C1057 C 0.29124 0.63744 0.03470
 C1058 C 0.28463 0.63017 0.04879
 C1059 C 0.27642 0.62093 0.06513
 C1060 C 0.28808 0.61166 0.07837
 C1061 C 0.27997 0.60140 0.09339
 C1062 C 0.26006 0.60025 0.09532
 C1063 C 0.24849 0.60999 0.08219
 C1064 C 0.25662 0.62023 0.06719
 C1065 C 0.25133 0.58814 0.11031
 C1066 C 0.23473 0.59402 0.11989
 C1067 C 0.22573 0.58194 0.13291
 C1068 C 0.23323 0.56388 0.13657
 C1069 C 0.24998 0.55809 0.12747
 C1070 C 0.25900 0.57013 0.11446
 C1071 C 0.22313 0.55081 0.14867
 C1072 C 0.21449 0.53948 0.15822
 H1073 H 0.30342 0.61208 0.07688
 H1074 H 0.28926 0.59423 0.10339
 H1075 H 0.23313 0.60916 0.08310
 H1076 H 0.24746 0.62724 0.05695
 H1077 H 0.22861 0.60788 0.11717
 H1078 H 0.21275 0.58656 0.13984
 H1079 H 0.25582 0.54408 0.13009
 H1080 H 0.27158 0.56507 0.10714
 C1081 C 0.70945 0.36294 0.03426
 C1082 C 0.71609 0.37026 0.04827
 C1083 C 0.72432 0.37956 0.06454
 C1084 C 0.71263 0.38865 0.07787
 C1085 C 0.72073 0.39893 0.09285
 C1086 C 0.74063 0.40027 0.09465
 C1087 C 0.75223 0.39071 0.08140
 C1088 C 0.74411 0.38046 0.06645
 C1089 C 0.74932 0.41237 0.10962
 C1090 C 0.76602 0.40660 0.11906
 C1091 C 0.77496 0.41867 0.13208
 C1092 C 0.76730 0.43663 0.13586
 C1093 C 0.75046 0.44232 0.12689
 C1094 C 0.74150 0.43028 0.11388
 C1095 C 0.77731 0.44971 0.14799
 C1096 C 0.78588 0.46104 0.15756
 H1097 H 0.69729 0.38806 0.07651
 H1098 H 0.71143 0.40595 0.10294
 H1099 H 0.76759 0.39170 0.08221
 H1100 H 0.75329 0.37359 0.05612
 H1101 H 0.77226 0.39281 0.11625
 H1102 H 0.78802 0.41414 0.13892
 H1103 H 0.74449 0.45626 0.12960
 H1104 H 0.72883 0.43527 0.10665
 C1105 C 0.96581 0.70799 0.63636
 C1106 C 0.95174 0.71465 0.62915
 C1107 C 0.93540 0.72293 0.61998
 C1108 C 0.92198 0.71135 0.61097
 C1109 C 0.90692 0.71951 0.60081
 C1110 C 0.90513 0.73938 0.59952
 C1111 C 0.91846 0.75088 0.60901
 C1112 C 0.93349 0.74269 0.61914
 C1113 C 0.89006 0.74814 0.58753
 C1114 C 0.88070 0.76481 0.59344
 C1115 C 0.86761 0.77383 0.58145
 C1116 C 0.86366 0.76629 0.56344
 C1117 C 0.87254 0.74947 0.55763
 C1118 C 0.88563 0.74043 0.56959
 C1119 C 0.85147 0.77638 0.55044
 C1120 C 0.84185 0.78502 0.53915
 H1121 H 0.92334 0.69603 0.61151
 H1122 H 0.89677 0.71028 0.59384
 H1123 H 0.91765 0.76621 0.60806
 H1124 H 0.94388 0.75179 0.62596
 H1125 H 0.88364 0.77097 0.60725
 H1126 H 0.86084 0.78687 0.58608
 H1127 H 0.86970 0.74358 0.54366
 H1128 H 0.89279 0.72778 0.56450
 C1129 C 0.96643 0.29238 0.36374
 C1130 C 0.95244 0.28588 0.37127
 C1131 C 0.93623 0.27781 0.38085
 C1132 C 0.93088 0.28462 0.39879
 C1133 C 0.91613 0.27586 0.40886
 C1134 C 0.90656 0.26011 0.40113
 C1135 C 0.91175 0.25365 0.38287
 C1136 C 0.92652 0.26245 0.37282
 C1137 C 0.89194 0.24991 0.41251
 C1138 C 0.89149 0.22993 0.41272
 C1139 C 0.87872 0.22026 0.42451
 C1140 C 0.86619 0.23039 0.43621
 C1141 C 0.86620 0.25026 0.43579
 C1142 C 0.87898 0.25998 0.42400
 C1143 C 0.85418 0.22038 0.44945
 C1144 C 0.84468 0.21182 0.46090
 H1145 H 0.93840 0.29642 0.40519
 H1146 H 0.91268 0.28100 0.42298
 H1147 H 0.90451 0.24171 0.37645
 H1148 H 0.93057 0.25705 0.35895
 H1149 H 0.90146 0.22176 0.40427
 H1150 H 0.87892 0.20487 0.42482
 H1151 H 0.85659 0.25825 0.44481
 H1152 H 0.87883 0.27535 0.42399
 C1153 C 0.03543 0.29059 0.63706
 C1154 C 0.04951 0.28405 0.62975
 C1155 C 0.06584 0.27591 0.62043
 C1156 C 0.06802 0.25618 0.61979
 C1157 C 0.08297 0.24811 0.60944
 C1158 C 0.09595 0.25970 0.59953
 C1159 C 0.09390 0.27956 0.60063
 C1160 C 0.07892 0.28760 0.61101
 C1161 C 0.11087 0.25105 0.58729
 C1162 C 0.11479 0.25866 0.56916
 C1163 C 0.12775 0.24970 0.55701
 C1164 C 0.13699 0.23306 0.56279
 C1165 C 0.13355 0.22562 0.58097
 C1166 C 0.12059 0.23456 0.59316
 C1167 C 0.14905 0.22303 0.54962
 C1168 C 0.15858 0.21444 0.53822
 H1169 H 0.05789 0.24699 0.62692
 H1170 H 0.08398 0.23279 0.60865
 H1171 H 0.10378 0.28886 0.59334
 H1172 H 0.07734 0.30290 0.61139
 H1173 H 0.10735 0.27116 0.56411
 H1174 H 0.13020 0.25551 0.54291
 H1175 H 0.14060 0.21272 0.58558
 H1176 H 0.11803 0.22848 0.60711
 C1177 C 0.03402 0.70791 0.36416
 C1178 C 0.04799 0.71437 0.37171
 C1179 C 0.06418 0.72239 0.38130
 C1180 C 0.06942 0.71559 0.39929
 C1181 C 0.08418 0.72429 0.40936
 C1182 C 0.09388 0.73996 0.40157
 C1183 C 0.08878 0.74642 0.38328
 C1184 C 0.07401 0.73769 0.37323
 C1185 C 0.10853 0.75008 0.41292
 C1186 C 0.10913 0.77006 0.41303
 C1187 C 0.12196 0.77966 0.42477
 C1188 C 0.13440 0.76946 0.43652
 C1189 C 0.13423 0.74959 0.43620
 C1190 C 0.12140 0.73995 0.42447
 C1191 C 0.14650 0.77942 0.44967
 C1192 C 0.15608 0.78794 0.46104
 H1193 H 0.06181 0.70385 0.40573
 H1194 H 0.08755 0.71915 0.42350
 H1195 H 0.09613 0.75830 0.37681
 H1196 H 0.07004 0.74308 0.35932
 H1197 H 0.09924 0.77828 0.40454
 H1198 H 0.12188 0.79505 0.42500
 H1199 H 0.14378 0.74155 0.44527
 H1200 H 0.12143 0.72457 0.42453
 C1201 C 0.63642 0.96657 0.70949
 C1202 C 0.62911 0.95259 0.71620
 C1203 C 0.61981 0.93637 0.72449
 C1204 C 0.61087 0.92296 0.71284
 C1205 C 0.60057 0.90802 0.72099
 C1206 C 0.59906 0.90634 0.74092
 C1207 C 0.60847 0.91966 0.75249
 C1208 C 0.61874 0.93457 0.74431
 C1209 C 0.58694 0.89139 0.74965
 C1210 C 0.59265 0.88210 0.76647
 C1211 C 0.58056 0.86908 0.77542
 C1212 C 0.56265 0.86515 0.76766
 C1213 C 0.55703 0.87398 0.75071
 C1214 C 0.56909 0.88699 0.74173
 C1215 C 0.54956 0.85299 0.77767
 C1216 C 0.53823 0.84336 0.78623
 H1217 H 0.61158 0.92424 0.69747
 H1218 H 0.59367 0.89787 0.71171
 H1219 H 0.60735 0.91894 0.76786
 H1220 H 0.62549 0.94495 0.75346
 H1221 H 0.60639 0.88502 0.77278
 H1222 H 0.58504 0.86234 0.78856
 H1223 H 0.54314 0.87115 0.74465
 H1224 H 0.56415 0.89410 0.72897
 C1225 C 0.36345 0.96611 0.29068
 C1226 C 0.37072 0.95210 0.28400
 C1227 C 0.37997 0.93585 0.27569
 C1228 C 0.38924 0.92258 0.28730
 C1229 C 0.39951 0.90765 0.27910
 C1230 C 0.40065 0.90583 0.25916
 C1231 C 0.39089 0.91900 0.24764
 C1232 C 0.38064 0.93391 0.25587
 C1233 C 0.41276 0.89093 0.25033
 C1234 C 0.40684 0.88149 0.23370
 C1235 C 0.41892 0.86854 0.22461
 C1236 C 0.43702 0.86484 0.23205
 C1237 C 0.44285 0.87380 0.24884
 C1238 C 0.43081 0.88674 0.25794
 C1239 C 0.45009 0.85279 0.22188
 C1240 C 0.46141 0.84328 0.21318
 H1241 H 0.38883 0.92398 0.30267
 H1242 H 0.40669 0.89762 0.28834
 H1243 H 0.39171 0.91817 0.23226
 H1244 H 0.37363 0.94418 0.24675
 H1245 H 0.39295 0.88424 0.22762
 H1246 H 0.41428 0.86170 0.21160
 H1247 H 0.45689 0.87115 0.25464
 H1248 H 0.43590 0.89396 0.27056
 C1249 C 0.63518 0.03406 0.29364
 C1250 C 0.62779 0.04813 0.28720
 C1251 C 0.61839 0.06445 0.27919
 C1252 C 0.62660 0.07427 0.26391
 C1253 C 0.61673 0.08918 0.25517
 C1254 C 0.59849 0.09444 0.26161
 C1255 C 0.59058 0.08476 0.27728
 C1256 C 0.60046 0.06986 0.28598
 C1257 C 0.58730 0.10923 0.25146
 C1258 C 0.57585 0.12214 0.26162
 C1259 C 0.56424 0.13509 0.25195
 C1260 C 0.56396 0.13535 0.23201
 C1261 C 0.57563 0.12288 0.22178
 C1262 C 0.58724 0.10992 0.23142
 C1263 C 0.55086 0.14753 0.22202
 C1264 C 0.53952 0.15716 0.21348
 H1265 H 0.64046 0.07018 0.25852
 H1266 H 0.62329 0.09650 0.24329
 H1267 H 0.57646 0.08826 0.28240
 H1268 H 0.59392 0.06227 0.29771
 H1269 H 0.57575 0.12210 0.27705
 H1270 H 0.55523 0.14466 0.26001
 H1271 H 0.57541 0.12286 0.20634
 H1272 H 0.59566 0.10001 0.22317
 C1273 C 0.36241 0.03504 0.70976
 C1274 C 0.36973 0.04901 0.71642
 C1275 C 0.37904 0.06523 0.72466
 C1276 C 0.38795 0.07866 0.71296
 C1277 C 0.39822 0.09361 0.72106
 C1278 C 0.39974 0.09528 0.74098
 C1279 C 0.39036 0.08194 0.75260
 C1280 C 0.38010 0.06701 0.74448
 C1281 C 0.41183 0.11024 0.74966
 C1282 C 0.40612 0.11952 0.76648
 C1283 C 0.41820 0.13253 0.77540
 C1284 C 0.43611 0.13648 0.76760
 C1285 C 0.44173 0.12768 0.75064
 C1286 C 0.42968 0.11467 0.74171
 C1287 C 0.44921 0.14860 0.77759
 C1288 C 0.46056 0.15817 0.78613
 H1289 H 0.38723 0.07739 0.69760
 H1290 H 0.40510 0.10377 0.71175
 H1291 H 0.39148 0.08266 0.76797
 H1292 H 0.37337 0.05662 0.75366
 H1293 H 0.39238 0.11657 0.77283
 H1294 H 0.41372 0.13924 0.78854
 H1295 H 0.45562 0.13053 0.74457
 H1296 H 0.43462 0.10759 0.72894
 C1297 C 0.63472 0.70730 0.03341
 C1298 C 0.62727 0.71380 0.04744
 C1299 C 0.61781 0.72187 0.06372
 C1300 C 0.62587 0.73725 0.07339
 C1301 C 0.61593 0.74601 0.08825
 C1302 C 0.59776 0.73951 0.09360
 C1303 C 0.58998 0.72375 0.08407
 C1304 C 0.59994 0.71502 0.06922
 C1305 C 0.58650 0.74966 0.10835
 C1306 C 0.57517 0.73955 0.12142
 C1307 C 0.56350 0.74921 0.13434
 C1308 C 0.56305 0.76908 0.13440
 C1309 C 0.57459 0.77926 0.12176
 C1310 C 0.58626 0.76964 0.10883
 C1311 C 0.54993 0.77904 0.14658
 C1312 C 0.53858 0.78754 0.15623
 H1313 H 0.63969 0.74268 0.06922
 H1314 H 0.62239 0.75796 0.09546
 H1315 H 0.57592 0.71858 0.08764
 H1316 H 0.59350 0.70321 0.06174
 H1317 H 0.57521 0.72417 0.12154
 H1318 H 0.55460 0.74118 0.14404
 H1319 H 0.57424 0.79465 0.12159
 H1320 H 0.59459 0.77784 0.09879
 C1321 C 0.36368 0.29087 0.03469
 C1322 C 0.37094 0.28414 0.04872
 C1323 C 0.38020 0.27582 0.06499
 C1324 C 0.38119 0.25605 0.06678
 C1325 C 0.39148 0.24784 0.08170
 C1326 C 0.40099 0.25932 0.09504
 C1327 C 0.39954 0.27920 0.09338
 C1328 C 0.38922 0.28738 0.07844
 C1329 C 0.41317 0.25055 0.10995
 C1330 C 0.43108 0.25837 0.11426
 C1331 C 0.44321 0.24934 0.12719
 C1332 C 0.43761 0.23243 0.13604
 C1333 C 0.41964 0.22478 0.13221
 C1334 C 0.40748 0.23378 0.11927
 C1335 C 0.45078 0.22236 0.14808
 C1336 C 0.46217 0.21374 0.15759
 H1337 H 0.37437 0.24697 0.05637
 H1338 H 0.39254 0.23252 0.08240
 H1339 H 0.40652 0.28841 0.10355
 H1340 H 0.38858 0.30270 0.07717
 H1341 H 0.43600 0.27110 0.10713
 H1342 H 0.45715 0.25531 0.12995
 H1343 H 0.41517 0.21167 0.13895
 H1344 H 0.39370 0.22754 0.11641
 C1345 C 0.63655 0.29037 0.96528
 C1346 C 0.62919 0.28379 0.95126
 C1347 C 0.61984 0.27562 0.93500
 C1348 C 0.61066 0.28730 0.92172
 C1349 C 0.60031 0.27925 0.90676
 C1350 C 0.59900 0.25939 0.90491
 C1351 C 0.60866 0.24779 0.91809
 C1352 C 0.61898 0.25587 0.93304
 C1353 C 0.58683 0.25074 0.88996
 C1354 C 0.59262 0.23411 0.88045
 C1355 C 0.58049 0.22521 0.86745
 C1356 C 0.56245 0.23282 0.86375
 C1357 C 0.55675 0.24959 0.87279
 C1358 C 0.56885 0.25852 0.88578
 C1359 C 0.54932 0.22283 0.85165
 C1360 C 0.53795 0.21428 0.84210
 H1361 H 0.61121 0.30261 0.92313
 H1362 H 0.59321 0.28854 0.89671
 H1363 H 0.60770 0.23247 0.91725
 H1364 H 0.62592 0.24670 0.94331
 H1365 H 0.60646 0.22791 0.88320
 H1366 H 0.58503 0.21221 0.86056
 H1367 H 0.54276 0.25552 0.87014
 H1368 H 0.56385 0.27112 0.89305
 C1369 C 0.36340 0.70964 0.96599
 C1370 C 0.37068 0.71626 0.95192
 C1371 C 0.37995 0.72450 0.93560
 C1372 C 0.38938 0.71290 0.92244
 C1373 C 0.39965 0.72104 0.90744
 C1374 C 0.40066 0.74091 0.90545
 C1375 C 0.39075 0.75241 0.91851
 C1376 C 0.38050 0.74425 0.93349
 C1377 C 0.41276 0.74968 0.89047
 C1378 C 0.40676 0.76617 0.88083
 C1379 C 0.41882 0.77520 0.86780
 C1380 C 0.43699 0.76785 0.86422
 C1381 C 0.44290 0.75121 0.87339
 C1382 C 0.43088 0.74216 0.88641
 C1383 C 0.45002 0.77797 0.85208
 C1384 C 0.46131 0.78663 0.84249
 H1385 H 0.38907 0.69759 0.92396
 H1386 H 0.40694 0.71181 0.89749
 H1387 H 0.39147 0.76774 0.91755
 H1388 H 0.37337 0.75336 0.94368
 H1389 H 0.39282 0.77217 0.88348
 H1390 H 0.41411 0.78810 0.86080
 H1391 H 0.45699 0.74548 0.87083
 H1392 H 0.43603 0.72966 0.89379
 C1393 C 0.70839 0.96536 0.36487
 C1394 C 0.71509 0.95130 0.37203
 C1395 C 0.72340 0.93498 0.38117
 C1396 C 0.74321 0.93318 0.38212
 C1397 C 0.75141 0.91816 0.39225
 C1398 C 0.73988 0.90475 0.40163
 C1399 C 0.71997 0.90644 0.40022
 C1400 C 0.71179 0.92148 0.39006
 C1401 C 0.74864 0.88971 0.41363
 C1402 C 0.74079 0.88516 0.43151
 C1403 C 0.74982 0.87208 0.44348
 C1404 C 0.76676 0.86333 0.43774
 C1405 C 0.77445 0.86740 0.41980
 C1406 C 0.76545 0.88048 0.40780
 C1407 C 0.77684 0.85114 0.45077
 C1408 C 0.78545 0.84151 0.46207
 H1409 H 0.75233 0.94363 0.37540
 H1410 H 0.76677 0.91743 0.39330
 H1411 H 0.71072 0.89622 0.40710
 H1412 H 0.69644 0.92276 0.38943
 H1413 H 0.72804 0.89220 0.43654
 H1414 H 0.74382 0.86914 0.45740
 H1415 H 0.78759 0.86073 0.41523
 H1416 H 0.77172 0.88352 0.39403
 C1417 C 0.28972 0.96640 0.63663
 C1418 C 0.28306 0.95245 0.62928
 C1419 C 0.27479 0.93628 0.61992
 C1420 C 0.28640 0.92308 0.61058
 C1421 C 0.27824 0.90822 0.60022
 C1422 C 0.25832 0.90641 0.59905
 C1423 C 0.24679 0.91951 0.60887
 C1424 C 0.25498 0.93434 0.61921
 C1425 C 0.24954 0.89157 0.58687
 C1426 C 0.23292 0.88208 0.59275
 C1427 C 0.22391 0.86917 0.58063
 C1428 C 0.23139 0.86555 0.56250
 C1429 C 0.24815 0.87459 0.55670
 C1430 C 0.25719 0.88749 0.56880
 C1431 C 0.22130 0.85351 0.54940
 C1432 C 0.21268 0.84399 0.53807
 H1433 H 0.30175 0.92447 0.61102
 H1434 H 0.28749 0.89824 0.59300
 H1435 H 0.23143 0.91868 0.60803
 H1436 H 0.24586 0.94456 0.62627
 H1437 H 0.22682 0.88475 0.60666
 H1438 H 0.21092 0.86228 0.58525
 H1439 H 0.25399 0.87200 0.54265
 H1440 H 0.26979 0.89476 0.56373
 C1441 C 0.29127 0.03429 0.36338
 C1442 C 0.28458 0.04831 0.37060
 C1443 C 0.27628 0.06459 0.37979
 C1444 C 0.28790 0.07815 0.38851
 C1445 C 0.27975 0.09317 0.39869
 C1446 C 0.25985 0.09478 0.40030
 C1447 C 0.24830 0.08129 0.39111
 C1448 C 0.25647 0.06630 0.38095
 C1449 C 0.25112 0.10981 0.41231
 C1450 C 0.23423 0.11895 0.40660
 C1451 C 0.22528 0.13203 0.41862
 C1452 C 0.23311 0.13619 0.43646
 C1453 C 0.25014 0.12753 0.44207
 C1454 C 0.25911 0.11445 0.43008
 C1455 C 0.22310 0.14838 0.44952
 C1456 C 0.21454 0.15801 0.46084
 H1457 H 0.30326 0.07694 0.38772
 H1458 H 0.28901 0.10344 0.40542
 H1459 H 0.23295 0.08195 0.39231
 H1460 H 0.24734 0.05580 0.37437
 H1461 H 0.22785 0.11584 0.39291
 H1462 H 0.21207 0.13863 0.41415
 H1463 H 0.25624 0.13054 0.45591
 H1464 H 0.27194 0.10748 0.43502
 C1465 C 0.70847 0.03414 0.63609
 C1466 C 0.71499 0.04807 0.62853
 C1467 C 0.72308 0.06422 0.61891
 C1468 C 0.73861 0.07381 0.62682
 C1469 C 0.74739 0.08853 0.61673
 C1470 C 0.74076 0.09382 0.59856
 C1471 C 0.72486 0.08437 0.59094
 C1472 C 0.71611 0.06966 0.60105
 C1473 C 0.75093 0.10841 0.58713
 C1474 C 0.74078 0.12144 0.57579
 C1475 C 0.75045 0.13421 0.56398
 C1476 C 0.77036 0.13416 0.56338
 C1477 C 0.78058 0.12156 0.57493
 C1478 C 0.77096 0.10878 0.58675
 C1479 C 0.78032 0.14620 0.55013
 C1480 C 0.78883 0.15572 0.53867
 H1481 H 0.74413 0.06969 0.64063
 H1482 H 0.75946 0.09569 0.62307
 H1483 H 0.71958 0.08789 0.57688
 H1484 H 0.70418 0.06224 0.59473
 H1485 H 0.72538 0.12165 0.57594
 H1486 H 0.74240 0.14389 0.55507
 H1487 H 0.79600 0.12130 0.57448
 H1488 H 0.77918 0.09877 0.59508
 C1489 C 0.96526 0.63621 0.29020
 C1490 C 0.95125 0.62895 0.28350
 C1491 C 0.93500 0.61970 0.27522
 C1492 C 0.93327 0.61859 0.25540
 C1493 C 0.91833 0.60836 0.24724
 C1494 C 0.90491 0.59904 0.25883
 C1495 C 0.90652 0.60060 0.27876
 C1496 C 0.92148 0.61086 0.28689
 C1497 C 0.88994 0.58696 0.25013
 C1498 C 0.88547 0.56918 0.25812
 C1499 C 0.87246 0.55713 0.24917
 C1500 C 0.86371 0.56270 0.23215
 C1501 C 0.86770 0.58054 0.22432
 C1502 C 0.88072 0.59262 0.23325
 C1503 C 0.85159 0.54960 0.22216
 C1504 C 0.84202 0.53826 0.21362
 H1505 H 0.94374 0.62527 0.24624
 H1506 H 0.91767 0.60721 0.23187
 H1507 H 0.89629 0.59377 0.28805
 H1508 H 0.92270 0.61160 0.30225
 H1509 H 0.89252 0.56428 0.27094
 H1510 H 0.86958 0.54329 0.25528
 H1511 H 0.86103 0.58498 0.21113
 H1512 H 0.88370 0.60631 0.22687
 C1513 C 0.96662 0.36270 0.70919
 C1514 C 0.95254 0.36998 0.71577
 C1515 C 0.93621 0.37925 0.72393
 C1516 C 0.93420 0.38016 0.74374
 C1517 C 0.91919 0.39041 0.75181
 C1518 C 0.90599 0.39996 0.74015
 C1519 C 0.90788 0.39861 0.72023
 C1520 C 0.92292 0.38833 0.71219
 C1521 C 0.89096 0.41206 0.74879
 C1522 C 0.88670 0.42997 0.74093
 C1523 C 0.87363 0.44202 0.74985
 C1524 C 0.86460 0.43634 0.76669
 C1525 C 0.86838 0.41837 0.77437
 C1526 C 0.88146 0.40630 0.76548
 C1527 C 0.85241 0.44942 0.77666
 C1528 C 0.84277 0.46074 0.78520
 H1529 H 0.94449 0.37330 0.75297
 H1530 H 0.91830 0.39140 0.76718
 H1531 H 0.89783 0.40562 0.71088
 H1532 H 0.92436 0.38774 0.69683
 H1533 H 0.89396 0.43495 0.72827
 H1534 H 0.87091 0.45595 0.74386
 H1535 H 0.86150 0.41385 0.78743
 H1536 H 0.88427 0.39251 0.77174
 C1537 C 0.03426 0.63603 0.70909
 C1538 C 0.04832 0.62882 0.71578
 C1539 C 0.06462 0.61964 0.72411
 C1540 C 0.06651 0.61886 0.74393
 C1541 C 0.08150 0.60871 0.75217
 C1542 C 0.09482 0.59915 0.74065
 C1543 C 0.09305 0.60038 0.72071
 C1544 C 0.07803 0.61055 0.71251
 C1545 C 0.10983 0.58715 0.74947
 C1546 C 0.11421 0.56922 0.74179
 C1547 C 0.12726 0.55726 0.75088
 C1548 C 0.13614 0.56307 0.76773
 C1549 C 0.13224 0.58106 0.77524
 C1550 C 0.11919 0.59304 0.76617
 C1551 C 0.14828 0.55007 0.77789
 C1552 C 0.15786 0.53880 0.78658
 H1553 H 0.05613 0.62573 0.75305
 H1554 H 0.08229 0.60781 0.76755
 H1555 H 0.10319 0.59335 0.71148
 H1556 H 0.07669 0.61104 0.69714
 H1557 H 0.10706 0.56414 0.72913
 H1558 H 0.13006 0.54331 0.74502
 H1559 H 0.13901 0.58568 0.78830
 H1560 H 0.11628 0.60685 0.77231
 C1561 C 0.03424 0.36411 0.29027
 C1562 C 0.04826 0.37140 0.28358
 C1563 C 0.06453 0.38068 0.27533
 C1564 C 0.07806 0.38941 0.28703
 C1565 C 0.09306 0.39968 0.27893
 C1566 C 0.09469 0.40137 0.25901
 C1567 C 0.08125 0.39218 0.24739
 C1568 C 0.06627 0.38193 0.25551
 C1569 C 0.10971 0.41346 0.25036
 C1570 C 0.11894 0.40789 0.23345
 C1571 C 0.13201 0.41997 0.22457
 C1572 C 0.13607 0.43775 0.23248
 C1573 C 0.12731 0.44323 0.24952
 C1574 C 0.11424 0.43118 0.25843
 C1575 C 0.14826 0.45086 0.22255
 C1576 C 0.15789 0.46221 0.21405
 H1577 H 0.07683 0.38855 0.30239
 H1578 H 0.10330 0.40641 0.28825
 H1579 H 0.08193 0.39344 0.23203
 H1580 H 0.05580 0.37534 0.24633
 H1581 H 0.11592 0.39425 0.22702
 H1582 H 0.13869 0.41560 0.21136
 H1583 H 0.13024 0.45702 0.25569
 H1584 H 0.10719 0.43601 0.27126
   
