data_POSCAR
  _audit_creation_date              2014-09-24
  _audit_creation_method            'ToBaCCo'
  _symmetry_space_group_name_H-M    'P1'
  _symmetry_Int_Tables_number       1
  _symmetry_cell_setting            triclinic
  loop_
  _symmetry_equiv_pos_as_xyz
 x,y,z
_cell_length_a 74.2373
_cell_length_b 74.2267
_cell_length_c 74.3030
_cell_angle_alpha 90.029400
_cell_angle_beta 90.001400
_cell_angle_gamma 90.014500
loop_
  _atom_site_label
  _atom_site_type_symbol
  _atom_site_fract_x
  _atom_site_fract_y
  _atom_site_fract_z
C1 C 0.19475 0.21150 0.22010
 N2 N 0.19757 0.22275 0.20596
 C3 C 0.21164 0.21997 0.19461
 N4 N 0.22292 0.20585 0.19746
 C5 C 0.22019 0.19454 0.21157
 N6 N 0.20609 0.19742 0.22286
 C7 C 0.69457 0.71186 0.72001
 N8 N 0.69744 0.72315 0.70592
 C9 C 0.71152 0.72038 0.69458
 N10 N 0.72277 0.70623 0.69739
 C11 C 0.72000 0.69488 0.71146
 N12 N 0.70588 0.69774 0.72274
 C13 C 0.30476 0.78868 0.72028
 N14 N 0.30192 0.77740 0.70617
 C15 C 0.28786 0.78016 0.69481
 N16 N 0.27660 0.79430 0.69763
 C17 C 0.27932 0.80567 0.71171
 N18 N 0.29343 0.80279 0.72300
 C19 C 0.80567 0.28808 0.22037
 N20 N 0.80283 0.27679 0.20624
 C21 C 0.78875 0.27952 0.19490
 N22 N 0.77745 0.29363 0.19772
 C23 C 0.78018 0.30499 0.21180
 N24 N 0.79429 0.30217 0.22308
 C25 C 0.80544 0.71188 0.27962
 N26 N 0.79409 0.69778 0.27690
 C27 C 0.77998 0.69495 0.28819
 N28 N 0.77726 0.70632 0.30226
 C29 C 0.78854 0.72045 0.30507
 N30 N 0.80262 0.72318 0.29372
 C31 C 0.30522 0.21141 -0.22083
 N32 N 0.29386 0.19730 -0.22356
 C33 C 0.27971 0.19443 -0.21230
 N34 N 0.27698 0.20580 -0.19822
 C35 C 0.28825 0.21993 -0.19538
 N36 N 0.30234 0.22269 -0.20670
 C37 C 0.69487 0.28823 -0.22016
 N38 N 0.70621 0.30233 -0.22292
 C39 C 0.72036 0.30521 -0.21168
 N40 N 0.72311 0.29385 -0.19760
 C41 C 0.71184 0.27972 -0.19475
 N42 N 0.69774 0.27696 -0.20606
 C43 C 0.19505 0.78838 0.27939
 N44 N 0.19783 0.77713 0.29353
 C45 C 0.21188 0.77991 0.30491
 N46 N 0.22317 0.79403 0.30209
 C47 C 0.22050 0.80536 0.28797
 N48 N 0.20641 0.80247 0.27666
 C49 C 0.46151 0.44459 0.47035
 N50 N 0.44743 0.45595 0.47309
 C51 C 0.44460 0.47006 0.46181
 N52 N 0.45595 0.47280 0.44774
 C53 C 0.47007 0.46151 0.44491
 N54 N 0.47281 0.44742 0.45625
 C55 C -0.03821 -0.05503 0.96989
 N56 N -0.02694 -0.05219 0.95577
 C57 C -0.02970 -0.03810 0.94445
 N58 N -0.04382 -0.02682 0.94731
 C59 C -0.05517 -0.02955 0.96140
 N60 N -0.05230 -0.04369 0.97265
 C61 C 1.03797 0.55538 0.97015
 N62 N 1.02667 0.55250 0.95604
 C63 C 1.02940 0.53840 0.94471
 N64 N 1.04353 0.52712 0.94753
 C65 C 1.05489 0.52988 0.96159
 N66 N 1.05207 0.54402 0.97286
 C67 C 0.53851 0.05476 0.47035
 N68 N 0.55263 0.04345 0.47308
 C69 C 0.55554 0.02933 0.46178
 N70 N 0.54419 0.02660 0.44768
 C71 C 0.53004 0.03785 0.44486
 N72 N 0.52725 0.05191 0.45622
 C73 C -0.03860 0.05525 0.52960
 N74 N -0.05269 0.04391 0.52687
 C75 C -0.05556 0.02978 0.53814
 N76 N -0.04419 0.02706 0.55222
 C77 C -0.03005 0.03834 0.55504
 N78 N -0.02731 0.05242 0.54370
 C79 C 0.46166 0.55522 0.02975
 N80 N 0.44758 0.54387 0.02699
 C81 C 0.44474 0.52973 0.03824
 N82 N 0.45608 0.52698 0.05232
 C83 C 0.47020 0.53827 0.05517
 N84 N 0.47294 0.55238 0.04386
 C85 C 0.53836 -0.05560 0.02952
 N86 N 0.55248 -0.04425 0.02682
 C87 C 0.55536 -0.03015 0.03812
 N88 N 0.54403 -0.02741 0.05221
 C89 C 0.52988 -0.03867 0.05502
 N90 N 0.52710 -0.05273 0.04366
 C91 C 1.03782 0.44440 0.52936
 N92 N 1.02655 0.44724 0.54349
 C93 C 1.02930 0.46131 0.55486
 N94 N 1.04342 0.47260 0.55204
 C95 C 1.05475 0.46988 0.53796
 N96 N 1.05191 0.45578 0.52666
 C97 C 0.40294 0.00780 0.22608
 H98 H 0.40397 0.01980 0.23429
 C99 C 0.41469 0.00529 0.21162
 H100 H 0.42470 0.01551 0.20877
 C101 C 0.38873 -0.02015 0.22010
 H102 H 0.37878 -0.03017 0.22359
 C103 C 0.40017 -0.02319 0.20549
 H104 H 0.39874 -0.03552 0.19784
 N105 N 0.39017 -0.00475 0.22992
 C106 C 0.34721 0.02352 0.25829
 H107 H 0.34619 0.01533 0.27029
 C108 C 0.33547 0.03799 0.25578
 H109 H 0.32548 0.04087 0.26600
 C110 C 0.36140 0.02943 0.23036
 H111 H 0.37133 0.02591 0.22034
 C112 C 0.34996 0.04405 0.22730
 H113 H 0.35138 0.05168 0.21497
 Zn114 Zn 0.37506 -0.00048 0.25001
 N115 N 0.35997 0.01963 0.24575
 C116 C 0.38876 0.01918 0.27991
 N117 N 0.39017 0.00377 0.27010
 C118 C 0.40293 -0.00879 0.27395
 C119 C 0.41469 -0.00628 0.28840
 C120 C 0.40022 0.02223 0.29451
 C121 C 0.34716 -0.02443 0.24171
 C122 C 0.33539 -0.03889 0.24421
 C123 C 0.34990 -0.04502 0.27266
 C124 C 0.36136 -0.03041 0.26963
 N125 N 0.35994 -0.02058 0.25425
 H126 H 0.37883 0.02921 0.27641
 H127 H 0.40394 -0.02079 0.26575
 H128 H 0.42468 -0.01651 0.29126
 H129 H 0.39881 0.03457 0.30215
 H130 H 0.34614 -0.01621 0.22973
 H131 H 0.32539 -0.04173 0.23400
 H132 H 0.35132 -0.05268 0.28497
 H133 H 0.37131 -0.02692 0.27964
 C134 C 0.33678 0.04852 0.24013
 C135 C 0.41337 -0.01036 0.20106
 C136 C 0.33670 -0.04945 0.25984
 C137 C 0.41339 0.00939 0.29895
 C138 C 0.09734 -0.00813 0.72571
 H139 H 0.09632 -0.02012 0.73392
 C140 C 0.08556 -0.00563 0.71127
 H141 H 0.07555 -0.01586 0.70845
 C142 C 0.11155 0.01981 0.71971
 H143 H 0.12150 0.02983 0.72319
 C144 C 0.10007 0.02284 0.70513
 H145 H 0.10149 0.03517 0.69747
 N146 N 0.11012 0.00442 0.72953
 C147 C 0.15313 -0.02376 0.75788
 H148 H 0.15418 -0.01552 0.76986
 C149 C 0.16487 -0.03824 0.75538
 H150 H 0.17488 -0.04108 0.76559
 C151 C 0.13888 -0.02979 0.72999
 H152 H 0.12892 -0.02630 0.71999
 C153 C 0.15031 -0.04442 0.72696
 H154 H 0.14886 -0.05210 0.71466
 Zn155 Zn 0.12525 0.00019 0.74961
 N156 N 0.14034 -0.01993 0.74536
 C157 C 0.11158 -0.01945 0.77953
 N158 N 0.11015 -0.00405 0.76971
 C159 C 0.09738 0.00850 0.77357
 C160 C 0.08563 0.00600 0.78802
 C161 C 0.10014 -0.02248 0.79413
 C162 C 0.15314 0.02413 0.74130
 C163 C 0.16490 0.03860 0.74380
 C164 C 0.15039 0.04476 0.77225
 C165 C 0.13894 0.03015 0.76922
 N166 N 0.14036 0.02030 0.75384
 H167 H 0.12152 -0.02947 0.77603
 H168 H 0.09636 0.02049 0.76536
 H169 H 0.07564 0.01622 0.79088
 H170 H 0.10156 -0.03481 0.80178
 H171 H 0.15416 0.01591 0.72932
 H172 H 0.17491 0.04144 0.73359
 H173 H 0.14897 0.05244 0.78456
 H174 H 0.12899 0.02666 0.77923
 C175 C 0.16352 -0.04884 0.73977
 C176 C 0.08687 0.01001 0.70072
 C177 C 0.16359 0.04918 0.75943
 C178 C 0.08695 -0.00965 0.79857
 C179 C 0.59716 0.49155 0.22609
 H180 H 0.59614 0.47953 0.23427
 C181 C 0.58542 0.49407 0.21163
 H182 H 0.57543 0.48383 0.20874
 C183 C 0.61134 0.51953 0.22021
 H184 H 0.62126 0.52956 0.22375
 C185 C 0.59990 0.52259 0.20561
 H186 H 0.60131 0.53494 0.19800
 N187 N 0.60991 0.50411 0.22999
 C188 C 0.65288 0.47588 0.25836
 H189 H 0.65388 0.48408 0.27036
 C190 C 0.66465 0.46142 0.25585
 H191 H 0.67463 0.45856 0.26607
 C192 C 0.63872 0.46992 0.23041
 H193 H 0.62879 0.47343 0.22039
 C194 C 0.65018 0.45532 0.22736
 H195 H 0.64878 0.44768 0.21503
 Zn196 Zn 0.62501 0.49984 0.25008
 N197 N 0.64013 0.47973 0.24581
 C198 C 0.61132 0.48015 0.27994
 N199 N 0.60990 0.49556 0.27016
 C200 C 0.59715 0.50812 0.27404
 C201 C 0.58540 0.50560 0.28849
 C202 C 0.59987 0.47709 0.29454
 C203 C 0.65289 0.52380 0.24181
 C204 C 0.66464 0.53827 0.24432
 C205 C 0.65016 0.54438 0.27279
 C206 C 0.63871 0.52976 0.26975
 N207 N 0.64012 0.51994 0.25435
 H208 H 0.62124 0.47012 0.27642
 H209 H 0.59614 0.52013 0.26586
 H210 H 0.57541 0.51583 0.29137
 H211 H 0.60128 0.46475 0.30216
 H212 H 0.65390 0.51560 0.22981
 H213 H 0.67463 0.54113 0.23410
 H214 H 0.64875 0.55203 0.28512
 H215 H 0.62877 0.52625 0.27976
 C216 C 0.66336 0.45087 0.24019
 C217 C 0.58673 0.50974 0.20112
 C218 C 0.66334 0.54883 0.25996
 C219 C 0.58670 0.48993 0.29901
 C220 C 0.90241 0.50782 0.72592
 H221 H 0.90343 0.51984 0.73410
 C222 C 0.91415 0.50529 0.71146
 H223 H 0.92415 0.51552 0.70859
 C224 C 0.88821 0.47985 0.72000
 H225 H 0.87827 0.46984 0.72351
 C226 C 0.89966 0.47679 0.70540
 H227 H 0.89823 0.46444 0.69776
 N228 N 0.88964 0.49527 0.72979
 C229 C 0.84665 0.52357 0.75809
 H230 H 0.84562 0.51539 0.77009
 C231 C 0.83491 0.53804 0.75555
 H232 H 0.82492 0.54093 0.76576
 C233 C 0.86085 0.52944 0.73015
 H234 H 0.87079 0.52591 0.72015
 C235 C 0.84942 0.54406 0.72707
 H236 H 0.85085 0.55168 0.71474
 Zn237 Zn 0.87453 0.49958 0.74987
 N238 N 0.85942 0.51967 0.74556
 C239 C 0.88819 0.51934 0.77972
 N240 N 0.88963 0.50391 0.76995
 C241 C 0.90240 0.49138 0.77384
 C242 C 0.91415 0.49394 0.78830
 C243 C 0.89963 0.52244 0.79432
 C244 C 0.84665 0.47558 0.74164
 C245 C 0.83491 0.46110 0.74418
 C246 C 0.84944 0.45506 0.77263
 C247 C 0.86088 0.46968 0.76956
 N248 N 0.85943 0.47947 0.75417
 H249 H 0.87825 0.52935 0.77619
 H250 H 0.90344 0.47936 0.76567
 H251 H 0.92415 0.48373 0.79118
 H252 H 0.89820 0.53479 0.80194
 H253 H 0.84561 0.48376 0.72964
 H254 H 0.82490 0.45822 0.73398
 H255 H 0.85088 0.44742 0.78496
 H256 H 0.87083 0.47321 0.77956
 C257 C 0.83624 0.54856 0.73988
 C258 C 0.91284 0.48962 0.70093
 C259 C 0.83625 0.45057 0.75983
 C260 C 0.91282 0.50963 0.79880
 C261 C 0.22580 0.40260 0.00797
 H262 H 0.23400 0.40360 0.01997
 C263 C 0.21135 0.41437 0.00548
 H264 H 0.20849 0.42435 0.01572
 C265 C 0.21985 0.38846 -0.02000
 H266 H 0.22336 0.37854 -0.03003
 C267 C 0.20525 0.39993 -0.02302
 H268 H 0.19761 0.39854 -0.03535
 N269 N 0.22966 0.38986 -0.00460
 C270 C 0.25804 0.34684 0.02354
 H271 H 0.27005 0.34583 0.01535
 C272 C 0.25553 0.33507 0.03799
 H273 H 0.26576 0.32508 0.04084
 C274 C 0.23008 0.36101 0.02950
 H275 H 0.22006 0.37094 0.02600
 C276 C 0.22703 0.34955 0.04409
 H277 H 0.21470 0.35096 0.05173
 Zn278 Zn 0.24976 0.37474 -0.00036
 N279 N 0.24548 0.35960 0.01970
 C280 C 0.27967 0.38840 0.01933
 N281 N 0.26986 0.38984 0.00394
 C282 C 0.27373 0.40262 -0.00858
 C283 C 0.28820 0.41438 -0.00605
 C284 C 0.29427 0.39986 0.02240
 C285 C 0.24147 0.34690 -0.02438
 C286 C 0.24399 0.33517 -0.03885
 C287 C 0.27250 0.34966 -0.04488
 C288 C 0.26945 0.36109 -0.03026
 N289 N 0.25403 0.35966 -0.02048
 H290 H 0.27615 0.37846 0.02933
 H291 H 0.26554 0.40365 -0.02058
 H292 H 0.29107 0.42438 -0.01625
 H293 H 0.30191 0.39843 0.03473
 H294 H 0.22946 0.34588 -0.01620
 H295 H 0.23376 0.32518 -0.04175
 H296 H 0.28485 0.35108 -0.05250
 H297 H 0.27947 0.37102 -0.02672
 C298 C 0.23987 0.33637 0.04853
 C299 C 0.20080 0.41310 -0.01017
 C300 C 0.25967 0.33649 -0.04937
 C301 C 0.29874 0.41305 0.00960
 C302 C 0.72655 0.09677 -0.00842
 H303 H 0.73474 0.09576 -0.02042
 C304 C 0.71208 0.08502 -0.00590
 H305 H 0.70920 0.07503 -0.01613
 C306 C 0.72066 0.11094 0.01955
 H307 H 0.72419 0.12087 0.02957
 C308 C 0.70605 0.09949 0.02260
 H309 H 0.69842 0.10090 0.03494
 N310 N 0.73044 0.10953 0.00414
 C311 C 0.73082 0.13835 -0.02998
 H312 H 0.72081 0.12840 -0.02647
 C313 C 0.72775 0.14981 -0.04456
 H314 H 0.71540 0.14839 -0.05218
 C315 C 0.75878 0.15255 -0.02406
 H316 H 0.77080 0.15357 -0.01588
 C317 C 0.75624 0.16432 -0.03850
 H318 H 0.76646 0.17432 -0.04136
 Zn319 Zn 0.75054 0.12465 -0.00014
 N320 N 0.74624 0.13977 -0.02020
 C321 C 0.78046 0.11101 -0.01983
 N322 N 0.77065 0.10955 -0.00444
 C323 C 0.77452 0.09677 0.00807
 C324 C 0.78898 0.08503 0.00553
 C325 C 0.79507 0.09958 -0.02290
 C326 C 0.74227 0.15251 0.02384
 C327 C 0.74479 0.16425 0.03831
 C328 C 0.77328 0.14976 0.04437
 C329 C 0.77023 0.13832 0.02976
 N330 N 0.75482 0.13975 0.01996
 H331 H 0.77694 0.12097 -0.02982
 H332 H 0.76632 0.09573 0.02007
 H333 H 0.79185 0.07502 0.01573
 H334 H 0.80272 0.10102 -0.03522
 H335 H 0.73026 0.15353 0.01565
 H336 H 0.73456 0.17424 0.04119
 H337 H 0.78562 0.14834 0.05201
 H338 H 0.78025 0.12839 0.02624
 C339 C 0.74057 0.16301 -0.04901
 C340 C 0.70156 0.08632 0.00977
 C341 C 0.76045 0.16294 0.04884
 C342 C 0.79953 0.08637 -0.01011
 C343 C 0.22567 0.59724 0.49158
 H344 H 0.23388 0.59624 0.47959
 C345 C 0.21121 0.58547 0.49407
 H346 H 0.20836 0.57548 0.48383
 C347 C 0.21970 0.61141 0.51953
 H348 H 0.22321 0.62134 0.52956
 C349 C 0.20510 0.59994 0.52255
 H350 H 0.19744 0.60134 0.53488
 N351 N 0.22952 0.61000 0.50414
 C352 C 0.23001 0.63881 0.47001
 H353 H 0.21998 0.62888 0.47350
 C354 C 0.22700 0.65026 0.45541
 H355 H 0.21467 0.64885 0.44775
 C356 C 0.25798 0.65298 0.47600
 H357 H 0.26997 0.65399 0.48421
 C358 C 0.25549 0.66474 0.46154
 H359 H 0.26574 0.67473 0.45870
 Zn360 Zn 0.24964 0.62511 0.49992
 N361 N 0.24541 0.64023 0.47983
 C362 C 0.27957 0.61141 0.48029
 N363 N 0.26974 0.61000 0.49567
 C364 C 0.27359 0.59724 0.50822
 C365 C 0.28805 0.58548 0.50572
 C366 C 0.29418 0.59996 0.47726
 C367 C 0.24132 0.65298 0.52388
 C368 C 0.24382 0.66474 0.53834
 C369 C 0.27232 0.65026 0.54444
 C370 C 0.26928 0.63880 0.52983
 N371 N 0.25388 0.64022 0.52002
 H372 H 0.27607 0.62135 0.47028
 H373 H 0.26537 0.59623 0.52020
 H374 H 0.29090 0.57549 0.51594
 H375 H 0.30184 0.60137 0.46494
 H376 H 0.22932 0.65399 0.51568
 H377 H 0.23359 0.67473 0.54120
 H378 H 0.28465 0.64885 0.55208
 H379 H 0.27931 0.62887 0.52632
 C380 C 0.23985 0.66344 0.45098
 C381 C 0.20065 0.58676 0.50971
 C382 C 0.25948 0.66344 0.54889
 C383 C 0.29862 0.58678 0.49009
 C384 C 0.72613 0.90332 0.50819
 H385 H 0.73433 0.90437 0.52018
 C386 C 0.71165 0.91505 0.50566
 H387 H 0.70877 0.92506 0.51587
 C388 C 0.72019 0.88908 0.48027
 H389 H 0.72371 0.87913 0.47027
 C390 C 0.70556 0.90050 0.47721
 H391 H 0.69792 0.89905 0.46489
 N392 N 0.73001 0.89054 0.49566
 C393 C 0.75838 0.84757 0.52388
 H394 H 0.77039 0.84655 0.51569
 C395 C 0.75585 0.83581 0.53832
 H396 H 0.76607 0.82581 0.54118
 C397 C 0.73043 0.86177 0.52981
 H398 H 0.72041 0.87171 0.52630
 C399 C 0.72736 0.85031 0.54440
 H400 H 0.71502 0.85173 0.55203
 Zn401 Zn 0.75012 0.87545 0.49994
 N402 N 0.74584 0.86034 0.52002
 C403 C 0.78003 0.88914 0.51961
 N404 N 0.77021 0.89058 0.50423
 C405 C 0.77407 0.90336 0.49171
 C406 C 0.78853 0.91512 0.49424
 C407 C 0.79465 0.90059 0.52267
 C408 C 0.74188 0.84755 0.47599
 C409 C 0.74442 0.83580 0.46153
 C410 C 0.77289 0.85034 0.45545
 C411 C 0.76982 0.86179 0.47005
 N412 N 0.75442 0.86034 0.47985
 H413 H 0.77653 0.87918 0.52960
 H414 H 0.76586 0.90440 0.47972
 H415 H 0.79139 0.92514 0.48404
 H416 H 0.80230 0.89915 0.53499
 H417 H 0.72988 0.84651 0.48418
 H418 H 0.73421 0.82579 0.45866
 H419 H 0.78522 0.85178 0.44781
 H420 H 0.77982 0.87175 0.47356
 C421 C 0.74018 0.83712 0.54885
 C422 C 0.70109 0.91370 0.49002
 C423 C 0.76008 0.83714 0.45099
 C424 C 0.79909 0.91379 0.50987
 C425 C 0.00800 0.22633 0.40272
 H426 H 0.02000 0.23454 0.40376
 C427 C 0.00548 0.21186 0.41446
 H428 H 0.01569 0.20902 0.42446
 C429 C -0.01992 0.22033 0.38848
 H430 H -0.02992 0.22382 0.37853
 C431 C -0.02298 0.20572 0.39992
 H432 H -0.03530 0.19806 0.39848
 N433 N -0.00453 0.23017 0.38994
 C434 C 0.02377 0.25852 0.34702
 H435 H 0.01557 0.27052 0.34598
 C436 C 0.03825 0.25598 0.33529
 H437 H 0.04113 0.26619 0.32530
 C438 C 0.02969 0.23058 0.36123
 H439 H 0.02616 0.22057 0.37116
 C440 C 0.04431 0.22751 0.34981
 H441 H 0.05195 0.21517 0.35125
 Zn442 Zn -0.00024 0.25026 0.37484
 N443 N 0.01988 0.24598 0.35978
 C444 C 0.01938 0.28023 0.38851
 N445 N 0.00399 0.27039 0.38994
 C446 C -0.00856 0.27422 0.40269
 C447 C -0.00607 0.28869 0.41445
 C448 C 0.02240 0.29485 0.39996
 C449 C -0.02414 0.24194 0.34694
 C450 C -0.03859 0.24443 0.33517
 C451 C -0.04478 0.27290 0.34969
 C452 C -0.03018 0.26988 0.36115
 N453 N -0.02033 0.25450 0.35972
 H454 H 0.02940 0.27674 0.37857
 H455 H -0.02055 0.26600 0.40371
 H456 H -0.01629 0.29153 0.42444
 H457 H 0.03473 0.30252 0.39854
 H458 H -0.01591 0.22996 0.34592
 H459 H -0.04142 0.23420 0.32517
 H460 H -0.05246 0.28521 0.35111
 H461 H -0.02671 0.27990 0.37110
 C462 C 0.04879 0.24032 0.33663
 C463 C -0.01017 0.20129 0.41311
 C464 C -0.04918 0.26006 0.33649
 C465 C 0.00957 0.29927 0.41314
 C466 C -0.00816 0.72580 0.09656
 H467 H -0.02015 0.73403 0.09555
 C468 C -0.00568 0.71132 0.08481
 H469 H -0.01592 0.70847 0.07483
 C470 C 0.01980 0.71982 0.11071
 H471 H 0.02984 0.72332 0.12063
 C472 C 0.02281 0.70519 0.09927
 H473 H 0.03513 0.69752 0.10068
 N474 N 0.00442 0.72966 0.10930
 C475 C -0.02368 0.75812 0.15229
 H476 H -0.01546 0.77011 0.15329
 C477 C -0.03813 0.75564 0.16407
 H478 H -0.04095 0.76588 0.17406
 C479 C -0.02972 0.73016 0.13813
 H480 H -0.02625 0.72013 0.12819
 C481 C -0.04431 0.72714 0.14961
 H482 H -0.05198 0.71482 0.14821
 Zn483 Zn 0.00020 0.74978 0.12439
 N484 N -0.01987 0.74555 0.13953
 C485 C -0.01947 0.77970 0.11076
 N486 N -0.00407 0.76988 0.10930
 C487 C 0.00846 0.77375 0.09653
 C488 C 0.00593 0.78822 0.08481
 C489 C -0.02253 0.79432 0.09934
 C490 C 0.02421 0.74150 0.15220
 C491 C 0.03869 0.74402 0.16393
 C492 C 0.04478 0.77251 0.14944
 C493 C 0.03016 0.76945 0.13801
 N494 N 0.02034 0.75405 0.13945
 H495 H -0.02948 0.77619 0.12070
 H496 H 0.02046 0.76554 0.09549
 H497 H 0.01615 0.79109 0.07481
 H498 H -0.03486 0.80197 0.10078
 H499 H 0.01600 0.72950 0.15324
 H500 H 0.04155 0.73381 0.17392
 H501 H 0.05243 0.78484 0.14801
 H502 H 0.02665 0.77946 0.12808
 C503 C -0.04871 0.73999 0.16279
 C504 C 0.00996 0.70075 0.08611
 C505 C 0.04924 0.75968 0.16261
 C506 C -0.00972 0.79878 0.08615
 C507 C 0.49145 0.22568 0.59741
 H508 H 0.47944 0.23387 0.59637
 C509 C 0.49400 0.21121 0.58567
 H510 H 0.48379 0.20833 0.57567
 C511 C 0.51940 0.21978 0.61162
 H512 H 0.52940 0.22331 0.62156
 C513 C 0.52248 0.20517 0.60019
 H514 H 0.53482 0.19754 0.60162
 N515 N 0.50398 0.22957 0.61018
 C516 C 0.47567 0.25795 0.65309
 H517 H 0.48387 0.26996 0.65413
 C518 C 0.46118 0.25543 0.66481
 H519 H 0.45831 0.26565 0.67480
 C520 C 0.46974 0.22999 0.63888
 H521 H 0.47327 0.21998 0.62895
 C522 C 0.45511 0.22694 0.65029
 H523 H 0.44746 0.21460 0.64885
 Zn524 Zn 0.49967 0.24968 0.62527
 N525 N 0.47955 0.24540 0.64033
 C526 C 0.48000 0.27958 0.61156
 N527 N 0.49541 0.26977 0.61016
 C528 C 0.50797 0.27363 0.59741
 C529 C 0.50547 0.28809 0.58566
 C530 C 0.47696 0.29418 0.60012
 C531 C 0.52364 0.24145 0.65314
 C532 C 0.53810 0.24399 0.66488
 C533 C 0.54416 0.27248 0.65039
 C534 C 0.52955 0.26941 0.63896
 N535 N 0.51976 0.25399 0.64038
 H536 H 0.46997 0.27608 0.62149
 H537 H 0.51998 0.26543 0.59641
 H538 H 0.51570 0.29094 0.57569
 H539 H 0.46462 0.30183 0.60152
 H540 H 0.51545 0.22943 0.65416
 H541 H 0.54098 0.23377 0.67486
 H542 H 0.55180 0.28483 0.64897
 H543 H 0.52603 0.27942 0.62903
 C544 C 0.45064 0.23977 0.66347
 C545 C 0.50967 0.20069 0.58700
 C546 C 0.54864 0.25966 0.66356
 C547 C 0.48980 0.29863 0.58695
 C548 C 0.50810 0.72637 0.90288
 H549 H 0.52010 0.73457 0.90389
 C550 C 0.50560 0.71190 0.91463
 H551 H 0.51584 0.70904 0.92459
 C552 C 0.48011 0.72042 0.88875
 H553 H 0.47008 0.72393 0.87884
 C554 C 0.47708 0.70580 0.90019
 H555 H 0.46474 0.69816 0.89879
 N556 N 0.49552 0.73023 0.89015
 C557 C 0.52370 0.75861 0.84718
 H558 H 0.51551 0.77062 0.84617
 C559 C 0.53815 0.75609 0.83541
 H560 H 0.54101 0.76632 0.82543
 C561 C 0.52965 0.73065 0.86133
 H562 H 0.52615 0.72063 0.87126
 C563 C 0.54425 0.72759 0.84987
 H564 H 0.55189 0.71525 0.85127
 Zn565 Zn 0.49977 0.75034 0.87506
 N566 N 0.51985 0.74606 0.85993
 C567 C 0.51946 0.78027 0.88870
 N568 N 0.50406 0.77045 0.89015
 C569 C 0.49154 0.77430 0.90294
 C570 C 0.49408 0.78876 0.91469
 C571 C 0.52253 0.79488 0.90014
 C572 C 0.47576 0.74204 0.84724
 C573 C 0.46128 0.74455 0.83552
 C574 C 0.45521 0.77305 0.85001
 C575 C 0.46984 0.77000 0.86144
 N576 N 0.47964 0.75460 0.85999
 H577 H 0.52946 0.77677 0.87874
 H578 H 0.47954 0.76609 0.90397
 H579 H 0.48387 0.79161 0.92470
 H580 H 0.53486 0.80254 0.89870
 H581 H 0.48396 0.73003 0.84621
 H582 H 0.45841 0.73432 0.82553
 H583 H 0.44757 0.78539 0.85144
 H584 H 0.47336 0.78003 0.87136
 C585 C 0.54869 0.74043 0.83670
 C586 C 0.48994 0.70135 0.91334
 C587 C 0.45074 0.76021 0.83684
 C588 C 0.50973 0.79932 0.91335
 C589 C 0.15132 0.22018 0.25489
 N590 N 0.15452 0.23162 0.24100
 N591 N 0.16835 0.22885 0.22992
 C592 C 0.17950 0.21456 0.23233
 N593 N 0.17630 0.20313 0.24623
 N594 N 0.16246 0.20588 0.25730
 C595 C 0.13605 0.22321 0.26710
 N596 N 0.13258 0.21152 0.28071
 N597 N 0.11872 0.21425 0.29177
 C598 C 0.10783 0.22879 0.28963
 N599 N 0.11130 0.24049 0.27602
 N600 N 0.12516 0.23774 0.26495
 C601 C 0.09254 0.23179 0.30181
 N602 N 0.08190 0.24654 0.29995
 N603 N 0.06803 0.24925 0.31100
 C604 C 0.06424 0.23732 0.32434
 N605 N 0.07492 0.22256 0.32616
 N606 N 0.08880 0.21985 0.31512
 C607 C 0.65113 0.72047 0.75481
 N608 N 0.66226 0.70615 0.75717
 N609 N 0.67611 0.70341 0.74609
 C610 C 0.67932 0.71489 0.73224
 N611 N 0.66819 0.72921 0.72987
 N612 N 0.65436 0.73195 0.74096
 C613 C 0.63587 0.72347 0.76702
 N614 N 0.62499 0.73802 0.76493
 N615 N 0.61114 0.74073 0.77601
 C616 C 0.60766 0.72899 0.78958
 N617 N 0.61854 0.71444 0.79167
 N618 N 0.63240 0.71174 0.78060
 C619 C 0.59239 0.73197 0.80179
 N620 N 0.58866 0.72000 0.81507
 N621 N 0.57479 0.72268 0.82614
 C622 C 0.56412 0.73745 0.82437
 N623 N 0.56790 0.74941 0.81106
 N624 N 0.58176 0.74673 0.79998
 C625 C 0.34818 0.78010 0.75510
 N626 N 0.34497 0.76862 0.74123
 N627 N 0.33114 0.77135 0.73014
 C628 C 0.32000 0.78566 0.73252
 N629 N 0.32320 0.79713 0.74639
 N630 N 0.33704 0.79441 0.75747
 C631 C 0.36345 0.77711 0.76730
 N632 N 0.36692 0.78884 0.78089
 N633 N 0.38079 0.78614 0.79195
 C634 C 0.39168 0.77160 0.78984
 N635 N 0.38820 0.75986 0.77626
 N636 N 0.37434 0.76257 0.76519
 C637 C 0.40697 0.76864 0.80202
 N638 N 0.41761 0.75389 0.80018
 N639 N 0.43148 0.75121 0.81124
 C640 C 0.43529 0.76318 0.82455
 N641 N 0.42460 0.77794 0.82635
 N642 N 0.41072 0.78061 0.81531
 C643 C -0.15165 0.27975 0.25458
 N644 N -0.15467 0.26841 0.24056
 N645 N -0.16851 0.27111 0.22946
 C646 C -0.17986 0.28525 0.23198
 N647 N -0.17682 0.29657 0.24602
 N648 N -0.16297 0.29388 0.25711
 C649 C -0.13638 0.27679 0.26680
 N650 N -0.13307 0.28842 0.28051
 N651 N -0.11921 0.28575 0.29159
 C652 C -0.10817 0.27134 0.28936
 N653 N -0.11149 0.25970 0.27565
 N654 N -0.12534 0.26238 0.26457
 C655 C -0.09289 0.26841 0.30157
 N656 N -0.08213 0.25375 0.29966
 N657 N -0.06828 0.25110 0.31075
 C658 C -0.06461 0.26300 0.32416
 N659 N -0.07541 0.27767 0.32602
 N660 N -0.08928 0.28032 0.31496
 C661 C -0.15113 0.72035 0.24478
 N662 N -0.16230 0.70606 0.24242
 N663 N -0.17614 0.70337 0.25352
 C664 C -0.17931 0.71486 0.26738
 N665 N -0.16813 0.72916 0.26973
 N666 N -0.15430 0.73186 0.25863
 C667 C -0.13587 0.72331 0.23255
 N668 N -0.12494 0.73783 0.23463
 N669 N -0.11109 0.74050 0.22353
 C670 C -0.10766 0.72874 0.20996
 N671 N -0.11859 0.71422 0.20788
 N672 N -0.13244 0.71155 0.21897
 C673 C -0.09239 0.73167 0.19774
 N674 N -0.08871 0.71967 0.18445
 N675 N -0.07485 0.72232 0.17337
 C676 C -0.06413 0.73706 0.17513
 N677 N -0.06787 0.74905 0.18844
 N678 N -0.08172 0.74640 0.19954
 C679 C 0.34795 0.21984 0.74506
 N680 N 0.34489 0.23116 0.75908
 N681 N 0.33103 0.22843 0.77014
 C682 C 0.31970 0.21427 0.76760
 N683 N 0.32278 0.20296 0.75355
 N684 N 0.33665 0.20568 0.74250
 C685 C 0.36325 0.22283 0.73288
 N686 N 0.36662 0.21121 0.71917
 N687 N 0.38050 0.21391 0.70814
 C688 C 0.39152 0.22834 0.71040
 N689 N 0.38814 0.23997 0.72410
 N690 N 0.37426 0.23726 0.73515
 C691 C 0.40683 0.23131 0.69824
 N692 N 0.41755 0.24600 0.70018
 N693 N 0.43144 0.24868 0.68915
 C694 C 0.43517 0.23679 0.67575
 N695 N 0.42440 0.22210 0.67385
 N696 N 0.41050 0.21942 0.68486
 C697 C 0.65133 0.27964 0.74515
 N698 N 0.65457 0.26817 0.75900
 N699 N 0.66844 0.27090 0.77005
 C700 C 0.67959 0.28520 0.76765
 N701 N 0.67636 0.29667 0.75378
 N702 N 0.66248 0.29394 0.74274
 C703 C 0.63603 0.27664 0.73298
 N704 N 0.63253 0.28836 0.71940
 N705 N 0.61864 0.28566 0.70838
 C706 C 0.60775 0.27112 0.71051
 N707 N 0.61125 0.25939 0.72408
 N708 N 0.62513 0.26210 0.73512
 C709 C 0.59243 0.26814 0.69835
 N710 N 0.58179 0.25339 0.70020
 N711 N 0.56791 0.25070 0.68916
 C712 C 0.56409 0.26265 0.67585
 N713 N 0.57478 0.27741 0.67404
 N714 N 0.58867 0.28010 0.68507
 C715 C 0.15168 0.77973 0.24450
 N716 N 0.15485 0.76829 0.25839
 N717 N 0.16866 0.77104 0.26951
 C718 C 0.17983 0.78534 0.26713
 N719 N 0.17667 0.79677 0.25323
 N720 N 0.16284 0.79403 0.24212
 C721 C 0.13644 0.77671 0.23227
 N722 N 0.13300 0.78841 0.21865
 N723 N 0.11915 0.78569 0.20757
 C724 C 0.10824 0.77116 0.20969
 N725 N 0.11169 0.75945 0.22329
 N726 N 0.12553 0.76219 0.23438
 C727 C 0.09297 0.76817 0.19748
 N728 N 0.08232 0.75343 0.19932
 N729 N 0.06846 0.75073 0.18825
 C730 C 0.06468 0.76267 0.17492
 N731 N 0.07538 0.77742 0.17312
 N732 N 0.08925 0.78012 0.18417
 C733 C 0.25498 0.15108 0.22017
 N734 N 0.24113 0.15432 0.23165
 N735 N 0.23004 0.16816 0.22891
 C736 C 0.23242 0.17928 0.21460
 N737 N 0.24628 0.17605 0.20313
 N738 N 0.25736 0.16220 0.20586
 C739 C 0.26719 0.13580 0.22317
 N740 N 0.28078 0.13231 0.21145
 N741 N 0.29184 0.11844 0.21416
 C742 C 0.28973 0.10757 0.22870
 N743 N 0.27615 0.11107 0.24043
 N744 N 0.26508 0.12493 0.23771
 C745 C 0.30192 0.09228 0.23167
 N746 N 0.30009 0.08166 0.24642
 N747 N 0.31116 0.06779 0.24911
 C748 C 0.32448 0.06397 0.23715
 N749 N 0.32626 0.07464 0.22239
 N750 N 0.31522 0.08852 0.21971
 C751 C 0.75467 0.65130 0.71997
 N752 N 0.75709 0.66245 0.70569
 N753 N 0.74605 0.67634 0.70299
 C754 C 0.73218 0.67958 0.71445
 N755 N 0.72976 0.66842 0.72872
 N756 N 0.74081 0.65454 0.73144
 C757 C 0.76684 0.63599 0.72295
 N758 N 0.76468 0.62509 0.73747
 N759 N 0.77572 0.61120 0.74017
 C760 C 0.78930 0.60769 0.72845
 N761 N 0.79145 0.61858 0.71393
 N762 N 0.78043 0.63248 0.71123
 C763 C 0.80146 0.59237 0.73142
 N764 N 0.81475 0.58859 0.71946
 N765 N 0.82577 0.57469 0.72215
 C766 C 0.82395 0.56402 0.73690
 N767 N 0.81063 0.56785 0.74884
 N768 N 0.79959 0.58174 0.74615
 C769 C 0.75451 0.34794 0.77987
 N770 N 0.75708 0.33665 0.79399
 N771 N 0.74602 0.32278 0.79673
 C772 C 0.73195 0.31970 0.78545
 N773 N 0.72939 0.33102 0.77132
 N774 N 0.74046 0.34488 0.76857
 C775 C 0.76671 0.36323 0.77686
 N776 N 0.76443 0.37424 0.76245
 N777 N 0.77550 0.38811 0.75972
 C778 C 0.78923 0.39149 0.77132
 N779 N 0.79149 0.38049 0.78573
 N780 N 0.78044 0.36661 0.78844
 C781 C 0.80141 0.40679 0.76833
 N782 N 0.81481 0.41047 0.78020
 N783 N 0.82585 0.42436 0.77750
 C784 C 0.82395 0.43512 0.76283
 N785 N 0.81052 0.43138 0.75096
 N786 N 0.79946 0.41751 0.75366
 C787 C 0.25474 -0.15195 0.27962
 N788 N 0.24074 -0.15502 0.26826
 N789 N 0.22964 -0.16886 0.27097
 C790 C 0.23212 -0.18017 0.28513
 N791 N 0.24614 -0.17708 0.29648
 N792 N 0.25723 -0.16323 0.29378
 C793 C 0.26697 -0.13668 0.27665
 N794 N 0.28066 -0.13332 0.28828
 N795 N 0.29174 -0.11946 0.28560
 C796 C 0.28955 -0.10846 0.27118
 N797 N 0.27586 -0.11182 0.25953
 N798 N 0.26477 -0.12568 0.26222
 C799 C 0.30177 -0.09318 0.26823
 N800 N 0.29988 -0.08246 0.25356
 N801 N 0.31097 -0.06860 0.25090
 C802 C 0.32437 -0.06489 0.26280
 N803 N 0.32621 -0.07565 0.27747
 N804 N 0.31514 -0.08952 0.28014
 C805 C 0.24520 -0.15155 0.72004
 N806 N 0.25921 -0.15461 0.73138
 N807 N 0.27027 -0.16848 0.72868
 C808 C 0.26774 -0.17983 0.71454
 N809 N 0.25370 -0.17675 0.70322
 N810 N 0.24265 -0.16287 0.70591
 C811 C 0.23301 -0.13625 0.72301
 N812 N 0.21931 -0.13290 0.71139
 N813 N 0.20826 -0.11900 0.71406
 C814 C 0.21051 -0.10796 0.72846
 N815 N 0.22421 -0.11132 0.74009
 N816 N 0.23527 -0.12520 0.73740
 C817 C 0.19834 -0.09265 0.73140
 N818 N 0.20028 -0.08189 0.74604
 N819 N 0.18922 -0.06800 0.74870
 C820 C 0.17581 -0.06430 0.73682
 N821 N 0.17392 -0.07510 0.72216
 N822 N 0.18495 -0.08900 0.71951
 C823 C 0.74533 0.34843 0.22032
 N824 N 0.75920 0.34524 0.23180
 N825 N 0.77030 0.33141 0.22908
 C826 C 0.76794 0.32024 0.21480
 N827 N 0.75406 0.32342 0.20333
 N828 N 0.74297 0.33727 0.20603
 C829 C 0.73310 0.36369 0.22331
 N830 N 0.71951 0.36714 0.21158
 N831 N 0.70842 0.38099 0.21427
 C832 C 0.71051 0.39190 0.22880
 N833 N 0.72410 0.38844 0.24053
 N834 N 0.73520 0.37460 0.23783
 C835 C 0.69829 0.40717 0.23176
 N836 N 0.70010 0.41782 0.24650
 N837 N 0.68901 0.43167 0.24918
 C838 C 0.67569 0.43544 0.23722
 N839 N 0.67392 0.42475 0.22247
 N840 N 0.68499 0.41089 0.21979
 C841 C 0.74518 0.65145 0.27971
 N842 N 0.74281 0.66262 0.29399
 N843 N 0.75389 0.67649 0.29668
 C844 C 0.76775 0.67968 0.28521
 N845 N 0.77013 0.66850 0.27093
 N846 N 0.75904 0.65465 0.26823
 C847 C 0.73297 0.63616 0.27675
 N848 N 0.73507 0.62524 0.26224
 N849 N 0.72400 0.61137 0.25956
 C850 C 0.71042 0.60790 0.27130
 N851 N 0.70831 0.61882 0.28581
 N852 N 0.71938 0.63270 0.28849
 C853 C 0.69822 0.59260 0.26835
 N854 N 0.68493 0.58888 0.28032
 N855 N 0.67387 0.57499 0.27766
 C856 C 0.67565 0.56428 0.26292
 N857 N 0.68897 0.56807 0.25096
 N858 N 0.70005 0.58194 0.25362
 C859 C 0.24552 0.15171 0.77928
 N860 N 0.24297 0.16303 0.79341
 N861 N 0.25405 0.17689 0.79613
 C862 C 0.26812 0.17995 0.78484
 N863 N 0.27065 0.16860 0.77070
 N864 N 0.25956 0.15476 0.76797
 C865 C 0.23330 0.13644 0.77629
 N866 N 0.23554 0.12540 0.76189
 N867 N 0.22445 0.11154 0.75918
 C868 C 0.21073 0.10820 0.77079
 N869 N 0.20850 0.11924 0.78520
 N870 N 0.21957 0.13311 0.78789
 C871 C 0.19852 0.09292 0.76783
 N872 N 0.18512 0.08929 0.77972
 N873 N 0.17405 0.07542 0.77705
 C874 C 0.17592 0.06462 0.76239
 N875 N 0.18934 0.06831 0.75050
 N876 N 0.20043 0.08217 0.75318
 C877 C 0.22012 0.25466 0.15109
 N878 N 0.23161 0.24079 0.15430
 N879 N 0.22890 0.22974 0.16816
 C880 C 0.21463 0.23215 0.17933
 N881 N 0.20315 0.24602 0.17612
 N882 N 0.20585 0.25707 0.16225
 C883 C 0.22309 0.26684 0.13580
 N884 N 0.21135 0.28042 0.13233
 N885 N 0.21402 0.29146 0.11845
 C886 C 0.22854 0.28933 0.10754
 N887 N 0.24028 0.27575 0.11102
 N888 N 0.23760 0.26470 0.12488
 C889 C 0.23148 0.30152 0.09225
 N890 N 0.24622 0.29968 0.08160
 N891 N 0.24888 0.31074 0.06774
 C892 C 0.23691 0.32406 0.06396
 N893 N 0.22217 0.32585 0.07465
 N894 N 0.21951 0.31481 0.08853
 C895 C 0.72015 0.75520 0.65119
 N896 N 0.73160 0.74131 0.65437
 N897 N 0.72885 0.73021 0.66819
 C898 C 0.71456 0.73261 0.67934
 N899 N 0.70312 0.74652 0.67616
 N900 N 0.70586 0.75761 0.66233
 C901 C 0.72316 0.76743 0.63594
 N902 N 0.71146 0.78105 0.63250
 N903 N 0.71418 0.79212 0.61865
 C904 C 0.72871 0.79000 0.60776
 N905 N 0.74042 0.77638 0.61122
 N906 N 0.73769 0.76530 0.62505
 C907 C 0.73169 0.80221 0.59251
 N908 N 0.74644 0.80037 0.58187
 N909 N 0.74914 0.81145 0.56803
 C910 C 0.73719 0.82480 0.56426
 N911 N 0.72244 0.82659 0.57494
 N912 N 0.71974 0.81553 0.58879
 C913 C 0.78002 0.75528 0.34851
 N914 N 0.79430 0.75767 0.33735
 N915 N 0.79701 0.74658 0.32351
 C916 C 0.78555 0.73269 0.32032
 N917 N 0.77126 0.73030 0.33148
 N918 N 0.76854 0.74140 0.34531
 C919 C 0.77703 0.76750 0.36377
 N920 N 0.76251 0.76537 0.37467
 N921 N 0.75980 0.77645 0.38852
 C922 C 0.77152 0.79005 0.39199
 N923 N 0.78605 0.79218 0.38110
 N924 N 0.78875 0.78111 0.36723
 C925 C 0.76855 0.80226 0.40727
 N926 N 0.78050 0.81558 0.41100
 N927 N 0.77782 0.82663 0.42488
 C928 C 0.76307 0.82482 0.43556
 N929 N 0.75112 0.81147 0.43177
 N930 N 0.75381 0.80040 0.41791
 C931 C 0.27965 0.25473 -0.15193
 N932 N 0.26818 0.24085 -0.15515
 N933 N 0.27092 0.22976 -0.16899
 C934 C 0.28522 0.23216 -0.18012
 N935 N 0.29668 0.24605 -0.17691
 N936 N 0.29395 0.25713 -0.16306
 C937 C 0.27664 0.26693 -0.13665
 N938 N 0.28836 0.28053 -0.13316
 N939 N 0.28566 0.29159 -0.11929
 C940 C 0.27111 0.28946 -0.10842
 N941 N 0.25938 0.27587 -0.11192
 N942 N 0.26210 0.26480 -0.12577
 C943 C 0.26814 0.30165 -0.09313
 N944 N 0.25338 0.29980 -0.08251
 N945 N 0.25069 0.31086 -0.06864
 C946 C 0.26265 0.32419 -0.06482
 N947 N 0.27741 0.32599 -0.07548
 N948 N 0.28010 0.31495 -0.08937
 C949 C 0.72048 0.24492 -0.15134
 N950 N 0.70616 0.24253 -0.16246
 N951 N 0.70342 0.25361 -0.17630
 C952 C 0.71488 0.26750 -0.17950
 N953 N 0.72919 0.26990 -0.16838
 N954 N 0.73194 0.25881 -0.15455
 C955 C 0.72350 0.23271 -0.13609
 N956 N 0.73804 0.23483 -0.12522
 N957 N 0.74078 0.22374 -0.11139
 C958 C 0.72905 0.21014 -0.10791
 N959 N 0.71450 0.20802 -0.11878
 N960 N 0.71178 0.21910 -0.13262
 C961 C 0.73205 0.19793 -0.09266
 N962 N 0.72009 0.18461 -0.08893
 N963 N 0.72280 0.17354 -0.07508
 C964 C 0.73756 0.17534 -0.06442
 N965 N 0.74952 0.18868 -0.06820
 N966 N 0.74681 0.19976 -0.08204
 C967 C 0.22027 0.74520 0.34843
 N968 N 0.20601 0.74279 0.33724
 N969 N 0.20334 0.75384 0.32337
 C970 C 0.21483 0.76772 0.32019
 N971 N 0.22909 0.77013 0.33139
 N972 N 0.23176 0.75906 0.34525
 C973 C 0.22321 0.73301 0.36372
 N974 N 0.23770 0.73514 0.37465
 N975 N 0.24037 0.72408 0.38852
 C976 C 0.22861 0.71049 0.39196
 N977 N 0.21411 0.70837 0.38103
 N978 N 0.21146 0.71942 0.36716
 C979 C 0.23153 0.69830 0.40725
 N980 N 0.21955 0.68501 0.41096
 N981 N 0.22218 0.67396 0.42483
 C982 C 0.23691 0.67575 0.43555
 N983 N 0.24889 0.68907 0.43179
 N984 N 0.24625 0.70014 0.41792
 C985 C 0.27932 0.74534 0.65136
 N986 N 0.29359 0.74294 0.66253
 N987 N 0.29631 0.75403 0.67637
 C988 C 0.28485 0.76792 0.67955
 N989 N 0.27058 0.77032 0.66839
 N990 N 0.26785 0.75923 0.65455
 C991 C 0.27633 0.73312 0.63610
 N992 N 0.26182 0.73524 0.62519
 N993 N 0.25912 0.72415 0.61134
 C994 C 0.27084 0.71055 0.60788
 N995 N 0.28536 0.70843 0.61879
 N996 N 0.28805 0.71951 0.63265
 C997 C 0.26789 0.69834 0.59260
 N998 N 0.27985 0.68503 0.58889
 N999 N 0.27718 0.67397 0.57502
 C1000 C 0.26244 0.67576 0.56432
 N1001 N 0.25048 0.68910 0.56809
 N1002 N 0.25315 0.70018 0.58195
 C1003 C 0.78025 0.24471 0.15143
 N1004 N 0.79454 0.24234 0.16258
 N1005 N 0.79724 0.25341 0.17644
 C1006 C 0.78576 0.26728 0.17964
 N1007 N 0.77147 0.26966 0.16848
 N1008 N 0.76876 0.25858 0.15464
 C1009 C 0.77728 0.23251 0.13615
 N1010 N 0.76276 0.23462 0.12525
 N1011 N 0.76007 0.22356 0.11138
 C1012 C 0.77181 0.20997 0.10790
 N1013 N 0.78634 0.20786 0.11880
 N1014 N 0.78902 0.21892 0.13268
 C1015 C 0.76886 0.19779 0.09261
 N1016 N 0.78084 0.18449 0.08886
 N1017 N 0.77817 0.17345 0.07498
 C1018 C 0.76342 0.17524 0.06429
 N1019 N 0.75145 0.18856 0.06809
 N1020 N 0.75412 0.19962 0.08197
 C1021 C 0.47002 0.40113 0.50514
 N1022 N 0.48151 0.40433 0.49128
 N1023 N 0.47880 0.41817 0.48020
 C1024 C 0.46451 0.42933 0.48258
 N1025 N 0.45303 0.42615 0.49644
 N1026 N 0.45573 0.41229 0.50751
 C1027 C 0.47299 0.38586 0.51734
 N1028 N 0.46125 0.38241 0.53092
 N1029 N 0.46393 0.36854 0.54198
 C1030 C 0.47846 0.35764 0.53988
 N1031 N 0.49021 0.36110 0.52631
 N1032 N 0.48752 0.37495 0.51524
 C1033 C 0.48141 0.34235 0.55208
 N1034 N 0.49615 0.33170 0.55026
 N1035 N 0.49882 0.31784 0.56133
 C1036 C 0.48684 0.31407 0.57464
 N1037 N 0.47209 0.32476 0.57641
 N1038 N 0.46943 0.33863 0.56536
 C1039 C -0.02963 0.90146 0.00459
 N1040 N -0.01817 0.90468 -0.00927
 N1041 N -0.02090 0.91854 -0.02033
 C1042 C -0.03519 0.92969 -0.01791
 N1043 N -0.04665 0.92648 -0.00404
 N1044 N -0.04392 0.91261 0.00700
 C1045 C -0.02664 0.88616 0.01676
 N1046 N -0.03835 0.88268 0.03035
 N1047 N -0.03566 0.86879 0.04138
 C1048 C -0.02113 0.85789 0.03923
 N1049 N -0.00941 0.86138 0.02565
 N1050 N -0.01212 0.87525 0.01461
 C1051 C -0.01816 0.84258 0.05139
 N1052 N -0.00343 0.83192 0.04952
 N1053 N -0.00075 0.81804 0.06055
 C1054 C -0.01269 0.81424 0.07388
 N1055 N -0.02744 0.82494 0.07570
 N1056 N -0.03012 0.83883 0.06469
 C1057 C 0.02962 0.59812 0.00431
 N1058 N 0.01828 0.59506 -0.00969
 N1059 N 0.02099 0.58121 -0.02077
 C1060 C 0.03513 0.56987 -0.01826
 N1061 N 0.04646 0.57294 -0.00423
 N1062 N 0.04377 0.58681 0.00684
 C1063 C 0.02666 0.61341 0.01652
 N1064 N 0.03830 0.61676 0.03021
 N1065 N 0.03563 0.63064 0.04127
 C1066 C 0.02122 0.64166 0.03905
 N1067 N 0.00957 0.63831 0.02537
 N1068 N 0.01225 0.62444 0.01430
 C1069 C 0.01829 0.65697 0.05125
 N1070 N 0.00362 0.66771 0.04935
 N1071 N 0.00097 0.68159 0.06042
 C1072 C 0.01289 0.68529 0.07380
 N1073 N 0.02756 0.67451 0.07565
 N1074 N 0.03021 0.66061 0.06461
 C1075 C 0.52983 0.09818 0.50518
 N1076 N 0.51837 0.09495 0.49130
 N1077 N 0.52114 0.08112 0.48021
 C1078 C 0.53545 0.07000 0.48259
 N1079 N 0.54690 0.07321 0.49647
 N1080 N 0.54415 0.08705 0.50756
 C1081 C 0.52679 0.11344 0.51740
 N1082 N 0.53850 0.11693 0.53100
 N1083 N 0.53577 0.13079 0.54206
 C1084 C 0.52122 0.14166 0.53994
 N1085 N 0.50950 0.13816 0.52635
 N1086 N 0.51225 0.12431 0.51527
 C1087 C 0.51821 0.15694 0.55214
 N1088 N 0.50345 0.16756 0.55029
 N1089 N 0.50074 0.18143 0.56136
 C1090 C 0.51268 0.18524 0.57469
 N1091 N 0.52745 0.17458 0.57649
 N1092 N 0.53016 0.16070 0.56545
 C1093 C -0.03005 0.09872 0.49483
 N1094 N -0.04435 0.08756 0.49245
 N1095 N -0.04706 0.07370 0.50351
 C1096 C -0.03559 0.07051 0.51738
 N1097 N -0.02129 0.08167 0.51976
 N1098 N -0.01857 0.09552 0.50869
 C1099 C -0.02706 0.11400 0.48263
 N1100 N -0.01254 0.12491 0.48476
 N1101 N -0.00984 0.13878 0.47370
 C1102 C -0.02157 0.14224 0.46012
 N1103 N -0.03610 0.13133 0.45800
 N1104 N -0.03879 0.11746 0.46905
 C1105 C -0.01860 0.15753 0.44794
 N1106 N -0.03056 0.16126 0.43464
 N1107 N -0.02789 0.17514 0.42360
 C1108 C -0.01314 0.18584 0.42541
 N1109 N -0.00119 0.18207 0.43874
 N1110 N -0.00387 0.16820 0.44979
 C1111 C 0.47018 0.59874 0.99503
 N1112 N 0.45589 0.58757 0.99264
 N1113 N 0.45319 0.57370 1.00369
 C1114 C 0.46466 0.57050 1.01755
 N1115 N 0.47895 0.58167 1.01995
 N1116 N 0.48167 0.59553 1.00888
 C1117 C 0.47315 0.61403 0.98285
 N1118 N 0.48768 0.62494 0.98497
 N1119 N 0.49037 0.63881 0.97391
 C1120 C 0.47862 0.64228 0.96034
 N1121 N 0.46409 0.63137 0.95823
 N1122 N 0.46141 0.61749 0.96928
 C1123 C 0.48156 0.65758 0.94817
 N1124 N 0.46958 0.66131 0.93489
 N1125 N 0.47223 0.67520 0.92385
 C1126 C 0.48699 0.68590 0.92563
 N1127 N 0.49897 0.68212 0.93894
 N1128 N 0.49631 0.66824 0.94999
 C1129 C 0.52985 0.90177 0.99527
 N1130 N 0.54401 0.91305 0.99275
 N1131 N 0.54677 0.92689 1.00384
 C1132 C 0.53547 0.92995 1.01790
 N1133 N 0.52130 0.91864 1.02041
 N1134 N 0.51854 0.90481 1.00930
 C1135 C 0.52682 0.88651 0.98304
 N1136 N 0.51238 0.87550 0.98528
 N1137 N 0.50964 0.86166 0.97418
 C1138 C 0.52125 0.85831 0.96047
 N1139 N 0.53569 0.86932 0.95824
 N1140 N 0.53842 0.88317 0.96932
 C1141 C 0.51825 0.84304 0.94825
 N1142 N 0.53013 0.83939 0.93485
 N1143 N 0.52742 0.82552 0.92379
 C1144 C 0.51273 0.81476 0.92567
 N1145 N 0.50086 0.81846 0.93909
 N1146 N 0.50357 0.83232 0.95017
 C1147 C 0.02941 0.40174 0.49510
 N1148 N 0.01809 0.40476 0.50913
 N1149 N 0.02082 0.41859 0.52025
 C1150 C 0.03496 0.42994 0.51774
 N1151 N 0.04627 0.42690 0.50368
 N1152 N 0.04355 0.41306 0.49258
 C1153 C 0.02642 0.38648 0.48287
 N1154 N 0.03804 0.38317 0.46915
 N1155 N 0.03535 0.36931 0.45806
 C1156 C 0.02093 0.35828 0.46028
 N1157 N 0.00931 0.36160 0.47399
 N1158 N 0.01201 0.37544 0.48509
 C1159 C 0.01797 0.34300 0.44806
 N1160 N 0.00331 0.33225 0.44996
 N1161 N 0.00064 0.31839 0.43888
 C1162 C 0.01253 0.31471 0.42547
 N1163 N 0.02720 0.32551 0.42361
 N1164 N 0.02987 0.33938 0.43467
 C1165 C 0.40114 0.50488 0.47032
 N1166 N 0.40433 0.49102 0.48180
 N1167 N 0.41817 0.47992 0.47908
 C1168 C 0.42934 0.48230 0.46481
 N1169 N 0.42616 0.49617 0.45335
 N1170 N 0.41230 0.50726 0.45605
 C1171 C 0.38587 0.51710 0.47330
 N1172 N 0.38242 0.53070 0.46157
 N1173 N 0.36855 0.54177 0.46425
 C1174 C 0.35764 0.53967 0.47876
 N1175 N 0.36109 0.52608 0.49049
 N1176 N 0.37495 0.51500 0.48780
 C1177 C 0.34235 0.55188 0.48171
 N1178 N 0.33169 0.55005 0.49643
 N1179 N 0.31783 0.56113 0.49909
 C1180 C 0.31406 0.57446 0.48713
 N1181 N 0.32476 0.57623 0.47240
 N1182 N 0.33864 0.56517 0.46974
 C1183 C 0.90212 0.00462 -0.03014
 N1184 N 0.91341 0.00717 -0.04428
 N1185 N 0.92727 -0.00390 -0.04701
 C1186 C 0.93035 -0.01796 -0.03573
 N1187 N 0.91903 -0.02050 -0.02159
 N1188 N 0.90518 -0.00942 -0.01884
 C1189 C 0.88684 0.01682 -0.02713
 N1190 N 0.87582 0.01455 -0.01272
 N1191 N 0.86196 0.02562 -0.00999
 C1192 C 0.85859 0.03934 -0.02159
 N1193 N 0.86960 0.04160 -0.03601
 N1194 N 0.88348 0.03055 -0.03872
 C1195 C 0.84330 0.05153 -0.01861
 N1196 N 0.83963 0.06493 -0.03047
 N1197 N 0.82575 0.07597 -0.02778
 C1198 C 0.81498 0.07407 -0.01310
 N1199 N 0.81870 0.06065 -0.00124
 N1200 N 0.83258 0.04959 -0.00394
 C1201 C 0.59890 0.00458 0.02962
 N1202 N 0.59566 -0.00928 0.01813
 N1203 N 0.58179 -0.02034 0.02084
 C1204 C 0.57065 -0.01795 0.03513
 N1205 N 0.57389 -0.00409 0.04662
 N1206 N 0.58777 0.00696 0.04392
 C1207 C 0.61420 0.01677 0.02664
 N1208 N 0.61771 0.03035 0.03838
 N1209 N 0.63160 0.04140 0.03569
 C1210 C 0.64248 0.03928 0.02116
 N1211 N 0.63897 0.02571 0.00941
 N1212 N 0.62509 0.01465 0.01211
 C1213 C 0.65778 0.05146 0.01820
 N1214 N 0.66841 0.04963 0.00345
 N1215 N 0.68229 0.06069 0.00077
 C1216 C 0.68611 0.07401 0.01274
 N1217 N 0.67544 0.07580 0.02750
 N1218 N 0.66155 0.06475 0.03017
 C1219 C 0.09820 0.50474 0.52946
 N1220 N 0.09500 0.49088 0.51797
 N1221 N 0.08116 0.47977 0.52068
 C1222 C 0.07001 0.48213 0.53497
 N1223 N 0.07321 0.49600 0.54645
 N1224 N 0.08705 0.50709 0.54375
 C1225 C 0.11347 0.51698 0.52649
 N1226 N 0.11692 0.53057 0.53823
 N1227 N 0.13078 0.54166 0.53555
 C1228 C 0.14167 0.53958 0.52103
 N1229 N 0.13821 0.52599 0.50928
 N1230 N 0.12437 0.51489 0.51197
 C1231 C 0.15695 0.55181 0.51808
 N1232 N 0.16760 0.55000 0.50334
 N1233 N 0.18145 0.56110 0.50068
 C1234 C 0.18522 0.57442 0.51266
 N1235 N 0.17453 0.57618 0.52740
 N1236 N 0.16066 0.56510 0.53006
 C1237 C 0.09835 0.49507 -0.02991
 N1238 N 0.08718 0.49268 -0.04419
 N1239 N 0.07333 0.50377 -0.04689
 C1240 C 0.07015 0.51766 -0.03542
 N1241 N 0.08132 0.52004 -0.02115
 N1242 N 0.09517 0.50895 -0.01844
 C1243 C 0.11362 0.48284 -0.02695
 N1244 N 0.12453 0.48495 -0.01243
 N1245 N 0.13838 0.47385 -0.00975
 C1246 C 0.14183 0.46026 -0.02149
 N1247 N 0.13092 0.45816 -0.03600
 N1248 N 0.11706 0.46924 -0.03868
 C1249 C 0.15710 0.44804 -0.01854
 N1250 N 0.16081 0.43474 -0.03052
 N1251 N 0.17468 0.42367 -0.02786
 C1252 C 0.18538 0.42543 -0.01312
 N1253 N 0.18161 0.43876 -0.00115
 N1254 N 0.16776 0.44985 -0.00381
 C1255 C 0.59834 0.99526 0.47015
 N1256 N 0.59524 1.00927 0.48149
 N1257 N 0.58137 1.02032 0.47877
 C1258 C 0.57005 1.01777 0.46463
 N1259 N 0.57316 1.00374 0.45330
 N1260 N 0.58705 0.99270 0.45601
 C1261 C 0.61365 0.98309 0.47313
 N1262 N 0.61704 0.96939 0.46151
 N1263 N 0.63094 0.95836 0.46420
 C1264 C 0.64195 0.96063 0.47862
 N1265 N 0.63855 0.97433 0.49025
 N1266 N 0.62466 0.98537 0.48755
 C1267 C 0.65727 0.94847 0.48159
 N1268 N 0.66799 0.95042 0.49625
 N1269 N 0.68188 0.93938 0.49893
 C1270 C 0.68563 0.92598 0.48705
 N1271 N 0.67486 0.92407 0.47237
 N1272 N 0.66096 0.93509 0.46969
 C1273 C 0.90170 0.99560 0.52977
 N1274 N 0.90476 1.00963 0.51845
 N1275 N 0.91861 1.02071 0.52117
 C1276 C 0.92995 1.01818 0.53530
 N1277 N 0.92688 1.00413 0.54660
 N1278 N 0.91302 0.99306 0.54389
 C1279 C 0.88641 0.98340 0.52678
 N1280 N 0.88306 0.96968 0.53839
 N1281 N 0.86918 0.95862 0.53569
 C1282 C 0.85816 0.96086 0.52129
 N1283 N 0.86152 0.97457 0.50968
 N1284 N 0.87539 0.98565 0.51238
 C1285 C 0.84286 0.94867 0.51832
 N1286 N 0.83212 0.95060 0.50366
 N1287 N 0.81825 0.93953 0.50098
 C1288 C 0.81454 0.92611 0.51285
 N1289 N 0.82531 0.92422 0.52752
 N1290 N 0.83920 0.93527 0.53020
 C1291 C 0.40128 0.49492 0.02963
 N1292 N 0.41243 0.49252 0.04392
 N1293 N 0.42628 0.50361 0.04665
 C1294 C 0.42948 0.51750 0.03521
 N1295 N 0.41833 0.51990 0.02093
 N1296 N 0.40448 0.50880 0.01819
 C1297 C 0.38600 0.48270 0.02662
 N1298 N 0.37510 0.48483 0.01211
 N1299 N 0.36125 0.47375 0.00938
 C1300 C 0.35777 0.46015 0.02109
 N1301 N 0.36867 0.45802 0.03561
 N1302 N 0.38253 0.46909 0.03832
 C1303 C 0.34248 0.44794 0.01810
 N1304 N 0.33875 0.43462 0.03004
 N1305 N 0.32487 0.42357 0.02734
 C1306 C 0.31418 0.42537 0.01260
 N1307 N 0.31798 0.43871 0.00067
 N1308 N 0.33184 0.44979 0.00337
 C1309 C 0.50488 0.47004 0.40148
 N1310 N 0.49101 0.48153 0.40469
 N1311 N 0.47992 0.47880 0.41852
 C1312 C 0.48230 0.46451 0.42967
 N1313 N 0.49618 0.45304 0.42647
 N1314 N 0.50726 0.45575 0.41262
 C1315 C 0.51709 0.47303 0.38622
 N1316 N 0.53068 0.46130 0.38275
 N1317 N 0.54174 0.46399 0.36889
 C1318 C 0.53963 0.47853 0.35800
 N1319 N 0.52605 0.49027 0.36148
 N1320 N 0.51497 0.48756 0.37533
 C1321 C 0.55183 0.48149 0.34273
 N1322 N 0.55000 0.49624 0.33210
 N1323 N 0.56106 0.49892 0.31824
 C1324 C 0.57439 0.48696 0.31444
 N1325 N 0.57617 0.47220 0.32511
 N1326 N 0.56512 0.46952 0.33898
 C1327 C 0.00509 -0.02953 0.90101
 N1328 N 0.00748 -0.04382 0.91215
 N1329 N -0.00359 -0.04654 0.92599
 C1330 C -0.01748 -0.03508 0.92920
 N1331 N -0.01987 -0.02078 0.91806
 N1332 N -0.00879 -0.01805 0.90422
 C1333 C 0.01730 -0.02653 0.88575
 N1334 N 0.01518 -0.01201 0.87486
 N1335 N 0.02626 -0.00930 0.86101
 C1336 C 0.03985 -0.02103 0.85755
 N1337 N 0.04197 -0.03556 0.86843
 N1338 N 0.03090 -0.03826 0.88229
 C1339 C 0.05206 -0.01807 0.84227
 N1340 N 0.06537 -0.03003 0.83855
 N1341 N 0.07642 -0.02736 0.82469
 C1342 C 0.07463 -0.01262 0.81400
 N1343 N 0.06130 -0.00065 0.81778
 N1344 N 0.05022 -0.00333 0.83163
 C1345 C 0.00481 0.02982 0.59843
 N1346 N -0.00908 0.01834 0.59525
 N1347 N -0.02019 0.02106 0.58143
 C1348 C -0.01781 0.03534 0.57027
 N1349 N -0.00392 0.04681 0.57345
 N1350 N 0.00718 0.04410 0.58727
 C1351 C 0.01705 0.02684 0.61367
 N1352 N 0.03066 0.03856 0.61709
 N1353 N 0.04175 0.03588 0.63093
 C1354 C 0.03965 0.02136 0.64183
 N1355 N 0.02605 0.00962 0.63840
 N1356 N 0.01494 0.01232 0.62457
 C1357 C 0.05189 0.01840 0.65708
 N1358 N 0.05007 0.00367 0.66774
 N1359 N 0.06117 0.00101 0.68157
 C1360 C 0.07452 0.01297 0.68531
 N1361 N 0.07630 0.02771 0.67461
 N1362 N 0.06521 0.03037 0.66077
 C1363 C 0.50498 0.52970 0.09861
 N1364 N 0.49111 0.51821 0.09538
 N1365 N 0.48003 0.52095 0.08155
 C1366 C 0.48242 0.53526 0.07042
 N1367 N 0.49630 0.54673 0.07365
 N1368 N 0.50737 0.54401 0.08750
 C1369 C 0.51718 0.52670 0.11388
 N1370 N 0.53077 0.53843 0.11738
 N1371 N 0.54182 0.53573 0.13124
 C1372 C 0.53970 0.52118 0.14211
 N1373 N 0.52612 0.50944 0.13860
 N1374 N 0.51505 0.51215 0.12475
 C1375 C 0.55189 0.51820 0.15739
 N1376 N 0.55005 0.50344 0.16800
 N1377 N 0.56111 0.50075 0.18187
 C1378 C 0.57443 0.51272 0.18569
 N1379 N 0.57622 0.52749 0.17503
 N1380 N 0.56518 0.53018 0.16116
 C1381 C 0.49512 -0.03015 0.09850
 N1382 N 0.50901 -0.01868 0.09532
 N1383 N 0.52009 -0.02139 0.08147
 C1384 C 0.51767 -0.03566 0.07029
 N1385 N 0.50377 -0.04712 0.07346
 N1386 N 0.49270 -0.04442 0.08732
 C1387 C 0.48293 -0.02717 0.11378
 N1388 N 0.46931 -0.03889 0.11722
 N1389 N 0.45826 -0.03621 0.13110
 C1390 C 0.46040 -0.02171 0.14202
 N1391 N 0.47401 -0.00998 0.13857
 N1392 N 0.48507 -0.01267 0.12471
 C1393 C 0.44822 -0.01876 0.15732
 N1394 N 0.45008 -0.00403 0.16799
 N1395 N 0.43902 -0.00136 0.18185
 C1396 C 0.42567 -0.01332 0.18562
 N1397 N 0.42386 -0.02806 0.17490
 N1398 N 0.43490 -0.03072 0.16103
 C1399 C 0.99454 0.46979 0.59835
 N1400 N 1.00841 0.48128 0.59515
 N1401 N 1.01948 0.47858 0.58130
 C1402 C 1.01708 0.46429 0.57012
 N1403 N 1.00321 0.45281 0.57332
 N1404 N 0.99215 0.45551 0.58718
 C1405 C 0.98235 0.47276 0.61363
 N1406 N 0.96876 0.46102 0.61710
 N1407 N 0.95772 0.46370 0.63098
 C1408 C 0.95985 0.47823 0.64188
 N1409 N 0.97343 0.48997 0.63841
 N1410 N 0.98449 0.48728 0.62454
 C1411 C 0.94767 0.48118 0.65718
 N1412 N 0.94952 0.49593 0.66782
 N1413 N 0.93846 0.49861 0.68169
 C1414 C 0.92514 0.48664 0.68549
 N1415 N 0.92333 0.47189 0.67480
 N1416 N 0.93437 0.46921 0.66092
 C1417 C 0.99459 0.52977 0.90129
 N1418 N 1.00846 0.51831 0.90450
 N1419 N 1.01955 0.52106 0.91833
 C1420 C 1.01716 0.53537 0.92947
 N1421 N 1.00328 0.54683 0.92627
 N1422 N 0.99220 0.54409 0.91243
 C1423 C 0.98238 0.52675 0.88603
 N1424 N 0.96878 0.53847 0.88255
 N1425 N 0.95772 0.53574 0.86868
 C1426 C 0.95985 0.52119 0.85781
 N1427 N 0.97344 0.50947 0.86130
 N1428 N 0.98451 0.51221 0.87515
 C1429 C 0.94766 0.51819 0.84253
 N1430 N 0.94952 0.50342 0.83191
 N1431 N 0.93846 0.50070 0.81805
 C1432 C 0.92512 0.51265 0.81424
 N1433 N 0.92331 0.52742 0.82490
 N1434 N 0.93435 0.53014 0.83877
 C1435 C 0.49527 0.02928 0.40140
 N1436 N 0.50916 0.01782 0.40458
 N1437 N 0.52025 0.02055 0.41843
 C1438 C 0.51783 0.03483 0.42960
 N1439 N 0.50393 0.04628 0.42642
 N1440 N 0.49286 0.04355 0.41257
 C1441 C 0.48306 0.02628 0.38613
 N1442 N 0.46945 0.03800 0.38269
 N1443 N 0.45838 0.03530 0.36883
 C1444 C 0.46051 0.02078 0.35792
 N1445 N 0.47411 0.00906 0.36137
 N1446 N 0.48519 0.01177 0.37522
 C1447 C 0.44830 0.01782 0.34265
 N1448 N 0.45014 0.00308 0.33199
 N1449 N 0.43906 0.00040 0.31814
 C1450 C 0.42572 0.01236 0.31438
 N1451 N 0.42393 0.02710 0.32508
 N1452 N 0.43499 0.02978 0.33894
   
