data_POSCAR
  _audit_creation_date              2014-09-24
  _audit_creation_method            'ToBaCCo'
  _symmetry_space_group_name_H-M    'P1'
  _symmetry_Int_Tables_number       1
  _symmetry_cell_setting            triclinic
  loop_
  _symmetry_equiv_pos_as_xyz
 x,y,z
_cell_length_a 61.4510
_cell_length_b 61.4552
_cell_length_c 61.4064
_cell_angle_alpha 90.000800
_cell_angle_beta 90.005300
_cell_angle_gamma 89.972100
loop_
  _atom_site_label
  _atom_site_type_symbol
  _atom_site_fract_x
  _atom_site_fract_y
  _atom_site_fract_z
C1 C 0.36739 1.35226 0.33549
 C2 C 0.36747 1.33619 0.35170
 C3 C 0.35154 1.33618 0.36762
 C4 C 0.33532 1.35223 0.36754
 C5 C 0.33523 1.36809 0.35155
 C6 C 0.35139 1.36810 0.33540
 C7 C 0.38039 1.35579 0.31759
 N8 N 0.37265 1.37338 0.30661
 C9 C 0.35491 1.38104 0.31744
 C10 C 0.31726 1.38100 0.35506
 N11 N 0.30643 1.37333 0.37278
 C12 C 0.31740 1.35574 0.38053
 C13 C 0.35518 1.31834 0.38068
 N14 N 0.37290 1.30756 0.37304
 C15 C 0.38054 1.31837 0.35533
 H16 H 0.39427 1.34606 0.31275
 H17 H 0.34508 1.39479 0.31245
 H18 H 0.31228 1.39477 0.34523
 H19 H 0.31257 1.34599 0.39440
 H20 H 0.34544 1.31336 0.39450
 H21 H 0.39437 1.31341 0.34559
 C22 C 0.36769 0.85260 0.83652
 C23 C 0.36769 0.83647 0.85266
 C24 C 0.35170 0.83640 0.86853
 C25 C 0.33549 0.85247 0.86845
 C26 C 0.33549 0.86839 0.85251
 C27 C 0.35170 0.86846 0.83644
 C28 C 0.38072 0.85617 0.81865
 N29 N 0.37301 0.87379 0.80776
 C30 C 0.35528 0.88142 0.81851
 C31 C 0.31751 0.88131 0.85598
 N32 N 0.30659 0.87359 0.87362
 C33 C 0.31751 0.85596 0.88136
 C34 C 0.35528 0.81849 0.88151
 N35 N 0.37301 0.80773 0.87388
 C36 C 0.38072 0.81861 0.85625
 H37 H 0.39458 0.84645 0.81374
 H38 H 0.34548 0.89518 0.81347
 H39 H 0.31260 0.89511 0.84617
 H40 H 0.31259 0.84616 0.89517
 H41 H 0.34548 0.81346 0.89528
 H42 H 0.39458 0.81369 0.84654
 C43 C 0.86684 1.35179 0.83495
 C44 C 0.86692 1.33573 0.85117
 C45 C 0.85099 1.33571 0.86708
 C46 C 0.83475 1.35175 0.86699
 C47 C 0.83466 1.36760 0.85099
 C48 C 0.85082 1.36762 0.83485
 C49 C 0.87987 1.35535 0.81708
 N50 N 0.87214 1.37295 0.80611
 C51 C 0.85438 1.38057 0.81690
 C52 C 0.81670 1.38054 0.85453
 N53 N 0.80589 1.37288 0.87227
 C54 C 0.81687 1.35528 0.88000
 C55 C 0.85466 1.31791 0.88018
 N56 N 0.87241 1.30716 0.87257
 C57 C 0.88003 1.31794 0.85484
 H58 H 0.89378 1.34563 0.81228
 H59 H 0.84456 1.39434 0.81192
 H60 H 0.81172 1.39431 0.84471
 H61 H 0.81206 1.34555 0.89390
 H62 H 0.84494 1.31295 0.89402
 H63 H 0.89389 1.31301 0.84513
 C64 C 0.86835 0.85238 0.33559
 C65 C 0.86840 0.83628 0.35178
 C66 C 0.85251 0.83633 0.36775
 C67 C 0.83638 0.85247 0.36775
 C68 C 0.83633 0.86836 0.35178
 C69 C 0.85243 0.86831 0.33559
 C70 C 0.88129 0.85588 0.31763
 N71 N 0.87357 0.87353 0.30672
 C72 C 0.85593 0.88125 0.31764
 C73 C 0.81842 0.88134 0.35535
 N74 N 0.80764 0.87368 0.37306
 C75 C 0.81850 0.85605 0.38077
 C76 C 0.85608 0.81845 0.38077
 N77 N 0.87372 0.80758 0.37306
 C78 C 0.88137 0.81837 0.35535
 H79 H 0.89509 0.84609 0.31271
 H80 H 0.84613 0.89506 0.31272
 H81 H 0.81341 0.89511 0.34556
 H82 H 0.81356 0.84632 0.39461
 H83 H 0.84635 0.81352 0.39461
 H84 H 0.89514 0.81335 0.34556
 C85 C 0.63146 0.64719 0.33591
 C86 C 0.63141 0.66329 0.35210
 C87 C 0.64730 0.66325 0.36806
 C88 C 0.66345 0.64712 0.36806
 C89 C 0.66349 0.63124 0.35209
 C90 C 0.64739 0.63127 0.33590
 C91 C 0.61852 0.64370 0.31794
 N92 N 0.62625 0.62606 0.30702
 C93 C 0.64389 0.61834 0.31794
 C94 C 0.68142 0.61828 0.35564
 N95 N 0.69222 0.62594 0.37334
 C96 C 0.68134 0.64357 0.38106
 C97 C 0.64374 0.68115 0.38106
 N98 N 0.62610 0.69201 0.37335
 C99 C 0.61844 0.68121 0.35565
 H100 H 0.60472 0.65349 0.31303
 H101 H 0.65370 0.60455 0.31301
 H102 H 0.68644 0.60451 0.34585
 H103 H 0.68629 0.65331 0.39489
 H104 H 0.65348 0.68610 0.39489
 H105 H 0.60467 0.68622 0.34586
 C106 C 0.63312 0.14824 0.83478
 C107 C 0.63302 0.16429 0.85102
 C108 C 0.64894 0.16429 0.86695
 C109 C 0.66518 0.14824 0.86685
 C110 C 0.66528 0.13241 0.85083
 C111 C 0.64913 0.13241 0.83468
 C112 C 0.62009 0.14469 0.81690
 N113 N 0.62783 0.12710 0.80592
 C114 C 0.64559 0.11946 0.81672
 C115 C 0.68324 0.11947 0.85438
 N116 N 0.69403 0.12711 0.87214
 C117 C 0.68306 0.14470 0.87988
 C118 C 0.64526 0.18207 0.88006
 N119 N 0.62752 0.19283 0.87246
 C120 C 0.61991 0.18208 0.85471
 H121 H 0.60619 0.15440 0.81209
 H122 H 0.65541 0.10570 0.81175
 H123 H 0.68822 0.10571 0.84456
 H124 H 0.68786 0.15442 0.89378
 H125 H 0.65498 0.18701 0.89392
 H126 H 0.60606 0.18702 0.84499
 C127 C 1.13212 0.64724 0.83678
 C128 C 1.13212 0.66338 0.85291
 C129 C 1.14811 0.66347 0.86878
 C130 C 1.16433 0.64740 0.86871
 C131 C 1.16433 0.63147 0.85279
 C132 C 1.14812 0.63138 0.83672
 C133 C 1.11909 0.64365 0.81891
 N134 N 1.12682 0.62603 0.80803
 C135 C 1.14455 0.61841 0.81880
 C136 C 1.18231 0.61857 0.85626
 N137 N 1.19325 0.62631 0.87389
 C138 C 1.18232 0.64394 0.88162
 C139 C 1.14454 0.68140 0.88174
 N140 N 1.12680 0.69215 0.87409
 C141 C 1.11909 0.68125 0.85648
 H142 H 1.10524 0.65336 0.81398
 H143 H 1.15436 0.60465 0.81376
 H144 H 1.18724 0.60477 0.84646
 H145 H 1.18725 0.65375 0.89542
 H146 H 1.15434 0.68645 0.89549
 H147 H 1.10523 0.68616 0.84675
 C148 C 1.13259 0.14768 0.33542
 C149 C 1.13252 0.16373 0.35165
 C150 C 1.14845 0.16372 0.36758
 C151 C 1.16467 0.14766 0.36748
 C152 C 1.16475 0.13182 0.35146
 C153 C 1.14859 0.13183 0.33532
 C154 C 1.11959 0.14417 0.31751
 N155 N 1.12733 0.12659 0.30652
 C156 C 1.14507 0.11892 0.31734
 C157 C 1.18272 0.11890 0.35496
 N158 N 1.19355 0.12655 0.37269
 C159 C 1.18258 0.14413 0.38046
 C160 C 1.14482 0.18154 0.38066
 N161 N 1.12710 0.19233 0.37303
 C162 C 1.11945 0.18156 0.35531
 H163 H 1.10571 0.15391 0.31269
 H164 H 1.15490 0.10517 0.31234
 H165 H 1.18769 0.10515 0.34511
 H166 H 1.18743 0.15386 0.39434
 H167 H 1.15456 0.18650 0.39449
 H168 H 1.10562 0.18652 0.34558
 C169 C 0.63172 1.35232 0.66454
 C170 C 0.63165 1.33626 0.64831
 C171 C 0.64752 1.33632 0.63232
 C172 C 0.66366 1.35244 0.63234
 C173 C 0.66373 1.36828 0.64835
 C174 C 0.64766 1.36822 0.66456
 C175 C 0.61880 1.35580 0.68251
 N176 N 0.62653 1.37341 0.69346
 C177 C 0.64417 1.38113 0.68255
 C178 C 0.68165 1.38125 0.64479
 N179 N 0.69240 1.37362 0.62704
 C180 C 0.68152 1.35602 0.61931
 C181 C 0.64392 1.31848 0.61926
 N182 N 0.62629 1.30763 0.62696
 C183 C 0.61866 1.31838 0.64471
 H184 H 0.60499 1.34601 0.68741
 H185 H 0.65397 1.39492 0.68749
 H186 H 0.68669 1.39499 0.65459
 H187 H 0.68643 1.34632 0.60543
 H188 H 0.65363 1.31357 0.60539
 H189 H 0.60489 1.31335 0.65450
 C190 C 0.63143 0.85260 1.16409
 C191 C 0.63140 0.83649 1.14792
 C192 C 0.64730 0.83652 1.13195
 C193 C 0.66342 0.85266 1.13195
 C194 C 0.66344 0.86855 1.14791
 C195 C 0.64733 0.86852 1.16409
 C196 C 0.61848 0.85611 1.18205
 N197 N 0.62618 0.87376 1.19295
 C198 C 0.64382 0.88147 1.18204
 C199 C 0.68134 0.88153 1.14435
 N200 N 0.69215 0.87386 1.12666
 C201 C 0.68131 0.85622 1.11895
 C202 C 0.64375 0.81861 1.11896
 N203 N 0.62612 0.80776 1.12668
 C204 C 0.61845 0.81857 1.14437
 H205 H 0.60469 0.84631 1.18697
 H206 H 0.65361 0.89528 1.18695
 H207 H 0.68634 0.89531 1.15413
 H208 H 0.68628 0.84647 1.10512
 H209 H 0.65349 0.81365 1.10513
 H210 H 0.60468 0.81357 1.15416
 C211 C 1.13168 1.35322 1.16283
 C212 C 1.13170 1.33708 1.14670
 C213 C 1.14772 1.33697 1.13087
 C214 C 1.16394 1.35302 1.13096
 C215 C 1.16392 1.36895 1.14688
 C216 C 1.14768 1.36906 1.16293
 C217 C 1.11865 1.35680 1.18070
 N218 N 1.12636 1.37439 1.19161
 C219 C 1.14411 1.38201 1.18086
 C220 C 1.18192 1.38182 1.14346
 N221 N 1.19289 1.37406 1.12587
 C222 C 1.18197 1.35645 1.11810
 C223 C 1.14418 1.31902 1.11792
 N224 N 1.12643 1.30829 1.12556
 C225 C 1.11869 1.31922 1.14314
 H226 H 1.10480 1.34708 1.18561
 H227 H 1.15392 1.39574 1.18594
 H228 H 1.18683 1.39561 1.15329
 H229 H 1.18693 1.34662 1.10433
 H230 H 1.15400 1.31394 1.10420
 H231 H 1.10482 1.31432 1.15286
 C232 C 1.13054 0.85354 0.66247
 C233 C 1.13055 0.83739 0.64634
 C234 C 1.14647 0.83737 0.63041
 C235 C 1.16260 0.85351 0.63040
 C236 C 1.16258 0.86945 0.64631
 C237 C 1.14644 0.86947 0.66246
 C238 C 1.11762 0.85704 0.68044
 N239 N 1.12533 0.87468 0.69130
 C240 C 1.14294 0.88240 0.68042
 C241 C 1.18053 0.88237 0.64281
 N242 N 1.19141 0.87464 0.62518
 C243 C 1.18056 0.85700 0.61747
 C244 C 1.14300 0.81940 0.61751
 N245 N 1.12538 0.80854 0.62525
 C246 C 1.11765 0.81942 0.64287
 H247 H 1.10386 0.84725 0.68547
 H248 H 1.15272 0.89617 0.68542
 H249 H 1.18553 0.89615 0.65260
 H250 H 1.18558 0.84720 0.60371
 H251 H 1.15279 0.81437 0.60374
 H252 H 1.10389 0.81442 0.65268
 C253 C 0.36799 0.64723 0.66326
 C254 C 0.36796 0.66337 0.64712
 C255 C 0.35197 0.66344 0.63126
 C256 C 0.33577 0.64736 0.63133
 C257 C 0.33580 0.63144 0.64726
 C258 C 0.35202 0.63137 0.66333
 C259 C 0.38102 0.64365 0.68113
 N260 N 0.37333 0.62603 0.69201
 C261 C 0.35560 0.61839 0.68125
 C262 C 0.31783 0.61853 0.64380
 N263 N 0.30688 0.62626 0.62617
 C264 C 0.31778 0.64389 0.61843
 C265 C 0.35551 0.68136 0.61828
 N266 N 0.37324 0.69212 0.62592
 C267 C 0.38097 0.68123 0.64354
 H268 H 0.39487 0.65337 0.68605
 H269 H 0.34582 0.60464 0.68630
 H270 H 0.31293 0.60473 0.65361
 H271 H 0.31284 0.65369 0.60463
 H272 H 0.34570 0.68640 0.60453
 H273 H 0.39482 0.68615 0.65326
 C274 C 0.36843 0.14667 1.16255
 C275 C 0.36840 0.16283 1.14644
 C276 C 0.35237 0.16296 1.13062
 C277 C 0.33615 0.14691 1.13070
 C278 C 0.33618 0.13096 1.14660
 C279 C 0.35243 0.13083 1.16263
 C280 C 0.38147 0.14308 1.18041
 N281 N 0.37375 0.12548 1.19131
 C282 C 0.35601 0.11786 1.18056
 C283 C 0.31817 0.11811 1.14318
 N284 N 0.30718 0.12590 1.12561
 C285 C 0.31810 0.14351 1.11785
 C286 C 0.35590 0.18093 1.11770
 N287 N 0.37365 0.19165 1.12535
 C288 C 0.38141 0.18070 1.14291
 H289 H 0.39532 0.15279 1.18534
 H290 H 0.34619 0.10414 1.18563
 H291 H 0.31326 0.10431 1.15299
 H292 H 0.31313 0.15336 1.10410
 H293 H 0.34606 0.18604 1.10400
 H294 H 0.39527 0.18558 1.15263
 C295 C 0.86944 0.64652 1.16252
 C296 C 0.86938 0.66271 1.14642
 C297 C 0.85340 0.66276 1.13054
 C298 C 0.83727 0.64662 1.13053
 C299 C 0.83735 0.63064 1.14641
 C300 C 0.85353 0.63059 1.16251
 C301 C 0.88242 0.64297 1.18044
 N302 N 0.87474 0.62531 1.19127
 C303 C 0.85709 0.61761 1.18043
 C304 C 0.81940 0.61772 1.14294
 N305 N 0.80846 0.62548 1.12536
 C306 C 0.81927 0.64314 1.11765
 C307 C 0.85686 0.68077 1.11766
 N308 N 0.87451 0.69159 1.12538
 C309 C 0.88228 0.68067 1.14295
 H310 H 0.89618 0.65275 1.18545
 H311 H 0.84732 0.60383 1.18542
 H312 H 0.81445 0.60391 1.15271
 H313 H 0.81420 0.65297 1.10392
 H314 H 0.84703 0.68583 1.10393
 H315 H 0.89608 0.68563 1.15272
 C316 C 0.86827 0.14753 0.66432
 C317 C 0.86834 0.16361 0.64812
 C318 C 0.85246 0.16358 0.63214
 C319 C 0.83631 0.14747 0.63214
 C320 C 0.83624 0.13160 0.64813
 C321 C 0.85234 0.13163 0.66433
 C322 C 0.88120 0.14402 0.68229
 N323 N 0.87348 0.12640 0.69321
 C324 C 0.85583 0.11870 0.68230
 C325 C 0.81833 0.11865 0.64456
 N326 N 0.80755 0.12630 0.62683
 C327 C 0.81843 0.14392 0.61912
 C328 C 0.85605 0.18145 0.61912
 N329 N 0.87370 0.19229 0.62683
 C330 C 0.88133 0.18150 0.64456
 H331 H 0.89502 0.15380 0.68720
 H332 H 0.84602 0.10492 0.68723
 H333 H 0.81329 0.10489 0.65435
 H334 H 0.81351 0.15364 0.60526
 H335 H 0.84634 0.18640 0.60527
 H336 H 0.89510 0.18650 0.65435
 C337 C 1.35314 0.36802 0.66321
 C338 C 1.33703 0.36805 0.64704
 C339 C 1.33695 0.35206 0.63118
 C340 C 1.35298 0.33581 0.63128
 C341 C 1.36888 0.33578 0.64724
 C342 C 1.36896 0.35200 0.66331
 C343 C 1.35670 0.38104 0.68108
 N344 N 1.37427 0.37329 0.69202
 C345 C 1.38190 0.35554 0.68127
 C346 C 1.38174 0.31775 0.64379
 N347 N 1.37400 0.30684 0.62615
 C348 C 1.35641 0.31782 0.61839
 C349 C 1.31904 0.35565 0.61819
 N350 N 1.30830 0.37339 0.62582
 C351 C 1.31918 0.38110 0.64345
 H352 H 1.34699 0.39491 0.68598
 H353 H 1.39562 0.34571 0.68636
 H354 H 1.39551 0.31279 0.65363
 H355 H 1.34661 0.31292 0.60458
 H356 H 1.31399 0.34584 0.60444
 H357 H 1.31427 0.39496 0.65317
 C358 C 1.35224 0.86733 1.16452
 C359 C 1.33617 0.86739 1.14831
 C360 C 1.33613 0.85142 1.13242
 C361 C 1.35217 0.83518 1.13253
 C362 C 1.36803 0.83512 1.14852
 C363 C 1.36807 0.85131 1.16463
 C364 C 1.35579 0.88036 1.18239
 N365 N 1.37338 0.87263 1.19337
 C366 C 1.38101 0.85487 1.18259
 C367 C 1.38094 0.81714 1.14504
 N368 N 1.37327 0.80628 1.12734
 C369 C 1.35568 0.81724 1.11958
 C370 C 1.31829 0.85506 1.11936
 N371 N 1.30754 0.87282 1.12697
 C372 C 1.31836 0.88047 1.14466
 H373 H 1.34606 0.89426 1.18719
 H374 H 1.39476 0.84503 1.18759
 H375 H 1.39471 0.81218 1.15487
 H376 H 1.34593 0.81238 1.10571
 H377 H 1.31329 0.84531 1.10555
 H378 H 1.31344 0.89433 1.15437
 C379 C 0.85208 0.36711 1.16486
 C380 C 0.83599 0.36718 1.14866
 C381 C 0.83597 0.35126 1.13274
 C382 C 0.85205 0.33505 1.13279
 C383 C 0.86793 0.33498 1.14876
 C384 C 0.86794 0.35113 1.16491
 C385 C 0.85565 0.38012 1.18275
 N386 N 0.87327 0.37239 1.19369
 C387 C 0.88091 0.35466 1.18285
 C388 C 0.88087 0.31704 1.14522
 N389 N 0.87320 0.30621 1.12750
 C390 C 0.85558 0.31715 1.11978
 C391 C 0.81813 0.35489 1.11969
 N392 N 0.80735 0.37261 1.12734
 C393 C 0.81816 0.38025 1.14505
 H394 H 0.84591 0.39399 1.18761
 H395 H 0.89470 0.34485 1.18780
 H396 H 0.89466 0.31208 1.15502
 H397 H 0.84582 0.31231 1.10591
 H398 H 0.81315 0.34517 1.10586
 H399 H 0.81321 0.39408 1.15479
 C400 C 0.85314 0.86907 0.66287
 C401 C 0.83700 0.86906 0.64672
 C402 C 0.83700 0.85312 0.63080
 C403 C 0.85314 0.83698 0.63082
 C404 C 0.86907 0.83699 0.64675
 C405 C 0.86907 0.85314 0.66288
 C406 C 0.85665 0.88201 0.68082
 N407 N 0.87429 0.87431 0.69169
 C408 C 0.88201 0.85666 0.68084
 C409 C 0.88201 0.81904 0.64326
 N410 N 0.87429 0.80817 0.62562
 C411 C 0.85666 0.81902 0.61789
 C412 C 0.81905 0.85662 0.61786
 N413 N 0.80820 0.87427 0.62557
 C414 C 0.81906 0.88199 0.64320
 H415 H 0.84687 0.89580 0.68581
 H416 H 0.89578 0.84688 0.68585
 H417 H 0.89579 0.81404 0.65305
 H418 H 0.84687 0.81401 0.60411
 H419 H 0.81405 0.84683 0.60408
 H420 H 0.81405 0.89578 0.65298
 C421 C 0.64679 0.63082 0.66293
 C422 C 0.66293 0.63082 0.64679
 C423 C 0.66293 0.64674 0.63086
 C424 C 0.64679 0.66288 0.63085
 C425 C 0.63087 0.66288 0.64678
 C426 C 0.63087 0.64675 0.66293
 C427 C 0.64328 0.61789 0.68089
 N428 N 0.62565 0.62560 0.69175
 C429 C 0.61793 0.64324 0.68089
 C430 C 0.61793 0.68083 0.64327
 N431 N 0.62565 0.69169 0.62562
 C432 C 0.64329 0.68083 0.61791
 C433 C 0.68088 0.64323 0.61792
 N434 N 0.69174 0.62559 0.62564
 C435 C 0.68088 0.61788 0.64328
 H436 H 0.65306 0.60411 0.68590
 H437 H 0.60415 0.65302 0.68589
 H438 H 0.60415 0.68584 0.65305
 H439 H 0.65307 0.68582 0.60413
 H440 H 0.68589 0.65301 0.60414
 H441 H 0.68589 0.60410 0.65307
 C442 C 0.64786 1.13275 1.16471
 C443 C 0.66395 1.13270 1.14852
 C444 C 0.66397 1.14864 1.13260
 C445 C 0.64789 1.16485 1.13266
 C446 C 0.63201 1.16489 1.14864
 C447 C 0.63199 1.14873 1.16477
 C448 C 0.64430 1.11973 1.18259
 N449 N 0.62668 1.12745 1.19353
 C450 C 0.61903 1.14518 1.18270
 C451 C 0.61906 1.18283 1.14511
 N452 N 0.62673 1.19369 1.12740
 C453 C 0.64435 1.18275 1.11968
 C454 C 0.68182 1.14503 1.11956
 N455 N 0.69261 1.12731 1.12720
 C456 C 0.68180 1.11965 1.14490
 H457 H 0.65405 1.10586 1.18744
 H458 H 0.60524 1.15499 1.18765
 H459 H 0.60527 1.18777 1.15492
 H460 H 0.65411 1.18762 1.10582
 H461 H 0.68680 1.15477 1.10574
 H462 H 0.68675 1.10582 1.15463
 C463 C 0.14806 0.63302 1.16499
 C464 C 0.16411 0.63294 1.14877
 C465 C 0.16414 0.64889 1.13287
 C466 C 0.14811 0.66514 1.13298
 C467 C 0.13226 0.66521 1.14898
 C468 C 0.13223 0.64903 1.16511
 C469 C 0.14451 0.61997 1.18285
 N470 N 0.12693 0.62770 1.19384
 C471 C 0.11929 0.64547 1.18306
 C472 C 0.11934 0.68319 1.14547
 N473 N 0.12700 0.69402 1.12775
 C474 C 0.14459 0.68305 1.11999
 C475 C 0.18196 0.64523 1.11978
 N476 N 0.19270 0.62747 1.12739
 C477 C 0.18190 0.61983 1.14510
 H478 H 0.15423 0.60607 1.18764
 H479 H 0.10553 0.65530 1.18806
 H480 H 0.10557 0.68816 1.15530
 H481 H 0.15432 0.68788 1.10611
 H482 H 0.18694 0.65496 1.10596
 H483 H 0.18683 0.60597 1.15481
 C484 C 0.14809 1.13299 0.66506
 C485 C 0.16415 1.13290 0.64882
 C486 C 0.16414 1.14883 0.63289
 C487 C 0.14808 1.16505 0.63298
 C488 C 0.13224 1.16514 0.64899
 C489 C 0.13225 1.14899 0.66515
 C490 C 0.14455 1.11998 0.68295
 N491 N 0.12696 1.12772 0.69392
 C492 C 0.11931 1.14546 0.68310
 C493 C 0.11931 1.18310 0.64546
 N494 N 0.12695 1.19390 0.62771
 C495 C 0.14454 1.18293 0.61997
 C496 C 0.18194 1.14517 0.61979
 N497 N 0.19272 1.12744 0.62741
 C498 C 0.18195 1.11981 0.64515
 H499 H 0.15428 1.10609 0.68777
 H500 H 0.10554 1.15528 0.68808
 H501 H 0.10554 1.18807 0.65529
 H502 H 0.15427 1.18775 0.60607
 H503 H 0.18688 1.15488 0.60595
 H504 H 0.18691 1.10597 0.65487
 C505 C 1.35215 0.63271 0.33540
 C506 C 1.33608 0.63267 0.35161
 C507 C 1.33603 0.64863 0.36749
 C508 C 1.35207 0.66486 0.36739
 C509 C 1.36793 0.66491 0.35140
 C510 C 1.36797 0.64871 0.33529
 C511 C 1.35571 0.61966 0.31754
 N512 N 1.37330 0.62738 0.30657
 C513 C 1.38093 0.64514 0.31735
 C514 C 1.38084 0.68287 0.35488
 N515 N 1.37317 0.69374 0.37258
 C516 C 1.35557 0.68280 0.38034
 C517 C 1.31819 0.64500 0.38056
 N518 N 1.30746 0.62724 0.37295
 C519 C 1.31828 0.61958 0.35526
 H520 H 1.34600 0.60577 0.31274
 H521 H 1.39468 0.65496 0.31235
 H522 H 1.39461 0.68781 0.34506
 H523 H 1.34582 0.68767 0.39420
 H524 H 1.31319 0.65475 0.39436
 H525 H 1.31337 0.60572 0.34556
 C526 C 1.35277 1.13213 0.83673
 C527 C 1.33664 1.13213 0.85288
 C528 C 1.33654 1.14814 0.86872
 C529 C 1.35258 1.16437 0.86863
 C530 C 1.36850 1.16436 0.85270
 C531 C 1.36860 1.14813 0.83663
 C532 C 1.35635 1.11908 0.81888
 N533 N 1.37394 1.12680 0.80797
 C534 C 1.38156 1.14455 0.81870
 C535 C 1.38138 1.18236 0.85615
 N536 N 1.37364 1.19329 0.87378
 C537 C 1.35603 1.18236 0.88153
 C538 C 1.31863 1.14457 0.88170
 N539 N 1.30790 1.12681 0.87408
 C540 C 1.31880 1.11909 0.85646
 H541 H 1.34665 1.10522 0.81398
 H542 H 1.39529 1.15435 0.81363
 H543 H 1.39517 1.18728 0.84634
 H544 H 1.34622 1.18728 0.89533
 H545 H 1.31356 1.15437 0.89545
 H546 H 1.31391 1.10523 0.84675
 C547 C 0.85316 0.63089 0.83729
 C548 C 0.83699 0.63092 0.85341
 C549 C 0.83695 0.64686 0.86932
 C550 C 0.85308 0.66300 0.86932
 C551 C 0.86904 0.66297 0.85342
 C552 C 0.86907 0.64681 0.83730
 C553 C 0.85670 0.61793 0.81935
 N554 N 0.87435 0.62563 0.80851
 C555 C 0.88204 0.64328 0.81937
 C556 C 0.88196 0.68091 0.85692
 N557 N 0.87422 0.69180 0.87454
 C558 C 0.85657 0.68097 0.88224
 C559 C 0.81898 0.64337 0.88223
 N560 N 0.80816 0.62572 0.87452
 C561 C 0.81905 0.61799 0.85690
 H562 H 0.84693 0.60416 0.81435
 H563 H 0.89582 0.65305 0.81437
 H564 H 0.89576 0.68589 0.84715
 H565 H 0.84677 0.68600 0.89601
 H566 H 0.81395 0.65316 0.89600
 H567 H 0.81408 0.60419 0.84713
 C568 C 0.85378 1.13026 0.33791
 C569 C 0.83758 1.13031 0.35400
 C570 C 0.83754 1.14625 0.36991
 C571 C 0.85370 1.16236 0.36995
 C572 C 0.86968 1.16231 0.35407
 C573 C 0.86971 1.14615 0.33795
 C574 C 0.85730 1.11733 0.31994
 N575 N 0.87496 1.12503 0.30912
 C576 C 0.88267 1.14264 0.32001
 C577 C 0.88260 1.18025 0.35756
 N578 N 0.87483 1.19117 0.37514
 C579 C 0.85717 1.18035 0.38284
 C580 C 0.81952 1.14281 0.38277
 N581 N 0.80867 1.12519 0.37501
 C582 C 0.81959 1.11743 0.35743
 H583 H 0.84750 1.10360 0.31490
 H584 H 0.89645 1.15242 0.31502
 H585 H 0.89639 1.18522 0.34779
 H586 H 0.84734 1.18542 0.39657
 H587 H 0.81446 1.15262 0.39651
 H588 H 0.81460 1.10367 0.34762
 C589 C 0.64726 0.36868 0.33613
 C590 C 0.66337 0.36870 0.35232
 C591 C 0.66330 0.35283 0.36831
 C592 C 0.64714 0.33673 0.36833
 C593 C 0.63125 0.33671 0.35237
 C594 C 0.63131 0.35279 0.33616
 C595 C 0.64378 0.38158 0.31815
 N596 N 0.62613 0.37388 0.30724
 C597 C 0.61839 0.35628 0.31819
 C598 C 0.61827 0.31882 0.35593
 N599 N 0.62592 0.30802 0.37364
 C600 C 0.64357 0.31885 0.38135
 C601 C 0.68121 0.35636 0.38130
 N602 N 0.69211 0.37395 0.37356
 C603 C 0.68131 0.38162 0.35585
 H604 H 0.65360 0.39535 0.31319
 H605 H 0.60457 0.34649 0.31329
 H606 H 0.60450 0.31382 0.34614
 H607 H 0.65331 0.31389 0.39518
 H608 H 0.68615 0.34663 0.39514
 H609 H 0.68636 0.39536 0.34604
 C610 C 0.64671 0.86911 0.83719
 C611 C 0.66286 0.86911 0.85332
 C612 C 0.66289 0.85318 0.86925
 C613 C 0.64676 0.83704 0.86926
 C614 C 0.63082 0.83705 0.85334
 C615 C 0.63080 0.85319 0.83720
 C616 C 0.64317 0.88205 0.81924
 N617 N 0.62554 0.87433 0.80839
 C618 C 0.61785 0.85670 0.81925
 C619 C 0.61790 0.81910 0.85685
 N620 N 0.62564 0.80824 0.87449
 C621 C 0.64327 0.81909 0.88220
 C622 C 0.68085 0.85670 0.88218
 N623 N 0.69168 0.87434 0.87446
 C624 C 0.68079 0.88205 0.85682
 H625 H 0.65294 0.89583 0.81423
 H626 H 0.60407 0.84691 0.81425
 H627 H 0.60412 0.81411 0.84708
 H628 H 0.65307 0.81408 0.89598
 H629 H 0.68587 0.84692 0.89596
 H630 H 0.68577 0.89583 0.84704
 C631 C 0.14719 0.36874 0.83610
 C632 C 0.16325 0.36880 0.85233
 C633 C 0.16318 0.35294 0.86832
 C634 C 0.14705 0.33681 0.86830
 C635 C 0.13120 0.33674 0.85229
 C636 C 0.13127 0.35282 0.83608
 C637 C 0.14374 0.38164 0.81811
 N638 N 0.12614 0.37392 0.80715
 C639 C 0.11839 0.35630 0.81807
 C640 C 0.11825 0.31882 0.85583
 N641 N 0.12588 0.30805 0.87357
 C642 C 0.14348 0.31893 0.88131
 C643 C 0.18104 0.35650 0.88136
 N644 N 0.19192 0.37411 0.87364
 C645 C 0.18116 0.38176 0.85591
 H646 H 0.15355 0.39543 0.81319
 H647 H 0.10461 0.34649 0.81312
 H648 H 0.10451 0.31378 0.84601
 H649 H 0.15320 0.31399 0.89517
 H650 H 0.18597 0.34677 0.89521
 H651 H 0.18620 0.39551 0.84610
 C652 C 0.14701 0.86874 0.33609
 C653 C 0.16308 0.86881 0.35230
 C654 C 0.16305 0.85292 0.36827
 C655 C 0.14695 0.83676 0.36824
 C656 C 0.13109 0.83670 0.35225
 C657 C 0.13112 0.85280 0.33606
 C658 C 0.14353 0.88167 0.31812
 N659 N 0.12594 0.87393 0.30716
 C660 C 0.11822 0.85628 0.31806
 C661 C 0.11817 0.81875 0.35577
 N662 N 0.12584 0.80796 0.37349
 C663 C 0.14343 0.81886 0.38123
 C664 C 0.18093 0.85649 0.38128
 N665 N 0.19178 0.87413 0.37357
 C666 C 0.18098 0.88179 0.35587
 H667 H 0.15332 0.89548 0.31322
 H668 H 0.10446 0.84646 0.31310
 H669 H 0.10443 0.81370 0.34596
 H670 H 0.15316 0.81392 0.39507
 H671 H 0.18590 0.84675 0.39511
 H672 H 0.18599 0.89555 0.34607
 O673 O 0.97884 0.92156 0.89179
 O674 O 0.97880 0.89626 0.86631
 C675 C 0.97141 0.91397 0.87404
 C676 C 0.95368 0.92565 0.86259
 C677 C 0.94652 0.91870 0.84200
 H678 H 0.95451 0.90505 0.83422
 O679 O 1.02120 1.07865 0.89158
 O680 O 1.02121 1.10397 0.86614
 C681 C 1.02864 1.08628 0.87386
 C682 C 1.04644 1.07468 0.86243
 C683 C 1.05377 1.08182 0.84198
 H684 H 1.04583 1.09554 0.83426
 O685 O 0.89160 0.97901 0.92153
 O686 O 0.86616 0.97895 0.89620
 C687 C 0.87387 0.97158 0.91394
 C688 C 0.86243 0.95387 0.92563
 C689 C 0.84186 0.94670 0.91870
 H690 H 0.83407 0.95468 0.90504
 O691 O 1.10843 1.02132 0.92144
 O692 O 1.13389 1.02131 0.89613
 C693 C 1.12618 1.02871 0.91385
 C694 C 1.13762 1.04644 0.92553
 C695 C 1.15816 1.05365 0.91857
 H696 H 1.16595 1.04570 0.90489
 O697 O 0.92147 0.89184 0.97891
 O698 O 0.89618 0.86639 0.97889
 C699 C 0.91388 0.87411 0.97149
 C700 C 0.92556 0.86264 0.95377
 C701 C 0.91862 0.84207 0.94662
 H702 H 0.90497 0.83431 0.95462
 O703 O 1.07854 1.10842 0.97880
 O704 O 1.10382 1.13388 0.97876
 C705 C 1.08611 1.12616 0.97137
 C706 C 1.07443 1.13760 0.95363
 C707 C 1.08138 1.15815 0.94642
 H708 H 1.09505 1.16592 0.95438
 O709 O 0.92139 1.02140 0.89163
 O710 O 0.89610 1.02137 0.86615
 C711 C 0.91379 1.02878 0.87387
 C712 C 0.92544 1.04650 0.86239
 C713 C 0.91840 1.05374 0.84186
 H714 H 0.90470 1.04580 0.83412
 O715 O 1.07855 0.97895 0.89165
 O716 O 1.10383 0.97889 0.86616
 C717 C 1.08613 0.97152 0.87389
 C718 C 1.07444 0.95381 0.86245
 C719 C 1.08132 0.94668 0.84184
 H720 H 1.09493 0.95469 0.83402
 O721 O 1.02131 0.89170 0.92155
 O722 O 1.02132 0.86626 0.89622
 C723 C 1.02872 0.87397 0.91394
 C724 C 1.04646 0.86251 0.92561
 C725 C 1.05368 0.84197 0.91863
 H726 H 1.04573 0.83420 0.90494
 O727 O 0.97869 1.10842 0.92140
 O728 O 0.97866 1.13388 0.89609
 C729 C 0.97126 1.12616 0.91380
 C730 C 0.95351 1.13760 0.92546
 C731 C 0.94621 1.15808 0.91838
 H732 H 0.95412 1.16581 0.90465
 O733 O 0.89151 1.07879 0.97883
 O734 O 0.86607 1.10411 0.97881
 C735 C 0.87379 1.08641 0.97139
 C736 C 0.86237 1.07480 0.95358
 C737 C 0.84193 1.08192 0.94619
 H738 H 0.83419 1.09565 0.95407
 O739 O 1.10841 0.92149 0.97887
 O740 O 1.13387 0.89619 0.97883
 C741 C 1.12613 0.91389 0.97142
 C742 C 1.13754 0.92553 0.95363
 C743 C 1.15804 0.91848 0.94636
 H744 H 1.16580 0.90479 0.95431
 O745 O 0.97874 1.07864 0.89155
 O746 O 0.97871 1.10395 0.86609
 C747 C 0.97131 1.08624 0.87380
 C748 C 0.95357 1.07460 0.86236
 C749 C 0.94631 1.08162 0.84183
 H750 H 0.95425 1.09530 0.83406
 O751 O 1.02128 0.92155 0.89176
 O752 O 1.02128 0.89626 0.86628
 C753 C 1.02867 0.91397 0.87399
 C754 C 1.04636 0.92566 0.86251
 C755 C 1.05346 0.91875 0.84189
 H756 H 1.04547 0.90511 0.83411
 O757 O 1.10838 0.97887 0.92144
 O758 O 1.13382 0.97881 0.89611
 C759 C 1.12610 0.97142 0.91383
 C760 C 1.13753 0.95365 0.92548
 C761 C 1.15803 0.94637 0.91843
 H762 H 1.16577 0.95431 0.90473
 O763 O 0.89161 1.02146 0.92148
 O764 O 0.86618 1.02144 0.89614
 C765 C 0.87388 1.02888 0.91384
 C766 C 0.86244 1.04666 0.92544
 C767 C 0.84200 1.05400 0.91828
 H768 H 0.83431 1.04608 0.90454
 O769 O 0.92139 1.10849 0.97885
 O770 O 0.89610 1.13396 0.97885
 C771 C 0.91380 1.12623 0.97142
 C772 C 0.92542 1.13764 0.95364
 C773 C 0.91835 1.15812 0.94634
 H774 H 0.90466 1.16587 0.95429
 O775 O 1.07861 0.89170 0.97895
 O776 O 1.10393 0.86625 0.97891
 C777 C 1.08621 0.87396 0.97152
 C778 C 1.07455 0.86251 0.95378
 C779 C 1.08155 0.84198 0.94658
 H780 H 1.09522 0.83422 0.95458
 O781 O 1.07864 1.02139 0.89160
 O782 O 1.10395 1.02139 0.86614
 C783 C 1.08625 1.02882 0.87386
 C784 C 1.07462 1.04660 0.86243
 C785 C 1.08173 1.05396 0.84197
 H786 H 1.09548 1.04609 0.83424
 O787 O 0.92145 0.97895 0.89175
 O788 O 0.89616 0.97889 0.86627
 C789 C 0.91387 0.97151 0.87401
 C790 C 0.92555 0.95377 0.86257
 C791 C 0.91861 0.94661 0.84199
 H792 H 0.90497 0.95459 0.83420
 O793 O 1.02114 1.10842 0.92143
 O794 O 1.02114 1.13389 0.89613
 C795 C 1.02855 1.12616 0.91384
 C796 C 1.04628 1.13760 0.92551
 C797 C 1.05345 1.15815 0.91853
 H798 H 1.04546 1.16592 0.90487
 O799 O 0.97886 0.89174 0.92159
 O800 O 0.97883 0.86630 0.89627
 C801 C 0.97144 0.87401 0.91399
 C802 C 0.95371 0.86258 0.92566
 C803 C 0.94654 0.84201 0.91873
 H804 H 0.95454 0.83421 0.90508
 O805 O 1.10835 1.07861 0.97882
 O806 O 1.13378 1.10392 0.97879
 C807 C 1.12608 1.08621 0.97140
 C808 C 1.13755 1.07455 0.95368
 C809 C 1.15810 1.08154 0.94650
 H810 H 1.16583 1.09521 0.95449
 O811 O 0.89167 0.92167 0.97892
 O812 O 0.86623 0.89637 0.97890
 C813 C 0.87394 0.91408 0.97150
 C814 C 0.86247 0.92575 0.95378
 C815 C 0.84190 0.91881 0.94662
 H816 H 0.83414 0.90516 0.95462
 Cu817 Cu 1.00008 0.90917 0.90921
 Cu818 Cu 1.00006 0.87872 0.87871
 Cu819 Cu 0.99994 1.09099 0.90902
 Cu820 Cu 0.99993 1.12147 0.87856
 Cu821 Cu 0.90905 1.00021 0.90914
 Cu822 Cu 0.87860 1.00015 0.87864
 Cu823 Cu 1.09097 1.00014 0.90907
 Cu824 Cu 1.12142 1.00009 0.87858
 C825 C 0.94322 0.94332 0.87263
 H826 H 0.94847 0.94858 0.88863
 C827 C 0.92901 0.92909 0.83152
 C828 C 1.05684 1.05694 0.87241
 H829 H 1.05146 1.05154 0.88831
 C830 C 1.07141 1.07157 0.83157
 C831 C 0.87249 0.94342 0.94331
 H832 H 0.88848 0.94867 0.94855
 C833 C 0.83142 0.92919 0.92910
 C834 C 1.12756 1.05687 0.94322
 H835 H 1.11159 1.05158 0.94849
 C836 C 1.16858 1.07119 0.92896
 C837 C 0.94324 0.87265 0.94332
 H838 H 0.94849 0.88864 0.94857
 C839 C 0.92902 0.83157 0.92912
 C840 C 1.05674 1.12757 0.94320
 H841 H 1.05148 1.11160 0.94848
 C842 C 1.07099 1.16860 0.92889
 C843 C 0.94316 1.05691 0.87239
 H844 H 0.94848 1.05160 0.88834
 C845 C 0.92874 1.07129 0.83140
 C846 C 1.05682 0.94332 0.87254
 H847 H 1.05161 0.94856 0.88856
 C848 C 1.07092 0.92917 0.83138
 C849 C 1.05687 0.87254 0.94332
 H850 H 1.05158 0.88850 0.94861
 C851 C 1.07121 0.83152 0.92903
 C852 C 0.94314 1.12762 0.94322
 H853 H 0.94849 1.11170 0.94858
 C854 C 0.92865 1.16852 0.92872
 C855 C 0.87238 1.05704 0.94322
 H856 H 0.88827 1.05165 0.94864
 C857 C 0.83157 1.07161 0.92854
 C858 C 1.12753 0.94324 0.94321
 H859 H 1.11159 0.94858 0.94855
 C860 C 1.16846 0.92880 0.92877
 O861 O 1.02133 0.92159 1.10852
 O862 O 1.02133 0.89632 1.13401
 C863 C 1.02874 0.91401 1.12628
 C864 C 1.04647 0.92567 1.13774
 C865 C 1.05368 0.91867 1.15829
 H866 H 1.04571 0.90501 1.16605
 O867 O 0.97893 1.07864 1.10852
 O868 O 0.97890 1.10392 1.13401
 C869 C 0.97153 1.08621 1.12628
 C870 C 0.95385 1.07450 1.13776
 C871 C 0.94678 1.08134 1.15840
 H872 H 0.95480 1.09495 1.16622
 O873 O 0.89166 1.02139 1.07873
 O874 O 0.86625 1.02145 1.10409
 C875 C 0.87394 1.02884 1.08636
 C876 C 0.86249 1.04659 1.07472
 C877 C 0.84199 1.05387 1.08178
 H878 H 0.83426 1.04595 1.09550
 O879 O 1.10850 0.97887 1.07871
 O880 O 1.13396 0.97884 1.10403
 C881 C 1.12624 0.97144 1.08632
 C882 C 1.13768 0.95369 1.07466
 C883 C 1.15819 0.94642 1.08168
 H884 H 1.16595 0.95435 1.09538
 O885 O 1.07872 0.89167 1.02143
 O886 O 1.10405 0.86623 1.02144
 C887 C 1.08635 0.87394 1.02887
 C888 C 1.07475 0.86253 1.04667
 C889 C 1.08186 0.84208 1.05404
 H890 H 1.09559 0.83434 1.04615
 O891 O 0.92136 1.10851 1.02134
 O892 O 0.89607 1.13398 1.02139
 C893 C 0.91377 1.12624 1.02879
 C894 C 0.92541 1.13764 1.04659
 C895 C 0.91833 1.15811 1.05393
 H896 H 0.90461 1.16586 1.04603
 O897 O 0.92146 0.97889 1.10850
 O898 O 0.89619 0.97889 1.13400
 C899 C 0.91388 0.97147 1.12626
 C900 C 0.92552 0.95370 1.13769
 C901 C 0.91848 0.94643 1.15820
 H902 H 0.90478 0.95437 1.16595
 O903 O 1.07870 1.02135 1.10850
 O904 O 1.10401 1.02137 1.13396
 C905 C 1.08631 1.02878 1.12623
 C906 C 1.07469 1.04656 1.13766
 C907 C 1.08178 1.05385 1.15815
 H908 H 1.09548 1.04590 1.16589
 O909 O 0.97893 0.89176 1.07869
 O910 O 0.97890 0.86631 1.10401
 C911 C 0.97151 0.87403 1.08629
 C912 C 0.95379 0.86259 1.07460
 C913 C 0.94665 0.84200 1.08151
 H914 H 0.95465 0.83419 1.09514
 O915 O 1.02125 1.10854 1.07867
 O916 O 1.02126 1.13399 1.10398
 C917 C 1.02865 1.12628 1.08626
 C918 C 1.04636 1.13773 1.07455
 C919 C 1.05354 1.15830 1.08148
 H920 H 1.04558 1.16610 1.09514
 O921 O 0.89164 0.92162 1.02139
 O922 O 0.86621 0.89632 1.02141
 C923 C 0.87391 0.91402 1.02882
 C924 C 0.86246 0.92568 1.04656
 C925 C 0.84193 0.91870 1.05378
 H926 H 0.83417 0.90502 1.04582
 O927 O 1.10837 1.07865 1.02130
 O928 O 1.13380 1.10396 1.02130
 C929 C 1.12610 1.08626 1.02871
 C930 C 1.13757 1.07460 1.04646
 C931 C 1.15812 1.08159 1.05364
 H932 H 1.16586 1.09526 1.04566
 O933 O 1.02138 1.07875 1.10851
 O934 O 1.02139 1.10405 1.13397
 C935 C 1.02881 1.08636 1.12625
 C936 C 1.04660 1.07473 1.13768
 C937 C 1.05391 1.08179 1.15817
 H938 H 1.04601 1.09551 1.16592
 O939 O 0.97887 0.92155 1.10853
 O940 O 0.97884 0.89625 1.13400
 C941 C 0.97143 0.91395 1.12626
 C942 C 0.95367 0.92559 1.13770
 C943 C 0.94640 0.91854 1.15821
 H944 H 0.95435 0.90485 1.16596
 O945 O 1.10848 1.02131 1.07868
 O946 O 1.13395 1.02133 1.10398
 C947 C 1.12622 1.02873 1.08627
 C948 C 1.13764 1.04647 1.07459
 C949 C 1.15818 1.05368 1.08156
 H950 H 1.16598 1.04572 1.09522
 O951 O 0.89164 0.97895 1.07871
 O952 O 0.86622 0.97896 1.10405
 C953 C 0.87391 0.97155 1.08633
 C954 C 0.86245 0.95382 1.07468
 C955 C 0.84192 0.94662 1.08169
 H956 H 0.83416 0.95459 1.09537
 O957 O 1.07853 1.10844 1.02127
 O958 O 1.10381 1.13389 1.02126
 C959 C 1.08611 1.12618 1.02867
 C960 C 1.07445 1.13766 1.04639
 C961 C 1.08141 1.15823 1.05352
 H962 H 1.09506 1.16597 1.04551
 O963 O 0.92151 0.89187 1.02138
 O964 O 0.89623 0.86641 1.02139
 C965 C 0.91394 0.87412 1.02879
 C966 C 0.92563 0.86265 1.04649
 C967 C 0.91871 0.84206 1.05362
 H968 H 0.90507 0.83430 1.04562
 O969 O 1.07869 0.97890 1.10853
 O970 O 1.10399 0.97887 1.13400
 C971 C 1.08628 0.97148 1.12628
 C972 C 1.07462 0.95376 1.13774
 C973 C 1.08160 0.94653 1.15829
 H974 H 1.09528 0.95447 1.16606
 O975 O 0.92155 1.02132 1.10849
 O976 O 0.89629 1.02137 1.13400
 C977 C 0.91400 1.02873 1.12626
 C978 C 0.92572 1.04640 1.13774
 C979 C 0.91887 1.05346 1.15838
 H980 H 0.90526 1.04545 1.16619
 O981 O 0.97880 1.10846 1.07872
 O982 O 0.97876 1.13389 1.10405
 C983 C 0.97135 1.12617 1.08634
 C984 C 0.95355 1.13760 1.07472
 C985 C 0.94625 1.15806 1.08184
 H986 H 0.95418 1.16578 1.09556
 O987 O 1.02138 0.89173 1.07877
 O988 O 1.02140 0.86631 1.10411
 C989 C 1.02882 0.87401 1.08640
 C990 C 1.04661 0.86257 1.07480
 C991 C 1.05394 0.84213 1.08194
 H992 H 1.04601 0.83442 1.09568
 O993 O 1.10846 0.92152 1.02136
 O994 O 1.13393 0.89623 1.02135
 C995 C 1.12621 0.91393 1.02876
 C996 C 1.13766 0.92558 1.04651
 C997 C 1.15817 0.91854 1.05375
 H998 H 1.16591 0.90484 1.04579
 O999 O 0.89159 1.07870 1.02132
 O1000 O 0.86614 1.10402 1.02136
 C1001 C 0.87386 1.08631 1.02876
 C1002 C 0.86245 1.07468 1.04654
 C1003 C 0.84195 1.08173 1.05382
 H1004 H 0.83419 1.09542 1.04587
 Cu1005 Cu 1.00013 0.90919 1.09109
 Cu1006 Cu 1.00012 0.87875 1.12159
 Cu1007 Cu 1.00010 1.09106 1.09107
 Cu1008 Cu 1.00007 1.12152 1.12156
 Cu1009 Cu 0.90911 0.90929 1.00015
 Cu1010 Cu 0.87866 0.87882 1.00015
 Cu1011 Cu 1.09101 0.90912 1.00016
 Cu1012 Cu 1.12150 0.87868 1.00012
 Cu1013 Cu 0.90899 1.09108 1.00008
 Cu1014 Cu 0.87855 1.12157 1.00010
 Cu1015 Cu 1.09091 1.09099 1.00005
 Cu1016 Cu 1.12135 1.12146 1.00003
 Cu1017 Cu 0.90911 1.00014 1.09107
 Cu1018 Cu 0.87869 1.00018 1.12159
 Cu1019 Cu 1.09106 1.00010 1.09107
 Cu1020 Cu 1.12153 1.00010 1.12154
 C1021 C 1.05691 0.94335 1.12771
 H1022 H 1.05162 0.94864 1.11174
 C1023 C 1.07123 0.92900 1.16874
 C1024 C 0.94335 1.05689 1.12766
 H1025 H 0.94854 1.05170 1.11162
 C1026 C 0.92931 1.07091 1.16890
 C1027 C 0.87247 1.05698 1.05696
 H1028 H 0.88840 1.05164 1.05162
 C1029 C 0.83155 1.07143 1.07143
 C1030 C 1.12766 0.94329 1.05693
 H1031 H 1.11172 0.94862 1.05162
 C1032 C 1.16861 0.92886 1.07132
 C1033 C 1.05699 0.87253 1.05703
 H1034 H 1.05160 0.88842 1.05163
 C1035 C 1.07155 0.83170 1.07167
 C1036 C 0.94316 1.12763 1.05697
 H1037 H 0.94852 1.11172 1.05158
 C1038 C 0.92864 1.16849 1.07155
 C1039 C 0.94325 0.94330 1.12768
 H1040 H 0.94858 0.94864 1.11174
 C1041 C 0.92882 0.92886 1.16864
 C1042 C 1.05697 1.05698 1.12767
 H1043 H 1.05160 1.05163 1.11174
 C1044 C 1.07150 1.07145 1.16858
 C1045 C 0.94330 0.87267 1.05696
 H1046 H 0.94854 0.88866 1.05173
 C1047 C 0.92913 0.83156 1.07110
 C1048 C 1.05679 1.12766 1.05687
 H1049 H 1.05152 1.11167 1.05163
 C1050 C 1.07106 1.16872 1.07105
 C1051 C 0.87248 0.94338 1.05698
 H1052 H 0.88843 0.94867 1.05168
 C1053 C 0.83148 0.92907 1.07133
 C1054 C 1.12758 1.05691 1.05691
 H1055 H 1.11161 1.05162 1.05163
 C1056 C 1.16860 1.07123 1.07117
 O1057 O 0.97893 0.42120 0.39152
 O1058 O 0.97894 0.39586 0.36609
 C1059 C 0.97151 0.41356 0.37378
 C1060 C 0.95374 0.42516 0.36233
 C1061 C 0.94643 0.41804 0.34185
 H1062 H 0.95436 0.40432 0.33414
 O1063 O 1.02145 0.57843 0.39154
 O1064 O 1.02143 0.60374 0.36608
 C1065 C 1.02887 0.58605 0.37380
 C1066 C 1.04666 0.57446 0.36237
 C1067 C 1.05397 0.58160 0.34190
 H1068 H 1.04602 0.59531 0.33419
 O1069 O 0.89185 0.47855 0.42134
 O1070 O 0.86640 0.47855 0.39603
 C1071 C 0.87411 0.47115 0.41375
 C1072 C 0.86264 0.45345 0.42543
 C1073 C 0.84210 0.44627 0.41844
 H1074 H 0.83435 0.45423 0.40475
 O1075 O 1.10860 0.52112 0.42139
 O1076 O 1.13405 0.52109 0.39607
 C1077 C 1.12634 0.52852 0.41378
 C1078 C 1.13777 0.54627 0.42543
 C1079 C 1.15827 0.55355 0.41838
 H1080 H 1.16602 0.54561 0.40467
 O1081 O 0.92162 0.39161 0.47888
 O1082 O 0.89636 0.36613 0.47886
 C1083 C 0.91406 0.37386 0.47147
 C1084 C 0.92577 0.36239 0.45377
 C1085 C 0.91889 0.34178 0.44668
 H1086 H 0.90527 0.33399 0.45471
 O1087 O 1.07875 0.60825 0.47872
 O1088 O 1.10401 0.63372 0.47870
 C1089 C 1.08632 0.62599 0.47129
 C1090 C 1.07463 0.63743 0.45356
 C1091 C 1.08157 0.65798 0.44634
 H1092 H 1.09523 0.66576 0.45430
 O1093 O 0.92171 0.52092 0.39151
 O1094 O 0.89642 0.52096 0.36603
 C1095 C 0.91413 0.52834 0.37376
 C1096 C 0.92582 0.54603 0.36230
 C1097 C 0.91893 0.55315 0.34168
 H1098 H 0.90531 0.54514 0.33387
 O1099 O 1.07869 0.47874 0.39161
 O1100 O 1.10397 0.47867 0.36613
 C1101 C 1.08626 0.47131 0.37386
 C1102 C 1.07458 0.45359 0.36241
 C1103 C 1.08152 0.44646 0.34182
 H1104 H 1.09515 0.45447 0.33403
 O1105 O 1.02142 0.39146 0.42138
 O1106 O 1.02147 0.36600 0.39608
 C1107 C 1.02885 0.37372 0.41379
 C1108 C 1.04658 0.36227 0.42547
 C1109 C 1.05382 0.34175 0.41845
 H1110 H 1.04589 0.33401 0.40474
 O1111 O 0.97892 0.60818 0.42133
 O1112 O 0.97886 0.63361 0.39599
 C1113 C 0.97147 0.62590 0.41371
 C1114 C 0.95372 0.63734 0.42535
 C1115 C 0.94650 0.65786 0.41833
 H1116 H 0.95446 0.66561 0.40464
 O1117 O 0.89181 0.57836 0.47865
 O1118 O 0.86635 0.60365 0.47862
 C1119 C 0.87408 0.58595 0.47122
 C1120 C 0.86265 0.57429 0.45346
 C1121 C 0.84210 0.58128 0.44624
 H1122 H 0.83432 0.59494 0.45420
 O1123 O 1.10850 0.42121 0.47873
 O1124 O 1.13395 0.39590 0.47871
 C1125 C 1.12623 0.41360 0.47129
 C1126 C 1.13765 0.42523 0.45350
 C1127 C 1.15813 0.41815 0.44618
 H1128 H 1.16587 0.40443 0.45409
 O1129 O 0.97901 0.57831 0.39156
 O1130 O 0.97895 0.60359 0.36608
 C1131 C 0.97159 0.58588 0.37380
 C1132 C 0.95391 0.57417 0.36232
 C1133 C 0.94680 0.58106 0.34171
 H1134 H 0.95479 0.59470 0.33392
 O1135 O 1.02138 0.42133 0.39161
 O1136 O 1.02143 0.39602 0.36615
 C1137 C 1.02880 0.41374 0.37387
 C1138 C 1.04650 0.42544 0.36240
 C1139 C 1.05367 0.41852 0.34181
 H1140 H 1.04571 0.40486 0.33401
 O1141 O 1.10853 0.47866 0.42139
 O1142 O 1.13397 0.47859 0.39606
 C1143 C 1.12624 0.47120 0.41377
 C1144 C 1.13765 0.45340 0.42540
 C1145 C 1.15813 0.44610 0.41831
 H1146 H 1.16586 0.45405 0.40461
 O1147 O 0.89185 0.52098 0.42128
 O1148 O 0.86641 0.52103 0.39595
 C1149 C 0.87412 0.52843 0.41367
 C1150 C 0.86267 0.54617 0.42533
 C1151 C 0.84213 0.55337 0.41832
 H1152 H 0.83438 0.54540 0.40465
 O1153 O 0.92156 0.60820 0.47866
 O1154 O 0.89624 0.63364 0.47864
 C1155 C 0.91395 0.62593 0.47123
 C1156 C 0.92560 0.63737 0.45348
 C1157 C 0.91858 0.65789 0.44623
 H1158 H 0.90490 0.66566 0.45418
 O1159 O 1.07870 0.39142 0.47882
 O1160 O 1.10400 0.36596 0.47882
 C1161 C 1.08630 0.37368 0.47141
 C1162 C 1.07465 0.36224 0.45365
 C1163 C 1.08168 0.34172 0.44642
 H1164 H 1.09536 0.33396 0.45438
 O1165 O 1.07884 0.52118 0.39151
 O1166 O 1.10414 0.52116 0.36605
 C1167 C 1.08645 0.52860 0.37377
 C1168 C 1.07483 0.54638 0.36233
 C1169 C 1.08192 0.55374 0.34186
 H1170 H 1.09566 0.54586 0.33412
 O1171 O 0.92158 0.47848 0.39145
 O1172 O 0.89628 0.47847 0.36599
 C1173 C 0.91397 0.47105 0.37371
 C1174 C 0.92559 0.45327 0.36229
 C1175 C 0.91851 0.44593 0.34181
 H1176 H 0.90478 0.45383 0.33406
 O1177 O 1.02137 0.60820 0.42139
 O1178 O 1.02134 0.63364 0.39607
 C1179 C 1.02875 0.62594 0.41379
 C1180 C 1.04647 0.63740 0.42545
 C1181 C 1.05363 0.65795 0.41845
 H1182 H 1.04563 0.66571 0.40479
 O1183 O 0.97898 0.39154 0.42147
 O1184 O 0.97899 0.36604 0.39619
 C1185 C 0.97158 0.37378 0.41390
 C1186 C 0.95388 0.36234 0.42562
 C1187 C 0.94678 0.34173 0.41875
 H1188 H 0.95478 0.33391 0.40512
 O1189 O 1.10855 0.57844 0.47873
 O1190 O 1.13397 0.60376 0.47871
 C1191 C 1.12628 0.58605 0.47131
 C1192 C 1.13773 0.57440 0.45356
 C1193 C 1.15822 0.58146 0.44629
 H1194 H 1.16595 0.59516 0.45423
 O1195 O 0.89175 0.42135 0.47883
 O1196 O 0.86633 0.39603 0.47880
 C1197 C 0.87403 0.41373 0.47139
 C1198 C 0.86260 0.42537 0.45362
 C1199 C 0.84205 0.41841 0.44640
 H1200 H 0.83427 0.40476 0.45439
 Cu1201 Cu 1.00018 0.40892 0.40903
 Cu1202 Cu 1.00021 0.37843 0.37857
 Cu1203 Cu 1.00019 0.59074 0.40900
 Cu1204 Cu 1.00014 0.62119 0.37850
 Cu1205 Cu 0.90928 0.49973 0.40893
 Cu1206 Cu 0.87882 0.49976 0.37844
 Cu1207 Cu 1.09113 0.49994 0.40901
 Cu1208 Cu 1.12159 0.49987 0.37853
 C1209 C 0.94334 0.44291 0.37230
 H1210 H 0.94870 0.44830 0.38821
 C1211 C 0.92883 0.42832 0.33142
 C1212 C 1.05706 0.55672 0.37233
 H1213 H 1.05169 0.55132 0.38824
 C1214 C 1.07159 0.57135 0.33148
 C1215 C 0.87265 0.44303 0.44315
 H1216 H 0.88861 0.44830 0.44845
 C1217 C 0.83162 0.42877 0.42883
 C1218 C 1.12776 0.55667 0.44315
 H1219 H 1.11183 0.55134 0.44849
 C1220 C 1.16867 0.57113 0.42871
 C1221 C 0.94340 0.37243 0.44326
 H1222 H 0.94861 0.38844 0.44846
 C1223 C 0.92930 0.33127 0.42920
 C1224 C 1.05695 0.62739 0.44313
 H1225 H 1.05169 0.61142 0.44842
 C1226 C 1.07116 0.66842 0.42881
 C1227 C 0.94345 0.55652 0.37238
 H1228 H 0.94867 0.55130 0.38840
 C1229 C 0.92933 0.57065 0.33121
 C1230 C 1.05694 0.44311 0.37246
 H1231 H 1.05169 0.44835 0.38846
 C1232 C 1.07116 0.42894 0.33134
 C1233 C 1.05697 0.37227 0.44321
 H1234 H 1.05165 0.38822 0.44852
 C1235 C 1.07136 0.33130 0.42883
 C1236 C 0.94330 0.62734 0.44306
 H1237 H 0.94861 0.61139 0.44838
 C1238 C 0.92894 0.66832 0.42867
 C1239 C 0.87269 0.55661 0.44303
 H1240 H 0.88865 0.55132 0.44833
 C1241 C 0.83167 0.57091 0.42869
 C1242 C 1.12766 0.44299 0.44313
 H1243 H 1.11174 0.44835 0.44849
 C1244 C 1.16854 0.42849 0.42859
 O1245 O 1.02137 0.42146 0.60856
 O1246 O 1.02141 0.39617 0.63404
 C1247 C 1.02881 0.41387 0.62630
 C1248 C 1.04657 0.42551 0.63772
 C1249 C 1.05380 0.41852 0.65827
 H1250 H 1.04582 0.40488 0.66606
 O1251 O 0.97897 0.57838 0.60843
 O1252 O 0.97894 0.60369 0.63389
 C1253 C 0.97156 0.58598 0.62617
 C1254 C 0.95384 0.57431 0.63764
 C1255 C 0.94670 0.58125 0.65823
 H1256 H 0.95469 0.59489 0.66602
 O1257 O 0.89182 0.52109 0.57861
 O1258 O 0.86635 0.52118 0.60391
 C1259 C 0.87408 0.52854 0.58619
 C1260 C 0.86263 0.54624 0.57447
 C1261 C 0.84204 0.55339 0.58140
 H1262 H 0.83427 0.54542 0.59506
 O1263 O 1.10862 0.47866 0.57855
 O1264 O 1.13409 0.47863 0.60386
 C1265 C 1.12636 0.47124 0.58614
 C1266 C 1.13780 0.45351 0.57446
 C1267 C 1.15837 0.44632 0.58139
 H1268 H 1.16617 0.45429 0.59505
 O1269 O 1.07875 0.39149 0.52131
 O1270 O 1.10405 0.36604 0.52136
 C1271 C 1.08636 0.37378 0.52878
 C1272 C 1.07474 0.36239 0.54660
 C1273 C 1.08183 0.34193 0.55396
 H1274 H 1.09555 0.33418 0.54605
 O1275 O 0.92160 0.60814 0.52113
 O1276 O 0.89629 0.63360 0.52116
 C1277 C 0.91400 0.62588 0.52856
 C1278 C 0.92566 0.63732 0.54631
 C1279 C 0.91871 0.65789 0.55346
 H1280 H 0.90507 0.66567 0.54546
 O1281 O 0.92155 0.47863 0.60850
 O1282 O 0.89623 0.47868 0.63395
 C1283 C 0.91392 0.47123 0.62625
 C1284 C 0.92552 0.45347 0.63771
 C1285 C 0.91836 0.44614 0.65816
 H1286 H 0.90461 0.45405 0.66584
 O1287 O 1.07880 0.52110 0.60837
 O1288 O 1.10411 0.52112 0.63383
 C1289 C 1.08640 0.52852 0.62611
 C1290 C 1.07474 0.54625 0.63757
 C1291 C 1.08173 0.55345 0.65812
 H1292 H 1.09541 0.54548 0.66588
 O1293 O 0.97894 0.39164 0.57874
 O1294 O 0.97896 0.36618 0.60405
 C1295 C 0.97154 0.37390 0.58634
 C1296 C 0.95380 0.36246 0.57468
 C1297 C 0.94659 0.34193 0.58170
 H1298 H 0.95456 0.33418 0.59538
 O1299 O 1.02137 0.60819 0.57858
 O1300 O 1.02137 0.63366 0.60387
 C1301 C 1.02876 0.62594 0.58616
 C1302 C 1.04645 0.63741 0.57446
 C1303 C 1.05355 0.65801 0.58136
 H1304 H 1.04554 0.66580 0.59500
 O1305 O 0.89171 0.42137 0.52131
 O1306 O 0.86629 0.39605 0.52133
 C1307 C 0.87398 0.41376 0.52873
 C1308 C 0.86254 0.42542 0.54648
 C1309 C 0.84201 0.41842 0.55374
 H1310 H 0.83425 0.40474 0.54579
 O1311 O 1.10856 0.57846 0.52121
 O1312 O 1.13398 0.60378 0.52124
 C1313 C 1.12628 0.58607 0.52864
 C1314 C 1.13774 0.57443 0.54640
 C1315 C 1.15824 0.58146 0.55365
 H1316 H 1.16598 0.59515 0.54569
 O1317 O 1.02142 0.57840 0.60841
 O1318 O 1.02143 0.60372 0.63386
 C1319 C 1.02884 0.58601 0.62615
 C1320 C 1.04660 0.57436 0.63759
 C1321 C 1.05382 0.58135 0.65815
 H1322 H 1.04585 0.59502 0.66592
 O1323 O 0.97890 0.42136 0.60865
 O1324 O 0.97890 0.39605 0.63411
 C1325 C 0.97147 0.41374 0.62639
 C1326 C 0.95366 0.42535 0.63780
 C1327 C 0.94627 0.41823 0.65825
 H1328 H 0.95416 0.40450 0.66600
 O1329 O 1.10863 0.52111 0.57858
 O1330 O 1.13409 0.52113 0.60389
 C1331 C 1.12636 0.52853 0.58618
 C1332 C 1.13778 0.54629 0.57453
 C1333 C 1.15829 0.55355 0.58156
 H1334 H 1.16606 0.54560 0.59525
 O1335 O 0.89177 0.47866 0.57866
 O1336 O 0.86630 0.47871 0.60397
 C1337 C 0.87402 0.47128 0.58626
 C1338 C 0.86256 0.45355 0.57461
 C1339 C 0.84204 0.44634 0.58165
 H1340 H 0.83430 0.45430 0.59534
 O1341 O 1.07870 0.60821 0.52118
 O1342 O 1.10396 0.63369 0.52121
 C1343 C 1.08626 0.62596 0.52860
 C1344 C 1.07457 0.63741 0.54632
 C1345 C 1.08145 0.65801 0.55343
 H1346 H 1.09507 0.66581 0.54541
 O1347 O 0.92157 0.39162 0.52136
 O1348 O 0.89631 0.36615 0.52138
 C1349 C 0.91400 0.37388 0.52879
 C1350 C 0.92567 0.36245 0.54655
 C1351 C 0.91868 0.34193 0.55379
 H1352 H 0.90500 0.33417 0.54583
 O1353 O 1.07884 0.47866 0.60841
 O1354 O 1.10416 0.47863 0.63387
 C1355 C 1.08644 0.47125 0.62616
 C1356 C 1.07477 0.45354 0.63765
 C1357 C 1.08178 0.44633 0.65820
 H1358 H 1.09548 0.45426 0.66594
 O1359 O 0.92162 0.52107 0.60845
 O1360 O 0.89631 0.52116 0.63390
 C1361 C 0.91403 0.52851 0.62619
 C1362 C 0.92571 0.54622 0.63764
 C1363 C 0.91879 0.55338 0.65823
 H1364 H 0.90514 0.54540 0.66602
 O1365 O 0.97893 0.60815 0.57857
 O1366 O 0.97888 0.63361 0.60388
 C1367 C 0.97149 0.62588 0.58616
 C1368 C 0.95376 0.63732 0.57447
 C1369 C 0.94659 0.65790 0.58141
 H1370 H 0.95457 0.66568 0.59507
 O1371 O 1.02140 0.39163 0.57877
 O1372 O 1.02145 0.36619 0.60410
 C1373 C 1.02885 0.37390 0.58639
 C1374 C 1.04662 0.36246 0.57475
 C1375 C 1.05394 0.34201 0.58188
 H1376 H 1.04602 0.33431 0.59562
 O1377 O 1.10853 0.42130 0.52121
 O1378 O 1.13399 0.39599 0.52123
 C1379 C 1.12628 0.41371 0.52861
 C1380 C 1.13776 0.42539 0.54632
 C1381 C 1.15832 0.41842 0.55347
 H1382 H 1.16608 0.40476 0.54548
 O1383 O 0.89179 0.57838 0.52113
 O1384 O 0.86632 0.60367 0.52114
 C1385 C 0.87405 0.58597 0.52855
 C1386 C 0.86261 0.57431 0.54629
 C1387 C 0.84202 0.58125 0.55343
 H1388 H 0.83423 0.59488 0.54541
 Cu1389 Cu 1.00015 0.40906 0.59115
 Cu1390 Cu 1.00019 0.37860 0.62163
 Cu1391 Cu 1.00017 0.59074 0.59096
 Cu1392 Cu 1.00015 0.62122 0.62143
 Cu1393 Cu 0.90919 0.40903 0.50010
 Cu1394 Cu 0.87878 0.37854 0.50009
 Cu1395 Cu 1.09108 0.40889 0.50001
 Cu1396 Cu 1.12155 0.37842 0.50003
 Cu1397 Cu 0.90923 0.59073 0.49989
 Cu1398 Cu 0.87875 0.62119 0.49989
 Cu1399 Cu 1.09111 0.59080 0.49996
 Cu1400 Cu 1.12153 0.62129 0.49997
 Cu1401 Cu 0.90923 0.49986 0.59102
 Cu1402 Cu 0.87875 0.49994 0.62149
 Cu1403 Cu 1.09119 0.49988 0.59094
 Cu1404 Cu 1.12166 0.49987 0.62142
 C1405 C 1.05704 0.44315 0.62765
 H1406 H 1.05173 0.44844 0.61168
 C1407 C 1.07139 0.42883 0.66868
 C1408 C 0.94338 0.55666 0.62759
 H1409 H 0.94862 0.55141 0.61159
 C1410 C 0.92918 0.57088 0.66871
 C1411 C 0.87266 0.55667 0.55679
 H1412 H 0.88866 0.55142 0.55154
 C1413 C 0.83156 0.57088 0.57097
 C1414 C 1.12774 0.44307 0.55678
 H1415 H 1.11176 0.44834 0.55153
 C1416 C 1.16881 0.42879 0.57099
 C1417 C 1.05700 0.37241 0.55698
 H1418 H 1.05163 0.38831 0.55158
 C1419 C 1.07153 0.33157 0.57159
 C1420 C 0.94332 0.62728 0.55679
 H1421 H 0.94859 0.61129 0.55153
 C1422 C 0.92908 0.66836 0.57099
 C1423 C 0.94331 0.44310 0.62778
 H1424 H 0.94873 0.44848 0.61189
 C1425 C 0.92862 0.42853 0.66860
 C1426 C 1.05704 0.55668 0.62755
 H1427 H 1.05174 0.55139 0.61158
 C1428 C 1.07137 0.57098 0.66859
 C1429 C 0.94336 0.37247 0.55697
 H1430 H 0.94866 0.38842 0.55166
 C1431 C 0.92904 0.33149 0.57135
 C1432 C 1.05693 0.62735 0.55680
 H1433 H 1.05173 0.61134 0.55158
 C1434 C 1.07103 0.66849 0.57093
 C1435 C 0.87256 0.44311 0.55690
 H1436 H 0.88851 0.44841 0.55158
 C1437 C 0.83159 0.42879 0.57131
 C1438 C 1.12775 0.55671 0.55682
 H1439 H 1.11181 0.55139 0.55150
 C1440 C 1.16870 0.57112 0.57121
 O1441 O 0.47863 0.92143 0.39132
 O1442 O 0.47866 0.89614 0.36584
 C1443 C 0.47123 0.91383 0.37357
 C1444 C 0.45346 0.92546 0.36212
 C1445 C 0.44619 0.91837 0.34163
 H1446 H 0.45414 0.90467 0.33390
 O1447 O 0.52110 1.07866 0.39136
 O1448 O 0.52110 1.10399 0.36592
 C1449 C 0.52852 1.08629 0.37363
 C1450 C 0.54629 1.07468 0.36217
 C1451 C 0.55359 1.08180 0.34170
 H1452 H 0.54567 1.09552 0.33399
 O1453 O 0.39154 0.97881 0.42116
 O1454 O 0.36608 0.97883 0.39585
 C1455 C 0.37379 0.97142 0.41357
 C1456 C 0.36234 0.95371 0.42524
 C1457 C 0.34177 0.94656 0.41828
 H1458 H 0.33399 0.95456 0.40463
 O1459 O 0.60813 1.02127 0.42120
 O1460 O 0.63362 1.02129 0.39591
 C1461 C 0.62588 1.02867 0.41363
 C1462 C 0.63734 1.04636 0.42536
 C1463 C 0.65796 1.05346 0.41849
 H1464 H 0.66576 1.04546 0.40485
 O1465 O 0.42132 0.89157 0.47843
 O1466 O 0.39599 0.86617 0.47842
 C1467 C 0.41369 0.87386 0.47099
 C1468 C 0.42531 0.86242 0.45321
 C1469 C 0.41822 0.84196 0.44587
 H1470 H 0.40451 0.83423 0.45379
 O1471 O 0.57836 1.10839 0.47869
 O1472 O 0.60367 1.13383 0.47864
 C1473 C 0.58596 1.12612 0.47125
 C1474 C 0.57428 1.13757 0.45351
 C1475 C 0.58124 1.15812 0.44632
 H1476 H 0.59490 1.16589 0.45431
 O1477 O 0.42140 1.02119 0.39136
 O1478 O 0.39611 1.02123 0.36588
 C1479 C 0.41382 1.02861 0.37361
 C1480 C 0.42549 1.04632 0.36215
 C1481 C 0.41856 1.05344 0.34155
 H1482 H 0.40494 1.04542 0.33376
 O1483 O 0.57834 0.97887 0.39132
 O1484 O 0.60366 0.97885 0.36587
 C1485 C 0.58595 0.97145 0.37358
 C1486 C 0.57432 0.95370 0.36213
 C1487 C 0.58134 0.94646 0.34159
 H1488 H 0.59501 0.95443 0.33383
 O1489 O 0.52108 0.89162 0.42115
 O1490 O 0.52114 0.86618 0.39581
 C1491 C 0.52852 0.87389 0.41354
 C1492 C 0.54625 0.86245 0.42521
 C1493 C 0.55346 0.84190 0.41823
 H1494 H 0.54549 0.83414 0.40455
 O1495 O 0.47860 1.10839 0.42121
 O1496 O 0.47855 1.13385 0.39590
 C1497 C 0.47116 1.12612 0.41362
 C1498 C 0.45342 1.13756 0.42529
 C1499 C 0.44618 1.15808 0.41828
 H1500 H 0.45412 1.16584 0.40459
 O1501 O 0.39148 1.07859 0.47858
 O1502 O 0.36603 1.10390 0.47855
 C1503 C 0.37375 1.08621 0.47113
 C1504 C 0.36234 1.07458 0.45333
 C1505 C 0.34186 1.08165 0.44601
 H1506 H 0.33410 1.09534 0.45394
 O1507 O 0.60817 0.92146 0.47850
 O1508 O 0.63365 0.89617 0.47849
 C1509 C 0.62591 0.91387 0.47108
 C1510 C 0.63735 0.92553 0.45333
 C1511 C 0.65788 0.91853 0.44610
 H1512 H 0.66565 0.90485 0.45405
 O1513 O 0.47867 1.07858 0.39138
 O1514 O 0.47861 1.10389 0.36592
 C1515 C 0.47125 1.08617 0.37363
 C1516 C 0.45356 1.07447 0.36215
 C1517 C 0.44640 1.08139 0.34155
 H1518 H 0.45437 1.09504 0.33376
 O1519 O 0.52108 0.92144 0.39133
 O1520 O 0.52114 0.89616 0.36585
 C1521 C 0.52852 0.91386 0.37359
 C1522 C 0.54624 0.92554 0.36214
 C1523 C 0.55349 0.91853 0.34161
 H1524 H 0.54556 0.90483 0.33385
 O1525 O 0.60815 0.97883 0.42113
 O1526 O 0.63362 0.97881 0.39583
 C1527 C 0.62589 0.97141 0.41354
 C1528 C 0.63733 0.95366 0.42520
 C1529 C 0.65786 0.94644 0.41819
 H1530 H 0.66562 0.95441 0.40451
 O1531 O 0.39156 1.02126 0.42114
 O1532 O 0.36612 1.02131 0.39580
 C1533 C 0.37383 1.02871 0.41352
 C1534 C 0.36240 1.04647 0.42517
 C1535 C 0.34191 1.05376 0.41808
 H1536 H 0.33419 1.04583 0.40436
 O1537 O 0.42127 1.10838 0.47862
 O1538 O 0.39597 1.13385 0.47860
 C1539 C 0.41367 1.12612 0.47120
 C1540 C 0.42532 1.13756 0.45345
 C1541 C 0.41830 1.15809 0.44622
 H1542 H 0.40463 1.16584 0.45419
 O1543 O 0.57841 0.89164 0.47851
 O1544 O 0.60373 0.86619 0.47850
 C1545 C 0.58602 0.87390 0.47110
 C1546 C 0.57437 0.86245 0.45335
 C1547 C 0.58136 0.84190 0.44615
 H1548 H 0.59503 0.83414 0.45412
 O1549 O 0.57841 1.02133 0.39128
 O1550 O 0.60374 1.02136 0.36585
 C1551 C 0.58604 1.02877 0.37356
 C1552 C 0.57442 1.04655 0.36213
 C1553 C 0.58150 1.05389 0.34165
 H1554 H 0.59522 1.04598 0.33390
 O1555 O 0.42128 0.97875 0.39128
 O1556 O 0.39597 0.97875 0.36582
 C1557 C 0.41367 0.97133 0.37354
 C1558 C 0.42531 0.95356 0.36210
 C1559 C 0.41824 0.94624 0.34160
 H1560 H 0.40452 0.95415 0.33385
 O1561 O 0.52105 1.10839 0.42125
 O1562 O 0.52104 1.13387 0.39597
 C1563 C 0.52844 1.12614 0.41368
 C1564 C 0.54616 1.13758 0.42536
 C1565 C 0.55334 1.15813 0.41840
 H1566 H 0.54536 1.16590 0.40473
 O1567 O 0.47863 0.89159 0.42109
 O1568 O 0.47865 0.86616 0.39575
 C1569 C 0.47122 0.87386 0.41346
 C1570 C 0.45345 0.86243 0.42508
 C1571 C 0.44614 0.84196 0.41797
 H1572 H 0.45407 0.83424 0.40424
 O1573 O 0.60814 1.07856 0.47869
 O1574 O 0.63360 1.10383 0.47866
 C1575 C 0.62588 1.08613 0.47126
 C1576 C 0.63733 1.07444 0.45354
 C1577 C 0.65795 1.08132 0.44645
 H1578 H 0.66574 1.09492 0.45449
 O1579 O 0.39156 0.92143 0.47847
 O1580 O 0.36608 0.89618 0.47847
 C1581 C 0.37380 0.91387 0.47107
 C1582 C 0.36234 0.92557 0.45335
 C1583 C 0.34178 0.91864 0.44618
 H1584 H 0.33400 0.90498 0.45415
 Cu1585 Cu 0.49986 0.90905 0.40876
 Cu1586 Cu 0.49991 0.87861 0.37826
 Cu1587 Cu 0.49986 1.09097 0.40883
 Cu1588 Cu 0.49982 1.12146 0.37838
 Cu1589 Cu 0.40898 0.99999 0.40877
 Cu1590 Cu 0.37852 1.00004 0.37829
 Cu1591 Cu 0.59072 1.00008 0.40876
 Cu1592 Cu 0.62121 1.00008 0.37831
 C1593 C 0.44305 0.94318 0.37211
 H1594 H 0.44840 0.94855 0.38804
 C1595 C 0.42859 0.92866 0.33120
 C1596 C 0.55668 1.05693 0.37214
 H1597 H 0.55132 1.05155 0.38806
 C1598 C 0.57119 1.07150 0.33126
 C1599 C 0.37238 0.94324 0.44291
 H1600 H 0.38836 0.94848 0.44817
 C1601 C 0.33131 0.92904 0.42866
 C1602 C 0.62727 1.05683 0.44302
 H1603 H 0.61126 1.05162 0.44822
 C1604 C 0.66844 1.07092 0.42895
 C1605 C 0.44305 0.87241 0.44283
 H1606 H 0.44842 0.88831 0.44821
 C1607 C 0.42854 0.83155 0.42826
 C1608 C 0.55661 1.12754 0.44305
 H1609 H 0.55134 1.11157 0.44833
 C1610 C 0.57086 1.16858 0.42878
 C1611 C 0.44312 1.05680 0.37220
 H1612 H 0.44837 1.05157 0.38821
 C1613 C 0.42892 1.07096 0.33107
 C1614 C 0.55663 0.94326 0.37216
 H1615 H 0.55132 0.94856 0.38811
 C1616 C 0.57103 0.92889 0.33116
 C1617 C 0.55668 0.87247 0.44291
 H1618 H 0.55139 0.88844 0.44819
 C1619 C 0.57100 0.83145 0.42860
 C1620 C 0.44302 1.12754 0.44301
 H1621 H 0.44833 1.11159 0.44831
 C1622 C 0.42863 1.16852 0.42865
 C1623 C 0.37237 1.05686 0.44292
 H1624 H 0.38829 1.05151 0.44829
 C1625 C 0.33147 1.07133 0.42840
 C1626 C 0.62732 0.94322 0.44290
 H1627 H 0.61136 0.94852 0.44820
 C1628 C 0.66832 0.92889 0.42854
 O1629 O 0.52100 0.92144 0.60820
 O1630 O 0.52105 0.89614 0.63367
 C1631 C 0.52843 0.91385 0.62595
 C1632 C 0.54613 0.92553 0.63742
 C1633 C 0.55328 0.91860 0.65801
 H1634 H 0.54530 0.90495 0.66580
 O1635 O 0.47871 1.07850 0.60833
 O1636 O 0.47866 1.10381 0.63380
 C1637 C 0.47128 1.08610 0.62608
 C1638 C 0.45355 1.07444 0.63752
 C1639 C 0.44636 1.08143 0.65808
 H1640 H 0.45435 1.09508 0.66585
 O1641 O 0.39149 1.02131 0.57846
 O1642 O 0.36604 1.02131 0.60377
 C1643 C 0.37375 1.02873 0.58606
 C1644 C 0.36230 1.04648 0.57442
 C1645 C 0.34182 1.05377 0.58150
 H1646 H 0.33410 1.04585 0.59523
 O1647 O 0.60815 0.97881 0.57844
 O1648 O 0.63361 0.97872 0.60375
 C1649 C 0.62588 0.97136 0.58602
 C1650 C 0.63734 0.95365 0.57432
 C1651 C 0.65792 0.94649 0.58125
 H1652 H 0.66570 0.95447 0.59491
 O1653 O 0.57839 0.89167 0.52098
 O1654 O 0.60371 0.86623 0.52102
 C1655 C 0.58600 0.87394 0.52841
 C1656 C 0.57433 0.86249 0.54615
 C1657 C 0.58129 0.84192 0.55331
 H1658 H 0.59494 0.83414 0.54532
 O1659 O 0.42126 1.10834 0.52111
 O1660 O 0.39597 1.13381 0.52113
 C1661 C 0.41367 1.12608 0.52854
 C1662 C 0.42532 1.13750 0.54632
 C1663 C 0.41831 1.15803 0.55356
 H1664 H 0.40463 1.16580 0.54560
 O1665 O 0.42130 0.97883 0.60824
 O1666 O 0.39598 0.97878 0.63368
 C1667 C 0.41369 0.97139 0.62597
 C1668 C 0.42533 0.95363 0.63741
 C1669 C 0.41831 0.94642 0.65795
 H1670 H 0.40465 0.95441 0.66571
 O1671 O 0.57842 1.02127 0.60835
 O1672 O 0.60375 1.02122 0.63379
 C1673 C 0.58606 1.02867 0.62609
 C1674 C 0.57448 1.04647 0.63754
 C1675 C 0.58165 1.05381 0.65799
 H1676 H 0.59539 1.04588 0.66568
 O1677 O 0.47859 0.89160 0.57839
 O1678 O 0.47859 0.86614 0.60370
 C1679 C 0.47119 0.87386 0.58598
 C1680 C 0.45347 0.86241 0.57429
 C1681 C 0.44625 0.84188 0.58128
 H1682 H 0.45418 0.83411 0.59498
 O1683 O 0.52111 1.10836 0.57853
 O1684 O 0.52108 1.13382 0.60384
 C1685 C 0.52849 1.12611 0.58613
 C1686 C 0.54622 1.13756 0.57447
 C1687 C 0.55343 1.15808 0.58150
 H1688 H 0.54547 1.16582 0.59520
 O1689 O 0.39162 0.92146 0.52094
 O1690 O 0.36614 0.89620 0.52097
 C1691 C 0.37387 0.91390 0.52836
 C1692 C 0.36242 0.92560 0.54609
 C1693 C 0.34183 0.91870 0.55321
 H1694 H 0.33405 0.90506 0.54521
 O1695 O 0.60819 1.07860 0.52116
 O1696 O 0.63365 1.10389 0.52117
 C1697 C 0.62593 1.08619 0.52858
 C1698 C 0.63738 1.07453 0.54634
 C1699 C 0.65790 1.08152 0.55359
 H1700 H 0.66566 1.09521 0.54565
 O1701 O 0.52116 1.07862 0.60842
 O1702 O 0.52115 1.10394 0.63387
 C1703 C 0.52859 1.08624 0.62616
 C1704 C 0.54638 1.07463 0.63759
 C1705 C 0.55378 1.08175 0.65803
 H1706 H 0.54591 1.09550 0.66577
 O1707 O 0.47856 0.92140 0.60821
 O1708 O 0.47856 0.89610 0.63368
 C1709 C 0.47115 0.91380 0.62596
 C1710 C 0.45341 0.92546 0.63741
 C1711 C 0.44618 0.91847 0.65796
 H1712 H 0.45411 0.90478 0.66572
 O1713 O 0.60817 1.02125 0.57848
 O1714 O 0.63364 1.02119 0.60378
 C1715 C 0.62592 1.02863 0.58608
 C1716 C 0.63737 1.04637 0.57445
 C1717 C 0.65788 1.05359 0.58148
 H1718 H 0.66563 1.04561 0.59516
 O1719 O 0.39157 0.97887 0.57835
 O1720 O 0.36610 0.97883 0.60365
 C1721 C 0.37383 0.97145 0.58593
 C1722 C 0.36240 0.95373 0.57422
 C1723 C 0.34180 0.94661 0.58112
 H1724 H 0.33400 0.95461 0.59476
 O1725 O 0.57839 1.10841 0.52116
 O1726 O 0.60369 1.13385 0.52117
 C1727 C 0.58599 1.12614 0.52858
 C1728 C 0.57434 1.13759 0.54634
 C1729 C 0.58134 1.15811 0.55359
 H1730 H 0.59502 1.16587 0.54564
 O1731 O 0.42137 0.89159 0.52092
 O1732 O 0.39604 0.86618 0.52095
 C1733 C 0.41375 0.87387 0.52835
 C1734 C 0.42539 0.86242 0.54610
 C1735 C 0.41839 0.84189 0.55331
 H1736 H 0.40473 0.83414 0.54531
 O1737 O 0.57832 0.97882 0.60825
 O1738 O 0.60363 0.97873 0.63372
 C1739 C 0.58592 0.97137 0.62599
 C1740 C 0.57424 0.95366 0.63744
 C1741 C 0.58116 0.94650 0.65803
 H1742 H 0.59480 0.95449 0.66583
 O1743 O 0.42131 1.02127 0.60828
 O1744 O 0.39600 1.02127 0.63374
 C1745 C 0.41371 1.02867 0.62604
 C1746 C 0.42538 1.04638 0.63751
 C1747 C 0.41841 1.05360 0.65807
 H1748 H 0.40472 1.04566 0.66584
 O1749 O 0.47866 1.10832 0.57853
 O1750 O 0.47859 1.13377 0.60385
 C1751 C 0.47120 1.12605 0.58613
 C1752 C 0.45345 1.13748 0.57446
 C1753 C 0.44622 1.15800 0.58148
 H1754 H 0.45418 1.16575 0.59517
 O1755 O 0.52103 0.89165 0.57837
 O1756 O 0.52108 0.86619 0.60368
 C1757 C 0.52847 0.87391 0.58596
 C1758 C 0.54621 0.86248 0.57429
 C1759 C 0.55338 0.84191 0.58123
 H1760 H 0.54539 0.83413 0.59488
 O1761 O 0.60817 0.92148 0.52098
 O1762 O 0.63364 0.89619 0.52101
 C1763 C 0.62591 0.91389 0.52841
 C1764 C 0.63735 0.92556 0.54615
 C1765 C 0.65793 0.91862 0.55330
 H1766 H 0.66572 0.90499 0.54529
 O1767 O 0.39143 1.07860 0.52106
 O1768 O 0.36598 1.10391 0.52108
 C1769 C 0.37369 1.08621 0.52849
 C1770 C 0.36227 1.07458 0.54626
 C1771 C 0.34178 1.08165 0.55357
 H1772 H 0.33404 1.09536 0.54563
 Cu1773 Cu 0.49979 0.90906 0.59076
 Cu1774 Cu 0.49983 0.87859 0.62123
 Cu1775 Cu 0.49992 1.09091 0.59092
 Cu1776 Cu 0.49986 1.12138 0.62139
 Cu1777 Cu 0.40901 0.90904 0.49968
 Cu1778 Cu 0.37851 0.87863 0.49971
 Cu1779 Cu 0.59075 0.90910 0.49974
 Cu1780 Cu 0.62124 0.87865 0.49976
 Cu1781 Cu 0.40889 1.09094 0.49984
 Cu1782 Cu 0.37844 1.12142 0.49984
 Cu1783 Cu 0.59074 1.09096 0.49993
 Cu1784 Cu 0.62120 1.12140 0.49990
 Cu1785 Cu 0.40896 1.00008 0.59080
 Cu1786 Cu 0.37848 1.00004 0.62126
 Cu1787 Cu 0.59073 1.00004 0.59085
 Cu1788 Cu 0.62121 0.99995 0.62131
 C1789 C 0.55659 0.94319 0.62737
 H1790 H 0.55134 0.94844 0.61137
 C1791 C 0.57078 0.92899 0.66850
 C1792 C 0.44309 1.05678 0.62748
 H1793 H 0.44837 1.05150 0.61151
 C1794 C 0.42881 1.07111 0.66853
 C1795 C 0.37228 1.05686 0.55667
 H1796 H 0.38820 1.05151 0.55131
 C1797 C 0.33139 1.07135 0.57118
 C1798 C 0.62730 0.94321 0.55663
 H1799 H 0.61130 0.94846 0.55138
 C1800 C 0.66839 0.92900 0.57083
 C1801 C 0.55666 0.87252 0.55661
 H1802 H 0.55139 0.88851 0.55135
 C1803 C 0.57090 0.83145 0.57084
 C1804 C 0.44302 1.12747 0.55675
 H1805 H 0.44833 1.11152 0.55143
 C1806 C 0.42867 1.16846 0.57113
 C1807 C 0.44301 0.94318 0.62739
 H1808 H 0.44832 0.94848 0.61142
 C1809 C 0.42864 0.92886 0.66840
 C1810 C 0.55672 1.05685 0.62759
 H1811 H 0.55129 1.05146 0.61170
 C1812 C 0.57141 1.07144 0.66841
 C1813 C 0.44307 0.87244 0.55657
 H1814 H 0.44836 0.88839 0.55128
 C1815 C 0.42872 0.83144 0.57088
 C1816 C 0.55665 1.12756 0.55676
 H1817 H 0.55135 1.11162 0.55144
 C1818 C 0.57098 1.16853 0.57116
 C1819 C 0.37247 0.94325 0.55657
 H1820 H 0.38847 0.94848 0.55134
 C1821 C 0.33134 0.92911 0.57071
 C1822 C 0.62736 1.05682 0.55674
 H1823 H 0.61141 1.05152 0.55142
 C1824 C 0.66833 1.07115 0.57115
 O1825 O 0.47879 0.42134 0.89185
 O1826 O 0.47875 0.39605 0.86638
 C1827 C 0.47136 0.41376 0.87410
 C1828 C 0.45364 0.42544 0.86264
 C1829 C 0.44647 0.41845 0.84208
 H1830 H 0.45446 0.40479 0.83433
 O1831 O 0.52108 0.57846 0.89184
 O1832 O 0.52113 0.60375 0.86636
 C1833 C 0.52852 0.58604 0.87410
 C1834 C 0.54624 0.57434 0.86265
 C1835 C 0.55340 0.58128 0.84206
 H1836 H 0.54542 0.59493 0.83428
 O1837 O 0.39158 0.47879 0.92156
 O1838 O 0.36613 0.47878 0.89623
 C1839 C 0.37384 0.47139 0.91396
 C1840 C 0.36238 0.45368 0.92563
 C1841 C 0.34182 0.44652 0.91865
 H1842 H 0.33406 0.45450 0.90497
 O1843 O 0.60827 0.52098 0.92163
 O1844 O 0.63371 0.52104 0.89631
 C1845 C 0.62599 0.52842 0.91403
 C1846 C 0.63742 0.54615 0.92571
 C1847 C 0.65799 0.55333 0.91877
 H1848 H 0.66579 0.54534 0.90512
 O1849 O 0.42132 0.39161 0.97888
 O1850 O 0.39601 0.36619 0.97886
 C1851 C 0.41371 0.37388 0.97146
 C1852 C 0.42536 0.36242 0.95371
 C1853 C 0.41831 0.34192 0.94645
 H1854 H 0.40460 0.33420 0.95438
 O1855 O 0.57838 0.60824 0.97899
 O1856 O 0.60369 0.63367 0.97898
 C1857 C 0.58598 0.62597 0.97157
 C1858 C 0.57432 0.63744 0.95385
 C1859 C 0.58127 0.65801 0.94670
 H1860 H 0.59491 0.66577 0.95470
 O1861 O 0.42140 0.52118 0.89172
 O1862 O 0.39611 0.52120 0.86624
 C1863 C 0.41381 0.52859 0.87397
 C1864 C 0.42546 0.54632 0.86251
 C1865 C 0.41847 0.55350 0.84195
 H1866 H 0.40482 0.54552 0.83418
 O1867 O 0.57850 0.47856 0.89176
 O1868 O 0.60379 0.47858 0.86629
 C1869 C 0.58610 0.47116 0.87401
 C1870 C 0.57448 0.45340 0.86256
 C1871 C 0.58152 0.44614 0.84205
 H1872 H 0.59521 0.45408 0.83429
 O1873 O 0.52122 0.39145 0.92164
 O1874 O 0.52122 0.36601 0.89631
 C1875 C 0.52863 0.37372 0.91402
 C1876 C 0.54639 0.36226 0.92566
 C1877 C 0.55369 0.34179 0.91856
 H1878 H 0.54576 0.33407 0.90484
 O1879 O 0.47862 0.60832 0.92159
 O1880 O 0.47862 0.63376 0.89627
 C1881 C 0.47121 0.62605 0.91399
 C1882 C 0.45347 0.63751 0.92566
 C1883 C 0.44623 0.65804 0.91866
 H1884 H 0.45416 0.66580 0.90496
 O1885 O 0.39157 0.57856 0.97899
 O1886 O 0.36610 0.60386 0.97896
 C1887 C 0.37384 0.58616 0.97154
 C1888 C 0.36242 0.57452 0.95376
 C1889 C 0.34190 0.58156 0.94650
 H1890 H 0.33414 0.59523 0.95447
 O1891 O 0.60841 0.42117 0.97892
 O1892 O 0.63386 0.39586 0.97891
 C1893 C 0.62614 0.41355 0.97148
 C1894 C 0.63754 0.42517 0.95367
 C1895 C 0.65799 0.41806 0.94628
 H1896 H 0.66573 0.40432 0.95416
 O1897 O 0.47865 0.57854 0.89174
 O1898 O 0.47865 0.60383 0.86626
 C1899 C 0.47125 0.58613 0.87398
 C1900 C 0.45353 0.57447 0.86251
 C1901 C 0.44633 0.58143 0.84195
 H1902 H 0.45427 0.59511 0.83418
 O1903 O 0.52123 0.42122 0.89178
 O1904 O 0.52123 0.39593 0.86630
 C1905 C 0.52864 0.41362 0.87402
 C1906 C 0.54639 0.42526 0.86257
 C1907 C 0.55366 0.41822 0.84205
 H1908 H 0.54573 0.40452 0.83431
 O1909 O 0.60830 0.47853 0.92159
 O1910 O 0.63373 0.47855 0.89625
 C1911 C 0.62603 0.47111 0.91396
 C1912 C 0.63748 0.45332 0.92556
 C1913 C 0.65792 0.44599 0.91839
 H1914 H 0.66561 0.45392 0.90465
 O1915 O 0.39161 0.52123 0.92155
 O1916 O 0.36617 0.52126 0.89622
 C1917 C 0.37388 0.52867 0.91394
 C1918 C 0.36244 0.54642 0.92559
 C1919 C 0.34193 0.55368 0.91856
 H1920 H 0.33418 0.54574 0.90485
 O1921 O 0.42137 0.60834 0.97903
 O1922 O 0.39605 0.63379 0.97900
 C1923 C 0.41376 0.62608 0.97160
 C1924 C 0.42540 0.63752 0.95384
 C1925 C 0.41838 0.65804 0.94663
 H1926 H 0.40471 0.66580 0.95461
 O1927 O 0.57858 0.39141 0.97897
 O1928 O 0.60388 0.36595 0.97897
 C1929 C 0.58617 0.37367 0.97155
 C1930 C 0.57453 0.36224 0.95379
 C1931 C 0.58160 0.34177 0.94647
 H1932 H 0.59532 0.33403 0.95439
 O1933 O 0.57844 0.52101 0.89183
 O1934 O 0.60373 0.52107 0.86635
 C1935 C 0.58602 0.52845 0.87409
 C1936 C 0.57434 0.54619 0.86264
 C1937 C 0.58128 0.55334 0.84206
 H1938 H 0.59492 0.54535 0.83427
 O1939 O 0.42141 0.47874 0.89177
 O1940 O 0.39612 0.47871 0.86628
 C1941 C 0.41382 0.47131 0.87402
 C1942 C 0.42550 0.45356 0.86259
 C1943 C 0.41855 0.44634 0.84202
 H1944 H 0.40488 0.45430 0.83422
 O1945 O 0.52106 0.60831 0.92160
 O1946 O 0.52111 0.63376 0.89628
 C1947 C 0.52849 0.62604 0.91401
 C1948 C 0.54621 0.63748 0.92570
 C1949 C 0.55337 0.65805 0.91877
 H1950 H 0.54539 0.66584 0.90511
 O1951 O 0.47876 0.39147 0.92160
 O1952 O 0.47871 0.36603 0.89627
 C1953 C 0.47131 0.37376 0.91398
 C1954 C 0.45353 0.36235 0.92562
 C1955 C 0.44627 0.34185 0.91858
 H1956 H 0.45423 0.33408 0.90490
 O1957 O 0.60817 0.57840 0.97897
 O1958 O 0.63362 0.60368 0.97895
 C1959 C 0.62591 0.58598 0.97155
 C1960 C 0.63737 0.57430 0.95383
 C1961 C 0.65794 0.58125 0.94667
 H1962 H 0.66569 0.59491 0.95466
 O1963 O 0.39155 0.42147 0.97892
 O1964 O 0.36609 0.39619 0.97890
 C1965 C 0.37380 0.41389 0.97150
 C1966 C 0.36235 0.42556 0.95377
 C1967 C 0.34180 0.41861 0.94656
 H1968 H 0.33402 0.40496 0.95454
 Cu1969 Cu 0.50000 0.40890 0.90926
 Cu1970 Cu 0.49997 0.37846 0.87876
 Cu1971 Cu 0.49985 0.59088 0.90923
 Cu1972 Cu 0.49988 0.62133 0.87874
 Cu1973 Cu 0.40903 0.49999 0.90919
 Cu1974 Cu 0.37858 0.49998 0.87869
 Cu1975 Cu 0.59084 0.49977 0.90924
 Cu1976 Cu 0.62129 0.49982 0.87875
 C1977 C 0.44318 0.44312 0.87266
 H1978 H 0.44844 0.44841 0.88864
 C1979 C 0.42894 0.42880 0.83159
 C1980 C 0.55669 0.55666 0.87270
 H1981 H 0.55143 0.55141 0.88869
 C1982 C 0.57090 0.57087 0.83159
 C1983 C 0.37240 0.44323 0.94332
 H1984 H 0.38837 0.44849 0.94860
 C1985 C 0.33135 0.42900 0.92902
 C1986 C 0.62736 0.55662 0.94337
 H1987 H 0.61138 0.55135 0.94863
 C1988 C 0.66842 0.57086 0.92916
 C1989 C 0.44310 0.37239 0.94331
 H1990 H 0.44844 0.38832 0.94864
 C1991 C 0.42867 0.33146 0.92889
 C1992 C 0.55665 0.62742 0.94337
 H1993 H 0.55139 0.61144 0.94862
 C1994 C 0.57088 0.66849 0.92918
 C1995 C 0.44312 0.55677 0.87255
 H1996 H 0.44841 0.55150 0.88853
 C1997 C 0.42881 0.57104 0.83149
 C1998 C 0.55677 0.44298 0.87258
 H1999 H 0.55144 0.44832 0.88852
 C2000 C 0.57122 0.42856 0.83162
 C2001 C 0.55679 0.37224 0.94340
 H2002 H 0.55143 0.38816 0.94877
 C2003 C 0.57128 0.33137 0.92886
 C2004 C 0.44308 0.62749 0.94338
 H2005 H 0.44839 0.61154 0.94868
 C2006 C 0.42870 0.66848 0.92905
 C2007 C 0.37244 0.55683 0.94333
 H2008 H 0.38838 0.55150 0.94866
 C2009 C 0.33148 0.57123 0.92892
 C2010 C 0.62754 0.44294 0.94333
 H2011 H 0.61165 0.44832 0.94875
 C2012 C 0.66835 0.42837 0.92864
 O2013 O 0.52111 0.42133 1.10870
 O2014 O 0.52112 0.39602 1.13416
 C2015 C 0.52853 0.41372 1.12644
 C2016 C 0.54627 0.42537 1.13789
 C2017 C 0.55350 0.41837 1.15844
 H2018 H 0.54554 0.40471 1.16622
 O2019 O 0.47864 0.57844 1.10868
 O2020 O 0.47865 0.60373 1.13416
 C2021 C 0.47123 0.58604 1.12643
 C2022 C 0.45348 0.57443 1.13788
 C2023 C 0.44620 0.58152 1.15837
 H2024 H 0.45415 0.59523 1.16609
 O2025 O 0.39153 0.52119 1.07886
 O2026 O 0.36607 0.52122 1.10417
 C2027 C 0.37379 0.52862 1.08646
 C2028 C 0.36236 0.54638 1.07480
 C2029 C 0.34186 0.55367 1.08185
 H2030 H 0.33411 0.54575 1.09556
 O2031 O 0.60831 0.47855 1.07883
 O2032 O 0.63376 0.47854 1.10416
 C2033 C 0.62605 0.47113 1.08644
 C2034 C 0.63750 0.45338 1.07479
 C2035 C 0.65800 0.44611 1.08185
 H2036 H 0.66573 0.45404 1.09557
 O2037 O 0.57858 0.39147 1.02145
 O2038 O 0.60388 0.36600 1.02150
 C2039 C 0.58618 0.37374 1.02891
 C2040 C 0.57454 0.36234 1.04670
 C2041 C 0.58160 0.34187 1.05403
 H2042 H 0.59532 0.33411 1.04612
 O2043 O 0.42130 0.60837 1.02151
 O2044 O 0.39599 0.63381 1.02153
 C2045 C 0.41369 0.62609 1.02895
 C2046 C 0.42531 0.63751 1.04674
 C2047 C 0.41824 0.65799 1.05407
 H2048 H 0.40453 0.66574 1.04615
 O2049 O 0.42133 0.47871 1.10866
 O2050 O 0.39601 0.47869 1.13411
 C2051 C 0.41372 0.47127 1.12639
 C2052 C 0.42534 0.45349 1.13782
 C2053 C 0.41824 0.44620 1.15831
 H2054 H 0.40454 0.45415 1.16604
 O2055 O 0.57848 0.52103 1.10862
 O2056 O 0.60379 0.52107 1.13408
 C2057 C 0.58608 0.52846 1.12636
 C2058 C 0.57443 0.54621 1.13780
 C2059 C 0.58145 0.55345 1.15834
 H2060 H 0.59514 0.54549 1.16609
 O2061 O 0.47872 0.39154 1.07880
 O2062 O 0.47868 0.36606 1.10409
 C2063 C 0.47130 0.37380 1.08637
 C2064 C 0.45359 0.36237 1.07465
 C2065 C 0.44642 0.34179 1.08155
 H2066 H 0.45438 0.33397 1.09520
 O2067 O 0.52107 0.60824 1.07885
 O2068 O 0.52112 0.63368 1.10418
 C2069 C 0.52850 0.62597 1.08645
 C2070 C 0.54623 0.63740 1.07478
 C2071 C 0.55344 0.65794 1.08178
 H2072 H 0.54547 0.66570 1.09546
 O2073 O 0.39155 0.42144 1.02140
 O2074 O 0.36611 0.39615 1.02142
 C2075 C 0.37382 0.41385 1.02883
 C2076 C 0.36237 0.42550 1.04658
 C2077 C 0.34184 0.41851 1.05378
 H2078 H 0.33408 0.40484 1.04579
 O2079 O 0.60817 0.57838 1.02144
 O2080 O 0.63363 0.60365 1.02146
 C2081 C 0.62592 0.58595 1.02885
 C2082 C 0.63739 0.57426 1.04656
 C2083 C 0.65799 0.58117 1.05367
 H2084 H 0.66575 0.59481 1.04566
 O2085 O 0.52110 0.57842 1.10865
 O2086 O 0.52115 0.60370 1.13413
 C2087 C 0.52854 0.58600 1.12639
 C2088 C 0.54630 0.57434 1.13782
 C2089 C 0.55354 0.58135 1.15836
 H2090 H 0.54559 0.59503 1.16612
 O2091 O 0.47866 0.42130 1.10868
 O2092 O 0.47861 0.39598 1.13412
 C2093 C 0.47121 0.41369 1.12641
 C2094 C 0.45343 0.42533 1.13784
 C2095 C 0.44611 0.41826 1.15833
 H2096 H 0.45401 0.40454 1.16608
 O2097 O 0.60828 0.52099 1.07879
 O2098 O 0.63374 0.52103 1.10410
 C2099 C 0.62602 0.52841 1.08638
 C2100 C 0.63745 0.54613 1.07469
 C2101 C 0.65805 0.55327 1.08159
 H2102 H 0.66586 0.54527 1.09522
 O2103 O 0.39152 0.47875 1.07885
 O2104 O 0.36605 0.47873 1.10415
 C2105 C 0.37378 0.47133 1.08643
 C2106 C 0.36234 0.45360 1.07475
 C2107 C 0.34180 0.44638 1.08172
 H2108 H 0.33403 0.45434 1.09540
 O2109 O 0.57840 0.60822 1.02146
 O2110 O 0.60371 0.63364 1.02149
 C2111 C 0.58600 0.62594 1.02889
 C2112 C 0.57435 0.63739 1.04665
 C2113 C 0.58134 0.65793 1.05386
 H2114 H 0.59501 0.66568 1.04589
 O2115 O 0.42140 0.39167 1.02136
 O2116 O 0.39610 0.36623 1.02138
 C2117 C 0.41382 0.37393 1.02877
 C2118 C 0.42549 0.36245 1.04649
 C2119 C 0.41854 0.34188 1.05360
 H2120 H 0.40490 0.33413 1.04557
 O2121 O 0.57848 0.47858 1.10864
 O2122 O 0.60378 0.47858 1.13411
 C2123 C 0.58608 0.47118 1.12639
 C2124 C 0.57441 0.45346 1.13786
 C2125 C 0.58142 0.44624 1.15841
 H2126 H 0.59511 0.45419 1.16616
 O2127 O 0.42129 0.52116 1.10873
 O2128 O 0.39598 0.52119 1.13419
 C2129 C 0.41369 0.52859 1.12648
 C2130 C 0.42533 0.54634 1.13792
 C2131 C 0.41827 0.55367 1.15841
 H2132 H 0.40455 0.54577 1.16617
 O2133 O 0.47862 0.60828 1.07889
 O2134 O 0.47863 0.63371 1.10423
 C2135 C 0.47120 0.62601 1.08651
 C2136 C 0.45344 0.63746 1.07489
 C2137 C 0.44614 0.65794 1.08199
 H2138 H 0.45407 0.66565 1.09572
 O2139 O 0.52118 0.39155 1.07886
 O2140 O 0.52119 0.36609 1.10416
 C2141 C 0.52861 0.37382 1.08646
 C2142 C 0.54639 0.36238 1.07483
 C2143 C 0.55369 0.34191 1.08193
 H2144 H 0.54575 0.33419 1.09565
 O2145 O 0.60839 0.42125 1.02141
 O2146 O 0.63384 0.39593 1.02145
 C2147 C 0.62612 0.41364 1.02885
 C2148 C 0.63754 0.42528 1.04662
 C2149 C 0.65804 0.41824 1.05390
 H2150 H 0.66579 0.40455 1.04595
 O2151 O 0.39155 0.57853 1.02147
 O2152 O 0.36609 0.60383 1.02148
 C2153 C 0.37381 0.58613 1.02889
 C2154 C 0.36237 0.57449 1.04665
 C2155 C 0.34188 0.58155 1.05391
 H2156 H 0.33414 0.59525 1.04596
 Cu2157 Cu 0.49991 0.40897 1.09123
 Cu2158 Cu 0.49990 0.37849 1.12168
 Cu2159 Cu 0.49985 0.59081 1.09123
 Cu2160 Cu 0.49989 0.62125 1.12173
 Cu2161 Cu 0.40899 0.40908 1.00013
 Cu2162 Cu 0.37852 0.37864 1.00014
 Cu2163 Cu 0.59096 0.40886 1.00018
 Cu2164 Cu 0.62141 0.37838 1.00021
 Cu2165 Cu 0.40899 0.59092 1.00025
 Cu2166 Cu 0.37851 0.62137 1.00024
 Cu2167 Cu 0.59074 0.59078 1.00021
 Cu2168 Cu 0.62122 0.62121 1.00022
 Cu2169 Cu 0.40895 0.49996 1.09124
 Cu2170 Cu 0.37848 0.49995 1.12170
 Cu2171 Cu 0.59085 0.49979 1.09118
 Cu2172 Cu 0.62132 0.49980 1.12167
 C2173 C 0.55671 0.44305 1.12785
 H2174 H 0.55140 0.44834 1.11188
 C2175 C 0.57106 0.42871 1.16887
 C2176 C 0.44307 0.55670 1.12790
 H2177 H 0.44841 0.55133 1.11197
 C2178 C 0.42861 0.57125 1.16881
 C2179 C 0.37237 0.55677 1.05707
 H2180 H 0.38830 0.55142 1.05174
 C2181 C 0.33145 0.57125 1.07150
 C2182 C 0.62752 0.44299 1.05704
 H2183 H 0.61158 0.44832 1.05170
 C2184 C 0.66844 0.42855 1.07151
 C2185 C 0.55680 0.37236 1.05709
 H2186 H 0.55144 0.38827 1.05171
 C2187 C 0.57128 0.33148 1.07164
 C2188 C 0.44304 0.62750 1.05713
 H2189 H 0.44840 0.61158 1.05176
 C2190 C 0.42856 0.66838 1.07168
 C2191 C 0.44306 0.44308 1.12783
 H2192 H 0.44843 0.44843 1.11191
 C2193 C 0.42852 0.42860 1.16874
 C2194 C 0.55672 0.55664 1.12779
 H2195 H 0.55140 0.55133 1.11183
 C2196 C 0.57111 0.57100 1.16879
 C2197 C 0.44315 0.37246 1.05699
 H2198 H 0.44841 0.38845 1.05176
 C2199 C 0.42891 0.33136 1.07111
 C2200 C 0.55666 0.62738 1.05708
 H2201 H 0.55137 0.61142 1.05179
 C2202 C 0.57098 0.66838 1.07141
 C2203 C 0.37238 0.44318 1.05704
 H2204 H 0.38834 0.44847 1.05176
 C2205 C 0.33137 0.42885 1.07133
 C2206 C 0.62737 0.55660 1.05704
 H2207 H 0.61137 0.55136 1.05181
 C2208 C 0.66849 0.57077 1.07116
 C2209 C 1.10298 1.10254 1.24964
 N2210 N 1.12054 1.09314 1.25922
 N2211 N 1.12843 1.10092 1.27786
 C2212 C 1.11907 1.11842 1.28766
 N2213 N 1.10144 1.12774 1.27807
 N2214 N 1.09355 1.11996 1.25943
 C2215 C 1.09454 1.09422 1.22886
 N2216 N 1.07723 1.10385 1.21909
 N2217 N 1.06984 1.09654 1.20004
 C2218 C 1.07946 1.07933 1.19001
 N2219 N 1.09675 1.06969 1.19990
 N2220 N 1.10415 1.07698 1.21894
 C2221 C 1.10233 0.60171 0.74996
 N2222 N 1.11983 0.59227 0.75961
 N2223 N 1.12761 0.59999 0.77833
 C2224 C 1.11818 0.61745 0.78809
 N2225 N 1.10063 0.62683 0.77846
 N2226 N 1.09285 0.61911 0.75974
 C2227 C 1.09403 0.59348 0.72910
 N2228 N 1.07678 0.60315 0.71926
 N2229 N 1.06951 0.59593 0.70014
 C2230 C 1.07920 0.57876 0.69009
 N2231 N 1.09643 0.56908 0.70004
 N2232 N 1.10370 0.57629 0.71916
 C2233 C 0.60327 1.10285 0.74920
 N2234 N 0.62088 1.09350 0.75874
 N2235 N 0.62884 1.10135 0.77733
 C2236 C 0.61952 1.11887 0.78711
 N2237 N 0.60184 1.12815 0.77756
 N2238 N 0.59388 1.12030 0.75897
 C2239 C 0.59475 1.09445 0.72849
 N2240 N 0.57738 1.10403 0.71876
 N2241 N 0.56990 1.09665 0.69979
 C2242 C 0.57947 1.07940 0.68977
 N2243 N 0.59682 1.06981 0.69961
 N2244 N 0.60431 1.07718 0.71858
 C2245 C 0.60217 0.60200 1.25003
 N2246 N 0.61964 0.59257 1.25973
 N2247 N 0.62744 0.60035 1.27841
 C2248 C 0.61807 0.61789 1.28813
 N2249 N 0.60052 0.62725 1.27843
 N2250 N 0.59273 0.61946 1.25974
 C2251 C 0.59385 0.59369 1.22921
 N2252 N 0.57660 0.60334 1.21935
 N2253 N 0.56931 0.59606 1.20026
 C2254 C 0.57897 0.57884 1.19026
 N2255 N 0.59620 0.56918 1.20024
 N2256 N 0.60349 0.57646 1.21932
 C2257 C 0.89769 0.89768 1.24979
 N2258 N 0.88021 0.90710 1.25948
 N2259 N 0.87240 0.89929 1.27815
 C2260 C 0.88176 0.88173 1.28784
 N2261 N 0.89931 0.87238 1.27813
 N2262 N 0.90712 0.88020 1.25947
 C2263 C 0.90602 0.90603 1.22899
 N2264 N 0.92328 0.89641 1.21912
 N2265 N 0.93059 0.90374 1.20006
 C2266 C 0.92094 0.92097 1.19009
 N2267 N 0.90370 0.93061 1.20007
 N2268 N 0.89639 0.92329 1.21913
 C2269 C 0.89674 0.39718 0.74940
 N2270 N 0.87913 0.40653 0.75892
 N2271 N 0.87115 0.39869 0.77751
 C2272 C 0.88047 0.38117 0.78730
 N2273 N 0.89815 0.37189 0.77777
 N2274 N 0.90612 0.37973 0.75918
 C2275 C 0.90527 0.40557 0.72869
 N2276 N 0.92265 0.39598 0.71898
 N2277 N 0.93013 0.40335 0.70001
 C2278 C 0.92056 0.42059 0.68997
 N2279 N 0.90321 0.43018 0.69979
 N2280 N 0.89571 0.42282 0.71877
 C2281 C 0.39757 0.89810 0.74972
 N2282 N 0.40702 0.88069 0.75950
 N2283 N 0.39922 0.87297 0.77821
 C2284 C 0.38167 0.88237 0.78783
 N2285 N 0.37227 0.89983 0.77806
 N2286 N 0.38007 0.90755 0.75935
 C2287 C 0.40590 0.90633 0.72887
 N2288 N 0.39626 0.92354 0.71894
 N2289 N 0.40356 0.93076 0.69983
 C2290 C 0.42078 0.92106 0.68989
 N2291 N 0.43044 0.90388 0.69994
 N2292 N 0.42315 0.89665 0.71904
 C2293 C 0.39702 0.39748 1.24976
 N2294 N 0.40644 0.38005 1.25954
 N2295 N 0.39855 0.37226 1.27818
 C2296 C 0.38091 0.38157 1.28776
 N2297 N 0.37155 0.39907 1.27797
 N2298 N 0.37945 0.40687 1.25934
 C2299 C 0.40546 0.40581 1.22899
 N2300 N 0.39586 0.42305 1.21907
 N2301 N 0.40326 0.43035 1.20004
 C2302 C 0.42056 0.42072 1.19016
 N2303 N 0.43017 0.40350 1.20019
 N2304 N 0.42277 0.39619 1.21922
 C2305 C 0.89759 1.10233 0.75019
 N2306 N 0.90703 1.11977 0.74048
 N2307 N 0.89922 1.12757 0.72180
 C2308 C 0.88166 1.11822 0.71211
 N2309 N 0.87230 1.10070 0.72183
 N2310 N 0.88011 1.09291 0.74051
 C2311 C 0.90593 1.09401 0.77101
 N2312 N 0.89630 1.07678 0.78090
 N2313 N 0.90362 1.06950 0.79998
 C2314 C 0.92085 1.07914 0.80994
 N2315 N 0.93050 1.09635 0.79994
 N2316 N 0.92319 1.10364 0.78086
 C2317 C 0.89891 0.60110 0.24952
 N2318 N 0.88152 0.59161 0.23976
 N2319 N 0.87385 0.59929 0.22098
 C2320 C 0.88328 0.61675 0.21126
 N2321 N 0.90073 0.62620 0.22101
 N2322 N 0.90840 0.61851 0.23979
 C2323 C 0.90707 0.59293 0.27046
 N2324 N 0.92423 0.60265 0.28040
 N2325 N 0.93136 0.59549 0.29959
 C2326 C 0.92164 0.57835 0.30962
 N2327 N 0.90451 0.56861 0.29957
 N2328 N 0.89736 0.57576 0.28037
 C2329 C 0.39818 1.10133 0.24948
 N2330 N 0.38070 1.09186 0.23983
 N2331 N 0.37295 1.09952 0.22108
 C2332 C 0.38238 1.11694 0.21127
 N2333 N 0.39990 1.12636 0.22090
 N2334 N 0.40765 1.11870 0.23966
 C2335 C 0.40643 1.09319 0.27039
 N2336 N 0.42363 1.10291 0.28025
 N2337 N 0.43085 1.09577 0.29942
 C2338 C 0.42116 1.07864 0.30951
 N2339 N 0.40398 1.06891 0.29954
 N2340 N 0.39675 1.07604 0.28037
 C2341 C 0.39785 0.60173 0.75009
 N2342 N 0.40730 0.61914 0.74031
 N2343 N 0.39951 0.62686 0.72159
 C2344 C 0.38198 0.61745 0.71195
 N2345 N 0.37258 0.59999 0.72171
 N2346 N 0.38037 0.59228 0.74043
 C2347 C 0.40615 0.59351 0.77095
 N2348 N 0.39651 0.57632 0.78089
 N2349 N 0.40378 0.56912 0.80001
 C2350 C 0.42099 0.57881 0.80998
 N2351 N 0.43065 0.59599 0.79993
 N2352 N 0.42338 0.60320 0.78080
 C2353 C 1.10126 0.89877 0.74964
 N2354 N 1.09177 0.88137 0.73989
 N2355 N 1.09940 0.87372 0.72109
 C2356 C 1.11683 0.88319 0.71133
 N2357 N 1.12627 0.90064 0.72106
 N2358 N 1.11863 0.90829 0.73986
 C2359 C 1.09313 0.90691 0.77060
 N2360 N 1.10284 0.92409 0.78052
 N2361 N 1.09572 0.93122 0.79972
 C2362 C 1.07860 0.92147 0.80979
 N2363 N 1.06888 0.90432 0.79976
 N2364 N 1.07599 0.89718 0.78056
 C2365 C 1.10193 0.39853 0.24978
 N2366 N 1.09246 0.38117 0.23995
 N2367 N 1.10021 0.37351 0.22119
 C2368 C 1.11774 0.38292 0.21157
 N2369 N 1.12717 0.40034 0.22138
 N2370 N 1.11941 0.40800 0.24013
 C2371 C 1.09367 0.40668 0.27068
 N2372 N 1.10334 0.42384 0.28066
 N2373 N 1.09611 0.43097 0.29982
 C2374 C 1.07893 0.42124 0.30978
 N2375 N 1.06924 0.40411 0.29970
 N2376 N 1.07646 0.39697 0.28053
 C2377 C 0.60208 0.89786 0.24992
 N2378 N 0.59266 0.88039 0.24023
 N2379 N 0.60046 0.87259 0.22155
 C2380 C 0.61799 0.88195 0.21184
 N2381 N 0.62734 0.89950 0.22154
 N2382 N 0.61953 0.90729 0.24022
 C2383 C 0.59376 0.90618 0.27074
 N2384 N 0.60339 0.92343 0.28061
 N2385 N 0.59609 0.93071 0.29970
 C2386 C 0.57888 0.92105 0.30968
 N2387 N 0.56924 0.90382 0.29970
 N2388 N 0.57653 0.89653 0.28062
 C2389 C 0.60240 0.39747 0.75044
 N2390 N 0.59297 0.38002 0.74072
 N2391 N 0.60078 0.37223 0.72204
 C2392 C 0.61834 0.38158 0.71235
 N2393 N 0.62769 0.39911 0.72209
 N2394 N 0.61987 0.40689 0.74076
 C2395 C 0.59405 0.40579 0.77125
 N2396 N 0.60367 0.42304 0.78113
 N2397 N 0.59634 0.43033 0.80020
 C2398 C 0.57911 0.42068 0.81016
 N2399 N 0.56948 0.40346 0.80017
 N2400 N 0.57679 0.39615 0.78110
 C2401 C 1.25001 1.10205 1.10183
 N2402 N 1.25979 1.09256 1.11924
 N2403 N 1.27853 1.10028 1.12693
 C2404 C 1.28822 1.11780 1.11753
 N2405 N 1.27843 1.12722 1.10005
 N2406 N 1.25969 1.11949 1.09236
 C2407 C 1.22913 1.09380 1.09363
 N2408 N 1.21919 1.10348 1.07644
 N2409 N 1.20007 1.09624 1.06924
 C2410 C 1.19011 1.07904 1.07894
 N2411 N 1.20016 1.06934 1.09611
 N2412 N 1.21928 1.07658 1.10331
 C2413 C 1.24989 0.60220 0.60219
 N2414 N 1.25956 0.61966 0.59273
 N2415 N 1.27824 0.62745 0.60049
 C2416 C 1.28798 0.61809 0.61803
 N2417 N 1.27830 0.60055 0.62741
 N2418 N 1.25962 0.59276 0.61964
 C2419 C 1.22907 0.59388 0.59390
 N2420 N 1.21923 0.57663 0.60356
 N2421 N 1.20016 0.56934 0.59628
 C2422 C 1.19015 0.57899 0.57906
 N2423 N 1.20011 0.59621 0.56938
 N2424 N 1.21918 0.60351 0.57665
 C2425 C 0.74955 1.10197 0.60228
 N2426 N 0.75931 1.11939 0.59282
 N2427 N 0.77800 1.12712 0.60063
 C2428 C 0.78764 1.11772 0.61818
 N2429 N 0.77789 1.10026 0.62759
 N2430 N 0.75920 1.09253 0.61978
 C2431 C 0.72873 1.09372 0.59394
 N2432 N 0.71882 1.07651 0.60358
 N2433 N 0.69974 1.06928 0.59627
 C2434 C 0.68979 1.07895 0.57903
 N2435 N 0.69981 1.09614 0.56937
 N2436 N 0.71890 1.10338 0.57667
 C2437 C 0.75014 0.60132 1.10142
 N2438 N 0.75982 0.61875 1.09190
 N2439 N 0.77862 0.62642 1.09950
 C2440 C 0.78844 0.61696 1.11690
 N2441 N 0.77878 0.59948 1.12637
 N2442 N 0.75998 0.59180 1.11877
 C2443 C 0.72920 0.59313 1.09332
 N2444 N 0.71934 0.57594 1.10306
 N2445 N 0.70016 0.56878 1.09596
 C2446 C 0.69006 0.57850 1.07883
 N2447 N 0.70003 0.59567 1.06908
 N2448 N 0.71921 0.60284 1.07617
 C2449 C 1.24962 0.89767 0.89767
 N2450 N 1.25931 0.90710 0.88020
 N2451 N 1.27799 0.89930 0.87241
 C2452 C 1.28770 0.88176 0.88179
 N2453 N 1.27799 0.87241 0.89934
 N2454 N 1.25931 0.88021 0.90712
 C2455 C 1.22881 0.90601 0.90600
 N2456 N 1.21895 0.89638 0.92326
 N2457 N 1.19988 0.90370 0.93056
 C2458 C 1.18991 0.92092 0.92089
 N2459 N 1.19988 0.93056 0.90365
 N2460 N 1.21894 0.92325 0.89635
 C2461 C 1.24956 0.39738 0.39712
 N2462 N 1.25933 0.37995 0.40654
 N2463 N 1.27797 0.37217 0.39866
 C2464 C 1.28757 0.38150 0.38103
 N2465 N 1.27778 0.39900 0.37168
 N2466 N 1.25914 0.40679 0.37957
 C2467 C 1.22879 0.40570 0.40555
 N2468 N 1.21888 0.42295 0.39595
 N2469 N 1.19985 0.43025 0.40335
 C2470 C 1.18996 0.42060 0.42063
 N2471 N 1.19998 0.40338 0.43025
 N2472 N 1.21901 0.39607 0.42286
 C2473 C 0.74961 0.89806 0.39755
 N2474 N 0.75936 0.88063 0.40701
 N2475 N 0.77806 0.87289 0.39923
 C2476 C 0.78771 0.88228 0.38169
 N2477 N 0.77798 0.89976 0.37228
 N2478 N 0.75927 0.90750 0.38006
 C2479 C 0.72877 0.90632 0.40585
 N2480 N 0.71885 0.92353 0.39619
 N2481 N 0.69976 0.93076 0.40348
 C2482 C 0.68980 0.92109 0.42070
 N2483 N 0.69982 0.90390 0.43038
 N2484 N 0.71892 0.89665 0.42310
 C2485 C 0.74915 0.39706 0.89681
 N2486 N 0.75869 0.40643 0.87922
 N2487 N 0.77729 0.39861 0.87126
 C2488 C 0.78707 0.38108 0.88058
 N2489 N 0.77752 0.37178 0.89824
 N2490 N 0.75893 0.37961 0.90619
 C2491 C 0.72844 0.40543 0.90533
 N2492 N 0.71871 0.39583 0.92268
 N2493 N 0.69973 0.40318 0.93016
 C2494 C 0.68971 0.42043 0.92059
 N2495 N 0.69955 0.43004 0.90326
 N2496 N 0.71852 0.42270 0.89577
 C2497 C 0.75019 0.89823 1.10224
 N2498 N 0.74047 0.88080 1.09277
 N2499 N 0.72176 0.87306 1.10052
 C2500 C 0.71208 0.88246 1.11805
 N2501 N 0.72179 0.89994 1.12747
 N2502 N 0.74049 0.90768 1.11971
 C2503 C 0.77103 0.90649 1.09396
 N2504 N 0.78092 0.92370 1.10364
 N2505 N 0.80002 0.93094 1.09638
 C2506 C 0.81000 0.92126 1.07916
 N2507 N 0.80000 0.90408 1.06947
 N2508 N 0.78091 0.89683 1.07672
 C2509 C 0.75038 0.39797 0.60245
 N2510 N 0.74075 0.40740 0.61998
 N2511 N 0.72207 0.39966 0.62779
 C2512 C 0.71231 0.38221 0.61838
 N2513 N 0.72192 0.37283 0.60080
 N2514 N 0.74060 0.38057 0.59299
 C2515 C 0.77120 0.40622 0.59411
 N2516 N 0.78101 0.39657 0.57683
 N2517 N 0.80009 0.40381 0.56951
 C2518 C 0.81013 0.42098 0.57918
 N2519 N 0.80020 0.43065 0.59644
 N2520 N 0.78113 0.42342 0.60376
 C2521 C 0.24970 0.89871 0.60110
 N2522 N 0.23996 0.88131 0.59159
 N2523 N 0.22117 0.87367 0.59924
 C2524 C 0.21142 0.88314 0.61668
 N2525 N 0.22114 0.90059 0.62614
 N2526 N 0.23993 0.90823 0.61849
 C2527 C 0.27063 0.90686 0.59296
 N2528 N 0.28054 0.92402 0.60268
 N2529 N 0.29972 0.93116 0.59554
 C2530 C 0.30978 0.92141 0.57840
 N2531 N 0.29976 0.90427 0.56867
 N2532 N 0.28057 0.89713 0.57580
 C2533 C 0.25002 0.39797 1.10206
 N2534 N 0.24033 0.38053 1.09257
 N2535 N 0.22161 0.37279 1.10028
 C2536 C 0.21184 0.38217 1.11778
 N2537 N 0.22153 0.39969 1.12719
 N2538 N 0.24026 0.40743 1.11948
 C2539 C 0.27088 0.40624 1.09383
 N2540 N 0.28074 0.42345 1.10353
 N2541 N 0.29985 0.43070 1.09631
 C2542 C 0.30988 0.42103 1.07912
 N2543 N 0.29991 0.40384 1.06941
 N2544 N 0.28080 0.39658 1.07662
 C2545 C 0.75076 1.10293 0.89670
 N2546 N 0.74124 1.09356 0.87909
 N2547 N 0.72264 1.10139 0.87113
 C2548 C 0.71285 1.11890 0.88046
 N2549 N 0.72239 1.12820 0.89814
 N2550 N 0.74098 1.12037 0.90609
 C2551 C 0.77148 1.09455 0.90522
 N2552 N 0.78120 1.10415 0.92259
 N2553 N 0.80018 1.09679 0.93007
 C2554 C 0.81021 1.07955 0.92049
 N2555 N 0.80038 1.06995 0.90315
 N2556 N 0.78140 1.07730 0.89566
 C2557 C 0.75031 0.60165 0.39777
 N2558 N 0.74063 0.59219 0.38029
 N2559 N 0.72191 0.59991 0.37253
 C2560 C 0.71216 0.61737 0.38196
 N2561 N 0.72182 0.62678 0.39948
 N2562 N 0.74055 0.61906 0.40724
 C2563 C 0.77117 0.59342 0.40605
 N2564 N 0.78102 0.60309 0.42329
 N2565 N 0.80014 0.59587 0.43055
 C2566 C 0.81017 0.57869 0.42086
 N2567 N 0.80021 0.56901 0.40364
 N2568 N 0.78109 0.57622 0.39637
 C2569 C 0.25043 1.10245 0.39698
 N2570 N 0.24084 1.09307 0.37941
 N2571 N 0.22220 1.10087 0.37154
 C2572 C 0.21242 1.11836 0.38093
 N2573 N 0.22202 1.12767 0.39857
 N2574 N 0.24066 1.11987 0.40643
 C2575 C 0.27120 1.09412 0.40539
 N2576 N 0.28098 1.10373 0.42272
 N2577 N 0.30002 1.09641 0.43009
 C2578 C 0.31005 1.07922 0.42045
 N2579 N 0.30016 1.06960 0.40314
 N2580 N 0.28113 1.07690 0.39576
 C2581 C 0.25026 0.60228 0.89790
 N2582 N 0.24055 0.59284 0.88044
 N2583 N 0.22186 0.60062 0.87267
 C2584 C 0.21215 0.61815 0.88204
 N2585 N 0.22188 0.62753 0.89958
 N2586 N 0.24057 0.61974 0.90735
 C2587 C 0.27109 0.59397 0.90620
 N2588 N 0.28096 0.60361 0.92345
 N2589 N 0.30004 0.59631 0.93073
 C2590 C 0.31002 0.57909 0.92106
 N2591 N 0.30003 0.56944 0.90383
 N2592 N 0.28096 0.57673 0.89655
 C2593 C 1.10196 1.25018 1.10145
 N2594 N 1.09248 1.26003 1.11881
 N2595 N 1.10026 1.27876 1.12646
 C2596 C 1.11781 1.28834 1.11703
 N2597 N 1.12724 1.27851 1.09962
 N2598 N 1.11946 1.25977 1.09197
 C2599 C 1.09367 1.22930 1.09330
 N2600 N 1.10334 1.21929 1.07614
 N2601 N 1.09607 1.20016 1.06901
 C2602 C 1.07886 1.19025 1.07875
 N2603 N 1.06918 1.20036 1.09588
 N2604 N 1.07644 1.21950 1.10302
 C2605 C 1.10135 0.75020 0.60124
 N2606 N 1.11872 0.75995 0.59171
 N2607 N 1.12635 0.77875 0.59932
 C2608 C 1.11689 0.78851 0.61677
 N2609 N 1.09946 0.77878 0.62626
 N2610 N 1.09183 0.75997 0.61864
 C2611 C 1.09322 0.72924 0.59312
 N2612 N 1.07608 0.71932 0.60288
 N2613 N 1.06896 0.70012 0.59575
 C2614 C 1.07870 0.69007 0.57861
 N2615 N 1.09582 0.70011 0.56885
 N2616 N 1.10294 0.71931 0.57596
 C2617 C 0.60186 1.24971 0.60232
 N2618 N 0.59244 1.25934 0.61985
 N2619 N 0.60020 1.27800 0.62768
 C2620 C 0.61767 1.28774 0.61828
 N2621 N 0.62705 1.27812 0.60070
 N2622 N 0.61929 1.25946 0.59288
 C2623 C 0.59359 1.22890 0.59397
 N2624 N 0.60324 1.21908 0.57669
 N2625 N 0.59598 1.20001 0.56938
 C2626 C 0.57880 1.18999 0.57904
 N2627 N 0.56913 1.19992 0.59629
 N2628 N 0.57638 1.21899 0.60362
 C2629 C 0.60179 0.74970 1.10229
 N2630 N 0.59234 0.75940 1.11976
 N2631 N 0.60007 0.77811 1.12751
 C2632 C 0.61754 0.78782 1.11808
 N2633 N 0.62694 0.77814 1.10056
 N2634 N 0.61921 0.75943 1.09281
 C2635 C 0.59354 0.72885 1.09402
 N2636 N 0.60320 0.71897 1.07678
 N2637 N 0.59596 0.69987 1.06953
 C2638 C 0.57878 0.68986 1.07923
 N2639 N 0.56911 0.69985 1.09645
 N2640 N 0.57634 0.71895 1.10370
 C2641 C 0.89725 1.24945 0.89736
 N2642 N 0.90663 1.25912 0.87984
 N2643 N 0.89874 1.27771 0.87196
 C2644 C 0.88116 1.28734 0.88131
 N2645 N 0.87183 1.27770 0.89888
 N2646 N 0.87973 1.25910 0.90676
 C2647 C 0.90567 1.22872 0.90577
 N2648 N 0.89608 1.21888 0.92306
 N2649 N 0.90346 1.19987 0.93043
 C2650 C 0.92071 1.18992 0.92079
 N2651 N 0.93032 1.19987 0.90352
 N2652 N 0.92295 1.21888 0.89615
 C2653 C 0.89808 0.74957 0.39759
 N2654 N 0.88065 0.75933 0.40704
 N2655 N 0.87291 0.77802 0.39925
 C2656 C 0.88231 0.78766 0.38171
 N2657 N 0.89979 0.77792 0.37230
 N2658 N 0.90753 0.75922 0.38010
 C2659 C 0.90634 0.72874 0.40591
 N2660 N 0.92356 0.71882 0.39626
 N2661 N 0.93080 0.69973 0.40357
 C2662 C 0.92112 0.68979 0.42080
 N2663 N 0.90393 0.69981 0.43046
 N2664 N 0.89668 0.71890 0.42317
 C2665 C 0.39753 1.24969 0.39762
 N2666 N 0.40695 1.25939 0.38014
 N2667 N 0.39913 1.27804 0.37233
 C2668 C 0.38159 1.28770 0.38171
 N2669 N 0.37222 1.27802 0.39925
 N2670 N 0.38005 1.25936 0.40705
 C2671 C 0.40587 1.22889 0.40594
 N2672 N 0.39624 1.21902 0.42319
 N2673 N 0.40355 1.19995 0.43047
 C2674 C 0.42077 1.18998 0.42080
 N2675 N 0.43042 1.19997 0.40358
 N2676 N 0.42312 1.21903 0.39629
 C2677 C 0.39759 0.74974 0.89824
 N2678 N 0.40704 0.75951 0.88082
 N2679 N 0.39923 0.77820 0.87308
 C2680 C 0.38168 0.78782 0.88248
 N2681 N 0.37228 0.77807 0.89996
 N2682 N 0.38009 0.75937 0.90769
 C2683 C 0.40593 0.72891 0.90649
 N2684 N 0.39629 0.71899 0.92371
 N2685 N 0.40361 0.69990 0.93094
 C2686 C 0.42083 0.68996 0.92125
 N2687 N 0.43048 0.69999 0.90405
 N2688 N 0.42318 0.71908 0.89681
 C2689 C 1.10225 0.75019 0.89835
 N2690 N 1.11974 0.74056 0.90782
 N2691 N 1.12755 0.72185 0.90012
 C2692 C 1.11815 0.71208 0.88265
 N2693 N 1.10060 0.72169 0.87324
 N2694 N 1.09280 0.74040 0.88094
 C2695 C 1.09393 0.77104 0.90656
 N2696 N 1.07668 0.78087 0.89686
 N2697 N 1.06940 0.79998 0.90407
 C2698 C 1.07906 0.81003 0.92125
 N2699 N 1.09627 0.80009 0.93096
 N2700 N 1.10357 0.78098 0.92377
 C2701 C 1.10247 0.25017 0.39770
 N2702 N 1.09305 0.24050 0.38020
 N2703 N 1.10087 0.22186 0.37237
 C2704 C 1.11841 0.21219 0.38173
 N2705 N 1.12779 0.22184 0.39928
 N2706 N 1.11996 0.24049 0.40711
 C2707 C 1.09413 0.27096 0.40605
 N2708 N 1.10376 0.28081 0.42331
 N2709 N 1.09645 0.29987 0.43062
 C2710 C 1.07923 0.30985 0.42096
 N2711 N 1.06958 0.29988 0.40372
 N2712 N 1.07688 0.28082 0.39641
 C2713 C 0.60177 0.75009 0.39775
 N2714 N 0.59232 0.74040 0.38028
 N2715 N 0.60004 0.72168 0.37253
 C2716 C 0.61752 0.71195 0.38196
 N2717 N 0.62692 0.72162 0.39948
 N2718 N 0.61919 0.74034 0.40723
 C2719 C 0.59353 0.77095 0.40602
 N2720 N 0.60320 0.78082 0.42325
 N2721 N 0.59597 0.79993 0.43049
 C2722 C 0.57879 0.80995 0.42079
 N2723 N 0.56911 0.79997 0.40358
 N2724 N 0.57633 0.78086 0.39633
 C2725 C 0.60269 0.25049 0.89735
 N2726 N 0.59330 0.24086 0.87982
 N2727 N 0.60119 0.22227 0.87190
 C2728 C 0.61877 0.21263 0.88123
 N2729 N 0.62810 0.22225 0.89882
 N2730 N 0.62021 0.24083 0.90673
 C2731 C 0.59427 0.27121 0.90580
 N2732 N 0.60387 0.28102 0.92311
 N2733 N 0.59649 0.30002 0.93050
 C2734 C 0.57922 0.30998 0.92090
 N2735 N 0.56960 0.30005 0.90362
 N2736 N 0.57697 0.28105 0.89622
 C2737 C 0.89862 0.74992 1.10141
 N2738 N 0.88119 0.74023 1.09190
 N2739 N 0.87353 0.72143 1.09950
 C2740 C 0.88301 0.71162 1.11691
 N2741 N 0.90049 0.72130 1.12637
 N2742 N 0.90815 0.74009 1.11876
 C2743 C 0.90679 0.77086 1.09330
 N2744 N 0.92398 0.78073 1.10303
 N2745 N 0.93114 0.79991 1.09591
 C2746 C 0.92140 0.81000 1.07879
 N2747 N 0.90424 0.80002 1.06904
 N2748 N 0.89707 0.78084 1.07615
 C2749 C 0.89814 0.25026 0.60235
 N2750 N 0.88072 0.24054 0.59287
 N2751 N 0.87295 0.22185 0.60065
 C2752 C 0.88232 0.21219 0.61820
 N2753 N 0.89980 0.22190 0.62763
 N2754 N 0.90756 0.24058 0.61985
 C2755 C 0.90642 0.27108 0.59404
 N2756 N 0.92363 0.28097 0.60372
 N2757 N 0.93088 0.30006 0.59643
 C2758 C 0.92122 0.31002 0.57919
 N2759 N 0.90404 0.30002 0.56950
 N2760 N 0.89678 0.28093 0.57678
 C2761 C 0.39772 0.75015 0.60161
 N2762 N 0.38023 0.74052 0.59216
 N2763 N 0.37244 0.72181 0.59988
 C2764 C 0.38187 0.71204 0.61734
 N2765 N 0.39941 0.72166 0.62674
 N2766 N 0.40719 0.74036 0.61902
 C2767 C 0.40603 0.77099 0.59338
 N2768 N 0.42327 0.78081 0.60307
 N2769 N 0.43055 0.79991 0.59585
 C2770 C 0.42088 0.80996 0.57866
 N2771 N 0.40366 0.80003 0.56896
 N2772 N 0.39637 0.78093 0.57617
 C2773 C 0.39807 0.24983 1.10135
 N2774 N 0.38058 0.24024 1.09185
 N2775 N 0.37282 0.22149 1.09946
 C2776 C 0.38226 0.21162 1.11686
 N2777 N 0.39981 0.22120 1.12630
 N2778 N 0.40756 0.23995 1.11869
 C2779 C 0.40634 0.27073 1.09324
 N2780 N 0.42357 0.28053 1.10299
 N2781 N 0.43081 0.29969 1.09589
 C2782 C 0.42112 0.30982 1.07877
 N2783 N 0.40391 0.29992 1.06901
 N2784 N 0.39666 0.28076 1.07610
 C2785 C 1.10275 1.10326 0.75069
 N2786 N 1.12020 1.09385 0.74093
 N2787 N 1.12804 1.10178 0.72233
 C2788 C 1.11874 1.11943 0.71275
 N2789 N 1.10122 1.12877 0.72252
 N2790 N 1.09338 1.12084 0.74113
 C2791 C 1.09437 1.09478 0.77142
 N2792 N 1.07710 1.10435 0.78132
 N2793 N 1.06974 1.09690 0.80031
 C2794 C 1.07935 1.07959 0.81019
 N2795 N 1.09660 1.07000 0.80018
 N2796 N 1.10396 1.07744 0.78118
 C2797 C 1.10279 0.60314 0.25059
 N2798 N 1.12022 0.59375 0.24079
 N2799 N 1.12803 0.60171 0.22219
 C2800 C 1.11873 0.61938 0.21266
 N2801 N 1.10122 0.62871 0.22247
 N2802 N 1.09341 0.62074 0.24107
 C2803 C 1.09444 0.59462 0.27132
 N2804 N 1.07719 0.60418 0.28126
 N2805 N 1.06987 0.59670 0.30025
 C2806 C 1.07950 0.57938 0.31009
 N2807 N 1.09673 0.56980 0.30004
 N2808 N 1.10406 0.57727 0.28104
 C2809 C 0.60246 1.10305 0.25031
 N2810 N 0.61991 1.09364 0.24057
 N2811 N 0.62776 1.10154 0.22196
 C2812 C 0.61845 1.11917 0.21236
 N2813 N 0.60092 1.12851 0.22210
 N2814 N 0.59308 1.12060 0.24072
 C2815 C 0.59408 1.09460 0.27106
 N2816 N 0.57683 1.10420 0.28095
 N2817 N 0.56949 1.09678 0.29997
 C2818 C 0.57910 1.07948 0.30986
 N2819 N 0.59634 1.06987 0.29985
 N2820 N 0.60368 1.07727 0.28084
 C2821 C 0.60147 0.60143 0.75000
 N2822 N 0.61888 0.59193 0.74025
 N2823 N 0.62655 0.59960 0.72148
 C2824 C 0.61711 0.61707 0.71175
 N2825 N 0.59965 0.62652 0.72148
 N2826 N 0.59198 0.61884 0.74026
 C2827 C 0.59328 0.59324 0.77092
 N2828 N 0.57610 0.60295 0.78084
 N2829 N 0.56893 0.59577 0.80001
 C2830 C 0.57864 0.57861 0.81004
 N2831 N 0.59580 0.56888 0.80001
 N2832 N 0.60298 0.57605 0.78084
 C2833 C 0.89846 0.89851 0.74994
 N2834 N 0.88105 0.90800 0.74018
 N2835 N 0.87338 0.90032 0.72141
 C2836 C 0.88282 0.88285 0.71168
 N2837 N 0.90028 0.87341 0.72142
 N2838 N 0.90796 0.88109 0.74020
 C2839 C 0.90664 0.90670 0.77086
 N2840 N 0.92383 0.89700 0.78078
 N2841 N 0.93099 0.90418 0.79995
 C2842 C 0.92127 0.92135 0.80997
 N2843 N 0.90411 0.93106 0.79994
 N2844 N 0.89694 0.92389 0.78077
 C2845 C 0.89752 0.39677 0.25047
 N2846 N 0.88006 0.40618 0.24074
 N2847 N 0.87221 0.39829 0.22213
 C2848 C 0.88151 0.38065 0.21252
 N2849 N 0.89904 0.37131 0.22226
 N2850 N 0.90689 0.37921 0.24088
 C2851 C 0.90590 0.40522 0.27122
 N2852 N 0.92316 0.39562 0.28111
 N2853 N 0.93051 0.40304 0.30013
 C2854 C 0.92090 0.42034 0.31002
 N2855 N 0.90367 0.42995 0.30001
 N2856 N 0.89631 0.42254 0.28100
 C2857 C 0.39749 0.89709 0.25018
 N2858 N 0.38007 0.90651 0.24039
 N2859 N 0.37226 0.89859 0.22176
 C2860 C 0.38157 0.88092 0.21221
 N2861 N 0.39907 0.87158 0.22202
 N2862 N 0.40687 0.87951 0.24064
 C2863 C 0.40581 0.90555 0.27094
 N2864 N 0.42305 0.89596 0.28088
 N2865 N 0.43035 0.90338 0.29991
 C2866 C 0.42071 0.92068 0.30977
 N2867 N 0.40350 0.93029 0.29973
 N2868 N 0.39619 0.92288 0.28069
 C2869 C 0.39842 0.39780 0.75015
 N2870 N 0.38106 0.40727 0.74030
 N2871 N 0.37339 0.39949 0.72157
 C2872 C 0.38280 0.38193 0.71198
 N2873 N 0.40022 0.37250 0.72180
 N2874 N 0.40789 0.38029 0.74054
 C2875 C 0.40660 0.40611 0.77103
 N2876 N 0.42376 0.39645 0.78102
 N2877 N 0.43092 0.40374 0.80015
 C2878 C 0.42121 0.42097 0.81007
 N2879 N 0.40407 0.43064 0.79997
 N2880 N 0.39690 0.42337 0.78083
 C2881 C 1.10203 0.89799 1.25009
 N2882 N 1.11944 0.90743 1.25985
 N2883 N 1.12718 0.89965 1.27856
 C2884 C 1.11781 0.88210 1.28824
 N2885 N 1.10031 0.87273 1.27847
 N2886 N 1.09258 0.88052 1.25976
 C2887 C 1.09378 0.90630 1.22924
 N2888 N 1.07657 0.89666 1.21931
 N2889 N 1.06934 0.90395 1.20020
 C2890 C 1.07903 0.92116 1.19024
 N2891 N 1.09621 0.93081 1.20027
 N2892 N 1.10345 0.92354 1.21939
 C2893 C 1.10223 0.39791 0.75005
 N2894 N 1.11967 0.40735 0.75979
 N2895 N 1.12741 0.39958 0.77851
 C2896 C 1.11802 0.38207 0.78822
 N2897 N 1.10050 0.37270 0.77847
 N2898 N 1.09277 0.38047 0.75975
 C2899 C 1.09398 0.40620 0.72919
 N2900 N 1.07674 0.39657 0.71930
 N2901 N 1.06950 0.40383 0.70019
 C2902 C 1.07920 0.42101 0.69018
 N2903 N 1.09641 0.43065 0.70018
 N2904 N 1.10366 0.42340 0.71930
 C2905 C 0.60133 0.89848 0.75012
 N2906 N 0.59185 0.88107 0.75987
 N2907 N 0.59954 0.87340 0.77865
 C2908 C 0.61699 0.88286 0.78838
 N2909 N 0.62641 0.90032 0.77865
 N2910 N 0.61872 0.90799 0.75987
 C2911 C 0.59314 0.90666 0.72919
 N2912 N 0.60283 0.92384 0.71928
 N2913 N 0.59565 0.93100 0.70010
 C2914 C 0.57851 0.92127 0.69006
 N2915 N 0.56880 0.90411 0.70009
 N2916 N 0.57597 0.89694 0.71927
 C2917 C 0.60207 0.39785 1.25020
 N2918 N 0.59262 0.38042 1.25994
 N2919 N 0.60040 0.37267 1.27864
 C2920 C 0.61796 0.38202 1.28833
 N2921 N 0.62733 0.39952 1.27857
 N2922 N 0.61954 0.40728 1.25987
 C2923 C 0.59376 0.40612 1.22935
 N2924 N 0.60342 0.42332 1.21943
 N2925 N 0.59613 0.43056 1.20033
 C2926 C 0.57891 0.42090 1.19037
 N2927 N 0.56924 0.40372 1.20039
 N2928 N 0.57651 0.39647 1.21950
 C2929 C 0.89905 1.10105 1.25074
 N2930 N 0.88165 1.09153 1.26048
 N2931 N 0.87401 1.09914 1.27930
 C2932 C 0.88347 1.11655 1.28909
 N2933 N 0.90092 1.12602 1.27937
 N2934 N 0.90856 1.11841 1.26055
 C2935 C 0.90717 1.09297 1.22976
 N2936 N 0.92432 1.10271 1.21984
 N2937 N 0.93142 1.09563 1.20060
 C2938 C 0.92166 1.07854 1.19052
 N2939 N 0.90454 1.06878 1.20056
 N2940 N 0.89743 1.07585 1.21979
 C2941 C 0.89860 0.60143 0.75029
 N2942 N 0.88119 0.59194 0.76002
 N2943 N 0.87349 0.59962 0.77879
 C2944 C 0.88291 0.61709 0.78853
 N2945 N 0.90038 0.62653 0.77881
 N2946 N 0.90807 0.61884 0.76004
 C2947 C 0.90680 0.59324 0.72938
 N2948 N 0.92398 0.60295 0.71946
 N2949 N 0.93116 0.59577 0.70029
 C2950 C 0.92145 0.57861 0.69026
 N2951 N 0.90429 0.56890 0.70029
 N2952 N 0.89711 0.57607 0.71945
 C2953 C 0.39818 1.10219 0.74991
 N2954 N 0.38079 1.09275 0.75973
 N2955 N 0.37310 1.10057 0.77844
 C2956 C 0.38250 1.11812 0.78803
 N2957 N 0.39995 1.12751 0.77823
 N2958 N 0.40764 1.11969 0.75952
 C2959 C 0.40638 1.09385 0.72905
 N2960 N 0.42357 1.10348 0.71909
 N2961 N 0.43075 1.09617 0.69997
 C2962 C 0.42104 1.07896 0.69004
 N2963 N 0.40388 1.06932 0.70011
 N2964 N 0.39668 1.07661 0.71923
 C2965 C 0.39746 0.60287 1.24979
 N2966 N 0.38004 0.59348 1.25958
 N2967 N 0.37222 0.60141 1.27819
 C2968 C 0.38151 0.61907 1.28774
 N2969 N 0.39901 0.62840 1.27794
 N2970 N 0.40683 0.62046 1.25933
 C2971 C 0.40581 0.59439 1.22904
 N2972 N 0.42304 0.60397 1.21911
 N2973 N 0.43035 0.59654 1.20009
 C2974 C 0.42072 0.57924 1.19023
 N2975 N 0.40351 0.56964 1.20027
 N2976 N 0.39620 0.57707 1.21929
 C2977 C 1.10162 1.24997 0.89800
 N2978 N 1.09218 1.25963 0.88050
 N2979 N 1.09988 1.27835 0.87274
 C2980 C 1.11732 1.28811 0.88218
 N2981 N 1.12671 1.27847 0.89973
 N2982 N 1.11901 1.25975 0.90749
 C2983 C 1.09342 1.22911 0.90628
 N2984 N 1.10309 1.21927 0.92353
 N2985 N 1.09590 1.20015 0.93078
 C2986 C 1.07874 1.19010 0.92108
 N2987 N 1.06905 1.20006 0.90385
 N2988 N 1.07624 1.21918 0.89659
 C2989 C 1.10169 0.74983 0.39790
 N2990 N 1.09222 0.75948 0.38041
 N2991 N 1.09989 0.77822 0.37265
 C2992 C 1.11732 0.78800 0.38209
 N2993 N 1.12674 0.77836 0.39963
 N2994 N 1.11907 0.75962 0.40738
 C2995 C 1.09352 0.72896 0.40618
 N2996 N 1.10322 0.71912 0.42342
 N2997 N 1.09605 0.69999 0.43067
 C2998 C 1.07890 0.68993 0.42098
 N2999 N 1.06918 0.69988 0.40377
 N3000 N 1.07635 0.71900 0.39650
 C3001 C 0.60158 1.24996 0.39801
 N3002 N 0.59214 1.25966 0.38054
 N3003 N 0.59986 1.27837 0.37280
 C3004 C 0.61733 1.28809 0.38224
 N3005 N 0.62673 1.27840 0.39976
 N3006 N 0.61900 1.25969 0.40750
 C3007 C 0.59335 1.22910 0.40626
 N3008 N 0.60302 1.21922 0.42349
 N3009 N 0.59580 1.20010 0.43071
 C3010 C 0.57864 1.19009 0.42100
 N3011 N 0.56895 1.20008 0.40379
 N3012 N 0.57616 1.21920 0.39656
 C3013 C 0.60147 0.75002 0.89865
 N3014 N 0.59197 0.75978 0.88125
 N3015 N 0.59964 0.77855 0.87357
 C3016 C 0.61711 0.78825 0.88302
 N3017 N 0.62656 0.77851 0.90048
 N3018 N 0.61889 0.75974 0.90815
 C3019 C 0.59328 0.72911 0.90683
 N3020 N 0.60299 0.71918 0.92401
 N3021 N 0.59580 0.70002 0.93117
 C3022 C 0.57863 0.69003 0.92145
 N3023 N 0.56891 0.70007 0.90429
 N3024 N 0.57609 0.71923 0.89712
 C3025 C 0.89738 1.24942 1.10310
 N3026 N 0.87992 1.25915 1.09370
 N3027 N 0.87209 1.27777 1.10160
 C3028 C 0.88141 1.28737 1.11923
 N3029 N 0.89895 1.27763 1.12856
 N3030 N 0.90677 1.25901 1.12066
 C3031 C 0.90575 1.22868 1.09465
 N3032 N 0.92301 1.21878 1.10425
 N3033 N 0.93035 1.19978 1.09683
 C3034 C 0.92073 1.18989 1.07953
 N3035 N 0.90349 1.19989 1.06992
 N3036 N 0.89614 1.21890 1.07733
 C3037 C 0.89849 0.74992 0.60150
 N3038 N 0.90797 0.75968 0.61891
 N3039 N 0.90029 0.77845 0.62657
 C3040 C 0.88283 0.78817 0.61711
 N3041 N 0.87339 0.77843 0.59964
 N3042 N 0.88108 0.75965 0.59198
 C3043 C 0.90668 0.72900 0.59333
 N3044 N 0.89699 0.71908 0.57614
 N3045 N 0.90418 0.69992 0.56898
 C3046 C 0.92133 0.68990 0.57872
 N3047 N 0.93104 0.69993 0.59589
 N3048 N 0.92386 0.71910 0.60306
 C3049 C 0.39785 1.24975 0.60215
 N3050 N 0.40731 1.25942 0.61962
 N3051 N 0.39959 1.27813 0.62740
 C3052 C 0.38210 1.28791 0.61801
 N3053 N 0.37271 1.27823 0.60046
 N3054 N 0.38043 1.25951 0.59269
 C3055 C 0.40609 1.22890 0.59384
 N3056 N 0.39642 1.21906 0.57660
 N3057 N 0.40366 1.19996 0.56931
 C3058 C 0.42085 1.18993 0.57898
 N3059 N 0.43053 1.19989 0.59621
 N3060 N 0.42330 1.21899 0.60350
 C3061 C 0.39737 0.74939 1.10310
 N3062 N 0.37994 0.75914 1.09365
 N3063 N 0.37213 0.77778 1.10150
 C3064 C 0.38145 0.78741 1.11912
 N3065 N 0.39896 0.77765 1.12850
 N3066 N 0.40676 0.75901 1.12064
 C3067 C 0.40571 0.72862 1.09469
 N3068 N 0.42295 0.71872 1.10432
 N3069 N 0.43027 0.69969 1.09693
 C3070 C 0.42065 0.68979 1.07964
 N3071 N 0.40344 0.69980 1.07000
 N3072 N 0.39611 0.71883 1.07738
 C3073 C 0.89841 0.75003 0.89865
 N3074 N 0.90792 0.74025 0.88126
 N3075 N 0.90024 0.72148 0.87360
 C3076 C 0.88276 0.71179 0.88305
 N3077 N 0.87330 0.72156 0.90049
 N3078 N 0.88099 0.74033 0.90815
 C3079 C 0.90661 0.77094 0.90681
 N3080 N 0.89691 0.78090 0.92398
 N3081 N 0.90410 0.80005 0.93113
 C3082 C 0.92127 0.81004 0.92140
 N3083 N 0.93099 0.79997 0.90425
 N3084 N 0.92381 0.78082 0.89710
 C3085 C 0.89891 0.24953 0.39906
 N3086 N 0.88150 0.23983 0.40858
 N3087 N 0.87385 0.22102 0.40099
 C3088 C 0.88333 0.21120 0.38359
 N3089 N 0.90080 0.22088 0.37412
 N3090 N 0.90844 0.23969 0.38171
 C3091 C 0.90706 0.27049 0.40713
 N3092 N 0.92422 0.28037 0.39738
 N3093 N 0.93135 0.29958 0.40445
 C3094 C 0.92161 0.30968 0.42156
 N3095 N 0.90446 0.29969 0.43133
 N3096 N 0.89732 0.28048 0.42426
 C3097 C 0.39730 0.75060 0.39683
 N3098 N 0.40668 0.74097 0.37929
 N3099 N 0.39887 0.72234 0.37143
 C3100 C 0.38135 0.71260 0.38080
 N3101 N 0.37204 0.72224 0.39842
 N3102 N 0.37986 0.74087 0.40627
 C3103 C 0.40566 0.77135 0.40524
 N3104 N 0.39606 0.78116 0.42256
 N3105 N 0.40340 0.80017 0.42994
 C3106 C 0.42062 0.81016 0.42030
 N3107 N 0.43023 0.80024 0.40301
 N3108 N 0.42290 0.78123 0.39562
 C3109 C 0.39762 0.25029 0.89781
 N3110 N 0.40707 0.24059 0.88034
 N3111 N 0.39931 0.22191 0.87256
 C3112 C 0.38178 0.21220 0.88193
 N3113 N 0.37240 0.22191 0.89947
 N3114 N 0.38017 0.24060 0.90725
 C3115 C 0.40593 0.27111 0.90613
 N3116 N 0.39627 0.28099 0.92337
 N3117 N 0.40357 0.30005 0.93067
 C3118 C 0.42080 0.31001 0.92102
 N3119 N 0.43047 0.30002 0.90380
 N3120 N 0.42318 0.28096 0.89649
 C3121 C 1.10285 0.75083 1.10334
 N3122 N 1.12029 0.74106 1.09393
 N3123 N 1.12811 0.72245 1.10183
 C3124 C 1.11880 0.71287 1.11948
 N3125 N 1.10129 0.72264 1.12883
 N3126 N 1.09347 0.74126 1.12092
 C3127 C 1.09448 0.77156 1.09487
 N3128 N 1.07723 0.78147 1.10446
 N3129 N 1.06988 0.80046 1.09701
 C3130 C 1.07949 0.81033 1.07969
 N3131 N 1.09673 0.80031 1.07009
 N3132 N 1.10408 0.78132 1.07753
 C3133 C 1.10278 0.25068 0.60326
 N3134 N 1.12021 0.24091 0.59385
 N3135 N 1.12804 0.22230 0.60177
 C3136 C 1.11874 0.21273 0.61943
 N3137 N 1.10123 0.22252 0.62877
 N3138 N 1.09341 0.24112 0.62085
 C3139 C 1.09442 0.27141 0.59478
 N3140 N 1.07717 0.28133 0.60438
 N3141 N 1.06984 0.30033 0.59693
 C3142 C 1.07945 0.31018 0.57960
 N3143 N 1.09667 0.30015 0.57000
 N3144 N 1.10401 0.28115 0.57743
 C3145 C 0.60148 0.74991 0.60142
 N3146 N 0.61889 0.74017 0.59193
 N3147 N 0.62657 0.72140 0.59962
 C3148 C 0.61712 0.71168 0.61708
 N3149 N 0.59965 0.72141 0.62653
 N3150 N 0.59198 0.74018 0.61884
 C3151 C 0.59329 0.77082 0.59323
 N3152 N 0.57610 0.78074 0.60293
 N3153 N 0.56893 0.79989 0.59574
 C3154 C 0.57865 0.80991 0.57858
 N3155 N 0.59581 0.79989 0.56887
 N3156 N 0.60300 0.78073 0.57604
 C3157 C 0.60253 0.25050 1.10309
 N3158 N 0.61999 0.24078 1.09367
 N3159 N 0.62783 0.22216 1.10154
 C3160 C 0.61851 0.21253 1.11916
 N3161 N 0.60097 0.22226 1.12851
 N3162 N 0.59314 0.24089 1.12063
 C3163 C 0.59416 0.27126 1.09467
 N3164 N 0.57691 0.28114 1.10428
 N3165 N 0.56957 0.30016 1.09688
 C3166 C 0.57919 0.31007 1.07959
 N3167 N 0.59643 0.30007 1.06997
 N3168 N 0.60377 0.28105 1.07735
 C3169 C 1.24989 1.10224 0.89835
 N3170 N 1.25971 1.09278 0.88095
 N3171 N 1.27841 1.10059 0.87325
 C3172 C 1.28799 1.11815 0.88265
 N3173 N 1.27819 1.12756 0.90010
 N3174 N 1.25949 1.11975 0.90780
 C3175 C 1.22905 1.09391 0.90655
 N3176 N 1.21908 1.10356 0.92374
 N3177 N 1.19998 1.09626 0.93092
 C3178 C 1.19007 1.07903 0.92121
 N3179 N 1.20015 1.06937 0.90405
 N3180 N 1.21926 1.07665 0.89686
 C3181 C 1.24968 0.60247 0.39758
 N3182 N 1.25928 0.62001 0.40698
 N3183 N 1.27791 0.62788 0.39916
 C3184 C 1.28762 0.61852 0.38164
 N3185 N 1.27803 0.60094 0.37228
 N3186 N 1.25941 0.59307 0.38011
 C3187 C 1.22892 0.59407 0.40592
 N3188 N 1.21913 0.57678 0.39629
 N3189 N 1.20010 0.56942 0.40361
 C3190 C 1.19009 0.57905 0.42084
 N3191 N 1.19999 0.59631 0.43048
 N3192 N 1.21902 0.60368 0.42318
 C3193 C 0.75023 1.10121 0.39884
 N3194 N 0.76005 1.09169 0.38148
 N3195 N 0.77888 1.09930 0.37392
 C3196 C 0.78860 1.11673 0.38343
 N3197 N 0.77880 1.12620 0.40084
 N3198 N 0.75996 1.11859 0.40840
 C3199 C 0.72925 1.09310 0.40690
 N3200 N 0.71927 1.10282 0.42404
 N3201 N 0.70006 1.09570 0.43111
 C3202 C 0.69003 1.07859 0.42131
 N3203 N 0.70012 1.06885 0.40419
 N3204 N 0.71934 1.07596 0.39712
 C3205 C 0.74994 0.60150 0.89864
 N3206 N 0.75972 0.59201 0.88124
 N3207 N 0.77848 0.59970 0.87358
 C3208 C 0.78816 0.61718 0.88303
 N3209 N 0.77840 0.62662 0.90048
 N3210 N 0.75963 0.61893 0.90814
 C3211 C 0.72903 0.59330 0.90681
 N3212 N 0.71909 0.60299 0.92399
 N3213 N 0.69994 0.59579 0.93115
 C3214 C 0.68995 0.57862 0.92143
 N3215 N 0.70001 0.56890 0.90427
 N3216 N 0.71916 0.57610 0.89710
 C3217 C 1.24972 0.89757 1.10238
 N3218 N 1.25934 0.88005 1.09296
 N3219 N 1.27798 0.87218 1.10077
 C3220 C 1.28769 0.88154 1.11829
 N3221 N 1.27808 0.89912 1.12765
 N3222 N 1.25944 0.90698 1.11984
 C3223 C 1.22894 0.90596 1.09405
 N3224 N 1.21912 0.92324 1.10370
 N3225 N 1.20007 0.93058 1.09640
 C3226 C 1.19006 0.92095 1.07918
 N3227 N 1.19999 0.90370 1.06951
 N3228 N 1.21904 0.89635 1.07680
 C3229 C 1.25024 0.39790 0.60155
 N3230 N 1.25987 0.38040 0.59210
 N3231 N 1.27859 0.37262 0.59980
 C3232 C 1.28837 0.38204 0.61725
 N3233 N 1.27876 0.39959 0.62665
 N3234 N 1.26004 0.40737 0.61895
 C3235 C 1.22937 0.40619 0.59336
 N3236 N 1.21954 0.42343 0.60305
 N3237 N 1.20040 0.43068 0.59587
 C3238 C 1.19033 0.42099 0.57872
 N3239 N 1.20027 0.40377 0.56901
 N3240 N 1.21941 0.39651 0.57618
 C3241 C 0.74996 0.89844 0.60138
 N3242 N 0.75970 0.88102 0.59189
 N3243 N 0.77847 0.87335 0.59956
 C3244 C 0.78820 0.88280 0.61703
 N3245 N 0.77848 0.90026 0.62647
 N3246 N 0.75970 0.90794 0.61879
 C3247 C 0.72904 0.90662 0.59320
 N3248 N 0.71913 0.92380 0.60291
 N3249 N 0.69997 0.93097 0.59573
 C3250 C 0.68994 0.92126 0.57857
 N3251 N 0.69996 0.90410 0.56884
 N3252 N 0.71913 0.89692 0.57601
 C3253 C 0.74951 0.39731 1.10271
 N3254 N 0.75918 0.37982 1.09328
 N3255 N 0.77782 0.37197 1.10110
 C3256 C 0.78749 0.38132 1.11866
 N3257 N 0.77784 0.39886 1.12804
 N3258 N 0.75920 0.40670 1.12021
 C3259 C 0.72873 0.40568 1.09435
 N3260 N 0.71888 0.42294 1.10400
 N3261 N 0.69984 0.43027 1.09666
 C3262 C 0.68987 0.42065 1.07940
 N3263 N 0.69984 0.40342 1.06975
 N3264 N 0.71888 0.39608 1.07707
 C3265 C 0.75047 1.10265 1.10260
 N3266 N 0.74080 1.12014 1.09317
 N3267 N 0.72215 1.12798 1.10099
 C3268 C 0.71248 1.11862 1.11853
 N3269 N 0.72213 1.10108 1.12791
 N3270 N 0.74078 1.09324 1.12009
 C3271 C 0.77125 1.09428 1.09425
 N3272 N 0.78111 1.07703 1.10390
 N3273 N 0.80015 1.06970 1.09657
 C3274 C 0.81012 1.07932 1.07932
 N3275 N 0.80015 1.09655 1.06966
 N3276 N 0.78110 1.10389 1.07698
 C3277 C 0.74999 0.60142 0.60148
 N3278 N 0.74024 0.61883 0.59197
 N3279 N 0.72146 0.62650 0.59964
 C3280 C 0.71174 0.61706 0.61711
 N3281 N 0.72147 0.59961 0.62657
 N3282 N 0.74024 0.59193 0.61890
 C3283 C 0.77090 0.59324 0.59330
 N3284 N 0.78082 0.57607 0.60303
 N3285 N 0.79999 0.56890 0.59586
 C3286 C 0.81001 0.57862 0.57869
 N3287 N 0.79998 0.59576 0.56895
 N3288 N 0.78082 0.60294 0.57611
 C3289 C 0.25044 1.10267 0.60259
 N3290 N 0.24080 1.09328 0.62012
 N3291 N 0.22219 1.10115 0.62801
 C3292 C 0.21254 1.11871 0.61867
 N3293 N 0.22216 1.12805 0.60109
 N3294 N 0.24077 1.12018 0.59320
 C3295 C 0.27118 1.09428 0.59417
 N3296 N 0.28100 1.10389 0.57687
 N3297 N 0.30001 1.09652 0.56950
 C3298 C 0.30998 1.07927 0.57912
 N3299 N 0.30005 1.06965 0.59639
 N3300 N 0.28103 1.07700 0.60377
 C3301 C 0.25045 0.60264 1.10269
 N3302 N 0.24082 0.62017 1.09329
 N3303 N 0.22221 0.62806 1.10113
 C3304 C 0.21253 0.61872 1.11867
 N3305 N 0.22213 0.60114 1.12803
 N3306 N 0.24074 0.59325 1.12018
 C3307 C 0.27120 0.59422 1.09433
 N3308 N 0.28101 0.57693 1.10396
 N3309 N 0.30004 0.56956 1.09663
 C3310 C 0.31003 0.57918 1.07939
 N3311 N 0.30010 0.59644 1.06974
 N3312 N 0.28107 0.60382 1.07706
 C3313 C 0.74989 0.89856 0.89859
 N3314 N 0.74012 0.90805 0.88118
 N3315 N 0.72135 0.90035 0.87352
 C3316 C 0.71166 0.88289 0.88298
 N3317 N 0.72142 0.87345 0.90044
 N3318 N 0.74018 0.88115 0.90810
 C3319 C 0.77080 0.90677 0.90676
 N3320 N 0.78073 0.89708 0.92395
 N3321 N 0.79989 0.90428 0.93111
 C3322 C 0.80988 0.92144 0.92138
 N3323 N 0.79983 0.93114 0.90421
 N3324 N 0.78068 0.92396 0.89704
 C3325 C 0.75023 0.39814 0.39795
 N3326 N 0.74045 0.38076 0.40745
 N3327 N 0.72171 0.37308 0.39970
 C3328 C 0.71206 0.38249 0.38216
 N3329 N 0.72183 0.39992 0.37272
 N3330 N 0.74057 0.40760 0.38047
 C3331 C 0.77110 0.40634 0.40623
 N3332 N 0.78104 0.42351 0.39653
 N3333 N 0.80016 0.43069 0.40379
 C3334 C 0.81012 0.42101 0.42102
 N3335 N 0.80007 0.40386 0.43073
 N3336 N 0.78095 0.39667 0.42348
 C3337 C 0.24987 0.89842 0.39793
 N3338 N 0.24017 0.90788 0.38047
 N3339 N 0.22144 0.90017 0.37273
 C3340 C 0.21172 0.88271 0.38217
 N3341 N 0.22140 0.87331 0.39969
 N3342 N 0.24013 0.88102 0.40742
 C3343 C 0.27074 0.90664 0.40617
 N3344 N 0.28063 0.89695 0.42339
 N3345 N 0.29976 0.90415 0.43060
 C3346 C 0.30979 0.92130 0.42089
 N3347 N 0.29979 0.93100 0.40369
 N3348 N 0.28066 0.92381 0.39647
 C3349 C 0.24998 0.39837 0.89812
 N3350 N 0.24020 0.38098 0.90760
 N3351 N 0.22149 0.37328 0.89982
 C3352 C 0.21185 0.38268 0.88228
 N3353 N 0.22161 0.40012 0.87285
 N3354 N 0.24032 0.40783 0.88063
 C3355 C 0.27084 0.40658 0.90641
 N3356 N 0.28077 0.42376 0.89672
 N3357 N 0.29989 0.43094 0.90399
 C3358 C 0.30985 0.42125 0.92121
 N3359 N 0.29980 0.40410 0.93091
 N3360 N 0.28068 0.39690 0.92365
   
