data_POSCAR
  _audit_creation_date              2014-09-24
  _audit_creation_method            'ToBaCCo'
  _symmetry_space_group_name_H-M    'P1'
  _symmetry_Int_Tables_number       1
  _symmetry_cell_setting            triclinic
  loop_
  _symmetry_equiv_pos_as_xyz
 x,y,z
_cell_length_a 45.2093
_cell_length_b 44.5161
_cell_length_c 35.2250
_cell_angle_alpha 91.728500
_cell_angle_beta 89.183200
_cell_angle_gamma 90.893700
loop_
  _atom_site_label
  _atom_site_type_symbol
  _atom_site_fract_x
  _atom_site_fract_y
  _atom_site_fract_z
C1 C 0.31466 -0.04274 0.24034
 C2 C 0.32163 -0.01403 0.22678
 C3 C 0.33906 -0.01130 0.19391
 C4 C 0.35031 -0.03669 0.17463
 C5 C 0.34307 -0.06508 0.18796
 C6 C 0.32605 -0.06865 0.22154
 C7 C 0.31909 0.01303 0.25160
 C8 C 0.34355 0.02081 0.27381
 C9 C 0.34637 0.04930 0.29201
 C10 C 0.32255 0.06912 0.28989
 C11 C 0.29787 0.06160 0.26743
 C12 C 0.29637 0.03371 0.24775
 H13 H 0.30304 -0.04449 0.26731
 H14 H 0.34604 0.01096 0.18543
 H15 H 0.36079 0.00432 0.27609
 H16 H 0.27817 0.02854 0.22883
 H17 H 0.35080 -0.08454 0.17171
 H18 H 0.32402 0.09142 0.30290
 C19 C 0.20287 -0.03900 0.78311
 C20 C 0.18431 -0.01415 0.78257
 C21 C 0.15937 -0.01303 0.80642
 C22 C 0.15112 -0.03754 0.82854
 C23 C 0.17044 -0.06179 0.83027
 C24 C 0.19637 -0.06251 0.80774
 C25 C 0.18527 0.00657 0.75089
 C26 C 0.16503 0.00106 0.72183
 C27 C 0.15804 0.02328 0.69600
 C28 C 0.17390 0.05077 0.69848
 C29 C 0.19514 0.05661 0.72731
 C30 C 0.20030 0.03420 0.75369
 H31 H 0.22140 -0.04069 0.76334
 H32 H 0.14495 0.00613 0.80503
 H33 H 0.15224 -0.01971 0.72257
 H34 H 0.21446 0.03871 0.77778
 H35 H 0.16439 -0.08112 0.84686
 H36 H 0.17002 0.06729 0.67731
 C37 C 0.69167 0.46327 0.28319
 C38 C 0.66936 0.48473 0.28960
 C39 C 0.64281 0.47592 0.30704
 C40 C 0.63700 0.44604 0.31576
 C41 C 0.65915 0.42480 0.31005
 C42 C 0.68656 0.43319 0.29381
 C43 C 0.66976 0.51496 0.27303
 C44 C 0.64719 0.52106 0.24759
 C45 C 0.64108 0.55043 0.23712
 C46 C 0.65823 0.57419 0.25217
 C47 C 0.68172 0.56847 0.27668
 C48 C 0.68754 0.53881 0.28712
 H49 H 0.71209 0.46952 0.26883
 H50 H 0.62566 0.49245 0.31200
 H51 H 0.63324 0.50264 0.23714
 H52 H 0.70483 0.53457 0.30717
 H53 H 0.65479 0.40159 0.31711
 H54 H 0.65401 0.59697 0.24389
 C55 C 0.82106 0.46203 0.75023
 C56 C 0.84150 0.48588 0.74540
 C57 C 0.86722 0.48088 0.72373
 C58 C 0.87354 0.45253 0.70773
 C59 C 0.85347 0.42865 0.71326
 C60 C 0.82722 0.43315 0.73462
 C61 C 0.83827 0.51575 0.76475
 C62 C 0.86194 0.52723 0.78650
 C63 C 0.86158 0.55642 0.80306
 C64 C 0.83667 0.57413 0.79741
 C65 C 0.81350 0.56356 0.77408
 C66 C 0.81402 0.53416 0.75836
 H67 H 0.80114 0.46558 0.76713
 H68 H 0.88255 0.49947 0.71923
 H69 H 0.88050 0.51274 0.79130
 H70 H 0.79640 0.52621 0.73991
 H71 H 0.85826 0.40659 0.70106
 H72 H 0.83627 0.59701 0.80863
 C73 C 0.24274 0.40353 1.05508
 C74 C 0.25835 0.42537 1.03500
 C75 C 0.28278 0.44006 1.05147
 C76 C 0.29174 0.43314 1.08831
 C77 C 0.27444 0.41260 1.10939
 C78 C 0.25012 0.39722 1.09254
 C79 C 0.24924 0.43173 0.99614
 C80 C 0.22906 0.45476 0.99047
 C81 C 0.21612 0.45843 0.95469
 C82 C 0.22512 0.43883 0.92450
 C83 C 0.24346 0.41427 0.93066
 C84 C 0.25613 0.41135 0.96634
 H85 H 0.22430 0.39177 1.04159
 H86 H 0.29571 0.45564 1.03469
 H87 H 0.22198 0.46811 1.01500
 H88 H 0.26949 0.39197 0.97179
 H89 H 0.28130 0.40684 1.13759
 H90 H 0.21655 0.44107 0.89628
 C91 C 0.75563 0.10266 1.03688
 C92 C 0.74641 0.08242 1.00833
 C93 C 0.72439 0.06110 1.01593
 C94 C 0.71149 0.05945 1.05237
 C95 C 0.72203 0.07900 1.08177
 C96 C 0.74375 0.10132 1.07392
 C97 C 0.75958 0.08417 0.97013
 C98 C 0.78627 0.06985 0.96204
 C99 C 0.80093 0.07322 0.92687
 C100 C 0.78791 0.09153 0.89965
 C101 C 0.76120 0.10651 0.90810
 C102 C 0.74714 0.10249 0.94332
 H103 H 0.77257 0.11927 1.03019
 H104 H 0.71645 0.04669 0.99279
 H105 H 0.79626 0.05735 0.98430
 H106 H 0.72704 0.11452 0.95043
 H107 H 0.71177 0.07834 1.10972
 H108 H 0.79899 0.09517 0.87269
 C109 C 0.25702 0.59957 0.55445
 C110 C 0.24563 0.58172 0.52465
 C111 C 0.22108 0.56300 0.53091
 C112 C 0.20786 0.56115 0.56724
 C113 C 0.22009 0.57887 0.59739
 C114 C 0.24405 0.59876 0.59081
 C115 C 0.25845 0.58362 0.48620
 C116 C 0.28377 0.56737 0.47655
 C117 C 0.29643 0.56849 0.43986
 C118 C 0.28302 0.58667 0.41296
 C119 C 0.25822 0.60411 0.42305
 C120 C 0.24584 0.60211 0.45963
 H121 H 0.27517 0.61511 0.54895
 H122 H 0.21172 0.55093 0.50669
 H123 H 0.29397 0.55465 0.49843
 H124 H 0.22680 0.61548 0.46772
 H125 H 0.21013 0.57863 0.62549
 H126 H 0.29248 0.58838 0.38470
 C127 C 0.73353 0.90919 0.56314
 C128 C 0.74655 0.92894 0.53753
 C129 C 0.77061 0.94694 0.54845
 C130 C 0.78359 0.94437 0.58427
 C131 C 0.77068 0.92377 0.60984
 C132 C 0.74504 0.90678 0.59972
 C133 C 0.73686 0.92965 0.49799
 C134 C 0.71508 0.94960 0.48771
 C135 C 0.70781 0.95285 0.44931
 C136 C 0.72289 0.93528 0.42131
 C137 C 0.74432 0.91447 0.43172
 C138 C 0.75132 0.91213 0.47014
 H139 H 0.71453 0.89562 0.55450
 H140 H 0.78066 0.96128 0.52733
 H141 H 0.70362 0.96223 0.51003
 H142 H 0.76828 0.89676 0.47844
 H143 H 0.78012 0.92128 0.63765
 H144 H 0.71755 0.93712 0.39161
 C145 C -0.05584 0.21850 0.37866
 C146 C -0.02632 0.22155 0.38887
 C147 C -0.01423 0.20122 0.41360
 C148 C -0.03258 0.17992 0.43172
 C149 C -0.06328 0.17950 0.42441
 C150 C -0.07460 0.19733 0.39573
 C151 C -0.00975 0.24834 0.37683
 C152 C -0.02007 0.27670 0.38872
 C153 C -0.00543 0.30285 0.37726
 C154 C 0.01918 0.30056 0.35284
 C155 C 0.03001 0.27239 0.34154
 C156 C 0.01571 0.24615 0.35384
 H157 H -0.06465 0.23414 0.35881
 H158 H 0.00905 0.20312 0.42042
 H159 H -0.03917 0.27838 0.40759
 H160 H 0.02443 0.22429 0.34578
 H161 H -0.07756 0.16284 0.43747
 H162 H 0.03137 0.32067 0.34500
 C163 C -0.02191 0.77414 0.15665
 C164 C -0.00170 0.77017 0.12632
 C165 C 0.00180 0.79227 0.09932
 C166 C -0.01443 0.81856 0.10284
 C167 C -0.03576 0.82182 0.13203
 C168 C -0.04040 0.79964 0.15962
 C169 C 0.01602 0.74276 0.12294
 C170 C 0.01135 0.72227 0.09264
 C171 C 0.02624 0.69484 0.09109
 C172 C 0.04815 0.68958 0.11823
 C173 C 0.05512 0.71137 0.14658
 C174 C 0.03751 0.73715 0.14996
 H175 H -0.02252 0.75685 0.17741
 H176 H 0.01814 0.78961 0.07669
 H177 H -0.00561 0.72669 0.07217
 H178 H 0.04114 0.75356 0.17282
 H179 H -0.04892 0.84178 0.13163
 H180 H 0.06112 0.66936 0.11542
 C181 C 0.46645 0.26282 0.64969
 C182 C 0.48526 0.25724 0.61837
 C183 C 0.48925 0.27899 0.59083
 C184 C 0.47473 0.30636 0.59477
 C185 C 0.45452 0.31111 0.62484
 C186 C 0.44976 0.28934 0.65265
 C187 C 0.50293 0.22980 0.61596
 C188 C 0.50023 0.20957 0.58488
 C189 C 0.51989 0.18564 0.58024
 C190 C 0.54242 0.18228 0.60681
 C191 C 0.54547 0.20265 0.63770
 C192 C 0.52497 0.22581 0.64271
 H193 H 0.46501 0.24617 0.67137
 H194 H 0.50494 0.27533 0.56764
 H195 H 0.48353 0.21306 0.56373
 H196 H 0.52739 0.24205 0.66607
 H197 H 0.44237 0.33183 0.62565
 H198 H 0.55846 0.16463 0.60235
 C199 C 0.44620 0.72615 0.88934
 C200 C 0.47683 0.72665 0.89341
 C201 C 0.49017 0.70551 0.91594
 C202 C 0.47275 0.68538 0.93710
 C203 C 0.44167 0.68602 0.93403
 C204 C 0.42860 0.70525 0.90853
 C205 C 0.49454 0.75088 0.87665
 C206 C 0.48880 0.78071 0.88815
 C207 C 0.50742 0.80416 0.87628
 C208 C 0.53068 0.79744 0.85072
 C209 C 0.53601 0.76796 0.83825
 C210 C 0.51837 0.74446 0.85194
 H211 H 0.43603 0.74198 0.87088
 H212 H 0.51403 0.70600 0.91877
 H213 H 0.47059 0.78531 0.90766
 H214 H 0.52349 0.72138 0.84406
 H215 H 0.42787 0.66978 0.94862
 H216 H 0.54642 0.81474 0.84253
 C217 C -0.28982 0.55704 1.00785
 C218 C -0.26107 0.56983 1.01047
 C219 C -0.25414 0.58957 1.04110
 C220 C -0.27482 0.59545 1.07030
 C221 C -0.30149 0.57919 1.06971
 C222 C -0.31094 0.56318 1.03684
 C223 C -0.24099 0.57064 0.97714
 C224 C -0.24446 0.59419 0.95226
 C225 C -0.22192 0.60228 0.92626
 C226 C -0.19715 0.58347 0.92285
 C227 C -0.19344 0.55936 0.94717
 C228 C -0.21518 0.55351 0.97505
 H229 H -0.29634 0.54532 0.98182
 H230 H -0.23355 0.60228 1.03999
 H231 H -0.26463 0.60692 0.95475
 H232 H -0.21167 0.53635 0.99561
 H233 H -0.31650 0.58138 1.09384
 H234 H -0.17911 0.58910 0.90409
 C235 C -0.28720 0.44782 0.50412
 C236 C -0.26228 0.42931 0.50337
 C237 C -0.26180 0.40357 0.47956
 C238 C -0.28607 0.39530 0.45711
 C239 C -0.30979 0.41512 0.45565
 C240 C -0.31072 0.44141 0.47904
 C241 C -0.23761 0.43355 0.53004
 C242 C -0.23428 0.41169 0.55734
 C243 C -0.20727 0.40822 0.57565
 C244 C -0.18427 0.42887 0.56914
 C245 C -0.18743 0.45143 0.54251
 C246 C -0.21401 0.45351 0.52249
 H247 H -0.28792 0.46731 0.52328
 H248 H -0.24255 0.38937 0.47970
 H249 H -0.25218 0.39563 0.56191
 H250 H -0.21571 0.46941 0.49997
 H251 H -0.32882 0.40900 0.43857
 H252 H -0.16309 0.42609 0.58257
 C253 C 0.21585 -0.04936 0.01187
 C254 C 0.23914 -0.06975 0.01124
 C255 C 0.23566 -0.09776 -0.00715
 C256 C 0.20921 -0.10649 -0.02510
 C257 C 0.18639 -0.08519 -0.02609
 C258 C 0.18942 -0.05695 -0.00703
 C259 C 0.26649 -0.06503 0.03300
 C260 C 0.26940 -0.08193 0.06541
 C261 C 0.29734 -0.09042 0.07831
 C262 C 0.32284 -0.07967 0.05911
 C263 C 0.32005 -0.05949 0.02906
 C264 C 0.29180 -0.05288 0.01569
 H265 H 0.21808 -0.02802 0.02726
 H266 H 0.25437 -0.11270 -0.00761
 H267 H 0.24949 -0.09197 0.07746
 H268 H 0.28965 -0.03988 -0.00963
 H269 H 0.16556 -0.09097 -0.03948
 H270 H 0.34461 -0.08555 0.06870
 C271 C 0.20798 1.05582 0.50721
 C272 C 0.23629 1.06952 0.50938
 C273 C 0.24127 1.09283 0.53648
 C274 C 0.21887 1.10209 0.56200
 C275 C 0.19281 1.08481 0.56336
 C276 C 0.18572 1.06408 0.53379
 C277 C 0.25669 1.06907 0.47628
 C278 C 0.25349 1.09246 0.45127
 C279 C 0.27651 1.10119 0.42659
 C280 C 0.30125 1.08239 0.42296
 C281 C 0.30442 1.05764 0.44662
 C282 C 0.28248 1.05178 0.47445
 H283 H 0.20260 1.04122 0.48305
 H284 H 0.26144 1.10610 0.53394
 H285 H 0.23321 1.10512 0.45318
 H286 H 0.28567 1.03440 0.49479
 H287 H 0.17623 1.09020 0.58489
 H288 H 0.31947 1.08826 0.40433
 C289 C 0.14435 0.49132 0.16715
 C290 C 0.15817 0.50779 0.19667
 C291 C 0.17048 0.53614 0.18974
 C292 C 0.16930 0.54838 0.15353
 C293 C 0.15537 0.53178 0.12401
 C294 C 0.14284 0.50314 0.13069
 C295 C 0.15997 0.49558 0.23501
 C296 C 0.17967 0.47252 0.24191
 C297 C 0.18222 0.46085 0.27849
 C298 C 0.16404 0.47279 0.30812
 C299 C 0.14324 0.49512 0.30098
 C300 C 0.14183 0.50679 0.26448
 H301 H 0.13461 0.46944 0.17262
 H302 H 0.18090 0.54884 0.21281
 H303 H 0.19237 0.46324 0.21818
 H304 H 0.12585 0.52390 0.25867
 H305 H 0.15400 0.54122 0.09610
 H306 H 0.16493 0.46389 0.33632
 C307 C -0.14416 1.01487 0.20489
 C308 C -0.15830 0.99970 0.23442
 C309 C -0.17102 0.97139 0.22759
 C310 C -0.16952 0.95719 0.19139
 C311 C -0.15584 0.97294 0.16154
 C312 C -0.14323 1.00201 0.16786
 C313 C -0.15900 1.01250 0.27335
 C314 C -0.17916 1.03489 0.28360
 C315 C -0.18115 1.04653 0.32138
 C316 C -0.16206 1.03448 0.34855
 C317 C -0.14149 1.01217 0.33808
 C318 C -0.14037 1.00117 0.30049
 H319 H -0.13469 1.03701 0.21076
 H320 H -0.18041 0.95976 0.25163
 H321 H -0.19220 1.04386 0.26118
 H322 H -0.12484 0.98377 0.29221
 H323 H -0.15450 0.96233 0.13350
 H324 H -0.16287 1.04221 0.37794
 C325 C 0.36431 0.52159 -0.28219
 C326 C 0.34572 0.50685 -0.25660
 C327 C 0.33095 0.48055 -0.26784
 C328 C 0.33329 0.46900 -0.30530
 C329 C 0.35028 0.48518 -0.33188
 C330 C 0.36675 0.51105 -0.32015
 C331 C 0.34349 0.51705 -0.21678
 C332 C 0.32191 0.53762 -0.20517
 C333 C 0.31916 0.54730 -0.16669
 C334 C 0.33844 0.53481 -0.14027
 C335 C 0.36014 0.51409 -0.15205
 C336 C 0.36234 0.50521 -0.19036
 H337 H 0.37677 0.54131 -0.27252
 H338 H 0.31890 0.46832 -0.24629
 H339 H 0.30859 0.54709 -0.22698
 H340 H 0.37882 0.48908 -0.19976
 H341 H 0.35269 0.47626 -0.36070
 H342 H 0.33696 0.54114 -0.11044
 C343 C 0.64129 -0.00651 -0.33074
 C344 C 0.66399 0.00123 -0.30560
 C345 C 0.68563 0.02215 -0.31589
 C346 C 0.68504 0.03583 -0.35125
 C347 C 0.66350 0.02611 -0.37785
 C348 C 0.64117 0.00509 -0.36750
 C349 C 0.66425 -0.01058 -0.26711
 C350 C 0.68494 -0.03207 -0.25781
 C351 C 0.68600 -0.04311 -0.22084
 C352 C 0.66625 -0.03137 -0.19289
 C353 C 0.64522 -0.00980 -0.20222
 C354 C 0.64447 0.00040 -0.23946
 H355 H 0.62407 -0.02215 -0.32192
 H356 H 0.70161 0.02944 -0.29476
 H357 H 0.69934 -0.04104 -0.28009
 H358 H 0.62853 0.01709 -0.24698
 H359 H 0.66264 0.03665 -0.40514
 H360 H 0.66641 -0.03975 -0.16436
 C361 C -0.00322 0.21574 0.84600
 C362 C -0.01063 0.24182 0.82712
 C363 C -0.03916 0.24519 0.81329
 C364 C -0.06046 0.22247 0.81821
 C365 C -0.05304 0.19658 0.83763
 C366 C -0.02460 0.19320 0.85187
 C367 C 0.01187 0.26509 0.82065
 C368 C 0.03552 0.25872 0.79609
 C369 C 0.05850 0.27969 0.79144
 C370 C 0.05729 0.30766 0.81077
 C371 C 0.03374 0.31399 0.83606
 C372 C 0.01089 0.29269 0.84068
 H373 H 0.01897 0.21329 0.85664
 H374 H -0.04469 0.26546 0.79881
 H375 H 0.03681 0.23675 0.78202
 H376 H -0.00721 0.29728 0.86042
 H377 H -0.06929 0.17868 0.84116
 H378 H 0.07568 0.32345 0.80848
 C379 C 0.50247 0.21216 0.12802
 C380 C 0.50650 0.23922 0.14835
 C381 C 0.53463 0.24778 0.16098
 C382 C 0.55883 0.22937 0.15297
 C383 C 0.55483 0.20238 0.13188
 C384 C 0.52650 0.19350 0.11983
 C385 C 0.48148 0.25925 0.15450
 C386 C 0.45542 0.24917 0.17221
 C387 C 0.43132 0.26836 0.17623
 C388 C 0.43305 0.29744 0.16203
 C389 C 0.45929 0.30751 0.14490
 C390 C 0.48342 0.28842 0.14125
 H391 H 0.48059 0.20585 0.11803
 H392 H 0.53768 0.26877 0.17699
 H393 H 0.45387 0.22655 0.18272
 H394 H 0.50371 0.29627 0.12777
 H395 H 0.57343 0.18771 0.12646
 H396 H 0.41447 0.31244 0.16548
 C397 C 0.01428 0.69701 0.63328
 C398 C 0.01412 0.72666 0.64774
 C399 C 0.03947 0.73919 0.66454
 C400 C 0.06508 0.72236 0.66633
 C401 C 0.06550 0.69285 0.65153
 C402 C 0.04010 0.68014 0.63510
 C403 C -0.01175 0.74552 0.64361
 C404 C -0.03825 0.73905 0.66275
 C405 C -0.06257 0.75804 0.65963
 C406 C -0.05954 0.78406 0.63773
 C407 C -0.03227 0.79156 0.62080
 C408 C -0.00885 0.77157 0.62277
 H409 H -0.00537 0.68728 0.62025
 H410 H 0.03936 0.76214 0.67578
 H411 H -0.03997 0.71898 0.67937
 H412 H 0.01223 0.77693 0.60931
 H413 H 0.08544 0.67974 0.65312
 H414 H -0.07746 0.79992 0.63692
 C415 C 0.50551 0.69995 0.34907
 C416 C 0.50339 0.72986 0.33795
 C417 C 0.47698 0.73973 0.32233
 C418 C 0.45315 0.71968 0.31691
 C419 C 0.45545 0.68985 0.32782
 C420 C 0.48137 0.68005 0.34447
 C421 C 0.52863 0.75097 0.34228
 C422 C 0.55466 0.74614 0.32084
 C423 C 0.57723 0.76816 0.32048
 C424 C 0.57394 0.79445 0.34329
 C425 C 0.54821 0.79935 0.36508
 C426 C 0.52554 0.77755 0.36446
 H427 H 0.52559 0.69241 0.36202
 H428 H 0.47499 0.76293 0.31435
 H429 H 0.55644 0.72616 0.30265
 H430 H 0.50502 0.78182 0.37985
 H431 H 0.43659 0.67464 0.32496
 H432 H 0.59111 0.81172 0.34337
 B433 B -0.02705 0.03284 1.01727
 B434 B -0.03875 0.01451 0.97698
 B435 B -0.01386 0.04314 0.97461
 B436 B 0.00947 0.04183 1.01142
 B437 B -0.00125 0.01196 1.03735
 B438 B -0.03152 -0.00482 1.01637
 B439 B 0.01504 -0.00969 0.96711
 B440 B 0.02728 0.00888 1.00623
 B441 B 0.00208 -0.01943 1.00990
 B442 B -0.02102 -0.01835 0.97250
 B443 B -0.01025 0.01175 0.94633
 B444 B 0.01977 0.02817 0.96745
 B445 B 0.47033 0.51897 0.50766
 B446 B 0.45572 0.50000 0.46980
 B447 B 0.48088 0.52784 0.46337
 B448 B 0.50640 0.52692 0.49775
 B449 B 0.49692 0.49798 0.52607
 B450 B 0.46511 0.48150 0.50904
 B451 B 0.50817 0.47423 0.45521
 B452 B 0.52323 0.49366 0.49203
 B453 B 0.49790 0.46597 0.49949
 B454 B 0.47236 0.46668 0.46475
 B455 B 0.48203 0.49562 0.43614
 B456 B 0.51357 0.51205 0.45325
 B457 B 0.52884 0.99078 0.46394
 B458 B 0.54336 1.00400 0.42307
 B459 B 0.51929 0.97462 0.42194
 B460 B 0.49324 0.98013 0.45627
 B461 B 0.50124 1.01385 0.47858
 B462 B 0.53271 1.02804 0.45825
 B463 B 0.49011 1.02494 0.40432
 B464 B 0.47517 1.01140 0.44476
 B465 B 0.49945 1.04102 0.44620
 B466 B 0.52560 1.03532 0.41196
 B467 B 0.51742 1.00199 0.38970
 B468 B 0.48605 0.98730 0.40988
 B469 B 0.02911 0.48789 0.97661
 B470 B 0.04754 0.50790 0.94328
 B471 B 0.02252 0.48099 0.93035
 B472 B -0.00607 0.48140 0.96161
 B473 B 0.00141 0.50903 0.99424
 B474 B 0.03492 0.52524 0.98329
 B475 B -0.00307 0.53540 0.92568
 B476 B -0.02165 0.51543 0.95854
 B477 B 0.00328 0.54213 0.97220
 B478 B 0.03190 0.54188 0.94058
 B479 B 0.02449 0.51400 0.90778
 B480 B -0.00889 0.49792 0.91881
 B481 B 0.03663 0.50415 0.48319
 B482 B 0.04923 0.48889 0.52322
 B483 B 0.02811 0.51971 0.52597
 B484 B 0.00206 0.51721 0.49223
 B485 B 0.00699 0.48396 0.46824
 B486 B 0.03674 0.46649 0.48711
 B487 B -0.00635 0.47133 0.54180
 B488 B -0.01908 0.48709 0.50260
 B489 B 0.00208 0.45609 0.49909
 B490 B 0.02819 0.45849 0.53310
 B491 B 0.02296 0.49170 0.55729
 B492 B -0.00628 0.50920 0.53837
 B493 B 0.53794 0.01315 -0.02394
 B494 B 0.54490 0.00628 0.02232
 B495 B 0.52009 0.03229 0.01089
 B496 B 0.50130 0.02023 -0.02798
 B497 B 0.51480 -0.01389 -0.04058
 B498 B 0.54240 -0.02234 -0.00985
 B499 B 0.49032 -0.01825 0.03030
 B500 B 0.48317 -0.01172 -0.01552
 B501 B 0.50849 -0.03765 -0.00479
 B502 B 0.52683 -0.02552 0.03439
 B503 B 0.51307 0.00884 0.04726
 B504 B 0.48619 0.01732 0.01597
 B505 B 0.46204 0.49410 0.02687
 B506 B 0.45474 0.50027 0.07389
 B507 B 0.47693 0.47205 0.05909
 B508 B 0.49753 0.48332 0.02130
 B509 B 0.48790 0.51946 0.01321
 B510 B 0.46107 0.52942 0.04538
 B511 B 0.51169 0.51824 0.08411
 B512 B 0.51858 0.51263 0.03741
 B513 B 0.49612 0.54074 0.05215
 B514 B 0.47602 0.52926 0.08996
 B515 B 0.48570 0.49345 0.09819
 B516 B 0.51203 0.48298 0.06516
 B517 B -0.03986 0.98374 0.51624
 B518 B -0.04753 0.98780 0.56360
 B519 B -0.02358 0.96165 0.54744
 B520 B -0.00354 0.97544 0.51077
 B521 B -0.01537 1.01099 0.50423
 B522 B -0.04322 1.01822 0.53651
 B523 B 0.00773 1.00966 0.57531
 B524 B 0.01567 1.00545 0.52888
 B525 B -0.00893 1.03179 0.54393
 B526 B -0.02849 1.01784 0.58106
 B527 B -0.01632 0.98237 0.58774
 B528 B 0.01079 0.97491 0.55485
 B529 B 0.75604 0.20971 0.25348
 B530 B 0.74034 0.19822 0.29468
 B531 B 0.77083 0.22058 0.29517
 B532 B 0.76877 0.24553 0.26008
 B533 B 0.73631 0.23830 0.23766
 B534 B 0.71894 0.20861 0.25881
 B535 B 0.72313 0.25494 0.31092
 B536 B 0.73886 0.26645 0.27027
 B537 B 0.70849 0.24378 0.26923
 B538 B 0.71053 0.21918 0.30471
 B539 B 0.74305 0.22651 0.32736
 B540 B 0.76051 0.25593 0.30600
 B541 B 0.71814 0.77307 0.73004
 B542 B 0.73294 0.78662 0.77135
 B543 B 0.70628 0.75963 0.77183
 B544 B 0.71127 0.73562 0.73442
 B545 B 0.74160 0.74784 0.71047
 B546 B 0.75485 0.77991 0.73299
 B547 B 0.75924 0.73351 0.78125
 B548 B 0.74435 0.71969 0.74074
 B549 B 0.77096 0.74676 0.73925
 B550 B 0.76616 0.77069 0.77708
 B551 B 0.73564 0.75842 0.80124
 B552 B 0.72241 0.72675 0.77866
 B553 B 0.26404 0.28559 0.76598
 B554 B 0.26977 0.30126 0.72338
 B555 B 0.29159 0.27314 0.73756
 B556 B 0.27036 0.24808 0.76159
 B557 B 0.23545 0.26115 0.76217
 B558 B 0.23521 0.29407 0.73857
 B559 B 0.25165 0.25007 0.68768
 B560 B 0.24523 0.23407 0.72985
 B561 B 0.22381 0.26263 0.71678
 B562 B 0.24507 0.28711 0.69223
 B563 B 0.28044 0.27420 0.69194
 B564 B 0.28009 0.24110 0.71540
 B565 B 0.24212 0.71261 0.25075
 B566 B 0.24714 0.70595 0.20324
 B567 B 0.22270 0.73205 0.21962
 B568 B 0.23698 0.74986 0.25851
 B569 B 0.27045 0.73453 0.26646
 B570 B 0.27646 0.70718 0.23257
 B571 B 0.27323 0.76073 0.19716
 B572 B 0.26851 0.76720 0.24413
 B573 B 0.29248 0.74093 0.22842
 B574 B 0.27845 0.72357 0.18913
 B575 B 0.24480 0.73897 0.18109
 B576 B 0.23912 0.76601 0.21549
 B577 B 0.25399 0.70920 0.77275
 B578 B 0.23831 0.69732 0.81368
 B579 B 0.26906 0.71913 0.81477
 B580 B 0.26739 0.74465 0.78047
 B581 B 0.23483 0.73848 0.75799
 B582 B 0.21695 0.70870 0.77825
 B583 B 0.22180 0.75400 0.83163
 B584 B 0.23794 0.76591 0.79145
 B585 B 0.20717 0.74390 0.78969
 B586 B 0.20877 0.71852 0.82441
 B587 B 0.24135 0.72497 0.84725
 B588 B 0.25927 0.75441 0.82674
 B589 B 0.21410 0.27842 0.23757
 B590 B 0.23026 0.29073 0.27846
 B591 B 0.20159 0.26608 0.27957
 B592 B 0.20420 0.24173 0.24201
 B593 B 0.23528 0.25140 0.21733
 B594 B 0.25122 0.28221 0.23968
 B595 B 0.25220 0.23559 0.28786
 B596 B 0.23582 0.22305 0.24777
 B597 B 0.26446 0.24784 0.24593
 B598 B 0.26195 0.27214 0.28371
 B599 B 0.23094 0.26229 0.30853
 B600 B 0.21493 0.23185 0.28617
 B601 B 0.78013 0.77929 0.28574
 B602 B 0.78037 0.79030 0.23987
 B603 B 0.80720 0.76785 0.25606
 B604 B 0.79157 0.74344 0.28679
 B605 B 0.75475 0.75110 0.28960
 B606 B 0.74849 0.78033 0.26125
 B607 B 0.76772 0.73345 0.21634
 B608 B 0.76699 0.72250 0.26171
 B609 B 0.74031 0.74516 0.24596
 B610 B 0.75598 0.76910 0.21513
 B611 B 0.79284 0.76154 0.21213
 B612 B 0.79930 0.73242 0.24110
 B613 B 0.72928 0.21377 0.74036
 B614 B 0.73538 0.20471 0.69368
 B615 B 0.71165 0.23233 0.70684
 B616 B 0.72508 0.25177 0.74465
 B617 B 0.75738 0.23587 0.75554
 B618 B 0.76373 0.20625 0.72433
 B619 B 0.76393 0.25762 0.68439
 B620 B 0.75756 0.26729 0.73043
 B621 B 0.78113 0.23935 0.71859
 B622 B 0.76789 0.22017 0.68007
 B623 B 0.73499 0.23622 0.66909
 B624 B 0.72933 0.26554 0.70009
 C625 C 0.37324 1.07621 0.34381
 C626 C 0.37295 1.05743 0.31081
 C627 C 0.39998 1.04525 0.29783
 C628 C 0.42521 1.04735 0.32014
 C629 C 0.42416 1.06270 0.35569
 C630 C 0.39858 1.07853 0.36632
 C631 C 0.44754 1.05954 0.38115
 C632 C 0.47078 1.03971 0.37206
 C633 C 0.47323 1.02821 0.33440
 C634 C 0.45069 1.03208 0.30870
 H635 H 0.40127 1.03298 0.27081
 H636 H 0.39745 1.09094 0.39322
 H637 H 0.44557 1.06948 0.40930
 H638 H 0.45217 1.02096 0.28094
 H639 H 0.35332 1.08686 0.35427
 H640 H 0.49129 1.01394 0.32529
 C641 C -0.11832 0.58351 0.85933
 C642 C -0.11417 0.56705 0.82491
 C643 C -0.08517 0.55907 0.81429
 C644 C -0.06185 0.56336 0.83965
 C645 C -0.06744 0.57450 0.87695
 C646 C -0.09542 0.58625 0.88581
 C647 C -0.04591 0.57096 0.90509
 C648 C -0.01944 0.55591 0.89569
 C649 C -0.01209 0.55164 0.85677
 C650 C -0.03340 0.55448 0.82914
 H651 H -0.08087 0.54852 0.78663
 H652 H -0.10007 0.59593 0.91380
 H653 H -0.05138 0.57628 0.93455
 H654 H -0.02824 0.54750 0.80008
 H655 H -0.13989 0.59152 0.86751
 H656 H 0.00890 0.54245 0.84753
 C657 C 0.09725 -0.02600 0.82701
 C658 C 0.12104 -0.03856 0.84611
 C659 C 0.11581 -0.05090 0.88197
 C660 C 0.08807 -0.04756 0.90007
 C661 C 0.06557 -0.03183 0.88206
 C662 C 0.06989 -0.02243 0.84490
 C663 C 0.04008 -0.02350 0.90239
 C664 C 0.03711 -0.02962 0.94118
 C665 C 0.05768 -0.04885 0.95728
 C666 C 0.08303 -0.05769 0.93689
 H667 H 0.13368 -0.06122 0.89679
 H668 H 0.05254 -0.01110 0.83027
 H669 H 0.02412 -0.00965 0.88876
 H670 H 0.09972 -0.07033 0.95101
 H671 H 0.10001 -0.01798 0.79844
 H672 H 0.05613 -0.05443 0.98687
 C673 C 0.58256 0.44896 0.31071
 C674 C 0.60711 0.43817 0.32989
 C675 C 0.60319 0.42648 0.36614
 C676 C 0.57605 0.43024 0.38545
 C677 C 0.55273 0.44507 0.36773
 C678 C 0.55548 0.45239 0.32952
 C679 C 0.52862 0.45546 0.38949
 C680 C 0.52803 0.45219 0.42903
 C681 C 0.54912 0.43348 0.44514
 C682 C 0.57298 0.42267 0.42353
 H683 H 0.62207 0.41800 0.38093
 H684 H 0.53763 0.46319 0.31523
 H685 H 0.51219 0.46893 0.37612
 H686 H 0.59036 0.41086 0.43750
 H687 H 0.58516 0.45748 0.28234
 H688 H 0.54949 0.43004 0.47532
 C689 C 0.59355 0.57457 0.21631
 C690 C 0.61727 0.55492 0.20934
 C691 C 0.61658 0.53579 0.17730
 C692 C 0.59155 0.53357 0.15482
 C693 C 0.56697 0.55227 0.16208
 C694 C 0.56867 0.57351 0.19249
 C695 C 0.54123 0.54846 0.13953
 C696 C 0.53989 0.52523 0.11128
 C697 C 0.56495 0.50661 0.10624
 C698 C 0.59041 0.51131 0.12661
 H699 H 0.63500 0.52094 0.17137
 H700 H 0.55031 0.58827 0.19887
 H701 H 0.52236 0.56282 0.14450
 H702 H 0.60902 0.49665 0.12104
 H703 H 0.59367 0.58965 0.24102
 H704 H 0.56584 0.48826 0.08554
 C705 C 0.12726 0.98873 0.65764
 C706 C 0.13395 1.01825 0.67089
 C707 C 0.11433 1.04148 0.66148
 C708 C 0.08755 1.03458 0.64246
 C709 C 0.08095 1.00449 0.63188
 C710 C 0.10117 0.98196 0.63871
 C711 C 0.05439 0.99701 0.61401
 C712 C 0.03416 1.01917 0.60399
 C713 C 0.04035 1.04916 0.61546
 C714 C 0.06678 1.05679 0.63456
 H715 H 0.11864 1.06443 0.67117
 H716 H 0.09670 0.95887 0.62968
 H717 H 0.05026 0.97352 0.60688
 H718 H 0.07120 1.08011 0.64253
 H719 H 0.14229 0.97047 0.66190
 H720 H 0.02537 1.06682 0.60841
 C721 C -0.07232 0.46170 0.69854
 C722 C -0.09894 0.44906 0.68478
 C723 C -0.09990 0.43750 0.64725
 C724 C -0.07532 0.44112 0.62277
 C725 C -0.04945 0.45591 0.63624
 C726 C -0.04778 0.46503 0.67454
 C727 C -0.02642 0.46311 0.61080
 C728 C -0.02893 0.45623 0.57170
 C729 C -0.05376 0.43920 0.55935
 C730 C -0.07676 0.43191 0.58451
 H731 H -0.12037 0.42784 0.63639
 H732 H -0.02801 0.47609 0.68549
 H733 H -0.00744 0.47577 0.62136
 H734 H -0.09628 0.42033 0.57362
 H735 H -0.07104 0.47040 0.72754
 H736 H -0.05656 0.43305 0.52973
 C737 C 0.36848 -0.00987 0.11765
 C738 C 0.37202 -0.03314 0.14305
 C739 C 0.39770 -0.05090 0.14022
 C740 C 0.41995 -0.04458 0.11312
 C741 C 0.41627 -0.02038 0.08899
 C742 C 0.39061 -0.00321 0.09142
 C743 C 0.43861 -0.01284 0.06336
 C744 C 0.46481 -0.02955 0.05936
 C745 C 0.46890 -0.05294 0.08466
 C746 C 0.44648 -0.06073 0.11089
 H747 H 0.40100 -0.06862 0.16009
 H748 H 0.38781 0.01579 0.07341
 H749 H 0.43550 0.00721 0.04765
 H750 H 0.45018 -0.07889 0.12997
 H751 H 0.34887 0.00380 0.11877
 H752 H 0.48965 -0.06470 0.08497
 C753 C 0.34200 0.42379 0.11477
 C754 C 0.32128 0.44420 0.10165
 C755 C 0.33061 0.47401 0.09548
 C756 C 0.36059 0.48250 0.09883
 C757 C 0.38161 0.46117 0.10916
 C758 C 0.37186 0.43221 0.11863
 C759 C 0.41207 0.46838 0.10680
 C760 C 0.42179 0.49586 0.09157
 C761 C 0.40042 0.51806 0.08594
 C762 C 0.37021 0.51142 0.08947
 H763 H 0.31483 0.49006 0.08571
 H764 H 0.38758 0.41552 0.12677
 H765 H 0.42790 0.45167 0.11405
 H766 H 0.35441 0.52835 0.08238
 H767 H 0.33553 0.40066 0.11951
 H768 H 0.40677 0.54000 0.07591
 C769 C -0.18532 0.98944 0.57698
 C770 C -0.18965 0.96045 0.59157
 C771 C -0.16521 0.94638 0.60764
 C772 C -0.13648 0.95896 0.60357
 C773 C -0.13249 0.98694 0.58609
 C774 C -0.15721 1.00265 0.57476
 C775 C -0.10385 0.99762 0.57727
 C776 C -0.07903 0.97962 0.58296
 C777 C -0.08306 0.95333 0.60387
 C778 C -0.11147 0.94307 0.61398
 H779 H -0.16780 0.92410 0.61896
 H780 H -0.15465 1.02435 0.56185
 H781 H -0.10131 1.01852 0.56248
 H782 H -0.11389 0.92189 0.62816
 H783 H -0.20374 1.00161 0.56596
 H784 H -0.06439 0.93990 0.61122
 C785 C -0.14619 0.07677 0.90307
 C786 C -0.16879 0.06040 0.92149
 C787 C -0.16124 0.03371 0.93953
 C788 C -0.13152 0.02562 0.94312
 C789 C -0.10900 0.04321 0.92629
 C790 C -0.11665 0.06798 0.90496
 C791 C -0.07921 0.03700 0.93320
 C792 C -0.07161 0.01559 0.95997
 C793 C -0.09418 -0.00354 0.97381
 C794 C -0.12382 0.00129 0.96519
 H795 H -0.17833 0.02017 0.95291
 H796 H -0.09961 0.08175 0.89184
 H797 H -0.06225 0.05008 0.91917
 H798 H -0.14081 -0.01278 0.97787
 H799 H -0.15099 0.09745 0.88916
 H800 H -0.08920 -0.02110 0.99322
 C801 C 0.34678 0.56630 0.40800
 C802 C 0.32511 0.55310 0.43162
 C803 C 0.33243 0.52695 0.45093
 C804 C 0.36156 0.51650 0.45040
 C805 C 0.38331 0.53082 0.42793
 C806 C 0.37542 0.55491 0.40564
 C807 C 0.41299 0.52242 0.43038
 C808 C 0.42170 0.50212 0.45788
 C809 C 0.39954 0.48642 0.47806
 C810 C 0.36971 0.49328 0.47395
 H811 H 0.31593 0.51569 0.46823
 H812 H 0.39190 0.56626 0.38835
 H813 H 0.42933 0.53354 0.41298
 H814 H 0.35327 0.48183 0.49116
 H815 H 0.34227 0.58652 0.39295
 H816 H 0.40523 0.46998 0.49865
 C817 C 0.15737 0.55412 0.59750
 C818 C 0.17938 0.54378 0.57180
 C819 C 0.17246 0.51897 0.54726
 C820 C 0.14345 0.50721 0.54542
 C821 C 0.12151 0.51884 0.57030
 C822 C 0.12894 0.54140 0.59723
 C823 C 0.09203 0.50942 0.56611
 C824 C 0.08341 0.49083 0.53502
 C825 C 0.10568 0.47743 0.51221
 C826 C 0.13551 0.48535 0.51761
 H827 H 0.18916 0.50977 0.52808
 H828 H 0.11223 0.55064 0.61642
 H829 H 0.07563 0.51837 0.58568
 H830 H 0.15208 0.47591 0.49842
 H831 H 0.16137 0.57325 0.61649
 H832 H 0.09998 0.46244 0.48857
 C833 C 0.68281 0.01170 0.03874
 C834 C 0.68445 0.04026 0.05697
 C835 C 0.65848 0.05261 0.07292
 C836 C 0.63090 0.03826 0.06692
 C837 C 0.62931 0.01087 0.04562
 C838 C 0.65553 -0.00289 0.03319
 C839 C 0.60159 -0.00105 0.03462
 C840 C 0.57549 0.01494 0.04308
 C841 C 0.57733 0.04009 0.06822
 C842 C 0.60472 0.05185 0.07963
 H843 H 0.65932 0.07465 0.08683
 H844 H 0.65483 -0.02406 0.01720
 H845 H 0.60070 -0.02116 0.01653
 H846 H 0.60541 0.07237 0.09697
 H847 H 0.70254 0.00148 0.02670
 H848 H 0.55768 0.05163 0.07800
 C849 C 0.67680 0.99868 0.46236
 C850 C 0.68292 0.97283 0.43964
 C851 C 0.66302 0.96435 0.41072
 C852 C 0.63606 0.97926 0.40752
 C853 C 0.62886 1.00304 0.43330
 C854 C 0.64997 1.01351 0.45940
 C855 C 0.59987 1.01400 0.43487
 C856 C 0.57774 1.00050 0.41196
 C857 C 0.58649 0.98036 0.38255
 C858 C 0.61524 0.96941 0.38070
 H859 H 0.66720 0.94467 0.39274
 H860 H 0.64511 1.03209 0.47896
 H861 H 0.59402 1.03056 0.45677
 H862 H 0.62068 0.95207 0.35962
 H863 H 0.69220 1.00670 0.48377
 H864 H 0.57081 0.97164 0.36215
 C865 C 0.18392 0.50230 0.97731
 C866 C 0.18996 0.47870 0.95066
 C867 C 0.16866 0.47227 0.92255
 C868 C 0.14120 0.48638 0.92347
 C869 C 0.13404 0.50703 0.95318
 C870 C 0.15620 0.51613 0.97875
 C871 C 0.10444 0.51622 0.95825
 C872 C 0.08227 0.50486 0.93353
 C873 C 0.09122 0.48851 0.90070
 C874 C 0.12009 0.47865 0.89620
 H875 H 0.17191 0.45453 0.90139
 H876 H 0.15157 0.53264 1.00119
 H877 H 0.09843 0.53011 0.98286
 H878 H 0.12561 0.46405 0.87204
 H879 H 0.20001 0.50934 0.99829
 H880 H 0.07580 0.48213 0.87891
 C881 C -0.01514 0.35739 0.37140
 C882 C -0.01308 0.33235 0.39438
 C883 C -0.01411 0.33627 0.43413
 C884 C -0.01460 0.36525 0.45078
 C885 C -0.01511 0.39036 0.42731
 C886 C -0.01645 0.38621 0.38777
 C887 C -0.01214 0.41925 0.44339
 C888 C -0.00830 0.42382 0.48279
 C889 C -0.00882 0.39865 0.50603
 C890 C -0.01234 0.36965 0.49022
 H891 H -0.01213 0.31698 0.45194
 H892 H -0.01698 0.40531 0.36944
 H893 H -0.01080 0.43792 0.42444
 H894 H -0.01177 0.35061 0.50864
 H895 H -0.01451 0.35466 0.34074
 H896 H -0.00521 0.40120 0.53628
 C897 C 0.51491 -0.14051 -0.12832
 C898 C 0.50515 -0.16496 -0.10689
 C899 C 0.49651 -0.15981 -0.06849
 C900 C 0.49948 -0.13095 -0.05150
 C901 C 0.51246 -0.10781 -0.07265
 C902 C 0.51943 -0.11249 -0.11111
 C903 C 0.51781 -0.07987 -0.05559
 C904 C 0.50690 -0.07244 -0.01871
 C905 C 0.49321 -0.09541 0.00207
 C906 C 0.49023 -0.12466 -0.01382
 H907 H 0.48869 -0.17820 -0.05140
 H908 H 0.52832 -0.09440 -0.12798
 H909 H 0.52940 -0.06350 -0.07261
 H910 H 0.47990 -0.14206 0.00289
 H911 H 0.52018 -0.14321 -0.15829
 H912 H 0.48438 -0.09099 0.03008
 C913 C -0.00828 -0.15852 1.03857
 C914 C -0.00756 -0.15587 1.07839
 C915 C -0.00090 -0.12805 1.09584
 C916 C 0.00335 -0.10261 1.07420
 C917 C 0.00136 -0.10473 1.03420
 C918 C -0.00390 -0.13302 1.01654
 C919 C 0.00331 -0.07839 1.01303
 C920 C 0.00678 -0.05007 1.03164
 C921 C 0.00912 -0.04897 1.07161
 C922 C 0.00804 -0.07484 1.09242
 H923 H 0.00017 -0.12610 1.12658
 H924 H -0.00539 -0.13528 0.98592
 H925 H 0.00063 -0.07983 0.98250
 H926 H 0.00933 -0.07291 1.12311
 H927 H -0.01315 -0.18003 1.02470
 H928 H 0.01014 -0.02801 1.08779
 C929 C 0.47700 0.32913 0.53051
 C930 C 0.48233 0.33123 0.56963
 C931 C 0.49419 0.35786 0.58563
 C932 C 0.49930 0.38286 0.56328
 C933 C 0.49259 0.38132 0.52424
 C934 C 0.48206 0.35410 0.50791
 C935 C 0.49500 0.40739 0.50285
 C936 C 0.50335 0.43514 0.52027
 C937 C 0.51129 0.43570 0.55879
 C938 C 0.50962 0.40981 0.57989
 H939 H 0.49864 0.35928 0.61581
 H940 H 0.47689 0.35244 0.47800
 H941 H 0.48866 0.40637 0.47328
 H942 H 0.51489 0.41125 0.60980
 H943 H 0.46799 0.30856 0.51782
 H944 H 0.51698 0.45646 0.57373
 C945 C 0.54392 1.15886 0.52516
 C946 C 0.51822 1.16505 0.54664
 C947 C 0.49158 1.15005 0.53738
 C948 C 0.49130 1.12715 0.50905
 C949 C 0.51764 1.12012 0.48897
 C950 C 0.54357 1.13681 0.49625
 C951 C 0.51835 1.09500 0.46417
 C952 C 0.49379 1.07510 0.46116
 C953 C 0.46698 1.08414 0.47838
 C954 C 0.46567 1.10997 0.50193
 H955 H 0.47168 1.15480 0.55387
 H956 H 0.56394 1.13179 0.48091
 H957 H 0.53919 1.08945 0.45030
 H958 H 0.44498 1.11550 0.51618
 H959 H 0.56450 1.17065 0.53144
 H960 H 0.44705 1.07115 0.47481
 C961 C 0.01417 0.67833 1.02560
 C962 C 0.01836 0.67226 1.06422
 C963 C 0.01366 0.64291 1.07637
 C964 C 0.00559 0.61989 1.05067
 C965 C 0.00432 0.62523 1.01139
 C966 C 0.00816 0.65481 0.99918
 C967 C 0.00043 0.60072 0.98538
 C968 C -0.00304 0.57132 0.99879
 C969 C -0.00529 0.56760 1.03852
 C970 C -0.00059 0.59139 1.06395
 H971 H 0.01534 0.63812 1.10629
 H972 H 0.00676 0.65970 0.96933
 H973 H 0.00204 0.60428 0.95512
 H974 H -0.00058 0.58717 1.09410
 H975 H 0.01729 0.70091 1.01547
 H976 H -0.00819 0.54581 1.05087
 C977 C 0.50996 0.64696 -0.05703
 C978 C 0.48617 0.66347 -0.04139
 C979 C 0.47490 0.65615 -0.00528
 C980 C 0.48600 0.63158 0.01372
 C981 C 0.50701 0.61297 -0.00474
 C982 C 0.51970 0.62141 -0.03937
 C983 C 0.51320 0.58506 0.01008
 C984 C 0.50006 0.57594 0.04450
 C985 C 0.48278 0.59689 0.06547
 C986 C 0.47524 0.62417 0.04979
 H987 H 0.45740 0.66942 0.00784
 H988 H 0.53635 0.60764 -0.05348
 H989 H 0.52584 0.56940 -0.00745
 H990 H 0.45978 0.63868 0.06495
 H991 H 0.51922 0.65206 -0.08468
 H992 H 0.47239 0.59100 0.09215
 C993 C 0.00495 1.14217 0.43944
 C994 C -0.02008 1.15753 0.45358
 C995 C -0.03347 1.14824 0.48782
 C996 C -0.02276 1.12319 0.50647
 C997 C -0.00023 1.10590 0.48905
 C998 C 0.01414 1.11604 0.45629
 C999 C 0.00623 1.07776 0.50308
 C1000 C -0.00742 1.06734 0.53661
 C1001 C -0.02688 1.08686 0.55658
 C1002 C -0.03506 1.11412 0.54114
 H1003 H -0.05211 1.16046 0.49986
 H1004 H 0.03195 1.10331 0.44307
 H1005 H 0.02012 1.06305 0.48581
 H1006 H -0.05188 1.12748 0.55554
 H1007 H 0.01578 1.14865 0.41323
 H1008 H -0.03812 1.07980 0.58221
 C1009 C 0.76035 0.65408 0.92229
 C1010 C 0.77673 0.62976 0.90663
 C1011 C 0.79206 0.63417 0.87179
 C1012 C 0.78938 0.66116 0.85231
 C1013 C 0.77165 0.68427 0.86792
 C1014 C 0.75793 0.68084 0.90328
 C1015 C 0.76615 0.70972 0.84697
 C1016 C 0.77633 0.71177 0.80911
 C1017 C 0.79623 0.68992 0.79512
 C1018 C 0.80288 0.66498 0.81662
 H1019 H 0.80449 0.61615 0.85833
 H1020 H 0.74465 0.69866 0.91597
 H1021 H 0.75137 0.72640 0.85925
 H1022 H 0.81691 0.64773 0.80415
 H1023 H 0.74988 0.65317 0.95002
 H1024 H 0.80466 0.69046 0.76632
 C1025 C 0.25912 0.15311 0.42606
 C1026 C 0.27513 0.12925 0.40855
 C1027 C 0.28936 0.13447 0.37331
 C1028 C 0.28513 0.16160 0.35466
 C1029 C 0.26732 0.18410 0.37182
 C1030 C 0.25529 0.18004 0.40797
 C1031 C 0.26014 0.20957 0.35178
 C1032 C 0.26923 0.21249 0.31374
 C1033 C 0.28891 0.19108 0.29788
 C1034 C 0.29694 0.16602 0.31823
 H1035 H 0.30181 0.11686 0.35891
 H1036 H 0.24216 0.19740 0.42194
 H1037 H 0.24527 0.22573 0.36504
 H1038 H 0.31074 0.14913 0.30446
 H1039 H 0.24976 0.15146 0.45437
 H1040 H 0.29613 0.19202 0.26861
 C1041 C 0.72655 0.34052 0.45356
 C1042 C 0.71291 0.36523 0.43729
 C1043 C 0.69847 0.36082 0.40237
 C1044 C 0.69920 0.33275 0.38313
 C1045 C 0.71490 0.30891 0.39855
 C1046 C 0.72778 0.31277 0.43425
 C1047 C 0.71910 0.28226 0.37708
 C1048 C 0.70868 0.27940 0.33967
 C1049 C 0.69046 0.30215 0.32632
 C1050 C 0.68580 0.32854 0.34781
 H1051 H 0.68781 0.37941 0.38922
 H1052 H 0.73944 0.29455 0.44686
 H1053 H 0.73273 0.26495 0.38846
 H1054 H 0.67340 0.34644 0.33561
 H1055 H 0.73661 0.34258 0.48123
 H1056 H 0.68225 0.30128 0.29770
 C1057 C 0.22218 0.84011 0.97406
 C1058 C 0.20661 0.86407 0.95849
 C1059 C 0.19052 0.85813 0.92500
 C1060 C 0.19327 0.83030 0.90521
 C1061 C 0.21106 0.80765 0.91980
 C1062 C 0.22429 0.81233 0.95506
 C1063 C 0.21713 0.78156 0.89784
 C1064 C 0.20675 0.77823 0.86049
 C1065 C 0.18732 0.80010 0.84740
 C1066 C 0.18043 0.82561 0.86962
 H1067 H 0.17835 0.87587 0.91214
 H1068 H 0.23742 0.79497 0.96723
 H1069 H 0.23210 0.76521 0.90875
 H1070 H 0.16684 0.84272 0.85770
 H1071 H 0.23312 0.84275 1.00113
 H1072 H 0.17957 0.79939 0.81862
 C1073 C 0.27772 0.89252 0.13841
 C1074 C 0.29808 0.88893 0.10805
 C1075 C 0.31421 0.86185 0.10483
 C1076 C 0.30660 0.83742 0.12828
 C1077 C 0.28381 0.84099 0.15566
 C1078 C 0.27069 0.86893 0.16186
 C1079 C 0.27344 0.81644 0.17586
 C1080 C 0.28626 0.78781 0.17162
 C1081 C 0.30983 0.78447 0.14534
 C1082 C 0.31975 0.80897 0.12365
 H1083 H 0.33013 0.85861 0.08183
 H1084 H 0.25385 0.87216 0.18376
 H1085 H 0.25502 0.82016 0.19524
 H1086 H 0.33736 0.80554 0.10289
 H1087 H 0.26590 0.91337 0.14274
 H1088 H 0.32021 0.76288 0.14103
 C1089 C 0.81211 0.38185 0.63239
 C1090 C 0.79770 0.38076 0.59729
 C1091 C 0.78714 0.35299 0.58267
 C1092 C 0.78773 0.32738 0.60454
 C1093 C 0.80022 0.32898 0.64102
 C1094 C 0.81374 0.35596 0.65390
 C1095 C 0.79692 0.30436 0.66488
 C1096 C 0.77896 0.27952 0.65390
 C1097 C 0.77002 0.27698 0.61570
 C1098 C 0.77446 0.30063 0.59125
 H1099 H 0.77718 0.35160 0.55483
 H1100 H 0.82408 0.35745 0.68142
 H1101 H 0.80645 0.30575 0.69279
 H1102 H 0.76562 0.29875 0.56283
 H1103 H 0.82099 0.40291 0.64381
 H1104 H 0.75775 0.25753 0.60501
 C1105 C 0.19401 0.14915 0.58790
 C1106 C 0.22013 0.13254 0.58138
 C1107 C 0.24736 0.14650 0.59027
 C1108 C 0.24847 0.17588 0.60577
 C1109 C 0.22211 0.19167 0.61375
 C1110 C 0.19499 0.17820 0.60414
 C1111 C 0.22331 0.21963 0.63362
 C1112 C 0.25021 0.23000 0.64893
 C1113 C 0.27654 0.21644 0.63524
 C1114 C 0.27565 0.18948 0.61432
 H1115 H 0.26780 0.13445 0.58594
 H1116 H 0.17448 0.18992 0.60971
 H1117 H 0.20308 0.23135 0.64072
 H1118 H 0.29621 0.17838 0.60699
 H1119 H 0.17260 0.14006 0.57994
 H1120 H 0.29808 0.22491 0.64383
 C1121 C 0.70338 0.63737 0.11091
 C1122 C 0.72865 0.62179 0.09746
 C1123 C 0.75672 0.63312 0.10793
 C1124 C 0.75936 0.65922 0.13121
 C1125 C 0.73374 0.67370 0.14543
 C1126 C 0.70589 0.66263 0.13500
 C1127 C 0.73629 0.69881 0.17024
 C1128 C 0.76419 0.70948 0.18179
 C1129 C 0.78958 0.69632 0.16491
 C1130 C 0.78720 0.67122 0.14039
 H1131 H 0.77655 0.62177 0.09816
 H1132 H 0.68597 0.67370 0.14514
 H1133 H 0.71646 0.70944 0.18090
 H1134 H 0.80716 0.66090 0.12914
 H1135 H 0.68135 0.63064 0.10229
 H1136 H 0.81156 0.70439 0.17208
 C1137 C 0.16496 0.60257 0.13614
 C1138 C 0.18237 0.57876 0.14789
 C1139 C 0.21146 0.58484 0.15954
 C1140 C 0.22222 0.61450 0.16275
 C1141 C 0.20399 0.63865 0.15351
 C1142 C 0.17576 0.63233 0.13874
 C1143 C 0.21356 0.66847 0.16173
 C1144 C 0.23984 0.67406 0.18205
 C1145 C 0.25915 0.64978 0.18662
 C1146 C 0.25038 0.62041 0.17721
 H1147 H 0.22508 0.56652 0.16835
 H1148 H 0.16144 0.65045 0.13123
 H1149 H 0.19965 0.68698 0.15465
 H1150 H 0.26498 0.60217 0.18343
 H1151 H 0.14244 0.59834 0.12712
 H1152 H 0.28043 0.65292 0.19992
 C1153 C 0.73219 0.06508 0.65939
 C1154 C 0.70358 0.06351 0.64402
 C1155 C 0.69042 0.09030 0.63303
 C1156 C 0.70391 0.11831 0.64194
 C1157 C 0.73093 0.11954 0.66167
 C1158 C 0.74562 0.09281 0.66845
 C1159 C 0.74184 0.14725 0.67628
 C1160 C 0.72585 0.17385 0.67179
 C1161 C 0.70139 0.17268 0.64743
 C1162 C 0.69002 0.14517 0.63357
 H1163 H 0.66846 0.08957 0.62106
 H1164 H 0.76670 0.09328 0.68274
 H1165 H 0.76173 0.14771 0.69309
 H1166 H 0.66987 0.14487 0.61726
 H1167 H 0.74316 0.04477 0.66729
 H1168 H 0.69014 0.19296 0.64025
 C1169 C 0.80683 0.09221 0.35991
 C1170 C 0.79983 0.07106 0.33050
 C1171 C 0.77473 0.07664 0.30820
 C1172 C 0.76007 0.10418 0.31138
 C1173 C 0.76945 0.12609 0.33842
 C1174 C 0.79169 0.11930 0.36389
 C1175 C 0.75837 0.15526 0.33733
 C1176 C 0.74087 0.16372 0.30689
 C1177 C 0.72808 0.14077 0.28377
 C1178 C 0.73759 0.11109 0.28612
 H1179 H 0.76703 0.06014 0.28725
 H1180 H 0.79898 0.13587 0.38505
 H1181 H 0.76547 0.17179 0.35829
 H1182 H 0.72941 0.09430 0.26580
 H1183 H 0.82565 0.08951 0.37798
 H1184 H 0.71324 0.14607 0.26117
 C1185 C 0.30632 0.59122 0.87429
 C1186 C 0.29950 0.57080 0.84402
 C1187 C 0.27415 0.57639 0.82232
 C1188 C 0.25900 0.60353 0.82689
 C1189 C 0.26831 0.62496 0.85463
 C1190 C 0.29081 0.61793 0.87954
 C1191 C 0.25711 0.65408 0.85454
 C1192 C 0.23904 0.66279 0.82480
 C1193 C 0.22642 0.64025 0.80095
 C1194 C 0.23631 0.61068 0.80211
 H1195 H 0.26681 0.56032 0.80062
 H1196 H 0.29803 0.63411 0.90123
 H1197 H 0.26500 0.67057 0.87524
 H1198 H 0.22828 0.59426 0.78123
 H1199 H 0.32539 0.58843 0.89192
 H1200 H 0.21140 0.64591 0.77868
 C1201 C 0.33713 0.41705 0.66416
 C1202 C 0.32101 0.43830 0.68613
 C1203 C 0.29564 0.42852 0.70595
 C1204 C 0.28903 0.39793 0.70865
 C1205 C 0.30574 0.37652 0.68763
 C1206 C 0.32912 0.38645 0.66426
 C1207 C 0.29939 0.34568 0.69156
 C1208 C 0.27830 0.33608 0.71875
 C1209 C 0.26212 0.35808 0.73947
 C1210 C 0.26701 0.38850 0.73395
 H1211 H 0.28228 0.44462 0.72195
 H1212 H 0.34234 0.37042 0.64797
 H1213 H 0.31164 0.32925 0.67463
 H1214 H 0.25411 0.40470 0.75042
 H1215 H 0.35692 0.42371 0.64875
 H1216 H 0.24505 0.35204 0.75971
 C1217 C 0.83598 0.90580 0.16412
 C1218 C 0.82032 0.92704 0.18683
 C1219 C 0.79603 0.91677 0.20860
 C1220 C 0.78974 0.88609 0.21142
 C1221 C 0.80747 0.86479 0.19174
 C1222 C 0.82978 0.87493 0.16689
 C1223 C 0.80341 0.83397 0.19879
 C1224 C 0.78287 0.82462 0.22678
 C1225 C 0.76311 0.84611 0.24236
 C1226 C 0.76678 0.87646 0.23520
 H1227 H 0.78237 0.93271 0.22446
 H1228 H 0.84342 0.85898 0.15108
 H1229 H 0.81751 0.81764 0.18441
 H1230 H 0.75245 0.89253 0.24971
 H1231 H 0.85476 0.91260 0.14682
 H1232 H 0.74578 0.83997 0.26229
 C1233 C 0.73245 0.92713 0.76724
 C1234 C 0.70505 0.93061 0.78639
 C1235 C 0.69385 0.90662 0.80763
 C1236 C 0.70761 0.87855 0.80562
 C1237 C 0.73316 0.87435 0.78261
 C1238 C 0.74642 0.89927 0.76543
 C1239 C 0.74324 0.84503 0.77444
 C1240 C 0.72768 0.81996 0.78870
 C1241 C 0.70522 0.82514 0.81612
 C1242 C 0.69491 0.85402 0.82397
 H1243 H 0.67292 0.90877 0.82277
 H1244 H 0.76637 0.89672 0.74829
 H1245 H 0.76142 0.84175 0.75445
 H1246 H 0.67607 0.85696 0.84301
 H1247 H 0.74220 0.94549 0.75166
 H1248 H 0.69447 0.80688 0.83045
 C1249 C 0.22693 0.42963 0.26099
 C1250 C 0.20148 0.43425 0.28399
 C1251 C 0.19281 0.41153 0.30904
 C1252 C 0.20717 0.38374 0.30807
 C1253 C 0.23054 0.37835 0.28182
 C1254 C 0.24117 0.40193 0.25972
 C1255 C 0.24089 0.34890 0.27565
 C1256 C 0.22735 0.32474 0.29465
 C1257 C 0.20757 0.33141 0.32483
 C1258 C 0.19717 0.36050 0.33107
 H1259 H 0.17344 0.41432 0.32713
 H1260 H 0.25945 0.39847 0.23992
 H1261 H 0.25707 0.34454 0.25324
 H1262 H 0.18011 0.36444 0.35249
 H1263 H 0.23517 0.44700 0.24261
 H1264 H 0.19860 0.31392 0.34227
 C1265 C 0.10036 0.24540 0.79104
 C1266 C 0.08640 0.26942 0.77423
 C1267 C 0.10008 0.28402 0.74360
 C1268 C 0.12844 0.27526 0.73108
 C1269 C 0.14283 0.25236 0.75014
 C1270 C 0.12840 0.23696 0.77918
 C1271 C 0.17229 0.24652 0.74218
 C1272 C 0.18836 0.26233 0.71440
 C1273 C 0.17318 0.28329 0.69302
 C1274 C 0.14346 0.28984 0.70147
 H1275 H 0.08911 0.30247 0.73053
 H1276 H 0.13925 0.21915 0.79372
 H1277 H 0.18327 0.23093 0.76010
 H1278 H 0.13271 0.30726 0.68613
 H1279 H 0.09003 0.23401 0.81467
 H1280 H 0.18481 0.29628 0.67187
 C1281 C 0.61415 0.79050 0.27569
 C1282 C 0.60338 0.76512 0.29464
 C1283 C 0.61855 0.73776 0.28999
 C1284 C 0.64572 0.73680 0.26993
 C1285 C 0.65733 0.76326 0.25401
 C1286 C 0.64083 0.78959 0.25556
 C1287 C 0.68631 0.76383 0.23969
 C1288 C 0.70497 0.73901 0.24364
 C1289 C 0.69155 0.71147 0.25297
 C1290 C 0.66231 0.71041 0.26684
 H1291 H 0.61029 0.71788 0.30393
 H1292 H 0.64925 0.80993 0.24283
 H1293 H 0.69514 0.78490 0.22943
 H1294 H 0.65323 0.68932 0.27668
 H1295 H 0.60230 0.81147 0.27739
 H1296 H 0.70364 0.69093 0.25036
 C1297 C 0.61284 0.23837 0.14412
 C1298 C 0.58798 0.23764 0.16827
 C1299 C 0.59114 0.24348 0.20743
 C1300 C 0.61930 0.24823 0.22271
 C1301 C 0.64427 0.24836 0.19825
 C1302 C 0.64080 0.24413 0.15895
 C1303 C 0.67252 0.25053 0.21347
 C1304 C 0.67668 0.25124 0.25310
 C1305 C 0.65156 0.25176 0.27718
 C1306 C 0.62312 0.25095 0.26210
 H1307 H 0.57188 0.24264 0.22610
 H1308 H 0.65983 0.24411 0.13987
 H1309 H 0.69118 0.24901 0.19397
 H1310 H 0.60418 0.25064 0.28129
 H1311 H 0.61058 0.23413 0.11384
 H1312 H 0.65382 0.25128 0.30770
 C1313 C 0.11633 0.74186 0.66120
 C1314 C 0.09150 0.73547 0.68384
 C1315 C 0.09266 0.73929 0.72342
 C1316 C 0.11953 0.74697 0.74066
 C1317 C 0.14486 0.75214 0.71773
 C1318 C 0.14283 0.75066 0.67805
 C1319 C 0.17241 0.75573 0.73450
 C1320 C 0.17564 0.75242 0.77384
 C1321 C 0.15003 0.74917 0.79667
 C1322 C 0.12212 0.74705 0.78025
 H1323 H 0.07328 0.73413 0.74067
 H1324 H 0.16212 0.75457 0.66014
 H1325 H 0.19152 0.75745 0.71590
 H1326 H 0.10289 0.74320 0.79826
 H1327 H 0.11536 0.73911 0.63057
 H1328 H 0.15168 0.74632 0.82698
 C1329 C 0.91015 0.74195 0.71656
 C1330 C 0.91072 0.75184 0.67885
 C1331 C 0.88389 0.75594 0.66049
 C1332 C 0.85705 0.75071 0.67925
 C1333 C 0.85643 0.74329 0.71798
 C1334 C 0.88323 0.73861 0.73632
 C1335 C 0.82910 0.74123 0.73753
 C1336 C 0.80245 0.74429 0.71792
 C1337 C 0.80398 0.74957 0.67846
 C1338 C 0.83079 0.75320 0.65967
 H1339 H 0.88389 0.76231 0.63098
 H1340 H 0.88337 0.73245 0.76583
 H1341 H 0.82874 0.73819 0.76790
 H1342 H 0.83094 0.75836 0.62979
 H1343 H 0.93053 0.73865 0.73159
 H1344 H 0.78445 0.75235 0.66166
 C1345 C 0.40244 0.25665 0.23460
 C1346 C 0.40412 0.25818 0.19494
 C1347 C 0.37908 0.25233 0.17308
 C1348 C 0.35185 0.24664 0.19077
 C1349 C 0.34969 0.24663 0.23087
 C1350 C 0.37529 0.25086 0.25255
 C1351 C 0.32182 0.24429 0.24852
 C1352 C 0.29604 0.24221 0.22661
 C1353 C 0.29890 0.24112 0.18665
 C1354 C 0.32649 0.24287 0.16899
 H1355 H 0.38065 0.25353 0.14239
 H1356 H 0.37412 0.25080 0.28330
 H1357 H 0.32017 0.24598 0.27923
 H1358 H 0.32782 0.24294 0.13824
 H1359 H 0.42188 0.26114 0.25160
 H1360 H 0.27981 0.24070 0.16850
 C1361 C 0.40527 0.74417 0.32993
 C1362 C 0.42466 0.73038 0.30368
 C1363 C 0.41569 0.72453 0.26614
 C1364 C 0.38687 0.73151 0.25526
 C1365 C 0.36706 0.74410 0.28246
 C1366 C 0.37661 0.75097 0.31943
 C1367 C 0.33762 0.74850 0.27287
 C1368 C 0.32733 0.74113 0.23607
 C1369 C 0.34760 0.72989 0.20870
 C1370 C 0.37710 0.72510 0.21821
 H1371 H 0.43080 0.71379 0.24596
 H1372 H 0.36167 0.76082 0.34050
 H1373 H 0.32252 0.75712 0.29460
 H1374 H 0.39203 0.71555 0.19692
 H1375 H 0.41205 0.74866 0.35896
 H1376 H 0.34048 0.72353 0.18035
 C1377 C 0.88546 0.21721 0.82782
 C1378 C 0.90921 0.22582 0.80435
 C1379 C 0.90370 0.23669 0.76791
 C1380 C 0.87452 0.23797 0.75479
 C1381 C 0.85122 0.22821 0.77853
 C1382 C 0.85675 0.21819 0.81495
 C1383 C 0.82243 0.22837 0.76584
 C1384 C 0.81532 0.23938 0.72999
 C1385 C 0.83856 0.24882 0.70605
 C1386 C 0.86802 0.24817 0.71841
 H1387 H 0.92198 0.24336 0.74963
 H1388 H 0.83882 0.21101 0.83351
 H1389 H 0.80555 0.21975 0.78486
 H1390 H 0.88565 0.25551 0.69954
 H1391 H 0.88914 0.20953 0.85624
 H1392 H 0.83414 0.25633 0.67782
 C1393 C 0.58810 1.00214 0.62191
 C1394 C 0.61727 0.99812 0.60836
 C1395 C 0.62176 0.98684 0.57089
 C1396 C 0.59734 0.98018 0.54739
 C1397 C 0.56857 0.98760 0.56015
 C1398 C 0.56409 0.99787 0.59773
 C1399 C 0.54502 0.98631 0.53453
 C1400 C 0.54979 0.97755 0.49611
 C1401 C 0.57702 0.96429 0.48628
 C1402 C 0.60096 0.96662 0.51118
 H1403 H 0.64403 0.98251 0.56048
 H1404 H 0.54207 1.00309 0.60826
 H1405 H 0.52371 0.99471 0.54396
 H1406 H 0.62251 0.95899 0.50152
 H1407 H 0.58394 1.01049 0.65068
 H1408 H 0.58088 0.95491 0.45803
 C1409 C 0.14061 0.47915 1.06538
 C1410 C 0.12659 0.48651 1.10019
 C1411 C 0.09627 0.47996 1.10482
 C1412 C 0.07939 0.47016 1.07348
 C1413 C 0.09320 0.46556 1.03761
 C1414 C 0.12412 0.46772 1.03468
 C1415 C 0.07571 0.46241 1.00488
 C1416 C 0.04508 0.46759 1.00752
 C1417 C 0.03155 0.46542 1.04378
 C1418 C 0.04860 0.46718 1.07657
 H1419 H 0.08541 0.48508 1.13184
 H1420 H 0.13526 0.46260 1.00794
 H1421 H 0.08635 0.46002 0.97736
 H1422 H 0.03758 0.46914 1.10403
 H1423 H 0.16417 0.48311 1.06167
 H1424 H 0.00777 0.46668 1.04722
 C1425 C -0.14086 0.01541 1.10095
 C1426 C -0.12913 0.01730 1.13782
 C1427 C -0.10219 0.03331 1.14346
 C1428 C -0.08561 0.04353 1.11216
 C1429 C -0.09737 0.04048 1.07538
 C1430 C -0.12566 0.02789 1.07035
 C1431 C -0.07945 0.04672 1.04378
 C1432 C -0.04864 0.04992 1.04766
 C1433 C -0.03795 0.05712 1.08434
 C1434 C -0.05647 0.05435 1.11638
 H1435 H -0.09245 0.03478 1.17140
 H1436 H -0.13510 0.02560 1.04230
 H1437 H -0.08915 0.04518 1.01620
 H1438 H -0.04709 0.05751 1.14438
 H1439 H -0.16201 0.00440 1.09573
 H1440 H -0.01456 0.06124 1.08874
 C1441 C 0.41730 0.52831 0.66798
 C1442 C 0.38807 0.52369 0.65541
 C1443 C 0.38150 0.52942 0.61738
 C1444 C 0.40416 0.53750 0.59185
 C1445 C 0.43387 0.53755 0.60365
 C1446 C 0.44013 0.53434 0.64209
 C1447 C 0.45671 0.53794 0.57629
 C1448 C 0.44992 0.53785 0.53735
 C1449 C 0.42108 0.54569 0.52748
 C1450 C 0.39801 0.54407 0.55419
 H1451 H 0.35890 0.52720 0.60764
 H1452 H 0.46277 0.53505 0.65182
 H1453 H 0.47922 0.53454 0.58520
 H1454 H 0.37541 0.54636 0.54499
 H1455 H 0.42306 0.52430 0.69713
 H1456 H 0.41572 0.55020 0.49854
 C1457 C 0.41236 0.50442 -0.13508
 C1458 C 0.38217 0.50359 -0.12503
 C1459 C 0.37354 0.49441 -0.08863
 C1460 C 0.39501 0.48805 -0.06178
 C1461 C 0.42530 0.49055 -0.07166
 C1462 C 0.43375 0.49779 -0.10868
 C1463 C 0.44668 0.48800 -0.04375
 C1464 C 0.43840 0.48481 -0.00531
 C1465 C 0.40841 0.47874 0.00312
 C1466 C 0.38688 0.48048 -0.02476
 H1467 H 0.35026 0.49323 -0.08090
 H1468 H 0.45691 0.49970 -0.11673
 H1469 H 0.46973 0.49119 -0.05175
 H1470 H 0.36381 0.47726 -0.01692
 H1471 H 0.41951 0.51151 -0.16293
 H1472 H 0.40112 0.47326 0.03116
 C1473 C -0.08936 1.00223 0.35542
 C1474 C -0.11956 1.00167 0.36544
 C1475 C -0.12829 0.99153 0.40139
 C1476 C -0.10687 0.98320 0.42757
 C1477 C -0.07654 0.98519 0.41768
 C1478 C -0.06805 0.99406 0.38126
 C1479 C -0.05509 0.98025 0.44508
 C1480 C -0.06330 0.97509 0.48320
 C1481 C -0.09347 0.96955 0.49121
 C1482 C -0.11505 0.97376 0.46385
 H1483 H -0.15159 0.99058 0.40909
 H1484 H -0.04487 0.99562 0.37315
 H1485 H -0.03199 0.98331 0.43729
 H1486 H -0.13818 0.97085 0.47161
 H1487 H -0.08218 1.00992 0.32785
 H1488 H -0.10083 0.96267 0.51873
 C1489 C 0.09015 0.49754 0.31969
 C1490 C 0.11983 0.50277 0.32949
 C1491 C 0.12648 0.51355 0.36647
 C1492 C 0.10361 0.51780 0.39374
 C1493 C 0.07411 0.51060 0.38393
 C1494 C 0.06753 0.50132 0.34662
 C1495 C 0.05186 0.51076 0.41203
 C1496 C 0.05857 0.51689 0.45053
 C1497 C 0.08709 0.52817 0.45892
 C1498 C 0.10956 0.52811 0.43098
 H1499 H 0.14931 0.51796 0.37410
 H1500 H 0.04498 0.49592 0.33858
 H1501 H 0.02978 0.50358 0.40395
 H1502 H 0.13181 0.53484 0.43892
 H1503 H 0.08456 0.48928 0.29141
 H1504 H 0.09268 0.53519 0.48759
 C1505 C 0.59240 -0.00049 -0.18498
 C1506 C 0.62226 0.00033 -0.17437
 C1507 C 0.62966 0.01039 -0.13739
 C1508 C 0.60725 0.01828 -0.11091
 C1509 C 0.57730 0.01601 -0.12158
 C1510 C 0.57014 0.00732 -0.15890
 C1511 C 0.55487 0.02023 -0.09416
 C1512 C 0.56173 0.02448 -0.05536
 C1513 C 0.59145 0.03080 -0.04624
 C1514 C 0.61403 0.02747 -0.07360
 H1515 H 0.65266 0.01154 -0.12915
 H1516 H 0.54727 0.00549 -0.16757
 H1517 H 0.53209 0.01689 -0.10271
 H1518 H 0.63684 0.03070 -0.06511
 H1519 H 0.58619 -0.00815 -0.21329
 H1520 H 0.59762 0.03736 -0.01783
 C1521 C 0.63907 0.58102 0.04686
 C1522 C 0.65818 0.55868 0.03187
 C1523 C 0.64540 0.53318 0.01286
 C1524 C 0.61418 0.52891 0.01322
 C1525 C 0.59628 0.55099 0.03095
 C1526 C 0.60877 0.57722 0.04646
 C1527 C 0.56605 0.54621 0.03531
 C1528 C 0.55198 0.51954 0.02243
 C1529 C 0.56948 0.49792 0.00299
 C1530 C 0.60032 0.50260 -0.00169
 H1531 H 0.65944 0.51588 0.00048
 H1532 H 0.59508 0.59464 0.05935
 H1533 H 0.55418 0.56256 0.05251
 H1534 H 0.61340 0.48517 -0.01551
 H1535 H 0.64749 0.60205 0.05892
 H1536 H 0.55968 0.47680 -0.00682
 C1537 C 0.13349 1.08060 0.53447
 C1538 C 0.15371 1.05728 0.52722
 C1539 C 0.14272 1.02881 0.51471
 C1540 C 0.11178 1.02350 0.51271
 C1541 C 0.09234 1.04667 0.52391
 C1542 C 0.10331 1.07521 0.53377
 C1543 C 0.06207 1.04101 0.52679
 C1544 C 0.04950 1.01298 0.51648
 C1545 C 0.06878 0.99032 0.50281
 C1546 C 0.09964 0.99541 0.50135
 H1547 H 0.15795 1.01080 0.50800
 H1548 H 0.08849 1.09341 0.54139
 H1549 H 0.04888 1.05827 0.54020
 H1550 H 0.11397 0.97719 0.49237
 H1551 H 0.14100 1.10324 0.54167
 H1552 H 0.06023 0.96809 0.49543
 C1553 C 0.15784 -0.01941 0.96249
 C1554 C 0.16425 -0.03613 0.99435
 C1555 C 0.14517 -0.03481 1.02624
 C1556 C 0.11877 -0.01850 1.02523
 C1557 C 0.11199 -0.00262 0.99246
 C1558 C 0.13215 -0.00237 0.96176
 C1559 C 0.08403 0.01029 0.98933
 C1560 C 0.06168 0.00547 1.01713
 C1561 C 0.06998 -0.00710 1.05143
 C1562 C 0.09821 -0.01910 1.05544
 H1563 H 0.15007 -0.04786 1.05082
 H1564 H 0.12720 0.00953 0.93629
 H1565 H 0.07879 0.02086 0.96302
 H1566 H 0.10335 -0.03029 1.08137
 H1567 H 0.17232 -0.02029 0.93772
 H1568 H 0.05440 -0.00890 1.07465
 C1569 C 0.65287 0.46711 0.44251
 C1570 C 0.66412 0.45950 0.47795
 C1571 C 0.64753 0.46651 0.51123
 C1572 C 0.61858 0.47756 0.50842
 C1573 C 0.60766 0.48456 0.47247
 C1574 C 0.62544 0.48052 0.43995
 C1575 C 0.57825 0.49306 0.46887
 C1576 C 0.55815 0.49144 0.49976
 C1577 C 0.56953 0.48638 0.53592
 C1578 C 0.59957 0.47980 0.54029
 H1579 H 0.65564 0.46021 0.53866
 H1580 H 0.61727 0.48571 0.41215
 H1581 H 0.57056 0.49801 0.44079
 H1582 H 0.60754 0.47498 0.56828
 H1583 H 0.66528 0.46228 0.41653
 H1584 H 0.55527 0.48701 0.56074
 C1585 C -0.14935 0.48964 0.56048
 C1586 C -0.16113 0.46971 0.53290
 C1587 C -0.14458 0.46268 0.49981
 C1588 C -0.11537 0.47356 0.49588
 C1589 C -0.10325 0.49248 0.52473
 C1590 C -0.12076 0.50135 0.55616
 C1591 C -0.07311 0.49997 0.52364
 C1592 C -0.05415 0.48712 0.49558
 C1593 C -0.06696 0.47088 0.46503
 C1594 C -0.09734 0.46412 0.46516
 H1595 H -0.15348 0.44672 0.47893
 H1596 H -0.11168 0.51571 0.57863
 H1597 H -0.06419 0.51331 0.54712
 H1598 H -0.10636 0.45011 0.44232
 H1599 H -0.16173 0.49482 0.58635
 H1600 H -0.05347 0.46217 0.44190
 C1601 C 0.34900 -0.01345 0.01224
 C1602 C 0.34635 -0.04496 0.01143
 C1603 C 0.36873 -0.06213 -0.00621
 C1604 C 0.39452 -0.04798 -0.02026
 C1605 C 0.39819 -0.01647 -0.01607
 C1606 C 0.37471 0.00070 -0.00140
 C1607 C 0.42617 -0.00318 -0.02307
 C1608 C 0.45077 -0.02144 -0.03145
 C1609 C 0.44488 -0.05124 -0.04396
 C1610 C 0.41729 -0.06475 -0.03719
 H1611 H 0.36637 -0.08640 -0.00806
 H1612 H 0.37687 0.02493 0.00150
 H1613 H 0.42948 0.02057 -0.01650
 H1614 H 0.41432 -0.08859 -0.04338
 H1615 H 0.33168 0.00016 0.02507
 H1616 H 0.46182 -0.06494 -0.05675
 C1617 C 0.34111 1.02808 0.40798
 C1618 C 0.33210 1.04004 0.44358
 C1619 C 0.35127 1.03826 0.47459
 C1620 C 0.38007 1.02693 0.46922
 C1621 C 0.38934 1.01658 0.43273
 C1622 C 0.36928 1.01604 0.40273
 C1623 C 0.41903 1.00884 0.42617
 C1624 C 0.44025 1.01317 0.45486
 C1625 C 0.43003 1.01986 0.49210
 C1626 C 0.40031 1.02710 0.49911
 H1627 H 0.34455 1.04755 0.50212
 H1628 H 0.37596 1.00799 0.37460
 H1629 H 0.42586 1.00151 0.39783
 H1630 H 0.39351 1.03421 0.52755
 H1631 H 0.32667 1.02915 0.38379
 H1632 H 0.44539 1.02185 0.51537
 C1633 C -0.15449 0.53028 0.91145
 C1634 C -0.16495 0.54318 0.94588
 C1635 C -0.14650 0.54390 0.97771
 C1636 C -0.11725 0.53363 0.97450
 C1637 C -0.10665 0.52156 0.93943
 C1638 C -0.12576 0.51914 0.90840
 C1639 C -0.07673 0.51374 0.93534
 C1640 C -0.05674 0.51903 0.96536
 C1641 C -0.06813 0.52925 1.00073
 C1642 C -0.09799 0.53649 1.00527
 H1643 H -0.15429 0.55421 1.00421
 H1644 H -0.11801 0.51007 0.88121
 H1645 H -0.06873 0.50543 0.90791
 H1646 H -0.10580 0.54526 1.03257
 H1647 H -0.16830 0.52974 0.88654
 H1648 H -0.05393 0.53232 1.02491
 C1649 C 0.03581 0.62572 0.64620
 C1650 C 0.04036 0.64896 0.62080
 C1651 C 0.04485 0.64241 0.58197
 C1652 C 0.04393 0.61249 0.56833
 C1653 C 0.03840 0.58922 0.59397
 C1654 C 0.03479 0.59596 0.63287
 C1655 C 0.03535 0.55963 0.58028
 C1656 C 0.03784 0.55247 0.54114
 C1657 C 0.04412 0.57574 0.51596
 C1658 C 0.04738 0.60546 0.52947
 H1659 H 0.04853 0.66058 0.56255
 H1660 H 0.03064 0.57829 0.65285
 H1661 H 0.02969 0.54240 0.60032
 H1662 H 0.05153 0.62304 0.50939
 H1663 H 0.03255 0.63071 0.67625
 H1664 H 0.04512 0.57134 0.48563
 C1665 C 0.49740 0.14611 0.11337
 C1666 C 0.52121 0.16402 0.10089
 C1667 C 0.53937 0.15369 0.07063
 C1668 C 0.53370 0.12548 0.05312
 C1669 C 0.50974 0.10777 0.06624
 C1670 C 0.49163 0.11828 0.09610
 C1671 C 0.50467 0.07925 0.05038
 C1672 C 0.52360 0.06717 0.02195
 C1673 C 0.54662 0.08540 0.00773
 C1674 C 0.55166 0.11436 0.02321
 H1675 H 0.55765 0.16756 0.06078
 H1676 H 0.47326 0.10477 0.10652
 H1677 H 0.48660 0.06596 0.06196
 H1678 H 0.57001 0.12772 0.01247
 H1679 H 0.48342 0.15352 0.13695
 H1680 H 0.56132 0.07718 -0.01439
 C1681 C 0.00692 0.14861 0.86146
 C1682 C -0.01751 0.16596 0.87257
 C1683 C -0.03593 0.15663 0.90261
 C1684 C -0.03023 0.12991 0.92107
 C1685 C -0.00615 0.11209 0.90889
 C1686 C 0.01245 0.12173 0.87931
 C1687 C -0.00119 0.08476 0.92617
 C1688 C -0.01956 0.07499 0.95624
 C1689 C -0.04284 0.09354 0.96888
 C1690 C -0.04833 0.12054 0.95122
 H1691 H -0.05467 0.17018 0.91148
 H1692 H 0.03112 0.10837 0.86977
 H1693 H 0.01694 0.07107 0.91568
 H1694 H -0.06685 0.13399 0.96101
 H1695 H 0.02123 0.15546 0.83826
 H1696 H -0.05753 0.08693 0.99158
 C1697 C 0.48571 0.62446 0.33626
 C1698 C 0.48190 0.64986 0.36018
 C1699 C 0.47685 0.64643 0.39916
 C1700 C 0.47581 0.61770 0.41438
 C1701 C 0.48017 0.59212 0.39035
 C1702 C 0.48504 0.59572 0.35128
 C1703 C 0.48018 0.56347 0.40586
 C1704 C 0.47581 0.55985 0.44521
 C1705 C 0.47112 0.58560 0.46857
 C1706 C 0.47089 0.61415 0.45331
 H1707 H 0.47352 0.66616 0.41747
 H1708 H 0.48832 0.57636 0.33239
 H1709 H 0.48438 0.54410 0.38731
 H1710 H 0.46762 0.63355 0.47215
 H1711 H 0.48924 0.62692 0.30603
 H1712 H 0.46885 0.58410 0.49899
 C1713 C 0.54221 0.83388 0.42267
 C1714 C 0.54334 0.82931 0.38306
 C1715 C 0.54010 0.85380 0.35962
 C1716 C 0.53562 0.88265 0.37527
 C1717 C 0.53506 0.88760 0.41512
 C1718 C 0.53836 0.86291 0.43864
 C1719 C 0.53079 0.91697 0.43042
 C1720 C 0.52661 0.94119 0.40619
 C1721 C 0.52605 0.93509 0.36661
 C1722 C 0.53113 0.90649 0.35141
 H1723 H 0.54070 0.85021 0.32901
 H1724 H 0.53781 0.86602 0.46926
 H1725 H 0.53007 0.92075 0.46094
 H1726 H 0.53100 0.90294 0.32083
 H1727 H 0.54469 0.81509 0.44113
 H1728 H 0.52172 0.95246 0.34670
 C1729 C 0.03278 0.34132 0.89907
 C1730 C 0.03387 0.34208 0.85923
 C1731 C 0.03472 0.36974 0.84145
 C1732 C 0.03355 0.39656 0.86317
 C1733 C 0.03265 0.39585 0.90331
 C1734 C 0.03253 0.36804 0.92100
 C1735 C 0.03091 0.42286 0.92492
 C1736 C 0.02906 0.45050 0.90683
 C1737 C 0.02921 0.45050 0.86674
 C1738 C 0.03217 0.42400 0.84526
 H1739 H 0.03531 0.37028 0.81069
 H1740 H 0.03170 0.36694 0.95169
 H1741 H 0.02969 0.42214 0.95560
 H1742 H 0.03242 0.42491 0.81454
 H1743 H 0.03228 0.32001 0.91314
 H1744 H 0.02687 0.47109 0.85158
 C1745 C 0.48453 0.35632 0.15292
 C1746 C 0.46318 0.33872 0.13393
 C1747 C 0.44815 0.35008 0.10292
 C1748 C 0.45526 0.37898 0.09030
 C1749 C 0.47722 0.39617 0.10942
 C1750 C 0.49149 0.38490 0.14082
 C1751 C 0.48470 0.42463 0.09729
 C1752 C 0.47014 0.43745 0.06678
 C1753 C 0.44883 0.42003 0.04703
 C1754 C 0.44139 0.39097 0.05877
 H1755 H 0.43184 0.33617 0.08814
 H1756 H 0.50827 0.39807 0.15577
 H1757 H 0.50161 0.43708 0.11289
 H1758 H 0.42465 0.37803 0.04349
 H1759 H 0.49624 0.34761 0.17676
 H1760 H 0.43754 0.42880 0.02310
 C1761 C -0.00100 0.83769 0.61945
 C1762 C -0.02637 0.82204 0.60668
 C1763 C -0.04585 0.83611 0.58219
 C1764 C -0.03986 0.86566 0.57076
 C1765 C -0.01444 0.88103 0.58440
 C1766 C 0.00493 0.86683 0.60840
 C1767 C -0.00902 0.91077 0.57497
 C1768 C -0.02863 0.92622 0.55206
 C1769 C -0.05321 0.91038 0.53711
 C1770 C -0.05888 0.88041 0.54652
 H1771 H -0.06548 0.82417 0.57227
 H1772 H 0.02446 0.87846 0.61919
 H1773 H 0.01019 0.92210 0.58705
 H1774 H -0.07840 0.86899 0.53542
 H1775 H 0.01400 0.82755 0.63888
 H1776 H -0.06862 0.92117 0.51918
 C1777 C 0.23328 0.34509 0.09200
 C1778 C 0.23546 0.37343 0.11077
 C1779 C 0.22308 0.37706 0.14757
 C1780 C 0.21002 0.35228 0.16574
 C1781 C 0.21175 0.32336 0.14840
 C1782 C 0.22231 0.32015 0.11099
 C1783 C 0.20545 0.29799 0.16991
 C1784 C 0.19906 0.30133 0.20913
 C1785 C 0.18985 0.32976 0.22268
 C1786 C 0.19626 0.35534 0.20156
 H1787 H 0.22343 0.39901 0.16179
 H1788 H 0.22316 0.29818 0.09693
 H1789 H 0.20982 0.27596 0.15735
 H1790 H 0.19231 0.37741 0.21422
 H1791 H 0.24224 0.34171 0.06351
 H1792 H 0.18133 0.33277 0.25132
 C1793 C 0.72133 0.89628 0.66300
 C1794 C 0.73041 0.88596 0.62667
 C1795 C 0.72460 0.85577 0.61571
 C1796 C 0.71264 0.83554 0.64198
 C1797 C 0.70543 0.84573 0.67923
 C1798 C 0.70811 0.87650 0.68863
 C1799 C 0.69830 0.82470 0.70718
 C1800 C 0.70215 0.79374 0.69940
 C1801 C 0.70345 0.78426 0.66077
 C1802 C 0.70907 0.80496 0.63235
 H1803 H 0.73089 0.84771 0.58743
 H1804 H 0.70113 0.88499 0.71633
 H1805 H 0.69314 0.83264 0.73565
 H1806 H 0.71314 0.79676 0.60350
 H1807 H 0.72448 0.91969 0.67150
 H1808 H 0.70421 0.76059 0.65285
 C1809 C 0.24711 0.65272 0.60972
 C1810 C 0.25173 0.62278 0.61920
 C1811 C 0.26219 0.61652 0.65559
 C1812 C 0.26678 0.64014 0.68267
 C1813 C 0.26025 0.66989 0.67321
 C1814 C 0.25125 0.67604 0.63643
 C1815 C 0.26077 0.69284 0.70126
 C1816 C 0.26639 0.68658 0.73952
 C1817 C 0.27717 0.65794 0.74731
 C1818 C 0.27683 0.63474 0.71936
 H1819 H 0.26614 0.59347 0.66292
 H1820 H 0.24636 0.69879 0.62869
 H1821 H 0.25425 0.71508 0.69339
 H1822 H 0.28311 0.61234 0.72698
 H1823 H 0.23914 0.65796 0.58185
 H1824 H 0.28394 0.65279 0.77564
 C1825 C 0.75290 0.15413 0.09044
 C1826 C 0.75168 0.12385 0.10112
 C1827 C 0.75851 0.11704 0.13887
 C1828 C 0.76590 0.14028 0.16535
 C1829 C 0.76399 0.17052 0.15485
 C1830 C 0.75824 0.17719 0.11717
 C1831 C 0.76595 0.19361 0.18263
 C1832 C 0.76936 0.18696 0.22120
 C1833 C 0.77772 0.15764 0.22962
 C1834 C 0.77479 0.13417 0.20233
 H1835 H 0.75883 0.09382 0.14729
 H1836 H 0.75716 0.20030 0.10852
 H1837 H 0.76207 0.21644 0.17439
 H1838 H 0.77837 0.11127 0.21055
 H1839 H 0.74771 0.16025 0.06178
 H1840 H 0.78406 0.15230 0.25803
 C1841 C 0.75002 0.15977 0.89547
 C1842 C 0.74975 0.12955 0.88285
 C1843 C 0.73801 0.12181 0.84707
 C1844 C 0.72780 0.14439 0.82348
 C1845 C 0.72954 0.17485 0.83579
 C1846 C 0.74005 0.18224 0.87218
 C1847 C 0.72301 0.19759 0.81051
 C1848 C 0.71733 0.19054 0.77187
 C1849 C 0.71146 0.16015 0.76188
 C1850 C 0.71686 0.13730 0.78726
 H1851 H 0.73725 0.09844 0.83752
 H1852 H 0.74146 0.20547 0.88218
 H1853 H 0.72629 0.22082 0.81983
 H1854 H 0.71417 0.11406 0.77768
 H1855 H 0.75861 0.16604 0.92320
 H1856 H 0.70470 0.15346 0.73375
 C1857 C 0.24794 0.65750 0.40972
 C1858 C 0.24768 0.62723 0.39727
 C1859 C 0.23927 0.61977 0.35984
 C1860 C 0.23280 0.64258 0.33453
 C1861 C 0.23510 0.67302 0.34673
 C1862 C 0.24178 0.68022 0.38468
 C1863 C 0.23297 0.69578 0.32023
 C1864 C 0.23004 0.68865 0.28110
 C1865 C 0.22357 0.65854 0.27050
 C1866 C 0.22530 0.63568 0.29678
 H1867 H 0.23868 0.59641 0.35022
 H1868 H 0.24346 0.70345 0.39460
 H1869 H 0.23666 0.71889 0.32978
 H1870 H 0.22218 0.61252 0.28712
 H1871 H 0.25431 0.66366 0.43849
 H1872 H 0.21850 0.65204 0.24174
 C1873 C 0.77103 0.90414 0.36949
 C1874 C 0.75817 0.89364 0.40323
 C1875 C 0.75813 0.86268 0.40988
 C1876 C 0.76934 0.84226 0.38246
 C1877 C 0.78189 0.85283 0.34836
 C1878 C 0.78330 0.88392 0.34253
 C1879 C 0.79086 0.83206 0.31971
 C1880 C 0.78370 0.80129 0.32263
 C1881 C 0.77384 0.79108 0.35824
 C1882 C 0.76703 0.81133 0.38793
 H1883 H 0.74807 0.85437 0.43573
 H1884 H 0.79275 0.89250 0.31650
 H1885 H 0.80150 0.84023 0.29440
 H1886 H 0.75806 0.80280 0.41426
 H1887 H 0.77157 0.92795 0.36403
 H1888 H 0.76948 0.76745 0.36263
 C1889 C 0.21682 0.37649 0.89015
 C1890 C 0.24395 0.38875 0.90255
 C1891 C 0.27051 0.37575 0.88916
 C1892 C 0.26974 0.35146 0.86243
 C1893 C 0.24220 0.33960 0.85029
 C1894 C 0.21592 0.35203 0.86460
 C1895 C 0.24113 0.31631 0.82274
 C1896 C 0.26713 0.30563 0.80466
 C1897 C 0.29451 0.31667 0.81806
 C1898 C 0.29582 0.33917 0.84686
 H1899 H 0.29152 0.38498 0.89877
 H1900 H 0.19462 0.34320 0.85550
 H1901 H 0.21963 0.30809 0.81353
 H1902 H 0.31723 0.34770 0.85596
 H1903 H 0.19613 0.38573 0.90067
 H1904 H 0.31499 0.30868 0.80585
 C1905 C 0.77911 0.40646 0.72187
 C1906 C 0.80655 0.40736 0.74002
 C1907 C 0.81560 0.38208 0.75965
 C1908 C 0.79827 0.35551 0.75913
 C1909 C 0.77166 0.35416 0.73860
 C1910 C 0.76181 0.38007 0.72109
 C1911 C 0.75660 0.32644 0.73342
 C1912 C 0.76837 0.29970 0.74734
 C1913 C 0.79288 0.30221 0.77148
 C1914 C 0.80788 0.32973 0.77696
 H1915 H 0.83678 0.38271 0.77375
 H1916 H 0.74143 0.37949 0.70525
 H1917 H 0.73730 0.32546 0.71554
 H1918 H 0.82779 0.33050 0.79373
 H1919 H 0.77187 0.42567 0.70649
 H1920 H 0.80158 0.28267 0.78453
 C1921 C 0.34521 0.88129 0.23065
 C1922 C 0.32246 0.90234 0.23643
 C1923 C 0.29612 0.89300 0.25519
 C1924 C 0.29122 0.86229 0.26246
 C1925 C 0.31344 0.84147 0.25279
 C1926 C 0.34081 0.85135 0.23887
 C1927 C 0.30720 0.81079 0.25283
 C1928 C 0.27866 0.79970 0.26130
 C1929 C 0.25748 0.82039 0.27519
 C1930 C 0.26371 0.85146 0.27574
 H1931 H 0.27833 0.90868 0.26034
 H1932 H 0.35832 0.83561 0.23220
 H1933 H 0.32363 0.79650 0.23999
 H1934 H 0.24631 0.86696 0.28377
 H1935 H 0.36664 0.88781 0.21918
 H1936 H 0.23520 0.81290 0.28206
 C1937 C 0.22791 0.90062 0.83907
 C1938 C 0.21393 0.90999 0.80629
 C1939 C 0.21325 0.89106 0.77370
 C1940 C 0.22442 0.86191 0.77483
 C1941 C 0.23774 0.85232 0.80831
 C1942 C 0.24031 0.87217 0.83983
 C1943 C 0.24580 0.82230 0.81106
 C1944 C 0.23805 0.80093 0.78239
 C1945 C 0.22737 0.81120 0.74794
 C1946 C 0.22073 0.84152 0.74409
 H1947 H 0.20196 0.89820 0.74863
 H1948 H 0.25018 0.86500 0.86585
 H1949 H 0.25513 0.81519 0.83741
 H1950 H 0.21116 0.84863 0.71787
 H1951 H 0.22826 0.91497 0.86446
 H1952 H 0.22315 0.79579 0.72436
 C1953 C 0.72837 0.40229 0.31478
 C1954 C 0.70838 0.40928 0.28639
 C1955 C 0.70446 0.38920 0.25525
 C1956 C 0.71854 0.36124 0.25403
 C1957 C 0.73729 0.35360 0.28387
 C1958 C 0.74304 0.37480 0.31330
 C1959 C 0.74743 0.32399 0.28589
 C1960 C 0.73747 0.30140 0.25982
 C1961 C 0.72182 0.31025 0.22793
 C1962 C 0.71234 0.33985 0.22510
 H1963 H 0.68852 0.39429 0.23374
 H1964 H 0.75717 0.36927 0.33659
 H1965 H 0.76015 0.31798 0.31029
 H1966 H 0.69861 0.34550 0.20146
 H1967 H 0.73108 0.41721 0.33938
 H1968 H 0.71536 0.29403 0.20614
 C1969 C 0.68892 0.61552 0.31573
 C1970 C 0.70039 0.59399 0.28984
 C1971 C 0.72729 0.59975 0.27102
 C1972 C 0.74121 0.62801 0.27519
 C1973 C 0.72887 0.65022 0.29997
 C1974 C 0.70339 0.64327 0.32136
 C1975 C 0.74023 0.67982 0.29976
 C1976 C 0.76142 0.68800 0.27209
 C1977 C 0.77581 0.66498 0.25107
 C1978 C 0.76582 0.63526 0.25261
 H1979 H 0.73581 0.58330 0.25049
 H1980 H 0.69345 0.66003 0.34027
 H1981 H 0.72974 0.69704 0.31744
 H1982 H 0.77610 0.61837 0.23420
 H1983 H 0.66796 0.61139 0.33008
 H1984 H 0.79390 0.66997 0.23182
 C1985 C 0.23774 0.09137 0.74860
 C1986 C 0.20966 0.08698 0.73191
 C1987 C 0.19475 0.11228 0.72014
 C1988 C 0.20764 0.14085 0.72317
 C1989 C 0.23532 0.14559 0.74060
 C1990 C 0.25024 0.12043 0.75339
 C1991 C 0.24734 0.17524 0.74420
 C1992 C 0.23221 0.19970 0.72904
 C1993 C 0.20569 0.19301 0.70971
 C1994 C 0.19315 0.16465 0.70789
 H1995 H 0.17269 0.11009 0.70871
 H1996 H 0.27167 0.12312 0.76651
 H1997 H 0.26842 0.17909 0.75788
 H1998 H 0.17237 0.16124 0.69323
 H1999 H 0.25020 0.07242 0.75778
 H2000 H 0.19385 0.20934 0.69487
 C2001 C 0.25548 0.09183 0.29133
 C2002 C 0.27553 0.08467 0.26188
 C2003 C 0.27762 0.10285 0.23003
 C2004 C 0.26160 0.12959 0.22916
 C2005 C 0.24246 0.13738 0.25980
 C2006 C 0.23859 0.11775 0.28998
 C2007 C 0.23013 0.16604 0.26199
 C2008 C 0.23877 0.18808 0.23584
 C2009 C 0.25484 0.17892 0.20321
 C2010 C 0.26617 0.14986 0.19984
 H2011 H 0.29355 0.09750 0.20763
 H2012 H 0.22421 0.12356 0.31387
 H2013 H 0.21693 0.17205 0.28687
 H2014 H 0.28016 0.14399 0.17560
 H2015 H 0.25402 0.07816 0.31623
 H2016 H 0.26018 0.19457 0.18132
 C2017 C 0.76627 0.58993 0.78793
 C2018 C 0.79054 0.58479 0.76358
 C2019 C 0.79552 0.60343 0.73255
 C2020 C 0.77779 0.62865 0.72774
 C2021 C 0.75432 0.63459 0.75361
 C2022 C 0.74795 0.61441 0.78263
 C2023 C 0.73988 0.66219 0.75291
 C2024 C 0.75026 0.68508 0.72890
 C2025 C 0.77100 0.67747 0.70024
 C2026 C 0.78466 0.64943 0.69961
 H2027 H 0.81459 0.59966 0.71411
 H2028 H 0.73018 0.61879 0.80292
 H2029 H 0.72319 0.66695 0.77451
 H2030 H 0.80214 0.64496 0.67895
 H2031 H 0.76247 0.57594 0.81222
 H2032 H 0.77839 0.69387 0.68008
 C2033 C 0.92019 0.82926 0.19360
 C2034 C 0.93624 0.80225 0.18769
 C2035 C 0.92674 0.77732 0.20912
 C2036 C 0.90050 0.77811 0.23084
 C2037 C 0.88308 0.80408 0.23213
 C2038 C 0.89393 0.83002 0.21510
 C2039 C 0.85430 0.80287 0.24785
 C2040 C 0.84206 0.77526 0.25908
 C2041 C 0.86150 0.75113 0.26352
 C2042 C 0.89036 0.75246 0.24925
 H2043 H 0.93780 0.75606 0.20711
 H2044 H 0.88144 0.85062 0.21695
 H2045 H 0.84097 0.82270 0.24851
 H2046 H 0.90386 0.73258 0.25000
 H2047 H 0.92718 0.85022 0.18153
 H2048 H 0.85368 0.72992 0.27444
 C2049 C 0.41451 0.32202 0.69194
 C2050 C 0.42597 0.29335 0.68247
 C2051 C 0.41218 0.26810 0.69880
 C2052 C 0.38581 0.27100 0.71979
 C2053 C 0.37253 0.29934 0.72438
 C2054 C 0.38786 0.32495 0.71225
 C2055 C 0.34320 0.30114 0.73780
 C2056 C 0.32665 0.27475 0.74429
 C2057 C 0.34205 0.24751 0.74635
 C2058 C 0.37127 0.24557 0.73366
 H2059 H 0.42013 0.24568 0.69270
 H2060 H 0.37848 0.34706 0.71661
 H2061 H 0.33286 0.32274 0.74024
 H2062 H 0.38161 0.22377 0.73188
 H2063 H 0.42530 0.34232 0.68241
 H2064 H 0.33067 0.22683 0.75358
 C2065 C 0.37492 0.70647 0.92692
 C2066 C 0.39705 0.70248 0.89905
 C2067 C 0.38923 0.69833 0.86083
 C2068 C 0.35971 0.70009 0.85004
 C2069 C 0.33759 0.70580 0.87788
 C2070 C 0.34528 0.70816 0.91638
 C2071 C 0.30847 0.71042 0.86660
 C2072 C 0.30098 0.70908 0.82783
 C2073 C 0.32324 0.70262 0.80064
 C2074 C 0.35223 0.69788 0.81165
 H2075 H 0.40638 0.69494 0.83933
 H2076 H 0.32853 0.71232 0.93814
 H2077 H 0.29198 0.71625 0.88808
 H2078 H 0.36904 0.69367 0.78997
 H2079 H 0.38070 0.70963 0.95652
 H2080 H 0.31875 0.70259 0.77060
 C2081 C 0.87230 0.19369 0.41009
 C2082 C 0.89591 0.19490 0.38375
 C2083 C 0.88961 0.19663 0.34478
 C2084 C 0.86057 0.19948 0.33255
 C2085 C 0.83742 0.20184 0.35959
 C2086 C 0.84329 0.19798 0.39817
 C2087 C 0.80901 0.20887 0.34765
 C2088 C 0.80270 0.21071 0.30868
 C2089 C 0.82580 0.20653 0.28198
 C2090 C 0.85453 0.20135 0.29382
 H2091 H 0.90748 0.19615 0.32390
 H2092 H 0.82558 0.19900 0.41920
 H2093 H 0.79209 0.21348 0.36900
 H2094 H 0.87211 0.19934 0.27270
 H2095 H 0.87640 0.19216 0.44019
 H2096 H 0.82204 0.20849 0.25190
 C2097 C 0.06288 0.27788 0.28450
 C2098 C 0.05910 0.27106 0.32288
 C2099 C 0.08373 0.26648 0.34532
 C2100 C 0.11220 0.26872 0.32974
 C2101 C 0.11622 0.27512 0.29090
 C2102 C 0.09134 0.27957 0.26842
 C2103 C 0.14494 0.27640 0.27524
 C2104 C 0.16960 0.27126 0.29797
 C2105 C 0.16496 0.26553 0.33681
 C2106 C 0.13666 0.26451 0.35251
 H2107 H 0.08064 0.26192 0.37522
 H2108 H 0.09391 0.28463 0.23865
 H2109 H 0.14787 0.28004 0.24516
 H2110 H 0.13389 0.25966 0.38234
 H2111 H 0.04386 0.28213 0.26721
 H2112 H 0.18317 0.26083 0.35521
 C2113 C 0.56723 0.77131 0.77956
 C2114 C 0.56365 0.76230 0.81721
 C2115 C 0.58827 0.75420 0.83781
 C2116 C 0.61658 0.75630 0.82169
 C2117 C 0.62041 0.76556 0.78382
 C2118 C 0.59544 0.77245 0.76269
 C2119 C 0.64908 0.76802 0.76809
 C2120 C 0.67385 0.76158 0.78999
 C2121 C 0.66935 0.75274 0.82784
 C2122 C 0.64113 0.75016 0.84343
 H2123 H 0.58548 0.74818 0.86729
 H2124 H 0.59783 0.77972 0.73372
 H2125 H 0.65196 0.77434 0.73881
 H2126 H 0.63854 0.74323 0.87254
 H2127 H 0.54832 0.77847 0.76380
 H2128 H 0.68769 0.74714 0.84560
 C2129 C 0.58549 0.17674 0.67294
 C2130 C 0.57288 0.20323 0.66020
 C2131 C 0.58835 0.23057 0.66500
 C2132 C 0.61673 0.23139 0.68003
 C2133 C 0.62978 0.20470 0.69190
 C2134 C 0.61363 0.17753 0.68919
 C2135 C 0.65929 0.20544 0.70399
 C2136 C 0.67653 0.23192 0.70118
 C2137 C 0.66239 0.25860 0.69132
 C2138 C 0.63282 0.25835 0.68126
 H2139 H 0.57918 0.25104 0.65445
 H2140 H 0.62326 0.15676 0.69800
 H2141 H 0.66923 0.18496 0.71279
 H2142 H 0.62296 0.27908 0.67269
 H2143 H 0.57387 0.15540 0.66951
 H2144 H 0.67414 0.27989 0.69015
 C2145 C 0.09452 0.68159 0.17950
 C2146 C 0.08278 0.70931 0.16911
 C2147 C 0.09934 0.73564 0.17697
 C2148 C 0.12744 0.73446 0.19277
 C2149 C 0.13975 0.70663 0.20168
 C2150 C 0.12266 0.68029 0.19587
 C2151 C 0.16933 0.70574 0.21419
 C2152 C 0.18714 0.73210 0.21491
 C2153 C 0.17317 0.75976 0.20888
 C2154 C 0.14388 0.76088 0.19807
 H2155 H 0.09130 0.75719 0.16844
 H2156 H 0.13147 0.65862 0.20262
 H2157 H 0.17881 0.68444 0.22092
 H2158 H 0.13449 0.78249 0.19221
 H2159 H 0.08222 0.66084 0.17435
 H2160 H 0.18483 0.78109 0.21105
   
