data_POSCAR
  _audit_creation_date              2014-09-24
  _audit_creation_method            'ToBaCCo'
  _symmetry_space_group_name_H-M    'P1'
  _symmetry_Int_Tables_number       1
  _symmetry_cell_setting            triclinic
  loop_
  _symmetry_equiv_pos_as_xyz
 x,y,z
_cell_length_a 80.1907
_cell_length_b 80.2069
_cell_length_c 80.2112
_cell_angle_alpha 90.002300
_cell_angle_beta 90.013600
_cell_angle_gamma 89.988900
loop_
  _atom_site_label
  _atom_site_type_symbol
  _atom_site_fract_x
  _atom_site_fract_y
  _atom_site_fract_z
N1 N 0.34481 0.34495 0.34305
 N2 N 0.34395 0.84537 -0.15581
 N3 N 0.84475 0.34388 -0.15624
 N4 N 0.84365 0.84370 0.34485
 N5 N 0.65575 0.65585 0.34518
 N6 N 0.65628 0.15625 -0.15499
 N7 N 0.15603 0.65518 -0.15588
 N8 N 0.15600 0.15508 0.34408
 N9 N 0.65437 0.34308 0.65576
 N10 N 0.65685 0.84378 1.15480
 N11 N 0.15571 0.34470 1.15678
 N12 N 0.15559 0.84378 0.65566
 N13 N 0.34468 0.65599 0.65649
 N14 N 0.34393 0.15462 1.15624
 N15 N 0.84399 0.65547 1.15517
 N16 N 0.84496 0.15655 0.65506
 N17 N 0.34442 0.34349 0.65568
 N18 N 0.34482 0.84394 0.15526
 N19 N 0.84488 0.34507 0.15623
 N20 N 0.84454 0.84464 0.65635
 N21 N 0.65527 0.65556 0.65666
 N22 N 0.65665 0.15568 0.15577
 N23 N 0.15549 0.65646 0.15537
 N24 N 0.15600 0.15612 0.65402
 N25 N 0.34490 0.65663 0.34401
 N26 N 0.34311 0.15540 0.84519
 N27 N 0.84413 0.65437 0.84324
 N28 N 0.84390 0.15566 0.34424
 N29 N 0.65516 0.34440 0.34384
 N30 N 0.65641 0.84530 0.84378
 N31 N 0.15641 0.34407 0.84462
 N32 N 0.15533 0.84320 0.34468
 O33 O 0.25155 1.01499 0.22930
 O34 O 0.22881 0.98246 0.25238
 O35 O 0.22871 1.01497 0.25213
 O36 O 0.25183 0.98249 0.22936
 O37 O 0.27123 0.98254 0.24892
 O38 O 0.24811 1.01504 0.27170
 O39 O 0.24838 0.98252 0.27177
 O40 O 0.27112 1.01505 0.24869
 Cu41 Cu 0.23826 0.99867 0.23884
 Cu42 Cu 0.26167 0.99883 0.26223
 C43 C 0.26516 1.02060 0.23511
 C44 C 0.23476 0.97691 0.26597
 C45 C 0.23452 1.02058 0.26575
 C46 C 0.26543 0.97695 0.23529
 O47 O 0.22967 0.48327 0.75193
 O48 O 0.25240 0.51584 0.72885
 O49 O 0.25265 0.48331 0.72887
 O50 O 0.22953 0.51579 0.75167
 O51 O 0.24893 0.51586 0.77123
 O52 O 0.27205 0.48336 0.74843
 O53 O 0.27197 0.51589 0.74825
 O54 O 0.24924 0.48334 0.77132
 Cu55 Cu 0.23911 0.49951 0.73837
 Cu56 Cu 0.26251 0.49966 0.76176
 C57 C 0.23562 0.47773 0.76551
 C58 C 0.26601 0.52146 0.73467
 C59 C 0.26624 0.47776 0.73481
 C60 C 0.23533 0.52139 0.76528
 O61 O 0.74850 -0.01666 0.22903
 O62 O 0.77122 0.01566 0.25250
 O63 O 0.77106 -0.01676 0.25247
 O64 O 0.74877 0.01589 0.22912
 O65 O 0.72865 0.01563 0.24793
 O66 O 0.75127 -0.01656 0.27163
 O67 O 0.75113 0.01603 0.27134
 O68 O 0.72885 -0.01684 0.24833
 Cu69 Cu 0.76187 -0.00049 0.23885
 Cu70 Cu 0.73799 -0.00041 0.26173
 C71 C 0.73488 -0.02235 0.23477
 C72 C 0.76496 0.02144 0.26584
 C73 C 0.76495 -0.02222 0.26601
 C74 C 0.73493 0.02133 0.23456
 O75 O 0.72804 0.51514 0.74842
 O76 O 0.75168 0.48262 0.77061
 O77 O 0.75171 0.51500 0.77059
 O78 O 0.72801 0.48250 0.74842
 O79 O 0.74674 0.48261 0.72822
 O80 O 0.77044 0.51510 0.75039
 O81 O 0.77041 0.48248 0.75041
 O82 O 0.74676 0.51500 0.72822
 Cu83 Cu 0.73794 0.49881 0.76151
 Cu84 Cu 0.76050 0.49879 0.73730
 C85 C 0.73342 0.52065 0.73459
 C86 C 0.76504 0.47699 0.76426
 C87 C 0.76507 0.52061 0.76423
 C88 C 0.73338 0.47699 0.73458
 O89 O 0.22893 0.51724 0.24765
 O90 O 0.25151 0.48478 0.27102
 O91 O 0.25145 0.51741 0.27100
 O92 O 0.22894 0.48485 0.24773
 O93 O 0.24886 0.48471 0.22870
 O94 O 0.27138 0.51729 0.25198
 O95 O 0.27143 0.48490 0.25199
 O96 O 0.24885 0.51734 0.22863
 Cu97 Cu 0.23823 0.50108 0.26129
 Cu98 Cu 0.26210 0.50106 0.23838
 C99 C 0.23509 0.52286 0.23419
 C100 C 0.26527 0.47927 0.26544
 C101 C 0.26521 0.52293 0.26542
 C102 C 0.23511 0.47919 0.23430
 O103 O 0.74906 1.01726 0.77153
 O104 O 0.77246 0.98496 0.74875
 O105 O 0.77227 1.01755 0.74884
 O106 O 0.74941 0.98479 0.77140
 O107 O 0.72991 0.98499 0.75194
 O108 O 0.75323 1.01719 0.72893
 O109 O 0.75310 0.98477 0.72915
 O110 O 0.73005 1.01753 0.75159
 Cu111 Cu 0.76275 1.00117 0.76210
 Cu112 Cu 0.73962 1.00110 0.73843
 C113 C 0.73563 1.02297 0.76537
 C114 C 0.76669 0.97928 0.73514
 C115 C 0.76666 1.02294 0.73505
 C116 C 0.73578 0.97931 0.76551
 O117 O 0.72894 0.48414 0.25239
 O118 O 0.75222 0.51641 0.22948
 O119 O 0.75221 0.48401 0.22968
 O120 O 0.72903 0.51668 0.25211
 O121 O 0.74801 0.51642 0.27209
 O122 O 0.77153 0.48422 0.24932
 O123 O 0.77123 0.51681 0.24942
 O124 O 0.74840 0.48396 0.27190
 Cu125 Cu 0.73865 0.50029 0.23894
 Cu126 Cu 0.76173 0.50038 0.26266
 C127 C 0.73479 0.47846 0.26597
 C128 C 0.76563 0.52218 0.23562
 C129 C 0.76581 0.47856 0.23569
 C130 C 0.73458 0.52211 0.26591
 O131 O 0.27058 0.01679 0.75082
 O132 O 0.24834 -0.01617 0.72788
 O133 O 0.24815 0.01643 0.72753
 O134 O 0.27084 -0.01567 0.75127
 O135 O 0.25073 -0.01594 0.77009
 O136 O 0.22837 0.01663 0.74670
 O137 O 0.22826 -0.01580 0.74673
 O138 O 0.25093 0.01660 0.77013
 Cu139 Cu 0.26146 0.00032 0.73745
 Cu140 Cu 0.23759 0.00040 0.76034
 C141 C 0.26455 0.02229 0.76438
 C142 C 0.23453 -0.02159 0.73339
 C143 C 0.23446 0.02208 0.73314
 C144 C 0.26459 -0.02135 0.76466
 O145 O 0.24728 0.27061 0.98479
 O146 O 0.27022 0.24802 1.01751
 O147 O 0.27031 0.24765 0.98497
 O148 O 0.24712 0.27077 1.01721
 O149 O 0.22798 0.25096 1.01755
 O150 O 0.25071 0.22830 0.98478
 O151 O 0.25110 0.22818 1.01724
 O152 O 0.22781 0.25112 0.98495
 Cu153 Cu 0.26069 0.26122 1.00110
 Cu154 Cu 0.23744 0.23769 1.00116
 C155 C 0.23366 0.26470 0.97929
 C156 C 0.26457 0.23426 1.02295
 C157 C 0.26437 0.23411 0.97929
 C158 C 0.23367 0.26471 1.02295
 O159 O 0.22913 0.75052 0.51659
 O160 O 0.25281 0.72829 0.48412
 O161 O 0.25273 0.72827 0.51652
 O162 O 0.22914 0.75046 0.48397
 O163 O 0.24789 0.77064 0.48409
 O164 O 0.27149 0.74844 0.51667
 O165 O 0.27156 0.74846 0.48403
 O166 O 0.24789 0.77070 0.51646
 Cu167 Cu 0.23904 0.73738 0.50030
 Cu168 Cu 0.26163 0.76156 0.50032
 C169 C 0.23452 0.76437 0.52209
 C170 C 0.26618 0.73463 0.47851
 C171 C 0.26609 0.73461 0.52218
 C172 C 0.23453 0.76429 0.47846
 O173 O 0.27119 0.75190 -0.01670
 O174 O 0.24812 0.72912 0.01585
 O175 O 0.24842 0.72897 -0.01666
 O176 O 0.27119 0.75208 0.01581
 O177 O 0.25160 0.77147 0.01578
 O178 O 0.22882 0.74835 -0.01673
 O179 O 0.22872 0.74868 0.01577
 O180 O 0.25177 0.77144 -0.01673
 Cu181 Cu 0.26169 0.73856 -0.00038
 Cu182 Cu 0.23827 0.76194 -0.00052
 C183 C 0.26536 0.76551 -0.02228
 C184 C 0.23453 0.73507 0.02139
 C185 C 0.23479 0.73476 -0.02226
 C186 C 0.26524 0.76567 0.02136
 O187 O 0.27222 0.25204 0.48260
 O188 O 0.24906 0.22925 0.51504
 O189 O 0.24937 0.22919 0.48255
 O190 O 0.27210 0.25223 0.51512
 O191 O 0.25254 0.27164 0.51505
 O192 O 0.22981 0.24859 0.48248
 O193 O 0.22967 0.24884 0.51497
 O194 O 0.25282 0.27161 0.48253
 Cu195 Cu 0.26265 0.23872 0.49887
 Cu196 Cu 0.23926 0.26213 0.49870
 C197 C 0.26642 0.26567 0.47700
 C198 C 0.23546 0.23521 0.52057
 C199 C 0.23575 0.23499 0.47694
 C200 C 0.26614 0.26581 0.52068
 O201 O 0.74852 0.77020 0.98259
 O202 O 0.77124 0.74671 1.01490
 O203 O 0.77107 0.74675 0.98248
 O204 O 0.74882 0.77010 1.01513
 O205 O 0.72869 0.75129 1.01488
 O206 O 0.75127 0.72759 0.98266
 O207 O 0.75115 0.72787 1.01526
 O208 O 0.72886 0.75091 0.98240
 Cu209 Cu 0.76190 0.76036 0.99875
 Cu210 Cu 0.73800 0.73749 0.99882
 C211 C 0.73489 0.76447 0.97691
 C212 C 0.76498 0.73336 1.02067
 C213 C 0.76496 0.73320 0.97701
 C214 C 0.73498 0.76466 1.02057
 O215 O 0.74717 0.27146 0.48367
 O216 O 0.77069 0.24829 0.51565
 O217 O 0.77032 0.24875 0.48315
 O218 O 0.74767 0.27113 0.51617
 O219 O 0.72793 0.25192 0.51570
 O220 O 0.75137 0.22876 0.48366
 O221 O 0.75096 0.22908 0.51616
 O222 O 0.72822 0.25147 0.48318
 Cu223 Cu 0.76091 0.26188 0.49966
 Cu224 Cu 0.73768 0.23834 0.49967
 C225 C 0.73379 0.26530 0.47785
 C226 C 0.76471 0.23483 0.52148
 C227 C 0.76475 0.23492 0.47782
 C228 C 0.73393 0.26537 0.52152
 O229 O 0.77186 0.25305 -0.01573
 O230 O 0.74900 0.22982 0.01666
 O231 O 0.74925 0.22984 -0.01589
 O232 O 0.77175 0.25308 0.01670
 O233 O 0.75209 0.27238 0.01649
 O234 O 0.72926 0.24880 -0.01564
 O235 O 0.72949 0.24927 0.01683
 O236 O 0.75190 0.27204 -0.01612
 Cu237 Cu 0.76244 0.23951 0.00046
 Cu238 Cu 0.73871 0.26257 0.00037
 C239 C 0.76568 0.26643 -0.02153
 C240 C 0.73542 0.23567 0.02234
 C241 C 0.73544 0.23537 -0.02132
 C242 C 0.76574 0.26667 0.02214
 O243 O 0.77136 0.75124 0.48476
 O244 O 0.74888 0.72846 0.51763
 O245 O 0.74868 0.72821 0.48504
 O246 O 0.77150 0.75174 0.51724
 O247 O 0.75154 0.77072 0.51746
 O248 O 0.72906 0.74755 0.48483
 O249 O 0.72895 0.74747 0.51726
 O250 O 0.75187 0.77072 0.48491
 Cu251 Cu 0.76208 0.73797 0.50120
 Cu252 Cu 0.73838 0.76106 0.50109
 C253 C 0.76544 0.76484 0.47923
 C254 C 0.73510 0.73407 0.52303
 C255 C 0.73505 0.73395 0.47937
 C256 C 0.76533 0.76518 0.52290
 O257 O 0.98385 0.25163 0.22934
 O258 O 1.01631 0.22866 0.25229
 O259 O 0.98378 0.22866 0.25206
 O260 O 1.01636 0.25188 0.22949
 O261 O 1.01630 0.27114 0.24919
 O262 O 0.98374 0.24793 0.27175
 O263 O 1.01627 0.24809 0.27182
 O264 O 0.98379 0.27106 0.24886
 Cu265 Cu 1.00012 0.23826 0.23883
 Cu266 Cu 0.99998 0.26149 0.26238
 C267 C 0.97825 0.26522 0.23522
 C268 C 1.02186 0.23450 0.26592
 C269 C 0.97817 0.23439 0.26571
 C270 C 1.02191 0.26543 0.23554
 O271 O 0.51558 0.22764 0.75345
 O272 O 0.48298 0.24983 0.72988
 O273 O 0.51561 0.24985 0.72982
 O274 O 0.48318 0.22757 0.75347
 O275 O 0.48304 0.24772 0.77224
 O276 O 0.51548 0.27001 0.74860
 O277 O 0.48311 0.26999 0.74866
 O278 O 0.51568 0.24780 0.77222
 Cu279 Cu 0.49933 0.23672 0.73974
 Cu280 Cu 0.49933 0.26087 0.76236
 C281 C 0.52123 0.23399 0.76680
 C282 C 0.47747 0.26366 0.73529
 C283 C 0.52110 0.26369 0.73522
 C284 C 0.47754 0.23389 0.76684
 O285 O -0.01516 0.27168 0.75157
 O286 O 0.01689 0.24856 0.72805
 O287 O -0.01562 0.24905 0.72835
 O288 O 0.01736 0.27141 0.75105
 O289 O 0.01690 0.25219 0.77078
 O290 O -0.01512 0.22903 0.74727
 O291 O 0.01739 0.22934 0.74777
 O292 O -0.01562 0.25166 0.77049
 Cu293 Cu 0.00086 0.26215 0.73782
 Cu294 Cu 0.00089 0.23858 0.76102
 C295 C -0.02097 0.26548 0.76493
 C296 C 0.02271 0.23510 0.73403
 C297 C -0.02095 0.23521 0.73390
 C298 C 0.02270 0.26565 0.76479
 O299 O 0.51631 0.24718 0.22788
 O300 O 0.48374 0.27075 0.25005
 O301 O 0.51637 0.27074 0.25017
 O302 O 0.48390 0.24708 0.22788
 O303 O 0.48380 0.22832 0.24804
 O304 O 0.51623 0.25196 0.27032
 O305 O 0.48385 0.25199 0.27022
 O306 O 0.51645 0.22841 0.24804
 Cu307 Cu 0.50008 0.26085 0.23699
 Cu308 Cu 0.50008 0.23825 0.26115
 C309 C 0.52197 0.23382 0.23422
 C310 C 0.47822 0.26536 0.26388
 C311 C 0.52185 0.26534 0.26401
 C312 C 0.47828 0.23371 0.23422
 O313 O 0.98368 0.75120 0.72932
 O314 O 1.01640 0.72860 0.75228
 O315 O 0.98397 0.72843 0.75237
 O316 O 1.01623 0.75152 0.72921
 O317 O 1.01642 0.77089 0.74880
 O318 O 0.98360 0.74824 0.77151
 O319 O 1.01621 0.74811 0.77173
 O320 O 0.98395 0.77104 0.74842
 Cu321 Cu 1.00009 0.73798 0.73884
 Cu322 Cu 1.00002 0.76153 0.76207
 C323 C 0.97825 0.76496 0.73496
 C324 C 1.02188 0.73452 0.76591
 C325 C 0.97820 0.73449 0.76581
 C326 C 1.02191 0.76507 0.73515
 O327 O 0.48465 0.74844 0.27035
 O328 O 0.51707 0.77115 0.24698
 O329 O 0.48464 0.77109 0.24702
 O330 O 0.51721 0.74873 0.27040
 O331 O 0.51698 0.72864 0.25156
 O332 O 0.48483 0.75133 0.22782
 O333 O 0.51743 0.75108 0.22811
 O334 O 0.48450 0.72882 0.25101
 Cu335 Cu 0.50087 0.76183 0.26062
 Cu336 Cu 0.50096 0.73798 0.23770
 C337 C 0.47897 0.73483 0.26456
 C338 C 0.52285 0.76490 0.23363
 C339 C 0.47918 0.76501 0.23346
 C340 C 0.52264 0.73489 0.26496
 O341 O -0.01687 0.77149 0.25118
 O342 O 0.01551 0.74827 0.22828
 O343 O -0.01698 0.74860 0.22835
 O344 O 0.01574 0.77135 0.25109
 O345 O 0.01540 0.75219 0.27087
 O346 O -0.01678 0.72899 0.24769
 O347 O 0.01577 0.72915 0.24810
 O348 O -0.01703 0.75201 0.27066
 Cu349 Cu -0.00063 0.76189 0.23777
 Cu350 Cu -0.00068 0.73863 0.26129
 C351 C -0.02254 0.76563 0.26476
 C352 C 0.02123 0.73482 0.23437
 C353 C -0.02244 0.73492 0.23414
 C354 C 0.02114 0.76565 0.26484
 O355 O 0.48367 0.73029 0.74907
 O356 O 0.51639 0.75356 0.77133
 O357 O 0.48396 0.75368 0.77150
 O358 O 0.51621 0.73018 0.74872
 O359 O 0.51640 0.74951 0.72909
 O360 O 0.48359 0.77254 0.75142
 O361 O 0.51620 0.77274 0.75156
 O362 O 0.48392 0.74912 0.72897
 Cu363 Cu 0.50008 0.74000 0.76214
 Cu364 Cu 0.50000 0.76291 0.73828
 C365 C 0.47822 0.73574 0.73524
 C366 C 0.52187 0.76710 0.76523
 C367 C 0.47820 0.76705 0.76526
 C368 C 0.52188 0.73593 0.73509
 C369 C 0.38624 0.32343 0.32031
 N370 N 0.38308 0.32077 0.33671
 N371 N 0.36992 0.32780 0.34403
 C372 C 0.35934 0.33769 0.33521
 N373 N 0.36258 0.34034 0.31879
 N374 N 0.37578 0.33339 0.31149
 C375 C 0.40051 0.31536 0.31215
 N376 N 0.40453 0.31910 0.29613
 N377 N 0.41726 0.31152 0.28862
 C378 C 0.42640 0.29986 0.29683
 N379 N 0.42239 0.29614 0.31284
 N380 N 0.40971 0.30377 0.32038
 C381 C 0.44014 0.29116 0.28841
 N382 N 0.44787 0.27807 0.29586
 N383 N 0.46006 0.26991 0.28807
 C384 C 0.46503 0.27459 0.27258
 N385 N 0.45737 0.28774 0.26517
 N386 N 0.44512 0.29585 0.27292
 C387 C 0.38564 0.82411 0.82170
 N388 N 0.38241 0.82144 0.83809
 N389 N 0.36916 0.82837 0.84532
 C390 C 0.35856 0.83818 0.83645
 N391 N 0.36186 0.84084 0.82004
 N392 N 0.37515 0.83398 0.81282
 C393 C 0.40003 0.81619 0.81360
 N394 N 0.40408 0.82003 0.79763
 N395 N 0.41692 0.81259 0.79015
 C396 C 0.42612 0.80099 0.79836
 N397 N 0.42208 0.79716 0.81434
 N398 N 0.40929 0.80466 0.82184
 C399 C 0.43996 0.79245 0.78994
 N400 N 0.44779 0.77938 0.79733
 N401 N 0.46005 0.77135 0.78951
 C402 C 0.46498 0.77615 0.77405
 N403 N 0.45722 0.78928 0.76670
 N404 N 0.44491 0.79726 0.77449
 C405 C -0.11353 0.32159 0.82235
 N406 N -0.12388 0.31268 0.83234
 N407 N -0.13717 0.31983 0.83926
 C408 C -0.14062 0.33621 0.83655
 N409 N -0.13014 0.34512 0.82664
 N410 N -0.11689 0.33795 0.81965
 C411 C -0.09916 0.31357 0.81433
 N412 N -0.09005 0.32184 0.80271
 N413 N -0.07727 0.31440 0.79513
 C414 C -0.07309 0.29845 0.79895
 N415 N -0.08214 0.29022 0.81064
 N416 N -0.09496 0.29762 0.81817
 C417 C -0.05925 0.29010 0.79035
 N418 N -0.05420 0.27468 0.79518
 N419 N -0.04188 0.26693 0.78718
 C420 C -0.03421 0.27427 0.77401
 N421 N -0.03923 0.28970 0.76918
 N422 N -0.05151 0.29749 0.77724
 C423 C -0.11499 0.82218 0.32198
 N424 N -0.11822 0.81932 0.33834
 N425 N -0.13137 0.82632 0.34570
 C426 C -0.14188 0.83637 0.33697
 N427 N -0.13858 0.83919 0.32059
 N428 N -0.12539 0.83227 0.31325
 C429 C -0.10066 0.81426 0.31376
 N430 N -0.09652 0.81839 0.29787
 N431 N -0.08371 0.81100 0.29029
 C432 C -0.07463 0.79916 0.29829
 N433 N -0.07877 0.79504 0.31417
 N434 N -0.09153 0.80248 0.32179
 C435 C -0.06080 0.79071 0.28976
 N436 N -0.05315 0.77739 0.29687
 N437 N -0.04089 0.76946 0.28895
 C438 C -0.03577 0.77462 0.27366
 N439 N -0.04335 0.78800 0.26659
 N440 N -0.05567 0.79588 0.27448
 C441 C 0.61435 0.67844 0.32344
 N442 N 0.61754 0.66203 0.32087
 N443 N 0.63069 0.65476 0.32798
 C444 C 0.64122 0.66363 0.33787
 N445 N 0.63794 0.68006 0.34044
 N446 N 0.62476 0.68731 0.33341
 C447 C 0.60010 0.68656 0.31528
 N448 N 0.59605 0.70257 0.31898
 N449 N 0.58334 0.71005 0.31132
 C450 C 0.57428 0.70182 0.29962
 N451 N 0.57833 0.68580 0.29594
 N452 N 0.59098 0.67829 0.30365
 C453 C 0.56058 0.71023 0.29086
 N454 N 0.55290 0.70281 0.27772
 N455 N 0.54074 0.71063 0.26951
 C456 C 0.53577 0.72611 0.27420
 N457 N 0.54338 0.73349 0.28740
 N458 N 0.55559 0.72571 0.29555
 C459 C 0.61436 0.17843 0.82386
 N460 N 0.61773 0.16207 0.82116
 N461 N 0.63106 0.15494 0.82805
 C462 C 0.64160 0.16389 0.83785
 N463 N 0.63816 0.18027 0.84054
 N464 N 0.62479 0.18739 0.83372
 C465 C 0.59987 0.18640 0.81598
 N466 N 0.59568 0.20235 0.81982
 N467 N 0.58276 0.20971 0.81241
 C468 C 0.57359 0.20141 0.80084
 N469 N 0.57777 0.18546 0.79703
 N470 N 0.59065 0.17807 0.80449
 C471 C 0.55966 0.20969 0.79231
 N472 N 0.55189 0.20220 0.77928
 N473 N 0.53956 0.20989 0.77123
 C474 C 0.53450 0.22533 0.77597
 N475 N 0.54220 0.23279 0.78907
 N476 N 0.55458 0.22512 0.79707
 C477 C 1.11450 0.67774 0.82258
 N478 N 1.12489 0.68657 0.83259
 N479 N 1.13814 0.67934 0.83951
 C480 C 1.14150 0.66295 0.83678
 N481 N 1.13101 0.65412 0.82681
 N482 N 1.11780 0.66137 0.81981
 C483 C 1.10012 0.68586 0.81466
 N484 N 1.09101 0.67774 0.80293
 N485 N 1.07821 0.68528 0.79547
 C486 C 1.07401 0.70117 0.79954
 N487 N 1.08306 0.70924 0.81135
 N488 N 1.09591 0.70174 0.81874
 C489 C 1.06015 0.70963 0.79107
 N490 N 1.05497 0.72490 0.79621
 N491 N 1.04264 0.73275 0.78830
 C492 C 1.03510 0.72564 0.77493
 N493 N 1.04025 0.71035 0.76980
 N494 N 1.05252 0.70247 0.77776
 C495 C 1.11446 0.17762 0.32254
 N496 N 1.12488 0.18648 0.33249
 N497 N 1.13813 0.17925 0.33942
 C498 C 1.14146 0.16284 0.33676
 N499 N 1.13093 0.15398 0.32685
 N500 N 1.11772 0.16123 0.31984
 C501 C 1.10009 0.18573 0.31459
 N502 N 1.09097 0.17760 0.30287
 N503 N 1.07818 0.18514 0.29540
 C504 C 1.07400 0.20104 0.29944
 N505 N 1.08306 0.20912 0.31123
 N506 N 1.09590 0.20162 0.31864
 C507 C 1.06014 0.20951 0.29098
 N508 N 1.05499 0.22478 0.29614
 N509 N 1.04266 0.23265 0.28826
 C510 C 1.03509 0.22557 0.27488
 N511 N 1.04022 0.21029 0.26973
 N512 N 1.05250 0.20238 0.27766
 C513 C 0.61299 0.32031 0.67730
 N514 N 0.62347 0.31149 0.66737
 N515 N 0.63666 0.31880 0.66042
 C516 C 0.63987 0.33523 0.66305
 N517 N 0.62928 0.34404 0.67293
 N518 N 0.61613 0.33672 0.67995
 C519 C 0.59871 0.31213 0.68534
 N520 N 0.58949 0.32035 0.69691
 N521 N 0.57680 0.31280 0.70451
 C522 C 0.57282 0.29678 0.70076
 N523 N 0.58198 0.28859 0.68912
 N524 N 0.59472 0.29612 0.68157
 C525 C 0.55909 0.28834 0.70943
 N526 N 0.55415 0.27284 0.70472
 N527 N 0.54191 0.26505 0.71283
 C528 C 0.53424 0.27244 0.72598
 N529 N 0.53917 0.28794 0.73067
 N530 N 0.55134 0.29576 0.72252
 C531 C 0.61532 0.82126 0.17634
 N532 N 0.61855 0.83765 0.17898
 N533 N 0.63175 0.84490 0.17196
 C534 C 0.64230 0.83602 0.16209
 N535 N 0.63899 0.81961 0.15946
 N536 N 0.62576 0.81238 0.16641
 C537 C 0.60099 0.81316 0.18434
 N538 N 0.59691 0.79718 0.18054
 N539 N 0.58411 0.78971 0.18803
 C540 C 0.57496 0.79792 0.19967
 N541 N 0.57902 0.81391 0.20347
 N542 N 0.59178 0.82140 0.19591
 C543 C 0.56113 0.78952 0.20824
 N544 N 0.55333 0.79692 0.22132
 N545 N 0.54107 0.78911 0.22935
 C546 C 0.53610 0.77366 0.22456
 N547 N 0.54384 0.76630 0.21142
 N548 N 0.55615 0.77407 0.20344
 C549 C 1.11412 0.32323 0.17925
 N550 N 1.12448 0.33325 0.18812
 N551 N 1.13772 0.34021 0.18090
 C552 C 1.14110 0.33749 0.16452
 N553 N 1.13061 0.32755 0.15566
 N554 N 1.11742 0.32052 0.16288
 C555 C 1.09981 0.31515 0.18733
 N556 N 1.09078 0.30341 0.17912
 N557 N 1.07807 0.29577 0.18660
 C558 C 1.07387 0.29964 0.20253
 N559 N 1.08284 0.31144 0.21071
 N560 N 1.09560 0.31903 0.20326
 C561 C 1.06009 0.29097 0.21091
 N562 N 1.05491 0.29591 0.22625
 N563 N 1.04263 0.28786 0.23401
 C564 C 1.03513 0.27453 0.22676
 N565 N 1.04030 0.26960 0.21141
 N566 N 1.05253 0.27770 0.20361
 C567 C 1.11411 0.82226 0.67828
 N568 N 1.11740 0.81948 0.66192
 N569 N 1.13057 0.82651 0.65464
 C570 C 1.14104 0.83652 0.66344
 N571 N 1.13768 0.83930 0.67982
 N572 N 1.12446 0.83234 0.68708
 C573 C 1.09982 0.81422 0.68641
 N574 N 1.09564 0.81821 0.70232
 N575 N 1.08288 0.81069 0.70983
 C576 C 1.07388 0.79885 0.70175
 N577 N 1.07805 0.79487 0.68583
 N578 N 1.09077 0.80245 0.67829
 C579 C 1.06009 0.79028 0.71021
 N580 N 1.05246 0.77699 0.70302
 N581 N 1.04022 0.76899 0.71092
 C582 C 1.03513 0.77405 0.72625
 N583 N 1.04270 0.78739 0.73339
 N584 N 1.05499 0.79534 0.72553
 C585 C 0.38611 0.67772 0.67902
 N586 N 0.38291 0.68026 0.66260
 N587 N 0.36975 0.67317 0.65536
 C588 C 0.35920 0.66333 0.66426
 N589 N 0.36247 0.66079 0.68069
 N590 N 0.37568 0.66781 0.68792
 C591 C 0.40040 0.68582 0.68710
 N592 N 0.40447 0.68212 0.70311
 N593 N 0.41722 0.68971 0.71056
 C594 C 0.42633 0.70135 0.70231
 N595 N 0.42227 0.70504 0.68629
 N596 N 0.40956 0.69739 0.67881
 C597 C 0.44010 0.71004 0.71068
 N598 N 0.44783 0.72313 0.70324
 N599 N 0.46005 0.73127 0.71102
 C600 C 0.46503 0.72656 0.72650
 N601 N 0.45737 0.71341 0.73390
 N602 N 0.44510 0.70532 0.72615
 C603 C 0.38567 0.17604 0.17847
 N604 N 0.38235 0.17865 0.16209
 N605 N 0.36909 0.17167 0.15494
 C606 C 0.35855 0.16187 0.16389
 N607 N 0.36194 0.15927 0.18030
 N608 N 0.37525 0.16618 0.18744
 C609 C 0.40008 0.18402 0.18647
 N610 N 0.40423 0.18026 0.20244
 N611 N 0.41709 0.18777 0.20982
 C612 C 0.42621 0.19936 0.20153
 N613 N 0.42207 0.20310 0.18554
 N614 N 0.40927 0.19554 0.17814
 C615 C 0.44006 0.20799 0.20983
 N616 N 0.44779 0.22105 0.20234
 N617 N 0.46005 0.22917 0.21007
 C618 C 0.46508 0.22448 0.22553
 N619 N 0.45743 0.21135 0.23298
 N620 N 0.44512 0.20327 0.22529
 C621 C -0.11447 0.67803 0.17663
 N622 N -0.12482 0.68685 0.16657
 N623 N -0.13805 0.67961 0.15961
 C624 C -0.14142 0.66323 0.16238
 N625 N -0.13094 0.65441 0.17236
 N626 N -0.11775 0.66167 0.17939
 C627 C -0.10017 0.68616 0.18469
 N628 N -0.09114 0.67802 0.19647
 N629 N -0.07844 0.68556 0.20409
 C630 C -0.07427 0.70148 0.20015
 N631 N -0.08325 0.70958 0.18830
 N632 N -0.09599 0.70207 0.18074
 C633 C -0.06052 0.70995 0.20877
 N634 N -0.05542 0.72529 0.20375
 N635 N -0.04317 0.73315 0.21175
 C636 C -0.03563 0.72601 0.22511
 N637 N -0.04071 0.71066 0.23013
 N638 N -0.05291 0.70276 0.22208
 C639 C -0.11334 0.17890 0.67643
 N640 N -0.11659 0.16251 0.67902
 N641 N -0.12983 0.15531 0.67203
 C642 C -0.14041 0.16425 0.66224
 N643 N -0.13708 0.18066 0.65965
 N644 N -0.12379 0.18783 0.66657
 C645 C -0.09898 0.18695 0.68445
 N646 N -0.09488 0.20293 0.68068
 N647 N -0.08208 0.21037 0.68821
 C648 C -0.07295 0.20212 0.69985
 N649 N -0.07703 0.18613 0.70360
 N650 N -0.08979 0.17867 0.69601
 C651 C -0.05914 0.21051 0.70846
 N652 N -0.05136 0.20312 0.72155
 N653 N -0.03911 0.21094 0.72962
 C654 C -0.03416 0.22640 0.72482
 N655 N -0.04188 0.23374 0.71167
 N656 N -0.05417 0.22596 0.70366
 C657 C 0.32209 0.38655 0.32186
 N658 N 0.31330 0.37607 0.33181
 N659 N 0.32059 0.36279 0.33862
 C660 C 0.33698 0.35949 0.33583
 N661 N 0.34577 0.37007 0.32592
 N662 N 0.33846 0.38331 0.31904
 C663 C 0.31392 0.40096 0.31405
 N664 N 0.32206 0.41024 0.30247
 N665 N 0.31451 0.42306 0.29510
 C666 C 0.29856 0.42713 0.29909
 N667 N 0.29046 0.41791 0.31074
 N668 N 0.29799 0.40504 0.31806
 C669 C 0.29009 0.44100 0.29066
 N670 N 0.27469 0.44599 0.29561
 N671 N 0.26685 0.45833 0.28771
 C672 C 0.27410 0.46606 0.27451
 N673 N 0.28952 0.46109 0.26958
 N674 N 0.29738 0.44881 0.27754
 C675 C 0.32127 -0.11321 0.82261
 N676 N 0.31241 -0.12370 0.83249
 N677 N 0.31969 -0.13690 0.83946
 C678 C 0.33614 -0.14011 0.83690
 N679 N 0.34500 -0.12950 0.82709
 N680 N 0.33770 -0.11634 0.82005
 C681 C 0.31312 -0.09893 0.81455
 N682 N 0.32137 -0.08971 0.80300
 N683 N 0.31382 -0.07702 0.79537
 C684 C 0.29779 -0.07304 0.79909
 N685 N 0.28958 -0.08220 0.81071
 N686 N 0.29710 -0.09493 0.81828
 C687 C 0.28934 -0.05930 0.79041
 N688 N 0.27385 -0.05438 0.79513
 N689 N 0.26603 -0.04216 0.78703
 C690 C 0.27339 -0.03447 0.77387
 N691 N 0.28890 -0.03938 0.76917
 N692 N 0.29675 -0.05155 0.77732
 C693 C 0.82307 0.38517 0.82093
 N694 N 0.82051 0.38210 0.83737
 N695 N 0.82757 0.36898 0.84471
 C696 C 0.83740 0.35834 0.83589
 N697 N 0.83995 0.36148 0.81944
 N698 N 0.83296 0.37465 0.81211
 C699 C 0.81501 0.39942 0.81274
 N700 N 0.81872 0.40335 0.79670
 N701 N 0.81115 0.41607 0.78915
 C702 C 0.79954 0.42527 0.79735
 N703 N 0.79585 0.42135 0.81339
 N704 N 0.80348 0.40868 0.82096
 C705 C 0.79086 0.43900 0.78889
 N706 N 0.77779 0.44677 0.79633
 N707 N 0.76963 0.45894 0.78851
 C708 C 0.77429 0.46384 0.77299
 N709 N 0.78741 0.45613 0.76558
 N710 N 0.79552 0.44390 0.77338
 C711 C 0.82121 -0.11463 0.32350
 N712 N 0.81230 -0.12509 0.33336
 N713 N 0.81951 -0.13837 0.34026
 C714 C 0.83592 -0.14169 0.33763
 N715 N 0.84482 -0.13111 0.32783
 N716 N 0.83761 -0.11787 0.32086
 C717 C 0.81314 -0.10025 0.31553
 N718 N 0.82138 -0.09110 0.30392
 N719 N 0.81391 -0.07833 0.29637
 C720 C 0.79795 -0.07419 0.30022
 N721 N 0.78974 -0.08327 0.31190
 N722 N 0.79719 -0.09610 0.31939
 C723 C 0.78957 -0.06037 0.29162
 N724 N 0.77419 -0.05524 0.29651
 N725 N 0.76643 -0.04295 0.28846
 C726 C 0.77372 -0.03540 0.27519
 N727 N 0.78910 -0.04051 0.27031
 N728 N 0.79690 -0.05275 0.27840
 C729 C 0.32231 0.61432 0.67793
 N730 N 0.33863 0.61776 0.68080
 N731 N 0.34582 0.63100 0.67382
 C732 C 0.33697 0.64139 0.66376
 N733 N 0.32064 0.63788 0.66090
 N734 N 0.31346 0.62459 0.66780
 C735 C 0.31426 0.59991 0.68587
 N736 N 0.29842 0.59558 0.68178
 N737 N 0.29099 0.58272 0.68920
 C738 C 0.29910 0.57376 0.70105
 N739 N 0.31496 0.57807 0.70514
 N740 N 0.32242 0.59089 0.69766
 C741 C 0.29072 0.55986 0.70954
 N742 N 0.29793 0.55226 0.72284
 N743 N 0.29011 0.53995 0.73080
 C744 C 0.27484 0.53473 0.72568
 N745 N 0.26768 0.54225 0.71231
 N746 N 0.27546 0.55462 0.70441
 C747 C 0.32154 1.11307 0.17787
 N748 N 0.33791 1.11638 0.18054
 N749 N 0.34512 1.12958 0.17349
 C750 C 0.33622 1.14006 0.16356
 N751 N 0.31982 1.13667 0.16090
 N752 N 0.31264 1.12342 0.16788
 C753 C 0.31348 1.09873 0.18590
 N754 N 0.29758 1.09449 0.18194
 N755 N 0.29014 1.08168 0.18945
 C756 C 0.29829 1.07269 0.20124
 N757 N 0.31421 1.07692 0.20519
 N758 N 0.32168 1.08968 0.19763
 C759 C 0.28990 1.05886 0.20981
 N760 N 0.29714 1.05127 0.22311
 N761 N 0.28931 1.03901 0.23112
 C762 C 0.27400 1.03383 0.22608
 N763 N 0.26681 1.04135 0.21272
 N764 N 0.27460 1.05366 0.20476
 C765 C 0.82246 0.61423 0.17819
 N766 N 0.81981 0.61726 0.16176
 N767 N 0.82681 0.63038 0.15435
 C768 C 0.83666 0.64104 0.16310
 N769 N 0.83929 0.63795 0.17956
 N770 N 0.83236 0.62479 0.18695
 C771 C 0.81452 0.59996 0.18646
 N772 N 0.81841 0.59606 0.20247
 N773 N 0.81099 0.58331 0.21009
 C774 C 0.79935 0.57405 0.20202
 N775 N 0.79547 0.57793 0.18600
 N776 N 0.80296 0.59064 0.17835
 C777 C 0.79085 0.56028 0.21058
 N778 N 0.77775 0.55241 0.20331
 N779 N 0.76977 0.54020 0.21126
 C780 C 0.77465 0.53537 0.22673
 N781 N 0.78782 0.54318 0.23396
 N782 N 0.79575 0.55544 0.22605
 C783 C 0.82352 1.11515 0.67787
 N784 N 0.82077 1.11831 0.66148
 N785 N 0.82775 1.13147 0.65414
 C786 C 0.83767 1.14205 0.66291
 N787 N 0.84040 1.13882 0.67932
 N788 N 0.83349 1.12562 0.68665
 C789 C 0.81558 1.10083 0.68608
 N790 N 0.81953 1.09682 0.70204
 N791 N 0.81210 1.08404 0.70962
 C792 C 0.80040 1.07486 0.70154
 N793 N 0.79647 1.07886 0.68557
 N794 N 0.80396 1.09159 0.67796
 C795 C 0.79190 1.06107 0.71006
 N796 N 0.77876 1.05325 0.70280
 N797 N 0.77077 1.04103 0.71072
 C798 C 0.77569 1.03613 0.72616
 N799 N 0.78890 1.04387 0.73338
 N800 N 0.79683 1.05615 0.72549
 C801 C 0.67720 0.61432 0.32259
 N802 N 0.66736 0.62484 0.31371
 N803 N 0.66044 0.63807 0.32097
 C804 C 0.66301 0.64130 0.33740
 N805 N 0.67279 0.63067 0.34628
 N806 N 0.67979 0.61747 0.33901
 C807 C 0.68518 0.59999 0.31446
 N808 N 0.69674 0.59074 0.32269
 N809 N 0.70429 0.57800 0.31516
 C810 C 0.70050 0.57400 0.29915
 N811 N 0.68887 0.58318 0.29096
 N812 N 0.68138 0.59597 0.29847
 C813 C 0.70908 0.56021 0.29070
 N814 N 0.70426 0.55526 0.27525
 N815 N 0.71228 0.54300 0.26743
 C816 C 0.72546 0.53529 0.27474
 N817 N 0.73027 0.54022 0.29020
 N818 N 0.72220 0.55243 0.29806
 C819 C 0.67803 1.11497 0.82224
 N820 N 0.68077 1.11820 0.83862
 N821 N 0.67369 1.13131 0.84594
 C822 C 0.66365 1.14179 0.83717
 N823 N 0.66092 1.13849 0.82077
 N824 N 0.66793 1.12533 0.81346
 C825 C 0.68610 1.10071 0.81406
 N826 N 0.68221 1.09663 0.79810
 N827 N 0.68976 1.08390 0.79055
 C828 C 0.70153 1.07483 0.79867
 N829 N 0.70542 1.07891 0.81463
 N830 N 0.69781 1.09159 0.82220
 C831 C 0.71015 1.06108 0.79019
 N832 N 0.72334 1.05336 0.79750
 N833 N 0.73141 1.04115 0.78963
 C834 C 0.72653 1.03616 0.77420
 N835 N 0.71329 1.04382 0.76694
 N836 N 0.70527 1.05608 0.77477
 C837 C 0.17777 0.61368 0.82172
 N838 N 0.16767 0.62396 0.81285
 N839 N 0.16065 0.63719 0.82004
 C840 C 0.16337 0.64063 0.83641
 N841 N 0.17341 0.63023 0.84528
 N842 N 0.18050 0.61705 0.83807
 C843 C 0.18585 0.59937 0.81366
 N844 N 0.19766 0.59039 0.82183
 N845 N 0.20528 0.57766 0.81435
 C846 C 0.20131 0.57339 0.79845
 N847 N 0.18943 0.58231 0.79032
 N848 N 0.18188 0.59509 0.79777
 C849 C 0.20992 0.55958 0.79005
 N850 N 0.20487 0.55437 0.77476
 N851 N 0.21287 0.54208 0.76697
 C852 C 0.22627 0.53460 0.77413
 N853 N 0.23132 0.53981 0.78943
 N854 N 0.22326 0.55205 0.79727
 C855 C 0.17744 1.11332 0.32189
 N856 N 0.16739 1.12361 0.31297
 N857 N 0.16047 1.13692 0.32010
 C858 C 0.16324 1.14044 0.33645
 N859 N 0.17322 1.13003 0.34536
 N860 N 0.18022 1.11676 0.33822
 C861 C 0.18542 1.09891 0.31389
 N862 N 0.19718 1.08991 0.32209
 N863 N 0.20472 1.07710 0.31466
 C864 C 0.20070 1.07278 0.29879
 N865 N 0.18886 1.08172 0.29064
 N866 N 0.18139 1.09458 0.29803
 C867 C 0.20924 1.05890 0.29044
 N868 N 0.20415 1.05365 0.27517
 N869 N 0.21210 1.04131 0.26740
 C870 C 0.22548 1.03382 0.27457
 N871 N 0.23056 1.03905 0.28985
 N872 N 0.22256 1.05134 0.29766
 C873 C 0.67569 0.38468 0.67834
 N874 N 0.66585 0.37417 0.68722
 N875 N 0.65896 0.36091 0.67997
 C876 C 0.66158 0.35766 0.66354
 N877 N 0.67136 0.36829 0.65467
 N878 N 0.67831 0.38151 0.66193
 C879 C 0.68366 0.39904 0.68645
 N880 N 0.69516 0.40830 0.67818
 N881 N 0.70272 0.42105 0.68568
 C882 C 0.69899 0.42506 0.70170
 N883 N 0.68742 0.41586 0.70994
 N884 N 0.67992 0.40306 0.70246
 C885 C 0.70763 0.43885 0.71008
 N886 N 0.70295 0.44382 0.72558
 N887 N 0.71103 0.45610 0.73332
 C888 C 0.72414 0.46380 0.72588
 N889 N 0.72881 0.45885 0.71038
 N890 N 0.72067 0.44663 0.70261
 C891 C 0.67854 -0.11486 0.17750
 N892 N 0.66840 -0.12518 0.18627
 N893 N 0.66142 -0.13837 0.17899
 C894 C 0.66422 -0.14174 0.16262
 N895 N 0.67430 -0.13131 0.15385
 N896 N 0.68136 -0.11816 0.16115
 C897 C 0.68652 -0.10055 0.18567
 N898 N 0.69836 -0.09150 0.17764
 N899 N 0.70584 -0.07875 0.18522
 C900 C 0.70169 -0.07453 0.20109
 N901 N 0.68978 -0.08353 0.20908
 N902 N 0.68237 -0.09633 0.20153
 C903 C 0.71011 -0.06069 0.20961
 N904 N 0.70483 -0.05554 0.22484
 N905 N 0.71264 -0.04320 0.23276
 C906 C 0.72605 -0.03561 0.22578
 N907 N 0.73133 -0.04075 0.21053
 N908 N 0.72347 -0.05304 0.20257
 C909 C 0.17841 0.38633 0.17796
 N910 N 0.16205 0.38306 0.18081
 N911 N 0.15475 0.36982 0.17393
 C912 C 0.16353 0.35926 0.16400
 N913 N 0.17991 0.36258 0.16118
 N914 N 0.18719 0.37587 0.16798
 C915 C 0.18656 0.40074 0.18577
 N916 N 0.20248 0.40484 0.18175
 N917 N 0.21000 0.41772 0.18907
 C918 C 0.20190 0.42693 0.20073
 N919 N 0.18596 0.42284 0.20474
 N920 N 0.17842 0.41001 0.19737
 C921 C 0.21035 0.44083 0.20915
 N922 N 0.20305 0.44864 0.22227
 N923 N 0.21090 0.46095 0.23020
 C924 C 0.22630 0.46594 0.22525
 N925 N 0.23356 0.45820 0.21207
 N926 N 0.22574 0.44584 0.20418
 C927 C 0.17814 -0.11452 0.67683
 N928 N 0.16177 -0.11779 0.67961
 N929 N 0.15452 -0.13105 0.67271
 C930 C 0.16336 -0.14162 0.66284
 N931 N 0.17974 -0.13828 0.66008
 N932 N 0.18698 -0.12498 0.66690
 C933 C 0.18625 -0.10010 0.68469
 N934 N 0.20220 -0.09601 0.68078
 N935 N 0.20968 -0.08313 0.68814
 C936 C 0.20150 -0.07392 0.69975
 N937 N 0.18553 -0.07800 0.70365
 N938 N 0.17803 -0.09083 0.69623
 C939 C 0.20990 -0.06002 0.70821
 N940 N 0.20251 -0.05215 0.72125
 N941 N 0.21032 -0.03983 0.72920
 C942 C 0.22576 -0.03487 0.72436
 N943 N 0.23311 -0.04267 0.71125
 N944 N 0.22534 -0.05505 0.70335
 C945 C 0.32351 0.32239 0.38466
 N946 N 0.33345 0.31354 0.37422
 N947 N 0.34033 0.32078 0.36095
 C948 C 0.33762 0.33718 0.35764
 N949 N 0.32776 0.34603 0.36821
 N950 N 0.32080 0.33877 0.38143
 C951 C 0.31555 0.31427 0.39901
 N952 N 0.30385 0.32243 0.40813
 N953 N 0.29633 0.31491 0.42089
 C954 C 0.30028 0.29898 0.42503
 N955 N 0.31205 0.29086 0.41597
 N956 N 0.31952 0.29835 0.40317
 C957 C 0.29174 0.29053 0.43884
 N958 N 0.29678 0.27521 0.44397
 N959 N 0.28882 0.26737 0.45626
 C960 C 0.27547 0.27454 0.46381
 N961 N 0.27043 0.28987 0.45869
 N962 N 0.27845 0.29774 0.44646
 C963 C 0.32242 0.82262 -0.11442
 N964 N 0.31956 0.83897 -0.11770
 N965 N 0.32658 0.84629 -0.13086
 C966 C 0.33666 0.83754 -0.14131
 N967 N 0.33950 0.82117 -0.13795
 N968 N 0.33255 0.81387 -0.12475
 C969 C 0.31442 0.81443 -0.10013
 N970 N 0.31850 0.79855 -0.09595
 N971 N 0.31102 0.79099 -0.08319
 C972 C 0.29914 0.79901 -0.07420
 N973 N 0.29507 0.81491 -0.07836
 N974 N 0.30260 0.82250 -0.09107
 C975 C 0.29060 0.79050 -0.06042
 N976 N 0.27726 0.79764 -0.05282
 N977 N 0.26926 0.78972 -0.04060
 C978 C 0.27437 0.77442 -0.03548
 N979 N 0.28776 0.76732 -0.04302
 N980 N 0.29571 0.77520 -0.05529
 C981 C 0.82218 0.32261 -0.11460
 N982 N 0.81334 0.33254 -0.12505
 N983 N 0.82058 0.33939 -0.13834
 C984 C 0.83697 0.33664 -0.14167
 N985 N 0.84581 0.32674 -0.13112
 N986 N 0.83856 0.31983 -0.11787
 C987 C 0.81408 0.31477 -0.10017
 N988 N 0.82227 0.30321 -0.09090
 N989 N 0.81476 0.29583 -0.07805
 C990 C 0.79881 0.29980 -0.07396
 N991 N 0.79066 0.31143 -0.08317
 N992 N 0.79814 0.31875 -0.09607
 C993 C 0.79040 0.29141 -0.06003
 N994 N 0.77500 0.29637 -0.05503
 N995 N 0.76720 0.28853 -0.04264
 C996 C 0.77449 0.27539 -0.03483
 N997 N 0.78990 0.27045 -0.03981
 N998 N 0.79773 0.27834 -0.05215
 C999 C 0.82219 0.82131 0.38648
 N1000 N 0.81946 0.83767 0.38315
 N1001 N 0.82647 0.84487 0.36993
 C1002 C 0.83641 0.83599 0.35945
 N1003 N 0.83912 0.81961 0.36286
 N1004 N 0.83219 0.81243 0.37613
 C1005 C 0.81420 0.81325 0.40085
 N1006 N 0.81820 0.79737 0.40511
 N1007 N 0.81074 0.78993 0.41795
 C1008 C 0.79894 0.79806 0.42694
 N1009 N 0.79493 0.81395 0.42270
 N1010 N 0.80246 0.82143 0.40991
 C1011 C 0.79045 0.78966 0.44082
 N1012 N 0.77715 0.79685 0.44846
 N1013 N 0.76922 0.78900 0.46077
 C1014 C 0.77435 0.77372 0.46594
 N1015 N 0.78770 0.76658 0.45837
 N1016 N 0.79558 0.77439 0.44601
 C1017 C 0.67697 0.32176 0.61417
 N1018 N 0.68577 0.33180 0.62456
 N1019 N 0.67852 0.33867 0.63782
 C1020 C 0.66215 0.33585 0.64119
 N1021 N 0.65335 0.32588 0.63069
 N1022 N 0.66062 0.31893 0.61747
 C1023 C 0.68510 0.31386 0.59979
 N1024 N 0.67698 0.30218 0.59062
 N1025 N 0.68453 0.29473 0.57783
 C1026 C 0.70045 0.29876 0.57370
 N1027 N 0.70853 0.31052 0.58281
 N1028 N 0.70101 0.31791 0.59564
 C1029 C 0.70893 0.29033 0.55983
 N1030 N 0.72428 0.29539 0.55482
 N1031 N 0.73216 0.28754 0.54249
 C1032 C 0.72500 0.27429 0.53477
 N1033 N 0.70963 0.26923 0.53975
 N1034 N 0.70172 0.27714 0.55204
 C1035 C 0.67911 0.82231 1.11311
 N1036 N 0.68808 0.83215 1.12354
 N1037 N 0.68094 0.83908 1.13683
 C1038 C 0.66452 0.83652 1.14019
 N1039 N 0.65555 0.82674 1.12964
 N1040 N 0.66271 0.81973 1.11639
 C1041 C 0.68711 0.81430 1.09872
 N1042 N 0.67878 0.80277 1.08953
 N1043 N 0.68619 0.79520 1.07674
 C1044 C 0.70219 0.79892 1.07263
 N1045 N 0.71048 0.81052 1.08175
 N1046 N 0.70310 0.81804 1.09459
 C1047 C 0.71051 0.79030 1.05878
 N1048 N 0.72596 0.79503 1.05376
 N1049 N 0.73368 0.78697 1.04145
 C1050 C 0.72625 0.77384 1.03377
 N1051 N 0.71078 0.76912 1.03878
 N1052 N 0.70304 0.77723 1.05104
 C1053 C 0.17709 0.32188 1.11535
 N1054 N 0.17975 0.33830 1.11845
 N1055 N 0.17279 0.34564 1.13162
 C1056 C 0.16298 0.33684 1.14228
 N1057 N 0.16035 0.32040 1.13911
 N1058 N 0.16723 0.31307 1.12589
 C1059 C 0.18499 0.31368 1.10101
 N1060 N 0.18107 0.29771 1.09702
 N1061 N 0.18846 0.29014 1.08422
 C1062 C 0.20010 0.29824 1.07498
 N1063 N 0.20401 0.31422 1.07895
 N1064 N 0.19656 0.32182 1.09171
 C1065 C 0.20856 0.28972 1.06116
 N1066 N 0.22169 0.29697 1.05332
 N1067 N 0.22964 0.28904 1.04107
 C1068 C 0.22468 0.27362 1.03616
 N1069 N 0.21148 0.26642 1.04393
 N1070 N 0.20359 0.27431 1.05623
 C1071 C 0.17701 0.82100 0.61422
 N1072 N 0.16720 0.81216 0.62479
 N1073 N 0.16030 0.81947 0.63800
 C1074 C 0.16287 0.83592 0.64115
 N1075 N 0.17263 0.84476 0.63048
 N1076 N 0.17960 0.83743 0.61730
 C1077 C 0.18497 0.81283 0.59990
 N1078 N 0.19644 0.82106 0.59058
 N1079 N 0.20397 0.81350 0.57784
 C1080 C 0.20024 0.79747 0.57392
 N1081 N 0.18869 0.78926 0.58318
 N1082 N 0.18121 0.79680 0.59596
 C1083 C 0.20884 0.78902 0.56014
 N1084 N 0.20414 0.77351 0.55524
 N1085 N 0.21220 0.76571 0.54298
 C1086 C 0.22530 0.77312 0.53524
 N1087 N 0.22999 0.78863 0.54013
 N1088 N 0.22188 0.79645 0.55233
 C1089 C 0.32327 0.67849 0.61488
 N1090 N 0.32066 0.66209 0.61808
 N1091 N 0.32762 0.65485 0.63132
 C1092 C 0.33740 0.66374 0.64193
 N1093 N 0.33999 0.68017 0.63867
 N1094 N 0.33310 0.68739 0.62539
 C1095 C 0.31535 0.68658 0.60048
 N1096 N 0.31914 0.70257 0.59644
 N1097 N 0.31171 0.71002 0.58358
 C1098 C 0.30016 0.70178 0.57434
 N1099 N 0.29639 0.68577 0.57838
 N1100 N 0.30388 0.67830 0.59119
 C1101 C 0.29161 0.71014 0.56048
 N1102 N 0.27860 0.70267 0.55265
 N1103 N 0.27054 0.71044 0.54037
 C1104 C 0.27526 0.72591 0.53541
 N1105 N 0.28835 0.73335 0.54316
 N1106 N 0.29635 0.72562 0.55550
 C1107 C 0.32211 0.17733 1.11495
 N1108 N 0.31941 0.16094 1.11817
 N1109 N 0.32652 0.15363 1.13129
 C1110 C 0.33653 0.16244 1.14177
 N1111 N 0.33921 0.17884 1.13847
 N1112 N 0.33218 0.18613 1.12531
 C1113 C 0.31403 0.18550 1.10069
 N1114 N 0.31793 0.20145 1.09659
 N1115 N 0.31038 0.20899 1.08386
 C1116 C 0.29859 0.20088 1.07481
 N1117 N 0.29470 0.18492 1.07889
 N1118 N 0.30231 0.17735 1.09158
 C1119 C 0.28998 0.20937 1.06105
 N1120 N 0.27677 0.20210 1.05334
 N1121 N 0.26872 0.20999 1.04114
 C1122 C 0.27364 0.22540 1.03614
 N1123 N 0.28691 0.23262 1.04378
 N1124 N 0.29491 0.22476 1.05603
 C1125 C 0.82144 0.67663 1.11345
 N1126 N 0.81259 0.66672 1.12392
 N1127 N 0.81983 0.65990 1.13723
 C1128 C 0.83622 0.66264 1.14056
 N1129 N 0.84507 0.67248 1.12997
 N1130 N 0.83782 0.67938 1.11671
 C1131 C 0.81333 0.68450 1.09904
 N1132 N 0.82155 0.69603 1.08977
 N1133 N 0.81404 0.70347 1.07695
 C1134 C 0.79807 0.69960 1.07289
 N1135 N 0.78988 0.68799 1.08210
 N1136 N 0.79736 0.68061 1.09496
 C1137 C 0.78965 0.70808 1.05901
 N1138 N 0.77420 0.70324 1.05405
 N1139 N 0.76642 0.71118 1.04170
 C1140 C 0.77377 0.72429 1.03392
 N1141 N 0.78922 0.72911 1.03886
 N1142 N 0.79704 0.72113 1.05115
 C1143 C 0.82212 0.17812 0.61370
 N1144 N 0.81337 0.16806 0.62410
 N1145 N 0.82069 0.16111 0.63729
 C1146 C 0.83709 0.16387 0.64057
 N1147 N 0.84585 0.17387 0.63006
 N1148 N 0.83850 0.18090 0.61691
 C1149 C 0.81391 0.18610 0.59941
 N1150 N 0.82199 0.19781 0.59024
 N1151 N 0.81437 0.20531 0.57752
 C1152 C 0.79842 0.20131 0.57346
 N1153 N 0.79038 0.18954 0.58257
 N1154 N 0.79797 0.18210 0.59534
 C1155 C 0.78987 0.20980 0.55966
 N1156 N 0.77449 0.20476 0.55471
 N1157 N 0.76656 0.21264 0.54242
 C1158 C 0.77369 0.22590 0.53469
 N1159 N 0.78908 0.23093 0.53963
 N1160 N 0.79705 0.22300 0.55187
 C1161 C 0.67833 0.67719 0.38679
 N1162 N 0.66200 0.68009 0.38342
 N1163 N 0.65473 0.67315 0.37019
 C1164 C 0.66352 0.66311 0.35975
 N1165 N 0.67987 0.66022 0.36318
 N1166 N 0.68712 0.66709 0.37645
 C1167 C 0.68645 0.68508 0.40118
 N1168 N 0.70232 0.68096 0.40542
 N1169 N 0.70982 0.68835 0.41827
 C1170 C 0.70176 0.70018 0.42730
 N1171 N 0.68588 0.70428 0.42307
 N1172 N 0.67835 0.69684 0.41027
 C1173 C 0.71021 0.70866 0.44115
 N1174 N 0.70302 0.72197 0.44876
 N1175 N 0.71089 0.72995 0.46102
 C1176 C 0.72620 0.72487 0.46618
 N1177 N 0.73334 0.71150 0.45864
 N1178 N 0.72551 0.70357 0.44633
 C1179 C 0.67887 0.17785 -0.11352
 N1180 N 0.68776 0.16797 -0.12399
 N1181 N 0.68051 0.16100 -0.13721
 C1182 C 0.66407 0.16357 -0.14046
 N1183 N 0.65519 0.17339 -0.12988
 N1184 N 0.66245 0.18043 -0.11670
 C1185 C 0.68699 0.18587 -0.09920
 N1186 N 0.67875 0.19744 -0.08999
 N1187 N 0.68626 0.20501 -0.07726
 C1188 C 0.70226 0.20123 -0.07321
 N1189 N 0.71047 0.18959 -0.08236
 N1190 N 0.70298 0.18207 -0.09515
 C1191 C 0.71069 0.20983 -0.05942
 N1192 N 0.72614 0.20501 -0.05443
 N1193 N 0.73394 0.21304 -0.04216
 C1194 C 0.72662 0.22623 -0.03448
 N1195 N 0.71116 0.23103 -0.03945
 N1196 N 0.70332 0.22295 -0.05167
 C1197 C 0.17840 0.67692 -0.11437
 N1198 N 0.16199 0.67947 -0.11763
 N1199 N 0.15479 0.67237 -0.13081
 C1200 C 0.16373 0.66251 -0.14131
 N1201 N 0.18015 0.65996 -0.13797
 N1202 N 0.18733 0.66699 -0.12475
 C1203 C 0.18645 0.68504 -0.10007
 N1204 N 0.20239 0.68120 -0.09588
 N1205 N 0.20984 0.68880 -0.08312
 C1206 C 0.20164 0.70058 -0.07415
 N1207 N 0.18569 0.70442 -0.07833
 N1208 N 0.17822 0.69675 -0.09104
 C1209 C 0.21004 0.70924 -0.06038
 N1210 N 0.20277 0.72255 -0.05283
 N1211 N 0.21061 0.73064 -0.04061
 C1212 C 0.22595 0.72567 -0.03546
 N1213 N 0.23316 0.71231 -0.04294
 N1214 N 0.22537 0.70427 -0.05520
 C1215 C 0.17874 0.17703 0.38528
 N1216 N 0.16232 0.17964 0.38210
 N1217 N 0.15501 0.17248 0.36902
 C1218 C 0.16383 0.16250 0.35854
 N1219 N 0.18026 0.15989 0.36179
 N1220 N 0.18756 0.16698 0.37492
 C1221 C 0.18692 0.18520 0.39948
 N1222 N 0.20287 0.18132 0.40360
 N1223 N 0.21042 0.18895 0.41627
 C1224 C 0.20233 0.20081 0.42524
 N1225 N 0.18636 0.20469 0.42113
 N1226 N 0.17878 0.19699 0.40850
 C1227 C 0.21082 0.20949 0.43893
 N1228 N 0.20362 0.22283 0.44648
 N1229 N 0.21152 0.23092 0.45865
 C1230 C 0.22687 0.22592 0.46376
 N1231 N 0.23403 0.21253 0.45628
 N1232 N 0.22616 0.20449 0.44406
 C1233 C 0.32305 0.38512 0.67820
 N1234 N 0.33300 0.37469 0.68706
 N1235 N 0.33989 0.36142 0.67983
 C1236 C 0.33718 0.35807 0.66344
 N1237 N 0.32729 0.36862 0.65458
 N1238 N 0.32032 0.38184 0.66183
 C1239 C 0.31511 0.39950 0.68630
 N1240 N 0.30341 0.40863 0.67814
 N1241 N 0.29593 0.42142 0.68564
 C1242 C 0.29992 0.42560 0.70155
 N1243 N 0.31169 0.41653 0.70967
 N1244 N 0.31912 0.40369 0.70220
 C1245 C 0.29143 0.43946 0.70998
 N1246 N 0.29651 0.44462 0.72528
 N1247 N 0.28859 0.45695 0.73310
 C1248 C 0.27525 0.46453 0.72594
 N1249 N 0.27017 0.45939 0.71063
 N1250 N 0.27815 0.44711 0.70277
 C1251 C 0.32312 0.88521 0.17810
 N1252 N 0.33322 0.87484 0.18686
 N1253 N 0.34023 0.86169 0.17953
 C1254 C 0.33750 0.85842 0.16312
 N1255 N 0.32747 0.86892 0.15437
 N1256 N 0.32038 0.88202 0.16172
 C1257 C 0.31502 0.89944 0.18632
 N1258 N 0.30321 0.90848 0.17823
 N1259 N 0.29557 0.92113 0.18584
 C1260 C 0.29953 0.92523 0.20178
 N1261 N 0.31141 0.91625 0.20982
 N1262 N 0.31898 0.90355 0.20225
 C1263 C 0.29089 0.93894 0.21030
 N1264 N 0.29592 0.94405 0.22563
 N1265 N 0.28790 0.95627 0.23352
 C1266 C 0.27450 0.96378 0.22639
 N1267 N 0.26947 0.95869 0.21105
 N1268 N 0.27754 0.94652 0.20313
 C1269 C 0.82335 0.38652 0.17890
 N1270 N 0.83327 0.37606 0.18774
 N1271 N 0.84022 0.36284 0.18046
 C1272 C 0.83759 0.35960 0.16404
 N1273 N 0.82773 0.37018 0.15520
 N1274 N 0.82070 0.38335 0.16249
 C1275 C 0.81533 0.40082 0.18704
 N1276 N 0.80364 0.40996 0.17888
 N1277 N 0.79606 0.42267 0.18644
 C1278 C 0.79996 0.42676 0.20239
 N1279 N 0.81172 0.41769 0.21052
 N1280 N 0.81924 0.40492 0.20299
 C1281 C 0.79135 0.44052 0.21086
 N1282 N 0.79632 0.44562 0.22621
 N1283 N 0.78829 0.45787 0.23405
 C1284 C 0.77494 0.46540 0.22685
 N1285 N 0.76998 0.46031 0.21149
 N1286 N 0.77806 0.44811 0.20362
 C1287 C 0.82330 0.88638 0.67878
 N1288 N 0.83333 0.87601 0.68762
 N1289 N 0.84017 0.86270 0.68042
 C1290 C 0.83733 0.85925 0.66407
 N1291 N 0.82736 0.86973 0.65523
 N1292 N 0.82044 0.88300 0.66244
 C1293 C 0.81543 0.90081 0.68684
 N1294 N 0.80371 0.90992 0.67869
 N1295 N 0.79627 0.92276 0.68618
 C1296 C 0.80035 0.92701 0.70205
 N1297 N 0.81214 0.91796 0.71016
 N1298 N 0.81952 0.90508 0.70271
 C1299 C 0.79189 0.94091 0.71044
 N1300 N 0.79699 0.94611 0.72572
 N1301 N 0.78908 0.95848 0.73351
 C1302 C 0.77573 0.96603 0.72633
 N1303 N 0.77064 0.96084 0.71104
 N1304 N 0.77861 0.94853 0.70322
 C1305 C 0.67633 0.61364 0.67890
 N1306 N 0.66659 0.62417 0.68787
 N1307 N 0.65980 0.63754 0.68073
 C1308 C 0.66240 0.64088 0.66432
 N1309 N 0.67208 0.63024 0.65536
 N1310 N 0.67895 0.61691 0.66251
 C1311 C 0.68419 0.59916 0.68689
 N1312 N 0.69560 0.58986 0.67855
 N1313 N 0.70306 0.57699 0.68595
 C1314 C 0.69931 0.57290 0.70194
 N1315 N 0.68781 0.58214 0.71025
 N1316 N 0.68042 0.59505 0.70288
 C1317 C 0.70785 0.55899 0.71024
 N1318 N 0.70314 0.55398 0.72571
 N1319 N 0.71115 0.54162 0.73339
 C1320 C 0.72422 0.53388 0.72592
 N1321 N 0.72891 0.53887 0.71044
 N1322 N 0.72085 0.55117 0.70273
 C1323 C 0.67897 0.11395 0.17713
 N1324 N 0.68795 0.12447 0.16739
 N1325 N 0.68078 0.13777 0.16049
 C1326 C 0.66435 0.14106 0.16300
 N1327 N 0.65538 0.13043 0.17268
 N1328 N 0.66255 0.11717 0.17965
 C1329 C 0.68699 0.09955 0.18510
 N1330 N 0.67865 0.09029 0.19655
 N1331 N 0.68608 0.07748 0.20410
 C1332 C 0.70209 0.07342 0.20039
 N1333 N 0.71040 0.08261 0.18886
 N1334 N 0.70299 0.09547 0.18138
 C1335 C 0.71042 0.05956 0.20898
 N1336 N 0.72589 0.05457 0.20426
 N1337 N 0.73362 0.04225 0.21229
 C1338 C 0.72619 0.03453 0.22539
 N1339 N 0.71071 0.03950 0.23010
 N1340 N 0.70295 0.05177 0.22202
 C1341 C 0.17824 0.61507 0.17696
 N1342 N 0.18706 0.62555 0.16704
 N1343 N 0.17976 0.63875 0.16010
 C1344 C 0.16333 0.64197 0.16272
 N1345 N 0.15451 0.63139 0.17259
 N1346 N 0.16183 0.61823 0.17961
 C1347 C 0.18641 0.60076 0.18494
 N1348 N 0.17824 0.59153 0.19653
 N1349 N 0.18581 0.57879 0.20405
 C1350 C 0.20179 0.57477 0.20019
 N1351 N 0.20993 0.58394 0.18852
 N1352 N 0.20239 0.59672 0.18106
 C1353 C 0.21027 0.56097 0.20874
 N1354 N 0.22570 0.55599 0.20387
 N1355 N 0.23354 0.54371 0.21186
 C1356 C 0.22626 0.53603 0.22507
 N1357 N 0.21082 0.54100 0.22993
 N1358 N 0.20295 0.55322 0.22189
 C1359 C 0.17829 0.11442 0.67547
 N1360 N 0.18722 0.12479 0.66553
 N1361 N 0.18006 0.13808 0.65861
 C1362 C 0.16367 0.14151 0.66127
 N1363 N 0.15475 0.13102 0.67115
 N1364 N 0.16192 0.11777 0.67815
 C1365 C 0.18632 0.10004 0.68347
 N1366 N 0.17808 0.09096 0.69514
 N1367 N 0.18553 0.07819 0.70272
 C1368 C 0.20146 0.07398 0.69884
 N1369 N 0.20966 0.08299 0.68709
 N1370 N 0.20224 0.09581 0.67957
 C1371 C 0.20983 0.06017 0.70747
 N1372 N 0.22519 0.05500 0.70256
 N1373 N 0.23296 0.04273 0.71063
 C1374 C 0.22568 0.03523 0.72394
 N1375 N 0.21031 0.04039 0.72884
 N1376 N 0.20251 0.05260 0.72072
 C1377 C 0.32210 0.61524 0.32250
 N1378 N 0.31333 0.62566 0.33254
 N1379 N 0.32065 0.63886 0.33946
 C1380 C 0.33705 0.64215 0.33670
 N1381 N 0.34581 0.63162 0.32671
 N1382 N 0.33848 0.61846 0.31971
 C1383 C 0.31390 0.60093 0.31454
 N1384 N 0.32203 0.59173 0.30288
 N1385 N 0.31445 0.57899 0.29538
 C1386 C 0.29849 0.57493 0.29932
 N1387 N 0.29040 0.58407 0.31105
 N1388 N 0.29795 0.59686 0.31849
 C1389 C 0.29001 0.56113 0.29078
 N1390 N 0.27460 0.55612 0.29570
 N1391 N 0.26677 0.54383 0.28773
 C1392 C 0.27403 0.53614 0.27451
 N1393 N 0.28944 0.54113 0.26961
 N1394 N 0.29731 0.55337 0.27762
 C1395 C 0.32125 0.11430 0.82217
 N1396 N 0.31838 0.11753 0.83853
 N1397 N 0.32550 0.13058 0.84593
 C1398 C 0.33569 0.14099 0.83726
 N1399 N 0.33854 0.13769 0.82089
 N1400 N 0.33151 0.12459 0.81350
 C1401 C 0.31320 0.10009 0.81389
 N1402 N 0.31735 0.09593 0.79802
 N1403 N 0.30986 0.08323 0.79037
 C1404 C 0.29789 0.07426 0.79829
 N1405 N 0.29374 0.07840 0.81417
 N1406 N 0.30129 0.09106 0.82184
 C1407 C 0.28941 0.06050 0.78968
 N1408 N 0.27601 0.05287 0.79668
 N1409 N 0.26812 0.04063 0.78866
 C1410 C 0.27339 0.03554 0.77340
 N1411 N 0.28683 0.04312 0.76645
 N1412 N 0.29467 0.05540 0.77443
 C1413 C 0.82282 0.61281 0.82056
 N1414 N 0.83272 0.62331 0.81173
 N1415 N 0.83960 0.63655 0.81901
 C1416 C 0.83693 0.63980 0.83543
 N1417 N 0.82711 0.62919 0.84426
 N1418 N 0.82016 0.61598 0.83697
 C1419 C 0.81484 0.59848 0.81243
 N1420 N 0.80332 0.58923 0.82068
 N1421 N 0.79575 0.57650 0.81316
 C1422 C 0.79949 0.57250 0.79715
 N1423 N 0.81109 0.58168 0.78893
 N1424 N 0.81860 0.59446 0.79642
 C1425 C 0.79084 0.55872 0.78874
 N1426 N 0.79552 0.55375 0.77325
 N1427 N 0.78743 0.54148 0.76550
 C1428 C 0.77431 0.53379 0.77293
 N1429 N 0.76964 0.53874 0.78843
 N1430 N 0.77778 0.55095 0.79621
 C1431 C 0.82137 0.11410 0.32278
 N1432 N 0.81248 0.12458 0.33265
 N1433 N 0.81971 0.13783 0.33956
 C1434 C 0.83614 0.14112 0.33695
 N1435 N 0.84502 0.13053 0.32713
 N1436 N 0.83777 0.11731 0.32014
 C1437 C 0.81327 0.09972 0.31485
 N1438 N 0.82151 0.09045 0.30333
 N1439 N 0.81401 0.07765 0.29585
 C1440 C 0.79802 0.07361 0.29967
 N1441 N 0.78981 0.08283 0.31125
 N1442 N 0.79728 0.09567 0.31868
 C1443 C 0.78961 0.05975 0.29116
 N1444 N 0.77416 0.05480 0.29597
 N1445 N 0.76637 0.04246 0.28802
 C1446 C 0.77374 0.03468 0.27492
 N1447 N 0.78920 0.03961 0.27012
 N1448 N 0.79701 0.05190 0.27812
 C1449 C 0.67775 0.38597 0.32248
 N1450 N 0.66139 0.38267 0.31966
 N1451 N 0.65413 0.36946 0.32663
 C1452 C 0.66294 0.35897 0.33662
 N1453 N 0.67931 0.36234 0.33942
 N1454 N 0.68656 0.37559 0.33253
 C1455 C 0.68589 0.40032 0.31455
 N1456 N 0.70177 0.40451 0.31863
 N1457 N 0.70929 0.41732 0.31122
 C1458 C 0.70124 0.42635 0.29938
 N1459 N 0.68535 0.42217 0.29529
 N1460 N 0.67779 0.40941 0.30277
 C1461 C 0.70973 0.44019 0.29092
 N1462 N 0.70261 0.44785 0.27760
 N1463 N 0.71054 0.46012 0.26969
 C1464 C 0.72584 0.46522 0.27486
 N1465 N 0.73290 0.45762 0.28824
 N1466 N 0.72501 0.44530 0.29609
 C1467 C 0.67893 0.88686 0.82230
 N1468 N 0.68781 0.87641 0.83221
 N1469 N 0.68059 0.86317 0.83914
 C1470 C 0.66417 0.85987 0.83652
 N1471 N 0.65529 0.87044 0.82667
 N1472 N 0.66253 0.88364 0.81966
 C1473 C 0.68703 0.90120 0.81432
 N1474 N 0.67887 0.91033 0.80263
 N1475 N 0.68639 0.92309 0.79511
 C1476 C 0.70233 0.92723 0.79907
 N1477 N 0.71045 0.91816 0.81082
 N1478 N 0.70296 0.90535 0.81828
 C1479 C 0.71079 0.94106 0.79057
 N1480 N 0.72610 0.94616 0.79567
 N1481 N 0.73396 0.95847 0.78778
 C1482 C 0.72684 0.96608 0.77445
 N1483 N 0.71152 0.96101 0.76934
 N1484 N 0.70361 0.94874 0.77729
 C1485 C 0.17900 0.38553 0.82301
 N1486 N 0.16264 0.38222 0.82025
 N1487 N 0.15537 0.36906 0.82731
 C1488 C 0.16419 0.35862 0.83734
 N1489 N 0.18057 0.36200 0.84011
 N1490 N 0.18782 0.37521 0.83312
 C1491 C 0.18712 0.39982 0.81494
 N1492 N 0.20302 0.40405 0.81892
 N1493 N 0.21051 0.41680 0.81137
 C1494 C 0.20240 0.42575 0.79950
 N1495 N 0.18649 0.42153 0.79553
 N1496 N 0.17897 0.40882 0.80314
 C1497 C 0.21084 0.43954 0.79089
 N1498 N 0.20362 0.44709 0.77756
 N1499 N 0.21147 0.45933 0.76951
 C1500 C 0.22678 0.46451 0.77456
 N1501 N 0.23395 0.45701 0.78794
 N1502 N 0.22614 0.44473 0.79593
 C1503 C 0.17796 0.88472 0.32324
 N1504 N 0.16157 0.88149 0.32052
 N1505 N 0.15429 0.86830 0.32752
 C1506 C 0.16312 0.85777 0.33745
 N1507 N 0.17952 0.86108 0.34017
 N1508 N 0.18678 0.87431 0.33324
 C1509 C 0.18609 0.89903 0.31523
 N1510 N 0.20202 0.90319 0.31920
 N1511 N 0.20953 0.91596 0.31169
 C1512 C 0.20143 0.92498 0.29988
 N1513 N 0.18550 0.92083 0.29592
 N1514 N 0.17795 0.90811 0.30349
 C1515 C 0.20989 0.93876 0.29130
 N1516 N 0.20268 0.94636 0.27800
 N1517 N 0.21056 0.95859 0.26997
 C1518 C 0.22589 0.96371 0.27501
 N1519 N 0.23305 0.95618 0.28837
 N1520 N 0.22521 0.94390 0.29635
 C1521 C 0.38561 0.32052 0.67743
 N1522 N 0.37512 0.31175 0.66747
 N1523 N 0.36198 0.31912 0.66047
 C1524 C 0.35885 0.33557 0.66307
 N1525 N 0.36945 0.34434 0.67297
 N1526 N 0.38255 0.33695 0.68004
 C1527 C 0.39985 0.31228 0.68549
 N1528 N 0.40910 0.32047 0.69706
 N1529 N 0.42177 0.31287 0.70467
 C1530 C 0.42570 0.29683 0.70092
 N1531 N 0.41650 0.28868 0.68928
 N1532 N 0.40379 0.29625 0.68173
 C1533 C 0.43942 0.28835 0.70958
 N1534 N 0.44434 0.27285 0.70486
 N1535 N 0.45658 0.26503 0.71294
 C1536 C 0.46429 0.27241 0.72608
 N1537 N 0.45939 0.28791 0.73079
 N1538 N 0.44721 0.29575 0.72266
 C1539 C 0.38657 0.82146 0.17644
 N1540 N 0.37616 0.81262 0.16647
 N1541 N 0.36284 0.81983 0.15964
 C1542 C 0.35944 0.83620 0.16244
 N1543 N 0.36997 0.84505 0.17236
 N1544 N 0.38324 0.83781 0.17926
 C1545 C 0.40099 0.81338 0.18433
 N1546 N 0.41014 0.82155 0.19599
 N1547 N 0.42295 0.81405 0.20346
 C1548 C 0.42713 0.79814 0.19947
 N1549 N 0.41805 0.79000 0.18773
 N1550 N 0.40519 0.79747 0.18032
 C1551 C 0.44099 0.78972 0.20799
 N1552 N 0.44613 0.77438 0.20302
 N1553 N 0.45844 0.76658 0.21101
 C1554 C 0.46600 0.77382 0.22431
 N1555 N 0.46088 0.78917 0.22927
 N1556 N 0.44863 0.79700 0.22123
 C1557 C 0.88627 0.32236 0.17787
 N1558 N 0.88301 0.33873 0.18063
 N1559 N 0.86987 0.34604 0.17357
 C1560 C 0.85940 0.33726 0.16354
 N1561 N 0.86273 0.32087 0.16078
 N1562 N 0.87592 0.31358 0.16776
 C1563 C 0.90054 0.31419 0.18592
 N1564 N 0.90473 0.29829 0.18190
 N1565 N 0.91746 0.29074 0.18943
 C1566 C 0.92642 0.29878 0.20133
 N1567 N 0.92225 0.31468 0.20535
 N1568 N 0.90956 0.32227 0.19775
 C1569 C 0.94018 0.29027 0.20992
 N1570 N 0.94773 0.29738 0.22330
 N1571 N 0.95993 0.28945 0.23133
 C1572 C 0.96507 0.27416 0.22621
 N1573 N 0.95758 0.26709 0.21277
 N1574 N 0.94533 0.27498 0.20480
 C1575 C 0.88599 0.82192 0.67786
 N1576 N 0.88285 0.83833 0.68049
 N1577 N 0.86967 0.84564 0.67348
 C1578 C 0.85906 0.83681 0.66364
 N1579 N 0.86227 0.82038 0.66103
 N1580 N 0.87549 0.81308 0.66797
 C1581 C 0.90030 0.81375 0.68584
 N1582 N 0.90433 0.79777 0.68197
 N1583 N 0.91712 0.79023 0.68943
 C1584 C 0.92629 0.79836 0.70110
 N1585 N 0.92228 0.81435 0.70497
 N1586 N 0.90954 0.82192 0.69744
 C1587 C 0.94009 0.78988 0.70964
 N1588 N 0.94787 0.79716 0.72280
 N1589 N 0.96010 0.78926 0.73082
 C1590 C 0.96505 0.77383 0.72591
 N1591 N 0.95734 0.76660 0.71269
 N1592 N 0.94506 0.77446 0.70473
 C1593 C 0.61384 0.32288 0.32093
 N1594 N 0.61693 0.32021 0.33735
 N1595 N 0.63007 0.32721 0.34472
 C1596 C 0.64070 0.33708 0.33594
 N1597 N 0.63753 0.33973 0.31950
 N1598 N 0.62435 0.33280 0.31215
 C1599 C 0.59955 0.31490 0.31271
 N1600 N 0.59561 0.31871 0.29669
 N1601 N 0.58285 0.31123 0.28912
 C1602 C 0.57362 0.29961 0.29726
 N1603 N 0.57755 0.29582 0.31328
 N1604 N 0.59026 0.30336 0.32088
 C1605 C 0.55987 0.29100 0.28877
 N1606 N 0.55207 0.27793 0.29616
 N1607 N 0.53988 0.26983 0.28830
 C1608 C 0.53500 0.27455 0.27279
 N1609 N 0.54273 0.28769 0.26543
 N1610 N 0.55498 0.29574 0.27327
 C1611 C 0.61460 0.82413 0.82142
 N1612 N 0.62503 0.83404 0.81252
 N1613 N 0.63836 0.84087 0.81970
 C1614 C 0.64176 0.83814 0.83608
 N1615 N 0.63122 0.82829 0.84497
 N1616 N 0.61793 0.82138 0.83778
 C1617 C 0.60017 0.81623 0.81337
 N1618 N 0.59102 0.80460 0.82159
 N1619 N 0.57820 0.79713 0.81412
 C1620 C 0.57401 0.80107 0.79820
 N1621 N 0.58309 0.81277 0.79002
 N1622 N 0.59597 0.82019 0.79746
 C1623 C 0.56014 0.79253 0.78983
 N1624 N 0.55498 0.79749 0.77448
 N1625 N 0.54265 0.78950 0.76672
 C1626 C 0.53508 0.77622 0.77399
 N1627 N 0.54022 0.77128 0.78935
 N1628 N 0.55250 0.77932 0.79714
 C1629 C 0.11498 0.32253 0.82191
 N1630 N 0.11809 0.31997 0.83835
 N1631 N 0.13125 0.32699 0.84565
 C1632 C 0.14189 0.33678 0.83680
 N1633 N 0.13871 0.33933 0.82035
 N1634 N 0.12550 0.33238 0.81306
 C1635 C 0.10067 0.31453 0.81375
 N1636 N 0.09666 0.31839 0.79776
 N1637 N 0.08388 0.31093 0.79022
 C1638 C 0.07470 0.29926 0.79835
 N1639 N 0.07871 0.29541 0.81434
 N1640 N 0.09144 0.30294 0.82192
 C1641 C 0.06090 0.29075 0.78985
 N1642 N 0.05309 0.27759 0.79708
 N1643 N 0.04085 0.26963 0.78915
 C1644 C 0.03592 0.27460 0.77374
 N1645 N 0.04366 0.28783 0.76655
 N1646 N 0.05595 0.29573 0.77445
 C1647 C 0.11379 0.82191 0.32194
 N1648 N 0.12427 0.83185 0.31314
 N1649 N 0.13753 0.83870 0.32044
 C1650 C 0.14080 0.83595 0.33684
 N1651 N 0.13022 0.82605 0.34563
 N1652 N 0.11700 0.81913 0.33832
 C1653 C 0.09941 0.81406 0.31376
 N1654 N 0.09014 0.80245 0.32188
 N1655 N 0.07734 0.79506 0.31430
 C1656 C 0.07328 0.79908 0.29836
 N1657 N 0.08249 0.81076 0.29028
 N1658 N 0.09534 0.81809 0.29783
 C1659 C 0.05941 0.79067 0.28986
 N1660 N 0.05444 0.79570 0.27447
 N1661 N 0.04211 0.78785 0.26658
 C1662 C 0.03436 0.77463 0.27376
 N1663 N 0.03930 0.76961 0.28915
 N1664 N 0.05158 0.77752 0.29707
 C1665 C 0.61399 0.67841 0.67834
 N1666 N 0.61718 0.66202 0.68108
 N1667 N 0.63029 0.65467 0.67401
 C1668 C 0.64080 0.66343 0.66400
 N1669 N 0.63754 0.67984 0.66128
 N1670 N 0.62438 0.68717 0.66827
 C1671 C 0.59973 0.68663 0.68637
 N1672 N 0.59560 0.70253 0.68231
 N1673 N 0.58286 0.71013 0.68978
 C1674 C 0.57384 0.70213 0.70166
 N1675 N 0.57796 0.68622 0.70572
 N1676 N 0.59065 0.67859 0.69818
 C1677 C 0.56006 0.71069 0.71015
 N1678 N 0.55242 0.70364 0.72351
 N1679 N 0.54018 0.71163 0.73143
 C1680 C 0.53510 0.72692 0.72622
 N1681 N 0.54269 0.73391 0.71281
 N1682 N 0.55497 0.72596 0.70495
 C1683 C 0.61491 0.17691 0.17821
 N1684 N 0.61822 0.17967 0.16185
 N1685 N 0.63149 0.17277 0.15463
 C1686 C 0.64205 0.16290 0.16350
 N1687 N 0.63867 0.16016 0.17988
 N1688 N 0.62536 0.16699 0.18708
 C1689 C 0.60047 0.18478 0.18627
 N1690 N 0.59635 0.18090 0.20222
 N1691 N 0.58346 0.18828 0.20965
 C1692 C 0.57426 0.19988 0.20143
 N1693 N 0.57837 0.20374 0.18547
 N1694 N 0.59121 0.19630 0.17801
 C1695 C 0.56036 0.20838 0.20979
 N1696 N 0.55254 0.22142 0.20234
 N1697 N 0.54023 0.22944 0.21008
 C1698 C 0.53523 0.22467 0.22553
 N1699 N 0.54297 0.21157 0.23295
 N1700 N 0.55534 0.20359 0.22523
 C1701 C 0.11391 0.67794 0.17787
 N1702 N 0.11720 0.68067 0.16150
 N1703 N 0.13042 0.67367 0.15426
 C1704 C 0.14093 0.66374 0.16312
 N1705 N 0.13756 0.66102 0.17950
 N1706 N 0.12430 0.66795 0.18673
 C1707 C 0.09954 0.68590 0.18596
 N1708 N 0.09538 0.68196 0.20189
 N1709 N 0.08254 0.68940 0.20936
 C1710 C 0.07344 0.70112 0.20121
 N1711 N 0.07759 0.70506 0.18527
 N1712 N 0.09038 0.69756 0.17777
 C1713 C 0.05958 0.70963 0.20962
 N1714 N 0.05183 0.72280 0.20233
 N1715 N 0.03953 0.73077 0.21017
 C1716 C 0.03449 0.72581 0.22554
 N1717 N 0.04217 0.71258 0.23279
 N1718 N 0.05451 0.70466 0.22499
 C1719 C 0.11475 0.17797 0.67676
 N1720 N 0.11797 0.18068 0.66037
 N1721 N 0.13108 0.17356 0.65305
 C1722 C 0.14155 0.16353 0.66184
 N1723 N 0.13826 0.16084 0.67825
 N1724 N 0.12511 0.16788 0.68555
 C1725 C 0.10050 0.18604 0.68495
 N1726 N 0.09642 0.18209 0.70089
 N1727 N 0.08369 0.18961 0.70845
 C1728 C 0.07462 0.20142 0.70039
 N1729 N 0.07869 0.20536 0.68444
 N1730 N 0.09138 0.19778 0.67684
 C1731 C 0.06085 0.20997 0.70892
 N1732 N 0.05310 0.22319 0.70173
 N1733 N 0.04088 0.23117 0.70968
 C1734 C 0.03592 0.22615 0.72507
 N1735 N 0.04362 0.21287 0.73221
 N1736 N 0.05588 0.20495 0.72429
 C1737 C 0.38636 0.67824 0.32143
 N1738 N 0.38306 0.68101 0.33779
 N1739 N 0.36989 0.67396 0.34505
 C1740 C 0.35944 0.66394 0.33624
 N1741 N 0.36281 0.66119 0.31986
 N1742 N 0.37603 0.66816 0.31261
 C1743 C 0.40069 0.68625 0.31331
 N1744 N 0.40493 0.68218 0.29744
 N1745 N 0.41773 0.68964 0.28995
 C1746 C 0.42671 0.70151 0.29801
 N1747 N 0.42249 0.70558 0.31388
 N1748 N 0.40973 0.69806 0.32141
 C1749 C 0.44057 0.70997 0.28955
 N1750 N 0.44820 0.72332 0.29665
 N1751 N 0.46051 0.73121 0.28875
 C1752 C 0.46567 0.72598 0.27350
 N1753 N 0.45810 0.71259 0.26645
 N1754 N 0.44575 0.70475 0.27431
 C1755 C 0.38487 0.17778 0.82399
 N1756 N 0.37438 0.18670 0.83382
 N1757 N 0.36106 0.17951 0.84065
 C1758 C 0.35773 0.16310 0.83800
 N1759 N 0.36833 0.15419 0.82822
 N1760 N 0.38161 0.16140 0.82132
 C1761 C 0.39930 0.18583 0.81611
 N1762 N 0.40858 0.17755 0.80462
 N1763 N 0.42140 0.18502 0.79715
 C1764 C 0.42547 0.20100 0.80096
 N1765 N 0.41626 0.20925 0.81252
 N1766 N 0.40339 0.20181 0.81993
 C1767 C 0.43933 0.20937 0.79241
 N1768 N 0.44431 0.22483 0.79716
 N1769 N 0.45663 0.23258 0.78914
 C1770 C 0.46435 0.22517 0.77603
 N1771 N 0.45938 0.20969 0.77130
 N1772 N 0.44712 0.20192 0.77937
 C1773 C 0.88560 0.67725 0.82198
 N1774 N 0.88243 0.66087 0.81915
 N1775 N 0.86923 0.65351 0.82606
 C1776 C 0.85864 0.66225 0.83600
 N1777 N 0.86188 0.67865 0.83879
 N1778 N 0.87511 0.68599 0.83196
 C1779 C 0.89997 0.68546 0.81414
 N1780 N 0.90400 0.70140 0.81818
 N1781 N 0.91683 0.70898 0.81086
 C1782 C 0.92606 0.70093 0.79917
 N1783 N 0.92204 0.68499 0.79514
 N1784 N 0.90925 0.67738 0.80253
 C1785 C 0.93991 0.70946 0.79078
 N1786 N 0.94777 0.70225 0.77764
 N1787 N 0.96005 0.71018 0.76975
 C1788 C 0.96497 0.72558 0.77477
 N1789 N 0.95718 0.73275 0.78797
 N1790 N 0.94485 0.72485 0.79581
 C1791 C 0.88556 0.17715 0.32190
 N1792 N 0.87525 0.16708 0.31302
 N1793 N 0.86198 0.16014 0.32020
 C1794 C 0.85850 0.16292 0.33655
 N1795 N 0.86892 0.17293 0.34542
 N1796 N 0.88216 0.17994 0.33823
 C1797 C 0.89993 0.18515 0.31386
 N1798 N 0.90896 0.19689 0.32205
 N1799 N 0.92174 0.20445 0.31460
 C1800 C 0.92601 0.20047 0.29871
 N1801 N 0.91704 0.18865 0.29055
 N1802 N 0.90421 0.18116 0.29798
 C1803 C 0.93987 0.20903 0.29034
 N1804 N 0.94507 0.20402 0.27503
 N1805 N 0.95740 0.21200 0.26727
 C1806 C 0.96493 0.22533 0.27450
 N1807 N 0.95974 0.23033 0.28982
 N1808 N 0.94746 0.22230 0.29761
 C1809 C 0.32221 0.32232 0.61380
 N1810 N 0.31330 0.33231 0.62414
 N1811 N 0.32043 0.33914 0.63750
 C1812 C 0.33677 0.33632 0.64101
 N1813 N 0.34568 0.32639 0.63056
 N1814 N 0.33853 0.31948 0.61725
 C1815 C 0.31422 0.31444 0.59933
 N1816 N 0.32242 0.30273 0.59027
 N1817 N 0.31499 0.29529 0.57740
 C1818 C 0.29913 0.29936 0.57308
 N1819 N 0.29098 0.31114 0.58208
 N1820 N 0.29837 0.31852 0.59500
 C1821 C 0.29079 0.29090 0.55914
 N1822 N 0.27553 0.29603 0.55389
 N1823 N 0.26777 0.28814 0.54150
 C1824 C 0.27495 0.27480 0.53396
 N1825 N 0.29023 0.26968 0.53919
 N1826 N 0.29802 0.27762 0.55153
 C1827 C 0.32216 0.82255 0.11373
 N1828 N 0.31332 0.83244 0.12422
 N1829 N 0.32059 0.83934 0.13746
 C1830 C 0.33702 0.83669 0.14071
 N1831 N 0.34586 0.82685 0.13011
 N1832 N 0.33857 0.81988 0.11691
 C1833 C 0.31401 0.81460 0.09939
 N1834 N 0.32216 0.80294 0.09021
 N1835 N 0.31460 0.79544 0.07746
 C1836 C 0.29866 0.79940 0.07336
 N1837 N 0.29055 0.81113 0.08248
 N1838 N 0.29808 0.81857 0.09528
 C1839 C 0.29018 0.79089 0.05955
 N1840 N 0.27484 0.79594 0.05446
 N1841 N 0.26698 0.78801 0.04217
 C1842 C 0.27413 0.77468 0.03457
 N1843 N 0.28948 0.76964 0.03964
 N1844 N 0.29738 0.77762 0.05188
 C1845 C 0.82236 0.32378 0.11457
 N1846 N 0.81352 0.33376 0.12497
 N1847 N 0.82075 0.34062 0.13826
 C1848 C 0.83713 0.33786 0.14163
 N1849 N 0.84597 0.32794 0.13111
 N1850 N 0.83873 0.32100 0.11787
 C1851 C 0.81426 0.31585 0.10018
 N1852 N 0.82242 0.30415 0.09107
 N1853 N 0.81490 0.29665 0.07829
 C1854 C 0.79898 0.30065 0.07411
 N1855 N 0.79087 0.31243 0.08316
 N1856 N 0.79836 0.31987 0.09599
 C1857 C 0.79055 0.29211 0.06028
 N1858 N 0.77522 0.29713 0.05513
 N1859 N 0.76740 0.28915 0.04284
 C1860 C 0.77458 0.27580 0.03531
 N1861 N 0.78992 0.27079 0.04045
 N1862 N 0.79778 0.27883 0.05268
 C1863 C 0.82193 0.82302 0.61491
 N1864 N 0.83833 0.82037 0.61813
 N1865 N 0.84560 0.82743 0.63129
 C1866 C 0.83675 0.83735 0.64181
 N1867 N 0.82034 0.84000 0.63851
 N1868 N 0.81308 0.83301 0.62531
 C1869 C 0.81380 0.81494 0.60062
 N1870 N 0.79782 0.81876 0.59653
 N1871 N 0.79033 0.81118 0.58378
 C1872 C 0.79851 0.79946 0.57472
 N1873 N 0.81450 0.79566 0.57880
 N1874 N 0.82202 0.80329 0.59149
 C1875 C 0.79008 0.79080 0.56096
 N1876 N 0.79743 0.77763 0.55327
 N1877 N 0.78960 0.76952 0.54107
 C1878 C 0.77415 0.77433 0.53607
 N1879 N 0.76684 0.78756 0.54369
 N1880 N 0.77464 0.79562 0.55594
 C1881 C 0.32366 0.67890 0.38582
 N1882 N 0.32109 0.66250 0.38256
 N1883 N 0.32802 0.65534 0.36928
 C1884 C 0.33771 0.66431 0.35866
 N1885 N 0.34027 0.68073 0.36198
 N1886 N 0.33342 0.68788 0.37531
 C1887 C 0.31573 0.68690 0.40025
 N1888 N 0.31946 0.70289 0.40435
 N1889 N 0.31200 0.71028 0.41722
 C1890 C 0.30047 0.70196 0.42641
 N1891 N 0.29676 0.68596 0.42233
 N1892 N 0.30428 0.67855 0.40950
 C1893 C 0.29187 0.71027 0.44028
 N1894 N 0.27884 0.70276 0.44804
 N1895 N 0.27073 0.71048 0.46031
 C1896 C 0.27541 0.72596 0.46531
 N1897 N 0.28850 0.73343 0.45762
 N1898 N 0.29657 0.72574 0.44530
 C1899 C 0.32077 0.17691 0.88682
 N1900 N 0.33718 0.17948 0.88356
 N1901 N 0.34436 0.17245 0.87034
 C1902 C 0.33542 0.16264 0.85979
 N1903 N 0.31900 0.16008 0.86313
 N1904 N 0.31183 0.16703 0.87640
 C1905 C 0.31274 0.18494 0.90117
 N1906 N 0.29680 0.18107 0.90536
 N1907 N 0.28937 0.18858 0.91817
 C1908 C 0.29757 0.20031 0.92721
 N1909 N 0.31351 0.20418 0.92304
 N1910 N 0.32098 0.19660 0.91028
 C1911 C 0.28918 0.20887 0.94104
 N1912 N 0.29643 0.22212 0.94870
 N1913 N 0.28859 0.23013 0.96096
 C1914 C 0.27324 0.22512 0.96606
 N1915 N 0.26604 0.21182 0.95847
 N1916 N 0.27384 0.20387 0.94616
 C1917 C 0.82151 0.67563 0.88485
 N1918 N 0.83789 0.67835 0.88163
 N1919 N 0.84517 0.67140 0.86842
 C1920 C 0.83634 0.66154 0.85783
 N1921 N 0.81994 0.65882 0.86112
 N1922 N 0.81267 0.66569 0.87438
 C1923 C 0.81338 0.68360 0.89919
 N1924 N 0.79742 0.67971 0.90330
 N1925 N 0.78992 0.68721 0.91608
 C1926 C 0.79808 0.69894 0.92517
 N1927 N 0.81404 0.70282 0.92107
 N1928 N 0.82157 0.69525 0.90833
 C1929 C 0.78965 0.70756 0.93894
 N1930 N 0.79696 0.72079 0.94656
 N1931 N 0.78913 0.72890 0.95876
 C1932 C 0.77374 0.72402 0.96385
 N1933 N 0.76647 0.71073 0.95630
 N1934 N 0.77427 0.70267 0.94404
 C1935 C 0.82217 0.17826 0.38562
 N1936 N 0.81958 0.16185 0.38243
 N1937 N 0.82667 0.15458 0.36928
 C1938 C 0.83655 0.16345 0.35874
 N1939 N 0.83912 0.17988 0.36200
 N1940 N 0.83210 0.18713 0.37519
 C1941 C 0.81410 0.18639 0.39991
 N1942 N 0.81789 0.20238 0.40396
 N1943 N 0.81036 0.20987 0.41672
 C1944 C 0.79870 0.20168 0.42585
 N1945 N 0.79491 0.18568 0.42181
 N1946 N 0.80251 0.17816 0.40909
 C1947 C 0.79010 0.21012 0.43964
 N1948 N 0.77700 0.20277 0.44744
 N1949 N 0.76896 0.21062 0.45968
 C1950 C 0.77379 0.22608 0.46461
 N1951 N 0.78695 0.23339 0.45687
 N1952 N 0.79494 0.22557 0.44459
 C1953 C 0.67652 0.32189 0.38547
 N1954 N 0.66661 0.31302 0.37502
 N1955 N 0.65970 0.32025 0.36175
 C1956 C 0.66236 0.33665 0.35844
 N1957 N 0.67220 0.34552 0.36902
 N1958 N 0.67918 0.33828 0.38224
 C1959 C 0.68451 0.31379 0.39982
 N1960 N 0.69610 0.32201 0.40902
 N1961 N 0.70366 0.31450 0.42178
 C1962 C 0.69984 0.29852 0.42584
 N1963 N 0.68818 0.29033 0.41669
 N1964 N 0.68068 0.29781 0.40390
 C1965 C 0.70841 0.29009 0.43965
 N1966 N 0.70357 0.27465 0.44461
 N1967 N 0.71156 0.26683 0.45690
 C1968 C 0.72472 0.27414 0.46464
 N1969 N 0.72956 0.28959 0.45970
 N1970 N 0.72152 0.29744 0.44745
 C1971 C 0.67820 0.82230 0.88492
 N1972 N 0.66800 0.81361 0.87459
 N1973 N 0.66099 0.82100 0.86147
 C1974 C 0.66380 0.83738 0.85820
 N1975 N 0.67394 0.84607 0.86865
 N1976 N 0.68103 0.83867 0.88172
 C1977 C 0.68623 0.81402 0.89915
 N1978 N 0.69812 0.82199 0.90820
 N1979 N 0.70566 0.81431 0.92087
 C1980 C 0.70152 0.79842 0.92499
 N1981 N 0.68957 0.79050 0.91599
 N1982 N 0.68210 0.79814 0.90328
 C1983 C 0.71000 0.78981 0.93875
 N1984 N 0.70474 0.77455 0.94383
 N1985 N 0.71259 0.76657 0.95610
 C1986 C 0.72603 0.77351 0.96369
 N1987 N 0.73130 0.78878 0.95862
 N1988 N 0.72340 0.79680 0.94639
 C1989 C 0.17758 0.32150 0.88633
 N1990 N 0.16756 0.31270 0.87592
 N1991 N 0.16076 0.31994 0.86261
 C1992 C 0.16362 0.33630 0.85921
 N1993 N 0.17359 0.34510 0.86973
 N1994 N 0.18047 0.33784 0.88299
 C1995 C 0.18537 0.31338 0.90077
 N1996 N 0.19709 0.32146 0.90993
 N1997 N 0.20445 0.31393 0.92279
 C1998 C 0.20029 0.29807 0.92700
 N1999 N 0.18849 0.29003 0.91790
 N2000 N 0.18120 0.29753 0.90500
 C2001 C 0.20867 0.28961 0.94091
 N2002 N 0.20348 0.27434 0.94608
 N2003 N 0.21132 0.26649 0.95845
 C2004 C 0.22468 0.27358 0.96604
 N2005 N 0.22986 0.28885 0.96089
 N2006 N 0.22196 0.29674 0.94858
 C2007 C 0.17674 0.82058 0.38622
 N2008 N 0.16681 0.81173 0.37576
 N2009 N 0.15990 0.81900 0.36252
 C2010 C 0.16256 0.83541 0.35924
 N2011 N 0.17242 0.84425 0.36982
 N2012 N 0.17941 0.83698 0.38302
 C2013 C 0.18475 0.81246 0.40055
 N2014 N 0.19630 0.82071 0.40977
 N2015 N 0.20389 0.81320 0.42250
 C2016 C 0.20014 0.79719 0.42653
 N2017 N 0.18851 0.78897 0.41737
 N2018 N 0.18098 0.79646 0.40459
 C2019 C 0.20879 0.78880 0.44031
 N2020 N 0.20409 0.77332 0.44530
 N2021 N 0.21217 0.76557 0.45758
 C2022 C 0.22531 0.77299 0.46526
 N2023 N 0.23000 0.78848 0.46029
 N2024 N 0.22186 0.79625 0.44807
 C2025 C 0.67808 0.67705 0.61527
 N2026 N 0.68684 0.66698 0.62567
 N2027 N 0.67952 0.66005 0.63886
 C2028 C 0.66312 0.66284 0.64216
 N2029 N 0.65437 0.67285 0.63164
 N2030 N 0.66170 0.67985 0.61849
 C2031 C 0.68628 0.68503 0.60098
 N2032 N 0.67816 0.69671 0.59180
 N2033 N 0.68575 0.70423 0.57908
 C2034 C 0.70171 0.70029 0.57503
 N2035 N 0.70980 0.68854 0.58415
 N2036 N 0.70224 0.68108 0.59692
 C2037 C 0.71021 0.70882 0.56124
 N2038 N 0.72563 0.70390 0.55627
 N2039 N 0.73348 0.71184 0.54398
 C2040 C 0.72624 0.72505 0.53626
 N2041 N 0.71082 0.72996 0.54121
 N2042 N 0.70293 0.72197 0.55345
 C2043 C 0.67846 0.17849 0.11454
 N2044 N 0.66828 0.18724 0.12484
 N2045 N 0.66124 0.17992 0.13798
 C2046 C 0.66404 0.16354 0.14131
 N2047 N 0.67416 0.15479 0.13090
 N2048 N 0.68127 0.16213 0.11780
 C2049 C 0.68653 0.18669 0.10029
 N2050 N 0.69838 0.17863 0.09127
 N2051 N 0.70595 0.18622 0.07858
 C2052 C 0.70189 0.20212 0.07440
 N2053 N 0.68998 0.21014 0.08337
 N2054 N 0.68247 0.20258 0.09611
 C2055 C 0.71042 0.21064 0.06061
 N2056 N 0.70525 0.22591 0.05548
 N2057 N 0.71314 0.23380 0.04318
 C2058 C 0.72653 0.22674 0.03561
 N2059 N 0.73170 0.21145 0.04073
 N2060 N 0.72376 0.20352 0.05298
 C2061 C 0.17703 0.67878 0.11375
 N2062 N 0.16701 0.68768 0.12407
 N2063 N 0.16005 0.68052 0.13734
 C2064 C 0.16274 0.66414 0.14076
 N2065 N 0.17269 0.65524 0.13031
 N2066 N 0.17973 0.66242 0.11710
 C2067 C 0.18508 0.68682 0.09941
 N2068 N 0.19685 0.67861 0.09041
 N2069 N 0.20446 0.68607 0.07767
 C2070 C 0.20052 0.70198 0.07341
 N2071 N 0.18869 0.71014 0.08235
 N2072 N 0.18114 0.70271 0.09514
 C2073 C 0.20914 0.71035 0.05960
 N2074 N 0.20410 0.72565 0.05438
 N2075 N 0.21210 0.73343 0.04208
 C2076 C 0.22548 0.72624 0.03461
 N2077 N 0.23051 0.71094 0.03981
 N2078 N 0.22246 0.70312 0.05206
 C2079 C 0.17773 0.17859 0.61257
 N2080 N 0.18035 0.16220 0.61582
 N2081 N 0.17325 0.15497 0.62899
 C2082 C 0.16334 0.16386 0.63948
 N2083 N 0.16073 0.18027 0.63614
 N2084 N 0.16774 0.18748 0.62294
 C2085 C 0.18583 0.18668 0.59828
 N2086 N 0.18193 0.20261 0.59410
 N2087 N 0.18951 0.21009 0.58136
 C2088 C 0.20132 0.20194 0.57238
 N2089 N 0.20522 0.18600 0.57655
 N2090 N 0.19757 0.17849 0.58925
 C2091 C 0.20997 0.21037 0.55863
 N2092 N 0.22329 0.20315 0.55108
 N2093 N 0.23137 0.21101 0.53888
 C2094 C 0.22637 0.22634 0.53374
 N2095 N 0.21300 0.23352 0.54122
 N2096 N 0.20497 0.22570 0.55347
   
