data_POSCAR
  _audit_creation_date              2014-09-24
  _audit_creation_method            'ToBaCCo'
  _symmetry_space_group_name_H-M    'P1'
  _symmetry_Int_Tables_number       1
  _symmetry_cell_setting            triclinic
  loop_
  _symmetry_equiv_pos_as_xyz
 x,y,z
_cell_length_a 62.5077
_cell_length_b 62.6827
_cell_length_c 62.2368
_cell_angle_alpha 90.276600
_cell_angle_beta 90.340900
_cell_angle_gamma 90.684600
loop_
  _atom_site_label
  _atom_site_type_symbol
  _atom_site_fract_x
  _atom_site_fract_y
  _atom_site_fract_z
C1 C 0.72013 0.64809 0.96509
 H2 H 0.73520 0.64771 0.95664
 C3 C 0.70276 0.65903 0.95629
 H4 H 0.70461 0.66704 0.94103
 C5 C 0.69903 0.63703 0.99459
 H6 H 0.69734 0.62806 1.00924
 C7 C 0.68137 0.64776 0.98645
 H8 H 0.66653 0.64731 0.99533
 N9 N 0.71793 0.63727 0.98386
 C10 C 0.77986 0.62525 1.01355
 H11 H 0.77728 0.60844 1.01656
 C12 C 0.79814 0.63544 1.02155
 H13 H 0.80969 0.62630 1.03058
 C14 C 0.76772 0.65751 0.99822
 H15 H 0.75561 0.66604 0.98940
 C16 C 0.78601 0.66837 1.00584
 H17 H 0.78787 0.68530 1.00290
 Zn18 Zn 0.74051 0.62004 0.99422
 N19 N 0.76506 0.63631 1.00221
 C20 C 0.76844 0.59969 0.96559
 N21 N 0.74781 0.60034 0.97234
 C22 C 0.73227 0.58821 0.96269
 C23 C 0.73730 0.57478 0.94544
 C24 C 0.77418 0.58636 0.94868
 C25 C 0.72950 0.61906 1.03685
 C26 C 0.72287 0.61099 1.05651
 C27 C 0.72096 0.57586 1.04052
 C28 C 0.72773 0.58475 1.02105
 N29 N 0.73149 0.60606 1.01954
 H30 H 0.78049 0.60981 0.97298
 H31 H 0.71592 0.58928 0.96814
 H32 H 0.72479 0.56532 0.93777
 H33 H 0.79064 0.58639 0.94334
 H34 H 0.73319 0.63589 1.03533
 H35 H 0.72270 0.62218 1.06974
 H36 H 0.71717 0.55901 1.04041
 H37 H 0.72964 0.57464 1.00708
 C38 C 0.80132 0.65731 1.01794
 C39 C 0.68294 0.65867 0.96688
 C40 C 0.71792 0.58899 1.05891
 C41 C 0.75854 0.57377 0.93829
 C42 C 0.73361 0.32716 0.51113
 H43 H 0.74885 0.32491 0.51909
 C44 C 0.71541 0.31612 0.51830
 H45 H 0.71673 0.30541 0.53182
 C46 C 0.71299 0.34507 0.48491
 H47 H 0.71179 0.35689 0.47244
 C48 C 0.69451 0.33444 0.49151
 H49 H 0.67946 0.33787 0.48362
 N50 N 0.73204 0.34149 0.49486
 C51 C 0.79598 0.35539 0.47062
 H52 H 0.79528 0.37261 0.47156
 C53 C 0.81356 0.34570 0.46129
 H54 H 0.82656 0.35561 0.45542
 C55 C 0.77960 0.32172 0.47696
 H56 H 0.76607 0.31253 0.48267
 C57 C 0.79700 0.31130 0.46769
 H58 H 0.79675 0.29407 0.46635
 Zn59 Zn 0.75583 0.35919 0.48794
 N60 N 0.77944 0.34341 0.47817
 C61 C 0.78348 0.37545 0.52079
 N62 N 0.76317 0.37525 0.51281
 C63 C 0.74733 0.38627 0.52263
 C64 C 0.75172 0.39843 0.54104
 C65 C 0.78863 0.38760 0.53899
 C66 C 0.74322 0.36817 0.44608
 C67 C 0.73614 0.38040 0.42887
 C68 C 0.74132 0.41210 0.45064
 C69 C 0.74801 0.39920 0.46762
 N70 N 0.74830 0.37761 0.46519
 H71 H 0.79575 0.36620 0.51310
 H72 H 0.73127 0.38566 0.51606
 H73 H 0.73900 0.40732 0.54853
 H74 H 0.80488 0.38763 0.54512
 H75 H 0.74400 0.35100 0.44450
 H76 H 0.73146 0.37259 0.41397
 H77 H 0.74048 0.42921 0.45293
 H78 H 0.75260 0.40641 0.48278
 C79 C 0.81411 0.32339 0.45941
 C80 C 0.69545 0.32015 0.50875
 C81 C 0.73482 0.40261 0.43118
 C82 C 0.77265 0.39934 0.54930
 C83 C 0.22758 -0.15497 0.03345
 H84 H 0.24283 -0.15802 0.04107
 C85 C 0.20906 -0.16540 0.04071
 H86 H 0.21022 -0.17640 0.05401
 C87 C 0.20740 -0.13619 0.00754
 H88 H 0.20657 -0.12439 -0.00498
 C89 C 0.18859 -0.14624 0.01421
 H90 H 0.17371 -0.14247 0.00619
 N91 N 0.22645 -0.14080 0.01701
 C92 C 0.29174 -0.13393 -0.00708
 H93 H 0.29248 -0.11667 -0.00712
 C94 C 0.30933 -0.14557 -0.01379
 H95 H 0.32358 -0.13720 -0.01912
 C96 C 0.27195 -0.16573 -0.00057
 H97 H 0.25726 -0.17344 0.00440
 C98 C 0.28912 -0.17806 -0.00764
 H99 H 0.28763 -0.19529 -0.00792
 Zn100 Zn 0.25139 -0.12567 0.00815
 N101 N 0.27368 -0.14406 -0.00027
 C102 C 0.28031 -0.11180 0.04040
 N103 N 0.26086 -0.10813 0.03131
 C104 C 0.24795 -0.09254 0.03898
 C105 C 0.25486 -0.07936 0.05595
 C106 C 0.28788 -0.09897 0.05717
 C107 C 0.23796 -0.12096 -0.03369
 C108 C 0.23109 -0.11085 -0.05230
 C109 C 0.24038 -0.07695 -0.03597
 C110 C 0.24666 -0.08782 -0.01741
 N111 N 0.24478 -0.10940 -0.01645
 H112 H 0.28999 -0.12481 0.03482
 H113 H 0.23236 -0.09022 0.03178
 H114 H 0.24461 -0.06677 0.06165
 H115 H 0.30343 -0.10216 0.06414
 H116 H 0.23738 -0.13819 -0.03273
 H117 H 0.22622 -0.12100 -0.06558
 H118 H 0.24111 -0.05972 -0.03541
 H119 H 0.25264 -0.07894 -0.00367
 C120 C 0.30814 -0.16790 -0.01413
 C121 C 0.18918 -0.16099 0.03109
 C122 C 0.23158 -0.08832 -0.05377
 C123 C 0.27523 -0.08236 0.06500
 C124 C 0.22396 0.16285 0.49203
 H125 H 0.23937 0.17050 0.49439
 C126 C 0.20677 0.17475 0.48441
 H127 H 0.20912 0.19154 0.48101
 C128 C 0.20210 0.13173 0.49343
 H129 H 0.20055 0.11484 0.49668
 C130 C 0.18448 0.14304 0.48599
 H131 H 0.16942 0.13469 0.48337
 N132 N 0.22145 0.14162 0.49584
 C133 C 0.27620 0.14105 0.53230
 H134 H 0.26822 0.13138 0.54417
 C135 C 0.29416 0.15305 0.53835
 H136 H 0.29972 0.15245 0.55485
 C137 C 0.27939 0.15279 0.49632
 H138 H 0.27357 0.15241 0.47991
 C139 C 0.29760 0.16495 0.50166
 H140 H 0.30561 0.17414 0.48935
 Zn141 Zn 0.24479 0.12436 0.50384
 N142 N 0.26897 0.14134 0.51166
 C143 C 0.27101 0.09572 0.48145
 N144 N 0.25263 0.10705 0.48023
 C145 C 0.24093 0.10765 0.46175
 C146 C 0.24775 0.09685 0.44346
 C147 C 0.27852 0.08476 0.46344
 C148 C 0.22721 0.11849 0.54423
 C149 C 0.22125 0.10776 0.56285
 C150 C 0.23282 0.07479 0.54661
 C151 C 0.23867 0.08621 0.52825
 N152 N 0.23610 0.10772 0.52758
 H153 H 0.28021 0.09580 0.49623
 H154 H 0.22654 0.11695 0.46093
 H155 H 0.23820 0.09763 0.42892
 H156 H 0.29359 0.07650 0.46450
 H157 H 0.22511 0.13555 0.54313
 H158 H 0.21429 0.11667 0.57596
 H159 H 0.23542 0.05775 0.54714
 H160 H 0.24553 0.07794 0.51472
 C161 C 0.30506 0.16528 0.52298
 C162 C 0.18681 0.16474 0.48098
 C163 C 0.22428 0.08566 0.56433
 C164 C 0.26700 0.08554 0.44399
 C165 C 0.16685 0.48747 0.22939
 H166 H 0.16918 0.47978 0.24473
 C167 C 0.17715 0.47970 0.21113
 H168 H 0.18743 0.46599 0.21257
 C169 C 0.14929 0.51366 0.20861
 H170 H 0.13794 0.52646 0.20752
 C171 C 0.15918 0.50636 0.18998
 H172 H 0.15566 0.51397 0.17480
 N173 N 0.15303 0.50400 0.22777
 C174 C 0.14205 0.52698 0.29304
 H175 H 0.12474 0.52672 0.29260
 C176 C 0.15277 0.53319 0.31176
 H177 H 0.14363 0.53794 0.32568
 C178 C 0.17494 0.52113 0.27528
 H179 H 0.18345 0.51638 0.26101
 C180 C 0.18637 0.52754 0.29367
 H181 H 0.20369 0.52754 0.29351
 Zn182 Zn 0.13628 0.51110 0.25194
 N183 N 0.15317 0.52063 0.27547
 C184 C 0.12426 0.47749 0.27958
 N185 N 0.12098 0.48605 0.25981
 C186 C 0.10781 0.47630 0.24520
 C187 C 0.09673 0.45755 0.25055
 C188 C 0.11355 0.45887 0.28558
 C189 C 0.12668 0.55285 0.24094
 C190 C 0.11411 0.57016 0.23511
 C191 C 0.08270 0.54757 0.23822
 C192 C 0.09589 0.53070 0.24415
 N193 N 0.11749 0.53353 0.24495
 H194 H 0.13545 0.48484 0.29069
 H195 H 0.10588 0.48313 0.22939
 H196 H 0.08602 0.45019 0.23889
 H197 H 0.11657 0.45227 0.30134
 H198 H 0.14390 0.55469 0.24192
 H199 H 0.12180 0.58524 0.23135
 H200 H 0.06555 0.54502 0.23740
 H201 H 0.08883 0.51538 0.24791
 C202 C 0.17520 0.53330 0.31231
 C203 C 0.17296 0.48887 0.19102
 C204 C 0.09183 0.56756 0.23342
 C205 C 0.09942 0.44873 0.27108
 C206 C -0.15820 0.02444 0.22414
 H207 H -0.15773 0.03337 0.23905
 C208 C -0.17097 0.03139 0.20706
 H209 H -0.17977 0.04594 0.20938
 C210 C -0.14545 -0.00416 0.20311
 H211 H -0.13522 -0.01779 0.20137
 C212 C -0.15799 0.00211 0.18570
 H213 H -0.15768 -0.00780 0.17145
 N214 N -0.14559 0.00710 0.22180
 C215 C -0.12672 -0.01537 0.28518
 H216 H -0.10960 -0.01513 0.28273
 C217 C -0.13510 -0.02343 0.30419
 H218 H -0.12428 -0.02919 0.31646
 C219 C -0.16154 -0.00831 0.27189
 H220 H -0.17173 -0.00275 0.25904
 C221 C -0.17065 -0.01618 0.29082
 H222 H -0.18789 -0.01669 0.29243
 Zn223 Zn -0.12593 0.00026 0.24397
 N224 N -0.13992 -0.00816 0.26945
 C225 C -0.11117 0.03510 0.26868
 N226 N -0.10898 0.02493 0.24947
 C227 C -0.09640 0.03324 0.23374
 C228 C -0.08506 0.05234 0.23722
 C229 C -0.10048 0.05435 0.27267
 C230 C -0.12050 -0.04207 0.23370
 C231 C -0.11060 -0.06046 0.22635
 C232 C -0.07747 -0.04048 0.22339
 C233 C -0.08806 -0.02235 0.23090
 N234 N -0.10936 -0.02338 0.23531
 H235 H -0.12169 0.02862 0.28077
 H236 H -0.09544 0.02520 0.21836
 H237 H -0.07519 0.05889 0.22456
 H238 H -0.10253 0.06233 0.28799
 H239 H -0.13732 -0.04252 0.23771
 H240 H -0.11991 -0.07509 0.22497
 H241 H -0.06072 -0.03927 0.21918
 H242 H -0.07934 -0.00749 0.23279
 C243 C -0.15733 -0.02417 0.30711
 C244 C -0.17071 0.02053 0.18708
 C245 C -0.08893 -0.05973 0.22059
 C246 C -0.08731 0.06321 0.25682
 C247 C 0.34800 0.51304 0.73787
 H248 H 0.34840 0.52216 0.75267
 C249 C 0.33607 0.52027 0.72033
 H250 H 0.32739 0.53504 0.72179
 C251 C 0.36012 0.48353 0.71758
 H252 H 0.36984 0.46947 0.71635
 C253 C 0.34834 0.49008 0.69974
 H254 H 0.34884 0.48065 0.68514
 N255 N 0.35991 0.49511 0.73611
 C256 C 0.37490 0.46769 0.79831
 H257 H 0.39201 0.46625 0.79635
 C258 C 0.36501 0.45907 0.81634
 H259 H 0.37461 0.45106 0.82833
 C260 C 0.34162 0.47987 0.78496
 H261 H 0.33259 0.48780 0.77255
 C262 C 0.33108 0.47172 0.80298
 H263 H 0.31391 0.47334 0.80432
 Zn264 Zn 0.37851 0.48786 0.75900
 N265 N 0.36317 0.47776 0.78305
 C266 C 0.39305 0.52001 0.78736
 N267 N 0.39424 0.51272 0.76680
 C268 C 0.40486 0.52399 0.75146
 C269 C 0.41458 0.54361 0.75655
 C270 C 0.40240 0.53952 0.79309
 C271 C 0.38759 0.44590 0.74859
 C272 C 0.39955 0.42859 0.74165
 C273 C 0.43023 0.45214 0.73821
 C274 C 0.41771 0.46901 0.74549
 N275 N 0.39670 0.46566 0.75013
 H276 H 0.38430 0.51105 0.79926
 H277 H 0.40518 0.51805 0.73512
 H278 H 0.42243 0.55272 0.74407
 H279 H 0.40100 0.54520 0.80948
 H280 H 0.37087 0.44369 0.75247
 H281 H 0.39186 0.41309 0.73999
 H282 H 0.44684 0.45504 0.73423
 H283 H 0.42472 0.48476 0.74713
 C284 C 0.34284 0.46100 0.81881
 C285 C 0.33645 0.50892 0.70080
 C286 C 0.42107 0.43166 0.73611
 C287 C 0.41300 0.55175 0.77752
 C288 C 0.65580 0.97233 0.72401
 H289 H 0.65695 0.96463 0.73949
 C290 C 0.66723 0.96437 0.70650
 H291 H 0.67711 0.95047 0.70866
 C292 C 0.64052 0.99903 0.70214
 H293 H 0.62968 1.01218 0.70027
 C294 C 0.65166 0.99167 0.68430
 H295 H 0.64966 0.99970 0.66906
 N296 N 0.64270 0.98931 0.72152
 C297 C 0.62986 1.01429 0.78566
 H298 H 0.61259 1.01439 0.78435
 C299 C 0.63977 1.02112 0.80459
 H300 H 0.62968 1.02697 0.81733
 C301 C 0.66336 1.00753 0.76966
 H302 H 0.67242 1.00214 0.75596
 C303 C 0.67406 1.01476 0.78821
 H304 H 0.69135 1.01423 0.78850
 Zn305 Zn 0.62534 0.99799 0.74477
 N306 N 0.64163 1.00721 0.76887
 C307 C 0.60999 0.96619 0.77277
 N308 N 0.60776 0.97442 0.75271
 C309 C 0.59375 0.96558 0.73827
 C310 C 0.58065 0.94832 0.74419
 C311 C 0.59716 0.94919 0.77937
 C312 C 0.62021 1.03984 0.73233
 C313 C 0.60980 1.05834 0.72607
 C314 C 0.57601 1.03951 0.72919
 C315 C 0.58712 1.02128 0.73540
 N316 N 0.60886 1.02172 0.73652
 H317 H 0.62184 0.97264 0.78374
 H318 H 0.59264 0.97207 0.72223
 H319 H 0.56928 0.94168 0.73271
 H320 H 0.59917 0.94295 0.79544
 H321 H 0.63748 1.03977 0.73360
 H322 H 0.61925 1.07237 0.72220
 H323 H 0.55871 1.03894 0.72838
 H324 H 0.57836 1.00688 0.73933
 C325 C 0.66228 1.02142 0.80633
 C326 C 0.66501 0.97393 0.68623
 C327 C 0.58740 1.05834 0.72433
 C328 C 0.58207 0.94019 0.76512
 C329 C 0.01821 0.23380 -0.16321
 H330 H 0.02500 0.24973 -0.16411
 C331 C 0.02773 0.21703 -0.17437
 H332 H 0.04166 0.22026 -0.18413
 C333 C -0.00781 0.21017 -0.14885
 H334 H -0.02118 0.20732 -0.13831
 C335 C 0.00115 0.19298 -0.15974
 H336 H -0.00555 0.17715 -0.15745
 N337 N 0.00078 0.23011 -0.15073
 C338 C -0.02887 0.29194 -0.14020
 H339 H -0.03036 0.29123 -0.12291
 C340 C -0.03609 0.30976 -0.15126
 H341 H -0.04332 0.32267 -0.14238
 C342 C -0.01793 0.27569 -0.17274
 H343 H -0.01094 0.26231 -0.18102
 C344 C -0.02514 0.29319 -0.18450
 H345 H -0.02339 0.29327 -0.20180
 Zn346 Zn -0.00977 0.25282 -0.13376
 N347 N -0.01960 0.27557 -0.15094
 C348 C 0.02009 0.28297 -0.11719
 N349 N 0.01311 0.26239 -0.11593
 C350 C 0.02355 0.24794 -0.10360
 C351 C 0.04209 0.25392 -0.09225
 C352 C 0.03835 0.28965 -0.10599
 C353 C -0.05073 0.23673 -0.12901
 C354 C -0.06879 0.22867 -0.11873
 C355 C -0.05138 0.23551 -0.08460
 C356 C -0.03345 0.24312 -0.09569
 N357 N -0.03335 0.24322 -0.11750
 H358 H 0.01194 0.29418 -0.12737
 H359 H 0.01788 0.23157 -0.10318
 H360 H 0.05061 0.24201 -0.08315
 H361 H 0.04355 0.30613 -0.10727
 H362 H -0.05043 0.23764 -0.14636
 H363 H -0.08230 0.22441 -0.12884
 H364 H -0.05013 0.23482 -0.06730
 H365 H -0.01952 0.24869 -0.08684
 C366 C -0.03409 0.31064 -0.17368
 C367 C 0.01931 0.19624 -0.17253
 C368 C -0.06951 0.22749 -0.09601
 C369 C 0.04992 0.27497 -0.09368
 C370 C 0.47945 0.23915 0.15999
 H371 H 0.46994 0.25347 0.16008
 C372 C 0.47293 0.22144 0.17196
 H373 H 0.45830 0.22228 0.18112
 C374 C 0.50921 0.22029 0.14667
 H375 H 0.52304 0.21962 0.13640
 C376 C 0.50341 0.20231 0.15851
 H377 H 0.51326 0.18825 0.15756
 N378 N 0.49721 0.23823 0.14752
 C379 C 0.51889 0.30304 0.13350
 H380 H 0.51964 0.30183 0.11617
 C381 C 0.52514 0.32195 0.14377
 H382 H 0.53101 0.33514 0.13420
 C383 C 0.51082 0.28695 0.16691
 H384 H 0.50526 0.27324 0.17583
 C385 C 0.51691 0.30561 0.17787
 H386 H 0.51575 0.30613 0.19521
 Zn387 Zn 0.50332 0.26159 0.12922
 N388 N 0.51173 0.28611 0.14510
 C389 C 0.46832 0.28657 0.11666
 N390 N 0.47786 0.26739 0.11373
 C391 C 0.46823 0.25165 0.10189
 C392 C 0.44807 0.25487 0.09261
 C393 C 0.44821 0.29040 0.10782
 C394 C 0.54571 0.25259 0.12059
 C395 C 0.56353 0.24666 0.10871
 C396 C 0.54144 0.24617 0.07673
 C397 C 0.52396 0.25208 0.08929
 N398 N 0.52633 0.25474 0.11088
 H399 H 0.47589 0.29873 0.12650
 H400 H 0.47591 0.23636 0.10022
 H401 H 0.44035 0.24202 0.08369
 H402 H 0.44081 0.30570 0.11054
 H403 H 0.54717 0.25500 0.13777
 H404 H 0.57857 0.24425 0.11700
 H405 H 0.53925 0.24398 0.05959
 H406 H 0.50851 0.25430 0.08180
 C407 C 0.52411 0.32347 0.16625
 C408 C 0.48482 0.20255 0.17108
 C409 C 0.56153 0.24314 0.08648
 C410 C 0.43767 0.27433 0.09591
 C411 C 0.97660 0.72582 0.66568
 H412 H 0.96847 0.74096 0.66551
 C413 C 0.96711 0.70818 0.67569
 H414 H 0.95163 0.70993 0.68315
 C415 C 1.00588 0.70485 0.65470
 H416 H 1.02068 0.70334 0.64602
 C417 C 0.99709 0.68691 0.66463
 H418 H 1.00564 0.67200 0.66390
 N419 N 0.99552 0.72380 0.65522
 C420 C 1.02475 0.78639 0.64496
 H421 H 1.02783 0.78455 0.62797
 C422 C 1.03086 0.80515 0.65548
 H423 H 1.03895 0.81759 0.64652
 C424 C 1.01055 0.77218 0.67718
 H425 H 1.00253 0.75929 0.68546
 C426 C 1.01653 0.79076 0.68843
 H427 H 1.01294 0.79210 0.70538
 Zn428 Zn 1.00584 0.74696 0.63860
 N429 N 1.01445 0.77056 0.65575
 C430 C 0.97659 0.77593 0.62079
 N431 N 0.98341 0.75543 0.61996
 C432 C 0.97374 0.74079 0.60678
 C433 C 0.95673 0.74674 0.59344
 C434 C 0.95987 0.78257 0.60766
 C435 C 1.04817 0.73442 0.63435
 C436 C 1.06686 0.72832 0.62398
 C437 C 1.04847 0.73171 0.58993
 C438 C 1.03007 0.73769 0.60099
 N439 N 1.03018 0.73864 0.62282
 H440 H 0.98389 0.78722 0.63181
 H441 H 0.97920 0.72448 0.60671
 H442 H 0.94926 0.73499 0.58292
 H443 H 0.95460 0.79894 0.60873
 H444 H 1.04788 0.73560 0.65169
 H445 H 1.08078 0.72445 0.63355
 H446 H 1.04812 0.73113 0.57255
 H447 H 1.01578 0.74163 0.59209
 C448 C 1.02651 0.80766 0.67743
 C449 C 0.97720 0.68826 0.67489
 C450 C 1.06718 0.72681 0.60146
 C451 C 0.94975 0.76795 0.59370
 C452 C 0.52263 0.74322 0.35478
 H453 H 0.52992 0.75891 0.35354
 C454 C 0.53089 0.72616 0.34307
 H455 H 0.54436 0.72893 0.33255
 C456 C 0.49661 0.72049 0.37052
 H457 H 0.48376 0.71810 0.38179
 C458 C 0.50435 0.70301 0.35913
 H459 H 0.49724 0.68741 0.36176
 N460 N 0.50581 0.74012 0.36821
 C461 C 0.48077 0.80373 0.38037
 H462 H 0.48046 0.80325 0.39774
 C463 C 0.47428 0.82203 0.36963
 H464 H 0.46838 0.83508 0.37924
 C465 C 0.48781 0.78633 0.34740
 H466 H 0.49313 0.77237 0.33882
 C467 C 0.48124 0.80426 0.33593
 H468 H 0.48239 0.80370 0.31861
 Zn469 Zn 0.49722 0.76321 0.38582
 N470 N 0.48779 0.78654 0.36923
 C471 C 0.53056 0.79102 0.39908
 N472 N 0.52149 0.77149 0.40237
 C473 C 0.53091 0.75697 0.41546
 C474 C 0.55038 0.76183 0.42568
 C475 C 0.55000 0.79646 0.40883
 C476 C 0.45590 0.74886 0.39230
 C477 C 0.43846 0.74026 0.40320
 C478 C 0.45800 0.74482 0.43658
 C479 C 0.47525 0.75319 0.42496
 N480 N 0.47406 0.75446 0.40316
 H481 H 0.52325 0.80215 0.38819
 H482 H 0.52365 0.74135 0.41738
 H483 H 0.55803 0.74991 0.43553
 H484 H 0.55715 0.81195 0.40569
 H485 H 0.45533 0.75037 0.37500
 H486 H 0.42437 0.73526 0.39421
 H487 H 0.45936 0.74312 0.45384
 H488 H 0.48968 0.75815 0.43330
 C489 C 0.47459 0.82279 0.34696
 C490 C 0.52189 0.70565 0.34538
 C491 C 0.43957 0.73772 0.42555
 C492 C 0.56035 0.78165 0.42199
 Si493 Si 0.37959 0.01124 0.25357
 Si494 Si 0.12861 1.00200 0.75907
 Si495 Si 0.62438 0.51443 0.25924
 Si496 Si 0.85825 0.49752 0.74280
 Si497 Si 0.24428 0.36225 0.00762
 Si498 Si 0.74257 0.12766 0.99944
 Si499 Si 0.25560 0.62302 0.51421
 Si500 Si 0.76259 0.86951 0.50056
 Si501 Si 0.00928 0.24962 0.35502
 Si502 Si 0.99438 0.74562 0.12146
 Si503 Si 0.50217 0.24759 0.61947
 Si504 Si 0.49204 0.75250 0.86890
 C505 C 0.45496 -0.12105 0.31410
 C506 C 0.45359 -0.14108 0.30395
 C507 C 0.46031 -0.15949 0.31453
 C508 C 0.46840 -0.15849 0.33578
 C509 C 0.47001 -0.13817 0.34566
 C510 C 0.46348 -0.11981 0.33497
 C511 C 0.44690 -0.10165 0.30334
 N512 N 0.44998 -0.08206 0.31235
 N513 N 0.44181 -0.06473 0.30330
 C514 C 0.43017 -0.06625 0.28485
 N515 N 0.42728 -0.08581 0.27570
 N516 N 0.43550 -0.10313 0.28473
 C517 C 0.41973 -0.04720 0.27566
 C518 C 0.40456 -0.04943 0.25901
 C519 C 0.39313 -0.03182 0.25179
 C520 C 0.39678 -0.01163 0.26095
 C521 C 0.41253 -0.00910 0.27689
 C522 C 0.42387 -0.02674 0.28426
 H523 H 0.44705 -0.14262 0.28786
 H524 H 0.45808 -0.17454 0.30622
 H525 H 0.47697 -0.13608 0.36148
 H526 H 0.46494 -0.10462 0.34323
 H527 H 0.40095 -0.06492 0.25202
 H528 H 0.38097 -0.03423 0.23955
 H529 H 0.41553 0.00640 0.28415
 H530 H 0.43553 -0.02441 0.29702
 C531 C 0.94251 0.36619 0.79366
 C532 C 0.93844 0.34566 0.78524
 C533 C 0.94649 0.32760 0.79550
 C534 C 0.95861 0.32971 0.81448
 C535 C 0.96313 0.35024 0.82259
 C536 C 0.95524 0.36827 0.81227
 C537 C 0.93276 0.38526 0.78377
 N538 N 0.93775 0.40516 0.79114
 N539 N 0.92806 0.42223 0.78319
 C540 C 0.91293 0.42015 0.76754
 N541 N 0.90812 0.40027 0.75999
 N542 N 0.91784 0.38320 0.76792
 C543 C 0.90102 0.43898 0.75985
 C544 C 0.88323 0.43640 0.74612
 C545 C 0.87084 0.45391 0.74041
 C546 C 0.87593 0.47434 0.74832
 C547 C 0.89429 0.47715 0.76112
 C548 C 0.90665 0.45964 0.76695
 H549 H 0.92875 0.34348 0.77090
 H550 H 0.94268 0.31196 0.78897
 H551 H 0.97270 0.35234 0.83702
 H552 H 0.95876 0.38381 0.81918
 H553 H 0.87851 0.42077 0.74018
 H554 H 0.85710 0.45119 0.73016
 H555 H 0.89897 0.49286 0.76686
 H556 H 0.92043 0.46228 0.77729
 C557 C 0.05062 1.14109 0.80127
 C558 C 0.06264 1.15832 0.80975
 C559 C 0.05249 1.17644 0.81767
 C560 C 0.03008 1.17779 0.81731
 C561 C 0.01807 1.16085 0.80829
 C562 C 0.02822 1.14271 0.80034
 C563 C 0.06142 1.12133 0.79420
 N564 N 0.05004 1.10453 0.78600
 N565 N 0.05977 1.08654 0.78039
 C566 C 0.08128 1.08460 0.78280
 N567 N 0.09263 1.10145 0.79088
 N568 N 0.08292 1.11940 0.79646
 C569 C 0.09223 1.06452 0.77704
 C570 C 0.11419 1.06232 0.78131
 C571 C 0.12468 1.04353 0.77602
 C572 C 0.11360 1.02657 0.76608
 C573 C 0.09157 1.02843 0.76221
 C574 C 0.08098 1.04728 0.76756
 H575 H 0.07992 1.15766 0.81070
 H576 H 0.06220 1.18908 0.82475
 H577 H 0.00078 1.16154 0.80755
 H578 H 0.01847 1.12981 0.79381
 H579 H 0.12334 1.07507 0.78892
 H580 H 0.14145 1.04220 0.78008
 H581 H 0.08245 1.01543 0.75514
 H582 H 0.06400 1.04833 0.76426
 C583 C 0.55015 0.64987 0.31694
 C584 C 0.52779 0.65198 0.31749
 C585 C 0.51858 0.67027 0.32628
 C586 C 0.53152 0.68687 0.33465
 C587 C 0.55386 0.68493 0.33368
 C588 C 0.56305 0.66668 0.32494
 C589 C 0.56008 0.63014 0.30858
 N590 N 0.58165 0.62795 0.30914
 N591 N 0.59072 0.61018 0.30206
 C592 C 0.57866 0.59377 0.29411
 N593 N 0.55705 0.59594 0.29348
 N594 N 0.54796 0.61375 0.30060
 C595 C 0.58906 0.57410 0.28624
 C596 C 0.57707 0.55725 0.27688
 C597 C 0.58730 0.53905 0.26900
 C598 C 0.60961 0.53753 0.27031
 C599 C 0.62150 0.55402 0.28006
 C600 C 0.61139 0.57212 0.28788
 H601 H 0.51737 0.63940 0.31139
 H602 H 0.50131 0.67141 0.32658
 H603 H 0.56428 0.69726 0.34028
 H604 H 0.58033 0.66564 0.32478
 H605 H 0.55984 0.55821 0.27547
 H606 H 0.57781 0.52638 0.26173
 H607 H 0.63876 0.55305 0.28133
 H608 H 0.62116 0.58464 0.29508
 C609 C 0.54563 0.38148 0.19760
 C610 C 0.53350 0.38228 0.17854
 C611 C 0.52620 0.36350 0.16859
 C612 C 0.53090 0.34346 0.17742
 C613 C 0.54265 0.34268 0.19670
 C614 C 0.54991 0.36145 0.20667
 C615 C 0.55444 0.40127 0.20760
 N616 N 0.56611 0.40030 0.22602
 N617 N 0.57492 0.41783 0.23456
 C618 C 0.57247 0.43714 0.22510
 N619 N 0.56060 0.43819 0.20678
 N620 N 0.55176 0.42061 0.19822
 C621 C 0.58346 0.45631 0.23413
 C622 C 0.58120 0.47656 0.22473
 C623 C 0.59285 0.49417 0.23270
 C624 C 0.60687 0.49182 0.25017
 C625 C 0.60891 0.47172 0.25969
 C626 C 0.59725 0.45423 0.25188
 H627 H 0.52979 0.39742 0.17117
 H628 H 0.51687 0.36466 0.15394
 H629 H 0.54676 0.32753 0.20380
 H630 H 0.55923 0.36020 0.22132
 H631 H 0.57075 0.47872 0.21100
 H632 H 0.59129 0.50950 0.22494
 H633 H 0.61992 0.46914 0.27283
 H634 H 0.59953 0.43893 0.25950
 C635 C 0.04671 0.86659 0.70764
 C636 C 0.04945 0.84702 0.71826
 C637 C 0.04233 0.82789 0.70880
 C638 C 0.03242 0.82794 0.68848
 C639 C 0.02902 0.84754 0.67823
 C640 C 0.03605 0.86663 0.68769
 C641 C 0.05582 0.88669 0.71670
 N642 N 0.05348 0.90548 0.70620
 N643 N 0.06276 0.92332 0.71360
 C644 C 0.07481 0.92312 0.73183
 N645 N 0.07693 0.90437 0.74247
 N646 N 0.06764 0.88655 0.73507
 C647 C 0.08633 0.94262 0.73934
 C648 C 0.10034 0.94170 0.75705
 C649 C 0.11247 0.95955 0.76323
 C650 C 0.11073 0.97883 0.75203
 C651 C 0.09649 0.97997 0.73459
 C652 C 0.08437 0.96206 0.72830
 H653 H 0.05753 0.84639 0.73367
 H654 H 0.04523 0.81301 0.71702
 H655 H 0.02108 0.84810 0.66273
 H656 H 0.03351 0.88137 0.67911
 H657 H 0.10238 0.92701 0.76586
 H658 H 0.12362 0.95790 0.77642
 H659 H 0.09522 0.99453 0.72541
 H660 H 0.07382 0.96334 0.71452
 C661 C 0.94575 0.63160 0.69907
 C662 C 0.94413 0.65112 0.71015
 C663 C 0.95447 0.66949 0.70250
 C664 C 0.96661 0.66875 0.68356
 C665 C 0.96821 0.64920 0.67254
 C666 C 0.95800 0.63087 0.68023
 C667 C 0.93443 0.61215 0.70674
 N668 N 0.93767 0.59298 0.69711
 N669 N 0.92711 0.57559 0.70351
 C670 C 0.91281 0.57660 0.71982
 N671 N 0.90965 0.59575 0.72955
 N672 N 0.92026 0.61315 0.72317
 C673 C 0.90045 0.55735 0.72632
 C674 C 0.88374 0.55891 0.74126
 C675 C 0.87136 0.54098 0.74650
 C676 C 0.87551 0.52116 0.73698
 C677 C 0.89246 0.51938 0.72249
 C678 C 0.90479 0.53731 0.71715
 H679 H 0.93488 0.65224 0.72476
 H680 H 0.95309 0.68423 0.71149
 H681 H 0.97701 0.64810 0.65766
 H682 H 0.95947 0.61617 0.67118
 H683 H 0.87993 0.57407 0.74863
 H684 H 0.85830 0.54278 0.75768
 H685 H 0.89591 0.50417 0.71503
 H686 H 0.91759 0.53547 0.70566
 C687 C 0.46136 0.14551 0.20217
 C688 C 0.47185 0.14434 0.18230
 C689 C 0.47962 0.16279 0.17241
 C690 C 0.47730 0.18289 0.18220
 C691 C 0.46718 0.18402 0.20229
 C692 C 0.45924 0.16555 0.21214
 C693 C 0.45203 0.12600 0.21195
 N694 N 0.43857 0.12733 0.22895
 N695 N 0.42928 0.10987 0.23695
 C696 C 0.43313 0.09033 0.22835
 N697 N 0.44679 0.08898 0.21153
 N698 N 0.45603 0.10644 0.20350
 C699 C 0.42169 0.07106 0.23625
 C700 C 0.42686 0.05068 0.22845
 C701 C 0.41481 0.03277 0.23446
 C702 C 0.39715 0.03489 0.24804
 C703 C 0.39273 0.05500 0.25683
 C704 C 0.40482 0.07292 0.25096
 H705 H 0.47364 0.12921 0.17409
 H706 H 0.48694 0.16132 0.15676
 H707 H 0.46539 0.19919 0.21043
 H708 H 0.45136 0.16700 0.22751
 H709 H 0.44004 0.04858 0.21746
 H710 H 0.41928 0.01729 0.22832
 H711 H 0.37975 0.05715 0.26793
 H712 H 0.40056 0.08831 0.25752
 C713 C 0.31298 0.43324 -0.12568
 C714 C 0.32726 0.42141 -0.13823
 C715 C 0.33684 0.43045 -0.15627
 C716 C 0.33214 0.45142 -0.16234
 C717 C 0.31761 0.46320 -0.15007
 C718 C 0.30824 0.45424 -0.13178
 C719 C 0.30319 0.42357 -0.10638
 N720 N 0.29419 0.43587 -0.09091
 N721 N 0.28564 0.42701 -0.07346
 C722 C 0.28563 0.40549 -0.07087
 N723 N 0.29458 0.39324 -0.08637
 N724 N 0.30323 0.40209 -0.10371
 C725 C 0.27593 0.39543 -0.05173
 C726 C 0.27050 0.37363 -0.05212
 C727 C 0.26118 0.36399 -0.03429
 C728 C 0.25757 0.37573 -0.01547
 C729 C 0.26273 0.39757 -0.01503
 C730 C 0.27183 0.40736 -0.03304
 H731 H 0.33127 0.40521 -0.13397
 H732 H 0.34786 0.42100 -0.16559
 H733 H 0.31385 0.47945 -0.15439
 H734 H 0.29722 0.46372 -0.12249
 H735 H 0.27303 0.36407 -0.06640
 H736 H 0.25629 0.34741 -0.03550
 H737 H 0.25960 0.40718 -0.00098
 H738 H 0.27574 0.42423 -0.03229
 C739 C 0.81784 0.94683 0.36460
 C740 C 0.83437 0.93725 0.35291
 C741 C 0.84219 0.94664 0.33424
 C742 C 0.83367 0.96583 0.32667
 C743 C 0.81691 0.97533 0.33808
 C744 C 0.80914 0.96598 0.35695
 C745 C 0.80994 0.93667 0.38456
 N746 N 0.79600 0.94673 0.39778
 N747 N 0.78914 0.93737 0.41572
 C748 C 0.79592 0.91757 0.42114
 N749 N 0.80983 0.90759 0.40791
 N750 N 0.81670 0.91694 0.39007
 C751 C 0.78816 0.90669 0.44078
 C752 C 0.79271 0.88502 0.44396
 C753 C 0.78516 0.87436 0.46202
 C754 C 0.77300 0.88507 0.47739
 C755 C 0.76869 0.90678 0.47464
 C756 C 0.77612 0.91752 0.45637
 H757 H 0.84143 0.92248 0.35823
 H758 H 0.85488 0.93878 0.32561
 H759 H 0.81012 0.99018 0.33262
 H760 H 0.79634 0.97372 0.36552
 H761 H 0.80189 0.87613 0.43233
 H762 H 0.78863 0.85757 0.46384
 H763 H 0.75941 0.91538 0.48638
 H764 H 0.77244 0.93424 0.45446
 C765 C 0.79684 0.04522 1.13205
 C766 C 0.81413 0.03136 1.12975
 C767 C 0.82450 0.02306 1.14772
 C768 C 0.81794 0.02827 1.16880
 C769 C 0.80020 0.04192 1.17093
 C770 C 0.78985 0.05022 1.15285
 C771 C 0.78679 0.05492 1.11281
 N772 N 0.77057 0.06903 1.11474
 N773 N 0.76233 0.07844 1.09745
 C774 C 0.76997 0.07415 1.07750
 N775 N 0.78603 0.05989 1.07559
 N776 N 0.79424 0.05048 1.09285
 C777 C 0.76182 0.08558 1.05836
 C778 C 0.77133 0.08256 1.03816
 C779 C 0.76493 0.09460 1.02048
 C780 C 0.74894 0.10993 1.02257
 C781 C 0.73865 0.11225 1.04240
 C782 C 0.74509 0.10028 1.06016
 H783 H 0.82009 0.02724 1.11398
 H784 H 0.83841 0.01346 1.14471
 H785 H 0.79376 0.04593 1.18648
 H786 H 0.77642 0.06070 1.15522
 H787 H 0.78410 0.07122 1.03607
 H788 H 0.77277 0.09208 1.00527
 H789 H 0.72585 0.12349 1.04440
 H790 H 0.73720 0.10282 1.07538
 C791 C 0.30633 0.53483 0.64419
 C792 C 0.32600 0.52429 0.64283
 C793 C 0.33554 0.51570 0.66113
 C794 C 0.32564 0.51730 0.68128
 C795 C 0.30579 0.52753 0.68263
 C796 C 0.29624 0.53621 0.66429
 C797 C 0.29693 0.54496 0.62488
 N798 N 0.27900 0.55692 0.62629
 N799 N 0.27126 0.56687 0.60909
 C800 C 0.28109 0.56526 0.58974
 N801 N 0.29886 0.55310 0.58830
 N802 N 0.30660 0.54317 0.60548
 C803 C 0.27341 0.57748 0.57091
 C804 C 0.28419 0.57631 0.55117
 C805 C 0.27821 0.58927 0.53401
 C806 C 0.26146 0.60375 0.53621
 C807 C 0.24990 0.60413 0.55546
 C808 C 0.25586 0.59119 0.57268
 H809 H 0.33431 0.52300 0.62767
 H810 H 0.35102 0.50830 0.65954
 H811 H 0.29761 0.52881 0.69786
 H812 H 0.28105 0.54415 0.66591
 H813 H 0.29758 0.56572 0.54909
 H814 H 0.28699 0.58813 0.51918
 H815 H 0.23648 0.61462 0.55749
 H816 H 0.24699 0.59230 0.58752
 C817 C 0.20613 0.55333 0.37108
 C818 C 0.18967 0.53787 0.37129
 C819 C 0.17995 0.53109 0.35214
 C820 C 0.18665 0.53942 0.33234
 C821 C 0.20364 0.55426 0.33200
 C822 C 0.21320 0.56125 0.35120
 C823 C 0.21506 0.56190 0.39151
 N824 N 0.22664 0.58036 0.39178
 N825 N 0.23357 0.58880 0.41025
 C826 C 0.22929 0.57912 0.42925
 N827 N 0.21796 0.56050 0.42899
 N828 N 0.21093 0.55210 0.41051
 C829 C 0.23609 0.58918 0.44981
 C830 C 0.23591 0.57759 0.46914
 C831 C 0.24191 0.58746 0.48854
 C832 C 0.24790 0.60906 0.48887
 C833 C 0.24802 0.62064 0.46969
 C834 C 0.24233 0.61078 0.45032
 H835 H 0.18384 0.53142 0.38630
 H836 H 0.16704 0.51944 0.35280
 H837 H 0.20902 0.56097 0.31694
 H838 H 0.22591 0.57310 0.35047
 H839 H 0.23117 0.56092 0.46927
 H840 H 0.24162 0.57829 0.50323
 H841 H 0.25250 0.63739 0.46969
 H842 H 0.24249 0.62022 0.43580
 C843 C 0.69126 0.04529 0.86384
 C844 C 0.67148 0.03456 0.86442
 C845 C 0.66215 0.02647 0.84561
 C846 C 0.67247 0.02854 0.82557
 C847 C 0.69289 0.03843 0.82532
 C848 C 0.70199 0.04694 0.84415
 C849 C 0.70005 0.05557 0.88351
 N850 N 0.71416 0.07214 0.88211
 N851 N 0.72098 0.08234 0.89972
 C852 C 0.71409 0.07633 0.91948
 N853 N 0.70023 0.05956 0.92091
 N854 N 0.69328 0.04945 0.90328
 C855 C 0.72094 0.08835 0.93890
 C856 C 0.71982 0.07905 0.95941
 C857 C 0.72627 0.09064 0.97768
 C858 C 0.73356 0.11175 0.97569
 C859 C 0.73432 0.12117 0.95533
 C860 C 0.72829 0.10952 0.93708
 H861 H 0.66287 0.03287 0.87938
 H862 H 0.64697 0.01815 0.84705
 H863 H 0.70144 0.04085 0.81045
 H864 H 0.71734 0.05508 0.84323
 H865 H 0.71418 0.06277 0.96130
 H866 H 0.72543 0.08316 0.99329
 H867 H 0.73975 0.13753 0.95352
 H868 H 0.72910 0.11722 0.92156
 C869 C 0.69609 0.94785 0.63033
 C870 C 0.70678 0.94869 0.65029
 C871 C 0.69678 0.95719 0.66841
 C872 C 0.67586 0.96505 0.66700
 C873 C 0.66521 0.96423 0.64704
 C874 C 0.67520 0.95578 0.62894
 C875 C 0.70648 0.93842 0.61118
 N876 N 0.69649 0.93830 0.59172
 N877 N 0.70557 0.92934 0.57465
 C878 C 0.72505 0.92010 0.57630
 N879 N 0.73510 0.92034 0.59573
 N880 N 0.72603 0.92932 0.61278
 C881 C 0.73483 0.90926 0.55758
 C882 C 0.75387 0.89782 0.56013
 C883 C 0.76249 0.88649 0.54294
 C884 C 0.75243 0.88655 0.52276
 C885 C 0.73367 0.89826 0.51995
 C886 C 0.72493 0.90954 0.53720
 H887 H 0.72290 0.94277 0.65195
 H888 H 0.70551 0.95781 0.68348
 H889 H 0.64894 0.96979 0.64546
 H890 H 0.66642 0.95528 0.61389
 H891 H 0.76192 0.89717 0.57556
 H892 H 0.77680 0.87738 0.54572
 H893 H 0.72552 0.89827 0.50454
 H894 H 0.71024 0.91818 0.53465
 C895 C 0.19647 0.45856 0.13365
 C896 C 0.17542 0.46613 0.13462
 C897 C 0.16805 0.47637 0.15306
 C898 C 0.18148 0.47922 0.17104
 C899 C 0.20264 0.47195 0.17002
 C900 C 0.21010 0.46183 0.15146
 C901 C 0.20375 0.44664 0.11445
 N902 N 0.22469 0.44172 0.11182
 N903 N 0.23096 0.43032 0.09490
 C904 C 0.21654 0.42331 0.07995
 N905 N 0.19565 0.42834 0.08254
 N906 N 0.18940 0.43979 0.09939
 C907 C 0.22322 0.40971 0.06169
 C908 C 0.20785 0.39820 0.04964
 C909 C 0.21408 0.38438 0.03323
 C910 C 0.23577 0.38200 0.02832
 C911 C 0.25115 0.39387 0.03991
 C912 C 0.24496 0.40752 0.05654
 H913 H 0.16449 0.46393 0.12120
 H914 H 0.15157 0.48151 0.15346
 H915 H 0.21338 0.47406 0.18360
 H916 H 0.22639 0.45618 0.15125
 H917 H 0.19098 0.39942 0.05323
 H918 H 0.20185 0.37533 0.02472
 H919 H 0.26800 0.39217 0.03642
 H920 H 0.25721 0.41621 0.06546
 C921 C -0.13163 0.29599 0.42761
 C922 C -0.14021 0.28615 0.44596
 C923 C -0.15819 0.29467 0.45612
 C924 C -0.16784 0.31317 0.44810
 C925 C -0.15969 0.32247 0.42932
 C926 C -0.14183 0.31403 0.41924
 C927 C -0.11172 0.28829 0.41750
 N928 N -0.10195 0.30021 0.40221
 N929 N -0.08374 0.29396 0.39339
 C930 C -0.07445 0.27546 0.39943
 N931 N -0.08425 0.26337 0.41464
 N932 N -0.10250 0.26969 0.42355
 C933 C -0.05396 0.26904 0.38960
 C934 C -0.04596 0.24828 0.39192
 C935 C -0.02686 0.24248 0.38187
 C936 C -0.01531 0.25743 0.36974
 C937 C -0.02327 0.27810 0.36748
 C938 C -0.04231 0.28384 0.37730
 H939 H -0.13275 0.27221 0.45279
 H940 H -0.16413 0.28720 0.47059
 H941 H -0.16709 0.33643 0.42245
 H942 H -0.13588 0.32187 0.40497
 H943 H -0.05464 0.23645 0.40115
 H944 H -0.02121 0.22629 0.38339
 H945 H -0.01513 0.28986 0.35776
 H946 H -0.04796 0.29996 0.37511
 C947 C 0.36234 0.80058 0.95873
 C948 C 0.34149 0.79544 0.95161
 C949 C 0.32374 0.80484 0.96122
 C950 C 0.32654 0.81982 0.97785
 C951 C 0.34729 0.82438 0.98549
 C952 C 0.36502 0.81470 0.97616
 C953 C 0.38117 0.79250 0.94704
 N954 N 0.40092 0.79258 0.95631
 N955 N 0.41801 0.78650 0.94523
 C956 C 0.41606 0.78036 0.92434
 N957 N 0.39630 0.78017 0.91514
 N958 N 0.37922 0.78606 0.92626
 C959 C 0.43499 0.77449 0.91155
 C960 C 0.43432 0.77628 0.88907
 C961 C 0.45181 0.77034 0.87672
 C962 C 0.47010 0.76196 0.88649
 C963 C 0.47117 0.76064 0.90894
 C964 C 0.45374 0.76699 0.92143
 H965 H 0.33893 0.78451 0.93830
 H966 H 0.30789 0.80119 0.95499
 H967 H 0.34980 0.83583 0.99838
 H968 H 0.38085 0.81900 0.98198
 H969 H 0.42026 0.78231 0.88100
 H970 H 0.45083 0.77174 0.85940
 H971 H 0.48528 0.75454 0.91683
 H972 H 0.45474 0.76558 0.93874
 C973 C 1.13047 0.80906 0.05234
 C974 C 1.13096 0.83065 0.04637
 C975 C 1.15001 0.84035 0.03971
 C976 C 1.16908 0.82869 0.03872
 C977 C 1.16864 0.80712 0.04477
 C978 C 1.14957 0.79742 0.05152
 C979 C 1.11025 0.79888 0.05967
 N980 N 1.11011 0.77869 0.06749
 N981 N 1.09210 0.76978 0.07468
 C982 C 1.07339 0.78061 0.07428
 N983 N 1.07347 0.80073 0.06627
 N984 N 1.09151 0.80966 0.05911
 C985 C 1.05366 0.77107 0.08352
 C986 C 1.03390 0.78155 0.08210
 C987 C 1.01581 0.77328 0.09247
 C988 C 1.01720 0.75450 0.10450
 C989 C 1.03668 0.74369 0.10537
 C990 C 1.05467 0.75179 0.09489
 H991 H 1.11663 0.84016 0.04698
 H992 H 1.14984 0.85709 0.03555
 H993 H 1.18297 0.79763 0.04396
 H994 H 1.14978 0.78075 0.05598
 H995 H 1.03252 0.79639 0.07340
 H996 H 1.00093 0.78193 0.09173
 H997 H 1.03835 0.72926 0.11462
 H998 H 1.06957 0.74326 0.09634
 C999 C 0.63712 0.29527 0.53601
 C1000 C 0.65471 0.28179 0.53303
 C1001 C 0.67375 0.28973 0.52413
 C1002 C 0.67539 0.31119 0.51780
 C1003 C 0.65771 0.32450 0.52059
 C1004 C 0.63886 0.31667 0.52959
 C1005 C 0.61723 0.28760 0.54644
 N1006 N 0.60277 0.30189 0.55364
 N1007 N 0.58510 0.29543 0.56358
 C1008 C 0.58102 0.27437 0.56668
 N1009 N 0.59535 0.25996 0.55930
 N1010 N 0.61315 0.26646 0.54942
 C1011 C 0.56173 0.26764 0.57868
 C1012 C 0.55348 0.24669 0.57732
 C1013 C 0.53528 0.24079 0.58906
 C1014 C 0.52525 0.25567 0.60244
 C1015 C 0.53367 0.27644 0.60396
 C1016 C 0.55152 0.28242 0.59205
 H1017 H 0.65390 0.26524 0.53790
 H1018 H 0.68714 0.27912 0.52209
 H1019 H 0.65859 0.34119 0.51621
 H1020 H 0.62566 0.32751 0.53162
 H1021 H 0.56105 0.23493 0.56718
 H1022 H 0.52920 0.22457 0.58795
 H1023 H 0.52683 0.28815 0.61458
 H1024 H 0.55761 0.29859 0.59374
 C1025 C 0.36186 0.19887 0.54427
 C1026 C 0.34283 0.19978 0.55617
 C1027 C 0.32429 0.18945 0.54885
 C1028 C 0.32424 0.17798 0.52942
 C1029 C 0.34293 0.17782 0.51698
 C1030 C 0.36160 0.18815 0.52436
 C1031 C 0.38197 0.20800 0.55339
 N1032 N 0.40065 0.20750 0.54233
 N1033 N 0.41887 0.21453 0.55132
 C1034 C 0.41912 0.22224 0.57178
 N1035 N 0.40039 0.22295 0.58267
 N1036 N 0.38225 0.21601 0.57369
 C1037 C 0.43935 0.22885 0.58257
 C1038 C 0.43974 0.23170 0.60498
 C1039 C 0.45868 0.23724 0.61558
 C1040 C 0.47763 0.24026 0.60407
 C1041 C 0.47743 0.23778 0.58168
 C1042 C 0.45841 0.23194 0.57098
 H1043 H 0.34233 0.20807 0.57145
 H1044 H 0.31000 0.19017 0.55857
 H1045 H 0.34335 0.16903 0.50198
 H1046 H 0.37595 0.18717 0.51477
 H1047 H 0.42545 0.22935 0.61446
 H1048 H 0.45853 0.23910 0.63290
 H1049 H 0.49189 0.24019 0.57250
 H1050 H 0.45860 0.22993 0.55369
 C1051 C 0.85758 0.68671 0.04603
 C1052 C 0.85173 0.69131 0.02468
 C1053 C 0.83311 0.68228 0.01559
 C1054 C 0.82017 0.66833 0.02763
 C1055 C 0.82580 0.66416 0.04904
 C1056 C 0.84419 0.67324 0.05813
 C1057 C 0.87758 0.69543 0.05583
 N1058 N 0.88193 0.69177 0.07686
 N1059 N 0.89990 0.69909 0.08589
 C1060 C 0.91444 0.71036 0.07432
 N1061 N 0.91016 0.71408 0.05322
 N1062 N 0.89208 0.70675 0.04415
 C1063 C 0.93432 0.71847 0.08486
 C1064 C 0.95049 0.72909 0.07324
 C1065 C 0.96892 0.73694 0.08378
 C1066 C 0.97126 0.73437 0.10603
 C1067 C 0.95533 0.72358 0.11752
 C1068 C 0.93712 0.71569 0.10710
 H1069 H 0.86163 0.70170 0.01495
 H1070 H 0.82913 0.68570 -0.00099
 H1071 H 0.81594 0.65372 0.05879
 H1072 H 0.84805 0.66939 0.07464
 H1073 H 0.94887 0.73143 0.05609
 H1074 H 0.98108 0.74525 0.07465
 H1075 H 0.95682 0.72150 0.13473
 H1076 H 0.92509 0.70762 0.11664
 C1077 C 0.62676 0.68814 0.94002
 C1078 C 0.62536 0.66825 0.95026
 C1079 C 0.64359 0.65872 0.95877
 C1080 C 0.66373 0.66884 0.95737
 C1081 C 0.66522 0.68866 0.94698
 C1082 C 0.64693 0.69821 0.93841
 C1083 C 0.60728 0.69818 0.93104
 N1084 N 0.60855 0.71686 0.92013
 N1085 N 0.59105 0.72568 0.91187
 C1086 C 0.57152 0.71624 0.91420
 N1087 N 0.57024 0.69761 0.92520
 N1088 N 0.58773 0.68878 0.93344
 C1089 C 0.55214 0.72574 0.90444
 C1090 C 0.53183 0.71619 0.90715
 C1091 C 0.51378 0.72464 0.89705
 C1092 C 0.51567 0.74279 0.88414
 C1093 C 0.53580 0.75254 0.88162
 C1094 C 0.55383 0.74416 0.89173
 H1095 H 0.61016 0.65993 0.95166
 H1096 H 0.64193 0.64324 0.96627
 H1097 H 0.68046 0.69694 0.94578
 H1098 H 0.64861 0.71355 0.93064
 H1099 H 0.52991 0.70199 0.91682
 H1100 H 0.49839 0.71678 0.89900
 H1101 H 0.53782 0.76637 0.87149
 H1102 H 0.56917 0.75193 0.88923
 C1103 C 0.13449 0.19575 0.44908
 C1104 C 0.15566 0.19906 0.44225
 C1105 C 0.17267 0.18956 0.45308
 C1106 C 0.16890 0.17642 0.47090
 C1107 C 0.14780 0.17355 0.47811
 C1108 C 0.13077 0.18321 0.46738
 C1109 C 0.11642 0.20454 0.43654
 N1110 N 0.09613 0.20395 0.44425
 N1111 N 0.07985 0.21110 0.43249
 C1112 C 0.08318 0.21900 0.41248
 N1113 N 0.10348 0.21967 0.40484
 N1114 N 0.11974 0.21262 0.41662
 C1115 C 0.06513 0.22630 0.39898
 C1116 C 0.06809 0.22973 0.37689
 C1117 C 0.05115 0.23640 0.36399
 C1118 C 0.03096 0.23988 0.37287
 C1119 C 0.02790 0.23677 0.39493
 C1120 C 0.04482 0.22984 0.40788
 H1121 H 0.15912 0.20870 0.42828
 H1122 H 0.18873 0.19188 0.44701
 H1123 H 0.14446 0.16366 0.49194
 H1124 H 0.11466 0.18037 0.47309
 H1125 H 0.08347 0.22711 0.36948
 H1126 H 0.05385 0.23892 0.34701
 H1127 H 0.01258 0.23974 0.40223
 H1128 H 0.04207 0.22750 0.42486
 C1129 C 0.55713 0.11489 0.70021
 C1130 C 0.57403 0.11648 0.71515
 C1131 C 0.58342 0.09814 0.72343
 C1132 C 0.57621 0.07777 0.71692
 C1133 C 0.55890 0.07617 0.70248
 C1134 C 0.54945 0.09452 0.69424
 C1135 C 0.54815 0.13431 0.69028
 N1136 N 0.53116 0.13290 0.67664
 N1137 N 0.52366 0.15021 0.66698
 C1138 C 0.53286 0.16967 0.67048
 N1139 N 0.54977 0.17111 0.68424
 N1140 N 0.55725 0.15380 0.69394
 C1141 C 0.52499 0.18872 0.65900
 C1142 C 0.53572 0.20852 0.66087
 C1143 C 0.52868 0.22619 0.64926
 C1144 C 0.51072 0.22442 0.63579
 C1145 C 0.49991 0.20477 0.63397
 C1146 C 0.50693 0.18712 0.64549
 H1147 H 0.58022 0.13190 0.72026
 H1148 H 0.59647 0.09991 0.73485
 H1149 H 0.55311 0.06072 0.69698
 H1150 H 0.53646 0.09269 0.68277
 H1151 H 0.54975 0.21031 0.67104
 H1152 H 0.53736 0.24119 0.65065
 H1153 H 0.48620 0.20283 0.62344
 H1154 H 0.49829 0.17214 0.64360
 C1155 C 1.05517 0.61958 0.20816
 C1156 C 1.07069 0.62329 0.22423
 C1157 C 1.08225 0.60635 0.23284
 C1158 C 1.07841 0.58534 0.22571
 C1159 C 1.06236 0.58154 0.21023
 C1160 C 1.05092 0.59847 0.20150
 C1161 C 1.04433 0.63760 0.19747
 N1162 N 1.03322 0.63433 0.17892
 N1163 N 1.02456 0.65059 0.16847
 C1164 C 1.02657 0.67084 0.17614
 N1165 N 1.03742 0.67412 0.19487
 N1166 N 1.04618 0.65783 0.20529
 C1167 C 1.01801 0.68894 0.16366
 C1168 C 1.01560 0.70924 0.17303
 C1169 C 1.00814 0.72634 0.16076
 C1170 C 1.00336 0.72340 0.13891
 C1171 C 1.00561 0.70317 0.12960
 C1172 C 1.01272 0.68609 0.14185
 H1173 H 1.07434 0.63934 0.22974
 H1174 H 1.09438 0.60971 0.24493
 H1175 H 1.05917 0.56555 0.20428
 H1176 H 1.03902 0.59502 0.18922
 H1177 H 1.01947 0.71191 0.18982
 H1178 H 1.00639 0.74179 0.16829
 H1179 H 1.00204 0.70060 0.11273
 H1180 H 1.01450 0.67073 0.13407
 C1181 C 0.93895 0.88386 0.19302
 C1182 C 0.91827 0.89034 0.18717
 C1183 C 0.90952 0.90874 0.19594
 C1184 C 0.92112 0.92118 0.21089
 C1185 C 0.94199 0.91505 0.21648
 C1186 C 0.95083 0.89652 0.20764
 C1187 C 0.94760 0.86382 0.18392
 N1188 N 0.96803 0.85763 0.18788
 N1189 N 0.97543 0.83951 0.17952
 C1190 C 0.96266 0.82686 0.16694
 N1191 N 0.94229 0.83310 0.16310
 N1192 N 0.93494 0.85113 0.17138
 C1193 C 0.97053 0.80679 0.15719
 C1194 C 0.95639 0.79390 0.14504
 C1195 C 0.96348 0.77546 0.13494
 C1196 C 0.98486 0.76926 0.13684
 C1197 C 0.99910 0.78187 0.14910
 C1198 C 0.99198 0.80049 0.15929
 H1199 H 0.90870 0.88118 0.17580
 H1200 H 0.89361 0.91329 0.19091
 H1201 H 0.95129 0.92430 0.22802
 H1202 H 0.96681 0.89199 0.21245
 H1203 H 0.93977 0.79817 0.14301
 H1204 H 0.95212 0.76640 0.12535
 H1205 H 1.01576 0.77753 0.15047
 H1206 H 1.00332 0.81009 0.16846
 C1207 C 0.45319 0.37863 0.70721
 C1208 C 0.44199 0.37598 0.72654
 C1209 C 0.43208 0.39335 0.73632
 C1210 C 0.43342 0.41374 0.72711
 C1211 C 0.44542 0.41657 0.70833
 C1212 C 0.45511 0.39918 0.69841
 C1213 C 0.46169 0.35994 0.69556
 N1214 N 0.46685 0.36148 0.67447
 N1215 N 0.47329 0.34447 0.66352
 C1216 C 0.47493 0.32519 0.67322
 N1217 N 0.47005 0.32367 0.69440
 N1218 N 0.46347 0.34069 0.70533
 C1219 C 0.48138 0.30623 0.66070
 C1220 C 0.48869 0.28773 0.67097
 C1221 C 0.49498 0.27002 0.65887
 C1222 C 0.49393 0.27056 0.63638
 C1223 C 0.48602 0.28871 0.62616
 C1224 C 0.48004 0.30648 0.63816
 H1225 H 0.44023 0.36037 0.73374
 H1226 H 0.42306 0.39081 0.75091
 H1227 H 0.44656 0.43209 0.70081
 H1228 H 0.46375 0.40177 0.68360
 H1229 H 0.48976 0.28703 0.68832
 H1230 H 0.50060 0.25600 0.66712
 H1231 H 0.48474 0.28926 0.60881
 H1232 H 0.47419 0.32034 0.62975
 C1233 C 0.43628 0.61434 0.79530
 C1234 C 0.41563 0.60738 0.80101
 C1235 C 0.40816 0.58719 0.79501
 C1236 C 0.42106 0.57342 0.78304
 C1237 C 0.44150 0.58047 0.77675
 C1238 C 0.44911 0.60073 0.78293
 C1239 C 0.44432 0.63540 0.80300
 N1240 N 0.46501 0.64170 0.80015
 N1241 N 0.47222 0.66018 0.80832
 C1242 C 0.45901 0.67308 0.81964
 N1243 N 0.43831 0.66687 0.82215
 N1244 N 0.43114 0.64848 0.81403
 C1245 C 0.46695 0.69295 0.83015
 C1246 C 0.45361 0.70383 0.84449
 C1247 C 0.46103 0.72177 0.85561
 C1248 C 0.48184 0.72961 0.85242
 C1249 C 0.49524 0.71903 0.83796
 C1250 C 0.48787 0.70080 0.82688
 H1251 H 0.40523 0.61740 0.81044
 H1252 H 0.39219 0.58231 0.79974
 H1253 H 0.45175 0.57012 0.76751
 H1254 H 0.46507 0.60563 0.77823
 H1255 H 0.43750 0.69819 0.84764
 H1256 H 0.45044 0.72903 0.86709
 H1257 H 0.51150 0.72462 0.83556
 H1258 H 0.49859 0.69274 0.81601
 C1259 C -0.05553 0.12265 0.27171
 C1260 C -0.04388 0.10540 0.26348
 C1261 C -0.05429 0.08626 0.25786
 C1262 C -0.07644 0.08394 0.26077
 C1263 C -0.08815 0.10131 0.26847
 C1264 C -0.07784 0.12053 0.27371
 C1265 C -0.04449 0.14225 0.27948
 N1266 N -0.05558 0.16045 0.28289
 N1267 N -0.04608 0.17757 0.29160
 C1268 C -0.02511 0.17717 0.29740
 N1269 N -0.01393 0.15907 0.29372
 N1270 N -0.02340 0.14199 0.28487
 C1271 C -0.01521 0.19541 0.30912
 C1272 C 0.00331 0.19248 0.32164
 C1273 C 0.01120 0.20892 0.33480
 C1274 C 0.00098 0.22869 0.33535
 C1275 C -0.01691 0.23201 0.32219
 C1276 C -0.02504 0.21547 0.30926
 H1277 H -0.02669 0.10660 0.26169
 H1278 H -0.04497 0.07303 0.25198
 H1279 H -0.10529 0.09991 0.27066
 H1280 H -0.08727 0.13347 0.28005
 H1281 H 0.01118 0.17719 0.32201
 H1282 H 0.02490 0.20585 0.34495
 H1283 H -0.02505 0.24717 0.32248
 H1284 H -0.03928 0.21826 0.29973
 C1285 C 0.06856 0.39053 0.29152
 C1286 C 0.07610 0.39246 0.27035
 C1287 C 0.08565 0.41154 0.26344
 C1288 C 0.08783 0.42902 0.27756
 C1289 C 0.07960 0.42728 0.29843
 C1290 C 0.07013 0.40829 0.30533
 C1291 C 0.05983 0.37003 0.29963
 N1292 N 0.05580 0.36767 0.32089
 N1293 N 0.04856 0.34922 0.32857
 C1294 C 0.04501 0.33225 0.31535
 N1295 N 0.04891 0.33457 0.29401
 N1296 N 0.05624 0.35308 0.28632
 C1297 C 0.03711 0.31177 0.32429
 C1298 C 0.02974 0.29506 0.31087
 C1299 C 0.02161 0.27613 0.31975
 C1300 C 0.02083 0.27373 0.34211
 C1301 C 0.02870 0.29008 0.35545
 C1302 C 0.03665 0.30894 0.34667
 H1303 H 0.07511 0.37909 0.25930
 H1304 H 0.09195 0.41238 0.24730
 H1305 H 0.08064 0.44061 0.30954
 H1306 H 0.06427 0.40751 0.32165
 H1307 H 0.02994 0.29672 0.29356
 H1308 H 0.01576 0.26357 0.30919
 H1309 H 0.02835 0.28841 0.37276
 H1310 H 0.04237 0.32134 0.35751
 C1311 C 0.54518 0.88714 0.78905
 C1312 C 0.55383 0.88635 0.76823
 C1313 C 0.56514 0.90390 0.75998
 C1314 C 0.56809 0.92245 0.77245
 C1315 C 0.55863 0.92355 0.79281
 C1316 C 0.54729 0.90616 0.80099
 C1317 C 0.53516 0.86805 0.79900
 N1318 N 0.52879 0.86878 0.81980
 N1319 N 0.52116 0.85144 0.82946
 C1320 C 0.51951 0.83257 0.81878
 N1321 N 0.52557 0.83184 0.79785
 N1322 N 0.53328 0.84923 0.78816
 C1323 C 0.51221 0.81315 0.83023
 C1324 C 0.50719 0.79410 0.81912
 C1325 C 0.50087 0.77578 0.83038
 C1326 C 0.49980 0.77623 0.85287
 C1327 C 0.50462 0.79519 0.86392
 C1328 C 0.51068 0.81346 0.85276
 H1329 H 0.55243 0.87198 0.75858
 H1330 H 0.57233 0.90265 0.74424
 H1331 H 0.56035 0.93781 0.80261
 H1332 H 0.54067 0.90749 0.81697
 H1333 H 0.50813 0.79337 0.80177
 H1334 H 0.49700 0.76134 0.82153
 H1335 H 0.50381 0.79584 0.88130
 H1336 H 0.51448 0.82778 0.86189
 C1337 C 0.69516 0.56515 0.11819
 C1338 C 0.70369 0.55124 0.10284
 C1339 C 0.71116 0.55898 0.08311
 C1340 C 0.71050 0.58104 0.07807
 C1341 C 0.70159 0.59469 0.09382
 C1342 C 0.69419 0.58691 0.11336
 C1343 C 0.68690 0.55735 0.13908
 N1344 N 0.67837 0.57131 0.15329
 N1345 N 0.67042 0.56463 0.17186
 C1346 C 0.67064 0.54366 0.17716
 N1347 N 0.67933 0.52961 0.16306
 N1348 N 0.68730 0.53633 0.14438
 C1349 C 0.66080 0.53650 0.19757
 C1350 C 0.66216 0.51523 0.20455
 C1351 C 0.65188 0.50874 0.22344
 C1352 C 0.64009 0.52336 0.23554
 C1353 C 0.63889 0.54456 0.22867
 C1354 C 0.64923 0.55109 0.21003
 H1355 H 0.70475 0.53433 0.10610
 H1356 H 0.71831 0.54744 0.07250
 H1357 H 0.69902 0.61146 0.09104
 H1358 H 0.68737 0.59814 0.12461
 H1359 H 0.67092 0.50359 0.19532
 H1360 H 0.65277 0.49222 0.22837
 H1361 H 0.62961 0.55616 0.23732
 H1362 H 0.64769 0.56756 0.20516
 C1363 C 0.20595 1.05397 0.62283
 C1364 C 0.21723 1.07350 0.62345
 C1365 C 0.22348 1.08351 0.60447
 C1366 C 0.21866 1.07425 0.58440
 C1367 C 0.20798 1.05440 0.58372
 C1368 C 0.20165 1.04438 0.60274
 C1369 C 0.19792 1.04426 0.64297
 N1370 N 0.18594 1.02604 0.64253
 N1371 N 0.17765 1.01812 0.66053
 C1372 C 0.18098 1.02808 0.67972
 N1373 N 0.19318 1.04614 0.68018
 N1374 N 0.20148 1.05405 0.66220
 C1375 C 0.17036 1.02027 0.69949
 C1376 C 0.17236 1.03175 0.71888
 C1377 C 0.16063 1.02567 0.73693
 C1378 C 0.14662 1.00807 0.73598
 C1379 C 0.14553 0.99585 0.71704
 C1380 C 0.15720 1.00193 0.69894
 H1381 H 0.22096 1.08129 0.63860
 H1382 H 0.23205 1.09860 0.60551
 H1383 H 0.20396 1.04694 0.56848
 H1384 H 0.19302 1.02933 0.60166
 H1385 H 0.18256 1.04580 0.72001
 H1386 H 0.16230 1.03503 0.75145
 H1387 H 0.13539 0.98181 0.71594
 H1388 H 0.15551 0.99252 0.68439
 C1389 C 0.20513 0.94306 0.89268
 C1390 C 0.22096 0.95321 0.90519
 C1391 C 0.22974 0.94296 0.92308
 C1392 C 0.22342 0.92187 0.92861
 C1393 C 0.20776 0.91180 0.91532
 C1394 C 0.19865 0.92232 0.89792
 C1395 C 0.19483 0.95397 0.87448
 N1396 N 0.17397 0.94984 0.86976
 N1397 N 0.16456 0.95904 0.85304
 C1398 C 0.17568 0.97258 0.84020
 N1399 N 0.19659 0.97675 0.84488
 N1400 N 0.20596 0.96771 0.86181
 C1401 C 0.16515 0.98185 0.82119
 C1402 C 0.17676 0.98645 0.80246
 C1403 C 0.16612 0.99295 0.78377
 C1404 C 0.14384 0.99525 0.78378
 C1405 C 0.13242 0.99173 0.80275
 C1406 C 0.14293 0.98485 0.82122
 H1407 H 0.22628 0.96925 0.90135
 H1408 H 0.24220 0.95146 0.93182
 H1409 H 0.20117 0.89620 0.91890
 H1410 H 0.18638 0.91415 0.88854
 H1411 H 0.19390 0.98419 0.80202
 H1412 H 0.17522 0.99565 0.76929
 H1413 H 0.11522 0.99361 0.80307
 H1414 H 0.13362 0.98161 0.83548
 C1415 C 0.70611 0.44012 0.38138
 C1416 C 0.72611 0.44618 0.39003
 C1417 C 0.73553 0.43408 0.40634
 C1418 C 0.72530 0.41551 0.41384
 C1419 C 0.70551 0.40932 0.40494
 C1420 C 0.69593 0.42157 0.38902
 C1421 C 0.69549 0.45304 0.36472
 N1422 N 0.67391 0.45204 0.36242
 N1423 N 0.66410 0.46320 0.34725
 C1424 C 0.67543 0.47575 0.33362
 N1425 N 0.69707 0.47681 0.33587
 N1426 N 0.70690 0.46574 0.35122
 C1427 C 0.66419 0.48733 0.31634
 C1428 C 0.67479 0.49366 0.29748
 C1429 C 0.66327 0.50249 0.28036
 C1430 C 0.64112 0.50519 0.28203
 C1431 C 0.63079 0.50001 0.30124
 C1432 C 0.64216 0.49103 0.31817
 H1433 H 0.73425 0.46046 0.38448
 H1434 H 0.75084 0.43911 0.41299
 H1435 H 0.69725 0.39515 0.41061
 H1436 H 0.68057 0.41644 0.38259
 H1437 H 0.69178 0.49105 0.29567
 H1438 H 0.67155 0.50666 0.26573
 H1439 H 0.61372 0.50221 0.30289
 H1440 H 0.63357 0.48661 0.33257
 C1441 C 0.78892 0.43648 0.60558
 C1442 C 0.77041 0.42349 0.60524
 C1443 C 0.76489 0.41171 0.58683
 C1444 C 0.77791 0.41246 0.56852
 C1445 C 0.79625 0.42560 0.56878
 C1446 C 0.80163 0.43757 0.58705
 C1447 C 0.79547 0.44821 0.62533
 N1448 N 0.81112 0.46339 0.62462
 N1449 N 0.81798 0.47307 0.64250
 C1450 C 0.80954 0.46797 0.66189
 N1451 N 0.79369 0.45296 0.66259
 N1452 N 0.78676 0.44333 0.64467
 C1453 C 0.81869 0.47737 0.68188
 C1454 C 0.81367 0.46874 0.70208
 C1455 C 0.82461 0.47572 0.72054
 C1456 C 0.84071 0.49141 0.71913
 C1457 C 0.84466 0.50109 0.69928
 C1458 C 0.83384 0.49409 0.68081
 H1459 H 0.76026 0.42233 0.61923
 H1460 H 0.75071 0.40161 0.58707
 H1461 H 0.80643 0.42664 0.55479
 H1462 H 0.81601 0.44737 0.58675
 H1463 H 0.80199 0.45594 0.70353
 H1464 H 0.82117 0.46818 0.73577
 H1465 H 0.85668 0.51351 0.69771
 H1466 H 0.83786 0.50134 0.66559
 C1467 C 0.30104 -0.04497 0.11745
 C1468 C 0.27952 -0.05185 0.11772
 C1469 C 0.27082 -0.06341 0.10037
 C1470 C 0.28352 -0.06843 0.08254
 C1471 C 0.30475 -0.06092 0.08198
 C1472 C 0.31339 -0.04930 0.09917
 C1473 C 0.31103 -0.03431 0.13640
 N1474 N 0.33187 -0.02799 0.13582
 N1475 N 0.34143 -0.01965 0.15312
 C1476 C 0.33061 -0.01724 0.17180
 N1477 N 0.30966 -0.02330 0.17235
 N1478 N 0.30007 -0.03167 0.15501
 C1479 C 0.34184 -0.00914 0.19131
 C1480 C 0.33088 -0.00604 0.21073
 C1481 C 0.34195 0.00052 0.22929
 C1482 C 0.36415 0.00410 0.22875
 C1483 C 0.37503 0.00112 0.20938
 C1484 C 0.36403 -0.00529 0.19086
 H1485 H 0.26954 -0.04872 0.13151
 H1486 H 0.25441 -0.06908 0.10122
 H1487 H 0.31479 -0.06428 0.06827
 H1488 H 0.32995 -0.04415 0.09829
 H1489 H 0.31380 -0.00897 0.21169
 H1490 H 0.33318 0.00225 0.24410
 H1491 H 0.39215 0.00327 0.20853
 H1492 H 0.37307 -0.00766 0.17628
 C1493 C 0.29305 0.05807 0.38622
 C1494 C 0.28213 0.07752 0.38561
 C1495 C 0.27354 0.08625 0.40429
 C1496 C 0.27553 0.07569 0.42407
 C1497 C 0.28617 0.05608 0.42467
 C1498 C 0.29484 0.04736 0.40596
 C1499 C 0.30310 0.04947 0.36653
 N1500 N 0.31547 0.03182 0.36734
 N1501 N 0.32533 0.02474 0.34982
 C1502 C 0.32321 0.03496 0.33074
 N1503 N 0.31064 0.05247 0.32989
 N1504 N 0.30081 0.05956 0.34740
 C1505 C 0.33527 0.02791 0.31159
 C1506 C 0.33303 0.03849 0.29183
 C1507 C 0.34574 0.03294 0.27431
 C1508 C 0.36107 0.01692 0.27626
 C1509 C 0.36265 0.00568 0.29562
 C1510 C 0.34992 0.01113 0.31312
 H1511 H 0.28053 0.08628 0.37074
 H1512 H 0.26580 0.10157 0.40330
 H1513 H 0.28775 0.04743 0.43961
 H1514 H 0.30308 0.03230 0.40700
 H1515 H 0.32175 0.05133 0.28998
 H1516 H 0.34398 0.04155 0.25937
 H1517 H 0.37394 -0.00710 0.29751
 H1518 H 0.35193 0.00249 0.32800
 C1519 C 0.77963 0.53973 0.88230
 C1520 C 0.76009 0.55064 0.88191
 C1521 C 0.75260 0.56087 0.90042
 C1522 C 0.76457 0.56045 0.91959
 C1523 C 0.78349 0.54863 0.92024
 C1524 C 0.79091 0.53836 0.90186
 C1525 C 0.78914 0.53113 0.86230
 N1526 N 0.80898 0.52258 0.86276
 N1527 N 0.81844 0.51635 0.84474
 C1528 C 0.80850 0.51837 0.82542
 N1529 N 0.78848 0.52660 0.82493
 N1530 N 0.77902 0.53290 0.84300
 C1531 C 0.81987 0.51265 0.80539
 C1532 C 0.80920 0.51173 0.78542
 C1533 C 0.82044 0.50693 0.76661
 C1534 C 0.84249 0.50308 0.76749
 C1535 C 0.85311 0.50418 0.78734
 C1536 C 0.84194 0.50872 0.80608
 H1537 H 0.75096 0.55194 0.86715
 H1538 H 0.73800 0.56996 0.89946
 H1539 H 0.79285 0.54778 0.93491
 H1540 H 0.80588 0.52991 0.90286
 H1541 H 0.79222 0.51481 0.78432
 H1542 H 0.81194 0.50661 0.75142
 H1543 H 0.87015 0.50174 0.78848
 H1544 H 0.85077 0.50954 0.82109
 C1545 C 0.12414 0.70422 0.57034
 C1546 C 0.10375 0.69833 0.56252
 C1547 C 0.08530 0.70596 0.57236
 C1548 C 0.08678 0.71972 0.59021
 C1549 C 0.10718 0.72606 0.59767
 C1550 C 0.12564 0.71837 0.58789
 C1551 C 0.14366 0.69501 0.56078
 N1552 N 0.16317 0.69825 0.57007
 N1553 N 0.18054 0.68907 0.56207
 C1554 C 0.17914 0.67630 0.54442
 N1555 N 0.15967 0.67325 0.53500
 N1556 N 0.14232 0.68239 0.54301
 C1557 C 0.19817 0.66504 0.53618
 C1558 C 0.19658 0.65231 0.51757
 C1559 C 0.21395 0.64036 0.51065
 C1560 C 0.23331 0.64091 0.52213
 C1561 C 0.23519 0.65400 0.54039
 C1562 C 0.21781 0.66601 0.54734
 H1563 H 0.10199 0.68742 0.54907
 H1564 H 0.06986 0.70055 0.56636
 H1565 H 0.10889 0.73696 0.61114
 H1566 H 0.14107 0.72337 0.59423
 H1567 H 0.18174 0.65119 0.50854
 H1568 H 0.21191 0.63031 0.49661
 H1569 H 0.24991 0.65444 0.54965
 H1570 H 0.21960 0.67560 0.56177
 C1571 C 0.61589 0.21783 1.05291
 C1572 C 0.59500 0.21114 1.04744
 C1573 C 0.57732 0.21981 1.05786
 C1574 C 0.58011 0.23546 1.07392
 C1575 C 0.60097 0.24276 1.07876
 C1576 C 0.61864 0.23401 1.06843
 C1577 C 0.63469 0.20726 1.04330
 N1578 N 0.65471 0.21096 1.05122
 N1579 N 0.67144 0.20050 1.04347
 C1580 C 0.66887 0.18591 1.02742
 N1581 N 0.64890 0.18240 1.01933
 N1582 N 0.63217 0.19282 1.02711
 C1583 C 0.68722 0.17328 1.01963
 C1584 C 0.68468 0.15925 1.00208
 C1585 C 0.70143 0.14618 0.99567
 C1586 C 0.72109 0.14682 1.00665
 C1587 C 0.72389 0.16113 1.02384
 C1588 C 0.70715 0.17431 1.03024
 H1589 H 0.59228 0.19870 1.03557
 H1590 H 0.56153 0.21364 1.05390
 H1591 H 0.60366 0.25510 1.09074
 H1592 H 0.63448 0.23971 1.07288
 H1593 H 0.66960 0.15807 0.99349
 H1594 H 0.69871 0.13524 0.98242
 H1595 H 0.73882 0.16167 1.03275
 H1596 H 0.70967 0.18485 1.04388
 C1597 C 0.87722 0.20005 0.93540
 C1598 C 0.89074 0.21446 0.94635
 C1599 C 0.90855 0.22348 0.93610
 C1600 C 0.91313 0.21877 0.91429
 C1601 C 0.89904 0.20434 0.90352
 C1602 C 0.88161 0.19509 0.91395
 C1603 C 0.85872 0.18987 0.94614
 N1604 N 0.85062 0.17110 0.93856
 N1605 N 0.83378 0.16189 0.94781
 C1606 C 0.82421 0.17111 0.96496
 N1607 N 0.83227 0.18993 0.97259
 N1608 N 0.84927 0.19908 0.96342
 C1609 C 0.80520 0.16085 0.97470
 C1610 C 0.79047 0.17270 0.98670
 C1611 C 0.77178 0.16298 0.99449
 C1612 C 0.76781 0.14118 0.99082
 C1613 C 0.78273 0.12932 0.97921
 C1614 C 0.80115 0.13903 0.97117
 H1615 H 0.88767 0.21864 0.96294
 H1616 H 0.91792 0.23494 0.94528
 H1617 H 0.90187 0.19889 0.88730
 H1618 H 0.87152 0.18392 0.90508
 H1619 H 0.79307 0.18960 0.98949
 H1620 H 0.76043 0.17264 1.00304
 H1621 H 0.77984 0.11263 0.97564
 H1622 H 0.81216 0.12944 0.96198
 C1623 C 0.38835 0.70453 0.45756
 C1624 C 0.39647 0.72384 0.46609
 C1625 C 0.41335 0.73461 0.45592
 C1626 C 0.42209 0.72642 0.43688
 C1627 C 0.41400 0.70714 0.42845
 C1628 C 0.39742 0.69627 0.43871
 C1629 C 0.37039 0.69296 0.46788
 N1630 N 0.36595 0.67243 0.46230
 N1631 N 0.34942 0.66204 0.47082
 C1632 C 0.33652 0.67172 0.48526
 N1633 N 0.34099 0.69226 0.49099
 N1634 N 0.35764 0.70266 0.48251
 C1635 C 0.31763 0.66015 0.49384
 C1636 C 0.30159 0.67085 0.50524
 C1637 C 0.28313 0.65990 0.51189
 C1638 C 0.28060 0.63803 0.50753
 C1639 C 0.29670 0.62735 0.49639
 C1640 C 0.31501 0.63822 0.48968
 H1641 H 0.38986 0.73055 0.48063
 H1642 H 0.41934 0.74948 0.46268
 H1643 H 0.42065 0.70036 0.41395
 H1644 H 0.39155 0.68148 0.43167
 H1645 H 0.30303 0.68779 0.50853
 H1646 H 0.27080 0.66869 0.52000
 H1647 H 0.29484 0.61070 0.49208
 H1648 H 0.32694 0.62945 0.48084
 C1649 C 0.62330 0.79731 0.44623
 C1650 C 0.61784 0.80077 0.42459
 C1651 C 0.59750 0.79550 0.41685
 C1652 C 0.58208 0.78649 0.43048
 C1653 C 0.58758 0.78242 0.45198
 C1654 C 0.60799 0.78791 0.45984
 C1655 C 0.64462 0.80426 0.45439
 N1656 N 0.64943 0.80412 0.47573
 N1657 N 0.66822 0.81171 0.48289
 C1658 C 0.68294 0.81971 0.46900
 N1659 N 0.67820 0.81951 0.44769
 N1660 N 0.65949 0.81196 0.44056
 C1661 C 0.70319 0.82976 0.47671
 C1662 C 0.71655 0.84041 0.46206
 C1663 C 0.73464 0.85161 0.46915
 C1664 C 0.74003 0.85221 0.49102
 C1665 C 0.72724 0.84105 0.50571
 C1666 C 0.70889 0.82994 0.49863
 H1667 H 0.62918 0.80791 0.41359
 H1668 H 0.59381 0.79844 0.40011
 H1669 H 0.57595 0.77547 0.46280
 H1670 H 0.61170 0.78498 0.47657
 H1671 H 0.71273 0.84067 0.44508
 H1672 H 0.74401 0.86016 0.45741
 H1673 H 0.73109 0.84146 0.52269
 H1674 H 0.69897 0.82189 0.51035
 C1675 C 0.10912 0.29550 -0.06365
 C1676 C 0.10337 0.30268 -0.08420
 C1677 C 0.08440 0.29571 -0.09395
 C1678 C 0.07050 0.28153 -0.08334
 C1679 C 0.07643 0.27393 -0.06295
 C1680 C 0.09560 0.28081 -0.05321
 C1681 C 0.12881 0.30398 -0.05315
 N1682 N 0.13742 0.29448 -0.03556
 N1683 N 0.15497 0.30257 -0.02613
 C1684 C 0.16449 0.32056 -0.03384
 N1685 N 0.15586 0.32997 -0.05141
 N1686 N 0.13845 0.32184 -0.06088
 C1687 C 0.18363 0.33015 -0.02331
 C1688 C 0.18923 0.35149 -0.02756
 C1689 C 0.20725 0.36082 -0.01798
 C1690 C 0.22022 0.34899 -0.00418
 C1691 C 0.21483 0.32769 0.00021
 C1692 C 0.19653 0.31835 -0.00919
 H1693 H 0.11354 0.31376 -0.09284
 H1694 H 0.08067 0.30142 -0.10992
 H1695 H 0.06604 0.26307 -0.05430
 H1696 H 0.09958 0.27502 -0.03734
 H1697 H 0.17958 0.36111 -0.03819
 H1698 H 0.21112 0.37733 -0.02146
 H1699 H 0.22468 0.31834 0.01089
 H1700 H 0.19263 0.30186 -0.00565
 C1701 C 0.37416 0.28685 0.07219
 C1702 C 0.38909 0.27646 0.05905
 C1703 C 0.40959 0.27189 0.06685
 C1704 C 0.41561 0.27780 0.08785
 C1705 C 0.40050 0.28760 0.10114
 C1706 C 0.38004 0.29203 0.09344
 C1707 C 0.35303 0.29335 0.06363
 N1708 N 0.33880 0.30336 0.07652
 N1709 N 0.32050 0.31071 0.06861
 C1710 C 0.31558 0.30837 0.04744
 N1711 N 0.32964 0.29804 0.03459
 N1712 N 0.34796 0.29067 0.04252
 C1713 C 0.29626 0.31854 0.03831
 C1714 C 0.29173 0.31724 0.01619
 C1715 C 0.27523 0.32922 0.00720
 C1716 C 0.26311 0.34288 0.02008
 C1717 C 0.26655 0.34298 0.04236
 C1718 C 0.28299 0.33099 0.05140
 H1719 H 0.38508 0.27220 0.04262
 H1720 H 0.42095 0.26434 0.05626
 H1721 H 0.40457 0.29196 0.11753
 H1722 H 0.36897 0.29993 0.10407
 H1723 H 0.30138 0.30755 0.00566
 H1724 H 0.27258 0.32826 -0.00991
 H1725 H 0.25699 0.35274 0.05286
 H1726 H 0.28574 0.33210 0.06856
 C1727 C 0.89622 0.79135 0.55743
 C1728 C 0.91570 0.80279 0.55824
 C1729 C 0.93325 0.79476 0.56935
 C1730 C 0.93182 0.77506 0.57990
 C1731 C 0.91274 0.76306 0.57827
 C1732 C 0.89507 0.77116 0.56717
 C1733 C 0.87708 0.80118 0.54757
 N1734 N 0.85796 0.79063 0.54660
 N1735 N 0.84059 0.80017 0.53887
 C1736 C 0.84164 0.82067 0.53187
 N1737 N 0.86079 0.83107 0.53266
 N1738 N 0.87811 0.82155 0.54032
 C1739 C 0.82232 0.83190 0.52422
 C1740 C 0.82316 0.85409 0.52107
 C1741 C 0.80510 0.86501 0.51423
 C1742 C 0.78584 0.85404 0.51028
 C1743 C 0.78482 0.83189 0.51317
 C1744 C 0.80292 0.82089 0.52024
 H1745 H 0.91730 0.81828 0.55074
 H1746 H 0.94789 0.80416 0.57004
 H1747 H 0.91121 0.74786 0.58633
 H1748 H 0.88034 0.76190 0.56680
 H1749 H 0.83775 0.86314 0.52405
 H1750 H 0.80619 0.88212 0.51199
 H1751 H 0.77011 0.82312 0.51003
 H1752 H 0.80177 0.80379 0.52246
   
