data_POSCAR
  _audit_creation_date              2014-09-24
  _audit_creation_method            'ToBaCCo'
  _symmetry_space_group_name_H-M    'P1'
  _symmetry_Int_Tables_number       1
  _symmetry_cell_setting            triclinic
  loop_
  _symmetry_equiv_pos_as_xyz
 x,y,z
_cell_length_a 54.9957
_cell_length_b 54.9957
_cell_length_c 54.9957
_cell_angle_alpha 90.000000
_cell_angle_beta 90.000000
_cell_angle_gamma 90.000000
loop_
  _atom_site_label
  _atom_site_type_symbol
  _atom_site_fract_x
  _atom_site_fract_y
  _atom_site_fract_z
O1 O 0.87635 0.16443 0.81053
 O2 O 0.90452 0.13117 0.80451
 O3 O 0.81314 0.12585 0.83895
 O4 O 0.80628 0.09964 0.86988
 O5 O 0.84077 0.19059 0.87577
 O6 O 0.87477 0.19452 0.90424
 O7 O 0.87845 0.05998 0.90723
 O8 O 0.85076 0.05623 0.87290
 O9 O 0.94284 0.09005 0.87576
 O10 O 0.94967 0.12467 0.85038
 O11 O 0.91204 0.12274 0.93937
 O12 O 0.87688 0.14802 0.94710
 O13 O 0.87821 0.08707 0.93824
 O14 O 0.84961 0.12274 0.94432
 O15 O 0.94219 0.12441 0.91138
 O16 O 0.94656 0.15362 0.87504
 O17 O 0.91312 0.06162 0.87421
 O18 O 0.88357 0.05610 0.84601
 O19 O 0.87664 0.19156 0.84159
 O20 O 0.90347 0.19576 0.87684
 O21 O 0.81275 0.16038 0.87462
 O22 O 0.80821 0.12485 0.90170
 O23 O 0.84143 0.12855 0.80909
 O24 O 0.87829 0.10205 0.80312
 Zr25 Zr 0.87578 0.12948 0.82996
 O26 O 0.89924 0.10563 0.85148
 Zr27 Zr 0.83339 0.12678 0.87267
 O28 O 0.85503 0.10269 0.89513
 Zr29 Zr 0.87512 0.16991 0.87472
 O30 O 0.89843 0.14717 0.89741
 Zr31 Zr 0.87946 0.08181 0.87430
 O32 O 0.85591 0.10388 0.85122
 Zr33 Zr 0.92181 0.12420 0.87687
 O34 O 0.89976 0.14845 0.85390
 Zr35 Zr 0.87843 0.12200 0.91881
 O36 O 0.85510 0.14633 0.89782
 O37 O 0.85283 0.15082 0.85099
 O38 O 0.90204 0.10015 0.89865
 C39 C 0.87678 0.18694 0.81825
 C40 C 0.81862 0.12684 0.81588
 C41 C 0.81800 0.18353 0.87557
 C42 C 0.87827 0.06457 0.93055
 C43 C 0.93614 0.06718 0.87496
 C44 C 0.93517 0.12365 0.93412
 H45 H 0.90933 0.09576 0.84034
 H46 H 0.90822 0.15781 0.90806
 H47 H 0.84232 0.16141 0.84094
 H48 H 0.84425 0.09175 0.90445
 H49 H 0.84012 0.06115 0.85924
 H50 H 0.81213 0.08532 0.87903
 H51 H 0.94378 0.16402 0.88944
 H52 H 0.91613 0.19038 0.86523
 H53 H 0.87464 0.06268 0.83191
 H54 H 0.86397 0.09135 0.80516
 H55 H 0.88626 0.16238 0.94173
 H56 H 0.86277 0.18812 0.91604
 H57 H 0.91655 0.14280 0.81116
 H58 H 0.94247 0.11876 0.83502
 H59 H 0.81351 0.13689 0.91399
 H60 H 0.83840 0.10926 0.94034
 O61 O 0.84060 0.69088 0.37546
 O62 O 0.87486 0.69489 0.40377
 O63 O 0.87618 0.66408 0.31025
 O64 O 0.90306 0.63296 0.30363
 O65 O 0.81264 0.62643 0.33921
 O66 O 0.80707 0.59877 0.37279
 O67 O 0.94221 0.58972 0.37582
 O68 O 0.94695 0.62331 0.34806
 O69 O 0.91185 0.62300 0.43913
 O70 O 0.87769 0.64790 0.44741
 O71 O 0.87788 0.56029 0.40752
 O72 O 0.85030 0.55611 0.37025
 O73 O 0.91229 0.56156 0.37361
 O74 O 0.87857 0.55542 0.34639
 O75 O 0.87777 0.58747 0.43842
 O76 O 0.84907 0.62385 0.44397
 O77 O 0.94198 0.62421 0.41107
 O78 O 0.94775 0.65208 0.37710
 O79 O 0.81237 0.66084 0.37487
 O80 O 0.80683 0.62577 0.40112
 O81 O 0.84088 0.62835 0.30922
 O82 O 0.87599 0.60067 0.30431
 O83 O 0.87640 0.69139 0.34116
 O84 O 0.90336 0.69574 0.37630
 Zr85 Zr 0.87486 0.67002 0.37447
 O86 O 0.89805 0.64718 0.39711
 Zr87 Zr 0.87525 0.62935 0.32997
 O88 O 0.89879 0.60543 0.35143
 Zr89 Zr 0.83293 0.62719 0.37294
 O90 O 0.85446 0.60302 0.39536
 Zr91 Zr 0.92138 0.62397 0.37676
 O92 O 0.89942 0.64834 0.35378
 Zr93 Zr 0.87814 0.62224 0.41877
 O94 O 0.85486 0.64671 0.39791
 Zr95 Zr 0.87863 0.58187 0.37433
 O96 O 0.85525 0.60425 0.35153
 O97 O 0.85241 0.65090 0.35094
 O98 O 0.90146 0.60005 0.39858
 C99 C 0.81778 0.68397 0.37553
 C100 C 0.87661 0.68664 0.31784
 C101 C 0.81808 0.62705 0.31612
 C102 C 0.93535 0.56692 0.37462
 C103 C 0.93497 0.62371 0.43382
 C104 C 0.87776 0.56495 0.43083
 H105 H 0.90782 0.65780 0.40780
 H106 H 0.84350 0.59242 0.40486
 H107 H 0.84195 0.66152 0.34087
 H108 H 0.90920 0.59579 0.34041
 H109 H 0.94161 0.63576 0.33620
 H110 H 0.91573 0.62081 0.30755
 H111 H 0.83837 0.60971 0.44098
 H112 H 0.81285 0.63657 0.41419
 H113 H 0.94202 0.66490 0.38832
 H114 H 0.91586 0.69031 0.36454
 H115 H 0.83928 0.55773 0.38437
 H116 H 0.81339 0.58622 0.36154
 H117 H 0.86242 0.68905 0.41541
 H118 H 0.88469 0.66314 0.44097
 H119 H 0.86363 0.58868 0.30957
 H120 H 0.88874 0.56170 0.33297
 O121 O 0.37607 0.16391 0.31034
 O122 O 0.40402 0.13051 0.30466
 O123 O 0.31272 0.12614 0.33946
 O124 O 0.30593 0.10007 0.37057
 O125 O 0.34067 0.19098 0.37561
 O126 O 0.37491 0.19511 0.40376
 O127 O 0.37823 0.06068 0.40817
 O128 O 0.35024 0.05657 0.37408
 O129 O 0.44245 0.09009 0.37562
 O130 O 0.44903 0.12529 0.34997
 O131 O 0.41198 0.12358 0.43943
 O132 O 0.37686 0.14918 0.44695
 O133 O 0.37809 0.08811 0.43888
 O134 O 0.34969 0.12377 0.44473
 O135 O 0.44205 0.12470 0.41132
 O136 O 0.44669 0.15343 0.37504
 O137 O 0.41262 0.06175 0.37458
 O138 O 0.38274 0.05597 0.34698
 O139 O 0.37647 0.19139 0.34110
 O140 O 0.40336 0.19602 0.37618
 O141 O 0.31255 0.16085 0.37492
 O142 O 0.30801 0.12557 0.40223
 O143 O 0.34092 0.12839 0.30946
 O144 O 0.37749 0.10153 0.30362
 Zr145 Zr 0.37533 0.12926 0.33019
 O146 O 0.39879 0.10556 0.35181
 Zr147 Zr 0.33309 0.12718 0.37308
 O148 O 0.35476 0.10325 0.39568
 Zr149 Zr 0.37496 0.17019 0.37451
 O150 O 0.39832 0.14760 0.39727
 Zr151 Zr 0.37903 0.08207 0.37496
 O152 O 0.35544 0.10397 0.35178
 Zr153 Zr 0.42155 0.12434 0.37687
 O154 O 0.39944 0.14843 0.35382
 Zr155 Zr 0.37833 0.12275 0.41902
 O156 O 0.35496 0.14693 0.39793
 O157 O 0.35252 0.15092 0.35107
 O158 O 0.40180 0.10059 0.39900
 C159 C 0.37658 0.18649 0.31781
 C160 C 0.31813 0.12692 0.31637
 C161 C 0.31787 0.18399 0.37566
 C162 C 0.37812 0.06553 0.43144
 C163 C 0.43567 0.06724 0.37497
 C164 C 0.43508 0.12427 0.43409
 H165 H 0.40874 0.09552 0.34069
 H166 H 0.40819 0.15832 0.40777
 H167 H 0.34202 0.16148 0.34098
 H168 H 0.34400 0.09245 0.40517
 H169 H 0.33950 0.06139 0.36045
 H170 H 0.31168 0.08589 0.38000
 H171 H 0.44358 0.16426 0.38905
 H172 H 0.41607 0.19034 0.36477
 H173 H 0.37390 0.06251 0.33280
 H174 H 0.36311 0.09095 0.30585
 H175 H 0.38666 0.16326 0.44158
 H176 H 0.36302 0.18885 0.41574
 H177 H 0.41642 0.14163 0.31150
 H178 H 0.44262 0.11687 0.33545
 H179 H 0.31344 0.13764 0.41442
 H180 H 0.33833 0.11039 0.44085
 O181 O 0.12725 0.33780 0.31058
 O182 O 0.09932 0.37172 0.30495
 O183 O 0.19177 0.37474 0.33832
 O184 O 0.19754 0.40178 0.36986
 O185 O 0.16204 0.31129 0.37617
 O186 O 0.12845 0.30637 0.40364
 O187 O 0.12518 0.44094 0.40845
 O188 O 0.15309 0.44541 0.37533
 O189 O 0.06217 0.41050 0.37538
 O190 O 0.05439 0.37621 0.35059
 O191 O 0.09082 0.37819 0.44031
 O192 O 0.12870 0.35064 0.44526
 O193 O 0.12553 0.41353 0.43919
 O194 O 0.15215 0.38048 0.44664
 O195 O 0.06253 0.37668 0.41047
 O196 O 0.05749 0.34781 0.37443
 O197 O 0.09027 0.44056 0.37453
 O198 O 0.12468 0.44561 0.34651
 O199 O 0.12689 0.31035 0.34135
 O200 O 0.10001 0.30581 0.37677
 O201 O 0.19202 0.33950 0.37409
 O202 O 0.19630 0.37453 0.40188
 O203 O 0.16162 0.37383 0.31018
 O204 O 0.12678 0.40019 0.30408
 Zr205 Zr 0.12794 0.37239 0.33059
 O206 O 0.10471 0.39617 0.35187
 Zr207 Zr 0.17122 0.37386 0.37269
 O208 O 0.14892 0.39789 0.39546
 Zr209 Zr 0.12836 0.33168 0.37473
 O210 O 0.10521 0.35395 0.39768
 Zr211 Zr 0.12446 0.41975 0.37510
 O212 O 0.14814 0.39736 0.35216
 Zr213 Zr 0.08265 0.37685 0.37666
 O214 O 0.10403 0.35283 0.35367
 Zr215 Zr 0.12506 0.37891 0.41939
 O216 O 0.14870 0.35492 0.39795
 O217 O 0.15093 0.35051 0.35105
 O218 O 0.10173 0.40091 0.39900
 C219 C 0.12677 0.31521 0.31804
 C220 C 0.18474 0.37466 0.31554
 C221 C 0.18515 0.31670 0.37552
 C222 C 0.12545 0.43609 0.43172
 C223 C 0.06750 0.43363 0.37482
 C224 C 0.06800 0.37733 0.43353
 H225 H 0.09429 0.40570 0.34077
 H226 H 0.09525 0.34320 0.40806
 H227 H 0.16123 0.33986 0.34084
 H228 H 0.15966 0.40865 0.40505
 H229 H 0.16539 0.43945 0.36360
 H230 H 0.19328 0.41446 0.38188
 H231 H 0.06004 0.33720 0.38872
 H232 H 0.08757 0.31091 0.36479
 H233 H 0.11278 0.44034 0.33412
 H234 H 0.13765 0.41327 0.30997
 H235 H 0.11443 0.33982 0.44364
 H236 H 0.13916 0.31325 0.41635
 H237 H 0.08732 0.35975 0.31101
 H238 H 0.06108 0.38292 0.33533
 H239 H 0.19089 0.36203 0.41366
 H240 H 0.16689 0.38740 0.43906
 O241 O 0.62787 0.83843 0.30979
 O242 O 0.60000 0.87236 0.30403
 O243 O 0.69244 0.87540 0.33734
 O244 O 0.69829 0.90248 0.36884
 O245 O 0.66262 0.81205 0.37547
 O246 O 0.62911 0.80726 0.40293
 O247 O 0.62591 0.94197 0.40724
 O248 O 0.65375 0.94629 0.37418
 O249 O 0.56287 0.91129 0.37456
 O250 O 0.55505 0.87709 0.34971
 O251 O 0.59151 0.87916 0.43936
 O252 O 0.62952 0.85177 0.44444
 O253 O 0.62617 0.91469 0.43809
 O254 O 0.65280 0.88177 0.44574
 O255 O 0.56322 0.87754 0.40952
 O256 O 0.55824 0.84858 0.37351
 O257 O 0.59094 0.94136 0.37359
 O258 O 0.62546 0.94619 0.34520
 O259 O 0.62750 0.81108 0.34065
 O260 O 0.60060 0.80671 0.37614
 O261 O 0.69266 0.84020 0.37327
 O262 O 0.69702 0.87536 0.40092
 O263 O 0.66228 0.87444 0.30922
 O264 O 0.62747 0.90080 0.30310
 Zr265 Zr 0.62862 0.87307 0.32967
 O266 O 0.60539 0.89693 0.35088
 Zr267 Zr 0.67192 0.87461 0.37176
 O268 O 0.64964 0.89876 0.39444
 Zr269 Zr 0.62901 0.83251 0.37397
 O270 O 0.60590 0.85486 0.39686
 Zr271 Zr 0.62517 0.92058 0.37402
 O272 O 0.64884 0.89808 0.35117
 Zr273 Zr 0.58336 0.87767 0.37574
 O274 O 0.60470 0.85359 0.35281
 Zr275 Zr 0.62577 0.87993 0.41847
 O276 O 0.64937 0.85581 0.39710
 O277 O 0.65159 0.85123 0.35020
 O278 O 0.60244 0.90182 0.39798
 C279 C 0.62735 0.81587 0.31733
 C280 C 0.68540 0.87528 0.31455
 C281 C 0.68573 0.81740 0.37479
 C282 C 0.62612 0.93723 0.43053
 C283 C 0.56818 0.93441 0.37401
 C284 C 0.56869 0.87826 0.43256
 H285 H 0.59496 0.90642 0.33977
 H286 H 0.59595 0.84416 0.40729
 H287 H 0.66188 0.84054 0.34002
 H288 H 0.66038 0.90956 0.40398
 H289 H 0.66611 0.94025 0.36257
 H290 H 0.69400 0.91524 0.38076
 H291 H 0.56075 0.83804 0.38786
 H292 H 0.58824 0.81168 0.36404
 H293 H 0.61300 0.94127 0.33321
 H294 H 0.63820 0.91397 0.30904
 H295 H 0.61529 0.84089 0.44284
 H296 H 0.63978 0.81421 0.41565
 H297 H 0.58799 0.86040 0.31012
 H298 H 0.56179 0.88360 0.33438
 H299 H 0.69164 0.86287 0.41272
 H300 H 0.66767 0.88825 0.43801
 O301 O 0.62720 0.66049 0.18953
 O302 O 0.60047 0.62615 0.19513
 O303 O 0.69224 0.62656 0.16084
 O304 O 0.69809 0.60013 0.12869
 O305 O 0.66205 0.69036 0.12553
 O306 O 0.62798 0.69640 0.09903
 O307 O 0.62512 0.56117 0.08966
 O308 O 0.65286 0.55541 0.12163
 O309 O 0.56236 0.59092 0.12379
 O310 O 0.55519 0.62557 0.14989
 O311 O 0.59089 0.62463 0.05943
 O312 O 0.62672 0.65142 0.05356
 O313 O 0.62555 0.58940 0.05969
 O314 O 0.65367 0.62542 0.05459
 O315 O 0.56265 0.62522 0.08935
 O316 O 0.55711 0.65309 0.12547
 O317 O 0.59042 0.56080 0.12373
 O318 O 0.62585 0.55544 0.15165
 O319 O 0.62734 0.69067 0.16145
 O320 O 0.59935 0.69531 0.12639
 O321 O 0.69206 0.66206 0.12569
 O322 O 0.69577 0.62772 0.09687
 O323 O 0.66224 0.62580 0.18912
 O324 O 0.62798 0.59821 0.19429
 Zr325 Zr 0.62848 0.62699 0.16883
 O326 O 0.60490 0.60421 0.14714
 Zr327 Zr 0.67136 0.62772 0.12663
 O328 O 0.64905 0.60408 0.10347
 Zr329 Zr 0.62830 0.67004 0.12697
 O330 O 0.60545 0.64823 0.10306
 Zr331 Zr 0.62470 0.58153 0.12327
 O332 O 0.64878 0.60311 0.14643
 Zr333 Zr 0.58285 0.62455 0.12316
 O334 O 0.60428 0.64760 0.14706
 Zr335 Zr 0.62509 0.62380 0.08032
 O336 O 0.64835 0.64757 0.10257
 O337 O 0.65116 0.65006 0.14938
 O338 O 0.60187 0.60114 0.10008
 C339 C 0.62698 0.68363 0.18426
 C340 C 0.68534 0.62589 0.18366
 C341 C 0.68516 0.68488 0.12527
 C342 C 0.62538 0.56658 0.06658
 C343 C 0.56766 0.56780 0.12383
 C344 C 0.56807 0.62505 0.06626
 H345 H 0.59460 0.59435 0.15804
 H346 H 0.59540 0.65920 0.09301
 H347 H 0.66147 0.66042 0.15987
 H348 H 0.65979 0.59360 0.09360
 H349 H 0.66588 0.56127 0.13259
 H350 H 0.69373 0.58753 0.11662
 H351 H 0.56033 0.66457 0.11201
 H352 H 0.58735 0.68960 0.13853
 H353 H 0.61286 0.55936 0.16343
 H354 H 0.63943 0.58575 0.18813
 H355 H 0.61508 0.66428 0.05828
 H356 H 0.63800 0.68968 0.08568
 H357 H 0.58763 0.63730 0.18922
 H358 H 0.56069 0.61553 0.16375
 H359 H 0.68973 0.64005 0.08524
 H360 H 0.66528 0.61223 0.05840
 O361 O 0.37676 0.83882 0.68892
 O362 O 0.40477 0.87339 0.69356
 O363 O 0.31314 0.87573 0.65924
 O364 O 0.30669 0.90169 0.62767
 O365 O 0.34126 0.81045 0.62423
 O366 O 0.37617 0.80608 0.59618
 O367 O 0.37843 0.94043 0.58739
 O368 O 0.34990 0.94467 0.62154
 O369 O 0.44272 0.91185 0.62267
 O370 O 0.44834 0.87645 0.65014
 O371 O 0.41281 0.87644 0.55961
 O372 O 0.37703 0.84850 0.55385
 O373 O 0.37844 0.91033 0.55932
 O374 O 0.35185 0.87545 0.55270
 O375 O 0.44279 0.87702 0.58779
 O376 O 0.44824 0.84935 0.62405
 O377 O 0.41278 0.94010 0.62194
 O378 O 0.38233 0.94682 0.64879
 O379 O 0.37699 0.81067 0.65878
 O380 O 0.40368 0.80504 0.62481
 O381 O 0.31308 0.84055 0.62437
 O382 O 0.30822 0.87488 0.59658
 O383 O 0.34139 0.87436 0.68923
 O384 O 0.37715 0.90141 0.69469
 Zr385 Zr 0.37573 0.87338 0.66840
 O386 O 0.39878 0.89701 0.64606
 Zr387 Zr 0.33353 0.87422 0.62557
 O388 O 0.35516 0.89724 0.60201
 Zr389 Zr 0.37558 0.83123 0.62524
 O390 O 0.39932 0.85312 0.60234
 Zr391 Zr 0.37918 0.91972 0.62172
 O392 O 0.35595 0.89817 0.64591
 Zr393 Zr 0.42204 0.87749 0.62207
 O394 O 0.39992 0.85368 0.64540
 Zr395 Zr 0.37906 0.87681 0.57988
 O396 O 0.35536 0.85366 0.60138
 O397 O 0.35303 0.85107 0.64814
 O398 O 0.40224 0.90012 0.59884
 C399 C 0.37720 0.81600 0.68190
 C400 C 0.31857 0.87544 0.68236
 C401 C 0.31846 0.81742 0.62397
 C402 C 0.37836 0.93344 0.56459
 C403 C 0.43586 0.93467 0.62235
 C404 C 0.43590 0.87675 0.56500
 H405 H 0.40850 0.90749 0.65696
 H406 H 0.40937 0.84220 0.59224
 H407 H 0.34256 0.84070 0.65845
 H408 H 0.34437 0.90746 0.59191
 H409 H 0.33947 0.94046 0.63560
 H410 H 0.31186 0.91505 0.61680
 H411 H 0.44468 0.83758 0.61094
 H412 H 0.41705 0.81185 0.63475
 H413 H 0.37458 0.94008 0.66351
 H414 H 0.36334 0.91244 0.69131
 H415 H 0.39033 0.83689 0.55725
 H416 H 0.36406 0.81185 0.58419
 H417 H 0.41700 0.86180 0.68722
 H418 H 0.44333 0.88823 0.66276
 H419 H 0.31388 0.86280 0.58449
 H420 H 0.33866 0.88661 0.55765
 O421 O 0.87621 0.34322 0.69056
 O422 O 0.90291 0.37836 0.69499
 O423 O 0.81203 0.37669 0.65964
 O424 O 0.80548 0.40178 0.62723
 O425 O 0.84096 0.31098 0.62747
 O426 O 0.87652 0.30543 0.60070
 O427 O 0.87769 0.44041 0.58649
 O428 O 0.84896 0.44567 0.61942
 O429 O 0.94179 0.41308 0.62334
 O430 O 0.94721 0.37825 0.65173
 O431 O 0.91232 0.37544 0.56082
 O432 O 0.87867 0.34842 0.55441
 O433 O 0.87790 0.40940 0.55942
 O434 O 0.85024 0.37217 0.55529
 O435 O 0.94216 0.37751 0.58909
 O436 O 0.94785 0.35092 0.62592
 O437 O 0.91177 0.44119 0.62128
 O438 O 0.88076 0.44843 0.64771
 O439 O 0.87614 0.31224 0.66332
 O440 O 0.90408 0.30652 0.62972
 O441 O 0.81267 0.34094 0.62567
 O442 O 0.80810 0.37445 0.59669
 O443 O 0.84010 0.37705 0.68981
 O444 O 0.87503 0.40571 0.69418
 Zr445 Zr 0.87453 0.37652 0.66914
 O446 O 0.89784 0.39911 0.64631
 Zr447 Zr 0.83282 0.37476 0.62619
 O448 O 0.85444 0.39730 0.60213
 Zr449 Zr 0.87525 0.33189 0.62854
 O450 O 0.89869 0.35332 0.60462
 Zr451 Zr 0.87818 0.42072 0.62119
 O452 O 0.85460 0.40000 0.64568
 Zr453 Zr 0.92126 0.37864 0.62331
 O454 O 0.89916 0.35580 0.64761
 Zr455 Zr 0.87860 0.37621 0.58101
 O456 O 0.85527 0.35330 0.60334
 O457 O 0.85231 0.35284 0.64997
 O458 O 0.90149 0.40038 0.59920
 C459 C 0.87650 0.31989 0.68586
 C460 C 0.81731 0.37714 0.68280
 C461 C 0.81813 0.31785 0.62629
 C462 C 0.87773 0.43273 0.56398
 C463 C 0.93486 0.43584 0.62231
 C464 C 0.93537 0.37639 0.56627
 H465 H 0.90744 0.40998 0.65694
 H466 H 0.90885 0.34216 0.59489
 H467 H 0.84185 0.34274 0.66057
 H468 H 0.84363 0.40705 0.59159
 H469 H 0.83809 0.44185 0.63325
 H470 H 0.81080 0.41510 0.61639
 H471 H 0.94407 0.33846 0.61352
 H472 H 0.91688 0.31392 0.63998
 H473 H 0.87151 0.44263 0.66195
 H474 H 0.86057 0.41585 0.69070
 H475 H 0.88816 0.33466 0.56101
 H476 H 0.86466 0.31063 0.58820
 H477 H 0.91567 0.36700 0.68934
 H478 H 0.94241 0.39081 0.66366
 H479 H 0.81386 0.36181 0.58524
 H480 H 0.83922 0.38628 0.55697
 O481 O 0.81255 0.87572 0.15861
 O482 O 0.80704 0.90178 0.12349
 O483 O 0.84129 0.81001 0.12640
 O484 O 0.87407 0.80332 0.10073
 O485 O 0.87658 0.84241 0.18966
 O486 O 0.90335 0.87754 0.19397
 O487 O 0.91270 0.87476 0.05963
 O488 O 0.88133 0.84602 0.05506
 O489 O 0.87816 0.93922 0.08544
 O490 O 0.84964 0.94518 0.12153
 O491 O 0.94218 0.91199 0.12247
 O492 O 0.94739 0.87647 0.15080
 O493 O 0.94253 0.87644 0.08793
 O494 O 0.94859 0.85015 0.12420
 O495 O 0.91211 0.94009 0.12107
 O496 O 0.87752 0.94811 0.14619
 O497 O 0.87844 0.90833 0.05822
 O498 O 0.85116 0.87253 0.05343
 O499 O 0.84062 0.87656 0.18878
 O500 O 0.87478 0.90508 0.19275
 O501 O 0.87624 0.81139 0.16247
 O502 O 0.90518 0.80634 0.12924
 O503 O 0.81302 0.83998 0.12451
 O504 O 0.80763 0.87342 0.09647
 Zr505 Zr 0.83326 0.87373 0.12509
 O506 O 0.85487 0.89620 0.10110
 Zr507 Zr 0.87557 0.83087 0.12756
 O508 O 0.89902 0.85230 0.10350
 Zr509 Zr 0.87499 0.87559 0.16812
 O510 O 0.89839 0.89812 0.14533
 Zr511 Zr 0.87906 0.87526 0.07992
 O512 O 0.85567 0.85232 0.10218
 Zr513 Zr 0.87847 0.91969 0.12030
 O514 O 0.85503 0.89885 0.14462
 Zr515 Zr 0.92166 0.87757 0.12220
 O516 O 0.89951 0.85482 0.14654
 O517 O 0.85269 0.85190 0.14900
 O518 O 0.90188 0.89944 0.09824
 C519 C 0.81784 0.87647 0.18176
 C520 C 0.81846 0.81689 0.12517
 C521 C 0.87673 0.81907 0.18499
 C522 C 0.93575 0.87552 0.06509
 C523 C 0.87825 0.93163 0.06290
 C524 C 0.93521 0.93476 0.12189
 H525 H 0.84393 0.90576 0.09056
 H526 H 0.90823 0.90873 0.15597
 H527 H 0.84219 0.84185 0.15960
 H528 H 0.90910 0.84128 0.09353
 H529 H 0.87040 0.83316 0.06132
 H530 H 0.88695 0.80679 0.08867
 H531 H 0.88580 0.94216 0.16098
 H532 H 0.86246 0.91671 0.18666
 H533 H 0.83918 0.88558 0.05649
 H534 H 0.81396 0.86197 0.08411
 H535 H 0.94325 0.88958 0.16239
 H536 H 0.91611 0.86615 0.18836
 H537 H 0.81312 0.91503 0.13405
 H538 H 0.83864 0.94178 0.10772
 H539 H 0.91718 0.81350 0.14059
 H540 H 0.94375 0.83689 0.11308
 O541 O 0.37602 0.34153 0.18984
 O542 O 0.40249 0.37566 0.19555
 O543 O 0.31195 0.37618 0.15983
 O544 O 0.30482 0.40131 0.12793
 O545 O 0.34058 0.31086 0.12617
 O546 O 0.37550 0.30578 0.09895
 O547 O 0.37780 0.44113 0.09031
 O548 O 0.34966 0.44627 0.12268
 O549 O 0.44173 0.41256 0.12369
 O550 O 0.44751 0.37646 0.15094
 O551 O 0.41169 0.37755 0.06052
 O552 O 0.37845 0.35231 0.05275
 O553 O 0.37763 0.41301 0.06028
 O554 O 0.34878 0.37566 0.05600
 O555 O 0.44167 0.37747 0.08871
 O556 O 0.44718 0.35002 0.12448
 O557 O 0.41179 0.44082 0.12426
 O558 O 0.37764 0.44713 0.15159
 O559 O 0.37595 0.31134 0.16174
 O560 O 0.40396 0.30677 0.12694
 O561 O 0.31230 0.34083 0.12528
 O562 O 0.30808 0.37506 0.09657
 O563 O 0.34010 0.37584 0.18998
 O564 O 0.37485 0.40407 0.19448
 Zr565 Zr 0.37447 0.37505 0.16928
 O566 O 0.39825 0.39786 0.14741
 Zr567 Zr 0.33254 0.37468 0.12630
 O568 O 0.35415 0.39845 0.10343
 Zr569 Zr 0.37483 0.33183 0.12720
 O570 O 0.39784 0.35417 0.10352
 Zr571 Zr 0.37815 0.42047 0.12374
 O572 O 0.35431 0.39903 0.14685
 Zr573 Zr 0.42102 0.37821 0.12306
 O574 O 0.39892 0.35491 0.14692
 Zr575 Zr 0.37802 0.37851 0.08087
 O576 O 0.35504 0.35430 0.10255
 O577 O 0.35204 0.35208 0.14941
 O578 O 0.40121 0.40139 0.10035
 C579 C 0.37634 0.31840 0.18453
 C580 C 0.31730 0.37627 0.18297
 C581 C 0.31775 0.31772 0.12541
 C582 C 0.37771 0.43582 0.06722
 C583 C 0.43486 0.43538 0.12403
 C584 C 0.43478 0.37736 0.06591
 H585 H 0.40837 0.40786 0.15834
 H586 H 0.40771 0.34328 0.09318
 H587 H 0.34160 0.34178 0.15983
 H588 H 0.34337 0.40887 0.09353
 H589 H 0.33720 0.44067 0.13441
 H590 H 0.30987 0.41495 0.11736
 H591 H 0.44262 0.33768 0.11223
 H592 H 0.41613 0.31301 0.13864
 H593 H 0.38879 0.44183 0.16464
 H594 H 0.36255 0.41593 0.18881
 H595 H 0.38365 0.33681 0.06019
 H596 H 0.36326 0.31108 0.08686
 H597 H 0.41591 0.36574 0.18881
 H598 H 0.44349 0.38901 0.16316
 H599 H 0.31345 0.36216 0.08522
 H600 H 0.33872 0.39048 0.05760
 O601 O 0.37670 0.65935 0.80903
 O602 O 0.40341 0.62432 0.80431
 O603 O 0.31247 0.62541 0.83951
 O604 O 0.30579 0.60031 0.87182
 O605 O 0.34131 0.69106 0.87208
 O606 O 0.37671 0.69637 0.89918
 O607 O 0.37795 0.56124 0.91216
 O608 O 0.34932 0.55630 0.87922
 O609 O 0.44213 0.58890 0.87594
 O610 O 0.44755 0.62407 0.84765
 O611 O 0.41253 0.62624 0.93858
 O612 O 0.37893 0.65288 0.94522
 O613 O 0.37818 0.59200 0.93951
 O614 O 0.35037 0.62927 0.94388
 O615 O 0.44245 0.62448 0.91039
 O616 O 0.44836 0.65099 0.87384
 O617 O 0.41209 0.56078 0.87757
 O618 O 0.38120 0.55387 0.85087
 O619 O 0.37655 0.69010 0.83652
 O620 O 0.40444 0.69551 0.87023
 O621 O 0.31301 0.66109 0.87359
 O622 O 0.30843 0.62741 0.90248
 O623 O 0.34061 0.62529 0.80940
 O624 O 0.37575 0.59688 0.80485
 Zr625 Zr 0.37501 0.62584 0.83014
 O626 O 0.39828 0.60309 0.85284
 Zr627 Zr 0.33318 0.62727 0.87301
 O628 O 0.35475 0.60452 0.89691
 Zr629 Zr 0.37560 0.67015 0.87110
 O630 O 0.39897 0.64854 0.89491
 Zr631 Zr 0.37853 0.58128 0.87770
 O632 O 0.35500 0.60218 0.85335
 Zr633 Zr 0.42163 0.62338 0.87609
 O634 O 0.39957 0.64640 0.85191
 Zr635 Zr 0.37886 0.62543 0.91828
 O636 O 0.35557 0.64854 0.89609
 O637 O 0.35271 0.64936 0.84944
 O638 O 0.40180 0.60142 0.89994
 C639 C 0.37698 0.68264 0.81394
 C640 C 0.31780 0.62507 0.81636
 C641 C 0.31848 0.68419 0.87309
 C642 C 0.37799 0.56871 0.93471
 C643 C 0.43518 0.56612 0.87673
 C644 C 0.43560 0.62547 0.93319
 H645 H 0.40791 0.59231 0.84215
 H646 H 0.40909 0.65963 0.90476
 H647 H 0.34227 0.65950 0.83886
 H648 H 0.34393 0.59468 0.90735
 H649 H 0.33843 0.56026 0.86544
 H650 H 0.31113 0.58686 0.88249
 H651 H 0.44412 0.66374 0.88579
 H652 H 0.41718 0.68830 0.85976
 H653 H 0.37164 0.55964 0.83681
 H654 H 0.36131 0.58667 0.80815
 H655 H 0.38783 0.66697 0.93849
 H656 H 0.36461 0.69120 0.91146
 H657 H 0.41623 0.63552 0.81018
 H658 H 0.44298 0.61135 0.83579
 H659 H 0.31411 0.64005 0.91397
 H660 H 0.33948 0.61505 0.94219
 O661 O 0.12755 0.66311 0.68889
 O662 O 0.09944 0.62829 0.69353
 O663 O 0.19228 0.62682 0.66048
 O664 O 0.19753 0.59982 0.62852
 O665 O 0.16244 0.69067 0.62398
 O666 O 0.12817 0.69590 0.59648
 O667 O 0.12554 0.56131 0.58755
 O668 O 0.15409 0.55695 0.62110
 O669 O 0.06259 0.59129 0.62329
 O670 O 0.05647 0.62626 0.65068
 O671 O 0.09058 0.62531 0.55919
 O672 O 0.12781 0.65409 0.55481
 O673 O 0.12575 0.59138 0.55943
 O674 O 0.15150 0.62493 0.55199
 O675 O 0.06246 0.62543 0.58924
 O676 O 0.05637 0.65273 0.62484
 O677 O 0.09066 0.56120 0.62219
 O678 O 0.12197 0.55541 0.64954
 O679 O 0.12739 0.69118 0.65869
 O680 O 0.10069 0.69675 0.62446
 O681 O 0.19238 0.66233 0.62513
 O682 O 0.19666 0.62761 0.59705
 O683 O 0.16224 0.62735 0.68870
 O684 O 0.12702 0.60101 0.69513
 Zr685 Zr 0.12847 0.62856 0.66835
 O686 O 0.10561 0.60482 0.64640
 Zr687 Zr 0.17151 0.62805 0.62617
 O688 O 0.14913 0.60496 0.60251
 Zr689 Zr 0.12867 0.67043 0.62526
 O690 O 0.10505 0.64888 0.60234
 Zr691 Zr 0.12489 0.58197 0.62191
 O692 O 0.14842 0.60384 0.64595
 Zr693 Zr 0.08297 0.62498 0.62279
 O694 O 0.10449 0.64870 0.64592
 Zr695 Zr 0.12498 0.62497 0.57983
 O696 O 0.14905 0.64794 0.60157
 O697 O 0.15133 0.65096 0.64837
 O698 O 0.10190 0.60195 0.59927
 C699 C 0.12717 0.68591 0.68183
 C700 C 0.18535 0.62669 0.68330
 C701 C 0.18553 0.68517 0.62420
 C702 C 0.12574 0.56829 0.56475
 C703 C 0.06789 0.56817 0.62273
 C704 C 0.06779 0.62534 0.56614
 H705 H 0.09575 0.59450 0.65733
 H706 H 0.09489 0.65982 0.59234
 H707 H 0.16166 0.66142 0.65874
 H708 H 0.15986 0.59475 0.59234
 H709 H 0.16499 0.56140 0.63471
 H710 H 0.19283 0.58723 0.61657
 H711 H 0.06020 0.66496 0.61222
 H712 H 0.08761 0.69056 0.63516
 H713 H 0.13187 0.56135 0.66328
 H714 H 0.14024 0.58939 0.69140
 H715 H 0.11304 0.66423 0.55642
 H716 H 0.13979 0.68988 0.58413
 H717 H 0.08750 0.64044 0.68773
 H718 H 0.06118 0.61432 0.66327
 H719 H 0.19124 0.64019 0.58536
 H720 H 0.16632 0.61744 0.55885
 O721 O 0.12716 0.16013 0.18985
 O722 O 0.10058 0.12576 0.19543
 O723 O 0.19233 0.12642 0.16109
 O724 O 0.19835 0.10015 0.12889
 O725 O 0.16190 0.19021 0.12584
 O726 O 0.12781 0.19606 0.09931
 O727 O 0.12555 0.06063 0.09015
 O728 O 0.15311 0.05503 0.12209
 O729 O 0.06255 0.09038 0.12395
 O730 O 0.05570 0.12543 0.15070
 O731 O 0.09084 0.12398 0.05984
 O732 O 0.12632 0.15065 0.05358
 O733 O 0.12572 0.08880 0.06013
 O734 O 0.15381 0.12522 0.05505
 O735 O 0.06265 0.12456 0.08981
 O736 O 0.05678 0.15222 0.12547
 O737 O 0.09068 0.06033 0.12382
 O738 O 0.12622 0.05528 0.15225
 O739 O 0.12720 0.19032 0.16177
 O740 O 0.09917 0.19484 0.12667
 O741 O 0.19201 0.16203 0.12593
 O742 O 0.19578 0.12762 0.09707
 O743 O 0.16234 0.12554 0.18939
 O744 O 0.12819 0.09789 0.19460
 Zr745 Zr 0.12857 0.12666 0.16913
 O746 O 0.10505 0.10375 0.14750
 Zr747 Zr 0.17144 0.12756 0.12688
 O748 O 0.14919 0.10376 0.10380
 Zr749 Zr 0.12824 0.16971 0.12726
 O750 O 0.10546 0.14776 0.10339
 Zr751 Zr 0.12494 0.08113 0.12366
 O752 O 0.14897 0.10287 0.14672
 Zr753 Zr 0.08294 0.12404 0.12353
 O754 O 0.10431 0.14720 0.14736
 Zr755 Zr 0.12512 0.12333 0.08065
 O756 O 0.14830 0.14728 0.10282
 O757 O 0.15117 0.14982 0.14966
 O758 O 0.10202 0.10065 0.10048
 C759 C 0.12685 0.18327 0.18458
 C760 C 0.18544 0.12570 0.18391
 C761 C 0.18503 0.18484 0.12555
 C762 C 0.12573 0.06598 0.06707
 C763 C 0.06790 0.06727 0.12383
 C764 C 0.06803 0.12430 0.06672
 H765 H 0.09480 0.09385 0.15842
 H766 H 0.09537 0.15867 0.09331
 H767 H 0.16145 0.16021 0.16015
 H768 H 0.15997 0.09331 0.09394
 H769 H 0.16619 0.06103 0.13291
 H770 H 0.19392 0.08742 0.11698
 H771 H 0.06052 0.16415 0.11256
 H772 H 0.08721 0.18909 0.13884
 H773 H 0.11261 0.05862 0.16351
 H774 H 0.13956 0.08540 0.18837
 H775 H 0.11538 0.16393 0.05878
 H776 H 0.13796 0.18942 0.08600
 H777 H 0.08752 0.13652 0.18929
 H778 H 0.06042 0.11403 0.16377
 H779 H 0.18973 0.14000 0.08549
 H780 H 0.16522 0.11178 0.05857
 O781 O 0.69185 0.37452 0.83863
 O782 O 0.69651 0.40224 0.87317
 O783 O 0.66208 0.31064 0.87553
 O784 O 0.63065 0.30435 0.90172
 O785 O 0.62721 0.33838 0.81033
 O786 O 0.59911 0.37320 0.80573
 O787 O 0.59051 0.37630 0.94031
 O788 O 0.62451 0.34774 0.94454
 O789 O 0.62553 0.44038 0.91129
 O790 O 0.65300 0.44582 0.87570
 O791 O 0.56242 0.41026 0.87603
 O792 O 0.55638 0.37460 0.84865
 O793 O 0.56235 0.37614 0.91030
 O794 O 0.55585 0.34907 0.87521
 O795 O 0.59058 0.44027 0.87640
 O796 O 0.62676 0.44570 0.84880
 O797 O 0.62497 0.41057 0.93966
 O798 O 0.65193 0.38015 0.94639
 O799 O 0.66174 0.37452 0.81045
 O800 O 0.62750 0.40083 0.80460
 O801 O 0.62727 0.31036 0.84056
 O802 O 0.59942 0.30579 0.87491
 O803 O 0.69208 0.33887 0.87401
 O804 O 0.69750 0.37467 0.90121
 Zr805 Zr 0.67128 0.37325 0.87311
 O806 O 0.64896 0.39644 0.89660
 Zr807 Zr 0.62846 0.33104 0.87411
 O808 O 0.60495 0.35276 0.89711
 Zr809 Zr 0.62813 0.37287 0.83093
 O810 O 0.60520 0.39667 0.85277
 Zr811 Zr 0.62471 0.37688 0.91944
 O812 O 0.64883 0.35354 0.89796
 Zr813 Zr 0.62490 0.41956 0.87700
 O814 O 0.64824 0.39734 0.85330
 Zr815 Zr 0.58276 0.37655 0.87662
 O816 O 0.60425 0.35279 0.85348
 O817 O 0.65104 0.35046 0.85087
 O818 O 0.60176 0.39984 0.89979
 C819 C 0.68487 0.37496 0.81582
 C820 C 0.68519 0.31606 0.87511
 C821 C 0.62694 0.31559 0.81740
 C822 C 0.56770 0.37620 0.93340
 C823 C 0.62531 0.43362 0.93414
 C824 C 0.56779 0.43336 0.87619
 H825 H 0.65987 0.40622 0.90702
 H826 H 0.59507 0.40666 0.84182
 H827 H 0.66136 0.34000 0.84050
 H828 H 0.59489 0.34201 0.90741
 H829 H 0.63853 0.33724 0.94033
 H830 H 0.61972 0.30952 0.91502
 H831 H 0.61378 0.44194 0.83695
 H832 H 0.63736 0.41430 0.81134
 H833 H 0.66651 0.37204 0.93976
 H834 H 0.69424 0.36072 0.91210
 H835 H 0.56035 0.38718 0.83643
 H836 H 0.58709 0.36118 0.81164
 H837 H 0.69004 0.41463 0.86183
 H838 H 0.66542 0.44115 0.88782
 H839 H 0.58731 0.31143 0.86284
 H840 H 0.56041 0.33634 0.88706
 O841 O 0.12772 0.84249 0.80897
 O842 O 0.10105 0.87796 0.80436
 O843 O 0.19302 0.87537 0.83825
 O844 O 0.19877 0.90147 0.87097
 O845 O 0.16246 0.81121 0.87228
 O846 O 0.12776 0.80511 0.89876
 O847 O 0.12602 0.94044 0.91208
 O848 O 0.15472 0.94578 0.88048
 O849 O 0.06349 0.91158 0.87541
 O850 O 0.05808 0.87574 0.84674
 O851 O 0.09117 0.87555 0.93911
 O852 O 0.12677 0.84759 0.94405
 O853 O 0.12620 0.90970 0.93948
 O854 O 0.15319 0.87365 0.94494
 O855 O 0.06304 0.87646 0.90910
 O856 O 0.05559 0.85132 0.87440
 O857 O 0.09171 0.94151 0.87689
 O858 O 0.12752 0.94753 0.85003
 O859 O 0.12795 0.81169 0.83641
 O860 O 0.10003 0.80615 0.87041
 O861 O 0.19261 0.83936 0.87294
 O862 O 0.19656 0.87295 0.90217
 O863 O 0.16305 0.87710 0.81000
 O864 O 0.12953 0.90481 0.80508
 Zr865 Zr 0.12931 0.87584 0.83032
 O866 O 0.10614 0.89865 0.85261
 Zr867 Zr 0.17209 0.87380 0.87247
 O868 O 0.14983 0.89673 0.89641
 Zr869 Zr 0.12877 0.83166 0.87100
 O870 O 0.10561 0.85293 0.89492
 Zr871 Zr 0.12586 0.92055 0.87753
 O872 O 0.14959 0.89916 0.85352
 Zr873 Zr 0.08357 0.87770 0.87552
 O874 O 0.10494 0.85479 0.85144
 Zr875 Zr 0.12546 0.87623 0.91837
 O876 O 0.14898 0.85326 0.89586
 O877 O 0.15180 0.85212 0.84917
 O878 O 0.10264 0.90005 0.89959
 C879 C 0.12750 0.81918 0.81383
 C880 C 0.18616 0.87657 0.81543
 C881 C 0.18560 0.81658 0.87290
 C882 C 0.12616 0.93298 0.93464
 C883 C 0.06891 0.93465 0.87606
 C884 C 0.06838 0.87587 0.93221
 H885 H 0.09607 0.90891 0.84187
 H886 H 0.09531 0.84183 0.90457
 H887 H 0.16208 0.84193 0.83848
 H888 H 0.16061 0.90660 0.90684
 H889 H 0.16728 0.94054 0.86870
 H890 H 0.19474 0.91348 0.88373
 H891 H 0.06171 0.83662 0.88272
 H892 H 0.08791 0.81241 0.85866
 H893 H 0.11533 0.94348 0.83746
 H894 H 0.14037 0.91743 0.81196
 H895 H 0.11403 0.83569 0.93967
 H896 H 0.13847 0.81113 0.91191
 H897 H 0.08844 0.86623 0.80959
 H898 H 0.06094 0.88978 0.83586
 H899 H 0.19024 0.86067 0.91371
 H900 H 0.16567 0.88600 0.94106
 O901 O 0.69276 0.12698 0.66024
 O902 O 0.69785 0.10020 0.62469
 O903 O 0.66202 0.19091 0.62656
 O904 O 0.62987 0.19829 0.60142
 O905 O 0.62751 0.15911 0.68988
 O906 O 0.60093 0.12359 0.69431
 O907 O 0.59066 0.12635 0.55956
 O908 O 0.62312 0.15587 0.55601
 O909 O 0.62604 0.06203 0.58597
 O910 O 0.65234 0.05412 0.61810
 O911 O 0.56302 0.09054 0.62317
 O912 O 0.55737 0.12563 0.65171
 O913 O 0.56264 0.12535 0.58968
 O914 O 0.55583 0.15127 0.62522
 O915 O 0.59131 0.06070 0.62147
 O916 O 0.62956 0.05579 0.64910
 O917 O 0.62590 0.09292 0.55872
 O918 O 0.65228 0.12768 0.55308
 O919 O 0.66290 0.12463 0.68855
 O920 O 0.62942 0.09671 0.69332
 O921 O 0.62767 0.19007 0.66262
 O922 O 0.59870 0.19485 0.62898
 O923 O 0.69221 0.16282 0.62559
 O924 O 0.69683 0.12886 0.59690
 Zr925 Zr 0.67174 0.12837 0.62600
 O926 O 0.64943 0.10563 0.60209
 Zr927 Zr 0.62840 0.17038 0.62787
 O928 O 0.60520 0.14920 0.60379
 Zr929 Zr 0.62913 0.12587 0.66830
 O930 O 0.60585 0.10315 0.64595
 Zr931 Zr 0.62496 0.12606 0.58021
 O932 O 0.64859 0.14901 0.60267
 Zr933 Zr 0.62559 0.08157 0.62080
 O934 O 0.64944 0.10281 0.64482
 Zr935 Zr 0.58323 0.12431 0.62322
 O936 O 0.60473 0.14700 0.64739
 O937 O 0.65147 0.14981 0.64954
 O938 O 0.60222 0.10213 0.59899
 C939 C 0.68598 0.12549 0.68307
 C940 C 0.68516 0.18559 0.62584
 C941 C 0.62726 0.18246 0.68515
 C942 C 0.56790 0.12585 0.56656
 C943 C 0.62607 0.06963 0.56343
 C944 C 0.56849 0.06749 0.62234
 H945 H 0.66033 0.09590 0.59162
 H946 H 0.59592 0.09268 0.65665
 H947 H 0.66175 0.15998 0.66024
 H948 H 0.59494 0.16018 0.59395
 H949 H 0.63532 0.16783 0.56169
 H950 H 0.61794 0.19420 0.58860
 H951 H 0.61505 0.05695 0.65966
 H952 H 0.64045 0.08425 0.68646
 H953 H 0.66602 0.11744 0.55846
 H954 H 0.69076 0.14109 0.58517
 H955 H 0.56108 0.11224 0.66312
 H956 H 0.58829 0.13534 0.68916
 H957 H 0.69303 0.08817 0.63719
 H958 H 0.66796 0.06244 0.61507
 H959 H 0.58708 0.18836 0.64110
 H960 H 0.56070 0.16484 0.61448
 C961 C 0.37700 0.77049 0.74112
 C962 C 0.37839 0.74864 0.72915
 C963 C 0.37949 0.74773 0.70376
 C964 C 0.37915 0.76961 0.68991
 C965 C 0.37772 0.79340 0.70041
 C966 C 0.37663 0.79338 0.72715
 O967 O 0.37609 0.76675 0.76567
 C968 C 0.37694 0.74215 0.76904
 C969 C 0.37835 0.73046 0.74705
 C970 C 0.37937 0.70504 0.74581
 C971 C 0.37895 0.69088 0.76751
 C972 C 0.37753 0.70113 0.79138
 C973 C 0.37652 0.72787 0.79170
 H974 H 0.38058 0.73035 0.69458
 H975 H 0.38003 0.76767 0.67035
 H976 H 0.37546 0.81050 0.73675
 H977 H 0.38046 0.69610 0.72831
 H978 H 0.37977 0.67133 0.76543
 H979 H 0.37535 0.73725 0.80894
 C980 C 0.37635 0.23134 0.25835
 C981 C 0.37776 0.25333 0.27003
 C982 C 0.37884 0.25459 0.29544
 C983 C 0.37847 0.23290 0.30961
 C984 C 0.37705 0.20904 0.29934
 C985 C 0.37597 0.20870 0.27262
 O986 O 0.37544 0.23471 0.23375
 C987 C 0.37631 0.25925 0.23001
 C988 C 0.37774 0.27122 0.25186
 C989 C 0.37882 0.29661 0.25278
 C990 C 0.37842 0.31046 0.23091
 C991 C 0.37694 0.29993 0.20713
 C992 C 0.37588 0.27321 0.20714
 H993 H 0.37993 0.27209 0.30438
 H994 H 0.37933 0.23498 0.32915
 H995 H 0.37480 0.19145 0.26325
 H996 H 0.37994 0.30579 0.27015
 H997 H 0.37929 0.33002 0.23283
 H998 H 0.37468 0.26360 0.19002
 C999 C 0.62725 0.77084 0.25796
 C1000 C 0.62635 0.74886 0.26971
 C1001 C 0.62574 0.74765 0.29515
 C1002 C 0.62603 0.76939 0.30926
 C1003 C 0.62693 0.79325 0.29892
 C1004 C 0.62756 0.79353 0.27218
 O1005 O 0.62776 0.76743 0.23336
 C1006 C 0.62716 0.74287 0.22968
 C1007 C 0.62629 0.73092 0.25157
 C1008 C 0.62557 0.70551 0.25253
 C1009 C 0.62575 0.69163 0.23067
 C1010 C 0.62663 0.70213 0.20685
 C1011 C 0.62735 0.72887 0.20682
 H1012 H 0.62505 0.73016 0.30415
 H1013 H 0.62555 0.76735 0.32882
 H1014 H 0.62831 0.81077 0.26275
 H1015 H 0.62491 0.69635 0.26994
 H1016 H 0.62519 0.67206 0.23264
 H1017 H 0.62810 0.73846 0.18967
 C1018 C 0.12684 0.27034 0.25852
 C1019 C 0.12594 0.24832 0.27021
 C1020 C 0.12527 0.24705 0.29564
 C1021 C 0.12551 0.26876 0.30981
 C1022 C 0.12640 0.29265 0.29955
 C1023 C 0.12709 0.29299 0.27281
 O1024 O 0.12741 0.26699 0.23390
 C1025 C 0.12684 0.24244 0.23015
 C1026 C 0.12594 0.23044 0.25201
 C1027 C 0.12526 0.20502 0.25291
 C1028 C 0.12550 0.19119 0.23101
 C1029 C 0.12642 0.20174 0.20722
 C1030 C 0.12711 0.22849 0.20725
 H1031 H 0.12459 0.22954 0.30459
 H1032 H 0.12499 0.26665 0.32937
 H1033 H 0.12784 0.31026 0.26342
 H1034 H 0.12457 0.19581 0.27029
 H1035 H 0.12497 0.17162 0.23294
 H1036 H 0.12789 0.23813 0.19013
 C1037 C 0.12733 0.73140 0.74100
 C1038 C 0.12645 0.75328 0.72902
 C1039 C 0.12574 0.75421 0.70361
 C1040 C 0.12592 0.73233 0.68977
 C1041 C 0.12682 0.70853 0.70030
 C1042 C 0.12754 0.70852 0.72704
 O1043 O 0.12793 0.73512 0.76556
 C1044 C 0.12741 0.75974 0.76893
 C1045 C 0.12650 0.77145 0.74692
 C1046 C 0.12587 0.79688 0.74567
 C1047 C 0.12616 0.81102 0.76738
 C1048 C 0.12706 0.80073 0.79125
 C1049 C 0.12771 0.77400 0.79158
 H1050 H 0.12506 0.77160 0.69442
 H1051 H 0.12537 0.73427 0.67019
 H1052 H 0.12830 0.69139 0.73666
 H1053 H 0.12518 0.80584 0.72816
 H1054 H 0.12567 0.83058 0.76530
 H1055 H 0.12847 0.76459 0.80884
 C1056 C 0.87665 0.23256 0.75928
 C1057 C 0.87757 0.25446 0.77120
 C1058 C 0.87828 0.25542 0.79665
 C1059 C 0.87806 0.23353 0.81056
 C1060 C 0.87714 0.20975 0.80003
 C1061 C 0.87642 0.20973 0.77330
 O1062 O 0.87605 0.23615 0.73472
 C1063 C 0.87660 0.26074 0.73122
 C1064 C 0.87753 0.27256 0.75318
 C1065 C 0.87820 0.29801 0.75424
 C1066 C 0.87792 0.31202 0.73242
 C1067 C 0.87697 0.30159 0.70860
 C1068 C 0.87630 0.27485 0.70846
 H1069 H 0.87899 0.27282 0.80580
 H1070 H 0.87862 0.23540 0.83014
 H1071 H 0.87565 0.19258 0.76370
 H1072 H 0.87892 0.30709 0.77168
 H1073 H 0.87844 0.33159 0.73437
 H1074 H 0.87551 0.26533 0.69128
 C1075 C 0.77239 0.37627 0.74241
 C1076 C 0.75042 0.37740 0.73065
 C1077 C 0.74923 0.37854 0.70526
 C1078 C 0.77096 0.37851 0.69117
 C1079 C 0.79485 0.37738 0.70145
 C1080 C 0.79512 0.37623 0.72819
 O1081 O 0.76891 0.37525 0.76700
 C1082 C 0.74432 0.37577 0.77063
 C1083 C 0.73244 0.37709 0.74873
 C1084 C 0.70703 0.37780 0.74768
 C1085 C 0.69307 0.37716 0.76948
 C1086 C 0.70347 0.37578 0.79331
 C1087 C 0.73023 0.37509 0.79343
 H1088 H 0.73174 0.37941 0.69626
 H1089 H 0.76885 0.37937 0.67163
 H1090 H 0.81235 0.37525 0.73761
 H1091 H 0.69794 0.37883 0.73026
 H1092 H 0.67351 0.37775 0.76745
 H1093 H 0.73976 0.37400 0.81060
 C1094 C 0.27290 0.62570 0.75672
 C1095 C 0.25092 0.62472 0.76847
 C1096 C 0.24972 0.62377 0.79387
 C1097 C 0.27145 0.62383 0.80796
 C1098 C 0.29535 0.62481 0.79769
 C1099 C 0.29563 0.62577 0.77094
 O1100 O 0.26942 0.62654 0.73212
 C1101 C 0.24483 0.62606 0.72848
 C1102 C 0.23295 0.62495 0.75039
 C1103 C 0.20754 0.62432 0.75145
 C1104 C 0.19357 0.62484 0.72965
 C1105 C 0.20397 0.62600 0.70581
 C1106 C 0.23073 0.62660 0.70568
 H1107 H 0.23224 0.62302 0.80287
 H1108 H 0.26933 0.62311 0.82751
 H1109 H 0.31287 0.62663 0.76151
 H1110 H 0.19844 0.62345 0.76888
 H1111 H 0.17401 0.62431 0.73169
 H1112 H 0.24026 0.62753 0.68850
 C1113 C 0.27316 0.12687 0.25688
 C1114 C 0.25126 0.12510 0.26870
 C1115 C 0.25014 0.12393 0.29407
 C1116 C 0.27188 0.12454 0.30808
 C1117 C 0.29570 0.12633 0.29774
 C1118 C 0.29590 0.12753 0.27102
 O1119 O 0.26957 0.12778 0.23230
 C1120 C 0.24500 0.12655 0.22877
 C1121 C 0.23324 0.12490 0.25071
 C1122 C 0.20788 0.12344 0.25189
 C1123 C 0.19382 0.12367 0.23017
 C1124 C 0.20411 0.12534 0.20631
 C1125 C 0.23082 0.12681 0.20605
 H1126 H 0.23271 0.12256 0.30311
 H1127 H 0.26981 0.12358 0.32763
 H1128 H 0.31309 0.12895 0.26155
 H1129 H 0.19889 0.12216 0.26935
 H1130 H 0.17429 0.12253 0.23227
 H1131 H 0.24023 0.12819 0.18884
 C1132 C 0.77370 0.12700 0.75622
 C1133 C 0.75183 0.12452 0.76796
 C1134 C 0.75071 0.12281 0.79331
 C1135 C 0.77242 0.12362 0.80738
 C1136 C 0.79623 0.12613 0.79714
 C1137 C 0.79642 0.12786 0.77043
 O1138 O 0.77011 0.12834 0.73166
 C1139 C 0.74557 0.12666 0.72805
 C1140 C 0.73382 0.12429 0.74993
 C1141 C 0.70850 0.12226 0.75102
 C1142 C 0.69445 0.12263 0.72929
 C1143 C 0.70470 0.12503 0.70547
 C1144 C 0.73139 0.12709 0.70530
 H1145 H 0.73331 0.12089 0.80229
 H1146 H 0.77034 0.12223 0.82690
 H1147 H 0.81358 0.12984 0.76103
 H1148 H 0.69952 0.12041 0.76844
 H1149 H 0.67495 0.12102 0.73136
 H1150 H 0.74079 0.12905 0.68813
 C1151 C 0.74482 0.87585 0.26945
 C1152 C 0.73295 0.87675 0.24752
 C1153 C 0.70754 0.87725 0.24642
 C1154 C 0.69356 0.87681 0.26820
 C1155 C 0.70397 0.87588 0.29205
 C1156 C 0.73071 0.87541 0.29223
 O1157 O 0.76941 0.87547 0.26586
 C1158 C 0.77291 0.87615 0.24127
 C1159 C 0.75094 0.87695 0.22947
 C1160 C 0.74976 0.87771 0.20407
 C1161 C 0.77150 0.87765 0.19002
 C1162 C 0.79537 0.87683 0.20036
 C1163 C 0.79564 0.87607 0.22709
 H1164 H 0.69846 0.87795 0.22898
 H1165 H 0.67400 0.87722 0.26616
 H1166 H 0.74023 0.87466 0.30942
 H1167 H 0.73228 0.87833 0.19505
 H1168 H 0.76940 0.87823 0.17046
 H1169 H 0.81287 0.87535 0.23654
 C1170 C 0.77307 0.74374 0.37500
 C1171 C 0.75110 0.73208 0.37684
 C1172 C 0.74984 0.70671 0.37834
 C1173 C 0.77151 0.69254 0.37796
 C1174 C 0.79540 0.70272 0.37611
 C1175 C 0.79574 0.72944 0.37462
 O1176 O 0.76964 0.76833 0.37371
 C1177 C 0.74509 0.77206 0.37478
 C1178 C 0.73318 0.75022 0.37671
 C1179 C 0.70780 0.74927 0.37808
 C1180 C 0.69389 0.77109 0.37748
 C1181 C 0.70432 0.79487 0.37549
 C1182 C 0.73105 0.79490 0.37412
 H1183 H 0.73235 0.69780 0.37977
 H1184 H 0.76936 0.67302 0.37915
 H1185 H 0.81298 0.73878 0.37308
 H1186 H 0.69868 0.73189 0.37958
 H1187 H 0.67434 0.76913 0.37857
 H1188 H 0.74060 0.81202 0.37252
 C1189 C 0.77300 0.25842 0.62624
 C1190 C 0.75109 0.27032 0.62540
 C1191 C 0.75002 0.29572 0.62484
 C1192 C 0.77181 0.30966 0.62512
 C1193 C 0.79566 0.29924 0.62597
 C1194 C 0.79581 0.27249 0.62656
 O1195 O 0.76937 0.23384 0.62666
 C1196 C 0.74477 0.23039 0.62608
 C1197 C 0.73301 0.25238 0.62531
 C1198 C 0.70761 0.25362 0.62464
 C1199 C 0.69351 0.23192 0.62477
 C1200 C 0.70380 0.20802 0.62554
 C1201 C 0.73054 0.20769 0.62620
 H1202 H 0.73258 0.30482 0.62420
 H1203 H 0.76975 0.32922 0.62468
 H1204 H 0.81300 0.26296 0.62726
 H1205 H 0.69863 0.27112 0.62405
 H1206 H 0.67396 0.23405 0.62425
 H1207 H 0.73995 0.19044 0.62686
 C1208 C 0.74492 0.72953 0.12554
 C1209 C 0.73324 0.75151 0.12386
 C1210 C 0.70787 0.75279 0.12256
 C1211 C 0.69371 0.73112 0.12299
 C1212 C 0.70391 0.70724 0.12470
 C1213 C 0.73063 0.70687 0.12599
 O1214 O 0.76952 0.73296 0.12661
 C1215 C 0.77322 0.75752 0.12557
 C1216 C 0.75136 0.76942 0.12388
 C1217 C 0.75036 0.79480 0.12259
 C1218 C 0.77216 0.80872 0.12302
 C1219 C 0.79597 0.79829 0.12473
 C1220 C 0.79604 0.77157 0.12604
 H1221 H 0.69895 0.77028 0.12125
 H1222 H 0.67419 0.73330 0.12194
 H1223 H 0.73998 0.68963 0.12738
 H1224 H 0.73296 0.80390 0.12128
 H1225 H 0.77016 0.82826 0.12198
 H1226 H 0.81319 0.76203 0.12742
 C1227 C 0.27275 0.25808 0.12567
 C1228 C 0.25081 0.26988 0.12425
 C1229 C 0.24968 0.29527 0.12316
 C1230 C 0.27143 0.30932 0.12352
 C1231 C 0.29530 0.29901 0.12496
 C1232 C 0.29551 0.27227 0.12606
 O1233 O 0.26919 0.23349 0.12657
 C1234 C 0.24460 0.22991 0.12568
 C1235 C 0.23279 0.25184 0.12425
 C1236 C 0.20739 0.25294 0.12316
 C1237 C 0.19336 0.23118 0.12355
 C1238 C 0.20369 0.20733 0.12501
 C1239 C 0.23044 0.20714 0.12608
 H1240 H 0.23223 0.30429 0.12206
 H1241 H 0.26933 0.32886 0.12265
 H1242 H 0.31271 0.26281 0.12723
 H1243 H 0.19835 0.27039 0.12205
 H1244 H 0.17381 0.23325 0.12267
 H1245 H 0.23991 0.18995 0.12727
 C1246 C 0.27340 0.74366 0.87286
 C1247 C 0.25148 0.73179 0.87383
 C1248 C 0.25038 0.70640 0.87457
 C1249 C 0.27216 0.69243 0.87435
 C1250 C 0.29602 0.70282 0.87338
 C1251 C 0.29619 0.72956 0.87260
 O1252 O 0.26979 0.76824 0.87226
 C1253 C 0.24519 0.77173 0.87286
 C1254 C 0.23342 0.74976 0.87382
 C1255 C 0.20802 0.74854 0.87454
 C1256 C 0.19394 0.77026 0.87428
 C1257 C 0.20424 0.79414 0.87330
 C1258 C 0.23098 0.79444 0.87260
 H1259 H 0.23294 0.69732 0.87532
 H1260 H 0.27009 0.67287 0.87494
 H1261 H 0.31339 0.73907 0.87180
 H1262 H 0.19902 0.73105 0.87529
 H1263 H 0.17439 0.76813 0.87486
 H1264 H 0.24041 0.81168 0.87179
 C1265 C 0.27285 0.24351 0.37539
 C1266 C 0.25093 0.23173 0.37716
 C1267 C 0.24982 0.20634 0.37854
 C1268 C 0.27157 0.19230 0.37809
 C1269 C 0.29540 0.20262 0.37630
 C1270 C 0.29560 0.22934 0.37494
 O1271 O 0.26928 0.26809 0.37422
 C1272 C 0.24471 0.27167 0.37531
 C1273 C 0.23291 0.24976 0.37712
 C1274 C 0.20754 0.24866 0.37847
 C1275 C 0.19351 0.27041 0.37798
 C1276 C 0.20382 0.29425 0.37612
 C1277 C 0.23055 0.29443 0.37475
 H1278 H 0.23238 0.19733 0.37991
 H1279 H 0.26952 0.17276 0.37919
 H1280 H 0.31279 0.23879 0.37346
 H1281 H 0.19851 0.23123 0.37988
 H1282 H 0.17397 0.26834 0.37906
 H1283 H 0.24000 0.31161 0.37325
 C1284 C 0.52321 0.62509 0.00655
 C1285 C 0.50123 0.62558 0.01833
 C1286 C 0.50002 0.62591 0.04374
 C1287 C 0.52174 0.62574 0.05782
 C1288 C 0.54565 0.62526 0.04754
 C1289 C 0.54595 0.62491 0.02078
 O1290 O 0.51972 0.62482 -0.01806
 C1291 C 0.49513 0.62517 -0.02168
 C1292 C 0.48325 0.62565 0.00025
 C1293 C 0.45784 0.62607 0.00134
 C1294 C 0.44386 0.62604 -0.02045
 C1295 C 0.45425 0.62557 -0.04432
 C1296 C 0.48102 0.62510 -0.04448
 H1297 H 0.48252 0.62627 0.05274
 H1298 H 0.51958 0.62598 0.07738
 H1299 H 0.56319 0.62450 0.01134
 H1300 H 0.44875 0.62642 0.01880
 H1301 H 0.42430 0.62634 -0.01837
 H1302 H 0.49054 0.62469 -0.06169
 C1303 C 0.49463 0.12524 0.47904
 C1304 C 0.48283 0.12456 0.50101
 C1305 C 0.45743 0.12381 0.50219
 C1306 C 0.44338 0.12377 0.48045
 C1307 C 0.45371 0.12446 0.45656
 C1308 C 0.48045 0.12521 0.45629
 O1309 O 0.51922 0.12589 0.48254
 C1310 C 0.52280 0.12560 0.50713
 C1311 C 0.50087 0.12479 0.51900
 C1312 C 0.49976 0.12436 0.54441
 C1313 C 0.52154 0.12477 0.55840
 C1314 C 0.54539 0.12564 0.54799
 C1315 C 0.54557 0.12603 0.52125
 H1316 H 0.44841 0.12327 0.51967
 H1317 H 0.42383 0.12317 0.48256
 H1318 H 0.48991 0.12574 0.43906
 H1319 H 0.48231 0.12370 0.55349
 H1320 H 0.51949 0.12437 0.57796
 H1321 H 0.56278 0.12663 0.51173
 C1322 C 0.52368 0.87770 0.49208
 C1323 C 0.50174 0.87794 0.48021
 C1324 C 0.50061 0.87833 0.45481
 C1325 C 0.52237 0.87844 0.44083
 C1326 C 0.54625 0.87818 0.45121
 C1327 C 0.54647 0.87784 0.47796
 O1328 O 0.52010 0.87733 0.51667
 C1329 C 0.49550 0.87733 0.52016
 C1330 C 0.48369 0.87770 0.49819
 C1331 C 0.45829 0.87777 0.49697
 C1332 C 0.44423 0.87743 0.51869
 C1333 C 0.45455 0.87701 0.54258
 C1334 C 0.48130 0.87700 0.54288
 H1335 H 0.48314 0.87854 0.44574
 H1336 H 0.52028 0.87877 0.42127
 H1337 H 0.56368 0.87763 0.48746
 H1338 H 0.44928 0.87808 0.47948
 H1339 H 0.42467 0.87754 0.51655
 H1340 H 0.49075 0.87673 0.56013
 C1341 C 0.02310 0.37724 0.49317
 C1342 C 0.00114 0.37655 0.48135
 C1343 C -0.00004 0.37615 0.45595
 C1344 C 0.02170 0.37644 0.44191
 C1345 C 0.04559 0.37711 0.45223
 C1346 C 0.04585 0.37755 0.47899
 O1347 O 0.01957 0.37754 0.51777
 C1348 C -0.00503 0.37701 0.52133
 C1349 C -0.01686 0.37639 0.49937
 C1350 C -0.04226 0.37576 0.49821
 C1351 C -0.05628 0.37574 0.51996
 C1352 C -0.04594 0.37634 0.54385
 C1353 C -0.01919 0.37703 0.54409
 H1354 H -0.01752 0.37563 0.44692
 H1355 H 0.01956 0.37612 0.42235
 H1356 H 0.06308 0.37809 0.48845
 H1357 H -0.05130 0.37530 0.48074
 H1358 H -0.07584 0.37527 0.51784
 H1359 H -0.00972 0.37756 0.56132
 C1360 C -0.00466 0.87560 0.02004
 C1361 C -0.01652 0.87564 -0.00191
 C1362 C -0.04193 0.87566 -0.00303
 C1363 C -0.05592 0.87559 0.01875
 C1364 C -0.04556 0.87552 0.04264
 C1365 C -0.01879 0.87557 0.04283
 O1366 O 0.01994 0.87560 0.01645
 C1367 C 0.02345 0.87563 -0.00816
 C1368 C 0.00148 0.87567 -0.01996
 C1369 C 0.00028 0.87573 -0.04538
 C1370 C 0.02202 0.87575 -0.05944
 C1371 C 0.04592 0.87569 -0.04912
 C1372 C 0.04620 0.87564 -0.02236
 H1373 H -0.05100 0.87572 -0.02049
 H1374 H -0.07549 0.87565 0.01664
 H1375 H -0.00928 0.87556 0.06005
 H1376 H -0.01720 0.87579 -0.05440
 H1377 H 0.01990 0.87583 -0.07900
 H1378 H 0.06344 0.87564 -0.01290
 C1379 C -0.00527 0.12420 -0.02089
 C1380 C -0.01707 0.12352 0.00108
 C1381 C -0.04248 0.12291 0.00225
 C1382 C -0.05654 0.12301 -0.01949
 C1383 C -0.04622 0.12371 -0.04338
 C1384 C -0.01946 0.12431 -0.04363
 O1385 O 0.01933 0.12468 -0.01738
 C1386 C 0.02292 0.12431 0.00721
 C1387 C 0.00099 0.12360 0.01908
 C1388 C -0.00011 0.12311 0.04449
 C1389 C 0.02167 0.12338 0.05847
 C1390 C 0.04554 0.12413 0.04809
 C1391 C 0.04571 0.12457 0.02133
 H1392 H -0.05151 0.12237 0.01973
 H1393 H -0.07610 0.12251 -0.01740
 H1394 H -0.01000 0.12484 -0.06086
 H1395 H -0.01756 0.12252 0.05357
 H1396 H 0.01960 0.12294 0.07804
 H1397 H 0.06292 0.12511 0.01182
 C1398 C 0.12596 0.02065 0.00770
 C1399 C 0.12599 -0.00127 0.01964
 C1400 C 0.12595 -0.00228 0.04505
 C1401 C 0.12590 0.01956 0.05896
 C1402 C 0.12588 0.04342 0.04850
 C1403 C 0.12590 0.04350 0.02174
 O1404 O 0.12599 0.01699 -0.01687
 C1405 C 0.12604 -0.00762 -0.02031
 C1406 C 0.12605 -0.01940 0.00168
 C1407 C 0.12610 -0.04483 0.00288
 C1408 C 0.12616 -0.05893 -0.01887
 C1409 C 0.12617 -0.04858 -0.04274
 C1410 C 0.12610 -0.02183 -0.04301
 H1411 H 0.12596 -0.01970 0.05420
 H1412 H 0.12586 0.01755 0.07853
 H1413 H 0.12586 0.06067 0.01216
 H1414 H 0.12609 -0.05385 0.02037
 H1415 H 0.12619 -0.07850 -0.01682
 H1416 H 0.12607 -0.01238 -0.06026
 C1417 C 0.12562 0.48105 0.49112
 C1418 C 0.12572 0.50305 0.47936
 C1419 C 0.12575 0.50428 0.45393
 C1420 C 0.12568 0.48255 0.43982
 C1421 C 0.12560 0.45868 0.45015
 C1422 C 0.12556 0.45837 0.47689
 O1423 O 0.12560 0.48445 0.51573
 C1424 C 0.12569 0.50902 0.51940
 C1425 C 0.12577 0.52097 0.49749
 C1426 C 0.12588 0.54639 0.49650
 C1427 C 0.12591 0.56027 0.51835
 C1428 C 0.12583 0.54977 0.54218
 C1429 C 0.12570 0.52302 0.54225
 H1430 H 0.12581 0.52179 0.44493
 H1431 H 0.12568 0.48463 0.42025
 H1432 H 0.12547 0.44111 0.48633
 H1433 H 0.12594 0.55555 0.47908
 H1434 H 0.12598 0.57984 0.51636
 H1435 H 0.12560 0.51342 0.55942
 C1436 C 0.37759 0.48113 0.00786
 C1437 C 0.37837 0.50305 0.01977
 C1438 C 0.37895 0.50406 0.04518
 C1439 C 0.37871 0.48222 0.05910
 C1440 C 0.37787 0.45838 0.04865
 C1441 C 0.37734 0.45829 0.02191
 O1442 O 0.37715 0.48477 -0.01672
 C1443 C 0.37764 0.50937 -0.02017
 C1444 C 0.37840 0.52116 0.00180
 C1445 C 0.37900 0.54659 0.00296
 C1446 C 0.37881 0.56067 -0.01880
 C1447 C 0.37803 0.55031 -0.04265
 C1448 C 0.37747 0.52356 -0.04289
 H1449 H 0.37959 0.52148 0.05431
 H1450 H 0.37922 0.48423 0.07867
 H1451 H 0.37674 0.44112 0.01234
 H1452 H 0.37961 0.55562 0.02044
 H1453 H 0.37933 0.58024 -0.01677
 H1454 H 0.37690 0.51409 -0.06012
 C1455 C 0.87757 0.51966 0.49004
 C1456 C 0.87807 0.49767 0.47824
 C1457 C 0.87846 0.49657 0.45279
 C1458 C 0.87832 0.51838 0.43875
 C1459 C 0.87779 0.54222 0.44915
 C1460 C 0.87744 0.54240 0.47590
 O1461 O 0.87726 0.51620 0.51464
 C1462 C 0.87756 0.49164 0.51827
 C1463 C 0.87806 0.47968 0.49638
 C1464 C 0.87845 0.45422 0.49546
 C1465 C 0.87830 0.44034 0.51737
 C1466 C 0.87777 0.45092 0.54114
 C1467 C 0.87742 0.47766 0.54112
 H1468 H 0.87888 0.47911 0.44372
 H1469 H 0.87867 0.51640 0.41917
 H1470 H 0.87706 0.55961 0.48540
 H1471 H 0.87887 0.44503 0.47806
 H1472 H 0.87865 0.42075 0.51553
 H1473 H 0.87705 0.48729 0.55826
 C1474 C 0.87802 0.01896 -0.01050
 C1475 C 0.87872 -0.00295 -0.02243
 C1476 C 0.87927 -0.00391 -0.04788
 C1477 C 0.87907 0.01797 -0.06179
 C1478 C 0.87833 0.04176 -0.05124
 C1479 C 0.87783 0.04178 -0.02451
 O1480 O 0.87759 0.01536 0.01407
 C1481 C 0.87802 -0.00923 0.01756
 C1482 C 0.87872 -0.02105 -0.00441
 C1483 C 0.87927 -0.04650 -0.00548
 C1484 C 0.87907 -0.06051 0.01634
 C1485 C 0.87833 -0.05007 0.04017
 C1486 C 0.87783 -0.02334 0.04031
 H1487 H 0.87984 -0.02132 -0.05704
 H1488 H 0.87955 0.01610 -0.08137
 H1489 H 0.87730 0.05893 -0.01491
 H1490 H 0.87984 -0.05559 -0.02293
 H1491 H 0.87954 -0.08009 0.01439
 H1492 H 0.87729 -0.01381 0.05751
 C1493 C 0.62621 -0.01746 0.48971
 C1494 C 0.62616 0.00451 0.47788
 C1495 C 0.62611 0.00560 0.45243
 C1496 C 0.62612 -0.01622 0.43842
 C1497 C 0.62619 -0.04006 0.44886
 C1498 C 0.62623 -0.04022 0.47560
 O1499 O 0.62624 -0.01397 0.51431
 C1500 C 0.62621 0.01060 0.51789
 C1501 C 0.62616 0.02252 0.49597
 C1502 C 0.62612 0.04797 0.49499
 C1503 C 0.62613 0.06189 0.51686
 C1504 C 0.62619 0.05137 0.54066
 C1505 C 0.62621 0.02463 0.54071
 H1506 H 0.62605 0.02306 0.44335
 H1507 H 0.62606 -0.01424 0.41884
 H1508 H 0.62625 -0.05742 0.48512
 H1509 H 0.62607 0.05713 0.47756
 H1510 H 0.62608 0.08148 0.51495
 H1511 H 0.62622 0.01503 0.55788
 C1512 C 0.49521 0.02220 0.37444
 C1513 C 0.48334 0.00026 0.37476
 C1514 C 0.45795 -0.00086 0.37516
 C1515 C 0.44396 0.02092 0.37520
 C1516 C 0.45434 0.04480 0.37485
 C1517 C 0.48110 0.04500 0.37450
 O1518 O 0.51981 0.01861 0.37408
 C1519 C 0.52330 -0.00600 0.37418
 C1520 C 0.50132 -0.01779 0.37459
 C1521 C 0.50011 -0.04320 0.37478
 C1522 C 0.52184 -0.05727 0.37453
 C1523 C 0.54573 -0.04695 0.37407
 C1524 C 0.54602 -0.02020 0.37392
 H1525 H 0.44887 -0.01832 0.37544
 H1526 H 0.42440 0.01882 0.37555
 H1527 H 0.49061 0.06221 0.37426
 H1528 H 0.48262 -0.05222 0.37513
 H1529 H 0.51971 -0.07683 0.37473
 H1530 H 0.56327 -0.01075 0.37363
 C1531 C -0.00528 -0.02030 0.12296
 C1532 C -0.01709 0.00166 0.12217
 C1533 C -0.04248 0.00284 0.12131
 C1534 C -0.05652 -0.01890 0.12127
 C1535 C -0.04618 -0.04278 0.12207
 C1536 C -0.01945 -0.04304 0.12293
 O1537 O 0.01931 -0.01679 0.12369
 C1538 C 0.02288 0.00781 0.12336
 C1539 C 0.00094 0.01966 0.12243
 C1540 C -0.00019 0.04506 0.12195
 C1541 C 0.02157 0.05906 0.12245
 C1542 C 0.04542 0.04868 0.12344
 C1543 C 0.04564 0.02193 0.12386
 H1544 H -0.05150 0.02032 0.12069
 H1545 H -0.07607 -0.01680 0.12058
 H1546 H -0.00999 -0.06027 0.12355
 H1547 H -0.01764 0.05413 0.12120
 H1548 H 0.01950 0.07862 0.12200
 H1549 H 0.06285 0.01244 0.12457
 C1550 C 0.52261 0.50836 0.12402
 C1551 C 0.50067 0.52023 0.12362
 C1552 C 0.49954 0.54563 0.12328
 C1553 C 0.52131 0.55963 0.12338
 C1554 C 0.54517 0.54923 0.12382
 C1555 C 0.54538 0.52248 0.12412
 O1556 O 0.51905 0.48377 0.12430
 C1557 C 0.49445 0.48026 0.12406
 C1558 C 0.48264 0.50223 0.12364
 C1559 C 0.45724 0.50343 0.12334
 C1560 C 0.44319 0.48170 0.12350
 C1561 C 0.45352 0.45780 0.12395
 C1562 C 0.48027 0.45752 0.12421
 H1563 H 0.48207 0.55470 0.12294
 H1564 H 0.51924 0.57919 0.12308
 H1565 H 0.56260 0.51298 0.12442
 H1566 H 0.44821 0.52091 0.12299
 H1567 H 0.42363 0.48383 0.12321
 H1568 H 0.48973 0.44028 0.12453
 C1569 C -0.00551 0.48072 0.62282
 C1570 C -0.01727 0.50269 0.62164
 C1571 C -0.04266 0.50389 0.62067
 C1572 C -0.05675 0.48217 0.62093
 C1573 C -0.04647 0.45829 0.62216
 C1574 C -0.01973 0.45800 0.62312
 O1575 O 0.01908 0.48420 0.62359
 C1576 C 0.02271 0.50878 0.62288
 C1577 C 0.00081 0.52066 0.62168
 C1578 C -0.00026 0.54606 0.62081
 C1579 C 0.02154 0.56002 0.62119
 C1580 C 0.04537 0.54961 0.62243
 C1581 C 0.04551 0.52286 0.62324
 H1582 H -0.05165 0.52137 0.61972
 H1583 H -0.07629 0.48430 0.62013
 H1584 H -0.01031 0.44076 0.62407
 H1585 H -0.01768 0.55515 0.61985
 H1586 H 0.01952 0.57958 0.62043
 H1587 H 0.06269 0.51334 0.62418
 C1588 C 0.49469 0.52108 0.87619
 C1589 C 0.48286 0.49914 0.87716
 C1590 C 0.45746 0.49801 0.87800
 C1591 C 0.44345 0.51977 0.87783
 C1592 C 0.45381 0.54364 0.87681
 C1593 C 0.48055 0.54385 0.87598
 O1594 O 0.51928 0.51751 0.87552
 C1595 C 0.52282 0.49292 0.87608
 C1596 C 0.50087 0.48110 0.87708
 C1597 C 0.49971 0.45570 0.87778
 C1598 C 0.52146 0.44166 0.87743
 C1599 C 0.54533 0.45200 0.87639
 C1600 C 0.54557 0.47875 0.87574
 H1601 H 0.44841 0.48055 0.87878
 H1602 H 0.42390 0.51769 0.87851
 H1603 H 0.49003 0.56106 0.87520
 H1604 H 0.48225 0.44667 0.87859
 H1605 H 0.51936 0.42211 0.87805
 H1606 H 0.56279 0.48822 0.87497
 C1607 C 0.62556 0.52154 0.00704
 C1608 C 0.62508 0.49960 0.01891
 C1609 C 0.62472 0.49848 0.04431
 C1610 C 0.62485 0.52025 0.05831
 C1611 C 0.62535 0.54412 0.04793
 C1612 C 0.62569 0.54432 0.02117
 O1613 O 0.62584 0.51795 -0.01756
 C1614 C 0.62554 0.49334 -0.02105
 C1615 C 0.62507 0.48155 0.00093
 C1616 C 0.62469 0.45616 0.00215
 C1617 C 0.62481 0.44208 -0.01956
 C1618 C 0.62530 0.45236 -0.04348
 C1619 C 0.62566 0.47912 -0.04379
 H1620 H 0.62433 0.48102 0.05338
 H1621 H 0.62454 0.51816 0.07787
 H1622 H 0.62606 0.56154 0.01166
 H1623 H 0.62431 0.44715 0.01965
 H1624 H 0.62448 0.42253 -0.01739
 H1625 H 0.62602 0.48856 -0.06104
 C1626 C 0.37801 0.02061 0.49087
 C1627 C 0.37863 -0.00140 0.47913
 C1628 C 0.37907 -0.00264 0.45370
 C1629 C 0.37887 0.01908 0.43958
 C1630 C 0.37821 0.04296 0.44989
 C1631 C 0.37781 0.04328 0.47663
 O1632 O 0.37767 0.01722 0.51548
 C1633 C 0.37807 -0.00734 0.51917
 C1634 C 0.37866 -0.01931 0.49728
 C1635 C 0.37915 -0.04472 0.49632
 C1636 C 0.37901 -0.05859 0.51818
 C1637 C 0.37839 -0.04807 0.54200
 C1638 C 0.37794 -0.02132 0.54204
 H1639 H 0.37958 -0.02014 0.44472
 H1640 H 0.37927 0.01700 0.42001
 H1641 H 0.37734 0.06054 0.48605
 H1642 H 0.37964 -0.05390 0.47891
 H1643 H 0.37945 -0.07816 0.51622
 H1644 H 0.37749 -0.01171 0.55919
 C1645 C -0.00550 0.62464 0.47869
 C1646 C -0.01728 0.62389 0.50066
 C1647 C -0.04267 0.62311 0.50188
 C1648 C -0.05674 0.62310 0.48016
 C1649 C -0.04643 0.62386 0.45627
 C1650 C -0.01969 0.62463 0.45597
 O1651 O 0.01910 0.62530 0.48216
 C1652 C 0.02270 0.62498 0.50675
 C1653 C 0.00078 0.62412 0.51863
 C1654 C -0.00032 0.62364 0.54404
 C1655 C 0.02146 0.62409 0.55800
 C1656 C 0.04530 0.62501 0.54758
 C1657 C 0.04548 0.62542 0.52083
 H1658 H -0.05167 0.62252 0.51937
 H1659 H -0.07629 0.62247 0.48228
 H1660 H -0.01025 0.62522 0.43873
 H1661 H -0.01776 0.62294 0.55313
 H1662 H 0.01942 0.62365 0.57756
 H1663 H 0.06268 0.62607 0.51131
 C1664 C 0.49442 0.37682 0.02101
 C1665 C 0.48262 0.37682 -0.00097
 C1666 C 0.45721 0.37694 -0.00217
 C1667 C 0.44315 0.37708 0.01957
 C1668 C 0.45346 0.37709 0.04347
 C1669 C 0.48022 0.37697 0.04375
 O1670 O 0.51903 0.37669 0.01750
 C1671 C 0.52262 0.37658 -0.00709
 C1672 C 0.50068 0.37666 -0.01897
 C1673 C 0.49956 0.37660 -0.04438
 C1674 C 0.52134 0.37643 -0.05837
 C1675 C 0.54521 0.37630 -0.04797
 C1676 C 0.54541 0.37641 -0.02121
 H1677 H 0.44819 0.37694 -0.01966
 H1678 H 0.42359 0.37719 0.01743
 H1679 H 0.48968 0.37700 0.06099
 H1680 H 0.48210 0.37669 -0.05346
 H1681 H 0.51927 0.37642 -0.07793
 H1682 H 0.56262 0.37638 -0.01170
 C1683 C 0.49545 -0.02033 0.62244
 C1684 C 0.48361 0.00162 0.62203
 C1685 C 0.45820 0.00277 0.62175
 C1686 C 0.44418 -0.01899 0.62189
 C1687 C 0.45453 -0.04287 0.62232
 C1688 C 0.48129 -0.04310 0.62259
 O1689 O 0.52005 -0.01677 0.62265
 C1690 C 0.52358 0.00784 0.62238
 C1691 C 0.50161 0.01966 0.62200
 C1692 C 0.50043 0.04506 0.62168
 C1693 C 0.52217 0.05911 0.62179
 C1694 C 0.54607 0.04878 0.62221
 C1695 C 0.54633 0.02203 0.62247
 H1696 H 0.44915 0.02024 0.62142
 H1697 H 0.42462 -0.01688 0.62164
 H1698 H 0.49078 -0.06032 0.62289
 H1699 H 0.48295 0.05409 0.62136
 H1700 H 0.52004 0.07866 0.62150
 H1701 H 0.56357 0.01256 0.62277
 C1702 C -0.00525 0.52164 0.37475
 C1703 C -0.01720 0.49974 0.37453
 C1704 C -0.04261 0.49871 0.37436
 C1705 C -0.05652 0.52054 0.37437
 C1706 C -0.04606 0.54439 0.37458
 C1707 C -0.01930 0.54449 0.37481
 O1708 O 0.01933 0.51797 0.37487
 C1709 C 0.02275 0.49335 0.37473
 C1710 C 0.00073 0.48162 0.37453
 C1711 C -0.00054 0.45620 0.37439
 C1712 C 0.02115 0.44207 0.37444
 C1713 C 0.04508 0.45232 0.37462
 C1714 C 0.04544 0.47908 0.37477
 H1715 H -0.05175 0.48129 0.37421
 H1716 H -0.07609 0.51852 0.37427
 H1717 H -0.00972 0.56166 0.37500
 H1718 H -0.01806 0.44724 0.37425
 H1719 H 0.01898 0.42251 0.37435
 H1720 H 0.06271 0.48848 0.37497
 C1721 C -0.00419 0.02234 0.87551
 C1722 C -0.01600 0.00037 0.87554
 C1723 C -0.04140 -0.00083 0.87541
 C1724 C -0.05544 0.02090 0.87521
 C1725 C -0.04512 0.04481 0.87513
 C1726 C -0.01837 0.04509 0.87533
 O1727 O 0.02042 0.01882 0.87565
 C1728 C 0.02397 -0.00578 0.87577
 C1729 C 0.00202 -0.01763 0.87572
 C1730 C 0.00085 -0.04303 0.87582
 C1731 C 0.02259 -0.05705 0.87594
 C1732 C 0.04648 -0.04669 0.87597
 C1733 C 0.04673 -0.01994 0.87592
 H1734 H -0.05042 -0.01832 0.87547
 H1735 H -0.07500 0.01874 0.87516
 H1736 H -0.00891 0.06234 0.87532
 H1737 H -0.01663 -0.05208 0.87580
 H1738 H 0.02048 -0.07661 0.87604
 H1739 H 0.06396 -0.01045 0.87595
 C1740 C 0.77309 0.62698 0.25662
 C1741 C 0.75119 0.62528 0.26845
 C1742 C 0.75007 0.62415 0.29382
 C1743 C 0.77182 0.62474 0.30783
 C1744 C 0.79565 0.62647 0.29748
 C1745 C 0.79584 0.62762 0.27075
 O1746 O 0.76949 0.62786 0.23204
 C1747 C 0.74492 0.62667 0.22852
 C1748 C 0.73316 0.62509 0.25046
 C1749 C 0.70779 0.62369 0.25164
 C1750 C 0.69373 0.62392 0.22992
 C1751 C 0.70402 0.62552 0.20606
 C1752 C 0.73073 0.62693 0.20579
 H1753 H 0.73264 0.62283 0.30286
 H1754 H 0.76975 0.62382 0.32737
 H1755 H 0.81302 0.62899 0.26128
 H1756 H 0.69881 0.62246 0.26911
 H1757 H 0.67420 0.62282 0.23203
 H1758 H 0.74014 0.62826 0.18858
 C1759 C 0.27372 0.87544 0.74205
 C1760 C 0.25180 0.87757 0.73033
 C1761 C 0.25064 0.87904 0.70496
 C1762 C 0.27233 0.87834 0.69085
 C1763 C 0.29618 0.87618 0.70108
 C1764 C 0.29643 0.87471 0.72781
 O1765 O 0.27020 0.87427 0.76663
 C1766 C 0.24565 0.87571 0.77028
 C1767 C 0.23383 0.87775 0.74841
 C1768 C 0.20848 0.87949 0.74737
 C1769 C 0.19449 0.87913 0.76915
 C1770 C 0.20482 0.87705 0.79296
 C1771 C 0.23153 0.87530 0.79308
 H1772 H 0.23319 0.88069 0.69600
 H1773 H 0.27022 0.87953 0.67133
 H1774 H 0.31362 0.87298 0.73720
 H1775 H 0.19944 0.88108 0.72996
 H1776 H 0.17497 0.88051 0.76712
 H1777 H 0.24100 0.87360 0.81023
 C1778 C 0.24420 0.37529 0.27056
 C1779 C 0.23237 0.37636 0.24862
 C1780 C 0.20697 0.37696 0.24747
 C1781 C 0.19295 0.37645 0.26922
 C1782 C 0.20332 0.37534 0.29307
 C1783 C 0.23006 0.37478 0.29330
 O1784 O 0.26879 0.37483 0.26702
 C1785 C 0.27233 0.37564 0.24243
 C1786 C 0.25038 0.37659 0.23061
 C1787 C 0.24922 0.37752 0.20522
 C1788 C 0.27098 0.37747 0.19120
 C1789 C 0.29484 0.37651 0.20157
 C1790 C 0.29508 0.37557 0.22829
 H1791 H 0.19792 0.37779 0.23002
 H1792 H 0.17339 0.37695 0.26715
 H1793 H 0.23954 0.37388 0.31051
 H1794 H 0.23176 0.37825 0.19619
 H1795 H 0.26889 0.37818 0.17165
 H1796 H 0.31230 0.37473 0.23776
 C1797 C 0.87661 0.73199 0.25869
 C1798 C 0.87765 0.75394 0.27053
 C1799 C 0.87842 0.75499 0.29596
 C1800 C 0.87813 0.73317 0.30996
 C1801 C 0.87707 0.70936 0.29953
 C1802 C 0.87629 0.70923 0.27280
 O1803 O 0.87596 0.73550 0.23412
 C1804 C 0.87663 0.76007 0.23053
 C1805 C 0.87766 0.77197 0.25244
 C1806 C 0.87846 0.79741 0.25342
 C1807 C 0.87819 0.81134 0.23155
 C1808 C 0.87714 0.80083 0.20777
 C1809 C 0.87634 0.77410 0.20773
 H1810 H 0.87923 0.77243 0.30505
 H1811 H 0.87873 0.73512 0.32953
 H1812 H 0.87541 0.69204 0.26327
 H1813 H 0.87926 0.80655 0.27083
 H1814 H 0.87881 0.83092 0.23344
 H1815 H 0.87547 0.76452 0.19057
 C1816 C 0.62704 0.27011 0.75819
 C1817 C 0.62634 0.24821 0.77015
 C1818 C 0.62577 0.24727 0.79557
 C1819 C 0.62591 0.26914 0.80944
 C1820 C 0.62662 0.29296 0.79892
 C1821 C 0.62720 0.29298 0.77218
 O1822 O 0.62753 0.26642 0.73362
 C1823 C 0.62712 0.24181 0.73022
 C1824 C 0.62639 0.23005 0.75221
 C1825 C 0.62589 0.20461 0.75341
 C1826 C 0.62613 0.19050 0.73166
 C1827 C 0.62686 0.20084 0.70780
 C1828 C 0.62737 0.22758 0.70753
 H1829 H 0.62523 0.22987 0.80475
 H1830 H 0.62548 0.26719 0.82901
 H1831 H 0.62782 0.31012 0.76256
 H1832 H 0.62534 0.19561 0.77090
 H1833 H 0.62576 0.17093 0.73370
 H1834 H 0.62799 0.23702 0.69029
 C1835 C 0.77293 0.24297 0.87536
 C1836 C 0.75100 0.23114 0.87656
 C1837 C 0.74989 0.20574 0.87756
 C1838 C 0.77166 0.19173 0.87731
 C1839 C 0.79550 0.20210 0.87609
 C1840 C 0.79569 0.22884 0.87511
 O1841 O 0.76936 0.26756 0.87449
 C1842 C 0.74477 0.27110 0.87518
 C1843 C 0.73296 0.24915 0.87645
 C1844 C 0.70757 0.24800 0.87733
 C1845 C 0.69353 0.26975 0.87691
 C1846 C 0.70386 0.29362 0.87562
 C1847 C 0.73060 0.29384 0.87473
 H1848 H 0.73244 0.19669 0.87849
 H1849 H 0.76961 0.17218 0.87809
 H1850 H 0.81289 0.23832 0.87407
 H1851 H 0.69854 0.23054 0.87830
 H1852 H 0.67398 0.26764 0.87760
 H1853 H 0.74006 0.31105 0.87368
 C1854 C 0.27338 0.75801 0.62423
 C1855 C 0.25148 0.76987 0.62285
 C1856 C 0.25038 0.79526 0.62177
 C1857 C 0.27216 0.80923 0.62209
 C1858 C 0.29598 0.79884 0.62349
 C1859 C 0.29616 0.77211 0.62457
 O1860 O 0.26977 0.73344 0.62514
 C1861 C 0.24518 0.72995 0.62431
 C1862 C 0.23342 0.75191 0.62290
 C1863 C 0.20804 0.75312 0.62186
 C1864 C 0.19396 0.73142 0.62226
 C1865 C 0.20423 0.70754 0.62369
 C1866 C 0.23096 0.70724 0.62474
 H1867 H 0.23295 0.80432 0.62070
 H1868 H 0.27012 0.82878 0.62123
 H1869 H 0.31334 0.76262 0.62573
 H1870 H 0.19906 0.77060 0.62077
 H1871 H 0.17442 0.73356 0.62143
 H1872 H 0.24037 0.69001 0.62591
   
