data_POSCAR
  _audit_creation_date              2014-09-24
  _audit_creation_method            'ToBaCCo'
  _symmetry_space_group_name_H-M    'P1'
  _symmetry_Int_Tables_number       1
  _symmetry_cell_setting            triclinic
  loop_
  _symmetry_equiv_pos_as_xyz
 x,y,z
_cell_length_a 67.5289
_cell_length_b 68.8743
_cell_length_c 64.8783
_cell_angle_alpha 90.260700
_cell_angle_beta 90.312400
_cell_angle_gamma 89.927100
loop_
  _atom_site_label
  _atom_site_type_symbol
  _atom_site_fract_x
  _atom_site_fract_y
  _atom_site_fract_z
N1 N 0.36778 0.31917 0.31708
 N2 N 0.36228 0.33134 0.30257
 C3 C 0.37274 0.32764 0.28538
 C4 C 0.38572 0.31262 0.28950
 C5 C 0.38226 0.30762 0.30980
 H6 H 0.37081 0.33500 0.27081
 H7 H 0.38895 0.29582 0.31831
 Cu8 Cu 0.34144 0.35021 0.30767
 Cu9 Cu 0.35450 0.31811 0.34368
 Cu10 Cu 0.30983 0.34324 0.34614
 N11 N 0.32110 0.36935 0.31378
 N12 N 0.30844 0.36631 0.32875
 C13 C 0.29424 0.38002 0.32808
 C14 C 0.29831 0.39242 0.31197
 C15 C 0.31552 0.38527 0.30322
 H16 H 0.28133 0.38035 0.33787
 H17 H 0.32256 0.39039 0.28935
 N18 N 0.31763 0.32321 0.36630
 N19 N 0.33452 0.31357 0.36519
 C20 C 0.33454 0.29940 0.37942
 C21 C 0.31704 0.30040 0.39024
 C22 C 0.30667 0.31571 0.38161
 H23 H 0.34600 0.28852 0.38109
 H24 H 0.29172 0.32013 0.38525
 H25 H 0.32839 0.32462 0.32941
 H26 H 0.33948 0.34486 0.34475
 N27 N 0.37014 0.81226 -0.16723
 N28 N 0.37588 0.82576 -0.18015
 C29 C 0.39130 0.81908 -0.19120
 C30 C 0.39526 0.80023 -0.18496
 C31 C 0.38158 0.79643 -0.16973
 H32 H 0.39834 0.82701 -0.20349
 H33 H 0.37976 0.78293 -0.16150
 Cu34 Cu 0.36131 0.84991 -0.18263
 Cu35 Cu 0.34749 0.81579 -0.14902
 Cu36 Cu 0.31892 0.85709 -0.15677
 N37 N 0.34315 0.87059 -0.19008
 N38 N 0.32728 0.87418 -0.17904
 C39 C 0.31725 0.88905 -0.18757
 C40 C 0.32716 0.89472 -0.20523
 C41 C 0.34350 0.88266 -0.20634
 H42 H 0.30307 0.89426 -0.18220
 H43 H 0.35455 0.88238 -0.21835
 N44 N 0.31301 0.83762 -0.13537
 N45 N 0.32404 0.82205 -0.13223
 C46 C 0.31548 0.81103 -0.11767
 C47 C 0.29813 0.81999 -0.11156
 C48 C 0.29701 0.83675 -0.12310
 H49 H 0.32080 0.79696 -0.11281
 H50 H 0.28495 0.84710 -0.12312
 H51 H 0.33231 0.83310 -0.16980
 H52 H 0.34623 0.84578 -0.14878
 N53 N 0.87396 0.31984 -0.17218
 N54 N 0.87190 0.33511 -0.18412
 C55 C 0.88566 0.33434 -0.19908
 C56 C 0.89707 0.31790 -0.19612
 C57 C 0.88926 0.30906 -0.17888
 H58 H 0.88671 0.34438 -0.21179
 H59 H 0.89333 0.29502 -0.17277
 Cu60 Cu 0.85011 0.35329 -0.17987
 Cu61 Cu 0.85426 0.31303 -0.15163
 Cu62 Cu 0.81738 0.34668 -0.14167
 N63 N 0.82845 0.37149 -0.17539
 N64 N 0.81574 0.36864 -0.16041
 C65 C 0.80105 0.38176 -0.16186
 C66 C 0.80471 0.39352 -0.17856
 C67 C 0.82236 0.38676 -0.18676
 H68 H 0.78809 0.38211 -0.15213
 H69 H 0.82948 0.39166 -0.20068
 N70 N 0.82147 0.32321 -0.12486
 N71 N 0.83519 0.31010 -0.12898
 C72 C 0.83258 0.29470 -0.11657
 C73 C 0.81653 0.29831 -0.10405
 C74 C 0.80985 0.31654 -0.10965
 H75 H 0.84109 0.28140 -0.11720
 H76 H 0.79670 0.32377 -0.10408
 H77 H 0.83008 0.32865 -0.16292
 H78 H 0.84733 0.34136 -0.14481
 N79 N 0.86838 0.81262 0.33577
 N80 N 0.87159 0.82471 0.32051
 C81 C 0.88665 0.81786 0.30898
 C82 C 0.89302 0.80052 0.31749
 C83 C 0.88108 0.79764 0.33438
 H84 H 0.89173 0.82427 0.29478
 H85 H 0.88098 0.78503 0.34425
 Cu86 Cu 0.85402 0.84673 0.31601
 Cu87 Cu 0.84652 0.81582 0.35495
 Cu88 Cu 0.81608 0.85589 0.34784
 N89 N 0.83646 0.86876 0.31156
 N90 N 0.82251 0.87299 0.32492
 C91 C 0.81219 0.88844 0.31816
 C92 C 0.81979 0.89391 0.29924
 C93 C 0.83517 0.88110 0.29554
 H94 H 0.79912 0.89414 0.32561
 H95 H 0.84427 0.88048 0.28187
 N96 N 0.81196 0.83668 0.36990
 N97 N 0.82366 0.82154 0.37273
 C98 C 0.81587 0.81014 0.38743
 C99 C 0.79831 0.81840 0.39397
 C100 C 0.79630 0.83517 0.38258
 H101 H 0.82173 0.79618 0.39193
 H102 H 0.78374 0.84492 0.38273
 H103 H 0.82776 0.83080 0.33517
 H104 H 0.84440 0.84555 0.35212
 N105 N 0.62463 0.68055 0.33116
 N106 N 0.62507 0.66790 0.31592
 C107 C 0.61272 0.67375 0.30085
 C108 C 0.60373 0.69074 0.30714
 C109 C 0.61154 0.69468 0.32650
 H110 H 0.61070 0.66639 0.28622
 H111 H 0.60879 0.70736 0.33596
 Cu112 Cu 0.64206 0.64525 0.31699
 Cu113 Cu 0.64256 0.67844 0.35481
 Cu114 Cu 0.68142 0.64563 0.34826
 N115 N 0.66324 0.62657 0.31357
 N116 N 0.67839 0.62632 0.32637
 C117 C 0.69136 0.61267 0.32014
 C118 C 0.68401 0.60415 0.30231
 C119 C 0.66621 0.61339 0.29851
 H120 H 0.70566 0.61007 0.32720
 H121 H 0.65654 0.61120 0.28536
 N122 N 0.68152 0.66624 0.36947
 N123 N 0.66667 0.67847 0.37230
 C124 C 0.67205 0.69175 0.38663
 C125 C 0.69122 0.68765 0.39294
 C126 C 0.69668 0.67145 0.38180
 H127 H 0.66324 0.70421 0.39101
 H128 H 0.71112 0.66463 0.38194
 H129 H 0.66364 0.66726 0.33555
 H130 H 0.65193 0.64963 0.35336
 N131 N 0.62651 0.17393 -0.16983
 N132 N 0.62985 0.16000 -0.18329
 C133 C 0.61850 0.16298 -0.20013
 C134 C 0.60726 0.17948 -0.19684
 C135 C 0.61268 0.18604 -0.17743
 H136 H 0.61866 0.15400 -0.21386
 H137 H 0.60778 0.19920 -0.16983
 Cu138 Cu 0.64905 0.13965 -0.17758
 Cu139 Cu 0.64173 0.17637 -0.14440
 Cu140 Cu 0.68522 0.14950 -0.14342
 N141 N 0.67309 0.12422 -0.17657
 N142 N 0.68739 0.12857 -0.16352
 C143 C 0.70321 0.11734 -0.16748
 C144 C 0.69863 0.10533 -0.18391
 C145 C 0.67927 0.10992 -0.18925
 H146 H 0.71730 0.11833 -0.15954
 H147 H 0.67076 0.10428 -0.20211
 N148 N 0.67998 0.17116 -0.12430
 N149 N 0.66351 0.18150 -0.12483
 C150 C 0.66526 0.19650 -0.11158
 C151 C 0.68353 0.19533 -0.10203
 C152 C 0.69247 0.17907 -0.11039
 H153 H 0.65441 0.20792 -0.10968
 H154 H 0.70744 0.17414 -0.10751
 H155 H 0.66568 0.16644 -0.16038
 H156 H 0.65513 0.14913 -0.14141
 N157 N 0.12706 0.67556 -0.17425
 N158 N 0.12778 0.66076 -0.18711
 C159 C 0.11557 0.66403 -0.20314
 C160 C 0.10632 0.68161 -0.20006
 C161 C 0.11383 0.68862 -0.18150
 H162 H 0.11406 0.65461 -0.21644
 H163 H 0.11093 0.70264 -0.17456
 Cu164 Cu 0.14559 0.63918 -0.18278
 Cu165 Cu 0.14517 0.67716 -0.15046
 Cu166 Cu 0.18559 0.64558 -0.15346
 N167 N 0.16795 0.62178 -0.18489
 N168 N 0.18371 0.62419 -0.17321
 C169 C 0.19788 0.61165 -0.17929
 C170 C 0.19058 0.60106 -0.19584
 C171 C 0.17158 0.60787 -0.19899
 H172 H 0.21284 0.61140 -0.17327
 H173 H 0.16165 0.60393 -0.21145
 N174 N 0.18457 0.66795 -0.13444
 N175 N 0.16920 0.67977 -0.13281
 C176 C 0.17381 0.69409 -0.11929
 C177 C 0.19302 0.69107 -0.11236
 C178 C 0.19930 0.67448 -0.12227
 H179 H 0.16442 0.70638 -0.11579
 H180 H 0.21391 0.66812 -0.12121
 H181 H 0.16622 0.66453 -0.16833
 H182 H 0.15584 0.64894 -0.14773
 N183 N 0.13214 0.18032 0.31823
 N184 N 0.13425 0.16479 0.30659
 C185 C 0.12209 0.16618 0.29012
 C186 C 0.11158 0.18333 0.29182
 C187 C 0.11830 0.19194 0.30983
 H188 H 0.12132 0.15578 0.27761
 H189 H 0.11437 0.20616 0.31564
 Cu190 Cu 0.15339 0.14485 0.31365
 Cu191 Cu 0.14961 0.18589 0.34147
 Cu192 Cu 0.18838 0.15374 0.34948
 N193 N 0.17664 0.12847 0.31612
 N194 N 0.19040 0.13216 0.33000
 C195 C 0.20569 0.11991 0.32711
 C196 C 0.20121 0.10787 0.31066
 C197 C 0.18261 0.11367 0.30402
 H198 H 0.21943 0.12026 0.33574
 H199 H 0.17458 0.10837 0.29068
 N200 N 0.18362 0.17656 0.36734
 N201 N 0.16904 0.18896 0.36398
 C202 C 0.17108 0.20418 0.37691
 C203 C 0.18754 0.20113 0.38912
 C204 C 0.19515 0.18345 0.38274
 H205 H 0.16186 0.21702 0.37684
 H206 H 0.20881 0.17682 0.38791
 H207 H 0.17307 0.17080 0.32873
 H208 H 0.15811 0.15778 0.34845
 N209 N 0.63153 0.31728 0.68084
 N210 N 0.63396 0.33267 0.69263
 C211 C 0.62220 0.33117 0.70925
 C212 C 0.61161 0.31410 0.70752
 C213 C 0.61787 0.30564 0.68931
 H214 H 0.62173 0.34146 0.72189
 H215 H 0.61371 0.29152 0.68336
 Cu216 Cu 0.65292 0.35263 0.68554
 Cu217 Cu 0.64828 0.31200 0.65712
 Cu218 Cu 0.68655 0.34440 0.64856
 N219 N 0.67606 0.36901 0.68280
 N220 N 0.68926 0.36563 0.66840
 C221 C 0.70466 0.37776 0.67111
 C222 C 0.70086 0.38941 0.68801
 C223 C 0.68255 0.38351 0.69510
 H224 H 0.71806 0.37755 0.66205
 H225 H 0.67507 0.38851 0.70883
 N226 N 0.68125 0.32187 0.63045
 N227 N 0.66697 0.30928 0.63407
 C228 C 0.66876 0.29421 0.62091
 C229 C 0.68473 0.29757 0.60828
 C230 C 0.69230 0.31527 0.61467
 H231 H 0.65975 0.28124 0.62111
 H232 H 0.70572 0.32205 0.60926
 H233 H 0.67210 0.32693 0.66943
 H234 H 0.65632 0.34021 0.65041
 N235 N 0.62711 0.82134 1.18613
 N236 N 0.63052 0.83768 1.19607
 C237 C 0.61857 0.83877 1.21258
 C238 C 0.60675 0.82243 1.21271
 C239 C 0.61253 0.81167 1.19571
 H240 H 0.61886 0.85029 1.22397
 H241 H 0.60747 0.79730 1.19147
 Cu242 Cu 0.65107 0.85530 1.18711
 Cu243 Cu 0.64378 0.81250 1.16348
 Cu244 Cu 0.68469 0.84094 1.15228
 N245 N 0.67562 0.86935 1.18354
 N246 N 0.68895 0.86353 1.17016
 C247 C 0.70528 0.87460 1.17230
 C248 C 0.70189 0.88813 1.18771
 C249 C 0.68290 0.88438 1.19451
 H250 H 0.71888 0.87251 1.16385
 H251 H 0.67536 0.89126 1.20727
 N252 N 0.67763 0.81734 1.13637
 N253 N 0.66249 0.80615 1.14120
 C254 C 0.66297 0.79002 1.12938
 C255 C 0.67889 0.79129 1.11625
 C256 C 0.68787 0.80880 1.12101
 H257 H 0.65287 0.77792 1.13063
 H258 H 0.70155 0.81425 1.11468
 H259 H 0.66857 0.82686 1.17456
 H260 H 0.65420 0.83917 1.15370
 N261 N 0.12650 0.32367 1.17371
 N262 N 0.12929 0.33824 1.18656
 C263 C 0.11688 0.33628 1.20264
 C264 C 0.10556 0.31983 1.19944
 C265 C 0.11204 0.31220 1.18093
 H266 H 0.11663 0.34565 1.21606
 H267 H 0.10764 0.29853 1.17406
 Cu268 Cu 0.14984 0.35756 1.18183
 Cu269 Cu 0.14405 0.31850 1.15073
 Cu270 Cu 0.18224 0.35093 1.14301
 N271 N 0.17181 0.37537 1.17730
 N272 N 0.18435 0.37256 1.16214
 C273 C 0.19922 0.38543 1.16380
 C274 C 0.19584 0.39701 1.18078
 C275 C 0.17827 0.39032 1.18905
 H276 H 0.21221 0.38562 1.15412
 H277 H 0.17155 0.39499 1.20333
 N278 N 0.17781 0.32816 1.12522
 N279 N 0.16339 0.31562 1.12836
 C280 C 0.16582 0.30034 1.11560
 C281 C 0.18245 0.30347 1.10382
 C282 C 0.18967 0.32128 1.11024
 H283 H 0.15686 0.28734 1.11563
 H284 H 0.20333 0.32800 1.10545
 H285 H 0.16835 0.33247 1.16353
 H286 H 0.15211 0.34697 1.14594
 N287 N 0.13041 0.81799 0.67859
 N288 N 0.13382 0.82913 0.69474
 C289 C 0.12063 0.82511 0.70951
 C290 C 0.10823 0.81072 0.70239
 C291 C 0.11475 0.80646 0.68263
 H292 H 0.12054 0.83159 0.72473
 H293 H 0.10934 0.79509 0.67253
 Cu294 Cu 0.15611 0.84665 0.69642
 Cu295 Cu 0.14827 0.81800 0.65489
 Cu296 Cu 0.18331 0.85480 0.65437
 N297 N 0.17318 0.86908 0.69441
 N298 N 0.18350 0.87266 0.67775
 C299 C 0.19532 0.88808 0.68135
 C300 C 0.19220 0.89432 0.70141
 C301 C 0.17808 0.88198 0.70918
 H302 H 0.20639 0.89335 0.67079
 H303 H 0.17259 0.88178 0.72480
 N304 N 0.18103 0.83510 0.63240
 N305 N 0.16796 0.82084 0.63257
 C306 C 0.17251 0.80807 0.61744
 C307 C 0.18931 0.81465 0.60751
 C308 C 0.19419 0.83176 0.61734
 H309 H 0.16528 0.79423 0.61509
 H310 H 0.20743 0.84022 0.61480
 H311 H 0.17314 0.82969 0.66874
 H312 H 0.15384 0.84706 0.65915
 N313 N 0.37202 0.68836 0.66367
 N314 N 0.37696 0.67420 0.67623
 C315 C 0.39188 0.68023 0.68859
 C316 C 0.39637 0.69922 0.68347
 C317 C 0.38349 0.70387 0.66766
 H318 H 0.39815 0.67184 0.70109
 H319 H 0.38201 0.71784 0.66027
 Cu320 Cu 0.36188 0.65018 0.67657
 Cu321 Cu 0.34974 0.68657 0.64454
 Cu322 Cu 0.31981 0.64605 0.64889
 N323 N 0.34305 0.62941 0.68159
 N324 N 0.32705 0.62745 0.67014
 C325 C 0.31604 0.61280 0.67751
 C326 C 0.32556 0.60528 0.69464
 C327 C 0.34263 0.61619 0.69683
 H328 H 0.30150 0.60892 0.67179
 H329 H 0.35342 0.61519 0.70916
 N330 N 0.31497 0.66666 0.62854
 N331 N 0.32647 0.68204 0.62668
 C332 C 0.31831 0.69422 0.61282
 C333 C 0.30075 0.68616 0.60584
 C334 C 0.29912 0.66875 0.61608
 H335 H 0.32399 0.70845 0.60914
 H336 H 0.28673 0.65884 0.61526
 H337 H 0.33380 0.66878 0.66387
 H338 H 0.34773 0.65670 0.64255
 N339 N 0.37231 0.17568 1.17010
 N340 N 0.36952 0.16088 1.18247
 C341 C 0.38225 0.16227 1.19849
 C342 C 0.39379 0.17860 1.19577
 C343 C 0.38711 0.18675 1.17758
 H344 H 0.38254 0.15265 1.21161
 H345 H 0.39158 0.20052 1.17118
 Cu346 Cu 0.34848 0.14208 1.17751
 Cu347 Cu 0.35434 0.18159 1.14751
 Cu348 Cu 0.31516 0.15020 1.13952
 N349 N 0.32591 0.12498 1.17292
 N350 N 0.31296 0.12834 1.15816
 C351 C 0.29783 0.11580 1.15983
 C352 C 0.30148 0.10386 1.17642
 C353 C 0.31947 0.11002 1.18442
 H354 H 0.28455 0.11603 1.15043
 H355 H 0.32657 0.10494 1.19837
 N356 N 0.31975 0.17310 1.12222
 N357 N 0.33455 0.18525 1.12550
 C358 C 0.33224 0.20075 1.11314
 C359 C 0.31531 0.19818 1.10147
 C360 C 0.30777 0.18046 1.10753
 H361 H 0.34152 0.21353 1.11340
 H362 H 0.29383 0.17415 1.10273
 H363 H 0.33007 0.16793 1.16035
 H364 H 0.34546 0.15341 1.14200
 N365 N 0.86658 0.68555 1.16626
 N366 N 0.87137 0.67224 1.17988
 C367 C 0.88632 0.67886 1.19177
 C368 C 0.89109 0.69737 1.18526
 C369 C 0.87827 0.70115 1.16910
 H370 H 0.89240 0.67124 1.20490
 H371 H 0.87698 0.71461 1.16067
 Cu372 Cu 0.85600 0.64867 1.18240
 Cu373 Cu 0.84418 0.68250 1.14737
 Cu374 Cu 0.81353 0.64301 1.15602
 N375 N 0.83696 0.62897 1.18996
 N376 N 0.82081 0.62615 1.17894
 C377 C 0.80990 0.61221 1.18784
 C378 C 0.81963 0.60619 1.20552
 C379 C 0.83668 0.61721 1.20648
 H380 H 0.79531 0.60780 1.18269
 H381 H 0.84769 0.61715 1.21865
 N382 N 0.80879 0.66194 1.13379
 N383 N 0.82067 0.67675 1.13018
 C384 C 0.81268 0.68775 1.11514
 C385 C 0.79483 0.67956 1.10923
 C386 C 0.79283 0.66329 1.12135
 H387 H 0.81865 0.70142 1.10994
 H388 H 0.78016 0.65371 1.12174
 H389 H 0.82814 0.66670 1.16843
 H390 H 0.84147 0.65264 1.14811
 N391 N 0.87120 0.18378 0.67985
 N392 N 0.86869 0.16810 0.69103
 C393 C 0.88038 0.16917 0.70789
 C394 C 0.89104 0.18624 0.70693
 C395 C 0.88487 0.19516 0.68896
 H396 H 0.88085 0.15853 0.72009
 H397 H 0.88918 0.20936 0.68354
 Cu398 Cu 0.84996 0.14821 0.68268
 Cu399 Cu 0.85470 0.18959 0.65595
 Cu400 Cu 0.81689 0.15709 0.64503
 N401 N 0.82703 0.13170 0.67860
 N402 N 0.81408 0.13533 0.66390
 C403 C 0.79874 0.12302 0.66567
 C404 C 0.80231 0.11101 0.68225
 C405 C 0.82043 0.11688 0.69015
 H406 H 0.78551 0.12337 0.65620
 H407 H 0.82767 0.11163 0.70395
 N408 N 0.82222 0.18014 0.62804
 N409 N 0.83629 0.19279 0.63255
 C410 C 0.83446 0.20821 0.61999
 C411 C 0.81866 0.20502 0.60685
 C412 C 0.81126 0.18707 0.61230
 H413 H 0.84329 0.22127 0.62096
 H414 H 0.79799 0.18028 0.60630
 H415 H 0.83080 0.17416 0.66700
 H416 H 0.84703 0.16152 0.64795
 N417 N 0.32148 0.37539 0.66944
 N418 N 0.33600 0.37674 0.68296
 C419 C 0.33068 0.38882 0.69826
 C420 C 0.31201 0.39578 0.69396
 C421 C 0.30653 0.38710 0.67546
 H422 H 0.33949 0.39181 0.71188
 H423 H 0.29232 0.38816 0.66777
 Cu424 Cu 0.35995 0.36163 0.68036
 Cu425 Cu 0.32266 0.35662 0.64663
 Cu426 Cu 0.35838 0.32047 0.65341
 N427 N 0.37979 0.34180 0.68435
 N428 N 0.37920 0.32554 0.67371
 C429 C 0.39296 0.31326 0.68122
 C430 C 0.40245 0.32234 0.69761
 C431 C 0.39374 0.34041 0.69913
 H432 H 0.39474 0.29834 0.67630
 H433 H 0.39632 0.35115 0.71106
 N434 N 0.33625 0.31826 0.63361
 N435 N 0.32288 0.33202 0.63061
 C436 C 0.30916 0.32544 0.61707
 C437 C 0.31419 0.30664 0.61151
 C438 C 0.33134 0.30263 0.62223
 H439 H 0.29593 0.33328 0.61261
 H440 H 0.33920 0.28894 0.62229
 H441 H 0.33680 0.33829 0.66627
 H442 H 0.35246 0.34879 0.64566
 N443 N 0.31833 0.87518 0.16434
 N444 N 0.33273 0.87707 0.17792
 C445 C 0.32749 0.89014 0.19231
 C446 C 0.30893 0.89707 0.18746
 C447 C 0.30347 0.88739 0.16950
 H448 H 0.33613 0.89358 0.20593
 H449 H 0.28928 0.88807 0.16170
 Cu450 Cu 0.35598 0.86073 0.17733
 Cu451 Cu 0.31955 0.85513 0.14278
 Cu452 Cu 0.35356 0.81808 0.15309
 N453 N 0.37450 0.84025 0.18376
 N454 N 0.37361 0.82339 0.17423
 C455 C 0.38652 0.81108 0.18324
 C456 C 0.39570 0.82079 0.19942
 C457 C 0.38771 0.83922 0.19929
 H458 H 0.38792 0.79584 0.17941
 H459 H 0.39033 0.85061 0.21052
 N460 N 0.33226 0.81579 0.13224
 N461 N 0.31961 0.82990 0.12794
 C462 C 0.30656 0.82345 0.11364
 C463 C 0.31125 0.80436 0.10888
 C464 C 0.32752 0.80004 0.12092
 H465 H 0.29409 0.83170 0.10790
 H466 H 0.33500 0.78617 0.12172
 H467 H 0.33236 0.83741 0.16400
 H468 H 0.34905 0.84613 0.14333
 N469 N 0.82751 0.37804 0.17412
 N470 N 0.84286 0.37642 0.18653
 C471 C 0.84024 0.38796 0.20306
 C472 C 0.82240 0.39753 0.20076
 C473 C 0.81470 0.39100 0.18215
 H474 H 0.85022 0.38879 0.21613
 H475 H 0.80039 0.39447 0.17555
 Cu476 Cu 0.86400 0.35826 0.18066
 Cu477 Cu 0.82472 0.36168 0.14966
 Cu478 Cu 0.85522 0.32074 0.14896
 N479 N 0.88075 0.33551 0.18090
 N480 N 0.87747 0.32078 0.16839
 C481 C 0.88968 0.30606 0.17356
 C482 C 0.90094 0.31194 0.19037
 C483 C 0.89489 0.33065 0.19459
 H484 H 0.88917 0.29168 0.16682
 H485 H 0.89942 0.33954 0.20757
 N486 N 0.83193 0.32383 0.13067
 N487 N 0.82034 0.33930 0.13116
 C488 C 0.80455 0.33619 0.11886
 C489 C 0.80633 0.31802 0.11007
 C490 C 0.82389 0.31057 0.11779
 H491 H 0.79213 0.34600 0.11722
 H492 H 0.82965 0.29610 0.11529
 H493 H 0.83732 0.33938 0.16581
 H494 H 0.85307 0.35013 0.14539
 N495 N 0.82253 0.87696 0.67336
 N496 N 0.83955 0.87746 0.68324
 C497 C 0.83913 0.89180 0.69739
 C498 C 0.82095 0.90093 0.69607
 C499 C 0.81078 0.89119 0.68062
 H500 H 0.85073 0.89467 0.70856
 H501 H 0.79549 0.89332 0.67611
 Cu502 Cu 0.85938 0.85767 0.67845
 Cu503 Cu 0.81584 0.85613 0.65416
 Cu504 Cu 0.85181 0.82061 0.64576
 N505 N 0.87488 0.83409 0.68023
 N506 N 0.87233 0.81955 0.66728
 C507 C 0.88437 0.80479 0.67289
 C508 C 0.89465 0.81045 0.69049
 C509 C 0.88820 0.82904 0.69468
 H510 H 0.88457 0.79062 0.66563
 H511 H 0.89224 0.83791 0.70785
 N512 N 0.82582 0.82092 0.63133
 N513 N 0.81201 0.83403 0.63525
 C514 C 0.79536 0.82925 0.62497
 C515 C 0.79884 0.81256 0.61384
 C516 C 0.81831 0.80760 0.61812
 H517 H 0.78148 0.83703 0.62586
 H518 H 0.82602 0.79469 0.61300
 H519 H 0.83451 0.83502 0.66638
 H520 H 0.84415 0.84991 0.64480
 N521 N 0.67883 0.62043 0.67598
 N522 N 0.66159 0.61897 0.68512
 C523 C 0.66216 0.60418 0.69857
 C524 C 0.68071 0.59581 0.69769
 C525 C 0.69095 0.60641 0.68312
 H526 H 0.65050 0.60074 0.70932
 H527 H 0.70649 0.60518 0.67941
 Cu528 Cu 0.64145 0.63863 0.68149
 Cu529 Cu 0.68524 0.64268 0.65877
 Cu530 Cu 0.64667 0.67458 0.64746
 N531 N 0.62612 0.66227 0.68366
 N532 N 0.62757 0.67636 0.67014
 C533 C 0.61585 0.69123 0.67616
 C534 C 0.60698 0.68610 0.69460
 C535 C 0.61387 0.66772 0.69885
 H536 H 0.61495 0.70514 0.66852
 H537 H 0.61085 0.65924 0.71247
 N538 N 0.67226 0.67470 0.63265
 N539 N 0.68706 0.66299 0.63755
 C540 C 0.70295 0.66759 0.62618
 C541 C 0.69799 0.68282 0.61347
 C542 C 0.67839 0.68702 0.61789
 H543 H 0.71729 0.66066 0.62732
 H544 H 0.66958 0.69875 0.61165
 H545 H 0.66442 0.66284 0.66889
 H546 H 0.65680 0.64561 0.64815
 N547 N 0.67448 0.12264 0.17531
 N548 N 0.65767 0.12244 0.18543
 C549 C 0.65845 0.10865 0.20002
 C550 C 0.67662 0.09954 0.19883
 C551 C 0.68645 0.10871 0.18292
 H552 H 0.64712 0.10620 0.21144
 H553 H 0.70165 0.10646 0.17833
 Cu554 Cu 0.63766 0.14202 0.18058
 Cu555 Cu 0.68049 0.14285 0.15528
 Cu556 Cu 0.64387 0.17769 0.14648
 N557 N 0.62218 0.16565 0.18204
 N558 N 0.62416 0.17956 0.16840
 C559 C 0.61222 0.19449 0.17361
 C560 C 0.60261 0.18966 0.19170
 C561 C 0.60932 0.17133 0.19659
 H562 H 0.61161 0.20825 0.16566
 H563 H 0.60570 0.16305 0.21020
 N564 N 0.66943 0.17726 0.13174
 N565 N 0.68350 0.16439 0.13558
 C566 C 0.69979 0.16922 0.12494
 C567 C 0.69582 0.18579 0.11383
 C568 C 0.67641 0.19054 0.11842
 H569 H 0.71382 0.16167 0.12571
 H570 H 0.66838 0.20329 0.11344
 H571 H 0.66203 0.16425 0.16720
 H572 H 0.65194 0.14840 0.14639
 N573 N 0.18286 0.62553 0.16451
 N574 N 0.16885 0.62366 0.17837
 C575 C 0.17476 0.61112 0.19292
 C576 C 0.19334 0.60443 0.18789
 C577 C 0.19813 0.61376 0.16966
 H578 H 0.16651 0.60778 0.20670
 H579 H 0.21213 0.61317 0.16166
 Cu580 Cu 0.14479 0.63892 0.17767
 Cu581 Cu 0.18052 0.64513 0.14263
 Cu582 Cu 0.14801 0.68234 0.15601
 N583 N 0.12501 0.65862 0.18296
 N584 N 0.12610 0.67568 0.17406
 C585 C 0.11209 0.68741 0.18199
 C586 C 0.10189 0.67715 0.19684
 C587 C 0.11049 0.65895 0.19707
 H588 H 0.11061 0.70269 0.17853
 H589 H 0.10734 0.64730 0.20768
 N590 N 0.16795 0.68481 0.13416
 N591 N 0.18003 0.67066 0.12851
 C592 C 0.19205 0.67732 0.11352
 C593 C 0.18720 0.69657 0.10980
 C594 C 0.17196 0.70074 0.12308
 H595 H 0.20399 0.66912 0.10664
 H596 H 0.16465 0.71462 0.12483
 H597 H 0.16907 0.66178 0.16490
 H598 H 0.15099 0.65469 0.14447
 N599 N 0.18413 0.12329 0.66655
 N600 N 0.16920 0.12032 0.67908
 C601 C 0.17399 0.10624 0.69246
 C602 C 0.19286 0.09987 0.68809
 C603 C 0.19893 0.11093 0.67148
 H604 H 0.16493 0.10183 0.70532
 H605 H 0.21352 0.11111 0.66467
 Cu606 Cu 0.14603 0.13683 0.67895
 Cu607 Cu 0.18428 0.14524 0.64738
 Cu608 Cu 0.14554 0.17830 0.65268
 N609 N 0.12669 0.15681 0.68485
 N610 N 0.12613 0.17290 0.67407
 C611 C 0.11249 0.18492 0.68223
 C612 C 0.10426 0.17588 0.69917
 C613 C 0.11364 0.15810 0.70041
 H614 H 0.10989 0.19967 0.67723
 H615 H 0.11188 0.14736 0.71237
 N616 N 0.16674 0.18117 0.63215
 N617 N 0.18145 0.16866 0.62993
 C618 C 0.19428 0.17574 0.61596
 C619 C 0.18728 0.19357 0.60931
 C620 C 0.16988 0.19649 0.61983
 H621 H 0.20824 0.16906 0.61193
 H622 H 0.16073 0.20937 0.61927
 H623 H 0.16775 0.16231 0.66687
 H624 H 0.15422 0.15014 0.64526
 N625 N 0.32262 0.62518 0.32664
 N626 N 0.34018 0.62484 0.31802
 C627 C 0.34044 0.61116 0.30315
 C628 C 0.32214 0.60227 0.30264
 C629 C 0.31118 0.61146 0.31780
 H630 H 0.35263 0.60864 0.29272
 H631 H 0.29564 0.60936 0.32105
 Cu632 Cu 0.35985 0.64416 0.32503
 Cu633 Cu 0.31513 0.64529 0.34639
 Cu634 Cu 0.35074 0.68030 0.35828
 N635 N 0.37544 0.66768 0.32496
 N636 N 0.37214 0.68198 0.33801
 C637 C 0.38419 0.69696 0.33336
 C638 C 0.39529 0.69167 0.31628
 C639 C 0.38932 0.67308 0.31143
 H640 H 0.38385 0.71102 0.34084
 H641 H 0.39398 0.66449 0.29831
 N642 N 0.32422 0.67958 0.37125
 N643 N 0.31056 0.66669 0.36608
 C644 C 0.29359 0.67111 0.37581
 C645 C 0.29670 0.68735 0.38784
 C646 C 0.31630 0.69240 0.38467
 H647 H 0.27977 0.66337 0.37401
 H648 H 0.32388 0.70500 0.39080
 H649 H 0.33445 0.66660 0.33617
 H650 H 0.34294 0.65102 0.35783
 N651 N 0.32591 0.12603 0.82591
 N652 N 0.34376 0.12401 0.81819
 C653 C 0.34389 0.10890 0.80501
 C654 C 0.32515 0.10093 0.80452
 C655 C 0.31409 0.11208 0.81805
 H656 H 0.35622 0.10499 0.79524
 H657 H 0.29828 0.11128 0.82048
 Cu658 Cu 0.36393 0.14345 0.82289
 Cu659 Cu 0.31863 0.14888 0.84203
 Cu660 Cu 0.35679 0.18039 0.85566
 N661 N 0.37968 0.16686 0.82144
 N662 N 0.37736 0.18132 0.83452
 C663 C 0.38939 0.19603 0.82903
 C664 C 0.39942 0.19042 0.81138
 C665 C 0.39289 0.17190 0.80705
 H666 H 0.38968 0.21016 0.83638
 H667 H 0.39673 0.16310 0.79380
 N668 N 0.33024 0.18152 0.86823
 N669 N 0.31561 0.16992 0.86250
 C670 C 0.29902 0.17531 0.87237
 C671 C 0.30335 0.19098 0.88486
 C672 C 0.32331 0.19457 0.88197
 H673 H 0.28465 0.16864 0.87031
 H674 H 0.33192 0.20632 0.88852
 H675 H 0.34043 0.16832 0.83308
 H676 H 0.34623 0.15154 0.85473
 N677 N 0.81918 0.62246 0.83435
 N678 N 0.83413 0.62136 0.82150
 C679 C 0.83009 0.60815 0.80679
 C680 C 0.81175 0.60029 0.81070
 C681 C 0.80518 0.60958 0.82842
 H682 H 0.83939 0.60516 0.79362
 H683 H 0.79082 0.60812 0.83555
 Cu684 Cu 0.85660 0.63860 0.82362
 Cu685 Cu 0.81860 0.64228 0.85615
 Cu686 Cu 0.85106 0.68090 0.84802
 N687 N 0.87456 0.65985 0.81872
 N688 N 0.87246 0.67655 0.82834
 C689 C 0.88542 0.68940 0.82052
 C690 C 0.89593 0.68020 0.80499
 C691 C 0.88864 0.66152 0.80426
 H692 H 0.88605 0.70461 0.82467
 H693 H 0.89240 0.65035 0.79317
 N694 N 0.82859 0.68218 0.86736
 N695 N 0.81662 0.66742 0.87096
 C696 C 0.80252 0.67320 0.88433
 C697 C 0.80579 0.69254 0.88918
 C698 C 0.82233 0.69772 0.87815
 H699 H 0.79025 0.66433 0.88927
 H700 H 0.82895 0.71199 0.87767
 H701 H 0.83136 0.66073 0.83575
 H702 H 0.84761 0.65265 0.85729
 N703 N 0.81960 0.12313 0.33127
 N704 N 0.83391 0.12123 0.31774
 C705 C 0.82854 0.10821 0.30331
 C706 C 0.81002 0.10127 0.30814
 C707 C 0.80471 0.11096 0.32608
 H708 H 0.83714 0.10462 0.28978
 H709 H 0.79064 0.11020 0.33392
 Cu710 Cu 0.85756 0.13704 0.31899
 Cu711 Cu 0.82094 0.14294 0.35304
 Cu712 Cu 0.85627 0.17895 0.34469
 N713 N 0.87701 0.15704 0.31390
 N714 N 0.87666 0.17344 0.32430
 C715 C 0.89038 0.18552 0.31657
 C716 C 0.89960 0.17621 0.30028
 C717 C 0.89073 0.15818 0.29899
 H718 H 0.89238 0.20046 0.32136
 H719 H 0.89323 0.14721 0.28731
 N720 N 0.83457 0.18168 0.36466
 N721 N 0.82129 0.16802 0.36819
 C722 C 0.80781 0.17498 0.38165
 C723 C 0.81292 0.19391 0.38660
 C724 C 0.82986 0.19761 0.37561
 H725 H 0.79472 0.16726 0.38651
 H726 H 0.83769 0.21128 0.37508
 H727 H 0.83453 0.16072 0.33255
 H728 H 0.85067 0.15084 0.35331
 N729 N 0.67754 0.37790 0.33333
 N730 N 0.66309 0.37992 0.31983
 C731 C 0.66842 0.39290 0.30552
 C732 C 0.68709 0.39962 0.31039
 C733 C 0.69250 0.38990 0.32822
 H734 H 0.65973 0.39653 0.29202
 H735 H 0.70668 0.39048 0.33604
 Cu736 Cu 0.63944 0.36414 0.32083
 Cu737 Cu 0.67634 0.35816 0.35492
 Cu738 Cu 0.64102 0.32214 0.34604
 N739 N 0.62006 0.34407 0.31539
 N740 N 0.62054 0.32764 0.32561
 C741 C 0.60696 0.31546 0.31757
 C742 C 0.59767 0.32472 0.30127
 C743 C 0.60636 0.34283 0.30030
 H744 H 0.60514 0.30049 0.32211
 H745 H 0.60381 0.35378 0.28869
 N746 N 0.66283 0.31944 0.36609
 N747 N 0.67611 0.33312 0.36978
 C748 C 0.68976 0.32617 0.38312
 C749 C 0.68476 0.30722 0.38785
 C750 C 0.66770 0.30349 0.37685
 H751 H 0.70290 0.33391 0.38803
 H752 H 0.65990 0.28980 0.37614
 H753 H 0.66258 0.34043 0.33416
 H754 H 0.64658 0.35025 0.35500
 N755 N 0.68319 0.88011 0.82737
 N756 N 0.66661 0.88216 0.81689
 C757 C 0.66874 0.89649 0.80308
 C758 C 0.68757 0.90401 0.80519
 C759 C 0.69637 0.89335 0.82081
 H760 H 0.65786 0.90033 0.79150
 H761 H 0.71164 0.89413 0.82585
 Cu762 Cu 0.64505 0.86403 0.82005
 Cu763 Cu 0.68717 0.85859 0.84645
 Cu764 Cu 0.64767 0.82648 0.85231
 N765 N 0.62797 0.84170 0.81660
 N766 N 0.62861 0.82698 0.82941
 C767 C 0.61590 0.81317 0.82271
 C768 C 0.60722 0.81963 0.80456
 C769 C 0.61525 0.83771 0.80118
 H770 H 0.61415 0.79907 0.82974
 H771 H 0.61265 0.84695 0.78799
 N772 N 0.67276 0.82442 0.86812
 N773 N 0.68803 0.83605 0.86511
 C774 C 0.70359 0.82954 0.87615
 C775 C 0.69781 0.81329 0.88684
 C776 C 0.67816 0.81040 0.88147
 H777 H 0.71823 0.83586 0.87612
 H778 H 0.66890 0.79836 0.88594
 H779 H 0.66725 0.83930 0.83295
 H780 H 0.65804 0.85497 0.85426
 N781 N 0.17456 0.38095 0.82121
 N782 N 0.15815 0.38002 0.81029
 C783 C 0.15910 0.39277 0.79467
 C784 C 0.17695 0.40243 0.79608
 C785 C 0.18641 0.39463 0.81314
 H786 H 0.14810 0.39419 0.78258
 H787 H 0.20136 0.39761 0.81831
 Cu788 Cu 0.13840 0.36052 0.81596
 Cu789 Cu 0.18054 0.36223 0.84291
 Cu790 Cu 0.14455 0.32723 0.85277
 N791 N 0.12337 0.33664 0.81575
 N792 N 0.12538 0.32363 0.83038
 C793 C 0.11392 0.30816 0.82580
 C794 C 0.10460 0.31170 0.80710
 C795 C 0.11095 0.32984 0.80120
 H796 H 0.11347 0.29490 0.83466
 H797 H 0.10744 0.33720 0.78694
 N798 N 0.16973 0.32908 0.86833
 N799 N 0.18355 0.34205 0.86421
 C800 C 0.19978 0.33805 0.87554
 C801 C 0.19604 0.32190 0.88736
 C802 C 0.17681 0.31657 0.88249
 H803 H 0.21369 0.34574 0.87463
 H804 H 0.16904 0.30383 0.88778
 H805 H 0.16292 0.33973 0.83183
 H806 H 0.15192 0.35661 0.85109
 N807 N 0.17390 0.87788 0.32275
 N808 N 0.15718 0.87789 0.31230
 C809 C 0.15821 0.89109 0.29714
 C810 C 0.17648 0.90000 0.29829
 C811 C 0.18608 0.89134 0.31478
 H812 H 0.14699 0.89324 0.28540
 H813 H 0.20126 0.89359 0.31961
 Cu814 Cu 0.13700 0.85873 0.31756
 Cu815 Cu 0.17953 0.85849 0.34384
 Cu816 Cu 0.14273 0.82410 0.35302
 N817 N 0.12155 0.83514 0.31648
 N818 N 0.12338 0.82155 0.33053
 C819 C 0.11163 0.80644 0.32529
 C820 C 0.10235 0.81085 0.30677
 C821 C 0.10902 0.82909 0.30166
 H822 H 0.11099 0.79284 0.33353
 H823 H 0.10567 0.83703 0.28772
 N824 N 0.16800 0.82516 0.36863
 N825 N 0.18217 0.83779 0.36459
 C826 C 0.19824 0.83345 0.37603
 C827 C 0.19400 0.81750 0.38793
 C828 C 0.17468 0.81257 0.38294
 H829 H 0.21229 0.84092 0.37532
 H830 H 0.16655 0.80009 0.38835
 H831 H 0.16113 0.83679 0.33233
 H832 H 0.15081 0.85332 0.35231
 C833 C 0.24922 1.05155 0.24295
 C834 C 0.26352 1.04070 0.23235
 C835 C 0.26224 1.02039 0.23210
 C836 C 0.24596 1.01088 0.24110
 C837 C 0.23134 1.02218 0.25100
 C838 C 0.23329 1.04237 0.25263
 C839 C 0.24420 0.98928 0.24030
 C840 C 0.23552 0.97916 0.25678
 C841 C 0.23306 0.95900 0.25587
 C842 C 0.24054 0.94862 0.23899
 C843 C 0.25021 0.95826 0.22291
 C844 C 0.25131 0.97860 0.22325
 H845 H 0.25046 1.06723 0.24355
 H846 H 0.27383 1.01213 0.22462
 H847 H 0.21849 1.01533 0.25770
 H848 H 0.23047 0.98688 0.27034
 H849 H 0.23919 0.93295 0.23858
 H850 H 0.25811 0.98596 0.21040
 C851 C 0.26221 0.55414 0.75111
 C852 C 0.26891 0.54413 0.73367
 C853 C 0.26477 0.52427 0.73154
 C854 C 0.25575 0.51371 0.74766
 C855 C 0.25034 0.52409 0.76567
 C856 C 0.25248 0.54427 0.76685
 C857 C 0.25163 0.49224 0.74557
 C858 C 0.23804 0.48286 0.75872
 C859 C 0.23449 0.46287 0.75724
 C860 C 0.24411 0.45196 0.74203
 C861 C 0.25755 0.46080 0.72866
 C862 C 0.26131 0.48076 0.73054
 H863 H 0.26407 0.56974 0.75224
 H864 H 0.26873 0.51736 0.71717
 H865 H 0.24379 0.51695 0.77872
 H866 H 0.22975 0.49083 0.77014
 H867 H 0.24147 0.43649 0.74088
 H868 H 0.27243 0.48687 0.72060
 C869 C 0.75113 -0.05322 0.25323
 C870 C 0.76376 -0.04230 0.26599
 C871 C 0.76149 -0.02209 0.26705
 C872 C 0.74626 -0.01259 0.25602
 C873 C 0.73312 -0.02404 0.24412
 C874 C 0.73577 -0.04417 0.24223
 C875 C 0.74403 0.00909 0.25686
 C876 C 0.73543 0.01922 0.24016
 C877 C 0.73282 0.03939 0.24098
 C878 C 0.74032 0.04984 0.25784
 C879 C 0.74997 0.04030 0.27408
 C880 C 0.75091 0.01995 0.27402
 H881 H 0.75242 -0.06889 0.25296
 H882 H 0.77185 -0.01394 0.27645
 H883 H 0.72061 -0.01745 0.23634
 H884 H 0.73063 0.01158 0.22642
 H885 H 0.73908 0.06553 0.25809
 H886 H 0.75752 0.01282 0.28718
 C887 C 0.75176 0.44452 0.75521
 C888 C 0.76674 0.45523 0.76503
 C889 C 0.76593 0.47556 0.76488
 C890 C 0.74956 0.48526 0.75610
 C891 C 0.73434 0.47418 0.74686
 C892 C 0.73572 0.45391 0.74574
 C893 C 0.74836 0.50687 0.75641
 C894 C 0.73995 0.51689 0.73961
 C895 C 0.73797 0.53710 0.74011
 C896 C 0.74556 0.54758 0.75692
 C897 C 0.75490 0.53800 0.77335
 C898 C 0.75564 0.51765 0.77338
 H899 H 0.75260 0.42881 0.75499
 H900 H 0.77795 0.48371 0.77185
 H901 H 0.72148 0.48127 0.74025
 H902 H 0.73469 0.50901 0.72617
 H903 H 0.74444 0.56328 0.75704
 H904 H 0.76221 0.51031 0.78647
 C905 C 0.24937 0.44989 0.24679
 C906 C 0.26581 0.45895 0.25590
 C907 C 0.26827 0.47901 0.25364
 C908 C 0.25374 0.49035 0.24359
 C909 C 0.23704 0.48099 0.23500
 C910 C 0.23518 0.46074 0.23596
 C911 C 0.25603 0.51186 0.24233
 C912 C 0.24918 0.52230 0.22502
 C913 C 0.25084 0.54262 0.22432
 C914 C 0.26080 0.55237 0.24035
 C915 C 0.26781 0.54222 0.25758
 C916 C 0.26488 0.52216 0.25876
 H917 H 0.24773 0.43428 0.24789
 H918 H 0.28147 0.48576 0.25996
 H919 H 0.22560 0.48931 0.22731
 H920 H 0.24214 0.51478 0.21226
 H921 H 0.26260 0.56798 0.23973
 H922 H 0.26960 0.51463 0.27257
 C923 C 0.75036 1.05580 0.74689
 C924 C 0.76646 1.04621 0.73783
 C925 C 0.76787 1.02596 0.73930
 C926 C 0.75264 1.01509 0.74851
 C927 C 0.73620 1.02498 0.75681
 C928 C 0.73539 1.04529 0.75671
 C929 C 0.75393 0.99351 0.74956
 C930 C 0.74619 0.98340 0.76657
 C931 C 0.74656 0.96308 0.76708
 C932 C 0.75602 0.95278 0.75127
 C933 C 0.76442 0.96260 0.73461
 C934 C 0.76275 0.98283 0.73345
 H935 H 0.74955 1.07151 0.74651
 H936 H 0.78081 1.01876 0.73310
 H937 H 0.72417 1.01700 0.76375
 H938 H 0.73947 0.99121 0.77926
 H939 H 0.75663 0.93706 0.75184
 H940 H 0.76851 0.99017 0.72003
 C941 C 0.75601 0.55103 0.25869
 C942 C 0.76886 0.54093 0.24561
 C943 C 0.76965 0.52063 0.24642
 C944 C 0.75737 0.51004 0.25990
 C945 C 0.74450 0.52062 0.27291
 C946 C 0.74382 0.54096 0.27239
 C947 C 0.75777 0.48818 0.26006
 C948 C 0.75072 0.47755 0.27714
 C949 C 0.75000 0.45721 0.27662
 C950 C 0.75837 0.44721 0.25996
 C951 C 0.76620 0.45733 0.24325
 C952 C 0.76494 0.47761 0.24288
 H953 H 0.75534 0.56674 0.25808
 H954 H 0.78023 0.51337 0.23662
 H955 H 0.73436 0.51329 0.28307
 H956 H 0.74524 0.48483 0.29075
 H957 H 0.75846 0.43147 0.25985
 H958 H 0.76980 0.48490 0.22910
 C959 C 0.26533 -0.05094 0.73952
 C960 C 0.27759 -0.04069 0.75317
 C961 C 0.27767 -0.02036 0.75273
 C962 C 0.26520 -0.00997 0.73909
 C963 C 0.25281 -0.02070 0.72563
 C964 C 0.25278 -0.04105 0.72586
 C965 C 0.26461 0.01185 0.73950
 C966 C 0.25787 0.02261 0.72228
 C967 C 0.25632 0.04292 0.72326
 C968 C 0.26354 0.05277 0.74067
 C969 C 0.27079 0.04250 0.75763
 C970 C 0.27042 0.02220 0.75740
 H971 H 0.26513 -0.06667 0.73995
 H972 H 0.28772 -0.01289 0.76307
 H973 H 0.24241 -0.01346 0.71553
 H974 H 0.25328 0.01542 0.70821
 H975 H 0.26315 0.06850 0.74121
 H976 H 0.27492 0.01474 0.77127
 C977 C 0.24886 0.25191 1.04902
 C978 C 0.23973 0.26744 1.03879
 C979 C 0.24064 0.26846 1.01727
 C980 C 0.24931 0.25334 1.00571
 C981 C 0.25776 0.23749 1.01625
 C982 C 0.25823 0.23709 1.03783
 C983 C 0.24957 0.25418 0.98275
 C984 C 0.26559 0.24637 0.97161
 C985 C 0.26559 0.24657 0.95002
 C986 C 0.25014 0.25595 0.93946
 C987 C 0.23437 0.26437 0.95029
 C988 C 0.23381 0.26282 0.97180
 H989 H 0.24872 0.25137 1.06572
 H990 H 0.23432 0.28097 1.00962
 H991 H 0.26429 0.22553 1.00777
 H992 H 0.27800 0.23984 0.97963
 H993 H 0.25035 0.25663 0.92278
 H994 H 0.22114 0.26863 0.97994
 C995 C 0.24117 0.74828 0.55474
 C996 C 0.22486 0.75590 0.54408
 C997 C 0.22455 0.75530 0.52247
 C998 C 0.24138 0.74913 0.51122
 C999 C 0.25812 0.74274 0.52253
 C1000 C 0.25766 0.74133 0.54403
 C1001 C 0.24168 0.74957 0.48799
 C1002 C 0.25552 0.73837 0.47675
 C1003 C 0.25638 0.73916 0.45520
 C1004 C 0.24287 0.75087 0.44446
 C1005 C 0.22874 0.76190 0.45513
 C1006 C 0.22833 0.76131 0.47673
 H1007 H 0.24116 0.74805 0.57144
 H1008 H 0.21125 0.76015 0.51473
 H1009 H 0.27166 0.73857 0.51491
 H1010 H 0.26557 0.72855 0.48446
 H1011 H 0.24337 0.75143 0.42780
 H1012 H 0.21781 0.77059 0.48449
 C1013 C 0.24046 0.75950 -0.05688
 C1014 C 0.25639 0.76780 -0.04606
 C1015 C 0.25742 0.76579 -0.02461
 C1016 C 0.24212 0.75660 -0.01365
 C1017 C 0.22607 0.74860 -0.02481
 C1018 C 0.22555 0.74937 -0.04643
 C1019 C 0.24320 0.75515 0.00931
 C1020 C 0.23585 0.73870 0.01965
 C1021 C 0.23677 0.73749 0.04123
 C1022 C 0.24631 0.75230 0.05244
 C1023 C 0.25411 0.76858 0.04244
 C1024 C 0.25191 0.77021 0.02104
 H1025 H 0.23995 0.76050 -0.07353
 H1026 H 0.27025 0.77147 -0.01652
 H1027 H 0.21416 0.74138 -0.01680
 H1028 H 0.22925 0.72685 0.01102
 H1029 H 0.24758 0.75119 0.06903
 H1030 H 0.25731 0.78317 0.01355
 C1031 C 0.25334 0.24984 0.44779
 C1032 C 0.26459 0.26353 0.45874
 C1033 C 0.26416 0.26363 0.48034
 C1034 C 0.25233 0.25032 0.49133
 C1035 C 0.24097 0.23681 0.47982
 C1036 C 0.24152 0.23645 0.45824
 C1037 C 0.25170 0.25056 0.51454
 C1038 C 0.24548 0.23405 0.52567
 C1039 C 0.24374 0.23460 0.54717
 C1040 C 0.25023 0.25106 0.55801
 C1041 C 0.25763 0.26721 0.54751
 C1042 C 0.25731 0.26729 0.52590
 H1043 H 0.25368 0.24969 0.43110
 H1044 H 0.27354 0.27394 0.48831
 H1045 H 0.23109 0.22679 0.48734
 H1046 H 0.24161 0.22069 0.51787
 H1047 H 0.24965 0.25123 0.57470
 H1048 H 0.26187 0.28042 0.51824
 C1049 C 0.74005 0.74226 1.05372
 C1050 C 0.72529 0.75286 1.04347
 C1051 C 0.72391 0.75176 1.02193
 C1052 C 0.73782 0.74108 1.01022
 C1053 C 0.75323 0.73148 1.02096
 C1054 C 0.75399 0.73147 1.04255
 C1055 C 0.73665 0.74038 0.98702
 C1056 C 0.74607 0.72541 0.97573
 C1057 C 0.74631 0.72553 0.95411
 C1058 C 0.73569 0.73988 0.94347
 C1059 C 0.72541 0.75437 0.95426
 C1060 C 0.72629 0.75478 0.97584
 H1061 H 0.74151 0.74333 1.07033
 H1062 H 0.71181 0.75937 1.01458
 H1063 H 0.76487 0.72400 1.01276
 H1064 H 0.75352 0.71362 0.98351
 H1065 H 0.73485 0.73933 0.92681
 H1066 H 0.71908 0.76673 0.98360
 C1067 C 0.75126 0.25161 0.54906
 C1068 C 0.73861 0.26432 0.53847
 C1069 C 0.73824 0.26406 0.51688
 C1070 C 0.75053 0.25132 0.50556
 C1071 C 0.76320 0.23876 0.51663
 C1072 C 0.76354 0.23877 0.53821
 C1073 C 0.75018 0.25113 0.48242
 C1074 C 0.75607 0.23446 0.47121
 C1075 C 0.75677 0.23460 0.44964
 C1076 C 0.74960 0.25083 0.43897
 C1077 C 0.74272 0.26719 0.44969
 C1078 C 0.74398 0.26764 0.47124
 H1079 H 0.75153 0.25170 0.56576
 H1080 H 0.72787 0.27355 0.50912
 H1081 H 0.77332 0.22917 0.50868
 H1082 H 0.76051 0.22133 0.47906
 H1083 H 0.74936 0.25072 0.42227
 H1084 H 0.73974 0.28087 0.47909
 C1085 C 0.75022 0.24821 -0.04869
 C1086 C 0.75979 0.26338 -0.03817
 C1087 C 0.75895 0.26419 -0.01662
 C1088 C 0.74995 0.24918 -0.00535
 C1089 C 0.74109 0.23365 -0.01620
 C1090 C 0.74057 0.23350 -0.03779
 C1091 C 0.74983 0.24974 0.01763
 C1092 C 0.73369 0.24224 0.02875
 C1093 C 0.73384 0.24227 0.05036
 C1094 C 0.74956 0.25121 0.06098
 C1095 C 0.76549 0.25920 0.05017
 C1096 C 0.76589 0.25781 0.02864
 H1097 H 0.75030 0.24782 -0.06540
 H1098 H 0.76561 0.27645 -0.00872
 H1099 H 0.73435 0.22175 -0.00796
 H1100 H 0.72109 0.23608 0.02070
 H1101 H 0.74948 0.25184 0.07767
 H1102 H 0.77867 0.26331 0.02054
 C1103 C 0.74121 0.75573 0.44630
 C1104 C 0.75760 0.76306 0.45705
 C1105 C 0.75875 0.76076 0.47846
 C1106 C 0.74271 0.75304 0.48976
 C1107 C 0.72596 0.74650 0.47847
 C1108 C 0.72570 0.74677 0.45686
 C1109 C 0.74365 0.75159 0.51298
 C1110 C 0.73060 0.73941 0.52398
 C1111 C 0.73148 0.73807 0.54554
 C1112 C 0.74583 0.74874 0.55642
 C1113 C 0.75908 0.76079 0.54599
 C1114 C 0.75774 0.76235 0.52450
 H1115 H 0.74074 0.75659 0.42962
 H1116 H 0.77229 0.76525 0.48596
 H1117 H 0.71315 0.74061 0.48610
 H1118 H 0.71989 0.73040 0.51608
 H1119 H 0.74667 0.74770 0.57304
 H1120 H 0.76758 0.77249 0.51716
 C1121 C 1.05340 0.24934 0.24431
 C1122 C 1.04403 0.23549 0.25660
 C1123 C 1.02341 0.23353 0.25572
 C1124 C 1.01179 0.24547 0.24280
 C1125 C 1.02158 0.25943 0.23065
 C1126 C 1.04224 0.26136 0.23129
 C1127 C 0.98966 0.24343 0.24214
 C1128 C 0.97860 0.24961 0.22480
 C1129 C 0.95787 0.24893 0.22482
 C1130 C 0.94804 0.24011 0.24124
 C1131 C 0.95869 0.23304 0.25818
 C1132 C 0.97926 0.23557 0.25902
 H1133 H 1.06938 0.25074 0.24488
 H1134 H 1.01670 0.22226 0.26487
 H1135 H 1.01331 0.26930 0.22095
 H1136 H 0.98583 0.25556 0.21142
 H1137 H 0.93201 0.23918 0.24104
 H1138 H 0.98693 0.23122 0.27292
 C1139 C 0.55439 0.24891 0.75657
 C1140 C 0.54343 0.23724 0.76998
 C1141 C 0.52275 0.23906 0.77051
 C1142 C 0.51277 0.25252 0.75778
 C1143 C 0.52420 0.26413 0.74450
 C1144 C 0.54481 0.26229 0.74376
 C1145 C 0.49063 0.25445 0.75818
 C1146 C 0.48021 0.26167 0.74088
 C1147 C 0.45971 0.26453 0.74151
 C1148 C 0.44907 0.25838 0.75872
 C1149 C 0.45886 0.24991 0.77553
 C1150 C 0.47960 0.24894 0.77568
 H1151 H 0.57037 0.24761 0.75609
 H1152 H 0.51462 0.22952 0.78057
 H1153 H 0.51734 0.27510 0.73496
 H1154 H 0.48784 0.26537 0.72684
 H1155 H 0.43308 0.25977 0.75883
 H1156 H 0.48687 0.24337 0.78931
 C1157 C -0.04970 0.24934 0.75745
 C1158 C -0.03847 0.26090 0.77093
 C1159 C -0.01781 0.25887 0.77141
 C1160 C -0.00808 0.24520 0.75864
 C1161 C -0.01984 0.23366 0.74532
 C1162 C -0.04044 0.23579 0.74457
 C1163 C 0.01410 0.24302 0.75904
 C1164 C 0.02430 0.23487 0.74207
 C1165 C 0.04484 0.23207 0.74270
 C1166 C 0.05571 0.23918 0.75952
 C1167 C 0.04616 0.24851 0.77592
 C1168 C 0.02543 0.24938 0.77618
 H1169 H -0.06567 0.25089 0.75697
 H1170 H -0.00954 0.26844 0.78149
 H1171 H -0.01328 0.22256 0.73571
 H1172 H 0.01652 0.23052 0.72821
 H1173 H 0.07172 0.23801 0.75955
 H1174 H 0.01846 0.25564 0.78960
 C1175 C 0.44609 0.24783 0.24308
 C1176 C 0.45521 0.26190 0.25557
 C1177 C 0.47580 0.26420 0.25485
 C1178 C 0.48763 0.25241 0.24197
 C1179 C 0.47806 0.23833 0.22955
 C1180 C 0.45743 0.23608 0.22997
 C1181 C 0.50975 0.25481 0.24158
 C1182 C 0.52105 0.24859 0.22446
 C1183 C 0.54177 0.24985 0.22473
 C1184 C 0.55126 0.25934 0.24116
 C1185 C 0.54038 0.26625 0.25795
 C1186 C 0.51992 0.26311 0.25856
 H1187 H 0.43016 0.24612 0.24348
 H1188 H 0.48230 0.27565 0.26408
 H1189 H 0.48645 0.22865 0.21977
 H1190 H 0.51403 0.24222 0.21104
 H1191 H 0.56723 0.26092 0.24112
 H1192 H 0.51213 0.26738 0.27237
 C1193 C 1.05035 0.74477 0.74624
 C1194 C 1.04005 0.73316 0.76021
 C1195 C 1.01931 0.73267 0.75937
 C1196 C 1.00853 0.74404 0.74503
 C1197 C 1.01940 0.75573 0.73122
 C1198 C 1.04016 0.75608 0.73172
 C1199 C 0.98619 0.74386 0.74470
 C1200 C 0.97530 0.75017 0.72721
 C1201 C 0.95452 0.75080 0.72742
 C1202 C 0.94437 0.74308 0.74426
 C1203 C 0.95472 0.73621 0.76147
 C1204 C 0.97539 0.73754 0.76206
 H1205 H 1.06636 0.74516 0.74678
 H1206 H 1.01187 0.72296 0.76980
 H1207 H 1.01200 0.76519 0.72041
 H1208 H 0.98268 0.75506 0.71346
 H1209 H 0.92833 0.74271 0.74416
 H1210 H 0.98278 0.73333 0.77616
 C1211 C 0.54937 0.76374 0.26815
 C1212 C 0.53929 0.75121 0.28142
 C1213 C 0.51852 0.75099 0.28132
 C1214 C 0.50758 0.76313 0.26793
 C1215 C 0.51818 0.77570 0.25483
 C1216 C 0.53891 0.77587 0.25469
 C1217 C 0.48535 0.76229 0.26702
 C1218 C 0.47508 0.76785 0.24893
 C1219 C 0.45438 0.76808 0.24821
 C1220 C 0.44366 0.76095 0.26493
 C1221 C 0.45345 0.75399 0.28252
 C1222 C 0.47413 0.75562 0.28393
 H1223 H 0.56541 0.76368 0.26794
 H1224 H 0.51111 0.74064 0.29110
 H1225 H 0.51051 0.78561 0.24467
 H1226 H 0.48295 0.77227 0.23527
 H1227 H 0.42763 0.76045 0.26405
 H1228 H 0.48130 0.75118 0.29809
 C1229 C -0.05287 0.74745 0.25244
 C1230 C -0.04204 0.76190 0.26280
 C1231 C -0.02132 0.76091 0.26312
 C1232 C -0.01135 0.74486 0.25443
 C1233 C -0.02261 0.73012 0.24479
 C1234 C -0.04323 0.73172 0.24309
 C1235 C 0.01070 0.74348 0.25519
 C1236 C 0.02113 0.73482 0.23878
 C1237 C 0.04173 0.73279 0.23964
 C1238 C 0.05224 0.74060 0.25640
 C1239 C 0.04228 0.75026 0.27237
 C1240 C 0.02152 0.75097 0.27211
 H1241 H -0.06888 0.74843 0.25176
 H1242 H -0.01307 0.77257 0.27040
 H1243 H -0.01540 0.71745 0.23833
 H1244 H 0.01330 0.72950 0.22529
 H1245 H 0.06826 0.73957 0.25673
 H1246 H 0.01392 0.75779 0.28489
 C1247 C 0.45142 0.74917 0.75124
 C1248 C 0.46136 0.76460 0.76092
 C1249 C 0.48204 0.76563 0.75975
 C1250 C 0.49303 0.75069 0.75020
 C1251 C 0.48272 0.73503 0.74103
 C1252 C 0.46195 0.73459 0.74084
 C1253 C 0.51514 0.75157 0.74969
 C1254 C 0.52571 0.74403 0.73273
 C1255 C 0.54647 0.74430 0.73253
 C1256 C 0.55674 0.75346 0.74871
 C1257 C 0.54653 0.76156 0.76545
 C1258 C 0.52586 0.75998 0.76619
 H1259 H 0.43539 0.74865 0.75160
 H1260 H 0.48949 0.77807 0.76646
 H1261 H 0.49073 0.72327 0.73372
 H1262 H 0.51790 0.73763 0.71977
 H1263 H 0.57276 0.75415 0.74837
 H1264 H 0.51818 0.76555 0.77958
 C1265 C 0.39865 0.30281 0.27452
 C1266 C 0.41404 0.29193 0.28037
 C1267 C 0.42579 0.28111 0.26513
 C1268 C 0.44355 0.27387 0.27006
 H1269 H 0.41798 0.29088 0.29655
 H1270 H 0.41984 0.27905 0.24972
 H1271 H 0.39544 0.30468 0.25826
 H1272 H 0.45001 0.27721 0.28499
 C1273 C 0.40878 0.78687 0.80700
 C1274 C 0.42222 0.79132 0.79267
 C1275 C 0.43443 0.77595 0.78332
 C1276 C 0.45014 0.78005 0.77165
 H1277 H 0.42398 0.80612 0.78742
 H1278 H 0.43033 0.76093 0.78585
 H1279 H 0.40806 0.77207 0.81260
 H1280 H 0.45513 0.79493 0.77029
 C1281 C -0.08857 0.30957 0.78932
 C1282 C -0.07537 0.29616 0.79509
 C1283 C -0.06371 0.28538 0.77974
 C1284 C -0.04832 0.27437 0.78541
 H1285 H -0.07382 0.29238 0.81123
 H1286 H -0.06833 0.28575 0.76371
 H1287 H -0.08940 0.31404 0.77334
 H1288 H -0.04292 0.27501 0.80117
 C1289 C -0.09326 0.78610 0.30881
 C1290 C -0.07990 0.79033 0.29442
 C1291 C -0.06842 0.77462 0.28477
 C1292 C -0.05242 0.77801 0.27330
 H1293 H -0.07777 0.80518 0.28944
 H1294 H -0.07329 0.75978 0.28704
 H1295 H -0.09452 0.77130 0.31427
 H1296 H -0.04651 0.79259 0.27216
 C1297 C 0.59065 0.70289 0.29440
 C1298 C 0.57811 0.71587 0.30236
 C1299 C 0.56639 0.72840 0.28862
 C1300 C 0.55040 0.73801 0.29520
 H1301 H 0.57654 0.71729 0.31892
 H1302 H 0.57088 0.72963 0.27265
 H1303 H 0.59121 0.70083 0.27783
 H1304 H 0.54494 0.73563 0.31066
 C1305 C 0.59421 0.18913 0.78813
 C1306 C 0.58048 0.20197 0.79397
 C1307 C 0.56926 0.21329 0.77870
 C1308 C 0.55349 0.22378 0.78428
 H1309 H 0.57785 0.20459 0.81022
 H1310 H 0.57429 0.21348 0.76286
 H1311 H 0.59611 0.18576 0.77193
 H1312 H 0.54775 0.22251 0.79979
 C1313 C 1.09390 0.69153 0.78457
 C1314 C 1.07964 0.70413 0.78948
 C1315 C 1.06837 0.71389 0.77299
 C1316 C 1.05077 0.72219 0.77642
 H1317 H 1.07624 0.70711 0.80550
 H1318 H 1.07457 0.71406 0.75762
 H1319 H 1.09619 0.68774 0.76852
 H1320 H 1.04387 0.72066 0.79137
 C1321 C 1.09815 0.19182 0.27638
 C1322 C 1.08437 0.20479 0.28168
 C1323 C 1.07240 0.21487 0.26607
 C1324 C 1.05550 0.22363 0.27129
 H1325 H 1.08203 0.20827 0.29781
 H1326 H 1.07759 0.21541 0.25030
 H1327 H 1.09968 0.18738 0.26041
 H1328 H 1.04966 0.22182 0.28670
 C1329 C 0.59847 0.30564 0.72306
 C1330 C 0.58469 0.29259 0.71794
 C1331 C 0.57296 0.28273 0.73375
 C1332 C 0.55607 0.27379 0.72874
 H1333 H 0.58214 0.28892 0.70188
 H1334 H 0.57828 0.28257 0.74955
 H1335 H 0.60018 0.31022 0.73898
 H1336 H 0.55008 0.27521 0.71328
 C1337 C 0.59327 0.81642 0.22922
 C1338 C 0.57829 0.80423 0.22560
 C1339 C 0.56669 0.79605 0.24259
 C1340 C 0.54939 0.78726 0.23889
 H1341 H 0.57495 0.79966 0.20994
 H1342 H 0.57273 0.79652 0.25810
 H1343 H 0.59591 0.82192 0.24467
 H1344 H 0.54285 0.78802 0.22361
 C1345 C 1.09217 0.31055 0.21428
 C1346 C 1.07872 0.29745 0.20826
 C1347 C 1.06765 0.28589 0.22331
 C1348 C 1.05205 0.27525 0.21740
 H1349 H 1.07637 0.29463 0.19198
 H1350 H 1.07271 0.28552 0.23919
 H1351 H 1.09382 0.31414 0.23048
 H1352 H 1.04627 0.27669 0.20186
 C1353 C 1.09382 0.80050 0.71529
 C1354 C 1.07983 0.78863 0.70797
 C1355 C 1.06755 0.77776 0.72262
 C1356 C 1.05119 0.76822 0.71691
 H1357 H 1.07777 0.78665 0.69152
 H1358 H 1.07217 0.77751 0.73866
 H1359 H 1.09497 0.80285 0.73180
 H1360 H 1.04562 0.76955 0.70128
 C1361 C 0.40961 0.71306 0.69402
 C1362 C 0.42365 0.70784 0.70750
 C1363 C 0.43500 0.72296 0.71850
 C1364 C 0.45130 0.71903 0.72954
 H1365 H 0.42655 0.69265 0.71062
 H1366 H 0.42990 0.73785 0.71736
 H1367 H 0.40753 0.72832 0.69056
 H1368 H 0.45739 0.70446 0.72951
 C1369 C 0.40743 0.18737 0.21093
 C1370 C 0.42099 0.20043 0.20543
 C1371 C 0.43217 0.21158 0.22097
 C1372 C 0.44778 0.22230 0.21559
 H1373 H 0.42328 0.20361 0.18926
 H1374 H 0.42708 0.21167 0.23679
 H1375 H 0.40583 0.18345 0.22699
 H1376 H 0.45358 0.22115 0.20008
 C1377 C -0.09535 0.71144 0.19498
 C1378 C -0.08183 0.70638 0.20910
 C1379 C -0.06999 0.72133 0.21972
 C1380 C -0.05458 0.71670 0.23177
 H1381 H -0.07972 0.69127 0.21313
 H1382 H -0.07399 0.73645 0.21763
 H1383 H -0.09678 0.72654 0.19056
 H1384 H -0.04971 0.70173 0.23271
 C1385 C -0.09560 0.19418 0.72281
 C1386 C -0.08131 0.20671 0.71805
 C1387 C -0.06924 0.21614 0.73411
 C1388 C -0.05202 0.22447 0.72940
 H1389 H -0.07858 0.21028 0.70205
 H1390 H -0.07462 0.21655 0.74982
 H1391 H -0.09753 0.18960 0.73864
 H1392 H -0.04605 0.22277 0.71401
 C1393 C 0.28489 0.40743 0.30382
 C1394 C 0.29036 0.42018 0.28946
 C1395 C 0.27556 0.43293 0.27971
 C1396 C 0.28079 0.44742 0.26720
 H1397 H 0.30558 0.42073 0.28431
 H1398 H 0.26000 0.43013 0.28248
 H1399 H 0.26978 0.40755 0.30938
 H1400 H 0.29629 0.45112 0.26549
 C1401 C 0.32123 -0.09188 0.77984
 C1402 C 0.30638 -0.07930 0.78276
 C1403 C 0.29868 -0.06742 0.76571
 C1404 C 0.28867 -0.05105 0.76944
 H1405 H 0.29940 -0.07795 0.79770
 H1406 H 0.30051 -0.07253 0.75000
 H1407 H 0.32903 -0.09181 0.76527
 H1408 H 0.28810 -0.04528 0.78500
 C1409 C 0.79158 0.40734 0.81362
 C1410 C 0.79552 0.41870 0.79750
 C1411 C 0.77960 0.43049 0.78835
 C1412 C 0.78322 0.44507 0.77541
 H1413 H 0.81007 0.41884 0.79054
 H1414 H 0.76439 0.42686 0.79200
 H1415 H 0.77717 0.40846 0.82086
 H1416 H 0.79828 0.44983 0.77275
 C1417 C 0.81225 -0.09244 0.28536
 C1418 C 0.79821 -0.07959 0.29051
 C1419 C 0.78805 -0.06784 0.27479
 C1420 C 0.77771 -0.05207 0.28019
 H1421 H 0.79348 -0.07813 0.30637
 H1422 H 0.78809 -0.07273 0.25888
 H1423 H 0.81782 -0.09261 0.26972
 H1424 H 0.77884 -0.04654 0.29583
 C1425 C 0.31774 0.59126 0.70959
 C1426 C 0.30237 0.57968 0.70528
 C1427 C 0.29316 0.56798 0.72152
 C1428 C 0.27939 0.55460 0.71717
 H1429 H 0.29605 0.57933 0.68989
 H1430 H 0.29740 0.57067 0.73743
 H1431 H 0.32445 0.59092 0.72480
 H1432 H 0.27606 0.55095 0.70125
 C1433 C 0.28709 1.09039 0.18543
 C1434 C 0.29182 1.07733 0.19980
 C1435 C 0.27603 1.06620 0.20983
 C1436 C 0.27974 1.05063 0.22145
 H1437 H 0.30708 1.07526 0.20454
 H1438 H 0.26084 1.07102 0.20777
 H1439 H 0.27184 1.09161 0.18027
 H1440 H 0.29461 1.04476 0.22242
 C1441 C 0.81206 0.59328 0.22165
 C1442 C 0.79900 0.57927 0.21744
 C1443 C 0.78969 0.56809 0.23402
 C1444 C 0.78052 0.55132 0.22996
 H1445 H 0.79475 0.57629 0.20160
 H1446 H 0.78993 0.57386 0.24960
 H1447 H 0.81722 0.59549 0.23733
 H1448 H 0.78155 0.54496 0.21468
 C1449 C 0.78807 1.09724 0.69106
 C1450 C 0.79302 1.08427 0.70545
 C1451 C 0.77762 1.07238 0.71516
 C1452 C 0.78208 1.05730 0.72722
 H1453 H 0.80829 1.08270 0.71040
 H1454 H 0.76222 1.07615 0.71244
 H1455 H 0.77286 1.09806 0.68569
 H1456 H 0.79734 1.05261 0.72880
 C1457 C 0.69421 0.59057 0.28839
 C1458 C 0.70836 0.57852 0.29501
 C1459 C 0.71987 0.56680 0.28034
 C1460 C 0.73066 0.55163 0.28658
 H1461 H 0.71179 0.57759 0.31132
 H1462 H 0.71976 0.57084 0.26420
 H1463 H 0.69005 0.59061 0.27222
 H1464 H 0.72963 0.54673 0.30240
 C1465 C 0.71202 1.09299 0.80627
 C1466 C 0.70725 1.08132 0.79049
 C1467 C 0.72297 1.07055 0.77978
 C1468 C 0.71914 1.05550 0.76735
 H1469 H 0.69207 1.07990 0.78522
 H1470 H 0.73822 1.07496 0.78235
 H1471 H 0.72724 1.09324 0.81171
 H1472 H 0.70417 1.04996 0.76594
 C1473 C 0.20149 0.58838 0.78992
 C1474 C 0.21852 0.57964 0.79488
 C1475 C 0.22939 0.56877 0.77900
 C1476 C 0.24287 0.55524 0.78361
 H1477 H 0.22444 0.58059 0.81041
 H1478 H 0.22582 0.57152 0.76295
 H1479 H 0.19529 0.58633 0.77461
 H1480 H 0.24548 0.55108 0.79948
 C1481 C 0.21488 1.09402 0.30085
 C1482 C 0.20904 1.08097 0.28677
 C1483 C 0.22375 1.06887 0.27605
 C1484 C 0.21845 1.05381 0.26417
 H1485 H 0.19350 1.07946 0.28284
 H1486 H 0.23930 1.07243 0.27790
 H1487 H 0.23038 1.09482 0.30520
 H1488 H 0.20306 1.04937 0.26347
 C1489 C 0.71497 0.40294 0.69774
 C1490 C 0.70976 0.41571 0.71231
 C1491 C 0.72497 0.42752 0.72275
 C1492 C 0.72028 0.44264 0.73477
 H1493 H 0.69440 0.41724 0.71678
 H1494 H 0.74041 0.42376 0.72048
 H1495 H 0.73028 0.40216 0.69285
 H1496 H 0.70499 0.44733 0.73588
 C1497 C 0.71654 -0.09834 0.19664
 C1498 C 0.71135 -0.08376 0.20918
 C1499 C 0.72643 -0.07174 0.21961
 C1500 C 0.72134 -0.05570 0.23005
 H1501 H 0.69585 -0.08089 0.21220
 H1502 H 0.74180 -0.07623 0.21899
 H1503 H 0.73201 -0.10063 0.19300
 H1504 H 0.70612 -0.05067 0.22944
 C1505 C 0.21033 0.41051 0.18984
 C1506 C 0.20585 0.42367 0.20426
 C1507 C 0.22188 0.43481 0.21415
 C1508 C 0.21859 0.45080 0.22537
 H1509 H 0.19066 0.42582 0.20909
 H1510 H 0.23696 0.42969 0.21221
 H1511 H 0.22549 0.40928 0.18456
 H1512 H 0.20385 0.45699 0.22618
 C1513 C 0.20375 -0.09171 0.71372
 C1514 C 0.21614 -0.07883 0.70551
 C1515 C 0.22892 -0.06710 0.71908
 C1516 C 0.23915 -0.05190 0.71216
 H1517 H 0.21725 -0.07733 0.68894
 H1518 H 0.23008 -0.07108 0.73520
 H1519 H 0.20230 -0.09245 0.73034
 H1520 H 0.23698 -0.04692 0.69648
 C1521 C 0.30966 0.28586 0.40487
 C1522 C 0.29551 0.28992 0.41852
 C1523 C 0.28652 0.27444 0.43089
 C1524 C 0.27594 0.27854 0.44771
 H1525 H 0.29008 0.30467 0.42017
 H1526 H 0.28814 0.25949 0.42585
 H1527 H 0.31585 0.27135 0.40412
 H1528 H 0.27551 0.29331 0.45356
 C1529 C 0.28248 0.81222 -0.09818
 C1530 C 0.28577 0.79788 -0.08477
 C1531 C 0.26931 0.78922 -0.07320
 C1532 C 0.27265 0.77761 -0.05708
 H1533 H 0.30062 0.79226 -0.08251
 H1534 H 0.25424 0.79233 -0.07800
 H1535 H 0.26776 0.81838 -0.09961
 H1536 H 0.28766 0.77564 -0.05143
 C1537 C 0.80697 0.28416 -0.09042
 C1538 C 0.79278 0.28908 -0.07710
 C1539 C 0.78233 0.27403 -0.06540
 C1540 C 0.77059 0.27853 -0.04955
 H1541 H 0.78861 0.30415 -0.07503
 H1542 H 0.78434 0.25895 -0.06979
 H1543 H 0.81154 0.26911 -0.09171
 H1544 H 0.76969 0.29342 -0.04416
 C1545 C 0.78308 0.80984 0.40730
 C1546 C 0.78665 0.79467 0.41956
 C1547 C 0.77042 0.78544 0.43095
 C1548 C 0.77395 0.77264 0.44597
 H1549 H 0.80149 0.78882 0.42099
 H1550 H 0.75528 0.78924 0.42703
 H1551 H 0.76832 0.81603 0.40667
 H1552 H 0.78904 0.76988 0.45094
 C1553 C 0.69367 0.28345 0.59401
 C1554 C 0.70636 0.28867 0.57933
 C1555 C 0.71687 0.27388 0.56714
 C1556 C 0.72630 0.27851 0.54979
 H1557 H 0.70940 0.30389 0.57663
 H1558 H 0.71716 0.25903 0.57262
 H1559 H 0.68991 0.26826 0.59589
 H1560 H 0.72480 0.29302 0.54355
 C1561 C 0.68634 0.77578 1.10266
 C1562 C 0.69698 0.77959 1.08588
 C1563 C 0.70634 0.76387 1.07394
 C1564 C 0.71275 0.76692 1.05477
 H1565 H 0.69925 0.79451 1.08118
 H1566 H 0.70860 0.74988 1.08119
 H1567 H 0.68302 0.76086 1.10662
 H1568 H 0.70916 0.78050 1.04721
 C1569 C 0.19199 0.28911 1.09025
 C1570 C 0.20682 0.29367 1.07763
 C1571 C 0.21711 0.27844 1.06588
 C1572 C 0.22929 0.28277 1.05042
 H1573 H 0.21159 0.30861 1.07611
 H1574 H 0.21453 0.26337 1.06984
 H1575 H 0.18682 0.27424 1.09095
 H1576 H 0.23075 0.29770 1.04544
 C1577 C 0.20250 0.80425 0.59324
 C1578 C 0.19739 0.78844 0.58244
 C1579 C 0.21272 0.77816 0.57055
 C1580 C 0.20858 0.76540 0.55553
 H1581 H 0.18234 0.78302 0.58267
 H1582 H 0.22810 0.78151 0.57395
 H1583 H 0.21747 0.80980 0.59192
 H1584 H 0.19338 0.76303 0.55071
 C1585 C 0.28521 0.69511 0.59304
 C1586 C 0.28831 0.71076 0.58142
 C1587 C 0.27169 0.71982 0.57030
 C1588 C 0.27457 0.73262 0.55519
 H1589 H 0.30300 0.71694 0.58016
 H1590 H 0.25672 0.71563 0.57429
 H1591 H 0.27060 0.68861 0.59338
 H1592 H 0.28948 0.73574 0.55005
 C1593 C 0.30584 0.21298 1.08842
 C1594 C 0.29088 0.20896 1.07554
 C1595 C 0.28069 0.22470 1.06449
 C1596 C 0.26859 0.22114 1.04856
 H1597 H 0.28594 0.19413 1.07334
 H1598 H 0.28327 0.23957 1.06940
 H1599 H 0.31121 0.22777 1.08975
 H1600 H 0.26711 0.20649 1.04259
 C1601 C 0.77937 0.68791 1.09585
 C1602 C 0.78319 0.70147 1.08177
 C1603 C 0.76689 0.71084 1.07038
 C1604 C 0.77017 0.72110 1.05330
 H1605 H 0.79830 0.70593 1.07886
 H1606 H 0.75192 0.70936 1.07613
 H1607 H 0.76431 0.68286 1.09787
 H1608 H 0.78488 0.72140 1.04669
 C1609 C 0.80965 0.21940 0.59296
 C1610 C 0.79682 0.21438 0.57816
 C1611 C 0.78608 0.22925 0.56636
 C1612 C 0.77612 0.22462 0.54920
 H1613 H 0.79378 0.19919 0.57507
 H1614 H 0.78601 0.24410 0.57200
 H1615 H 0.81337 0.23456 0.59530
 H1616 H 0.77738 0.21008 0.54285
 C1617 C 0.70477 0.69927 0.40582
 C1618 C 0.69898 0.71377 0.41816
 C1619 C 0.71407 0.72513 0.42938
 C1620 C 0.70972 0.73667 0.44537
 H1621 H 0.68342 0.71718 0.41998
 H1622 H 0.72942 0.72341 0.42486
 H1623 H 0.72039 0.69565 0.40499
 H1624 H 0.69471 0.73730 0.45114
 C1625 C 0.69253 0.21009 -0.08850
 C1626 C 0.70798 0.20615 -0.07627
 C1627 C 0.71787 0.22172 -0.06461
 C1628 C 0.73006 0.21783 -0.04887
 H1629 H 0.71352 0.19141 -0.07503
 H1630 H 0.71513 0.23668 -0.06899
 H1631 H 0.68635 0.22462 -0.08876
 H1632 H 0.73166 0.20305 -0.04345
 C1633 C 0.20597 0.70367 -0.09985
 C1634 C 0.19953 0.71713 -0.08658
 C1635 C 0.21421 0.72893 -0.07522
 C1636 C 0.20990 0.73879 -0.05800
 H1637 H 0.18384 0.71913 -0.08390
 H1638 H 0.22937 0.72872 -0.08066
 H1639 H 0.22178 0.70127 -0.10134
 H1640 H 0.19521 0.73776 -0.05146
 C1641 C 0.19663 0.21550 0.40308
 C1642 C 0.20998 0.21069 0.41742
 C1643 C 0.22014 0.22585 0.42950
 C1644 C 0.23003 0.22162 0.44680
 H1645 H 0.21369 0.19558 0.42004
 H1646 H 0.21960 0.24072 0.42409
 H1647 H 0.19226 0.23056 0.40134
 H1648 H 0.22934 0.20706 0.45302
 C1649 C 0.29997 0.40743 0.70815
 C1650 C 0.28665 0.42042 0.70178
 C1651 C 0.27546 0.43170 0.71710
 C1652 C 0.26811 0.44927 0.71288
 H1653 H 0.28456 0.42318 0.68548
 H1654 H 0.27408 0.42589 0.73254
 H1655 H 0.30299 0.40596 0.72450
 H1656 H 0.27103 0.45583 0.69805
 C1657 C 0.29688 0.90912 0.20130
 C1658 C 0.28178 0.92022 0.19510
 C1659 C 0.27056 0.93119 0.21070
 C1660 C 0.26003 0.94711 0.20628
 H1661 H 0.27803 0.92142 0.17890
 H1662 H 0.27186 0.92660 0.22662
 H1663 H 0.30112 0.90923 0.21745
 H1664 H 0.26006 0.95286 0.19076
 C1665 C 0.81292 0.40973 0.21652
 C1666 C 0.79748 0.42127 0.21254
 C1667 C 0.78793 0.43199 0.22944
 C1668 C 0.77556 0.44679 0.22597
 H1669 H 0.79186 0.42277 0.19695
 H1670 H 0.79141 0.42788 0.24517
 H1671 H 0.81894 0.40914 0.23204
 H1672 H 0.77322 0.45196 0.21038
 C1673 C 0.81302 0.91525 0.71075
 C1674 C 0.79699 0.92593 0.70657
 C1675 C 0.78790 0.93800 0.72268
 C1676 C 0.77456 0.95169 0.71816
 H1677 H 0.79017 0.92535 0.69141
 H1678 H 0.79197 0.93543 0.73864
 H1679 H 0.82033 0.91667 0.72560
 H1680 H 0.77145 0.95532 0.70223
 C1681 C 0.68881 0.58196 0.71270
 C1682 C 0.70556 0.57212 0.70955
 C1683 C 0.71442 0.56074 0.72635
 C1684 C 0.72827 0.54730 0.72285
 H1685 H 0.71305 0.57291 0.69485
 H1686 H 0.70965 0.56358 0.74202
 H1687 H 0.68094 0.58023 0.72710
 H1688 H 0.73211 0.54331 0.70719
 C1689 C 0.68475 0.08592 0.21410
 C1690 C 0.70077 0.07503 0.21057
 C1691 C 0.70966 0.06364 0.22738
 C1692 C 0.72292 0.04962 0.22381
 H1693 H 0.70764 0.07492 0.19552
 H1694 H 0.70539 0.06695 0.24310
 H1695 H 0.67746 0.08513 0.22891
 H1696 H 0.72619 0.04524 0.20812
 C1697 C 0.20593 0.59299 0.20182
 C1698 C 0.22030 0.58101 0.19563
 C1699 C 0.23163 0.57026 0.21138
 C1700 C 0.24121 0.55364 0.20742
 H1701 H 0.22320 0.57877 0.17938
 H1702 H 0.23101 0.57559 0.22712
 H1703 H 0.20246 0.59386 0.21811
 H1704 H 0.24042 0.54726 0.19214
 C1705 C 0.20462 0.08715 0.70157
 C1706 C 0.22137 0.07831 0.69592
 C1707 C 0.23262 0.06728 0.71146
 C1708 C 0.24610 0.05377 0.70667
 H1709 H 0.22671 0.07930 0.68024
 H1710 H 0.22925 0.06994 0.72757
 H1711 H 0.19909 0.08501 0.71706
 H1712 H 0.24848 0.04969 0.69072
 C1713 C 0.31500 0.58874 0.28667
 C1714 C 0.29879 0.57794 0.28914
 C1715 C 0.29069 0.56651 0.27188
 C1716 C 0.27724 0.55264 0.27495
 H1717 H 0.29116 0.57789 0.30379
 H1718 H 0.29560 0.56967 0.25636
 H1719 H 0.32314 0.58793 0.27233
 H1720 H 0.27338 0.54851 0.29052
 C1721 C 0.31789 0.08701 0.78902
 C1722 C 0.30064 0.07774 0.79075
 C1723 C 0.29292 0.06629 0.77333
 C1724 C 0.27875 0.05301 0.77567
 H1725 H 0.29199 0.07901 0.80471
 H1726 H 0.29896 0.06883 0.75811
 H1727 H 0.32685 0.08477 0.77539
 H1728 H 0.27361 0.04924 0.79093
 C1729 C 0.80086 0.58758 0.79638
 C1730 C 0.78574 0.57629 0.80187
 C1731 C 0.77537 0.56490 0.78588
 C1732 C 0.76447 0.54924 0.79015
 H1733 H 0.78123 0.57536 0.81783
 H1734 H 0.77735 0.56911 0.76993
 H1735 H 0.80585 0.58732 0.78052
 H1736 H 0.76377 0.54388 0.80580
 C1737 C 0.79792 0.08890 0.29453
 C1738 C 0.78267 0.07820 0.30091
 C1739 C 0.77123 0.06698 0.28557
 C1740 C 0.76013 0.05162 0.29046
 H1741 H 0.77888 0.07755 0.31710
 H1742 H 0.77270 0.07097 0.26949
 H1743 H 0.80216 0.08830 0.27844
 H1744 H 0.75991 0.04640 0.30619
 C1745 C 0.69921 0.41179 0.29687
 C1746 C 0.71530 0.42145 0.30314
 C1747 C 0.72691 0.43221 0.28784
 C1748 C 0.73951 0.44643 0.29293
 H1749 H 0.71977 0.42146 0.31920
 H1750 H 0.72447 0.42881 0.27168
 H1751 H 0.69445 0.41293 0.28093
 H1752 H 0.74084 0.45117 0.30883
 C1753 C 0.69706 0.91743 0.79076
 C1754 C 0.71355 0.92725 0.79535
 C1755 C 0.72351 0.93854 0.77929
 C1756 C 0.73651 0.95256 0.78376
 H1757 H 0.71987 0.92666 0.81073
 H1758 H 0.72001 0.93537 0.76328
 H1759 H 0.69031 0.91907 0.77566
 H1760 H 0.73899 0.95699 0.79961
 C1761 C 0.18535 0.41540 0.78045
 C1762 C 0.20016 0.42758 0.78480
 C1763 C 0.21008 0.43846 0.76837
 C1764 C 0.22203 0.45334 0.77287
 H1765 H 0.20544 0.42913 0.80053
 H1766 H 0.20804 0.43388 0.75249
 H1767 H 0.17938 0.41466 0.76492
 H1768 H 0.22291 0.45865 0.78861
 C1769 C 0.18484 0.91303 0.28272
 C1770 C 0.20097 0.92376 0.28621
 C1771 C 0.20998 0.93480 0.26934
 C1772 C 0.22324 0.94879 0.27295
 H1773 H 0.20777 0.92413 0.30137
 H1774 H 0.20571 0.93135 0.25360
 H1775 H 0.17761 0.91355 0.26777
 H1776 H 0.22644 0.95330 0.28865
 C1777 C 0.41566 0.31366 0.71312
 C1778 C 0.42534 0.29699 0.71002
 C1779 C 0.43625 0.28792 0.72711
 C1780 C 0.44942 0.27375 0.72398
 H1781 H 0.42486 0.28984 0.69512
 H1782 H 0.43348 0.29300 0.74269
 H1783 H 0.41705 0.32107 0.72783
 H1784 H 0.45341 0.26957 0.70842
 C1785 C 0.40807 0.81271 0.21600
 C1786 C 0.41850 0.79634 0.21397
 C1787 C 0.42910 0.78835 0.23188
 C1788 C 0.44400 0.77573 0.22988
 H1789 H 0.41915 0.78886 0.19926
 H1790 H 0.42487 0.79325 0.24716
 H1791 H 0.40851 0.82058 0.23052
 H1792 H 0.44944 0.77195 0.21469
 C1793 C 0.91339 0.30008 0.20403
 C1794 C 0.92176 0.28336 0.19827
 C1795 C 0.93265 0.27187 0.21365
 C1796 C 0.94651 0.25889 0.20850
 H1797 H 0.92064 0.27826 0.18248
 H1798 H 0.92983 0.27474 0.22983
 H1799 H 0.91571 0.30542 0.21962
 H1800 H 0.95079 0.25707 0.19254
 C1801 C 0.90692 0.79879 0.70455
 C1802 C 0.91727 0.78312 0.69887
 C1803 C 0.92830 0.77228 0.71476
 C1804 C 0.94345 0.76039 0.71049
 H1805 H 0.91772 0.77854 0.68287
 H1806 H 0.92437 0.77484 0.73073
 H1807 H 0.90773 0.80371 0.72044
 H1808 H 0.94870 0.75900 0.69480
 C1809 C 0.58449 0.31611 0.28560
 C1810 C 0.57449 0.29969 0.28880
 C1811 C 0.56361 0.29029 0.27180
 C1812 C 0.55041 0.27626 0.27522
 H1813 H 0.57471 0.29287 0.30382
 H1814 H 0.56656 0.29485 0.25613
 H1815 H 0.58340 0.32328 0.27079
 H1816 H 0.54633 0.27260 0.29086
 C1817 C 0.59476 0.80898 0.78968
 C1818 C 0.58363 0.79369 0.79459
 C1819 C 0.57254 0.78344 0.77824
 C1820 C 0.55738 0.77161 0.78227
 H1821 H 0.58265 0.78886 0.81042
 H1822 H 0.57663 0.78607 0.76235
 H1823 H 0.59463 0.81421 0.77394
 H1824 H 0.55216 0.77014 0.79795
 C1825 C 0.09301 0.29843 0.79403
 C1826 C 0.08341 0.28292 0.80111
 C1827 C 0.07271 0.27044 0.78637
 C1828 C 0.05778 0.25888 0.79189
 H1829 H 0.08309 0.27976 0.81745
 H1830 H 0.07640 0.27169 0.77017
 H1831 H 0.09208 0.30191 0.77776
 H1832 H 0.05274 0.25883 0.80772
 C1833 C 0.09067 0.79826 0.29300
 C1834 C 0.07997 0.78318 0.29941
 C1835 C 0.06924 0.77138 0.28403
 C1836 C 0.05348 0.76056 0.28875
 H1837 H 0.07884 0.77988 0.31567
 H1838 H 0.07376 0.77245 0.26806
 H1839 H 0.09052 0.80199 0.27678
 H1840 H 0.04774 0.76075 0.30431
 C1841 C 0.59556 0.69807 0.70909
 C1842 C 0.58411 0.71298 0.70350
 C1843 C 0.57354 0.72396 0.71957
 C1844 C 0.55733 0.73452 0.71563
 H1845 H 0.58225 0.71669 0.68739
 H1846 H 0.57864 0.72250 0.73537
 H1847 H 0.59612 0.69387 0.72518
 H1848 H 0.55112 0.73467 0.70020
 C1849 C 0.59045 0.20193 0.20522
 C1850 C 0.58013 0.21729 0.19869
 C1851 C 0.56895 0.22887 0.21380
 C1852 C 0.55350 0.24000 0.20857
 H1853 H 0.57964 0.22102 0.18249
 H1854 H 0.57286 0.22737 0.22996
 H1855 H 0.58970 0.19780 0.22131
 H1856 H 0.54830 0.24025 0.19274
 C1857 C 0.08807 0.68488 0.21229
 C1858 C 0.07773 0.70117 0.20929
 C1859 C 0.06621 0.70981 0.22616
 C1860 C 0.05228 0.72317 0.22257
 H1861 H 0.07814 0.70844 0.19452
 H1862 H 0.06930 0.70531 0.24185
 H1863 H 0.08673 0.67715 0.22673
 H1864 H 0.04811 0.72668 0.20687
 C1865 C 0.09122 0.18435 0.71495
 C1866 C 0.08016 0.20013 0.71160
 C1867 C 0.06920 0.20919 0.72866
 C1868 C 0.05498 0.22235 0.72535
 H1869 H 0.07949 0.20660 0.69642
 H1870 H 0.07289 0.20503 0.74433
 H1871 H 0.09100 0.17748 0.72995
 H1872 H 0.05020 0.22552 0.70975
 C1873 C 0.40785 0.70367 0.30302
 C1874 C 0.41697 0.71992 0.30914
 C1875 C 0.42816 0.73113 0.29383
 C1876 C 0.44219 0.74402 0.29888
 H1877 H 0.41623 0.72478 0.32502
 H1878 H 0.42530 0.72808 0.27766
 H1879 H 0.40982 0.69861 0.28730
 H1880 H 0.44647 0.74602 0.31487
 C1881 C 0.41151 0.20217 0.79746
 C1882 C 0.42130 0.21812 0.80326
 C1883 C 0.43222 0.22910 0.78761
 C1884 C 0.44741 0.24078 0.79224
 H1885 H 0.42149 0.22280 0.81923
 H1886 H 0.42836 0.22665 0.77155
 H1887 H 0.41260 0.19716 0.78162
 H1888 H 0.45262 0.24200 0.80802
 C1889 C 0.90902 0.68891 0.78955
 C1890 C 0.91866 0.70559 0.79263
 C1891 C 0.92991 0.71429 0.77567
 C1892 C 0.94393 0.72763 0.77894
 H1893 H 0.91810 0.71288 0.80746
 H1894 H 0.92682 0.70942 0.76006
 H1895 H 0.91064 0.68128 0.77500
 H1896 H 0.94828 0.73147 0.79454
 C1897 C 0.91299 0.18464 0.28491
 C1898 C 0.92339 0.20081 0.28844
 C1899 C 0.93457 0.20990 0.27166
 C1900 C 0.94831 0.22345 0.27531
 H1901 H 0.92331 0.20761 0.30353
 H1902 H 0.93145 0.20544 0.25592
 H1903 H 0.91397 0.17746 0.27004
 H1904 H 0.95258 0.22696 0.29102
 C1905 C 0.30303 0.29227 0.59931
 C1906 C 0.28818 0.29665 0.58646
 C1907 C 0.27792 0.28080 0.57546
 C1908 C 0.26639 0.28379 0.55895
 H1909 H 0.28390 0.31161 0.58387
 H1910 H 0.28070 0.26605 0.58051
 H1911 H 0.30758 0.27723 0.60086
 H1912 H 0.26482 0.29831 0.55277
 C1913 C 0.30060 0.79033 0.09572
 C1914 C 0.28659 0.79529 0.08209
 C1915 C 0.27620 0.78003 0.07028
 C1916 C 0.26447 0.78408 0.05418
 H1917 H 0.28282 0.81040 0.07967
 H1918 H 0.27855 0.76503 0.07468
 H1919 H 0.30466 0.77517 0.09730
 H1920 H 0.26325 0.79893 0.04883
 C1921 C 0.79099 0.30801 0.09788
 C1922 C 0.79461 0.29193 0.08695
 C1923 C 0.77837 0.28185 0.07618
 C1924 C 0.78187 0.26899 0.06117
 H1925 H 0.80953 0.28621 0.08588
 H1926 H 0.76322 0.28536 0.08028
 H1927 H 0.77618 0.31413 0.09794
 H1928 H 0.79690 0.26659 0.05593
 C1929 C 0.78374 0.80172 0.60217
 C1930 C 0.78810 0.78957 0.58678
 C1931 C 0.77212 0.77920 0.57584
 C1932 C 0.77488 0.77147 0.55715
 H1933 H 0.80333 0.78761 0.58198
 H1934 H 0.75767 0.77841 0.58299
 H1935 H 0.76836 0.80445 0.60593
 H1936 H 0.78889 0.77368 0.54943
 C1937 C 0.28131 0.69775 0.39949
 C1938 C 0.28540 0.70981 0.41508
 C1939 C 0.26928 0.72008 0.42579
 C1940 C 0.27211 0.72823 0.44430
 H1941 H 0.30058 0.71193 0.42012
 H1942 H 0.25478 0.72061 0.41857
 H1943 H 0.26600 0.69490 0.39538
 H1944 H 0.28624 0.72635 0.45206
 C1945 C 0.28874 0.20215 0.89676
 C1946 C 0.29366 0.21548 0.91088
 C1947 C 0.27799 0.22628 0.92168
 C1948 C 0.28169 0.23665 0.93874
 H1949 H 0.30905 0.21824 0.91465
 H1950 H 0.26292 0.22511 0.91596
 H1951 H 0.27323 0.19906 0.89385
 H1952 H 0.29645 0.23660 0.94538
 C1953 C 0.79351 0.70600 0.90131
 C1954 C 0.77993 0.70023 0.91487
 C1955 C 0.76798 0.71483 0.92591
 C1956 C 0.75767 0.71050 0.94282
 H1957 H 0.77781 0.68493 0.91800
 H1958 H 0.76819 0.72968 0.92042
 H1959 H 0.79605 0.72140 0.89918
 H1960 H 0.75868 0.69603 0.94926
 C1961 C 0.80202 0.20859 0.39855
 C1962 C 0.78722 0.20456 0.41140
 C1963 C 0.77716 0.22065 0.42213
 C1964 C 0.76550 0.21790 0.43844
 H1965 H 0.78278 0.18969 0.41415
 H1966 H 0.78015 0.23533 0.41704
 H1967 H 0.80670 0.22355 0.39679
 H1968 H 0.76371 0.20342 0.44464
 C1969 C 0.69588 0.29259 0.39960
 C1970 C 0.71108 0.29671 0.41210
 C1971 C 0.72144 0.28075 0.42264
 C1972 C 0.73369 0.28373 0.43859
 H1973 H 0.71566 0.31160 0.41471
 H1974 H 0.71824 0.26600 0.41774
 H1975 H 0.69111 0.27763 0.39793
 H1976 H 0.73573 0.29830 0.44462
 C1977 C 0.71091 0.80069 0.89909
 C1978 C 0.70415 0.78918 0.91396
 C1979 C 0.71771 0.77612 0.92511
 C1980 C 0.71276 0.76858 0.94331
 H1981 H 0.68860 0.78943 0.91800
 H1982 H 0.73197 0.77273 0.91837
 H1983 H 0.72666 0.80125 0.89603
 H1984 H 0.69915 0.77321 0.95064
 C1985 C 0.21085 0.31146 0.89980
 C1986 C 0.20627 0.29710 0.91269
 C1987 C 0.22212 0.28654 0.92356
 C1988 C 0.21831 0.27475 0.93935
 H1989 H 0.19096 0.29309 0.91517
 H1990 H 0.23731 0.28878 0.91878
 H1991 H 0.22620 0.31576 0.89815
 H1992 H 0.20333 0.27362 0.94515
 C1993 C 0.20837 0.80694 0.40081
 C1994 C 0.20305 0.79425 0.41524
 C1995 C 0.21825 0.78334 0.42672
 C1996 C 0.21389 0.77373 0.44395
 H1997 H 0.18753 0.79186 0.41856
 H1998 H 0.23331 0.78333 0.42103
 H1999 H 0.22396 0.80989 0.39839
 H2000 H 0.19916 0.77497 0.45040
 C2001 C 0.71198 0.69331 0.60026
 C2002 C 0.70633 0.70543 0.58533
 C2003 C 0.72135 0.71632 0.57374
 C2004 C 0.71681 0.72598 0.55651
 H2005 H 0.69076 0.70746 0.58181
 H2006 H 0.73646 0.71636 0.57946
 H2007 H 0.72764 0.69081 0.60293
 H2008 H 0.70202 0.72475 0.55005
 C2009 C 0.71049 0.19682 0.10199
 C2010 C 0.70568 0.21102 0.08893
 C2011 C 0.72141 0.22165 0.07817
 C2012 C 0.71767 0.23258 0.06162
 H2013 H 0.69030 0.21462 0.08598
 H2014 H 0.73656 0.21987 0.08347
 H2015 H 0.72593 0.19287 0.10399
 H2016 H 0.70279 0.23313 0.05529
 C2017 C 0.19702 0.71112 0.09684
 C2018 C 0.20920 0.70696 0.08127
 C2019 C 0.21851 0.72310 0.07004
 C2020 C 0.22769 0.72076 0.05197
 H2021 H 0.21216 0.69205 0.07689
 H2022 H 0.21730 0.73755 0.07662
 H2023 H 0.19367 0.72620 0.10025
 H2024 H 0.22763 0.70667 0.04447
 C2025 C 0.19709 0.20829 0.59657
 C2026 C 0.21273 0.20467 0.58464
 C2027 C 0.22217 0.22081 0.57360
 C2028 C 0.23494 0.21796 0.55819
 H2029 H 0.21853 0.19007 0.58308
 H2030 H 0.21811 0.23553 0.57788
 H2031 H 0.19107 0.22289 0.59717
 H2032 H 0.23789 0.20336 0.55272
   
