data_POSCAR
  _audit_creation_date              2014-09-24
  _audit_creation_method            'ToBaCCo'
  _symmetry_space_group_name_H-M    'P1'
  _symmetry_Int_Tables_number       1
  _symmetry_cell_setting            triclinic
  loop_
  _symmetry_equiv_pos_as_xyz
 x,y,z
_cell_length_a 52.6595
_cell_length_b 52.7131
_cell_length_c 52.4237
_cell_angle_alpha 91.080900
_cell_angle_beta 90.088200
_cell_angle_gamma 89.532500
loop_
  _atom_site_label
  _atom_site_type_symbol
  _atom_site_fract_x
  _atom_site_fract_y
  _atom_site_fract_z
C1 C 0.13396 -0.02401 0.25058
 C2 C 0.12245 -0.00180 0.26037
 C3 C 0.11106 -0.00192 0.28451
 C4 C 0.10937 -0.02447 0.29806
 C5 C 0.11993 -0.04693 0.28763
 C6 C 0.13336 -0.04682 0.26430
 C7 C 0.12058 0.02118 0.24471
 C8 C 0.10769 0.02026 0.22122
 C9 C 0.10272 0.04259 0.20758
 C10 C 0.11216 0.06574 0.21752
 C11 C 0.12650 0.06653 0.24012
 C12 C 0.13031 0.04428 0.25384
 H13 H 0.14242 -0.02347 0.23181
 H14 H 0.10225 0.01527 0.29213
 H15 H 0.10032 0.00223 0.21438
 H16 H 0.14095 0.04491 0.27156
 H17 H 0.11877 -0.06416 0.29851
 H18 H 0.11029 0.08298 0.20679
 C19 C 0.35815 -0.03728 0.73700
 C20 C 0.36912 -0.01321 0.73551
 C21 C 0.38042 -0.00591 0.71272
 C22 C 0.38109 -0.02251 0.69155
 C23 C 0.36995 -0.04653 0.69309
 C24 C 0.35865 -0.05417 0.71597
 C25 C 0.37037 0.00370 0.75822
 C26 C 0.37998 -0.00557 0.78117
 C27 C 0.38199 0.01031 0.80297
 C28 C 0.37346 0.03566 0.80137
 C29 C 0.36477 0.04545 0.77816
 C30 C 0.36307 0.02923 0.75672
 H31 H 0.34962 -0.04302 0.75477
 H32 H 0.38934 0.01250 0.71166
 H33 H 0.38542 -0.02537 0.78185
 H34 H 0.35610 0.03646 0.73878
 H35 H 0.37052 -0.05932 0.67668
 H36 H 0.37433 0.04810 0.81802
 C37 C 0.86273 0.46137 0.24775
 C38 C 0.87444 0.48475 0.24421
 C39 C 0.88359 0.49092 0.21994
 C40 C 0.88106 0.47375 0.19923
 C41 C 0.86959 0.45015 0.20324
 C42 C 0.86014 0.44415 0.22732
 C43 C 0.87386 0.50382 0.26513
 C44 C 0.88548 0.49913 0.28879
 C45 C 0.88235 0.51631 0.30963
 C46 C 0.86797 0.53864 0.30574
 C47 C 0.85653 0.54328 0.28216
 C48 C 0.85942 0.52588 0.26200
 H49 H 0.85487 0.45690 0.26622
 H50 H 0.89200 0.50934 0.21706
 H51 H 0.89617 0.48166 0.29105
 H52 H 0.85018 0.52941 0.24389
 H53 H 0.86760 0.43657 0.18761
 H54 H 0.86602 0.55304 0.32059
 C55 C 0.64483 0.47581 0.75579
 C56 C 0.63140 0.49879 0.75761
 C57 C 0.61706 0.50454 0.77946
 C58 C 0.61602 0.48726 0.79949
 C59 C 0.62949 0.46420 0.79748
 C60 C 0.64390 0.45844 0.77563
 C61 C 0.63174 0.51620 0.73607
 C62 C 0.61954 0.50932 0.71328
 C63 C 0.62070 0.52505 0.69206
 C64 C 0.63505 0.54734 0.69351
 C65 C 0.64697 0.55463 0.71650
 C66 C 0.64491 0.53913 0.73786
 H67 H 0.65570 0.47130 0.73873
 H68 H 0.60667 0.52235 0.78080
 H69 H 0.60911 0.49169 0.71213
 H70 H 0.65423 0.54448 0.75560
 H71 H 0.62863 0.45069 0.81278
 H72 H 0.63594 0.55960 0.67718
 C73 C 0.23674 0.13448 1.03926
 C74 C 0.23434 0.12227 1.01545
 C75 C 0.21087 0.11234 1.00800
 C76 C 0.18939 0.11480 1.02386
 C77 C 0.19174 0.12885 1.04689
 C78 C 0.21542 0.13818 1.05486
 C79 C 0.25602 0.12067 0.99770
 C80 C 0.27953 0.11113 1.00570
 C81 C 0.30042 0.10980 0.98885
 C82 C 0.29742 0.11972 0.96414
 C83 C 0.27357 0.12830 0.95577
 C84 C 0.25301 0.12863 0.97258
 H85 H 0.25493 0.14213 1.04513
 H86 H 0.20956 0.10332 0.98936
 H87 H 0.28132 0.10524 1.02527
 H88 H 0.23479 0.13598 0.96632
 H89 H 0.17555 0.13136 1.05946
 H90 H 0.31310 0.11938 0.95078
 C91 C 0.75771 0.35855 1.02929
 C92 C 0.76352 0.37360 1.00843
 C93 C 0.78827 0.38222 1.00506
 C94 C 0.80726 0.37644 1.02280
 C95 C 0.80124 0.36174 1.04396
 C96 C 0.77650 0.35225 1.04734
 C97 C 0.74357 0.38011 0.98999
 C98 C 0.72218 0.39414 0.99781
 C99 C 0.70186 0.39838 0.98082
 C100 C 0.70361 0.38818 0.95578
 C101 C 0.72546 0.37490 0.94766
 C102 C 0.74533 0.37094 0.96492
 H103 H 0.73822 0.35274 1.03159
 H104 H 0.79258 0.39382 0.98879
 H105 H 0.72108 0.40046 1.01755
 H106 H 0.76200 0.36012 0.95906
 H107 H 0.81594 0.35783 1.05785
 H108 H 0.68807 0.39068 0.94247
 C109 C 0.25647 0.85983 0.52655
 C110 C 0.25725 0.87170 0.50301
 C111 C 0.27920 0.88424 0.49549
 C112 C 0.30106 0.88447 0.51099
 C113 C 0.30066 0.87067 0.53381
 C114 C 0.27824 0.85898 0.54192
 C115 C 0.23573 0.87018 0.48529
 C116 C 0.21374 0.88471 0.48963
 C117 C 0.19508 0.88616 0.47063
 C118 C 0.19820 0.87264 0.44754
 C119 C 0.21959 0.85708 0.44371
 C120 C 0.23838 0.85604 0.46257
 H121 H 0.23927 0.85042 0.53243
 H122 H 0.27924 0.89291 0.47694
 H123 H 0.21176 0.89582 0.50714
 H124 H 0.25545 0.84481 0.45926
 H125 H 0.31721 0.87027 0.54613
 H126 H 0.18378 0.87386 0.43281
 C127 C 0.75590 0.62979 0.53382
 C128 C 0.75236 0.61792 0.50998
 C129 C 0.72883 0.60732 0.50382
 C130 C 0.70862 0.60881 0.52118
 C131 C 0.71183 0.62200 0.54448
 C132 C 0.73563 0.63211 0.55109
 C133 C 0.77322 0.61635 0.49138
 C134 C 0.79475 0.60158 0.49641
 C135 C 0.81470 0.59942 0.47852
 C136 C 0.81258 0.61297 0.45558
 C137 C 0.79064 0.62735 0.45019
 C138 C 0.77115 0.62904 0.46830
 H139 H 0.77422 0.63785 0.53860
 H140 H 0.72637 0.59758 0.48559
 H141 H 0.79594 0.59244 0.51468
 H142 H 0.75414 0.64002 0.46433
 H143 H 0.69624 0.62331 0.55793
 H144 H 0.82762 0.61179 0.44151
 C145 C -0.02359 0.26214 0.13374
 C146 C 0.00001 0.26422 0.12176
 C147 C 0.00636 0.28696 0.10993
 C148 C -0.01025 0.30816 0.11086
 C149 C -0.03306 0.30617 0.12482
 C150 C -0.04005 0.28306 0.13562
 C151 C 0.01888 0.24340 0.12390
 C152 C 0.01219 0.21818 0.11823
 C153 C 0.02906 0.19786 0.12320
 C154 C 0.05288 0.20367 0.13427
 C155 C 0.05999 0.22889 0.13912
 C156 C 0.04303 0.24863 0.13375
 H157 H -0.02858 0.24460 0.14291
 H158 H 0.02483 0.28822 0.10106
 H159 H -0.00650 0.21452 0.11038
 H160 H 0.04819 0.26803 0.13850
 H161 H -0.04617 0.32210 0.12613
 H162 H 0.06680 0.18903 0.13797
 C163 C -0.03066 0.73137 0.37302
 C164 C -0.00721 0.72906 0.38540
 C165 C -0.00004 0.70577 0.39576
 C166 C -0.01603 0.68463 0.39356
 C167 C -0.03891 0.68677 0.37989
 C168 C -0.04644 0.71024 0.36978
 C169 C 0.01035 0.75067 0.38634
 C170 C 0.00395 0.77307 0.39983
 C171 C 0.02054 0.79382 0.40000
 C172 C 0.04357 0.79195 0.38662
 C173 C 0.05010 0.76960 0.37318
 C174 C 0.03338 0.74907 0.37300
 H175 H -0.03611 0.74941 0.36495
 H176 H 0.01799 0.70416 0.40563
 H177 H -0.01398 0.77442 0.40991
 H178 H 0.03826 0.73182 0.36246
 H179 H -0.05130 0.67052 0.37806
 H180 H 0.05639 0.80794 0.38662
 C181 C 0.46802 0.24059 0.87351
 C182 C 0.49093 0.23878 0.88694
 C183 C 0.49857 0.21540 0.89679
 C184 C 0.48386 0.19340 0.89297
 C185 C 0.46180 0.19528 0.87777
 C186 C 0.45362 0.21882 0.86842
 C187 C 0.50823 0.26065 0.88874
 C188 C 0.50026 0.28392 0.89952
 C189 C 0.51677 0.30494 0.90034
 C190 C 0.54132 0.30200 0.88979
 C191 C 0.54965 0.27853 0.87971
 C192 C 0.53291 0.25806 0.87913
 H193 H 0.46215 0.25864 0.86578
 H194 H 0.51666 0.21456 0.90653
 H195 H 0.48095 0.28556 0.90640
 H196 H 0.53900 0.23998 0.87093
 H197 H 0.45017 0.17872 0.87418
 H198 H 0.55424 0.31788 0.88977
 C199 C 0.45524 0.76113 0.63078
 C200 C 0.47994 0.76488 0.62162
 C201 C 0.48565 0.78721 0.60896
 C202 C 0.46702 0.80583 0.60546
 C203 C 0.44242 0.80222 0.61477
 C204 C 0.43632 0.77974 0.62730
 C205 C 0.49978 0.74521 0.62399
 C206 C 0.49613 0.72116 0.61294
 C207 C 0.51590 0.70316 0.61257
 C208 C 0.53909 0.70895 0.62450
 C209 C 0.54311 0.73327 0.63512
 C210 C 0.52340 0.75131 0.63473
 H211 H 0.45074 0.74372 0.64041
 H212 H 0.50460 0.78998 0.60150
 H213 H 0.47828 0.71686 0.60353
 H214 H 0.52641 0.77014 0.64279
 H215 H 0.42810 0.81682 0.61213
 H216 H 0.55450 0.69519 0.62402
 C217 C 0.86274 1.03843 0.76183
 C218 C 0.87324 1.01460 0.76729
 C219 C 0.88055 1.00919 0.79244
 C220 C 0.87696 1.02728 0.81241
 C221 C 0.86639 1.05113 0.80624
 C222 C 0.85969 1.05692 0.78108
 C223 C 0.87682 0.99572 0.74629
 C224 C 0.89044 1.00240 0.72447
 C225 C 0.89203 0.98596 0.70297
 C226 C 0.87934 0.96242 0.70398
 C227 C 0.86647 0.95495 0.72622
 C228 C 0.86527 0.97190 0.74722
 H229 H 0.85730 1.04271 0.74242
 H230 H 0.88883 0.99077 0.79636
 H231 H 0.89857 1.02116 0.72410
 H232 H 0.85492 0.96679 0.76420
 H233 H 0.86419 1.06588 0.82067
 H234 H 0.87976 0.94971 0.68752
 C235 C 0.36287 0.54169 0.25030
 C236 C 0.37402 0.51769 0.25258
 C237 C 0.38859 0.51216 0.27413
 C238 C 0.39196 0.53047 0.29359
 C239 C 0.38009 0.55436 0.29149
 C240 C 0.36561 0.56024 0.26968
 C241 C 0.37013 0.49825 0.23247
 C242 C 0.37903 0.50216 0.20775
 C243 C 0.37615 0.48346 0.18849
 C244 C 0.36371 0.46068 0.19449
 C245 C 0.35396 0.45703 0.21914
 C246 C 0.35752 0.47582 0.23806
 H247 H 0.35177 0.54575 0.23341
 H248 H 0.39713 0.49348 0.27579
 H249 H 0.38858 0.51977 0.20371
 H250 H 0.35066 0.47294 0.25726
 H251 H 0.38211 0.56818 0.30688
 H252 H 0.36169 0.44571 0.18025
 C253 C 0.64243 1.02764 0.23778
 C254 C 0.63103 1.00375 0.23618
 C255 C 0.61858 0.99619 0.21380
 C256 C 0.61720 1.01244 0.19302
 C257 C 0.62909 1.03618 0.19449
 C258 C 0.64153 1.04408 0.21701
 C259 C 0.63036 0.98733 0.25851
 C260 C 0.61818 0.99590 0.28071
 C261 C 0.61603 0.98017 0.30199
 C262 C 0.62752 0.95584 0.30076
 C263 C 0.63918 0.94674 0.27814
 C264 C 0.64048 0.96276 0.25712
 H265 H 0.65165 1.03353 0.25540
 H266 H 0.60948 0.97782 0.21281
 H267 H 0.61080 1.01511 0.28117
 H268 H 0.64925 0.95616 0.23950
 H269 H 0.62825 1.04854 0.17825
 H270 H 0.62672 0.94368 0.31714
 C271 C 0.13699 0.52901 0.74744
 C272 C 0.12358 0.50631 0.74528
 C273 C 0.11002 0.50065 0.72294
 C274 C 0.10979 0.51757 0.70257
 C275 C 0.12365 0.54028 0.70475
 C276 C 0.13744 0.54604 0.72717
 C277 C 0.12594 0.48736 0.76538
 C278 C 0.11462 0.49134 0.78932
 C279 C 0.11747 0.47329 0.80859
 C280 C 0.13178 0.45102 0.80330
 C281 C 0.14363 0.44732 0.77947
 C282 C 0.14050 0.46552 0.76064
 H283 H 0.14742 0.53315 0.76484
 H284 H 0.10020 0.48270 0.72120
 H285 H 0.10376 0.50859 0.79294
 H286 H 0.14938 0.46267 0.74214
 H287 H 0.12387 0.55329 0.68899
 H288 H 0.13382 0.43658 0.81760
 C289 C 0.74119 0.84978 -0.02238
 C290 C 0.73702 0.86382 0.00013
 C291 C 0.71393 0.87655 0.00391
 C292 C 0.69511 0.87603 -0.01509
 C293 C 0.69945 0.86196 -0.03777
 C294 C 0.72254 0.84875 -0.04144
 C295 C 0.75789 0.86757 0.01837
 C296 C 0.77901 0.88158 0.01112
 C297 C 0.79953 0.88544 0.02796
 C298 C 0.79848 0.87423 0.05223
 C299 C 0.77684 0.86080 0.05999
 C300 C 0.75664 0.85757 0.04279
 H301 H 0.75944 0.84055 -0.02548
 H302 H 0.71101 0.88761 0.02132
 H303 H 0.77946 0.88859 -0.00813
 H304 H 0.73988 0.84721 0.04829
 H305 H 0.68527 0.86188 -0.05277
 H306 H 0.81429 0.87637 0.06530
 C307 C 0.26528 0.35360 0.47876
 C308 C 0.26002 0.36629 0.50185
 C309 C 0.23674 0.37890 0.50513
 C310 C 0.21876 0.37927 0.48533
 C311 C 0.22414 0.36630 0.46221
 C312 C 0.24741 0.35332 0.45888
 C313 C 0.27926 0.36708 0.52226
 C314 C 0.30327 0.37699 0.51738
 C315 C 0.32179 0.37833 0.53661
 C316 C 0.31596 0.36930 0.56104
 C317 C 0.29178 0.35922 0.56617
 C318 C 0.27358 0.35827 0.54658
 H319 H 0.28346 0.34410 0.47622
 H320 H 0.23277 0.38867 0.52308
 H321 H 0.30743 0.38389 0.49850
 H322 H 0.25489 0.35067 0.55020
 H323 H 0.21034 0.36641 0.44686
 H324 H 0.33012 0.37021 0.57600
 C325 C 0.25531 0.63624 -0.05044
 C326 C 0.25875 0.62632 -0.02616
 C327 C 0.28169 0.61466 -0.01983
 C328 C 0.30142 0.61284 -0.03764
 C329 C 0.29823 0.62343 -0.06191
 C330 C 0.27492 0.63502 -0.06859
 C331 C 0.23803 0.62752 -0.00750
 C332 C 0.21588 0.61376 -0.01201
 C333 C 0.19575 0.61439 0.00568
 C334 C 0.19836 0.62978 0.02797
 C335 C 0.22081 0.64349 0.03261
 C336 C 0.24055 0.64216 0.01477
 H337 H 0.23719 0.64488 -0.05512
 H338 H 0.28409 0.60679 -0.00100
 H339 H 0.21439 0.60329 -0.02990
 H340 H 0.25802 0.65241 0.01827
 H341 H 0.31377 0.62243 -0.07539
 H342 H 0.18329 0.63072 0.04202
 C343 C 0.75521 0.14223 0.46767
 C344 C 0.75534 0.12764 0.48948
 C345 C 0.77620 0.11222 0.49517
 C346 C 0.79759 0.11138 0.47902
 C347 C 0.79722 0.12644 0.45695
 C348 C 0.77606 0.14173 0.45127
 C349 C 0.73390 0.12943 0.50698
 C350 C 0.71233 0.11478 0.50265
 C351 C 0.69180 0.11636 0.51959
 C352 C 0.69310 0.13288 0.54092
 C353 C 0.71480 0.14773 0.54510
 C354 C 0.73508 0.14599 0.52797
 H355 H 0.73867 0.15379 0.46339
 H356 H 0.77586 0.10207 0.51289
 H357 H 0.71155 0.10233 0.48598
 H358 H 0.75214 0.15696 0.53133
 H359 H 0.81318 0.12615 0.44391
 H360 H 0.67751 0.13390 0.55439
 C361 C 1.02433 0.76340 0.85769
 C362 C 1.00103 0.76534 0.87026
 C363 C 0.99543 0.78657 0.88561
 C364 C 1.01308 0.80631 0.88882
 C365 C 1.03622 0.80449 0.87518
 C366 C 1.04219 0.78286 0.86005
 C367 C 0.98328 0.74406 0.86960
 C368 C 0.98927 0.72230 0.88312
 C369 C 0.97182 0.70236 0.88515
 C370 C 0.94840 0.70444 0.87197
 C371 C 0.94198 0.72673 0.85866
 C372 C 0.95973 0.74638 0.85764
 H373 H 1.02871 0.74640 0.84654
 H374 H 0.97702 0.78736 0.89468
 H375 H 1.00793 0.72119 0.89170
 H376 H 0.95509 0.76384 0.84801
 H377 H 1.04995 0.81961 0.87682
 H378 H 0.93484 0.68915 0.87279
 C379 C 0.54901 0.25770 0.35769
 C380 C 0.52457 0.26170 0.36762
 C381 C 0.51853 0.28488 0.37959
 C382 C 0.53660 0.30414 0.38176
 C383 C 0.56090 0.30032 0.37116
 C384 C 0.56748 0.27685 0.35932
 C385 C 0.50566 0.24118 0.36723
 C386 C 0.51132 0.21815 0.37898
 C387 C 0.49276 0.19936 0.38101
 C388 C 0.46856 0.20356 0.37057
 C389 C 0.46247 0.22671 0.35899
 C390 C 0.48125 0.24535 0.35723
 H391 H 0.55366 0.23947 0.34893
 H392 H 0.49981 0.28772 0.38779
 H393 H 0.53001 0.21517 0.38714
 H394 H 0.47673 0.26340 0.34866
 H395 H 0.57459 0.31548 0.37257
 H396 H 0.45429 0.18897 0.37203
 C397 C 1.02829 0.24329 0.64939
 C398 C 1.00658 0.23737 0.63515
 C399 C 1.00419 0.21320 0.62372
 C400 C 1.02329 0.19448 0.62656
 C401 C 1.04520 0.20109 0.64085
 C402 C 1.04769 0.22526 0.65239
 C403 C 0.98555 0.25597 0.63389
 C404 C 0.98875 0.27926 0.62187
 C405 C 0.96932 0.29797 0.62220
 C406 C 0.94625 0.29221 0.63482
 C407 C 0.94310 0.26890 0.64710
 C408 C 0.96278 0.25090 0.64631
 H409 H 1.02999 0.26198 0.65816
 H410 H 0.98698 0.20895 0.61317
 H411 H 1.00681 0.28283 0.61279
 H412 H 0.96054 0.23289 0.65568
 H413 H 1.06085 0.18789 0.64279
 H414 H 0.93047 0.30542 0.63519
 C415 C 0.52724 0.74908 0.15749
 C416 C 0.50507 0.74261 0.14398
 C417 C 0.50251 0.71807 0.13370
 C418 C 0.52202 0.70000 0.13618
 C419 C 0.54422 0.70672 0.14962
 C420 C 0.54693 0.73117 0.16051
 C421 C 0.48550 0.76198 0.13831
 C422 C 0.49231 0.78358 0.12490
 C423 C 0.47389 0.80140 0.11783
 C424 C 0.44841 0.79783 0.12472
 C425 C 0.44095 0.77581 0.13758
 C426 C 0.45985 0.75802 0.14433
 H427 H 0.52943 0.76825 0.16494
 H428 H 0.48555 0.71333 0.12293
 H429 H 0.51197 0.78630 0.11954
 H430 H 0.45470 0.74089 0.15412
 H431 H 0.55968 0.69317 0.15114
 H432 H 0.43461 0.81218 0.11967
 O433 O -0.02613 0.99121 0.93611
 O434 O 0.00988 1.02026 0.93513
 O435 O -0.00619 0.93312 0.98550
 O436 O 0.01005 0.92926 1.02503
 O437 O -0.07564 0.97571 1.00005
 O438 O -0.08458 1.01684 1.01644
 O439 O 0.04921 1.00630 1.05726
 O440 O 0.05923 0.97144 1.03292
 O441 O 0.03396 1.06614 1.00706
 O442 O 0.00593 1.06683 0.96555
 O443 O -0.01436 1.05363 1.06469
 O444 O -0.05035 1.02326 1.07160
 O445 O 0.01306 1.01752 1.07867
 O446 O -0.02794 0.99432 1.08300
 O447 O -0.00793 1.07638 1.02889
 O448 O -0.02378 1.07948 0.98759
 O449 O 0.05979 1.03367 1.01924
 O450 O 0.06745 0.99367 0.99457
 O451 O -0.06238 1.00255 0.95726
 O452 O -0.07497 1.03741 0.98481
 O453 O -0.04947 0.94412 1.01346
 O454 O -0.02129 0.94081 1.04890
 O455 O 0.00537 0.95650 0.95136
 O456 O 0.03825 0.98693 0.94767
 Zr457 Zr 0.00206 0.99406 0.96438
 O458 O 0.02293 1.01993 0.98691
 Zr459 Zr -0.01331 0.96032 1.01494
 O460 O 0.00692 0.98489 1.03954
 Zr461 Zr -0.05129 1.00697 0.99596
 O462 O -0.03269 1.03374 1.01976
 Zr463 Zr 0.03652 1.00173 1.01947
 O464 O 0.01805 0.97500 0.99564
 Zr465 Zr -0.00146 1.04873 1.00047
 O466 O -0.02199 1.02428 0.97571
 Zr467 Zr -0.01633 1.01560 1.05129
 O468 O -0.03764 0.98927 1.02902
 O469 O -0.02843 0.97727 0.98288
 O470 O 0.01403 1.03191 1.03267
 C471 C -0.05000 0.99647 0.93681
 C472 C 0.00180 0.93534 0.96241
 C473 C -0.07150 0.95322 1.00828
 C474 C 0.03704 1.01282 1.07761
 C475 C 0.05552 1.05695 1.01394
 C476 C -0.01142 1.07460 1.05296
 H477 H 0.03705 1.02676 0.97676
 H478 H -0.04487 1.04719 1.02503
 H479 H -0.03783 0.96491 0.97208
 H480 H 0.01348 0.97520 1.05414
 H481 H 0.05738 0.95725 1.02042
 H482 H 0.02385 0.93605 1.03592
 H483 H -0.04118 1.07706 0.99414
 H484 H -0.06518 1.04726 0.97235
 H485 H 0.08342 0.99738 1.00391
 H486 H 0.03593 0.98057 0.92990
 H487 H -0.05878 1.03804 1.06375
 H488 H -0.08205 1.01052 1.03393
 H489 H 0.00913 1.01139 0.91831
 H490 H 0.02416 1.06449 0.96155
 H491 H -0.03464 0.95071 1.05798
 H492 H -0.01496 0.98098 1.08583
 O493 O 0.48053 0.50119 0.42234
 O494 O 0.51954 0.52225 0.41802
 O495 O 0.50129 0.43512 0.46568
 O496 O 0.51639 0.42600 0.50363
 O497 O 0.43546 0.48245 0.48739
 O498 O 0.43141 0.52167 0.50952
 O499 O 0.56716 0.50077 0.53652
 O500 O 0.57138 0.46468 0.50979
 O501 O 0.55209 0.56310 0.49483
 O502 O 0.52712 0.57145 0.45871
 O503 O 0.50651 0.54800 0.55464
 O504 O 0.47036 0.51959 0.56215
 O505 O 0.53317 0.50889 0.56230
 O506 O 0.49097 0.48783 0.56793
 O507 O 0.51340 0.57361 0.52095
 O508 O 0.49174 0.57970 0.47865
 O509 O 0.57639 0.52778 0.50050
 O510 O 0.57884 0.48961 0.47227
 O511 O 0.44744 0.51252 0.44810
 O512 O 0.44055 0.54513 0.47976
 O513 O 0.45910 0.44748 0.49650
 O514 O 0.49068 0.43958 0.53049
 O515 O 0.50949 0.46018 0.43182
 O516 O 0.54637 0.48854 0.42961
 Zr517 Zr 0.51121 0.49700 0.44796
 O518 O 0.53560 0.51963 0.47065
 Zr519 Zr 0.49692 0.46044 0.49699
 O520 O 0.52158 0.48092 0.52131
 Zr521 Zr 0.46215 0.51169 0.48536
 O522 O 0.48458 0.53436 0.50986
 Zr523 Zr 0.55057 0.49768 0.50015
 O524 O 0.52791 0.47430 0.47627
 Zr525 Zr 0.51522 0.54879 0.48921
 O526 O 0.49122 0.52824 0.46402
 Zr527 Zr 0.50161 0.51173 0.53783
 O528 O 0.47623 0.48971 0.51542
 O529 O 0.48098 0.48130 0.46772
 O530 O 0.53149 0.52773 0.51815
 C531 C 0.45741 0.50846 0.42602
 C532 C 0.50683 0.43839 0.44207
 C533 C 0.43777 0.45894 0.49302
 C534 C 0.55705 0.50534 0.55845
 C535 C 0.57346 0.55189 0.49887
 C536 C 0.51057 0.56977 0.54488
 H537 H 0.54922 0.52667 0.45996
 H538 H 0.47389 0.54802 0.51745
 H539 H 0.46982 0.47089 0.45655
 H540 H 0.52882 0.46953 0.53427
 H541 H 0.56811 0.45193 0.49609
 H542 H 0.53371 0.43064 0.50919
 H543 H 0.47814 0.58157 0.49156
 H544 H 0.44999 0.55538 0.46737
 H545 H 0.59566 0.49072 0.48075
 H546 H 0.54319 0.48091 0.41248
 H547 H 0.46105 0.53431 0.55524
 H548 H 0.43412 0.51244 0.52558
 H549 H 0.51780 0.51316 0.40137
 H550 H 0.52055 0.56319 0.44297
 H551 H 0.47686 0.44836 0.54002
 H552 H 0.50346 0.47374 0.56863
 O553 O 0.49496 -0.04034 0.55684
 O554 O 0.53165 -0.01226 0.56189
 O555 O 0.43305 0.00460 0.53683
 O556 O 0.42462 0.03610 0.50892
 O557 O 0.45307 -0.05960 0.49214
 O558 O 0.48332 -0.06659 0.45795
 O559 O 0.50178 0.07113 0.46980
 O560 O 0.47548 0.07715 0.50447
 O561 O 0.56420 0.02871 0.49350
 O562 O 0.56722 -0.01379 0.51838
 O563 O 0.52508 0.00592 0.42739
 O564 O 0.48615 -0.01537 0.41816
 O565 O 0.49455 0.04483 0.43566
 O566 O 0.46116 0.01238 0.42581
 O567 O 0.55745 -0.00301 0.45464
 O568 O 0.56707 -0.03236 0.48433
 O569 O 0.53782 0.06253 0.50019
 O570 O 0.50703 0.06664 0.53568
 O571 O 0.49157 -0.06677 0.52210
 O572 O 0.51452 -0.07340 0.48235
 O573 O 0.42626 -0.02570 0.49665
 O574 O 0.42195 0.01409 0.47296
 O575 O 0.46634 -0.00142 0.56400
 O576 O 0.50434 0.02384 0.56934
 Zr577 Zr 0.49834 -0.00430 0.54045
 O578 O 0.52276 0.01881 0.51961
 Zr579 Zr 0.45022 0.00599 0.50046
 O580 O 0.47281 0.02988 0.47826
 Zr581 Zr 0.48916 -0.04301 0.49047
 O582 O 0.51317 -0.02151 0.46766
 Zr583 Zr 0.50147 0.04646 0.50070
 O584 O 0.47692 0.02504 0.52369
 Zr585 Zr 0.54018 -0.00291 0.49063
 O586 O 0.51791 -0.02694 0.51320
 Zr587 Zr 0.49253 0.00806 0.45070
 O588 O 0.46757 -0.01568 0.47103
 O589 O 0.47056 -0.02211 0.51862
 O590 O 0.52074 0.02606 0.47210
 C591 C 0.49279 -0.06246 0.54628
 C592 C 0.44258 0.00156 0.55924
 C593 C 0.43084 -0.04964 0.49452
 C594 C 0.49814 0.06691 0.44586
 C595 C 0.55997 0.05246 0.49773
 C596 C 0.54841 0.00045 0.43224
 H597 H 0.53521 0.02659 0.53148
 H598 H 0.52122 -0.03302 0.45489
 H599 H 0.45944 -0.03272 0.52913
 H600 H 0.46194 0.04302 0.47048
 H601 H 0.46419 0.07316 0.51891
 H602 H 0.43149 0.05149 0.50105
 H603 H 0.55821 -0.04615 0.47497
 H604 H 0.52899 -0.07148 0.49430
 H605 H 0.51221 0.08417 0.53170
 H606 H 0.50119 0.01634 0.58624
 H607 H 0.49472 -0.03180 0.42119
 H608 H 0.47018 -0.05812 0.44750
 H609 H 0.52667 -0.01755 0.57921
 H610 H 0.56996 0.00090 0.53005
 H611 H 0.42430 0.00170 0.45872
 H612 H 0.45123 0.02735 0.43178
 O613 O -0.05207 0.44940 1.00329
 O614 O -0.02804 0.44396 0.96412
 O615 O 0.00299 0.46289 1.06098
 O616 O 0.03869 0.48765 1.06435
 O617 O -0.05900 0.51161 1.05508
 O618 O -0.06786 0.54808 1.02774
 O619 O 0.06393 0.53077 0.98843
 O620 O 0.07117 0.49394 1.00926
 O621 O 0.01105 0.51220 0.92949
 O622 O -0.03301 0.48846 0.93271
 O623 O -0.00239 0.57649 0.97552
 O624 O -0.01870 0.58244 1.02082
 O625 O 0.04035 0.56525 1.00078
 O626 O 0.01545 0.57681 1.03586
 O627 O -0.01734 0.55121 0.94339
 O628 O -0.04899 0.52338 0.93654
 O629 O 0.04802 0.50314 0.94994
 O630 O 0.05449 0.46605 0.97705
 O631 O -0.07479 0.48513 1.01358
 O632 O -0.08251 0.52598 0.99836
 O633 O -0.02144 0.50445 1.07526
 O634 O 0.01948 0.52417 1.07475
 O635 O -0.00979 0.43788 1.02745
 O636 O 0.01051 0.43387 0.98611
 Zr637 Zr -0.01503 0.46338 0.99748
 O638 O 0.00571 0.48437 0.97088
 Zr639 Zr 0.00510 0.49967 1.04578
 O640 O 0.02615 0.52228 1.02097
 Zr641 Zr -0.04842 0.51451 1.01627
 O642 O -0.02974 0.53707 0.98967
 Zr643 Zr 0.03737 0.50105 0.98856
 O644 O 0.01838 0.47752 1.01474
 Zr645 Zr -0.01651 0.51487 0.95864
 O646 O -0.03829 0.49287 0.98363
 Zr647 Zr 0.00342 0.55169 1.00639
 O648 O -0.01676 0.53107 1.03415
 O649 O -0.02721 0.48420 1.02936
 O650 O 0.01606 0.53128 0.97429
 C651 C -0.07298 0.46132 1.00825
 C652 C -0.00300 0.44131 1.05080
 C653 C -0.04551 0.50834 1.07528
 C654 C 0.06150 0.55438 0.99480
 C655 C 0.03498 0.50709 0.92965
 C656 C -0.01147 0.57294 0.95291
 H657 H 0.01088 0.47299 0.95655
 H658 H -0.04163 0.55051 0.98417
 H659 H -0.03719 0.47376 1.04114
 H660 H 0.04100 0.52891 1.03044
 H661 H 0.06790 0.47894 1.01983
 H662 H 0.05303 0.49676 1.05665
 H663 H -0.06095 0.53273 0.94788
 H664 H -0.08269 0.51756 0.98133
 H665 H 0.07138 0.46966 0.96964
 H666 H 0.00255 0.41722 0.98918
 H667 H -0.03406 0.58387 1.01005
 H668 H -0.05707 0.55666 1.04070
 H669 H -0.03360 0.42671 0.96874
 H670 H -0.01921 0.47765 0.92557
 H671 H 0.00881 0.53972 1.07473
 H672 H 0.02733 0.56727 1.04680
 O673 O 0.08272 0.45906 0.50473
 O674 O 0.08534 0.49790 0.48107
 O675 O 0.03309 0.47895 0.56739
 O676 O -0.00626 0.49249 0.57365
 O677 O 0.01845 0.41155 0.51875
 O678 O -0.00026 0.40680 0.47747
 O679 O -0.03384 0.54142 0.49534
 O680 O -0.01201 0.54670 0.53428
 O681 O 0.01371 0.52797 0.43752
 O682 O 0.05483 0.49886 0.43385
 O683 O -0.04444 0.48041 0.44702
 O684 O -0.05326 0.44364 0.47477
 O685 O -0.05757 0.50646 0.48615
 O686 O -0.06350 0.46425 0.50583
 O687 O -0.00860 0.48723 0.42403
 O688 O 0.03247 0.47054 0.41914
 O689 O 0.00442 0.55220 0.47268
 O690 O 0.02828 0.55488 0.51356
 O691 O 0.05983 0.42481 0.49145
 O692 O 0.03181 0.41606 0.45669
 O693 O 0.00515 0.43527 0.55292
 O694 O -0.03057 0.46550 0.55805
 O695 O 0.06852 0.48791 0.54451
 O696 O 0.07327 0.52340 0.51730
 Zr697 Zr 0.05561 0.48865 0.50659
 O698 O 0.03433 0.51245 0.48257
 Zr699 Zr 0.00431 0.47292 0.53972
 O700 O -0.01896 0.49646 0.51721
 Zr701 Zr 0.02200 0.43804 0.48942
 O702 O -0.00065 0.45968 0.46464
 Zr703 Zr 0.00235 0.52615 0.50227
 O704 O 0.02481 0.50448 0.52730
 Zr705 Zr 0.01983 0.49106 0.45184
 O706 O 0.04339 0.46765 0.47434
 Zr707 Zr -0.03146 0.47589 0.48485
 O708 O -0.01045 0.45148 0.50893
 O709 O 0.03589 0.45787 0.52103
 O710 O -0.01162 0.50640 0.47057
 C711 C 0.08087 0.43577 0.49723
 C712 C 0.05665 0.48520 0.56568
 C713 C 0.01064 0.41393 0.54189
 C714 C -0.05482 0.53052 0.48943
 C715 C 0.00811 0.54930 0.44863
 C716 C -0.03264 0.48407 0.42596
 H717 H 0.04502 0.52657 0.47679
 H718 H -0.00629 0.44869 0.45027
 H719 H 0.04649 0.44728 0.53236
 H720 H -0.03328 0.50323 0.52754
 H721 H 0.00019 0.54404 0.54839
 H722 H -0.01282 0.50925 0.56849
 H723 H 0.02479 0.45350 0.41977
 H724 H 0.04434 0.42602 0.44711
 H725 H 0.01960 0.57153 0.51182
 H726 H 0.09071 0.51989 0.52353
 H727 H -0.04476 0.43491 0.46023
 H728 H -0.01693 0.40891 0.48597
 H729 H 0.10194 0.49596 0.48980
 H730 H 0.05875 0.51698 0.43697
 H731 H -0.03874 0.45153 0.54829
 H732 H -0.06553 0.47608 0.52057
 O733 O 0.45577 1.05702 0.00027
 O734 O 0.48490 1.06232 0.03550
 O735 O 0.49752 1.03574 -0.06346
 O736 O 0.52840 1.00704 -0.07356
 O737 O 0.43380 0.99352 -0.04205
 O738 O 0.42718 0.96023 -0.01235
 O739 O 0.56626 0.96607 0.00097
 O740 O 0.57141 1.00098 -0.02384
 O741 O 0.52663 0.98902 0.06638
 O742 O 0.49135 1.01312 0.07541
 O743 O 0.50107 0.92531 0.02566
 O744 O 0.47884 0.91764 -0.01297
 O745 O 0.53952 0.93288 -0.00577
 O746 O 0.50528 0.92511 -0.03891
 O747 O 0.49432 0.95240 0.05924
 O748 O 0.46206 0.98681 0.06752
 O749 O 0.55932 0.99553 0.03905
 O750 O 0.56281 1.03124 0.00989
 O751 O 0.42860 1.02359 -0.00189
 O752 O 0.42273 0.98378 0.02004
 O753 O 0.46679 0.99607 -0.06990
 O754 O 0.50653 0.97225 -0.07642
 O755 O 0.49423 1.06274 -0.02912
 O756 O 0.52135 1.06564 0.00925
 Zr757 Zr 0.49167 1.03922 0.00254
 O758 O 0.51506 1.01702 0.02588
 Zr759 Zr 0.49940 0.99942 -0.04698
 O760 O 0.52394 0.97616 -0.02577
 Zr761 Zr 0.45192 0.99117 -0.00640
 O762 O 0.47412 0.96686 0.01599
 Zr763 Zr 0.54181 0.99753 0.00314
 O764 O 0.51987 1.02156 -0.02030
 Zr765 Zr 0.49407 0.98857 0.04320
 O766 O 0.46970 1.01286 0.02251
 Zr767 Zr 0.50267 0.94916 -0.00620
 O768 O 0.47805 0.97088 -0.02957
 O769 O 0.47232 1.01849 -0.02529
 O770 O 0.52203 0.96936 0.02215
 C771 C 0.43340 1.04746 -0.00073
 C772 C 0.49596 1.05810 -0.05317
 C773 C 0.44305 0.99480 -0.06463
 C774 C 0.56184 0.94241 -0.00310
 C775 C 0.55021 0.99260 0.06148
 C776 C 0.49679 0.93003 0.04944
 H777 H 0.52329 1.02814 0.03881
 H778 H 0.46275 0.95443 0.02388
 H779 H 0.46137 1.02936 -0.03593
 H780 H 0.53656 0.96817 -0.03739
 H781 H 0.56723 1.01599 -0.03417
 H782 H 0.54422 0.99939 -0.06693
 H783 H 0.45210 0.97173 0.06235
 H784 H 0.42534 0.99547 0.03479
 H785 H 0.58057 1.02638 0.01397
 H786 H 0.51524 1.08293 0.00513
 H787 H 0.46248 0.92143 -0.00443
 H788 H 0.43512 0.94920 -0.02564
 H789 H 0.48071 1.07981 0.03013
 H790 H 0.48535 1.02964 0.06901
 H791 H 0.49441 0.95825 -0.07402
 H792 H 0.52054 0.93001 -0.04858
 O793 O 0.56312 0.51146 -0.04529
 O794 O 0.56881 0.54916 -0.01965
 O795 O 0.54891 0.45262 0.00453
 O796 O 0.52403 0.44671 0.03933
 O797 O 0.50133 0.46316 -0.05752
 O798 O 0.46575 0.49062 -0.06588
 O799 O 0.48024 0.52381 0.07067
 O800 O 0.51727 0.50164 0.07660
 O801 O 0.49512 0.58325 0.02165
 O802 O 0.51737 0.58742 -0.01588
 O803 O 0.43342 0.53713 0.00497
 O804 O 0.42625 0.49663 -0.01079
 O805 O 0.44589 0.51142 0.04727
 O806 O 0.43834 0.47393 0.01683
 O807 O 0.45752 0.57026 -0.00746
 O808 O 0.48897 0.57501 -0.04243
 O809 O 0.50626 0.56153 0.05707
 O810 O 0.54432 0.53460 0.06183
 O811 O 0.52836 0.50289 -0.06983
 O812 O 0.48684 0.52257 -0.07564
 O813 O 0.50777 0.44056 -0.02146
 O814 O 0.48752 0.43946 0.02070
 O815 O 0.57375 0.48643 -0.00490
 O816 O 0.57579 0.52763 0.01908
 Zr817 Zr 0.54799 0.51691 -0.00842
 O818 O 0.52581 0.54266 0.01332
 Zr819 Zr 0.51203 0.46814 0.00775
 O820 O 0.48926 0.49183 0.03118
 Zr821 Zr 0.49789 0.50088 -0.04390
 O822 O 0.47368 0.52522 -0.02289
 Zr823 Zr 0.50977 0.52363 0.04401
 O824 O 0.53376 0.49798 0.02352
 Zr825 Zr 0.49473 0.55567 -0.00781
 O826 O 0.51875 0.53254 -0.03102
 Zr827 Zr 0.45948 0.50697 0.00941
 O828 O 0.48092 0.48120 -0.01379
 O829 O 0.52777 0.48623 -0.02308
 O830 O 0.47891 0.53838 0.02385
 C831 C 0.55231 0.50654 -0.06683
 C832 C 0.57042 0.46280 -0.00050
 C833 C 0.50464 0.44227 -0.04566
 C834 C 0.45676 0.51771 0.06847
 C835 C 0.50052 0.58208 0.04552
 C836 C 0.43608 0.56000 -0.00266
 H837 H 0.53654 0.55696 0.01920
 H838 H 0.45992 0.53082 -0.03438
 H839 H 0.53845 0.47471 -0.03371
 H840 H 0.48301 0.48189 0.04566
 H841 H 0.53265 0.49136 0.07270
 H842 H 0.51703 0.45522 0.05478
 H843 H 0.47394 0.56759 -0.05099
 H844 H 0.49780 0.53774 -0.07561
 H845 H 0.54037 0.54115 0.07925
 H846 H 0.59289 0.52299 0.01253
 H847 H 0.42916 0.50077 -0.02887
 H848 H 0.45629 0.47808 -0.05585
 H849 H 0.58634 0.54376 -0.02418
 H850 H 0.53333 0.58060 -0.02331
 H851 H 0.47272 0.43911 0.00903
 H852 H 0.44448 0.46699 0.03314
 O853 O 0.05723 0.00485 0.45342
 O854 O 0.06027 0.04305 0.47986
 O855 O 0.04692 -0.05381 0.50846
 O856 O 0.02028 -0.06213 0.54052
 O857 O -0.00312 -0.04820 0.44378
 O858 O -0.03938 -0.02117 0.43523
 O859 O -0.02527 0.01304 0.57112
 O860 O 0.01292 -0.00649 0.57696
 O861 O -0.01087 0.07381 0.52063
 O862 O 0.01347 0.07336 0.47680
 O863 O -0.07176 0.02625 0.50540
 O864 O -0.07785 -0.01493 0.48875
 O865 O -0.05880 -0.00009 0.54694
 O866 O -0.06587 -0.03687 0.51675
 O867 O -0.04837 0.05930 0.49158
 O868 O -0.02094 0.06780 0.45980
 O869 O -0.00005 0.05286 0.55662
 O870 O 0.03874 0.02684 0.56169
 O871 O 0.02343 -0.00926 0.43010
 O872 O -0.01778 0.01036 0.42366
 O873 O 0.00703 -0.06937 0.47984
 O874 O -0.01487 -0.07038 0.52126
 O875 O 0.06961 -0.02054 0.49359
 O876 O 0.07159 0.01980 0.51712
 Zr877 Zr 0.04269 0.00884 0.49092
 O878 O 0.02008 0.03386 0.51320
 Zr879 Zr 0.00886 -0.04094 0.50857
 O880 O -0.01494 -0.01772 0.53137
 Zr881 Zr -0.00684 -0.01015 0.45622
 O882 O -0.03126 0.01440 0.47673
 Zr883 Zr 0.00438 0.01482 0.54415
 O884 O 0.02928 -0.00988 0.52353
 Zr885 Zr -0.01108 0.04561 0.49155
 O886 O 0.01277 0.02257 0.46820
 Zr887 Zr -0.04508 -0.00363 0.50926
 O888 O -0.02287 -0.02951 0.48692
 O889 O 0.02378 -0.02311 0.47717
 O890 O -0.02665 0.02853 0.52353
 C891 C 0.04675 -0.00255 0.43234
 C892 C 0.06772 -0.04343 0.50131
 C893 C 0.00228 -0.06857 0.45583
 C894 C -0.04840 0.00563 0.56850
 C895 C -0.00564 0.07316 0.54457
 C896 C -0.06952 0.04899 0.49722
 H897 H 0.03055 0.04833 0.51910
 H898 H -0.04509 0.01976 0.46519
 H899 H 0.03496 -0.03450 0.46692
 H900 H -0.02089 -0.02788 0.54580
 H901 H 0.02842 -0.01654 0.57292
 H902 H 0.01358 -0.05316 0.55584
 H903 H -0.02889 0.05623 0.44711
 H904 H -0.00719 0.02579 0.42352
 H905 H 0.03468 0.03379 0.57893
 H906 H 0.08839 0.01730 0.50890
 H907 H -0.07586 -0.00907 0.47106
 H908 H -0.04834 -0.03376 0.44564
 H909 H 0.07781 0.03919 0.47403
 H910 H 0.02412 0.07988 0.49099
 H911 H -0.02929 -0.07151 0.50917
 H912 H -0.05852 -0.04458 0.53219
 O913 O 0.69155 0.22657 0.26272
 O914 O 0.68968 0.24745 0.22216
 O915 O 0.74526 0.16615 0.25107
 O916 O 0.78466 0.16132 0.23606
 O917 O 0.75482 0.21734 0.31503
 O918 O 0.76939 0.25928 0.31994
 O919 O 0.81250 0.23502 0.18756
 O920 O 0.79061 0.19726 0.18161
 O921 O 0.75994 0.29352 0.19592
 O922 O 0.71854 0.29749 0.22223
 O923 O 0.81691 0.28808 0.24737
 O924 O 0.82518 0.26228 0.28562
 O925 O 0.83247 0.25122 0.22278
 O926 O 0.83766 0.23081 0.26616
 O927 O 0.78092 0.30898 0.23567
 O928 O 0.73805 0.31243 0.25252
 O929 O 0.77445 0.25886 0.17359
 O930 O 0.75145 0.21771 0.16981
 O931 O 0.71160 0.24269 0.29792
 O932 O 0.73789 0.27844 0.30708
 O933 O 0.77022 0.18306 0.29289
 O934 O 0.80747 0.17832 0.26577
 O935 O 0.70932 0.18616 0.23755
 O936 O 0.70566 0.21115 0.19933
 Zr937 Zr 0.72031 0.22440 0.23491
 O938 O 0.74164 0.24845 0.21159
 Zr939 Zr 0.77238 0.19493 0.25509
 O940 O 0.79575 0.21718 0.23208
 Zr941 Zr 0.75021 0.24532 0.28720
 O942 O 0.77298 0.26996 0.26605
 Zr943 Zr 0.77520 0.22978 0.20039
 O944 O 0.75285 0.20471 0.22167
 Zr945 Zr 0.75340 0.28038 0.23290
 O946 O 0.72965 0.25783 0.25546
 Zr947 Zr 0.80539 0.25049 0.25233
 O948 O 0.78426 0.22685 0.27648
 O949 O 0.73916 0.21263 0.26769
 O950 O 0.78640 0.26250 0.22000
 C951 C 0.69156 0.23550 0.28573
 C952 C 0.72195 0.16619 0.24373
 C953 C 0.76368 0.19455 0.31366
 C954 C 0.83193 0.24443 0.19909
 C955 C 0.76840 0.28242 0.17563
 C956 C 0.80478 0.30810 0.24073
 H957 H 0.73149 0.25323 0.19650
 H958 H 0.77749 0.28489 0.27676
 H959 H 0.72862 0.20160 0.27842
 H960 H 0.81090 0.20729 0.22665
 H961 H 0.77867 0.18321 0.18459
 H962 H 0.79444 0.16654 0.22099
 H963 H 0.74754 0.31454 0.26871
 H964 H 0.72593 0.28728 0.29561
 H965 H 0.76107 0.21955 0.15371
 H966 H 0.68867 0.20368 0.20204
 H967 H 0.81567 0.27670 0.29341
 H968 H 0.78703 0.25273 0.31872
 H969 H 0.67362 0.23783 0.22335
 H970 H 0.71407 0.29115 0.20493
 H971 H 0.81482 0.18941 0.27927
 H972 H 0.84234 0.21752 0.25341
 O973 O 0.74836 0.70661 0.69335
 O974 O 0.78956 0.70557 0.71442
 O975 O 0.69618 0.70589 0.75649
 O976 O 0.68760 0.72979 0.79154
 O977 O 0.68853 0.76168 0.69667
 O978 O 0.71115 0.80170 0.68985
 O979 O 0.75911 0.77958 0.81815
 O980 O 0.74413 0.73947 0.82169
 O981 O 0.81714 0.77277 0.76044
 O982 O 0.81378 0.75524 0.71307
 O983 O 0.76170 0.83215 0.75747
 O984 O 0.71572 0.83258 0.74288
 O985 O 0.74148 0.81384 0.79886
 O986 O 0.70339 0.82148 0.77698
 O987 O 0.79640 0.81362 0.73913
 O988 O 0.80417 0.79150 0.70310
 O989 O 0.79983 0.75892 0.79734
 O990 O 0.77861 0.71820 0.80079
 O991 O 0.72873 0.74082 0.67576
 O992 O 0.74257 0.78376 0.67154
 O993 O 0.67356 0.74380 0.73278
 O994 O 0.67281 0.76457 0.77524
 O995 O 0.72940 0.68825 0.73446
 O996 O 0.77217 0.68879 0.75282
 Zr997 Zr 0.75513 0.71837 0.73157
 O998 O 0.77943 0.74142 0.75373
 Zr999 Zr 0.70405 0.74504 0.75843
 O1000 O 0.72639 0.76950 0.78089
 Zr1001 Zr 0.72735 0.76845 0.70515
 O1002 O 0.75160 0.79336 0.72537
 Zr1003 Zr 0.76168 0.75246 0.78810
 O1004 O 0.73837 0.72676 0.76745
 Zr1005 Zr 0.78605 0.77532 0.73478
 O1006 O 0.76320 0.75149 0.71126
 Zr1007 Zr 0.73520 0.80247 0.76082
 O1008 O 0.70952 0.77951 0.73948
 O1009 O 0.72019 0.73493 0.72373
 O1010 O 0.77029 0.78624 0.76983
 C1011 C 0.73753 0.71799 0.67466
 C1012 C 0.70771 0.68699 0.74557
 C1013 C 0.67098 0.75100 0.70968
 C1014 C 0.74992 0.80232 0.81856
 C1015 C 0.81881 0.76545 0.78372
 C1016 C 0.78430 0.83300 0.74822
 H1017 H 0.79525 0.73170 0.75684
 H1018 H 0.75454 0.80855 0.71504
 H1019 H 0.70935 0.72324 0.71365
 H1020 H 0.71709 0.77346 0.79685
 H1021 H 0.73536 0.72351 0.81694
 H1022 H 0.69597 0.73779 0.80649
 H1023 H 0.79051 0.79734 0.69159
 H1024 H 0.75948 0.77575 0.66908
 H1025 H 0.78619 0.72140 0.81788
 H1026 H 0.77062 0.67259 0.74305
 H1027 H 0.72556 0.83728 0.72765
 H1028 H 0.69819 0.80784 0.70222
 H1029 H 0.78702 0.68829 0.70710
 H1030 H 0.82218 0.74299 0.72448
 H1031 H 0.66900 0.77931 0.76439
 H1032 H 0.69424 0.80900 0.78732
 O1033 O 0.30962 0.19653 0.75358
 O1034 O 0.31244 0.22119 0.71527
 O1035 O 0.30352 0.25554 0.81221
 O1036 O 0.27720 0.28897 0.82067
 O1037 O 0.25301 0.19200 0.81062
 O1038 O 0.21330 0.18478 0.78600
 O1039 O 0.22893 0.31543 0.74778
 O1040 O 0.26772 0.32134 0.76646
 O1041 O 0.24284 0.26210 0.68659
 O1042 O 0.26463 0.21672 0.68767
 O1043 O 0.18119 0.25040 0.73716
 O1044 O 0.18013 0.23387 0.78293
 O1045 O 0.19530 0.29245 0.76136
 O1046 O 0.18679 0.26921 0.79686
 O1047 O 0.20366 0.23659 0.70261
 O1048 O 0.22924 0.20307 0.69334
 O1049 O 0.25368 0.29879 0.70719
 O1050 O 0.29253 0.30454 0.73196
 O1051 O 0.27462 0.17508 0.76659
 O1052 O 0.23250 0.16884 0.75520
 O1053 O 0.26617 0.22861 0.82993
 O1054 O 0.24278 0.26897 0.83255
 O1055 O 0.32432 0.23699 0.77856
 O1056 O 0.32508 0.25904 0.73786
 Zr1057 Zr 0.29613 0.23426 0.75021
 O1058 O 0.27307 0.25592 0.72586
 Zr1059 Zr 0.26491 0.25568 0.80127
 O1060 O 0.24007 0.27732 0.77881
 Zr1061 Zr 0.24628 0.20264 0.77232
 O1062 O 0.22162 0.22201 0.74763
 Zr1063 Zr 0.25847 0.28806 0.74531
 O1064 O 0.28428 0.26819 0.76897
 Zr1065 Zr 0.24118 0.23476 0.71544
 O1066 O 0.26495 0.21211 0.73830
 Zr1067 Zr 0.20911 0.25546 0.76601
 O1068 O 0.23207 0.23480 0.79192
 O1069 O 0.27819 0.22286 0.78322
 O1070 O 0.22674 0.26770 0.73286
 C1071 C 0.29779 0.17609 0.75919
 C1072 C 0.32364 0.24650 0.80130
 C1073 C 0.26123 0.20484 0.83007
 C1074 C 0.20567 0.31339 0.75509
 C1075 C 0.24858 0.28578 0.68691
 C1076 C 0.18277 0.24250 0.71380
 H1077 H 0.28336 0.26073 0.71096
 H1078 H 0.20747 0.21067 0.74283
 H1079 H 0.28991 0.21258 0.79365
 H1080 H 0.23434 0.29228 0.78895
 H1081 H 0.28345 0.31745 0.77604
 H1082 H 0.26768 0.30347 0.81360
 H1083 H 0.22077 0.19140 0.70510
 H1084 H 0.23821 0.16888 0.73722
 H1085 H 0.28844 0.32166 0.72546
 H1086 H 0.34183 0.25055 0.73978
 H1087 H 0.17661 0.21919 0.77146
 H1088 H 0.20691 0.19532 0.80048
 H1089 H 0.33001 0.21517 0.71854
 H1090 H 0.27578 0.22978 0.68045
 H1091 H 0.22855 0.25699 0.83443
 H1092 H 0.19847 0.27791 0.80886
 O1093 O 0.18031 0.79849 0.23319
 O1094 O 0.17850 0.77397 0.19363
 O1095 O 0.18513 0.74842 0.29251
 O1096 O 0.20807 0.71457 0.30390
 O1097 O 0.23911 0.80781 0.28621
 O1098 O 0.27685 0.81281 0.26149
 O1099 O 0.25658 0.67730 0.23112
 O1100 O 0.21742 0.67472 0.24982
 O1101 O 0.24858 0.72494 0.16819
 O1102 O 0.23413 0.76461 0.16062
 O1103 O 0.30846 0.73675 0.22232
 O1104 O 0.31223 0.75523 0.26303
 O1105 O 0.29069 0.69856 0.24711
 O1106 O 0.29602 0.72924 0.28497
 O1107 O 0.28992 0.75019 0.18576
 O1108 O 0.26128 0.78816 0.17653
 O1109 O 0.23445 0.69136 0.19059
 O1110 O 0.19419 0.69049 0.21391
 O1111 O 0.21571 0.82082 0.24412
 O1112 O 0.25886 0.82274 0.22711
 O1113 O 0.22620 0.77375 0.30871
 O1114 O 0.24433 0.73058 0.31345
 O1115 O 0.16468 0.75871 0.25574
 O1116 O 0.16546 0.73620 0.21407
 Zr1117 Zr 0.19394 0.76097 0.22851
 O1118 O 0.21720 0.73685 0.20603
 Zr1119 Zr 0.22340 0.74384 0.28178
 O1120 O 0.24673 0.71802 0.26152
 Zr1121 Zr 0.24428 0.79292 0.24903
 O1122 O 0.26955 0.76930 0.22819
 Zr1123 Zr 0.22888 0.70583 0.22772
 O1124 O 0.20388 0.72885 0.24988
 Zr1125 Zr 0.25104 0.75472 0.19564
 O1126 O 0.22617 0.78038 0.21533
 Zr1127 Zr 0.27916 0.73700 0.24923
 O1128 O 0.25692 0.76261 0.27165
 O1129 O 0.21175 0.77491 0.26119
 O1130 O 0.26243 0.72287 0.21584
 C1131 C 0.19183 0.81922 0.23913
 C1132 C 0.16503 0.75379 0.27968
 C1133 C 0.23232 0.79718 0.30695
 C1134 C 0.27945 0.67813 0.23968
 C1135 C 0.24112 0.70181 0.16975
 C1136 C 0.30939 0.74321 0.19888
 H1137 H 0.20737 0.73142 0.19081
 H1138 H 0.28470 0.77925 0.22379
 H1139 H 0.20058 0.78611 0.27164
 H1140 H 0.25090 0.70354 0.27253
 H1141 H 0.20145 0.67996 0.25845
 H1142 H 0.21341 0.69834 0.29574
 H1143 H 0.27664 0.79506 0.18494
 H1144 H 0.24907 0.82284 0.21097
 H1145 H 0.19735 0.67265 0.20831
 H1146 H 0.14860 0.74452 0.21606
 H1147 H 0.31215 0.77257 0.25616
 H1148 H 0.28489 0.80239 0.27484
 H1149 H 0.16091 0.78015 0.19667
 H1150 H 0.21619 0.76874 0.16451
 H1151 H 0.25925 0.74175 0.31551
 H1152 H 0.28836 0.71355 0.29144
 O1153 O 0.21744 0.68205 0.74682
 O1154 O 0.25958 0.68134 0.72760
 O1155 O 0.22505 0.73302 0.81097
 O1156 O 0.23587 0.77272 0.81915
 O1157 O 0.16446 0.74433 0.75458
 O1158 O 0.16464 0.76170 0.71253
 O1159 O 0.29227 0.80357 0.74860
 O1160 O 0.29376 0.78203 0.78745
 O1161 O 0.29190 0.75164 0.68983
 O1162 O 0.26475 0.71195 0.68042
 O1163 O 0.23647 0.80942 0.69251
 O1164 O 0.19658 0.81618 0.71632
 O1165 O 0.25689 0.82451 0.73493
 O1166 O 0.21239 0.82813 0.74883
 O1167 O 0.25439 0.77540 0.67193
 O1168 O 0.23773 0.73367 0.66335
 O1169 O 0.30968 0.76448 0.72742
 O1170 O 0.30800 0.74234 0.76821
 O1171 O 0.18395 0.70332 0.72958
 O1172 O 0.17896 0.72948 0.69379
 O1173 O 0.18274 0.75765 0.79173
 O1174 O 0.20839 0.79534 0.80066
 O1175 O 0.24087 0.69822 0.78984
 O1176 O 0.27935 0.69441 0.76651
 Zr1177 Zr 0.24517 0.71056 0.75218
 O1178 O 0.27070 0.73322 0.73182
 Zr1179 Zr 0.22147 0.76114 0.78315
 O1180 O 0.24603 0.78566 0.76404
 Zr1181 Zr 0.19518 0.74138 0.72889
 O1182 O 0.21859 0.76492 0.70718
 Zr1183 Zr 0.27925 0.76620 0.75304
 O1184 O 0.25589 0.74240 0.77474
 Zr1185 Zr 0.25314 0.74630 0.69864
 O1186 O 0.22826 0.72159 0.71767
 Zr1187 Zr 0.22914 0.79657 0.72954
 O1188 O 0.20323 0.77447 0.75023
 O1189 O 0.21133 0.72875 0.76260
 O1190 O 0.26318 0.77881 0.71920
 C1191 C 0.19506 0.68289 0.73682
 C1192 C 0.23372 0.71011 0.81024
 C1193 C 0.16335 0.75172 0.77808
 C1194 C 0.28028 0.82371 0.74181
 C1195 C 0.31096 0.75844 0.70365
 C1196 C 0.24672 0.79856 0.67290
 H1197 H 0.28623 0.72316 0.72804
 H1198 H 0.20946 0.76994 0.69156
 H1199 H 0.19999 0.71773 0.77250
 H1200 H 0.25007 0.80042 0.77521
 H1201 H 0.28975 0.76992 0.80106
 H1202 H 0.25161 0.78222 0.81593
 H1203 H 0.22110 0.74221 0.66118
 H1204 H 0.19189 0.71869 0.68510
 H1205 H 0.32407 0.75203 0.76888
 H1206 H 0.27608 0.67682 0.77199
 H1207 H 0.19026 0.80703 0.70097
 H1208 H 0.16341 0.77809 0.72200
 H1209 H 0.25718 0.66466 0.73566
 H1210 H 0.28065 0.70623 0.68867
 H1211 H 0.19534 0.80256 0.78922
 H1212 H 0.22135 0.83051 0.76529
 O1213 O 0.26079 0.19126 0.20593
 O1214 O 0.30213 0.19049 0.22646
 O1215 O 0.20811 0.19996 0.26721
 O1216 O 0.20384 0.22626 0.30202
 O1217 O 0.20356 0.24979 0.20406
 O1218 O 0.22778 0.28662 0.19206
 O1219 O 0.27709 0.27598 0.32203
 O1220 O 0.26092 0.23735 0.33018
 O1221 O 0.33319 0.26226 0.26394
 O1222 O 0.32885 0.23846 0.21970
 O1223 O 0.28047 0.32198 0.25507
 O1224 O 0.23390 0.32280 0.24252
 O1225 O 0.26055 0.30896 0.29982
 O1226 O 0.22264 0.31628 0.27808
 O1227 O 0.31369 0.29966 0.23821
 O1228 O 0.31963 0.27261 0.20457
 O1229 O 0.31658 0.25245 0.30249
 O1230 O 0.29381 0.21272 0.31070
 O1231 O 0.24255 0.22430 0.18498
 O1232 O 0.25832 0.26584 0.17605
 O1233 O 0.18788 0.23713 0.24211
 O1234 O 0.18922 0.26067 0.28277
 O1235 O 0.24186 0.17824 0.25020
 O1236 O 0.28495 0.17885 0.26672
 Zr1237 Zr 0.26858 0.20658 0.24265
 O1238 O 0.29443 0.23068 0.26160
 Zr1239 Zr 0.21912 0.23834 0.26700
 O1240 O 0.24313 0.26379 0.28648
 Zr1241 Zr 0.24268 0.25485 0.21125
 O1242 O 0.26813 0.28060 0.22833
 Zr1243 Zr 0.27790 0.24608 0.29487
 O1244 O 0.25281 0.21962 0.27758
 Zr1245 Zr 0.30185 0.26191 0.23882
 O1246 O 0.27765 0.23679 0.21858
 Zr1247 Zr 0.25296 0.29413 0.26305
 O1248 O 0.22595 0.27031 0.24451
 O1249 O 0.23427 0.22387 0.23333
 O1250 O 0.28749 0.27727 0.27291
 C1251 C 0.25060 0.20126 0.18611
 C1252 C 0.21942 0.17936 0.25982
 C1253 C 0.18543 0.24223 0.21839
 C1254 C 0.26883 0.29895 0.32046
 C1255 C 0.33528 0.25770 0.28786
 C1256 C 0.30266 0.32052 0.24483
 H1257 H 0.31001 0.22088 0.26553
 H1258 H 0.27136 0.29438 0.21626
 H1259 H 0.22263 0.21194 0.22455
 H1260 H 0.23436 0.26975 0.30216
 H1261 H 0.25116 0.22157 0.32728
 H1262 H 0.21202 0.23628 0.31584
 H1263 H 0.30623 0.27987 0.19360
 H1264 H 0.27461 0.25651 0.17410
 H1265 H 0.30239 0.21747 0.32695
 H1266 H 0.28266 0.16179 0.25879
 H1267 H 0.24332 0.32534 0.22647
 H1268 H 0.21593 0.29529 0.20407
 H1269 H 0.29872 0.17273 0.22097
 H1270 H 0.33708 0.22760 0.23254
 H1271 H 0.18626 0.27491 0.27104
 H1272 H 0.21307 0.30537 0.28975
 O1273 O 0.81091 0.69837 0.25835
 O1274 O 0.81389 0.71906 0.21744
 O1275 O 0.80638 0.75765 0.31322
 O1276 O 0.78281 0.79326 0.32004
 O1277 O 0.75278 0.69785 0.31290
 O1278 O 0.71410 0.69043 0.28903
 O1279 O 0.73700 0.81927 0.24279
 O1280 O 0.77557 0.82433 0.26201
 O1281 O 0.74528 0.76245 0.18634
 O1282 O 0.76429 0.71711 0.18803
 O1283 O 0.68434 0.75805 0.23788
 O1284 O 0.67904 0.74679 0.28022
 O1285 O 0.70204 0.80077 0.25963
 O1286 O 0.69467 0.77571 0.29993
 O1287 O 0.70540 0.74009 0.20426
 O1288 O 0.73000 0.70368 0.19761
 O1289 O 0.75962 0.79910 0.20456
 O1290 O 0.79957 0.80326 0.22898
 O1291 O 0.77528 0.67854 0.27209
 O1292 O 0.73210 0.67441 0.25648
 O1293 O 0.76503 0.73508 0.33169
 O1294 O 0.74642 0.77830 0.33090
 O1295 O 0.82665 0.73819 0.27968
 O1296 O 0.82851 0.75802 0.23753
 Zr1297 Zr 0.79845 0.73548 0.25139
 O1298 O 0.77656 0.75645 0.22554
 Zr1299 Zr 0.76803 0.76065 0.30141
 O1300 O 0.74526 0.78306 0.27746
 Zr1301 Zr 0.74719 0.70727 0.27437
 O1302 O 0.72321 0.72738 0.24967
 Zr1303 Zr 0.76436 0.79028 0.24327
 O1304 O 0.78849 0.77061 0.26866
 Zr1305 Zr 0.74318 0.73683 0.21658
 O1306 O 0.76643 0.71420 0.24015
 Zr1307 Zr 0.71285 0.76268 0.26610
 O1308 O 0.73431 0.74098 0.29249
 O1309 O 0.77968 0.72662 0.28484
 O1310 O 0.73117 0.77156 0.23223
 C1311 C 0.79896 0.67882 0.26606
 C1312 C 0.82615 0.74758 0.30248
 C1313 C 0.75947 0.71140 0.33239
 C1314 C 0.71395 0.81994 0.25076
 C1315 C 0.75243 0.78566 0.18523
 C1316 C 0.68505 0.74828 0.21519
 H1317 H 0.78694 0.75982 0.21028
 H1318 H 0.70820 0.71686 0.24574
 H1319 H 0.79049 0.71654 0.29636
 H1320 H 0.74085 0.79905 0.28664
 H1321 H 0.79114 0.82026 0.27179
 H1322 H 0.77695 0.80809 0.31032
 H1323 H 0.71914 0.69461 0.20975
 H1324 H 0.74127 0.67210 0.24011
 H1325 H 0.79663 0.81996 0.22104
 H1326 H 0.84480 0.74883 0.24002
 H1327 H 0.68025 0.72826 0.27712
 H1328 H 0.70687 0.70266 0.30167
 H1329 H 0.83126 0.71269 0.22107
 H1330 H 0.77769 0.72857 0.18199
 H1331 H 0.73123 0.76770 0.33343
 H1332 H 0.70295 0.79167 0.30546
 O1333 O 0.69315 0.24617 0.81095
 O1334 O 0.71745 0.20624 0.81093
 O1335 O 0.74679 0.30410 0.80337
 O1336 O 0.78055 0.31213 0.77797
 O1337 O 0.68375 0.29955 0.75314
 O1338 O 0.67592 0.27472 0.71450
 O1339 O 0.81005 0.23965 0.72790
 O1340 O 0.81604 0.25788 0.76702
 O1341 O 0.75928 0.17824 0.73985
 O1342 O 0.71545 0.17743 0.76279
 O1343 O 0.74420 0.22832 0.68021
 O1344 O 0.72702 0.27265 0.67872
 O1345 O 0.78623 0.25292 0.69435
 O1346 O 0.75982 0.28887 0.68724
 O1347 O 0.73218 0.19374 0.70225
 O1348 O 0.69882 0.18477 0.72890
 O1349 O 0.79531 0.19902 0.75133
 O1350 O 0.80043 0.22383 0.79150
 O1351 O 0.66983 0.25699 0.77606
 O1352 O 0.66349 0.24275 0.73334
 O1353 O 0.71993 0.32053 0.76381
 O1354 O 0.76096 0.32298 0.74278
 O1355 O 0.73530 0.26861 0.82457
 O1356 O 0.75523 0.22761 0.82444
 Zr1357 Zr 0.73011 0.24105 0.79583
 O1358 O 0.75221 0.21702 0.77208
 Zr1359 Zr 0.74825 0.29224 0.76470
 O1360 O 0.77079 0.27006 0.73964
 Zr1361 Zr 0.69621 0.26187 0.74667
 O1362 O 0.71643 0.23820 0.72110
 Zr1363 Zr 0.78318 0.23684 0.75746
 O1364 O 0.76277 0.26040 0.78360
 Zr1365 Zr 0.73075 0.20640 0.74011
 O1366 O 0.70762 0.22849 0.76491
 Zr1367 Zr 0.74897 0.25701 0.70850
 O1368 O 0.72705 0.28204 0.73203
 O1369 O 0.71673 0.27368 0.77843
 O1370 O 0.76275 0.22421 0.72555
 C1371 C 0.67204 0.25129 0.79966
 C1372 C 0.74185 0.29198 0.82385
 C1373 C 0.69598 0.31980 0.75926
 C1374 C 0.80756 0.24695 0.70472
 C1375 C 0.78307 0.17880 0.74520
 C1376 C 0.73709 0.20508 0.68148
 H1377 H 0.75790 0.20222 0.78197
 H1378 H 0.70498 0.23333 0.70691
 H1379 H 0.70655 0.28448 0.79028
 H1380 H 0.78532 0.28034 0.73412
 H1381 H 0.81202 0.26756 0.78289
 H1382 H 0.79551 0.30469 0.76915
 H1383 H 0.68748 0.19602 0.71908
 H1384 H 0.66390 0.22574 0.74103
 H1385 H 0.81750 0.21692 0.78717
 H1386 H 0.74671 0.22892 0.84127
 H1387 H 0.71140 0.26247 0.67693
 H1388 H 0.68640 0.28799 0.70667
 H1389 H 0.71113 0.20930 0.82853
 H1390 H 0.72903 0.17137 0.77429
 H1391 H 0.74980 0.32381 0.72760
 H1392 H 0.77212 0.29862 0.69769
 C1393 C 0.07666 1.01747 1.14751
 C1394 C 0.06308 1.03844 1.13842
 N1395 N 0.06289 1.06046 1.15220
 C1396 C 0.07577 1.06260 1.17463
 C1397 C 0.08917 1.04144 1.18426
 N1398 N 0.08892 1.01932 1.17027
 N1399 N 0.07771 0.99572 1.13323
 C1400 C 0.06564 0.99398 1.11030
 C1401 C 0.05138 1.01470 1.10155
 N1402 N 0.05039 1.03648 1.11589
 H1403 H 0.07450 1.08038 1.18516
 H1404 H 0.06664 0.97642 1.09928
 C1405 C 0.60284 0.51602 0.62387
 C1406 C 0.57726 0.50911 0.62595
 N1407 N 0.56663 0.50685 0.64932
 C1408 C 0.58041 0.51133 0.67082
 C1409 C 0.60590 0.51882 0.66890
 N1410 N 0.61653 0.52101 0.64536
 N1411 N 0.61344 0.51796 0.60038
 C1412 C 0.59950 0.51358 0.57886
 C1413 C 0.57365 0.50742 0.58094
 N1414 N 0.56325 0.50530 0.60455
 H1415 H 0.57136 0.50969 0.68924
 H1416 H 0.60829 0.51571 0.56038
 C1417 C 0.39734 -0.01131 0.62377
 C1418 C 0.42232 -0.00250 0.62617
 N1419 N 0.43304 0.00007 0.64957
 C1420 C 0.41994 -0.00590 0.67083
 C1421 C 0.39511 -0.01527 0.66859
 N1422 N 0.38432 -0.01777 0.64502
 N1423 N 0.38677 -0.01372 0.60018
 C1424 C 0.40026 -0.00816 0.57886
 C1425 C 0.42563 -0.00031 0.58128
 N1426 N 0.43586 0.00245 0.60498
 H1427 H 0.42901 -0.00389 0.68929
 H1428 H 0.39167 -0.01094 0.56026
 C1429 C -0.07826 0.49927 1.14789
 C1430 C -0.09141 0.49164 1.12574
 N1431 N -0.11362 0.47900 1.12795
 C1432 C -0.12313 0.47333 1.15126
 C1433 C -0.10980 0.48056 1.17353
 N1434 N -0.08777 0.49369 1.17117
 N1435 N -0.05567 0.51120 1.14577
 C1436 C -0.04535 0.51545 1.12250
 C1437 C -0.05821 0.50747 1.10024
 N1438 N -0.08114 0.49593 1.10244
 H1439 H -0.14093 0.46332 1.15237
 H1440 H -0.02701 0.52449 1.12139
 C1441 C -0.07323 0.49132 0.35698
 C1442 C -0.08214 0.50286 0.37961
 N1443 N -0.10298 0.51806 0.37891
 C1444 C -0.11514 0.52268 0.35657
 C1445 C -0.10623 0.51136 0.33352
 N1446 N -0.08560 0.49554 0.33467
 N1447 N -0.05172 0.47696 0.35749
 C1448 C -0.03860 0.47384 0.37959
 C1449 C -0.04756 0.48528 0.40232
 N1450 N -0.06929 0.49942 0.40178
 H1451 H -0.13201 0.53446 0.35722
 H1452 H -0.02126 0.46265 0.37944
 C1453 C 0.39875 1.00754 -0.12956
 C1454 C 0.41752 0.98854 -0.12977
 N1455 N 0.42299 0.97584 -0.15180
 C1456 C 0.41084 0.98151 -0.17386
 C1457 C 0.39292 1.00166 -0.17419
 N1458 N 0.38735 1.01395 -0.15173
 N1459 N 0.39297 1.01998 -0.10739
 C1460 C 0.40566 1.01467 -0.08549
 C1461 C 0.42555 0.99677 -0.08609
 N1462 N 0.43091 0.98400 -0.10823
 H1463 H 0.41665 0.97148 -0.19105
 H1464 H 0.40133 1.02540 -0.06820
 C1465 C 0.59749 0.49495 -0.13255
 C1466 C 0.57195 0.50248 -0.13463
 N1467 N 0.56148 0.50550 -0.15806
 C1468 C 0.57538 0.50121 -0.17957
 C1469 C 0.60078 0.49307 -0.17757
 N1470 N 0.61122 0.49013 -0.15402
 N1471 N 0.60809 0.49244 -0.10911
 C1472 C 0.59423 0.49690 -0.08760
 C1473 C 0.56844 0.50375 -0.08960
 N1474 N 0.55795 0.50638 -0.11318
 H1475 H 0.56655 0.50358 -0.19804
 H1476 H 0.60308 0.49441 -0.06915
 C1477 C 0.08950 -0.00611 0.36402
 C1478 C 0.06944 -0.02290 0.36812
 N1479 N 0.06342 -0.04039 0.34980
 C1480 C 0.07644 -0.04175 0.32741
 C1481 C 0.09605 -0.02448 0.32287
 N1482 N 0.10211 -0.00702 0.34140
 N1483 N 0.09591 0.01092 0.38269
 C1484 C 0.08300 0.01207 0.40520
 C1485 C 0.06235 -0.00416 0.40902
 N1486 N 0.05617 -0.02131 0.39029
 H1487 H 0.07111 -0.05571 0.31302
 H1488 H 0.08837 0.02595 0.41965
 C1489 C 0.12165 1.09984 1.02359
 C1490 C 0.12121 1.07832 1.00752
 N1491 N 0.14285 1.06989 0.99628
 C1492 C 0.16519 1.08186 1.00045
 C1493 C 0.16620 1.10309 1.01735
 N1494 N 0.14412 1.11143 1.02846
 N1495 N 0.09973 1.10832 1.03460
 C1496 C 0.07747 1.09583 1.03059
 C1497 C 0.07744 1.07357 1.01546
 N1498 N 0.09933 1.06547 1.00423
 H1499 H 0.18199 1.07362 0.99179
 H1500 H 0.06033 1.10246 1.04004
 C1501 C 0.64006 0.59422 0.51275
 C1502 C 0.64126 0.56858 0.50506
 N1503 N 0.66411 0.55680 0.50259
 C1504 C 0.68595 0.56949 0.50747
 C1505 C 0.68494 0.59507 0.51552
 N1506 N 0.66191 0.60687 0.51807
 N1507 N 0.61706 0.60596 0.51477
 C1508 C 0.59520 0.59316 0.50964
 C1509 C 0.59640 0.56730 0.50250
 N1510 N 0.61952 0.55575 0.50041
 H1511 H 0.70395 0.55959 0.50547
 H1512 H 0.57712 0.60287 0.51174
 C1513 C 0.63557 0.41907 -0.01665
 C1514 C 0.63625 0.43824 0.00225
 N1515 N 0.65844 0.44341 0.01435
 C1516 C 0.68007 0.43034 0.00837
 C1517 C 0.67979 0.41170 -0.01138
 N1518 N 0.65730 0.40673 -0.02334
 N1519 N 0.61323 0.41324 -0.02818
 C1520 C 0.59155 0.42605 -0.02193
 C1521 C 0.59245 0.44608 -0.00391
 N1522 N 0.61484 0.45176 0.00777
 H1523 H 0.69742 0.43558 0.01809
 H1524 H 0.57405 0.42150 -0.03182
 C1525 C 0.13379 -0.08888 0.49520
 C1526 C 0.13072 -0.06695 0.48070
 N1527 N 0.14865 -0.06078 0.46338
 C1528 C 0.16958 -0.07563 0.45983
 C1529 C 0.17281 -0.09743 0.47445
 N1530 N 0.15488 -0.10355 0.49192
 N1531 N 0.11535 -0.09544 0.51187
 C1532 C 0.09388 -0.08109 0.51459
 C1533 C 0.09089 -0.05903 0.50019
 N1534 N 0.10952 -0.05252 0.48366
 H1535 H 0.18361 -0.07046 0.44582
 H1536 H 0.07935 -0.08683 0.52782
 C1537 C 0.36720 -0.09528 0.50765
 C1538 C 0.36518 -0.07370 0.49250
 N1539 N 0.34225 -0.06678 0.48309
 C1540 C 0.32113 -0.08038 0.48814
 C1541 C 0.32275 -0.10171 0.50409
 N1542 N 0.34599 -0.10841 0.51347
 N1543 N 0.39030 -0.10257 0.51653
 C1544 C 0.41143 -0.08898 0.51125
 C1545 C 0.40922 -0.06670 0.49703
 N1546 N 0.38607 -0.05962 0.48797
 H1547 H 0.30319 -0.07352 0.48085
 H1548 H 0.42956 -0.09484 0.51905
 C1549 C -0.14300 0.42338 1.00936
 C1550 C -0.12063 0.41058 1.01640
 N1551 N -0.12208 0.38646 1.02492
 C1552 C -0.14490 0.37470 1.02696
 C1553 C -0.16732 0.38765 1.02009
 N1554 N -0.16562 0.41164 1.01127
 N1555 N -0.14190 0.44763 1.00143
 C1556 C -0.11943 0.45989 1.00049
 C1557 C -0.09694 0.44733 1.00772
 N1558 N -0.09800 0.42278 1.01530
 H1559 H -0.14550 0.35546 1.03375
 H1560 H -0.11916 0.47934 0.99424
 C1561 C -0.11982 0.57563 0.47608
 C1562 C -0.12096 0.55470 0.49216
 N1563 N -0.14319 0.54900 0.50358
 C1564 C -0.16439 0.56332 0.49985
 C1565 C -0.16364 0.58421 0.48331
 N1566 N -0.14116 0.58953 0.47169
 N1567 N -0.09730 0.58192 0.46541
 C1568 C -0.07590 0.56810 0.47002
 C1569 C -0.07721 0.54669 0.48552
 N1570 N -0.09980 0.54044 0.49616
 H1571 H -0.18179 0.55752 0.50887
 H1572 H -0.05818 0.57336 0.46117
 C1573 C 0.36768 1.09174 -0.01142
 C1574 C 0.36822 1.07258 0.00675
 N1575 N 0.34679 1.06700 0.01966
 C1576 C 0.32467 1.07952 0.01511
 C1577 C 0.32354 1.09811 -0.00402
 N1578 N 0.34538 1.10364 -0.01672
 N1579 N 0.38933 1.09764 -0.02398
 C1580 C 0.41138 1.08480 -0.01951
 C1581 C 0.41154 1.06467 -0.00232
 N1582 N 0.38990 1.05912 0.01047
 H1583 H 0.30798 1.07359 0.02528
 H1584 H 0.42823 1.08934 -0.03026
 C1585 C -0.00259 1.14567 1.08930
 C1586 C 0.01089 1.12442 1.09785
 N1587 N 0.02924 1.12754 1.11577
 C1588 C 0.03526 1.15100 1.12510
 C1589 C 0.02234 1.17272 1.11601
 N1590 N 0.00330 1.16905 1.09865
 N1591 N -0.02022 1.14281 1.07058
 C1592 C -0.02458 1.11968 1.05962
 C1593 C -0.01080 1.09841 1.06783
 N1594 N 0.00650 1.10126 1.08698
 H1595 H 0.04972 1.15226 1.13967
 H1596 H -0.03810 1.11801 1.04411
 C1597 C 0.51634 0.63508 0.59249
 C1598 C 0.50909 0.63681 0.56678
 N1599 N 0.50390 0.65981 0.55681
 C1600 C 0.50563 0.68127 0.57137
 C1601 C 0.51324 0.67976 0.59701
 N1602 N 0.51856 0.65662 0.60700
 N1603 N 0.52096 0.61187 0.60245
 C1604 C 0.51877 0.59035 0.58782
 C1605 C 0.51203 0.59217 0.56193
 N1606 N 0.50739 0.61546 0.55214
 H1607 H 0.50154 0.69943 0.56289
 H1608 H 0.52274 0.57211 0.59616
 C1609 C -0.00550 0.61602 0.40686
 C1610 C 0.00187 0.61716 0.43258
 N1611 N 0.00375 0.63998 0.44476
 C1612 C -0.00149 0.66184 0.43243
 C1613 C -0.00939 0.66090 0.40679
 N1614 N -0.01126 0.63788 0.39458
 N1615 N -0.00696 0.59303 0.39473
 C1616 C -0.00164 0.57116 0.40725
 C1617 C 0.00501 0.57228 0.43325
 N1618 N 0.00661 0.59539 0.44516
 H1619 H -0.00004 0.67977 0.44271
 H1620 H -0.00341 0.55310 0.39726
 C1621 C 0.48627 1.12518 -0.09443
 C1622 C 0.50139 1.12464 -0.07245
 N1623 N 0.51128 1.14643 -0.06288
 C1624 C 0.50667 1.16897 -0.07413
 C1625 C 0.49070 1.17006 -0.09585
 N1626 N 0.48095 1.14782 -0.10533
 N1627 N 0.47655 1.10315 -0.10401
 C1628 C 0.48088 1.08068 -0.09222
 C1629 C 0.49499 1.08042 -0.06944
 N1630 N 0.50499 1.10249 -0.06027
 H1631 H 0.51427 1.18580 -0.06501
 H1632 H 0.47229 1.06352 -0.09974
 C1633 C 0.51631 0.37301 -0.08508
 C1634 C 0.49842 0.37486 -0.06537
 N1635 N 0.48584 0.35381 -0.05820
 C1636 C 0.49051 0.33086 -0.06965
 C1637 C 0.50945 0.32856 -0.08867
 N1638 N 0.52171 0.35000 -0.09580
 N1639 N 0.52841 0.39414 -0.09283
 C1640 C 0.52372 0.41705 -0.08140
 C1641 C 0.50677 0.41873 -0.06078
 N1642 N 0.49445 0.39753 -0.05324
 H1643 H 0.48054 0.31455 -0.06270
 H1644 H 0.53402 0.43356 -0.08752
 C1645 C 0.01221 -0.13743 0.41438
 C1646 C 0.00497 -0.13748 0.44013
 N1647 N 0.00188 -0.15993 0.45199
 C1648 C 0.00595 -0.18237 0.43932
 C1649 C 0.01401 -0.18235 0.41377
 N1650 N 0.01689 -0.15978 0.40192
 N1651 N 0.01483 -0.11503 0.40236
 C1652 C 0.01080 -0.09260 0.41500
 C1653 C 0.00437 -0.09252 0.44104
 N1654 N 0.00157 -0.11508 0.45296
 H1655 H 0.00366 -0.20000 0.44928
 H1656 H 0.01339 -0.07502 0.40502
 C1657 C 0.47765 -0.12687 0.58983
 C1658 C 0.48638 -0.12920 0.56460
 N1659 N 0.48865 -0.15246 0.55334
 C1660 C 0.48251 -0.17364 0.56619
 C1661 C 0.47331 -0.17140 0.59126
 N1662 N 0.47110 -0.14802 0.60258
 N1663 N 0.47573 -0.10350 0.60106
 C1664 C 0.48179 -0.08229 0.58803
 C1665 C 0.48976 -0.08460 0.56248
 N1666 N 0.49192 -0.10810 0.55152
 H1667 H 0.48453 -0.19205 0.55689
 H1668 H 0.47950 -0.06384 0.59720
 C1669 C -0.01113 0.37531 1.09396
 C1670 C 0.00409 0.37511 1.07204
 N1671 N 0.01518 0.35311 1.06396
 C1672 C 0.01167 0.33117 1.07666
 C1673 C -0.00451 0.33087 1.09818
 N1674 N -0.01547 0.35323 1.10612
 N1675 N -0.02164 0.39751 1.10247
 C1676 C -0.01793 0.41945 1.08976
 C1677 C -0.00372 0.41902 1.06709
 N1678 N 0.00698 0.39677 1.05879
 H1679 H 0.02031 0.31404 1.06891
 H1680 H -0.02698 0.43681 1.09658
 C1681 C 0.78219 0.32564 0.11086
 C1682 C 0.76122 0.30945 0.11165
 N1683 N 0.74551 0.30765 0.09122
 C1684 C 0.74967 0.32143 0.06999
 C1685 C 0.77094 0.33761 0.06886
 N1686 N 0.78666 0.33896 0.08954
 N1687 N 0.79768 0.32793 0.13147
 C1688 C 0.79317 0.31457 0.15287
 C1689 C 0.77252 0.29796 0.15345
 N1690 N 0.75700 0.29569 0.13281
 H1691 H 0.73697 0.31873 0.05400
 H1692 H 0.80582 0.31650 0.16909
 C1693 C 0.25509 0.83980 0.60530
 C1694 C 0.27250 0.82061 0.61158
 N1695 N 0.29210 0.81505 0.59557
 C1696 C 0.29492 0.82766 0.57336
 C1697 C 0.27702 0.84629 0.56663
 N1698 N 0.25753 0.85192 0.58287
 N1699 N 0.23586 0.84580 0.62159
 C1700 C 0.23309 0.83330 0.64385
 C1701 C 0.24999 0.81351 0.64981
 N1702 N 0.26937 0.80770 0.63348
 H1703 H 0.31052 0.82271 0.56074
 H1704 H 0.21747 0.83831 0.65642
 C1705 C 0.72592 0.67706 0.60555
 C1706 C 0.74653 0.67112 0.62149
 N1707 N 0.76307 0.65247 0.61423
 C1708 C 0.76000 0.63957 0.59172
 C1709 C 0.73925 0.64533 0.57586
 N1710 N 0.72263 0.66393 0.58330
 N1711 N 0.70980 0.69619 0.61235
 C1712 C 0.71333 0.70972 0.63435
 C1713 C 0.73378 0.70371 0.65054
 N1714 N 0.74986 0.68437 0.64373
 H1715 H 0.77349 0.62482 0.58632
 H1716 H 0.70007 0.72482 0.63932
 C1717 C 0.24039 0.15813 0.11828
 C1718 C 0.22421 0.17858 0.12455
 N1719 N 0.20511 0.18496 0.10844
 C1720 C 0.20151 0.17189 0.08617
 C1721 C 0.21806 0.15183 0.07947
 N1722 N 0.23717 0.14542 0.09576
 N1723 N 0.25914 0.15146 0.13476
 C1724 C 0.26257 0.16449 0.15716
 C1725 C 0.24686 0.18547 0.16307
 N1726 N 0.22801 0.19188 0.14655
 H1727 H 0.18628 0.17748 0.07352
 H1728 H 0.27777 0.15896 0.16987
 C1729 C 0.27929 0.16839 0.89893
 C1730 C 0.25965 0.15906 0.88323
 N1731 N 0.24576 0.13907 0.89105
 C1732 C 0.25039 0.12825 0.91398
 C1733 C 0.26992 0.13771 0.92975
 N1734 N 0.28403 0.15748 0.92169
 N1735 N 0.29262 0.18888 0.89169
 C1736 C 0.28710 0.20069 0.86957
 C1737 C 0.26737 0.19158 0.85379
 N1738 N 0.25424 0.17071 0.86089
 H1739 H 0.23876 0.11264 0.92003
 H1740 H 0.29813 0.21703 0.86431
 C1741 C 0.77191 0.67556 0.40273
 C1742 C 0.77755 0.66297 0.37958
 N1743 N 0.78825 0.63945 0.37986
 C1744 C 0.79343 0.62784 0.40227
 C1745 C 0.78731 0.64016 0.42552
 N1746 N 0.77661 0.66378 0.42508
 N1747 N 0.76194 0.69939 0.40250
 C1748 C 0.75741 0.71128 0.38012
 C1749 C 0.76265 0.69859 0.35687
 N1750 N 0.77261 0.67466 0.35721
 H1751 H 0.80156 0.60892 0.40191
 H1752 H 0.74974 0.73039 0.38045
 C1753 C 0.22449 0.84076 0.37483
 C1754 C 0.22872 0.81445 0.37547
 N1755 N 0.23005 0.80266 0.39822
 C1756 C 0.22731 0.81603 0.42045
 C1757 C 0.22262 0.84228 0.41989
 N1758 N 0.22128 0.85406 0.39703
 N1759 N 0.22378 0.85255 0.35203
 C1760 C 0.22696 0.83918 0.32979
 C1761 C 0.23060 0.81273 0.33040
 N1762 N 0.23138 0.80107 0.35332
 H1763 H 0.22846 0.80625 0.43840
 H1764 H 0.22603 0.84898 0.31186
 C1765 C 0.74047 0.32885 0.89563
 C1766 C 0.73144 0.34133 0.87396
 N1767 N 0.72054 0.36467 0.87665
 C1768 C 0.71818 0.37604 0.90008
 C1769 C 0.72729 0.36355 0.92179
 N1770 N 0.73833 0.34027 0.91886
 N1771 N 0.75065 0.30524 0.89325
 C1772 C 0.75197 0.29332 0.87013
 C1773 C 0.74291 0.30566 0.84836
 N1774 N 0.73297 0.32952 0.85074
 H1775 H 0.70960 0.39473 0.90168
 H1776 H 0.75981 0.27429 0.86877
 C1777 C 0.84572 0.37573 0.23137
 C1778 C 0.81974 0.37643 0.23744
 N1779 N 0.80763 0.39911 0.24033
 C1780 C 0.82034 0.42118 0.23737
 C1781 C 0.84619 0.42052 0.23086
 N1782 N 0.85832 0.39776 0.22796
 N1783 N 0.85795 0.35304 0.22913
 C1784 C 0.84535 0.33097 0.23262
 C1785 C 0.81923 0.33160 0.23823
 N1786 N 0.80706 0.35440 0.24043
 H1787 H 0.81034 0.43909 0.23977
 H1788 H 0.85551 0.31312 0.23048
 C1789 C 0.31556 0.89470 0.73629
 C1790 C 0.32682 0.87297 0.72510
 N1791 N 0.34813 0.87538 0.71081
 C1792 C 0.35867 0.89854 0.70718
 C1793 C 0.34748 0.92034 0.71849
 N1794 N 0.32622 0.91770 0.73290
 N1795 N 0.29385 0.89256 0.74991
 C1796 C 0.28268 0.86966 0.75266
 C1797 C 0.29385 0.84785 0.74155
 N1798 N 0.31579 0.84997 0.72805
 H1799 H 0.37585 0.89983 0.69599
 H1800 H 0.26505 0.86849 0.76318
 C1801 C 0.14999 0.88589 0.25627
 C1802 C 0.17160 0.88689 0.24075
 N1803 N 0.17952 0.90964 0.23225
 C1804 C 0.16696 0.93151 0.23869
 C1805 C 0.14582 0.93085 0.25531
 N1806 N 0.13804 0.90776 0.26356
 N1807 N 0.14148 0.86310 0.26411
 C1808 C 0.15388 0.84125 0.25745
 C1809 C 0.17627 0.84226 0.24295
 N1810 N 0.18464 0.86516 0.23492
 H1811 H 0.17450 0.94919 0.23202
 H1812 H 0.14700 0.82336 0.26441
 C1813 C 0.65645 0.38926 0.76997
 C1814 C 0.68279 0.38868 0.76586
 N1815 N 0.69588 0.41072 0.76531
 C1816 C 0.68381 0.43342 0.76863
 C1817 C 0.65751 0.43408 0.77305
 N1818 N 0.64442 0.41192 0.77366
 N1819 N 0.64333 0.36719 0.76983
 C1820 C 0.65537 0.34451 0.76586
 C1821 C 0.68183 0.34385 0.76217
 N1822 N 0.69484 0.36607 0.76232
 H1823 H 0.69459 0.45079 0.76791
 H1824 H 0.64448 0.32719 0.76608
 C1825 C 0.66946 0.61693 0.74123
 C1826 C 0.68717 0.62357 0.72258
 N1827 N 0.69135 0.60774 0.70227
 C1828 C 0.67857 0.58552 0.69973
 C1829 C 0.66103 0.57865 0.71853
 N1830 N 0.65701 0.59457 0.73893
 N1831 N 0.66469 0.63317 0.76109
 C1832 C 0.67679 0.65583 0.76312
 C1833 C 0.69477 0.66239 0.74463
 N1834 N 0.69954 0.64597 0.72481
 H1835 H 0.68228 0.57319 0.68340
 H1836 H 0.67252 0.66850 0.77905
 C1837 C 0.17831 0.11102 0.25663
 C1838 C 0.16568 0.13457 0.25618
 N1839 N 0.14023 0.13538 0.25206
 C1840 C 0.12688 0.11371 0.24789
 C1841 C 0.13955 0.09011 0.24786
 N1842 N 0.16498 0.08939 0.25254
 N1843 N 0.20391 0.11023 0.25960
 C1844 C 0.21756 0.13195 0.26170
 C1845 C 0.20505 0.15560 0.26084
 N1846 N 0.17929 0.15627 0.25838
 H1847 H 0.10669 0.11487 0.24416
 H1848 H 0.23801 0.13077 0.26356
 C1849 C 0.32937 0.10280 0.75792
 C1850 C 0.34070 0.12213 0.77272
 N1851 N 0.36020 0.11626 0.78857
 C1852 C 0.36865 0.09190 0.79056
 C1853 C 0.35694 0.07240 0.77614
 N1854 N 0.33776 0.07857 0.75994
 N1855 N 0.30946 0.10836 0.74255
 C1856 C 0.30000 0.13234 0.74166
 C1857 C 0.31093 0.15165 0.75675
 N1858 N 0.33121 0.14617 0.77189
 H1859 H 0.38440 0.08792 0.80317
 H1860 H 0.28360 0.13620 0.72981
 C1861 C 0.84076 0.61134 0.27667
 C1862 C 0.81463 0.61057 0.27131
 N1863 N 0.80275 0.58786 0.26941
 C1864 C 0.81586 0.56584 0.27266
 C1865 C 0.84188 0.56664 0.27847
 N1866 N 0.85373 0.58941 0.28037
 N1867 N 0.85280 0.63397 0.27788
 C1868 C 0.83987 0.65596 0.27403
 C1869 C 0.81361 0.65531 0.26912
 N1870 N 0.80160 0.63256 0.26795
 H1871 H 0.80608 0.54789 0.27101
 H1872 H 0.84989 0.67379 0.27532
 C1873 C 0.89881 0.25597 0.15666
 C1874 C 0.89163 0.27297 0.17632
 N1875 N 0.90624 0.29353 0.18160
 C1876 C 0.92789 0.29775 0.16823
 C1877 C 0.93555 0.28034 0.14906
 N1878 N 0.92072 0.25983 0.14376
 N1879 N 0.88383 0.23581 0.15089
 C1880 C 0.86200 0.23178 0.16399
 C1881 C 0.85512 0.24835 0.18418
 N1882 N 0.87016 0.26862 0.18981
 H1883 H 0.93939 0.31409 0.17302
 H1884 H 0.85039 0.21556 0.15903
 C1885 C 0.38405 0.76369 0.67135
 C1886 C 0.36239 0.76971 0.65692
 N1887 N 0.36523 0.77863 0.63297
 C1888 C 0.38874 0.78195 0.62287
 C1889 C 0.41046 0.77587 0.63728
 N1890 N 0.40747 0.76670 0.66117
 N1891 N 0.38137 0.75560 0.69558
 C1892 C 0.35800 0.75342 0.70617
 C1893 C 0.33622 0.75936 0.69183
 N1894 N 0.33894 0.76723 0.66738
 H1895 H 0.39047 0.78909 0.60374
 H1896 H 0.35642 0.74712 0.72564
 C1897 C 0.39130 0.24206 0.84455
 C1898 C 0.38662 0.22500 0.82425
 N1899 N 0.40361 0.20615 0.81893
 C1900 C 0.42515 0.20356 0.83301
 C1901 C 0.43012 0.22080 0.85316
 N1902 N 0.41302 0.23976 0.85836
 N1903 N 0.37387 0.26042 0.85033
 C1904 C 0.35192 0.26246 0.83673
 C1905 C 0.34736 0.24561 0.81615
 N1906 N 0.36495 0.22730 0.81044
 H1907 H 0.43846 0.18845 0.82827
 H1908 H 0.33827 0.27715 0.84184
 C1909 C 0.89284 0.73773 0.34627
 C1910 C 0.88609 0.72016 0.32707
 N1911 N 0.90083 0.69927 0.32281
 C1912 C 0.92220 0.69519 0.33679
 C1913 C 0.92944 0.71305 0.35562
 N1914 N 0.91449 0.73396 0.35986
 N1915 N 0.87764 0.75824 0.35099
 C1916 C 0.85597 0.76201 0.33730
 C1917 C 0.84949 0.74476 0.31764
 N1918 N 0.86480 0.72421 0.31308
 H1919 H 0.93381 0.67856 0.33275
 H1920 H 0.84410 0.77843 0.34151
 C1921 C 0.09595 0.75844 0.32041
 C1922 C 0.11916 0.76383 0.33247
 N1923 N 0.11938 0.77128 0.35740
 C1924 C 0.09741 0.77356 0.37086
 C1925 C 0.07418 0.76774 0.35898
 N1926 N 0.07405 0.76022 0.33398
 N1927 N 0.09567 0.75181 0.29526
 C1928 C 0.11759 0.75030 0.28159
 C1929 C 0.14091 0.75522 0.29373
 N1930 N 0.14106 0.76185 0.31897
 H1931 H 0.09806 0.77949 0.39074
 H1932 H 0.11684 0.74501 0.26155
 C1933 C 0.60167 0.25606 0.83715
 C1934 C 0.62294 0.26841 0.84756
 N1935 N 0.62003 0.28374 0.86848
 C1936 C 0.59678 0.28744 0.87934
 C1937 C 0.57540 0.27520 0.86882
 N1938 N 0.57859 0.25964 0.84805
 N1939 N 0.60423 0.24134 0.81583
 C1940 C 0.62709 0.23867 0.80414
 C1941 C 0.64841 0.25113 0.81430
 N1942 N 0.64590 0.26565 0.83594
 H1943 H 0.59510 0.29958 0.89614
 H1944 H 0.62855 0.22731 0.78677
 C1945 C 0.60157 0.73087 0.67450
 C1946 C 0.61404 0.75319 0.66752
 N1947 N 0.60318 0.76847 0.64995
 C1948 C 0.58041 0.76252 0.63917
 C1949 C 0.56803 0.74008 0.64602
 N1950 N 0.57907 0.72474 0.66347
 N1951 N 0.61188 0.71593 0.69258
 C1952 C 0.63406 0.72228 0.70414
 C1953 C 0.64679 0.74449 0.69715
 N1954 N 0.63654 0.75939 0.67877
 H1955 H 0.57211 0.77504 0.62525
 H1956 H 0.64187 0.70988 0.71845
 C1957 C 0.11451 0.22708 0.18382
 C1958 C 0.13097 0.24495 0.17334
 N1959 N 0.12390 0.25734 0.15196
 C1960 C 0.10112 0.25268 0.14059
 C1961 C 0.08482 0.23449 0.15083
 N1962 N 0.09201 0.22210 0.17222
 N1963 N 0.12117 0.21514 0.20552
 C1964 C 0.14362 0.22016 0.21727
 C1965 C 0.16042 0.23770 0.20665
 N1966 N 0.15367 0.24964 0.18479
 H1967 H 0.09589 0.26281 0.12357
 H1968 H 0.14852 0.21011 0.23444
 C1969 C -0.08622 1.00043 0.86495
 C1970 C -0.09524 1.01467 0.88596
 N1971 N -0.11432 1.03168 0.88262
 C1972 C -0.12436 1.03571 0.85914
 C1973 C -0.11488 1.02210 0.83758
 N1974 N -0.09635 1.00427 0.84145
 N1975 N -0.06651 0.98402 0.86814
 C1976 C -0.05511 0.98159 0.89130
 C1977 C -0.06385 0.99617 0.91234
 N1978 N -0.08399 1.01217 0.90912
 H1979 H -0.13990 1.04910 0.85770
 H1980 H -0.03910 0.96874 0.89317
 C1981 C 0.41263 0.52491 0.36114
 C1982 C 0.43612 0.51234 0.35850
 N1983 N 0.44476 0.50597 0.33484
 C1984 C 0.43096 0.51156 0.31369
 C1985 C 0.40751 0.52437 0.31623
 N1986 N 0.39898 0.53080 0.34002
 N1987 N 0.40381 0.53098 0.38478
 C1988 C 0.41748 0.52523 0.40595
 C1989 C 0.44130 0.51306 0.40344
 N1990 N 0.44999 0.50690 0.37962
 H1991 H 0.43837 0.50633 0.29506
 H1992 H 0.41000 0.53061 0.42451
 C1993 C 0.59420 -0.01618 0.36816
 C1994 C 0.57451 0.00181 0.36677
 N1995 N 0.56939 0.01296 0.34426
 C1996 C 0.58298 0.00693 0.32297
 C1997 C 0.60239 -0.01180 0.32393
 N1998 N 0.60728 -0.02285 0.34676
 N1999 N 0.59969 -0.02698 0.39080
 C2000 C 0.58607 -0.02087 0.41208
 C2001 C 0.56558 -0.00365 0.41049
 N2002 N 0.56036 0.00734 0.38778
 H2003 H 0.57746 0.01575 0.30536
 H2004 H 0.59053 -0.03018 0.42978
 C2005 C 0.07154 0.49620 0.85822
 C2006 C 0.08270 0.48742 0.88073
 N2007 N 0.10493 0.47423 0.87944
 C2008 C 0.11648 0.46928 0.85664
 C2009 C 0.10535 0.47795 0.83391
 N2010 N 0.08312 0.49140 0.83546
 N2011 N 0.04910 0.50905 0.85946
 C2012 C 0.03718 0.51335 0.88217
 C2013 C 0.04823 0.50450 0.90484
 N2014 N 0.07089 0.49180 0.90345
 H2015 H 0.13437 0.45906 0.85640
 H2016 H 0.01919 0.52342 0.88249
 C2017 C 0.09576 0.50558 0.63375
 C2018 C 0.07109 0.49572 0.63468
 N2019 N 0.05941 0.49356 0.65759
 C2020 C 0.07129 0.50070 0.67962
 C2021 C 0.09596 0.51077 0.67879
 N2022 N 0.10756 0.51300 0.65572
 N2023 N 0.10758 0.50742 0.61090
 C2024 C 0.09581 0.50011 0.58888
 C2025 C 0.07084 0.49068 0.58958
 N2026 N 0.05914 0.48871 0.61265
 H2027 H 0.06154 0.49868 0.69762
 H2028 H 0.10571 0.50218 0.57098
 C2029 C 0.59758 1.00414 0.12543
 C2030 C 0.57329 0.99372 0.12805
 N2031 N 0.56418 0.98888 0.15161
 C2032 C 0.57819 0.99415 0.17277
 C2033 C 0.60230 1.00515 0.17029
 N2034 N 0.61143 1.00986 0.14658
 N2035 N 0.60666 1.00892 0.10181
 C2036 C 0.59235 1.00418 0.08067
 C2037 C 0.56762 0.99462 0.08332
 N2038 N 0.55883 0.98947 0.10704
 H2039 H 0.57027 0.99048 0.19136
 H2040 H 0.59988 1.00868 0.06212
 C2041 C 0.41813 0.50921 0.13829
 C2042 C 0.40943 0.49687 0.11608
 N2043 N 0.38967 0.48055 0.11761
 C2044 C 0.37836 0.47583 0.14040
 C2045 C 0.38730 0.48791 0.16287
 N2046 N 0.40693 0.50448 0.16095
 N2047 N 0.43806 0.52526 0.13702
 C2048 C 0.45006 0.52923 0.11455
 C2049 C 0.44182 0.51652 0.09222
 N2050 N 0.42145 0.50075 0.09354
 H2051 H 0.36246 0.46301 0.14078
 H2052 H 0.46621 0.54179 0.11424
 C2053 C -0.08902 -0.01145 0.63571
 C2054 C -0.06932 0.00629 0.63652
 N2055 N -0.06281 0.01718 0.65921
 C2056 C -0.07511 0.01128 0.68111
 C2057 C -0.09473 -0.00698 0.68064
 N2058 N -0.10087 -0.01792 0.65765
 N2059 N -0.09605 -0.02192 0.61298
 C2060 C -0.08407 -0.01570 0.59103
 C2061 C -0.06364 0.00142 0.59177
 N2062 N -0.05677 0.01202 0.61468
 H2063 H -0.06865 0.02003 0.69873
 H2064 H -0.08989 -0.02479 0.57331
 C2065 C -0.13541 0.90914 1.02623
 C2066 C -0.13703 0.92770 1.00746
 N2067 N -0.15951 0.93188 0.99560
 C2068 C -0.18046 0.91830 1.00151
 C2069 C -0.17916 0.89980 1.02074
 N2070 N -0.15644 0.89602 1.03266
 N2071 N -0.11283 0.90448 1.03773
 C2072 C -0.09179 0.91773 1.03147
 C2073 C -0.09348 0.93694 1.01322
 N2074 N -0.11619 0.94147 1.00164
 H2075 H -0.19805 0.92296 0.99201
 H2076 H -0.07413 0.91383 1.04128
 C2077 C 0.36927 0.42069 0.50740
 C2078 C 0.39204 0.41272 0.51871
 N2079 N 0.39165 0.39363 0.53577
 C2080 C 0.36947 0.38221 0.54211
 C2081 C 0.34655 0.39019 0.53081
 N2082 N 0.34723 0.40923 0.51360
 N2083 N 0.36943 0.44012 0.49079
 C2084 C 0.39136 0.45221 0.48517
 C2085 C 0.41427 0.44445 0.49656
 N2086 N 0.41403 0.42470 0.51301
 H2087 H 0.36985 0.36686 0.55551
 H2088 H 0.39085 0.46790 0.47215
 C2089 C 0.36948 0.59944 -0.02429
 C2090 C 0.36821 0.57514 -0.01384
 N2091 N 0.34545 0.56349 -0.01198
 C2092 C 0.32382 0.57510 -0.01997
 C2093 C 0.32497 0.59940 -0.03053
 N2094 N 0.34788 0.61102 -0.03249
 N2095 N 0.39230 0.61108 -0.02595
 C2096 C 0.41395 0.59938 -0.01799
 C2097 C 0.41282 0.57476 -0.00805
 N2098 N 0.38982 0.56335 -0.00617
 H2099 H 0.30585 0.56548 -0.01810
 H2100 H 0.43191 0.60897 -0.02004
 C2101 C -0.13622 0.09041 0.48046
 C2102 C -0.13705 0.06988 0.49706
 N2103 N -0.15957 0.06314 0.50729
 C2104 C -0.18129 0.07612 0.50190
 C2105 C -0.18066 0.09680 0.48505
 N2106 N -0.15789 0.10305 0.47467
 N2107 N -0.11372 0.09759 0.47056
 C2108 C -0.09194 0.08504 0.47638
 C2109 C -0.09268 0.06402 0.49257
 N2110 N -0.11536 0.05691 0.50251
 H2111 H -0.19881 0.06954 0.51007
 H2112 H -0.07432 0.09108 0.46788
 C2113 C 0.62444 0.09771 0.51168
 C2114 C 0.62693 0.07219 0.50390
 N2115 N 0.65034 0.06149 0.50177
 C2116 C 0.67149 0.07522 0.50695
 C2117 C 0.66913 0.10080 0.51480
 N2118 N 0.64556 0.11141 0.51708
 N2119 N 0.60097 0.10838 0.51366
 C2120 C 0.57981 0.09458 0.50844
 C2121 C 0.58223 0.06884 0.50109
 N2122 N 0.60586 0.05837 0.49896
 H2123 H 0.68995 0.06620 0.50514
 H2124 H 0.56132 0.10349 0.51054
 C2125 C 0.12890 0.59594 1.00699
 C2126 C 0.12895 0.57416 0.99119
 N2127 N 0.15103 0.56592 0.98061
 C2128 C 0.17307 0.57855 0.98485
 C2129 C 0.17334 0.60044 1.00096
 N2130 N 0.15100 0.60826 1.01181
 N2131 N 0.10672 0.60454 1.01716
 C2132 C 0.08461 0.59217 1.01247
 C2133 C 0.08466 0.56981 0.99728
 N2134 N 0.10698 0.56136 0.98700
 H2135 H 0.19024 0.57073 0.97651
 H2136 H 0.06733 0.59929 1.02127
 C2137 C 0.14968 0.39490 0.48603
 C2138 C 0.14955 0.41918 0.49750
 N2139 N 0.17183 0.43005 0.50444
 C2140 C 0.19429 0.41769 0.50055
 C2141 C 0.19458 0.39336 0.48899
 N2142 N 0.17214 0.38260 0.48189
 N2143 N 0.12732 0.38399 0.47933
 C2144 C 0.10484 0.39632 0.48340
 C2145 C 0.10464 0.42087 0.49451
 N2146 N 0.12716 0.43163 0.50130
 H2147 H 0.21177 0.42686 0.50624
 H2148 H 0.08737 0.38722 0.47755
 C2149 C 0.62706 0.89583 -0.01318
 C2150 C 0.62896 0.92095 -0.00406
 N2151 N 0.65211 0.93090 0.00101
 C2152 C 0.67356 0.91682 -0.00250
 C2153 C 0.67188 0.89164 -0.01170
 N2154 N 0.64855 0.88175 -0.01697
 N2155 N 0.60374 0.88598 -0.01801
 C2156 C 0.58226 0.90017 -0.01431
 C2157 C 0.58419 0.92550 -0.00556
 N2158 N 0.60763 0.93515 -0.00065
 H2159 H 0.69180 0.92531 0.00160
 H2160 H 0.56397 0.89190 -0.01862
 C2161 C 0.01749 0.86997 0.91731
 C2162 C -0.00112 0.86946 0.93641
 N2163 N -0.01464 0.84803 0.93969
 C2164 C -0.01065 0.82712 0.92459
 C2165 C 0.00805 0.82743 0.90517
 N2166 N 0.02177 0.84904 0.90248
 N2167 N 0.03070 0.89152 0.91355
 C2168 C 0.02602 0.91270 0.92796
 C2169 C 0.00744 0.91228 0.94722
 N2170 N -0.00562 0.89052 0.95111
 H2171 H -0.02146 0.81037 0.92866
 H2172 H 0.03682 0.92967 0.92448
 C2173 C 0.52573 0.37233 0.39867
 C2174 C 0.51554 0.37063 0.42332
 N2175 N 0.51277 0.34755 0.43391
 C2176 C 0.51965 0.32603 0.42095
 C2177 C 0.53005 0.32757 0.39633
 N2178 N 0.53291 0.35080 0.38576
 N2179 N 0.52821 0.39548 0.38808
 C2180 C 0.52127 0.41703 0.40111
 C2181 C 0.51158 0.41544 0.42607
 N2182 N 0.50894 0.39212 0.43646
 H2183 H 0.51716 0.30784 0.42982
 H2184 H 0.52391 0.43521 0.39228
 C2185 C -0.00155 0.34573 0.58148
 C2186 C -0.01684 0.36713 0.58622
 N2187 N -0.03659 0.36547 0.60268
 C2188 C -0.04190 0.34337 0.61458
 C2189 C -0.02649 0.32158 0.61013
 N2190 N -0.00654 0.32377 0.59363
 N2191 N 0.01777 0.34706 0.56443
 C2192 C 0.02238 0.36885 0.55175
 C2193 C 0.00722 0.39051 0.55657
 N2194 N -0.01204 0.38907 0.57386
 H2195 H -0.05749 0.34346 0.62791
 H2196 H 0.03772 0.36927 0.53805
 C2197 C 0.48112 0.86766 0.09632
 C2198 C 0.49395 0.86405 0.07304
 N2199 N 0.50046 0.84020 0.06516
 C2200 C 0.49460 0.81979 0.07945
 C2201 C 0.48119 0.82330 0.10245
 N2202 N 0.47477 0.84725 0.11033
 N2203 N 0.47504 0.89150 0.10445
 C2204 C 0.48089 0.91193 0.09023
 C2205 C 0.49301 0.90840 0.06646
 N2206 N 0.49930 0.88440 0.05850
 H2207 H 0.49988 0.80094 0.07270
 H2208 H 0.47536 0.93066 0.09709
 C2209 C 0.50409 0.65136 0.08731
 C2210 C 0.51507 0.62920 0.09697
 N2211 N 0.52793 0.63033 0.11943
 C2212 C 0.53047 0.65268 0.13262
 C2213 C 0.51959 0.67501 0.12292
 N2214 N 0.50652 0.67359 0.10049
 N2215 N 0.49157 0.65042 0.06468
 C2216 C 0.48970 0.62831 0.05107
 C2217 C 0.50081 0.60601 0.06055
 N2218 N 0.51314 0.60705 0.08344
 H2219 H 0.54063 0.65289 0.15057
 H2220 H 0.47976 0.62822 0.03298
 C2221 C -0.00035 0.14387 0.58386
 C2222 C 0.01415 0.12293 0.59143
 N2223 N 0.03120 0.12575 0.61065
 C2224 C 0.03471 0.14863 0.62253
 C2225 C 0.02028 0.17004 0.61505
 N2226 N 0.00284 0.16668 0.59593
 N2227 N -0.01688 0.14124 0.56408
 C2228 C -0.01939 0.11861 0.55139
 C2229 C -0.00492 0.09749 0.55898
 N2230 N 0.01144 0.10024 0.57901
 H2231 H 0.04808 0.14950 0.63814
 H2232 H -0.03248 0.11714 0.53549
 C2233 C 0.49230 0.13176 0.39994
 C2234 C 0.50442 0.13299 0.42379
 N2235 N 0.51346 0.15550 0.43269
 C2236 C 0.51072 0.17695 0.41892
 C2237 C 0.49796 0.17598 0.39531
 N2238 N 0.48907 0.15327 0.38641
 N2239 N 0.48348 0.10917 0.39096
 C2240 C 0.48595 0.08778 0.40488
 C2241 C 0.49735 0.08909 0.42918
 N2242 N 0.50641 0.11177 0.43794
 H2243 H 0.51768 0.19473 0.42674
 H2244 H 0.47839 0.07012 0.39738
 C2245 C -0.02868 0.63740 0.90894
 C2246 C -0.01084 0.63880 0.92882
 N2247 N 0.00072 0.66112 0.93412
 C2248 C -0.00442 0.68208 0.92029
 C2249 C -0.02239 0.68097 0.90013
 N2250 N -0.03427 0.65846 0.89537
 N2251 N -0.03992 0.61492 0.90332
 C2252 C -0.03420 0.59382 0.91676
 C2253 C -0.01666 0.59525 0.93708
 N2254 N -0.00546 0.61787 0.94263
 H2255 H 0.00476 0.69954 0.92598
 H2256 H -0.04369 0.57623 0.91195
 C2257 C 0.24712 0.67571 0.88118
 C2258 C 0.25926 0.66661 0.85904
 N2259 N 0.27664 0.64753 0.86075
 C2260 C 0.28247 0.63712 0.88365
 C2261 C 0.27031 0.64620 0.90597
 N2262 N 0.25284 0.66530 0.90393
 N2263 N 0.22998 0.69499 0.87965
 C2264 C 0.22461 0.70585 0.85694
 C2265 C 0.23687 0.69698 0.83464
 N2266 N 0.25387 0.67740 0.83630
 H2267 H 0.29602 0.62163 0.88422
 H2268 H 0.21115 0.72147 0.85638
 C2269 C 0.77624 0.15616 0.38253
 C2270 C 0.76679 0.18116 0.38267
 N2271 N 0.76188 0.19325 0.40521
 C2272 C 0.76565 0.18132 0.42766
 C2273 C 0.77477 0.15615 0.42757
 N2274 N 0.78003 0.14424 0.40493
 N2275 N 0.78085 0.14398 0.35999
 C2276 C 0.77652 0.15568 0.33752
 C2277 C 0.76712 0.18078 0.33756
 N2278 N 0.76253 0.19289 0.36026
 H2279 H 0.76126 0.19123 0.44540
 H2280 H 0.78057 0.14550 0.31985
 C2281 C 0.25527 0.33952 0.38947
 C2282 C 0.26627 0.31517 0.38956
 N2283 N 0.27078 0.30374 0.41211
 C2284 C 0.26482 0.31556 0.43460
 C2285 C 0.25351 0.33985 0.43463
 N2286 N 0.24900 0.35124 0.41193
 N2287 N 0.25082 0.35094 0.36690
 C2288 C 0.25641 0.33894 0.34438
 C2289 C 0.26669 0.31416 0.34433
 N2290 N 0.27150 0.30301 0.36709
 H2291 H 0.26858 0.30596 0.45230
 H2292 H 0.25207 0.34836 0.32672
 C2293 C 0.73320 0.83833 0.88927
 C2294 C 0.74307 0.81349 0.88838
 N2295 N 0.74557 0.80045 0.91034
 C2296 C 0.73870 0.81116 0.93315
 C2297 C 0.72849 0.83592 0.93403
 N2298 N 0.72604 0.84890 0.91197
 N2299 N 0.73097 0.85151 0.86743
 C2300 C 0.73768 0.84085 0.84461
 C2301 C 0.74681 0.81564 0.84341
 N2302 N 0.74944 0.80263 0.86551
 H2303 H 0.74111 0.80049 0.95044
 H2304 H 0.73517 0.85176 0.82749
 C2305 C 0.75811 0.81812 0.11233
 C2306 C 0.76951 0.82970 0.13369
 N2307 N 0.78330 0.85109 0.13075
 C2308 C 0.78630 0.86142 0.10736
 C2309 C 0.77492 0.84987 0.08581
 N2310 N 0.76097 0.82848 0.08903
 N2311 N 0.74449 0.79662 0.11518
 C2312 C 0.74190 0.78600 0.13846
 C2313 C 0.75338 0.79746 0.15997
 N2314 N 0.76686 0.81918 0.15698
 H2315 H 0.79699 0.87875 0.10581
 H2316 H 0.73111 0.76872 0.14009
 C2317 C 0.26248 0.31922 0.61574
 C2318 C 0.27239 0.32980 0.63833
 N2319 N 0.28832 0.34987 0.63715
 C2320 C 0.29496 0.35978 0.61434
 C2321 C 0.28522 0.34913 0.59155
 N2322 N 0.26901 0.32916 0.59299
 N2323 N 0.24702 0.29878 0.61686
 C2324 C 0.24130 0.28817 0.63958
 C2325 C 0.25144 0.29852 0.66230
 N2326 N 0.26664 0.31927 0.66102
 H2327 H 0.30743 0.37598 0.61410
 H2328 H 0.22933 0.27157 0.63985
 C2329 C 0.72070 0.16447 0.61343
 C2330 C 0.72928 0.18962 0.61264
 N2331 N 0.73174 0.20103 0.58980
 C2332 C 0.72627 0.18831 0.56769
 C2333 C 0.71776 0.16312 0.56850
 N2334 N 0.71510 0.15185 0.59142
 N2335 N 0.71870 0.15282 0.63612
 C2336 C 0.72469 0.16522 0.65819
 C2337 C 0.73294 0.19057 0.65762
 N2338 N 0.73505 0.20215 0.63473
 H2339 H 0.72884 0.19760 0.54965
 H2340 H 0.72261 0.15542 0.67602
 C2341 C 0.22714 0.65996 0.10152
 C2342 C 0.23590 0.68503 0.10074
 N2343 N 0.23875 0.69628 0.07786
 C2344 C 0.23340 0.68355 0.05572
 C2345 C 0.22453 0.65845 0.05641
 N2346 N 0.22158 0.64728 0.07942
 N2347 N 0.22459 0.64860 0.12436
 C2348 C 0.23007 0.66125 0.14650
 C2349 C 0.23834 0.68661 0.14592
 N2350 N 0.24112 0.69782 0.12288
 H2351 H 0.23613 0.69285 0.03770
 H2352 H 0.22742 0.65172 0.16440
 C2353 C 0.15495 0.61422 0.72499
 C2354 C 0.17878 0.61424 0.73709
 N2355 N 0.18898 0.59202 0.74497
 C2356 C 0.17634 0.56981 0.74158
 C2357 C 0.15231 0.56970 0.72970
 N2358 N 0.14232 0.59203 0.72151
 N2359 N 0.14462 0.63644 0.71731
 C2360 C 0.15699 0.65872 0.72113
 C2361 C 0.18096 0.65891 0.73319
 N2362 N 0.19126 0.63650 0.74083
 H2363 H 0.18500 0.55239 0.74805
 H2364 H 0.14820 0.67607 0.71464
 C2365 C 0.68607 0.09496 0.23709
 C2366 C 0.67583 0.11629 0.22507
 N2367 N 0.65464 0.11376 0.21049
 C2368 C 0.64327 0.09082 0.20730
 C2369 C 0.65350 0.06935 0.21933
 N2370 N 0.67466 0.07214 0.23407
 N2371 N 0.70740 0.09734 0.25144
 C2372 C 0.71911 0.12010 0.25420
 C2373 C 0.70897 0.14157 0.24215
 N2374 N 0.68741 0.13910 0.22792
 H2375 H 0.62617 0.08955 0.19590
 H2376 H 0.73618 0.12136 0.26565
 C2377 C 0.81920 0.10758 0.75326
 C2378 C 0.82921 0.12952 0.76492
 N2379 N 0.84937 0.12751 0.78091
 C2380 C 0.85978 0.10450 0.78611
 C2381 C 0.84955 0.08236 0.77487
 N2382 N 0.82963 0.08457 0.75839
 N2383 N 0.79859 0.10955 0.73783
 C2384 C 0.78721 0.13242 0.73389
 C2385 C 0.79688 0.15440 0.74595
 N2386 N 0.81788 0.15234 0.76100
 H2387 H 0.87591 0.10351 0.79889
 H2388 H 0.77047 0.13334 0.72192
 C2389 C 0.31857 0.60849 0.24860
 C2390 C 0.32794 0.63092 0.25970
 N2391 N 0.34940 0.63006 0.27409
 C2392 C 0.36189 0.60773 0.27795
 C2393 C 0.35254 0.58511 0.26684
 N2394 N 0.33106 0.58629 0.25235
 N2395 N 0.29707 0.60920 0.23434
 C2396 C 0.28434 0.63138 0.23077
 C2397 C 0.29355 0.65399 0.24194
 N2398 N 0.31529 0.65314 0.25611
 H2399 H 0.37917 0.60783 0.28912
 H2400 H 0.26714 0.63129 0.21943
 C2401 C 0.33963 0.38850 0.22524
 C2402 C 0.31704 0.38924 0.23947
 N2403 N 0.30675 0.41202 0.24644
 C2404 C 0.31809 0.43407 0.23994
 C2405 C 0.34068 0.43340 0.22558
 N2406 N 0.35083 0.41050 0.21851
 N2407 N 0.35013 0.36578 0.21857
 C2408 C 0.33901 0.34372 0.22528
 C2409 C 0.31610 0.34428 0.23919
 N2410 N 0.30569 0.36719 0.24595
 H2411 H 0.30950 0.45197 0.24579
 H2412 H 0.34781 0.32594 0.21939
 C2413 C 0.82068 0.90447 0.74418
 C2414 C 0.83067 0.88304 0.73139
 N2415 N 0.85198 0.88532 0.71711
 C2416 C 0.86376 0.90808 0.71491
 C2417 C 0.85386 0.92976 0.72767
 N2418 N 0.83251 0.92720 0.74215
 N2419 N 0.79923 0.90222 0.75830
 C2420 C 0.78724 0.87953 0.76015
 C2421 C 0.79718 0.85790 0.74738
 N2422 N 0.81880 0.86033 0.73333
 H2423 H 0.88095 0.90904 0.70372
 H2424 H 0.77013 0.87842 0.77147
 C2425 C 0.67966 0.89256 0.25593
 C2426 C 0.67002 0.87231 0.26981
 N2427 N 0.65048 0.87655 0.28625
 C2428 C 0.64022 0.90018 0.28957
 C2429 C 0.64998 0.92065 0.27583
 N2430 N 0.66943 0.91608 0.25920
 N2431 N 0.69935 0.88848 0.23968
 C2432 C 0.71013 0.86508 0.23691
 C2433 C 0.70080 0.84473 0.25105
 N2434 N 0.68076 0.84889 0.26708
 H2435 H 0.62433 0.90271 0.30243
 H2436 H 0.72607 0.86251 0.22408
 C2437 C 0.16197 0.37963 0.77048
 C2438 C 0.18676 0.38147 0.76084
 N2439 N 0.19705 0.40474 0.75772
 C2440 C 0.18366 0.42620 0.76378
 C2441 C 0.15897 0.42437 0.77378
 N2442 N 0.14873 0.40102 0.77688
 N2443 N 0.15147 0.35647 0.77324
 C2444 C 0.16473 0.33500 0.76720
 C2445 C 0.18992 0.33660 0.75824
 N2446 N 0.20026 0.35997 0.75517
 H2447 H 0.19222 0.44454 0.76097
 H2448 H 0.15583 0.31684 0.77004
 C2449 C 0.09168 0.76212 0.81328
 C2450 C 0.11386 0.77160 0.82462
 N2451 N 0.11236 0.78495 0.84695
 C2452 C 0.08962 0.78930 0.85854
 C2453 C 0.06722 0.77977 0.84734
 N2454 N 0.06897 0.76627 0.82493
 N2455 N 0.09323 0.74894 0.79080
 C2456 C 0.11600 0.74491 0.77907
 C2457 C 0.13832 0.75435 0.79044
 N2458 N 0.13656 0.76745 0.81303
 H2459 H 0.08921 0.79950 0.87663
 H2460 H 0.11665 0.73452 0.76107
 C2461 C 0.61940 0.24858 0.31931
 C2462 C 0.64103 0.26066 0.32911
 N2463 N 0.63845 0.27786 0.34858
 C2464 C 0.61522 0.28365 0.35862
 C2465 C 0.59334 0.27170 0.34875
 N2466 N 0.59623 0.25429 0.32935
 N2467 N 0.62182 0.23161 0.29966
 C2468 C 0.64490 0.22637 0.28910
 C2469 C 0.66671 0.23862 0.29863
 N2470 N 0.66415 0.25544 0.31861
 H2471 H 0.61403 0.29708 0.37442
 H2472 H 0.64613 0.21303 0.27319
 C2473 C 0.61588 0.73482 0.17577
 C2474 C 0.61603 0.74944 0.19843
 N2475 N 0.59366 0.75837 0.20806
 C2476 C 0.57120 0.75325 0.19612
 C2477 C 0.57096 0.73812 0.17368
 N2478 N 0.59349 0.72935 0.16413
 N2479 N 0.63811 0.72607 0.16588
 C2480 C 0.66054 0.73097 0.17773
 C2481 C 0.66091 0.74503 0.20088
 N2482 N 0.63846 0.75402 0.21063
 H2483 H 0.55368 0.76040 0.20440
 H2484 H 0.67785 0.72338 0.16939
 C2485 C 0.11562 0.22891 0.67122
 C2486 C 0.11446 0.24228 0.69462
 N2487 N 0.09152 0.25025 0.70367
 C2488 C 0.06976 0.24540 0.69042
 C2489 C 0.07088 0.23162 0.66714
 N2490 N 0.09393 0.22373 0.65821
 N2491 N 0.13841 0.22116 0.66188
 C2492 C 0.16017 0.22596 0.67493
 C2493 C 0.15923 0.23888 0.69873
 N2494 N 0.13622 0.24679 0.70799
 H2495 H 0.05175 0.25176 0.69822
 H2496 H 0.17799 0.21924 0.66695
 C2497 C 0.87456 0.26166 0.66294
 C2498 C 0.87587 0.25119 0.68735
 N2499 N 0.89890 0.24692 0.69816
 C2500 C 0.92068 0.25257 0.68567
 C2501 C 0.91952 0.26324 0.66126
 N2502 N 0.89633 0.26759 0.65052
 N2503 N 0.85152 0.26576 0.65209
 C2504 C 0.82971 0.26018 0.66462
 C2505 C 0.83087 0.25021 0.68938
 N2506 N 0.85410 0.24591 0.70005
 H2507 H 0.93877 0.24900 0.69481
 H2508 H 0.81167 0.26409 0.65555
 C2509 C 0.38424 0.75016 0.17079
 C2510 C 0.36401 0.76265 0.15879
 N2511 N 0.36900 0.77865 0.13947
 C2512 C 0.39329 0.78305 0.13187
 C2513 C 0.41382 0.77112 0.14439
 N2514 N 0.40846 0.75469 0.16340
 N2515 N 0.37945 0.73424 0.19017
 C2516 C 0.35536 0.73063 0.19852
 C2517 C 0.33495 0.74372 0.18716
 N2518 N 0.33983 0.75928 0.16726
 H2519 H 0.39629 0.79557 0.11610
 H2520 H 0.35228 0.71815 0.21437
 C2521 C 0.40929 0.24990 0.31838
 C2522 C 0.38804 0.24082 0.33136
 N2523 N 0.39133 0.22773 0.35316
 C2524 C 0.41495 0.22303 0.36250
 C2525 C 0.43643 0.23180 0.34944
 N2526 N 0.43295 0.24532 0.32775
 N2527 N 0.40594 0.26253 0.29627
 C2528 C 0.38230 0.26619 0.28635
 C2529 C 0.36095 0.25683 0.29916
 N2530 N 0.36448 0.24450 0.32151
 H2531 H 0.41689 0.21277 0.38009
 H2532 H 0.38025 0.27594 0.26847
 C2533 C 0.89136 0.75172 0.81583
 C2534 C 0.86939 0.74163 0.82653
 N2535 N 0.87138 0.72619 0.84689
 C2536 C 0.89441 0.72041 0.85718
 C2537 C 0.91661 0.73066 0.84673
 N2538 N 0.91435 0.74618 0.82623
 N2539 N 0.88933 0.76690 0.79522
 C2540 C 0.86626 0.77232 0.78471
 C2541 C 0.84414 0.76227 0.79545
 N2542 N 0.84641 0.74717 0.81619
 H2543 H 0.89518 0.70859 0.87380
 H2544 H 0.86525 0.78414 0.76808
   
