data_POSCAR
  _audit_creation_date              2014-09-24
  _audit_creation_method            'ToBaCCo'
  _symmetry_space_group_name_H-M    'P1'
  _symmetry_Int_Tables_number       1
  _symmetry_cell_setting            triclinic
  loop_
  _symmetry_equiv_pos_as_xyz
 x,y,z
_cell_length_a 54.5729
_cell_length_b 54.5778
_cell_length_c 54.5147
_cell_angle_alpha 94.119000
_cell_angle_beta 94.190200
_cell_angle_gamma 94.161700
loop_
  _atom_site_label
  _atom_site_type_symbol
  _atom_site_fract_x
  _atom_site_fract_y
  _atom_site_fract_z
C1 C 0.71932 0.67659 0.97121
 H2 H 0.73717 0.67603 0.96384
 C3 C 0.70139 0.69023 0.96020
 H4 H 0.70548 0.70037 0.94443
 C5 C 0.69156 0.66287 0.99977
 H6 H 0.68747 0.65159 1.01465
 C7 C 0.67317 0.67626 0.98934
 H8 H 0.65511 0.67543 0.99643
 N9 N 0.71409 0.66315 0.99053
 C10 C 0.78321 0.64533 1.02795
 H11 H 0.77851 0.62586 1.02904
 C12 C 0.80625 0.65583 1.03760
 H13 H 0.81934 0.64443 1.04621
 C14 C 0.77213 0.68381 1.01475
 H15 H 0.75881 0.69455 1.00571
 C16 C 0.79511 0.69507 1.02415
 H17 H 0.79949 0.71449 1.02227
 Zn18 Zn 0.73750 0.64177 1.00200
 N19 N 0.76689 0.65923 1.01639
 C20 C 0.76863 0.62241 0.96770
 N21 N 0.74500 0.62152 0.97426
 C22 C 0.72647 0.60813 0.96003
 C23 C 0.73146 0.59488 0.93824
 C24 C 0.77438 0.60947 0.94618
 C25 C 0.72113 0.63571 1.04830
 C26 C 0.71187 0.62356 1.06769
 C27 C 0.71022 0.58512 1.04237
 C28 C 0.71957 0.59807 1.02339
 N29 N 0.72454 0.62296 1.02661
 H30 H 0.78302 0.63365 0.97875
 H31 H 0.70777 0.60817 0.96537
 H32 H 0.71663 0.58445 0.92686
 H33 H 0.79321 0.61051 0.94104
 H34 H 0.72555 0.65543 1.05043
 H35 H 0.70907 0.63406 1.08478
 H36 H 0.70613 0.56534 1.03958
 H37 H 0.72283 0.58825 1.00616
 C38 C 0.81240 0.68082 1.03540
 C39 C 0.67802 0.68982 0.96920
 C40 C 0.70627 0.59804 1.06472
 C41 C 0.75565 0.59573 0.93124
 C42 C 0.73427 0.35935 0.50340
 H43 H 0.75250 0.36099 0.51288
 C44 C 0.71547 0.34432 0.51198
 H45 H 0.71921 0.33425 0.52809
 C46 C 0.70677 0.37133 0.47149
 H47 H 0.70328 0.38236 0.45613
 C48 C 0.68743 0.35651 0.47950
 H49 H 0.66917 0.35602 0.47015
 N50 N 0.72965 0.37247 0.48349
 C51 C 0.80128 0.39041 0.45601
 H52 H 0.80093 0.41019 0.45588
 C53 C 0.82147 0.37881 0.44783
 H54 H 0.83678 0.38966 0.44136
 C55 C 0.78164 0.35200 0.46432
 H56 H 0.76595 0.34159 0.47045
 C57 C 0.80149 0.33966 0.45627
 H58 H 0.80112 0.31979 0.45637
 Zn59 Zn 0.75550 0.39440 0.47486
 N60 N 0.78203 0.37697 0.46431
 C61 C 0.78936 0.41585 0.51375
 N62 N 0.76580 0.41534 0.50353
 C63 C 0.74845 0.42763 0.51498
 C64 C 0.75446 0.44079 0.53785
 C65 C 0.79614 0.42882 0.53652
 C66 C 0.73821 0.39949 0.42638
 C67 C 0.72955 0.41138 0.40603
 C68 C 0.73445 0.44994 0.43128
 C69 C 0.74305 0.43731 0.45121
 N70 N 0.74440 0.41247 0.44848
 H71 H 0.80273 0.40545 0.50480
 H72 H 0.72972 0.42647 0.50671
 H73 H 0.74039 0.44991 0.54719
 H74 H 0.81476 0.42852 0.54484
 H75 H 0.73975 0.37980 0.42469
 H76 H 0.72426 0.40083 0.38861
 H77 H 0.73304 0.46965 0.43363
 H78 H 0.74848 0.44733 0.46881
 C79 C 0.82160 0.35323 0.44804
 C80 C 0.69181 0.34302 0.50001
 C81 C 0.72751 0.43679 0.40855
 C82 C 0.77848 0.44112 0.54882
 C83 C 0.23387 -0.14037 0.00309
 H84 H 0.25212 -0.13875 0.01254
 C85 C 0.21508 -0.15539 0.01170
 H86 H 0.21884 -0.16548 0.02779
 C87 C 0.20632 -0.12835 -0.02875
 H88 H 0.20281 -0.11731 -0.04410
 C89 C 0.18700 -0.14315 -0.02072
 H90 H 0.16872 -0.14362 -0.03004
 N91 N 0.22922 -0.12724 -0.01680
 C92 C 0.30076 -0.10940 -0.04454
 H93 H 0.30041 -0.08962 -0.04470
 C94 C 0.32092 -0.12102 -0.05278
 H95 H 0.33620 -0.11019 -0.05931
 C96 C 0.28115 -0.14778 -0.03611
 H97 H 0.26548 -0.15817 -0.02990
 C98 C 0.30097 -0.16014 -0.04421
 H99 H 0.30059 -0.18001 -0.04407
 Zn100 Zn 0.25507 -0.10534 -0.02551
 N101 N 0.28154 -0.12281 -0.03616
 C102 C 0.28909 -0.08393 0.01326
 N103 N 0.26549 -0.08441 0.00313
 C104 C 0.24821 -0.07209 0.01466
 C105 C 0.25433 -0.05893 0.03751
 C106 C 0.29598 -0.07096 0.03600
 C107 C 0.23767 -0.10026 -0.07395
 C108 C 0.22892 -0.08841 -0.09429
 C109 C 0.23386 -0.04981 -0.06902
 C110 C 0.24254 -0.06244 -0.04913
 N111 N 0.24390 -0.08727 -0.05186
 H112 H 0.30240 -0.09435 0.00424
 H113 H 0.22946 -0.07322 0.00647
 H114 H 0.24032 -0.04978 0.04692
 H115 H 0.31462 -0.07128 0.04424
 H116 H 0.23924 -0.11995 -0.07563
 H117 H 0.22363 -0.09908 -0.11166
 H118 H 0.23247 -0.03008 -0.06655
 H119 H 0.24801 -0.05242 -0.03154
 C120 C 0.32105 -0.14660 -0.05252
 C121 C 0.19141 -0.15666 -0.00022
 C122 C 0.22684 -0.06296 -0.09178
 C123 C 0.27839 -0.05863 0.04838
 C124 C 0.21997 0.17640 0.47077
 H125 H 0.23783 0.17593 0.46342
 C126 C 0.20201 0.19004 0.45980
 H127 H 0.20610 0.20027 0.44409
 C128 C 0.19219 0.16246 0.49921
 H129 H 0.18811 0.15109 0.51403
 C130 C 0.17378 0.17585 0.48883
 H131 H 0.15571 0.17494 0.49589
 N132 N 0.21474 0.16285 0.49001
 C133 C 0.28386 0.14503 0.52744
 H134 H 0.27918 0.12554 0.52843
 C135 C 0.30687 0.15553 0.53718
 H136 H 0.31995 0.14413 0.54576
 C137 C 0.27274 0.18355 0.51439
 H138 H 0.25941 0.19431 0.50537
 C139 C 0.29568 0.19482 0.52389
 H140 H 0.30003 0.21426 0.52210
 Zn141 Zn 0.23819 0.14147 0.50143
 N142 N 0.26754 0.15894 0.51591
 C143 C 0.26940 0.12233 0.46709
 N144 N 0.24577 0.12135 0.47364
 C145 C 0.22729 0.10793 0.45937
 C146 C 0.23233 0.09475 0.43756
 C147 C 0.27521 0.10946 0.44556
 C148 C 0.22178 0.13521 0.54767
 C149 C 0.21256 0.12294 0.56701
 C150 C 0.21105 0.08461 0.54161
 C151 C 0.22036 0.09764 0.52266
 N152 N 0.22524 0.12254 0.52595
 H153 H 0.28376 0.13359 0.47818
 H154 H 0.20857 0.10789 0.46469
 H155 H 0.21754 0.08428 0.42615
 H156 H 0.29406 0.11058 0.44044
 H157 H 0.22613 0.15494 0.54987
 H158 H 0.20968 0.13326 0.58416
 H159 H 0.20700 0.06484 0.53887
 H160 H 0.22366 0.08788 0.50541
 C161 C 0.31297 0.18056 0.53511
 C162 C 0.17862 0.18953 0.46877
 C163 C 0.20707 0.09745 0.56396
 C164 C 0.25654 0.09568 0.43058
 C165 C 0.17711 0.47045 0.21968
 H166 H 0.17661 0.46318 0.23760
 C167 C 0.19074 0.45940 0.20178
 H168 H 0.20092 0.44370 0.20596
 C169 C 0.16324 0.49876 0.19171
 H170 H 0.15189 0.51355 0.18753
 C171 C 0.17661 0.48829 0.17333
 H172 H 0.17571 0.49526 0.15520
 N173 N 0.16359 0.48966 0.21433
 C174 C 0.14560 0.52716 0.28333
 H175 H 0.12611 0.52810 0.27859
 C176 C 0.15605 0.53696 0.30635
 H177 H 0.14460 0.54555 0.31939
 C178 C 0.18418 0.51418 0.27236
 H179 H 0.19498 0.50516 0.25909
 C180 C 0.19540 0.52375 0.29532
 H181 H 0.21484 0.52202 0.29974
 Zn182 Zn 0.14217 0.50111 0.23770
 N183 N 0.15957 0.51563 0.26708
 C184 C 0.12293 0.46686 0.26897
 N185 N 0.12201 0.47337 0.24530
 C186 C 0.10864 0.45909 0.22679
 C187 C 0.09543 0.43731 0.23184
 C188 C 0.11003 0.44535 0.27479
 C189 C 0.13594 0.54725 0.22107
 C190 C 0.12368 0.56655 0.21180
 C191 C 0.08533 0.54119 0.21039
 C192 C 0.09836 0.52227 0.21974
 N193 N 0.12326 0.52556 0.22461
 H194 H 0.13416 0.47794 0.28336
 H195 H 0.10865 0.46440 0.20804
 H196 H 0.08500 0.42590 0.21703
 H197 H 0.11110 0.44025 0.29367
 H198 H 0.15568 0.54945 0.22541
 H199 H 0.13400 0.58367 0.20887
 H200 H 0.06554 0.53845 0.20636
 H201 H 0.08858 0.50506 0.22311
 C202 C 0.18108 0.53497 0.31255
 C203 C 0.19023 0.46825 0.17831
 C204 C 0.09817 0.56350 0.20634
 C205 C 0.09630 0.43037 0.25609
 C206 C -0.14145 0.00390 0.23367
 H207 H -0.13987 0.01329 0.25194
 C208 C -0.15638 0.01259 0.21482
 H209 H -0.16641 0.02869 0.21863
 C210 C -0.12941 -0.02786 0.20611
 H211 H -0.11839 -0.04320 0.20263
 C212 C -0.14411 -0.01977 0.18671
 H213 H -0.14449 -0.02907 0.16843
 N214 N -0.12835 -0.01598 0.22904
 C215 C -0.11053 -0.04372 0.30067
 H216 H -0.09075 -0.04388 0.30030
 C217 C -0.12213 -0.05196 0.32087
 H218 H -0.11128 -0.05850 0.33615
 C219 C -0.14893 -0.03526 0.28108
 H220 H -0.15933 -0.02905 0.26540
 C221 C -0.16127 -0.04337 0.30093
 H222 H -0.18114 -0.04323 0.30058
 Zn223 Zn -0.10648 -0.02470 0.25494
 N224 N -0.12396 -0.03532 0.28145
 C225 C -0.08501 0.01400 0.28897
 N226 N -0.08550 0.00389 0.26536
 C227 C -0.07313 0.01536 0.24806
 C228 C -0.05989 0.03815 0.25418
 C229 C -0.07196 0.03668 0.29586
 C230 C -0.10144 -0.07309 0.23756
 C231 C -0.08954 -0.09341 0.22893
 C232 C -0.05094 -0.06821 0.23403
 C233 C -0.06357 -0.04832 0.24259
 N234 N -0.08843 -0.05103 0.24383
 H235 H -0.09547 0.00502 0.30229
 H236 H -0.07427 0.00718 0.22930
 H237 H -0.05069 0.04752 0.24015
 H238 H -0.07226 0.04492 0.31451
 H239 H -0.12114 -0.07476 0.23903
 H240 H -0.10010 -0.11079 0.22359
 H241 H -0.03121 -0.06588 0.23271
 H242 H -0.05354 -0.03076 0.24809
 C243 C -0.14771 -0.05170 0.32102
 C244 C -0.15758 0.00075 0.19108
 C245 C -0.06410 -0.09090 0.22701
 C246 C -0.05956 0.04901 0.27825
 C247 C 0.35895 0.50364 0.73434
 H248 H 0.36055 0.51302 0.75262
 C249 C 0.34396 0.51231 0.71552
 H250 H 0.33388 0.52837 0.71931
 C251 C 0.37101 0.47194 0.70671
 H252 H 0.38206 0.45663 0.70319
 C253 C 0.35624 0.48003 0.68736
 H254 H 0.35580 0.47079 0.66905
 N255 N 0.37209 0.48380 0.72966
 C256 C 0.38992 0.45600 0.80126
 H257 H 0.40971 0.45592 0.80095
 C258 C 0.37828 0.44764 0.82138
 H259 H 0.38912 0.44110 0.83668
 C260 C 0.35152 0.46432 0.78156
 H261 H 0.34113 0.47051 0.76586
 C262 C 0.33914 0.45609 0.80134
 H263 H 0.31927 0.45613 0.80092
 Zn264 Zn 0.39398 0.47507 0.75553
 N265 N 0.37650 0.46437 0.78201
 C266 C 0.41541 0.51379 0.78958
 N267 N 0.41493 0.50367 0.76597
 C268 C 0.42727 0.51517 0.74867
 C269 C 0.44046 0.53798 0.75477
 C270 C 0.42841 0.53650 0.79645
 C271 C 0.39907 0.42672 0.73807
 C272 C 0.41097 0.40642 0.72941
 C273 C 0.44956 0.43163 0.73454
 C274 C 0.43691 0.45151 0.74313
 N275 N 0.41206 0.44878 0.74438
 H276 H 0.40497 0.50478 0.80291
 H277 H 0.42614 0.50698 0.72991
 H278 H 0.44963 0.54737 0.74073
 H279 H 0.42810 0.54474 0.81510
 H280 H 0.37936 0.42503 0.73955
 H281 H 0.40041 0.38904 0.72404
 H282 H 0.46929 0.43398 0.73321
 H283 H 0.44694 0.46907 0.74866
 C284 C 0.35268 0.44777 0.82144
 C285 C 0.34273 0.50049 0.69180
 C286 C 0.43641 0.40895 0.72748
 C287 C 0.44077 0.54885 0.77883
 C288 C 0.67783 0.97096 0.72063
 H289 H 0.67736 0.96359 0.73851
 C290 C 0.69141 0.95999 0.70263
 H291 H 0.70160 0.94427 0.70670
 C292 C 0.66390 0.99942 0.69284
 H293 H 0.65255 1.01423 0.68876
 C294 C 0.67723 0.98904 0.67438
 H295 H 0.67629 0.99610 0.65629
 N296 N 0.66430 0.99020 0.71541
 C297 C 0.64629 1.02736 0.78459
 H298 H 0.62680 1.02830 0.77985
 C299 C 0.65673 1.03708 0.80764
 H300 H 0.64522 1.04561 0.82066
 C301 C 0.68488 1.01446 0.77355
 H302 H 0.69568 1.00550 0.76023
 C303 C 0.69611 1.02394 0.79653
 H304 H 0.71557 1.02219 0.80088
 Zn305 Zn 0.64288 1.00151 0.73885
 N306 N 0.66027 1.01591 0.76828
 C307 C 0.62363 0.96709 0.76996
 N308 N 0.62273 0.97370 0.74633
 C309 C 0.60937 0.95950 0.72775
 C310 C 0.59612 0.93771 0.73271
 C311 C 0.61070 0.94556 0.77569
 C312 C 0.63658 1.04773 0.72244
 C313 C 0.62430 1.06703 0.71318
 C314 C 0.58600 1.04157 0.71159
 C315 C 0.59904 1.02266 0.72094
 N316 N 0.62394 1.02600 0.72588
 H317 H 0.63485 0.97812 0.78439
 H318 H 0.60939 0.96489 0.70904
 H319 H 0.58568 0.92637 0.71785
 H320 H 0.61173 0.94038 0.79453
 H321 H 0.65631 1.04997 0.72683
 H322 H 0.63460 1.08418 0.71031
 H323 H 0.56623 1.03879 0.70748
 H324 H 0.58929 1.00541 0.72422
 C325 C 0.68178 1.03509 0.81383
 C326 C 0.69086 0.96897 0.67921
 C327 C 0.59881 1.06392 0.70762
 C328 C 0.59696 0.93066 0.75692
 C329 C 0.00301 0.23368 -0.14062
 H330 H 0.01241 0.25194 -0.13897
 C331 C 0.01168 0.21493 -0.15563
 H332 H 0.02777 0.21873 -0.16568
 C333 C -0.02875 0.20605 -0.12866
 H334 H -0.04409 0.20250 -0.11763
 C335 C -0.02066 0.18676 -0.14346
 H336 H -0.02992 0.16847 -0.14394
 N337 N -0.01687 0.22897 -0.12751
 C338 C -0.04459 0.30045 -0.10948
 H339 H -0.04473 0.30003 -0.08967
 C340 C -0.05286 0.32065 -0.12105
 H341 H -0.05938 0.33588 -0.11016
 C342 C -0.03620 0.28097 -0.14795
 H343 H -0.03001 0.26535 -0.15839
 C344 C -0.04433 0.30083 -0.16027
 H345 H -0.04422 0.30053 -0.18016
 Zn346 Zn -0.02559 0.25474 -0.10554
 N347 N -0.03622 0.28128 -0.12296
 C348 C 0.01317 0.28867 -0.08399
 N349 N 0.00303 0.26508 -0.08453
 C350 C 0.01454 0.24774 -0.07225
 C351 C 0.03738 0.25379 -0.05906
 C352 C 0.03590 0.29549 -0.07099
 C353 C -0.07397 0.23729 -0.10053
 C354 C -0.09428 0.22853 -0.08869
 C355 C -0.06904 0.23342 -0.05002
 C356 C -0.04917 0.24211 -0.06264
 N357 N -0.05190 0.24351 -0.08750
 H358 H 0.00416 0.30203 -0.09438
 H359 H 0.00634 0.22900 -0.07344
 H360 H 0.04677 0.23972 -0.04996
 H361 H 0.04416 0.31412 -0.07125
 H362 H -0.07564 0.23889 -0.12024
 H363 H -0.11164 0.22325 -0.09939
 H364 H -0.06657 0.23201 -0.03027
 H365 H -0.03160 0.24758 -0.05259
 C366 C -0.05264 0.32086 -0.14666
 C367 C -0.00017 0.19123 -0.15692
 C368 C -0.09177 0.22642 -0.06321
 C369 C 0.04827 0.27783 -0.05870
 C370 C 0.47136 0.21976 0.17687
 H371 H 0.46399 0.23761 0.17634
 C372 C 0.46041 0.20182 0.19053
 H373 H 0.44468 0.20589 0.20071
 C374 C 0.49984 0.19202 0.16304
 H375 H 0.51466 0.18794 0.15171
 C376 C 0.48948 0.17361 0.17646
 H377 H 0.49655 0.15555 0.17558
 N378 N 0.49061 0.21454 0.16336
 C379 C 0.52771 0.28366 0.14519
 H380 H 0.52868 0.27892 0.12569
 C381 C 0.53738 0.30672 0.15560
 H382 H 0.54588 0.31978 0.14411
 C383 C 0.51481 0.27266 0.18383
 H384 H 0.50587 0.25936 0.19468
 C385 C 0.52424 0.29566 0.19501
 H386 H 0.52249 0.30007 0.21446
 Zn387 Zn 0.50190 0.23794 0.14186
 N388 N 0.51629 0.26737 0.15922
 C389 C 0.46743 0.26895 0.12254
 N390 N 0.47407 0.24535 0.12167
 C391 C 0.45985 0.22677 0.10835
 C392 C 0.43799 0.23168 0.09515
 C393 C 0.44585 0.27462 0.10964
 C394 C 0.54815 0.22161 0.13562
 C395 C 0.56748 0.21242 0.12335
 C396 C 0.54202 0.21079 0.08499
 C397 C 0.52308 0.22006 0.09802
 N398 N 0.52641 0.22500 0.12294
 H399 H 0.47848 0.28338 0.13372
 H400 H 0.46525 0.20809 0.10840
 H401 H 0.42662 0.21682 0.08477
 H402 H 0.44065 0.29344 0.11066
 H403 H 0.55037 0.22600 0.15537
 H404 H 0.58464 0.20960 0.13368
 H405 H 0.53926 0.20669 0.06520
 H406 H 0.50582 0.22331 0.08824
 C407 C 0.53535 0.31291 0.18064
 C408 C 0.46940 0.17844 0.19007
 C409 C 0.56439 0.20688 0.09784
 C410 C 0.43092 0.25585 0.09597
 C411 C 0.97015 0.71960 0.67745
 H412 H 0.96284 0.73748 0.67701
 C413 C 0.95919 0.70164 0.69110
 H414 H 0.94352 0.70574 0.70135
 C415 C 0.99849 0.69179 0.66343
 H416 H 1.01325 0.68769 0.65203
 C417 C 0.98811 0.67337 0.67682
 H418 H 0.99512 0.65528 0.67587
 N419 N 0.98934 0.71436 0.66386
 C420 C 1.02668 0.78346 0.64598
 H421 H 1.02759 0.77881 0.62646
 C422 C 1.03647 0.80644 0.65649
 H423 H 1.04501 0.81953 0.64505
 C424 C 1.01380 0.77232 0.68459
 H425 H 1.00483 0.75899 0.69538
 C426 C 1.02336 0.79523 0.69587
 H427 H 1.02167 0.79956 0.71534
 Zn428 Zn 1.00071 0.73782 0.64246
 N429 N 1.01521 0.76714 0.65994
 C430 C 0.96637 0.76905 0.62331
 N431 N 0.97292 0.74542 0.62232
 C432 C 0.95868 0.72695 0.60886
 C433 C 0.93690 0.73201 0.59562
 C434 C 0.94486 0.77487 0.61039
 C435 C 1.04688 0.72136 0.63616
 C436 C 1.06619 0.71218 0.62385
 C437 C 1.04078 0.71084 0.58548
 C438 C 1.02186 0.72009 0.59855
 N439 N 1.02517 0.72488 0.62349
 H440 H 0.97743 0.78339 0.63460
 H441 H 0.96402 0.70824 0.60881
 H442 H 0.92553 0.71724 0.58511
 H443 H 0.93974 0.79371 0.61150
 H444 H 1.04909 0.72563 0.65592
 H445 H 1.08333 0.70926 0.63417
 H446 H 1.03803 0.70687 0.56567
 H447 H 1.00463 0.72345 0.58878
 C448 C 1.03452 0.81252 0.68156
 C449 C 0.96811 0.67823 0.69053
 C450 C 1.06312 0.70680 0.59831
 C451 C 0.92992 0.75621 0.59655
 C452 C 0.50322 0.73464 0.35790
 H453 H 0.51267 0.75288 0.35951
 C454 C 0.51183 0.71584 0.34289
 H455 H 0.52790 0.71959 0.33281
 C456 C 0.47143 0.70711 0.36995
 H457 H 0.45610 0.70361 0.38100
 C458 C 0.47945 0.68777 0.35516
 H459 H 0.47015 0.66950 0.35471
 N460 N 0.48336 0.73000 0.37104
 C461 C 0.45579 0.80156 0.38903
 H462 H 0.45567 0.80115 0.40884
 C463 C 0.44755 0.82177 0.37747
 H464 H 0.44106 0.83700 0.38842
 C465 C 0.46413 0.78205 0.35056
 H466 H 0.47029 0.76640 0.34012
 C467 C 0.45602 0.80191 0.33822
 H468 H 0.45614 0.80154 0.31833
 Zn469 Zn 0.47472 0.75583 0.39299
 N470 N 0.46412 0.78237 0.37555
 C471 C 0.51352 0.78973 0.41452
 N472 N 0.50335 0.76615 0.41398
 C473 C 0.51480 0.74881 0.42633
 C474 C 0.53760 0.75487 0.43961
 C475 C 0.53621 0.79654 0.42761
 C476 C 0.42631 0.73848 0.39808
 C477 C 0.40601 0.72983 0.41001
 C478 C 0.43127 0.73482 0.44862
 C479 C 0.45115 0.74340 0.43596
 N480 N 0.44840 0.74471 0.41107
 H481 H 0.50456 0.80308 0.40408
 H482 H 0.50658 0.73008 0.42515
 H483 H 0.54694 0.74081 0.44879
 H484 H 0.54448 0.81518 0.42736
 H485 H 0.42461 0.74000 0.37836
 H486 H 0.38860 0.72453 0.39945
 H487 H 0.43364 0.73345 0.46836
 H488 H 0.46874 0.74887 0.44598
 C489 C 0.44774 0.82198 0.35184
 C490 C 0.49992 0.69217 0.34165
 C491 C 0.40856 0.72785 0.43547
 C492 C 0.54850 0.77890 0.43999
 C493 C 0.37108 -0.02315 0.27125
 C494 C 0.35638 -0.02978 0.24637
 C495 C 0.34410 -0.01084 0.23784
 C496 C 0.34746 0.01300 0.25500
 C497 C 0.38803 -0.00031 0.26729
 C498 C 0.37558 0.01859 0.25876
 C499 C 0.35239 -0.01385 0.28857
 C500 C 0.34008 0.00506 0.28012
 H501 H 0.35703 -0.04728 0.23567
 H502 H 0.33727 0.02836 0.24810
 H503 H 0.40801 0.00047 0.26997
 H504 H 0.35031 -0.02048 0.30670
 C505 C 0.09404 1.04509 0.75457
 C506 C 0.10700 1.05265 0.73202
 C507 C 0.12199 1.03568 0.72336
 C508 C 0.12278 1.01265 0.73802
 C509 C 0.08047 1.01982 0.74661
 C510 C 0.09563 1.00287 0.73799
 C511 C 0.11476 1.03979 0.77350
 C512 C 0.12972 1.02274 0.76488
 H513 H 0.10428 1.06973 0.72345
 H514 H 0.13510 0.99890 0.73089
 H515 H 0.06100 1.01546 0.74855
 H516 H 0.11591 1.04691 0.79273
 C517 C 0.59378 0.54584 0.25302
 C518 C 0.60672 0.55346 0.23049
 C519 C 0.62175 0.53653 0.22180
 C520 C 0.62259 0.51349 0.23643
 C521 C 0.58026 0.52055 0.24503
 C522 C 0.59546 0.50365 0.23639
 C523 C 0.61452 0.54056 0.27194
 C524 C 0.62951 0.52355 0.26330
 H525 H 0.60399 0.57056 0.22195
 H526 H 0.63494 0.49978 0.22928
 H527 H 0.56081 0.51614 0.24701
 H528 H 0.61565 0.54764 0.29118
 C529 C 0.87005 0.47669 0.77203
 C530 C 0.85541 0.47002 0.74713
 C531 C 0.84311 0.48893 0.73856
 C532 C 0.84640 0.51278 0.75570
 C533 C 0.88699 0.49955 0.76808
 C534 C 0.87451 0.51842 0.75951
 C535 C 0.85132 0.48597 0.78931
 C536 C 0.83899 0.50485 0.78081
 H537 H 0.85613 0.45253 0.73644
 H538 H 0.83619 0.52812 0.74877
 H539 H 0.90696 0.50037 0.77078
 H540 H 0.84922 0.47937 0.80744
 C541 C 0.27119 0.36960 -0.02319
 C542 C 0.24632 0.35496 -0.02986
 C543 C 0.23779 0.34265 -0.01091
 C544 C 0.25495 0.34593 0.01296
 C545 C 0.26727 0.38651 -0.00030
 C546 C 0.25874 0.37403 0.01860
 C547 C 0.28847 0.35086 -0.01390
 C548 C 0.28003 0.33852 0.00501
 H549 H 0.23560 0.35568 -0.04737
 H550 H 0.24806 0.33572 0.02832
 H551 H 0.26996 0.40648 0.00051
 H552 H 0.30659 0.34879 -0.02050
 C553 C 0.75480 0.09406 1.04530
 C554 C 0.73231 0.10705 1.05288
 C555 C 0.72363 0.12202 1.03586
 C556 C 0.73821 0.12276 1.01278
 C557 C 0.74678 0.08047 1.02003
 C558 C 0.73814 0.09561 1.00304
 C559 C 0.77371 0.11474 1.03993
 C560 C 0.76507 0.12968 1.02283
 H561 H 0.72378 0.10436 1.06999
 H562 H 0.73106 0.13508 0.99900
 H563 H 0.74870 0.06099 1.01571
 H564 H 0.79294 0.11587 1.04703
 C565 C 0.25378 0.59451 0.54545
 C566 C 0.23124 0.60740 0.55307
 C567 C 0.22246 0.62235 0.53607
 C568 C 0.23702 0.62318 0.51297
 C569 C 0.24578 0.58092 0.52018
 C570 C 0.23706 0.59604 0.50321
 C571 C 0.27260 0.61527 0.54009
 C572 C 0.26387 0.63020 0.52301
 H573 H 0.22274 0.60466 0.57018
 H574 H 0.22980 0.63547 0.49922
 H575 H 0.24782 0.56147 0.51582
 H576 H 0.29183 0.61646 0.54715
 C577 C 0.77116 0.87096 0.47699
 C578 C 0.74627 0.85637 0.47025
 C579 C 0.73768 0.84405 0.48915
 C580 C 0.75479 0.84727 0.51307
 C581 C 0.76722 0.88786 0.49989
 C582 C 0.75864 0.87536 0.51875
 C583 C 0.78838 0.85218 0.48628
 C584 C 0.77987 0.83982 0.50515
 H585 H 0.73562 0.85710 0.45271
 H586 H 0.74784 0.83704 0.52839
 H587 H 0.77001 0.90783 0.50075
 H588 H 0.80650 0.85007 0.47970
 C589 C -0.02283 0.27151 0.37094
 C590 C -0.02963 0.24668 0.35625
 C591 C -0.01077 0.23807 0.34392
 C592 C 0.01316 0.25511 0.34721
 C593 C 0.00002 0.26745 0.38786
 C594 C 0.01883 0.25884 0.37534
 C595 C -0.01350 0.28877 0.35219
 C596 C 0.00532 0.28025 0.33982
 H597 H -0.04717 0.23607 0.35695
 H598 H 0.02845 0.24815 0.33697
 H599 H 0.00087 0.27012 0.40785
 H600 H -0.02004 0.30691 0.35010
 C601 C 1.04526 0.75409 0.09355
 C602 C 1.05293 0.73157 0.10647
 C603 C 1.03601 0.72282 0.12150
 C604 C 1.01294 0.73738 0.12236
 C605 C 1.01997 0.74609 0.08001
 C606 C 1.00309 0.73739 0.09521
 C607 C 1.03997 0.77293 0.11432
 C608 C 1.02298 0.76422 0.12932
 H609 H 1.07002 0.72306 0.10369
 H610 H 0.99925 0.73018 0.13472
 H611 H 1.01555 0.74808 0.06053
 H612 H 1.04701 0.79217 0.11546
 C613 C 0.54569 0.25388 0.59387
 C614 C 0.55335 0.23140 0.60685
 C615 C 0.53643 0.22269 0.62189
 C616 C 0.51335 0.23723 0.62269
 C617 C 0.52041 0.24584 0.58032
 C618 C 0.50351 0.23717 0.59553
 C619 C 0.54037 0.27277 0.61459
 C620 C 0.52337 0.26409 0.62960
 H621 H 0.57046 0.22291 0.60414
 H622 H 0.49965 0.23006 0.63506
 H623 H 0.51600 0.24778 0.56083
 H624 H 0.54742 0.29200 0.61571
 C625 C 0.47677 0.77167 0.87068
 C626 C 0.47004 0.74683 0.85601
 C627 C 0.48896 0.73822 0.84376
 C628 C 0.51288 0.75527 0.84714
 C629 C 0.49957 0.76763 0.88771
 C630 C 0.51844 0.75902 0.87528
 C631 C 0.48619 0.78893 0.85197
 C632 C 0.50507 0.78040 0.83969
 H633 H 0.45251 0.73620 0.85667
 H634 H 0.52822 0.74831 0.83698
 H635 H 0.50034 0.77032 0.90770
 H636 H 0.47968 0.80708 0.84986
 C637 C 0.42649 -0.09480 0.29023
 C638 C 0.43709 -0.09505 0.31739
 C639 C 0.42248 -0.11995 0.31903
 C640 C 0.41206 -0.12007 0.29206
 C641 C 0.40437 -0.08188 0.29931
 C642 C 0.38980 -0.10680 0.30096
 C643 C 0.41480 -0.08179 0.32627
 C644 C 0.40037 -0.10700 0.32806
 C645 C 0.43207 -0.14114 0.33045
 C646 C 0.43957 -0.15851 0.34029
 C647 C 0.39358 -0.06081 0.28880
 C648 C 0.38390 -0.04367 0.28062
 H649 H 0.43710 -0.08952 0.27456
 H650 H 0.45665 -0.09048 0.32429
 H651 H 0.41104 -0.13605 0.27814
 H652 H 0.37024 -0.11139 0.29408
 H653 H 0.41581 -0.06582 0.34021
 H654 H 0.38973 -0.11224 0.34373
 C655 C 0.90557 0.41462 0.82798
 C656 C 0.89520 0.38749 0.82235
 C657 C 0.92156 0.38001 0.81993
 C658 C 0.93209 0.40685 0.82573
 C659 C 0.90340 0.41805 0.80020
 C660 C 0.92978 0.41061 0.79775
 C661 C 0.89288 0.39121 0.79442
 C662 C 0.91941 0.38340 0.79215
 C663 C 0.93118 0.35883 0.83135
 C664 C 0.93871 0.34146 0.84116
 C665 C 0.89259 0.43909 0.78966
 C666 C 0.88289 0.45621 0.78145
 H667 H 0.89977 0.42770 0.84260
 H668 H 0.88108 0.37777 0.83258
 H669 H 0.94833 0.41303 0.83874
 H670 H 0.94386 0.42038 0.78751
 H671 H 0.87664 0.38502 0.78142
 H672 H 0.92521 0.37030 0.77755
 C673 C 0.02488 1.09861 0.78540
 C674 C 0.02907 1.10791 0.81305
 C675 C 0.03037 1.13457 0.80563
 C676 C 0.02597 1.12564 0.77818
 C677 C 0.05293 1.09888 0.78413
 C678 C 0.05423 1.12554 0.77672
 C679 C 0.05728 1.10786 0.81157
 C680 C 0.05841 1.13478 0.80433
 C681 C 0.01860 1.15465 0.81824
 C682 C 0.00967 1.17129 0.82924
 C683 C 0.06637 1.07932 0.77284
 C684 C 0.07835 1.06362 0.76422
 H685 H 0.01127 1.08349 0.77748
 H686 H 0.01859 1.10089 0.82813
 H687 H 0.01296 1.13319 0.76460
 H688 H 0.06473 1.13257 0.76164
 H689 H 0.07030 1.10034 0.82519
 H690 H 0.07207 1.14986 0.81224
 C691 C 0.55775 0.60920 0.30989
 C692 C 0.55819 0.63590 0.30206
 C693 C 0.53025 0.63537 0.30419
 C694 C 0.52963 0.60892 0.31219
 C695 C 0.55269 0.59961 0.28266
 C696 C 0.52474 0.59902 0.28476
 C697 C 0.55331 0.62606 0.27467
 C698 C 0.52515 0.62583 0.27696
 C699 C 0.51856 0.65549 0.31681
 C700 C 0.50969 0.67218 0.32781
 C701 C 0.56610 0.58003 0.27134
 C702 C 0.57807 0.56434 0.26270
 H703 H 0.57130 0.60215 0.32331
 H704 H 0.57183 0.65127 0.30931
 H705 H 0.51976 0.60211 0.32776
 H706 H 0.51116 0.58361 0.27750
 H707 H 0.56320 0.63288 0.25910
 H708 H 0.51160 0.63291 0.26357
 C709 C 0.57728 0.40962 0.23487
 C710 C 0.55022 0.39908 0.22848
 C711 C 0.55848 0.38408 0.20605
 C712 C 0.58540 0.39419 0.21231
 C713 C 0.57263 0.43073 0.21833
 C714 C 0.58088 0.41570 0.19591
 C715 C 0.54573 0.42061 0.21206
 C716 C 0.55387 0.40522 0.18954
 C717 C 0.55047 0.35829 0.19833
 C718 C 0.54369 0.33738 0.19092
 C719 C 0.58056 0.45676 0.22482
 C720 C 0.58722 0.47815 0.23004
 H721 H 0.58700 0.41175 0.25360
 H722 H 0.53755 0.39195 0.24180
 H723 H 0.60162 0.38304 0.21237
 H724 H 0.59355 0.42280 0.18257
 H725 H 0.52950 0.43176 0.21200
 H726 H 0.54415 0.40313 0.17080
 C727 C 0.04720 0.92094 0.70675
 C728 C 0.06011 0.90359 0.68899
 C729 C 0.05807 0.88350 0.70726
 C730 C 0.04502 0.90047 0.72493
 C731 C 0.07249 0.93006 0.71972
 C732 C 0.07046 0.91000 0.73804
 C733 C 0.08552 0.91307 0.70205
 C734 C 0.08337 0.89260 0.72023
 C735 C 0.04990 0.85777 0.69945
 C736 C 0.04301 0.83691 0.69195
 C737 C 0.08056 0.95604 0.72630
 C738 C 0.08731 0.97740 0.73158
 H739 H 0.03242 0.93286 0.70126
 H740 H 0.05578 0.90068 0.66873
 H741 H 0.02830 0.89499 0.73428
 H742 H 0.07481 0.91296 0.75829
 H743 H 0.10224 0.91854 0.69269
 H744 H 0.09814 0.88067 0.72571
 C745 C 0.93803 0.58585 0.73764
 C746 C 0.93482 0.59367 0.71093
 C747 C 0.93267 0.62032 0.72123
 C748 C 0.93608 0.61284 0.74783
 C749 C 0.90991 0.58125 0.73750
 C750 C 0.90773 0.60788 0.74784
 C751 C 0.90653 0.58877 0.71091
 C752 C 0.90455 0.61572 0.72108
 C753 C 0.94536 0.64163 0.71137
 C754 C 0.95577 0.65863 0.70238
 C755 C 0.89726 0.55916 0.74595
 C756 C 0.88689 0.54073 0.75238
 H757 H 0.95167 0.57332 0.74454
 H758 H 0.94609 0.58804 0.69565
 H759 H 0.94837 0.62299 0.76291
 H760 H 0.89644 0.61347 0.76311
 H761 H 0.89425 0.57864 0.69581
 H762 H 0.89091 0.62824 0.71418
 C763 C 0.43719 0.08228 0.22801
 C764 C 0.42791 0.09570 0.20546
 C765 C 0.43390 0.12050 0.22068
 C766 C 0.44337 0.10740 0.24311
 C767 C 0.41107 0.08143 0.23686
 C768 C 0.41702 0.10620 0.25212
 C769 C 0.40162 0.09454 0.21443
 C770 C 0.40778 0.11967 0.22952
 C771 C 0.44662 0.14182 0.21086
 C772 C 0.45705 0.15883 0.20190
 C773 C 0.39838 0.05933 0.24527
 C774 C 0.38798 0.04089 0.25166
 H775 H 0.44914 0.06667 0.22747
 H776 H 0.43252 0.09159 0.18617
 H777 H 0.46067 0.11293 0.25481
 H778 H 0.41239 0.11027 0.27141
 H779 H 0.38433 0.08902 0.20271
 H780 H 0.39582 0.13528 0.23004
 C781 C 0.32514 0.39832 -0.08953
 C782 C 0.31435 0.39390 -0.11667
 C783 C 0.31911 0.42157 -0.11966
 C784 C 0.33006 0.42614 -0.09281
 C785 C 0.29932 0.40316 -0.08176
 C786 C 0.30406 0.43084 -0.08471
 C787 C 0.28836 0.39859 -0.10861
 C788 C 0.29328 0.42644 -0.11193
 C789 C 0.33057 0.43134 -0.14075
 C790 C 0.34043 0.43898 -0.15804
 C791 C 0.28876 0.39223 -0.06077
 C792 C 0.28056 0.38247 -0.04368
 H793 H 0.33812 0.38665 -0.08008
 H794 H 0.31870 0.37882 -0.13003
 H795 H 0.34735 0.43758 -0.08656
 H796 H 0.29970 0.44589 -0.07131
 H797 H 0.27108 0.38714 -0.11485
 H798 H 0.28032 0.43811 -0.12140
 C799 C 0.78465 0.91558 0.39731
 C800 C 0.80475 0.93736 0.39877
 C801 C 0.81891 0.92254 0.38022
 C802 C 0.79900 0.90096 0.37841
 C803 C 0.79926 0.90438 0.41832
 C804 C 0.81343 0.88961 0.39974
 C805 C 0.81917 0.92596 0.42014
 C806 C 0.83348 0.91133 0.40125
 C807 C 0.83029 0.93216 0.35901
 C808 C 0.84009 0.93968 0.34163
 C809 C 0.78877 0.89354 0.43938
 C810 C 0.78058 0.88382 0.45651
 H811 H 0.76445 0.91722 0.39595
 H812 H 0.80132 0.95711 0.39811
 H813 H 0.79084 0.89079 0.36102
 H814 H 0.81688 0.86986 0.40037
 H815 H 0.82733 0.93611 0.43754
 H816 H 0.85368 0.90967 0.40263
 C817 C 0.77671 0.05414 1.12589
 C818 C 0.77852 0.02592 1.12594
 C819 C 0.80585 0.03063 1.13519
 C820 C 0.80420 0.05862 1.13544
 C821 C 0.78439 0.05306 1.09930
 C822 C 0.81171 0.05772 1.10860
 C823 C 0.78600 0.02506 1.09898
 C824 C 0.81353 0.02955 1.10860
 C825 C 0.81843 0.01894 1.15537
 C826 C 0.82941 0.01007 1.17211
 C827 C 0.77310 0.06645 1.07965
 C828 C 0.76447 0.07839 1.06389
 H829 H 0.76143 0.06440 1.13277
 H830 H 0.76503 0.01271 1.13331
 H831 H 0.81181 0.07231 1.15064
 H832 H 0.82523 0.07094 1.10126
 H833 H 0.77838 0.01143 1.08375
 H834 H 0.82882 0.01931 1.10172
 C835 C 0.30385 0.53568 0.59579
 C836 C 0.31870 0.54872 0.61897
 C837 C 0.30521 0.53097 0.63504
 C838 C 0.29053 0.51771 0.61216
 C839 C 0.28361 0.55348 0.59929
 C840 C 0.27007 0.53574 0.61533
 C841 C 0.29831 0.56667 0.62218
 C842 C 0.28497 0.54877 0.63853
 C843 C 0.31786 0.51922 0.65514
 C844 C 0.32889 0.51031 0.67181
 C845 C 0.27224 0.56690 0.57972
 C846 C 0.26354 0.57886 0.56400
 H847 H 0.31147 0.53045 0.57799
 H848 H 0.33883 0.55394 0.62068
 H849 H 0.28748 0.49743 0.60829
 H850 H 0.24993 0.53056 0.61358
 H851 H 0.30139 0.58695 0.62610
 H852 H 0.27735 0.55402 0.65632
 C853 C 0.23646 0.57470 0.40956
 C854 C 0.22716 0.54807 0.39959
 C855 C 0.20659 0.55850 0.38366
 C856 C 0.21576 0.58499 0.39319
 C857 C 0.21893 0.57291 0.43029
 C858 C 0.19837 0.58333 0.41434
 C859 C 0.20976 0.54643 0.42075
 C860 C 0.18910 0.55673 0.40443
 C861 C 0.19885 0.55034 0.35788
 C862 C 0.19140 0.54345 0.33699
 C863 C 0.22544 0.58097 0.45632
 C864 C 0.23068 0.58772 0.47771
 H865 H 0.25602 0.58220 0.41199
 H866 H 0.23893 0.53350 0.39323
 H867 H 0.21817 0.60076 0.38158
 H868 H 0.18658 0.59789 0.42068
 H869 H 0.20734 0.53066 0.43236
 H870 H 0.16953 0.54925 0.40204
 C871 C 0.69546 0.07784 0.91615
 C872 C 0.71008 0.08510 0.89412
 C873 C 0.70708 0.05808 0.88358
 C874 C 0.69235 0.05072 0.90524
 C875 C 0.71969 0.07246 0.93017
 C876 C 0.71669 0.04545 0.91963
 C877 C 0.73445 0.07985 0.90854
 C878 C 0.73132 0.05269 0.89757
 C879 C 0.69918 0.04994 0.85783
 C880 C 0.69160 0.04307 0.83696
 C881 C 0.72634 0.08052 0.95618
 C882 C 0.73167 0.08727 0.97756
 H883 H 0.68077 0.08825 0.92406
 H884 H 0.70732 0.10131 0.88335
 H885 H 0.67495 0.03865 0.90361
 H886 H 0.71945 0.02924 0.93041
 H887 H 0.75184 0.09194 0.91021
 H888 H 0.74599 0.04228 0.88963
 C889 C 0.74766 0.90857 0.60844
 C890 C 0.74762 0.93692 0.61337
 C891 C 0.72114 0.93348 0.62107
 C892 C 0.72102 0.90535 0.61650
 C893 C 0.73708 0.91071 0.58183
 C894 C 0.71061 0.90730 0.58957
 C895 C 0.73720 0.93883 0.58641
 C896 C 0.71060 0.93558 0.59445
 C897 C 0.71145 0.94618 0.64248
 C898 C 0.70258 0.95660 0.65955
 C899 C 0.74536 0.89806 0.55965
 C900 C 0.75165 0.88771 0.54114
 H901 H 0.76299 0.89731 0.61393
 H902 H 0.76274 0.94924 0.62341
 H903 H 0.71428 0.89172 0.62911
 H904 H 0.69548 0.89499 0.57955
 H905 H 0.74393 0.95246 0.57379
 H906 H 0.69527 0.94682 0.58891
 C907 C 0.21003 0.40735 0.08823
 C908 C 0.21927 0.40436 0.11531
 C909 C 0.22077 0.43250 0.12049
 C910 C 0.21139 0.43565 0.09371
 C911 C 0.23689 0.40955 0.08145
 C912 C 0.23839 0.43769 0.08662
 C913 C 0.24630 0.40637 0.10820
 C914 C 0.24764 0.43474 0.11374
 C915 C 0.21098 0.44530 0.14177
 C916 C 0.20203 0.45580 0.15875
 C917 C 0.24528 0.39682 0.05937
 C918 C 0.25166 0.38641 0.04093
 H919 H 0.19465 0.39597 0.07752
 H920 H 0.21132 0.39079 0.12735
 H921 H 0.19694 0.44784 0.08796
 H922 H 0.24633 0.45126 0.07458
 H923 H 0.26075 0.39416 0.11391
 H924 H 0.26300 0.44613 0.12447
 C925 C -0.08428 0.30495 0.43197
 C926 C -0.09254 0.33080 0.42685
 C927 C -0.11931 0.31969 0.42240
 C928 C -0.11142 0.29401 0.42769
 C929 C -0.08134 0.29983 0.40431
 C930 C -0.10811 0.28871 0.39985
 C931 C -0.08927 0.32550 0.39905
 C932 C -0.11633 0.31455 0.39475
 C933 C -0.14046 0.33116 0.43197
 C934 C -0.15781 0.34101 0.43945
 C935 C -0.06034 0.28923 0.39351
 C936 C -0.04326 0.28097 0.38380
 H937 H -0.07085 0.30087 0.44714
 H938 H -0.08638 0.34825 0.43805
 H939 H -0.12080 0.28119 0.43957
 H940 H -0.11426 0.27127 0.38864
 H941 H -0.07992 0.33834 0.38717
 H942 H -0.12973 0.31862 0.37955
 C943 C 0.41140 0.82639 0.90023
 C944 C 0.38415 0.81654 0.89427
 C945 C 0.38013 0.81983 0.92187
 C946 C 0.40709 0.82985 0.92798
 C947 C 0.41814 0.79998 0.90385
 C948 C 0.41417 0.80324 0.93146
 C949 C 0.39118 0.78996 0.89773
 C950 C 0.38683 0.79340 0.92551
 C951 C 0.35897 0.83131 0.93141
 C952 C 0.34162 0.84117 0.93889
 C953 C 0.43917 0.78938 0.89310
 C954 C 0.45629 0.78113 0.88346
 H955 H 0.42174 0.83984 0.88973
 H956 H 0.37158 0.82213 0.87908
 H957 H 0.41339 0.84639 0.94053
 H958 H 0.42676 0.79764 0.94662
 H959 H 0.38488 0.77343 0.88518
 H960 H 0.37647 0.77998 0.93601
 C961 C 1.09655 0.79061 0.02553
 C962 C 1.10978 0.81630 0.03372
 C963 C 1.13468 0.80567 0.03005
 C964 C 1.12180 0.78016 0.02164
 C965 C 1.09897 0.78397 0.05247
 C966 C 1.12386 0.77332 0.04881
 C967 C 1.11189 0.80946 0.06081
 C968 C 1.13704 0.79900 0.05698
 C969 C 1.15477 0.81837 0.01838
 C970 C 1.17143 0.82944 0.00952
 C971 C 1.07942 0.77255 0.06586
 C972 C 1.06374 0.76385 0.07783
 H973 H 1.07967 0.78701 0.01277
 H974 H 1.10422 0.83412 0.02740
 H975 H 1.12613 0.76827 0.00539
 H976 H 1.12941 0.75551 0.05515
 H977 H 1.10760 0.82139 0.07706
 H978 H 1.15390 0.80258 0.06979
 C979 C 0.60007 0.28336 0.52460
 C980 C 0.60800 0.31135 0.52737
 C981 C 0.63509 0.30535 0.53028
 C982 C 0.62752 0.27757 0.52729
 C983 C 0.59939 0.28368 0.55274
 C984 C 0.62648 0.27769 0.55564
 C985 C 0.60700 0.31146 0.55568
 C986 C 0.63433 0.30564 0.55841
 C987 C 0.65517 0.31806 0.51859
 C988 C 0.67184 0.32912 0.50974
 C989 C 0.57984 0.27229 0.56615
 C990 C 0.56417 0.26360 0.57814
 H991 H 0.58575 0.27405 0.51086
 H992 H 0.60064 0.32533 0.51561
 H993 H 0.63621 0.26379 0.51548
 H994 H 0.63385 0.26372 0.56741
 H995 H 0.59834 0.32527 0.56750
 H996 H 0.64862 0.31493 0.57220
 C997 C 0.40974 0.23597 0.57524
 C998 C 0.39956 0.22744 0.54844
 C999 C 0.38404 0.20627 0.55837
 C1000 C 0.39379 0.21467 0.58502
 C1001 C 0.43065 0.21878 0.57259
 C1002 C 0.41510 0.19762 0.58250
 C1003 C 0.42089 0.21038 0.54595
 C1004 C 0.40498 0.18912 0.55575
 C1005 C 0.35828 0.19844 0.55031
 C1006 C 0.33740 0.19094 0.54350
 C1007 C 0.45666 0.22540 0.58057
 C1008 C 0.47804 0.23071 0.58726
 H1009 H 0.41201 0.25532 0.58335
 H1010 H 0.39287 0.23963 0.53437
 H1011 H 0.38236 0.21638 0.60100
 H1012 H 0.42177 0.18542 0.59657
 H1013 H 0.43232 0.20867 0.52997
 H1014 H 0.40275 0.16976 0.54765
 C1015 C 0.90932 0.73626 0.07500
 C1016 C 0.89906 0.72759 0.04826
 C1017 C 0.88354 0.70652 0.05836
 C1018 C 0.89337 0.71506 0.08495
 C1019 C 0.93019 0.71903 0.07241
 C1020 C 0.91465 0.69797 0.08248
 C1021 C 0.92036 0.71049 0.04582
 C1022 C 0.90445 0.68932 0.05579
 C1023 C 0.85776 0.69869 0.05040
 C1024 C 0.83686 0.69119 0.04368
 C1025 C 0.95622 0.72564 0.08031
 C1026 C 0.97760 0.73095 0.08696
 H1027 H 0.91163 0.75565 0.08300
 H1028 H 0.89235 0.73971 0.03413
 H1029 H 0.88199 0.71689 0.10095
 H1030 H 0.92134 0.68584 0.09662
 H1031 H 0.93174 0.70865 0.02982
 H1032 H 0.90218 0.66993 0.04780
 C1033 C 0.58945 0.71076 0.90638
 C1034 C 0.61630 0.72185 0.90562
 C1035 C 0.62017 0.72058 0.93369
 C1036 C 0.59363 0.70936 0.93461
 C1037 C 0.58116 0.73690 0.91086
 C1038 C 0.58503 0.73563 0.93892
 C1039 C 0.60768 0.74816 0.90990
 C1040 C 0.61191 0.74674 0.93820
 C1041 C 0.64146 0.71069 0.94641
 C1042 C 0.65844 0.70168 0.95684
 C1043 C 0.55910 0.74540 0.89816
 C1044 C 0.54070 0.75185 0.88774
 H1045 H 0.57998 0.69605 0.89317
 H1046 H 0.62939 0.71609 0.89206
 H1047 H 0.58807 0.69330 0.94490
 H1048 H 0.57194 0.74138 0.95248
 H1049 H 0.61320 0.76422 0.89959
 H1050 H 0.62139 0.76142 0.95142
 C1051 C 0.08563 0.23543 0.43874
 C1052 C 0.09418 0.20914 0.43442
 C1053 C 0.12072 0.22032 0.43339
 C1054 C 0.11251 0.24649 0.43790
 C1055 C 0.08165 0.23667 0.41068
 C1056 C 0.10817 0.24789 0.40961
 C1057 C 0.08990 0.21051 0.40619
 C1058 C 0.11674 0.22155 0.40532
 C1059 C 0.14203 0.21042 0.44605
 C1060 C 0.15903 0.20140 0.45644
 C1061 C 0.05957 0.24518 0.39805
 C1062 C 0.04113 0.25165 0.38770
 H1063 H 0.07260 0.24122 0.45235
 H1064 H 0.08864 0.19310 0.44476
 H1065 H 0.12205 0.26118 0.45108
 H1066 H 0.11367 0.26392 0.39925
 H1067 H 0.08036 0.19579 0.39303
 H1068 H 0.12977 0.21575 0.39171
 C1069 C 0.55648 0.15936 0.68541
 C1070 C 0.54266 0.13332 0.68257
 C1071 C 0.56710 0.12215 0.67785
 C1072 C 0.58100 0.14783 0.68088
 C1073 C 0.55182 0.16118 0.65749
 C1074 C 0.57623 0.14993 0.65284
 C1075 C 0.53786 0.13553 0.65441
 C1076 C 0.56243 0.12400 0.64993
 C1077 C 0.57690 0.10078 0.68882
 C1078 C 0.58624 0.08367 0.69752
 C1079 C 0.54466 0.18310 0.64557
 C1080 C 0.54017 0.20118 0.63514
 H1081 H 0.55394 0.17414 0.69988
 H1082 H 0.52895 0.12621 0.69492
 H1083 H 0.59886 0.15268 0.69186
 H1084 H 0.59000 0.15698 0.64051
 H1085 H 0.52001 0.13073 0.64340
 H1086 H 0.56498 0.10924 0.63545
 C1087 C 1.05635 0.65924 0.18460
 C1088 C 1.04229 0.63331 0.18196
 C1089 C 1.06651 0.62189 0.17684
 C1090 C 1.08066 0.64745 0.17967
 C1091 C 1.05129 0.66107 0.15672
 C1092 C 1.07549 0.64957 0.15168
 C1093 C 1.03709 0.63553 0.15385
 C1094 C 1.06145 0.62375 0.14897
 C1095 C 1.07629 0.60044 0.18769
 C1096 C 1.08561 0.58329 0.19632
 C1097 C 1.04418 0.68307 0.14494
 C1098 C 1.03971 0.70123 0.13462
 H1099 H 1.05416 0.67407 0.19913
 H1100 H 1.02873 0.62635 0.19454
 H1101 H 1.09868 0.65215 0.19038
 H1102 H 1.08910 0.65647 0.13912
 H1103 H 1.01907 0.63089 0.14311
 H1104 H 1.06365 0.60894 0.13442
 C1105 C 1.00064 0.84225 0.17482
 C1106 C 0.97433 0.84983 0.16829
 C1107 C 0.96982 0.85117 0.19582
 C1108 C 0.99598 0.84386 0.20256
 C1109 C 0.99047 0.81511 0.17260
 C1110 C 0.98600 0.81637 0.20014
 C1111 C 0.96432 0.82245 0.16588
 C1112 C 0.95962 0.82404 0.19362
 C1113 C 0.95812 0.87163 0.20785
 C1114 C 0.94820 0.88867 0.21696
 C1115 C 1.00198 0.79578 0.15858
 C1116 C 1.01151 0.78081 0.14587
 H1117 H 1.01764 0.84953 0.16695
 H1118 H 0.96944 0.86380 0.15531
 H1119 H 1.00887 0.85292 0.21777
 H1120 H 0.99092 0.80236 0.21306
 H1121 H 0.95141 0.81342 0.15067
 H1122 H 0.94260 0.81680 0.20149
 C1123 C 0.49045 0.31863 0.70107
 C1124 C 0.49774 0.34650 0.69983
 C1125 C 0.47031 0.35106 0.69618
 C1126 C 0.46280 0.32355 0.69764
 C1127 C 0.49092 0.31501 0.67291
 C1128 C 0.46350 0.31959 0.66927
 C1129 C 0.49840 0.34253 0.67148
 C1130 C 0.47083 0.34736 0.66802
 C1131 C 0.45863 0.37151 0.70824
 C1132 C 0.44871 0.38854 0.71738
 C1133 C 0.50241 0.29567 0.65886
 C1134 C 0.51192 0.28070 0.64615
 H1135 H 0.49864 0.30657 0.71448
 H1136 H 0.51169 0.35781 0.71251
 H1137 H 0.44801 0.31599 0.70856
 H1138 H 0.44954 0.30830 0.65658
 H1139 H 0.51316 0.35014 0.66057
 H1140 H 0.46267 0.35939 0.65455
 C1141 C 0.45449 0.65261 0.81731
 C1142 C 0.45355 0.64194 0.79018
 C1143 C 0.46755 0.62023 0.79870
 C1144 C 0.46839 0.63061 0.82572
 C1145 C 0.47932 0.66669 0.81407
 C1146 C 0.49334 0.64501 0.82261
 C1147 C 0.47849 0.65638 0.78702
 C1148 C 0.49242 0.63421 0.79540
 C1149 C 0.45960 0.59447 0.79086
 C1150 C 0.45171 0.57350 0.78507
 C1151 C 0.48445 0.69249 0.82351
 C1152 C 0.48724 0.71352 0.83223
 H1153 H 0.43892 0.66041 0.82640
 H1154 H 0.43710 0.64042 0.77677
 H1155 H 0.46416 0.61977 0.84157
 H1156 H 0.50978 0.64657 0.83604
 H1157 H 0.48272 0.66728 0.77121
 H1158 H 0.50793 0.62631 0.78629
 C1159 C -0.04687 0.15406 0.31240
 C1160 C -0.04303 0.14239 0.28640
 C1161 C -0.03256 0.12029 0.29830
 C1162 C -0.03649 0.13166 0.32418
 C1163 C -0.02064 0.16666 0.31388
 C1164 C -0.01015 0.14457 0.32579
 C1165 C -0.01667 0.15538 0.28797
 C1166 C -0.00628 0.13279 0.29973
 C1167 C -0.04058 0.09457 0.29036
 C1168 C -0.04854 0.07362 0.28452
 C1169 C -0.01543 0.19243 0.32345
 C1170 C -0.01257 0.21341 0.33227
 H1171 H -0.06353 0.16304 0.31770
 H1172 H -0.05665 0.14123 0.27012
 H1173 H -0.04471 0.12167 0.33900
 H1174 H 0.00344 0.14576 0.34208
 H1175 H -0.00845 0.16544 0.27320
 H1176 H 0.01032 0.12373 0.29442
 C1177 C 0.06858 0.33941 0.30421
 C1178 C 0.06985 0.34111 0.27605
 C1179 C 0.06201 0.36759 0.27889
 C1180 C 0.06094 0.36616 0.30684
 C1181 C 0.04126 0.33015 0.29963
 C1182 C 0.03350 0.35666 0.30241
 C1183 C 0.04226 0.33148 0.27166
 C1184 C 0.03469 0.35835 0.27430
 C1185 C 0.07371 0.38930 0.26885
 C1186 C 0.08371 0.40780 0.26218
 C1187 C 0.02926 0.31053 0.31253
 C1188 C 0.01875 0.29585 0.32439
 H1189 H 0.08239 0.33141 0.31662
 H1190 H 0.08492 0.33498 0.26505
 H1191 H 0.06869 0.38064 0.32122
 H1192 H 0.01845 0.36288 0.31341
 H1193 H 0.03448 0.31695 0.25735
 H1194 H 0.02088 0.36638 0.26191
 C1195 C 0.54550 0.85680 0.81201
 C1196 C 0.57205 0.85827 0.80381
 C1197 C 0.56238 0.86788 0.77940
 C1198 C 0.53598 0.86665 0.78749
 C1199 C 0.54138 0.83039 0.79987
 C1200 C 0.53166 0.83995 0.77545
 C1201 C 0.56779 0.83156 0.79181
 C1202 C 0.55831 0.84150 0.76715
 C1203 C 0.57420 0.88959 0.76949
 C1204 C 0.58429 0.90810 0.76291
 C1205 C 0.52925 0.81074 0.81264
 C1206 C 0.51863 0.79603 0.82438
 H1207 H 0.54016 0.86292 0.83061
 H1208 H 0.58876 0.86606 0.81539
 H1209 H 0.52301 0.88129 0.78562
 H1210 H 0.51492 0.83214 0.76392
 H1211 H 0.58073 0.81691 0.79372
 H1212 H 0.56370 0.83549 0.74855
 C1213 C 0.65209 0.57611 0.14865
 C1214 C 0.68006 0.58148 0.14676
 C1215 C 0.67750 0.56735 0.12117
 C1216 C 0.64965 0.56209 0.12280
 C1217 C 0.65723 0.55195 0.16022
 C1218 C 0.65463 0.53777 0.13466
 C1219 C 0.68509 0.55721 0.15862
 C1220 C 0.68272 0.54317 0.13266
 C1221 C 0.68842 0.57725 0.09981
 C1222 C 0.69709 0.58668 0.08272
 C1223 C 0.64536 0.54476 0.18216
 C1224 C 0.63496 0.54025 0.20026
 H1225 H 0.63939 0.58961 0.15544
 H1226 H 0.69061 0.59957 0.15153
 H1227 H 0.63519 0.56419 0.10787
 H1228 H 0.64405 0.51969 0.12994
 H1229 H 0.69953 0.55512 0.17358
 H1230 H 0.69544 0.52972 0.12581
 C1231 C 0.18523 1.05507 0.65959
 C1232 C 0.18203 1.04133 0.63349
 C1233 C 0.17752 1.06587 0.62240
 C1234 C 0.18090 1.07970 0.64814
 C1235 C 0.15734 1.05076 0.66161
 C1236 C 0.15290 1.07527 0.65045
 C1237 C 0.15391 1.03687 0.63590
 C1238 C 0.14964 1.06155 0.62446
 C1239 C 0.18840 1.07561 0.60094
 C1240 C 0.19704 1.08490 0.58377
 C1241 C 0.14551 1.04370 0.68362
 C1242 C 0.13515 1.03930 0.70177
 H1243 H 0.19973 1.05232 0.67428
 H1244 H 0.19413 1.02747 0.62624
 H1245 H 0.19210 1.09743 0.65296
 H1246 H 0.14082 1.08919 0.65763
 H1247 H 0.14269 1.01916 0.63113
 H1248 H 0.13511 1.06431 0.60979
 C1249 C 0.20012 0.98438 0.81642
 C1250 C 0.20406 0.99529 0.84363
 C1251 C 0.19632 0.96982 0.85213
 C1252 C 0.19261 0.95870 0.82529
 C1253 C 0.17303 0.99040 0.81599
 C1254 C 0.16534 0.96494 0.82452
 C1255 C 0.17677 1.00148 0.84284
 C1256 C 0.16925 0.97587 0.85161
 C1257 C 0.20840 0.95814 0.87262
 C1258 C 0.21755 0.94820 0.88968
 C1259 C 0.15898 1.00185 0.79659
 C1260 C 0.14626 1.01133 0.78156
 H1261 H 0.21263 0.98800 0.80171
 H1262 H 0.22011 1.00764 0.85175
 H1263 H 0.19927 0.94096 0.81832
 H1264 H 0.14929 0.95257 0.81643
 H1265 H 0.17010 1.01921 0.84984
 H1266 H 0.15668 0.97228 0.86629
 C1267 C 0.67273 0.49973 0.34184
 C1268 C 0.66817 0.47254 0.34769
 C1269 C 0.69616 0.47064 0.35051
 C1270 C 0.70092 0.49769 0.34494
 C1271 C 0.67286 0.49120 0.31437
 C1272 C 0.70086 0.48934 0.31712
 C1273 C 0.66812 0.46415 0.31997
 C1274 C 0.69633 0.46206 0.32305
 C1275 C 0.70824 0.45898 0.37102
 C1276 C 0.71740 0.44907 0.38809
 C1277 C 0.65880 0.50265 0.29498
 C1278 C 0.64607 0.51214 0.27996
 H1279 H 0.66288 0.51535 0.34936
 H1280 H 0.65484 0.46554 0.36047
 H1281 H 0.71454 0.51134 0.35546
 H1282 H 0.71414 0.49636 0.30430
 H1283 H 0.65450 0.45049 0.30948
 H1284 H 0.70618 0.44643 0.31558
 C1285 C 0.78637 0.47812 0.65663
 C1286 C 0.79435 0.49241 0.63452
 C1287 C 0.79815 0.46777 0.62036
 C1288 C 0.79002 0.45342 0.64200
 C1289 C 0.81344 0.47945 0.66690
 C1290 C 0.81717 0.45485 0.65264
 C1291 C 0.82160 0.49384 0.64529
 C1292 C 0.82520 0.46912 0.63071
 C1293 C 0.79036 0.45988 0.59454
 C1294 C 0.78462 0.45202 0.57352
 C1295 C 0.82287 0.48452 0.69276
 C1296 C 0.83158 0.48727 0.71381
 H1297 H 0.77051 0.48190 0.66759
 H1298 H 0.78487 0.50777 0.62674
 H1299 H 0.77696 0.43671 0.64039
 H1300 H 0.82664 0.43944 0.66033
 H1301 H 0.83467 0.51053 0.64695
 H1302 H 0.84110 0.46533 0.61980
 C1303 C 0.31758 -0.04495 0.15204
 C1304 C 0.29039 -0.04625 0.14156
 C1305 C 0.29846 -0.03197 0.11984
 C1306 C 0.32555 -0.03076 0.13004
 C1307 C 0.31405 -0.02030 0.16632
 C1308 C 0.32215 -0.00599 0.14464
 C1309 C 0.28693 -0.02150 0.15619
 C1310 C 0.29486 -0.00728 0.13401
 C1311 C 0.29051 -0.03986 0.09406
 C1312 C 0.28466 -0.04772 0.07307
 C1313 C 0.32363 -0.01523 0.19213
 C1314 C 0.33245 -0.01249 0.21314
 H1315 H 0.32701 -0.06040 0.15969
 H1316 H 0.27725 -0.06290 0.14003
 H1317 H 0.34135 -0.03464 0.11904
 H1318 H 0.33531 0.01065 0.14620
 H1319 H 0.27117 -0.01762 0.16724
 H1320 H 0.28542 0.00811 0.12627
 C1321 C 0.30306 0.03324 0.35678
 C1322 C 0.30724 0.06072 0.36615
 C1323 C 0.27931 0.06152 0.36772
 C1324 C 0.27497 0.03415 0.35860
 C1325 C 0.30002 0.04087 0.33020
 C1326 C 0.27206 0.04160 0.33166
 C1327 C 0.30435 0.06823 0.33934
 C1328 C 0.27621 0.06922 0.34116
 C1329 C 0.26929 0.07316 0.38946
 C1330 C 0.26262 0.08313 0.40798
 C1331 C 0.31289 0.02892 0.31053
 C1332 C 0.32470 0.01845 0.29580
 H1333 H 0.31426 0.01834 0.36303
 H1334 H 0.32163 0.06865 0.38056
 H1335 H 0.26279 0.02026 0.36676
 H1336 H 0.25775 0.03363 0.31720
 H1337 H 0.31654 0.08212 0.33120
 H1338 H 0.26500 0.08415 0.33500
 C1339 C 0.80345 0.53439 0.85775
 C1340 C 0.80619 0.56220 0.86594
 C1341 C 0.77827 0.56143 0.86837
 C1342 C 0.77539 0.53373 0.86043
 C1343 C 0.79893 0.54072 0.83085
 C1344 C 0.77099 0.53987 0.83318
 C1345 C 0.80182 0.56841 0.83880
 C1346 C 0.77369 0.56783 0.84150
 C1347 C 0.76829 0.57311 0.89011
 C1348 C 0.76167 0.58312 0.90864
 C1349 C 0.81178 0.52874 0.81119
 C1350 C 0.82360 0.51826 0.79647
 H1351 H 0.81584 0.52054 0.86426
 H1352 H 0.82059 0.57146 0.87964
 H1353 H 0.76442 0.51960 0.86956
 H1354 H 0.75667 0.53058 0.81943
 H1355 H 0.81281 0.58254 0.82969
 H1356 H 0.76128 0.58171 0.83509
 C1357 C 0.14926 0.65243 0.57556
 C1358 C 0.14710 0.68039 0.58067
 C1359 C 0.12151 0.67750 0.56656
 C1360 C 0.12340 0.64966 0.56155
 C1361 C 0.16069 0.65747 0.55130
 C1362 C 0.13512 0.65453 0.53713
 C1363 C 0.15883 0.68531 0.55630
 C1364 C 0.13286 0.68260 0.54227
 C1365 C 0.10006 0.68829 0.57637
 C1366 C 0.08291 0.69686 0.58572
 C1367 C 0.18270 0.64573 0.54418
 C1368 C 0.20086 0.63544 0.53973
 H1369 H 0.15621 0.63993 0.58921
 H1370 H 0.15183 0.69112 0.59869
 H1371 H 0.10862 0.63511 0.56382
 H1372 H 0.13045 0.64377 0.51912
 H1373 H 0.17363 0.69984 0.55405
 H1374 H 0.12585 0.69513 0.52868
 C1375 C 0.63611 0.15346 1.03740
 C1376 C 0.62506 0.14957 1.06236
 C1377 C 0.62278 0.17745 1.06620
 C1378 C 0.63346 0.18158 1.04137
 C1379 C 0.66193 0.15733 1.05099
 C1380 C 0.65969 0.18522 1.05482
 C1381 C 0.65117 0.15327 1.07579
 C1382 C 0.64863 0.18127 1.07974
 C1383 C 0.60134 0.18829 1.07597
 C1384 C 0.58419 0.19690 1.08528
 C1385 C 0.68392 0.14553 1.04390
 C1386 C 0.70206 0.13519 1.03948
 H1387 H 0.63121 0.14190 1.01989
 H1388 H 0.61061 0.13502 1.06556
 H1389 H 0.62591 0.19334 1.02732
 H1390 H 0.67417 0.19975 1.05163
 H1391 H 0.65866 0.14153 1.08990
 H1392 H 0.65358 0.19281 1.09726
 C1393 C 0.84356 0.17234 0.99857
 C1394 C 0.84912 0.16798 0.97126
 C1395 C 0.85218 0.19600 0.96961
 C1396 C 0.84690 0.20056 0.99679
 C1397 C 0.81608 0.17282 0.99028
 C1398 C 0.81907 0.20085 0.98867
 C1399 C 0.82140 0.16828 0.96311
 C1400 C 0.82472 0.19651 0.96127
 C1401 C 0.87265 0.20803 0.95790
 C1402 C 0.88969 0.21715 0.94794
 C1403 C 0.79672 0.15883 1.00179
 C1404 C 0.78171 0.14617 1.01134
 H1405 H 0.85110 0.16226 1.01404
 H1406 H 0.86169 0.15458 0.96400
 H1407 H 0.85763 0.21396 1.01050
 H1408 H 0.80647 0.21420 0.99595
 H1409 H 0.81069 0.15488 0.94938
 H1410 H 0.81722 0.20661 0.94579
 C1411 C 0.32038 0.70150 0.49265
 C1412 C 0.34816 0.69766 0.49745
 C1413 C 0.35069 0.69662 0.46952
 C1414 C 0.32326 0.70068 0.46449
 C1415 C 0.31469 0.67342 0.49030
 C1416 C 0.31724 0.67238 0.46238
 C1417 C 0.34213 0.66940 0.49528
 C1418 C 0.34494 0.66854 0.46722
 C1419 C 0.37112 0.70866 0.45776
 C1420 C 0.38814 0.71777 0.44780
 C1421 C 0.29538 0.65940 0.50188
 C1422 C 0.28044 0.64672 0.51148
 H1423 H 0.31003 0.71489 0.50323
 H1424 H 0.36111 0.70818 0.51174
 H1425 H 0.31575 0.71371 0.45169
 H1426 H 0.30430 0.66185 0.44809
 H1427 H 0.34969 0.65638 0.50807
 H1428 H 0.35525 0.65510 0.45667
 C1429 C 0.65570 0.78733 0.47943
 C1430 C 0.63333 0.79644 0.49254
 C1431 C 0.61979 0.79876 0.46719
 C1432 C 0.64169 0.78952 0.45400
 C1433 C 0.66619 0.81421 0.47925
 C1434 C 0.65254 0.81647 0.45394
 C1435 C 0.64432 0.82348 0.49247
 C1436 C 0.63036 0.82561 0.46704
 C1437 C 0.59406 0.79090 0.45909
 C1438 C 0.57311 0.78511 0.45107
 C1439 C 0.69198 0.82371 0.48451
 C1440 C 0.71299 0.83246 0.48738
 H1441 H 0.66642 0.77171 0.48460
 H1442 H 0.62510 0.78811 0.50833
 H1443 H 0.64034 0.77547 0.43809
 H1444 H 0.66068 0.82479 0.43809
 H1445 H 0.64570 0.83754 0.50836
 H1446 H 0.61970 0.84128 0.46186
 C1447 C 0.15566 0.28613 -0.01994
 C1448 C 0.13343 0.29542 -0.00673
 C1449 C 0.11973 0.29760 -0.03204
 C1450 C 0.14150 0.28817 -0.04532
 C1451 C 0.16623 0.31295 -0.02037
 C1452 C 0.15243 0.31507 -0.04564
 C1453 C 0.14449 0.32241 -0.00707
 C1454 C 0.13038 0.32440 -0.03245
 C1455 C 0.09395 0.28978 -0.03993
 C1456 C 0.07295 0.28401 -0.04778
 C1457 C 0.19205 0.32239 -0.01531
 C1458 C 0.21308 0.33111 -0.01257
 H1459 H 0.16636 0.27050 -0.01472
 H1460 H 0.12528 0.28725 0.00918
 H1461 H 0.14001 0.27401 -0.06114
 H1462 H 0.16048 0.32322 -0.06161
 H1463 H 0.14601 0.33658 0.00874
 H1464 H 0.11973 0.34006 -0.03767
 C1465 C 0.33279 0.27078 0.04003
 C1466 C 0.36000 0.27542 0.03397
 C1467 C 0.36789 0.27821 0.06172
 C1468 C 0.34106 0.27337 0.06804
 C1469 C 0.33024 0.29868 0.04099
 C1470 C 0.33813 0.30147 0.06873
 C1471 C 0.35710 0.30344 0.03475
 C1472 C 0.36523 0.30609 0.06261
 C1473 C 0.38969 0.26833 0.07341
 C1474 C 0.40827 0.26178 0.08339
 C1475 C 0.31051 0.31144 0.02899
 C1476 C 0.29573 0.32319 0.01847
 H1477 H 0.31917 0.25640 0.03063
 H1478 H 0.36923 0.26461 0.01981
 H1479 H 0.33472 0.26084 0.08185
 H1480 H 0.32892 0.31230 0.08289
 H1481 H 0.36352 0.31597 0.02096
 H1482 H 0.37880 0.32054 0.07197
 C1483 C 0.83860 0.80378 0.56870
 C1484 C 0.84058 0.77563 0.56945
 C1485 C 0.86720 0.77900 0.56208
 C1486 C 0.86549 0.80694 0.56154
 C1487 C 0.82978 0.79971 0.54121
 C1488 C 0.85644 0.80301 0.53392
 C1489 C 0.83139 0.77175 0.54169
 C1490 C 0.85840 0.77492 0.53459
 C1491 C 0.88889 0.76898 0.57385
 C1492 C 0.90737 0.76231 0.58390
 C1493 C 0.81017 0.81258 0.52915
 C1494 C 0.79549 0.82442 0.51861
 H1495 H 0.83025 0.81576 0.58261
 H1496 H 0.83432 0.76421 0.58418
 H1497 H 0.87974 0.82132 0.56977
 H1498 H 0.86278 0.81443 0.51921
 H1499 H 0.81709 0.75744 0.53342
 H1500 H 0.86677 0.76296 0.52068
   
