data_POSCAR
  _audit_creation_date              2014-09-24
  _audit_creation_method            'ToBaCCo'
  _symmetry_space_group_name_H-M    'P1'
  _symmetry_Int_Tables_number       1
  _symmetry_cell_setting            triclinic
  loop_
  _symmetry_equiv_pos_as_xyz
 x,y,z
_cell_length_a 55.2521
_cell_length_b 55.2249
_cell_length_c 55.1902
_cell_angle_alpha 90.024500
_cell_angle_beta 89.970800
_cell_angle_gamma 89.974000
loop_
  _atom_site_label
  _atom_site_type_symbol
  _atom_site_fract_x
  _atom_site_fract_y
  _atom_site_fract_z
O1 O 0.87562 0.15855 0.81254
 O2 O 0.90169 0.12481 0.80537
 O3 O 0.81231 0.12391 0.84211
 O4 O 0.80336 0.10043 0.87360
 O5 O 0.84194 0.18806 0.87604
 O6 O 0.87566 0.19474 0.90230
 O7 O 0.87616 0.06218 0.90849
 O8 O 0.84782 0.05572 0.87698
 O9 O 0.93775 0.09141 0.87587
 O10 O 0.94528 0.12599 0.84853
 O11 O 0.90871 0.12399 0.93786
 O12 O 0.87430 0.15131 0.94558
 O13 O 0.87626 0.09128 0.93770
 O14 O 0.84840 0.12587 0.94517
 O15 O 0.93780 0.12396 0.90866
 O16 O 0.94505 0.15179 0.87401
 O17 O 0.90866 0.06226 0.87619
 O18 O 0.87526 0.05505 0.84813
 O19 O 0.87591 0.18775 0.84171
 O20 O 0.90256 0.19445 0.87549
 O21 O 0.81269 0.15901 0.87582
 O22 O 0.80727 0.12518 0.90421
 O23 O 0.84132 0.12449 0.81275
 O24 O 0.87503 0.09790 0.80575
 Zr25 Zr 0.87418 0.12580 0.83199
 O26 O 0.89696 0.10323 0.85258
 Zr27 Zr 0.83184 0.12601 0.87475
 O28 O 0.85264 0.10303 0.89705
 Zr29 Zr 0.87456 0.16839 0.87453
 O30 O 0.89709 0.14753 0.89714
 Zr31 Zr 0.87592 0.08170 0.87583
 O32 O 0.85284 0.10237 0.85324
 Zr33 Zr 0.91843 0.12428 0.87586
 O34 O 0.89780 0.14714 0.85301
 Zr35 Zr 0.87592 0.12420 0.91850
 O36 O 0.85318 0.14734 0.89803
 O37 O 0.85185 0.14843 0.85214
 O38 O 0.89861 0.10154 0.89856
 C39 C 0.87637 0.18070 0.81955
 C40 C 0.81922 0.12355 0.81989
 C41 C 0.81977 0.18114 0.87653
 C42 C 0.87634 0.06915 0.93066
 C43 C 0.93080 0.06924 0.87611
 C44 C 0.93084 0.12386 0.93083
 H45 H 0.90700 0.09337 0.84153
 H46 H 0.90708 0.15847 0.90717
 H47 H 0.84149 0.15874 0.84176
 H48 H 0.84180 0.09278 0.90695
 H49 H 0.83539 0.06102 0.86519
 H50 H 0.80872 0.08603 0.88278
 H51 H 0.94193 0.16337 0.88733
 H52 H 0.91523 0.18873 0.86417
 H53 H 0.88807 0.05890 0.83623
 H54 H 0.86385 0.08514 0.81153
 H55 H 0.88698 0.16342 0.94195
 H56 H 0.86476 0.18893 0.91529
 H57 H 0.91480 0.13551 0.81124
 H58 H 0.94174 0.11319 0.83650
 H59 H 0.81223 0.13812 0.91559
 H60 H 0.83687 0.11255 0.94200
 O61 O 0.84121 0.68692 0.37518
 O62 O 0.87481 0.69412 0.40142
 O63 O 0.87624 0.65771 0.31183
 O64 O 0.89990 0.62636 0.30284
 O65 O 0.81217 0.62345 0.34117
 O66 O 0.80545 0.59709 0.37483
 O67 O 0.93797 0.59138 0.37574
 O68 O 0.94438 0.62300 0.34743
 O69 O 0.90834 0.62372 0.43737
 O70 O 0.87362 0.65088 0.44488
 O71 O 0.87619 0.56173 0.40802
 O72 O 0.84906 0.55401 0.37345
 O73 O 0.90901 0.56209 0.37565
 O74 O 0.87459 0.55459 0.34762
 O75 O 0.87598 0.59082 0.43722
 O76 O 0.84798 0.62529 0.44451
 O77 O 0.93761 0.62359 0.40833
 O78 O 0.94486 0.65172 0.37503
 O79 O 0.81216 0.65765 0.37527
 O80 O 0.80551 0.62379 0.40183
 O81 O 0.84133 0.62388 0.31199
 O82 O 0.87528 0.59566 0.30656
 O83 O 0.87538 0.68695 0.34096
 O84 O 0.90178 0.69396 0.37480
 Zr85 Zr 0.87404 0.66761 0.37379
 O86 O 0.89660 0.64705 0.39658
 Zr87 Zr 0.87422 0.62501 0.33126
 O88 O 0.89720 0.60274 0.35207
 Zr89 Zr 0.83167 0.62494 0.37389
 O90 O 0.85253 0.60235 0.39644
 Zr91 Zr 0.91832 0.62396 0.37550
 O92 O 0.89764 0.64654 0.35242
 Zr93 Zr 0.87558 0.62366 0.41793
 O94 O 0.85270 0.64646 0.39729
 Zr95 Zr 0.87603 0.58116 0.37525
 O96 O 0.85290 0.60160 0.35248
 O97 O 0.85161 0.64746 0.35129
 O98 O 0.89849 0.60111 0.39809
 C99 C 0.81909 0.67983 0.37584
 C100 C 0.87646 0.67988 0.31883
 C101 C 0.81919 0.62305 0.31900
 C102 C 0.93110 0.56920 0.37583
 C103 C 0.93051 0.62360 0.43046
 C104 C 0.87620 0.56869 0.43018
 H105 H 0.90636 0.65810 0.40669
 H106 H 0.84159 0.59226 0.40638
 H107 H 0.84130 0.65782 0.34092
 H108 H 0.90753 0.59292 0.34123
 H109 H 0.93909 0.63482 0.33503
 H110 H 0.91431 0.61720 0.30821
 H111 H 0.83646 0.61196 0.44130
 H112 H 0.81112 0.63509 0.41457
 H113 H 0.94084 0.66361 0.38780
 H114 H 0.91461 0.68827 0.36364
 H115 H 0.83690 0.55754 0.38613
 H116 H 0.81137 0.58415 0.36390
 H117 H 0.86403 0.68820 0.41447
 H118 H 0.88637 0.66296 0.44142
 H119 H 0.86240 0.58421 0.31147
 H120 H 0.88796 0.55783 0.33614
 O121 O 0.37572 0.15803 0.31239
 O122 O 0.40199 0.12432 0.30539
 O123 O 0.31246 0.12320 0.34179
 O124 O 0.30349 0.09968 0.37325
 O125 O 0.34181 0.18743 0.37581
 O126 O 0.37541 0.19429 0.40210
 O127 O 0.37620 0.06170 0.40852
 O128 O 0.34795 0.05520 0.37685
 O129 O 0.43782 0.09112 0.37599
 O130 O 0.44541 0.12562 0.34873
 O131 O 0.40853 0.12362 0.43789
 O132 O 0.37401 0.15087 0.44548
 O133 O 0.37613 0.09082 0.43769
 O134 O 0.34817 0.12538 0.44500
 O135 O 0.43770 0.12367 0.40877
 O136 O 0.44493 0.15153 0.37411
 O137 O 0.40881 0.06188 0.37628
 O138 O 0.37561 0.05444 0.34822
 O139 O 0.37583 0.18725 0.34155
 O140 O 0.40243 0.19399 0.37542
 O141 O 0.31264 0.15829 0.37550
 O142 O 0.30717 0.12452 0.40386
 O143 O 0.34156 0.12385 0.31253
 O144 O 0.37536 0.09738 0.30565
 Zr145 Zr 0.37435 0.12527 0.33188
 O146 O 0.39708 0.10278 0.35260
 Zr147 Zr 0.33187 0.12536 0.37450
 O148 O 0.35263 0.10248 0.39694
 Zr149 Zr 0.37447 0.16788 0.37439
 O150 O 0.39696 0.14711 0.39712
 Zr151 Zr 0.37603 0.08120 0.37582
 O152 O 0.35301 0.10179 0.35308
 Zr153 Zr 0.41842 0.12391 0.37592
 O154 O 0.39784 0.14669 0.35295
 Zr155 Zr 0.37579 0.12372 0.41844
 O156 O 0.35307 0.14678 0.39784
 O157 O 0.35189 0.14784 0.35194
 O158 O 0.39860 0.10113 0.39859
 C159 C 0.37638 0.18020 0.31938
 C160 C 0.31944 0.12284 0.31960
 C161 C 0.31967 0.18044 0.37624
 C162 C 0.37627 0.06866 0.43070
 C163 C 0.43091 0.06895 0.37622
 C164 C 0.43068 0.12356 0.43092
 H165 H 0.40719 0.09294 0.34159
 H166 H 0.40689 0.15809 0.40717
 H167 H 0.34153 0.15811 0.34153
 H168 H 0.34178 0.09222 0.40681
 H169 H 0.33560 0.06043 0.36494
 H170 H 0.30882 0.08533 0.38254
 H171 H 0.44178 0.16307 0.38745
 H172 H 0.41511 0.18834 0.36406
 H173 H 0.38827 0.05846 0.33621
 H174 H 0.36422 0.08457 0.31141
 H175 H 0.38669 0.16298 0.44191
 H176 H 0.36456 0.18842 0.41512
 H177 H 0.41499 0.13518 0.31125
 H178 H 0.44183 0.11294 0.33659
 H179 H 0.31210 0.13743 0.41528
 H180 H 0.33670 0.11201 0.44182
 O181 O 0.12478 0.34122 0.31242
 O182 O 0.09857 0.37493 0.30540
 O183 O 0.18805 0.37603 0.34182
 O184 O 0.19707 0.39950 0.37328
 O185 O 0.15859 0.31184 0.37584
 O186 O 0.12495 0.30507 0.40216
 O187 O 0.12430 0.43767 0.40846
 O188 O 0.15263 0.44410 0.37682
 O189 O 0.06271 0.40829 0.37598
 O190 O 0.05512 0.37374 0.34871
 O191 O 0.09193 0.37582 0.43788
 O192 O 0.12639 0.34856 0.44551
 O193 O 0.12431 0.40857 0.43766
 O194 O 0.15228 0.37400 0.44498
 O195 O 0.06278 0.37579 0.40878
 O196 O 0.05549 0.34791 0.37415
 O197 O 0.09177 0.43750 0.37623
 O198 O 0.12504 0.44481 0.34813
 O199 O 0.12460 0.31204 0.34160
 O200 O 0.09797 0.30536 0.37547
 O201 O 0.18780 0.34093 0.37551
 O202 O 0.19327 0.37475 0.40389
 O203 O 0.15898 0.37537 0.31255
 O204 O 0.12521 0.40184 0.30564
 Zr205 Zr 0.12617 0.37399 0.33189
 O206 O 0.10345 0.39654 0.35259
 Zr207 Zr 0.16862 0.37389 0.37452
 O208 O 0.14787 0.39685 0.39692
 Zr209 Zr 0.12596 0.33143 0.37442
 O210 O 0.10348 0.35227 0.39714
 Zr211 Zr 0.12452 0.41812 0.37578
 O212 O 0.14754 0.39747 0.35308
 Zr213 Zr 0.08207 0.37547 0.37592
 O214 O 0.10264 0.35262 0.35297
 Zr215 Zr 0.12467 0.37565 0.41843
 O216 O 0.14737 0.35252 0.39786
 O217 O 0.14859 0.35142 0.35196
 O218 O 0.10191 0.39825 0.39857
 C219 C 0.12409 0.31906 0.31943
 C220 C 0.18109 0.37637 0.31963
 C221 C 0.18074 0.31880 0.37626
 C222 C 0.12418 0.43071 0.43063
 C223 C 0.06966 0.43045 0.37619
 C224 C 0.06979 0.37591 0.43092
 H225 H 0.09337 0.40638 0.34157
 H226 H 0.09353 0.34132 0.40719
 H227 H 0.15894 0.34112 0.34155
 H228 H 0.15872 0.40711 0.40679
 H229 H 0.16499 0.43882 0.36494
 H230 H 0.19173 0.41390 0.38250
 H231 H 0.05865 0.33636 0.38747
 H232 H 0.08530 0.31102 0.36412
 H233 H 0.11232 0.44085 0.33619
 H234 H 0.13636 0.41464 0.31139
 H235 H 0.11373 0.33643 0.44191
 H236 H 0.13582 0.31092 0.41515
 H237 H 0.08554 0.36411 0.31127
 H238 H 0.05869 0.38645 0.33661
 H239 H 0.18834 0.36183 0.41529
 H240 H 0.16373 0.38739 0.44182
 O241 O 0.62467 0.84113 0.31220
 O242 O 0.59865 0.87495 0.30514
 O243 O 0.68800 0.87556 0.34188
 O244 O 0.69691 0.89905 0.37342
 O245 O 0.65817 0.81147 0.37566
 O246 O 0.62443 0.80473 0.40183
 O247 O 0.62420 0.93731 0.40848
 O248 O 0.65262 0.94374 0.37696
 O249 O 0.56260 0.90821 0.37574
 O250 O 0.55495 0.87380 0.34839
 O251 O 0.59147 0.87551 0.43766
 O252 O 0.62586 0.84807 0.44528
 O253 O 0.62400 0.90815 0.43761
 O254 O 0.65177 0.87348 0.44498
 O255 O 0.56242 0.87563 0.40846
 O256 O 0.55525 0.84781 0.37367
 O257 O 0.59175 0.93732 0.37616
 O258 O 0.62512 0.94461 0.34818
 O259 O 0.62430 0.81188 0.34129
 O260 O 0.59753 0.80520 0.37505
 O261 O 0.68747 0.84046 0.37552
 O262 O 0.69299 0.87419 0.40396
 O263 O 0.65903 0.87510 0.31251
 O264 O 0.62537 0.90181 0.30561
 Zr265 Zr 0.62613 0.87384 0.33175
 O266 O 0.60339 0.89639 0.35244
 Zr267 Zr 0.66841 0.87349 0.37452
 O268 O 0.64765 0.89644 0.39692
 Zr269 Zr 0.62561 0.83118 0.37417
 O270 O 0.60310 0.85201 0.39688
 Zr271 Zr 0.62444 0.91785 0.37576
 O272 O 0.64749 0.89720 0.35308
 Zr273 Zr 0.58185 0.87533 0.37565
 O274 O 0.60244 0.85251 0.35270
 Zr275 Zr 0.62430 0.87527 0.41831
 O276 O 0.64700 0.85214 0.39774
 O277 O 0.64839 0.85114 0.35185
 O278 O 0.60168 0.89800 0.39842
 C279 C 0.62388 0.81896 0.31914
 C280 C 0.68113 0.87597 0.31966
 C281 C 0.68034 0.81835 0.37619
 C282 C 0.62398 0.93031 0.43064
 C283 C 0.56961 0.93035 0.37604
 C284 C 0.56935 0.87569 0.43063
 H285 H 0.59337 0.90629 0.34142
 H286 H 0.59308 0.84107 0.40687
 H287 H 0.65874 0.84082 0.34145
 H288 H 0.65849 0.90664 0.40685
 H289 H 0.66501 0.93846 0.36510
 H290 H 0.69160 0.91341 0.38272
 H291 H 0.55823 0.83629 0.38705
 H292 H 0.58492 0.81093 0.36368
 H293 H 0.61245 0.94069 0.33617
 H294 H 0.63660 0.91451 0.31141
 H295 H 0.61309 0.83605 0.44167
 H296 H 0.63524 0.81054 0.41489
 H297 H 0.58553 0.86421 0.31096
 H298 H 0.55865 0.88646 0.33628
 H299 H 0.68794 0.86130 0.41534
 H300 H 0.66334 0.88679 0.44184
 O301 O 0.62480 0.65837 0.18699
 O302 O 0.59862 0.62468 0.19407
 O303 O 0.68807 0.62354 0.15749
 O304 O 0.69700 0.59997 0.12601
 O305 O 0.65863 0.68773 0.12353
 O306 O 0.62497 0.69455 0.09726
 O307 O 0.62419 0.56197 0.09092
 O308 O 0.65251 0.55546 0.12249
 O309 O 0.56263 0.59142 0.12354
 O310 O 0.55512 0.62601 0.15085
 O311 O 0.59181 0.62389 0.06158
 O312 O 0.62631 0.65110 0.05393
 O313 O 0.62420 0.59107 0.06174
 O314 O 0.65214 0.62558 0.05435
 O315 O 0.56269 0.62396 0.09075
 O316 O 0.55547 0.65182 0.12540
 O317 O 0.59167 0.56217 0.12324
 O318 O 0.62497 0.55480 0.15125
 O319 O 0.62463 0.68756 0.15784
 O320 O 0.59802 0.69432 0.12401
 O321 O 0.68781 0.65859 0.12377
 O322 O 0.69323 0.62476 0.09540
 O323 O 0.65902 0.62422 0.18680
 O324 O 0.62526 0.59773 0.19373
 Zr325 Zr 0.62619 0.62560 0.16751
 O326 O 0.60342 0.60310 0.14686
 Zr327 Zr 0.66860 0.62566 0.12481
 O328 O 0.64779 0.60275 0.10244
 Zr329 Zr 0.62597 0.66818 0.12500
 O330 O 0.60344 0.64739 0.10233
 Zr331 Zr 0.62444 0.58150 0.12361
 O332 O 0.64752 0.60210 0.14627
 Zr333 Zr 0.58202 0.62422 0.12357
 O334 O 0.60266 0.64702 0.14648
 Zr335 Zr 0.62458 0.62398 0.08098
 O336 O 0.64734 0.64706 0.10151
 O337 O 0.64860 0.64816 0.14741
 O338 O 0.60182 0.60141 0.10087
 C339 C 0.62411 0.68053 0.18000
 C340 C 0.68113 0.62322 0.17969
 C341 C 0.68078 0.68074 0.12305
 C342 C 0.62406 0.56892 0.06874
 C343 C 0.56955 0.56925 0.12333
 C344 C 0.56968 0.62384 0.06859
 H345 H 0.59334 0.59328 0.15789
 H346 H 0.59348 0.65837 0.09230
 H347 H 0.65897 0.65844 0.15780
 H348 H 0.65862 0.59247 0.09255
 H349 H 0.66491 0.56071 0.13434
 H350 H 0.69165 0.58561 0.11675
 H351 H 0.55863 0.66338 0.11209
 H352 H 0.58534 0.68866 0.13534
 H353 H 0.61229 0.55880 0.16324
 H354 H 0.63643 0.58494 0.18797
 H355 H 0.61364 0.66323 0.05754
 H356 H 0.63584 0.68869 0.08426
 H357 H 0.58558 0.63549 0.18822
 H358 H 0.55866 0.61325 0.16291
 H359 H 0.68828 0.63767 0.08399
 H360 H 0.66363 0.61221 0.05752
 O361 O 0.37484 0.84214 0.68753
 O362 O 0.40107 0.87582 0.69453
 O363 O 0.31159 0.87702 0.65810
 O364 O 0.30270 0.90057 0.62662
 O365 O 0.34096 0.81274 0.62414
 O366 O 0.37459 0.80584 0.59782
 O367 O 0.37553 0.93843 0.59135
 O368 O 0.34720 0.94498 0.62297
 O369 O 0.43705 0.90895 0.62391
 O370 O 0.44458 0.87443 0.65119
 O371 O 0.40782 0.87640 0.56200
 O372 O 0.37326 0.84921 0.55445
 O373 O 0.37547 0.90928 0.56218
 O374 O 0.34748 0.87479 0.55488
 O375 O 0.43695 0.87635 0.59112
 O376 O 0.44412 0.84852 0.62582
 O377 O 0.40806 0.93823 0.62364
 O378 O 0.37478 0.94570 0.65167
 O379 O 0.37497 0.81291 0.65838
 O380 O 0.40157 0.80610 0.62452
 O381 O 0.31181 0.84192 0.62441
 O382 O 0.30640 0.87569 0.59602
 O383 O 0.34065 0.87634 0.68737
 O384 O 0.37446 0.90281 0.69422
 Zr385 Zr 0.37348 0.87489 0.66802
 O386 O 0.39626 0.89733 0.64730
 Zr387 Zr 0.33106 0.87483 0.62539
 O388 O 0.35187 0.89768 0.60295
 Zr389 Zr 0.37364 0.83226 0.62553
 O390 O 0.39618 0.85298 0.60280
 Zr391 Zr 0.37526 0.91894 0.62406
 O392 O 0.35218 0.89839 0.64679
 Zr393 Zr 0.41763 0.87617 0.62399
 O394 O 0.39699 0.85343 0.64696
 Zr395 Zr 0.37505 0.87639 0.58146
 O396 O 0.35229 0.85337 0.60207
 O397 O 0.35104 0.85234 0.64796
 O398 O 0.39785 0.89897 0.60130
 C399 C 0.37550 0.81997 0.68055
 C400 C 0.31854 0.87736 0.68030
 C401 C 0.31881 0.81976 0.62370
 C402 C 0.37564 0.93143 0.56918
 C403 C 0.43016 0.93113 0.62370
 C404 C 0.42996 0.87644 0.56897
 H405 H 0.40636 0.90717 0.65830
 H406 H 0.40612 0.84198 0.59276
 H407 H 0.34067 0.84208 0.65838
 H408 H 0.34105 0.90795 0.59307
 H409 H 0.33482 0.93977 0.63486
 H410 H 0.30805 0.91489 0.61729
 H411 H 0.44099 0.83697 0.61248
 H412 H 0.41426 0.81175 0.63584
 H413 H 0.38742 0.94166 0.66368
 H414 H 0.36329 0.91560 0.68847
 H415 H 0.38593 0.83708 0.55803
 H416 H 0.36372 0.81170 0.58482
 H417 H 0.41409 0.86498 0.68867
 H418 H 0.44100 0.88713 0.66331
 H419 H 0.31135 0.86277 0.58461
 H420 H 0.33600 0.88817 0.55807
 O421 O 0.87556 0.34135 0.68768
 O422 O 0.90162 0.37511 0.69475
 O423 O 0.81225 0.37595 0.65808
 O424 O 0.80325 0.39934 0.62656
 O425 O 0.84196 0.31174 0.62422
 O426 O 0.87570 0.30500 0.59799
 O427 O 0.87603 0.43756 0.59155
 O428 O 0.84764 0.44405 0.62308
 O429 O 0.93762 0.40838 0.62421
 O430 O 0.94519 0.37386 0.65158
 O431 O 0.90864 0.37571 0.56229
 O432 O 0.87428 0.34837 0.55461
 O433 O 0.87616 0.40840 0.56239
 O434 O 0.84833 0.37378 0.55502
 O435 O 0.93772 0.37580 0.59146
 O436 O 0.94500 0.34803 0.62613
 O437 O 0.90850 0.43754 0.62385
 O438 O 0.87510 0.44482 0.65188
 O439 O 0.87589 0.31210 0.65855
 O440 O 0.90258 0.30536 0.62477
 O441 O 0.81268 0.34079 0.62443
 O442 O 0.80721 0.37456 0.59599
 O443 O 0.84125 0.37541 0.68742
 O444 O 0.87492 0.40199 0.69437
 Zr445 Zr 0.87411 0.37407 0.66817
 O446 O 0.89685 0.39661 0.64752
 Zr447 Zr 0.83178 0.37379 0.62543
 O448 O 0.85254 0.39673 0.60307
 Zr449 Zr 0.87454 0.33141 0.62570
 O450 O 0.89705 0.35223 0.60303
 Zr451 Zr 0.87578 0.41810 0.62424
 O452 O 0.85274 0.39745 0.64689
 Zr453 Zr 0.91834 0.37552 0.62427
 O454 O 0.89775 0.35269 0.64718
 Zr455 Zr 0.87585 0.37552 0.58165
 O456 O 0.85314 0.35241 0.60218
 O457 O 0.85181 0.35140 0.64807
 O458 O 0.89850 0.39821 0.60154
 C459 C 0.87634 0.31919 0.68070
 C460 C 0.81916 0.37636 0.68029
 C461 C 0.81978 0.31866 0.62372
 C462 C 0.87622 0.43055 0.56939
 C463 C 0.93063 0.43054 0.62395
 C464 C 0.93076 0.37586 0.56930
 H465 H 0.90687 0.40649 0.65855
 H466 H 0.90706 0.34127 0.59302
 H467 H 0.84145 0.34111 0.65847
 H468 H 0.84169 0.40695 0.59316
 H469 H 0.83523 0.43877 0.63491
 H470 H 0.80860 0.41375 0.61736
 H471 H 0.94190 0.33642 0.61284
 H472 H 0.91523 0.31109 0.63609
 H473 H 0.88786 0.44095 0.66382
 H474 H 0.86374 0.41475 0.68858
 H475 H 0.88697 0.33627 0.55825
 H476 H 0.86482 0.31079 0.58497
 H477 H 0.91472 0.36435 0.68891
 H478 H 0.94162 0.38665 0.66361
 H479 H 0.81219 0.36161 0.58463
 H480 H 0.83681 0.38713 0.55815
 O481 O 0.81286 0.87526 0.15858
 O482 O 0.80581 0.90153 0.12489
 O483 O 0.84208 0.81193 0.12357
 O484 O 0.87341 0.80294 0.09989
 O485 O 0.87625 0.84123 0.18774
 O486 O 0.90255 0.87483 0.19457
 O487 O 0.90865 0.87571 0.06187
 O488 O 0.87699 0.84743 0.05543
 O489 O 0.87631 0.93734 0.09149
 O490 O 0.84915 0.94494 0.12612
 O491 O 0.93817 0.90794 0.12379
 O492 O 0.94577 0.87337 0.15097
 O493 O 0.93785 0.87560 0.09092
 O494 O 0.94520 0.84755 0.12541
 O495 O 0.90913 0.93716 0.12396
 O496 O 0.87457 0.94443 0.15196
 O497 O 0.87646 0.90832 0.06219
 O498 O 0.84838 0.87512 0.05481
 O499 O 0.84205 0.87532 0.18772
 O500 O 0.87593 0.90188 0.19439
 O501 O 0.87585 0.81207 0.15855
 O502 O 0.90407 0.80657 0.12464
 O503 O 0.81288 0.84107 0.12436
 O504 O 0.80599 0.87490 0.09790
 Zr505 Zr 0.83224 0.87386 0.12573
 O506 O 0.85291 0.89659 0.10319
 Zr507 Zr 0.87478 0.83132 0.12563
 O508 O 0.89715 0.85207 0.10268
 Zr509 Zr 0.87480 0.87392 0.16823
 O510 O 0.89749 0.89641 0.14740
 Zr511 Zr 0.87603 0.87551 0.08149
 O512 O 0.85334 0.85249 0.10214
 Zr513 Zr 0.87628 0.91791 0.12429
 O514 O 0.85337 0.89733 0.14713
 Zr515 Zr 0.91870 0.87521 0.12390
 O516 O 0.89815 0.85250 0.14702
 O517 O 0.85231 0.85136 0.14822
 O518 O 0.89884 0.89807 0.10139
 C519 C 0.81989 0.87590 0.18074
 C520 C 0.81991 0.81893 0.12331
 C521 C 0.87665 0.81908 0.18071
 C522 C 0.93082 0.87579 0.06876
 C523 C 0.87647 0.93043 0.06930
 C524 C 0.93124 0.93011 0.12377
 H525 H 0.84190 0.90672 0.09339
 H526 H 0.90756 0.90633 0.15837
 H527 H 0.84193 0.84101 0.15853
 H528 H 0.90698 0.84122 0.09236
 H529 H 0.86509 0.83509 0.06069
 H530 H 0.88268 0.80826 0.08552
 H531 H 0.88792 0.94126 0.16346
 H532 H 0.86460 0.91458 0.18878
 H533 H 0.83642 0.88780 0.05889
 H534 H 0.81169 0.86373 0.08508
 H535 H 0.94225 0.88606 0.16312
 H536 H 0.91552 0.86396 0.18864
 H537 H 0.81171 0.91454 0.13573
 H538 H 0.83701 0.94139 0.11344
 H539 H 0.91553 0.81150 0.13751
 H540 H 0.94200 0.83611 0.11200
 O541 O 0.37573 0.34139 0.18779
 O542 O 0.40194 0.37511 0.19482
 O543 O 0.31244 0.37620 0.15841
 O544 O 0.30339 0.39966 0.12697
 O545 O 0.34195 0.31200 0.12435
 O546 O 0.37560 0.30524 0.09801
 O547 O 0.37610 0.43786 0.09181
 O548 O 0.34781 0.44429 0.12348
 O549 O 0.43776 0.40848 0.12426
 O550 O 0.44535 0.37391 0.15155
 O551 O 0.40857 0.37603 0.06235
 O552 O 0.37417 0.34876 0.05468
 O553 O 0.37611 0.40877 0.06259
 O554 O 0.34820 0.37415 0.05527
 O555 O 0.43772 0.37598 0.09146
 O556 O 0.44504 0.34812 0.12604
 O557 O 0.40868 0.43769 0.12401
 O558 O 0.37540 0.44499 0.15216
 O559 O 0.37594 0.31220 0.15859
 O560 O 0.40258 0.30554 0.12471
 O561 O 0.31272 0.34109 0.12470
 O562 O 0.30723 0.37492 0.09634
 O563 O 0.34151 0.37554 0.18768
 O564 O 0.37525 0.40201 0.19461
 Zr565 Zr 0.37432 0.37417 0.16834
 O566 O 0.39702 0.39673 0.14766
 Zr567 Zr 0.33188 0.37406 0.12571
 O568 O 0.35260 0.39703 0.10333
 Zr569 Zr 0.37457 0.33160 0.12578
 O570 O 0.39703 0.35245 0.10308
 Zr571 Zr 0.37594 0.41832 0.12448
 O572 O 0.35294 0.39764 0.14716
 Zr573 Zr 0.41842 0.37566 0.12432
 O574 O 0.39787 0.35280 0.14724
 Zr575 Zr 0.37582 0.37584 0.08180
 O576 O 0.35315 0.35270 0.10235
 O577 O 0.35192 0.35159 0.14825
 O578 O 0.39857 0.39844 0.10168
 C579 C 0.37644 0.31922 0.18077
 C580 C 0.31941 0.37654 0.18060
 C581 C 0.31978 0.31896 0.12394
 C582 C 0.37621 0.43091 0.06962
 C583 C 0.43080 0.43065 0.12403
 C584 C 0.43071 0.37612 0.06932
 H585 H 0.40709 0.40657 0.15868
 H586 H 0.40700 0.34151 0.09302
 H587 H 0.34158 0.34129 0.15865
 H588 H 0.34174 0.40728 0.09347
 H589 H 0.33544 0.43900 0.13535
 H590 H 0.30873 0.41407 0.11777
 H591 H 0.44187 0.33653 0.11275
 H592 H 0.41524 0.31120 0.13606
 H593 H 0.38817 0.44106 0.16407
 H594 H 0.36413 0.41483 0.18885
 H595 H 0.38681 0.33661 0.05830
 H596 H 0.36472 0.31110 0.08503
 H597 H 0.41496 0.36427 0.18894
 H598 H 0.44181 0.38667 0.16362
 H599 H 0.31215 0.36198 0.08494
 H600 H 0.33674 0.38755 0.05842
 O601 O 0.37500 0.65887 0.81225
 O602 O 0.40122 0.62516 0.80516
 O603 O 0.31179 0.62404 0.84180
 O604 O 0.30287 0.60056 0.87330
 O605 O 0.34124 0.68828 0.87573
 O606 O 0.37492 0.69505 0.90202
 O607 O 0.37571 0.56245 0.90829
 O608 O 0.34737 0.55598 0.87672
 O609 O 0.43726 0.59184 0.87564
 O610 O 0.44472 0.62643 0.84830
 O611 O 0.40812 0.62435 0.93762
 O612 O 0.37367 0.65159 0.94535
 O613 O 0.37572 0.59157 0.93749
 O614 O 0.34777 0.62615 0.94488
 O615 O 0.43722 0.62439 0.90843
 O616 O 0.44443 0.65222 0.87381
 O617 O 0.40823 0.56261 0.87597
 O618 O 0.37489 0.55529 0.84794
 O619 O 0.37521 0.68807 0.84142
 O620 O 0.40186 0.69479 0.87523
 O621 O 0.31206 0.65916 0.87549
 O622 O 0.30669 0.62535 0.90391
 O623 O 0.34081 0.62470 0.81246
 O624 O 0.37458 0.59822 0.80547
 Zr625 Zr 0.37366 0.62610 0.83172
 O626 O 0.39644 0.60357 0.85235
 Zr627 Zr 0.33129 0.62620 0.87446
 O628 O 0.35211 0.60327 0.89680
 Zr629 Zr 0.37390 0.66869 0.87425
 O630 O 0.39646 0.64787 0.89689
 Zr631 Zr 0.37544 0.58198 0.87561
 O632 O 0.35236 0.60262 0.85297
 Zr633 Zr 0.41786 0.62467 0.87562
 O634 O 0.39721 0.64749 0.85275
 Zr635 Zr 0.37533 0.62449 0.91826
 O636 O 0.35257 0.64759 0.89775
 O637 O 0.35126 0.64867 0.85186
 O638 O 0.39808 0.60188 0.89833
 C639 C 0.37569 0.68104 0.81925
 C640 C 0.31871 0.62370 0.81959
 C641 C 0.31908 0.68131 0.87620
 C642 C 0.37585 0.56942 0.93047
 C643 C 0.43035 0.56967 0.87588
 C644 C 0.43025 0.62427 0.93060
 H645 H 0.40651 0.59373 0.84130
 H646 H 0.40642 0.65883 0.90692
 H647 H 0.34088 0.65896 0.84147
 H648 H 0.34129 0.59301 0.90670
 H649 H 0.33496 0.56125 0.86489
 H650 H 0.30824 0.58618 0.88252
 H651 H 0.44125 0.66382 0.88710
 H652 H 0.41454 0.68912 0.86389
 H653 H 0.38762 0.55923 0.83598
 H654 H 0.36346 0.58542 0.81126
 H655 H 0.38629 0.66375 0.94169
 H656 H 0.36404 0.68921 0.91501
 H657 H 0.41425 0.63598 0.81100
 H658 H 0.44119 0.61364 0.83626
 H659 H 0.31163 0.63830 0.91528
 H660 H 0.33630 0.61277 0.94173
 O661 O 0.12386 0.65892 0.68781
 O662 O 0.09770 0.62520 0.69485
 O663 O 0.18725 0.62413 0.65851
 O664 O 0.19634 0.60061 0.62707
 O665 O 0.15775 0.68826 0.62439
 O666 O 0.12414 0.69497 0.59803
 O667 O 0.12371 0.56237 0.59187
 O668 O 0.15195 0.55597 0.62354
 O669 O 0.06198 0.59173 0.62426
 O670 O 0.05430 0.62632 0.65150
 O671 O 0.09126 0.62416 0.56235
 O672 O 0.12570 0.65145 0.55474
 O673 O 0.12373 0.59143 0.56264
 O674 O 0.15162 0.62601 0.55530
 O675 O 0.06206 0.62421 0.59143
 O676 O 0.05468 0.65212 0.62603
 O677 O 0.09108 0.56254 0.62406
 O678 O 0.12432 0.55530 0.65222
 O679 O 0.12369 0.68807 0.65860
 O680 O 0.09712 0.69470 0.62471
 O681 O 0.18700 0.65918 0.62477
 O682 O 0.19257 0.62533 0.59644
 O683 O 0.15812 0.62479 0.68775
 O684 O 0.12437 0.59828 0.69464
 Zr685 Zr 0.12534 0.62612 0.66837
 O686 O 0.10267 0.60354 0.64769
 Zr687 Zr 0.16786 0.62621 0.62578
 O688 O 0.14717 0.60322 0.60339
 Zr689 Zr 0.12514 0.66864 0.62580
 O690 O 0.10271 0.64777 0.60309
 Zr691 Zr 0.12381 0.58194 0.62453
 O692 O 0.14677 0.60264 0.64722
 Zr693 Zr 0.08130 0.62457 0.62431
 O694 O 0.10181 0.64745 0.64725
 Zr695 Zr 0.12398 0.62437 0.58184
 O696 O 0.14662 0.64753 0.60240
 O697 O 0.14776 0.64869 0.64830
 O698 O 0.10121 0.60178 0.60170
 C699 C 0.12315 0.68107 0.68078
 C700 C 0.18025 0.62380 0.68070
 C701 C 0.17992 0.68132 0.62399
 C702 C 0.12363 0.56930 0.56969
 C703 C 0.06895 0.56957 0.62407
 C704 C 0.06911 0.62407 0.56929
 H705 H 0.09259 0.59371 0.65870
 H706 H 0.09276 0.65870 0.59302
 H707 H 0.15808 0.65901 0.65871
 H708 H 0.15805 0.59295 0.59355
 H709 H 0.16429 0.56127 0.63542
 H710 H 0.19102 0.58620 0.61786
 H711 H 0.05784 0.66366 0.61270
 H712 H 0.08443 0.68903 0.63603
 H713 H 0.11155 0.55925 0.66413
 H714 H 0.13556 0.58549 0.68891
 H715 H 0.11300 0.66356 0.55831
 H716 H 0.13506 0.68911 0.58506
 H717 H 0.08465 0.63599 0.68895
 H718 H 0.05786 0.61362 0.66361
 H719 H 0.18763 0.63824 0.58502
 H720 H 0.16312 0.61266 0.55851
 O721 O 0.12491 0.15798 0.18769
 O722 O 0.09872 0.12428 0.19468
 O723 O 0.18822 0.12319 0.15821
 O724 O 0.19720 0.09969 0.12671
 O725 O 0.15879 0.18744 0.12432
 O726 O 0.12516 0.19428 0.09800
 O727 O 0.12442 0.06171 0.09147
 O728 O 0.15275 0.05518 0.12305
 O729 O 0.06285 0.09108 0.12404
 O730 O 0.05527 0.12561 0.15139
 O731 O 0.09209 0.12366 0.06218
 O732 O 0.12660 0.15090 0.05462
 O733 O 0.12445 0.09086 0.06234
 O734 O 0.15243 0.12537 0.05503
 O735 O 0.06293 0.12366 0.09130
 O736 O 0.05565 0.15148 0.12599
 O737 O 0.09190 0.06185 0.12374
 O738 O 0.12518 0.05446 0.15179
 O739 O 0.12476 0.18721 0.15857
 O740 O 0.09818 0.19400 0.12473
 O741 O 0.18799 0.15831 0.12456
 O742 O 0.19346 0.12453 0.09613
 O743 O 0.15913 0.12382 0.18749
 O744 O 0.12536 0.09733 0.19435
 Zr745 Zr 0.12633 0.12524 0.16816
 O746 O 0.10359 0.10276 0.14744
 Zr747 Zr 0.16879 0.12537 0.12552
 O748 O 0.14803 0.10248 0.10308
 Zr749 Zr 0.12614 0.16787 0.12571
 O750 O 0.10365 0.14711 0.10297
 Zr751 Zr 0.12466 0.08119 0.12419
 O752 O 0.14769 0.10177 0.14692
 Zr753 Zr 0.08222 0.12389 0.12416
 O754 O 0.10281 0.14667 0.14713
 Zr755 Zr 0.12484 0.12374 0.08162
 O756 O 0.14755 0.14680 0.10222
 O757 O 0.14876 0.14783 0.14812
 O758 O 0.10206 0.10113 0.10145
 C759 C 0.12422 0.18015 0.18072
 C760 C 0.18125 0.12283 0.18041
 C761 C 0.18095 0.18046 0.12387
 C762 C 0.12429 0.06869 0.06930
 C763 C 0.06978 0.06891 0.12380
 C764 C 0.06995 0.12358 0.06915
 H765 H 0.09351 0.09291 0.15844
 H766 H 0.09370 0.15809 0.09295
 H767 H 0.15910 0.15810 0.15854
 H768 H 0.15887 0.09222 0.09318
 H769 H 0.16512 0.06041 0.13493
 H770 H 0.19187 0.08535 0.11741
 H771 H 0.05881 0.16305 0.11269
 H772 H 0.08548 0.18832 0.13603
 H773 H 0.11246 0.05842 0.16376
 H774 H 0.13654 0.08454 0.18858
 H775 H 0.11391 0.16302 0.05822
 H776 H 0.13606 0.18844 0.08501
 H777 H 0.08568 0.13509 0.18882
 H778 H 0.05881 0.11286 0.16346
 H779 H 0.18851 0.13746 0.08474
 H780 H 0.16391 0.11199 0.05819
 O781 O 0.68779 0.37622 0.84141
 O782 O 0.69481 0.40243 0.87511
 O783 O 0.65869 0.31281 0.87627
 O784 O 0.62733 0.30382 0.89997
 O785 O 0.62452 0.34210 0.81212
 O786 O 0.59810 0.37569 0.80535
 O787 O 0.59198 0.37652 0.93799
 O788 O 0.62365 0.34832 0.94446
 O789 O 0.62419 0.43823 0.90850
 O790 O 0.65138 0.44585 0.87389
 O791 O 0.56241 0.40879 0.87608
 O792 O 0.55495 0.37418 0.84881
 O793 O 0.56278 0.37640 0.90890
 O794 O 0.55545 0.34843 0.87442
 O795 O 0.59140 0.43804 0.87598
 O796 O 0.62599 0.44533 0.84804
 O797 O 0.62408 0.40919 0.93776
 O798 O 0.65224 0.37600 0.94509
 O799 O 0.65861 0.37625 0.81225
 O800 O 0.62472 0.40272 0.80552
 O801 O 0.62495 0.31293 0.84128
 O802 O 0.59670 0.30741 0.87517
 O803 O 0.68783 0.34197 0.87555
 O804 O 0.69461 0.37581 0.90210
 Zr805 Zr 0.66840 0.37476 0.87422
 O806 O 0.64768 0.39750 0.89676
 Zr807 Zr 0.62595 0.33218 0.87423
 O808 O 0.60353 0.35294 0.89717
 Zr809 Zr 0.62586 0.37480 0.83169
 O810 O 0.60314 0.39730 0.85251
 Zr811 Zr 0.62460 0.37639 0.91841
 O812 O 0.64732 0.35337 0.89777
 Zr813 Zr 0.62429 0.41881 0.87568
 O814 O 0.64724 0.39822 0.85284
 Zr815 Zr 0.58195 0.37607 0.87595
 O816 O 0.60254 0.35335 0.85285
 O817 O 0.64839 0.35226 0.85168
 O818 O 0.60175 0.39893 0.89852
 C819 C 0.68075 0.37686 0.81925
 C820 C 0.68084 0.31983 0.87654
 C821 C 0.62416 0.31995 0.81912
 C822 C 0.56983 0.37657 0.93104
 C823 C 0.62404 0.43131 0.93069
 C824 C 0.56929 0.43097 0.87612
 H825 H 0.65867 0.40763 0.90658
 H826 H 0.59306 0.40721 0.84154
 H827 H 0.65880 0.34192 0.84137
 H828 H 0.59371 0.34208 0.90746
 H829 H 0.63556 0.33597 0.93919
 H830 H 0.61802 0.30914 0.91432
 H831 H 0.61265 0.44217 0.83652
 H832 H 0.63596 0.41548 0.81118
 H833 H 0.66416 0.38872 0.94105
 H834 H 0.68894 0.36458 0.91488
 H835 H 0.55841 0.38693 0.83673
 H836 H 0.58519 0.36474 0.81123
 H837 H 0.68887 0.41547 0.86435
 H838 H 0.66349 0.44233 0.88660
 H839 H 0.58525 0.31233 0.86229
 H840 H 0.55874 0.33690 0.88773
 O841 O 0.12379 0.84224 0.81241
 O842 O 0.09758 0.87594 0.80544
 O843 O 0.18711 0.87702 0.84175
 O844 O 0.19607 0.90055 0.87324
 O845 O 0.15775 0.81279 0.87574
 O846 O 0.12413 0.80599 0.90212
 O847 O 0.12335 0.93856 0.90859
 O848 O 0.15157 0.94507 0.87693
 O849 O 0.06169 0.90919 0.87611
 O850 O 0.05414 0.87463 0.84879
 O851 O 0.09099 0.87661 0.93796
 O852 O 0.12553 0.84936 0.94546
 O853 O 0.12341 0.90941 0.93774
 O854 O 0.15133 0.87489 0.94502
 O855 O 0.06182 0.87660 0.90888
 O856 O 0.05455 0.84879 0.87420
 O857 O 0.09072 0.93842 0.87636
 O858 O 0.12397 0.94579 0.84826
 O859 O 0.12368 0.81302 0.84154
 O860 O 0.09714 0.80624 0.87542
 O861 O 0.18692 0.84191 0.87543
 O862 O 0.19238 0.87571 0.90383
 O863 O 0.15800 0.87638 0.81252
 O864 O 0.12421 0.90290 0.80573
 Zr865 Zr 0.12520 0.87499 0.83192
 O866 O 0.10245 0.89748 0.85267
 Zr867 Zr 0.16769 0.87487 0.87449
 O868 O 0.14690 0.89776 0.89695
 Zr869 Zr 0.12507 0.83237 0.87439
 O870 O 0.10256 0.85315 0.89715
 Zr871 Zr 0.12350 0.91906 0.87588
 O872 O 0.14655 0.89846 0.85312
 Zr873 Zr 0.08110 0.87637 0.87600
 O874 O 0.10171 0.85358 0.85301
 Zr875 Zr 0.12374 0.87652 0.91846
 O876 O 0.14647 0.85346 0.89784
 O877 O 0.14766 0.85240 0.85193
 O878 O 0.10092 0.89914 0.89867
 C879 C 0.12312 0.82007 0.81939
 C880 C 0.18013 0.87737 0.81956
 C881 C 0.17990 0.81976 0.87615
 C882 C 0.12328 0.93157 0.93075
 C883 C 0.06860 0.93137 0.87632
 C884 C 0.06884 0.87668 0.93103
 H885 H 0.09235 0.90733 0.84167
 H886 H 0.09263 0.84217 0.90719
 H887 H 0.15801 0.84212 0.84150
 H888 H 0.15775 0.90801 0.90682
 H889 H 0.16395 0.93982 0.86504
 H890 H 0.19073 0.91490 0.88255
 H891 H 0.05774 0.83721 0.88749
 H892 H 0.08442 0.81194 0.86415
 H893 H 0.11127 0.94180 0.83630
 H894 H 0.13539 0.91568 0.81148
 H895 H 0.11284 0.83725 0.94189
 H896 H 0.13505 0.81183 0.91508
 H897 H 0.08455 0.86515 0.81132
 H898 H 0.05767 0.88738 0.83672
 H899 H 0.18745 0.86279 0.91523
 H900 H 0.16285 0.88820 0.94179
 O901 O 0.68771 0.12396 0.65889
 O902 O 0.69471 0.09768 0.62520
 O903 O 0.65868 0.18737 0.62397
 O904 O 0.62736 0.19645 0.60032
 O905 O 0.62444 0.15820 0.68815
 O906 O 0.59799 0.12467 0.69495
 O907 O 0.59197 0.12376 0.56228
 O908 O 0.62369 0.15193 0.55582
 O909 O 0.62413 0.06203 0.59182
 O910 O 0.65127 0.05439 0.62646
 O911 O 0.56233 0.09163 0.62419
 O912 O 0.55483 0.12621 0.65143
 O913 O 0.56275 0.12398 0.59137
 O914 O 0.55546 0.15203 0.62588
 O915 O 0.59129 0.06232 0.62430
 O916 O 0.62579 0.05494 0.65227
 O917 O 0.62406 0.09105 0.56254
 O918 O 0.65225 0.12419 0.55519
 O919 O 0.65851 0.12399 0.68806
 O920 O 0.62457 0.09756 0.69477
 O921 O 0.62493 0.18735 0.65898
 O922 O 0.59670 0.19290 0.62509
 O923 O 0.68780 0.15815 0.62471
 O924 O 0.69460 0.12430 0.59822
 Zr925 Zr 0.66834 0.12541 0.62607
 O926 O 0.64763 0.10272 0.60353
 Zr927 Zr 0.62593 0.16808 0.62604
 O928 O 0.60351 0.14737 0.60309
 Zr929 Zr 0.62577 0.12549 0.66861
 O930 O 0.60304 0.10304 0.64779
 Zr931 Zr 0.62458 0.12386 0.58187
 O932 O 0.64731 0.14684 0.60251
 Zr933 Zr 0.62419 0.08147 0.62463
 O934 O 0.64714 0.10201 0.64747
 Zr935 Zr 0.58190 0.12430 0.62433
 O936 O 0.60249 0.14697 0.64743
 O937 O 0.64833 0.14798 0.64860
 O938 O 0.60169 0.10138 0.60177
 C939 C 0.68066 0.12335 0.68106
 C940 C 0.68082 0.18031 0.62369
 C941 C 0.62411 0.18035 0.68114
 C942 C 0.56981 0.12376 0.56922
 C943 C 0.62400 0.06893 0.56963
 C944 C 0.56919 0.06944 0.62414
 H945 H 0.65861 0.09256 0.59372
 H946 H 0.59294 0.09315 0.65875
 H947 H 0.65874 0.15830 0.65890
 H948 H 0.59372 0.15824 0.59279
 H949 H 0.63560 0.16425 0.56107
 H950 H 0.61810 0.19114 0.58594
 H951 H 0.61246 0.05816 0.66379
 H952 H 0.63582 0.08479 0.68912
 H953 H 0.66415 0.11145 0.55923
 H954 H 0.68894 0.13549 0.58541
 H955 H 0.55831 0.11351 0.66356
 H956 H 0.58508 0.13562 0.68906
 H957 H 0.68876 0.08468 0.63602
 H958 H 0.66339 0.05787 0.61374
 H959 H 0.58525 0.18802 0.63799
 H960 H 0.55872 0.16348 0.61250
 C961 C 0.35981 0.75555 0.76646
 C962 C 0.38155 0.77209 0.76014
 C963 C 0.37688 0.76740 0.73310
 C964 C 0.35513 0.75115 0.73914
 C965 C 0.37694 0.73363 0.76672
 C966 C 0.37227 0.72894 0.73968
 C967 C 0.39869 0.74988 0.76069
 C968 C 0.39402 0.74548 0.73336
 C969 C 0.37666 0.78620 0.71437
 C970 C 0.37626 0.80163 0.69894
 C971 C 0.37678 0.71483 0.78545
 C972 C 0.37642 0.69938 0.80087
 H973 H 0.34573 0.75949 0.78027
 H974 H 0.38537 0.79004 0.76836
 H975 H 0.33722 0.75188 0.73008
 H976 H 0.36844 0.71100 0.73147
 H977 H 0.41661 0.74914 0.76976
 H978 H 0.40809 0.74155 0.71954
 C979 C 0.37533 0.27151 0.26056
 C980 C 0.35680 0.25054 0.26235
 C981 C 0.37775 0.23280 0.26685
 C982 C 0.39629 0.25348 0.26535
 C983 C 0.37778 0.26659 0.23326
 C984 C 0.39873 0.24885 0.23775
 C985 C 0.35924 0.24591 0.23478
 C986 C 0.38019 0.22788 0.23956
 C987 C 0.37754 0.21399 0.28558
 C988 C 0.37714 0.19854 0.30100
 C989 C 0.37759 0.28541 0.21454
 C990 C 0.37720 0.30086 0.19913
 H991 H 0.37333 0.28965 0.26899
 H992 H 0.33955 0.25103 0.27267
 H993 H 0.41152 0.25638 0.27813
 H994 H 0.41597 0.24837 0.22743
 H995 H 0.34400 0.24300 0.22200
 H996 H 0.38219 0.20974 0.23112
 C997 C 0.64299 0.75157 0.23637
 C998 C 0.62365 0.77171 0.23909
 C999 C 0.62258 0.76658 0.26642
 C1000 C 0.64192 0.74673 0.26399
 C1001 C 0.62266 0.73297 0.23265
 C1002 C 0.62159 0.72784 0.25998
 C1003 C 0.60331 0.75282 0.23507
 C1004 C 0.60225 0.74799 0.26271
 C1005 C 0.62275 0.78529 0.28524
 C1006 C 0.62312 0.80067 0.30072
 C1007 C 0.62290 0.71425 0.21384
 C1008 C 0.62332 0.69885 0.19838
 H1009 H 0.65974 0.75284 0.22534
 H1010 H 0.62450 0.78996 0.23071
 H1011 H 0.65780 0.74443 0.27610
 H1012 H 0.62075 0.70959 0.26836
 H1013 H 0.58744 0.75512 0.22296
 H1014 H 0.58550 0.74672 0.27375
 C1015 C 0.14312 0.25133 0.23689
 C1016 C 0.12377 0.27147 0.23955
 C1017 C 0.12276 0.26646 0.26691
 C1018 C 0.14211 0.24661 0.26453
 C1019 C 0.12279 0.23270 0.23329
 C1020 C 0.12179 0.22769 0.26065
 C1021 C 0.10344 0.25254 0.23566
 C1022 C 0.10243 0.24783 0.26332
 C1023 C 0.12294 0.28526 0.28564
 C1024 C 0.12333 0.30071 0.30106
 C1025 C 0.12302 0.21390 0.21455
 C1026 C 0.12343 0.19847 0.19912
 H1027 H 0.15985 0.25257 0.22582
 H1028 H 0.12458 0.28968 0.23108
 H1029 H 0.15802 0.24439 0.27661
 H1030 H 0.12098 0.20948 0.26912
 H1031 H 0.08754 0.25476 0.22357
 H1032 H 0.08571 0.24660 0.27440
 C1033 C 0.13612 0.74375 0.76839
 C1034 C 0.11347 0.72979 0.75955
 C1035 C 0.12171 0.73371 0.73325
 C1036 C 0.14435 0.74739 0.74181
 C1037 C 0.12171 0.76750 0.76685
 C1038 C 0.12995 0.77142 0.74055
 C1039 C 0.09905 0.75384 0.75829
 C1040 C 0.10729 0.75746 0.73169
 C1041 C 0.12192 0.71490 0.71453
 C1042 C 0.12234 0.69944 0.69913
 C1043 C 0.12192 0.78630 0.78557
 C1044 C 0.12233 0.80174 0.80100
 H1045 H 0.14798 0.73833 0.78369
 H1046 H 0.10670 0.71246 0.76715
 H1047 H 0.16298 0.74453 0.73483
 H1048 H 0.13672 0.78874 0.73294
 H1049 H 0.08043 0.75670 0.76528
 H1050 H 0.09544 0.76288 0.71639
 C1051 C 0.87536 0.27182 0.76058
 C1052 C 0.85682 0.25087 0.76246
 C1053 C 0.87778 0.23315 0.76700
 C1054 C 0.89632 0.25381 0.76541
 C1055 C 0.87777 0.26679 0.73330
 C1056 C 0.89873 0.24908 0.73783
 C1057 C 0.85923 0.24612 0.73491
 C1058 C 0.88019 0.22812 0.73972
 C1059 C 0.87758 0.21442 0.78575
 C1060 C 0.87717 0.19902 0.80119
 C1061 C 0.87755 0.28551 0.71454
 C1062 C 0.87714 0.30090 0.69909
 H1063 H 0.87336 0.29000 0.76893
 H1064 H 0.83959 0.25139 0.77280
 H1065 H 0.91156 0.25675 0.77816
 H1066 H 0.91596 0.24856 0.72748
 H1067 H 0.84398 0.24318 0.72215
 H1068 H 0.88217 0.20994 0.73137
 C1069 C 0.72826 0.38285 0.73957
 C1070 C 0.75046 0.39996 0.73882
 C1071 C 0.76664 0.37815 0.73278
 C1072 C 0.74473 0.36104 0.73323
 C1073 C 0.73310 0.37826 0.76659
 C1074 C 0.74929 0.35645 0.76053
 C1075 C 0.75501 0.39537 0.76614
 C1076 C 0.77148 0.37356 0.75980
 C1077 C 0.78534 0.37784 0.71398
 C1078 C 0.80076 0.37732 0.69856
 C1079 C 0.71443 0.37808 0.78541
 C1080 C 0.69906 0.37768 0.80088
 H1081 H 0.71027 0.38666 0.73147
 H1082 H 0.75117 0.41784 0.72967
 H1083 H 0.74072 0.34692 0.71949
 H1084 H 0.74860 0.33856 0.76967
 H1085 H 0.75902 0.40949 0.77989
 H1086 H 0.78947 0.36974 0.76790
 C1087 C 0.22765 0.62548 0.76048
 C1088 C 0.24498 0.60412 0.76600
 C1089 C 0.26620 0.62205 0.76709
 C1090 C 0.24916 0.64341 0.76187
 C1091 C 0.23265 0.62210 0.73331
 C1092 C 0.25387 0.64003 0.73442
 C1093 C 0.24969 0.60073 0.73851
 C1094 C 0.27120 0.61867 0.73992
 C1095 C 0.28490 0.62229 0.78589
 C1096 C 0.30032 0.62276 0.80131
 C1097 C 0.21396 0.62237 0.71450
 C1098 C 0.19858 0.62287 0.69904
 H1099 H 0.20954 0.62829 0.76873
 H1100 H 0.24154 0.58935 0.77920
 H1101 H 0.24915 0.66097 0.77169
 H1102 H 0.25732 0.65480 0.72122
 H1103 H 0.24969 0.58319 0.72869
 H1104 H 0.28932 0.61588 0.73167
 C1105 C 0.22856 0.12458 0.26021
 C1106 C 0.24584 0.10321 0.26584
 C1107 C 0.26708 0.12112 0.26694
 C1108 C 0.25008 0.14248 0.26161
 C1109 C 0.23362 0.12111 0.23306
 C1110 C 0.25487 0.13901 0.23417
 C1111 C 0.25061 0.09973 0.23838
 C1112 C 0.27215 0.11764 0.23978
 C1113 C 0.28573 0.12138 0.28579
 C1114 C 0.30110 0.12188 0.30126
 C1115 C 0.21497 0.12137 0.21421
 C1116 C 0.19960 0.12187 0.19874
 H1117 H 0.21042 0.12744 0.26840
 H1118 H 0.24233 0.08849 0.27907
 H1119 H 0.25007 0.16007 0.27137
 H1120 H 0.25838 0.15374 0.22094
 H1121 H 0.25061 0.08216 0.22861
 H1122 H 0.29028 0.11479 0.23160
 C1123 C 0.72810 0.12540 0.76087
 C1124 C 0.74538 0.10402 0.76645
 C1125 C 0.76664 0.12191 0.76744
 C1126 C 0.74964 0.14328 0.76215
 C1127 C 0.73305 0.12188 0.73370
 C1128 C 0.75432 0.13977 0.73470
 C1129 C 0.75005 0.10050 0.73898
 C1130 C 0.77160 0.11840 0.74027
 C1131 C 0.78538 0.12216 0.78621
 C1132 C 0.80081 0.12264 0.80162
 C1133 C 0.71435 0.12209 0.71490
 C1134 C 0.69897 0.12252 0.69944
 H1135 H 0.71000 0.12828 0.76912
 H1136 H 0.74192 0.08932 0.77972
 H1137 H 0.74968 0.16088 0.77188
 H1138 H 0.75778 0.15447 0.72144
 H1139 H 0.75000 0.08291 0.72924
 H1140 H 0.78970 0.11552 0.73202
 C1141 C 0.74013 0.87592 0.22842
 C1142 C 0.73772 0.85686 0.24886
 C1143 C 0.73380 0.87745 0.26719
 C1144 C 0.73592 0.89651 0.24703
 C1145 C 0.76744 0.87738 0.23343
 C1146 C 0.76353 0.89797 0.25176
 C1147 C 0.76531 0.85832 0.25359
 C1148 C 0.76111 0.87891 0.27221
 C1149 C 0.71504 0.87725 0.28597
 C1150 C 0.69957 0.87683 0.30138
 C1151 C 0.78617 0.87714 0.21462
 C1152 C 0.80156 0.87671 0.19914
 H1153 H 0.73170 0.87469 0.21020
 H1154 H 0.72691 0.83995 0.24787
 H1155 H 0.72362 0.91222 0.24455
 H1156 H 0.77435 0.91488 0.25274
 H1157 H 0.77760 0.84261 0.25609
 H1158 H 0.76954 0.88013 0.29043
 C1159 C 0.74395 0.75477 0.35443
 C1160 C 0.76934 0.75739 0.36601
 C1161 C 0.76644 0.73215 0.37733
 C1162 C 0.74133 0.72924 0.36574
 C1163 C 0.73271 0.76574 0.37741
 C1164 C 0.72980 0.74050 0.38873
 C1165 C 0.75782 0.76866 0.38900
 C1166 C 0.75521 0.74311 0.40031
 C1167 C 0.78523 0.71346 0.37708
 C1168 C 0.80070 0.69810 0.37664
 C1169 C 0.71396 0.78447 0.37726
 C1170 C 0.69858 0.79992 0.37691
 H1171 H 0.73911 0.75977 0.33557
 H1172 H 0.78581 0.76412 0.35667
 H1173 H 0.73477 0.71282 0.35617
 H1174 H 0.71332 0.73377 0.39806
 H1175 H 0.76437 0.78508 0.39856
 H1176 H 0.76006 0.73810 0.41917
 C1177 C 0.73387 0.25464 0.60521
 C1178 C 0.74034 0.27099 0.62709
 C1179 C 0.76730 0.26614 0.62229
 C1180 C 0.76113 0.25008 0.60041
 C1181 C 0.73351 0.23262 0.62221
 C1182 C 0.76047 0.22777 0.61742
 C1183 C 0.73969 0.24868 0.64408
 C1184 C 0.76693 0.24412 0.63929
 C1185 C 0.78610 0.28484 0.62254
 C1186 C 0.80151 0.30026 0.62296
 C1187 C 0.71468 0.21396 0.62239
 C1188 C 0.69921 0.19860 0.62282
 H1189 H 0.72006 0.25875 0.59120
 H1190 H 0.73227 0.28897 0.63107
 H1191 H 0.77017 0.25087 0.58246
 H1192 H 0.76853 0.20978 0.61344
 H1193 H 0.73066 0.24790 0.66204
 H1194 H 0.78074 0.24000 0.65331
 C1195 C 0.76822 0.74322 0.13681
 C1196 C 0.74149 0.74732 0.14424
 C1197 C 0.73342 0.73311 0.12171
 C1198 C 0.75986 0.72872 0.11428
 C1199 C 0.76727 0.76657 0.12172
 C1200 C 0.75921 0.75237 0.09919
 C1201 C 0.74083 0.77096 0.12915
 C1202 C 0.73247 0.75646 0.10662
 C1203 C 0.71458 0.71445 0.12191
 C1204 C 0.69912 0.69908 0.12230
 C1205 C 0.78611 0.78523 0.12195
 C1206 C 0.80157 0.80060 0.12241
 H1207 H 0.78313 0.73798 0.14923
 H1208 H 0.73400 0.74504 0.16276
 H1209 H 0.76748 0.71114 0.10817
 H1210 H 0.76672 0.75465 0.08067
 H1211 H 0.73321 0.78853 0.13527
 H1212 H 0.71755 0.76169 0.09421
 C1213 C 0.23392 0.25481 0.10551
 C1214 C 0.24027 0.27132 0.12731
 C1215 C 0.26727 0.26647 0.12267
 C1216 C 0.26122 0.25025 0.10088
 C1217 C 0.23350 0.23291 0.12266
 C1218 C 0.26049 0.22805 0.11803
 C1219 C 0.23956 0.24913 0.14445
 C1220 C 0.26683 0.24456 0.13982
 C1221 C 0.28605 0.28517 0.12286
 C1222 C 0.30148 0.30058 0.12323
 C1223 C 0.21471 0.21422 0.12283
 C1224 C 0.19927 0.19882 0.12318
 H1225 H 0.22018 0.25882 0.09141
 H1226 H 0.23217 0.28932 0.13112
 H1227 H 0.27034 0.25092 0.08297
 H1228 H 0.26859 0.21005 0.11422
 H1229 H 0.23044 0.24847 0.16237
 H1230 H 0.28057 0.24055 0.15393
 C1231 C 0.24403 0.75644 0.85443
 C1232 C 0.26933 0.75908 0.86622
 C1233 C 0.26642 0.73378 0.87741
 C1234 C 0.24140 0.73086 0.86562
 C1235 C 0.23257 0.76730 0.87737
 C1236 C 0.22966 0.74200 0.88856
 C1237 C 0.25759 0.77023 0.88916
 C1238 C 0.25497 0.74463 0.90035
 C1239 C 0.28526 0.71509 0.87725
 C1240 C 0.30073 0.69968 0.87690
 C1241 C 0.21373 0.78599 0.87718
 C1242 C 0.19826 0.80139 0.87683
 H1243 H 0.23932 0.76150 0.83555
 H1244 H 0.28585 0.76591 0.85702
 H1245 H 0.23495 0.71447 0.85593
 H1246 H 0.21313 0.73517 0.89774
 H1247 H 0.26404 0.78662 0.89883
 H1248 H 0.25968 0.73957 0.91923
 C1249 C 0.24450 0.25531 0.35457
 C1250 C 0.26991 0.25803 0.36609
 C1251 C 0.26708 0.23284 0.37752
 C1252 C 0.24196 0.22983 0.36600
 C1253 C 0.23328 0.26636 0.37753
 C1254 C 0.23045 0.24116 0.38896
 C1255 C 0.25841 0.26938 0.38905
 C1256 C 0.25587 0.24388 0.40048
 C1257 C 0.28589 0.21416 0.37733
 C1258 C 0.30134 0.19877 0.37696
 C1259 C 0.21449 0.28504 0.37734
 C1260 C 0.19905 0.30044 0.37698
 H1261 H 0.23961 0.26022 0.33569
 H1262 H 0.28635 0.26475 0.35668
 H1263 H 0.23541 0.21335 0.35652
 H1264 H 0.21400 0.23445 0.39836
 H1265 H 0.26495 0.28586 0.39852
 H1266 H 0.26077 0.23896 0.41935
 C1267 C 0.47830 0.62675 1.01014
 C1268 C 0.49583 0.60545 1.01526
 C1269 C 0.51695 0.62352 1.01627
 C1270 C 0.49971 0.64481 1.01145
 C1271 C 0.48301 0.62365 0.98288
 C1272 C 0.50413 0.64170 0.98390
 C1273 C 0.50024 0.60235 0.98770
 C1274 C 0.52166 0.62041 0.98901
 C1275 C 0.53582 0.62356 1.03489
 C1276 C 0.55131 0.62367 1.05025
 C1277 C 0.46413 0.62382 0.96426
 C1278 C 0.44863 0.62402 0.94892
 H1279 H 0.46026 0.62936 1.01862
 H1280 H 0.49264 0.59055 1.02836
 H1281 H 0.49970 0.66227 1.02142
 H1282 H 0.50733 0.65661 0.97080
 H1283 H 0.50025 0.58489 0.97772
 H1284 H 0.53970 0.61780 0.98054
 C1285 C 0.49507 0.14006 0.51679
 C1286 C 0.49930 0.14506 0.48950
 C1287 C 0.48332 0.12315 0.48333
 C1288 C 0.47880 0.11814 0.51033
 C1289 C 0.51720 0.12320 0.51678
 C1290 C 0.50123 0.10129 0.51062
 C1291 C 0.52172 0.12820 0.48978
 C1292 C 0.50545 0.10629 0.48331
 C1293 C 0.46448 0.12323 0.46467
 C1294 C 0.44901 0.12336 0.44929
 C1295 C 0.53604 0.12334 0.53544
 C1296 C 0.55149 0.12352 0.55084
 H1297 H 0.49101 0.15395 0.53076
 H1298 H 0.49830 0.16306 0.48061
 H1299 H 0.46095 0.11401 0.51857
 H1300 H 0.50224 0.08329 0.51951
 H1301 H 0.53958 0.13234 0.48153
 H1302 H 0.50950 0.09240 0.46934
 C1303 C 0.47803 0.88066 0.48936
 C1304 C 0.49999 0.89809 0.48851
 C1305 C 0.51656 0.87642 0.48300
 C1306 C 0.49489 0.85900 0.48356
 C1307 C 0.48266 0.87662 0.51650
 C1308 C 0.49924 0.85496 0.51099
 C1309 C 0.50433 0.89405 0.51595
 C1310 C 0.52119 0.87239 0.51015
 C1311 C 0.53543 0.87621 0.46433
 C1312 C 0.55093 0.87598 0.44896
 C1313 C 0.46380 0.87663 0.53519
 C1314 C 0.44833 0.87656 0.55059
 H1315 H 0.46007 0.88407 0.48101
 H1316 H 0.50050 0.91582 0.47907
 H1317 H 0.49122 0.84458 0.47003
 H1318 H 0.49873 0.83723 0.52043
 H1319 H 0.50800 0.90847 0.52948
 H1320 H 0.53915 0.86898 0.51850
 C1321 C 0.97871 0.38056 0.48981
 C1322 C 1.00063 0.39803 0.48902
 C1323 C 1.01722 0.37641 0.48338
 C1324 C 0.99559 0.35895 0.48388
 C1325 C 0.98341 0.37640 0.51692
 C1326 C 1.00000 0.35479 0.51128
 C1327 C 1.00503 0.39387 0.51643
 C1328 C 1.02192 0.37225 0.51049
 C1329 C 1.03602 0.37631 0.46469
 C1330 C 1.05146 0.37614 0.44929
 C1331 C 0.96459 0.37628 0.53559
 C1332 C 0.94913 0.37610 0.55098
 H1333 H 0.96072 0.38398 0.48152
 H1334 H 1.00111 0.41581 0.47964
 H1335 H 0.99192 0.34459 0.47028
 H1336 H 0.99952 0.33701 0.52064
 H1337 H 1.00869 0.40822 0.53002
 H1338 H 1.03990 0.36884 0.51878
 C1339 C -0.01106 0.87532 0.97842
 C1340 C -0.01350 0.85613 0.99874
 C1341 C -0.01759 0.87659 1.01716
 C1342 C -0.01544 0.89579 0.99713
 C1343 C 0.01622 0.87685 0.98359
 C1344 C 0.01214 0.89732 1.00201
 C1345 C 0.01406 0.85766 1.00362
 C1346 C 0.00969 0.87812 1.02233
 C1347 C -0.03641 0.87635 1.03589
 C1348 C -0.05185 0.87609 1.05133
 C1349 C 0.03505 0.87687 0.96486
 C1350 C 0.05050 0.87681 0.94944
 H1351 H -0.01939 0.87418 0.96015
 H1352 H -0.02425 0.83919 0.99759
 H1353 H -0.02778 0.91146 0.99467
 H1354 H 0.02289 0.91426 1.00315
 H1355 H 0.02640 0.84199 1.00609
 H1356 H 0.01801 0.87928 1.04060
 C1357 C -0.00471 0.14014 0.01667
 C1358 C -0.00043 0.14511 -0.01062
 C1359 C -0.01648 0.12326 -0.01681
 C1360 C -0.02106 0.11829 0.01019
 C1361 C 0.01735 0.12320 0.01670
 C1362 C 0.00130 0.10134 0.01051
 C1363 C 0.02193 0.12817 -0.01030
 C1364 C 0.00558 0.10632 -0.01678
 C1365 C -0.03531 0.12341 -0.03548
 C1366 C -0.05078 0.12360 -0.05085
 C1367 C 0.03617 0.12327 0.03538
 C1368 C 0.05161 0.12340 0.05078
 H1369 H -0.00874 0.15404 0.03063
 H1370 H -0.00135 0.16312 -0.01951
 H1371 H -0.03894 0.11422 0.01841
 H1372 H 0.00223 0.08334 0.01941
 H1373 H 0.03981 0.13223 -0.01852
 H1374 H 0.00960 0.09241 -0.03075
 C1375 C 0.14357 1.00233 0.98730
 C1376 C 0.12440 1.02261 0.99018
 C1377 C 0.12339 1.01734 1.01750
 C1378 C 0.14256 0.99735 1.01490
 C1379 C 0.12308 0.98391 0.98354
 C1380 C 0.12206 0.97865 1.01086
 C1381 C 0.10390 1.00390 0.98613
 C1382 C 0.10289 0.99893 1.01375
 C1383 C 0.12367 1.03598 1.03639
 C1384 C 0.12396 1.05135 1.05189
 C1385 C 0.12304 0.96527 0.96465
 C1386 C 0.12311 0.94991 0.94915
 H1387 H 0.16029 1.00352 0.97621
 H1388 H 0.12537 1.04089 0.98189
 H1389 H 0.15845 0.99486 1.02694
 H1390 H 0.12109 0.96036 1.01915
 H1391 H 0.08801 1.00639 0.97409
 H1392 H 0.08616 0.99775 1.02484
 C1393 C 0.13765 0.49299 0.51858
 C1394 C 0.11503 0.47913 0.50949
 C1395 C 0.12345 0.48320 0.48327
 C1396 C 0.14607 0.49677 0.49207
 C1397 C 0.12330 0.51677 0.51708
 C1398 C 0.13172 0.52084 0.49086
 C1399 C 0.10068 0.50321 0.50829
 C1400 C 0.10910 0.50699 0.48177
 C1401 C 0.12365 0.46450 0.46445
 C1402 C 0.12388 0.44909 0.44899
 C1403 C 0.12334 0.53549 0.53590
 C1404 C 0.12345 0.55091 0.55135
 H1405 H 0.14939 0.48744 0.53392
 H1406 H 0.10817 0.46177 0.51693
 H1407 H 0.16474 0.49391 0.48519
 H1408 H 0.13858 0.53820 0.48342
 H1409 H 0.08201 0.50608 0.51517
 H1410 H 0.09736 0.51253 0.46643
 C1411 C 0.37401 0.52205 1.01039
 C1412 C 0.35560 0.50099 1.01230
 C1413 C 0.37664 0.48340 1.01697
 C1414 C 0.39506 0.50418 1.01536
 C1415 C 0.37654 0.51695 0.98314
 C1416 C 0.39760 0.49937 0.98781
 C1417 C 0.35813 0.49617 0.98476
 C1418 C 0.37918 0.47831 0.98972
 C1419 C 0.37657 0.46470 1.03581
 C1420 C 0.37643 0.44929 1.05127
 C1421 C 0.37637 0.53565 0.96430
 C1422 C 0.37615 0.55105 0.94883
 H1423 H 0.37189 0.54024 1.01869
 H1424 H 0.33833 0.50145 1.02257
 H1425 H 0.41025 0.50726 1.02815
 H1426 H 0.41486 0.49891 0.97753
 H1427 H 0.34294 0.49308 0.97197
 H1428 H 0.38130 0.46011 0.98142
 C1429 C 0.85958 0.50472 0.51619
 C1430 C 0.88132 0.52126 0.50983
 C1431 C 0.87677 0.51632 0.48282
 C1432 C 0.85504 0.50007 0.48889
 C1433 C 0.87678 0.48286 0.51669
 C1434 C 0.87224 0.47793 0.48968
 C1435 C 0.89852 0.49911 0.51063
 C1436 C 0.89397 0.49446 0.48332
 C1437 C 0.87665 0.53497 0.46399
 C1438 C 0.87646 0.55035 0.44852
 C1439 C 0.87666 0.46422 0.53554
 C1440 C 0.87648 0.44886 0.55102
 H1441 H 0.84545 0.50873 0.52992
 H1442 H 0.88506 0.53929 0.51790
 H1443 H 0.83717 0.50068 0.47973
 H1444 H 0.86850 0.45989 0.48162
 H1445 H 0.91639 0.49849 0.51979
 H1446 H 0.90811 0.49046 0.46959
 C1447 C 0.85989 1.00498 0.01659
 C1448 C 0.88168 1.02143 0.01018
 C1449 C 0.87693 1.01665 -0.01682
 C1450 C 0.85515 1.00050 -0.01070
 C1451 C 0.87696 0.98302 0.01688
 C1452 C 0.87222 0.97825 -0.01013
 C1453 C 0.89875 0.99917 0.01077
 C1454 C 0.89401 0.99469 -0.01654
 C1455 C 0.87680 1.03537 -0.03558
 C1456 C 0.87661 1.05079 -0.05101
 C1457 C 0.87685 0.96428 0.03563
 C1458 C 0.87669 0.94884 0.05102
 H1459 H 0.84586 1.00900 0.03043
 H1460 H 0.88557 1.03940 0.01831
 H1461 H 0.83722 1.00125 -0.01974
 H1462 H 0.86833 0.96028 -0.01826
 H1463 H 0.91668 0.99840 0.01981
 H1464 H 0.90804 0.99068 -0.03038
 C1465 C 0.63774 -0.00748 0.51858
 C1466 C 0.61507 -0.02129 0.50956
 C1467 C 0.62344 -0.01726 0.48332
 C1468 C 0.64611 -0.00374 0.49206
 C1469 C 0.62345 0.01634 0.51711
 C1470 C 0.63181 0.02037 0.49087
 C1471 C 0.60077 0.00283 0.50838
 C1472 C 0.60914 0.00656 0.48184
 C1473 C 0.62355 -0.03596 0.46450
 C1474 C 0.62373 -0.05136 0.44903
 C1475 C 0.62357 0.03507 0.53590
 C1476 C 0.62375 0.05051 0.55132
 H1477 H 0.64951 -0.01305 0.53390
 H1478 H 0.60818 -0.03863 0.51703
 H1479 H 0.66476 -0.00665 0.48514
 H1480 H 0.63870 0.03770 0.48339
 H1481 H 0.58213 0.00574 0.51530
 H1482 H 0.59737 0.01212 0.46652
 C1483 C 0.49861 0.98655 0.39703
 C1484 C 0.50338 1.01418 0.39599
 C1485 C 0.48351 1.01656 0.37668
 C1486 C 0.47844 0.98923 0.37773
 C1487 C 0.51716 0.98289 0.37662
 C1488 C 0.49728 0.98527 0.35731
 C1489 C 0.52223 1.01022 0.37557
 C1490 C 0.50207 1.01289 0.35627
 C1491 C 0.46476 1.03528 0.37660
 C1492 C 0.44931 1.05067 0.37645
 C1493 C 0.53589 0.96414 0.37647
 C1494 C 0.55129 0.94871 0.37628
 H1495 H 0.49741 0.97550 0.41379
 H1496 H 0.50567 1.02628 0.41189
 H1497 H 0.46021 0.98082 0.37862
 H1498 H 0.49499 0.97317 0.34141
 H1499 H 0.54046 1.01863 0.37469
 H1500 H 0.50327 1.02393 0.33951
 C1501 C 0.01828 -0.00680 0.13861
 C1502 C -0.00856 -0.00285 0.14572
 C1503 C -0.01627 -0.01737 0.12327
 C1504 C 0.01028 -0.02160 0.11615
 C1505 C 0.01729 0.01639 0.12327
 C1506 C 0.00958 0.00188 0.10081
 C1507 C -0.00927 0.02062 0.13038
 C1508 C -0.01727 0.00582 0.10792
 C1509 C -0.03497 -0.03615 0.12338
 C1510 C -0.05038 -0.05158 0.12354
 C1511 C 0.03599 0.03517 0.12339
 C1512 C 0.05140 0.05060 0.12356
 H1513 H 0.03311 -0.01178 0.15123
 H1514 H -0.01622 -0.00501 0.16419
 H1515 H 0.01811 -0.03918 0.11030
 H1516 H 0.01725 0.00404 0.08234
 H1517 H -0.01709 0.03819 0.13623
 H1518 H -0.03210 0.01079 0.09530
 C1519 C 0.48376 0.50485 0.10591
 C1520 C 0.48995 0.52162 0.12755
 C1521 C 0.51697 0.51681 0.12309
 C1522 C 0.51108 0.50033 0.10145
 C1523 C 0.48333 0.48313 0.12330
 C1524 C 0.51036 0.47832 0.11884
 C1525 C 0.48924 0.49961 0.14493
 C1526 C 0.51655 0.49509 0.14047
 C1527 C 0.53572 0.53555 0.12309
 C1528 C 0.55116 0.55095 0.12317
 C1529 C 0.46460 0.46438 0.12352
 C1530 C 0.44918 0.44897 0.12375
 H1531 H 0.47006 0.50864 0.09170
 H1532 H 0.48176 0.53963 0.13112
 H1533 H 0.52027 0.50084 0.08356
 H1534 H 0.51854 0.46031 0.11525
 H1535 H 0.48005 0.49911 0.16282
 H1536 H 0.53024 0.49129 0.15468
 C1537 C 0.01782 0.49351 0.63842
 C1538 C -0.00889 0.49728 0.64608
 C1539 C -0.01698 0.48317 0.62350
 C1540 C 0.00945 0.47910 0.61584
 C1541 C 0.01653 0.51697 0.62353
 C1542 C 0.00845 0.50286 0.60095
 C1543 C -0.00990 0.52103 0.63119
 C1544 C -0.01828 0.50663 0.60860
 C1545 C -0.03566 0.46435 0.62359
 C1546 C -0.05104 0.44889 0.62374
 C1547 C 0.03521 0.53578 0.62366
 C1548 C 0.05060 0.55123 0.62384
 H1549 H 0.03287 0.48832 0.65069
 H1550 H -0.01623 0.49478 0.66464
 H1551 H 0.01719 0.46165 0.60953
 H1552 H 0.01579 0.50537 0.58239
 H1553 H -0.01764 0.53848 0.63749
 H1554 H -0.03333 0.51181 0.59634
 C1555 C 0.49789 0.48704 0.89677
 C1556 C 0.50268 0.51467 0.89590
 C1557 C 0.48297 0.51716 0.87642
 C1558 C 0.47789 0.48982 0.87730
 C1559 C 0.51664 0.48345 0.87651
 C1560 C 0.49692 0.48594 0.85704
 C1561 C 0.52171 0.51079 0.87564
 C1562 C 0.50172 0.51356 0.85617
 C1563 C 0.46420 0.53593 0.87627
 C1564 C 0.44876 0.55134 0.87610
 C1565 C 0.53540 0.46468 0.87645
 C1566 C 0.55086 0.44927 0.87632
 H1567 H 0.49652 0.47592 0.91347
 H1568 H 0.50484 0.52669 0.91188
 H1569 H 0.45966 0.48140 0.87798
 H1570 H 0.49476 0.47392 0.84106
 H1571 H 0.53994 0.51921 0.87496
 H1572 H 0.50309 0.52467 0.83946
 C1573 C 0.64382 0.50246 0.98696
 C1574 C 0.62448 0.52259 0.98975
 C1575 C 0.62349 0.51743 1.01708
 C1576 C 0.64282 0.49758 1.01458
 C1577 C 0.62348 0.48386 0.98327
 C1578 C 0.62249 0.47870 1.01060
 C1579 C 0.60414 0.50370 0.98576
 C1580 C 0.60314 0.49883 1.01340
 C1581 C 0.62361 0.53613 1.03591
 C1582 C 0.62380 0.55154 1.05137
 C1583 C 0.62360 0.46514 0.96446
 C1584 C 0.62378 0.44972 0.94901
 H1585 H 0.66054 0.50375 0.97588
 H1586 H 0.62529 0.54085 0.98139
 H1587 H 0.65873 0.49528 1.02664
 H1588 H 0.62167 0.46044 1.01897
 H1589 H 0.58823 0.50600 0.97370
 H1590 H 0.58642 0.49755 1.02448
 C1591 C 0.35935 1.00575 0.51586
 C1592 C 0.38117 1.02219 0.50949
 C1593 C 0.37662 1.01726 0.48247
 C1594 C 0.35481 1.00111 0.48855
 C1595 C 0.37644 0.98380 0.51640
 C1596 C 0.37189 0.97887 0.48938
 C1597 C 0.39826 0.99994 0.51033
 C1598 C 0.39371 0.99531 0.48301
 C1599 C 0.37659 1.03591 0.46359
 C1600 C 0.37647 1.05129 0.44810
 C1601 C 0.37623 0.96515 0.53529
 C1602 C 0.37598 0.94978 0.55079
 H1603 H 0.34523 1.00985 0.52957
 H1604 H 0.38499 1.04020 0.51756
 H1605 H 0.33694 1.00179 0.47939
 H1606 H 0.36808 0.96086 0.48132
 H1607 H 0.41613 0.99926 0.51950
 H1608 H 0.40784 0.99122 0.46930
 C1609 C -0.00553 0.64021 0.51662
 C1610 C -0.00118 0.64524 0.48935
 C1611 C -0.01707 0.62330 0.48308
 C1612 C -0.02171 0.61827 0.51006
 C1613 C 0.01664 0.62341 0.51672
 C1614 C 0.00075 0.60146 0.51046
 C1615 C 0.02128 0.62844 0.48974
 C1616 C 0.00510 0.60649 0.48318
 C1617 C -0.03582 0.62334 0.46434
 C1618 C -0.05121 0.62344 0.44889
 C1619 C 0.03539 0.62358 0.53546
 C1620 C 0.05081 0.62379 0.55089
 H1621 H -0.00970 0.65408 0.53058
 H1622 H -0.00218 0.66324 0.48047
 H1623 H -0.03960 0.61408 0.51821
 H1624 H 0.00175 0.58346 0.51935
 H1625 H 0.03917 0.63262 0.48159
 H1626 H 0.00926 0.59262 0.46922
 C1627 C 0.48996 0.37548 0.97822
 C1628 C 0.48742 0.35631 0.99855
 C1629 C 0.48335 0.37680 1.01693
 C1630 C 0.48559 0.39598 0.99690
 C1631 C 0.51722 0.37694 0.98347
 C1632 C 0.51315 0.39744 1.00185
 C1633 C 0.51497 0.35778 1.00351
 C1634 C 0.51061 0.37827 1.02218
 C1635 C 0.46451 0.37662 1.03558
 C1636 C 0.44904 0.37640 1.05096
 C1637 C 0.53606 0.37690 0.96481
 C1638 C 0.55151 0.37677 0.94942
 H1639 H 0.48169 0.37434 0.95993
 H1640 H 0.47662 0.33940 0.99740
 H1641 H 0.47329 0.41167 0.99440
 H1642 H 0.52395 0.41435 1.00299
 H1643 H 0.52727 0.34208 1.00601
 H1644 H 0.51888 0.37942 1.04047
 C1645 C 0.51767 -0.00640 0.63830
 C1646 C 0.49098 -0.00250 0.64596
 C1647 C 0.48281 -0.01651 0.62334
 C1648 C 0.50922 -0.02069 0.61567
 C1649 C 0.51651 0.01711 0.62348
 C1650 C 0.50835 0.00311 0.60085
 C1651 C 0.49010 0.02130 0.63114
 C1652 C 0.48164 0.00701 0.60852
 C1653 C 0.46404 -0.03522 0.62339
 C1654 C 0.44858 -0.05060 0.62350
 C1655 C 0.53529 0.03582 0.62366
 C1656 C 0.55076 0.05119 0.62387
 H1657 H 0.53269 -0.01171 0.65055
 H1658 H 0.48363 -0.00502 0.66452
 H1659 H 0.51686 -0.03817 0.60931
 H1660 H 0.51570 0.00564 0.58230
 H1661 H 0.48246 0.03877 0.63750
 H1662 H 0.46662 0.01231 0.59627
 C1663 C -0.00136 0.48678 0.39702
 C1664 C 0.00350 0.51440 0.39588
 C1665 C -0.01635 0.51676 0.37654
 C1666 C -0.02150 0.48945 0.37768
 C1667 C 0.01721 0.48299 0.37663
 C1668 C -0.00264 0.48537 0.35730
 C1669 C 0.02236 0.51030 0.37549
 C1670 C 0.00222 0.51296 0.35616
 C1671 C -0.03505 0.53553 0.37636
 C1672 C -0.05048 0.55094 0.37614
 C1673 C 0.03590 0.46421 0.37656
 C1674 C 0.05130 0.44877 0.37641
 H1675 H -0.00261 0.47580 0.41381
 H1676 H 0.00580 0.52655 0.41173
 H1677 H -0.03975 0.48110 0.37858
 H1678 H -0.00496 0.47322 0.34144
 H1679 H 0.04061 0.51866 0.37460
 H1680 H 0.00348 0.52394 0.33936
 C1681 C -0.00248 0.98778 0.89720
 C1682 C 0.00232 1.01539 0.89589
 C1683 C -0.01765 1.01764 0.87664
 C1684 C -0.02274 0.99032 0.87796
 C1685 C 0.01599 0.98390 0.87674
 C1686 C -0.00398 0.98615 0.85750
 C1687 C 0.02108 1.01122 0.87543
 C1688 C 0.00083 1.01375 0.85619
 C1689 C -0.03639 1.03643 0.87649
 C1690 C -0.05181 1.05187 0.87631
 C1691 C 0.03474 0.96512 0.87667
 C1692 C 0.05019 0.94969 0.87654
 H1693 H -0.00363 0.97689 0.91407
 H1694 H 0.00470 1.02763 0.91167
 H1695 H -0.04096 0.98193 0.87900
 H1696 H -0.00637 0.97392 0.84172
 H1697 H 0.03930 1.01961 0.87439
 H1698 H 0.00199 1.02463 0.83932
 C1699 C 0.72840 0.62501 0.25949
 C1700 C 0.74572 0.60366 0.26509
 C1701 C 0.76692 0.62162 0.26625
 C1702 C 0.74989 0.64296 0.26094
 C1703 C 0.73351 0.62160 0.23233
 C1704 C 0.75471 0.63956 0.23351
 C1705 C 0.75054 0.60026 0.23762
 C1706 C 0.77203 0.61821 0.23909
 C1707 C 0.78554 0.62184 0.28513
 C1708 C 0.80089 0.62226 0.30062
 C1709 C 0.71487 0.62183 0.21347
 C1710 C 0.69949 0.62230 0.19801
 H1711 H 0.71025 0.62781 0.26766
 H1712 H 0.74224 0.58891 0.27829
 H1713 H 0.74982 0.66052 0.27074
 H1714 H 0.75820 0.65432 0.22031
 H1715 H 0.75059 0.58270 0.22782
 H1716 H 0.79018 0.61542 0.23092
 C1717 C 0.22766 0.88363 0.73983
 C1718 C 0.24981 0.90082 0.73904
 C1719 C 0.26607 0.87907 0.73297
 C1720 C 0.24421 0.86188 0.73347
 C1721 C 0.23255 0.87906 0.76685
 C1722 C 0.24881 0.85731 0.76076
 C1723 C 0.25441 0.89625 0.76636
 C1724 C 0.27095 0.87449 0.75999
 C1725 C 0.28476 0.87881 0.71411
 C1726 C 0.30016 0.87832 0.69864
 C1727 C 0.21387 0.87880 0.78571
 C1728 C 0.19848 0.87831 0.80119
 H1729 H 0.20966 0.88738 0.73175
 H1730 H 0.25043 0.91871 0.72990
 H1731 H 0.24022 0.84774 0.71973
 H1732 H 0.24821 0.83942 0.76990
 H1733 H 0.25839 0.91038 0.78010
 H1734 H 0.28896 0.87073 0.76807
 C1735 C 0.23968 0.37673 0.22825
 C1736 C 0.23736 0.35761 0.24865
 C1737 C 0.23349 0.37815 0.26704
 C1738 C 0.23552 0.39727 0.24693
 C1739 C 0.26700 0.37820 0.23320
 C1740 C 0.26314 0.39874 0.25158
 C1741 C 0.26496 0.35908 0.25331
 C1742 C 0.26081 0.37961 0.27199
 C1743 C 0.21482 0.37786 0.28586
 C1744 C 0.19943 0.37734 0.30131
 C1745 C 0.28567 0.37797 0.21438
 C1746 C 0.30106 0.37748 0.19893
 H1747 H 0.23122 0.37554 0.21005
 H1748 H 0.22656 0.34070 0.24766
 H1749 H 0.22319 0.41297 0.24453
 H1750 H 0.27396 0.41564 0.25256
 H1751 H 0.27728 0.34338 0.25571
 H1752 H 0.26928 0.38079 0.29018
 C1753 C 0.87549 0.77121 0.26032
 C1754 C 0.85703 0.75017 0.26197
 C1755 C 0.87804 0.73251 0.26646
 C1756 C 0.89650 0.75325 0.26510
 C1757 C 0.87804 0.76639 0.23302
 C1758 C 0.89905 0.74873 0.23750
 C1759 C 0.85958 0.74564 0.23439
 C1760 C 0.88059 0.72769 0.23917
 C1761 C 0.87781 0.71366 0.28511
 C1762 C 0.87736 0.69820 0.30048
 C1763 C 0.87782 0.78525 0.21439
 C1764 C 0.87742 0.80072 0.19903
 H1765 H 0.87339 0.78932 0.26880
 H1766 H 0.83976 0.75055 0.27224
 H1767 H 0.91168 0.75616 0.27795
 H1768 H 0.91632 0.74837 0.22723
 H1769 H 0.84439 0.74273 0.22155
 H1770 H 0.88268 0.70957 0.23069
 C1771 C 0.64324 0.25182 0.73687
 C1772 C 0.62389 0.27198 0.73941
 C1773 C 0.62293 0.26716 0.76681
 C1774 C 0.64228 0.24730 0.76454
 C1775 C 0.62291 0.23316 0.73343
 C1776 C 0.62195 0.22834 0.76083
 C1777 C 0.60356 0.25302 0.73569
 C1778 C 0.60260 0.24850 0.76339
 C1779 C 0.62311 0.28607 0.78542
 C1780 C 0.62347 0.30158 0.80078
 C1781 C 0.62308 0.21425 0.71482
 C1782 C 0.62343 0.19873 0.69947
 H1783 H 0.65995 0.25298 0.72576
 H1784 H 0.62469 0.29013 0.73082
 H1785 H 0.65820 0.24516 0.77661
 H1786 H 0.62116 0.21019 0.76943
 H1787 H 0.58764 0.25515 0.72361
 H1788 H 0.58589 0.24735 0.77450
 C1789 C 0.74487 0.25649 0.85504
 C1790 C 0.77020 0.25906 0.86677
 C1791 C 0.76726 0.23375 0.87795
 C1792 C 0.74221 0.23090 0.86621
 C1793 C 0.73349 0.26736 0.87801
 C1794 C 0.73054 0.24206 0.88919
 C1795 C 0.75854 0.27022 0.88974
 C1796 C 0.75588 0.24462 0.90092
 C1797 C 0.78605 0.21501 0.87771
 C1798 C 0.80147 0.19956 0.87730
 C1799 C 0.71468 0.28608 0.87782
 C1800 C 0.69922 0.30148 0.87740
 H1801 H 0.74014 0.26157 0.83617
 H1802 H 0.78672 0.26585 0.85754
 H1803 H 0.73569 0.21453 0.85653
 H1804 H 0.71402 0.23527 0.89840
 H1805 H 0.76505 0.28659 0.89942
 H1806 H 0.76062 0.23953 0.91979
 C1807 C 0.23272 0.75581 0.60562
 C1808 C 0.23926 0.77219 0.62745
 C1809 C 0.26621 0.76736 0.62256
 C1810 C 0.25997 0.75127 0.60073
 C1811 C 0.23243 0.73381 0.62265
 C1812 C 0.25938 0.72897 0.61776
 C1813 C 0.23868 0.74991 0.64448
 C1814 C 0.26591 0.74536 0.63959
 C1815 C 0.28501 0.78604 0.62270
 C1816 C 0.30046 0.80143 0.62302
 C1817 C 0.21364 0.71511 0.62287
 C1818 C 0.19822 0.69970 0.62326
 H1819 H 0.21885 0.75990 0.59166
 H1820 H 0.23120 0.79018 0.63144
 H1821 H 0.26893 0.75203 0.58274
 H1822 H 0.26744 0.71099 0.61378
 H1823 H 0.22972 0.74915 0.66247
 H1824 H 0.27977 0.74126 0.65356
   
