data_POSCAR
  _audit_creation_date              2014-09-24
  _audit_creation_method            'ToBaCCo'
  _symmetry_space_group_name_H-M    'P1'
  _symmetry_Int_Tables_number       1
  _symmetry_cell_setting            triclinic
  loop_
  _symmetry_equiv_pos_as_xyz
 x,y,z
_cell_length_a 53.1980
_cell_length_b 53.1418
_cell_length_c 53.2472
_cell_angle_alpha 90.017700
_cell_angle_beta 90.034600
_cell_angle_gamma 89.996600
loop_
  _atom_site_label
  _atom_site_type_symbol
  _atom_site_fract_x
  _atom_site_fract_y
  _atom_site_fract_z
C1 C 0.35850 1.36008 0.32706
 N2 N 0.36899 1.33927 0.33749
 C3 C 0.35869 1.32890 0.35837
 N4 N 0.33781 1.33924 0.36873
 C5 C 0.32731 1.36005 0.35832
 N6 N 0.33760 1.37042 0.33743
 C7 C 0.35872 0.86001 0.82849
 N8 N 0.33787 0.87041 0.83888
 C9 C 0.32752 0.86003 0.85974
 N10 N 0.33792 0.83914 0.87009
 C11 C 0.35876 0.82874 0.85971
 N12 N 0.36910 0.83913 0.83885
 C13 C 0.85932 1.35945 0.82687
 N14 N 0.86986 1.33866 0.83728
 C15 C 0.85966 1.32832 0.85823
 N16 N 0.83881 1.33866 0.86866
 C17 C 0.82826 1.35943 0.85827
 N18 N 0.83846 1.36978 0.83731
 C19 C 0.85971 0.86014 0.32745
 N20 N 0.87010 0.83925 0.33780
 C21 C 0.85978 0.82887 0.35867
 N22 N 0.83895 0.83928 0.36907
 C23 C 0.82855 0.86016 0.35873
 N24 N 0.83887 0.87054 0.33786
 C25 C 0.64003 0.64037 0.32747
 N26 N 0.66092 0.62996 0.33778
 C27 C 0.67137 0.64034 0.35860
 N28 N 0.66103 0.66122 0.36900
 C29 C 0.64015 0.67164 0.35870
 N30 N 0.62970 0.66126 0.33788
 C31 C 0.64126 0.13995 0.82765
 N32 N 0.66219 0.12954 0.83790
 C33 C 0.67263 0.13985 0.85878
 N34 N 0.66224 0.16067 0.86928
 C35 C 0.64132 0.17108 0.85903
 N36 N 0.63089 0.16077 0.83817
 C37 C 1.13920 0.63888 0.82922
 N38 N 1.12887 0.65978 0.83962
 C39 C 1.13932 0.67014 0.86045
 N40 N 1.16021 0.65974 0.87074
 C41 C 1.17054 0.63885 0.86033
 N42 N 1.16010 0.62849 0.83951
 C43 C 1.14103 0.13960 0.32771
 N44 N 1.16195 0.12929 0.33808
 C45 C 1.17229 0.13971 0.35894
 N46 N 1.16181 0.16056 0.36931
 C47 C 1.14091 0.17087 0.35894
 N48 N 1.13058 0.16044 0.33809
 C49 C 0.64139 1.36018 0.67288
 N50 N 0.63096 1.33934 0.66246
 C51 C 0.64124 1.32899 0.64156
 N52 N 0.66207 1.33939 0.63116
 C53 C 0.67253 1.36024 0.64155
 N54 N 0.66224 1.37059 0.66247
 C55 C 0.63968 0.86074 1.17104
 N56 N 0.62931 0.83981 1.16072
 C57 C 0.63969 0.82937 1.13991
 N58 N 0.66055 0.83973 1.12954
 C59 C 0.67092 0.86065 1.13986
 N60 N 0.66055 0.87109 1.16067
 C61 C 1.14149 1.35982 1.17267
 N62 N 1.16235 1.37023 1.16233
 C63 C 1.17273 1.35988 1.14145
 N64 N 1.16234 1.33901 1.13105
 C65 C 1.14148 1.32859 1.14138
 N66 N 1.13111 1.33895 1.16224
 C67 C 1.14182 0.85941 0.67180
 N68 N 1.13151 0.83851 0.66140
 C69 C 1.14192 0.82815 0.64056
 N70 N 1.16277 0.83860 0.63023
 C71 C 1.17309 0.85952 0.64063
 N72 N 1.16267 0.86987 0.66147
 C73 C 0.35890 0.63995 0.67141
 N74 N 0.33802 0.62953 0.66110
 C75 C 0.32755 0.63989 0.64028
 N76 N 0.33788 0.66079 0.62988
 C77 C 0.35877 0.67121 0.64019
 N78 N 0.36922 0.66084 0.66101
 C79 C 0.35961 0.13959 1.17086
 N80 N 0.33868 0.12920 1.16060
 C81 C 0.32828 0.13947 1.13970
 N82 N 0.33870 0.16026 1.12919
 C83 C 0.35963 0.17064 1.13945
 N84 N 0.37002 0.16037 1.16035
 C85 C 0.86020 0.63976 1.17220
 N86 N 0.83929 0.62937 1.16190
 C87 C 0.82888 0.63971 1.14104
 N88 N 0.83925 0.66055 1.13060
 C89 C 0.86015 0.67094 1.14089
 N90 N 0.87057 0.66061 1.16175
 C91 C 0.85854 0.14057 0.67310
 N92 N 0.83759 0.13015 0.66289
 C93 C 0.82716 0.14038 0.64198
 N94 N 0.83757 0.16112 0.63140
 C95 C 0.85851 0.17155 0.64160
 N96 N 0.86894 0.16133 0.66250
 C97 C 1.35989 0.35917 0.67249
 N98 N 1.37037 0.33837 0.66205
 C99 C 1.36007 0.32801 0.64114
 N100 N 1.33916 0.33834 0.63079
 C101 C 1.32867 0.35913 0.64122
 N102 N 1.33897 0.36949 0.66213
 C103 C 1.36051 0.85916 1.17137
 N104 N 1.37087 0.83827 1.16097
 C105 C 1.36046 0.82791 1.14012
 N106 N 1.33958 0.83832 1.12978
 C107 C 1.32922 0.85920 1.14018
 N108 N 1.33963 0.86956 1.16103
 C109 C 0.86047 0.36023 1.17176
 N110 N 0.83954 0.37058 1.16147
 C111 C 0.82917 0.36027 1.14058
 N112 N 0.83960 0.33947 1.13009
 C113 C 0.86053 0.32912 1.14037
 N114 N 0.87090 0.33943 1.16126
 C115 C 0.86042 0.86053 0.67072
 N116 N 0.87076 0.83966 0.66027
 C117 C 0.86037 0.82937 0.63937
 N118 N 0.83951 0.83982 0.62905
 C119 C 0.82918 0.86069 0.63950
 N120 N 0.83957 0.87098 0.66039
 C121 C 0.64019 0.63997 0.67144
 N122 N 0.62980 0.66087 0.66112
 C123 C 0.64011 0.67128 0.64027
 N124 N 0.66093 0.66088 0.62984
 C125 C 0.67133 0.63998 0.64015
 N126 N 0.66102 0.62958 0.66101
 C127 C 0.64074 1.14145 1.17308
 N128 N 0.66158 1.13103 1.16269
 C129 C 0.67192 1.14138 1.14181
 N130 N 0.66152 1.16225 1.13143
 C131 C 0.64069 1.17269 1.14181
 N132 N 0.63035 1.16233 1.16268
 C133 C 0.14065 0.64148 1.17317
 N134 N 0.13028 0.66239 1.16284
 C135 C 0.14062 0.67279 1.14198
 N136 N 0.16144 0.66237 1.13157
 C137 C 0.17183 0.64146 1.14189
 N138 N 0.16148 0.63107 1.16274
 C139 C 0.13965 1.14036 0.67117
 N140 N 0.12919 1.16122 0.66081
 C141 C 0.13949 1.17163 0.63994
 N142 N 0.16036 1.16128 0.62955
 C143 C 0.17082 1.14042 0.63990
 N144 N 0.16052 1.13003 0.66077
 C145 C 1.35966 0.64031 0.32751
 N146 N 1.33888 0.62983 0.33796
 C147 C 1.32859 0.64013 0.35889
 N148 N 1.33895 0.66103 0.36927
 C149 C 1.35972 0.67151 0.35883
 N150 N 1.37002 0.66121 0.33790
 C151 C 1.35956 1.14114 0.82727
 N152 N 1.33877 1.13066 0.83768
 C153 C 1.32846 1.14094 0.85861
 N154 N 1.33883 1.16181 0.86902
 C155 C 1.35962 1.17231 0.85862
 N156 N 1.36993 1.16202 0.83769
 C157 C 0.85981 0.63978 0.82836
 N158 N 0.83897 0.62941 0.83877
 C159 C 0.82869 0.63978 0.85967
 N160 N 0.83913 0.66063 0.87004
 C161 C 0.85997 0.67101 0.85963
 N162 N 0.87025 0.66064 0.83874
 C163 C 0.85982 1.14082 0.32739
 N164 N 0.83900 1.13041 0.33782
 C165 C 0.82868 1.14080 0.35869
 N166 N 0.83907 1.16171 0.36902
 C167 C 0.85988 1.17213 0.35861
 N168 N 0.87020 1.16174 0.33774
 C169 C 0.63962 0.35898 0.32767
 N170 N 0.66050 0.36946 0.33793
 C171 C 0.67096 0.35922 0.35881
 N172 N 0.66065 0.33839 0.36932
 C173 C 0.63976 0.32790 0.35908
 N174 N 0.62930 0.33814 0.33819
 C175 C 0.63962 0.86045 0.82901
 N176 N 0.62927 0.83956 0.83937
 C177 C 0.63967 0.82917 0.86021
 N178 N 0.66054 0.83957 0.87056
 C179 C 0.67090 0.86046 0.86020
 N180 N 0.66050 0.87084 0.83936
 C181 C 0.13986 0.35849 0.82827
 N182 N 0.12955 0.33761 0.83870
 C183 C 0.13998 0.32730 0.85957
 N184 N 0.16083 0.33778 0.86989
 C185 C 0.17114 0.35866 0.85946
 N186 N 0.16071 0.36895 0.83860
 C187 C 0.13972 0.86035 0.32822
 N188 N 0.12942 0.83945 0.33864
 C189 C 0.13983 0.82916 0.35952
 N190 N 0.16065 0.83966 0.36986
 C191 C 0.17095 0.86055 0.35946
 N192 N 0.16055 0.87084 0.33858
 O193 O 0.97588 0.90918 0.87513
 O194 O 0.97584 0.87982 0.84585
 C195 C 0.96729 0.90032 0.85469
 C196 C 0.94674 0.91370 0.84147
 C197 C 0.93817 0.90523 0.81799
 H198 H 0.94741 0.88948 0.80897
 O199 O 1.02455 1.09053 0.87499
 O200 O 1.02464 1.11987 0.84571
 C201 C 1.03317 1.09937 0.85459
 C202 C 1.05376 1.08602 0.84144
 C203 C 1.06243 1.09454 0.81805
 H204 H 1.05319 1.11030 0.80902
 O205 O 0.87509 0.97550 0.90918
 O206 O 0.84570 0.97531 0.87995
 C207 C 0.85463 0.96685 0.90042
 C208 C 0.84148 0.94634 0.91391
 C209 C 0.81799 0.93759 0.90556
 H210 H 0.80918 0.94623 0.88937
 O211 O 1.12550 1.02444 0.90929
 O212 O 1.15490 1.02445 0.88012
 C213 C 1.14597 1.03303 0.90053
 C214 C 1.15913 1.05362 0.91394
 C215 C 1.18247 1.06254 0.90540
 H216 H 1.19118 1.05396 0.88913
 O217 O 0.90963 0.87503 0.97573
 O218 O 0.88033 0.84566 0.97569
 C219 C 0.90079 0.85455 0.96715
 C220 C 0.91411 0.84132 0.94660
 C221 C 0.90556 0.81788 0.93792
 H222 H 0.88977 0.80888 0.94708
 O223 O 1.09098 1.12483 0.97572
 O224 O 1.12022 1.15424 0.97569
 C225 C 1.09978 1.14530 0.96712
 C226 C 1.08643 1.15847 0.94652
 C227 C 1.09500 1.18188 0.93778
 H228 H 1.11080 1.19089 0.94694
 O229 O 0.90940 1.02458 0.87474
 O230 O 0.88016 1.02447 0.84537
 C231 C 0.90056 1.03314 0.85429
 C232 C 0.91381 1.05384 0.84118
 C233 C 0.90508 1.06276 0.81794
 H234 H 0.88923 1.05363 0.80897
 O235 O 1.09111 0.97531 0.87490
 O236 O 1.12036 0.97525 0.84556
 C237 C 1.09993 0.96667 0.85447
 C238 C 1.08656 0.94602 0.84137
 C239 C 1.09507 0.93714 0.81801
 H240 H 1.11126 0.94582 0.80924
 O241 O 1.02485 0.87472 0.90964
 O242 O 1.02485 0.84519 0.88053
 C243 C 1.03341 0.85418 0.90093
 C244 C 1.05393 0.84101 0.91440
 C245 C 1.06263 0.81748 0.90607
 H246 H 1.05393 0.80865 0.88992
 O247 O 0.97556 1.12505 0.90935
 O248 O 0.97561 1.15455 0.88023
 C249 C 0.96700 1.14557 0.90060
 C250 C 0.94639 1.15871 0.91394
 C251 C 0.93756 1.18211 0.90543
 H252 H 0.94625 1.19090 0.88926
 O253 O 0.87470 1.09048 0.97543
 O254 O 0.84538 1.11981 0.97541
 C255 C 0.85427 1.09935 0.96682
 C256 C 0.84114 1.08606 0.94616
 C257 C 0.81778 1.09467 0.93732
 H258 H 0.80874 1.11046 0.94647
 O259 O 1.12537 0.90929 0.97597
 O260 O 1.15477 0.88003 0.97597
 C261 C 1.14583 0.90047 0.96737
 C262 C 1.15895 0.91377 0.94674
 C263 C 1.18235 0.90520 0.93802
 H264 H 1.19139 0.88943 0.94721
 O265 O 0.97550 1.09085 0.87471
 O266 O 0.97553 1.12019 0.84543
 C267 C 0.96691 1.09973 0.85428
 C268 C 0.94625 1.08642 0.84113
 C269 C 0.93722 1.09511 0.81788
 H270 H 0.94578 1.11142 0.80919
 O271 O 1.02492 0.90903 0.87509
 O272 O 1.02493 0.87965 0.84583
 C273 C 1.03351 0.90014 0.85468
 C274 C 1.05411 0.91346 0.84151
 C275 C 1.06286 0.90487 0.81815
 H276 H 1.05372 0.88903 0.80917
 O277 O 1.12539 0.97537 0.90943
 O278 O 1.15481 0.97529 0.88027
 C279 C 1.14586 0.96675 0.90069
 C280 C 1.15900 0.94617 0.91414
 C281 C 1.18239 0.93730 0.90567
 H282 H 1.19114 0.94591 0.88945
 O283 O 0.87490 1.02455 0.90901
 O284 O 0.84550 1.02444 0.87979
 C285 C 0.85440 1.03308 0.90020
 C286 C 0.84118 1.05365 0.91356
 C287 C 0.81784 1.06254 0.90497
 H288 H 0.80915 1.05393 0.88870
 O289 O 0.90920 1.12489 0.97541
 O290 O 0.88000 1.15435 0.97539
 C291 C 0.90042 1.14539 0.96684
 C292 C 0.91380 1.15857 0.94629
 C293 C 0.90525 1.18199 0.93753
 H294 H 0.88942 1.19100 0.94661
 O295 O 1.09096 0.87481 0.97604
 O296 O 1.12021 0.84541 0.97604
 C297 C 1.09976 0.85432 0.96748
 C298 C 1.08639 0.84110 0.94694
 C299 C 1.09479 0.81758 0.93836
 H300 H 1.11051 0.80850 0.94759
 O301 O 1.09102 1.02440 0.87493
 O302 O 1.12025 1.02443 0.84558
 C303 C 1.09980 1.03299 0.85448
 C304 C 1.08636 1.05357 0.84134
 C305 C 1.09479 1.06241 0.81794
 H306 H 1.11099 1.05376 0.80915
 O307 O 0.90950 0.97547 0.87479
 O308 O 0.88029 0.97529 0.84539
 C309 C 0.90074 0.96680 0.85435
 C310 C 0.91422 0.94621 0.84126
 C311 C 0.90589 0.93745 0.81779
 H312 H 0.88975 0.94615 0.80893
 O313 O 1.02462 1.12504 0.90934
 O314 O 1.02473 1.15453 0.88022
 C315 C 1.03328 1.14553 0.90062
 C316 C 1.05391 1.15862 0.91403
 C317 C 1.06278 1.18202 0.90556
 H318 H 1.05413 1.19082 0.88937
 O319 O 0.97582 0.87473 0.90951
 O320 O 0.97576 0.84522 0.88038
 C321 C 0.96720 0.85422 0.90077
 C322 C 0.94660 0.84112 0.91415
 C323 C 0.93775 0.81769 0.90571
 H324 H 0.94641 0.80886 0.88955
 O325 O 1.12552 1.09048 0.97577
 O326 O 1.15489 1.11976 0.97576
 C327 C 1.14597 1.09931 0.96718
 C328 C 1.15911 1.08601 0.94655
 C329 C 1.18245 1.09464 0.93776
 H330 H 1.19147 1.11044 0.94693
 O331 O 0.87519 0.90948 0.97571
 O332 O 0.84577 0.88024 0.97570
 C333 C 0.85471 0.90067 0.96713
 C334 C 0.84154 0.91400 0.94654
 C335 C 0.81805 0.90555 0.93796
 H336 H 0.80898 0.88985 0.94723
 Cu337 Cu 1.00037 0.89486 0.89526
 Cu338 Cu 1.00035 0.85952 0.86021
 Cu339 Cu 1.00004 1.10493 0.89502
 Cu340 Cu 1.00015 1.14024 0.85997
 Cu341 Cu 0.89516 1.00004 0.89485
 Cu342 Cu 0.85998 0.99985 0.85967
 Cu343 Cu 1.10532 0.99989 0.89505
 Cu344 Cu 1.14053 0.99985 0.85994
 C345 C 0.93480 0.93435 0.85282
 H346 H 0.94110 0.94076 0.87109
 C347 C 0.91774 0.91696 0.80601
 C348 C 1.06569 1.06537 0.85281
 H349 H 1.05932 1.05892 0.87102
 C350 C 1.08295 1.08291 0.80617
 C351 C 0.85297 0.93457 0.93456
 H352 H 0.87125 0.94096 0.94086
 C353 C 0.80614 0.91719 0.91746
 C354 C 1.14773 1.06534 0.93467
 H355 H 1.12956 1.05881 0.94112
 C356 C 1.19426 1.08307 0.91717
 C357 C 0.93479 0.85266 0.93475
 H358 H 0.94127 0.87091 0.94113
 C359 C 0.91723 0.80593 0.91746
 C360 C 1.06572 1.14711 0.93467
 H361 H 1.05923 1.12889 0.94107
 C362 C 1.08333 1.19379 0.91730
 C363 C 0.93455 1.06564 0.85248
 H364 H 0.94116 1.05907 0.87058
 C365 C 0.91660 1.08342 0.80616
 C366 C 1.06593 0.93420 0.85283
 H367 H 1.05950 0.94070 0.87101
 C368 C 1.08334 0.91656 0.80626
 C369 C 1.06579 0.85254 0.93499
 H370 H 1.05943 0.87084 0.94129
 C371 C 1.08306 0.80562 0.91792
 C372 C 0.93453 1.14722 0.93453
 H373 H 0.94100 1.12900 0.94097
 C374 C 0.91698 1.19389 0.91709
 C375 C 0.85254 1.06540 0.93431
 H376 H 0.87072 1.05889 0.94080
 C377 C 0.80599 1.08305 0.91672
 C378 C 1.14756 0.93442 0.93483
 H379 H 1.12935 0.94091 0.94123
 C380 C 1.19420 0.91681 0.91748
 O381 O 1.02463 0.90916 1.12547
 O382 O 1.02459 0.87988 1.15481
 C383 C 1.03316 0.90035 1.14594
 C384 C 1.05370 0.91373 1.15916
 C385 C 1.06237 0.90521 1.18257
 H386 H 1.05318 0.88940 1.19156
 O387 O 0.97569 1.09107 1.12531
 O388 O 0.97563 1.12050 1.15452
 C389 C 0.96707 1.10000 1.14570
 C390 C 0.94647 1.08670 1.15889
 C391 C 0.93771 1.09535 1.18222
 H392 H 0.94685 1.11120 1.19117
 O393 O 0.87498 1.02483 1.09120
 O394 O 0.84558 1.02485 1.12039
 C395 C 0.85450 1.03342 1.09997
 C396 C 0.84131 1.05398 1.08654
 C397 C 0.81799 1.06295 1.09512
 H398 H 0.80932 1.05442 1.11143
 O399 O 1.12515 0.97545 1.09136
 O400 O 1.15453 0.97545 1.12060
 C401 C 1.14563 0.96688 1.10016
 C402 C 1.15884 0.94632 1.08679
 C403 C 1.18228 0.93764 1.09527
 H404 H 1.19129 0.94679 1.11107
 O405 O 1.09105 0.87481 1.02504
 O406 O 1.12034 0.84544 1.02508
 C407 C 1.09990 0.85434 1.03365
 C408 C 1.08660 0.84118 1.05426
 C409 C 1.09525 0.81784 1.06313
 H410 H 1.11112 0.80886 1.05407
 O411 O 0.90933 1.12487 1.02439
 O412 O 0.88015 1.15434 1.02439
 C413 C 0.90060 1.14540 1.03293
 C414 C 0.91402 1.15864 1.05342
 C415 C 0.90558 1.18215 1.06201
 H416 H 0.88980 1.19117 1.05282
 O417 O 0.90945 0.97573 1.12555
 O418 O 0.88021 0.97566 1.15489
 C419 C 0.90064 0.96708 1.14597
 C420 C 0.91399 0.94640 1.15904
 C421 C 0.90548 0.93753 1.18239
 H422 H 0.88931 0.94623 1.19118
 O423 O 1.09076 1.02458 1.12571
 O424 O 1.11998 1.02463 1.15510
 C425 C 1.09956 1.03321 1.14615
 C426 C 1.08620 1.05386 1.15923
 C427 C 1.09467 1.06270 1.18262
 H428 H 1.11083 1.05397 1.19143
 O429 O 0.97572 0.87465 1.09095
 O430 O 0.97563 0.84521 1.12013
 C431 C 0.96711 0.85416 1.09970
 C432 C 0.94655 0.84102 1.08627
 C433 C 0.93773 0.81757 1.09468
 H434 H 0.94639 0.80875 1.11085
 O435 O 1.02482 1.12538 1.09090
 O436 O 1.02481 1.15494 1.11998
 C437 C 1.03342 1.14591 1.09963
 C438 C 1.05406 1.15898 1.08628
 C439 C 1.06301 1.18235 1.09480
 H440 H 1.05439 1.19116 1.11100
 O441 O 0.87526 0.90956 1.02472
 O442 O 0.84585 0.88032 1.02471
 C443 C 0.85479 0.90077 1.03328
 C444 C 0.84161 0.91414 1.05383
 C445 C 0.81813 0.90569 1.06240
 H446 H 0.80907 0.88995 1.05315
 O447 O 1.12547 1.09052 1.02481
 O448 O 1.15487 1.11977 1.02482
 C449 C 1.14593 1.09934 1.03342
 C450 C 1.15904 1.08600 1.05407
 C451 C 1.18247 1.09446 1.06287
 H452 H 1.19131 1.11060 1.05413
 O453 O 1.02471 1.09098 1.12534
 O454 O 1.02472 1.12039 1.15457
 C455 C 1.03327 1.09987 1.14577
 C456 C 1.05382 1.08651 1.15902
 C457 C 1.06254 1.09506 1.18241
 H458 H 1.05342 1.11092 1.19138
 O459 O 0.97560 0.90918 1.12530
 O460 O 0.97551 0.87989 1.15463
 C461 C 0.96697 0.90036 1.14572
 C462 C 0.94639 0.91375 1.15886
 C463 C 0.93763 0.90519 1.18222
 H464 H 0.94674 0.88933 1.19120
 O465 O 1.12513 1.02451 1.09130
 O466 O 1.15451 1.02457 1.12054
 C467 C 1.14561 1.03310 1.10009
 C468 C 1.15882 1.05363 1.08669
 C469 C 1.18225 1.06233 1.09519
 H470 H 1.19124 1.05319 1.11100
 O471 O 0.87508 0.97578 1.09111
 O472 O 0.84567 0.97570 1.12027
 C473 C 0.85461 0.96716 1.09985
 C474 C 0.84148 0.94660 1.08638
 C475 C 0.81800 0.93784 1.09471
 H476 H 0.80917 0.94653 1.11086
 O477 O 1.09106 1.12501 1.02473
 O478 O 1.12033 1.15440 1.02473
 C479 C 1.09989 1.14551 1.03329
 C480 C 1.08657 1.15874 1.05385
 C481 C 1.09522 1.18212 1.06261
 H482 H 1.11107 1.19107 1.05349
 O483 O 0.90956 0.87495 1.02472
 O484 O 0.88027 0.84558 1.02469
 C485 C 0.90073 0.85446 1.03326
 C486 C 0.91406 0.84121 1.05379
 C487 C 0.90553 0.81776 1.06244
 H488 H 0.88973 0.80876 1.05326
 O489 O 1.09077 0.97547 1.12578
 O490 O 1.11999 0.97546 1.15518
 C491 C 1.09956 0.96688 1.14624
 C492 C 1.08617 0.94627 1.15936
 C493 C 1.09461 0.93745 1.18277
 H494 H 1.11078 0.94614 1.19159
 O495 O 0.90943 1.02485 1.12558
 O496 O 0.88021 1.02487 1.15493
 C497 C 0.90063 1.03347 1.14601
 C498 C 0.91400 1.05414 1.15910
 C499 C 0.90548 1.06308 1.18243
 H500 H 0.88928 1.05444 1.19121
 O501 O 0.97576 1.12526 1.09066
 O502 O 0.97570 1.15484 1.11971
 C503 C 0.96715 1.14579 1.09932
 C504 C 0.94658 1.15888 1.08585
 C505 C 0.93783 1.18238 1.09419
 H506 H 0.94655 1.19126 1.11031
 O507 O 1.02477 0.87467 1.09111
 O508 O 1.02473 0.84525 1.12030
 C509 C 1.03337 0.85420 1.09993
 C510 C 1.05404 0.84107 1.08665
 C511 C 1.06299 0.81774 1.09527
 H512 H 1.05434 0.80900 1.11149
 O513 O 1.12543 0.90931 1.02500
 O514 O 1.15486 0.88008 1.02503
 C515 C 1.14591 0.90052 1.03360
 C516 C 1.15903 0.91391 1.05419
 C517 C 1.18247 0.90547 1.06297
 H518 H 1.19130 0.88931 1.05424
 O519 O 0.87476 1.09056 1.02449
 O520 O 0.84544 1.11990 1.02450
 C521 C 0.85435 1.09946 1.03311
 C522 C 0.84126 1.08625 1.05383
 C523 C 0.81794 1.09493 1.06265
 H524 H 0.80890 1.11070 1.05345
 Cu525 Cu 1.00018 0.89484 1.10527
 Cu526 Cu 1.00010 0.85961 1.14041
 Cu527 Cu 1.00025 1.10523 1.10513
 Cu528 Cu 1.00021 1.14063 1.14012
 Cu529 Cu 0.89535 0.89519 1.00022
 Cu530 Cu 0.86010 0.86001 1.00020
 Cu531 Cu 1.10528 0.89499 1.00052
 Cu532 Cu 1.14050 0.85980 1.00052
 Cu533 Cu 0.89491 1.10474 0.99993
 Cu534 Cu 0.85979 1.14004 0.99992
 Cu535 Cu 1.10534 1.10477 1.00026
 Cu536 Cu 1.14052 1.13999 1.00025
 Cu537 Cu 0.89517 1.00031 1.10545
 Cu538 Cu 0.85998 1.00026 1.14057
 Cu539 Cu 1.10501 0.99999 1.10562
 Cu540 Cu 1.14020 1.00003 1.14081
 C541 C 1.06556 0.93443 1.14784
 H542 H 1.05919 0.94087 1.12962
 C543 C 1.08283 0.91691 1.19451
 C544 C 0.93464 1.06594 1.14761
 H545 H 0.94108 1.05939 1.12946
 C546 C 0.91721 1.08369 1.19412
 C547 C 0.85266 1.06562 1.06575
 H548 H 0.87080 1.05906 1.05926
 C549 C 0.80617 1.08344 1.08331
 C550 C 1.14750 0.93449 1.06609
 H551 H 1.12925 0.94087 1.05966
 C552 C 1.19424 0.91721 1.08351
 C553 C 1.06584 0.85250 1.06599
 H554 H 1.05928 0.87066 1.05948
 C555 C 1.08360 0.80598 1.08365
 C556 C 0.93469 1.14728 1.06531
 H557 H 0.94109 1.12898 1.05902
 C558 C 0.91733 1.19415 1.08239
 C559 C 0.93460 0.93452 1.14755
 H560 H 0.94104 0.94101 1.12938
 C561 C 0.91717 0.91692 1.19411
 C562 C 1.06562 1.06575 1.14772
 H563 H 1.05922 1.05927 1.12951
 C564 C 1.08297 1.08329 1.19436
 C565 C 0.93473 0.85256 1.06567
 H566 H 0.94119 0.87081 1.05932
 C567 C 0.91721 0.80581 1.08289
 C568 C 1.06584 1.14746 1.06565
 H569 H 1.05929 1.12926 1.05920
 C570 C 1.08361 1.19405 1.08310
 C571 C 0.85301 0.93476 1.06579
 H572 H 0.87128 0.94116 1.05949
 C573 C 0.80619 0.91738 1.08284
 C574 C 1.14749 1.06544 1.06597
 H575 H 1.12925 1.05904 1.05954
 C576 C 1.19421 1.08275 1.08343
 O577 O 1.09048 0.52374 0.62512
 O578 O 1.11957 0.52367 0.65465
 C579 C 1.09919 0.53228 0.64564
 C580 C 1.08576 0.55287 0.65874
 C581 C 1.09407 0.56158 0.68224
 H582 H 1.11016 0.55282 0.69113
 O583 O 0.90891 0.47492 0.62470
 O584 O 0.87968 0.47502 0.65405
 C585 C 0.90007 0.46634 0.64513
 C586 C 0.91336 0.44562 0.65822
 C587 C 0.90481 0.43674 0.68156
 H588 H 0.88864 0.44546 0.69034
 O589 O 1.02479 0.62474 0.59033
 O590 O 1.02481 0.65411 0.61960
 C591 C 1.03344 0.64517 0.59922
 C592 C 1.05418 0.65827 0.58603
 C593 C 1.06301 0.68163 0.59465
 H594 H 1.05383 0.69068 0.61040
 O595 O 0.97490 0.37414 0.58988
 O596 O 0.97480 0.34463 0.61899
 C597 C 0.96625 0.35366 0.59860
 C598 C 0.94558 0.34061 0.58521
 C599 C 0.93664 0.31725 0.59371
 H600 H 0.94529 0.30843 0.60989
 O601 O 1.12563 0.59002 0.52459
 O602 O 1.15515 0.61916 0.52469
 C603 C 1.14611 0.59875 0.53325
 C604 C 1.15912 0.58535 0.55391
 C605 C 1.18250 0.59381 0.56285
 H606 H 1.19136 0.60998 0.55420
 O607 O 0.87414 0.40915 0.52382
 O608 O 0.84468 0.37996 0.52369
 C609 C 0.85365 0.40035 0.53236
 C610 C 0.84057 0.41364 0.55305
 C611 C 0.81721 0.40507 0.56189
 H612 H 0.80813 0.38929 0.55275
 O613 O 0.97545 0.59041 0.62445
 O614 O 0.97545 0.61967 0.65383
 C615 C 0.96685 0.59923 0.64489
 C616 C 0.94625 0.58589 0.65804
 C617 C 0.93758 0.59442 0.68144
 H618 H 0.94677 0.61022 0.69045
 O619 O 1.02397 0.40845 0.62445
 O620 O 1.02390 0.37908 0.65371
 C621 C 1.03251 0.39956 0.64489
 C622 C 1.05309 0.41286 0.65814
 C623 C 1.06174 0.40425 0.68153
 H624 H 1.05252 0.38844 0.69047
 O625 O 1.12493 0.47472 0.59071
 O626 O 1.15418 0.47460 0.62008
 C627 C 1.14535 0.46609 0.59959
 C628 C 1.15856 0.44551 0.58625
 C629 C 1.18189 0.43672 0.59489
 H630 H 1.19084 0.44585 0.61074
 O631 O 0.87477 0.52416 0.59024
 O632 O 0.84536 0.52435 0.61941
 C633 C 0.85434 0.53287 0.59900
 C634 C 0.84128 0.55352 0.58558
 C635 C 0.81786 0.56236 0.59398
 H636 H 0.80903 0.55368 0.61012
 O637 O 0.90947 0.62519 0.52402
 O638 O 0.88027 0.65465 0.52406
 C639 C 0.90071 0.64570 0.53260
 C640 C 0.91415 0.65886 0.55312
 C641 C 0.90577 0.68235 0.56189
 H642 H 0.88959 0.69118 0.55322
 O643 O 1.09066 0.37436 0.52424
 O644 O 1.11984 0.34489 0.52426
 C645 C 1.09940 0.35383 0.53278
 C646 C 1.08596 0.34061 0.55327
 C647 C 1.09449 0.31718 0.56201
 H648 H 1.11036 0.30820 0.55296
 O649 O 0.90912 0.52404 0.62470
 O650 O 0.87989 0.52422 0.65404
 C651 C 0.90035 0.53272 0.64512
 C652 C 0.91378 0.55333 0.65822
 C653 C 0.90536 0.56217 0.68162
 H654 H 0.88920 0.55348 0.69044
 O655 O 1.09041 0.47465 0.62498
 O656 O 1.11951 0.47452 0.65449
 C657 C 1.09911 0.46598 0.64544
 C658 C 1.08564 0.44534 0.65845
 C659 C 1.09404 0.43643 0.68184
 H660 H 1.11022 0.44506 0.69070
 O661 O 1.02400 0.37399 0.59005
 O662 O 1.02393 0.34448 0.61916
 C663 C 1.03257 0.35348 0.59881
 C664 C 1.05325 0.34038 0.58551
 C665 C 1.06209 0.31696 0.59401
 H666 H 1.05335 0.30813 0.61013
 O667 O 0.97573 0.62494 0.59011
 O668 O 0.97573 0.65432 0.61937
 C669 C 0.96719 0.64545 0.59891
 C670 C 0.94669 0.65871 0.58555
 C671 C 0.93808 0.68219 0.59402
 H672 H 0.94730 0.69123 0.60977
 O673 O 0.87516 0.59060 0.52401
 O674 O 0.84581 0.61991 0.52405
 C675 C 0.85470 0.59943 0.53259
 C676 C 0.84150 0.58607 0.55314
 C677 C 0.81807 0.59461 0.56178
 H678 H 0.80907 0.61042 0.55261
 O679 O 1.12527 0.40865 0.52437
 O680 O 1.15459 0.37933 0.52440
 C681 C 1.14570 0.39978 0.53300
 C682 C 1.15879 0.41309 0.55367
 C683 C 1.18214 0.40452 0.56262
 H684 H 1.19095 0.38832 0.55396
 O685 O 0.97493 0.40844 0.62445
 O686 O 0.97482 0.37907 0.65370
 C687 C 0.96630 0.39958 0.64486
 C688 C 0.94572 0.41295 0.65804
 C689 C 0.93693 0.40436 0.68138
 H690 H 0.94603 0.38849 0.69035
 O691 O 1.02446 0.59022 0.62466
 O692 O 1.02447 0.61947 0.65405
 C693 C 1.03297 0.59897 0.64517
 C694 C 1.05338 0.58549 0.65846
 C695 C 1.06191 0.59391 0.68195
 H696 H 1.05271 0.60971 0.69095
 O697 O 0.87448 0.47508 0.59030
 O698 O 0.84509 0.47519 0.61948
 C699 C 0.85397 0.46658 0.59907
 C700 C 0.84072 0.44604 0.58566
 C701 C 0.81737 0.43719 0.59425
 H702 H 0.80873 0.44581 0.61054
 O703 O 1.12502 0.52379 0.59086
 O704 O 1.15427 0.52373 0.62023
 C705 C 1.14546 0.53234 0.59977
 C706 C 1.15875 0.55293 0.58649
 C707 C 1.18213 0.56164 0.59514
 H708 H 1.19104 0.55250 0.61099
 O709 O 0.90853 0.37466 0.52377
 O710 O 0.87921 0.34532 0.52365
 C711 C 0.89967 0.35417 0.53227
 C712 C 0.91298 0.34090 0.55283
 C713 C 0.90433 0.31753 0.56158
 H714 H 0.88844 0.30860 0.55249
 O715 O 1.09136 0.62461 0.52455
 O716 O 1.12071 0.65392 0.52468
 C717 C 1.10022 0.64506 0.53318
 C718 C 1.08683 0.65824 0.55373
 C719 C 1.09541 0.68160 0.56265
 H720 H 1.11170 0.69031 0.55409
 Cu721 Cu 1.10479 0.49924 0.60498
 Cu722 Cu 1.13982 0.49912 0.64032
 Cu723 Cu 0.89475 0.49953 0.60457
 Cu724 Cu 0.85956 0.49971 0.63969
 Cu725 Cu 1.00010 0.60465 0.60444
 Cu726 Cu 1.00011 0.63985 0.63965
 Cu727 Cu 0.99945 0.39419 0.60428
 Cu728 Cu 0.99936 0.35885 0.63931
 C729 C 1.06526 0.56481 0.64713
 H730 H 1.05899 0.55844 0.62884
 C731 C 1.08227 0.58212 0.69397
 C732 C 0.93396 0.43374 0.64675
 H733 H 0.94042 0.44024 0.62859
 C734 C 0.91647 0.41611 0.69328
 C735 C 1.06607 0.64686 0.56541
 H736 H 1.05957 0.62868 0.55888
 C737 C 1.08363 0.69344 0.58311
 C738 C 0.93377 0.35216 0.56461
 H739 H 0.94032 0.37035 0.55819
 C740 C 0.91601 0.30557 0.58203
 C741 C 1.14753 0.56475 0.56572
 H742 H 1.12934 0.55836 0.55917
 C743 C 1.19414 0.58208 0.58347
 C744 C 0.85203 0.43428 0.56491
 H745 H 0.87020 0.44077 0.55842
 C746 C 0.80547 0.41671 0.58250
 C747 C 0.93438 0.56518 0.64670
 H748 H 0.94074 0.55872 0.62849
 C749 C 0.91714 0.58272 0.69337
 C750 C 1.06502 0.43356 0.64688
 H751 H 1.05867 0.44008 0.62868
 C752 C 1.08222 0.41587 0.69352
 C753 C 1.14729 0.43374 0.56549
 H754 H 1.12912 0.44021 0.55895
 C755 C 1.19381 0.41621 0.58324
 C756 C 0.85283 0.56536 0.56501
 H757 H 0.87106 0.55889 0.55866
 C758 C 0.80612 0.58291 0.58221
 C759 C 0.93477 0.64733 0.56493
 H760 H 0.94109 0.62905 0.55852
 C761 C 0.91761 0.69415 0.58235
 C762 C 1.06518 0.35192 0.56498
 H763 H 1.05871 0.37015 0.55856
 C764 C 1.08272 0.30523 0.58240
 O765 O 1.09067 0.47492 0.37450
 O766 O 1.11994 0.47486 0.34518
 C767 C 1.09949 0.46630 0.35406
 C768 C 1.08611 0.44569 0.34090
 C769 C 1.09466 0.43683 0.31756
 H770 H 1.11089 0.44550 0.30884
 O771 O 0.90959 0.52465 0.37435
 O772 O 0.88045 0.52479 0.34488
 C773 C 0.90088 0.53331 0.35389
 C774 C 0.91435 0.55390 0.34082
 C775 C 0.90595 0.56276 0.31742
 H776 H 0.88976 0.55411 0.30859
 O777 O 0.97600 0.62534 0.40906
 O778 O 0.97608 0.65483 0.37993
 C779 C 0.96744 0.64585 0.40029
 C780 C 0.94678 0.65897 0.41360
 C781 C 0.93789 0.68236 0.40506
 H782 H 0.94658 0.69116 0.38890
 O783 O 1.02434 0.37428 0.40898
 O784 O 1.02434 0.34482 0.37980
 C785 C 1.03293 0.35378 0.40021
 C786 C 1.05356 0.34065 0.41359
 C787 C 1.06246 0.31727 0.40506
 H788 H 1.05381 0.30848 0.38886
 O789 O 1.12525 0.40877 0.47533
 O790 O 1.15457 0.37944 0.47531
 C791 C 1.14569 0.39990 0.46674
 C792 C 1.15882 0.41320 0.44611
 C793 C 1.18220 0.40464 0.43733
 H794 H 1.19126 0.38886 0.44649
 O795 O 0.87505 0.59075 0.47500
 O796 O 0.84570 0.62006 0.47500
 C797 C 0.85460 0.59961 0.46641
 C798 C 0.84146 0.58630 0.44578
 C799 C 0.81806 0.59485 0.43704
 H800 H 0.80901 0.61061 0.44624
 O801 O 1.02505 0.59084 0.37471
 O802 O 1.02521 0.62019 0.34544
 C803 C 1.03370 0.59968 0.35430
 C804 C 1.05424 0.58623 0.34114
 C805 C 1.06319 0.59485 0.31785
 H806 H 1.05465 0.61119 0.30919
 O807 O 0.97541 0.40881 0.37447
 O808 O 0.97532 0.37952 0.34512
 C809 C 0.96682 0.40002 0.35400
 C810 C 0.94632 0.41353 0.34081
 C811 C 0.93751 0.40507 0.31740
 H812 H 0.94610 0.38880 0.30866
 O813 O 1.12512 0.52389 0.40909
 O814 O 1.15452 0.52387 0.37991
 C815 C 1.14562 0.53244 0.40034
 C816 C 1.15886 0.55298 0.41373
 C817 C 1.18223 0.56171 0.40514
 H818 H 1.19116 0.55258 0.38929
 O819 O 0.87492 0.47560 0.40857
 O820 O 0.84563 0.47571 0.37923
 C821 C 0.85445 0.46708 0.39968
 C822 C 0.84115 0.44652 0.41296
 C823 C 0.81774 0.43785 0.40434
 H824 H 0.80882 0.44704 0.38851
 O825 O 1.09136 0.62465 0.47557
 O826 O 1.12070 0.65396 0.47563
 C827 C 1.10022 0.64513 0.46705
 C828 C 1.08687 0.65841 0.44652
 C829 C 1.09535 0.68192 0.43795
 H830 H 1.11113 0.69092 0.44716
 O831 O 0.90863 0.37476 0.47479
 O832 O 0.87931 0.34543 0.47461
 C833 C 0.89980 0.35431 0.46614
 C834 C 0.91320 0.34109 0.44562
 C835 C 0.90465 0.31768 0.43685
 H836 H 0.88877 0.30870 0.44590
 O837 O 0.90951 0.47552 0.37436
 O838 O 0.88036 0.47563 0.34489
 C839 C 0.90074 0.46696 0.35388
 C840 C 0.91403 0.44627 0.34078
 C841 C 0.90552 0.43758 0.31737
 H842 H 0.88983 0.44685 0.30829
 O843 O 1.09084 0.52406 0.37454
 O844 O 1.12011 0.52403 0.34523
 C845 C 1.09971 0.53269 0.35414
 C846 C 1.08651 0.55347 0.34107
 C847 C 1.09516 0.56233 0.31778
 H848 H 1.11092 0.55313 0.30874
 O849 O 0.97525 0.37437 0.40887
 O850 O 0.97519 0.34491 0.37969
 C851 C 0.96659 0.35390 0.40007
 C852 C 0.94590 0.34084 0.41336
 C853 C 0.93704 0.31744 0.40484
 H854 H 0.94577 0.30860 0.38872
 O855 O 1.02507 0.62510 0.40932
 O856 O 1.02521 0.65461 0.38021
 C857 C 1.03373 0.64560 0.40062
 C858 C 1.05433 0.65867 0.41408
 C859 C 1.06309 0.68217 0.40577
 H860 H 1.05437 0.69105 0.38966
 O861 O 0.87427 0.40931 0.47477
 O862 O 0.84480 0.38013 0.47459
 C863 C 0.85381 0.40057 0.46609
 C864 C 0.84079 0.41402 0.44546
 C865 C 0.81739 0.40561 0.43654
 H866 H 0.80852 0.38944 0.44518
 O867 O 1.12566 0.59006 0.47555
 O868 O 1.15516 0.61920 0.47558
 C869 C 1.14614 0.59880 0.46696
 C870 C 1.15918 0.58541 0.44631
 C871 C 1.18255 0.59390 0.43741
 H872 H 1.19139 0.61009 0.44607
 O873 O 1.02443 0.40865 0.37451
 O874 O 1.02442 0.37935 0.34518
 C875 C 1.03302 0.39980 0.35408
 C876 C 1.05365 0.41313 0.34095
 C877 C 1.06245 0.40455 0.31760
 H878 H 1.05334 0.38871 0.30858
 O879 O 0.97602 0.59083 0.37472
 O880 O 0.97612 0.62016 0.34544
 C881 C 0.96749 0.59970 0.35428
 C882 C 0.94690 0.58639 0.34105
 C883 C 0.93824 0.59494 0.31764
 H884 H 0.94745 0.61074 0.30866
 O885 O 0.87505 0.52468 0.40863
 O886 O 0.84576 0.52483 0.37930
 C887 C 0.85462 0.53333 0.39978
 C888 C 0.84145 0.55390 0.41318
 C889 C 0.81805 0.56274 0.40469
 H890 H 0.80931 0.55410 0.38845
 O891 O 1.12513 0.47481 0.40890
 O892 O 1.15454 0.47476 0.37973
 C893 C 1.14560 0.46620 0.40014
 C894 C 1.15878 0.44562 0.41354
 C895 C 1.18216 0.43678 0.40502
 H896 H 1.19086 0.44541 0.38878
 O897 O 1.09069 0.37445 0.47525
 O898 O 1.11987 0.34498 0.47523
 C899 C 1.09945 0.35395 0.46666
 C900 C 1.08609 0.34080 0.44606
 C901 C 1.09468 0.31742 0.43728
 H902 H 1.11050 0.30841 0.44641
 O903 O 0.90959 0.62509 0.47504
 O904 O 0.88037 0.65453 0.47504
 C905 C 0.90081 0.64559 0.46648
 C906 C 0.91417 0.65879 0.44594
 C907 C 0.90559 0.68218 0.43716
 H908 H 0.88974 0.69117 0.44625
 Cu909 Cu 1.10499 0.49941 0.39467
 Cu910 Cu 1.14022 0.49937 0.35957
 Cu911 Cu 0.89519 0.50011 0.39441
 Cu912 Cu 0.86012 0.50025 0.35912
 Cu913 Cu 1.10558 0.60441 0.50006
 Cu914 Cu 1.14090 0.63949 0.50015
 Cu915 Cu 1.10506 0.39452 0.49981
 Cu916 Cu 1.14016 0.35921 0.49980
 Cu917 Cu 0.89525 0.60497 0.49952
 Cu918 Cu 0.86009 0.64023 0.49954
 Cu919 Cu 0.89431 0.39491 0.49930
 Cu920 Cu 0.85904 0.35978 0.49911
 Cu921 Cu 1.00053 0.60510 0.39488
 Cu922 Cu 1.00067 0.64041 0.35983
 Cu923 Cu 0.99986 0.39445 0.39464
 Cu924 Cu 0.99981 0.35919 0.35952
 C925 C 1.06545 0.43386 0.35231
 H926 H 1.05899 0.44035 0.37048
 C927 C 1.08296 0.41626 0.30576
 C928 C 0.93498 0.56570 0.35236
 H929 H 0.94134 0.55922 0.37057
 C930 C 0.91776 0.58328 0.30569
 C931 C 0.93493 0.64747 0.43419
 H932 H 0.94143 0.62926 0.44064
 C933 C 0.91729 0.69410 0.41671
 C934 C 1.06537 0.35214 0.43424
 H935 H 1.05887 0.37035 0.44069
 C936 C 1.08304 0.30552 0.41677
 C937 C 1.14739 0.43385 0.43423
 H938 H 1.12920 0.44034 0.44067
 C939 C 1.19402 0.41629 0.41679
 C940 C 0.85287 0.56567 0.43388
 H941 H 0.87109 0.55920 0.44030
 C942 C 0.80622 0.58321 0.41649
 C943 C 1.06589 0.56539 0.35246
 H944 H 1.05934 0.55888 0.37059
 C945 C 1.08365 0.58303 0.30603
 C946 C 0.93459 0.43428 0.35223
 H947 H 0.94102 0.44067 0.37045
 C948 C 0.91710 0.41697 0.30555
 C949 C 1.14761 0.56479 0.43448
 H950 H 1.12942 0.55838 0.44098
 C951 C 1.19419 0.58219 0.41680
 C952 C 0.85239 0.43463 0.43368
 H953 H 0.87061 0.44099 0.44021
 C954 C 0.80573 0.41740 0.41598
 C955 C 1.06620 0.64707 0.43462
 H956 H 1.05978 0.62878 0.44090
 C957 C 1.08359 0.69394 0.41758
 C958 C 0.93399 0.35239 0.43390
 H959 H 0.94047 0.37061 0.44034
 C960 C 0.91641 0.30571 0.41646
 O961 O 0.59044 1.02526 0.62560
 O962 O 0.61964 1.02517 0.65502
 C963 C 0.59923 1.03380 0.64609
 C964 C 0.58588 1.05441 0.65925
 C965 C 0.59440 1.06322 0.68263
 H966 H 0.61059 1.05451 0.69139
 O967 O 0.40920 0.97592 0.62534
 O968 O 0.37994 0.97589 0.65466
 C969 C 0.40037 0.96729 0.64576
 C970 C 0.41371 0.94661 0.65884
 C971 C 0.40522 0.93775 0.68220
 H972 H 0.38907 0.94648 0.69100
 O973 O 0.52449 1.12586 0.59092
 O974 O 0.52449 1.15534 0.62008
 C975 C 0.53309 1.14635 0.59970
 C976 C 0.55373 1.15946 0.58636
 C977 C 0.56267 1.18282 0.59493
 H978 H 0.55406 1.19159 0.61115
 O979 O 0.47525 0.87483 0.59063
 O980 O 0.47532 0.84539 0.61981
 C981 C 0.46671 0.85432 0.59941
 C982 C 0.44613 0.84114 0.58602
 C983 C 0.43721 0.81776 0.59453
 H984 H 0.44581 0.80898 0.61076
 O985 O 0.62526 1.09127 0.52480
 O986 O 0.65461 1.12058 0.52488
 C987 C 0.64568 1.10013 0.53346
 C988 C 0.65874 1.08687 0.55418
 C989 C 0.68208 1.09545 0.56307
 H990 H 0.69117 1.11123 0.55394
 O991 O 0.37495 0.90959 0.52453
 O992 O 0.34554 0.88035 0.52447
 C993 C 0.35449 0.90077 0.53310
 C994 C 0.34138 0.91407 0.55375
 C995 C 0.31805 0.90542 0.56255
 H996 H 0.30906 0.88958 0.55341
 O997 O 0.47533 1.09146 0.62519
 O998 O 0.47526 1.12080 0.65449
 C999 C 0.46670 1.10032 0.64560
 C1000 C 0.44607 1.08699 0.65872
 C1001 C 0.43725 1.09563 0.68203
 H1002 H 0.44637 1.11149 0.69100
 O1003 O 0.52420 0.90955 0.62493
 O1004 O 0.52431 0.88026 0.65426
 C1005 C 0.53281 0.90076 0.64538
 C1006 C 0.55332 0.91420 0.65859
 C1007 C 0.56194 0.90572 0.68203
 H1008 H 0.55277 0.88991 0.69102
 O1009 O 0.62478 0.97628 0.59101
 O1010 O 0.65414 0.97614 0.62027
 C1011 C 0.64525 0.96766 0.59979
 C1012 C 0.65847 0.94716 0.58635
 C1013 C 0.68196 0.93856 0.59477
 H1014 H 0.69098 0.94775 0.61054
 O1015 O 0.37480 1.02495 0.59086
 O1016 O 0.34535 1.02500 0.61999
 C1017 C 0.35431 1.03355 0.59958
 C1018 C 0.34117 1.05412 0.58613
 C1019 C 0.31772 1.06292 0.59451
 H1020 H 0.30890 1.05425 0.61067
 O1021 O 0.40924 1.12578 0.52450
 O1022 O 0.37997 1.15517 0.52454
 C1023 C 0.40043 1.14626 0.53309
 C1024 C 0.41377 1.15946 0.55367
 C1025 C 0.40521 1.18288 0.56240
 H1026 H 0.38940 1.19189 0.55326
 O1027 O 0.59074 0.87555 0.52450
 O1028 O 0.62006 0.84621 0.52458
 C1029 C 0.59958 0.85507 0.53309
 C1030 C 0.58622 0.84183 0.55360
 C1031 C 0.59476 0.81838 0.56226
 H1032 H 0.61058 0.80940 0.55312
 O1033 O 0.40913 1.02505 0.62536
 O1034 O 0.37986 1.02510 0.65466
 C1035 C 0.40029 1.03370 0.64577
 C1036 C 0.41361 1.05440 0.65886
 C1037 C 0.40504 1.06335 0.68217
 H1038 H 0.38883 1.05470 0.69093
 O1039 O 0.59037 0.97615 0.62539
 O1040 O 0.61957 0.97601 0.65481
 C1041 C 0.59914 0.96747 0.64582
 C1042 C 0.58573 0.94682 0.65886
 C1043 C 0.59412 0.93803 0.68230
 H1044 H 0.61024 0.94675 0.69117
 O1045 O 0.52431 0.87508 0.59055
 O1046 O 0.52444 0.84563 0.61972
 C1047 C 0.53298 0.85462 0.59933
 C1048 C 0.55363 0.84156 0.58596
 C1049 C 0.56247 0.81811 0.59438
 H1050 H 0.55378 0.80925 0.61050
 O1051 O 0.47544 1.12594 0.59084
 O1052 O 0.47538 1.15543 0.61999
 C1053 C 0.46684 1.14645 0.59957
 C1054 C 0.44627 1.15959 0.58615
 C1055 C 0.43741 1.18300 0.59464
 H1056 H 0.44606 1.19179 0.61084
 O1057 O 0.37494 1.09118 0.52449
 O1058 O 0.34554 1.12044 0.52452
 C1059 C 0.35447 1.09998 0.53307
 C1060 C 0.34130 1.08661 0.55362
 C1061 C 0.31785 1.09510 0.56224
 H1062 H 0.30881 1.11086 0.55302
 O1063 O 0.62512 0.91007 0.52455
 O1064 O 0.65458 0.88087 0.52463
 C1065 C 0.64560 0.90131 0.53317
 C1066 C 0.65869 0.91475 0.55376
 C1067 C 0.68219 0.90639 0.56248
 H1068 H 0.69106 0.89027 0.55374
 O1069 O 0.47518 0.90939 0.62496
 O1070 O 0.47524 0.88010 0.65429
 C1071 C 0.46663 0.90056 0.64541
 C1072 C 0.44607 0.91393 0.65861
 C1073 C 0.43733 0.90536 0.68198
 H1074 H 0.44644 0.88950 0.69094
 O1075 O 0.52437 1.09155 0.62546
 O1076 O 0.52436 1.12089 0.65477
 C1077 C 0.53292 1.10040 0.64592
 C1078 C 0.55348 1.08703 0.65913
 C1079 C 0.56224 1.09556 0.68252
 H1080 H 0.55313 1.11141 0.69152
 O1081 O 0.37482 0.97586 0.59091
 O1082 O 0.34539 0.97582 0.62006
 C1083 C 0.35436 0.96723 0.59967
 C1084 C 0.34126 0.94657 0.58628
 C1085 C 0.31794 0.93760 0.59484
 H1086 H 0.30919 0.94621 0.61107
 O1087 O 0.62490 1.02534 0.59126
 O1088 O 0.65425 1.02526 0.62052
 C1089 C 0.64537 1.03389 0.60011
 C1090 C 0.65860 1.05447 0.58678
 C1091 C 0.68193 1.06334 0.59541
 H1092 H 0.69058 1.05472 0.61170
 O1093 O 0.40925 0.87501 0.52440
 O1094 O 0.37996 0.84564 0.52432
 C1095 C 0.40041 0.85452 0.53292
 C1096 C 0.41370 0.84129 0.55348
 C1097 C 0.40508 0.81791 0.56221
 H1098 H 0.38927 0.80893 0.55303
 O1099 O 0.59076 1.12566 0.52471
 O1100 O 0.61998 1.15509 0.52477
 C1101 C 0.59955 1.14615 0.53331
 C1102 C 0.58622 1.15932 0.55390
 C1103 C 0.59485 1.18268 0.56271
 H1104 H 0.61068 1.19167 0.55360
 Cu1105 Cu 0.60469 1.00078 0.60539
 Cu1106 Cu 0.63984 1.00062 0.64061
 Cu1107 Cu 0.39492 1.00045 0.60521
 Cu1108 Cu 0.35969 1.00045 0.64028
 Cu1109 Cu 0.49992 1.10577 0.60518
 Cu1110 Cu 0.49986 1.14107 0.64027
 Cu1111 Cu 0.49971 0.89514 0.60483
 Cu1112 Cu 0.49984 0.85990 0.63996
 C1113 C 0.56526 1.06629 0.64779
 H1114 H 0.55883 1.05983 0.62959
 C1115 C 0.58270 1.08380 0.69441
 C1116 C 0.43429 0.93472 0.64733
 H1117 H 0.44071 0.94121 0.62915
 C1118 C 0.41690 0.91712 0.69391
 C1119 C 0.56550 1.14799 0.56569
 H1120 H 0.55896 1.12981 0.55921
 C1121 C 0.58325 1.19456 0.58324
 C1122 C 0.43439 0.85262 0.56535
 H1123 H 0.44091 0.87082 0.55892
 C1124 C 0.41666 0.80602 0.58275
 C1125 C 0.64729 1.06622 0.56601
 H1126 H 0.62912 1.05972 0.55948
 C1127 C 0.69382 1.08383 0.58369
 C1128 C 0.35270 0.93481 0.56559
 H1129 H 0.37086 0.94136 0.55912
 C1130 C 0.30621 0.91701 0.58311
 C1131 C 0.43428 1.06622 0.64742
 H1132 H 0.44076 1.05967 0.62928
 C1133 C 0.41673 1.08398 0.69389
 C1134 C 0.56517 0.93492 0.64728
 H1135 H 0.55884 0.94134 0.62904
 C1136 C 0.58235 0.91747 0.69401
 C1137 C 0.64711 0.93529 0.56568
 H1138 H 0.62883 0.94161 0.55931
 C1139 C 0.69395 0.91817 0.58299
 C1140 C 0.35269 1.06596 0.56553
 H1141 H 0.37094 1.05953 0.55920
 C1142 C 0.30593 1.08342 0.58269
 C1143 C 0.43446 1.14810 0.56551
 H1144 H 0.44094 1.12987 0.55910
 C1145 C 0.41688 1.19478 0.58290
 C1146 C 0.56549 0.85313 0.56541
 H1147 H 0.55902 0.87138 0.55905
 C1148 C 0.58304 0.80638 0.58266
 O1149 O 0.59079 0.97632 0.37482
 O1150 O 0.62000 0.97624 0.34545
 C1151 C 0.59955 0.96770 0.35437
 C1152 C 0.58611 0.94712 0.34126
 C1153 C 0.59446 0.93835 0.31781
 H1154 H 0.61060 0.94706 0.30897
 O1155 O 0.40928 1.02505 0.37512
 O1156 O 0.38006 1.02504 0.34573
 C1157 C 0.40050 1.03363 0.35466
 C1158 C 0.41385 1.05421 0.34150
 C1159 C 0.40535 1.06285 0.31807
 H1160 H 0.38960 1.05360 0.30905
 O1161 O 0.47545 1.12593 0.40928
 O1162 O 0.47539 1.15538 0.38012
 C1163 C 0.46682 1.14641 0.40051
 C1164 C 0.44620 1.15953 0.41387
 C1165 C 0.43725 1.18288 0.40531
 H1166 H 0.44586 1.19165 0.38909
 O1167 O 0.52464 0.87530 0.40934
 O1168 O 0.52470 0.84590 0.38010
 C1169 C 0.53327 0.85483 0.40052
 C1170 C 0.55388 0.84169 0.41388
 C1171 C 0.56273 0.81828 0.40539
 H1172 H 0.55406 0.80949 0.38919
 O1173 O 0.62518 0.91005 0.47552
 O1174 O 0.65461 0.88082 0.47558
 C1175 C 0.64566 0.90125 0.46696
 C1176 C 0.65880 0.91456 0.44635
 C1177 C 0.68218 0.90597 0.43760
 H1178 H 0.69121 0.89018 0.44677
 O1179 O 0.37475 1.09134 0.47548
 O1180 O 0.34535 1.12060 0.47550
 C1181 C 0.35427 1.10015 0.46691
 C1182 C 0.34110 1.08681 0.44632
 C1183 C 0.31770 1.09533 0.43756
 H1184 H 0.30866 1.11114 0.44669
 O1185 O 0.52454 1.09153 0.37489
 O1186 O 0.52452 1.12085 0.34559
 C1187 C 0.53313 1.10040 0.35447
 C1188 C 0.55379 1.08712 0.34133
 C1189 C 0.56259 1.09577 0.31803
 H1190 H 0.55343 1.11160 0.30904
 O1191 O 0.47553 0.90972 0.37500
 O1192 O 0.47554 0.88048 0.34560
 C1193 C 0.46694 0.90092 0.35453
 C1194 C 0.44635 0.91429 0.34139
 C1195 C 0.43759 0.90581 0.31798
 H1196 H 0.44632 0.88962 0.30921
 O1197 O 0.62529 1.02530 0.40925
 O1198 O 0.65469 1.02531 0.38007
 C1199 C 0.64578 1.03387 0.40050
 C1200 C 0.65896 1.05441 0.41396
 C1201 C 0.68236 1.06325 0.40550
 H1202 H 0.69109 1.05463 0.38926
 O1203 O 0.37475 0.97600 0.40940
 O1204 O 0.34538 0.97596 0.38016
 C1205 C 0.35428 0.96741 0.40060
 C1206 C 0.34111 0.94684 0.41397
 C1207 C 0.31766 0.93808 0.40552
 H1208 H 0.30888 0.94679 0.38935
 O1209 O 0.59080 1.12563 0.47570
 O1210 O 0.62002 1.15506 0.47573
 C1211 C 0.59960 1.14612 0.46713
 C1212 C 0.58625 1.15930 0.44654
 C1213 C 0.59483 1.18271 0.43779
 H1214 H 0.61064 1.19171 0.44693
 O1215 O 0.40921 0.87513 0.47541
 O1216 O 0.37994 0.84574 0.47528
 C1217 C 0.40039 0.85467 0.46676
 C1218 C 0.41379 0.84154 0.44618
 C1219 C 0.40528 0.81815 0.43725
 H1220 H 0.38903 0.80937 0.44581
 O1221 O 0.40919 0.97597 0.37505
 O1222 O 0.37997 0.97592 0.34565
 C1223 C 0.40040 0.96735 0.35459
 C1224 C 0.41379 0.94676 0.34145
 C1225 C 0.40532 0.93802 0.31803
 H1226 H 0.38953 0.94717 0.30898
 O1227 O 0.59094 1.02540 0.37478
 O1228 O 0.62016 1.02542 0.34542
 C1229 C 0.59974 1.03402 0.35434
 C1230 C 0.58637 1.05466 0.34123
 C1231 C 0.59493 1.06362 0.31793
 H1232 H 0.61119 1.05502 0.30920
 O1233 O 0.47559 0.87534 0.40944
 O1234 O 0.47561 0.84596 0.38018
 C1235 C 0.46702 0.85486 0.40060
 C1236 C 0.44639 0.84167 0.41385
 C1237 C 0.43765 0.81829 0.40522
 H1238 H 0.44685 0.80929 0.38945
 O1239 O 0.52450 1.12584 0.40941
 O1240 O 0.52451 1.15532 0.38027
 C1241 C 0.53310 1.14634 0.40067
 C1242 C 0.55372 1.15945 0.41407
 C1243 C 0.56259 1.18285 0.40558
 H1244 H 0.55394 1.19164 0.38939
 O1245 O 0.37484 0.90966 0.47552
 O1246 O 0.34543 0.88042 0.47543
 C1247 C 0.35436 0.90089 0.46693
 C1248 C 0.34118 0.91431 0.44641
 C1249 C 0.31773 0.90585 0.43772
 H1250 H 0.30868 0.89007 0.44688
 O1251 O 0.62533 1.09124 0.47576
 O1252 O 0.65468 1.12055 0.47580
 C1253 C 0.64579 1.10009 0.46720
 C1254 C 0.65895 1.08679 0.44658
 C1255 C 0.68235 1.09535 0.43787
 H1256 H 0.69140 1.11111 0.44708
 O1257 O 0.52456 0.90993 0.37511
 O1258 O 0.52460 0.88067 0.34573
 C1259 C 0.53312 0.90115 0.35464
 C1260 C 0.55363 0.91457 0.34145
 C1261 C 0.56222 0.90611 0.31799
 H1262 H 0.55300 0.89033 0.30897
 O1263 O 0.47550 1.09144 0.37491
 O1264 O 0.47541 1.12072 0.34558
 C1265 C 0.46688 1.10024 0.35448
 C1266 C 0.44630 1.08679 0.34135
 C1267 C 0.43748 1.09520 0.31792
 H1268 H 0.44614 1.11139 0.30910
 O1269 O 0.37470 1.02508 0.40933
 O1270 O 0.34533 1.02508 0.38008
 C1271 C 0.35424 1.03367 0.40050
 C1272 C 0.34106 1.05427 0.41385
 C1273 C 0.31766 1.06308 0.40534
 H1274 H 0.30892 1.05439 0.38913
 O1275 O 0.62527 0.97624 0.40916
 O1276 O 0.65465 0.97616 0.37997
 C1277 C 0.64572 0.96760 0.40039
 C1278 C 0.65885 0.94699 0.41379
 C1279 C 0.68223 0.93810 0.40529
 H1280 H 0.69097 0.94672 0.38906
 O1281 O 0.59084 0.87550 0.47550
 O1282 O 0.62015 0.84614 0.47555
 C1283 C 0.59970 0.85502 0.46695
 C1284 C 0.58639 0.84181 0.44635
 C1285 C 0.59495 0.81840 0.43761
 H1286 H 0.61076 0.80938 0.44676
 O1287 O 0.40927 1.12572 0.47549
 O1288 O 0.37999 1.15510 0.47550
 C1289 C 0.40043 1.14620 0.46692
 C1290 C 0.41372 1.15938 0.44633
 C1291 C 0.40506 1.18274 0.43752
 H1292 H 0.38923 1.19172 0.44664
 Cu1293 Cu 0.60514 1.00082 0.39492
 Cu1294 Cu 0.64032 1.00078 0.35978
 Cu1295 Cu 0.39490 1.00052 0.39516
 Cu1296 Cu 0.35975 1.00050 0.35995
 Cu1297 Cu 0.60512 1.10550 0.50023
 Cu1298 Cu 0.64026 1.14077 0.50029
 Cu1299 Cu 0.60504 0.89572 0.50001
 Cu1300 Cu 0.64031 0.86057 0.50010
 Cu1301 Cu 0.39499 1.10557 0.49999
 Cu1302 Cu 0.35977 1.14077 0.50003
 Cu1303 Cu 0.39500 0.89528 0.49996
 Cu1304 Cu 0.35976 0.86010 0.49986
 Cu1305 Cu 0.49999 1.10575 0.39505
 Cu1306 Cu 0.49995 1.14102 0.35996
 Cu1307 Cu 0.50008 0.89550 0.39516
 Cu1308 Cu 0.50012 0.86030 0.35996
 C1309 C 0.56554 0.93524 0.35280
 H1310 H 0.55923 0.94164 0.37106
 C1311 C 0.58264 0.91783 0.30605
 C1312 C 0.43449 1.06615 0.35286
 H1313 H 0.44092 1.05980 0.37109
 C1314 C 0.41699 1.08335 0.30616
 C1315 C 0.43445 1.14806 0.43453
 H1316 H 0.44100 1.12988 0.44100
 C1317 C 0.41667 1.19462 0.41700
 C1318 C 0.56570 0.85317 0.43452
 H1319 H 0.55921 0.87139 0.44094
 C1320 C 0.58326 0.80649 0.41712
 C1321 C 0.64742 0.93523 0.43447
 H1322 H 0.62923 0.94173 0.44089
 C1323 C 0.69403 0.91759 0.41706
 C1324 C 0.35250 1.06612 0.43450
 H1325 H 0.37071 1.05966 0.44093
 C1326 C 0.30583 1.08361 0.41706
 C1327 C 0.56565 1.06640 0.35265
 H1328 H 0.55917 1.05985 0.37079
 C1329 C 0.58317 1.08419 0.30619
 C1330 C 0.43446 0.93492 0.35285
 H1331 H 0.44087 0.94133 0.37107
 C1332 C 0.41708 0.91754 0.30615
 C1333 C 0.64754 1.06616 0.43466
 H1334 H 0.62933 1.05969 0.44105
 C1335 C 0.69420 1.08372 0.41733
 C1336 C 0.35259 0.93497 0.43458
 H1337 H 0.37084 0.94138 0.44096
 C1338 C 0.30584 0.91758 0.41727
 C1339 C 0.56554 1.14795 0.43470
 H1340 H 0.55905 1.12974 0.44112
 C1341 C 0.58315 1.19461 0.41731
 C1342 C 0.43450 0.85301 0.43449
 H1343 H 0.44093 0.87121 0.44102
 C1344 C 0.41708 0.80640 0.41674
 O1345 O 0.47553 0.40846 0.87500
 O1346 O 0.47553 0.37908 0.84575
 C1347 C 0.46697 0.39959 0.85456
 C1348 C 0.44642 0.41295 0.84131
 C1349 C 0.43767 0.40433 0.81796
 H1350 H 0.44677 0.38844 0.80904
 O1351 O 0.52453 0.59063 0.87520
 O1352 O 0.52463 0.61996 0.84592
 C1353 C 0.53313 0.59945 0.85478
 C1354 C 0.55363 0.58603 0.84158
 C1355 C 0.56234 0.59456 0.81819
 H1356 H 0.55322 0.61042 0.80922
 O1357 O 0.37503 0.47513 0.90876
 O1358 O 0.34569 0.47515 0.87947
 C1359 C 0.35454 0.46659 0.89993
 C1360 C 0.34126 0.44610 0.91331
 C1361 C 0.31785 0.43738 0.90475
 H1362 H 0.30892 0.44647 0.88888
 O1363 O 0.62480 0.52402 0.90936
 O1364 O 0.65419 0.52403 0.88016
 C1365 C 0.64529 0.53259 0.90060
 C1366 C 0.65852 0.55313 0.91399
 C1367 C 0.68192 0.56183 0.90545
 H1368 H 0.69087 0.55269 0.88962
 O1369 O 0.40883 0.37475 0.97529
 O1370 O 0.37954 0.34538 0.97529
 C1371 C 0.40000 0.35425 0.96674
 C1372 C 0.41336 0.34096 0.94623
 C1373 C 0.40471 0.31758 0.93744
 H1374 H 0.38880 0.30867 0.94648
 O1375 O 0.59093 0.62466 0.97581
 O1376 O 0.62023 0.65402 0.97582
 C1377 C 0.59976 0.64515 0.96725
 C1378 C 0.58638 0.65840 0.94674
 C1379 C 0.59486 0.68189 0.93814
 H1380 H 0.61065 0.69089 0.94732
 O1381 O 0.40958 0.52414 0.87445
 O1382 O 0.38039 0.52423 0.84503
 C1383 C 0.40081 0.53280 0.85401
 C1384 C 0.41418 0.55347 0.84098
 C1385 C 0.40574 0.56232 0.81759
 H1386 H 0.38962 0.55359 0.80873
 O1387 O 0.59045 0.47492 0.87485
 O1388 O 0.61970 0.47492 0.84551
 C1389 C 0.59928 0.46630 0.85442
 C1390 C 0.58598 0.44563 0.84130
 C1391 C 0.59452 0.43681 0.81794
 H1392 H 0.61067 0.44558 0.80918
 O1393 O 0.52453 0.37409 0.90960
 O1394 O 0.52460 0.34456 0.88050
 C1395 C 0.53317 0.35358 0.90089
 C1396 C 0.55381 0.34052 0.91430
 C1397 C 0.56278 0.31715 0.90580
 H1398 H 0.55417 0.30833 0.88959
 O1399 O 0.47549 0.62510 0.90956
 O1400 O 0.47555 0.65456 0.88039
 C1401 C 0.46692 0.64559 0.90076
 C1402 C 0.44626 0.65872 0.91402
 C1403 C 0.43748 0.68212 0.90546
 H1404 H 0.44668 0.69118 0.88973
 O1405 O 0.37494 0.59027 0.97546
 O1406 O 0.34549 0.61948 0.97531
 C1407 C 0.35448 0.59902 0.96680
 C1408 C 0.34141 0.58563 0.94618
 C1409 C 0.31791 0.59400 0.93757
 H1410 H 0.30877 0.60966 0.94684
 O1411 O 0.62529 0.40891 0.97583
 O1412 O 0.65474 0.37971 0.97588
 C1413 C 0.64576 0.40011 0.96724
 C1414 C 0.65879 0.41341 0.94654
 C1415 C 0.68210 0.40483 0.93754
 H1416 H 0.69094 0.38863 0.94618
 O1417 O 0.47553 0.59071 0.87508
 O1418 O 0.47560 0.62003 0.84578
 C1419 C 0.46701 0.59955 0.85461
 C1420 C 0.44651 0.58616 0.84133
 C1421 C 0.43782 0.59473 0.81793
 H1422 H 0.44693 0.61061 0.80901
 O1423 O 0.52454 0.40837 0.87502
 O1424 O 0.52461 0.37899 0.84576
 C1425 C 0.53314 0.39950 0.85461
 C1426 C 0.55370 0.41289 0.84143
 C1427 C 0.56249 0.40435 0.81806
 H1428 H 0.55344 0.38847 0.80907
 O1429 O 0.62477 0.47495 0.90937
 O1430 O 0.65415 0.47494 0.88016
 C1431 C 0.64524 0.46637 0.90059
 C1432 C 0.65846 0.44580 0.91393
 C1433 C 0.68176 0.43699 0.90526
 H1434 H 0.69066 0.44609 0.88939
 O1435 O 0.37518 0.52416 0.90883
 O1436 O 0.34582 0.52426 0.87958
 C1437 C 0.35471 0.53277 0.90005
 C1438 C 0.34150 0.55328 0.91352
 C1439 C 0.31800 0.56196 0.90515
 H1440 H 0.30923 0.55329 0.88895
 O1441 O 0.40905 0.62505 0.97547
 O1442 O 0.37974 0.65440 0.97532
 C1443 C 0.40022 0.64551 0.96684
 C1444 C 0.41363 0.65871 0.94632
 C1445 C 0.40509 0.68211 0.93746
 H1446 H 0.38882 0.69083 0.94604
 O1447 O 0.59080 0.37452 0.97589
 O1448 O 0.62010 0.34516 0.97596
 C1449 C 0.59965 0.35403 0.96736
 C1450 C 0.58634 0.34079 0.94678
 C1451 C 0.59500 0.31741 0.93802
 H1452 H 0.61085 0.30847 0.94716
 O1453 O 0.59045 0.52405 0.87486
 O1454 O 0.61970 0.52408 0.84553
 C1455 C 0.59928 0.53267 0.85444
 C1456 C 0.58595 0.55334 0.84135
 C1457 C 0.59442 0.56216 0.81796
 H1458 H 0.61055 0.55341 0.80914
 O1459 O 0.40953 0.47500 0.87447
 O1460 O 0.38035 0.47502 0.84503
 C1461 C 0.40074 0.46637 0.85402
 C1462 C 0.41406 0.44564 0.84099
 C1463 C 0.40556 0.43672 0.81764
 H1464 H 0.38941 0.44543 0.80880
 O1465 O 0.52456 0.62505 0.90964
 O1466 O 0.52466 0.65454 0.88051
 C1467 C 0.53320 0.64554 0.90091
 C1468 C 0.55381 0.65864 0.91433
 C1469 C 0.56258 0.68212 0.90598
 H1470 H 0.55385 0.69099 0.88987
 O1471 O 0.47544 0.37409 0.90946
 O1472 O 0.47544 0.34455 0.88036
 C1473 C 0.46680 0.35360 0.90070
 C1474 C 0.44608 0.34059 0.91399
 C1475 C 0.43714 0.31721 0.90546
 H1476 H 0.44584 0.30836 0.88934
 O1477 O 0.62528 0.59013 0.97582
 O1478 O 0.65473 0.61933 0.97582
 C1479 C 0.64575 0.59891 0.96722
 C1480 C 0.65881 0.58553 0.94659
 C1481 C 0.68221 0.59400 0.93774
 H1482 H 0.69106 0.61016 0.94644
 O1483 O 0.37447 0.40930 0.97527
 O1484 O 0.34505 0.38007 0.97527
 C1485 C 0.35401 0.40049 0.96666
 C1486 C 0.34094 0.41381 0.94600
 C1487 C 0.31754 0.40532 0.93715
 H1488 H 0.30869 0.38919 0.94588
 Cu1489 Cu 0.50001 0.39418 0.89520
 Cu1490 Cu 0.50005 0.35882 0.86017
 Cu1491 Cu 0.50002 0.60494 0.89531
 Cu1492 Cu 0.50012 0.64024 0.86022
 Cu1493 Cu 0.39527 0.49960 0.89454
 Cu1494 Cu 0.36014 0.49968 0.85931
 Cu1495 Cu 0.60467 0.49949 0.89502
 Cu1496 Cu 0.63988 0.49949 0.85990
 C1497 C 0.43464 0.43377 0.85254
 H1498 H 0.44107 0.44030 0.87072
 C1499 C 0.41723 0.41606 0.80598
 C1500 C 0.56540 0.56526 0.85287
 H1501 H 0.55900 0.55881 0.87108
 C1502 C 0.58274 0.58278 0.80625
 C1503 C 0.35251 0.43435 0.93409
 H1504 H 0.37073 0.44076 0.94058
 C1505 C 0.30586 0.41698 0.91652
 C1506 C 0.64725 0.56494 0.93472
 H1507 H 0.62903 0.55854 0.94119
 C1508 C 0.69389 0.58228 0.91716
 C1509 C 0.43420 0.35217 0.93453
 H1510 H 0.44075 0.37037 0.94097
 C1511 C 0.41646 0.30557 0.91706
 C1512 C 0.56569 0.64705 0.93487
 H1513 H 0.55927 0.62878 0.94118
 C1514 C 0.58310 0.69389 0.91776
 C1515 C 0.43472 0.56537 0.85257
 H1516 H 0.44110 0.55889 0.87078
 C1517 C 0.41743 0.58295 0.80593
 C1518 C 0.56542 0.43369 0.85275
 H1519 H 0.55896 0.44016 0.87094
 C1520 C 0.58291 0.41618 0.80617
 C1521 C 0.56558 0.35206 0.93494
 H1522 H 0.55902 0.37025 0.94137
 C1523 C 0.58339 0.30547 0.91752
 C1524 C 0.43436 0.64730 0.93461
 H1525 H 0.44081 0.62909 0.94109
 C1526 C 0.41688 0.69395 0.91702
 C1527 C 0.35294 0.56510 0.93419
 H1528 H 0.37122 0.55876 0.94053
 C1529 C 0.30607 0.58233 0.91705
 C1530 C 0.64725 0.43405 0.93473
 H1531 H 0.62910 0.44054 0.94129
 C1532 C 0.69371 0.41648 0.91687
 O1533 O 0.52423 0.40878 1.12545
 O1534 O 0.52412 0.37944 1.15473
 C1535 C 0.53273 0.39992 1.14592
 C1536 C 0.55326 0.41331 1.15917
 C1537 C 0.56211 0.40471 1.18251
 H1538 H 0.55350 0.38841 1.19117
 O1539 O 0.47512 0.59089 1.12510
 O1540 O 0.47510 0.62027 1.15436
 C1541 C 0.46652 0.59978 1.14551
 C1542 C 0.44591 0.58646 1.15868
 C1543 C 0.43715 0.59509 1.18202
 H1544 H 0.44629 0.61094 1.19098
 O1545 O 0.37456 0.52453 1.09091
 O1546 O 0.34517 0.52457 1.12010
 C1547 C 0.35410 0.53314 1.09969
 C1548 C 0.34097 0.55377 1.08630
 C1549 C 0.31767 0.56277 1.09489
 H1550 H 0.30896 0.55421 1.11116
 O1551 O 0.62458 0.47523 1.09136
 O1552 O 0.65392 0.47523 1.12064
 C1553 C 0.64505 0.46667 1.10018
 C1554 C 0.65833 0.44615 1.08680
 C1555 C 0.68178 0.43754 1.09532
 H1556 H 0.69073 0.44671 1.11114
 O1557 O 0.59084 0.37457 1.02489
 O1558 O 0.62016 0.34523 1.02502
 C1559 C 0.59969 0.35413 1.03354
 C1560 C 0.58636 0.34097 1.05415
 C1561 C 0.59503 0.31766 1.06305
 H1562 H 0.61092 0.30869 1.05402
 O1563 O 0.40914 0.62499 1.02444
 O1564 O 0.37984 0.65436 1.02433
 C1565 C 0.40029 0.64550 1.03294
 C1566 C 0.41362 0.65876 1.05347
 C1567 C 0.40510 0.68223 1.06212
 H1568 H 0.38930 0.69123 1.05293
 O1569 O 0.40900 0.47539 1.12527
 O1570 O 0.37976 0.47536 1.15461
 C1571 C 0.40019 0.46675 1.14569
 C1572 C 0.41352 0.44606 1.15877
 C1573 C 0.40496 0.43720 1.18211
 H1574 H 0.38878 0.44591 1.19086
 O1575 O 0.59019 0.52436 1.12574
 O1576 O 0.61937 0.52439 1.15517
 C1577 C 0.59897 0.53299 1.14619
 C1578 C 0.58562 0.55367 1.15924
 C1579 C 0.59412 0.56260 1.18259
 H1580 H 0.61029 0.55392 1.19142
 O1581 O 0.47536 0.37450 1.09064
 O1582 O 0.47517 0.34498 1.11973
 C1583 C 0.46670 0.35400 1.09931
 C1584 C 0.44613 0.34093 1.08580
 C1585 C 0.43734 0.31743 1.09410
 H1586 H 0.44601 0.30853 1.11022
 O1587 O 0.52432 0.62514 1.09074
 O1588 O 0.52435 0.65468 1.11984
 C1589 C 0.53295 0.64564 1.09949
 C1590 C 0.55361 0.65869 1.08613
 C1591 C 0.56239 0.68218 1.09450
 H1592 H 0.55365 0.69108 1.11058
 O1593 O 0.37446 0.40932 1.02433
 O1594 O 0.34507 0.38006 1.02436
 C1595 C 0.35401 0.40050 1.03295
 C1596 C 0.34091 0.41380 1.05362
 C1597 C 0.31757 0.40518 1.06245
 H1598 H 0.30853 0.38938 1.05330
 O1599 O 0.62530 0.59022 1.02486
 O1600 O 0.65476 0.61942 1.02492
 C1601 C 0.64576 0.59901 1.03350
 C1602 C 0.65879 0.58566 1.05418
 C1603 C 0.68220 0.59410 1.06305
 H1604 H 0.69110 0.61022 1.05434
 O1605 O 0.52414 0.59081 1.12525
 O1606 O 0.52418 0.62020 1.15450
 C1607 C 0.53271 0.59968 1.14569
 C1608 C 0.55323 0.58631 1.15894
 C1609 C 0.56197 0.59494 1.18230
 H1610 H 0.55286 0.61082 1.19122
 O1611 O 0.47520 0.40887 1.12514
 O1612 O 0.47502 0.37951 1.15440
 C1613 C 0.46651 0.40001 1.14552
 C1614 C 0.44590 0.41339 1.15864
 C1615 C 0.43708 0.40483 1.18198
 H1616 H 0.44616 0.38896 1.19098
 O1617 O 0.62464 0.52428 1.09138
 O1618 O 0.65396 0.52430 1.12067
 C1619 C 0.64511 0.53284 1.10020
 C1620 C 0.65840 0.55334 1.08683
 C1621 C 0.68181 0.56201 1.09541
 H1622 H 0.69073 0.55288 1.11127
 O1623 O 0.37456 0.47544 1.09087
 O1624 O 0.34516 0.47540 1.12005
 C1625 C 0.35409 0.46683 1.09963
 C1626 C 0.34093 0.44623 1.08622
 C1627 C 0.31759 0.43732 1.09478
 H1628 H 0.30890 0.44592 1.11104
 O1629 O 0.59083 0.62463 1.02477
 O1630 O 0.62013 0.65398 1.02483
 C1631 C 0.59965 0.64511 1.03334
 C1632 C 0.58625 0.65838 1.05382
 C1633 C 0.59473 0.68187 1.06243
 H1634 H 0.61054 0.69086 1.05329
 O1635 O 0.40902 0.37496 1.02427
 O1636 O 0.37975 0.34557 1.02429
 C1637 C 0.40022 0.35447 1.03283
 C1638 C 0.41362 0.34122 1.05332
 C1639 C 0.40514 0.31772 1.06186
 H1640 H 0.38937 0.30872 1.05264
 O1641 O 0.59016 0.47523 1.12574
 O1642 O 0.61936 0.47522 1.15516
 C1643 C 0.59895 0.46662 1.14620
 C1644 C 0.58564 0.44594 1.15927
 C1645 C 0.59421 0.43710 1.18261
 H1646 H 0.60997 0.44627 1.19168
 O1647 O 0.40894 0.52453 1.12537
 O1648 O 0.37971 0.52457 1.15471
 C1649 C 0.40013 0.53317 1.14580
 C1650 C 0.41348 0.55386 1.15889
 C1651 C 0.40496 0.56278 1.18223
 H1652 H 0.38878 0.55411 1.19102
 O1653 O 0.47526 0.62530 1.09067
 O1654 O 0.47524 0.65483 1.11978
 C1655 C 0.46668 0.64584 1.09938
 C1656 C 0.44613 0.65897 1.08594
 C1657 C 0.43732 0.68243 1.09434
 H1658 H 0.44599 0.69126 1.11050
 O1659 O 0.52443 0.37442 1.09094
 O1660 O 0.52432 0.34493 1.12007
 C1661 C 0.53301 0.35393 1.09973
 C1662 C 0.55373 0.34083 1.08649
 C1663 C 0.56271 0.31751 1.09513
 H1664 H 0.55405 0.30876 1.11134
 O1665 O 0.62519 0.40910 1.02488
 O1666 O 0.65466 0.37992 1.02498
 C1667 C 0.64566 0.40035 1.03353
 C1668 C 0.65870 0.41377 1.05417
 C1669 C 0.68215 0.40539 1.06300
 H1670 H 0.69106 0.38928 1.05428
 O1671 O 0.37465 0.59059 1.02450
 O1672 O 0.34523 0.61983 1.02438
 C1673 C 0.35417 0.59942 1.03304
 C1674 C 0.34104 0.58617 1.05371
 C1675 C 0.31773 0.59488 1.06254
 H1676 H 0.30874 0.61070 1.05339
 Cu1677 Cu 0.49982 0.39457 1.10512
 Cu1678 Cu 0.49963 0.35925 1.14016
 Cu1679 Cu 0.49971 0.60510 1.10502
 Cu1680 Cu 0.49972 0.64046 1.14005
 Cu1681 Cu 0.39461 0.39503 0.99978
 Cu1682 Cu 0.35940 0.35983 0.99981
 Cu1683 Cu 0.60511 0.39471 1.00036
 Cu1684 Cu 0.64037 0.35957 1.00047
 Cu1685 Cu 0.39488 0.60479 0.99998
 Cu1686 Cu 0.35961 0.63994 0.99982
 Cu1687 Cu 0.60517 0.60447 1.00031
 Cu1688 Cu 0.64042 0.63962 1.00035
 Cu1689 Cu 0.39470 0.49998 1.10519
 Cu1690 Cu 0.35951 0.49997 1.14031
 Cu1691 Cu 0.60445 0.49978 1.10564
 Cu1692 Cu 0.63959 0.49978 1.14087
 C1693 C 0.56501 0.43408 1.14784
 H1694 H 0.55853 0.44058 1.12968
 C1695 C 0.58260 0.41647 1.19436
 C1696 C 0.43410 0.56569 1.14740
 H1697 H 0.44054 0.55916 1.12924
 C1698 C 0.41667 0.58341 1.19393
 C1699 C 0.35237 0.56546 1.06556
 H1700 H 0.37051 0.55888 1.05907
 C1701 C 0.30591 0.58334 1.08314
 C1702 C 0.64707 0.43430 1.06606
 H1703 H 0.62882 0.44063 1.05961
 C1704 C 0.69382 0.41715 1.08358
 C1705 C 0.56556 0.35228 1.06584
 H1706 H 0.55899 0.37042 1.05930
 C1707 C 0.58337 0.30579 1.08355
 C1708 C 0.43430 0.64742 1.06535
 H1709 H 0.44075 0.62916 1.05901
 C1710 C 0.41680 0.69420 1.08255
 C1711 C 0.43414 0.43418 1.14732
 H1712 H 0.44061 0.44067 1.12916
 C1713 C 0.41661 0.41658 1.19385
 C1714 C 0.56502 0.56552 1.14770
 H1715 H 0.55860 0.55899 1.12952
 C1716 C 0.58243 0.58324 1.19425
 C1717 C 0.43428 0.35255 1.06525
 H1718 H 0.44071 0.37084 1.05898
 C1719 C 0.41683 0.30570 1.08226
 C1720 C 0.56553 0.64707 1.06564
 H1721 H 0.55910 0.62879 1.05931
 C1722 C 0.58296 0.69391 1.08278
 C1723 C 0.35231 0.43449 1.06548
 H1724 H 0.37047 0.44101 1.05901
 C1725 C 0.30577 0.41679 1.08303
 C1726 C 0.64717 0.56512 1.06606
 H1727 H 0.62895 0.55875 1.05956
 C1728 C 0.69385 0.58240 1.08368
 C1729 C 1.11201 1.11161 1.26423
 C1730 C 1.10976 1.08564 1.26045
 C1731 C 1.10015 1.07639 1.23780
 C1732 C 1.13108 1.12967 1.30641
 C1733 C 1.09487 1.11910 1.22271
 C1734 C 1.10449 1.12830 1.24535
 C1735 C 1.12233 1.12123 1.28730
 C1736 C 1.09265 1.09303 1.21865
 H1737 H 1.11550 1.07256 1.27496
 H1738 H 1.09842 1.05624 1.23532
 H1739 H 1.08962 1.13237 1.20820
 H1740 H 1.10624 1.14843 1.24804
 C1741 C 1.11024 0.61041 0.76426
 C1742 C 1.10817 0.58443 0.76040
 C1743 C 1.09898 0.57517 0.73759
 C1744 C 1.12872 0.62847 0.80668
 C1745 C 1.09381 0.61789 0.72248
 C1746 C 1.10301 0.62710 0.74527
 C1747 C 1.12018 0.62004 0.78747
 C1748 C 1.09172 0.59182 0.71836
 H1749 H 1.11373 0.57135 0.77499
 H1750 H 1.09735 0.55502 0.73505
 H1751 H 1.08875 0.63117 0.70790
 H1752 H 1.10466 0.64723 0.74802
 C1753 C 0.61194 1.11210 0.76423
 C1754 C 0.60433 1.12880 0.74539
 C1755 C 0.59464 1.11960 0.72278
 C1756 C 0.63120 1.13011 0.80636
 C1757 C 0.60004 1.07689 0.73780
 C1758 C 0.60972 1.08613 0.76042
 C1759 C 0.62236 1.12171 0.78727
 C1760 C 0.59245 1.09353 0.71869
 H1761 H 0.60606 1.14893 0.74810
 H1762 H 0.58932 1.13288 0.70830
 H1763 H 0.59834 1.05674 0.73531
 H1764 H 0.61554 1.07304 0.77490
 C1765 C 0.61116 0.61209 1.26404
 C1766 C 0.60906 0.58609 1.26040
 C1767 C 0.59960 0.57665 1.23776
 C1768 C 0.63003 0.63044 1.30619
 C1769 C 0.59424 0.61925 1.22238
 C1770 C 0.60370 0.62863 1.24501
 C1771 C 0.62133 0.62190 1.28710
 C1772 C 0.59211 0.59315 1.21848
 H1773 H 0.61478 0.57312 1.27502
 H1774 H 0.59795 0.55648 1.23539
 H1775 H 0.58901 0.63242 1.20777
 H1776 H 0.60536 0.64879 1.24759
 C1777 C 0.88840 0.88830 1.26394
 C1778 C 0.89587 0.87170 1.24496
 C1779 C 0.90534 0.88100 1.22233
 C1780 C 0.86961 0.87006 1.30614
 C1781 C 0.89998 0.92365 1.23758
 C1782 C 0.89051 0.91429 1.26023
 C1783 C 0.87825 0.87857 1.28702
 C1784 C 0.90747 0.90709 1.21835
 H1785 H 0.89420 0.85155 1.24759
 H1786 H 0.91058 0.86778 1.20776
 H1787 H 0.90163 0.94381 1.23516
 H1788 H 0.88480 0.92731 1.27481
 C1789 C 0.88775 0.38753 0.76318
 C1790 C 0.89522 0.37092 0.74421
 C1791 C 0.90467 0.38020 0.72155
 C1792 C 0.86911 0.36934 0.80549
 C1793 C 0.89926 0.42286 0.73675
 C1794 C 0.88983 0.41352 0.75942
 C1795 C 0.87767 0.37782 0.78631
 C1796 C 0.90677 0.40629 0.71754
 H1797 H 0.89359 0.35077 0.74687
 H1798 H 0.90991 0.36697 0.70700
 H1799 H 0.90090 0.44302 0.73431
 H1800 H 0.88411 0.42656 0.77399
 C1801 C 0.38809 0.88863 0.76377
 C1802 C 0.39555 0.87199 0.74482
 C1803 C 0.40506 0.88125 0.72218
 C1804 C 0.36922 0.87049 0.80599
 C1805 C 0.39975 0.92392 0.73737
 C1806 C 0.39025 0.91461 0.76003
 C1807 C 0.37789 0.87895 0.78686
 C1808 C 0.40723 0.90733 0.71817
 H1809 H 0.39385 0.85185 0.74747
 H1810 H 0.41028 0.86801 0.70763
 H1811 H 0.40144 0.94408 0.73494
 H1812 H 0.38455 0.92766 0.77459
 C1813 C 0.38746 0.38812 1.26360
 C1814 C 0.38966 0.41410 1.25986
 C1815 C 0.39928 0.42340 1.23725
 C1816 C 0.36843 0.36999 1.30576
 C1817 C 0.40465 0.38072 1.22210
 C1818 C 0.39502 0.37147 1.24470
 C1819 C 0.37716 0.37846 1.28665
 C1820 C 0.40685 0.40680 1.21809
 H1821 H 0.38389 0.42716 1.27438
 H1822 H 0.40099 0.44355 1.23481
 H1823 H 0.40995 0.36747 1.20758
 H1824 H 0.39330 0.35133 1.24735
 C1825 C 0.88726 1.11224 0.73659
 C1826 C 0.91327 1.11040 0.74017
 C1827 C 0.92287 1.10099 0.76276
 C1828 C 0.86859 1.13076 0.69442
 C1829 C 0.88043 1.09518 0.77824
 C1830 C 0.87089 1.10460 0.75567
 C1831 C 0.87727 1.12224 0.71353
 C1832 C 0.90654 1.09326 0.78206
 H1833 H 0.92612 1.11626 0.72551
 H1834 H 0.94305 1.09951 0.76505
 H1835 H 0.86738 1.08977 0.79287
 H1836 H 0.85072 1.10606 0.75316
 C1837 C 0.88911 0.61177 0.23573
 C1838 C 0.89667 0.62841 0.25464
 C1839 C 0.90614 0.61916 0.27731
 C1840 C 0.87018 0.62990 0.19351
 C1841 C 0.90061 0.57648 0.26220
 C1842 C 0.89114 0.58579 0.23952
 C1843 C 0.87890 0.62145 0.21263
 C1844 C 0.90817 0.59307 0.28138
 H1845 H 0.89506 0.64856 0.25195
 H1846 H 0.91143 0.63240 0.29184
 H1847 H 0.90219 0.55631 0.26469
 H1848 H 0.88536 0.57274 0.22499
 C1849 C 0.38836 1.11117 0.23594
 C1850 C 0.41433 1.10934 0.23977
 C1851 C 0.42371 1.10025 0.26258
 C1852 C 0.37008 1.12929 0.19346
 C1853 C 0.38111 1.09477 0.27777
 C1854 C 0.37179 1.10386 0.25498
 C1855 C 0.37860 1.12092 0.21270
 C1856 C 0.40718 1.09285 0.28184
 H1857 H 0.42732 1.11496 0.22515
 H1858 H 0.44386 1.09876 0.26508
 H1859 H 0.36791 1.08961 0.29236
 H1860 H 0.35166 1.10533 0.25227
 C1861 C 0.38857 0.61141 0.73605
 C1862 C 0.39601 0.62806 0.75500
 C1863 C 0.40556 0.61881 0.77765
 C1864 C 0.36951 0.62950 0.69388
 C1865 C 0.40036 0.57613 0.76242
 C1866 C 0.39082 0.58543 0.73977
 C1867 C 0.37828 0.62107 0.71298
 C1868 C 0.40779 0.59273 0.78164
 H1869 H 0.39424 0.64820 0.75236
 H1870 H 0.41075 0.63206 0.79221
 H1871 H 0.40210 0.55598 0.76485
 H1872 H 0.38513 0.57238 0.72520
 C1873 C 1.11224 0.88802 0.73644
 C1874 C 1.11012 0.91400 0.74020
 C1875 C 1.10059 0.92333 0.76284
 C1876 C 1.13124 0.86987 0.69428
 C1877 C 1.09514 0.88066 0.77798
 C1878 C 1.10468 0.87139 0.75536
 C1879 C 1.12250 0.87832 0.71339
 C1880 C 1.09303 0.90675 0.78201
 H1881 H 1.11590 0.92704 0.72567
 H1882 H 1.09894 0.94349 0.76529
 H1883 H 1.08985 0.86743 0.79250
 H1884 H 1.10635 0.85124 0.75269
 C1885 C 1.11226 0.38782 0.23605
 C1886 C 1.11010 0.41379 0.23983
 C1887 C 1.10041 0.42309 0.26242
 C1888 C 1.13147 0.36972 0.19395
 C1889 C 1.09489 0.38040 0.27747
 C1890 C 1.10458 0.37116 0.25489
 C1891 C 1.12266 0.37816 0.21303
 C1892 C 1.09274 0.40648 0.28152
 H1893 H 1.11596 0.42686 0.22535
 H1894 H 1.09874 0.44324 0.26489
 H1895 H 1.08951 0.36714 0.29194
 H1896 H 1.10627 0.35102 0.25220
 C1897 C 0.61075 0.88941 0.23590
 C1898 C 0.60342 0.87275 0.25487
 C1899 C 0.59418 0.88200 0.27762
 C1900 C 0.62925 0.87123 0.19355
 C1901 C 0.59951 0.92469 0.26250
 C1902 C 0.60875 0.91539 0.23973
 C1903 C 0.62071 0.87972 0.21272
 C1904 C 0.59214 0.90808 0.28171
 H1905 H 0.60503 0.85261 0.25215
 H1906 H 0.58904 0.86875 0.29218
 H1907 H 0.59792 0.94485 0.26501
 H1908 H 0.61438 0.92844 0.22515
 C1909 C 0.61225 0.38801 0.73637
 C1910 C 0.60470 0.37128 0.75520
 C1911 C 0.59498 0.38042 0.77780
 C1912 C 0.63145 0.37006 0.69420
 C1913 C 0.60019 0.42316 0.76279
 C1914 C 0.60991 0.41396 0.74017
 C1915 C 0.62265 0.37845 0.71331
 C1916 C 0.59267 0.40648 0.78189
 H1917 H 0.60652 0.35115 0.75249
 H1918 H 0.58971 0.36712 0.79227
 H1919 H 0.59840 0.44331 0.76528
 H1920 H 0.61566 0.42708 0.72570
 C1921 C 1.26443 1.11104 1.11183
 C1922 C 1.24542 1.10373 1.12845
 C1923 C 1.22265 1.09444 1.11921
 C1924 C 1.30687 1.12959 1.12992
 C1925 C 1.23781 1.09970 1.07661
 C1926 C 1.26060 1.10898 1.08590
 C1927 C 1.28765 1.12103 1.12150
 C1928 C 1.21856 1.09234 1.09318
 H1929 H 1.24814 1.10537 1.14855
 H1930 H 1.20807 1.08930 1.13244
 H1931 H 1.23530 1.09806 1.05649
 H1932 H 1.27519 1.11459 1.07288
 C1933 C 1.26403 0.61090 0.61218
 C1934 C 1.26035 0.60875 0.58624
 C1935 C 1.23769 0.59924 0.57686
 C1936 C 1.30624 0.62988 0.63041
 C1937 C 1.22238 0.59388 0.61939
 C1938 C 1.24502 0.60340 0.62872
 C1939 C 1.28711 0.62114 0.62193
 C1940 C 1.21842 0.59174 0.59334
 H1941 H 1.27495 0.61449 0.57327
 H1942 H 1.23530 0.59758 0.55673
 H1943 H 1.20778 0.58863 0.63255
 H1944 H 1.24763 0.60508 0.64883
 C1945 C 0.76360 1.11227 0.61307
 C1946 C 0.75975 1.08629 0.61106
 C1947 C 0.73714 1.07700 0.60136
 C1948 C 0.80581 1.13041 0.63212
 C1949 C 0.72218 1.11969 0.59554
 C1950 C 0.74479 1.12893 0.60525
 C1951 C 0.78667 1.12194 0.62340
 C1952 C 0.71807 1.09361 0.59353
 H1953 H 0.77421 1.07322 0.61702
 H1954 H 0.73463 1.05684 0.59980
 H1955 H 0.70774 1.13295 0.59004
 H1956 H 0.74752 1.14907 0.60681
 C1957 C 0.76393 0.61068 1.11238
 C1958 C 0.76023 0.60859 1.08644
 C1959 C 0.73748 0.59931 1.07705
 C1960 C 0.80631 0.62923 1.13062
 C1961 C 0.72211 0.59412 1.11958
 C1962 C 0.74484 0.60341 1.12891
 C1963 C 0.78711 0.62066 1.12214
 C1964 C 0.71815 0.59198 1.09353
 H1965 H 0.77490 0.61417 1.07347
 H1966 H 0.73508 0.59764 1.05692
 H1967 H 0.70746 0.58902 1.13274
 H1968 H 0.74746 0.60508 1.14903
 C1969 C 1.26406 0.88819 0.88866
 C1970 C 1.26029 0.91418 0.89065
 C1971 C 1.23763 0.92354 0.90016
 C1972 C 1.30623 0.86996 0.86971
 C1973 C 1.22251 0.88089 0.90582
 C1974 C 1.24515 0.87159 0.89630
 C1975 C 1.28713 0.87847 0.87842
 C1976 C 1.21847 0.90698 0.90782
 H1977 H 1.27481 0.92721 0.88480
 H1978 H 1.23516 0.94371 0.90171
 H1979 H 1.20799 0.86767 0.91119
 H1980 H 1.24783 0.85144 0.89473
 C1981 C 1.26384 0.38795 0.38755
 C1982 C 1.24504 0.37127 0.39530
 C1983 C 1.22243 0.38047 0.40499
 C1984 C 1.30600 0.36992 0.36833
 C1985 C 1.23737 0.42318 0.39932
 C1986 C 1.26000 0.41392 0.38964
 C1987 C 1.28689 0.37833 0.37714
 C1988 C 1.21830 0.40654 0.40705
 H1989 H 1.24778 0.35113 0.39367
 H1990 H 1.20799 0.36719 0.41042
 H1991 H 1.23485 0.44334 0.40093
 H1992 H 1.27444 0.42701 0.38372
 C1993 C 0.76388 0.88892 0.38822
 C1994 C 0.74495 0.87232 0.39587
 C1995 C 0.72232 0.88164 0.40538
 C1996 C 0.80606 0.87067 0.36929
 C1997 C 0.73746 0.92428 0.39972
 C1998 C 0.76012 0.91491 0.39021
 C1999 C 0.78695 0.87917 0.37800
 C2000 C 0.71829 0.90774 0.40738
 H2001 H 0.74762 0.85217 0.39430
 H2002 H 0.70779 0.86843 0.41075
 H2003 H 0.73501 0.94445 0.40127
 H2004 H 0.77465 0.92792 0.38436
 C2005 C 0.76348 0.38813 0.88754
 C2006 C 0.75999 0.39007 0.91353
 C2007 C 0.73731 0.39931 0.92314
 C2008 C 0.80575 0.36983 0.86887
 C2009 C 0.72159 0.40470 0.88074
 C2010 C 0.74424 0.39546 0.87119
 C2011 C 0.78660 0.37828 0.87755
 C2012 C 0.71786 0.40674 0.90683
 H2013 H 0.77477 0.38444 0.92636
 H2014 H 0.73508 0.40089 0.94329
 H2015 H 0.70684 0.40988 0.86771
 H2016 H 0.74668 0.39390 0.85105
 C2017 C 0.73592 0.88910 1.11091
 C2018 C 0.75485 0.87241 1.10351
 C2019 C 0.77764 0.88160 1.09427
 C2020 C 0.69349 0.87106 1.12942
 C2021 C 0.76263 0.92433 1.09974
 C2022 C 0.73982 0.91507 1.10897
 C2023 C 0.71270 0.87947 1.12088
 C2024 C 0.78180 0.90768 1.09231
 H2025 H 0.75207 0.85227 1.10506
 H2026 H 0.79217 0.86832 1.08908
 H2027 H 0.76520 0.94448 1.09820
 H2028 H 0.72527 0.92816 1.11465
 C2029 C 0.73582 0.38828 0.61209
 C2030 C 0.73963 0.41426 0.61001
 C2031 C 0.76219 0.42354 0.60021
 C2032 C 0.69378 0.37018 0.63149
 C2033 C 0.77714 0.38085 0.59438
 C2034 C 0.75459 0.37162 0.60419
 C2035 C 0.71283 0.37863 0.62260
 C2036 C 0.78123 0.40693 0.59234
 H2037 H 0.72521 0.42733 0.61603
 H2038 H 0.76469 0.44370 0.59862
 H2039 H 0.79156 0.36759 0.58885
 H2040 H 0.75188 0.35148 0.60580
 C2041 C 0.23651 0.88800 0.61194
 C2042 C 0.25554 0.87151 0.60433
 C2043 C 0.27813 0.88094 0.59486
 C2044 C 0.19437 0.86953 0.63072
 C2045 C 0.26275 0.92351 0.60050
 C2046 C 0.24014 0.91402 0.60997
 C2047 C 0.21346 0.87813 0.62208
 C2048 C 0.28202 0.90705 0.59285
 H2049 H 0.25297 0.85134 0.60589
 H2050 H 0.29274 0.86780 0.58950
 H2051 H 0.26510 0.94369 0.59894
 H2052 H 0.22552 0.92695 0.61579
 C2053 C 0.23610 0.38811 1.11232
 C2054 C 0.25497 0.37152 1.10452
 C2055 C 0.27753 0.38083 1.09484
 C2056 C 0.19401 0.36985 1.13147
 C2057 C 0.26242 0.42347 1.10063
 C2058 C 0.23984 0.41410 1.11030
 C2059 C 0.21308 0.37836 1.12269
 C2060 C 0.28155 0.40693 1.09283
 H2061 H 0.25232 0.35136 1.10610
 H2062 H 0.29203 0.36762 1.08936
 H2063 H 0.26486 0.44364 1.09907
 H2064 H 0.22534 0.42712 1.11626
 C2065 C 0.73619 1.11166 0.88759
 C2066 C 0.75507 1.12827 0.89536
 C2067 C 0.77769 1.11898 0.90496
 C2068 C 0.69397 1.12990 0.86866
 C2069 C 0.76262 1.07632 0.89915
 C2070 C 0.73999 1.08567 0.88955
 C2071 C 0.71311 1.12139 0.87734
 C2072 C 0.78175 1.09288 0.90694
 H2073 H 0.75237 1.14842 0.89382
 H2074 H 0.79218 1.13220 0.91042
 H2075 H 0.76509 1.05615 0.90068
 H2076 H 0.72548 1.07264 0.88362
 C2077 C 0.73622 0.61169 0.38780
 C2078 C 0.74005 0.58570 0.38976
 C2079 C 0.76276 0.57639 0.39921
 C2080 C 0.69391 0.62984 0.36905
 C2081 C 0.77781 0.61908 0.40487
 C2082 C 0.75512 0.62833 0.39541
 C2083 C 0.71308 0.62137 0.37767
 C2084 C 0.78191 0.59299 0.40684
 H2085 H 0.72553 0.57265 0.38393
 H2086 H 0.76528 0.55623 0.40074
 H2087 H 0.79232 0.63233 0.41022
 H2088 H 0.75239 0.64848 0.39387
 C2089 C 0.23588 1.11188 0.38800
 C2090 C 0.23974 1.08591 0.39011
 C2091 C 0.26241 1.07667 0.39972
 C2092 C 0.19363 1.12988 0.36892
 C2093 C 0.27738 1.11940 0.40525
 C2094 C 0.25472 1.12858 0.39564
 C2095 C 0.21278 1.12148 0.37768
 C2096 C 0.28152 1.09333 0.40735
 H2097 H 0.22526 1.07281 0.38428
 H2098 H 0.26494 1.05652 0.40135
 H2099 H 0.29186 1.13269 0.41060
 H2100 H 0.25197 1.14872 0.39398
 C2101 C 0.23568 0.61043 0.88902
 C2102 C 0.23970 0.58446 0.89085
 C2103 C 0.26255 0.57526 0.90005
 C2104 C 0.19315 0.62842 0.87067
 C2105 C 0.27739 0.61803 0.90568
 C2106 C 0.25456 0.62717 0.89647
 C2107 C 0.21241 0.62001 0.87913
 C2108 C 0.28166 0.59196 0.90755
 H2109 H 0.22519 0.57134 0.88513
 H2110 H 0.26521 0.55511 0.90152
 H2111 H 0.29188 0.63135 0.91092
 H2112 H 0.25170 0.64730 0.89501
 C2113 C 1.11256 1.26389 1.11194
 C2114 C 1.12905 1.24483 1.10437
 C2115 C 1.11964 1.22219 1.09488
 C2116 C 1.13096 1.30609 1.13081
 C2117 C 1.07711 1.23760 1.10042
 C2118 C 1.08658 1.26025 1.10991
 C2119 C 1.12240 1.28697 1.12212
 C2120 C 1.09355 1.21830 1.09283
 H2121 H 1.14919 1.24739 1.10598
 H2122 H 1.13277 1.20756 1.08957
 H2123 H 1.05695 1.23525 1.09883
 H2124 H 1.07365 1.27489 1.11570
 C2125 C 1.11258 0.76333 0.61179
 C2126 C 1.10486 0.74441 0.62833
 C2127 C 1.09533 0.72175 0.61902
 C2128 C 1.13145 0.80561 0.63004
 C2129 C 1.10113 0.73688 0.57647
 C2130 C 1.11066 0.75955 0.58584
 C2131 C 1.12278 0.78645 0.62154
 C2132 C 1.09338 0.71770 0.59297
 H2133 H 1.10638 0.74709 0.64845
 H2134 H 1.08989 0.70722 0.63219
 H2135 H 1.09962 0.73442 0.55634
 H2136 H 1.11656 0.77409 0.57287
 C2137 C 0.61222 1.26433 0.61216
 C2138 C 0.62870 1.24528 0.60458
 C2139 C 0.61928 1.22265 0.59507
 C2140 C 0.63067 1.30651 0.63101
 C2141 C 0.57676 1.23807 0.60064
 C2142 C 0.58624 1.26071 0.61014
 C2143 C 0.62208 1.28740 0.62233
 C2144 C 0.59320 1.21877 0.59301
 H2145 H 0.64885 1.24783 0.60617
 H2146 H 0.63241 1.20802 0.58974
 H2147 H 0.55660 1.23572 0.59905
 H2148 H 0.57331 1.27535 0.61595
 C2149 C 0.61123 0.76425 1.11099
 C2150 C 0.62790 0.74524 1.10371
 C2151 C 0.61871 0.72243 1.09442
 C2152 C 0.62926 0.80675 1.12952
 C2153 C 0.57604 0.73757 1.09960
 C2154 C 0.58528 0.76040 1.10888
 C2155 C 0.62085 0.78750 1.12098
 C2156 C 0.59266 0.71832 1.09229
 H2157 H 0.64801 0.74798 1.10539
 H2158 H 0.63197 0.70785 1.08933
 H2159 H 0.55591 0.73505 1.09793
 H2160 H 0.57221 0.77500 1.11446
 C2161 C 0.88848 1.26373 0.88792
 C2162 C 0.87187 1.24478 0.89547
 C2163 C 0.88113 1.22215 0.90511
 C2164 C 0.87027 1.30587 0.86880
 C2165 C 0.92375 1.23737 0.89978
 C2166 C 0.91444 1.26001 0.89014
 C2167 C 0.87879 1.28678 0.87757
 C2168 C 0.90719 1.21817 0.90733
 H2169 H 0.85175 1.24741 0.89372
 H2170 H 0.86791 1.20759 0.91039
 H2171 H 0.94389 1.23495 0.90151
 H2172 H 0.92746 1.27458 0.88437
 C2173 C 0.88858 0.76404 0.38793
 C2174 C 0.91455 0.76034 0.39001
 C2175 C 0.92394 0.73764 0.39948
 C2176 C 0.87029 0.80633 0.36915
 C2177 C 0.88136 0.72234 0.40487
 C2178 C 0.87202 0.74501 0.39541
 C2179 C 0.87881 0.78717 0.37779
 C2180 C 0.90743 0.71837 0.40699
 H2181 H 0.92753 0.77495 0.38429
 H2182 H 0.94408 0.73524 0.40112
 H2183 H 0.86818 0.70773 0.41013
 H2184 H 0.85189 0.74763 0.39376
 C2185 C 0.38773 1.26434 0.38795
 C2186 C 0.41371 1.26071 0.39001
 C2187 C 0.42317 1.23810 0.39958
 C2188 C 0.36930 1.30646 0.36895
 C2189 C 0.38064 1.22272 0.40515
 C2190 C 0.37124 1.24532 0.39558
 C2191 C 0.37789 1.28738 0.37769
 C2192 C 0.40673 1.21883 0.40723
 H2193 H 0.42665 1.27533 0.38417
 H2194 H 0.44333 1.23575 0.40119
 H2195 H 0.36751 1.20811 0.41051
 H2196 H 0.35110 1.24788 0.39395
 C2197 C 0.38810 0.76391 0.88840
 C2198 C 0.39001 0.76012 0.91434
 C2199 C 0.39947 0.73742 0.92371
 C2200 C 0.36928 0.80620 0.87018
 C2201 C 0.40524 0.72228 0.88115
 C2202 C 0.39577 0.74497 0.87184
 C2203 C 0.37795 0.78704 0.87866
 C2204 C 0.40717 0.71823 0.90719
 H2205 H 0.38413 0.77468 0.92733
 H2206 H 0.40097 0.73495 0.94384
 H2207 H 0.41064 0.70774 0.86796
 H2208 H 0.39426 0.74765 0.85173
 C2209 C 1.11108 0.73523 0.88964
 C2210 C 1.12782 0.75411 0.89710
 C2211 C 1.11872 0.77692 0.90644
 C2212 C 1.12896 0.69275 0.87093
 C2213 C 1.07599 0.76204 0.90097
 C2214 C 1.08515 0.73921 0.89164
 C2215 C 1.12061 0.71198 0.87955
 C2216 C 1.09269 0.78117 0.90843
 H2217 H 1.14793 0.75127 0.89551
 H2218 H 1.13204 0.79142 0.91166
 H2219 H 1.05586 0.76467 0.90253
 H2220 H 1.07202 0.72470 0.88592
 C2221 C 1.11192 0.23563 0.38810
 C2222 C 1.12842 0.25470 0.39560
 C2223 C 1.11903 0.27737 0.40501
 C2224 C 1.13033 0.19337 0.36942
 C2225 C 1.07649 0.26197 0.39950
 C2226 C 1.08594 0.23929 0.39009
 C2227 C 1.12175 0.21251 0.37803
 C2228 C 1.09295 0.28128 0.40705
 H2229 H 1.14856 0.25212 0.39402
 H2230 H 1.13217 0.29201 0.41029
 H2231 H 1.05633 0.26435 0.40108
 H2232 H 1.07300 0.22463 0.38434
 C2233 C 0.61166 0.73647 0.38825
 C2234 C 0.62831 0.75539 0.39583
 C2235 C 0.61908 0.77808 0.40537
 C2236 C 0.62972 0.69418 0.36926
 C2237 C 0.57643 0.76298 0.39986
 C2238 C 0.58571 0.74028 0.39033
 C2239 C 0.62131 0.71334 0.37799
 C2240 C 0.59303 0.78216 0.40745
 H2241 H 0.64843 0.75269 0.39419
 H2242 H 0.63232 0.79261 0.41068
 H2243 H 0.55630 0.76547 0.40148
 H2244 H 0.57266 0.72574 0.38453
 C2245 C 0.61239 0.23568 0.88867
 C2246 C 0.62887 0.25474 0.89626
 C2247 C 0.61944 0.27736 0.90577
 C2248 C 0.63081 0.19354 0.86969
 C2249 C 0.57692 0.26192 0.90020
 C2250 C 0.58641 0.23928 0.89069
 C2251 C 0.62225 0.21263 0.87844
 C2252 C 0.59335 0.28123 0.90781
 H2253 H 0.64901 0.25220 0.89466
 H2254 H 0.63256 0.29200 0.91110
 H2255 H 0.55677 0.26425 0.90178
 H2256 H 0.57349 0.22464 0.88488
 C2257 C 0.88874 0.73574 1.11147
 C2258 C 0.87212 0.75471 1.10397
 C2259 C 0.88137 0.77742 1.09453
 C2260 C 0.87061 0.69346 1.13033
 C2261 C 0.92400 0.76225 1.09999
 C2262 C 0.91469 0.73952 1.10942
 C2263 C 0.87906 0.71261 1.12164
 C2264 C 0.90743 0.78147 1.09248
 H2265 H 0.85199 0.75202 1.10559
 H2266 H 0.86814 0.79199 1.08928
 H2267 H 0.94414 0.76472 1.09839
 H2268 H 0.92772 0.72495 1.11517
 C2269 C 0.88726 0.23591 0.61136
 C2270 C 0.87071 0.25490 0.60373
 C2271 C 0.88005 0.27745 0.59401
 C2272 C 0.86902 0.19393 0.63080
 C2273 C 0.92262 0.26208 0.59939
 C2274 C 0.91322 0.23951 0.60911
 C2275 C 0.87752 0.21295 0.62186
 C2276 C 0.90612 0.28133 0.59179
 H2277 H 0.85058 0.25235 0.60550
 H2278 H 0.86688 0.29205 0.58869
 H2279 H 0.94276 0.26442 0.59766
 H2280 H 0.92620 0.22492 0.61493
 C2281 C 0.38766 0.73607 0.61115
 C2282 C 0.37119 0.75515 0.60362
 C2283 C 0.38062 0.77784 0.59432
 C2284 C 0.36923 0.69376 0.62969
 C2285 C 0.42314 0.76245 0.60000
 C2286 C 0.41365 0.73974 0.60930
 C2287 C 0.37779 0.71292 0.62113
 C2288 C 0.40671 0.78176 0.59241
 H2289 H 0.35104 0.75256 0.60510
 H2290 H 0.36750 0.79248 0.58901
 H2291 H 0.44330 0.76483 0.59852
 H2292 H 0.42657 0.72508 0.61508
 C2293 C 0.38830 0.23548 1.11031
 C2294 C 0.41426 0.23924 1.10829
 C2295 C 0.42360 0.26203 1.09906
 C2296 C 0.37010 0.19314 1.12890
 C2297 C 0.38098 0.27731 1.09376
 C2298 C 0.37170 0.25453 1.10299
 C2299 C 0.37859 0.21230 1.12030
 C2300 C 0.40704 0.28133 1.09172
 H2301 H 0.42727 0.22460 1.11391
 H2302 H 0.44374 0.26451 1.09747
 H2303 H 0.36777 0.29194 1.08864
 H2304 H 0.35157 0.25186 1.10461
 C2305 C 1.11100 1.11158 0.73610
 C2306 C 1.10359 1.12816 0.75511
 C2307 C 1.09441 1.11883 0.77784
 C2308 C 1.12930 1.12987 0.69372
 C2309 C 1.09997 1.07619 0.76264
 C2310 C 1.10916 1.08558 0.73989
 C2311 C 1.12085 1.12135 0.71291
 C2312 C 1.09250 1.09273 0.78188
 H2313 H 1.10507 1.14832 0.75242
 H2314 H 1.08918 1.13204 0.79242
 H2315 H 1.09849 1.05602 0.76512
 H2316 H 1.11485 1.07257 0.72528
 C2317 C 1.11244 0.61230 0.23646
 C2318 C 1.12898 0.60443 0.25533
 C2319 C 1.11962 0.59477 0.27787
 C2320 C 1.13073 0.63145 0.19442
 C2321 C 1.07706 0.60073 0.26274
 C2322 C 1.08647 0.61039 0.24018
 C2323 C 1.12222 0.62266 0.21348
 C2324 C 1.09355 0.59285 0.28186
 H2325 H 1.14912 0.60593 0.25270
 H2326 H 1.13279 0.58922 0.29236
 H2327 H 1.05690 0.59924 0.26515
 H2328 H 1.07349 0.61641 0.22569
 C2329 C 0.61200 1.11312 0.23651
 C2330 C 0.61007 1.08711 0.24018
 C2331 C 0.60059 1.07765 0.26279
 C2332 C 0.63081 1.13152 0.19437
 C2333 C 0.59488 1.12024 0.27808
 C2334 C 0.60436 1.12964 0.25549
 C2335 C 0.62215 1.12296 0.21346
 C2336 C 0.59291 1.09412 0.28201
 H2337 H 0.61592 1.07416 0.22560
 H2338 H 0.59907 1.05747 0.26516
 H2339 H 0.58949 1.13339 0.29265
 H2340 H 0.60589 1.14981 0.25290
 C2341 C 0.61120 0.61129 0.73627
 C2342 C 0.60908 0.58530 0.74002
 C2343 C 0.59973 0.57598 0.76273
 C2344 C 0.62978 0.62948 0.69396
 C2345 C 0.59452 0.61865 0.77797
 C2346 C 0.60387 0.62792 0.75528
 C2347 C 0.62122 0.62099 0.71313
 C2348 C 0.59237 0.59256 0.78197
 H2349 H 0.61470 0.57227 0.72541
 H2350 H 0.59806 0.55582 0.76517
 H2351 H 0.58938 0.63188 0.79256
 H2352 H 0.60555 0.64806 0.75262
 C2353 C 0.88955 0.88880 0.73573
 C2354 C 0.89696 0.87207 0.75462
 C2355 C 0.90626 0.88122 0.77740
 C2356 C 0.87090 0.87087 0.69330
 C2357 C 0.90085 0.92397 0.76247
 C2358 C 0.89156 0.91477 0.73967
 C2359 C 0.87950 0.87923 0.71252
 C2360 C 0.90827 0.90729 0.78161
 H2361 H 0.89537 0.85194 0.75181
 H2362 H 0.91145 0.86791 0.79190
 H2363 H 0.90243 0.94412 0.76507
 H2364 H 0.88588 0.92788 0.72516
 C2365 C 0.88858 0.38861 0.23547
 C2366 C 0.91454 0.39042 0.23935
 C2367 C 0.92387 0.39973 0.26210
 C2368 C 0.87037 0.37007 0.19312
 C2369 C 0.88125 0.40552 0.27710
 C2370 C 0.87197 0.39620 0.25438
 C2371 C 0.87886 0.37861 0.21230
 C2372 C 0.90731 0.40737 0.28124
 H2373 H 0.92756 0.38460 0.22483
 H2374 H 0.94402 0.40117 0.26464
 H2375 H 0.86803 0.41087 0.29161
 H2376 H 0.85184 0.39476 0.25162
 C2377 C 0.38894 0.88863 0.23615
 C2378 C 0.41488 0.89079 0.24003
 C2379 C 0.42408 0.90034 0.26273
 C2380 C 0.37097 0.86967 0.19389
 C2381 C 0.38138 0.90571 0.27768
 C2382 C 0.37223 0.89615 0.25500
 C2383 C 0.37937 0.87838 0.21304
 C2384 C 0.40741 0.90787 0.28183
 H2385 H 0.42797 0.88505 0.22555
 H2386 H 0.44420 0.90202 0.26528
 H2387 H 0.36808 0.91097 0.29215
 H2388 H 0.35212 0.89446 0.25223
 C2389 C 0.38853 0.38734 0.73610
 C2390 C 0.39064 0.41333 0.73980
 C2391 C 0.40009 0.42272 0.76247
 C2392 C 0.36977 0.36907 0.69384
 C2393 C 0.40542 0.38009 0.77776
 C2394 C 0.39597 0.37076 0.75510
 C2395 C 0.37840 0.37758 0.71299
 C2396 C 0.40756 0.40619 0.78172
 H2397 H 0.38495 0.42634 0.72519
 H2398 H 0.40175 0.44289 0.76487
 H2399 H 0.41064 0.36690 0.79235
 H2400 H 0.39431 0.35061 0.75249
 C2401 C 1.11116 0.88835 1.26455
 C2402 C 1.10375 0.87173 1.24557
 C2403 C 1.09444 0.88102 1.22285
 C2404 C 1.12979 0.87017 1.30687
 C2405 C 1.09987 0.92368 1.23803
 C2406 C 1.10918 0.91434 1.26077
 C2407 C 1.12119 0.87864 1.28771
 C2408 C 1.09242 0.90711 1.21881
 H2409 H 1.10533 0.85158 1.24825
 H2410 H 1.08923 0.86779 1.20828
 H2411 H 1.09830 0.94385 1.23556
 H2412 H 1.11487 0.92737 1.27536
 C2413 C 1.11060 0.38714 0.76349
 C2414 C 1.10863 0.41314 0.75976
 C2415 C 1.09929 0.42254 0.73706
 C2416 C 1.12932 0.36890 0.80575
 C2417 C 1.09376 0.37991 0.72180
 C2418 C 1.10311 0.37057 0.74449
 C2419 C 1.12068 0.37738 0.78660
 C2420 C 1.09178 0.40601 0.71781
 H2421 H 1.11437 0.42614 0.77435
 H2422 H 1.09774 0.44271 0.73462
 H2423 H 1.08851 0.36671 0.70722
 H2424 H 1.10468 0.35041 0.74713
 C2425 C 0.61058 0.88904 0.76414
 C2426 C 0.60852 0.91502 0.76034
 C2427 C 0.59924 0.92432 0.73758
 C2428 C 0.62916 0.87090 0.80648
 C2429 C 0.59398 0.88163 0.72240
 C2430 C 0.60327 0.87239 0.74514
 C2431 C 0.62059 0.87936 0.78731
 C2432 C 0.59189 0.90771 0.71834
 H2433 H 0.61413 0.92807 0.77494
 H2434 H 0.59760 0.94448 0.73509
 H2435 H 0.58885 0.86838 0.70782
 H2436 H 0.60491 0.85224 0.74783
 C2437 C 0.61128 0.38754 1.26413
 C2438 C 0.62784 0.39522 1.24523
 C2439 C 0.61852 0.40473 1.22260
 C2440 C 0.62962 0.36881 1.30635
 C2441 C 0.57593 0.39896 1.23771
 C2442 C 0.58531 0.38946 1.26035
 C2443 C 0.62106 0.37741 1.28722
 C2444 C 0.59244 0.40669 1.21857
 H2445 H 0.64798 0.39370 1.24791
 H2446 H 0.63170 0.41014 1.20810
 H2447 H 0.55578 0.40048 1.23525
 H2448 H 0.57233 0.38358 1.27488
 C2449 C 0.88849 1.11253 1.26390
 C2450 C 0.89602 1.12908 1.24491
 C2451 C 0.90547 1.11970 1.22229
 C2452 C 0.86973 1.13088 1.30609
 C2453 C 0.89997 1.07710 1.23758
 C2454 C 0.89052 1.08653 1.26022
 C2455 C 0.87836 1.12233 1.28698
 C2456 C 0.90752 1.09360 1.21835
 H2457 H 0.89441 1.14924 1.24752
 H2458 H 0.91076 1.13288 1.20771
 H2459 H 0.90156 1.05693 1.23519
 H2460 H 0.88476 1.07355 1.27481
 C2461 C 0.88877 0.61119 0.76344
 C2462 C 0.89079 0.58520 0.75962
 C2463 C 0.90012 0.57589 0.73688
 C2464 C 0.87021 0.62933 0.80579
 C2465 C 0.90552 0.61858 0.72177
 C2466 C 0.89619 0.62783 0.74449
 C2467 C 0.87875 0.62087 0.78661
 C2468 C 0.90757 0.59249 0.71769
 H2469 H 0.88511 0.57215 0.77417
 H2470 H 0.90171 0.55573 0.73438
 H2471 H 0.91073 0.63183 0.70723
 H2472 H 0.89459 0.64798 0.74721
 C2473 C 0.38809 1.11290 0.76368
 C2474 C 0.39006 1.08689 0.76000
 C2475 C 0.39945 1.07743 0.73735
 C2476 C 0.36945 1.13126 0.80593
 C2477 C 0.40498 1.12002 0.72202
 C2478 C 0.39559 1.12942 0.74466
 C2479 C 0.37804 1.12273 0.78678
 C2480 C 0.40701 1.09391 0.71809
 H2481 H 0.38431 1.07393 0.77461
 H2482 H 0.40102 1.05725 0.73497
 H2483 H 0.41026 1.13318 0.70743
 H2484 H 0.39402 1.14958 0.74726
 C2485 C 0.38813 0.61217 1.26385
 C2486 C 0.39012 0.58617 1.26011
 C2487 C 0.39949 0.57676 1.23742
 C2488 C 0.36952 0.63044 1.30615
 C2489 C 0.40498 0.61939 1.22218
 C2490 C 0.39560 0.62873 1.24485
 C2491 C 0.37809 0.62194 1.28698
 C2492 C 0.40701 0.59328 1.21819
 H2493 H 0.38440 0.57317 1.27470
 H2494 H 0.40106 0.55659 1.23500
 H2495 H 0.41023 0.63258 1.20761
 H2496 H 0.39403 0.64889 1.24749
 C2497 C 1.11193 1.26374 0.88851
 C2498 C 1.08597 1.26000 0.89057
 C2499 C 1.07662 1.23731 0.90006
 C2500 C 1.13012 1.30598 0.86958
 C2501 C 1.11922 1.22209 0.90557
 C2502 C 1.12852 1.24476 0.89607
 C2503 C 1.12165 1.28684 0.87830
 C2504 C 1.09316 1.21808 0.90763
 H2505 H 1.07296 1.27458 0.88478
 H2506 H 1.05647 1.23488 0.90166
 H2507 H 1.13242 1.20752 0.91086
 H2508 H 1.14865 1.24741 0.89445
 C2509 C 1.11164 0.76422 0.38903
 C2510 C 1.08571 0.76030 0.39119
 C2511 C 1.07655 0.73753 0.40065
 C2512 C 1.12948 0.80659 0.37007
 C2513 C 1.11927 0.72257 0.40597
 C2514 C 1.12838 0.74533 0.39650
 C2515 C 1.12116 0.78739 0.37880
 C2516 C 1.09324 0.71838 0.40808
 H2517 H 1.07259 0.77481 0.38549
 H2518 H 1.05643 0.73495 0.40231
 H2519 H 1.13258 0.70807 0.41117
 H2520 H 1.14848 0.74812 0.39481
 C2521 C 0.61174 1.26447 0.38832
 C2522 C 0.58578 1.26076 0.39044
 C2523 C 0.57643 1.23811 0.40001
 C2524 C 0.62991 1.30662 0.36918
 C2525 C 0.61904 1.22288 0.40549
 C2526 C 0.62833 1.24551 0.39591
 C2527 C 0.62144 1.28753 0.37799
 C2528 C 0.59298 1.21889 0.40761
 H2529 H 0.57277 1.27533 0.38463
 H2530 H 0.55629 1.23569 0.40166
 H2531 H 0.63224 1.20831 0.41081
 H2532 H 0.64846 1.24815 0.39424
 C2533 C 0.61130 0.76417 0.88938
 C2534 C 0.62799 0.74522 0.89678
 C2535 C 0.61883 0.72244 0.90614
 C2536 C 0.62927 0.80659 0.87067
 C2537 C 0.57614 0.73750 0.90084
 C2538 C 0.58536 0.76029 0.89148
 C2539 C 0.62088 0.78737 0.87929
 C2540 C 0.59279 0.71830 0.90824
 H2541 H 0.64810 0.74797 0.89512
 H2542 H 0.63211 0.70789 0.91131
 H2543 H 0.55601 0.73495 0.90248
 H2544 H 0.57227 0.77485 0.88582
 C2545 C 0.88906 1.26433 1.11090
 C2546 C 0.91500 1.26051 1.10875
 C2547 C 0.92425 1.23775 1.09933
 C2548 C 0.87100 1.30663 1.12979
 C2549 C 0.88157 1.22262 1.09407
 C2550 C 0.87238 1.24537 1.10349
 C2551 C 0.87944 1.28747 1.12108
 C2552 C 0.90762 1.21854 1.09193
 H2553 H 0.92807 1.27509 1.11443
 H2554 H 0.94438 1.23524 1.09767
 H2555 H 0.86831 1.20806 1.08889
 H2556 H 0.85227 1.24808 1.10519
 C2557 C 0.88933 0.76439 0.61073
 C2558 C 0.89677 0.74541 0.62735
 C2559 C 0.90607 0.72263 0.61812
 C2560 C 0.87078 0.80681 0.62887
 C2561 C 0.90060 0.73775 0.57551
 C2562 C 0.89130 0.76054 0.58480
 C2563 C 0.87933 0.78760 0.62040
 C2564 C 0.90807 0.71852 0.59209
 H2565 H 0.89520 0.74814 0.64745
 H2566 H 0.91129 0.70806 0.63134
 H2567 H 0.90216 0.73522 0.55539
 H2568 H 0.88560 0.77513 0.57177
 C2569 C 0.38831 1.26462 0.61199
 C2570 C 0.41426 1.26091 0.60986
 C2571 C 0.42361 1.23827 0.60025
 C2572 C 0.37006 1.30675 0.63112
 C2573 C 0.38100 1.22305 0.59473
 C2574 C 0.37171 1.24568 0.60435
 C2575 C 0.37859 1.28767 0.62233
 C2576 C 0.40706 1.21906 0.59262
 H2577 H 0.42727 1.27547 0.61570
 H2578 H 0.44375 1.23584 0.59861
 H2579 H 0.36780 1.20849 0.58939
 H2580 H 0.35159 1.24832 0.60602
 C2581 C 0.38841 0.76428 1.11123
 C2582 C 0.37177 0.74534 1.10371
 C2583 C 0.38099 0.72263 1.09423
 C2584 C 0.37032 0.80657 1.13015
 C2585 C 0.42364 0.73776 1.09966
 C2586 C 0.41436 0.76048 1.10913
 C2587 C 0.37877 0.78742 1.12144
 C2588 C 0.40704 0.71855 1.09215
 H2589 H 0.35165 0.74804 1.10536
 H2590 H 0.36775 0.70807 1.08898
 H2591 H 0.44378 0.73526 1.09804
 H2592 H 0.42741 0.77504 1.11488
 C2593 C 0.88868 0.73586 0.88888
 C2594 C 0.87209 0.75485 0.89636
 C2595 C 0.88136 0.77757 0.90577
 C2596 C 0.87048 0.69354 0.87012
 C2597 C 0.92398 0.76236 0.90035
 C2598 C 0.91465 0.73963 0.89094
 C2599 C 0.87898 0.71271 0.87876
 C2600 C 0.90743 0.78160 0.90785
 H2601 H 0.85196 0.75218 0.89473
 H2602 H 0.86815 0.79215 0.91102
 H2603 H 0.94412 0.76482 0.90197
 H2604 H 0.92766 0.72503 0.88522
 C2605 C 0.88794 0.23575 0.38749
 C2606 C 0.87132 0.25474 0.39494
 C2607 C 0.88057 0.27741 0.40450
 C2608 C 0.86979 0.19347 0.36854
 C2609 C 0.92320 0.26216 0.39928
 C2610 C 0.91389 0.23948 0.38972
 C2611 C 0.87826 0.21263 0.37724
 C2612 C 0.90662 0.28141 0.40674
 H2613 H 0.85120 0.25210 0.39318
 H2614 H 0.86735 0.29200 0.40971
 H2615 H 0.94333 0.26459 0.40102
 H2616 H 0.92692 0.22488 0.38403
 C2617 C 0.38869 0.73641 0.38777
 C2618 C 0.39623 0.75548 0.37131
 C2619 C 0.40553 0.77818 0.38074
 C2620 C 0.37018 0.69407 0.36934
 C2621 C 0.39982 0.76283 0.42322
 C2622 C 0.39052 0.74011 0.41374
 C2623 C 0.37872 0.71325 0.37791
 C2624 C 0.40743 0.78213 0.40681
 H2625 H 0.39476 0.75286 0.35118
 H2626 H 0.41085 0.79281 0.36763
 H2627 H 0.40129 0.76523 0.44336
 H2628 H 0.38474 0.72546 0.42665
 C2629 C 0.38776 0.23576 0.88785
 C2630 C 0.41372 0.23940 0.89013
 C2631 C 0.42310 0.26202 0.89978
 C2632 C 0.36954 0.19361 0.86866
 C2633 C 0.38052 0.27739 0.90503
 C2634 C 0.37120 0.25478 0.89537
 C2635 C 0.37803 0.21272 0.87747
 C2636 C 0.40658 0.28130 0.90730
 H2637 H 0.42671 0.22479 0.88439
 H2638 H 0.44324 0.26438 0.90155
 H2639 H 0.36734 0.29200 0.91028
 H2640 H 0.35107 0.25221 0.89358
 C2641 C 1.11237 0.73627 1.11294
 C2642 C 1.12891 0.75524 1.10528
 C2643 C 1.11956 0.77783 1.09562
 C2644 C 1.13067 0.69411 1.13202
 C2645 C 1.07700 0.76254 1.10116
 C2646 C 1.08640 0.73994 1.11081
 C2647 C 1.12214 0.71322 1.12326
 C2648 C 1.09349 0.78176 1.09348
 H2649 H 1.14905 0.75264 1.10694
 H2650 H 1.13273 0.79240 1.09024
 H2651 H 1.05685 0.76491 1.09950
 H2652 H 1.07343 0.72536 1.11666
 C2653 C 1.11128 0.23524 0.61121
 C2654 C 1.12787 0.25426 0.60379
 C2655 C 1.11859 0.27695 0.59431
 C2656 C 1.12953 0.19295 0.63003
 C2657 C 1.07598 0.26166 0.59955
 C2658 C 1.08532 0.23896 0.60903
 C2659 C 1.12101 0.21211 0.62137
 C2660 C 1.09253 0.28093 0.59210
 H2661 H 1.14800 0.25163 0.60551
 H2662 H 1.13179 0.29155 0.58911
 H2663 H 1.05584 0.26408 0.59784
 H2664 H 1.07231 0.22435 0.61471
 C2665 C 0.61150 0.73624 0.61115
 C2666 C 0.58555 0.74003 0.60905
 C2667 C 0.57624 0.76278 0.59966
 C2668 C 0.62964 0.69386 0.62984
 C2669 C 0.61887 0.77798 0.59436
 C2670 C 0.62812 0.75524 0.60375
 C2671 C 0.62118 0.71306 0.62124
 C2672 C 0.59282 0.78203 0.59224
 H2673 H 0.57251 0.72543 0.61471
 H2674 H 0.55610 0.76526 0.59801
 H2675 H 0.63210 0.79256 0.58918
 H2676 H 0.64825 0.75255 0.60541
 C2677 C 0.61231 0.23612 1.11279
 C2678 C 0.58633 0.23972 1.11067
 C2679 C 0.57687 0.26232 1.10105
 C2680 C 0.63072 0.19398 1.13181
 C2681 C 0.61940 0.27773 1.09556
 C2682 C 0.62880 0.25515 1.10518
 C2683 C 0.62215 0.21308 1.12307
 C2684 C 0.59331 0.28160 1.09341
 H2685 H 0.57340 0.22510 1.11648
 H2686 H 0.55672 0.26465 1.09939
 H2687 H 0.63253 0.29235 1.09021
 H2688 H 0.64894 0.25261 1.10685
 C2689 C 1.26394 1.11195 0.88816
 C2690 C 1.24500 1.12848 0.89589
 C2691 C 1.22242 1.11909 0.90545
 C2692 C 1.30603 1.13034 0.86918
 C2693 C 1.23766 1.07650 0.89968
 C2694 C 1.26026 1.08594 0.89012
 C2695 C 1.28696 1.12177 0.87791
 C2696 C 1.21847 1.09298 0.90742
 H2697 H 1.24760 1.14864 0.89435
 H2698 H 1.20787 1.13226 0.91089
 H2699 H 1.23527 1.05632 0.90120
 H2700 H 1.27482 1.07297 0.88421
 C2701 C 1.26399 0.61080 0.38787
 C2702 C 1.24488 0.60338 0.37141
 C2703 C 1.22224 0.59399 0.38082
 C2704 C 1.30615 0.62956 0.36945
 C2705 C 1.23776 0.59934 0.42330
 C2706 C 1.26042 0.60873 0.41383
 C2707 C 1.28706 0.62090 0.37803
 C2708 C 1.21841 0.59187 0.40688
 H2709 H 1.24740 0.60503 0.35128
 H2710 H 1.20757 0.58878 0.36771
 H2711 H 1.23545 0.59770 0.44344
 H2712 H 1.27510 0.61442 0.42675
 C2713 C 0.76406 1.11218 0.38837
 C2714 C 0.74521 1.12883 0.39608
 C2715 C 0.72258 1.11958 0.40566
 C2716 C 0.80621 1.13030 0.36928
 C2717 C 0.73760 1.07689 0.39996
 C2718 C 0.76025 1.08620 0.39039
 C2719 C 0.78712 1.12185 0.37806
 C2720 C 0.71849 1.09350 0.40766
 H2721 H 0.74792 1.14897 0.39450
 H2722 H 0.70809 1.13283 0.41106
 H2723 H 0.73510 1.05673 0.40152
 H2724 H 0.77473 1.07314 0.38449
 C2725 C 0.76387 0.61073 0.88847
 C2726 C 0.76019 0.60867 0.91442
 C2727 C 0.73748 0.59933 0.92381
 C2728 C 0.80617 0.62932 0.87018
 C2729 C 0.72210 0.59402 0.88127
 C2730 C 0.74479 0.60336 0.87194
 C2731 C 0.78701 0.62075 0.87871
 C2732 C 0.71817 0.59192 0.90732
 H2733 H 0.77485 0.61432 0.92738
 H2734 H 0.73509 0.59770 0.94393
 H2735 H 0.70746 0.58885 0.86810
 H2736 H 0.74739 0.60500 0.85183
 C2737 C 1.26434 0.88856 1.11177
 C2738 C 1.26051 0.89071 1.08585
 C2739 C 1.23777 0.90016 1.07661
 C2740 C 1.30667 0.86972 1.12977
 C2741 C 1.22268 0.90543 1.11924
 C2742 C 1.24541 0.89598 1.12842
 C2743 C 1.28750 0.87840 1.12137
 C2744 C 1.21858 0.90759 1.09322
 H2745 H 1.27506 0.88504 1.07279
 H2746 H 1.23525 0.90184 1.05650
 H2747 H 1.20814 0.91062 1.13249
 H2748 H 1.24813 0.89428 1.14852
 C2749 C 1.26375 0.38789 0.61226
 C2750 C 1.26012 0.38983 0.58629
 C2751 C 1.23740 0.39908 0.57679
 C2752 C 1.30610 0.36953 0.63072
 C2753 C 1.22191 0.40449 0.61926
 C2754 C 1.24461 0.39524 0.62870
 C2755 C 1.28692 0.37800 0.62214
 C2756 C 1.21804 0.40652 0.59319
 H2757 H 1.27482 0.38418 0.57340
 H2758 H 1.23505 0.40065 0.55665
 H2759 H 1.20724 0.40969 0.63236
 H2760 H 1.24717 0.39368 0.64883
 C2761 C 0.76422 0.88989 0.61115
 C2762 C 0.74527 0.89720 0.62783
 C2763 C 0.72248 0.90652 0.61867
 C2764 C 0.80662 0.87121 0.62912
 C2765 C 0.73755 0.90133 0.57602
 C2766 C 0.76035 0.89202 0.58524
 C2767 C 0.78742 0.87983 0.62073
 C2768 C 0.71835 0.90865 0.59266
 H2769 H 0.74802 0.89551 0.64792
 H2770 H 0.70793 0.91162 0.63194
 H2771 H 0.73500 0.90300 0.55591
 H2772 H 0.77491 0.88642 0.57216
 C2773 C 0.76408 0.38910 1.11208
 C2774 C 0.74502 0.39635 1.12866
 C2775 C 0.72223 0.40556 1.11940
 C2776 C 0.80655 0.37069 1.13020
 C2777 C 0.73748 0.40036 1.07682
 C2778 C 0.76029 0.39115 1.08614
 C2779 C 0.78731 0.37919 1.12177
 C2780 C 0.71819 0.40765 1.09336
 H2781 H 0.74771 0.39471 1.14877
 H2782 H 0.70761 0.41064 1.13260
 H2783 H 0.73501 0.40199 1.05670
 H2784 H 0.77493 0.38559 1.07313
 C2785 C 0.73650 1.11241 1.11231
 C2786 C 0.74021 1.08639 1.11046
 C2787 C 0.76281 1.07692 1.10091
 C2788 C 0.69439 1.13082 1.13125
 C2789 C 0.77801 1.11950 1.09494
 C2790 C 0.75543 1.12892 1.10449
 C2791 C 0.71347 1.12225 1.12254
 C2792 C 0.78198 1.09339 1.09307
 H2793 H 0.72567 1.07344 1.11644
 H2794 H 0.76522 1.05674 1.09946
 H2795 H 0.79254 1.13265 1.08944
 H2796 H 0.75280 1.14908 1.10595
 C2797 C 0.73609 0.61138 0.61075
 C2798 C 0.75504 0.62803 0.60330
 C2799 C 0.77774 0.61877 0.59387
 C2800 C 0.69383 0.62951 0.62960
 C2801 C 0.76259 0.57609 0.59924
 C2802 C 0.73988 0.58540 0.60866
 C2803 C 0.71297 0.62106 0.62092
 C2804 C 0.78179 0.59269 0.59178
 H2805 H 0.75235 0.64817 0.60495
 H2806 H 0.79229 0.63202 0.58865
 H2807 H 0.76507 0.55593 0.59761
 H2808 H 0.72532 0.57235 0.61437
 C2809 C 0.23575 1.11187 0.61088
 C2810 C 0.23960 1.08589 0.60892
 C2811 C 0.26237 1.07658 0.59966
 C2812 C 0.19337 1.13001 0.62944
 C2813 C 0.27748 1.11927 0.59420
 C2814 C 0.25472 1.12852 0.60347
 C2815 C 0.21257 1.12156 0.62087
 C2816 C 0.28158 1.09318 0.59221
 H2817 H 0.22503 1.07284 0.61461
 H2818 H 0.26490 1.05642 0.59811
 H2819 H 0.29203 1.13252 0.58900
 H2820 H 0.25199 1.14866 0.60503
 C2821 C 0.23632 0.61242 1.11225
 C2822 C 0.23996 0.58640 1.11031
 C2823 C 0.26252 0.57690 1.10072
 C2824 C 0.19427 0.63089 1.13128
 C2825 C 0.27785 0.61945 1.09490
 C2826 C 0.25530 0.62890 1.10449
 C2827 C 0.21333 0.62230 1.12253
 C2828 C 0.28175 0.59333 1.09294
 H2829 H 0.22538 0.57347 1.11624
 H2830 H 0.26487 0.55671 1.09921
 H2831 H 0.29242 0.63258 1.08944
 H2832 H 0.25274 0.64907 1.10602
 C2833 C 0.73588 0.88894 0.88924
 C2834 C 0.73981 0.91492 0.89115
 C2835 C 0.76261 0.92416 0.90044
 C2836 C 0.69346 0.87090 0.87064
 C2837 C 0.77754 0.88142 0.90605
 C2838 C 0.75476 0.87224 0.89675
 C2839 C 0.71267 0.87933 0.87921
 C2840 C 0.78175 0.90749 0.90797
 H2841 H 0.72530 0.92801 0.88539
 H2842 H 0.76521 0.94431 0.90194
 H2843 H 0.79204 0.86813 0.91132
 H2844 H 0.75196 0.85210 0.89523
 C2845 C 0.73574 0.38879 0.38733
 C2846 C 0.73947 0.39087 0.41327
 C2847 C 0.76216 0.40032 0.42263
 C2848 C 0.69349 0.36985 0.36918
 C2849 C 0.77741 0.40573 0.38008
 C2850 C 0.75473 0.39628 0.37078
 C2851 C 0.71264 0.37858 0.37761
 C2852 C 0.78141 0.40781 0.40613
 H2853 H 0.72488 0.38514 0.42625
 H2854 H 0.76459 0.40194 0.44276
 H2855 H 0.79200 0.41097 0.36691
 H2856 H 0.75209 0.39463 0.35067
 C2857 C 0.23577 0.88924 0.38865
 C2858 C 0.23961 0.91521 0.39071
 C2859 C 0.26234 0.92449 0.40014
 C2860 C 0.19346 0.87110 0.36991
 C2861 C 0.27742 0.88178 0.40555
 C2862 C 0.25470 0.87256 0.39612
 C2863 C 0.21262 0.87958 0.37853
 C2864 C 0.28152 0.90785 0.40763
 H2865 H 0.22507 0.92829 0.38499
 H2866 H 0.26487 0.94464 0.40176
 H2867 H 0.29195 0.86851 0.41079
 H2868 H 0.25197 0.85242 0.39449
 C2869 C 0.23590 0.38820 0.88801
 C2870 C 0.23961 0.39043 0.91394
 C2871 C 0.26231 0.39992 0.92326
 C2872 C 0.19365 0.36926 0.86988
 C2873 C 0.27758 0.40507 0.88069
 C2874 C 0.25490 0.39558 0.87142
 C2875 C 0.21279 0.37799 0.87833
 C2876 C 0.28156 0.40731 0.90672
 H2877 H 0.22501 0.38478 0.92695
 H2878 H 0.26473 0.40166 0.94338
 H2879 H 0.29217 0.41024 0.86749
 H2880 H 0.25227 0.39382 0.85132
   
