data_POSCAR
  _audit_creation_date              2014-09-24
  _audit_creation_method            'ToBaCCo'
  _symmetry_space_group_name_H-M    'P1'
  _symmetry_Int_Tables_number       1
  _symmetry_cell_setting            triclinic
  loop_
  _symmetry_equiv_pos_as_xyz
 x,y,z
_cell_length_a 66.2211
_cell_length_b 44.0029
_cell_length_c 46.2927
_cell_angle_alpha 89.949000
_cell_angle_beta 89.965700
_cell_angle_gamma 89.987500
loop_
  _atom_site_label
  _atom_site_type_symbol
  _atom_site_fract_x
  _atom_site_fract_y
  _atom_site_fract_z
C1 C 0.00079 -0.00049 0.09366
 C2 C 0.00054 -0.00010 -0.09585
 C3 C -0.04628 -0.05033 0.04306
 C4 C -0.04625 0.04957 0.04317
 C5 C -0.04630 -0.05027 -0.04466
 C6 C 0.04704 -0.04740 -0.04786
 C7 C 0.04704 0.04687 -0.04775
 C8 C 0.04695 -0.04739 0.04552
 C9 C -0.04627 0.04989 -0.04448
 C10 C 0.04697 0.04657 0.04561
 O11 O -0.02777 -0.05670 -0.05118
 O12 O -0.05172 -0.02944 -0.02660
 O13 O -0.02774 0.05632 -0.05099
 O14 O -0.05170 0.02897 -0.02649
 O15 O 0.02845 0.05314 0.05201
 O16 O 0.05234 0.02739 0.02593
 O17 O 0.00035 0.02568 -0.08260
 O18 O 0.00035 -0.02596 -0.08268
 O19 O 0.00055 0.02542 0.08066
 O20 O 0.00054 -0.02635 0.08063
 O21 O 0.02844 -0.05385 -0.05406
 O22 O 0.05230 -0.02813 -0.02817
 O23 O -0.02773 -0.05674 0.04951
 O24 O -0.05171 -0.02953 0.02494
 O25 O 0.02844 -0.05400 0.05192
 O26 O 0.05232 -0.02818 0.02587
 O27 O 0.02844 0.05337 -0.05393
 O28 O 0.05230 0.02751 -0.02810
 O29 O 0.00132 0.08473 0.04291
 O30 O 0.00117 0.08479 -0.04528
 O31 O 0.00115 -0.08527 -0.04544
 O32 O 0.00130 -0.08555 0.04279
 O33 O -0.01709 -0.04033 -0.00099
 O34 O -0.01709 0.03969 -0.00091
 O35 O 0.01747 -0.04012 -0.00108
 O36 O -0.01809 -0.00039 0.03761
 O37 O -0.05170 0.02884 0.02502
 O38 O -0.02770 0.05592 0.04960
 O39 O 0.01883 -0.00041 0.03768
 O40 O 0.01882 -0.00026 -0.03985
 O41 O 0.01749 0.03945 -0.00100
 O42 O -0.01816 -0.00023 -0.03947
 Zr43 Zr 0.00033 0.03728 0.03660
 Zr44 Zr 0.00029 -0.03790 -0.03861
 Zr45 Zr -0.03425 -0.00031 -0.00086
 Zr46 Zr 0.00031 -0.03808 0.03654
 Zr47 Zr 0.00030 0.03740 -0.03851
 Zr48 Zr 0.03481 -0.00034 -0.00110
 H49 H 0.02564 -0.05896 -0.00111
 H50 H -0.02713 -0.00042 0.05464
 H51 H 0.02566 0.05828 -0.00099
 H52 H -0.02724 -0.00018 -0.05645
 H53 H -0.00225 0.09375 0.02402
 H54 H 0.00049 0.09393 -0.02580
 H55 H -0.00219 -0.09451 0.02386
 H56 H 0.00027 -0.09447 -0.02599
 C57 C 0.25034 0.24992 0.15498
 C58 C 0.25011 0.24948 0.34448
 C59 C 0.20324 0.29978 0.20594
 C60 C 0.20337 0.19969 0.20579
 C61 C 0.20311 0.29951 0.29373
 C62 C 0.29635 0.29702 0.29636
 C63 C 0.29642 0.20240 0.29624
 C64 C 0.29644 0.29723 0.20364
 C65 C 0.20322 0.19952 0.29343
 C66 C 0.29660 0.20254 0.20347
 O67 O 0.22165 0.30591 0.30022
 O68 O 0.19770 0.27877 0.27556
 O69 O 0.22175 0.19314 0.29994
 O70 O 0.19778 0.22037 0.27538
 O71 O 0.27808 0.19604 0.19701
 O72 O 0.30193 0.22193 0.22296
 O73 O 0.24990 0.22364 0.33142
 O74 O 0.24988 0.27539 0.33151
 O75 O 0.25015 0.22407 0.16816
 O76 O 0.25007 0.27571 0.16821
 O77 O 0.27781 0.30346 0.30277
 O78 O 0.30178 0.27767 0.27688
 O79 O 0.22179 0.30623 0.19955
 O80 O 0.19778 0.27890 0.22396
 O81 O 0.27792 0.30371 0.19718
 O82 O 0.30183 0.27779 0.22306
 O83 O 0.27789 0.19584 0.30261
 O84 O 0.30182 0.22184 0.27681
 O85 O 0.25083 0.16478 0.20543
 O86 O 0.25070 0.16454 0.29386
 O87 O 0.25056 0.33470 0.29401
 O88 O 0.25062 0.33485 0.20561
 O89 O 0.23236 0.28970 0.24984
 O90 O 0.23245 0.20971 0.24971
 O91 O 0.26691 0.28949 0.24990
 O92 O 0.23142 0.24976 0.21121
 O93 O 0.19784 0.22048 0.22385
 O94 O 0.22194 0.19334 0.19943
 O95 O 0.26842 0.24984 0.21105
 O96 O 0.26829 0.24966 0.28863
 O97 O 0.26701 0.20998 0.24980
 O98 O 0.23131 0.24960 0.28831
 Zr99 Zr 0.24992 0.21216 0.21220
 Zr100 Zr 0.24972 0.28729 0.28744
 Zr101 Zr 0.21523 0.24967 0.24973
 Zr102 Zr 0.24981 0.28744 0.21230
 Zr103 Zr 0.24979 0.21197 0.28732
 Zr104 Zr 0.28434 0.24977 0.24988
 H105 H 0.27501 0.30839 0.24995
 H106 H 0.22240 0.24979 0.19418
 H107 H 0.27515 0.19112 0.24980
 H108 H 0.22224 0.24952 0.30531
 H109 H 0.24889 0.15558 0.22473
 H110 H 0.24827 0.15548 0.27463
 H111 H 0.24896 0.34396 0.22498
 H112 H 0.24778 0.34381 0.27489
 C113 C 0.50007 -0.00088 0.09493
 C114 C 0.49991 -0.00158 -0.09407
 C115 C 0.54721 0.04864 0.04425
 C116 C 0.54731 -0.05095 0.04484
 C117 C 0.54731 0.04825 -0.04433
 C118 C 0.45392 0.04591 -0.04605
 C119 C 0.45393 -0.04871 -0.04571
 C120 C 0.45395 0.04630 0.04674
 C121 C 0.54729 -0.05113 -0.04392
 C122 C 0.45381 -0.04863 0.04726
 O123 O 0.52868 0.05455 -0.05057
 O124 O 0.55264 0.02771 -0.02579
 O125 O 0.52866 -0.05749 -0.05010
 O126 O 0.55261 -0.03049 -0.02552
 O127 O 0.47243 -0.05499 0.05349
 O128 O 0.44855 -0.02917 0.02768
 O129 O 0.50020 -0.02743 -0.08099
 O130 O 0.50020 0.02434 -0.08117
 O131 O 0.50032 -0.02683 0.08208
 O132 O 0.50035 0.02493 0.08181
 O133 O 0.47245 0.05237 -0.05254
 O134 O 0.44854 0.02657 -0.02650
 O135 O 0.52866 0.05518 0.05055
 O136 O 0.55266 0.02789 0.02611
 O137 O 0.47249 0.05286 0.05301
 O138 O 0.44854 0.02675 0.02743
 O139 O 0.47245 -0.05525 -0.05213
 O140 O 0.44855 -0.02927 -0.02628
 O141 O 0.49990 -0.08620 0.04503
 O142 O 0.49972 -0.08659 -0.04297
 O143 O 0.49972 0.08374 -0.04360
 O144 O 0.49992 0.08398 0.04427
 O145 O 0.51806 0.03877 0.00023
 O146 O 0.51804 -0.04134 0.00058
 O147 O 0.48341 0.03848 0.00031
 O148 O 0.51901 -0.00115 0.03887
 O149 O 0.55262 -0.03033 0.02637
 O150 O 0.52868 -0.05731 0.05109
 O151 O 0.48207 -0.00113 0.03926
 O152 O 0.48205 -0.00141 -0.03819
 O153 O 0.48340 -0.04106 0.00065
 O154 O 0.51897 -0.00142 -0.03808
 Zr155 Zr 0.50059 -0.03883 0.03812
 Zr156 Zr 0.50059 0.03628 -0.03721
 Zr157 Zr 0.53518 -0.00130 0.00034
 Zr158 Zr 0.50061 0.03655 0.03777
 Zr159 Zr 0.50058 -0.03910 -0.03691
 Zr160 Zr 0.46603 -0.00129 0.00056
 H161 H 0.47528 0.05736 0.00023
 H162 H 0.52803 -0.00108 0.05590
 H163 H 0.47527 -0.05993 0.00074
 H164 H 0.52796 -0.00148 -0.05517
 H165 H 0.50067 -0.09540 0.02558
 H166 H 0.50366 -0.09548 -0.02417
 H167 H 0.50026 0.09302 0.02472
 H168 H 0.50388 0.09273 -0.02495
 C169 C 0.75087 0.24946 0.15614
 C170 C 0.75074 0.24900 0.34512
 C171 C 0.70366 0.29914 0.20655
 C172 C 0.70375 0.19963 0.20621
 C173 C 0.70361 0.29871 0.29494
 C174 C 0.79685 0.29617 0.29740
 C175 C 0.79709 0.20198 0.29724
 C176 C 0.79689 0.29651 0.20409
 C177 C 0.70376 0.19920 0.29450
 C178 C 0.79698 0.20237 0.20378
 O179 O 0.72216 0.30513 0.30139
 O180 O 0.69820 0.27818 0.27656
 O181 O 0.72231 0.19269 0.30083
 O182 O 0.69829 0.21996 0.27636
 O183 O 0.77845 0.19581 0.19746
 O184 O 0.80237 0.22153 0.22345
 O185 O 0.75052 0.22316 0.33207
 O186 O 0.75047 0.27493 0.33220
 O187 O 0.75063 0.22353 0.16905
 O188 O 0.75057 0.27530 0.16917
 O189 O 0.77832 0.30271 0.30374
 O190 O 0.80228 0.27702 0.27775
 O191 O 0.72222 0.30568 0.20025
 O192 O 0.69822 0.27838 0.22472
 O193 O 0.77836 0.30313 0.19783
 O194 O 0.80232 0.27718 0.22361
 O195 O 0.77849 0.19546 0.30340
 O196 O 0.80235 0.22137 0.27760
 O197 O 0.75132 0.16417 0.20690
 O198 O 0.75112 0.16402 0.29467
 O199 O 0.75117 0.33428 0.29438
 O200 O 0.75099 0.33447 0.20661
 O201 O 0.73279 0.28928 0.25069
 O202 O 0.73288 0.20919 0.25053
 O203 O 0.76746 0.28903 0.25070
 O204 O 0.73190 0.24933 0.21212
 O205 O 0.69828 0.22016 0.22457
 O206 O 0.72231 0.19325 0.19980
 O207 O 0.76880 0.24938 0.21192
 O208 O 0.76879 0.24915 0.28931
 O209 O 0.76755 0.20944 0.25052
 O210 O 0.73187 0.24908 0.28906
 Zr211 Zr 0.75034 0.21165 0.21304
 Zr212 Zr 0.75023 0.28681 0.28819
 Zr213 Zr 0.71569 0.24920 0.25057
 Zr214 Zr 0.75026 0.28704 0.21319
 Zr215 Zr 0.75033 0.21144 0.28803
 Zr216 Zr 0.78485 0.24925 0.25061
 H217 H 0.77561 0.30788 0.25076
 H218 H 0.72290 0.24941 0.19507
 H219 H 0.77573 0.19061 0.25047
 H220 H 0.72285 0.24897 0.30610
 H221 H 0.74704 0.15522 0.22554
 H222 H 0.75118 0.15496 0.27514
 H223 H 0.75069 0.34351 0.22615
 H224 H 0.74691 0.34325 0.27575
 C225 C 0.00015 0.50008 0.09450
 C226 C 0.00007 0.50025 -0.09500
 C227 C -0.04677 0.45002 0.04376
 C228 C -0.04685 0.55010 0.04378
 C229 C -0.04684 0.45017 -0.04398
 C230 C 0.04638 0.45325 -0.04681
 C231 C 0.04633 0.54728 -0.04677
 C232 C 0.04642 0.45308 0.04641
 C233 C -0.04687 0.55024 -0.04384
 C234 C 0.04639 0.54729 0.04648
 O235 O -0.02830 0.44382 -0.05049
 O236 O -0.05229 0.47093 -0.02585
 O237 O -0.02833 0.55667 -0.05030
 O238 O -0.05231 0.52935 -0.02581
 O239 O 0.02786 0.55383 0.05284
 O240 O 0.05178 0.52804 0.02687
 O241 O -0.00016 0.52606 -0.08178
 O242 O -0.00013 0.47441 -0.08180
 O243 O -0.00009 0.52598 0.08151
 O244 O -0.00008 0.47423 0.08146
 O245 O 0.02786 0.44668 -0.05318
 O246 O 0.05176 0.47245 -0.02719
 O247 O -0.02821 0.44362 0.05011
 O248 O -0.05227 0.47088 0.02574
 O249 O 0.02790 0.44648 0.05275
 O250 O 0.05181 0.47237 0.02684
 O251 O 0.02781 0.55385 -0.05311
 O252 O 0.05173 0.52805 -0.02717
 O253 O 0.00067 0.58525 0.04388
 O254 O 0.00058 0.58525 -0.04440
 O255 O 0.00074 0.41514 -0.04419
 O256 O 0.00071 0.41507 0.04407
 O257 O -0.01765 0.46014 -0.00013
 O258 O -0.01768 0.54014 -0.00010
 O259 O 0.01693 0.46042 -0.00018
 O260 O -0.01868 0.50012 0.03842
 O261 O -0.05229 0.52930 0.02571
 O262 O -0.02831 0.55649 0.05024
 O263 O 0.01827 0.50016 0.03862
 O264 O 0.01825 0.50023 -0.03889
 O265 O 0.01689 0.53997 -0.00015
 O266 O -0.01872 0.50019 -0.03866
 Zr267 Zr -0.00026 0.53782 0.03744
 Zr268 Zr -0.00026 0.46256 -0.03771
 Zr269 Zr -0.03484 0.50012 -0.00008
 Zr270 Zr -0.00022 0.46248 0.03740
 Zr271 Zr -0.00030 0.53785 -0.03769
 Zr272 Zr 0.03427 0.50021 -0.00014
 H273 H 0.02510 0.44158 -0.00019
 H274 H -0.02773 0.50008 0.05544
 H275 H 0.02504 0.55883 -0.00015
 H276 H -0.02778 0.50022 -0.05566
 H277 H -0.00234 0.59432 0.02481
 H278 H -0.00102 0.59438 -0.02503
 H279 H -0.00096 0.40595 0.02470
 H280 H -0.00226 0.40604 -0.02513
 C281 C 0.25065 0.75064 0.15555
 C282 C 0.25032 0.75049 0.34456
 C283 C 0.20364 0.80086 0.20613
 C284 C 0.20340 0.70084 0.20587
 C285 C 0.20339 0.80059 0.29385
 C286 C 0.29660 0.79766 0.29658
 C287 C 0.29651 0.70300 0.29650
 C288 C 0.29692 0.79786 0.20376
 C289 C 0.20327 0.70061 0.29379
 C290 C 0.29662 0.70313 0.20373
 O291 O 0.22193 0.80691 0.30036
 O292 O 0.19794 0.77986 0.27570
 O293 O 0.22181 0.69414 0.30024
 O294 O 0.19786 0.72146 0.27570
 O295 O 0.27810 0.69671 0.19729
 O296 O 0.30203 0.72250 0.22319
 O297 O 0.25006 0.72463 0.33156
 O298 O 0.25012 0.77639 0.33158
 O299 O 0.25033 0.72475 0.16851
 O300 O 0.25045 0.77650 0.16853
 O301 O 0.27807 0.80420 0.30294
 O302 O 0.30202 0.77828 0.27713
 O303 O 0.22221 0.80723 0.19981
 O304 O 0.19809 0.77999 0.22411
 O305 O 0.27840 0.80447 0.19735
 O306 O 0.30222 0.77835 0.22321
 O307 O 0.27796 0.69655 0.30284
 O308 O 0.30197 0.72244 0.27708
 O309 O 0.25085 0.66551 0.20606
 O310 O 0.25063 0.66545 0.29428
 O311 O 0.25091 0.83563 0.29397
 O312 O 0.25106 0.83569 0.20574
 O313 O 0.23265 0.79061 0.24998
 O314 O 0.23251 0.71058 0.24998
 O315 O 0.26726 0.79030 0.25010
 O316 O 0.23166 0.75071 0.21148
 O317 O 0.19793 0.72160 0.22401
 O318 O 0.22196 0.69442 0.19949
 O319 O 0.26863 0.75054 0.21132
 O320 O 0.26847 0.75046 0.28881
 O321 O 0.26712 0.71076 0.25007
 O322 O 0.23150 0.75057 0.28849
 Zr323 Zr 0.25000 0.71294 0.21251
 Zr324 Zr 0.24997 0.78819 0.28756
 Zr325 Zr 0.21541 0.75065 0.24993
 Zr326 Zr 0.25019 0.78830 0.21252
 Zr327 Zr 0.24988 0.71285 0.28754
 Zr328 Zr 0.28457 0.75047 0.25010
 H329 H 0.27541 0.80915 0.25013
 H330 H 0.22265 0.75078 0.19443
 H331 H 0.27521 0.69184 0.25007
 H332 H 0.22243 0.75056 0.30549
 H333 H 0.24757 0.65645 0.22505
 H334 H 0.24935 0.65632 0.27486
 H335 H 0.25009 0.84485 0.22518
 H336 H 0.24766 0.84469 0.27498
 C337 C 0.49944 0.50024 0.09487
 C338 C 0.49959 0.49955 -0.09413
 C339 C 0.54665 0.54979 0.04438
 C340 C 0.54671 0.45039 0.04486
 C341 C 0.54665 0.54958 -0.04383
 C342 C 0.45343 0.54717 -0.04617
 C343 C 0.45345 0.45238 -0.04579
 C344 C 0.45345 0.54738 0.04659
 C345 C 0.54665 0.44991 -0.04340
 C346 C 0.45348 0.45279 0.04696
 O347 O 0.52811 0.55605 -0.05019
 O348 O 0.55211 0.52892 -0.02558
 O349 O 0.52811 0.44339 -0.04970
 O350 O 0.55211 0.47070 -0.02534
 O351 O 0.47200 0.44631 0.05341
 O352 O 0.44808 0.47211 0.02742
 O353 O 0.49985 0.47373 -0.08103
 O354 O 0.49984 0.52548 -0.08126
 O355 O 0.49973 0.47431 0.08200
 O356 O 0.49972 0.52608 0.08178
 O357 O 0.47197 0.55365 -0.05257
 O358 O 0.44804 0.52777 -0.02668
 O359 O 0.52809 0.55625 0.05074
 O360 O 0.55211 0.52911 0.02618
 O361 O 0.47197 0.55390 0.05297
 O362 O 0.44805 0.52792 0.02721
 O363 O 0.47199 0.44582 -0.05212
 O364 O 0.44805 0.47191 -0.02646
 O365 O 0.49923 0.41490 0.04447
 O366 O 0.49937 0.41469 -0.04352
 O367 O 0.49934 0.58482 -0.04424
 O368 O 0.49919 0.58521 0.04387
 O369 O 0.51752 0.53995 0.00021
 O370 O 0.51754 0.45986 0.00055
 O371 O 0.48290 0.53970 0.00021
 O372 O 0.51848 0.50005 0.03888
 O373 O 0.55215 0.47092 0.02645
 O374 O 0.52816 0.44398 0.05130
 O375 O 0.48156 0.50004 0.03907
 O376 O 0.48155 0.49978 -0.03840
 O377 O 0.48291 0.46015 0.00055
 O378 O 0.51850 0.49977 -0.03810
 Zr379 Zr 0.50010 0.46236 0.03804
 Zr380 Zr 0.50008 0.53745 -0.03729
 Zr381 Zr 0.53467 0.49991 0.00041
 Zr382 Zr 0.50007 0.53772 0.03772
 Zr383 Zr 0.50009 0.46211 -0.03696
 Zr384 Zr 0.46554 0.49993 0.00035
 H385 H 0.47478 0.55858 0.00015
 H386 H 0.52747 0.50012 0.05594
 H387 H 0.47479 0.44127 0.00064
 H388 H 0.52753 0.49970 -0.05514
 H389 H 0.50314 0.40589 0.02572
 H390 H 0.49986 0.40561 -0.02398
 H391 H 0.50280 0.59414 0.02495
 H392 H 0.50023 0.59404 -0.02481
 C393 C 0.75037 0.75049 0.15560
 C394 C 0.75030 0.75040 0.34459
 C395 C 0.70320 0.80007 0.20572
 C396 C 0.70324 0.70072 0.20594
 C397 C 0.70326 0.80028 0.29410
 C398 C 0.79647 0.79745 0.29662
 C399 C 0.79648 0.70327 0.29669
 C400 C 0.79646 0.79745 0.20327
 C401 C 0.70323 0.70062 0.29424
 C402 C 0.79644 0.70337 0.20339
 O403 O 0.72181 0.80678 0.30041
 O404 O 0.69780 0.77957 0.27595
 O405 O 0.72179 0.69411 0.30055
 O406 O 0.69778 0.72133 0.27603
 O407 O 0.77791 0.69681 0.19710
 O408 O 0.80186 0.72258 0.22298
 O409 O 0.75005 0.72453 0.33162
 O410 O 0.75004 0.77629 0.33158
 O411 O 0.75010 0.72460 0.16860
 O412 O 0.75011 0.77637 0.16856
 O413 O 0.77794 0.80408 0.30292
 O414 O 0.80187 0.77819 0.27705
 O415 O 0.72175 0.80652 0.19930
 O416 O 0.69776 0.77951 0.22411
 O417 O 0.77793 0.80404 0.19697
 O418 O 0.80186 0.77823 0.22292
 O419 O 0.77795 0.69669 0.30301
 O420 O 0.80188 0.72255 0.27710
 O421 O 0.75078 0.66529 0.20636
 O422 O 0.75063 0.66531 0.29428
 O423 O 0.75058 0.83550 0.29420
 O424 O 0.75077 0.83566 0.20652
 O425 O 0.73236 0.79048 0.25006
 O426 O 0.73237 0.71038 0.25012
 O427 O 0.76704 0.79021 0.25003
 O428 O 0.73143 0.75045 0.21163
 O429 O 0.69778 0.72132 0.22423
 O430 O 0.72179 0.69429 0.19953
 O431 O 0.76832 0.75044 0.21139
 O432 O 0.76834 0.75040 0.28877
 O433 O 0.76703 0.71062 0.25009
 O434 O 0.73141 0.75042 0.28857
 Zr435 Zr 0.74982 0.71276 0.21262
 Zr436 Zr 0.74983 0.78809 0.28755
 Zr437 Zr 0.71522 0.75043 0.25009
 Zr438 Zr 0.74982 0.78815 0.21256
 Zr439 Zr 0.74983 0.71273 0.28761
 Zr440 Zr 0.78439 0.75040 0.25004
 H441 H 0.77520 0.80904 0.24998
 H442 H 0.72243 0.75043 0.19458
 H443 H 0.77518 0.69176 0.25008
 H444 H 0.72239 0.75043 0.30561
 H445 H 0.74691 0.65630 0.22515
 H446 H 0.74961 0.65622 0.27482
 H447 H 0.74633 0.84452 0.22510
 H448 H 0.75065 0.84460 0.27467
 C449 C 0.00014 0.00037 0.40540
 C450 C -0.00012 0.00061 0.59472
 C451 C -0.04699 0.05032 0.45582
 C452 C -0.04685 -0.04968 0.45626
 C453 C -0.04703 0.05059 0.54363
 C454 C 0.04619 0.04767 0.54666
 C455 C 0.04622 -0.04640 0.54687
 C456 C 0.04624 0.04749 0.45333
 C457 C -0.04699 -0.04947 0.54388
 C458 C 0.04636 -0.04656 0.45359
 O459 O -0.02851 0.05704 0.55009
 O460 O -0.05245 0.02972 0.52562
 O461 O -0.02846 -0.05583 0.55042
 O462 O -0.05243 -0.02869 0.52575
 O463 O 0.02784 -0.05318 0.44727
 O464 O 0.05172 -0.02728 0.47316
 O465 O -0.00033 -0.02528 0.58175
 O466 O -0.00036 0.02648 0.58164
 O467 O -0.00010 -0.02547 0.41850
 O468 O -0.00013 0.02629 0.41834
 O469 O 0.02765 0.05427 0.55294
 O470 O 0.05160 0.02841 0.52709
 O471 O -0.02843 0.05671 0.44939
 O472 O -0.05244 0.02958 0.47402
 O473 O 0.02772 0.05403 0.44695
 O474 O 0.05163 0.02833 0.47302
 O475 O 0.02770 -0.05299 0.55321
 O476 O 0.05162 -0.02720 0.52722
 O477 O 0.00065 -0.08462 0.45603
 O478 O 0.00057 -0.08451 0.54427
 O479 O 0.00039 0.08564 0.54413
 O480 O 0.00057 0.08558 0.45598
 O481 O -0.01783 0.04052 0.49992
 O482 O -0.01777 -0.03950 0.50010
 O483 O 0.01676 0.04031 0.49998
 O484 O -0.01877 0.00042 0.46146
 O485 O -0.05236 -0.02880 0.47423
 O486 O -0.02829 -0.05608 0.44991
 O487 O 0.01817 0.00048 0.46134
 O488 O 0.01809 0.00059 0.53882
 O489 O 0.01682 -0.03926 0.50017
 O490 O -0.01887 0.00056 0.53853
 Zr491 Zr -0.00031 -0.03721 0.46259
 Zr492 Zr -0.00045 0.03824 0.53752
 Zr493 Zr -0.03496 0.00049 0.49995
 Zr494 Zr -0.00039 0.03813 0.46240
 Zr495 Zr -0.00041 -0.03709 0.53769
 Zr496 Zr 0.03414 0.00055 0.50010
 H497 H 0.02491 0.05916 0.49994
 H498 H -0.02780 0.00035 0.44443
 H499 H 0.02499 -0.05810 0.50023
 H500 H -0.02795 0.00059 0.55552
 H501 H -0.00115 -0.09373 0.47539
 H502 H -0.00234 -0.09362 0.52520
 H503 H -0.00299 0.09461 0.47486
 H504 H -0.00066 0.09475 0.52465
 C505 C 0.25022 0.24938 0.84568
 C506 C 0.25018 0.24904 0.65635
 C507 C 0.20318 0.19926 0.79502
 C508 C 0.20326 0.29940 0.79471
 C509 C 0.20314 0.19924 0.70724
 C510 C 0.29635 0.20178 0.70464
 C511 C 0.29642 0.29639 0.70442
 C512 C 0.29645 0.20181 0.79739
 C513 C 0.20319 0.29920 0.70711
 C514 C 0.29647 0.29657 0.79721
 O515 O 0.22169 0.19282 0.70080
 O516 O 0.19770 0.22004 0.72533
 O517 O 0.22174 0.30554 0.70059
 O518 O 0.19774 0.27842 0.72526
 O519 O 0.27794 0.30309 0.80362
 O520 O 0.30185 0.27710 0.77781
 O521 O 0.24996 0.27494 0.66931
 O522 O 0.24994 0.22318 0.66943
 O523 O 0.24999 0.27522 0.83258
 O524 O 0.24999 0.22347 0.83274
 O525 O 0.27783 0.19530 0.69827
 O526 O 0.30177 0.22119 0.72406
 O527 O 0.22173 0.19284 0.80145
 O528 O 0.19773 0.22009 0.77694
 O529 O 0.27792 0.19536 0.80387
 O530 O 0.30183 0.22122 0.77791
 O531 O 0.27789 0.30288 0.69801
 O532 O 0.30181 0.27702 0.72393
 O533 O 0.25068 0.33430 0.79512
 O534 O 0.25069 0.33421 0.70674
 O535 O 0.25061 0.16404 0.70716
 O536 O 0.25059 0.16420 0.79553
 O537 O 0.23235 0.20920 0.75115
 O538 O 0.23239 0.28920 0.75095
 O539 O 0.26691 0.20942 0.75109
 O540 O 0.23135 0.24927 0.78960
 O541 O 0.19777 0.27850 0.77677
 O542 O 0.22181 0.30579 0.80108
 O543 O 0.26834 0.24922 0.78979
 O544 O 0.26830 0.24911 0.71223
 O545 O 0.26695 0.28894 0.75089
 O546 O 0.23132 0.24916 0.71250
 Zr547 Zr 0.24982 0.28690 0.78848
 Zr548 Zr 0.24973 0.21148 0.71355
 Zr549 Zr 0.21520 0.24922 0.75106
 Zr550 Zr 0.24978 0.21159 0.78869
 Zr551 Zr 0.24977 0.28680 0.71336
 Zr552 Zr 0.28431 0.24916 0.75097
 H553 H 0.27502 0.19053 0.75110
 H554 H 0.22230 0.24932 0.80662
 H555 H 0.27508 0.30780 0.75083
 H556 H 0.22227 0.24915 0.69550
 H557 H 0.24918 0.34343 0.77571
 H558 H 0.24786 0.34332 0.72584
 H559 H 0.24905 0.15502 0.77617
 H560 H 0.24770 0.15501 0.72629
 C561 C 0.49954 0.00045 0.40581
 C562 C 0.49932 -0.00027 0.59482
 C563 C 0.54661 -0.04947 0.45615
 C564 C 0.54664 0.04994 0.45638
 C565 C 0.54644 -0.04987 0.54429
 C566 C 0.45327 -0.04730 0.54640
 C567 C 0.45328 0.04731 0.54667
 C568 C 0.45341 -0.04698 0.45371
 C569 C 0.54647 0.04975 0.54455
 C570 C 0.45343 0.04765 0.45390
 O571 O 0.52789 -0.05640 0.55056
 O572 O 0.55193 -0.02909 0.52619
 O573 O 0.52792 0.05625 0.55087
 O574 O 0.55195 0.02910 0.52634
 O575 O 0.47197 0.05418 0.44755
 O576 O 0.44801 0.02818 0.47330
 O577 O 0.49959 0.02567 0.58192
 O578 O 0.49959 -0.02608 0.58174
 O579 O 0.49980 0.02630 0.41883
 O580 O 0.49978 -0.02546 0.41874
 O581 O 0.47178 -0.05388 0.55282
 O582 O 0.44790 -0.02780 0.52702
 O583 O 0.52807 -0.05589 0.44970
 O584 O 0.55203 -0.02890 0.47447
 O585 O 0.47194 -0.05349 0.44733
 O586 O 0.44799 -0.02762 0.47318
 O587 O 0.47179 0.05380 0.55312
 O588 O 0.44791 0.02798 0.52717
 O589 O 0.49920 0.08544 0.45660
 O590 O 0.49915 0.08503 0.54477
 O591 O 0.49909 -0.08510 0.54429
 O592 O 0.49915 -0.08483 0.45615
 O593 O 0.51740 -0.03993 0.50024
 O594 O 0.51741 0.04017 0.50044
 O595 O 0.48278 -0.03963 0.50016
 O596 O 0.51842 0.00026 0.46185
 O597 O 0.55204 0.02926 0.47463
 O598 O 0.52811 0.05644 0.44993
 O599 O 0.48151 0.00030 0.46152
 O600 O 0.48138 0.00000 0.53900
 O601 O 0.48281 0.03994 0.50036
 O602 O 0.51832 -0.00003 0.53885
 Zr603 Zr 0.50004 0.03796 0.46288
 Zr604 Zr 0.49990 -0.03768 0.53770
 Zr605 Zr 0.53453 0.00011 0.50037
 Zr606 Zr 0.50002 -0.03741 0.46271
 Zr607 Zr 0.49992 0.03766 0.53792
 Zr608 Zr 0.46545 0.00018 0.50021
 H609 H 0.47466 -0.05851 0.50008
 H610 H 0.52746 0.00030 0.44482
 H611 H 0.47469 0.05882 0.50037
 H612 H 0.52732 -0.00010 0.55591
 H613 H 0.50264 0.09438 0.47556
 H614 H 0.50031 0.09425 0.52536
 H615 H 0.50247 -0.09395 0.47509
 H616 H 0.50049 -0.09417 0.52486
 C617 C 0.75014 0.24964 0.84525
 C618 C 0.74995 0.24885 0.65627
 C619 C 0.70291 0.19957 0.79532
 C620 C 0.70299 0.29913 0.79486
 C621 C 0.70291 0.19941 0.70690
 C622 C 0.79609 0.20215 0.70412
 C623 C 0.79613 0.29626 0.70390
 C624 C 0.79618 0.20235 0.79740
 C625 C 0.70289 0.29893 0.70668
 C626 C 0.79619 0.29647 0.79717
 O627 O 0.72145 0.19297 0.70046
 O628 O 0.69746 0.22004 0.72516
 O629 O 0.72144 0.30542 0.70029
 O630 O 0.69744 0.27826 0.72495
 O631 O 0.77766 0.30306 0.80350
 O632 O 0.80158 0.27717 0.77762
 O633 O 0.74970 0.27478 0.66916
 O634 O 0.74969 0.22302 0.66936
 O635 O 0.74986 0.27547 0.83217
 O636 O 0.74985 0.22371 0.83238
 O637 O 0.77756 0.19552 0.69789
 O638 O 0.80151 0.22141 0.72366
 O639 O 0.72149 0.19309 0.80158
 O640 O 0.69745 0.22022 0.77703
 O641 O 0.77766 0.19575 0.80379
 O642 O 0.80156 0.22155 0.77774
 O643 O 0.77759 0.30282 0.69760
 O644 O 0.80153 0.27703 0.72352
 O645 O 0.75050 0.33456 0.79413
 O646 O 0.75022 0.33419 0.70621
 O647 O 0.75047 0.16394 0.70748
 O648 O 0.75031 0.16430 0.79529
 O649 O 0.73204 0.20918 0.75099
 O650 O 0.73206 0.28926 0.75067
 O651 O 0.76671 0.20948 0.75090
 O652 O 0.73114 0.24938 0.78932
 O653 O 0.69751 0.27845 0.77670
 O654 O 0.72154 0.30558 0.80118
 O655 O 0.76804 0.24937 0.78942
 O656 O 0.76799 0.24913 0.71203
 O657 O 0.76672 0.28908 0.75057
 O658 O 0.73107 0.24913 0.71237
 Zr659 Zr 0.74955 0.28707 0.78811
 Zr660 Zr 0.74948 0.21145 0.71345
 Zr661 Zr 0.71491 0.24922 0.75090
 Zr662 Zr 0.74952 0.21168 0.78844
 Zr663 Zr 0.74948 0.28681 0.71312
 Zr664 Zr 0.78406 0.24928 0.75069
 H665 H 0.77487 0.19063 0.75091
 H666 H 0.72214 0.24942 0.80640
 H667 H 0.77487 0.30793 0.75051
 H668 H 0.72204 0.24910 0.69535
 H669 H 0.74653 0.34345 0.77534
 H670 H 0.74970 0.34339 0.72567
 H671 H 0.74975 0.15512 0.77582
 H672 H 0.74635 0.15507 0.72621
 C673 C 0.00031 0.49984 0.40616
 C674 C 0.00016 0.50004 0.59547
 C675 C -0.04672 0.54979 0.45664
 C676 C -0.04666 0.44974 0.45705
 C677 C -0.04676 0.55008 0.54440
 C678 C 0.04646 0.54706 0.54729
 C679 C 0.04648 0.45294 0.54757
 C680 C 0.04652 0.54696 0.45398
 C681 C -0.04676 0.44999 0.54479
 C682 C 0.04655 0.45275 0.45424
 O683 O -0.02822 0.55650 0.55083
 O684 O -0.05220 0.52918 0.52642
 O685 O -0.02821 0.44365 0.55128
 O686 O -0.05221 0.47074 0.52662
 O687 O 0.02801 0.44618 0.44797
 O688 O 0.05196 0.47204 0.47378
 O689 O -0.00004 0.47413 0.58251
 O690 O -0.00007 0.52589 0.58237
 O691 O 0.00007 0.47398 0.41924
 O692 O 0.00007 0.52574 0.41911
 O693 O 0.02793 0.55364 0.55361
 O694 O 0.05188 0.52779 0.52774
 O695 O -0.02817 0.55615 0.45020
 O696 O -0.05219 0.52905 0.47482
 O697 O 0.02798 0.55348 0.44765
 O698 O 0.05193 0.52775 0.47363
 O699 O 0.02794 0.44642 0.55393
 O700 O 0.05190 0.47212 0.52790
 O701 O 0.00080 0.41480 0.45673
 O702 O 0.00083 0.41488 0.54491
 O703 O 0.00067 0.58504 0.54487
 O704 O 0.00085 0.58499 0.45679
 O705 O -0.01757 0.53991 0.50068
 O706 O -0.01755 0.45992 0.50087
 O707 O 0.01704 0.53969 0.50070
 O708 O -0.01855 0.49985 0.46225
 O709 O -0.05216 0.47062 0.47502
 O710 O -0.02810 0.44334 0.45069
 O711 O 0.01841 0.49988 0.46204
 O712 O 0.01836 0.49998 0.53951
 O713 O 0.01706 0.46015 0.50089
 O714 O -0.01862 0.49998 0.53930
 Zr715 Zr -0.00010 0.46221 0.46333
 Zr716 Zr -0.00018 0.53763 0.53825
 Zr717 Zr -0.03474 0.49991 0.50075
 Zr718 Zr -0.00013 0.53754 0.46316
 Zr719 Zr -0.00016 0.46232 0.53843
 Zr720 Zr 0.03443 0.49992 0.50077
 H721 H 0.02519 0.55854 0.50064
 H722 H -0.02759 0.49979 0.44523
 H723 H 0.02521 0.44130 0.50094
 H724 H -0.02768 0.50003 0.55630
 H725 H -0.00049 0.40569 0.47617
 H726 H -0.00249 0.40582 0.52595
 H727 H -0.00281 0.59401 0.47564
 H728 H -0.00017 0.59415 0.52538
 C729 C 0.25022 0.75065 0.84472
 C730 C 0.25013 0.75040 0.65570
 C731 C 0.20316 0.70048 0.79409
 C732 C 0.20310 0.80050 0.79424
 C733 C 0.20311 0.70053 0.70650
 C734 C 0.29632 0.70309 0.70383
 C735 C 0.29631 0.79774 0.70377
 C736 C 0.29637 0.70312 0.79661
 C737 C 0.20312 0.80060 0.70643
 C738 C 0.29635 0.79778 0.79655
 O739 O 0.22165 0.69412 0.70006
 O740 O 0.19764 0.72136 0.72455
 O741 O 0.22167 0.80699 0.70001
 O742 O 0.19765 0.77976 0.72448
 O743 O 0.27783 0.80433 0.80296
 O744 O 0.30173 0.77836 0.77710
 O745 O 0.24989 0.77629 0.66865
 O746 O 0.24989 0.72454 0.66873
 O747 O 0.24996 0.77652 0.83170
 O748 O 0.24995 0.72476 0.83178
 O749 O 0.27778 0.69662 0.69746
 O750 O 0.30173 0.72251 0.72326
 O751 O 0.22171 0.69407 0.80049
 O752 O 0.19767 0.72135 0.77609
 O753 O 0.27783 0.69664 0.80302
 O754 O 0.30176 0.72254 0.77714
 O755 O 0.27779 0.80428 0.69740
 O756 O 0.30172 0.77833 0.72322
 O757 O 0.25063 0.83570 0.79395
 O758 O 0.25049 0.83551 0.70577
 O759 O 0.25056 0.66538 0.70634
 O760 O 0.25052 0.66550 0.79470
 O761 O 0.23228 0.71054 0.75032
 O762 O 0.23227 0.79056 0.75020
 O763 O 0.26687 0.71070 0.75027
 O764 O 0.23128 0.75055 0.78877
 O765 O 0.19764 0.77974 0.77612
 O766 O 0.22165 0.80687 0.80065
 O767 O 0.26824 0.75054 0.78896
 O768 O 0.26822 0.75046 0.71147
 O769 O 0.26688 0.79025 0.75016
 O770 O 0.23125 0.75049 0.71174
 Zr771 Zr 0.24970 0.78823 0.78769
 Zr772 Zr 0.24969 0.71281 0.71277
 Zr773 Zr 0.21510 0.75056 0.75028
 Zr774 Zr 0.24972 0.71288 0.78780
 Zr775 Zr 0.24968 0.78814 0.71266
 Zr776 Zr 0.28424 0.75046 0.75020
 H777 H 0.27499 0.69181 0.75027
 H778 H 0.22224 0.75053 0.80580
 H779 H 0.27500 0.80912 0.75014
 H780 H 0.22220 0.75051 0.69474
 H781 H 0.24713 0.84469 0.77501
 H782 H 0.24971 0.84471 0.72522
 H783 H 0.24923 0.65630 0.77531
 H784 H 0.24763 0.65632 0.72545
 C785 C 0.49941 0.50005 0.40582
 C786 C 0.49934 0.49924 0.59482
 C787 C 0.54659 0.44998 0.45613
 C788 C 0.54656 0.54949 0.45619
 C789 C 0.54652 0.44981 0.54442
 C790 C 0.45331 0.45211 0.54664
 C791 C 0.45325 0.54685 0.54675
 C792 C 0.45333 0.45238 0.45384
 C793 C 0.54648 0.54936 0.54451
 C794 C 0.45333 0.54708 0.45396
 O795 O 0.52798 0.44334 0.55079
 O796 O 0.55199 0.47048 0.52617
 O797 O 0.52791 0.55581 0.55084
 O798 O 0.55196 0.52871 0.52629
 O799 O 0.47186 0.55361 0.44759
 O800 O 0.44792 0.52761 0.47338
 O801 O 0.49960 0.52517 0.58189
 O802 O 0.49962 0.47341 0.58178
 O803 O 0.49966 0.52588 0.41887
 O804 O 0.49969 0.47412 0.41873
 O805 O 0.47184 0.44561 0.55302
 O806 O 0.44790 0.47158 0.52722
 O807 O 0.52804 0.44351 0.44977
 O808 O 0.55202 0.47062 0.47438
 O809 O 0.47187 0.44590 0.44745
 O810 O 0.44792 0.47176 0.47330
 O811 O 0.47177 0.55334 0.55315
 O812 O 0.44786 0.52746 0.52730
 O813 O 0.49906 0.58496 0.45683
 O814 O 0.49917 0.58454 0.54478
 O815 O 0.49907 0.41433 0.54389
 O816 O 0.49928 0.41471 0.45585
 O817 O 0.51741 0.45961 0.50022
 O818 O 0.51738 0.53969 0.50042
 O819 O 0.48278 0.45985 0.50021
 O820 O 0.51837 0.49977 0.46183
 O821 O 0.55200 0.52884 0.47447
 O822 O 0.52801 0.55593 0.44979
 O823 O 0.48144 0.49976 0.46159
 O824 O 0.48139 0.49948 0.53905
 O825 O 0.48274 0.53939 0.50040
 O826 O 0.51833 0.49952 0.53880
 Zr827 Zr 0.49996 0.53745 0.46291
 Zr828 Zr 0.49994 0.46182 0.53773
 Zr829 Zr 0.53455 0.49966 0.50032
 Zr830 Zr 0.49998 0.46209 0.46271
 Zr831 Zr 0.49990 0.53718 0.53791
 Zr832 Zr 0.46538 0.49961 0.50031
 H833 H 0.47466 0.44096 0.50019
 H834 H 0.52739 0.49980 0.44478
 H835 H 0.47461 0.55827 0.50041
 H836 H 0.52733 0.49949 0.55586
 H837 H 0.50301 0.59382 0.47562
 H838 H 0.49959 0.59376 0.52531
 H839 H 0.50003 0.40550 0.47531
 H840 H 0.50284 0.40543 0.52503
 C841 C 0.75018 0.75050 0.84469
 C842 C 0.75003 0.75032 0.65571
 C843 C 0.70311 0.70045 0.79434
 C844 C 0.70295 0.79993 0.79467
 C845 C 0.70299 0.70069 0.70610
 C846 C 0.79620 0.70340 0.70345
 C847 C 0.79617 0.79751 0.70349
 C848 C 0.79629 0.70337 0.79675
 C849 C 0.70299 0.80022 0.70631
 C850 C 0.79620 0.79745 0.79678
 O851 O 0.72154 0.69427 0.69966
 O852 O 0.69753 0.72127 0.72442
 O853 O 0.72153 0.80674 0.69994
 O854 O 0.69754 0.77950 0.72449
 O855 O 0.77767 0.80402 0.80316
 O856 O 0.80160 0.77825 0.77715
 O857 O 0.74976 0.77620 0.66868
 O858 O 0.74980 0.72444 0.66872
 O859 O 0.74990 0.77639 0.83169
 O860 O 0.74991 0.72462 0.83173
 O861 O 0.77767 0.69682 0.69717
 O862 O 0.80161 0.72262 0.72305
 O863 O 0.72166 0.69399 0.80063
 O864 O 0.69760 0.72117 0.77619
 O865 O 0.77777 0.69675 0.80308
 O866 O 0.80168 0.72264 0.77716
 O867 O 0.77764 0.80410 0.69723
 O868 O 0.80161 0.77825 0.72306
 O869 O 0.75049 0.83563 0.79359
 O870 O 0.75027 0.83546 0.70591
 O871 O 0.75055 0.66521 0.70672
 O872 O 0.75044 0.66534 0.79453
 O873 O 0.73216 0.71034 0.75029
 O874 O 0.73210 0.79043 0.75022
 O875 O 0.76682 0.71061 0.75020
 O876 O 0.73121 0.75037 0.78874
 O877 O 0.69752 0.77937 0.77633
 O878 O 0.72150 0.80642 0.80101
 O879 O 0.76811 0.75044 0.78886
 O880 O 0.76807 0.75040 0.71148
 O881 O 0.76677 0.79020 0.75016
 O882 O 0.73116 0.75039 0.71179
 Zr883 Zr 0.74957 0.78811 0.78768
 Zr884 Zr 0.74958 0.71270 0.71275
 Zr885 Zr 0.71499 0.75036 0.75031
 Zr886 Zr 0.74965 0.71273 0.78773
 Zr887 Zr 0.74955 0.78807 0.71270
 Zr888 Zr 0.78414 0.75042 0.75014
 H889 H 0.77499 0.69178 0.75017
 H890 H 0.72221 0.75030 0.80580
 H891 H 0.77492 0.80905 0.75015
 H892 H 0.72213 0.75043 0.69477
 H893 H 0.74601 0.84446 0.77501
 H894 H 0.75044 0.84459 0.72542
 H895 H 0.75031 0.65620 0.77503
 H896 H 0.74635 0.65631 0.72541
 C897 C 0.00145 -0.00049 0.18686
 C898 C 0.00140 0.02700 0.17138
 C899 C 0.00122 0.02701 0.14119
 C900 C 0.00111 -0.00050 0.12572
 C901 C 0.00124 -0.02800 0.14123
 C902 C 0.00140 -0.02798 0.17143
 C903 C 0.00146 -0.00047 0.21898
 C904 C -0.01041 -0.02137 0.23446
 C905 C -0.01051 -0.02125 0.26466
 C906 C 0.00126 -0.00022 0.28009
 C907 C 0.01316 0.02066 0.26461
 C908 C 0.01325 0.02054 0.23441
 C909 C 0.00110 -0.00004 0.31220
 C910 C 0.00097 0.02753 0.32751
 C911 C 0.00068 0.02768 0.35771
 C912 C 0.00052 0.00025 0.37334
 C913 C 0.00072 -0.02732 0.35799
 C914 C 0.00099 -0.02746 0.32780
 H915 H 0.00118 0.04856 0.18263
 H916 H 0.00109 0.04863 0.12999
 H917 H 0.00124 -0.04962 0.13008
 H918 H 0.00172 -0.04954 0.18272
 H919 H -0.01991 -0.03750 0.22322
 H920 H -0.02008 -0.03730 0.27593
 H921 H 0.02263 0.03682 0.27586
 H922 H 0.02280 0.03662 0.22312
 H923 H 0.00079 0.04903 0.31613
 H924 H 0.00050 0.04935 0.36878
 H925 H 0.00069 -0.04889 0.36927
 H926 H 0.00137 -0.04907 0.31665
 C927 C 0.25109 0.25002 1.06427
 C928 C 0.25098 0.27747 1.07971
 C929 C 0.25078 0.27750 1.10991
 C930 C 0.25066 0.24996 1.12567
 C931 C 0.25084 0.22246 1.10990
 C932 C 0.25105 0.22255 1.07971
 C933 C 0.25116 0.25004 1.03214
 C934 C 0.26302 0.22910 1.01671
 C935 C 0.26298 0.22902 0.98651
 C936 C 0.25109 0.24988 0.97102
 C937 C 0.23926 0.27085 0.98645
 C938 C 0.23929 0.27093 1.01665
 C939 C 0.25099 0.24974 0.93890
 C940 C 0.25086 0.27716 0.92332
 C941 C 0.25065 0.27705 0.89312
 C942 C 0.25054 0.24948 0.87775
 C943 C 0.25072 0.22204 0.89336
 C944 C 0.25094 0.22218 0.92357
 H945 H 0.25129 0.29903 1.06843
 H946 H 0.25075 0.29931 1.12077
 H947 H 0.25072 0.20062 1.12074
 H948 H 0.25088 0.20101 1.06842
 H949 H 0.27257 0.21303 1.02800
 H950 H 0.27251 0.21289 0.97526
 H951 H 0.22969 0.28690 0.97517
 H952 H 0.22974 0.28703 1.02789
 H953 H 0.25117 0.29877 0.93448
 H954 H 0.25061 0.29863 0.88185
 H955 H 0.25061 0.20038 0.88228
 H956 H 0.25078 0.20067 0.93494
 C957 C 0.09394 0.09099 0.09431
 C958 C 0.09882 0.07036 0.07221
 C959 C 0.08361 0.05607 0.05631
 C960 C 0.06315 0.06210 0.06211
 C961 C 0.05829 0.08281 0.08419
 C962 C 0.07350 0.09706 0.10009
 C963 C 0.11009 0.10617 0.11124
 C964 C 0.10802 0.11029 0.14121
 C965 C 0.12316 0.12479 0.15709
 C966 C 0.14072 0.13547 0.14335
 C967 C 0.14280 0.13128 0.11340
 C968 C 0.12767 0.11679 0.09753
 C969 C 0.15674 0.15115 0.16011
 C970 C 0.17722 0.14555 0.15422
 C971 C 0.19233 0.16094 0.16934
 C972 C 0.18732 0.18237 0.19071
 C973 C 0.16681 0.18764 0.19689
 C974 C 0.15171 0.17219 0.18177
 H975 H 0.11442 0.06492 0.06749
 H976 H 0.08793 0.04016 0.03957
 H977 H 0.04271 0.08803 0.08927
 H978 H 0.06926 0.11315 0.11671
 H979 H 0.09480 0.10194 0.15247
 H980 H 0.12125 0.12728 0.18019
 H981 H 0.15599 0.13971 0.10211
 H982 H 0.12956 0.11440 0.07441
 H983 H 0.18159 0.12913 0.13796
 H984 H 0.20794 0.15622 0.16403
 H985 H 0.16238 0.20397 0.21320
 H986 H 0.13606 0.17723 0.18660
 C987 C 0.34342 0.34393 0.15699
 C988 C 0.34828 0.32329 0.17910
 C989 C 0.33305 0.30817 0.19426
 C990 C 0.31261 0.31338 0.18768
 C991 C 0.30777 0.33407 0.16556
 C992 C 0.32301 0.34915 0.15040
 C993 C 0.35958 0.35993 0.14084
 C994 C 0.35811 0.36392 0.11079
 C995 C 0.37332 0.37901 0.09557
 C996 C 0.39033 0.39045 0.11007
 C997 C 0.39180 0.38646 0.14012
 C998 C 0.37660 0.37136 0.15534
 C999 C 0.40650 0.40643 0.09390
 C1000 C 0.42691 0.40118 0.10048
 C1001 C 0.44215 0.41618 0.08523
 C1002 C 0.43732 0.43679 0.06305
 C1003 C 0.41687 0.44205 0.05651
 C1004 C 0.40164 0.42702 0.07175
 H1005 H 0.36388 0.31852 0.18442
 H1006 H 0.33734 0.29233 0.21110
 H1007 H 0.29220 0.33866 0.15991
 H1008 H 0.31880 0.36521 0.13372
 H1009 H 0.34533 0.35494 0.09897
 H1010 H 0.37192 0.38132 0.07237
 H1011 H 0.40458 0.39543 0.15194
 H1012 H 0.37800 0.36905 0.17854
 H1013 H 0.43112 0.38516 0.11719
 H1014 H 0.45772 0.41155 0.09086
 H1015 H 0.41258 0.45784 0.03964
 H1016 H 0.38604 0.43181 0.06645
 C1017 C 0.34374 0.15599 0.15666
 C1018 C 0.34855 0.17679 0.17864
 C1019 C 0.33329 0.19187 0.19383
 C1020 C 0.31283 0.18647 0.18744
 C1021 C 0.30805 0.16564 0.16545
 C1022 C 0.32331 0.15060 0.15026
 C1023 C 0.35996 0.13995 0.14049
 C1024 C 0.35832 0.13535 0.11053
 C1025 C 0.37353 0.12019 0.09533
 C1026 C 0.39076 0.10928 0.10971
 C1027 C 0.39242 0.11390 0.13966
 C1028 C 0.37720 0.12906 0.15487
 C1029 C 0.40695 0.09316 0.09354
 C1030 C 0.42739 0.09852 0.09987
 C1031 C 0.44262 0.08339 0.08467
 C1032 C 0.43777 0.06249 0.06277
 C1033 C 0.41730 0.05711 0.05647
 C1034 C 0.40208 0.07229 0.07165
 H1035 H 0.36414 0.18174 0.18384
 H1036 H 0.33756 0.20782 0.21054
 H1037 H 0.29248 0.16087 0.15993
 H1038 H 0.31910 0.13442 0.13371
 H1039 H 0.34539 0.14389 0.09873
 H1040 H 0.37195 0.11743 0.07220
 H1041 H 0.40535 0.10536 0.15146
 H1042 H 0.37878 0.13181 0.17800
 H1043 H 0.43164 0.11474 0.11635
 H1044 H 0.45820 0.08814 0.09013
 H1045 H 0.41298 0.04111 0.03982
 H1046 H 0.38648 0.06735 0.06652
 C1047 C 0.15626 0.34812 0.16069
 C1048 C 0.17669 0.35367 0.15439
 C1049 C 0.19193 0.33833 0.16935
 C1050 C 0.18710 0.31706 0.19097
 C1051 C 0.16665 0.31187 0.19756
 C1052 C 0.15142 0.32721 0.18259
 C1053 C 0.14007 0.36366 0.14411
 C1054 C 0.12276 0.34764 0.13539
 C1055 C 0.10762 0.36209 0.11948
 C1056 C 0.10944 0.39291 0.11190
 C1057 C 0.12674 0.40895 0.12065
 C1058 C 0.14188 0.39449 0.13657
 C1059 C 0.09332 0.40824 0.09499
 C1060 C 0.09824 0.42879 0.07283
 C1061 C 0.08306 0.44321 0.05695
 C1062 C 0.06258 0.43742 0.06288
 C1063 C 0.05768 0.41681 0.08506
 C1064 C 0.07287 0.40240 0.10090
 H1065 H 0.18091 0.36937 0.13741
 H1066 H 0.20750 0.34284 0.16361
 H1067 H 0.16235 0.29579 0.21419
 H1068 H 0.13583 0.32279 0.18824
 H1069 H 0.12108 0.32373 0.14042
 H1070 H 0.09463 0.34899 0.11267
 H1071 H 0.12843 0.43284 0.11554
 H1072 H 0.15490 0.40755 0.14332
 H1073 H 0.11386 0.43347 0.06752
 H1074 H 0.08740 0.45891 0.04002
 H1075 H 0.04209 0.41191 0.09037
 H1076 H 0.06859 0.38701 0.11811
 C1077 C 0.34340 0.15609 0.34328
 C1078 C 0.34826 0.17680 0.32122
 C1079 C 0.33304 0.19178 0.30593
 C1080 C 0.31258 0.18637 0.31232
 C1081 C 0.30774 0.16560 0.33438
 C1082 C 0.32298 0.15066 0.34968
 C1083 C 0.35957 0.14022 0.35957
 C1084 C 0.35795 0.13608 0.38959
 C1085 C 0.37315 0.12112 0.40492
 C1086 C 0.39033 0.10996 0.39058
 C1087 C 0.39196 0.11411 0.36057
 C1088 C 0.37675 0.12907 0.34523
 C1089 C 0.40649 0.09406 0.40687
 C1090 C 0.42692 0.09946 0.40048
 C1091 C 0.44214 0.08449 0.41577
 C1092 C 0.43728 0.06372 0.43782
 C1093 C 0.41682 0.05833 0.44420
 C1094 C 0.40161 0.07335 0.42891
 H1095 H 0.36387 0.18175 0.31605
 H1096 H 0.33734 0.20769 0.28916
 H1097 H 0.29217 0.16084 0.33989
 H1098 H 0.31876 0.13454 0.36631
 H1099 H 0.34504 0.14484 0.40130
 H1100 H 0.37162 0.11869 0.42810
 H1101 H 0.40486 0.10535 0.34885
 H1102 H 0.37829 0.13150 0.32205
 H1103 H 0.43116 0.11558 0.38386
 H1104 H 0.45772 0.08922 0.41027
 H1105 H 0.41251 0.04243 0.46097
 H1106 H 0.38600 0.06842 0.43408
 C1107 C 0.15612 0.34768 0.33924
 C1108 C 0.17656 0.35334 0.34532
 C1109 C 0.19179 0.33806 0.33029
 C1110 C 0.18695 0.31671 0.30878
 C1111 C 0.16648 0.31137 0.30241
 C1112 C 0.15126 0.32666 0.31747
 C1113 C 0.13995 0.36323 0.35590
 C1114 C 0.12266 0.34721 0.36480
 C1115 C 0.10758 0.36166 0.38084
 C1116 C 0.10941 0.39248 0.38837
 C1117 C 0.12668 0.40852 0.37943
 C1118 C 0.14177 0.39406 0.36338
 C1119 C 0.09334 0.40782 0.40541
 C1120 C 0.09832 0.42847 0.42744
 C1121 C 0.08318 0.44291 0.44341
 C1122 C 0.06268 0.43705 0.43771
 C1123 C 0.05773 0.41636 0.41567
 C1124 C 0.07287 0.40192 0.39974
 H1125 H 0.18080 0.36912 0.36220
 H1126 H 0.20736 0.34269 0.33587
 H1127 H 0.16217 0.29521 0.28589
 H1128 H 0.13566 0.32213 0.31198
 H1129 H 0.12097 0.32331 0.35983
 H1130 H 0.09462 0.34855 0.38779
 H1131 H 0.12839 0.43241 0.38448
 H1132 H 0.15476 0.40714 0.35649
 H1133 H 0.11396 0.43321 0.43257
 H1134 H 0.08757 0.45868 0.46021
 H1135 H 0.04213 0.41140 0.41053
 H1136 H 0.06854 0.38647 0.38265
 C1137 C 0.15616 0.15125 0.33847
 C1138 C 0.17656 0.14575 0.34493
 C1139 C 0.19184 0.16105 0.33002
 C1140 C 0.18706 0.18221 0.30829
 C1141 C 0.16663 0.18731 0.30150
 C1142 C 0.15137 0.17201 0.31643
 C1143 C 0.13993 0.13586 0.35506
 C1144 C 0.12266 0.15202 0.36371
 C1145 C 0.10749 0.13773 0.37969
 C1146 C 0.10926 0.10695 0.38739
 C1147 C 0.12652 0.09075 0.37870
 C1148 C 0.14169 0.10506 0.36271
 C1149 C 0.09314 0.09182 0.40442
 C1150 C 0.09805 0.07148 0.42676
 C1151 C 0.08286 0.05724 0.44276
 C1152 C 0.06239 0.06301 0.43677
 C1153 C 0.05751 0.08340 0.41442
 C1154 C 0.07270 0.09763 0.39846
 H1155 H 0.18072 0.13014 0.36202
 H1156 H 0.20739 0.15661 0.33589
 H1157 H 0.16239 0.20330 0.28478
 H1158 H 0.13579 0.17637 0.31067
 H1159 H 0.12103 0.17591 0.35858
 H1160 H 0.09453 0.15093 0.38647
 H1161 H 0.12815 0.06689 0.38392
 H1162 H 0.15470 0.09191 0.35601
 H1163 H 0.11367 0.06684 0.43209
 H1164 H 0.08719 0.04170 0.45982
 H1165 H 0.04192 0.08826 0.40907
 H1166 H 0.06844 0.11287 0.38112
 C1167 C 0.34330 0.34353 0.34337
 C1168 C 0.34818 0.32287 0.32130
 C1169 C 0.33298 0.30782 0.30604
 C1170 C 0.31251 0.31309 0.31246
 C1171 C 0.30764 0.33378 0.33454
 C1172 C 0.32286 0.34880 0.34981
 C1173 C 0.35946 0.35950 0.35963
 C1174 C 0.35782 0.36376 0.38963
 C1175 C 0.37301 0.37882 0.40492
 C1176 C 0.39020 0.38996 0.39057
 C1177 C 0.39184 0.38570 0.36057
 C1178 C 0.37664 0.37064 0.34528
 C1179 C 0.40636 0.40592 0.40683
 C1180 C 0.42680 0.40063 0.40039
 C1181 C 0.44202 0.41563 0.41566
 C1182 C 0.43717 0.43633 0.43775
 C1183 C 0.41670 0.44162 0.44416
 C1184 C 0.40149 0.42658 0.42890
 H1185 H 0.36379 0.31802 0.31608
 H1186 H 0.33731 0.29198 0.28925
 H1187 H 0.29206 0.33845 0.34008
 H1188 H 0.31860 0.36486 0.36644
 H1189 H 0.34492 0.35502 0.40138
 H1190 H 0.37146 0.38131 0.42808
 H1191 H 0.40473 0.39444 0.34882
 H1192 H 0.37820 0.36815 0.32211
 H1193 H 0.43106 0.38456 0.38376
 H1194 H 0.45761 0.41096 0.41012
 H1195 H 0.41238 0.45746 0.46095
 H1196 H 0.38588 0.43144 0.43411
 C1197 C 0.49904 -0.00019 0.18788
 C1198 C 0.49917 0.02719 0.17227
 C1199 C 0.49947 0.02697 0.14213
 C1200 C 0.49967 -0.00067 0.12690
 C1201 C 0.49948 -0.02808 0.14255
 C1202 C 0.49916 -0.02782 0.17271
 C1203 C 0.49885 0.00009 0.21989
 C1204 C 0.48671 -0.02045 0.23535
 C1205 C 0.48662 -0.02026 0.26551
 C1206 C 0.49867 0.00046 0.28084
 C1207 C 0.51078 0.02104 0.26537
 C1208 C 0.51087 0.02085 0.23522
 C1209 C 0.49873 0.00049 0.31285
 C1210 C 0.49882 0.02800 0.32822
 C1211 C 0.49904 0.02802 0.35838
 C1212 C 0.49919 0.00049 0.37384
 C1213 C 0.49903 -0.02703 0.35841
 C1214 C 0.49880 -0.02701 0.32826
 H1215 H 0.49880 0.04883 0.18339
 H1216 H 0.49952 0.04850 0.13079
 H1217 H 0.49965 -0.04978 0.13154
 H1218 H 0.49931 -0.04928 0.18418
 H1219 H 0.47706 -0.03639 0.22411
 H1220 H 0.47691 -0.03607 0.27685
 H1221 H 0.52046 0.03695 0.27661
 H1222 H 0.52062 0.03663 0.22388
 H1223 H 0.49851 0.04955 0.31690
 H1224 H 0.49907 0.04963 0.36954
 H1225 H 0.49917 -0.04865 0.36959
 H1226 H 0.49898 -0.04856 0.31699
 C1227 C 0.75172 0.24987 1.06317
 C1228 C 0.75165 0.27730 1.07865
 C1229 C 0.75143 0.27718 1.10881
 C1230 C 0.75126 0.24959 1.12416
 C1231 C 0.75141 0.22214 1.10863
 C1232 C 0.75165 0.22229 1.07847
 C1233 C 0.75175 0.25001 1.03116
 C1234 C 0.76380 0.22938 1.01569
 C1235 C 0.76371 0.22940 0.98553
 C1236 C 0.75157 0.25006 0.97021
 C1237 C 0.73956 0.27074 0.98569
 C1238 C 0.73965 0.27071 1.01584
 C1239 C 0.75136 0.24996 0.93821
 C1240 C 0.75120 0.27741 0.92271
 C1241 C 0.75084 0.27732 0.89255
 C1242 C 0.75061 0.24975 0.87722
 C1243 C 0.75083 0.22228 0.89277
 C1244 C 0.75120 0.22240 0.92292
 H1245 H 0.75198 0.29890 1.06743
 H1246 H 0.75140 0.29875 1.12005
 H1247 H 0.75126 0.20047 1.11974
 H1248 H 0.75146 0.20079 1.06711
 H1249 H 0.77351 0.21348 1.02692
 H1250 H 0.77335 0.21352 0.97417
 H1251 H 0.72982 0.28660 0.97447
 H1252 H 0.72997 0.28655 1.02719
 H1253 H 0.75158 0.29900 0.93391
 H1254 H 0.75077 0.29891 0.88129
 H1255 H 0.75063 0.20062 0.88168
 H1256 H 0.75106 0.20089 0.93430
 C1257 C 0.59406 0.09531 0.09127
 C1258 C 0.59901 0.07431 0.06952
 C1259 C 0.58383 0.05958 0.05390
 C1260 C 0.56334 0.06552 0.05963
 C1261 C 0.55844 0.08695 0.08106
 C1262 C 0.57361 0.10163 0.09669
 C1263 C 0.61016 0.11022 0.10856
 C1264 C 0.60779 0.11431 0.13849
 C1265 C 0.62296 0.12817 0.15481
 C1266 C 0.64086 0.13825 0.14160
 C1267 C 0.64323 0.13416 0.11166
 C1268 C 0.62806 0.12030 0.09534
 C1269 C 0.65694 0.15317 0.15889
 C1270 C 0.67741 0.14690 0.15346
 C1271 C 0.69257 0.16155 0.16916
 C1272 C 0.68764 0.18286 0.19067
 C1273 C 0.66714 0.18877 0.19640
 C1274 C 0.65199 0.17409 0.18071
 H1275 H 0.61462 0.06872 0.06503
 H1276 H 0.58820 0.04320 0.03760
 H1277 H 0.54284 0.09217 0.08605
 H1278 H 0.56932 0.11804 0.11300
 H1279 H 0.59433 0.10633 0.14939
 H1280 H 0.62080 0.13058 0.17789
 H1281 H 0.65669 0.14214 0.10076
 H1282 H 0.63022 0.11788 0.07227
 H1283 H 0.68171 0.13056 0.13711
 H1284 H 0.70817 0.15635 0.16417
 H1285 H 0.66276 0.20507 0.21276
 H1286 H 0.63637 0.17965 0.18521
 C1287 C -0.15623 0.34124 0.15535
 C1288 C -0.15131 0.32046 0.17731
 C1289 C -0.16649 0.30608 0.19324
 C1290 C -0.18697 0.31218 0.18759
 C1291 C -0.19186 0.33305 0.16564
 C1292 C -0.17668 0.34740 0.14972
 C1293 C -0.14011 0.35649 0.13839
 C1294 C -0.14221 0.36074 0.10844
 C1295 C -0.12707 0.37525 0.09253
 C1296 C -0.10948 0.38579 0.10621
 C1297 C -0.10737 0.38150 0.13615
 C1298 C -0.12251 0.36701 0.15205
 C1299 C -0.09345 0.40145 0.08943
 C1300 C -0.07298 0.39570 0.09521
 C1301 C -0.05786 0.41109 0.08009
 C1302 C -0.06284 0.43267 0.05881
 C1303 C -0.08334 0.43808 0.05272
 C1304 C -0.09846 0.42263 0.06784
 H1305 H -0.13570 0.31496 0.18191
 H1306 H -0.16215 0.29004 0.20987
 H1307 H -0.20745 0.33833 0.16068
 H1308 H -0.18094 0.36360 0.13320
 H1309 H -0.15546 0.35247 0.09723
 H1310 H -0.12901 0.37784 0.06943
 H1311 H -0.09416 0.38984 0.14739
 H1312 H -0.12058 0.36451 0.17516
 H1313 H -0.06864 0.37917 0.11140
 H1314 H -0.04225 0.40626 0.08532
 H1315 H -0.08775 0.45453 0.03649
 H1316 H -0.11410 0.42777 0.06309
 C1317 C 0.90677 0.09769 0.08879
 C1318 C 0.92722 0.10318 0.09502
 C1319 C 0.94244 0.08791 0.07996
 C1320 C 0.93760 0.06676 0.05827
 C1321 C 0.91714 0.06161 0.05175
 C1322 C 0.90192 0.07689 0.06684
 C1323 C 0.89059 0.11321 0.10547
 C1324 C 0.87321 0.09724 0.11409
 C1325 C 0.85809 0.11166 0.13009
 C1326 C 0.85998 0.14241 0.13787
 C1327 C 0.87734 0.15840 0.12922
 C1328 C 0.89247 0.14397 0.11321
 C1329 C 0.84387 0.15771 0.15488
 C1330 C 0.84881 0.17815 0.17710
 C1331 C 0.83363 0.19252 0.19308
 C1332 C 0.81314 0.18679 0.18719
 C1333 C 0.80823 0.16633 0.16494
 C1334 C 0.82341 0.15197 0.14901
 H1335 H 0.93146 0.11879 0.11204
 H1336 H 0.95802 0.09240 0.08566
 H1337 H 0.91283 0.04562 0.03509
 H1338 H 0.88632 0.07250 0.06122
 H1339 H 0.87147 0.07339 0.10892
 H1340 H 0.84507 0.09857 0.13682
 H1341 H 0.87910 0.18223 0.13447
 H1342 H 0.90553 0.15701 0.10654
 H1343 H 0.86443 0.18277 0.18239
 H1344 H 0.83799 0.20811 0.21005
 H1345 H 0.79264 0.16148 0.15965
 H1346 H 0.81910 0.13668 0.13177
 C1347 C 0.65666 0.34582 0.15961
 C1348 C 0.67711 0.35194 0.15391
 C1349 C 0.69234 0.33722 0.16946
 C1350 C 0.68749 0.31600 0.19114
 C1351 C 0.66701 0.31025 0.19715
 C1352 C 0.65180 0.32498 0.18156
 C1353 C 0.64049 0.36077 0.14242
 C1354 C 0.62341 0.34429 0.13349
 C1355 C 0.60829 0.35824 0.11710
 C1356 C 0.60988 0.38901 0.10923
 C1357 C 0.62695 0.40549 0.11815
 C1358 C 0.64208 0.39155 0.13455
 C1359 C 0.59371 0.40394 0.09202
 C1360 C 0.59858 0.42474 0.07003
 C1361 C 0.58336 0.43940 0.05439
 C1362 C 0.56288 0.43365 0.06039
 C1363 C 0.55804 0.41250 0.08213
 C1364 C 0.57326 0.39784 0.09773
 H1365 H 0.68137 0.36761 0.13691
 H1366 H 0.70792 0.34215 0.16414
 H1367 H 0.66269 0.29416 0.21375
 H1368 H 0.63619 0.32011 0.18679
 H1369 H 0.62190 0.32042 0.13876
 H1370 H 0.59548 0.34479 0.11020
 H1371 H 0.62847 0.42936 0.11287
 H1372 H 0.65489 0.40499 0.14144
 H1373 H 0.61419 0.42959 0.06480
 H1374 H 0.58768 0.45544 0.03774
 H1375 H 0.54245 0.40756 0.08745
 H1376 H 0.56900 0.38221 0.11476
 C1377 C -0.15710 0.15844 0.34443
 C1378 C -0.15228 0.17941 0.32261
 C1379 C -0.16749 0.19383 0.30678
 C1380 C -0.18810 0.18769 0.31229
 C1381 C -0.19278 0.16645 0.33423
 C1382 C -0.17751 0.15213 0.35002
 C1383 C -0.14088 0.14320 0.36129
 C1384 C -0.14298 0.13863 0.39121
 C1385 C -0.12775 0.12421 0.40704
 C1386 C -0.11006 0.11402 0.39331
 C1387 C -0.10796 0.11862 0.36340
 C1388 C -0.12318 0.13304 0.34759
 C1389 C -0.09392 0.09842 0.41003
 C1390 C -0.07345 0.10429 0.40418
 C1391 C -0.05826 0.08903 0.41931
 C1392 C -0.06314 0.06748 0.44067
 C1393 C -0.08362 0.06193 0.44680
 C1394 C -0.09882 0.07723 0.43167
 H1395 H -0.13669 0.18505 0.31803
 H1396 H -0.16294 0.20995 0.29031
 H1397 H -0.20828 0.16075 0.33944
 H1398 H -0.18170 0.13576 0.36644
 H1399 H -0.15629 0.14662 0.40249
 H1400 H -0.12970 0.12142 0.43011
 H1401 H -0.09468 0.11057 0.35209
 H1402 H -0.12124 0.13576 0.32450
 H1403 H -0.06917 0.12081 0.38796
 H1404 H -0.04266 0.09398 0.41404
 H1405 H -0.08797 0.04550 0.46308
 H1406 H -0.11443 0.07196 0.43648
 C1407 C 0.65657 0.34518 0.34190
 C1408 C 0.67701 0.35126 0.34767
 C1409 C 0.69225 0.33658 0.33212
 C1410 C 0.68743 0.31546 0.31040
 C1411 C 0.66696 0.30973 0.30435
 C1412 C 0.65173 0.32441 0.31993
 C1413 C 0.64040 0.36012 0.35904
 C1414 C 0.62332 0.34363 0.36802
 C1415 C 0.60819 0.35758 0.38437
 C1416 C 0.60977 0.38836 0.39214
 C1417 C 0.62684 0.40486 0.38317
 C1418 C 0.64197 0.39090 0.36681
 C1419 C 0.59360 0.40331 0.40929
 C1420 C 0.59845 0.42411 0.43124
 C1421 C 0.58322 0.43883 0.44679
 C1422 C 0.56276 0.43314 0.44074
 C1423 C 0.55792 0.41197 0.41906
 C1424 C 0.57316 0.39725 0.40353
 H1425 H 0.68125 0.36687 0.36469
 H1426 H 0.70783 0.34149 0.33748
 H1427 H 0.66266 0.29371 0.28771
 H1428 H 0.63613 0.31959 0.31467
 H1429 H 0.62182 0.31975 0.36280
 H1430 H 0.59538 0.34414 0.39131
 H1431 H 0.62834 0.42874 0.38837
 H1432 H 0.65479 0.40435 0.35988
 H1433 H 0.61406 0.42892 0.43649
 H1434 H 0.58753 0.45488 0.46340
 H1435 H 0.54234 0.40708 0.41370
 H1436 H 0.56891 0.38162 0.38654
 C1437 C 0.65677 0.15286 0.34146
 C1438 C 0.67719 0.14676 0.34730
 C1439 C 0.69244 0.16132 0.33168
 C1440 C 0.68761 0.18233 0.30984
 C1441 C 0.66716 0.18798 0.30364
 C1442 C 0.65193 0.17342 0.31928
 C1443 C 0.64059 0.13826 0.35878
 C1444 C 0.62367 0.15507 0.36774
 C1445 C 0.60851 0.14144 0.38427
 C1446 C 0.60995 0.11069 0.39222
 C1447 C 0.62688 0.09388 0.38328
 C1448 C 0.64204 0.10751 0.36674
 C1449 C 0.59374 0.09609 0.40949
 C1450 C 0.59854 0.07550 0.43166
 C1451 C 0.58327 0.06098 0.44727
 C1452 C 0.56283 0.06670 0.44104
 C1453 C 0.55805 0.08772 0.41918
 C1454 C 0.57334 0.10224 0.40359
 H1455 H 0.68140 0.13127 0.36447
 H1456 H 0.70801 0.15649 0.33713
 H1457 H 0.66287 0.20391 0.28688
 H1458 H 0.63632 0.17822 0.31398
 H1459 H 0.62230 0.17894 0.36237
 H1460 H 0.59579 0.15509 0.39119
 H1461 H 0.62824 0.07001 0.38865
 H1462 H 0.65476 0.09386 0.35982
 H1463 H 0.61413 0.07066 0.43700
 H1464 H 0.58752 0.04505 0.46404
 H1465 H 0.54249 0.09261 0.41370
 H1466 H 0.56916 0.11773 0.38642
 C1467 C -0.15623 0.34074 0.34611
 C1468 C -0.15133 0.32001 0.32411
 C1469 C -0.16652 0.30566 0.30822
 C1470 C -0.18700 0.31173 0.31394
 C1471 C -0.19188 0.33251 0.33595
 C1472 C -0.17668 0.34683 0.35183
 C1473 C -0.14009 0.35601 0.36297
 C1474 C -0.14215 0.36028 0.39293
 C1475 C -0.12699 0.37481 0.40874
 C1476 C -0.10942 0.38537 0.39496
 C1477 C -0.10735 0.38105 0.36502
 C1478 C -0.12250 0.36654 0.34922
 C1479 C -0.09337 0.40107 0.41164
 C1480 C -0.07289 0.39539 0.40576
 C1481 C -0.05776 0.41082 0.42079
 C1482 C -0.06273 0.43237 0.44207
 C1483 C -0.08323 0.43771 0.44826
 C1484 C -0.09836 0.42223 0.43323
 H1485 H -0.13573 0.31454 0.31944
 H1486 H -0.16219 0.28969 0.29155
 H1487 H -0.20747 0.33776 0.34097
 H1488 H -0.18094 0.36298 0.36838
 H1489 H -0.15538 0.35200 0.40422
 H1490 H -0.12890 0.37741 0.43184
 H1491 H -0.09416 0.38940 0.35370
 H1492 H -0.12061 0.36404 0.32611
 H1493 H -0.06856 0.37888 0.38956
 H1494 H -0.04216 0.40603 0.41548
 H1495 H -0.08763 0.45414 0.46449
 H1496 H -0.11400 0.42733 0.43806
 C1497 C 0.00091 0.49984 0.18768
 C1498 C 0.00082 0.52737 0.17227
 C1499 C 0.00059 0.52747 0.14208
 C1500 C 0.00046 0.50001 0.12655
 C1501 C 0.00063 0.47246 0.14199
 C1502 C 0.00084 0.47239 0.17218
 C1503 C 0.00101 0.49974 0.21978
 C1504 C -0.01082 0.47878 0.23526
 C1505 C -0.01079 0.47875 0.26545
 C1506 C 0.00106 0.49967 0.28088
 C1507 C 0.01291 0.52060 0.26540
 C1508 C 0.01289 0.52064 0.23520
 C1509 C 0.00101 0.49971 0.31298
 C1510 C 0.00093 0.52722 0.32837
 C1511 C 0.00073 0.52728 0.35857
 C1512 C 0.00062 0.49979 0.37411
 C1513 C 0.00077 0.47226 0.35868
 C1514 C 0.00095 0.47223 0.32849
 H1515 H 0.00061 0.54890 0.18358
 H1516 H 0.00044 0.54912 0.13094
 H1517 H 0.00062 0.45087 0.13078
 H1518 H 0.00118 0.45080 0.18341
 H1519 H -0.02038 0.46272 0.22402
 H1520 H -0.02033 0.46266 0.27674
 H1521 H 0.02245 0.53669 0.27665
 H1522 H 0.02241 0.53675 0.22391
 H1523 H 0.00072 0.54877 0.31706
 H1524 H 0.00059 0.54891 0.36969
 H1525 H 0.00077 0.45066 0.36990
 H1526 H 0.00128 0.45066 0.31726
 C1527 C 0.25147 0.75081 1.06260
 C1528 C 0.25144 0.77829 1.07801
 C1529 C 0.25123 0.77824 1.10816
 C1530 C 0.25103 0.75069 1.12358
 C1531 C 0.25114 0.72320 1.10811
 C1532 C 0.25136 0.72327 1.07796
 C1533 C 0.25149 0.75088 1.03060
 C1534 C 0.26353 0.73020 1.01517
 C1535 C 0.26347 0.73020 0.98501
 C1536 C 0.25136 0.75087 0.96966
 C1537 C 0.23934 0.77156 0.98510
 C1538 C 0.23941 0.77157 1.01525
 C1539 C 0.25121 0.75080 0.93766
 C1540 C 0.25113 0.77828 0.92221
 C1541 C 0.25084 0.77824 0.89206
 C1542 C 0.25061 0.75069 0.87668
 C1543 C 0.25076 0.72319 0.89219
 C1544 C 0.25106 0.72326 0.92234
 H1545 H 0.25179 0.79985 1.06674
 H1546 H 0.25124 0.79984 1.11936
 H1547 H 0.25096 0.70156 1.11927
 H1548 H 0.25114 0.70174 1.06664
 H1549 H 0.27323 0.71431 1.02643
 H1550 H 0.27312 0.71430 0.97367
 H1551 H 0.22962 0.78743 0.97385
 H1552 H 0.22973 0.78743 1.02657
 H1553 H 0.25152 0.79985 0.93344
 H1554 H 0.25083 0.79984 0.88083
 H1555 H 0.25056 0.70156 0.88106
 H1556 H 0.25087 0.70174 0.93370
 C1557 C 0.09344 0.59215 0.09487
 C1558 C 0.09828 0.57142 0.07283
 C1559 C 0.08306 0.55698 0.05706
 C1560 C 0.06258 0.56295 0.06291
 C1561 C 0.05775 0.58374 0.08493
 C1562 C 0.07299 0.59814 0.10071
 C1563 C 0.10964 0.60749 0.11166
 C1564 C 0.10762 0.61191 0.14160
 C1565 C 0.12282 0.62645 0.15735
 C1566 C 0.14041 0.63690 0.14353
 C1567 C 0.14243 0.63244 0.11360
 C1568 C 0.12724 0.61791 0.09786
 C1569 C 0.15653 0.65260 0.16017
 C1570 C 0.17700 0.64693 0.15421
 C1571 C 0.19218 0.66224 0.16929
 C1572 C 0.18727 0.68366 0.19072
 C1573 C 0.16678 0.68904 0.19695
 C1574 C 0.15160 0.67367 0.18187
 H1575 H 0.11388 0.56600 0.06805
 H1576 H 0.08737 0.54102 0.04037
 H1577 H 0.04217 0.58893 0.09006
 H1578 H 0.06875 0.61429 0.11728
 H1579 H 0.09439 0.60372 0.15296
 H1580 H 0.12093 0.62913 0.18044
 H1581 H 0.15563 0.64069 0.10222
 H1582 H 0.12911 0.61531 0.07475
 H1583 H 0.18130 0.63050 0.13793
 H1584 H 0.20777 0.65744 0.16394
 H1585 H 0.16241 0.70537 0.21329
 H1586 H 0.13598 0.67879 0.18677
 C1587 C 0.40788 0.90630 0.09325
 C1588 C 0.42831 0.90039 0.09915
 C1589 C 0.44362 0.91532 0.08386
 C1590 C 0.43897 0.93673 0.06205
 C1591 C 0.41836 0.94250 0.05626
 C1592 C 0.40311 0.92752 0.07162
 C1593 C 0.39160 0.89040 0.10960
 C1594 C 0.37406 0.90602 0.11814
 C1595 C 0.35876 0.89110 0.13345
 C1596 C 0.36061 0.86016 0.14064
 C1597 C 0.37816 0.84454 0.13213
 C1598 C 0.39346 0.85947 0.11681
 C1599 C 0.34429 0.84425 0.15688
 C1600 C 0.34900 0.82304 0.17860
 C1601 C 0.33368 0.80808 0.19383
 C1602 C 0.31322 0.81391 0.18772
 C1603 C 0.30853 0.83513 0.16596
 C1604 C 0.32386 0.85010 0.15077
 H1605 H 0.43252 0.88448 0.11596
 H1606 H 0.45912 0.91000 0.08939
 H1607 H 0.41381 0.95860 0.03977
 H1608 H 0.38752 0.93231 0.06625
 H1609 H 0.37228 0.92997 0.11338
 H1610 H 0.34560 0.90393 0.14007
 H1611 H 0.37994 0.82060 0.13690
 H1612 H 0.40661 0.84662 0.11018
 H1613 H 0.36457 0.81828 0.18412
 H1614 H 0.33790 0.79196 0.21045
 H1615 H 0.29297 0.84012 0.16053
 H1616 H 0.31970 0.86597 0.13391
 C1617 C 0.34354 0.65653 0.15682
 C1618 C 0.34843 0.67720 0.17885
 C1619 C 0.33323 0.69229 0.19410
 C1620 C 0.31277 0.68703 0.18768
 C1621 C 0.30790 0.66632 0.16563
 C1622 C 0.32311 0.65126 0.15039
 C1623 C 0.35968 0.64052 0.14059
 C1624 C 0.35808 0.63637 0.11058
 C1625 C 0.37326 0.62125 0.09531
 C1626 C 0.39036 0.60995 0.10971
 C1627 C 0.39195 0.61409 0.13972
 C1628 C 0.37678 0.62921 0.15499
 C1629 C 0.40651 0.59395 0.09348
 C1630 C 0.42693 0.59924 0.09992
 C1631 C 0.44215 0.58419 0.08467
 C1632 C 0.43729 0.56347 0.06263
 C1633 C 0.41683 0.55818 0.05621
 C1634 C 0.40162 0.57327 0.07145
 H1635 H 0.36405 0.68202 0.18405
 H1636 H 0.33756 0.70815 0.21087
 H1637 H 0.29232 0.66167 0.16010
 H1638 H 0.31886 0.63518 0.13378
 H1639 H 0.34524 0.64524 0.09882
 H1640 H 0.37176 0.61883 0.07213
 H1641 H 0.40480 0.60522 0.15148
 H1642 H 0.37828 0.63163 0.17817
 H1643 H 0.43117 0.61533 0.11652
 H1644 H 0.45773 0.58885 0.09021
 H1645 H 0.41251 0.54231 0.03945
 H1646 H 0.38601 0.56843 0.06625
 C1647 C 0.09400 0.90855 0.09432
 C1648 C 0.09883 0.92910 0.07212
 C1649 C 0.08359 0.94324 0.05617
 C1650 C 0.06315 0.93712 0.06202
 C1651 C 0.05834 0.91646 0.08418
 C1652 C 0.07359 0.90236 0.10014
 C1653 C 0.11020 0.89360 0.11133
 C1654 C 0.10818 0.88977 0.14135
 C1655 C 0.12338 0.87552 0.15732
 C1656 C 0.14093 0.86482 0.14362
 C1657 C 0.14297 0.86873 0.11363
 C1658 C 0.12778 0.88296 0.09766
 C1659 C 0.15699 0.84931 0.16045
 C1660 C 0.17745 0.85497 0.15452
 C1661 C 0.19258 0.83963 0.16966
 C1662 C 0.18760 0.81822 0.19109
 C1663 C 0.16710 0.81294 0.19734
 C1664 C 0.15198 0.82833 0.18220
 H1665 H 0.11442 0.93462 0.06738
 H1666 H 0.08787 0.95913 0.03936
 H1667 H 0.04277 0.91119 0.08930
 H1668 H 0.06940 0.88632 0.11685
 H1669 H 0.09495 0.89816 0.15255
 H1670 H 0.12151 0.87323 0.18045
 H1671 H 0.15616 0.86026 0.10239
 H1672 H 0.12963 0.88515 0.07451
 H1673 H 0.18178 0.87135 0.13818
 H1674 H 0.20819 0.84435 0.16431
 H1675 H 0.16270 0.79663 0.21370
 H1676 H 0.13634 0.82326 0.18706
 C1677 C 0.34337 0.65624 0.34350
 C1678 C 0.34829 0.67698 0.32149
 C1679 C 0.33311 0.69212 0.30622
 C1680 C 0.31264 0.68684 0.31259
 C1681 C 0.30774 0.66607 0.33461
 C1682 C 0.32292 0.65097 0.34989
 C1683 C 0.35950 0.64019 0.35976
 C1684 C 0.35784 0.63586 0.38976
 C1685 C 0.37302 0.62075 0.40505
 C1686 C 0.39020 0.60962 0.39070
 C1687 C 0.39186 0.61393 0.36071
 C1688 C 0.37668 0.62904 0.34541
 C1689 C 0.40636 0.59362 0.40697
 C1690 C 0.42680 0.59896 0.40056
 C1691 C 0.44202 0.58393 0.41583
 C1692 C 0.43716 0.56317 0.43788
 C1693 C 0.41669 0.55783 0.44427
 C1694 C 0.40148 0.57290 0.42901
 H1695 H 0.36391 0.68182 0.31632
 H1696 H 0.33747 0.70802 0.28948
 H1697 H 0.29214 0.66141 0.34011
 H1698 H 0.31864 0.63484 0.36648
 H1699 H 0.34495 0.64460 0.40150
 H1700 H 0.37146 0.61821 0.42821
 H1701 H 0.40476 0.60519 0.34896
 H1702 H 0.37825 0.63159 0.32225
 H1703 H 0.43105 0.61508 0.38395
 H1704 H 0.45760 0.58864 0.41031
 H1705 H 0.41237 0.54193 0.46104
 H1706 H 0.38587 0.56801 0.43420
 C1707 C 0.15635 -0.15121 0.33919
 C1708 C 0.17678 -0.14566 0.34547
 C1709 C 0.19204 -0.16095 0.33049
 C1710 C 0.18723 -0.18217 0.30884
 C1711 C 0.16678 -0.18736 0.30227
 C1712 C 0.15153 -0.17207 0.31728
 C1713 C 0.14014 -0.13572 0.35580
 C1714 C 0.12282 -0.15176 0.36449
 C1715 C 0.10766 -0.13735 0.38043
 C1716 C 0.10947 -0.10656 0.38805
 C1717 C 0.12679 -0.09050 0.37934
 C1718 C 0.14195 -0.10491 0.36340
 C1719 C 0.09333 -0.09128 0.40499
 C1720 C 0.09822 -0.07075 0.42715
 C1721 C 0.08301 -0.05638 0.44304
 C1722 C 0.06254 -0.06219 0.43713
 C1723 C 0.05768 -0.08277 0.41496
 C1724 C 0.07288 -0.09714 0.39910
 H1725 H 0.18098 -0.13000 0.36246
 H1726 H 0.20760 -0.15644 0.33621
 H1727 H 0.16249 -0.20340 0.28564
 H1728 H 0.13594 -0.17649 0.31164
 H1729 H 0.12114 -0.17564 0.35942
 H1730 H 0.09467 -0.15048 0.38721
 H1731 H 0.12848 -0.06664 0.38449
 H1732 H 0.15498 -0.09183 0.35668
 H1733 H 0.11384 -0.06606 0.43244
 H1734 H 0.08734 -0.04069 0.45996
 H1735 H 0.04209 -0.08769 0.40966
 H1736 H 0.06862 -0.11251 0.38190
 C1737 C 0.15623 0.65228 0.33917
 C1738 C 0.17667 0.64664 0.34532
 C1739 C 0.19191 0.66198 0.33034
 C1740 C 0.18709 0.68336 0.30880
 C1741 C 0.16663 0.68868 0.30237
 C1742 C 0.15140 0.67333 0.31738
 C1743 C 0.14003 0.63667 0.35578
 C1744 C 0.12268 0.65261 0.36453
 C1745 C 0.10757 0.63810 0.38051
 C1746 C 0.10944 0.60729 0.38811
 C1747 C 0.12677 0.59132 0.37932
 C1748 C 0.14189 0.60584 0.36333
 C1749 C 0.09335 0.59190 0.40511
 C1750 C 0.09831 0.57127 0.42721
 C1751 C 0.08316 0.55681 0.44317
 C1752 C 0.06266 0.56263 0.43740
 C1753 C 0.05773 0.58328 0.41528
 C1754 C 0.07288 0.59773 0.39937
 H1755 H 0.18090 0.63084 0.36222
 H1756 H 0.20748 0.65735 0.33597
 H1757 H 0.16234 0.70486 0.28583
 H1758 H 0.13580 0.67785 0.31183
 H1759 H 0.12095 0.67650 0.35950
 H1760 H 0.09456 0.65117 0.38734
 H1761 H 0.12852 0.56745 0.38443
 H1762 H 0.15493 0.59281 0.35656
 H1763 H 0.11394 0.56657 0.43241
 H1764 H 0.08754 0.54107 0.46004
 H1765 H 0.04212 0.58821 0.41009
 H1766 H 0.06855 0.61317 0.38222
 C1767 C 0.34352 -0.15592 0.34354
 C1768 C 0.34841 -0.17658 0.32149
 C1769 C 0.33321 -0.19164 0.30625
 C1770 C 0.31275 -0.18633 0.31268
 C1771 C 0.30788 -0.16564 0.33476
 C1772 C 0.32309 -0.15063 0.35001
 C1773 C 0.35966 -0.13994 0.35974
 C1774 C 0.35808 -0.13581 0.38976
 C1775 C 0.37326 -0.12071 0.40500
 C1776 C 0.39035 -0.10941 0.39057
 C1777 C 0.39194 -0.11353 0.36055
 C1778 C 0.37676 -0.12863 0.34530
 C1779 C 0.40650 -0.09341 0.40676
 C1780 C 0.42693 -0.09870 0.40029
 C1781 C 0.44214 -0.08368 0.41553
 C1782 C 0.43727 -0.06300 0.43762
 C1783 C 0.41680 -0.05771 0.44406
 C1784 C 0.40160 -0.07276 0.42882
 H1785 H 0.36402 -0.18143 0.31627
 H1786 H 0.33753 -0.20748 0.28946
 H1787 H 0.29229 -0.16097 0.34030
 H1788 H 0.31884 -0.13456 0.36663
 H1789 H 0.34524 -0.14468 0.40154
 H1790 H 0.37176 -0.11830 0.42818
 H1791 H 0.40478 -0.10466 0.34876
 H1792 H 0.37825 -0.13104 0.32212
 H1793 H 0.43117 -0.11476 0.38366
 H1794 H 0.45772 -0.08834 0.40998
 H1795 H 0.41248 -0.04187 0.46086
 H1796 H 0.38599 -0.06793 0.43405
 C1797 C 0.49839 0.50057 0.18785
 C1798 C 0.49850 0.52802 0.17234
 C1799 C 0.49879 0.52793 0.14218
 C1800 C 0.49900 0.50036 0.12685
 C1801 C 0.49883 0.47289 0.14241
 C1802 C 0.49852 0.47301 0.17256
 C1803 C 0.49827 0.50068 0.21986
 C1804 C 0.48621 0.47999 0.23528
 C1805 C 0.48622 0.47996 0.26544
 C1806 C 0.49828 0.50062 0.28083
 C1807 C 0.51030 0.52135 0.26541
 C1808 C 0.51030 0.52138 0.23525
 C1809 C 0.49841 0.50047 0.31284
 C1810 C 0.49851 0.52791 0.32833
 C1811 C 0.49879 0.52778 0.35849
 C1812 C 0.49900 0.50019 0.37384
 C1813 C 0.49884 0.47274 0.35831
 C1814 C 0.49854 0.47289 0.32815
 H1815 H 0.49813 0.54961 0.18354
 H1816 H 0.49883 0.54951 0.13092
 H1817 H 0.49902 0.45123 0.13132
 H1818 H 0.49870 0.45150 0.18394
 H1819 H 0.47655 0.46408 0.22400
 H1820 H 0.47656 0.46403 0.27675
 H1821 H 0.52000 0.53722 0.27668
 H1822 H 0.51998 0.53727 0.22395
 H1823 H 0.49814 0.54951 0.31712
 H1824 H 0.49882 0.54935 0.36973
 H1825 H 0.49902 0.45107 0.36941
 H1826 H 0.49872 0.45140 0.31678
 C1827 C 0.75124 0.75058 1.06263
 C1828 C 0.75119 0.77807 1.07803
 C1829 C 0.75096 0.77805 1.10819
 C1830 C 0.75076 0.75051 1.12363
 C1831 C 0.75089 0.72301 1.10818
 C1832 C 0.75113 0.72305 1.07802
 C1833 C 0.75130 0.75063 1.03062
 C1834 C 0.76334 0.72993 1.01521
 C1835 C 0.76331 0.72993 0.98505
 C1836 C 0.75125 0.75063 0.96967
 C1837 C 0.73922 0.77134 0.98508
 C1838 C 0.73924 0.77134 1.01523
 C1839 C 0.75115 0.75058 0.93765
 C1840 C 0.75107 0.77807 0.92221
 C1841 C 0.75081 0.77805 0.89206
 C1842 C 0.75059 0.75052 0.87666
 C1843 C 0.75074 0.72301 0.89215
 C1844 C 0.75102 0.72306 0.92231
 H1845 H 0.75155 0.79963 1.06675
 H1846 H 0.75096 0.79966 1.11937
 H1847 H 0.75071 0.70137 1.11935
 H1848 H 0.75092 0.70152 1.06672
 H1849 H 0.77301 0.71402 1.02650
 H1850 H 0.77296 0.71402 0.97374
 H1851 H 0.72953 0.78722 0.97381
 H1852 H 0.72957 0.78723 1.02653
 H1853 H 0.75144 0.79963 0.93346
 H1854 H 0.75079 0.79966 0.88085
 H1855 H 0.75055 0.70138 0.88102
 H1856 H 0.75082 0.70152 0.93365
 C1857 C 0.59348 0.59644 0.09138
 C1858 C 0.59842 0.57552 0.06956
 C1859 C 0.58325 0.56079 0.05395
 C1860 C 0.56277 0.56666 0.05977
 C1861 C 0.55785 0.58800 0.08127
 C1862 C 0.57303 0.60269 0.09688
 C1863 C 0.60957 0.61134 0.10863
 C1864 C 0.60727 0.61527 0.13859
 C1865 C 0.62245 0.62910 0.15489
 C1866 C 0.64030 0.63930 0.14161
 C1867 C 0.64260 0.63537 0.11165
 C1868 C 0.62742 0.62154 0.09535
 C1869 C 0.65640 0.65419 0.15886
 C1870 C 0.67685 0.64793 0.15335
 C1871 C 0.69202 0.66259 0.16899
 C1872 C 0.68712 0.68391 0.19051
 C1873 C 0.66663 0.68979 0.19633
 C1874 C 0.65146 0.67509 0.18070
 H1875 H 0.61404 0.56999 0.06501
 H1876 H 0.58761 0.54448 0.03759
 H1877 H 0.54226 0.59316 0.08632
 H1878 H 0.56875 0.61904 0.11325
 H1879 H 0.59384 0.60719 0.14952
 H1880 H 0.62036 0.63140 0.17798
 H1881 H 0.65603 0.64346 0.10071
 H1882 H 0.62952 0.61924 0.07225
 H1883 H 0.68113 0.63160 0.13697
 H1884 H 0.70762 0.65742 0.16394
 H1885 H 0.66228 0.70609 0.21270
 H1886 H 0.63585 0.68063 0.18525
 C1887 C 0.90661 0.90165 0.08851
 C1888 C 0.92703 0.89610 0.09487
 C1889 C 0.94231 0.91132 0.07985
 C1890 C 0.93754 0.93248 0.05810
 C1891 C 0.91710 0.93767 0.05145
 C1892 C 0.90183 0.92245 0.06649
 C1893 C 0.89035 0.88622 0.10513
 C1894 C 0.87299 0.90228 0.11363
 C1895 C 0.85780 0.88793 0.12958
 C1896 C 0.85960 0.85718 0.13741
 C1897 C 0.87696 0.84110 0.12887
 C1898 C 0.89215 0.85545 0.11292
 C1899 C 0.84345 0.84197 0.15440
 C1900 C 0.84833 0.82153 0.17668
 C1901 C 0.83312 0.80723 0.19265
 C1902 C 0.81264 0.81302 0.18670
 C1903 C 0.80778 0.83350 0.16441
 C1904 C 0.82299 0.84780 0.14848
 H1905 H 0.93121 0.88049 0.11194
 H1906 H 0.95787 0.90681 0.08564
 H1907 H 0.91284 0.95366 0.03473
 H1908 H 0.88625 0.92687 0.06077
 H1909 H 0.87130 0.92614 0.10842
 H1910 H 0.84478 0.90108 0.13621
 H1911 H 0.87865 0.81726 0.13417
 H1912 H 0.90521 0.84234 0.10635
 H1913 H 0.86394 0.81686 0.18203
 H1914 H 0.83745 0.79163 0.20966
 H1915 H 0.79219 0.83839 0.15908
 H1916 H 0.81873 0.86310 0.13119
 C1917 C 0.90615 0.59847 0.08890
 C1918 C 0.92658 0.60395 0.09525
 C1919 C 0.94182 0.58859 0.08035
 C1920 C 0.93700 0.56737 0.05871
 C1921 C 0.91656 0.56225 0.05207
 C1922 C 0.90132 0.57761 0.06700
 C1923 C 0.88996 0.61404 0.10543
 C1924 C 0.87263 0.59804 0.11417
 C1925 C 0.85750 0.61250 0.13009
 C1926 C 0.85935 0.64330 0.13765
 C1927 C 0.87666 0.65933 0.12887
 C1928 C 0.89180 0.64486 0.11294
 C1929 C 0.84326 0.65862 0.15460
 C1930 C 0.84822 0.67908 0.17679
 C1931 C 0.83306 0.69347 0.19273
 C1932 C 0.81257 0.68775 0.18684
 C1933 C 0.80764 0.66726 0.16463
 C1934 C 0.82281 0.65287 0.14872
 H1935 H 0.93077 0.61962 0.11224
 H1936 H 0.95738 0.59306 0.08612
 H1937 H 0.91228 0.54621 0.03543
 H1938 H 0.88573 0.57325 0.06132
 H1939 H 0.87093 0.57415 0.10915
 H1940 H 0.84450 0.59942 0.13692
 H1941 H 0.87837 0.68320 0.13397
 H1942 H 0.90483 0.65790 0.10618
 H1943 H 0.86385 0.68369 0.18207
 H1944 H 0.83742 0.70909 0.20968
 H1945 H 0.79204 0.66242 0.15935
 H1946 H 0.81850 0.63755 0.13150
 C1947 C 0.59303 0.90376 0.09066
 C1948 C 0.59790 0.92517 0.06926
 C1949 C 0.58272 0.93993 0.05365
 C1950 C 0.56210 0.93372 0.05899
 C1951 C 0.55738 0.91162 0.08014
 C1952 C 0.57262 0.89698 0.09573
 C1953 C 0.60918 0.88888 0.10795
 C1954 C 0.60671 0.88431 0.13781
 C1955 C 0.62195 0.87058 0.15415
 C1956 C 0.64002 0.86106 0.14102
 C1957 C 0.64248 0.86561 0.11115
 C1958 C 0.62725 0.87936 0.09481
 C1959 C 0.65619 0.84625 0.15833
 C1960 C 0.67663 0.85285 0.15307
 C1961 C 0.69185 0.83830 0.16878
 C1962 C 0.68701 0.81676 0.19016
 C1963 C 0.66654 0.81052 0.19573
 C1964 C 0.65132 0.82509 0.18001
 H1965 H 0.61349 0.93109 0.06502
 H1966 H 0.58730 0.95656 0.03766
 H1967 H 0.54188 0.90571 0.08507
 H1968 H 0.56840 0.88019 0.11175
 H1969 H 0.59312 0.89185 0.14866
 H1970 H 0.61970 0.86783 0.17717
 H1971 H 0.65607 0.85806 0.10028
 H1972 H 0.62949 0.88215 0.07179
 H1973 H 0.68087 0.86939 0.13683
 H1974 H 0.70743 0.84376 0.16392
 H1975 H 0.66222 0.79402 0.21198
 H1976 H 0.63574 0.81924 0.18439
 C1977 C -0.15654 0.65846 0.34528
 C1978 C -0.15166 0.67919 0.32323
 C1979 C -0.16687 0.69361 0.30738
 C1980 C -0.18735 0.68761 0.31318
 C1981 C -0.19220 0.66681 0.33521
 C1982 C -0.17698 0.65243 0.35106
 C1983 C -0.14036 0.64315 0.36215
 C1984 C -0.14242 0.63881 0.39211
 C1985 C -0.12723 0.62428 0.40793
 C1986 C -0.10964 0.61378 0.39418
 C1987 C -0.10758 0.61817 0.36423
 C1988 C -0.12276 0.63268 0.34841
 C1989 C -0.09354 0.59812 0.41089
 C1990 C -0.07307 0.60379 0.40495
 C1991 C -0.05791 0.58846 0.42007
 C1992 C -0.06284 0.56702 0.44151
 C1993 C -0.08333 0.56166 0.44773
 C1994 C -0.09849 0.57705 0.43261
 H1995 H -0.13606 0.68463 0.31850
 H1996 H -0.16255 0.70959 0.29069
 H1997 H -0.20779 0.66161 0.34030
 H1998 H -0.18123 0.63628 0.36764
 H1999 H -0.15565 0.64704 0.40340
 H2000 H -0.12914 0.62165 0.43103
 H2001 H -0.09438 0.60988 0.35290
 H2002 H -0.12086 0.63523 0.32530
 H2003 H -0.06876 0.62022 0.38866
 H2004 H -0.04231 0.59325 0.41472
 H2005 H -0.08771 0.54532 0.46408
 H2006 H -0.11412 0.57194 0.43750
 C2007 C 0.65636 -0.15321 0.34111
 C2008 C 0.67680 -0.14705 0.34675
 C2009 C 0.69200 -0.16169 0.33114
 C2010 C 0.68713 -0.18286 0.30948
 C2011 C 0.66666 -0.18861 0.30350
 C2012 C 0.65146 -0.17396 0.31915
 C2013 C 0.64024 -0.13844 0.35841
 C2014 C 0.62332 -0.15515 0.36761
 C2015 C 0.60823 -0.14137 0.38415
 C2016 C 0.60972 -0.11057 0.39186
 C2017 C 0.62664 -0.09386 0.38267
 C2018 C 0.64173 -0.10765 0.36614
 C2019 C 0.59358 -0.09580 0.40913
 C2020 C 0.59845 -0.07507 0.43112
 C2021 C 0.58323 -0.06046 0.44675
 C2022 C 0.56277 -0.06624 0.44074
 C2023 C 0.55792 -0.08737 0.41905
 C2024 C 0.57315 -0.10198 0.40344
 H2025 H 0.68106 -0.13143 0.36375
 H2026 H 0.70759 -0.15678 0.33642
 H2027 H 0.66233 -0.20466 0.28690
 H2028 H 0.63584 -0.17882 0.31400
 H2029 H 0.62192 -0.17905 0.36243
 H2030 H 0.59553 -0.15494 0.39126
 H2031 H 0.62804 -0.06997 0.38786
 H2032 H 0.65443 -0.09407 0.35903
 H2033 H 0.61406 -0.07019 0.43629
 H2034 H 0.58754 -0.04442 0.46338
 H2035 H 0.54234 -0.09232 0.41374
 H2036 H 0.56891 -0.11758 0.38642
 C2037 C 0.65631 0.65401 0.34129
 C2038 C 0.67675 0.64785 0.34693
 C2039 C 0.69196 0.66255 0.33133
 C2040 C 0.68709 0.68377 0.30968
 C2041 C 0.66661 0.68954 0.30372
 C2042 C 0.65141 0.67484 0.31935
 C2043 C 0.64017 0.63911 0.35855
 C2044 C 0.62317 0.65568 0.36767
 C2045 C 0.60808 0.64178 0.38414
 C2046 C 0.60964 0.61098 0.39190
 C2047 C 0.62663 0.59440 0.38278
 C2048 C 0.64172 0.60831 0.36630
 C2049 C 0.59350 0.59608 0.40914
 C2050 C 0.59838 0.57525 0.43109
 C2051 C 0.58318 0.56056 0.44672
 C2052 C 0.56271 0.56632 0.44075
 C2053 C 0.55784 0.58754 0.41909
 C2054 C 0.57305 0.60223 0.40349
 H2055 H 0.68102 0.63219 0.36392
 H2056 H 0.70755 0.65761 0.33660
 H2057 H 0.66228 0.70563 0.28713
 H2058 H 0.63579 0.67971 0.31420
 H2059 H 0.62170 0.67958 0.36247
 H2060 H 0.59532 0.65527 0.39119
 H2061 H 0.62810 0.57051 0.38798
 H2062 H 0.65448 0.59481 0.35926
 H2063 H 0.61400 0.57038 0.43625
 H2064 H 0.58751 0.54447 0.46331
 H2065 H 0.54225 0.59248 0.41381
 H2066 H 0.56879 0.61789 0.38650
 C2067 C -0.15656 -0.15809 0.34522
 C2068 C -0.15169 -0.17878 0.32318
 C2069 C -0.16690 -0.19307 0.30731
 C2070 C -0.18736 -0.18698 0.31309
 C2071 C -0.19221 -0.16621 0.33512
 C2072 C -0.17699 -0.15195 0.35099
 C2073 C -0.14038 -0.14293 0.36211
 C2074 C -0.14241 -0.13882 0.39208
 C2075 C -0.12722 -0.12441 0.40792
 C2076 C -0.10966 -0.11381 0.39414
 C2077 C -0.10763 -0.11798 0.36418
 C2078 C -0.12281 -0.13238 0.34835
 C2079 C -0.09359 -0.09821 0.41084
 C2080 C -0.07313 -0.10390 0.40492
 C2081 C -0.05798 -0.08853 0.41996
 C2082 C -0.06293 -0.06703 0.44129
 C2083 C -0.08342 -0.06168 0.44753
 C2084 C -0.09857 -0.07711 0.43248
 H2085 H -0.13609 -0.18428 0.31848
 H2086 H -0.16259 -0.20903 0.29061
 H2087 H -0.20779 -0.16095 0.34018
 H2088 H -0.18121 -0.13582 0.36758
 H2089 H -0.15563 -0.14712 0.40336
 H2090 H -0.12909 -0.12191 0.43104
 H2091 H -0.09444 -0.10961 0.35287
 H2092 H -0.12095 -0.13477 0.32522
 H2093 H -0.06881 -0.12037 0.38867
 H2094 H -0.04238 -0.09331 0.41462
 H2095 H -0.08781 -0.04530 0.46381
 H2096 H -0.11420 -0.07201 0.43734
 C2097 C 0.00102 0.00026 0.81340
 C2098 C 0.00098 0.02764 0.82894
 C2099 C 0.00087 0.02758 0.85914
 C2100 C 0.00076 -0.00000 0.87483
 C2101 C 0.00086 -0.02746 0.85898
 C2102 C 0.00100 -0.02727 0.82878
 C2103 C 0.00100 0.00040 0.78127
 C2104 C 0.01279 -0.02052 0.76569
 C2105 C 0.01271 -0.02042 0.73548
 C2106 C 0.00085 0.00059 0.72011
 C2107 C -0.01091 0.02154 0.73569
 C2108 C -0.01084 0.02144 0.76590
 C2109 C 0.00069 0.00061 0.68798
 C2110 C 0.00055 0.02811 0.67249
 C2111 C 0.00031 0.02813 0.64228
 C2112 C 0.00018 0.00063 0.62680
 C2113 C 0.00036 -0.02688 0.64232
 C2114 C 0.00062 -0.02687 0.67253
 H2115 H 0.00129 0.04924 0.81772
 H2116 H 0.00089 0.04936 0.87005
 H2117 H 0.00076 -0.04932 0.86978
 H2118 H 0.00077 -0.04877 0.81743
 H2119 H 0.02232 -0.03669 0.77686
 H2120 H 0.02219 -0.03653 0.72413
 H2121 H -0.02046 0.03769 0.72452
 H2122 H -0.02033 0.03753 0.77724
 H2123 H 0.00087 0.04967 0.68373
 H2124 H 0.00026 0.04974 0.63109
 H2125 H 0.00024 -0.04850 0.63117
 H2126 H 0.00047 -0.04844 0.68381
 C2127 C 0.25081 0.24914 0.43772
 C2128 C 0.25073 0.27669 0.42233
 C2129 C 0.25052 0.27682 0.39212
 C2130 C 0.25040 0.24937 0.37656
 C2131 C 0.25054 0.22181 0.39199
 C2132 C 0.25074 0.22171 0.42219
 C2133 C 0.25090 0.24902 0.46985
 C2134 C 0.23912 0.22800 0.48532
 C2135 C 0.23914 0.22794 0.51553
 C2136 C 0.25094 0.24890 0.53099
 C2137 C 0.26275 0.26990 0.51551
 C2138 C 0.26273 0.26996 0.48530
 C2139 C 0.25087 0.24893 0.56311
 C2140 C 0.25081 0.27644 0.57853
 C2141 C 0.25061 0.27648 0.60873
 C2142 C 0.25048 0.24900 0.62428
 C2143 C 0.25062 0.22148 0.60883
 C2144 C 0.25080 0.22146 0.57863
 H2145 H 0.25052 0.29821 0.43365
 H2146 H 0.25038 0.29848 0.38100
 H2147 H 0.25054 0.20023 0.38076
 H2148 H 0.25107 0.20011 0.43340
 H2149 H 0.22959 0.21189 0.47407
 H2150 H 0.22962 0.21180 0.52679
 H2151 H 0.27225 0.28603 0.52677
 H2152 H 0.27222 0.28612 0.47403
 H2153 H 0.25060 0.29799 0.56722
 H2154 H 0.25048 0.29811 0.61986
 H2155 H 0.25061 0.19987 0.62005
 H2156 H 0.25112 0.19988 0.56740
 C2157 C 0.09316 0.09203 0.59544
 C2158 C 0.09803 0.07135 0.57338
 C2159 C 0.08282 0.05711 0.55745
 C2160 C 0.06235 0.06324 0.56317
 C2161 C 0.05750 0.08401 0.58520
 C2162 C 0.07273 0.09822 0.60113
 C2163 C 0.10934 0.10710 0.61242
 C2164 C 0.10726 0.11123 0.64239
 C2165 C 0.12247 0.12548 0.65833
 C2166 C 0.14012 0.13590 0.64467
 C2167 C 0.14221 0.13174 0.61471
 C2168 C 0.12700 0.11750 0.59878
 C2169 C 0.15625 0.15130 0.66149
 C2170 C 0.17670 0.14545 0.65561
 C2171 C 0.19189 0.16061 0.67077
 C2172 C 0.18701 0.18207 0.69217
 C2173 C 0.16653 0.18757 0.69837
 C2174 C 0.15133 0.17235 0.68321
 H2175 H 0.11363 0.06580 0.56872
 H2176 H 0.08713 0.04115 0.54076
 H2177 H 0.04192 0.08930 0.59022
 H2178 H 0.06849 0.11434 0.61773
 H2179 H 0.09397 0.10304 0.65360
 H2180 H 0.12054 0.12797 0.68144
 H2181 H 0.15547 0.13999 0.60347
 H2182 H 0.12892 0.11511 0.57566
 H2183 H 0.18097 0.12902 0.63932
 H2184 H 0.20748 0.15571 0.66545
 H2185 H 0.16218 0.20393 0.71469
 H2186 H 0.13572 0.17758 0.68805
 C2187 C 0.34338 0.34285 0.65726
 C2188 C 0.34826 0.32216 0.67933
 C2189 C 0.33306 0.30711 0.69465
 C2190 C 0.31259 0.31243 0.68828
 C2191 C 0.30773 0.33315 0.66619
 C2192 C 0.32294 0.34816 0.65087
 C2193 C 0.35953 0.35884 0.64096
 C2194 C 0.35788 0.36315 0.61096
 C2195 C 0.37305 0.37827 0.59564
 C2196 C 0.39023 0.38942 0.60996
 C2197 C 0.39188 0.38511 0.63996
 C2198 C 0.37671 0.36999 0.65528
 C2199 C 0.40637 0.40545 0.59367
 C2200 C 0.42681 0.40016 0.60006
 C2201 C 0.44202 0.41523 0.58478
 C2202 C 0.43715 0.43598 0.56272
 C2203 C 0.41668 0.44127 0.55634
 C2204 C 0.40148 0.42616 0.57162
 H2205 H 0.36388 0.31729 0.68451
 H2206 H 0.33738 0.29124 0.71144
 H2207 H 0.29215 0.33785 0.66069
 H2208 H 0.31869 0.36425 0.63425
 H2209 H 0.34499 0.35441 0.59924
 H2210 H 0.37149 0.38081 0.57248
 H2211 H 0.40477 0.39386 0.65168
 H2212 H 0.37827 0.36746 0.67844
 H2213 H 0.43108 0.38405 0.61667
 H2214 H 0.45760 0.41056 0.59029
 H2215 H 0.41235 0.45716 0.53958
 H2216 H 0.38586 0.43101 0.56644
 C2217 C 0.34326 0.15540 0.65755
 C2218 C 0.34816 0.17603 0.67961
 C2219 C 0.33296 0.19104 0.69493
 C2220 C 0.31250 0.18573 0.68856
 C2221 C 0.30763 0.16504 0.66649
 C2222 C 0.32283 0.15007 0.65117
 C2223 C 0.35940 0.13952 0.64122
 C2224 C 0.35778 0.13551 0.61120
 C2225 C 0.37297 0.12055 0.59582
 C2226 C 0.39012 0.10928 0.61013
 C2227 C 0.39174 0.11328 0.64016
 C2228 C 0.37655 0.12824 0.65553
 C2229 C 0.40628 0.09346 0.59379
 C2230 C 0.42670 0.09885 0.60020
 C2231 C 0.44194 0.08395 0.58487
 C2232 C 0.43710 0.06329 0.56277
 C2233 C 0.41665 0.05791 0.55637
 C2234 C 0.40142 0.07285 0.57170
 H2235 H 0.36377 0.18090 0.68477
 H2236 H 0.33728 0.20689 0.71171
 H2237 H 0.29204 0.16035 0.66099
 H2238 H 0.31859 0.13401 0.63453
 H2239 H 0.34490 0.14437 0.59951
 H2240 H 0.37145 0.11823 0.57264
 H2241 H 0.40462 0.10442 0.65184
 H2242 H 0.37807 0.13056 0.67871
 H2243 H 0.43092 0.11489 0.61686
 H2244 H 0.45751 0.08868 0.59039
 H2245 H 0.41236 0.04208 0.53956
 H2246 H 0.38582 0.06794 0.56652
 C2247 C 0.15620 0.34766 0.66194
 C2248 C 0.17663 0.35310 0.65557
 C2249 C 0.19187 0.33772 0.67048
 C2250 C 0.18704 0.31649 0.69215
 C2251 C 0.16659 0.31139 0.69881
 C2252 C 0.15136 0.32678 0.68387
 C2253 C 0.14001 0.36328 0.64542
 C2254 C 0.12263 0.34736 0.63680
 C2255 C 0.10751 0.36189 0.62090
 C2256 C 0.10940 0.39267 0.61324
 C2257 C 0.12676 0.40862 0.62190
 C2258 C 0.14189 0.39409 0.63781
 C2259 C 0.09331 0.40806 0.59632
 C2260 C 0.09827 0.42855 0.57410
 C2261 C 0.08311 0.44299 0.55818
 C2262 C 0.06261 0.43730 0.56412
 C2263 C 0.05769 0.41679 0.58636
 C2264 C 0.07285 0.40235 0.60224
 H2265 H 0.18085 0.36878 0.63856
 H2266 H 0.20744 0.34217 0.66469
 H2267 H 0.16230 0.29534 0.71547
 H2268 H 0.13577 0.32243 0.68958
 H2269 H 0.12089 0.32348 0.64188
 H2270 H 0.09447 0.34885 0.61416
 H2271 H 0.12852 0.43248 0.61674
 H2272 H 0.15496 0.40708 0.64448
 H2273 H 0.11390 0.43314 0.56878
 H2274 H 0.08748 0.45862 0.54121
 H2275 H 0.04208 0.41197 0.59168
 H2276 H 0.06853 0.38702 0.61948
 C2277 C 0.40683 0.09245 0.90711
 C2278 C 0.42725 0.09770 0.90054
 C2279 C 0.44251 0.08264 0.91572
 C2280 C 0.43772 0.06195 0.93788
 C2281 C 0.41726 0.05670 0.94442
 C2282 C 0.40201 0.07176 0.92921
 C2283 C 0.39061 0.10849 0.89096
 C2284 C 0.37292 0.09310 0.88278
 C2285 C 0.35768 0.10819 0.86758
 C2286 C 0.35977 0.13903 0.86020
 C2287 C 0.37746 0.15442 0.86838
 C2288 C 0.39270 0.13933 0.88358
 C2289 C 0.34355 0.15509 0.84407
 C2290 C 0.34836 0.17581 0.82199
 C2291 C 0.33311 0.19092 0.80683
 C2292 C 0.31265 0.18568 0.81339
 C2293 C 0.30786 0.16495 0.83551
 C2294 C 0.32312 0.14984 0.85064
 H2295 H 0.43145 0.11318 0.88336
 H2296 H 0.45808 0.08715 0.90996
 H2297 H 0.41298 0.04099 0.96137
 H2298 H 0.38643 0.06751 0.93504
 H2299 H 0.37099 0.06923 0.88773
 H2300 H 0.34437 0.09558 0.86120
 H2301 H 0.37939 0.17830 0.86343
 H2302 H 0.40600 0.15195 0.88996
 H2303 H 0.36394 0.18006 0.81615
 H2304 H 0.33738 0.20666 0.78990
 H2305 H 0.29229 0.16044 0.84127
 H2306 H 0.31892 0.13434 0.86780
 C2307 C 0.09342 0.40868 0.90477
 C2308 C 0.09825 0.42932 0.92685
 C2309 C 0.08301 0.44368 0.94264
 C2310 C 0.06256 0.43769 0.93673
 C2311 C 0.05775 0.41699 0.91465
 C2312 C 0.07300 0.40267 0.89886
 C2313 C 0.10962 0.39340 0.88804
 C2314 C 0.10773 0.38932 0.85804
 C2315 C 0.12295 0.37478 0.84234
 C2316 C 0.14039 0.36401 0.85629
 C2317 C 0.14228 0.36814 0.88627
 C2318 C 0.12707 0.38267 0.90196
 C2319 C 0.15648 0.34826 0.83974
 C2320 C 0.17693 0.35382 0.84583
 C2321 C 0.19210 0.33832 0.83092
 C2322 C 0.18717 0.31683 0.80958
 C2323 C 0.16670 0.31162 0.80320
 C2324 C 0.15153 0.32717 0.81810
 H2325 H 0.11384 0.43472 0.93166
 H2326 H 0.08729 0.45959 0.95938
 H2327 H 0.04218 0.41182 0.90949
 H2328 H 0.06881 0.38657 0.88223
 H2329 H 0.09460 0.39776 0.84664
 H2330 H 0.12119 0.37231 0.81921
 H2331 H 0.15538 0.35963 0.89770
 H2332 H 0.12881 0.38503 0.92511
 H2333 H 0.18121 0.37028 0.86209
 H2334 H 0.20769 0.34300 0.83637
 H2335 H 0.16234 0.29525 0.78690
 H2336 H 0.13591 0.32218 0.81313
 C2337 C 0.09290 0.09049 0.90528
 C2338 C 0.09769 0.06950 0.92708
 C2339 C 0.08246 0.05504 0.94282
 C2340 C 0.06186 0.06116 0.93723
 C2341 C 0.05721 0.08240 0.91529
 C2342 C 0.07251 0.09677 0.89959
 C2343 C 0.10914 0.10581 0.88857
 C2344 C 0.10719 0.11032 0.85863
 C2345 C 0.12246 0.12481 0.84295
 C2346 C 0.14004 0.13511 0.85685
 C2347 C 0.14199 0.13057 0.88678
 C2348 C 0.12673 0.11608 0.90245
 C2349 C 0.15621 0.15080 0.84030
 C2350 C 0.17665 0.14500 0.84629
 C2351 C 0.19188 0.16038 0.83133
 C2352 C 0.18703 0.18198 0.81001
 C2353 C 0.16656 0.18746 0.80375
 C2354 C 0.15134 0.17204 0.81871
 H2355 H 0.11328 0.06389 0.93172
 H2356 H 0.08698 0.03890 0.95929
 H2357 H 0.04172 0.08808 0.91003
 H2358 H 0.06835 0.11315 0.88316
 H2359 H 0.09396 0.10225 0.84724
 H2360 H 0.12064 0.12758 0.81985
 H2361 H 0.15519 0.13871 0.89820
 H2362 H 0.12855 0.11339 0.92555
 H2363 H 0.18090 0.12843 0.86250
 H2364 H 0.20746 0.15549 0.83669
 H2365 H 0.16224 0.20393 0.78749
 H2366 H 0.13573 0.17725 0.81380
 C2367 C 0.40650 0.40568 0.90740
 C2368 C 0.42695 0.40031 0.90103
 C2369 C 0.44216 0.41540 0.91623
 C2370 C 0.43729 0.43623 0.93820
 C2371 C 0.41682 0.44157 0.94457
 C2372 C 0.40162 0.42648 0.92934
 C2373 C 0.39035 0.38966 0.89117
 C2374 C 0.37276 0.40514 0.88267
 C2375 C 0.35758 0.39009 0.86736
 C2376 C 0.35964 0.35921 0.86019
 C2377 C 0.37723 0.34373 0.86867
 C2378 C 0.39241 0.35878 0.88399
 C2379 C 0.34347 0.34319 0.84399
 C2380 C 0.34833 0.32239 0.82204
 C2381 C 0.33311 0.30731 0.80682
 C2382 C 0.31265 0.31267 0.81321
 C2383 C 0.30781 0.33349 0.83520
 C2384 C 0.32303 0.34857 0.85038
 H2385 H 0.43119 0.38474 0.88398
 H2386 H 0.45774 0.41082 0.91062
 H2387 H 0.41250 0.45739 0.96138
 H2388 H 0.38601 0.43081 0.93500
 H2389 H 0.37086 0.42906 0.88747
 H2390 H 0.34435 0.40277 0.86074
 H2391 H 0.37912 0.31982 0.86388
 H2392 H 0.40564 0.34611 0.89061
 H2393 H 0.36393 0.31805 0.81636
 H2394 H 0.33742 0.29150 0.79000
 H2395 H 0.29223 0.33809 0.84084
 H2396 H 0.31880 0.36414 0.86745
 C2397 C 0.49876 -0.00162 0.81291
 C2398 C 0.49890 0.02588 0.82829
 C2399 C 0.49925 0.02589 0.85845
 C2400 C 0.49945 -0.00162 0.87394
 C2401 C 0.49924 -0.02914 0.85852
 C2402 C 0.49891 -0.02913 0.82835
 C2403 C 0.49856 -0.00160 0.78088
 C2404 C 0.51053 -0.02228 0.76532
 C2405 C 0.51048 -0.02210 0.73516
 C2406 C 0.49846 -0.00124 0.71988
 C2407 C 0.48646 0.01940 0.73543
 C2408 C 0.48651 0.01922 0.76561
 C2409 C 0.49850 -0.00096 0.68785
 C2410 C 0.49858 0.02667 0.67261
 C2411 C 0.49881 0.02692 0.64244
 C2412 C 0.49894 -0.00048 0.62682
 C2413 C 0.49877 -0.02812 0.64211
 C2414 C 0.49856 -0.02834 0.67227
 H2415 H 0.49906 0.04743 0.81699
 H2416 H 0.49944 0.04752 0.86960
 H2417 H 0.49930 -0.05076 0.86972
 H2418 H 0.49853 -0.05068 0.81708
 H2419 H 0.52021 -0.03826 0.77649
 H2420 H 0.52012 -0.03795 0.72377
 H2421 H 0.47681 0.03542 0.72426
 H2422 H 0.47690 0.03512 0.77700
 H2423 H 0.49879 0.04813 0.68404
 H2424 H 0.49897 0.04862 0.63139
 H2425 H 0.49878 -0.04965 0.63080
 H2426 H 0.49823 -0.04998 0.68341
 C2427 C 0.75144 0.24861 0.43816
 C2428 C 0.75135 0.27618 0.42283
 C2429 C 0.75116 0.27632 0.39266
 C2430 C 0.75107 0.24887 0.37712
 C2431 C 0.75125 0.22129 0.39250
 C2432 C 0.75142 0.22118 0.42266
 C2433 C 0.75145 0.24848 0.47020
 C2434 C 0.73943 0.22767 0.48555
 C2435 C 0.73933 0.22765 0.51572
 C2436 C 0.75124 0.24844 0.53120
 C2437 C 0.76329 0.26921 0.51585
 C2438 C 0.76339 0.26923 0.48568
 C2439 C 0.75102 0.24854 0.56324
 C2440 C 0.75085 0.27609 0.57854
 C2441 C 0.75051 0.27621 0.60871
 C2442 C 0.75035 0.24874 0.62427
 C2443 C 0.75058 0.22117 0.60892
 C2444 C 0.75090 0.22109 0.57876
 H2445 H 0.75111 0.29768 0.43418
 H2446 H 0.75099 0.29799 0.38155
 H2447 H 0.75127 0.19972 0.38126
 H2448 H 0.75176 0.19958 0.43388
 H2449 H 0.72983 0.21173 0.47422
 H2450 H 0.72965 0.21170 0.52694
 H2451 H 0.77286 0.28518 0.52719
 H2452 H 0.77304 0.28521 0.47444
 H2453 H 0.75068 0.29761 0.56717
 H2454 H 0.75031 0.29786 0.61980
 H2455 H 0.75054 0.19959 0.62018
 H2456 H 0.75130 0.19950 0.56756
 C2457 C 0.59324 0.09610 0.59178
 C2458 C 0.59820 0.07527 0.56991
 C2459 C 0.58305 0.06065 0.55421
 C2460 C 0.56257 0.06654 0.56000
 C2461 C 0.55763 0.08782 0.58154
 C2462 C 0.57279 0.10240 0.59725
 C2463 C 0.60931 0.11082 0.60916
 C2464 C 0.60697 0.11447 0.63914
 C2465 C 0.62215 0.12811 0.65557
 C2466 C 0.64000 0.13840 0.64239
 C2467 C 0.64233 0.13477 0.61240
 C2468 C 0.62715 0.12112 0.59597
 C2469 C 0.65608 0.15309 0.65976
 C2470 C 0.67652 0.14675 0.65428
 C2471 C 0.69170 0.16131 0.66997
 C2472 C 0.68679 0.18261 0.69150
 C2473 C 0.66631 0.18854 0.69732
 C2474 C 0.65114 0.17393 0.68163
 H2475 H 0.61382 0.06972 0.56540
 H2476 H 0.58742 0.04438 0.53781
 H2477 H 0.54203 0.09299 0.58656
 H2478 H 0.56851 0.11869 0.61367
 H2479 H 0.59353 0.10630 0.64999
 H2480 H 0.62005 0.13021 0.67868
 H2481 H 0.65577 0.14293 0.60156
 H2482 H 0.62926 0.11903 0.57286
 H2483 H 0.68078 0.13044 0.63787
 H2484 H 0.70729 0.15611 0.66494
 H2485 H 0.66196 0.20483 0.71371
 H2486 H 0.63553 0.17951 0.68615
 C2487 C -0.15684 0.34106 0.65540
 C2488 C -0.15200 0.32035 0.67747
 C2489 C -0.16723 0.30593 0.69327
 C2490 C -0.18769 0.31189 0.68740
 C2491 C -0.19252 0.33264 0.66532
 C2492 C -0.17728 0.34703 0.64951
 C2493 C -0.14063 0.35641 0.63863
 C2494 C -0.14256 0.36071 0.60865
 C2495 C -0.12733 0.37526 0.59293
 C2496 C -0.10982 0.38582 0.60681
 C2497 C -0.10789 0.38149 0.63677
 C2498 C -0.12311 0.36696 0.65249
 C2499 C -0.09368 0.40152 0.59021
 C2500 C -0.07322 0.39590 0.59629
 C2501 C -0.05802 0.41128 0.58128
 C2502 C -0.06290 0.43272 0.55982
 C2503 C -0.08338 0.43802 0.55346
 C2504 C -0.09857 0.42259 0.56847
 H2505 H -0.13640 0.31496 0.68227
 H2506 H -0.16292 0.28999 0.71001
 H2507 H -0.20810 0.33780 0.66018
 H2508 H -0.18150 0.36316 0.63290
 H2509 H -0.15574 0.35243 0.59727
 H2510 H -0.12914 0.37786 0.56981
 H2511 H -0.09474 0.38983 0.64818
 H2512 H -0.12131 0.36444 0.67562
 H2513 H -0.06895 0.37947 0.61261
 H2514 H -0.04244 0.40653 0.58672
 H2515 H -0.08771 0.45435 0.53709
 H2516 H -0.11419 0.42765 0.56348
 C2517 C 0.90588 0.09865 0.58880
 C2518 C 0.92629 0.10429 0.59511
 C2519 C 0.94157 0.08907 0.58015
 C2520 C 0.93679 0.06783 0.55851
 C2521 C 0.91636 0.06259 0.55188
 C2522 C 0.90109 0.07781 0.56686
 C2523 C 0.88965 0.11398 0.60544
 C2524 C 0.87243 0.09775 0.61424
 C2525 C 0.85729 0.11198 0.63030
 C2526 C 0.85901 0.14277 0.63793
 C2527 C 0.87620 0.15903 0.62909
 C2528 C 0.89136 0.14479 0.61302
 C2529 C 0.84291 0.15784 0.65505
 C2530 C 0.84786 0.17824 0.67728
 C2531 C 0.83269 0.19246 0.69335
 C2532 C 0.81221 0.18661 0.68753
 C2533 C 0.80730 0.16614 0.66530
 C2534 C 0.82247 0.15193 0.64927
 H2535 H 0.93045 0.11995 0.61212
 H2536 H 0.95712 0.09362 0.58591
 H2537 H 0.91211 0.04653 0.53524
 H2538 H 0.88551 0.07334 0.56121
 H2539 H 0.87085 0.07385 0.60917
 H2540 H 0.84437 0.09872 0.63718
 H2541 H 0.87781 0.18291 0.63425
 H2542 H 0.90431 0.15800 0.60621
 H2543 H 0.86349 0.18296 0.68249
 H2544 H 0.83705 0.20807 0.71031
 H2545 H 0.79170 0.16121 0.66007
 H2546 H 0.81818 0.13664 0.63202
 C2547 C 0.65601 0.34551 0.65965
 C2548 C 0.67645 0.35172 0.65405
 C2549 C 0.69164 0.33704 0.66967
 C2550 C 0.68675 0.31577 0.69127
 C2551 C 0.66628 0.30995 0.69720
 C2552 C 0.65109 0.32464 0.68155
 C2553 C 0.63990 0.36037 0.64236
 C2554 C 0.62299 0.34372 0.63310
 C2555 C 0.60795 0.35758 0.61654
 C2556 C 0.60946 0.38840 0.60886
 C2557 C 0.62637 0.40505 0.61813
 C2558 C 0.64142 0.39119 0.63469
 C2559 C 0.59337 0.40325 0.59154
 C2560 C 0.59830 0.42410 0.56964
 C2561 C 0.58313 0.43878 0.55396
 C2562 C 0.56265 0.43297 0.55986
 C2563 C 0.55774 0.41172 0.58147
 C2564 C 0.57292 0.39704 0.59711
 H2565 H 0.68073 0.36742 0.63710
 H2566 H 0.70723 0.34202 0.66442
 H2567 H 0.66194 0.29382 0.71375
 H2568 H 0.63547 0.31973 0.68666
 H2569 H 0.62157 0.31980 0.63824
 H2570 H 0.59525 0.34404 0.60937
 H2571 H 0.62780 0.42896 0.61299
 H2572 H 0.65411 0.40473 0.64185
 H2573 H 0.61393 0.42901 0.56455
 H2574 H 0.58748 0.45490 0.53740
 H2575 H 0.54215 0.40675 0.58670
 H2576 H 0.56863 0.38136 0.61407
 C2577 C 0.90654 0.09829 0.91098
 C2578 C 0.92691 0.10367 0.90423
 C2579 C 0.94224 0.08833 0.91897
 C2580 C 0.93754 0.06724 0.94080
 C2581 C 0.91714 0.06225 0.94786
 C2582 C 0.90183 0.07759 0.93311
 C2583 C 0.89024 0.11374 0.89461
 C2584 C 0.87288 0.09764 0.88622
 C2585 C 0.85763 0.11200 0.87047
 C2586 C 0.85939 0.14277 0.86276
 C2587 C 0.87673 0.15890 0.87120
 C2588 C 0.89199 0.14453 0.88695
 C2589 C 0.84321 0.15795 0.84592
 C2590 C 0.84805 0.17824 0.82351
 C2591 C 0.83281 0.19251 0.80766
 C2592 C 0.81236 0.18681 0.81386
 C2593 C 0.80754 0.16648 0.83628
 C2594 C 0.82279 0.15222 0.85211
 H2595 H 0.93100 0.11924 0.88707
 H2596 H 0.95777 0.09267 0.91290
 H2597 H 0.91295 0.04633 0.96467
 H2598 H 0.88627 0.07333 0.93909
 H2599 H 0.87126 0.07376 0.89137
 H2600 H 0.84461 0.09885 0.86388
 H2601 H 0.87837 0.18276 0.86596
 H2602 H 0.90506 0.15763 0.89346
 H2603 H 0.86365 0.18281 0.81799
 H2604 H 0.83709 0.20800 0.79052
 H2605 H 0.79197 0.16169 0.84179
 H2606 H 0.81859 0.13701 0.86951
 C2607 C 0.59343 0.40319 0.90969
 C2608 C 0.59839 0.42414 0.93145
 C2609 C 0.58323 0.43888 0.94707
 C2610 C 0.56276 0.43298 0.94128
 C2611 C 0.55783 0.41157 0.91987
 C2612 C 0.57300 0.39688 0.90425
 C2613 C 0.60950 0.38837 0.89237
 C2614 C 0.60719 0.38466 0.86240
 C2615 C 0.62236 0.37090 0.84602
 C2616 C 0.64018 0.36058 0.85925
 C2617 C 0.64249 0.36430 0.88922
 C2618 C 0.62732 0.37806 0.90560
 C2619 C 0.65624 0.34575 0.84193
 C2620 C 0.67668 0.35205 0.84736
 C2621 C 0.69184 0.33737 0.83170
 C2622 C 0.68690 0.31601 0.81025
 C2623 C 0.66642 0.31012 0.80449
 C2624 C 0.65127 0.32484 0.82015
 H2625 H 0.61401 0.42969 0.93593
 H2626 H 0.58759 0.45524 0.96338
 H2627 H 0.54224 0.40639 0.91487
 H2628 H 0.56873 0.38050 0.88792
 H2629 H 0.59378 0.39285 0.85153
 H2630 H 0.62028 0.36874 0.82291
 H2631 H 0.65591 0.35612 0.90009
 H2632 H 0.62940 0.38022 0.92871
 H2633 H 0.68097 0.36840 0.86371
 H2634 H 0.70744 0.34254 0.83669
 H2635 H 0.66205 0.29379 0.78816
 H2636 H 0.63565 0.31930 0.81567
 C2637 C 0.59299 0.09382 0.90977
 C2638 C 0.59789 0.07235 0.93112
 C2639 C 0.58273 0.05746 0.94672
 C2640 C 0.56209 0.06359 0.94143
 C2641 C 0.55734 0.08567 0.92029
 C2642 C 0.57255 0.10045 0.90472
 C2643 C 0.60912 0.10899 0.89259
 C2644 C 0.60664 0.11396 0.86278
 C2645 C 0.62183 0.12806 0.84657
 C2646 C 0.63988 0.13754 0.85976
 C2647 C 0.64235 0.13257 0.88957
 C2648 C 0.62717 0.11846 0.90577
 C2649 C 0.65601 0.15272 0.84256
 C2650 C 0.67648 0.14628 0.84777
 C2651 C 0.69166 0.16107 0.83213
 C2652 C 0.68676 0.18273 0.81088
 C2653 C 0.66626 0.18886 0.80540
 C2654 C 0.65109 0.17403 0.82104
 H2655 H 0.61349 0.06652 0.93536
 H2656 H 0.58734 0.04083 0.96268
 H2657 H 0.54182 0.09151 0.91537
 H2658 H 0.56828 0.11726 0.88875
 H2659 H 0.59308 0.10648 0.85186
 H2660 H 0.61956 0.13111 0.82359
 H2661 H 0.65591 0.14007 0.90050
 H2662 H 0.62944 0.11540 0.92875
 H2663 H 0.68079 0.12964 0.86387
 H2664 H 0.70726 0.15569 0.83693
 H2665 H 0.66189 0.20543 0.78927
 H2666 H 0.63548 0.17978 0.81670
 C2667 C 0.90613 0.40180 0.91091
 C2668 C 0.92656 0.39633 0.90453
 C2669 C 0.94181 0.41169 0.91942
 C2670 C 0.93700 0.43290 0.94108
 C2671 C 0.91655 0.43804 0.94774
 C2672 C 0.90131 0.42268 0.93282
 C2673 C 0.88992 0.38619 0.89443
 C2674 C 0.87252 0.40212 0.88584
 C2675 C 0.85737 0.38760 0.87003
 C2676 C 0.85925 0.35681 0.86242
 C2677 C 0.87663 0.34086 0.87104
 C2678 C 0.89179 0.35539 0.88686
 C2679 C 0.84312 0.34142 0.84559
 C2680 C 0.84803 0.32089 0.82343
 C2681 C 0.83283 0.30643 0.80761
 C2682 C 0.81235 0.31215 0.81360
 C2683 C 0.80747 0.33271 0.83579
 C2684 C 0.82266 0.34717 0.85156
 H2685 H 0.93077 0.38066 0.88754
 H2686 H 0.95738 0.40722 0.91363
 H2687 H 0.91226 0.45407 0.96438
 H2688 H 0.88572 0.42704 0.93854
 H2689 H 0.87079 0.42600 0.89090
 H2690 H 0.84432 0.40065 0.86332
 H2691 H 0.87838 0.31700 0.86591
 H2692 H 0.90487 0.34239 0.89351
 H2693 H 0.86364 0.31627 0.81806
 H2694 H 0.83717 0.29076 0.79068
 H2695 H 0.79188 0.33756 0.84115
 H2696 H 0.81838 0.36253 0.86877
 C2697 C 0.00077 0.50037 0.81423
 C2698 C 0.00067 0.52780 0.82970
 C2699 C 0.00048 0.52783 0.85991
 C2700 C 0.00034 0.50029 0.87567
 C2701 C 0.00050 0.47279 0.85989
 C2702 C 0.00071 0.47289 0.82968
 C2703 C 0.00085 0.50041 0.78208
 C2704 C 0.01265 0.47940 0.76663
 C2705 C 0.01266 0.47937 0.73641
 C2706 C 0.00086 0.50035 0.72090
 C2707 C -0.01092 0.52138 0.73636
 C2708 C -0.01093 0.52141 0.76657
 C2709 C 0.00080 0.50026 0.68876
 C2710 C 0.00070 0.52771 0.67319
 C2711 C 0.00053 0.52765 0.64298
 C2712 C 0.00043 0.50011 0.62756
 C2713 C 0.00059 0.47265 0.64315
 C2714 C 0.00077 0.47274 0.67337
 H2715 H 0.00099 0.54937 0.81843
 H2716 H 0.00046 0.54963 0.87077
 H2717 H 0.00038 0.45096 0.87073
 H2718 H 0.00053 0.45135 0.81839
 H2719 H 0.02214 0.46324 0.77791
 H2720 H 0.02215 0.46319 0.72517
 H2721 H -0.02043 0.53752 0.72508
 H2722 H -0.02044 0.53756 0.77780
 H2723 H 0.00100 0.54930 0.68438
 H2724 H 0.00050 0.54924 0.63174
 H2725 H 0.00048 0.45100 0.63204
 H2726 H 0.00059 0.45120 0.68470
 C2727 C 0.25105 0.75032 0.43760
 C2728 C 0.25098 0.77785 0.42221
 C2729 C 0.25077 0.77793 0.39205
 C2730 C 0.25064 0.75044 0.37656
 C2731 C 0.25078 0.72289 0.39199
 C2732 C 0.25098 0.72285 0.42216
 C2733 C 0.25111 0.75024 0.46964
 C2734 C 0.23910 0.72949 0.48506
 C2735 C 0.23908 0.72948 0.51522
 C2736 C 0.25106 0.75023 0.53063
 C2737 C 0.26309 0.77097 0.51522
 C2738 C 0.26311 0.77098 0.48504
 C2739 C 0.25097 0.75028 0.56267
 C2740 C 0.25087 0.77781 0.57802
 C2741 C 0.25062 0.77786 0.60819
 C2742 C 0.25048 0.75037 0.62370
 C2743 C 0.25065 0.72283 0.60830
 C2744 C 0.25088 0.72280 0.57814
 H2745 H 0.25078 0.79938 0.43352
 H2746 H 0.25063 0.79957 0.38089
 H2747 H 0.25077 0.70129 0.38080
 H2748 H 0.25130 0.70127 0.43342
 H2749 H 0.22945 0.71357 0.47378
 H2750 H 0.22941 0.71355 0.52651
 H2751 H 0.27271 0.78691 0.52650
 H2752 H 0.27275 0.78693 0.47375
 H2753 H 0.25068 0.79934 0.56668
 H2754 H 0.25047 0.79950 0.61932
 H2755 H 0.25064 0.70122 0.61953
 H2756 H 0.25123 0.70123 0.56690
 C2757 C 0.09338 0.59180 0.59577
 C2758 C 0.09828 0.57105 0.57379
 C2759 C 0.08308 0.55666 0.55797
 C2760 C 0.06261 0.56271 0.56374
 C2761 C 0.05774 0.58352 0.58571
 C2762 C 0.07295 0.59788 0.60154
 C2763 C 0.10954 0.60707 0.61259
 C2764 C 0.10752 0.61128 0.64256
 C2765 C 0.12270 0.62579 0.65834
 C2766 C 0.14024 0.63638 0.64451
 C2767 C 0.14226 0.63214 0.61456
 C2768 C 0.12709 0.61765 0.59878
 C2769 C 0.15632 0.65203 0.66116
 C2770 C 0.17678 0.64632 0.65521
 C2771 C 0.19194 0.66170 0.67022
 C2772 C 0.18700 0.68322 0.69154
 C2773 C 0.16652 0.68860 0.69779
 C2774 C 0.15136 0.67316 0.68278
 H2775 H 0.11388 0.56560 0.56909
 H2776 H 0.08741 0.54066 0.54131
 H2777 H 0.04215 0.58875 0.59077
 H2778 H 0.06870 0.61405 0.61808
 H2779 H 0.09432 0.60297 0.65388
 H2780 H 0.12084 0.62834 0.68145
 H2781 H 0.15543 0.64052 0.60321
 H2782 H 0.12894 0.61519 0.57566
 H2783 H 0.18108 0.62983 0.63898
 H2784 H 0.20753 0.65689 0.66486
 H2785 H 0.16215 0.70500 0.71406
 H2786 H 0.13573 0.67828 0.68766
 C2787 C 0.40626 0.90620 0.59315
 C2788 C 0.42667 0.90084 0.59965
 C2789 C 0.44191 0.91588 0.58446
 C2790 C 0.43709 0.93662 0.56238
 C2791 C 0.41665 0.94195 0.55588
 C2792 C 0.40141 0.92691 0.57111
 C2793 C 0.39009 0.89028 0.60937
 C2794 C 0.37257 0.90589 0.61793
 C2795 C 0.35738 0.89092 0.63329
 C2796 C 0.35937 0.86001 0.64043
 C2797 C 0.37689 0.84440 0.63186
 C2798 C 0.39208 0.85937 0.61649
 C2799 C 0.34323 0.84411 0.65672
 C2800 C 0.34812 0.82345 0.67879
 C2801 C 0.33291 0.80845 0.69411
 C2802 C 0.31246 0.81378 0.68768
 C2803 C 0.30760 0.83446 0.66557
 C2804 C 0.32281 0.84946 0.65028
 H2805 H 0.43086 0.88532 0.61680
 H2806 H 0.45748 0.91132 0.59017
 H2807 H 0.41237 0.95771 0.53898
 H2808 H 0.38582 0.93122 0.56537
 H2809 H 0.37075 0.92983 0.61315
 H2810 H 0.34419 0.90365 0.63999
 H2811 H 0.37871 0.82047 0.63664
 H2812 H 0.40527 0.84664 0.60980
 H2813 H 0.36372 0.81916 0.68447
 H2814 H 0.33722 0.79273 0.71103
 H2815 H 0.29202 0.83901 0.65992
 H2816 H 0.31859 0.86494 0.63312
 C2817 C 0.34326 0.65637 0.65691
 C2818 C 0.34815 0.67710 0.67890
 C2819 C 0.33295 0.69225 0.69413
 C2820 C 0.31248 0.68697 0.68776
 C2821 C 0.30761 0.66620 0.66575
 C2822 C 0.32282 0.65111 0.65052
 C2823 C 0.35941 0.64028 0.64071
 C2824 C 0.35778 0.63590 0.61072
 C2825 C 0.37295 0.62071 0.59548
 C2826 C 0.39011 0.60956 0.60987
 C2827 C 0.39174 0.61394 0.63985
 C2828 C 0.37656 0.62912 0.65509
 C2829 C 0.40627 0.59349 0.59366
 C2830 C 0.42670 0.59877 0.60007
 C2831 C 0.44192 0.58370 0.58484
 C2832 C 0.43707 0.56294 0.56282
 C2833 C 0.41661 0.55765 0.55643
 C2834 C 0.40139 0.57277 0.57166
 H2835 H 0.36376 0.68194 0.68408
 H2836 H 0.33728 0.70814 0.71086
 H2837 H 0.29203 0.66154 0.66025
 H2838 H 0.31856 0.63498 0.63395
 H2839 H 0.34490 0.64465 0.59895
 H2840 H 0.37141 0.61813 0.57233
 H2841 H 0.40461 0.60519 0.65163
 H2842 H 0.37811 0.63171 0.67825
 H2843 H 0.43095 0.61489 0.61665
 H2844 H 0.45750 0.58837 0.59036
 H2845 H 0.41229 0.54176 0.53968
 H2846 H 0.38578 0.56792 0.56646
 C2847 C 0.09324 0.90913 0.59553
 C2848 C 0.09808 0.92981 0.57344
 C2849 C 0.08286 0.94412 0.55757
 C2850 C 0.06240 0.93806 0.56340
 C2851 C 0.05757 0.91732 0.58549
 C2852 C 0.07281 0.90304 0.60136
 C2853 C 0.10943 0.89393 0.61238
 C2854 C 0.10744 0.88977 0.64237
 C2855 C 0.12265 0.87533 0.65818
 C2856 C 0.14020 0.86474 0.64436
 C2857 C 0.14219 0.86894 0.61439
 C2858 C 0.12698 0.88337 0.59859
 C2859 C 0.15630 0.84911 0.66103
 C2860 C 0.17675 0.85479 0.65502
 C2861 C 0.19193 0.83941 0.67005
 C2862 C 0.18701 0.81793 0.69144
 C2863 C 0.16653 0.81258 0.69775
 C2864 C 0.15136 0.82802 0.68272
 H2865 H 0.11368 0.93528 0.56869
 H2866 H 0.08716 0.96006 0.54083
 H2867 H 0.04199 0.91208 0.59059
 H2868 H 0.06859 0.88692 0.61799
 H2869 H 0.09423 0.89807 0.65368
 H2870 H 0.12081 0.87281 0.68130
 H2871 H 0.15536 0.86057 0.60304
 H2872 H 0.12881 0.88579 0.57545
 H2873 H 0.18104 0.87125 0.63874
 H2874 H 0.20752 0.84419 0.66466
 H2875 H 0.16217 0.79621 0.71407
 H2876 H 0.13574 0.82292 0.68764
 C2877 C 0.40645 0.59380 0.90688
 C2878 C 0.42689 0.59908 0.90043
 C2879 C 0.44211 0.58399 0.91565
 C2880 C 0.43726 0.56326 0.93774
 C2881 C 0.41679 0.55798 0.94418
 C2882 C 0.40158 0.57307 0.92892
 C2883 C 0.39028 0.60985 0.89065
 C2884 C 0.37263 0.59444 0.88231
 C2885 C 0.35744 0.60952 0.86702
 C2886 C 0.35954 0.64038 0.85970
 C2887 C 0.37719 0.65579 0.86803
 C2888 C 0.39238 0.64070 0.88333
 C2889 C 0.34336 0.65643 0.84348
 C2890 C 0.34823 0.67717 0.82145
 C2891 C 0.33301 0.69228 0.80621
 C2892 C 0.31254 0.68700 0.81266
 C2893 C 0.30770 0.66625 0.83474
 C2894 C 0.32293 0.65114 0.84994
 H2895 H 0.43113 0.61459 0.88329
 H2896 H 0.45769 0.58852 0.90998
 H2897 H 0.41248 0.54224 0.96108
 H2898 H 0.38598 0.56880 0.93465
 H2899 H 0.37070 0.57055 0.88722
 H2900 H 0.34417 0.59689 0.86051
 H2901 H 0.37911 0.67967 0.86313
 H2902 H 0.40565 0.65333 0.88984
 H2903 H 0.36383 0.68145 0.81571
 H2904 H 0.33732 0.70804 0.78932
 H2905 H 0.29212 0.66171 0.84042
 H2906 H 0.31869 0.63562 0.86707
 C2907 C 0.09289 0.90906 0.90502
 C2908 C 0.09768 0.92995 0.92686
 C2909 C 0.08246 0.94439 0.94265
 C2910 C 0.06186 0.93833 0.93708
 C2911 C 0.05719 0.91719 0.91509
 C2912 C 0.07248 0.90284 0.89934
 C2913 C 0.10912 0.89376 0.88824
 C2914 C 0.10711 0.88925 0.85831
 C2915 C 0.12236 0.87478 0.84257
 C2916 C 0.13999 0.86448 0.85639
 C2917 C 0.14200 0.86903 0.88631
 C2918 C 0.12675 0.88349 0.90204
 C2919 C 0.15615 0.84882 0.83977
 C2920 C 0.17660 0.85457 0.84570
 C2921 C 0.19181 0.83925 0.83066
 C2922 C 0.18695 0.81773 0.80931
 C2923 C 0.16647 0.81229 0.80310
 C2924 C 0.15126 0.82767 0.81814
 H2925 H 0.11327 0.93552 0.93150
 H2926 H 0.08700 0.96045 0.95915
 H2927 H 0.04169 0.91156 0.90983
 H2928 H 0.06830 0.88654 0.88289
 H2929 H 0.09386 0.89732 0.84696
 H2930 H 0.12049 0.87203 0.81949
 H2931 H 0.15522 0.86089 0.89769
 H2932 H 0.12862 0.88617 0.92513
 H2933 H 0.18087 0.87107 0.86193
 H2934 H 0.20740 0.84411 0.83600
 H2935 H 0.16213 0.79589 0.78682
 H2936 H 0.13565 0.82248 0.81326
 C2937 C 0.09332 0.59185 0.90471
 C2938 C 0.09817 0.57121 0.92682
 C2939 C 0.08295 0.55687 0.94266
 C2940 C 0.06249 0.56288 0.93677
 C2941 C 0.05766 0.58359 0.91466
 C2942 C 0.07290 0.59789 0.89882
 C2943 C 0.10951 0.60706 0.88789
 C2944 C 0.10760 0.61103 0.85789
 C2945 C 0.12282 0.62548 0.84210
 C2946 C 0.14027 0.63624 0.85598
 C2947 C 0.14218 0.63222 0.88598
 C2948 C 0.12697 0.61779 0.90175
 C2949 C 0.15637 0.65187 0.83935
 C2950 C 0.17681 0.64624 0.84541
 C2951 C 0.19199 0.66166 0.83043
 C2952 C 0.18707 0.68312 0.80903
 C2953 C 0.16660 0.68841 0.80266
 C2954 C 0.15143 0.67293 0.81764
 H2955 H 0.11377 0.56579 0.93160
 H2956 H 0.08724 0.54095 0.95942
 H2957 H 0.04209 0.58877 0.90952
 H2958 H 0.06870 0.61398 0.88217
 H2959 H 0.09446 0.60259 0.84654
 H2960 H 0.12106 0.62787 0.81896
 H2961 H 0.15529 0.64073 0.89735
 H2962 H 0.12872 0.61550 0.92491
 H2963 H 0.18109 0.62980 0.86172
 H2964 H 0.20758 0.65693 0.83586
 H2965 H 0.16224 0.70476 0.78632
 H2966 H 0.13580 0.67798 0.81269
 C2967 C 0.40680 0.90520 0.90732
 C2968 C 0.42722 0.89972 0.90087
 C2969 C 0.44250 0.91460 0.91614
 C2970 C 0.43772 0.93530 0.93825
 C2971 C 0.41727 0.94073 0.94471
 C2972 C 0.40201 0.92585 0.92942
 C2973 C 0.39057 0.88946 0.89101
 C2974 C 0.37304 0.90517 0.88266
 C2975 C 0.35778 0.89038 0.86729
 C2976 C 0.35970 0.85953 0.85991
 C2977 C 0.37724 0.84382 0.86826
 C2978 C 0.39250 0.85861 0.88364
 C2979 C 0.34347 0.84380 0.84360
 C2980 C 0.34827 0.82315 0.82150
 C2981 C 0.33301 0.80829 0.80619
 C2982 C 0.31256 0.81373 0.81263
 C2983 C 0.30778 0.83442 0.83475
 C2984 C 0.32305 0.84928 0.85003
 H2985 H 0.43140 0.88425 0.88370
 H2986 H 0.45806 0.90996 0.91045
 H2987 H 0.41301 0.95645 0.96163
 H2988 H 0.38642 0.93026 0.93515
 H2989 H 0.37125 0.92906 0.88762
 H2990 H 0.34459 0.90322 0.86078
 H2991 H 0.37903 0.81993 0.86331
 H2992 H 0.40568 0.84577 0.89015
 H2993 H 0.36386 0.81874 0.81578
 H2994 H 0.33727 0.79258 0.78926
 H2995 H 0.29221 0.83907 0.84042
 H2996 H 0.31887 0.86475 0.86721
 C2997 C 0.49864 0.49912 0.81287
 C2998 C 0.49877 0.52670 0.82813
 C2999 C 0.49905 0.52685 0.85829
 C3000 C 0.49922 0.49941 0.87388
 C3001 C 0.49903 0.47182 0.85857
 C3002 C 0.49876 0.47169 0.82841
 C3003 C 0.49849 0.49897 0.78084
 C3004 C 0.51047 0.47820 0.76542
 C3005 C 0.51043 0.47815 0.73526
 C3006 C 0.49839 0.49888 0.71986
 C3007 C 0.48638 0.51961 0.73527
 C3008 C 0.48642 0.51965 0.76544
 C3009 C 0.49847 0.49896 0.68783
 C3010 C 0.49856 0.52651 0.67247
 C3011 C 0.49881 0.52662 0.64231
 C3012 C 0.49896 0.49914 0.62681
 C3013 C 0.49878 0.47158 0.64221
 C3014 C 0.49855 0.47150 0.67237
 H3015 H 0.49894 0.54820 0.81673
 H3016 H 0.49923 0.54853 0.86936
 H3017 H 0.49906 0.45025 0.86986
 H3018 H 0.49840 0.45009 0.81724
 H3019 H 0.52017 0.46231 0.77670
 H3020 H 0.52008 0.46224 0.72397
 H3021 H 0.47672 0.53553 0.72398
 H3022 H 0.47680 0.53561 0.77673
 H3023 H 0.49875 0.54803 0.68380
 H3024 H 0.49897 0.54827 0.63118
 H3025 H 0.49881 0.44999 0.63099
 H3026 H 0.49821 0.44992 0.68362
 C3027 C 0.75105 0.75031 0.43762
 C3028 C 0.75096 0.77783 0.42222
 C3029 C 0.75075 0.77788 0.39205
 C3030 C 0.75064 0.75038 0.37658
 C3031 C 0.75082 0.72285 0.39203
 C3032 C 0.75101 0.72283 0.42220
 C3033 C 0.75108 0.75025 0.46965
 C3034 C 0.73908 0.72948 0.48506
 C3035 C 0.73904 0.72947 0.51523
 C3036 C 0.75101 0.75024 0.53065
 C3037 C 0.76302 0.77101 0.51524
 C3038 C 0.76306 0.77101 0.48507
 C3039 C 0.75090 0.75028 0.56268
 C3040 C 0.75078 0.77779 0.57805
 C3041 C 0.75052 0.77783 0.60822
 C3042 C 0.75039 0.75032 0.62372
 C3043 C 0.75059 0.72279 0.60830
 C3044 C 0.75083 0.72278 0.57814
 H3045 H 0.75074 0.79937 0.43351
 H3046 H 0.75059 0.79951 0.38087
 H3047 H 0.75083 0.70124 0.38085
 H3048 H 0.75136 0.70126 0.43347
 H3049 H 0.72945 0.71355 0.47378
 H3050 H 0.72939 0.71353 0.52650
 H3051 H 0.77263 0.78697 0.52654
 H3052 H 0.77269 0.78698 0.47379
 H3053 H 0.75057 0.79933 0.56673
 H3054 H 0.75034 0.79945 0.61937
 H3055 H 0.75059 0.70118 0.61950
 H3056 H 0.75120 0.70123 0.56689
 C3057 C 0.59326 0.59608 0.59159
 C3058 C 0.59823 0.57516 0.56979
 C3059 C 0.58308 0.56039 0.55416
 C3060 C 0.56258 0.56622 0.55996
 C3061 C 0.55764 0.58755 0.58145
 C3062 C 0.57280 0.60227 0.59708
 C3063 C 0.60934 0.61106 0.60883
 C3064 C 0.60702 0.61507 0.63878
 C3065 C 0.62219 0.62898 0.65506
 C3066 C 0.64004 0.63918 0.64178
 C3067 C 0.64235 0.63517 0.61183
 C3068 C 0.62718 0.62127 0.59555
 C3069 C 0.65614 0.65411 0.65902
 C3070 C 0.67659 0.64788 0.65351
 C3071 C 0.69176 0.66256 0.66913
 C3072 C 0.68686 0.68387 0.69066
 C3073 C 0.66637 0.68973 0.69648
 C3074 C 0.65120 0.67501 0.68086
 H3075 H 0.61385 0.56966 0.56525
 H3076 H 0.58746 0.54409 0.53781
 H3077 H 0.54204 0.59268 0.58649
 H3078 H 0.56849 0.61862 0.61344
 H3079 H 0.59360 0.60699 0.64973
 H3080 H 0.62008 0.63133 0.67815
 H3081 H 0.65577 0.64325 0.60088
 H3082 H 0.62929 0.61891 0.57246
 H3083 H 0.68088 0.63155 0.63713
 H3084 H 0.70736 0.65741 0.66408
 H3085 H 0.66201 0.70603 0.71286
 H3086 H 0.63558 0.68053 0.68542
 C3087 C 0.90596 0.90220 0.58894
 C3088 C 0.92637 0.89670 0.59537
 C3089 C 0.94163 0.91204 0.58048
 C3090 C 0.93685 0.93326 0.55879
 C3091 C 0.91641 0.93839 0.55207
 C3092 C 0.90116 0.92305 0.56699
 C3093 C 0.88974 0.88667 0.60547
 C3094 C 0.87242 0.90272 0.61415
 C3095 C 0.85727 0.88830 0.63008
 C3096 C 0.85909 0.85749 0.63768
 C3097 C 0.87638 0.84141 0.62894
 C3098 C 0.89154 0.85585 0.61301
 C3099 C 0.84299 0.84222 0.65466
 C3100 C 0.84794 0.82177 0.67689
 C3101 C 0.83278 0.80740 0.69285
 C3102 C 0.81229 0.81315 0.68694
 C3103 C 0.80737 0.83365 0.66470
 C3104 C 0.82254 0.84801 0.64877
 H3105 H 0.93054 0.88103 0.61240
 H3106 H 0.95719 0.90756 0.58630
 H3107 H 0.91215 0.95443 0.53539
 H3108 H 0.88557 0.92742 0.56125
 H3109 H 0.87075 0.92662 0.60910
 H3110 H 0.84428 0.90142 0.63688
 H3111 H 0.87807 0.81754 0.63407
 H3112 H 0.90457 0.84277 0.60628
 H3113 H 0.86357 0.81714 0.68218
 H3114 H 0.83714 0.79178 0.70983
 H3115 H 0.79177 0.83850 0.65941
 H3116 H 0.81824 0.86333 0.63152
 C3117 C 0.90616 0.59856 0.58929
 C3118 C 0.92657 0.60406 0.59570
 C3119 C 0.94185 0.58868 0.58086
 C3120 C 0.93707 0.56742 0.55924
 C3121 C 0.91663 0.56229 0.55254
 C3122 C 0.90137 0.57768 0.56740
 C3123 C 0.88992 0.61414 0.60576
 C3124 C 0.87257 0.59814 0.61441
 C3125 C 0.85740 0.61261 0.63025
 C3126 C 0.85923 0.64341 0.63782
 C3127 C 0.87656 0.65943 0.62913
 C3128 C 0.89174 0.64495 0.61328
 C3129 C 0.84310 0.65873 0.65473
 C3130 C 0.84802 0.67920 0.67692
 C3131 C 0.83283 0.69357 0.69284
 C3132 C 0.81235 0.68781 0.68691
 C3133 C 0.80746 0.66732 0.66469
 C3134 C 0.82265 0.65295 0.64881
 H3135 H 0.93075 0.61975 0.61268
 H3136 H 0.95740 0.59314 0.58668
 H3137 H 0.91237 0.54623 0.53591
 H3138 H 0.88579 0.57330 0.56166
 H3139 H 0.87088 0.57425 0.60939
 H3140 H 0.84438 0.59952 0.63702
 H3141 H 0.87826 0.68330 0.63424
 H3142 H 0.90480 0.65800 0.60658
 H3143 H 0.86364 0.68382 0.68224
 H3144 H 0.83718 0.70919 0.70980
 H3145 H 0.79187 0.66246 0.65938
 H3146 H 0.81838 0.63762 0.63158
 C3147 C 0.59322 0.90358 0.59135
 C3148 C 0.59818 0.92442 0.56947
 C3149 C 0.58302 0.93910 0.55380
 C3150 C 0.56254 0.93323 0.55966
 C3151 C 0.55762 0.91192 0.58120
 C3152 C 0.57278 0.89729 0.59687
 C3153 C 0.60930 0.88884 0.60871
 C3154 C 0.60701 0.88527 0.63871
 C3155 C 0.62221 0.87164 0.65513
 C3156 C 0.64004 0.86132 0.64192
 C3157 C 0.64232 0.86489 0.61192
 C3158 C 0.62712 0.87851 0.59549
 C3159 C 0.65614 0.84664 0.65928
 C3160 C 0.67656 0.85298 0.65374
 C3161 C 0.69175 0.83840 0.66941
 C3162 C 0.68686 0.81708 0.69096
 C3163 C 0.66639 0.81116 0.69684
 C3164 C 0.65121 0.82579 0.68117
 H3165 H 0.61379 0.92996 0.56492
 H3166 H 0.58738 0.95539 0.53739
 H3167 H 0.54202 0.90678 0.58626
 H3168 H 0.56852 0.88098 0.61331
 H3169 H 0.59359 0.89347 0.64957
 H3170 H 0.62015 0.86959 0.67826
 H3171 H 0.65575 0.85669 0.60106
 H3172 H 0.62919 0.88056 0.57237
 H3173 H 0.68081 0.86930 0.63730
 H3174 H 0.70734 0.84358 0.66433
 H3175 H 0.66206 0.79486 0.71325
 H3176 H 0.63560 0.82022 0.68573
 C3177 C 0.90611 0.59864 0.91112
 C3178 C 0.92653 0.60417 0.90475
 C3179 C 0.94178 0.58882 0.91964
 C3180 C 0.93698 0.56755 0.94128
 C3181 C 0.91654 0.56238 0.94795
 C3182 C 0.90129 0.57774 0.93303
 C3183 C 0.88991 0.61417 0.89458
 C3184 C 0.87261 0.59812 0.88586
 C3185 C 0.85747 0.61255 0.86994
 C3186 C 0.85927 0.64337 0.86237
 C3187 C 0.87655 0.65945 0.87113
 C3188 C 0.89170 0.64500 0.88706
 C3189 C 0.84317 0.65866 0.84544
 C3190 C 0.84810 0.67918 0.82324
 C3191 C 0.83291 0.69355 0.80732
 C3192 C 0.81244 0.68775 0.81325
 C3193 C 0.80754 0.66719 0.83546
 C3194 C 0.82272 0.65283 0.85134
 H3195 H 0.93072 0.61987 0.88775
 H3196 H 0.95735 0.59331 0.91385
 H3197 H 0.91226 0.54630 0.96459
 H3198 H 0.88570 0.57333 0.93873
 H3199 H 0.87095 0.57421 0.89089
 H3200 H 0.84449 0.59943 0.86312
 H3201 H 0.87823 0.68333 0.86602
 H3202 H 0.90472 0.65808 0.89381
 H3203 H 0.86372 0.68385 0.81794
 H3204 H 0.83726 0.70922 0.79037
 H3205 H 0.79194 0.66229 0.84077
 H3206 H 0.81844 0.63746 0.86857
 C3207 C 0.59295 0.90356 0.91014
 C3208 C 0.59784 0.92499 0.93146
 C3209 C 0.58269 0.93975 0.94713
 C3210 C 0.56206 0.93352 0.94191
 C3211 C 0.55731 0.91140 0.92084
 C3212 C 0.57253 0.89676 0.90520
 C3213 C 0.60906 0.88867 0.89279
 C3214 C 0.60653 0.88407 0.86296
 C3215 C 0.62174 0.87033 0.84656
 C3216 C 0.63984 0.86085 0.85960
 C3217 C 0.64236 0.86543 0.88944
 C3218 C 0.62716 0.87919 0.90584
 C3219 C 0.65598 0.84605 0.84222
 C3220 C 0.67643 0.85269 0.84735
 C3221 C 0.69163 0.83817 0.83159
 C3222 C 0.68677 0.81660 0.81028
 C3223 C 0.66629 0.81031 0.80484
 C3224 C 0.65110 0.82486 0.82062
 H3225 H 0.61344 0.93092 0.93560
 H3226 H 0.58729 0.95640 0.96305
 H3227 H 0.54180 0.90548 0.91600
 H3228 H 0.56828 0.87996 0.88925
 H3229 H 0.59291 0.89159 0.85217
 H3230 H 0.61944 0.86755 0.82356
 H3231 H 0.65598 0.85791 0.90024
 H3232 H 0.62946 0.88200 0.92884
 H3233 H 0.68069 0.86925 0.86353
 H3234 H 0.70722 0.84366 0.83635
 H3235 H 0.66196 0.79379 0.78866
 H3236 H 0.63551 0.81898 0.81634
 C3237 C 0.59348 0.59611 0.90908
 C3238 C 0.59842 0.57526 0.93096
 C3239 C 0.58324 0.56056 0.94662
 C3240 C 0.56277 0.56642 0.94075
 C3241 C 0.55786 0.58771 0.91919
 C3242 C 0.57304 0.60236 0.90354
 C3243 C 0.60957 0.61094 0.89177
 C3244 C 0.60731 0.61464 0.86178
 C3245 C 0.62250 0.62842 0.84542
 C3246 C 0.64028 0.63878 0.85868
 C3247 C 0.64255 0.63506 0.88866
 C3248 C 0.62737 0.62128 0.90503
 C3249 C 0.65636 0.65366 0.84138
 C3250 C 0.67680 0.64746 0.84689
 C3251 C 0.69196 0.66219 0.83125
 C3252 C 0.68702 0.68351 0.80974
 C3253 C 0.66653 0.68932 0.80389
 C3254 C 0.65138 0.67455 0.81953
 H3255 H 0.61403 0.56975 0.93553
 H3256 H 0.58759 0.54429 0.96304
 H3257 H 0.54227 0.59285 0.91412
 H3258 H 0.56878 0.61868 0.88710
 H3259 H 0.59392 0.60643 0.85088
 H3260 H 0.62044 0.63057 0.82230
 H3261 H 0.65594 0.64328 0.89956
 H3262 H 0.62942 0.61914 0.92814
 H3263 H 0.68109 0.63113 0.86330
 H3264 H 0.70756 0.65709 0.83631
 H3265 H 0.66216 0.70561 0.78751
 H3266 H 0.63576 0.68002 0.81498
 C3267 C 0.90650 0.90157 0.91053
 C3268 C 0.92690 0.89613 0.90390
 C3269 C 0.94222 0.91140 0.91871
 C3270 C 0.93750 0.93248 0.94051
 C3271 C 0.91709 0.93755 0.94744
 C3272 C 0.90178 0.92228 0.93262
 C3273 C 0.89021 0.88613 0.89412
 C3274 C 0.87283 0.90220 0.88572
 C3275 C 0.85760 0.88785 0.86994
 C3276 C 0.85939 0.85710 0.86219
 C3277 C 0.87675 0.84100 0.87064
 C3278 C 0.89199 0.85536 0.88642
 C3279 C 0.84321 0.84191 0.84533
 C3280 C 0.84807 0.82159 0.82298
 C3281 C 0.83284 0.80731 0.80712
 C3282 C 0.81238 0.81301 0.81325
 C3283 C 0.80754 0.83337 0.83562
 C3284 C 0.82278 0.84765 0.85145
 H3285 H 0.93101 0.88057 0.88677
 H3286 H 0.95776 0.90699 0.91272
 H3287 H 0.91288 0.95347 0.96422
 H3288 H 0.88622 0.92660 0.93853
 H3289 H 0.87117 0.92607 0.89089
 H3290 H 0.84456 0.90100 0.86337
 H3291 H 0.87842 0.81716 0.86538
 H3292 H 0.90507 0.84226 0.89292
 H3293 H 0.86368 0.81700 0.81751
 H3294 H 0.83715 0.79179 0.79004
 H3295 H 0.79196 0.83818 0.84108
 H3296 H 0.81855 0.86287 0.86880
   
