data_POSCAR
  _audit_creation_date              2014-09-24
  _audit_creation_method            'ToBaCCo'
  _symmetry_space_group_name_H-M    'P1'
  _symmetry_Int_Tables_number       1
  _symmetry_cell_setting            triclinic
  loop_
  _symmetry_equiv_pos_as_xyz
 x,y,z
_cell_length_a 51.3267
_cell_length_b 51.5655
_cell_length_c 50.4589
_cell_angle_alpha 89.993300
_cell_angle_beta 89.967300
_cell_angle_gamma 89.938300
loop_
  _atom_site_label
  _atom_site_type_symbol
  _atom_site_fract_x
  _atom_site_fract_y
  _atom_site_fract_z
C1 C 0.29416 0.98678 0.06497
 C2 C 0.29600 1.01334 0.06528
 C3 C 0.28318 1.02234 0.04285
 N4 N 0.27397 1.00207 0.02867
 C5 C 0.28059 0.98037 0.04222
 C6 C 0.27988 1.04879 0.03569
 C7 C 0.27429 1.05645 0.00919
 C8 C 0.26616 1.08105 0.00161
 C9 C 0.26542 1.08138 -0.02552
 C10 C 0.27215 1.05669 -0.03417
 N11 N 0.27780 1.04173 -0.01275
 C12 C 0.27596 1.04925 -0.06110
 C13 C 0.27986 1.02314 -0.06868
 C14 C 0.28630 1.01460 -0.09401
 C15 C 0.28336 0.98820 -0.09402
 C16 C 0.27515 0.98145 -0.06882
 N17 N 0.27301 1.00274 -0.05344
 C18 C 0.26733 0.95644 -0.06105
 C19 C 0.26260 0.94982 -0.03435
 C20 C 0.24953 0.92779 -0.02584
 C21 C 0.25145 0.92733 0.00132
 C22 C 0.26524 0.94931 0.00859
 N23 N 0.27184 0.96297 -0.01320
 C24 C 0.27369 0.95498 0.03445
 H25 H 0.30235 0.97371 0.07954
 H26 H 0.30622 1.02462 0.08005
 H27 H 0.28482 0.97847 -0.01365
 H28 H 0.26163 1.09747 0.01413
 H29 H 0.26134 1.09849 -0.03713
 H30 H 0.29162 1.02605 -0.11112
 H31 H 0.28629 0.97552 -0.11086
 H32 H 0.24380 0.91241 0.01425
 H33 H 0.28661 1.02357 -0.01308
 H34 H 0.23996 0.91331 -0.03791
 C35 C 0.72063 0.47361 0.57909
 C36 C 0.71994 0.49998 0.58226
 C37 C 0.71328 0.51042 0.55787
 N38 N 0.71001 0.49120 0.53990
 C39 C 0.71485 0.46864 0.55272
 C40 C 0.70921 0.53717 0.55299
 C41 C 0.70316 0.54733 0.52763
 C42 C 0.69290 0.57183 0.52302
 C43 C 0.69104 0.57472 0.49598
 C44 C 0.69998 0.55184 0.48480
 N45 N 0.70744 0.53530 0.50419
 C46 C 0.70286 0.54756 0.45732
 C47 C 0.70714 0.52296 0.44587
 C48 C 0.71212 0.51869 0.41920
 C49 C 0.71376 0.49240 0.41591
 C50 C 0.70950 0.48143 0.44062
 N51 N 0.70528 0.50014 0.45888
 C52 C 0.70846 0.45454 0.44561
 C53 C 0.70617 0.44378 0.47129
 C54 C 0.69961 0.41822 0.47651
 C55 C 0.70056 0.41516 0.50356
 C56 C 0.70756 0.43899 0.51420
 N57 N 0.71110 0.45626 0.49435
 C58 C 0.71241 0.44356 0.54142
 H59 H 0.72460 0.45981 0.59472
 H60 H 0.72363 0.51020 0.60060
 H61 H 0.71935 0.47453 0.49620
 H62 H 0.68736 0.58621 0.53759
 H63 H 0.68405 0.59180 0.48573
 H64 H 0.71418 0.53295 0.40361
 H65 H 0.71753 0.48255 0.39737
 H66 H 0.69679 0.39728 0.51410
 H67 H 0.71771 0.51815 0.50150
 H68 H 0.69478 0.40325 0.46231
 C69 C 0.75790 0.91863 0.98253
 C70 C 0.75845 0.91732 1.00958
 C71 C 0.75349 0.94218 1.01903
 N72 N 0.75039 0.95867 0.99839
 C73 C 0.75325 0.94431 0.97607
 C74 C 0.75074 0.94894 1.04622
 C75 C 0.74993 0.97534 1.05474
 C76 C 0.74036 0.98406 1.07893
 C77 C 0.74413 1.01049 1.07974
 C78 C 0.75509 1.01750 1.05571
 N79 N 0.75859 0.99601 1.04062
 C80 C 0.76360 1.04278 1.04896
 C81 C 0.76904 1.05028 1.02265
 C82 C 0.78241 1.07250 1.01543
 C83 C 0.78147 1.07382 0.98831
 C84 C 0.76683 1.05279 0.97982
 N85 N 0.75952 1.03825 1.00090
 C86 C 0.75977 1.04733 0.95318
 C87 C 0.75138 1.02221 0.94547
 C88 C 0.73878 1.01637 0.92182
 C89 C 0.73592 0.98994 0.92095
 C90 C 0.74637 0.98027 0.94426
 N91 N 0.75570 1.00002 0.95915
 C92 C 0.74933 0.95369 0.95007
 H93 H 0.76032 0.90230 0.96933
 H94 H 0.76217 0.89984 1.02081
 H95 H 0.76715 0.99810 0.97606
 H96 H 0.73129 0.97275 1.09443
 H97 H 0.73921 1.02301 1.09620
 H98 H 0.79199 1.08628 1.02831
 H99 H 0.79083 1.08850 0.97633
 H100 H 0.72728 0.97915 0.90482
 H101 H 0.76881 0.99529 1.02280
 H102 H 0.73233 1.02966 0.90658
 C103 C 0.22564 0.41895 0.46686
 C104 C 0.22478 0.41685 0.49394
 C105 C 0.22874 0.44157 0.50400
 N106 N 0.23228 0.45858 0.48395
 C107 C 0.23022 0.44485 0.46124
 C108 C 0.23083 0.44767 0.53122
 C109 C 0.23258 0.47337 0.54114
 C110 C 0.23812 0.47981 0.56724
 C111 C 0.23651 0.50635 0.56914
 C112 C 0.22971 0.51556 0.54425
 N113 N 0.22721 0.49531 0.52737
 C114 C 0.22467 0.54198 0.53833
 C115 C 0.22129 0.55171 0.51229
 C116 C 0.21254 0.57645 0.50607
 C117 C 0.21289 0.57841 0.47894
 C118 C 0.22162 0.55476 0.46947
 N119 N 0.22691 0.53855 0.48985
 C120 C 0.22551 0.54879 0.44246
 C121 C 0.23170 0.52379 0.43309
 C122 C 0.24098 0.51855 0.40782
 C123 C 0.24330 0.49212 0.40589
 C124 C 0.23529 0.48192 0.43000
 N125 N 0.22814 0.50135 0.44645
 C126 C 0.23360 0.45517 0.43555
 H127 H 0.22330 0.40318 0.45292
 H128 H 0.22184 0.39907 0.50494
 H129 H 0.21853 0.49932 0.46442
 H130 H 0.24247 0.46687 0.58351
 H131 H 0.23966 0.51753 0.58700
 H132 H 0.20636 0.59153 0.51961
 H133 H 0.20723 0.59525 0.46750
 H134 H 0.24999 0.48162 0.38860
 H135 H 0.21941 0.49620 0.50847
 H136 H 0.24554 0.53233 0.39232
 C137 C 0.97829 0.23956 0.08196
 C138 C 1.00472 0.24141 0.08556
 C139 C 1.01616 0.23808 0.06078
 N140 N 0.99746 0.23468 0.04223
 C141 C 0.97438 0.23569 0.05514
 C142 C 1.04327 0.23678 0.05539
 C143 C 1.05228 0.23444 0.02891
 C144 C 1.07426 0.22081 0.02105
 C145 C 1.07702 0.22471 -0.00573
 C146 C 1.05649 0.24048 -0.01364
 N147 N 1.04114 0.24583 0.00755
 C148 C 1.05318 0.25094 -0.03943
 C149 C 1.02871 0.26097 -0.04737
 C150 C 1.02459 0.27983 -0.06650
 C151 C 0.99812 0.28277 -0.06881
 C152 C 0.98689 0.26577 -0.05081
 N153 N 1.00566 0.25269 -0.03752
 C154 C 0.95987 0.26131 -0.04752
 C155 C 0.95080 0.24711 -0.02533
 C156 C 0.92837 0.23209 -0.02433
 C157 C 0.92560 0.22399 0.00147
 C158 C 0.94668 0.23380 0.01533
 N159 N 0.96222 0.24743 -0.00121
 C160 C 0.94994 0.23221 0.04300
 H161 H 0.96362 0.24124 0.09728
 H162 H 1.01407 0.24487 0.10441
 H163 H 0.97798 0.25900 0.00426
 H164 H 1.08695 0.20911 0.03332
 H165 H 1.09237 0.21666 -0.01791
 H166 H 1.03911 0.29075 -0.07731
 H167 H 0.98843 0.29626 -0.08194
 H168 H 0.90977 0.21238 0.00922
 H169 H 1.02555 0.25881 0.00803
 H170 H 0.91525 0.22751 -0.04044
 C171 C 0.48009 0.72661 0.58565
 C172 C 0.50661 0.72863 0.58815
 C173 C 0.51710 0.72333 0.56341
 N174 N 0.49784 0.71813 0.54593
 C175 C 0.47515 0.72048 0.55936
 C176 C 0.54405 0.72237 0.55767
 C177 C 0.55411 0.71790 0.53194
 C178 C 0.57950 0.71035 0.52643
 C179 C 0.58184 0.70939 0.49929
 C180 C 0.55777 0.71618 0.48897
 N181 N 0.54102 0.72144 0.50897
 C182 C 0.55242 0.71916 0.46172
 C183 C 0.52717 0.72143 0.45104
 C184 C 0.52172 0.72731 0.42479
 C185 C 0.49518 0.72679 0.42226
 C186 C 0.48532 0.72038 0.44699
 N187 N 0.50491 0.71690 0.46449
 C188 C 0.45869 0.71705 0.45275
 C189 C 0.44908 0.71202 0.47845
 C190 C 0.42431 0.70286 0.48397
 C191 C 0.42198 0.70225 0.51108
 C192 C 0.44545 0.71102 0.52141
 N193 N 0.46182 0.71697 0.50134
 C194 C 0.45015 0.71577 0.54857
 H195 H 0.46617 0.72914 0.60154
 H196 H 0.51693 0.73327 0.60623
 H197 H 0.47919 0.72709 0.50308
 H198 H 0.59483 0.70605 0.54048
 H199 H 0.59932 0.70443 0.48840
 H200 H 0.53540 0.73155 0.40905
 H201 H 0.48443 0.73063 0.40423
 H202 H 0.40470 0.69651 0.52188
 H203 H 0.52279 0.72997 0.50702
 H204 H 0.40933 0.69750 0.46991
 C205 C -0.00311 0.78175 -0.07169
 C206 C 0.02334 0.78016 -0.06821
 C207 C 0.02743 0.76463 -0.04617
 N208 N 0.00438 0.75747 -0.03558
 C209 C -0.01438 0.76779 -0.05115
 C210 C 0.05184 0.75560 -0.03686
 C211 C 0.05511 0.74874 -0.00984
 C212 C 0.07588 0.73472 0.00054
 C213 C 0.07245 0.73394 0.02756
 C214 C 0.04968 0.74739 0.03299
 N215 N 0.03909 0.75611 0.01013
 C216 C 0.04012 0.75303 0.05861
 C217 C 0.01357 0.75870 0.06319
 C218 C 0.00369 0.76901 0.08643
 C219 C -0.02279 0.77065 0.08316
 C220 C -0.02839 0.76068 0.05823
 N221 N -0.00600 0.75363 0.04595
 C222 C -0.05376 0.75808 0.04713
 C223 C -0.05782 0.75460 0.01945
 C224 C -0.08132 0.74753 0.00795
 C225 C -0.07798 0.74858 -0.01896
 C226 C -0.05214 0.75526 -0.02363
 N227 N -0.04019 0.75924 0.00006
 C228 C -0.04099 0.76115 -0.04884
 H229 H -0.01271 0.79213 -0.08754
 H230 H 0.03787 0.78928 -0.08064
 H231 H -0.02198 0.76760 0.00284
 H232 H 0.09187 0.72585 -0.01010
 H233 H 0.08531 0.72456 0.04161
 H234 H 0.01447 0.77521 0.10373
 H235 H -0.03622 0.77883 0.09742
 H236 H -0.09367 0.74613 -0.03295
 H237 H 0.02338 0.76884 0.00862
 H238 H -0.09945 0.74271 0.01771
 C239 C 0.58747 0.20865 0.52181
 C240 C 0.58916 0.20840 0.49464
 C241 C 0.56453 0.21427 0.48518
 N242 N 0.54796 0.21840 0.50561
 C243 C 0.56187 0.21481 0.52806
 C244 C 0.55782 0.21634 0.45811
 C245 C 0.53197 0.21912 0.44895
 C246 C 0.52533 0.22639 0.42335
 C247 C 0.49867 0.22546 0.42177
 C248 C 0.48968 0.21760 0.44643
 N249 N 0.51011 0.21367 0.46287
 C250 C 0.46319 0.21320 0.45257
 C251 C 0.45361 0.21035 0.47865
 C252 C 0.42833 0.20336 0.48515
 C253 C 0.42656 0.20455 0.51224
 C254 C 0.45091 0.21192 0.52144
 N255 N 0.46731 0.21564 0.50084
 C256 C 0.45705 0.21687 0.54825
 C257 C 0.48279 0.22098 0.55760
 C258 C 0.48917 0.22808 0.58333
 C259 C 0.51587 0.22830 0.58490
 C260 C 0.52526 0.22112 0.56018
 N261 N 0.50498 0.21653 0.54374
 C262 C 0.55197 0.21767 0.55410
 H263 H 0.60328 0.20459 0.53537
 H264 H 0.60648 0.20416 0.48319
 H265 H 0.50629 0.20800 0.52520
 H266 H 0.53837 0.23175 0.40740
 H267 H 0.48722 0.22998 0.40436
 H268 H 0.41270 0.19816 0.47179
 H269 H 0.40922 0.20059 0.52376
 H270 H 0.52707 0.23289 0.60245
 H271 H 0.50936 0.20488 0.48135
 H272 H 0.47612 0.23211 0.59964
 C273 C 0.99593 0.07778 0.23779
 C274 C 1.02213 0.07535 0.23293
 C275 C 1.02908 0.05025 0.24002
 N276 N 1.00781 0.03711 0.24828
 C277 C 0.98757 0.05387 0.24688
 C278 C 1.05467 0.03979 0.23956
 C279 C 1.05919 0.01261 0.23911
 C280 C 1.08307 0.00074 0.24391
 C281 C 1.07958 -0.02541 0.24039
 C282 C 1.05359 -0.02900 0.23398
 N283 N 1.04132 -0.00576 0.23308
 C284 C 1.04224 -0.05304 0.22725
 C285 C 1.01521 -0.05681 0.22607
 C286 C 1.00304 -0.07772 0.21422
 C287 C 0.97700 -0.07532 0.21986
 C288 C 0.97433 -0.05352 0.23582
 N289 N 0.99774 -0.04206 0.23923
 C290 C 0.95103 -0.04474 0.24798
 C291 C 0.94857 -0.01891 0.25729
 C292 C 0.92907 -0.00994 0.27413
 C293 C 0.93230 0.01638 0.27638
 C294 C 0.95394 0.02275 0.26132
 N295 N 0.96381 0.00120 0.24984
 C296 C 0.96223 0.04819 0.25587
 H297 H 0.98445 0.09515 0.23491
 H298 H 1.03452 0.09038 0.22490
 H299 H 0.97797 0.00089 0.23507
 H300 H 1.10126 0.00984 0.24945
 H301 H 1.09463 -0.04001 0.24219
 H302 H 1.01199 -0.09298 0.20263
 H303 H 0.96188 -0.08818 0.21282
 H304 H 0.91987 0.02934 0.28756
 H305 H 1.02252 -0.00250 0.22612
 H306 H 0.91386 -0.02104 0.28369
 C307 C 0.49130 0.58976 0.71146
 C308 C 0.51761 0.58723 0.70733
 C309 C 0.52384 0.56166 0.71298
 N310 N 0.50230 0.54851 0.72042
 C311 C 0.48238 0.56563 0.71946
 C312 C 0.54924 0.55116 0.71272
 C313 C 0.55441 0.52430 0.71432
 C314 C 0.57878 0.51371 0.71926
 C315 C 0.57602 0.48727 0.71803
 C316 C 0.55003 0.48238 0.71238
 N317 N 0.53698 0.50507 0.71004
 C318 C 0.53950 0.45739 0.70829
 C319 C 0.51252 0.45216 0.70813
 C320 C 0.50132 0.42891 0.70044
 C321 C 0.47494 0.43155 0.70428
 C322 C 0.47101 0.45623 0.71442
 N323 N 0.49400 0.46874 0.71679
 C324 C 0.44681 0.46654 0.72262
 C325 C 0.44362 0.49262 0.73036
 C326 C 0.42299 0.50181 0.74540
 C327 C 0.42591 0.52822 0.74704
 C328 C 0.44803 0.53448 0.73258
 N329 N 0.45891 0.51261 0.72273
 C330 C 0.45660 0.56001 0.72723
 H331 H 0.48010 0.60737 0.70889
 H332 H 0.53065 0.60248 0.70095
 H333 H 0.47386 0.51170 0.70882
 H334 H 0.59674 0.52395 0.72330
 H335 H 0.59147 0.47326 0.72095
 H336 H 0.51112 0.41189 0.69280
 H337 H 0.46040 0.41692 0.70016
 H338 H 0.41301 0.54130 0.75750
 H339 H 0.51804 0.50732 0.70317
 H340 H 0.40741 0.49064 0.75425
 C341 C 0.91311 0.99178 0.78103
 C342 C 0.91294 1.01831 0.78212
 C343 C 0.93850 1.02585 0.78570
 N344 N 0.95446 1.00507 0.78703
 C345 C 0.93886 0.98416 0.78407
 C346 C 0.94639 1.05339 0.79041
 C347 C 0.97549 1.05829 0.79180
 C348 C 0.98610 1.08033 0.80296
 C349 C 1.01192 1.08061 0.79598
 C350 C 1.01628 1.05864 0.78088
 N351 N 0.99405 1.04474 0.77868
 C352 C 1.04080 1.05449 0.76506
 C353 C 1.04462 1.02651 0.75501
 C354 C 1.06198 1.01947 0.73534
 C355 C 1.06187 0.99290 0.73439
 C356 C 1.04439 0.98472 0.75344
 N357 N 1.03364 1.00525 0.76607
 C358 C 1.04025 0.95612 0.76134
 C359 C 1.01505 0.95084 0.77564
 C360 C 1.00971 0.92753 0.78810
 C361 C 0.98376 0.92793 0.79463
 C362 C 0.97398 0.95145 0.78580
 N363 N 0.99328 0.96557 0.77456
 C364 C 0.94737 0.95828 0.78587
 H365 H 0.89618 0.97952 0.77857
 H366 H 0.89595 1.03068 0.78092
 H367 H 0.99089 0.98250 0.76356
 H368 H 0.97599 1.09520 0.81406
 H369 H 1.02569 1.09589 0.80040
 H370 H 1.07318 1.03210 0.72262
 H371 H 1.07295 0.98104 0.72079
 H372 H 0.97312 0.91234 0.80406
 H373 H 0.99084 1.02946 0.76559
 H374 H 1.02297 0.91148 0.79119
 C375 C 0.41727 0.48986 0.25981
 C376 C 0.41829 0.51617 0.25643
 C377 C 0.44441 0.52306 0.25678
 N378 N 0.45932 0.50172 0.26060
 C379 C 0.44277 0.48136 0.26248
 C380 C 0.45371 0.54865 0.25272
 C381 C 0.48052 0.55558 0.25170
 C382 C 0.48954 0.57918 0.24227
 C383 C 0.51626 0.57824 0.24298
 C384 C 0.52316 0.55410 0.25293
 N385 N 0.50118 0.54047 0.25848
 C386 C 0.54936 0.54536 0.25572
 C387 C 0.55657 0.51903 0.25980
 C388 C 0.58208 0.51026 0.26174
 C389 C 0.58097 0.48386 0.26480
 C390 C 0.55484 0.47717 0.26481
 N391 N 0.53998 0.49872 0.26181
 C392 C 0.54537 0.45171 0.26926
 C393 C 0.51863 0.44534 0.27189
 C394 C 0.50964 0.42178 0.28152
 C395 C 0.48297 0.42280 0.28104
 C396 C 0.47613 0.44681 0.27077
 N397 N 0.49803 0.46044 0.26511
 C398 C 0.45003 0.45522 0.26707
 H399 H 0.39963 0.47840 0.26027
 H400 H 0.40156 0.52870 0.25381
 H401 H 0.49890 0.47800 0.25511
 H402 H 0.47812 0.59522 0.23475
 H403 H 0.52908 0.59342 0.23602
 H404 H 0.59978 0.52163 0.26120
 H405 H 0.59759 0.47117 0.26734
 H406 H 0.47013 0.40759 0.28791
 H407 H 0.50032 0.52254 0.26778
 H408 H 0.52105 0.40551 0.28854
 O409 O 0.25301 0.17161 0.21872
 O410 O 0.27542 0.16320 0.25844
 O411 O 0.18617 0.21484 0.24599
 O412 O 0.17807 0.25166 0.26673
 O413 O 0.23005 0.24051 0.17732
 O414 O 0.27000 0.26316 0.17223
 O415 O 0.25654 0.28041 0.31642
 O416 O 0.22104 0.25228 0.32190
 O417 O 0.32013 0.23667 0.29454
 O418 O 0.32909 0.20414 0.26024
 O419 O 0.30164 0.30330 0.25133
 O420 O 0.27028 0.31447 0.21799
 O421 O 0.26402 0.30942 0.28333
 O422 O 0.23807 0.31766 0.24087
 O423 O 0.32862 0.26875 0.25677
 O424 O 0.33453 0.22833 0.22974
 O425 O 0.28572 0.24220 0.32239
 O426 O 0.24510 0.21719 0.32711
 O427 O 0.26181 0.19954 0.18495
 O428 O 0.29527 0.23205 0.17855
 O429 O 0.19563 0.24639 0.20511
 O430 O 0.19048 0.28116 0.23898
 O431 O 0.21263 0.17975 0.25108
 O432 O 0.24485 0.17011 0.28483
 Zr433 Zr 0.25056 0.19535 0.25231
 O434 O 0.27523 0.21590 0.27802
 Zr435 Zr 0.21190 0.24629 0.24339
 O436 O 0.23423 0.26884 0.26976
 Zr437 Zr 0.26213 0.23652 0.20304
 O438 O 0.28653 0.25957 0.22702
 Zr439 Zr 0.25341 0.24479 0.29708
 O440 O 0.22803 0.22258 0.27327
 Zr441 Zr 0.30364 0.23625 0.25637
 O442 O 0.28119 0.21261 0.23075
 Zr443 Zr 0.26434 0.28684 0.24839
 O444 O 0.24040 0.26619 0.22141
 O445 O 0.23249 0.21762 0.22335
 O446 O 0.28296 0.26448 0.27707
 C447 C 0.25808 0.17663 0.19438
 C448 C 0.19006 0.19043 0.24896
 C449 C 0.20569 0.24417 0.18188
 C450 C 0.26088 0.30336 0.30786
 C451 C 0.31009 0.23915 0.31775
 C452 C 0.32428 0.29321 0.25463
 H453 H 0.28322 0.20367 0.29071
 H454 H 0.29976 0.26808 0.21575
 H455 H 0.22129 0.20700 0.21165
 H456 H 0.22294 0.28153 0.27894
 H457 H 0.20647 0.24158 0.31516
 H458 H 0.18346 0.26077 0.28307
 H459 H 0.33486 0.24230 0.21631
 H460 H 0.30631 0.21862 0.18696
 H461 H 0.25830 0.20324 0.32622
 H462 H 0.23147 0.17825 0.29627
 H463 H 0.28255 0.30678 0.20507
 H464 H 0.25995 0.27904 0.17638
 H465 H 0.29189 0.16723 0.24911
 H466 H 0.32177 0.19248 0.27389
 H467 H 0.19815 0.29066 0.22381
 H468 H 0.22549 0.31843 0.25571
 O469 O 0.76092 0.82081 0.22681
 O470 O 0.73427 0.83169 0.26322
 O471 O 0.82299 0.77751 0.26300
 O472 O 0.82744 0.74217 0.28739
 O473 O 0.78632 0.74976 0.19185
 O474 O 0.74624 0.72721 0.18368
 O475 O 0.74518 0.71745 0.32935
 O476 O 0.78005 0.74573 0.33665
 O477 O 0.68432 0.76134 0.29876
 O478 O 0.68055 0.79294 0.26123
 O479 O 0.70469 0.69225 0.26097
 O480 O 0.73844 0.67840 0.23215
 O481 O 0.73904 0.68702 0.29731
 O482 O 0.76866 0.67593 0.25776
 O483 O 0.67850 0.72777 0.26207
 O484 O 0.67590 0.76611 0.23289
 O485 O 0.71589 0.75722 0.33013
 O486 O 0.75577 0.78068 0.33810
 O487 O 0.75472 0.79162 0.19358
 O488 O 0.72131 0.75946 0.18529
 O489 O 0.81673 0.74285 0.22391
 O490 O 0.81767 0.71115 0.26004
 O491 O 0.79705 0.81333 0.26329
 O492 O 0.76200 0.82573 0.29301
 Zr493 Zr 0.75883 0.79880 0.26157
 O494 O 0.73119 0.78027 0.28569
 Zr495 Zr 0.79666 0.74654 0.25986
 O496 O 0.77108 0.72593 0.28466
 Zr497 Zr 0.75145 0.75548 0.21354
 O498 O 0.72388 0.73439 0.23610
 Zr499 Zr 0.75020 0.75201 0.30847
 O500 O 0.77836 0.77239 0.28635
 Zr501 Zr 0.70449 0.75949 0.26235
 O502 O 0.73014 0.78110 0.23781
 Zr503 Zr 0.74265 0.70765 0.26122
 O504 O 0.76998 0.72625 0.23595
 O505 O 0.77926 0.77456 0.23605
 O506 O 0.72208 0.73195 0.28671
 C507 C 0.75839 0.81485 0.20230
 C508 C 0.81943 0.80213 0.26394
 C509 C 0.80968 0.74466 0.19962
 C510 C 0.74095 0.69418 0.32168
 C511 C 0.69218 0.76029 0.32294
 C512 C 0.68216 0.70310 0.26157
 H513 H 0.72236 0.79340 0.29677
 H514 H 0.71159 0.72562 0.22399
 H515 H 0.79198 0.78416 0.22504
 H516 H 0.78106 0.71345 0.29554
 H517 H 0.79523 0.75618 0.33093
 H518 H 0.82026 0.73334 0.30318
 H519 H 0.67770 0.75236 0.21935
 H520 H 0.70956 0.77320 0.19203
 H521 H 0.74438 0.79564 0.33405
 H522 H 0.77409 0.81804 0.30613
 H523 H 0.72935 0.68629 0.21687
 H524 H 0.75599 0.71165 0.18951
 H525 H 0.71886 0.82756 0.25222
 H526 H 0.68561 0.80426 0.27618
 H527 H 0.81081 0.70045 0.24533
 H528 H 0.77943 0.67532 0.27401
 O529 O 0.75280 0.20280 0.80760
 O530 O 0.73162 0.18814 0.76752
 O531 O 0.81883 0.24562 0.77558
 O532 O 0.82458 0.27881 0.74857
 O533 O 0.77119 0.27751 0.83838
 O534 O 0.72937 0.29938 0.83802
 O535 O 0.74753 0.29793 0.69463
 O536 O 0.78545 0.27045 0.69509
 O537 O 0.68575 0.25239 0.71969
 O538 O 0.67909 0.22267 0.75923
 O539 O 0.69757 0.32433 0.75353
 O540 O 0.72719 0.34155 0.78812
 O541 O 0.73767 0.33009 0.72382
 O542 O 0.75836 0.34578 0.76476
 O543 O 0.67335 0.28746 0.75282
 O544 O 0.66804 0.25169 0.78330
 O545 O 0.72090 0.25695 0.69264
 O546 O 0.76191 0.23491 0.69146
 O547 O 0.74222 0.23511 0.83641
 O548 O 0.70686 0.26526 0.83726
 O549 O 0.80588 0.28177 0.81068
 O550 O 0.81067 0.31138 0.77309
 O551 O 0.79343 0.20774 0.77601
 O552 O 0.76456 0.19204 0.74287
 Zr553 Zr 0.75536 0.22150 0.77047
 O554 O 0.73120 0.23691 0.74069
 Zr555 Zr 0.79092 0.27533 0.77256
 O556 O 0.76812 0.29318 0.74307
 Zr557 Zr 0.74004 0.26851 0.81265
 O558 O 0.71478 0.28580 0.78485
 Zr559 Zr 0.75177 0.26472 0.71854
 O560 O 0.77708 0.24682 0.74619
 Zr561 Zr 0.70064 0.25766 0.75834
 O562 O 0.72321 0.23979 0.78839
 Zr563 Zr 0.73594 0.31157 0.76085
 O564 O 0.76067 0.29644 0.79073
 O565 O 0.77130 0.24866 0.79605
 O566 O 0.72012 0.28457 0.73472
 C567 C 0.74733 0.21133 0.83092
 C568 C 0.81708 0.21935 0.77709
 C569 C 0.79545 0.28188 0.83381
 C570 C 0.74224 0.32165 0.70036
 C571 C 0.69661 0.25290 0.69670
 C572 C 0.67586 0.31212 0.75119
 H573 H 0.72460 0.22267 0.72946
 H574 H 0.70046 0.29463 0.79434
 H575 H 0.78274 0.24043 0.80943
 H576 H 0.77899 0.30539 0.73280
 H577 H 0.79966 0.26029 0.70341
 H578 H 0.81940 0.28754 0.73194
 H579 H 0.66816 0.26548 0.79692
 H580 H 0.69647 0.25066 0.83018
 H581 H 0.75210 0.21913 0.69631
 H582 H 0.77701 0.19973 0.73011
 H583 H 0.71257 0.33563 0.79936
 H584 H 0.73974 0.31461 0.83240
 H585 H 0.71555 0.19186 0.77769
 H586 H 0.68563 0.21134 0.74487
 H587 H 0.80125 0.32278 0.78565
 H588 H 0.77392 0.34391 0.75333
 O589 O 0.24722 0.80876 0.78822
 O590 O 0.27932 0.81705 0.75510
 O591 O 0.17933 0.79429 0.73973
 O592 O 0.16746 0.76581 0.70883
 O593 O 0.19765 0.74486 0.80669
 O594 O 0.22781 0.71016 0.81284
 O595 O 0.24398 0.72196 0.66910
 O596 O 0.21981 0.76057 0.66413
 O597 O 0.31068 0.74266 0.71262
 O598 O 0.31818 0.76439 0.75540
 O599 O 0.26657 0.67724 0.73388
 O600 O 0.22549 0.67125 0.75931
 O601 O 0.23606 0.68739 0.69585
 O602 O 0.20134 0.67936 0.72903
 O603 O 0.30155 0.70317 0.74144
 O604 O 0.31130 0.73352 0.77811
 O605 O 0.28344 0.74998 0.67787
 O606 O 0.25315 0.78641 0.67105
 O607 O 0.23935 0.77433 0.81525
 O608 O 0.26078 0.73324 0.81959
 O609 O 0.17010 0.75376 0.77257
 O610 O 0.16394 0.72979 0.73090
 O611 O 0.21464 0.81963 0.74819
 O612 O 0.25415 0.82497 0.72399
 Zr613 Zr 0.24601 0.79357 0.74964
 O614 O 0.26960 0.77134 0.72434
 Zr615 Zr 0.19446 0.75624 0.73895
 O616 O 0.21582 0.73241 0.71269
 Zr617 Zr 0.23458 0.74311 0.78888
 O618 O 0.25746 0.71847 0.76510
 Zr619 Zr 0.24636 0.75350 0.69534
 O620 O 0.22293 0.77828 0.71889
 Zr621 Zr 0.28604 0.74052 0.74571
 O622 O 0.26505 0.76470 0.77186
 Zr623 Zr 0.23464 0.70298 0.73436
 O624 O 0.21087 0.72515 0.76027
 O625 O 0.21648 0.77333 0.76872
 O626 O 0.26448 0.72319 0.71551
 C627 C 0.24465 0.79833 0.81120
 C628 C 0.19028 0.81642 0.74362
 C629 C 0.17484 0.74899 0.79710
 C630 C 0.23999 0.69770 0.67302
 C631 C 0.30613 0.74616 0.68791
 C632 C 0.29112 0.68102 0.73686
 H633 H 0.28312 0.78264 0.71655
 H634 H 0.26520 0.70472 0.77624
 H635 H 0.20602 0.78464 0.78050
 H636 H 0.20407 0.72532 0.69898
 H637 H 0.20766 0.77418 0.67043
 H638 H 0.17364 0.75758 0.69228
 H639 H 0.30468 0.71826 0.78789
 H640 H 0.27687 0.74332 0.81636
 H641 H 0.26851 0.79576 0.67797
 H642 H 0.24337 0.82233 0.70795
 H643 H 0.23846 0.67082 0.77379
 H644 H 0.21503 0.69930 0.80324
 H645 H 0.29095 0.80753 0.76736
 H646 H 0.31807 0.77938 0.74316
 H647 H 0.16596 0.71513 0.74340
 H648 H 0.19105 0.68673 0.71426
 O649 O 0.25589 0.32617 0.71092
 O650 O 0.22347 0.33423 0.74327
 O651 O 0.31851 0.29562 0.75899
 O652 O 0.32661 0.26198 0.78406
 O653 O 0.29650 0.25800 0.68460
 O654 O 0.26191 0.23000 0.67251
 O655 O 0.24270 0.22564 0.81729
 O656 O 0.27087 0.25973 0.82794
 O657 O 0.18067 0.25815 0.77553
 O658 O 0.17665 0.28581 0.73654
 O659 O 0.21893 0.19100 0.74586
 O660 O 0.25790 0.18280 0.72282
 O661 O 0.24770 0.19374 0.78659
 O662 O 0.28408 0.18691 0.75248
 O663 O 0.18582 0.22210 0.74175
 O664 O 0.18236 0.25855 0.70853
 O665 O 0.20736 0.25896 0.81146
 O666 O 0.24177 0.29067 0.82294
 O667 O 0.25945 0.29468 0.67950
 O668 O 0.23235 0.25745 0.66938
 O669 O 0.32363 0.25976 0.72020
 O670 O 0.32442 0.22903 0.75887
 O671 O 0.28790 0.32684 0.75199
 O672 O 0.24773 0.33391 0.77686
 Zr673 Zr 0.25296 0.30580 0.74682
 O674 O 0.22546 0.28375 0.76812
 Zr675 Zr 0.29861 0.26066 0.75337
 O676 O 0.27363 0.23724 0.77620
 Zr677 Zr 0.25895 0.25967 0.70127
 O678 O 0.23272 0.23505 0.72132
 Zr679 Zr 0.24516 0.25991 0.79520
 O680 O 0.27268 0.28380 0.77568
 Zr681 Zr 0.20611 0.25772 0.74283
 O682 O 0.23090 0.28254 0.72076
 Zr683 Zr 0.25256 0.21336 0.75027
 O684 O 0.27934 0.23517 0.72749
 O685 O 0.28017 0.28423 0.72573
 O686 O 0.22447 0.23446 0.77092
 C687 C 0.25791 0.31856 0.68679
 C688 C 0.31132 0.31935 0.75702
 C689 C 0.31927 0.25809 0.69518
 C690 C 0.24418 0.20175 0.81046
 C691 C 0.18470 0.25837 0.80063
 C692 C 0.19355 0.19675 0.74308
 H693 H 0.21306 0.29556 0.77700
 H694 H 0.22385 0.22369 0.70840
 H695 H 0.29253 0.29532 0.71582
 H696 H 0.28394 0.22722 0.78920
 H697 H 0.28511 0.27197 0.82366
 H698 H 0.31802 0.25539 0.80024
 H699 H 0.18655 0.24309 0.69773
 H700 H 0.21819 0.26992 0.67331
 H701 H 0.22740 0.30219 0.81729
 H702 H 0.25886 0.32854 0.79192
 H703 H 0.24893 0.18780 0.70626
 H704 H 0.27285 0.21620 0.68041
 H705 H 0.21069 0.32735 0.73038
 H706 H 0.17923 0.29985 0.74962
 H707 H 0.32289 0.21777 0.74306
 H708 H 0.29218 0.18863 0.77017
 O709 O 0.74950 0.68272 0.70709
 O710 O 0.77477 0.66927 0.74452
 O711 O 0.68472 0.72129 0.74410
 O712 O 0.67759 0.75509 0.76998
 O713 O 0.72558 0.75609 0.67749
 O714 O 0.76540 0.77994 0.67425
 O715 O 0.75819 0.77800 0.81943
 O716 O 0.72264 0.74867 0.82241
 O717 O 0.82080 0.73745 0.78897
 O718 O 0.82773 0.70910 0.75043
 O719 O 0.80050 0.80842 0.75665
 O720 O 0.76782 0.82382 0.72560
 O721 O 0.76323 0.81095 0.78992
 O722 O 0.73702 0.82457 0.75020
 O723 O 0.82758 0.77353 0.75562
 O724 O 0.83207 0.73711 0.72305
 O725 O 0.78763 0.73899 0.81883
 O726 O 0.74739 0.71381 0.82245
 O727 O 0.75695 0.71528 0.67758
 O728 O 0.79069 0.74787 0.67456
 O729 O 0.69231 0.75787 0.70727
 O730 O 0.68857 0.78795 0.74572
 O731 O 0.71130 0.68595 0.74248
 O732 O 0.74475 0.67180 0.77279
 Zr733 Zr 0.74924 0.70146 0.74423
 O734 O 0.77484 0.71856 0.77175
 Zr735 Zr 0.71027 0.75300 0.74451
 O736 O 0.73379 0.77203 0.77264
 Zr737 Zr 0.75872 0.74908 0.70097
 O738 O 0.78428 0.76858 0.72682
 Zr739 Zr 0.75413 0.74481 0.79565
 O740 O 0.72784 0.72563 0.76999
 Zr741 Zr 0.80242 0.74153 0.75189
 O742 O 0.77892 0.72161 0.72402
 Zr743 Zr 0.76299 0.79272 0.75255
 O744 O 0.73773 0.77584 0.72419
 O745 O 0.72997 0.72749 0.71974
 O746 O 0.78280 0.76692 0.77711
 C747 C 0.75299 0.69135 0.68343
 C748 C 0.68869 0.69673 0.74308
 C749 C 0.70139 0.75860 0.68351
 C750 C 0.76140 0.80202 0.81363
 C751 C 0.81183 0.73700 0.81275
 C752 C 0.82321 0.79798 0.75741
 H753 H 0.78331 0.70483 0.78233
 H754 H 0.79709 0.77848 0.71628
 H755 H 0.71816 0.71851 0.70726
 H756 H 0.72289 0.78340 0.78389
 H757 H 0.70797 0.73860 0.81492
 H758 H 0.68369 0.76222 0.78707
 H759 H 0.83189 0.75270 0.71162
 H760 H 0.80194 0.73337 0.68044
 H761 H 0.75977 0.69968 0.81832
 H762 H 0.73256 0.67858 0.78634
 H763 H 0.78053 0.81826 0.71200
 H764 H 0.75515 0.79487 0.68089
 H765 H 0.79026 0.67443 0.73409
 H766 H 0.82084 0.69580 0.76268
 H767 H 0.69560 0.79939 0.73168
 H768 H 0.72383 0.82252 0.76434
 O769 O 0.25918 0.69485 0.28793
 O770 O 0.23540 0.68639 0.24765
 O771 O 0.32835 0.73195 0.25710
 O772 O 0.33787 0.76697 0.23325
 O773 O 0.28709 0.76398 0.32457
 O774 O 0.24833 0.78965 0.32874
 O775 O 0.26142 0.80123 0.18524
 O776 O 0.29504 0.76912 0.18035
 O777 O 0.19494 0.76050 0.20921
 O778 O 0.18491 0.73002 0.24426
 O779 O 0.21821 0.82732 0.25077
 O780 O 0.25264 0.83628 0.28429
 O781 O 0.25554 0.83085 0.21811
 O782 O 0.28134 0.83992 0.25760
 O783 O 0.18926 0.79439 0.24544
 O784 O 0.18170 0.75514 0.27457
 O785 O 0.22898 0.76393 0.18060
 O786 O 0.26711 0.73736 0.17477
 O787 O 0.25378 0.72556 0.31990
 O788 O 0.22195 0.75889 0.32509
 O789 O 0.32157 0.76612 0.29629
 O790 O 0.32900 0.79836 0.26100
 O791 O 0.29978 0.69834 0.25416
 O792 O 0.26700 0.68929 0.22147
 Zr793 Zr 0.26283 0.71658 0.25244
 O794 O 0.23935 0.73795 0.22588
 Zr795 Zr 0.30475 0.76527 0.25818
 O796 O 0.28326 0.78857 0.23168
 Zr797 Zr 0.25459 0.76085 0.29958
 O798 O 0.23092 0.78399 0.27525
 Zr799 Zr 0.26210 0.76524 0.20525
 O800 O 0.28627 0.74173 0.22961
 Zr801 Zr 0.21230 0.76056 0.24697
 O802 O 0.23368 0.73679 0.27346
 Zr803 Zr 0.25464 0.80897 0.25302
 O804 O 0.27816 0.78797 0.27987
 O805 O 0.28268 0.73905 0.27987
 O806 O 0.23415 0.78713 0.22519
 C807 C 0.25565 0.70198 0.31216
 C808 C 0.32302 0.70765 0.25560
 C809 C 0.31155 0.76562 0.31966
 C810 C 0.25843 0.82459 0.19373
 C811 C 0.20453 0.76211 0.18575
 C812 C 0.19507 0.81852 0.24765
 H813 H 0.23049 0.72586 0.21368
 H814 H 0.21837 0.79353 0.28647
 H815 H 0.29343 0.72832 0.29192
 H816 H 0.29512 0.80031 0.22199
 H817 H 0.30833 0.75677 0.18696
 H818 H 0.33296 0.77708 0.21737
 H819 H 0.18172 0.77007 0.28687
 H820 H 0.20979 0.74620 0.31716
 H821 H 0.25567 0.72244 0.17868
 H822 H 0.27974 0.69674 0.20885
 H823 H 0.23731 0.83194 0.29531
 H824 H 0.26042 0.80406 0.32464
 H825 H 0.21999 0.69127 0.25836
 H826 H 0.19198 0.71695 0.23184
 H827 H 0.32148 0.80966 0.27491
 H828 H 0.29603 0.83691 0.24529
 O829 O 0.75645 0.32229 0.28123
 O830 O 0.78190 0.32751 0.24055
 O831 O 0.68640 0.28850 0.25450
 O832 O 0.67449 0.25308 0.23174
 O833 O 0.72820 0.25627 0.32164
 O834 O 0.76558 0.22858 0.32540
 O835 O 0.74834 0.21206 0.18290
 O836 O 0.71593 0.24485 0.17752
 O837 O 0.81654 0.25394 0.20338
 O838 O 0.82829 0.28348 0.23928
 O839 O 0.79164 0.18642 0.24701
 O840 O 0.75858 0.18109 0.28338
 O841 O 0.75137 0.18357 0.21715
 O842 O 0.72850 0.17749 0.25840
 O843 O 0.82221 0.21913 0.23826
 O844 O 0.83288 0.25637 0.26738
 O845 O 0.78206 0.24720 0.17596
 O846 O 0.74433 0.27618 0.17052
 O847 O 0.76404 0.29285 0.31399
 O848 O 0.79328 0.25764 0.32005
 O849 O 0.69271 0.25385 0.29472
 O850 O 0.68206 0.22209 0.26051
 O851 O 0.71717 0.31939 0.24703
 O852 O 0.74973 0.32612 0.21517
 Zr853 Zr 0.75263 0.29931 0.24671
 O854 O 0.77395 0.27601 0.22017
 Zr855 Zr 0.70820 0.25352 0.25585
 O856 O 0.72786 0.22796 0.22974
 Zr857 Zr 0.75998 0.25673 0.29545
 O858 O 0.78179 0.23159 0.27121
 Zr859 Zr 0.74946 0.24883 0.20151
 O860 O 0.72727 0.27457 0.22562
 Zr861 Zr 0.80046 0.25331 0.24160
 O862 O 0.78126 0.27880 0.26791
 Zr863 Zr 0.75626 0.20691 0.25083
 O864 O 0.73449 0.23019 0.27740
 O865 O 0.73233 0.27917 0.27576
 O866 O 0.77704 0.22665 0.22162
 C867 C 0.76137 0.31612 0.30546
 C868 C 0.69351 0.31213 0.25030
 C869 C 0.70357 0.25458 0.31773
 C870 C 0.74898 0.18891 0.19246
 C871 C 0.80649 0.25056 0.18040
 C872 C 0.81655 0.19380 0.24133
 H873 H 0.78285 0.28743 0.20733
 H874 H 0.79436 0.22174 0.28209
 H875 H 0.72232 0.29076 0.28765
 H876 H 0.71510 0.21645 0.22101
 H877 H 0.70312 0.25778 0.18395
 H878 H 0.67824 0.24174 0.21640
 H879 H 0.83212 0.24190 0.28021
 H880 H 0.80642 0.26828 0.31067
 H881 H 0.75861 0.28899 0.17147
 H882 H 0.73814 0.31807 0.20183
 H883 H 0.77513 0.18446 0.29280
 H884 H 0.75277 0.21463 0.32204
 H885 H 0.79610 0.32362 0.25322
 H886 H 0.82194 0.29621 0.22612
 H887 H 0.68955 0.21052 0.27419
 H888 H 0.71303 0.18113 0.24733
 C889 C 0.28245 0.06872 0.05480
 C890 C 0.27483 0.06642 0.08131
 C891 C 0.27405 0.08903 0.09940
 C892 C 0.25564 0.08938 0.11993
 C893 C 0.25345 0.11091 0.13659
 C894 C 0.26998 0.13244 0.13327
 C895 C 0.28856 0.13199 0.11290
 C896 C 0.29079 0.11042 0.09627
 C897 C 0.26811 0.15560 0.15051
 C898 C 0.25912 0.15417 0.17652
 H899 H 0.26572 0.04865 0.08797
 H900 H 0.24248 0.07319 0.12270
 H901 H 0.23841 0.11080 0.15161
 H902 H 0.30158 0.14828 0.11003
 H903 H 0.30574 0.11055 0.08116
 H904 H 0.27554 0.17389 0.14312
 H905 H 0.28741 0.08795 0.04798
 H906 H 0.25385 0.13554 0.18482
 C907 C 0.71012 0.55511 0.57608
 C908 C 0.72593 0.57718 0.57596
 C909 C 0.72951 0.59494 0.59889
 C910 C 0.74852 0.61443 0.59704
 C911 C 0.75274 0.63169 0.61798
 C912 C 0.73787 0.62993 0.64132
 C913 C 0.71903 0.61033 0.64333
 C914 C 0.71471 0.59313 0.62234
 C915 C 0.74162 0.64792 0.66394
 C916 C 0.75163 0.67296 0.66113
 H917 H 0.73706 0.58116 0.55815
 H918 H 0.76032 0.61625 0.57932
 H919 H 0.76794 0.64607 0.61590
 H920 H 0.70733 0.60853 0.66112
 H921 H 0.69962 0.57875 0.62471
 H922 H 0.73448 0.64189 0.68319
 H923 H 0.70009 0.54929 0.59391
 H924 H 0.75681 0.68013 0.64168
 C925 C 0.74729 0.92818 0.06438
 C926 C 0.75648 0.92776 0.09050
 C927 C 0.75515 0.90414 0.10743
 C928 C 0.77327 0.90114 0.12803
 C929 C 0.77306 0.87895 0.14401
 C930 C 0.75446 0.85930 0.13996
 C931 C 0.73637 0.86222 0.11935
 C932 C 0.73648 0.88449 0.10344
 C933 C 0.75337 0.83586 0.15707
 C934 C 0.76063 0.83675 0.18367
 H935 H 0.76785 0.94397 0.09768
 H936 H 0.78791 0.91586 0.13154
 H937 H 0.78776 0.87712 0.15925
 H938 H 0.72176 0.84745 0.11589
 H939 H 0.72164 0.88630 0.08835
 H940 H 0.74474 0.81828 0.14927
 H941 H 0.73982 0.91009 0.05678
 H942 H 0.76681 0.85508 0.19202
 C943 C 0.23100 0.42569 0.55017
 C944 C 0.25329 0.41908 0.56445
 C945 C 0.25420 0.39693 0.58307
 C946 C 0.27083 0.39824 0.60507
 C947 C 0.27170 0.37797 0.62345
 C948 C 0.25615 0.35578 0.61995
 C949 C 0.24038 0.35396 0.59733
 C950 C 0.23924 0.37441 0.57913
 C951 C 0.25610 0.33442 0.63956
 C952 C 0.25913 0.33910 0.66660
 H953 H 0.27021 0.43155 0.56304
 H954 H 0.28287 0.41520 0.60828
 H955 H 0.28470 0.37962 0.64024
 H956 H 0.22856 0.33688 0.59401
 H957 H 0.22688 0.37239 0.56188
 H958 H 0.25149 0.31500 0.63286
 H959 H 0.21367 0.41383 0.55152
 H960 H 0.26115 0.35887 0.67353
 C961 C 0.76125 0.06655 0.93315
 C962 C 0.75669 0.09303 0.93718
 C963 C 0.75682 0.11207 0.91515
 C964 C 0.74157 0.13455 0.91731
 C965 C 0.74070 0.15261 0.89665
 C966 C 0.75549 0.14874 0.87346
 C967 C 0.77095 0.12636 0.87144
 C968 C 0.77179 0.10830 0.89210
 C969 C 0.75492 0.16719 0.85089
 C970 C 0.74722 0.19305 0.85335
 H971 H 0.74992 0.09962 0.95636
 H972 H 0.72986 0.13791 0.93486
 H973 H 0.72800 0.16921 0.89881
 H974 H 0.78261 0.12293 0.85387
 H975 H 0.78439 0.09159 0.89001
 H976 H 0.76194 0.16042 0.83184
 H977 H 0.76315 0.06022 0.91281
 H978 H 0.74189 0.20073 0.87255
 C979 C 0.22354 0.56960 0.42245
 C980 C 0.24347 0.58766 0.41954
 C981 C 0.24610 0.60462 0.39604
 C982 C 0.26100 0.62727 0.39821
 C983 C 0.26406 0.64374 0.37649
 C984 C 0.25231 0.63784 0.35203
 C985 C 0.23841 0.61461 0.34946
 C986 C 0.23522 0.59815 0.37127
 C987 C 0.25402 0.65588 0.32928
 C988 C 0.25431 0.68256 0.33336
 H989 H 0.25806 0.58903 0.43501
 H990 H 0.27012 0.63235 0.41686
 H991 H 0.27577 0.66103 0.37887
 H992 H 0.22959 0.60944 0.33069
 H993 H 0.22458 0.58029 0.36846
 H994 H 0.25309 0.64826 0.30929
 H995 H 0.20845 0.56789 0.40762
 H996 H 0.25274 0.68993 0.35340
 C997 C 0.26215 0.93739 0.91771
 C998 C 0.27238 0.91236 0.91815
 C999 C 0.26842 0.89405 0.89608
 C1000 C 0.26802 0.86735 0.90125
 C1001 C 0.26383 0.84963 0.88073
 C1002 C 0.26012 0.85845 0.85460
 C1003 C 0.26136 0.88512 0.84939
 C1004 C 0.26549 0.90277 0.86986
 C1005 C 0.25580 0.84072 0.83205
 C1006 C 0.24793 0.81495 0.83459
 H1007 H 0.28287 0.90576 0.93553
 H1008 H 0.27071 0.86021 0.92126
 H1009 H 0.26390 0.82919 0.88546
 H1010 H 0.25909 0.89238 0.82937
 H1011 H 0.26678 0.92315 0.86495
 H1012 H 0.25837 0.84866 0.81234
 H1013 H 0.25123 0.94400 0.90066
 H1014 H 0.24422 0.80659 0.85387
 C1015 C 0.70894 0.43703 0.42233
 C1016 C 0.72891 0.41897 0.41905
 C1017 C 0.73358 0.40446 0.39413
 C1018 C 0.75790 0.39251 0.39045
 C1019 C 0.76320 0.37843 0.36743
 C1020 C 0.74413 0.37578 0.34763
 C1021 C 0.72002 0.38816 0.35096
 C1022 C 0.71465 0.40217 0.37406
 C1023 C 0.74833 0.35920 0.32408
 C1024 C 0.76307 0.33656 0.32557
 H1025 H 0.74299 0.41689 0.43492
 H1026 H 0.77290 0.39411 0.40546
 H1027 H 0.78224 0.36965 0.36520
 H1028 H 0.70499 0.38629 0.33602
 H1029 H 0.69548 0.41059 0.37619
 H1030 H 0.73648 0.36259 0.30665
 H1031 H 0.69590 0.44143 0.40613
 H1032 H 0.77259 0.33155 0.34402
 C1033 C 0.06106 0.23609 0.07691
 C1034 C 0.08737 0.24324 0.07496
 C1035 C 0.10603 0.24264 0.09745
 C1036 C 0.13001 0.25547 0.09464
 C1037 C 0.14822 0.25552 0.11525
 C1038 C 0.14280 0.24263 0.13916
 C1039 C 0.11892 0.22975 0.14200
 C1040 C 0.10084 0.22944 0.12131
 C1041 C 0.16116 0.24282 0.16174
 C1042 C 0.18811 0.24517 0.15886
 H1043 H 0.09440 0.25141 0.05653
 H1044 H 0.13461 0.26572 0.07649
 H1045 H 0.16622 0.26611 0.11258
 H1046 H 0.11435 0.21960 0.16022
 H1047 H 0.08308 0.21858 0.12420
 H1048 H 0.15320 0.23938 0.18133
 H1049 H 0.05370 0.23180 0.09639
 H1050 H 0.19669 0.24624 0.13929
 C1051 C 0.56249 0.72507 0.58013
 C1052 C 0.58255 0.74334 0.57963
 C1053 C 0.60085 0.74764 0.60188
 C1054 C 0.62467 0.76000 0.59675
 C1055 C 0.64270 0.76410 0.61709
 C1056 C 0.63717 0.75593 0.64309
 C1057 C 0.61294 0.74445 0.64839
 C1058 C 0.59495 0.74031 0.62806
 C1059 C 0.65603 0.75872 0.66512
 C1060 C 0.68290 0.76104 0.66137
 H1061 H 0.58539 0.75455 0.56168
 H1062 H 0.62948 0.76629 0.57685
 H1063 H 0.66075 0.77382 0.61231
 H1064 H 0.60803 0.73833 0.66832
 H1065 H 0.57644 0.73165 0.63311
 H1066 H 0.64871 0.75629 0.68511
 H1067 H 0.55910 0.71342 0.59759
 H1068 H 0.69093 0.76197 0.64158
 C1069 C 0.07346 0.75333 0.94581
 C1070 C 0.07118 0.74899 0.91848
 C1071 C 0.09345 0.74824 0.89976
 C1072 C 0.08914 0.73889 0.87399
 C1073 C 0.10923 0.73858 0.85530
 C1074 C 0.13413 0.74778 0.86200
 C1075 C 0.13856 0.75690 0.88779
 C1076 C 0.11842 0.75741 0.90644
 C1077 C 0.15597 0.74761 0.84288
 C1078 C 0.15255 0.74875 0.81544
 H1079 H 0.05216 0.74464 0.91036
 H1080 H 0.07011 0.73174 0.86828
 H1081 H 0.10525 0.73077 0.83583
 H1082 H 0.15761 0.76408 0.89341
 H1083 H 0.12253 0.76542 0.92577
 H1084 H 0.17558 0.74796 0.85084
 H1085 H 0.09275 0.75277 0.95431
 H1086 H 0.13320 0.75055 0.80714
 C1087 C 0.57848 0.21518 0.43765
 C1088 C 0.59662 0.23507 0.43465
 C1089 C 0.61301 0.23805 0.41061
 C1090 C 0.63585 0.25289 0.41207
 C1091 C 0.65142 0.25663 0.38961
 C1092 C 0.64435 0.24564 0.36510
 C1093 C 0.62111 0.23146 0.36348
 C1094 C 0.60560 0.22766 0.38593
 C1095 C 0.66043 0.24877 0.34087
 C1096 C 0.68715 0.25368 0.34164
 H1097 H 0.59838 0.24939 0.45026
 H1098 H 0.64169 0.26161 0.43067
 H1099 H 0.66867 0.26850 0.39152
 H1100 H 0.61497 0.22317 0.34477
 H1101 H 0.58758 0.21707 0.38360
 H1102 H 0.65130 0.24526 0.32184
 H1103 H 0.57664 0.20037 0.42260
 H1104 H 0.69693 0.25539 0.36054
 C1105 C 0.92377 0.75944 0.06341
 C1106 C 0.92230 0.74927 0.08905
 C1107 C 0.89783 0.74903 0.10466
 C1108 C 0.89448 0.72989 0.12408
 C1109 C 0.87191 0.72923 0.13954
 C1110 C 0.85233 0.74808 0.13624
 C1111 C 0.85540 0.76696 0.11647
 C1112 C 0.87800 0.76759 0.10095
 C1113 C 0.82915 0.74901 0.15379
 C1114 C 0.83061 0.74098 0.18011
 H1115 H 0.93879 0.73860 0.09688
 H1116 H 0.90935 0.71527 0.12723
 H1117 H 0.86989 0.71388 0.15401
 H1118 H 0.84062 0.78171 0.11358
 H1119 H 0.88012 0.78302 0.08658
 H1120 H 0.81167 0.75865 0.14684
 H1121 H 0.90566 0.76576 0.05458
 H1122 H 0.84896 0.73381 0.18773
 C1123 C 0.43509 0.21774 0.56734
 C1124 C 0.42817 0.24065 0.58024
 C1125 C 0.40560 0.24256 0.59834
 C1126 C 0.40635 0.26044 0.61927
 C1127 C 0.38528 0.26280 0.63669
 C1128 C 0.36287 0.24751 0.63321
 C1129 C 0.36183 0.23017 0.61182
 C1130 C 0.38304 0.22756 0.59462
 C1131 C 0.34006 0.24976 0.65099
 C1132 C 0.34214 0.25667 0.67765
 H1133 H 0.44047 0.25757 0.57781
 H1134 H 0.42337 0.27250 0.62225
 H1135 H 0.38640 0.27694 0.65249
 H1136 H 0.34461 0.21849 0.60850
 H1137 H 0.38149 0.21420 0.57816
 H1138 H 0.32118 0.24421 0.64323
 H1139 H 0.42338 0.20047 0.56977
 H1140 H 0.36115 0.25992 0.68630
 C1141 C 0.94253 0.26985 0.93246
 C1142 C 0.91588 0.27439 0.93646
 C1143 C 0.89707 0.27946 0.91476
 C1144 C 0.87181 0.28792 0.92121
 C1145 C 0.85294 0.29126 0.90147
 C1146 C 0.85905 0.28611 0.87484
 C1147 C 0.88441 0.27819 0.86834
 C1148 C 0.90314 0.27461 0.88802
 C1149 C 0.83973 0.28815 0.85322
 C1150 C 0.81280 0.28579 0.85672
 H1151 H 0.90833 0.27462 0.95651
 H1152 H 0.86656 0.29172 0.94164
 H1153 H 0.83375 0.29790 0.90717
 H1154 H 0.88957 0.27399 0.84796
 H1155 H 0.92201 0.26736 0.88206
 H1156 H 0.84735 0.28875 0.83320
 H1157 H 0.95049 0.27458 0.91326
 H1158 H 0.80455 0.28427 0.87639
 C1159 C 0.44010 0.71885 0.43049
 C1160 C 0.42108 0.73814 0.43022
 C1161 C 0.40479 0.74423 0.40688
 C1162 C 0.38218 0.75909 0.41055
 C1163 C 0.36629 0.76545 0.38906
 C1164 C 0.37275 0.75697 0.36338
 C1165 C 0.39585 0.74295 0.35956
 C1166 C 0.41175 0.73660 0.38104
 C1167 C 0.35576 0.76199 0.34029
 C1168 C 0.32896 0.76569 0.34270
 H1169 H 0.41825 0.74960 0.44802
 H1170 H 0.37671 0.76571 0.43016
 H1171 H 0.34916 0.77714 0.39269
 H1172 H 0.40145 0.73656 0.33990
 H1173 H 0.42954 0.72606 0.37713
 H1174 H 0.36414 0.75993 0.32068
 H1175 H 0.44351 0.70679 0.41331
 H1176 H 0.31994 0.76596 0.36208
 C1177 C 0.07672 0.05620 0.23937
 C1178 C 0.07794 0.07999 0.25266
 C1179 C 0.10137 0.09672 0.25291
 C1180 C 0.09830 0.12312 0.25879
 C1181 C 0.11977 0.13972 0.25908
 C1182 C 0.14488 0.13019 0.25346
 C1183 C 0.14807 0.10364 0.24844
 C1184 C 0.12660 0.08702 0.24817
 C1185 C 0.16814 0.14713 0.25316
 C1186 C 0.16678 0.17391 0.24959
 H1187 H 0.06120 0.08673 0.26377
 H1188 H 0.07916 0.13098 0.26303
 H1189 H 0.11654 0.15985 0.26410
 H1190 H 0.16726 0.09572 0.24459
 H1191 H 0.13008 0.06664 0.24471
 H1192 H 0.18711 0.13800 0.25464
 H1193 H 0.09428 0.04902 0.23016
 H1194 H 0.14817 0.18330 0.24657
 C1195 C 0.57192 0.56886 0.71145
 C1196 C 0.57553 0.58826 0.73034
 C1197 C 0.59910 0.60468 0.73188
 C1198 C 0.59775 0.62796 0.74617
 C1199 C 0.61957 0.64396 0.74845
 C1200 C 0.64328 0.63695 0.73642
 C1201 C 0.64486 0.61333 0.72274
 C1202 C 0.62301 0.59733 0.72043
 C1203 C 0.66675 0.65349 0.73821
 C1204 C 0.66542 0.68022 0.74216
 H1205 H 0.56014 0.59168 0.74465
 H1206 H 0.57972 0.63382 0.75562
 H1207 H 0.61781 0.66153 0.76002
 H1208 H 0.66303 0.60729 0.71369
 H1209 H 0.62521 0.57910 0.71010
 H1210 H 0.68558 0.64454 0.73483
 H1211 H 0.58683 0.56475 0.69691
 H1212 H 0.64668 0.68975 0.74350
 C1213 C 0.92323 0.07613 0.79437
 C1214 C 0.92671 0.10203 0.78781
 C1215 C 0.90507 0.12086 0.78923
 C1216 C 0.90954 0.14671 0.78183
 C1217 C 0.88909 0.16463 0.78157
 C1218 C 0.86375 0.15691 0.78865
 C1219 C 0.85940 0.13121 0.79654
 C1220 C 0.87983 0.11334 0.79690
 C1221 C 0.84136 0.17480 0.78712
 C1222 C 0.84400 0.20078 0.78051
 H1223 H 0.94530 0.10839 0.77997
 H1224 H 0.92881 0.15296 0.77586
 H1225 H 0.89307 0.18434 0.77538
 H1226 H 0.84005 0.12483 0.80212
 H1227 H 0.87570 0.09357 0.80275
 H1228 H 0.82201 0.16717 0.79085
 H1229 H 0.93592 0.06581 0.79250
 H1230 H 0.83110 0.21031 0.77882
 C1231 C 0.43374 0.56879 0.24655
 C1232 C 0.43024 0.59078 0.26235
 C1233 C 0.40810 0.60923 0.25926
 C1234 C 0.41011 0.63411 0.27036
 C1235 C 0.38940 0.65175 0.26872
 C1236 C 0.36600 0.64486 0.25596
 C1237 C 0.36382 0.61982 0.24526
 C1238 C 0.38458 0.60221 0.24680
 C1239 C 0.34329 0.66280 0.25437
 C1240 C 0.34553 0.68975 0.25629
 H1241 H 0.44437 0.59458 0.27782
 H1242 H 0.42778 0.63989 0.28050
 H1243 H 0.39166 0.67048 0.27806
 H1244 H 0.34592 0.61381 0.23571
 H1245 H 0.38177 0.58298 0.23879
 H1246 H 0.32423 0.65451 0.25072
 H1247 H 0.42034 0.56483 0.23053
 H1248 H 0.36462 0.69842 0.25810
 C1249 C 0.05899 0.93200 0.75607
 C1250 C 0.08481 0.93288 0.74791
 C1251 C 0.10030 0.90887 0.74469
 C1252 C 0.12657 0.91073 0.73733
 C1253 C 0.14197 0.88847 0.73508
 C1254 C 0.13140 0.86382 0.74041
 C1255 C 0.10491 0.86189 0.74694
 C1256 C 0.08950 0.88415 0.74917
 C1257 C 0.14738 0.83989 0.73939
 C1258 C 0.17427 0.84007 0.74338
 H1259 H 0.09445 0.95135 0.74525
 H1260 H 0.13526 0.92948 0.73342
 H1261 H 0.16204 0.89072 0.72899
 H1262 H 0.09623 0.84313 0.75085
 H1263 H 0.06924 0.88195 0.75468
 H1264 H 0.13750 0.82146 0.73714
 H1265 H 0.05128 0.94593 0.75750
 H1266 H 0.18414 0.85816 0.74741
 C1267 C 0.56451 0.43038 0.27347
 C1268 C 0.57941 0.42068 0.25252
 C1269 C 0.59668 0.39756 0.25439
 C1270 C 0.61587 0.39402 0.23490
 C1271 C 0.63242 0.37247 0.23555
 C1272 C 0.63015 0.35376 0.25574
 C1273 C 0.61041 0.35678 0.27476
 C1274 C 0.59390 0.37850 0.27422
 C1275 C 0.64815 0.33115 0.25719
 C1276 C 0.67400 0.33310 0.24881
 H1277 H 0.57852 0.43084 0.23373
 H1278 H 0.61814 0.40807 0.21910
 H1279 H 0.64678 0.37037 0.21999
 H1280 H 0.60798 0.34248 0.29029
 H1281 H 0.57882 0.37999 0.28911
 H1282 H 0.64161 0.31348 0.26669
 H1283 H 0.56513 0.42121 0.29272
 H1284 H 0.68102 0.35173 0.24194
 C1285 C 0.92933 0.93870 0.25090
 C1286 C 0.93111 0.91192 0.25473
 C1287 C 0.90790 0.89518 0.25696
 C1288 C 0.91001 0.87140 0.27026
 C1289 C 0.88846 0.85502 0.27249
 C1290 C 0.86448 0.86210 0.26113
 C1291 C 0.86237 0.88588 0.24788
 C1292 C 0.88390 0.90217 0.24554
 C1293 C 0.84129 0.84532 0.26267
 C1294 C 0.84278 0.81844 0.26513
 H1295 H 0.94998 0.90316 0.25825
 H1296 H 0.92831 0.86559 0.27916
 H1297 H 0.89062 0.83710 0.28342
 H1298 H 0.84411 0.89166 0.23886
 H1299 H 0.88173 0.91995 0.23437
 H1300 H 0.82242 0.85430 0.25966
 H1301 H 0.91024 0.94739 0.25289
 H1302 H 0.86152 0.80888 0.26627
 C1303 C 0.42329 0.44993 0.72318
 C1304 C 0.42214 0.42717 0.73800
 C1305 C 0.39796 0.41184 0.74124
 C1306 C 0.39601 0.39470 0.76273
 C1307 C 0.37373 0.37954 0.76623
 C1308 C 0.35302 0.38099 0.74804
 C1309 C 0.35471 0.39848 0.72685
 C1310 C 0.37702 0.41360 0.72329
 C1311 C 0.33003 0.36380 0.74998
 C1312 C 0.33200 0.33873 0.76008
 H1313 H 0.43931 0.42127 0.74897
 H1314 H 0.41177 0.39308 0.77692
 H1315 H 0.37279 0.36676 0.78322
 H1316 H 0.33905 0.39986 0.71252
 H1317 H 0.37794 0.42607 0.70610
 H1318 H 0.31218 0.36965 0.74018
 H1319 H 0.40565 0.45795 0.71477
 H1320 H 0.35055 0.33189 0.76754
 C1321 C 0.07512 0.25166 0.94346
 C1322 C 0.07369 0.25193 0.91571
 C1323 C 0.09690 0.25323 0.89818
 C1324 C 0.09457 0.24493 0.87179
 C1325 C 0.11582 0.24616 0.85447
 C1326 C 0.13989 0.25610 0.86310
 C1327 C 0.14224 0.26437 0.88950
 C1328 C 0.12097 0.26316 0.90682
 C1329 C 0.16302 0.25757 0.84547
 C1330 C 0.16148 0.25763 0.81781
 H1331 H 0.05498 0.24909 0.90626
 H1332 H 0.07627 0.23721 0.86460
 H1333 H 0.11331 0.23889 0.83455
 H1334 H 0.16054 0.27210 0.89667
 H1335 H 0.12342 0.27046 0.92675
 H1336 H 0.18199 0.25946 0.85469
 H1337 H 0.09428 0.24979 0.95214
 H1338 H 0.14267 0.25735 0.80817
 C1339 C 0.57436 0.71994 0.44296
 C1340 C 0.58415 0.74377 0.43480
 C1341 C 0.59991 0.74687 0.41060
 C1342 C 0.61696 0.76798 0.40867
 C1343 C 0.63196 0.77154 0.38589
 C1344 C 0.62985 0.75418 0.36452
 C1345 C 0.61188 0.73381 0.36590
 C1346 C 0.59710 0.73006 0.38882
 C1347 C 0.64705 0.75626 0.34125
 C1348 C 0.67316 0.76264 0.34439
 H1349 H 0.57913 0.76097 0.44607
 H1350 H 0.61892 0.78152 0.42496
 H1351 H 0.64522 0.78783 0.38501
 H1352 H 0.60977 0.72041 0.34951
 H1353 H 0.58330 0.71421 0.38926
 H1354 H 0.64020 0.74924 0.32225
 H1355 H 0.57984 0.70219 0.43297
 H1356 H 0.68061 0.76667 0.36405
 C1357 C 0.94403 0.76031 0.92764
 C1358 C 0.92718 0.73982 0.92154
 C1359 C 0.91009 0.73911 0.89788
 C1360 C 0.88764 0.72362 0.89881
 C1361 C 0.87039 0.72287 0.87742
 C1362 C 0.87534 0.73753 0.85449
 C1363 C 0.89831 0.75221 0.85308
 C1364 C 0.91549 0.75313 0.87458
 C1365 C 0.85707 0.73782 0.83180
 C1366 C 0.83027 0.73431 0.83489
 H1367 H 0.92602 0.72348 0.93497
 H1368 H 0.88323 0.71231 0.91635
 H1369 H 0.85334 0.71063 0.87886
 H1370 H 0.90277 0.76332 0.83543
 H1371 H 0.93301 0.76458 0.87261
 H1372 H 0.86462 0.74309 0.81247
 H1373 H 0.94806 0.77419 0.91221
 H1374 H 0.82220 0.73142 0.85449
 C1375 C 0.44472 0.21218 0.43011
 C1376 C 0.42425 0.22984 0.42801
 C1377 C 0.40669 0.23121 0.40485
 C1378 C 0.38243 0.24339 0.40777
 C1379 C 0.36523 0.24511 0.38641
 C1380 C 0.37202 0.23460 0.36161
 C1381 C 0.39661 0.22315 0.35847
 C1382 C 0.41381 0.22143 0.37982
 C1383 C 0.35431 0.23569 0.33853
 C1384 C 0.32739 0.23853 0.34089
 H1385 H 0.42069 0.24297 0.44440
 H1386 H 0.37671 0.25154 0.42669
 H1387 H 0.34689 0.25501 0.38942
 H1388 H 0.40249 0.21537 0.33944
 H1389 H 0.43272 0.21284 0.37640
 H1390 H 0.36268 0.23293 0.31901
 H1391 H 0.44896 0.19877 0.41422
 H1392 H 0.31841 0.23982 0.36024
 C1393 C 0.05807 0.75191 0.08183
 C1394 C 0.08308 0.76274 0.08113
 C1395 C 0.10219 0.76189 0.10330
 C1396 C 0.12794 0.76971 0.09827
 C1397 C 0.14676 0.76934 0.11834
 C1398 C 0.14024 0.76106 0.14408
 C1399 C 0.11441 0.75360 0.14921
 C1400 C 0.09560 0.75393 0.12913
 C1401 C 0.15935 0.76068 0.16624
 C1402 C 0.18642 0.76206 0.16300
 H1403 H 0.08924 0.77206 0.06293
 H1404 H 0.13358 0.77619 0.07867
 H1405 H 0.16616 0.77597 0.11356
 H1406 H 0.10873 0.74744 0.16891
 H1407 H 0.07599 0.74822 0.13422
 H1408 H 0.15166 0.75865 0.18613
 H1409 H 0.05071 0.74330 0.09984
 H1410 H 0.19485 0.76295 0.14339
 C1411 C 0.57022 0.21684 0.57681
 C1412 C 0.58985 0.23524 0.57987
 C1413 C 0.60599 0.23743 0.60408
 C1414 C 0.62993 0.25040 0.60252
 C1415 C 0.64559 0.25324 0.62497
 C1416 C 0.63756 0.24312 0.64958
 C1417 C 0.61328 0.23080 0.65131
 C1418 C 0.59764 0.22793 0.62883
 C1419 C 0.65361 0.24579 0.67381
 C1420 C 0.68056 0.24896 0.67294
 H1421 H 0.59357 0.24859 0.56371
 H1422 H 0.63656 0.25838 0.58384
 H1423 H 0.66367 0.26380 0.62299
 H1424 H 0.60642 0.22331 0.67012
 H1425 H 0.57885 0.21875 0.63118
 H1426 H 0.64402 0.24439 0.69290
 H1427 H 0.56611 0.20310 0.59244
 H1428 H 0.69059 0.24868 0.65407
 C1429 C 0.92690 0.22709 0.06001
 C1430 C 0.90472 0.24266 0.05832
 C1431 C 0.88280 0.24049 0.07713
 C1432 C 0.87045 0.26319 0.08589
 C1433 C 0.85040 0.26192 0.10457
 C1434 C 0.84186 0.23785 0.11423
 C1435 C 0.85330 0.21503 0.10453
 C1436 C 0.87392 0.21633 0.08636
 C1437 C 0.82188 0.23659 0.13524
 C1438 C 0.82457 0.25169 0.15792
 H1439 H 0.90472 0.25877 0.04451
 H1440 H 0.87682 0.28198 0.07881
 H1441 H 0.84160 0.27975 0.11158
 H1442 H 0.84687 0.19629 0.11167
 H1443 H 0.88281 0.19852 0.07945
 H1444 H 0.80673 0.22201 0.13421
 H1445 H 0.92864 0.21318 0.07600
 H1446 H 0.84191 0.26346 0.16019
 C1447 C 0.42731 0.71588 0.56638
 C1448 C 0.41896 0.73877 0.57828
 C1449 C 0.39500 0.74022 0.59425
 C1450 C 0.39408 0.75730 0.61581
 C1451 C 0.37184 0.75870 0.63166
 C1452 C 0.34999 0.74330 0.62588
 C1453 C 0.35046 0.72708 0.60361
 C1454 C 0.37288 0.72536 0.58800
 C1455 C 0.32667 0.74386 0.64290
 C1456 C 0.32882 0.74604 0.67030
 H1457 H 0.43105 0.75593 0.57673
 H1458 H 0.41077 0.76924 0.62065
 H1459 H 0.37169 0.77193 0.64831
 H1460 H 0.33366 0.71536 0.59862
 H1461 H 0.37277 0.71265 0.57093
 H1462 H 0.30777 0.74044 0.63401
 H1463 H 0.41588 0.69834 0.56819
 H1464 H 0.34795 0.74662 0.67935
 C1465 C 0.27495 0.06784 0.91850
 C1466 C 0.25324 0.08373 0.91448
 C1467 C 0.25081 0.10157 0.89170
 C1468 C 0.23514 0.12370 0.89433
 C1469 C 0.23293 0.14141 0.87352
 C1470 C 0.24632 0.13719 0.84956
 C1471 C 0.26094 0.11442 0.84647
 C1472 C 0.26324 0.09676 0.86732
 C1473 C 0.24564 0.15612 0.82760
 C1474 C 0.24195 0.18258 0.83183
 H1475 H 0.23720 0.08305 0.92843
 H1476 H 0.22490 0.12749 0.91271
 H1477 H 0.22063 0.15824 0.87625
 H1478 H 0.27100 0.11050 0.82801
 H1479 H 0.27449 0.07931 0.86406
 H1480 H 0.25050 0.14936 0.80787
 H1481 H 0.28954 0.06695 0.90312
 H1482 H 0.23888 0.18986 0.85170
 C1483 C 0.70122 0.57000 0.43924
 C1484 C 0.72395 0.58038 0.42863
 C1485 C 0.72432 0.59847 0.40598
 C1486 C 0.74615 0.61438 0.40251
 C1487 C 0.74777 0.63102 0.38080
 C1488 C 0.72764 0.63187 0.36193
 C1489 C 0.70617 0.61534 0.36485
 C1490 C 0.70439 0.59887 0.38682
 C1491 C 0.72880 0.65010 0.33940
 C1492 C 0.73889 0.67488 0.34287
 H1493 H 0.74246 0.57426 0.43689
 H1494 H 0.76198 0.61397 0.41670
 H1495 H 0.76493 0.64303 0.37863
 H1496 H 0.69062 0.61547 0.35034
 H1497 H 0.68773 0.58612 0.38842
 H1498 H 0.72006 0.64473 0.32064
 H1499 H 0.68222 0.57671 0.43295
 H1500 H 0.74479 0.68094 0.36253
 C1501 C 0.76711 0.06266 0.06998
 C1502 C 0.74586 0.07490 0.08193
 C1503 C 0.74836 0.09820 0.09902
 C1504 C 0.72979 0.10259 0.11894
 C1505 C 0.73112 0.12476 0.13491
 C1506 C 0.75084 0.14330 0.13096
 C1507 C 0.76900 0.13930 0.11054
 C1508 C 0.76795 0.11687 0.09487
 C1509 C 0.75258 0.16695 0.14768
 C1510 C 0.74632 0.16644 0.17459
 H1511 H 0.72656 0.06705 0.07862
 H1512 H 0.71425 0.08876 0.12223
 H1513 H 0.71641 0.12759 0.15002
 H1514 H 0.78418 0.15343 0.10690
 H1515 H 0.78208 0.11452 0.07912
 H1516 H 0.76091 0.18441 0.13927
 H1517 H 0.78659 0.06989 0.07348
 H1518 H 0.74096 0.14812 0.18356
 C1519 C 0.22249 0.56012 0.56106
 C1520 C 0.23798 0.58228 0.56299
 C1521 C 0.23731 0.60038 0.58581
 C1522 C 0.24768 0.62536 0.58263
 C1523 C 0.24761 0.64304 0.60364
 C1524 C 0.23712 0.63606 0.62841
 C1525 C 0.22726 0.61089 0.63173
 C1526 C 0.22733 0.59322 0.61073
 C1527 C 0.23680 0.65394 0.65143
 C1528 C 0.24009 0.68077 0.64952
 H1529 H 0.25082 0.58689 0.54659
 H1530 H 0.25587 0.63124 0.56377
 H1531 H 0.25620 0.66189 0.60038
 H1532 H 0.21946 0.60484 0.65071
 H1533 H 0.21997 0.57393 0.61441
 H1534 H 0.23312 0.64558 0.67078
 H1535 H 0.20952 0.55475 0.57702
 H1536 H 0.24262 0.68990 0.63041
 C1537 C 0.74671 0.93501 0.92786
 C1538 C 0.76750 0.91946 0.91981
 C1539 C 0.76567 0.90111 0.89738
 C1540 C 0.78027 0.87812 0.89810
 C1541 C 0.77889 0.86031 0.87725
 C1542 C 0.76315 0.86543 0.85506
 C1543 C 0.74921 0.88882 0.85395
 C1544 C 0.75025 0.90644 0.87500
 C1545 C 0.76149 0.84709 0.83258
 C1546 C 0.76327 0.82028 0.83595
 H1547 H 0.78535 0.91979 0.93128
 H1548 H 0.79258 0.87382 0.91497
 H1549 H 0.79048 0.84280 0.87835
 H1550 H 0.73728 0.89335 0.83685
 H1551 H 0.73939 0.92438 0.87348
 H1552 H 0.75713 0.85481 0.81311
 H1553 H 0.72853 0.93456 0.91703
 H1554 H 0.76510 0.81229 0.85571
 C1555 C 0.23583 0.43729 0.41281
 C1556 C 0.25678 0.42029 0.41055
 C1557 C 0.26070 0.40352 0.38719
 C1558 C 0.27433 0.38019 0.39036
 C1559 C 0.27688 0.36300 0.36918
 C1560 C 0.26589 0.36894 0.34438
 C1561 C 0.25385 0.39305 0.34067
 C1562 C 0.25117 0.41022 0.36193
 C1563 C 0.26575 0.34976 0.32269
 C1564 C 0.26252 0.32353 0.32820
 H1565 H 0.27011 0.41842 0.42710
 H1566 H 0.28238 0.37492 0.40946
 H1567 H 0.28717 0.34493 0.37234
 H1568 H 0.24571 0.39820 0.32158
 H1569 H 0.24158 0.42860 0.35848
 H1570 H 0.26567 0.35645 0.30233
 H1571 H 0.22201 0.43947 0.39679
 H1572 H 0.26031 0.31732 0.34860
 C1573 C 0.27640 0.93279 0.05296
 C1574 C 0.26625 0.93307 0.07858
 C1575 C 0.26595 0.90989 0.09598
 C1576 C 0.24845 0.90926 0.11732
 C1577 C 0.24738 0.88773 0.13410
 C1578 C 0.26406 0.86642 0.13006
 C1579 C 0.28140 0.86689 0.10861
 C1580 C 0.28257 0.88848 0.09187
 C1581 C 0.26387 0.84371 0.14800
 C1582 C 0.25797 0.84624 0.17482
 H1583 H 0.25645 0.95047 0.08540
 H1584 H 0.23535 0.92538 0.12088
 H1585 H 0.23323 0.88774 0.15001
 H1586 H 0.29448 0.85074 0.10514
 H1587 H 0.29683 0.88835 0.07611
 H1588 H 0.27032 0.82511 0.14044
 H1589 H 0.28359 0.91481 0.04470
 H1590 H 0.25380 0.86529 0.18281
 C1591 C 0.71388 0.42064 0.55908
 C1592 C 0.73673 0.41444 0.57258
 C1593 C 0.73818 0.39320 0.59213
 C1594 C 0.75435 0.39620 0.61429
 C1595 C 0.75531 0.37708 0.63385
 C1596 C 0.74041 0.35436 0.63135
 C1597 C 0.72516 0.35078 0.60859
 C1598 C 0.72383 0.37016 0.58921
 C1599 C 0.74062 0.33430 0.65225
 C1600 C 0.74178 0.34096 0.67899
 H1601 H 0.75335 0.42726 0.57063
 H1602 H 0.76583 0.41366 0.61676
 H1603 H 0.76783 0.38001 0.65085
 H1604 H 0.71383 0.33324 0.60611
 H1605 H 0.71176 0.36700 0.57193
 H1606 H 0.73802 0.31419 0.64663
 H1607 H 0.69680 0.40849 0.56103
 H1608 H 0.74148 0.36124 0.68460
 C1609 C 0.05921 0.07901 0.76065
 C1610 C 0.08482 0.07875 0.75180
 C1611 C 0.09995 0.10303 0.74895
 C1612 C 0.12642 0.10153 0.74229
 C1613 C 0.14145 0.12400 0.74020
 C1614 C 0.13028 0.14858 0.74469
 C1615 C 0.10367 0.15014 0.75083
 C1616 C 0.08862 0.12761 0.75300
 C1617 C 0.14612 0.17257 0.74382
 C1618 C 0.17301 0.17125 0.74161
 H1619 H 0.09464 0.06049 0.74833
 H1620 H 0.13559 0.08287 0.73896
 H1621 H 0.16189 0.12202 0.73526
 H1622 H 0.09458 0.16879 0.75434
 H1623 H 0.06820 0.12951 0.75803
 H1624 H 0.13676 0.19127 0.74643
 H1625 H 0.05164 0.06496 0.76144
 H1626 H 0.18139 0.18508 0.74212
 C1627 C 0.57100 0.56432 0.25162
 C1628 C 0.57314 0.58732 0.26620
 C1629 C 0.59538 0.60572 0.26381
 C1630 C 0.59220 0.63143 0.27248
 C1631 C 0.61287 0.64917 0.27124
 C1632 C 0.63737 0.64151 0.26140
 C1633 C 0.64062 0.61571 0.25307
 C1634 C 0.61995 0.59803 0.25420
 C1635 C 0.66025 0.65926 0.26052
 C1636 C 0.65873 0.68637 0.26191
 H1637 H 0.55751 0.59228 0.27973
 H1638 H 0.57363 0.63782 0.28034
 H1639 H 0.60962 0.66860 0.27857
 H1640 H 0.65935 0.60912 0.24577
 H1641 H 0.62360 0.57825 0.24812
 H1642 H 0.67928 0.65047 0.25801
 H1643 H 0.58608 0.55916 0.23761
 H1644 H 0.63995 0.69582 0.26299
 C1645 C 0.05919 0.92407 0.22362
 C1646 C 0.07062 0.91244 0.24564
 C1647 C 0.08971 0.89111 0.24393
 C1648 C 0.10841 0.88890 0.26402
 C1649 C 0.12746 0.86965 0.26284
 C1650 C 0.12797 0.85201 0.24163
 C1651 C 0.10858 0.85341 0.22211
 C1652 C 0.08968 0.87299 0.22308
 C1653 C 0.14863 0.83216 0.23981
 C1654 C 0.17408 0.83782 0.24739
 H1655 H 0.06715 0.92108 0.26492
 H1656 H 0.10857 0.90242 0.28046
 H1657 H 0.14171 0.86852 0.27861
 H1658 H 0.10843 0.83972 0.20583
 H1659 H 0.07502 0.87374 0.20770
 H1660 H 0.14408 0.81345 0.23121
 H1661 H 0.06240 0.91667 0.20382
 H1662 H 0.17900 0.85744 0.25321
 C1663 C 0.55825 0.43586 0.70486
 C1664 C 0.56026 0.41626 0.72377
 C1665 C 0.58361 0.39962 0.72659
 C1666 C 0.58158 0.37633 0.74080
 C1667 C 0.60359 0.36099 0.74543
 C1668 C 0.62818 0.36876 0.73598
 C1669 C 0.63026 0.39217 0.72205
 C1670 C 0.60827 0.40745 0.71734
 C1671 C 0.65213 0.35357 0.74115
 C1672 C 0.65191 0.32702 0.74633
 H1673 H 0.54468 0.41406 0.73811
 H1674 H 0.56293 0.37015 0.74863
 H1675 H 0.60130 0.34351 0.75703
 H1676 H 0.64904 0.39878 0.71492
 H1677 H 0.61095 0.42574 0.70724
 H1678 H 0.67070 0.36345 0.73965
 H1679 H 0.57326 0.43821 0.69001
 H1680 H 0.63374 0.31641 0.74585
 C1681 C 0.94329 0.06936 0.26016
 C1682 C 0.93157 0.08171 0.23873
 C1683 C 0.90855 0.09864 0.24167
 C1684 C 0.90481 0.11897 0.22365
 C1685 C 0.88296 0.13502 0.22566
 C1686 C 0.86415 0.13066 0.24547
 C1687 C 0.86753 0.10986 0.26303
 C1688 C 0.88960 0.09404 0.26127
 C1689 C 0.84114 0.14767 0.24827
 C1690 C 0.84122 0.17243 0.23766
 H1691 H 0.93949 0.07872 0.21905
 H1692 H 0.91896 0.12258 0.20815
 H1693 H 0.88074 0.15071 0.21158
 H1694 H 0.85319 0.10599 0.27829
 H1695 H 0.89150 0.07795 0.27491
 H1696 H 0.82477 0.14138 0.26026
 H1697 H 0.93611 0.07263 0.28005
 H1698 H 0.82822 0.18178 0.23980
 C1699 C 0.43839 0.58203 0.73139
 C1700 C 0.41280 0.58136 0.72199
 C1701 C 0.39318 0.60190 0.72688
 C1702 C 0.36924 0.60054 0.71350
 C1703 C 0.34999 0.61930 0.71768
 C1704 C 0.35434 0.63978 0.73549
 C1705 C 0.37820 0.64112 0.74892
 C1706 C 0.39735 0.62231 0.74490
 C1707 C 0.33522 0.66081 0.73958
 C1708 C 0.30859 0.65852 0.73443
 H1709 H 0.40683 0.56471 0.71039
 H1710 H 0.36547 0.58500 0.69957
 H1711 H 0.33208 0.61798 0.70647
 H1712 H 0.38200 0.65677 0.76271
 H1713 H 0.41514 0.62390 0.75618
 H1714 H 0.34254 0.67895 0.74746
 H1715 H 0.44596 0.59931 0.74067
 H1716 H 0.30035 0.64010 0.72850
 C1717 C 0.92732 0.93775 0.78869
 C1718 C 0.92723 0.91592 0.77233
 C1719 C 0.90581 0.89672 0.77173
 C1720 C 0.91053 0.87227 0.76051
 C1721 C 0.89054 0.85398 0.75842
 C1722 C 0.86530 0.85989 0.76751
 C1723 C 0.86055 0.88441 0.77854
 C1724 C 0.88052 0.90266 0.78066
 C1725 C 0.84319 0.84168 0.76474
 C1726 C 0.84596 0.81506 0.76049
 H1727 H 0.94355 0.91292 0.75904
 H1728 H 0.92974 0.86736 0.75311
 H1729 H 0.89489 0.83563 0.74907
 H1730 H 0.84120 0.88959 0.78533
 H1731 H 0.87575 0.92155 0.78858
 H1732 H 0.82373 0.84961 0.76682
 H1733 H 0.91144 0.94119 0.80232
 H1734 H 0.86507 0.80623 0.76006
 C1735 C 0.42863 0.43591 0.27003
 C1736 C 0.42794 0.41304 0.25515
 C1737 C 0.40649 0.39380 0.25656
 C1738 C 0.41122 0.36828 0.24810
 C1739 C 0.39134 0.34970 0.24838
 C1740 C 0.36614 0.35636 0.25703
 C1741 C 0.36134 0.38196 0.26520
 C1742 C 0.38124 0.40048 0.26505
 C1743 C 0.34410 0.33774 0.25655
 C1744 C 0.34697 0.31075 0.25590
 H1745 H 0.44429 0.40876 0.24226
 H1746 H 0.43039 0.36270 0.24112
 H1747 H 0.39570 0.33043 0.24119
 H1748 H 0.34203 0.38772 0.27158
 H1749 H 0.37651 0.42008 0.27092
 H1750 H 0.32458 0.34575 0.25743
 H1751 H 0.41281 0.44054 0.28337
 H1752 H 0.36614 0.30210 0.25691
   
