data_POSCAR
  _audit_creation_date              2014-09-24
  _audit_creation_method            'ToBaCCo'
  _symmetry_space_group_name_H-M    'P1'
  _symmetry_Int_Tables_number       1
  _symmetry_cell_setting            triclinic
  loop_
  _symmetry_equiv_pos_as_xyz
 x,y,z
_cell_length_a 50.0949
_cell_length_b 50.1958
_cell_length_c 50.0811
_cell_angle_alpha 89.879600
_cell_angle_beta 89.797600
_cell_angle_gamma 89.988100
loop_
  _atom_site_label
  _atom_site_type_symbol
  _atom_site_fract_x
  _atom_site_fract_y
  _atom_site_fract_z
C1 C 0.18535 0.22300 0.21384
 C2 C 0.20028 0.23035 0.19127
 C3 C 0.22238 0.21553 0.18380
 C4 C 0.22979 0.19309 0.19878
 C5 C 0.21504 0.18584 0.22107
 C6 C 0.19268 0.20087 0.22863
 C7 C 0.16304 0.23373 0.22579
 N8 N 0.15675 0.21858 0.24737
 C9 C 0.17469 0.19846 0.24930
 C10 C 0.22678 0.16347 0.23172
 N11 N 0.24817 0.15700 0.21641
 C12 C 0.25024 0.17494 0.19621
 C13 C 0.23301 0.22732 0.16133
 N14 N 0.21785 0.24880 0.15505
 C15 C 0.19779 0.25086 0.17318
 H16 H 0.15219 0.25119 0.21927
 H17 H 0.17458 0.18325 0.26466
 H18 H 0.22031 0.15261 0.24929
 H19 H 0.26549 0.17483 0.18086
 H20 H 0.25046 0.22084 0.15031
 H21 H 0.18258 0.26618 0.17326
 C22 C 0.68832 0.72467 0.71731
 C23 C 0.70321 0.73214 0.69474
 C24 C 0.72514 0.71720 0.68700
 C25 C 0.73240 0.69452 0.70168
 C26 C 0.71769 0.68715 0.72395
 C27 C 0.69552 0.70230 0.73180
 C28 C 0.66609 0.73539 0.72945
 N29 N 0.65975 0.72001 0.75085
 C30 C 0.67755 0.69974 0.75247
 C31 C 0.72922 0.66449 0.73424
 N32 N 0.75045 0.65799 0.71873
 C33 C 0.75263 0.67617 0.69876
 C34 C 0.73571 0.72907 0.66452
 N35 N 0.72066 0.75072 0.65853
 C36 C 0.70075 0.75279 0.67681
 H37 H 0.65531 0.75299 0.72315
 H38 H 0.67734 0.68430 0.76760
 H39 H 0.72270 0.65348 0.75169
 H40 H 0.76779 0.67607 0.68332
 H41 H 0.75295 0.72239 0.65331
 H42 H 0.68563 0.76820 0.67696
 C43 C 0.31333 0.77509 0.71985
 C44 C 0.29836 0.76764 0.69747
 C45 C 0.27616 0.78236 0.69021
 C46 C 0.26868 0.80473 0.70518
 C47 C 0.28345 0.81210 0.72727
 C48 C 0.30595 0.79720 0.73463
 C49 C 0.33583 0.76457 0.73152
 N50 N 0.34222 0.77981 0.75287
 C51 C 0.32413 0.79980 0.75500
 C52 C 0.27169 0.83453 0.73784
 N53 N 0.25022 0.84086 0.72263
 C54 C 0.24821 0.82281 0.70261
 C55 C 0.26561 0.77065 0.66779
 N56 N 0.28091 0.74933 0.66133
 C57 C 0.30099 0.74726 0.67931
 H58 H 0.34684 0.74719 0.72498
 H59 H 0.32418 0.81508 0.77021
 H60 H 0.27837 0.84545 0.75519
 H61 H 0.23299 0.82293 0.68731
 H62 H 0.24816 0.77715 0.65686
 H63 H 0.31634 0.73210 0.67917
 C64 C 0.81297 0.27533 0.21698
 C65 C 0.79818 0.26776 0.19451
 C66 C 0.77609 0.28249 0.18691
 C67 C 0.76854 0.30501 0.20164
 C68 C 0.78315 0.31248 0.22380
 C69 C 0.80552 0.29758 0.23150
 C70 C 0.83533 0.26485 0.22896
 N71 N 0.84158 0.28027 0.25027
 C72 C 0.82349 0.30033 0.25203
 C73 C 0.77134 0.33496 0.23414
 N74 N 0.75004 0.34127 0.21876
 C75 C 0.74810 0.32313 0.19882
 C76 C 0.76571 0.27065 0.16448
 N77 N 0.78101 0.24923 0.15833
 C78 C 0.80091 0.24723 0.17652
 H79 H 0.84633 0.24737 0.22265
 H80 H 0.82334 0.31578 0.26707
 H81 H 0.77772 0.34601 0.25153
 H82 H 0.73297 0.32311 0.18346
 H83 H 0.74840 0.27712 0.15333
 H84 H 0.81622 0.23203 0.17665
 C85 C 0.81253 0.72578 0.28257
 C86 C 0.79762 0.73331 0.30507
 C87 C 0.77556 0.71851 0.31276
 C88 C 0.76818 0.69594 0.29809
 C89 C 0.78291 0.68849 0.27589
 C90 C 0.80523 0.70349 0.26809
 C91 C 0.83490 0.73636 0.27051
 N92 N 0.84126 0.72096 0.24916
 C93 C 0.82330 0.70081 0.24752
 C94 C 0.77122 0.66594 0.26563
 N95 N 0.74989 0.65959 0.28110
 C96 C 0.74781 0.67775 0.30101
 C97 C 0.76501 0.73036 0.33520
 N98 N 0.78019 0.75188 0.34123
 C99 C 0.80017 0.75388 0.32301
 H100 H 0.84574 0.75385 0.27691
 H101 H 0.82345 0.68536 0.23246
 H102 H 0.77771 0.65489 0.24823
 H103 H 0.73262 0.67775 0.31643
 H104 H 0.74769 0.72375 0.34635
 H105 H 0.81540 0.76918 0.32291
 C106 C 0.31343 0.22305 -0.21920
 C107 C 0.29833 0.23077 -0.19690
 C108 C 0.27619 0.21606 -0.18931
 C109 C 0.26890 0.19341 -0.20391
 C110 C 0.28379 0.18580 -0.22595
 C111 C 0.30623 0.20071 -0.23364
 C112 C 0.33591 0.23353 -0.23107
 N113 N 0.34250 0.21804 -0.25225
 C114 C 0.32450 0.19791 -0.25404
 C115 C 0.27214 0.16320 -0.23617
 N116 N 0.25067 0.15695 -0.22080
 C117 C 0.24848 0.17528 -0.20102
 C118 C 0.26548 0.22808 -0.16704
 N119 N 0.28064 0.24962 -0.16103
 C120 C 0.30077 0.25145 -0.17910
 H121 H 0.34677 0.25107 -0.22476
 H122 H 0.32463 0.18239 -0.26901
 H123 H 0.27877 0.15205 -0.25346
 H124 H 0.23321 0.17550 -0.18568
 H125 H 0.24804 0.22159 -0.15599
 H126 H 0.31603 0.26672 -0.17918
 C127 C 0.68958 0.27353 -0.22028
 C128 C 0.70451 0.26597 -0.19788
 C129 C 0.72667 0.28068 -0.19053
 C130 C 0.73414 0.30315 -0.20545
 C131 C 0.71940 0.31063 -0.22756
 C132 C 0.69695 0.29574 -0.23500
 C133 C 0.66705 0.26312 -0.23196
 N134 N 0.66062 0.27853 -0.25328
 C135 C 0.67876 0.29853 -0.25535
 C136 C 0.73109 0.33320 -0.23800
 N137 N 0.75247 0.33952 -0.22269
 C138 C 0.75450 0.32132 -0.20273
 C139 C 0.73715 0.26892 -0.16805
 N140 N 0.72185 0.24757 -0.16161
 C141 C 0.70184 0.24554 -0.17968
 H142 H 0.65604 0.24572 -0.22540
 H143 H 0.67876 0.31398 -0.27045
 H144 H 0.72438 0.34425 -0.25530
 H145 H 0.76964 0.32141 -0.18735
 H146 H 0.75451 0.27544 -0.15703
 H147 H 0.68647 0.23039 -0.17956
 C148 C 0.18443 0.77669 0.28405
 C149 C 0.19919 0.76932 0.30662
 C150 C 0.22134 0.78404 0.31396
 C151 C 0.22899 0.80633 0.29886
 C152 C 0.21441 0.81362 0.27658
 C153 C 0.19197 0.79872 0.26915
 C154 C 0.16210 0.76606 0.27220
 N155 N 0.15599 0.78116 0.25057
 C156 C 0.17406 0.80117 0.24852
 C157 C 0.22640 0.83589 0.26581
 N158 N 0.24781 0.84220 0.28109
 C159 C 0.24956 0.82430 0.30135
 C160 C 0.23180 0.77231 0.33646
 N161 N 0.21650 0.75096 0.34290
 C162 C 0.19651 0.74891 0.32483
 H163 H 0.15111 0.74870 0.27883
 H164 H 0.17411 0.81631 0.23309
 H165 H 0.21994 0.84666 0.24824
 H166 H 0.26472 0.82440 0.31671
 H167 H 0.24924 0.77875 0.34740
 H168 H 0.18122 0.73369 0.32489
 C169 C 0.47479 0.43914 0.46919
 C170 C 0.48225 0.45416 0.44676
 C171 C 0.46748 0.47630 0.43946
 C172 C 0.44500 0.48365 0.45451
 C173 C 0.43763 0.46882 0.47668
 C174 C 0.45261 0.44639 0.48406
 C175 C 0.48536 0.41665 0.48082
 N176 N 0.47009 0.41013 0.50225
 C177 C 0.45001 0.42813 0.50446
 C178 C 0.41509 0.48047 0.48730
 N179 N 0.40872 0.50189 0.47205
 C180 C 0.42680 0.50402 0.45196
 C181 C 0.47923 0.48690 0.41693
 N182 N 0.50065 0.47167 0.41048
 C183 C 0.50269 0.45161 0.42853
 H184 H 0.50279 0.40572 0.47420
 H185 H 0.43467 0.42795 0.51972
 H186 H 0.40411 0.47379 0.50471
 H187 H 0.42662 0.51928 0.43665
 H188 H 0.47262 0.50429 0.40599
 H189 H 0.51791 0.43630 0.42829
 C190 C -0.02613 -0.06396 0.96741
 C191 C -0.01806 -0.04884 0.94525
 C192 C -0.03236 -0.02639 0.93797
 C193 C -0.05494 -0.01880 0.95272
 C194 C -0.06290 -0.03372 0.97463
 C195 C -0.04842 -0.05648 0.98200
 C196 C -0.01607 -0.08668 0.97904
 N197 N -0.03176 -0.09314 1.00022
 C198 C -0.05160 -0.07482 1.00225
 C199 C -0.08535 -0.02175 0.98504
 N200 N -0.09116 -0.00006 0.96991
 C201 C -0.07270 0.00195 0.95011
 C202 C -0.02007 -0.01571 0.91578
 N203 N 0.00121 -0.03119 0.90948
 C204 C 0.00266 -0.05150 0.92732
 H205 H 0.00135 -0.09776 0.97261
 H206 H -0.06716 -0.07475 1.01730
 H207 H -0.09671 -0.02832 1.00227
 H208 H -0.07216 0.01731 0.93492
 H209 H -0.02614 0.00193 0.90491
 H210 H 0.01764 -0.06703 0.92726
 C211 C 1.02501 0.56168 0.96825
 C212 C 1.01754 0.54680 0.94582
 C213 C 1.03230 0.52469 0.93841
 C214 C 1.05473 0.51720 0.95329
 C215 C 1.06213 0.53188 0.97545
 C216 C 1.04718 0.55429 0.98295
 C217 C 1.01445 0.58411 0.97998
 N218 N 1.02972 0.59047 1.00138
 C219 C 1.04978 0.57241 1.00337
 C220 C 1.08462 0.52009 0.98591
 N221 N 1.09095 0.49872 0.97057
 C222 C 1.07286 0.49679 0.95058
 C223 C 1.02056 0.51420 0.91596
 N224 N 0.99913 0.52946 0.90967
 C225 C 0.99710 0.54943 0.92773
 H226 H 0.99705 0.59501 0.97332
 H227 H 1.06513 0.57254 1.01855
 H228 H 1.09557 0.52669 1.00327
 H229 H 1.07297 0.48165 0.93520
 H230 H 1.02716 0.49684 0.90499
 H231 H 0.98185 0.56472 0.92762
 C232 C 0.52600 0.06262 0.46573
 C233 C 0.51833 0.04768 0.44340
 C234 C 0.53303 0.02556 0.43589
 C235 C 0.55564 0.01812 0.45056
 C236 C 0.56320 0.03287 0.47260
 C237 C 0.54831 0.05526 0.48022
 C238 C 0.51552 0.08500 0.47765
 N239 N 0.53097 0.09132 0.49888
 C240 C 0.55107 0.07331 0.50066
 C241 C 0.58571 0.02111 0.48296
 N242 N 0.59197 -0.00030 0.46768
 C243 C 0.57373 -0.00235 0.44781
 C244 C 0.52102 0.01496 0.41363
 N245 N 0.49950 0.03017 0.40755
 C246 C 0.49766 0.05022 0.42555
 H247 H 0.49799 0.09595 0.47139
 H248 H 0.56652 0.07331 0.51571
 H249 H 0.59680 0.02761 0.50029
 H250 H 0.57355 -0.01756 0.43253
 H251 H 0.52750 -0.00244 0.40266
 H252 H 0.48238 0.06547 0.42558
 C253 C -0.02658 0.06556 0.53549
 C254 C -0.01882 0.05048 0.55776
 C255 C -0.03342 0.02822 0.56518
 C256 C -0.05597 0.02078 0.55046
 C257 C -0.06360 0.03566 0.52848
 C258 C -0.04884 0.05820 0.52097
 C259 C -0.01616 0.08802 0.52359
 N260 N -0.03161 0.09439 0.50234
 C261 C -0.05164 0.07633 0.50052
 C262 C -0.08598 0.02380 0.51800
 N263 N -0.09206 0.00222 0.53314
 C264 C -0.07389 0.00014 0.55304
 C265 C -0.02130 0.01746 0.58732
 N266 N 0.00016 0.03267 0.59346
 C267 C 0.00190 0.05291 0.57556
 H268 H 0.00135 0.09897 0.52983
 H269 H -0.06704 0.07631 0.48542
 H270 H -0.09708 0.03032 0.50066
 H271 H -0.07367 -0.01526 0.56819
 H272 H -0.02756 -0.00012 0.59823
 H273 H 0.01712 0.06821 0.57545
 C274 C 0.47339 0.56272 0.03449
 C275 C 0.48088 0.54760 0.05681
 C276 C 0.46615 0.52538 0.06410
 C277 C 0.44369 0.51806 0.04918
 C278 C 0.43632 0.53301 0.02714
 C279 C 0.45124 0.55548 0.01976
 C280 C 0.48399 0.58519 0.02277
 N281 N 0.46874 0.59170 0.00139
 C282 C 0.44866 0.57368 -0.00066
 C283 C 0.41394 0.52133 0.01649
 N284 N 0.40758 0.49978 0.03157
 C285 C 0.42559 0.49755 0.05161
 C286 C 0.47802 0.51463 0.08643
 N287 N 0.49946 0.52984 0.09273
 C288 C 0.50139 0.55002 0.07482
 H289 H 0.50147 0.59605 0.02926
 H290 H 0.43334 0.57371 -0.01584
 H291 H 0.40300 0.52795 -0.00091
 H292 H 0.42555 0.48215 0.06677
 H293 H 0.47151 0.49713 0.09729
 H294 H 0.51663 0.56531 0.07497
 C295 C 0.52566 -0.06176 0.03309
 C296 C 0.51794 -0.04679 0.05541
 C297 C 0.53251 -0.02456 0.06274
 C298 C 0.55505 -0.01705 0.04784
 C299 C 0.56267 -0.03184 0.02578
 C300 C 0.54790 -0.05435 0.01837
 C301 C 0.51533 -0.08429 0.02143
 N302 N 0.53081 -0.09068 0.00014
 C303 C 0.55078 -0.07255 -0.00196
 C304 C 0.58517 -0.02008 0.01526
 N305 N 0.59136 0.00136 0.03044
 C306 C 0.57312 0.00344 0.05040
 C307 C 0.52051 -0.01405 0.08515
 N308 N 0.49914 -0.02944 0.09148
 C309 C 0.49739 -0.04950 0.07350
 H310 H 0.49791 -0.09533 0.02794
 H311 H 0.56624 -0.07260 -0.01711
 H312 H 0.59635 -0.02662 -0.00207
 H313 H 0.57302 0.01868 0.06565
 H314 H 0.52692 0.00336 0.09609
 H315 H 0.48227 -0.06490 0.07368
 C316 C 1.02478 0.43902 0.53093
 C317 C 1.01748 0.45355 0.55369
 C318 C 1.03233 0.47550 0.56126
 C319 C 1.05472 0.48315 0.54623
 C320 C 1.06195 0.46880 0.52376
 C321 C 1.04689 0.44657 0.51608
 C322 C 1.01413 0.41679 0.51897
 N323 N 1.02929 0.41074 0.49733
 C324 C 1.04937 0.42875 0.49537
 C325 C 1.08446 0.48062 0.51323
 N326 N 1.09096 0.50171 0.52883
 C327 C 1.07296 0.50343 0.54905
 C328 C 1.02073 0.48565 0.58402
 N329 N 0.99934 0.47034 0.59037
 C330 C 0.99713 0.45065 0.57201
 H331 H 0.99677 0.40576 0.52561
 H332 H 1.06464 0.42876 0.48002
 H333 H 1.09530 0.47423 0.49565
 H334 H 1.07321 0.51832 0.56467
 H335 H 1.02734 0.50284 0.59523
 H336 H 0.98188 0.43539 0.57196
 C337 C 0.41438 0.01097 0.21468
 H338 H 0.41621 0.02860 0.22693
 C339 C 0.43164 0.00715 0.19307
 H340 H 0.44678 0.02192 0.18859
 C341 C 0.39272 -0.03003 0.20576
 H342 H 0.37780 -0.04467 0.21098
 C343 C 0.40949 -0.03456 0.18391
 H344 H 0.40714 -0.05263 0.17244
 N345 N 0.39524 -0.00740 0.22045
 C346 C 0.33078 0.03330 0.26238
 H347 H 0.32908 0.02081 0.27993
 C348 C 0.31310 0.05448 0.25870
 H349 H 0.29788 0.05825 0.27358
 C350 C 0.35263 0.04330 0.22150
 H351 H 0.36783 0.03871 0.20689
 C352 C 0.33542 0.06475 0.21710
 H353 H 0.33759 0.07671 0.19920
 Zn354 Zn 0.37296 -0.00114 0.25040
 N355 N 0.35020 0.02827 0.24402
 C356 C 0.39236 0.02834 0.29465
 N357 N 0.39530 0.00571 0.28002
 C358 C 0.41490 -0.01219 0.28560
 C359 C 0.43219 -0.00791 0.30697
 C360 C 0.40915 0.03334 0.31627
 C361 C 0.33154 -0.03674 0.23914
 C362 C 0.31433 -0.05823 0.24334
 C363 C 0.33711 -0.06756 0.28475
 C364 C 0.35384 -0.04582 0.27983
 N365 N 0.35097 -0.03110 0.25718
 H366 H 0.37708 0.04263 0.28958
 H367 H 0.41706 -0.02982 0.27338
 H368 H 0.44768 -0.02232 0.31131
 H369 H 0.40646 0.05139 0.32771
 H370 H 0.32942 -0.02446 0.22150
 H371 H 0.29895 -0.06258 0.22884
 H372 H 0.33972 -0.07906 0.30283
 H373 H 0.36899 -0.04071 0.29421
 C374 C 0.31543 0.07048 0.23584
 C375 C 0.42915 -0.01577 0.17738
 C376 C 0.31713 -0.07392 0.26631
 C377 C 0.42927 0.01501 0.32261
 C378 C 0.08435 -0.01291 0.71632
 H379 H 0.08256 -0.03013 0.72924
 C380 C 0.06649 -0.00938 0.69528
 H381 H 0.05104 -0.02405 0.69203
 C382 C 0.10655 0.02735 0.70521
 H383 H 0.12192 0.04181 0.70936
 C384 C 0.08915 0.03160 0.68390
 H385 H 0.09135 0.04922 0.67157
 N386 N 0.10401 0.00522 0.72076
 C387 C 0.16781 -0.03653 0.76255
 H388 H 0.17005 -0.02397 0.77992
 C389 C 0.18479 -0.05828 0.75881
 H390 H 0.20012 -0.06257 0.77340
 C391 C 0.14544 -0.04605 0.72203
 H392 H 0.13038 -0.04100 0.70751
 C393 C 0.16193 -0.06803 0.71759
 H394 H 0.15922 -0.07978 0.69973
 Zn395 Zn 0.12670 -0.00070 0.75032
 N396 N 0.14846 -0.03098 0.74438
 C397 C 0.10669 -0.02811 0.79603
 N398 N 0.10453 -0.00589 0.78057
 C399 C 0.08551 0.01282 0.78552
 C400 C 0.06787 0.00975 0.80695
 C401 C 0.08951 -0.03190 0.81773
 C402 C 0.16871 0.03355 0.73672
 C403 C 0.18643 0.05481 0.73966
 C404 C 0.16468 0.06584 0.78132
 C405 C 0.14744 0.04431 0.77766
 N406 N 0.14956 0.02885 0.75548
 H407 H 0.12154 -0.04303 0.79149
 H408 H 0.08400 0.03010 0.77267
 H409 H 0.05289 0.02484 0.81056
 H410 H 0.09136 -0.04964 0.82995
 H411 H 0.17017 0.02072 0.71944
 H412 H 0.20145 0.05832 0.72449
 H413 H 0.16275 0.07813 0.79897
 H414 H 0.13248 0.03998 0.79261
 C415 C 0.18183 -0.07432 0.73616
 C416 C 0.06887 0.01311 0.67882
 C417 C 0.18441 0.07122 0.76217
 C418 C 0.06982 -0.01287 0.82328
 C419 C 0.58413 0.48825 0.21532
 H420 H 0.58219 0.47065 0.22768
 C421 C 0.56684 0.49219 0.19384
 H422 H 0.55158 0.47754 0.18957
 C423 C 0.60605 0.52910 0.20601
 H424 H 0.62105 0.54366 0.21103
 C425 C 0.58926 0.53375 0.18430
 H426 H 0.59171 0.55181 0.17276
 N427 N 0.60341 0.50649 0.22083
 C428 C 0.66764 0.46578 0.26284
 H429 H 0.66947 0.47858 0.28009
 C430 C 0.68522 0.44446 0.25945
 H431 H 0.70047 0.44091 0.27425
 C432 C 0.64560 0.45516 0.22243
 H433 H 0.63037 0.45958 0.20787
 C434 C 0.66271 0.43357 0.21831
 H435 H 0.66044 0.42131 0.20069
 Zn436 Zn 0.62577 0.50034 0.25062
 N437 N 0.64818 0.47058 0.24458
 C438 C 0.60633 0.47169 0.29557
 N439 N 0.60359 0.49424 0.28071
 C440 C 0.58434 0.51250 0.28643
 C441 C 0.56722 0.50866 0.30818
 C442 C 0.58971 0.46712 0.31754
 C443 C 0.66761 0.53489 0.23788
 C444 C 0.68519 0.55621 0.24107
 C445 C 0.66286 0.56712 0.28246
 C446 C 0.64575 0.54552 0.27855
 N447 N 0.64824 0.53009 0.25637
 H448 H 0.62130 0.45710 0.29039
 H449 H 0.58232 0.53006 0.27404
 H450 H 0.55200 0.52334 0.31262
 H451 H 0.59225 0.44911 0.32913
 H452 H 0.66936 0.52208 0.22062
 H453 H 0.70038 0.55977 0.22608
 H454 H 0.66066 0.57939 0.30009
 H455 H 0.63059 0.54110 0.29329
 C456 C 0.68275 0.42809 0.23697
 C457 C 0.56945 0.51511 0.17804
 C458 C 0.68282 0.57260 0.26357
 C459 C 0.56995 0.48580 0.32403
 C460 C 0.91662 0.51259 0.71589
 H461 H 0.91800 0.52986 0.72869
 C462 C 0.93429 0.50967 0.69446
 H463 H 0.94917 0.52486 0.69080
 C464 C 0.89562 0.47163 0.70535
 H465 H 0.88076 0.45669 0.70983
 C466 C 0.91279 0.46801 0.68365
 H467 H 0.91094 0.45037 0.67137
 N468 N 0.89763 0.49382 0.72078
 C469 C 0.83211 0.53288 0.76265
 H470 H 0.83031 0.52007 0.77996
 C471 C 0.81442 0.55410 0.75922
 H472 H 0.79907 0.55757 0.77405
 C473 C 0.85432 0.54373 0.72218
 H474 H 0.86969 0.53948 0.70764
 C475 C 0.83710 0.56521 0.71803
 H476 H 0.83942 0.57754 0.70040
 Zn477 Zn 0.87484 0.49907 0.75053
 N478 N 0.85175 0.52829 0.74441
 C479 C 0.89331 0.52807 0.79552
 N480 N 0.89671 0.50572 0.78056
 C481 C 0.91648 0.48798 0.78609
 C482 C 0.93345 0.49214 0.80774
 C483 C 0.90978 0.53294 0.81740
 C484 C 0.83421 0.46289 0.73808
 C485 C 0.81738 0.44099 0.74170
 C486 C 0.83983 0.43144 0.78324
 C487 C 0.85616 0.45358 0.77891
 N488 N 0.85329 0.46862 0.75646
 H489 H 0.87792 0.54226 0.79049
 H490 H 0.91902 0.47059 0.77362
 H491 H 0.94908 0.47786 0.81203
 H492 H 0.90672 0.55078 0.82910
 H493 H 0.83207 0.47542 0.72061
 H494 H 0.80228 0.43657 0.72694
 H495 H 0.84243 0.41971 0.80118
 H496 H 0.87100 0.45876 0.79358
 C497 C 0.81696 0.57057 0.73673
 C498 C 0.93236 0.48717 0.67807
 C499 C 0.82022 0.42498 0.76445
 C500 C 0.93006 0.51478 0.82369
 C501 C 0.21350 0.41584 0.00983
 H502 H 0.22593 0.41778 0.02734
 C503 C 0.19173 0.43285 0.00626
 H504 H 0.18732 0.44789 0.02110
 C505 C 0.20431 0.39421 -0.03116
 H506 H 0.20949 0.37942 -0.04591
 C507 C 0.18230 0.41073 -0.03544
 H508 H 0.17068 0.40832 -0.05343
 N509 N 0.21923 0.39684 -0.00866
 C510 C 0.26258 0.33308 0.03143
 H511 H 0.28002 0.33176 0.01869
 C512 C 0.25931 0.31519 0.05257
 H513 H 0.27439 0.30019 0.05609
 C514 C 0.22153 0.35415 0.04202
 H515 H 0.20668 0.36911 0.03765
 C516 C 0.21754 0.33674 0.06344
 H517 H 0.19972 0.33851 0.07561
 Zn518 Zn 0.24954 0.37508 -0.00286
 N519 N 0.24392 0.35220 0.02669
 C520 C 0.29411 0.39518 0.02579
 N521 N 0.27891 0.39788 0.00348
 C522 C 0.28377 0.41757 -0.01459
 C523 C 0.30493 0.43525 -0.01084
 C524 C 0.31554 0.41236 0.03026
 C525 C 0.23836 0.33368 -0.03844
 C526 C 0.24257 0.31659 -0.06001
 C527 C 0.28361 0.33997 -0.06979
 C528 C 0.27869 0.35657 -0.04798
 N529 N 0.25621 0.35333 -0.03298
 H530 H 0.28965 0.37977 0.04020
 H531 H 0.27114 0.41948 -0.03197
 H532 H 0.30856 0.45068 -0.02550
 H533 H 0.32763 0.40997 0.04799
 H534 H 0.22087 0.33128 -0.02594
 H535 H 0.22823 0.30102 -0.06421
 H536 H 0.30157 0.34285 -0.08150
 H537 H 0.29294 0.37188 -0.04300
 C538 C 0.23656 0.31701 0.06882
 C539 C 0.17585 0.43027 -0.01654
 C540 C 0.26538 0.31975 -0.07596
 C541 C 0.32109 0.43263 0.01180
 C542 C 0.71673 0.08311 -0.01358
 H543 H 0.72982 0.08115 -0.03069
 C544 C 0.69522 0.06569 -0.01035
 H545 H 0.69180 0.05042 -0.02514
 C546 C 0.70561 0.10526 0.02672
 H547 H 0.70992 0.12043 0.04133
 C548 C 0.68383 0.08832 0.03066
 H549 H 0.67133 0.09068 0.04819
 N550 N 0.72139 0.10253 0.00472
 C551 C 0.76500 0.16595 -0.03594
 H552 H 0.78213 0.16778 -0.02296
 C553 C 0.76201 0.18330 -0.05756
 H554 H 0.77700 0.19838 -0.06120
 C555 C 0.72442 0.14421 -0.04662
 H556 H 0.70961 0.12924 -0.04209
 C557 C 0.72072 0.16108 -0.06850
 H558 H 0.70317 0.15885 -0.08087
 Zn559 Zn 0.75150 0.12468 -0.00073
 N560 N 0.74644 0.14677 -0.03099
 C561 C 0.79723 0.10441 -0.02774
 N562 N 0.78141 0.10215 -0.00571
 C563 C 0.78585 0.08291 0.01293
 C564 C 0.80712 0.06516 0.00997
 C565 C 0.81879 0.08715 -0.03140
 C566 C 0.73825 0.16661 0.03355
 C567 C 0.74125 0.18421 0.05488
 C568 C 0.78232 0.16183 0.06644
 C569 C 0.77860 0.14470 0.04484
 N570 N 0.75669 0.14721 0.02906
 H571 H 0.79311 0.11945 -0.04260
 H572 H 0.77273 0.08133 0.03007
 H573 H 0.81035 0.05001 0.02501
 H574 H 0.83131 0.08913 -0.04897
 H575 H 0.72120 0.16838 0.02046
 H576 H 0.72634 0.19945 0.05817
 H577 H 0.79977 0.15962 0.07896
 H578 H 0.79331 0.12953 0.04068
 C579 C 0.73963 0.18088 -0.07409
 C580 C 0.67853 0.06828 0.01200
 C581 C 0.76350 0.18183 0.07158
 C582 C 0.82383 0.06725 -0.01243
 C583 C 0.21363 0.58471 0.48928
 H584 H 0.22605 0.58292 0.47166
 C585 C 0.19199 0.56753 0.49297
 H586 H 0.18767 0.55250 0.47812
 C587 C 0.20426 0.60620 0.53036
 H588 H 0.20929 0.62103 0.54509
 C589 C 0.18240 0.58950 0.53478
 H590 H 0.17074 0.59182 0.55284
 N591 N 0.21917 0.60376 0.50773
 C592 C 0.26121 0.66824 0.46718
 H593 H 0.27853 0.66998 0.47991
 C594 C 0.25775 0.68592 0.44592
 H595 H 0.27257 0.70118 0.44233
 C596 C 0.22069 0.64628 0.45671
 H597 H 0.20612 0.63106 0.46116
 C598 C 0.21651 0.66349 0.43518
 H599 H 0.19882 0.66130 0.42300
 Zn600 Zn 0.24900 0.62615 0.50167
 N601 N 0.24293 0.64877 0.47202
 C602 C 0.29387 0.60705 0.47267
 N603 N 0.27903 0.60410 0.49530
 C604 C 0.28473 0.58475 0.51346
 C605 C 0.30645 0.56775 0.50945
 C606 C 0.31582 0.59056 0.46795
 C607 C 0.23645 0.66757 0.53667
 C608 C 0.23980 0.68498 0.55809
 C609 C 0.28120 0.66268 0.56861
 C610 C 0.27713 0.64574 0.54692
 N611 N 0.25488 0.64830 0.53162
 H612 H 0.28871 0.62211 0.45817
 H613 H 0.27235 0.58256 0.53107
 H614 H 0.31089 0.55245 0.52406
 H615 H 0.32741 0.59327 0.44990
 H616 H 0.21912 0.66938 0.52396
 H617 H 0.22488 0.70010 0.56183
 H618 H 0.29891 0.66045 0.58076
 H619 H 0.29181 0.63068 0.54231
 C620 C 0.23518 0.68355 0.42965
 C621 C 0.17607 0.56998 0.51588
 C622 C 0.26240 0.68255 0.57432
 C623 C 0.32230 0.57071 0.48654
 C624 C 0.71525 0.91856 0.51222
 H625 H 0.72796 0.92040 0.52955
 C626 C 0.69388 0.93605 0.50874
 H627 H 0.69018 0.95127 0.52355
 C628 C 0.70496 0.89657 0.47170
 H629 H 0.70953 0.88140 0.45713
 C630 C 0.68331 0.91359 0.46750
 H631 H 0.67116 0.91131 0.44980
 N632 N 0.72025 0.89917 0.49394
 C633 C 0.76211 0.83529 0.53548
 H634 H 0.77975 0.83334 0.52311
 C635 C 0.75815 0.81804 0.55705
 H636 H 0.77281 0.80279 0.56137
 C637 C 0.72121 0.85722 0.54473
 H638 H 0.70664 0.87223 0.53967
 C639 C 0.71654 0.84048 0.56655
 H640 H 0.69845 0.84295 0.57812
 Zn641 Zn 0.75012 0.87691 0.50002
 N642 N 0.74386 0.85457 0.52989
 C643 C 0.79506 0.89682 0.52840
 N644 N 0.77976 0.89941 0.50615
 C645 C 0.78455 0.91896 0.48791
 C646 C 0.80571 0.93667 0.49146
 C647 C 0.81650 0.91406 0.53266
 C648 C 0.73849 0.83545 0.46446
 C649 C 0.74257 0.81838 0.44284
 C650 C 0.78401 0.84119 0.43339
 C651 C 0.77921 0.85776 0.45524
 N652 N 0.75659 0.85482 0.47008
 H653 H 0.79064 0.88151 0.54293
 H654 H 0.77184 0.92077 0.47058
 H655 H 0.80925 0.95202 0.47669
 H656 H 0.82865 0.91181 0.55037
 H657 H 0.72087 0.83329 0.47683
 H658 H 0.72802 0.80306 0.43848
 H659 H 0.80206 0.84387 0.42180
 H660 H 0.79366 0.87284 0.46034
 C661 C 0.73520 0.82068 0.57289
 C662 C 0.67765 0.93358 0.48615
 C663 C 0.76549 0.82130 0.42700
 C664 C 0.82194 0.93424 0.51407
 C665 C 0.01191 0.21774 0.41730
 H666 H 0.02923 0.23054 0.41850
 C667 C 0.00869 0.19688 0.43551
 H668 H 0.02368 0.19366 0.45066
 C669 C -0.02882 0.20659 0.39609
 H670 H -0.04354 0.21060 0.38091
 C671 C -0.03276 0.18546 0.41384
 H672 H -0.05042 0.17315 0.41212
 N673 N -0.00657 0.22203 0.39792
 C674 C 0.03427 0.26137 0.33181
 H675 H 0.02180 0.27879 0.32930
 C676 C 0.05569 0.25695 0.31447
 H677 H 0.05981 0.27105 0.29859
 C678 C 0.04393 0.22148 0.35530
 H679 H 0.03907 0.20748 0.37097
 C680 C 0.06558 0.21635 0.33845
 H681 H 0.07728 0.19850 0.34150
 Zn682 Zn -0.00075 0.25088 0.37424
 N683 N 0.02897 0.24386 0.35191
 C684 C 0.02807 0.29631 0.39188
 N685 N 0.00551 0.28156 0.39522
 C686 C -0.01264 0.28760 0.41455
 C687 C -0.00861 0.30947 0.43123
 C688 C 0.03281 0.31842 0.40806
 C689 C -0.03581 0.23694 0.33325
 C690 C -0.05714 0.23990 0.31562
 C691 C -0.06755 0.28200 0.33649
 C692 C -0.04594 0.27833 0.35364
 N693 N -0.03071 0.25594 0.35188
 H694 H 0.04256 0.29087 0.37685
 H695 H -0.03019 0.27528 0.41707
 H696 H -0.02315 0.31409 0.44660
 H697 H 0.05087 0.32988 0.40514
 H698 H -0.02315 0.21951 0.33205
 H699 H -0.06090 0.22457 0.30097
 H700 H -0.07960 0.29985 0.33807
 H701 H -0.04130 0.29345 0.36820
 C702 C 0.07163 0.23428 0.31783
 C703 C -0.01384 0.18045 0.43376
 C704 C -0.07325 0.26267 0.31720
 C705 C 0.01431 0.32513 0.42799
 C706 C -0.01186 0.71290 0.08282
 H707 H -0.02945 0.72517 0.08039
 C708 C -0.00762 0.69116 0.06599
 H709 H -0.02203 0.68661 0.05058
 C710 C 0.02861 0.70408 0.10557
 H711 H 0.04289 0.70937 0.12075
 C712 C 0.03357 0.68210 0.08923
 H713 H 0.05158 0.67059 0.09215
 N714 N 0.00603 0.71879 0.10230
 C715 C -0.03690 0.76130 0.16502
 H716 H -0.02467 0.77897 0.16676
 C717 C -0.05855 0.75751 0.18225
 H718 H -0.06309 0.77235 0.19726
 C719 C -0.04566 0.72012 0.14368
 H720 H -0.04036 0.70538 0.12892
 C721 C -0.06755 0.71561 0.16042
 H722 H -0.07897 0.69748 0.15821
 Zn723 Zn -0.00090 0.74895 0.12391
 N724 N -0.03102 0.74282 0.14606
 C725 C -0.02943 0.79341 0.10307
 N726 N -0.00704 0.77822 0.10083
 C727 C 0.01147 0.78311 0.08149
 C728 C 0.00813 0.80435 0.06377
 C729 C -0.03350 0.81492 0.08583
 C730 C 0.03400 0.73828 0.16624
 C731 C 0.05531 0.74270 0.18357
 C732 C 0.06479 0.78375 0.16015
 C733 C 0.04324 0.77862 0.14332
 N734 N 0.02855 0.75601 0.14642
 H735 H -0.04416 0.78894 0.11821
 H736 H 0.02893 0.77050 0.07994
 H737 H 0.02317 0.80804 0.04868
 H738 H -0.05126 0.82705 0.08791
 H739 H 0.02175 0.72066 0.16852
 H740 H 0.05956 0.72841 0.19923
 H741 H 0.07628 0.80177 0.15731
 H742 H 0.03828 0.79278 0.12787
 C743 C -0.07417 0.73449 0.17993
 C744 C 0.01526 0.67547 0.06923
 C745 C 0.07101 0.76559 0.18048
 C746 C -0.01454 0.82057 0.06599
 C747 C 0.48799 0.21535 0.58274
 H748 H 0.47082 0.22834 0.58129
 C749 C 0.49097 0.19418 0.56493
 H750 H 0.47592 0.19090 0.54987
 C751 C 0.52868 0.20415 0.60403
 H752 H 0.54353 0.20830 0.61903
 C753 C 0.53238 0.18271 0.58669
 H754 H 0.54996 0.17029 0.58857
 N755 N 0.50661 0.21980 0.60193
 C756 C 0.46668 0.26200 0.66672
 H757 H 0.47959 0.27916 0.66859
 C758 C 0.44519 0.25868 0.68425
 H759 H 0.44160 0.27345 0.69953
 C760 C 0.45597 0.22168 0.64464
 H761 H 0.46042 0.20711 0.62944
 C762 C 0.43424 0.21764 0.66170
 H763 H 0.42191 0.20007 0.65940
 Zn764 Zn 0.50141 0.24940 0.62473
 N765 N 0.47151 0.24375 0.64725
 C766 C 0.47383 0.29513 0.60555
 N767 N 0.49594 0.27963 0.60274
 C768 C 0.51435 0.28466 0.58334
 C769 C 0.51111 0.30625 0.56604
 C770 C 0.46987 0.31699 0.58873
 C771 C 0.53644 0.23572 0.66597
 C772 C 0.55798 0.23866 0.68335
 C773 C 0.56886 0.28019 0.66142
 C774 C 0.54706 0.27654 0.64453
 N775 N 0.53152 0.25442 0.64691
 H776 H 0.45913 0.29054 0.62068
 H777 H 0.53155 0.27177 0.58131
 H778 H 0.52599 0.30996 0.55079
 H779 H 0.45225 0.32927 0.59115
 H780 H 0.52354 0.21852 0.66767
 H781 H 0.56162 0.22356 0.69833
 H782 H 0.58118 0.29781 0.65932
 H783 H 0.54255 0.29145 0.62966
 C784 C 0.42870 0.23628 0.68173
 C785 C 0.51338 0.17760 0.56690
 C786 C 0.57444 0.26113 0.68109
 C787 C 0.48863 0.32267 0.56872
 C788 C 0.51351 0.71483 0.91963
 H789 H 0.53076 0.72767 0.92140
 C790 C 0.51005 0.69360 0.93736
 H791 H 0.52479 0.69012 0.95269
 C792 C 0.47314 0.70407 0.89757
 H793 H 0.45862 0.70840 0.88229
 C794 C 0.46896 0.68257 0.91482
 H795 H 0.45133 0.67030 0.91260
 N796 N 0.49530 0.71951 0.90008
 C797 C 0.53699 0.76122 0.83589
 H798 H 0.52450 0.77867 0.83373
 C799 C 0.55861 0.75734 0.81865
 H800 H 0.56287 0.77190 0.80322
 C801 C 0.54643 0.72065 0.85825
 H802 H 0.54139 0.70615 0.87340
 C803 C 0.56828 0.71605 0.84151
 H804 H 0.57993 0.69810 0.84413
 Zn805 Zn 0.50124 0.74909 0.87733
 N806 N 0.53145 0.74308 0.85535
 C807 C 0.52873 0.79468 0.89687
 N808 N 0.50657 0.77918 0.89937
 C809 C 0.48790 0.78413 0.91852
 C810 C 0.49091 0.80564 0.93588
 C811 C 0.53246 0.81646 0.91376
 C812 C 0.46679 0.73591 0.83552
 C813 C 0.44549 0.73907 0.81789
 C814 C 0.43460 0.78058 0.83968
 C815 C 0.45617 0.77671 0.85683
 N816 N 0.47158 0.75450 0.85465
 H817 H 0.54361 0.79014 0.88192
 H818 H 0.47066 0.77126 0.92029
 H819 H 0.47581 0.80929 0.95091
 H820 H 0.55010 0.82874 0.91157
 H821 H 0.47959 0.71862 0.83400
 H822 H 0.44192 0.72404 0.80288
 H823 H 0.42236 0.79826 0.84164
 H824 H 0.46058 0.79153 0.87177
 C825 C 0.57452 0.73457 0.82146
 C826 C 0.48756 0.67720 0.93495
 C827 C 0.42913 0.76163 0.81997
 C828 C 0.51341 0.82205 0.93351
 C829 C 0.09161 0.22587 0.26887
 C830 C 0.11458 0.24605 0.26421
 C831 C 0.13447 0.22290 0.26566
 C832 C 0.11201 0.20263 0.26983
 C833 C 0.13793 0.22647 0.29579
 C834 C 0.11750 0.24966 0.29480
 C835 C 0.09473 0.22948 0.29925
 C836 C 0.11493 0.20631 0.30040
 H837 H 0.07231 0.22560 0.25804
 H838 H 0.11457 0.26238 0.24923
 H839 H 0.11019 0.18335 0.25918
 H840 H 0.15735 0.22670 0.30640
 H841 H 0.11954 0.26899 0.30532
 H842 H 0.11540 0.18981 0.31516
 C843 C 0.61781 0.70693 0.80356
 C844 C 0.61492 0.70386 0.77292
 C845 C 0.63745 0.72413 0.76918
 C846 C 0.64088 0.72711 0.79938
 C847 C 0.61764 0.74737 0.76815
 C848 C 0.59459 0.72718 0.77239
 C849 C 0.59767 0.73018 0.80284
 C850 C 0.62051 0.75037 0.79882
 H851 H 0.61823 0.69014 0.81799
 H852 H 0.61306 0.68480 0.76190
 H853 H 0.66027 0.72706 0.81003
 H854 H 0.61772 0.76397 0.75349
 H855 H 0.57532 0.72718 0.76152
 H856 H 0.62260 0.76949 0.80972
 C857 C 0.39754 0.74806 0.77786
 C858 C 0.36813 0.74997 0.78740
 C859 C 0.36490 0.77518 0.77046
 C860 C 0.39377 0.77338 0.76048
 C861 C 0.37300 0.79305 0.79384
 C862 C 0.37680 0.76771 0.81116
 C863 C 0.40597 0.76583 0.80147
 C864 C 0.40240 0.79107 0.78428
 H865 H 0.40745 0.72951 0.77102
 H866 H 0.35360 0.73330 0.78835
 H867 H 0.40024 0.77586 0.73940
 H868 H 0.36282 0.81158 0.80032
 H869 H 0.37009 0.76527 0.83217
 H870 H 0.41677 0.80787 0.78314
 C871 C -0.10478 0.24869 0.27516
 C872 C -0.13424 0.25103 0.28450
 C873 C -0.13708 0.27600 0.26717
 C874 C -0.10820 0.27377 0.25735
 C875 C -0.12896 0.29419 0.29030
 C876 C -0.12550 0.26907 0.30804
 C877 C -0.09631 0.26675 0.29854
 C878 C -0.09953 0.29176 0.28093
 H879 H -0.09500 0.22995 0.26868
 H880 H -0.14893 0.23450 0.28565
 H881 H -0.10157 0.27586 0.23627
 H882 H -0.13887 0.31295 0.29656
 H883 H -0.13235 0.26702 0.32905
 H884 H -0.08499 0.30839 0.27961
 C885 C -0.09460 0.72771 0.22898
 C886 C -0.11769 0.74797 0.23270
 C887 C -0.13746 0.72469 0.23191
 C888 C -0.11491 0.70436 0.22872
 C889 C -0.14071 0.72725 0.20164
 C890 C -0.12034 0.75053 0.20194
 C891 C -0.09746 0.73030 0.19846
 C892 C -0.11758 0.70703 0.19800
 H893 H -0.07541 0.72787 0.23998
 H894 H -0.11776 0.76485 0.24697
 H895 H -0.11310 0.68545 0.24009
 H896 H -0.16001 0.72707 0.19083
 H897 H -0.12235 0.76950 0.19069
 H898 H -0.11786 0.69006 0.18385
 C899 C 0.37628 0.23002 0.69039
 C900 C 0.37236 0.20458 0.70758
 C901 C 0.36408 0.22237 0.73102
 C902 C 0.36736 0.24766 0.71422
 C903 C 0.39283 0.22415 0.74108
 C904 C 0.40169 0.20658 0.71719
 C905 C 0.40536 0.23191 0.70013
 C906 C 0.39669 0.24955 0.72382
 H907 H 0.36975 0.23256 0.66938
 H908 H 0.36236 0.18604 0.70090
 H909 H 0.35281 0.26432 0.71331
 H910 H 0.39915 0.22158 0.76215
 H911 H 0.41609 0.18980 0.71827
 H912 H 0.40649 0.26809 0.73077
 C913 C 0.60635 0.24729 0.72296
 C914 C 0.63571 0.24920 0.71322
 C915 C 0.63903 0.27433 0.73013
 C916 C 0.61025 0.27252 0.74034
 C917 C 0.63082 0.29235 0.70682
 C918 C 0.62687 0.26708 0.68952
 C919 C 0.59777 0.26518 0.69941
 C920 C 0.60148 0.29034 0.71659
 H921 H 0.59646 0.22872 0.72985
 H922 H 0.65021 0.23251 0.71215
 H923 H 0.60391 0.27492 0.76146
 H924 H 0.64085 0.31093 0.70015
 H925 H 0.63344 0.26472 0.66846
 H926 H 0.58713 0.30715 0.71784
 C927 C 0.11420 0.79358 0.19782
 C928 C 0.11122 0.79711 0.22842
 C929 C 0.13374 0.77689 0.23238
 C930 C 0.13726 0.77346 0.20221
 C931 C 0.11392 0.75368 0.23383
 C932 C 0.09089 0.77382 0.22938
 C933 C 0.09406 0.77036 0.19897
 C934 C 0.11689 0.75022 0.20320
 H935 H 0.11465 0.81015 0.18313
 H936 H 0.10934 0.81635 0.23916
 H937 H 0.15669 0.77334 0.19148
 H938 H 0.11393 0.73728 0.24872
 H939 H 0.07158 0.77398 0.24033
 H940 H 0.11901 0.73094 0.19259
 C941 C 0.27997 0.09688 0.20577
 C942 C 0.25598 0.10565 0.22333
 C943 C 0.26585 0.13444 0.22124
 C944 C 0.28941 0.12621 0.20349
 C945 C 0.28257 0.13146 0.24659
 C946 C 0.27313 0.10214 0.24880
 C947 C 0.29693 0.09356 0.23117
 C948 C 0.30652 0.12265 0.22898
 H949 H 0.27904 0.08238 0.18909
 H950 H 0.23496 0.09916 0.22085
 H951 H 0.29599 0.13623 0.18482
 H952 H 0.28332 0.14611 0.26314
 H953 H 0.26613 0.09245 0.26748
 H954 H 0.32748 0.12938 0.23143
 C955 C 0.77486 0.60231 0.75017
 C956 C 0.78456 0.63159 0.74851
 C957 C 0.76791 0.63517 0.72318
 C958 C 0.75778 0.60644 0.72474
 C959 C 0.79143 0.62705 0.70533
 C960 C 0.80846 0.62289 0.73079
 C961 C 0.79861 0.59385 0.73243
 C962 C 0.78173 0.59777 0.70707
 H963 H 0.76775 0.59235 0.76867
 H964 H 0.78541 0.64593 0.76532
 H965 H 0.73671 0.60018 0.72211
 H966 H 0.79814 0.63735 0.68686
 H967 H 0.82946 0.62939 0.73339
 H968 H 0.78070 0.58358 0.69013
 C969 C 0.80308 0.38095 0.79145
 C970 C 0.77235 0.38319 0.79445
 C971 C 0.76936 0.36102 0.77375
 C972 C 0.79965 0.35819 0.77085
 C973 C 0.76807 0.38115 0.75074
 C974 C 0.77158 0.40387 0.77138
 C975 C 0.80211 0.40144 0.76846
 C976 C 0.79883 0.37893 0.74785
 H977 H 0.81736 0.38054 0.80833
 H978 H 0.76110 0.38451 0.81354
 H979 H 0.81076 0.33906 0.77063
 H980 H 0.75366 0.38121 0.73396
 H981 H 0.76027 0.42289 0.77163
 H982 H 0.80997 0.37740 0.72871
 C983 C 0.29930 -0.11712 0.29426
 C984 C 0.26863 -0.11422 0.29739
 C985 C 0.26509 -0.13669 0.27710
 C986 C 0.29530 -0.14016 0.27409
 C987 C 0.26406 -0.11694 0.25375
 C988 C 0.26814 -0.09394 0.27396
 C989 C 0.29860 -0.09702 0.27091
 C990 C 0.29475 -0.11982 0.25072
 H991 H 0.31368 -0.11749 0.31105
 H992 H 0.25753 -0.11235 0.31651
 H993 H 0.30603 -0.15951 0.27414
 H994 H 0.24956 -0.11687 0.23705
 H995 H 0.25721 -0.07470 0.27394
 H996 H 0.30574 -0.12190 0.23156
 C997 C 0.19913 -0.11806 0.70900
 C998 C 0.22981 -0.11554 0.70572
 C999 C 0.23319 -0.13779 0.72637
 C1000 C 0.20295 -0.14088 0.72955
 C1001 C 0.23452 -0.11776 0.74938
 C1002 C 0.23061 -0.09497 0.72879
 C1003 C 0.20012 -0.09767 0.73199
 C1004 C 0.20380 -0.12025 0.75256
 H1005 H 0.18470 -0.11852 0.69225
 H1006 H 0.24087 -0.11404 0.68653
 H1007 H 0.19202 -0.16011 0.72986
 H1008 H 0.24908 -0.11765 0.76602
 H1009 H 0.24174 -0.07586 0.72845
 H1010 H 0.19285 -0.12196 0.77180
 C1011 C 0.72499 0.39657 0.25025
 C1012 C 0.71555 0.36722 0.24863
 C1013 C 0.73233 0.36389 0.22326
 C1014 C 0.74219 0.39270 0.22477
 C1015 C 0.70880 0.37187 0.20547
 C1016 C 0.69163 0.37579 0.23098
 C1017 C 0.70122 0.40491 0.23259
 C1018 C 0.71824 0.40123 0.20717
 H1019 H 0.73197 0.40650 0.26873
 H1020 H 0.71476 0.35281 0.26545
 H1021 H 0.76322 0.39916 0.22207
 H1022 H 0.70226 0.36159 0.18703
 H1023 H 0.67068 0.36909 0.23365
 H1024 H 0.71921 0.41549 0.19022
 C1025 C 0.69160 0.62490 0.26936
 C1026 C 0.70878 0.62889 0.29472
 C1027 C 0.73227 0.63690 0.27673
 C1028 C 0.71547 0.63349 0.25150
 C1029 C 0.74221 0.60811 0.27518
 C1030 C 0.71830 0.59955 0.29299
 C1031 C 0.70126 0.59580 0.26771
 C1032 C 0.72499 0.60416 0.24984
 H1033 H 0.67062 0.63155 0.26685
 H1034 H 0.70223 0.63917 0.31320
 H1035 H 0.71464 0.64788 0.23467
 H1036 H 0.76326 0.60170 0.27772
 H1037 H 0.71932 0.58532 0.30995
 H1038 H 0.73196 0.59420 0.23133
 C1039 C 0.22007 0.09811 0.79136
 C1040 C 0.24395 0.10667 0.77350
 C1041 C 0.23396 0.13545 0.77509
 C1042 C 0.21053 0.12744 0.79315
 C1043 C 0.21713 0.13210 0.74988
 C1044 C 0.22663 0.10274 0.74819
 C1045 C 0.20296 0.09438 0.76612
 C1046 C 0.19330 0.12347 0.76781
 H1047 H 0.22113 0.08386 0.80830
 H1048 H 0.26500 0.10025 0.77599
 H1049 H 0.20387 0.13757 0.81169
 H1050 H 0.21624 0.14649 0.73306
 H1051 H 0.23350 0.09274 0.72966
 H1052 H 0.17231 0.13011 0.76535
 C1053 C 0.23016 0.30742 0.12105
 C1054 C 0.20476 0.29012 0.12460
 C1055 C 0.22264 0.26664 0.13253
 C1056 C 0.24790 0.28355 0.12954
 C1057 C 0.22462 0.25713 0.10357
 C1058 C 0.20693 0.28103 0.09512
 C1059 C 0.23223 0.29820 0.09179
 C1060 C 0.25000 0.27448 0.10003
 H1061 H 0.23255 0.32827 0.12798
 H1062 H 0.18612 0.29647 0.13479
 H1063 H 0.26452 0.28425 0.14412
 H1064 H 0.22219 0.23620 0.09689
 H1065 H 0.19018 0.28015 0.08069
 H1066 H 0.26865 0.26778 0.09010
 C1067 C 0.72752 0.77183 0.59320
 C1068 C 0.74789 0.76758 0.61605
 C1069 C 0.72475 0.76887 0.63611
 C1070 C 0.70432 0.77262 0.61378
 C1071 C 0.72803 0.79900 0.63939
 C1072 C 0.75119 0.79818 0.61878
 C1073 C 0.73082 0.80220 0.59613
 C1074 C 0.70768 0.80318 0.61652
 H1075 H 0.72729 0.76089 0.57396
 H1076 H 0.76440 0.75285 0.61601
 H1077 H 0.68510 0.76175 0.61216
 H1078 H 0.72822 0.80972 0.65875
 H1079 H 0.77045 0.80892 0.62062
 H1080 H 0.69099 0.81770 0.61708
 C1081 C 0.74968 0.79916 0.38100
 C1082 C 0.77288 0.80009 0.36044
 C1083 C 0.77612 0.76993 0.36366
 C1084 C 0.75294 0.76855 0.38367
 C1085 C 0.79651 0.77351 0.38606
 C1086 C 0.79318 0.80409 0.38338
 C1087 C 0.76999 0.80301 0.40371
 C1088 C 0.77325 0.77262 0.40658
 H1089 H 0.73042 0.80995 0.37914
 H1090 H 0.77275 0.81094 0.34111
 H1091 H 0.73640 0.75385 0.38365
 H1092 H 0.81571 0.76260 0.38769
 H1093 H 0.80988 0.81860 0.38292
 H1094 H 0.77342 0.76154 0.42579
 C1095 C 0.29327 0.30232 -0.11938
 C1096 C 0.29676 0.27178 -0.11640
 C1097 C 0.27643 0.26786 -0.13879
 C1098 C 0.27303 0.29797 -0.14232
 C1099 C 0.25322 0.26656 -0.11882
 C1100 C 0.27347 0.27096 -0.09592
 C1101 C 0.27005 0.30131 -0.09909
 C1102 C 0.24980 0.29712 -0.12179
 H1103 H 0.30989 0.31692 -0.11993
 H1104 H 0.31601 0.26099 -0.11463
 H1105 H 0.27288 0.30863 -0.16176
 H1106 H 0.23676 0.25176 -0.11871
 H1107 H 0.27367 0.26008 -0.07660
 H1108 H 0.23049 0.30778 -0.12379
 C1109 C 0.71019 0.21621 -0.10127
 C1110 C 0.72790 0.24003 -0.11001
 C1111 C 0.72635 0.23003 -0.13882
 C1112 C 0.70845 0.20662 -0.13062
 C1113 C 0.75163 0.21326 -0.13538
 C1114 C 0.75330 0.22284 -0.10602
 C1115 C 0.73552 0.19920 -0.09748
 C1116 C 0.73387 0.18947 -0.12659
 H1117 H 0.69324 0.21728 -0.08697
 H1118 H 0.72530 0.26105 -0.10369
 H1119 H 0.68998 0.20005 -0.14084
 H1120 H 0.76845 0.21237 -0.14983
 H1121 H 0.77179 0.22979 -0.09611
 H1122 H 0.73644 0.16851 -0.13314
 C1123 C 0.22895 0.69263 0.37732
 C1124 C 0.20343 0.70969 0.37362
 C1125 C 0.22116 0.73326 0.36553
 C1126 C 0.24654 0.71658 0.36866
 C1127 C 0.22284 0.74300 0.39442
 C1128 C 0.20530 0.71901 0.40305
 C1129 C 0.23072 0.70209 0.40651
 C1130 C 0.24834 0.72589 0.39808
 H1131 H 0.23157 0.67174 0.37055
 H1132 H 0.18492 0.70314 0.36344
 H1133 H 0.26328 0.71590 0.35409
 H1134 H 0.22018 0.76395 0.40094
 H1135 H 0.18843 0.71987 0.41746
 H1136 H 0.26686 0.73286 0.40793
 C1137 C 0.29215 0.71788 0.60106
 C1138 C 0.27451 0.74173 0.60981
 C1139 C 0.27627 0.73176 0.63866
 C1140 C 0.29410 0.70833 0.63045
 C1141 C 0.25096 0.71501 0.63550
 C1142 C 0.24908 0.72455 0.60611
 C1143 C 0.26679 0.70089 0.59756
 C1144 C 0.26865 0.69120 0.62671
 H1145 H 0.30899 0.71892 0.58663
 H1146 H 0.27707 0.76275 0.60336
 H1147 H 0.31264 0.70177 0.64058
 H1148 H 0.23425 0.71415 0.65009
 H1149 H 0.23051 0.73153 0.59632
 H1150 H 0.26612 0.67025 0.63340
 C1151 C 0.74982 0.22416 0.10285
 C1152 C 0.75125 0.21484 0.13234
 C1153 C 0.77658 0.23152 0.13572
 C1154 C 0.77525 0.24127 0.10678
 C1155 C 0.79443 0.20796 0.12794
 C1156 C 0.76897 0.19089 0.12398
 C1157 C 0.76756 0.20036 0.09473
 C1158 C 0.79292 0.21730 0.09846
 H1159 H 0.73141 0.23110 0.09272
 H1160 H 0.73433 0.21415 0.14670
 H1161 H 0.77798 0.26223 0.10020
 H1162 H 0.81280 0.20140 0.13837
 H1163 H 0.76627 0.17001 0.13080
 H1164 H 0.80997 0.21817 0.08426
 C1165 C 0.50193 0.35468 0.52667
 C1166 C 0.47645 0.35864 0.50963
 C1167 C 0.47475 0.38735 0.51975
 C1168 C 0.50012 0.38393 0.53636
 C1169 C 0.45699 0.37907 0.54331
 C1170 C 0.45887 0.34981 0.53361
 C1171 C 0.48428 0.34605 0.55047
 C1172 C 0.48249 0.37506 0.56031
 H1173 H 0.52046 0.34486 0.51953
 H1174 H 0.47382 0.35240 0.48856
 H1175 H 0.51685 0.39840 0.53718
 H1176 H 0.43848 0.38921 0.55005
 H1177 H 0.44201 0.33551 0.53261
 H1178 H 0.48509 0.38155 0.58132
 C1179 C -0.00077 0.85248 0.02402
 C1180 C -0.02604 0.85654 0.00667
 C1181 C -0.02775 0.88522 0.01685
 C1182 C -0.00259 0.88174 0.03374
 C1183 C -0.04585 0.87700 0.04018
 C1184 C -0.04393 0.84774 0.03046
 C1185 C -0.01873 0.84388 0.04761
 C1186 C -0.02054 0.87289 0.05746
 H1187 H 0.01780 0.84261 0.01709
 H1188 H -0.02845 0.85031 -0.01443
 H1189 H 0.01419 0.89614 0.03478
 H1190 H -0.06442 0.88709 0.04683
 H1191 H -0.06081 0.83348 0.02926
 H1192 H -0.01816 0.87934 0.07850
 C1193 C 0.04307 0.63186 0.05229
 C1194 C 0.02277 0.60884 0.04862
 C1195 C 0.02589 0.61183 0.01835
 C1196 C 0.04631 0.63426 0.02156
 C1197 C 0.00268 0.63167 0.01692
 C1198 C -0.00045 0.62927 0.04765
 C1199 C 0.01986 0.65204 0.05116
 C1200 C 0.02302 0.65464 0.02065
 H1201 H 0.05980 0.63167 0.06674
 H1202 H 0.02267 0.58966 0.05969
 H1203 H 0.06547 0.63587 0.01048
 H1204 H -0.01399 0.63162 0.00239
 H1205 H -0.01966 0.62744 0.05861
 H1206 H 0.02314 0.67370 0.00938
 C1207 C 0.49946 0.14646 0.52457
 C1208 C 0.52474 0.14274 0.50701
 C1209 C 0.52647 0.11384 0.51669
 C1210 C 0.50131 0.11702 0.53381
 C1211 C 0.54451 0.12167 0.54005
 C1212 C 0.54261 0.15109 0.53078
 C1213 C 0.51741 0.15460 0.54816
 C1214 C 0.51922 0.12542 0.55755
 H1215 H 0.48088 0.15647 0.51794
 H1216 H 0.52715 0.14936 0.48598
 H1217 H 0.48454 0.10259 0.53473
 H1218 H 0.56308 0.11139 0.54633
 H1219 H 0.55950 0.16537 0.52968
 H1220 H 0.51684 0.11855 0.57851
 C1221 C -0.01976 0.12837 0.44351
 C1222 C -0.00189 0.12002 0.46733
 C1223 C -0.02708 0.11690 0.48443
 C1224 C -0.04509 0.12468 0.46100
 C1225 C -0.02536 0.14581 0.49394
 C1226 C -0.00006 0.14948 0.47639
 C1227 C -0.01796 0.15758 0.45271
 C1228 C -0.04319 0.15413 0.47007
 H1229 H -0.01735 0.12144 0.42261
 H1230 H 0.01487 0.10557 0.46654
 H1231 H -0.06364 0.11440 0.45475
 H1232 H -0.02780 0.15248 0.51492
 H1233 H 0.01852 0.15950 0.48298
 H1234 H -0.06007 0.16842 0.47104
 C1235 C 0.48122 0.62500 0.94395
 C1236 C 0.49872 0.61626 0.96793
 C1237 C 0.47326 0.61314 0.98461
 C1238 C 0.45561 0.62126 0.96102
 C1239 C 0.47500 0.64191 0.99451
 C1240 C 0.50058 0.64561 0.97735
 C1241 C 0.48307 0.65409 0.95352
 C1242 C 0.45757 0.65059 0.97047
 H1243 H 0.48390 0.61831 0.92300
 H1244 H 0.51541 0.60173 0.96720
 H1245 H 0.43707 0.61126 0.95428
 H1246 H 0.47229 0.64837 1.01553
 H1247 H 0.51912 0.65545 0.98433
 H1248 H 0.44076 0.66498 0.97136
 C1249 C 0.49951 0.85382 0.97540
 C1250 C 0.52477 0.85783 0.99273
 C1251 C 0.52644 0.88658 0.98262
 C1252 C 0.50129 0.88312 0.96572
 C1253 C 0.54452 0.87846 0.95926
 C1254 C 0.54267 0.84916 0.96896
 C1255 C 0.51747 0.84536 0.95181
 C1256 C 0.51923 0.87441 0.94198
 H1257 H 0.48095 0.84390 0.98234
 H1258 H 0.52720 0.85151 1.01384
 H1259 H 0.48450 0.89751 0.96471
 H1260 H 0.56305 0.88871 0.95273
 H1261 H 0.55958 0.83493 0.97015
 H1262 H 0.51684 0.88097 0.92094
 C1263 C 0.02216 0.34562 0.47660
 C1264 C 0.04549 0.36592 0.47558
 C1265 C 0.02518 0.38841 0.47922
 C1266 C 0.00193 0.36862 0.48071
 C1267 C 0.02195 0.39161 0.44900
 C1268 C 0.04217 0.36857 0.44493
 C1269 C 0.01891 0.34846 0.44614
 C1270 C -0.00132 0.37126 0.45004
 H1271 H 0.02227 0.32647 0.48772
 H1272 H 0.06468 0.36417 0.48645
 H1273 H -0.01462 0.36876 0.49550
 H1274 H 0.02189 0.41089 0.43810
 H1275 H 0.05886 0.36886 0.43032
 H1276 H -0.02057 0.37324 0.43930
 C1277 C 0.36849 0.54889 0.50246
 C1278 C 0.36613 0.51825 0.49933
 C1279 C 0.38610 0.51974 0.47612
 C1280 C 0.38902 0.54992 0.47923
 C1281 C 0.36365 0.52312 0.45573
 C1282 C 0.34316 0.52211 0.47901
 C1283 C 0.34574 0.55253 0.48215
 C1284 C 0.36604 0.55372 0.45893
 H1285 H 0.37026 0.55972 0.52167
 H1286 H 0.36632 0.50357 0.51592
 H1287 H 0.40824 0.56092 0.47930
 H1288 H 0.36211 0.51216 0.43657
 H1289 H 0.32407 0.51090 0.47890
 H1290 H 0.36636 0.56819 0.44216
 C1291 C 0.85472 0.02455 0.00117
 C1292 C 0.85855 0.00743 -0.02431
 C1293 C 0.88754 0.01694 -0.02579
 C1294 C 0.88430 0.03358 -0.00042
 C1295 C 0.88000 0.04061 -0.04362
 C1296 C 0.85045 0.03155 -0.04193
 C1297 C 0.84683 0.04847 -0.01653
 C1298 C 0.87614 0.05765 -0.01811
 H1299 H 0.84449 0.01769 0.01962
 H1300 H 0.85180 -0.01345 -0.02702
 H1301 H 0.89863 0.03409 0.01642
 H1302 H 0.89036 0.04725 -0.06209
 H1303 H 0.83627 0.03086 -0.05889
 H1304 H 0.88310 0.07846 -0.01544
 C1305 C 0.65138 0.03309 0.04184
 C1306 C 0.62196 0.04256 0.04347
 C1307 C 0.61406 0.01897 0.02580
 C1308 C 0.64293 0.00909 0.02436
 C1309 C 0.61757 0.03555 0.00034
 C1310 C 0.62606 0.05952 0.01787
 C1311 C 0.65524 0.04991 0.01634
 C1312 C 0.64699 0.02609 -0.00121
 H1313 H 0.66556 0.03222 0.05880
 H1314 H 0.61155 0.04923 0.06187
 H1315 H 0.64937 -0.01189 0.02718
 H1316 H 0.60324 0.03623 -0.01649
 H1317 H 0.61939 0.08043 0.01508
 H1318 H 0.65708 0.01902 -0.01964
 C1319 C 0.12995 0.54847 0.49950
 C1320 C 0.13237 0.51775 0.50199
 C1321 C 0.11241 0.51869 0.52523
 C1322 C 0.10939 0.54893 0.52273
 C1323 C 0.13480 0.52156 0.54572
 C1324 C 0.15531 0.52116 0.52242
 C1325 C 0.15268 0.55165 0.51990
 C1326 C 0.13236 0.55225 0.54313
 H1327 H 0.12818 0.55978 0.48051
 H1328 H 0.13235 0.50356 0.48503
 H1329 H 0.09015 0.55991 0.52286
 H1330 H 0.13636 0.51014 0.56465
 H1331 H 0.17443 0.50999 0.52232
 H1332 H 0.13200 0.56630 0.56019
 C1333 C 0.13211 0.44785 -0.04356
 C1334 C 0.10919 0.45148 -0.02300
 C1335 C 0.11233 0.48168 -0.02583
 C1336 C 0.13467 0.47850 -0.04649
 C1337 C 0.13233 0.48277 -0.00277
 C1338 C 0.12980 0.45208 0.00005
 C1339 C 0.15248 0.44860 -0.02053
 C1340 C 0.15522 0.47905 -0.02337
 H1341 H 0.13169 0.43362 -0.06047
 H1342 H 0.08991 0.44058 -0.02284
 H1343 H 0.13625 0.48972 -0.06555
 H1344 H 0.13239 0.49714 0.01403
 H1345 H 0.12802 0.44097 0.01916
 H1346 H 0.17439 0.49014 -0.02356
 C1347 C 0.65091 0.96883 0.45614
 C1348 C 0.62149 0.95938 0.45433
 C1349 C 0.61342 0.98294 0.47202
 C1350 C 0.64226 0.99284 0.47361
 C1351 C 0.61658 0.96634 0.49748
 C1352 C 0.62529 0.94239 0.47994
 C1353 C 0.65444 0.95198 0.48164
 C1354 C 0.64599 0.97579 0.49919
 H1355 H 0.66530 0.96971 0.43926
 H1356 H 0.61142 0.95263 0.43584
 H1357 H 0.64875 1.01381 0.47085
 H1358 H 0.60204 0.96563 0.51425
 H1359 H 0.61858 0.92148 0.48267
 H1360 H 0.65584 0.98284 0.51767
 C1361 C 0.85305 0.97693 0.50119
 C1362 C 0.85654 0.99384 0.52680
 C1363 C 0.88553 0.98433 0.52840
 C1364 C 0.88257 0.96785 0.50291
 C1365 C 0.87772 0.96054 0.54599
 C1366 C 0.84819 0.96962 0.54420
 C1367 C 0.84490 0.95290 0.51865
 C1368 C 0.87418 0.94367 0.52035
 H1369 H 0.84313 0.98399 0.48271
 H1370 H 0.84979 1.01471 0.52960
 H1371 H 0.89713 0.96745 0.48615
 H1372 H 0.88799 0.95392 0.56445
 H1373 H 0.83379 0.97020 0.56108
 H1374 H 0.88117 0.92287 0.51758
 C1375 C 0.35262 0.47513 -0.00076
 C1376 C 0.35614 0.49190 0.02494
 C1377 C 0.38503 0.48212 0.02665
 C1378 C 0.38205 0.46578 0.00106
 C1379 C 0.37692 0.45833 0.04410
 C1380 C 0.34748 0.46768 0.04220
 C1381 C 0.34416 0.45110 0.01656
 C1382 C 0.37335 0.44160 0.01836
 H1383 H 0.34283 0.48234 -0.01926
 H1384 H 0.34956 0.51282 0.02781
 H1385 H 0.39669 0.46532 -0.01562
 H1386 H 0.38703 0.45154 0.06257
 H1387 H 0.33299 0.46832 0.05901
 H1388 H 0.38017 0.42076 0.01553
 C1389 C 0.54801 0.50186 0.37024
 C1390 C 0.51730 0.49883 0.36789
 C1391 C 0.51861 0.47569 0.38785
 C1392 C 0.54886 0.47870 0.39077
 C1393 C 0.52196 0.45532 0.36539
 C1394 C 0.52114 0.47853 0.34491
 C1395 C 0.55163 0.48155 0.34748
 C1396 C 0.55263 0.45841 0.36777
 H1397 H 0.55896 0.52099 0.37202
 H1398 H 0.50267 0.51543 0.36810
 H1399 H 0.55982 0.47875 0.40999
 H1400 H 0.51088 0.43623 0.36384
 H1401 H 0.50996 0.47843 0.32581
 H1402 H 0.56703 0.44162 0.36810
 C1403 C 0.03357 -0.04221 0.84953
 C1404 C 0.04261 -0.04460 0.87901
 C1405 C 0.01926 -0.02655 0.88704
 C1406 C 0.00979 -0.02434 0.85810
 C1407 C 0.03648 -0.00151 0.88420
 C1408 C 0.06022 -0.01943 0.87558
 C1409 C 0.05103 -0.01713 0.84634
 C1410 C 0.02744 0.00081 0.85471
 H1411 H 0.03252 -0.05885 0.83501
 H1412 H 0.04875 -0.06331 0.88911
 H1413 H -0.01119 -0.02652 0.85140
 H1414 H 0.03733 0.01500 0.89887
 H1415 H 0.08113 -0.01729 0.88252
 H1416 H 0.02090 0.01954 0.84493
 C1417 C 0.02600 0.00030 0.64801
 C1418 C 0.00887 0.02582 0.64477
 C1419 C 0.01822 0.02774 0.61570
 C1420 C 0.03491 0.00234 0.61841
 C1421 C 0.04199 0.04531 0.62338
 C1422 C 0.03306 0.04320 0.65298
 C1423 C 0.05001 0.01775 0.65603
 C1424 C 0.05908 0.01977 0.62666
 H1425 H 0.01912 -0.01827 0.65793
 H1426 H -0.01203 0.02846 0.65172
 H1427 H 0.03534 -0.01422 0.60377
 H1428 H 0.04846 0.06386 0.61315
 H1429 H 0.03245 0.05989 0.66747
 H1430 H 0.07990 0.01716 0.61947
 C1431 C 0.54710 0.49932 0.13208
 C1432 C 0.51641 0.50237 0.13492
 C1433 C 0.51757 0.52563 0.11508
 C1434 C 0.54780 0.52261 0.11168
 C1435 C 0.52112 0.54586 0.13761
 C1436 C 0.52046 0.52253 0.15797
 C1437 C 0.55092 0.51949 0.15491
 C1438 C 0.55177 0.54276 0.13473
 H1439 H 0.55802 0.48019 0.13001
 H1440 H 0.50176 0.48579 0.13483
 H1441 H 0.55860 0.52266 0.09229
 H1442 H 0.51008 0.56495 0.13945
 H1443 H 0.50944 0.52252 0.17724
 H1444 H 0.56618 0.55954 0.13428
 C1445 C 0.47814 -0.02272 0.15688
 C1446 C 0.47766 -0.04596 0.13651
 C1447 C 0.48099 -0.02557 0.11397
 C1448 C 0.48196 -0.00240 0.13382
 C1449 C 0.45073 -0.02282 0.11083
 C1450 C 0.44697 -0.04312 0.13390
 C1451 C 0.44764 -0.01995 0.15408
 C1452 C 0.45124 0.00037 0.13124
 H1453 H 0.48918 -0.02271 0.17606
 H1454 H 0.48889 -0.06494 0.13823
 H1455 H 0.49645 0.01432 0.13363
 H1456 H 0.43991 -0.02286 0.09153
 H1457 H 0.43271 -0.06002 0.13358
 H1458 H 0.44014 0.01941 0.12928
 C1459 C 0.96807 0.45817 0.65073
 C1460 C 0.95847 0.45652 0.62139
 C1461 C 0.98180 0.47459 0.61327
 C1462 C 0.99181 0.47607 0.64207
 C1463 C 0.96481 0.49968 0.61690
 C1464 C 0.94111 0.48173 0.62560
 C1465 C 0.95084 0.48329 0.65471
 C1466 C 0.97439 0.50126 0.64626
 H1467 H 0.96927 0.44119 0.66491
 H1468 H 0.95203 0.43809 0.61106
 H1469 H 1.01290 0.47360 0.64834
 H1470 H 0.96379 0.51654 0.60256
 H1471 H 0.92009 0.48417 0.61909
 H1472 H 0.98121 0.51971 0.65630
 C1473 C 0.97870 0.52274 0.84426
 C1474 C 0.97758 0.54586 0.86475
 C1475 C 0.98118 0.52543 0.88718
 C1476 C 0.98277 0.50239 0.86720
 C1477 C 0.95096 0.52203 0.89030
 C1478 C 0.94694 0.54237 0.86733
 C1479 C 0.94825 0.51932 0.84703
 C1480 C 0.95211 0.49897 0.86978
 H1481 H 0.98988 0.52305 0.82508
 H1482 H 0.98841 0.56508 0.86312
 H1483 H 0.99760 0.48596 0.86728
 H1484 H 0.94000 0.52176 0.90960
 H1485 H 0.93231 0.55896 0.86770
 H1486 H 0.94140 0.47969 0.87163
 C1487 C 0.47821 0.02292 0.34247
 C1488 C 0.47747 0.04624 0.36274
 C1489 C 0.48125 0.02601 0.38533
 C1490 C 0.48247 0.00277 0.36556
 C1491 C 0.45105 0.02280 0.38887
 C1492 C 0.44684 0.04293 0.36574
 C1493 C 0.44778 0.01968 0.34566
 C1494 C 0.45183 -0.00047 0.36856
 H1495 H 0.48915 0.02299 0.32316
 H1496 H 0.48838 0.06539 0.36079
 H1497 H 0.49721 -0.01373 0.36562
 H1498 H 0.44033 0.02277 0.40830
 H1499 H 0.43230 0.05960 0.36614
 H1500 H 0.44105 -0.01967 0.37074
   
