data_POSCAR
  _audit_creation_date              2014-09-24
  _audit_creation_method            'ToBaCCo'
  _symmetry_space_group_name_H-M    'P1'
  _symmetry_Int_Tables_number       1
  _symmetry_cell_setting            triclinic
  loop_
  _symmetry_equiv_pos_as_xyz
 x,y,z
_cell_length_a 66.3833
_cell_length_b 69.7353
_cell_length_c 65.4705
_cell_angle_alpha 90.490900
_cell_angle_beta 90.139500
_cell_angle_gamma 89.961900
loop_
  _atom_site_label
  _atom_site_type_symbol
  _atom_site_fract_x
  _atom_site_fract_y
  _atom_site_fract_z
N1 N 0.36799 0.31962 0.31858
 N2 N 0.36468 0.33390 0.30601
 C3 C 0.37791 0.33270 0.29044
 C4 C 0.39023 0.31698 0.29363
 C5 C 0.38351 0.30905 0.31165
 H6 H 0.37814 0.34209 0.27738
 H7 H 0.38863 0.29587 0.31853
 Cu8 Cu 0.34238 0.35161 0.31086
 Cu9 Cu 0.35028 0.31398 0.34138
 Cu10 Cu 0.31038 0.34516 0.34981
 N11 N 0.32008 0.36931 0.31569
 N12 N 0.30757 0.36647 0.33093
 C13 C 0.29250 0.37933 0.32993
 C14 C 0.29576 0.39096 0.31333
 C15 C 0.31344 0.38426 0.30459
 H16 H 0.27961 0.37968 0.33999
 H17 H 0.32021 0.38915 0.29056
 N18 N 0.31578 0.32272 0.36714
 N19 N 0.33072 0.31064 0.36361
 C20 C 0.32903 0.29565 0.37632
 C21 C 0.31241 0.29851 0.38854
 C22 C 0.30435 0.31583 0.38240
 H23 H 0.33863 0.28312 0.37615
 H24 H 0.29048 0.32225 0.38772
 H25 H 0.32464 0.32677 0.32959
 H26 H 0.34101 0.34187 0.34645
 N27 N 0.36672 0.82497 -0.18116
 N28 N 0.36417 0.84094 -0.19140
 C29 C 0.37694 0.84108 -0.20736
 C30 C 0.38826 0.82442 -0.20694
 C31 C 0.38145 0.81457 -0.19000
 H32 H 0.37768 0.85228 -0.21867
 H33 H 0.38597 0.80044 -0.18509
 Cu34 Cu 0.34392 0.85968 -0.18331
 Cu35 Cu 0.34904 0.81758 -0.15888
 Cu36 Cu 0.30860 0.84757 -0.14910
 N37 N 0.31965 0.87499 -0.17966
 N38 N 0.30572 0.86985 -0.16655
 C39 C 0.28985 0.88174 -0.16816
 C40 C 0.29405 0.89513 -0.18295
 C41 C 0.31321 0.89053 -0.18992
 H42 H 0.27602 0.88045 -0.15958
 H43 H 0.32142 0.89727 -0.20215
 N44 N 0.31408 0.82436 -0.13312
 N45 N 0.32928 0.81270 -0.13708
 C46 C 0.32779 0.79719 -0.12503
 C47 C 0.31102 0.79933 -0.11279
 C48 C 0.30270 0.81673 -0.11827
 H49 H 0.33773 0.78491 -0.12556
 H50 H 0.28877 0.82282 -0.11269
 H51 H 0.32493 0.83244 -0.17082
 H52 H 0.33964 0.84461 -0.15006
 N53 N 0.86415 0.31978 -0.17822
 N54 N 0.86130 0.33157 -0.19352
 C55 C 0.87441 0.32752 -0.20850
 C56 C 0.88617 0.31237 -0.20245
 C57 C 0.87938 0.30771 -0.18307
 H58 H 0.87489 0.33459 -0.22313
 H59 H 0.88433 0.29586 -0.17376
 Cu60 Cu 0.83974 0.35006 -0.19384
 Cu61 Cu 0.84605 0.31995 -0.15458
 Cu62 Cu 0.81111 0.35718 -0.15252
 N63 N 0.82387 0.37303 -0.19050
 N64 N 0.81232 0.37591 -0.17450
 C65 C 0.80170 0.39221 -0.17719
 C66 C 0.80701 0.39975 -0.19599
 C67 C 0.82118 0.38731 -0.20385
 H68 H 0.79045 0.39762 -0.16671
 H69 H 0.82836 0.38816 -0.21863
 N70 N 0.81251 0.33675 -0.13191
 N71 N 0.82607 0.32286 -0.13229
 C72 C 0.82194 0.31043 -0.11718
 C73 C 0.80487 0.31676 -0.10703
 C74 C 0.79932 0.33340 -0.11677
 H75 H 0.82976 0.29704 -0.11477
 H76 H 0.78599 0.34185 -0.11371
 H77 H 0.82128 0.33272 -0.16781
 H78 H 0.84093 0.34903 -0.15685
 N79 N 0.86749 0.82247 0.32093
 N80 N 0.86407 0.83719 0.30902
 C81 C 0.87669 0.83621 0.29292
 C82 C 0.88877 0.82018 0.29511
 C83 C 0.88251 0.81182 0.31306
 H84 H 0.87670 0.84605 0.28024
 H85 H 0.88763 0.79835 0.31927
 Cu86 Cu 0.84272 0.85564 0.31504
 Cu87 Cu 0.85058 0.81656 0.34411
 Cu88 Cu 0.81002 0.84635 0.35331
 N89 N 0.81911 0.87164 0.32012
 N90 N 0.80610 0.86755 0.33456
 C91 C 0.79042 0.87975 0.33344
 C92 C 0.79382 0.89229 0.31761
 C93 C 0.81227 0.88682 0.30951
 H94 H 0.77729 0.87931 0.34317
 H95 H 0.81966 0.89274 0.29629
 N96 N 0.81652 0.82420 0.37067
 N97 N 0.83189 0.81270 0.36687
 C98 C 0.83133 0.79787 0.37988
 C99 C 0.81503 0.80023 0.39263
 C100 C 0.80594 0.81710 0.38645
 H101 H 0.84154 0.78579 0.37965
 H102 H 0.79201 0.82308 0.39220
 H103 H 0.82509 0.82965 0.33210
 H104 H 0.84078 0.84429 0.35019
 N105 N 0.62866 0.68349 0.32540
 N106 N 0.63071 0.66838 0.31345
 C107 C 0.61733 0.66960 0.29798
 C108 C 0.60621 0.68620 0.30061
 C109 C 0.61380 0.69465 0.31817
 H110 H 0.61618 0.65953 0.28537
 H111 H 0.60970 0.70847 0.32452
 Cu112 Cu 0.65149 0.64923 0.31845
 Cu113 Cu 0.64701 0.68905 0.34773
 Cu114 Cu 0.68587 0.65701 0.35581
 N115 N 0.67404 0.63186 0.32293
 N116 N 0.68751 0.63513 0.33729
 C117 C 0.70232 0.62201 0.33576
 C118 C 0.69784 0.60978 0.31970
 C119 C 0.67977 0.61641 0.31187
 H120 H 0.71578 0.62179 0.34509
 H121 H 0.67201 0.61110 0.29843
 N122 N 0.68168 0.68001 0.37295
 N123 N 0.66702 0.69238 0.36958
 C124 C 0.66924 0.70749 0.38232
 C125 C 0.68594 0.70442 0.39439
 C126 C 0.69349 0.68684 0.38812
 H127 H 0.65987 0.72018 0.38237
 H128 H 0.70718 0.68008 0.39340
 H129 H 0.67127 0.67439 0.33506
 H130 H 0.65522 0.66096 0.35351
 N131 N 0.63261 0.18377 -0.17529
 N132 N 0.63193 0.16666 -0.18386
 C133 C 0.61868 0.16682 -0.19942
 C134 C 0.61042 0.18492 -0.20057
 C135 C 0.61952 0.19537 -0.18498
 H136 H 0.61590 0.15488 -0.20971
 H137 H 0.61772 0.21051 -0.18179
 Cu138 Cu 0.64983 0.14627 -0.17555
 Cu139 Cu 0.65238 0.19019 -0.15405
 Cu140 Cu 0.68960 0.15621 -0.14577
 N141 N 0.67266 0.12910 -0.17421
 N142 N 0.68857 0.13335 -0.16310
 C143 C 0.70322 0.12051 -0.16710
 C144 C 0.69606 0.10755 -0.18148
 C145 C 0.67648 0.11333 -0.18552
 H146 H 0.71827 0.12106 -0.16074
 H147 H 0.66626 0.10749 -0.19685
 N148 N 0.68786 0.18034 -0.13002
 N149 N 0.67396 0.19351 -0.13340
 C150 C 0.67762 0.20877 -0.12117
 C151 C 0.69445 0.20490 -0.10943
 C152 C 0.70054 0.18675 -0.11543
 H153 H 0.66892 0.22189 -0.12099
 H154 H 0.71368 0.17908 -0.11014
 H155 H 0.67310 0.17177 -0.16680
 H156 H 0.65904 0.16288 -0.14402
 N157 N 0.12834 0.68081 -0.17461
 N158 N 0.12635 0.66669 -0.18789
 C159 C 0.11406 0.67217 -0.20308
 C160 C 0.10772 0.69062 -0.19903
 C161 C 0.11694 0.69574 -0.18074
 H162 H 0.11042 0.66354 -0.21639
 H163 H 0.11628 0.70952 -0.17306
 Cu164 Cu 0.14080 0.64281 -0.18497
 Cu165 Cu 0.14705 0.67879 -0.15154
 Cu166 Cu 0.18331 0.64298 -0.15771
 N167 N 0.16056 0.62274 -0.18835
 N168 N 0.17730 0.62279 -0.17761
 C169 C 0.18919 0.60837 -0.18421
 C170 C 0.17936 0.59902 -0.20009
 C171 C 0.16128 0.60853 -0.20234
 H172 H 0.20434 0.60576 -0.17882
 H173 H 0.15000 0.60598 -0.21400
 N174 N 0.18625 0.66455 -0.13826
 N175 N 0.17218 0.67768 -0.13525
 C176 C 0.17884 0.69044 -0.12121
 C177 C 0.19808 0.68510 -0.11532
 C178 C 0.20229 0.66874 -0.12644
 H179 H 0.17075 0.70317 -0.11644
 H180 H 0.21623 0.66072 -0.12615
 H181 H 0.16582 0.66436 -0.17080
 H182 H 0.15409 0.64963 -0.15049
 N183 N 0.12945 0.18090 0.32928
 N184 N 0.12808 0.16712 0.31551
 C185 C 0.11507 0.17236 0.30084
 C186 C 0.10761 0.19025 0.30575
 C187 C 0.11698 0.19532 0.32397
 H188 H 0.11167 0.16398 0.28728
 H189 H 0.11558 0.20877 0.33220
 Cu190 Cu 0.14425 0.14411 0.31722
 Cu191 Cu 0.14855 0.17935 0.35205
 Cu192 Cu 0.18335 0.14188 0.34908
 N193 N 0.16543 0.12539 0.31314
 N194 N 0.18065 0.12435 0.32594
 C195 C 0.19348 0.11067 0.31946
 C196 C 0.18595 0.10293 0.30146
 C197 C 0.16820 0.11267 0.29783
 H198 H 0.20768 0.10731 0.32675
 H199 H 0.15832 0.11097 0.28478
 N200 N 0.18608 0.16369 0.36818
 N201 N 0.17272 0.17767 0.36980
 C202 C 0.17960 0.19076 0.38341
 C203 C 0.19824 0.18473 0.39040
 C204 C 0.20189 0.16765 0.38038
 H205 H 0.17223 0.20421 0.38699
 H206 H 0.21544 0.15910 0.38140
 H207 H 0.16873 0.16419 0.33434
 H208 H 0.15382 0.15037 0.35316
 N209 N 0.63254 0.32090 0.66556
 N210 N 0.62910 0.33525 0.67824
 C211 C 0.61507 0.33011 0.69185
 C212 C 0.60913 0.31164 0.68744
 C213 C 0.62041 0.30612 0.67054
 H214 H 0.61017 0.33890 0.70460
 H215 H 0.62067 0.29215 0.66325
 Cu216 Cu 0.64443 0.35869 0.67735
 Cu217 Cu 0.65391 0.32257 0.64498
 Cu218 Cu 0.68964 0.35810 0.65536
 N219 N 0.66416 0.37808 0.68382
 N220 N 0.68203 0.37793 0.67522
 C221 C 0.69341 0.39180 0.68387
 C222 C 0.68203 0.40083 0.69885
 C223 C 0.66361 0.39174 0.69842
 H224 H 0.70915 0.39422 0.68052
 H225 H 0.65113 0.39416 0.70872
 N226 N 0.69415 0.33691 0.63564
 N227 N 0.68042 0.32378 0.63118
 C228 C 0.68814 0.31145 0.61726
 C229 C 0.70766 0.31708 0.61292
 C230 C 0.71095 0.33316 0.62485
 H231 H 0.68041 0.29893 0.61134
 H232 H 0.72473 0.34138 0.62569
 H233 H 0.67063 0.33687 0.66623
 H234 H 0.66127 0.35165 0.64469
 N235 N 0.62953 0.82037 1.17498
 N236 N 0.63342 0.83411 1.18827
 C237 C 0.62223 0.83144 1.20512
 C238 C 0.61049 0.81533 1.20209
 C239 C 0.61543 0.80865 1.18275
 H240 H 0.62274 0.84044 1.21865
 H241 H 0.60987 0.79584 1.17521
 Cu242 Cu 0.65269 0.85424 1.18231
 Cu243 Cu 0.64424 0.81819 1.14934
 Cu244 Cu 0.69020 0.84191 1.15062
 N245 N 0.67641 0.87018 1.17949
 N246 N 0.69127 0.86514 1.16734
 C247 C 0.70667 0.87746 1.16996
 C248 C 0.70110 0.89100 1.18442
 C249 C 0.68176 0.88597 1.19014
 H250 H 0.72116 0.87623 1.16253
 H251 H 0.67274 0.89252 1.20203
 N252 N 0.68372 0.82158 1.13051
 N253 N 0.66621 0.81262 1.13004
 C254 C 0.66680 0.79876 1.11562
 C255 C 0.68546 0.79919 1.10639
 C256 C 0.69582 0.81387 1.11613
 H257 H 0.65480 0.78864 1.11256
 H258 H 0.71129 0.81802 1.11358
 H259 H 0.66828 0.82643 1.16613
 H260 H 0.65991 0.84444 1.14700
 N261 N 0.12970 0.31981 1.17642
 N262 N 0.13136 0.33624 1.18628
 C263 C 0.11833 0.33651 1.20201
 C264 C 0.10779 0.31944 1.20182
 C265 C 0.11536 0.30917 1.18536
 H266 H 0.11707 0.34799 1.21316
 H267 H 0.11161 0.29462 1.18096
 Cu268 Cu 0.15129 0.35508 1.17841
 Cu269 Cu 0.14801 0.31239 1.15452
 Cu270 Cu 0.18807 0.34299 1.14554
 N271 N 0.17540 0.37054 1.17586
 N272 N 0.18986 0.36565 1.16316
 C273 C 0.20547 0.37775 1.16571
 C274 C 0.20048 0.39095 1.18072
 C275 C 0.18125 0.38597 1.18686
 H276 H 0.21972 0.37661 1.15782
 H277 H 0.17260 0.39237 1.19913
 N278 N 0.18342 0.31930 1.12951
 N279 N 0.16829 0.30753 1.13315
 C280 C 0.17010 0.29195 1.12101
 C281 C 0.18703 0.29405 1.10908
 C282 C 0.19513 0.31157 1.11480
 H283 H 0.16020 0.27964 1.12122
 H284 H 0.20902 0.31778 1.10937
 H285 H 0.17152 0.32813 1.16685
 H286 H 0.15716 0.33941 1.14548
 N287 N 0.13201 0.82485 0.67246
 N288 N 0.13472 0.83975 0.68459
 C289 C 0.12213 0.83848 0.70060
 C290 C 0.11074 0.82204 0.69822
 C291 C 0.11734 0.81373 0.68014
 H292 H 0.12158 0.84855 0.71325
 H293 H 0.11259 0.80020 0.67354
 Cu294 Cu 0.15474 0.85916 0.67860
 Cu295 Cu 0.14888 0.82042 0.64857
 Cu296 Cu 0.19448 0.84465 0.65107
 N297 N 0.17905 0.87448 0.67718
 N298 N 0.19473 0.86864 0.66660
 C299 C 0.21019 0.88074 0.67001
 C300 C 0.20383 0.89492 0.68340
 C301 C 0.18393 0.89053 0.68763
 H302 H 0.22522 0.87889 0.66396
 H303 H 0.17412 0.89771 0.69841
 N304 N 0.18950 0.82289 0.63222
 N305 N 0.17221 0.81355 0.63150
 C306 C 0.17387 0.79874 0.61827
 C307 C 0.19296 0.79901 0.60999
 C308 C 0.20247 0.81453 0.61910
 H309 H 0.16217 0.78831 0.61518
 H310 H 0.21793 0.81892 0.61693
 H311 H 0.17155 0.83032 0.66632
 H312 H 0.16448 0.84651 0.64495
 N313 N 0.37054 0.67982 0.67298
 N314 N 0.37153 0.66709 0.68763
 C315 C 0.38577 0.67250 0.70116
 C316 C 0.39421 0.68943 0.69460
 C317 C 0.38424 0.69370 0.67661
 H318 H 0.38913 0.66521 0.71527
 H319 H 0.38587 0.70653 0.66761
 Cu320 Cu 0.35297 0.64562 0.68907
 Cu321 Cu 0.34956 0.67895 0.65222
 Cu322 Cu 0.31444 0.64233 0.65561
 N323 N 0.33285 0.62546 0.69078
 N324 N 0.31802 0.62394 0.67753
 C325 C 0.30593 0.60934 0.68302
 C326 C 0.31359 0.60146 0.70076
 C327 C 0.33058 0.61206 0.70526
 H328 H 0.29207 0.60546 0.67533
 H329 H 0.34013 0.61053 0.71856
 N330 N 0.31336 0.66224 0.63444
 N331 N 0.32712 0.67580 0.63275
 C332 C 0.32167 0.68774 0.61764
 C333 C 0.30354 0.68147 0.60958
 C334 C 0.29870 0.66534 0.62058
 H335 H 0.32958 0.70073 0.61371
 H336 H 0.28506 0.65696 0.61910
 H337 H 0.32867 0.66505 0.67037
 H338 H 0.34438 0.64976 0.65308
 N339 N 0.37371 0.17384 1.17508
 N340 N 0.36936 0.16185 1.18981
 C341 C 0.38071 0.16617 1.20630
 C342 C 0.39293 0.18156 1.20151
 C343 C 0.38814 0.18600 1.18151
 H344 H 0.37986 0.15894 1.22082
 H345 H 0.39395 0.19773 1.17257
 Cu346 Cu 0.34896 0.14201 1.18604
 Cu347 Cu 0.35901 0.17382 1.14935
 Cu348 Cu 0.31187 0.15294 1.15320
 N349 N 0.32484 0.12625 1.18371
 N350 N 0.31022 0.13092 1.17111
 C351 C 0.29449 0.11912 1.17397
 C352 C 0.29958 0.10620 1.18896
 C353 C 0.31899 0.11109 1.19486
 H354 H 0.28016 0.12023 1.16617
 H355 H 0.32769 0.10487 1.20712
 N356 N 0.31913 0.17093 1.13140
 N357 N 0.33716 0.17874 1.12985
 C358 C 0.33701 0.19140 1.11444
 C359 C 0.31808 0.19132 1.10572
 C360 C 0.30711 0.17814 1.11676
 H361 H 0.34948 0.20061 1.11047
 H362 H 0.29130 0.17481 1.11499
 H363 H 0.33481 0.16874 1.16707
 H364 H 0.34180 0.14828 1.14993
 N365 N 0.86904 0.67762 1.17765
 N366 N 0.86397 0.66608 1.19256
 C367 C 0.87514 0.67040 1.20919
 C368 C 0.88800 0.68528 1.20431
 C369 C 0.88377 0.68945 1.18412
 H370 H 0.87378 0.66348 1.22384
 H371 H 0.89019 0.70078 1.17503
 Cu372 Cu 0.84306 0.64669 1.18873
 Cu373 Cu 0.85497 0.67748 1.15153
 Cu374 Cu 0.80738 0.65743 1.15430
 N375 N 0.81889 0.63100 1.18567
 N376 N 0.80491 0.63559 1.17232
 C377 C 0.78903 0.62385 1.17446
 C378 C 0.79328 0.61105 1.18981
 C379 C 0.81242 0.61593 1.19666
 H380 H 0.77513 0.62492 1.16589
 H381 H 0.82050 0.60971 1.20934
 N382 N 0.81555 0.67495 1.13245
 N383 N 0.83374 0.68246 1.13127
 C384 C 0.83421 0.69485 1.11561
 C385 C 0.81550 0.69491 1.10636
 C386 C 0.80404 0.68208 1.11736
 H387 H 0.84694 0.70380 1.11181
 H388 H 0.78822 0.67894 1.11522
 H389 H 0.83016 0.67323 1.16858
 H390 H 0.83732 0.65227 1.15222
 N391 N 0.86801 0.17498 0.67460
 N392 N 0.86845 0.16030 0.68708
 C393 C 0.88201 0.16361 0.70195
 C394 C 0.89073 0.18120 0.69860
 C395 C 0.88158 0.18810 0.68106
 H396 H 0.88466 0.15430 0.71482
 H397 H 0.88363 0.20208 0.67435
 Cu398 Cu 0.84987 0.13922 0.68427
 Cu399 Cu 0.84767 0.17702 0.65294
 Cu400 Cu 0.80978 0.14252 0.65373
 N401 N 0.82728 0.12209 0.68725
 N402 N 0.81171 0.12305 0.67487
 C403 C 0.79765 0.11046 0.68099
 C404 C 0.80482 0.10133 0.69826
 C405 C 0.82361 0.10910 0.70183
 H406 H 0.78286 0.10898 0.67422
 H407 H 0.83350 0.10610 0.71457
 N408 N 0.81061 0.16341 0.63366
 N409 N 0.82509 0.17639 0.63304
 C410 C 0.82052 0.18931 0.61850
 C411 C 0.80224 0.18421 0.60978
 C412 C 0.79645 0.16780 0.61973
 H413 H 0.82920 0.20205 0.61535
 H414 H 0.78247 0.16011 0.61749
 H415 H 0.82679 0.16247 0.66992
 H416 H 0.84018 0.14846 0.64972
 N417 N 0.32081 0.37387 0.67105
 N418 N 0.33688 0.37432 0.68280
 C419 C 0.33406 0.38720 0.69794
 C420 C 0.31533 0.39546 0.69533
 C421 C 0.30730 0.38670 0.67808
 H422 H 0.34459 0.38997 0.71025
 H423 H 0.29242 0.38878 0.67171
 Cu424 Cu 0.35922 0.35706 0.67785
 Cu425 Cu 0.31813 0.35562 0.64855
 Cu426 Cu 0.35542 0.32052 0.64453
 N427 N 0.37721 0.33527 0.67919
 N428 N 0.37593 0.32094 0.66608
 C429 C 0.38956 0.30743 0.67118
 C430 C 0.39964 0.31368 0.68859
 C431 C 0.39136 0.33132 0.69324
 H432 H 0.39123 0.29374 0.66349
 H433 H 0.39488 0.34030 0.70632
 N434 N 0.33028 0.32011 0.62816
 N435 N 0.31601 0.33322 0.63017
 C436 C 0.30000 0.32803 0.61877
 C437 C 0.30444 0.31104 0.60890
 C438 C 0.32376 0.30636 0.61512
 H439 H 0.28587 0.33573 0.61813
 H440 H 0.33199 0.29343 0.61132
 H441 H 0.33528 0.33489 0.66300
 H442 H 0.34792 0.34905 0.64282
 N443 N 0.31763 0.87120 0.17565
 N444 N 0.33491 0.87066 0.18548
 C445 C 0.33480 0.88397 0.20050
 C446 C 0.31660 0.89354 0.19980
 C447 C 0.30606 0.88511 0.18383
 H448 H 0.34675 0.88607 0.21155
 H449 H 0.29071 0.88810 0.17928
 Cu450 Cu 0.35514 0.85156 0.17890
 Cu451 Cu 0.31056 0.85254 0.15451
 Cu452 Cu 0.34661 0.81802 0.14310
 N453 N 0.37067 0.82799 0.17801
 N454 N 0.36692 0.81462 0.16425
 C455 C 0.37869 0.79931 0.16791
 C456 C 0.39047 0.80335 0.18482
 C457 C 0.38502 0.82171 0.19087
 H458 H 0.37832 0.78604 0.15924
 H459 H 0.39033 0.82953 0.20416
 N460 N 0.32066 0.81980 0.12867
 N461 N 0.30660 0.83243 0.13351
 C462 C 0.28996 0.82868 0.12235
 C463 C 0.29383 0.81310 0.10983
 C464 C 0.31345 0.80782 0.11420
 H465 H 0.27589 0.83643 0.12350
 H466 H 0.32152 0.79557 0.10812
 H467 H 0.32914 0.83083 0.16496
 H468 H 0.33929 0.84717 0.14512
 N469 N 0.81763 0.37608 0.17941
 N470 N 0.83351 0.37715 0.19138
 C471 C 0.83063 0.39090 0.20559
 C472 C 0.81207 0.39913 0.20217
 C473 C 0.80417 0.38946 0.18539
 H474 H 0.84085 0.39404 0.21807
 H475 H 0.78925 0.39113 0.17896
 Cu476 Cu 0.85526 0.35897 0.18889
 Cu477 Cu 0.81479 0.35570 0.15888
 Cu478 Cu 0.85439 0.32281 0.15519
 N479 N 0.87195 0.33661 0.19257
 N480 N 0.87207 0.32240 0.17924
 C481 C 0.88471 0.30864 0.18596
 C482 C 0.89252 0.31462 0.20465
 C483 C 0.88405 0.33233 0.20833
 H484 H 0.88724 0.29502 0.17835
 H485 H 0.88618 0.34126 0.22175
 N486 N 0.83036 0.32205 0.13717
 N487 N 0.81510 0.33413 0.13908
 C488 C 0.80035 0.32882 0.12607
 C489 C 0.80662 0.31281 0.11534
 C490 C 0.82574 0.30886 0.12271
 H491 H 0.78586 0.33579 0.12475
 H492 H 0.83513 0.29676 0.11862
 H493 H 0.83313 0.33561 0.17308
 H494 H 0.84487 0.35127 0.15361
 N495 N 0.81376 0.87663 0.68441
 N496 N 0.82591 0.87385 0.69996
 C497 C 0.82242 0.88735 0.71432
 C498 C 0.80728 0.89920 0.70740
 C499 C 0.80213 0.89205 0.68829
 H500 H 0.82957 0.88794 0.72917
 H501 H 0.78992 0.89679 0.67862
 Cu502 Cu 0.84336 0.85162 0.70125
 Cu503 Cu 0.81158 0.85816 0.66215
 Cu504 Cu 0.84659 0.82124 0.66091
 N505 N 0.86506 0.83327 0.69857
 N506 N 0.86659 0.82137 0.68295
 C507 C 0.88227 0.80942 0.68625
 C508 C 0.89081 0.81422 0.70497
 C509 C 0.87956 0.82936 0.71224
 H510 H 0.88640 0.79754 0.67639
 H511 H 0.88134 0.83647 0.72687
 N512 N 0.82487 0.82395 0.64030
 N513 N 0.81161 0.83807 0.64099
 C514 C 0.79720 0.83482 0.62693
 C515 C 0.80154 0.81798 0.61679
 C516 C 0.81926 0.81141 0.62553
 H517 H 0.78376 0.84341 0.62504
 H518 H 0.82658 0.79783 0.62246
 H519 H 0.82312 0.83383 0.67648
 H520 H 0.84184 0.85016 0.66426
 N521 N 0.67540 0.62884 0.67990
 N522 N 0.65771 0.62877 0.68884
 C523 C 0.65753 0.61529 0.70342
 C524 C 0.67605 0.60629 0.70344
 C525 C 0.68705 0.61519 0.68828
 H526 H 0.64522 0.61285 0.71387
 H527 H 0.70270 0.61278 0.68454
 Cu528 Cu 0.63766 0.64783 0.68227
 Cu529 Cu 0.68271 0.64822 0.65995
 Cu530 Cu 0.64646 0.68287 0.64888
 N531 N 0.62183 0.67109 0.68246
 N532 N 0.62491 0.68488 0.66926
 C533 C 0.61230 0.69956 0.67356
 C534 C 0.60105 0.69463 0.69057
 C535 C 0.60755 0.67656 0.69578
 H536 H 0.61217 0.71314 0.66569
 H537 H 0.60276 0.66827 0.70879
 N538 N 0.67316 0.68174 0.63538
 N539 N 0.68704 0.66891 0.64012
 C540 C 0.70399 0.67272 0.62970
 C541 C 0.70066 0.68853 0.61770
 C542 C 0.68094 0.69395 0.62160
 H543 H 0.71793 0.66478 0.63092
 H544 H 0.67314 0.70628 0.61554
 H545 H 0.66342 0.66963 0.67050
 H546 H 0.65422 0.65395 0.64935
 N547 N 0.69181 0.13096 0.16859
 N548 N 0.67706 0.12801 0.18155
 C549 C 0.68165 0.11276 0.19321
 C550 C 0.70034 0.10591 0.18723
 C551 C 0.70633 0.11782 0.17165
 H552 H 0.67262 0.10773 0.20579
 H553 H 0.72058 0.11737 0.16368
 Cu554 Cu 0.65422 0.14547 0.18330
 Cu555 Cu 0.69198 0.15253 0.14988
 Cu556 Cu 0.65374 0.18588 0.15538
 N557 N 0.63453 0.16572 0.18806
 N558 N 0.63391 0.18107 0.17656
 C559 C 0.61922 0.19281 0.18333
 C560 C 0.61030 0.18443 0.20011
 C561 C 0.62044 0.16732 0.20276
 H562 H 0.61606 0.20686 0.17725
 H563 H 0.61809 0.15707 0.21483
 N564 N 0.67521 0.18824 0.13484
 N565 N 0.68957 0.17532 0.13243
 C566 C 0.70251 0.18147 0.11806
 C567 C 0.69605 0.19919 0.11131
 C568 C 0.67877 0.20304 0.12227
 H569 H 0.71622 0.17416 0.11370
 H570 H 0.66989 0.21603 0.12161
 H571 H 0.67611 0.17020 0.16966
 H572 H 0.66133 0.15769 0.14919
 N573 N 0.18726 0.63066 0.16810
 N574 N 0.17299 0.62677 0.18134
 C575 C 0.17886 0.61188 0.19293
 C576 C 0.19789 0.60626 0.18662
 C577 C 0.20275 0.61850 0.17093
 H578 H 0.17037 0.60624 0.20561
 H579 H 0.21673 0.61878 0.16249
 Cu580 Cu 0.14911 0.64278 0.18352
 Cu581 Cu 0.18498 0.65149 0.14852
 Cu582 Cu 0.14119 0.67861 0.15075
 N583 N 0.12997 0.66323 0.18955
 N584 N 0.12646 0.67682 0.17622
 C585 C 0.11253 0.68893 0.18375
 C586 C 0.10718 0.68276 0.20301
 C587 C 0.11861 0.66645 0.20627
 H588 H 0.10739 0.70172 0.17609
 H589 H 0.11877 0.65772 0.21985
 N590 N 0.16277 0.68333 0.13095
 N591 N 0.17947 0.67308 0.12998
 C592 C 0.19168 0.68075 0.11580
 C593 C 0.18226 0.69672 0.10777
 C594 C 0.16405 0.69798 0.11777
 H595 H 0.20673 0.67577 0.11238
 H596 H 0.15291 0.70918 0.11613
 H597 H 0.16608 0.66862 0.16599
 H598 H 0.15444 0.65141 0.14750
 N599 N 0.18716 0.13113 0.67048
 N600 N 0.17221 0.12795 0.68315
 C601 C 0.17723 0.11346 0.69565
 C602 C 0.19642 0.10732 0.69055
 C603 C 0.20226 0.11885 0.67459
 H604 H 0.16806 0.10851 0.70818
 H605 H 0.21674 0.11877 0.66704
 Cu606 Cu 0.14857 0.14436 0.68352
 Cu607 Cu 0.18672 0.15194 0.65076
 Cu608 Cu 0.14737 0.18428 0.65520
 N609 N 0.12880 0.16441 0.68845
 N610 N 0.12795 0.17960 0.67674
 C611 C 0.11351 0.19148 0.68369
 C612 C 0.10496 0.18337 0.70081
 C613 C 0.11508 0.16623 0.70348
 H614 H 0.11034 0.20549 0.67751
 H615 H 0.11303 0.15616 0.71577
 N616 N 0.16857 0.18654 0.63445
 N617 N 0.18340 0.17405 0.63242
 C618 C 0.19607 0.18023 0.61782
 C619 C 0.18890 0.19753 0.61056
 C620 C 0.17154 0.20109 0.62143
 H621 H 0.21008 0.17332 0.61369
 H622 H 0.16224 0.21379 0.62046
 H623 H 0.17007 0.16932 0.66992
 H624 H 0.15602 0.15618 0.64936
 N625 N 0.31918 0.62545 0.31983
 N626 N 0.33443 0.62622 0.30711
 C627 C 0.33186 0.61306 0.29219
 C628 C 0.31421 0.60330 0.29595
 C629 C 0.30650 0.61149 0.31364
 H630 H 0.34169 0.61121 0.27917
 H631 H 0.29220 0.60833 0.32072
 Cu632 Cu 0.35517 0.64542 0.31032
 Cu633 Cu 0.31583 0.64417 0.34191
 Cu634 Cu 0.35386 0.67832 0.34770
 N635 N 0.37080 0.66873 0.30866
 N636 N 0.37090 0.68144 0.32360
 C637 C 0.38322 0.69602 0.31853
 C638 C 0.39086 0.69222 0.29922
 C639 C 0.38259 0.67488 0.29342
 H640 H 0.38573 0.70871 0.32781
 H641 H 0.38485 0.66739 0.27907
 N642 N 0.33015 0.67691 0.36590
 N643 N 0.31549 0.66430 0.36328
 C644 C 0.30057 0.66833 0.37652
 C645 C 0.30608 0.68408 0.38809
 C646 C 0.32495 0.68920 0.38101
 H647 H 0.28635 0.66082 0.37726
 H648 H 0.33367 0.70160 0.38562
 H649 H 0.33253 0.66620 0.32911
 H650 H 0.34577 0.64941 0.34652
 N651 N 0.32096 0.12760 0.82594
 N652 N 0.33475 0.12652 0.81159
 C653 C 0.32901 0.11372 0.79730
 C654 C 0.31083 0.10603 0.80310
 C655 C 0.30608 0.11506 0.82144
 H656 H 0.33719 0.11063 0.78337
 H657 H 0.29238 0.11347 0.83017
 Cu658 Cu 0.35836 0.14265 0.81200
 Cu659 Cu 0.32302 0.14664 0.84810
 Cu660 Cu 0.35708 0.18360 0.83854
 N661 N 0.37707 0.16306 0.80628
 N662 N 0.37667 0.17918 0.81680
 C663 C 0.39011 0.19144 0.80876
 C664 C 0.39916 0.18248 0.79219
 C665 C 0.39050 0.16453 0.79104
 H666 H 0.39225 0.20610 0.81384
 H667 H 0.39314 0.15368 0.77945
 N668 N 0.33623 0.18511 0.85992
 N669 N 0.32359 0.17101 0.86396
 C670 C 0.31101 0.17679 0.87897
 C671 C 0.31601 0.19542 0.88448
 C672 C 0.33197 0.20018 0.87212
 H673 H 0.29863 0.16839 0.88480
 H674 H 0.33960 0.21387 0.87180
 H675 H 0.33497 0.16506 0.82747
 H676 H 0.35293 0.15552 0.84670
 N677 N 0.82206 0.62624 0.83073
 N678 N 0.83732 0.62374 0.81822
 C679 C 0.83299 0.60955 0.80492
 C680 C 0.81408 0.60263 0.80938
 C681 C 0.80751 0.61348 0.82591
 H682 H 0.84242 0.60529 0.79222
 H683 H 0.79282 0.61301 0.83299
 Cu684 Cu 0.86021 0.64081 0.81845
 Cu685 Cu 0.82143 0.64749 0.85046
 Cu686 Cu 0.86282 0.67827 0.85019
 N687 N 0.87813 0.66202 0.81302
 N688 N 0.87946 0.67663 0.82575
 C689 C 0.89270 0.68941 0.81836
 C690 C 0.89979 0.68246 0.79983
 C691 C 0.89019 0.66510 0.79689
 H692 H 0.89618 0.70305 0.82551
 H693 H 0.89156 0.65561 0.78381
 N694 N 0.83982 0.68143 0.86887
 N695 N 0.82409 0.66983 0.86913
 C696 C 0.81052 0.67677 0.88260
 C697 C 0.81808 0.69359 0.89098
 C698 C 0.83660 0.69610 0.88193
 H699 H 0.79584 0.67062 0.88533
 H700 H 0.84662 0.70817 0.88410
 H701 H 0.83983 0.66572 0.83400
 H702 H 0.85181 0.65037 0.85372
 N703 N 0.81820 0.12426 0.32705
 N704 N 0.83309 0.12479 0.31388
 C705 C 0.82910 0.11281 0.29820
 C706 C 0.81092 0.10397 0.30193
 C707 C 0.80437 0.11149 0.32042
 H708 H 0.83861 0.11082 0.28495
 H709 H 0.79026 0.10857 0.32801
 Cu710 Cu 0.85606 0.14130 0.31839
 Cu711 Cu 0.81765 0.14122 0.35097
 Cu712 Cu 0.85216 0.17901 0.35008
 N713 N 0.87491 0.16229 0.31714
 N714 N 0.87358 0.17711 0.32961
 C715 C 0.88741 0.19027 0.32415
 C716 C 0.89769 0.18324 0.30725
 C717 C 0.88934 0.16552 0.30325
 H718 H 0.88892 0.20434 0.33106
 H719 H 0.89279 0.15613 0.29049
 N720 N 0.82934 0.17787 0.36950
 N721 N 0.81614 0.16368 0.36951
 C722 C 0.80145 0.16782 0.38298
 C723 C 0.80568 0.18526 0.39209
 C724 C 0.82349 0.19126 0.38325
 H725 H 0.78825 0.15908 0.38552
 H726 H 0.83101 0.20481 0.38587
 H727 H 0.83142 0.16219 0.33430
 H728 H 0.84749 0.15031 0.35375
 N729 N 0.69035 0.36855 0.33257
 N730 N 0.67558 0.37206 0.31972
 C731 C 0.68039 0.38742 0.30836
 C732 C 0.69926 0.39377 0.31442
 C733 C 0.70513 0.38145 0.32973
 H734 H 0.67135 0.39287 0.29593
 H735 H 0.71943 0.38146 0.33767
 Cu736 Cu 0.65248 0.35505 0.31769
 Cu737 Cu 0.69010 0.34662 0.35090
 Cu738 Cu 0.65181 0.31357 0.34347
 N739 N 0.63325 0.33491 0.31111
 N740 N 0.63255 0.31906 0.32181
 C741 C 0.61827 0.30746 0.31395
 C742 C 0.60972 0.31645 0.29729
 C743 C 0.61965 0.33379 0.29583
 H744 H 0.61515 0.29312 0.31924
 H745 H 0.61748 0.34455 0.28423
 N746 N 0.67278 0.31064 0.36455
 N747 N 0.68713 0.32344 0.36774
 C748 C 0.69953 0.31699 0.38250
 C749 C 0.69273 0.29921 0.38868
 C750 C 0.67584 0.29562 0.37697
 H751 H 0.71309 0.32418 0.38759
 H752 H 0.66683 0.28271 0.37711
 H753 H 0.67430 0.32978 0.33029
 H754 H 0.65948 0.34143 0.35121
 N755 N 0.68642 0.86975 0.83518
 N756 N 0.67122 0.87495 0.82358
 C757 C 0.67641 0.89054 0.81288
 C758 C 0.69601 0.89535 0.81799
 C759 C 0.70192 0.88184 0.83214
 H760 H 0.66707 0.89706 0.80130
 H761 H 0.71667 0.88046 0.83904
 Cu762 Cu 0.64718 0.85945 0.82124
 Cu763 Cu 0.68536 0.84677 0.85198
 Cu764 Cu 0.64526 0.81600 0.84273
 N765 N 0.62761 0.84053 0.81253
 N766 N 0.62647 0.82372 0.82136
 C767 C 0.61237 0.81309 0.81172
 C768 C 0.60449 0.82382 0.79589
 C769 C 0.61455 0.84111 0.79680
 H770 H 0.60905 0.79828 0.81514
 H771 H 0.61301 0.85295 0.78634
 N772 N 0.66611 0.81100 0.86354
 N773 N 0.68129 0.82278 0.86722
 C774 C 0.69325 0.81508 0.88166
 C775 C 0.68523 0.79756 0.88717
 C776 C 0.66812 0.79542 0.87539
 H777 H 0.70712 0.82139 0.88715
 H778 H 0.65814 0.78317 0.87518
 H779 H 0.66808 0.83239 0.83054
 H780 H 0.65446 0.84283 0.85301
 N781 N 0.18176 0.36773 0.82186
 N782 N 0.16498 0.36574 0.81133
 C783 C 0.16456 0.37891 0.79641
 C784 C 0.18185 0.38987 0.79787
 C785 C 0.19243 0.38240 0.81420
 H786 H 0.15286 0.38008 0.78496
 H787 H 0.20728 0.38658 0.81939
 Cu788 Cu 0.14576 0.34553 0.81734
 Cu789 Cu 0.18969 0.34987 0.84316
 Cu790 Cu 0.15864 0.31069 0.84994
 N791 N 0.13045 0.32180 0.81891
 N792 N 0.13580 0.30820 0.83160
 C793 C 0.12404 0.29276 0.82850
 C794 C 0.11047 0.29691 0.81323
 C795 C 0.11488 0.31551 0.80742
 H796 H 0.12570 0.27921 0.83626
 H797 H 0.10808 0.32344 0.79506
 N798 N 0.18250 0.31559 0.86690
 N799 N 0.19487 0.33010 0.86390
 C800 C 0.21097 0.32817 0.87634
 C801 C 0.20835 0.31184 0.88784
 C802 C 0.19016 0.30426 0.88148
 H803 H 0.22388 0.33761 0.87668
 H804 H 0.18360 0.29085 0.88625
 H805 H 0.17460 0.32744 0.82945
 H806 H 0.16137 0.34043 0.85065
 N807 N 0.18357 0.86974 0.32301
 N808 N 0.16805 0.86680 0.31089
 C809 C 0.16822 0.88006 0.29603
 C810 C 0.18456 0.89203 0.29921
 C811 C 0.19395 0.88506 0.31650
 H812 H 0.15775 0.88056 0.28336
 H813 H 0.20802 0.88997 0.32304
 Cu814 Cu 0.14993 0.84510 0.31471
 Cu815 Cu 0.19094 0.85203 0.34448
 Cu816 Cu 0.16100 0.81196 0.35039
 N817 N 0.13385 0.82191 0.31791
 N818 N 0.13848 0.80894 0.33162
 C819 C 0.12612 0.79378 0.32938
 C820 C 0.11293 0.79744 0.31358
 C821 C 0.11821 0.81545 0.30660
 H822 H 0.12704 0.78074 0.33816
 H823 H 0.11186 0.82282 0.29363
 N824 N 0.18446 0.81746 0.36795
 N825 N 0.19612 0.83256 0.36538
 C826 C 0.21201 0.83133 0.37813
 C827 C 0.21015 0.81482 0.38938
 C828 C 0.19250 0.80635 0.38261
 H829 H 0.22445 0.84133 0.37872
 H830 H 0.18661 0.79259 0.38717
 H831 H 0.17803 0.82820 0.33053
 H832 H 0.16231 0.84150 0.34964
 C833 C 0.26247 0.95757 0.23780
 C834 C 0.25040 0.94790 0.25184
 C835 C 0.23964 0.95777 0.26700
 C836 C 0.24101 0.97800 0.26823
 C837 C 0.25333 0.98800 0.25417
 C838 C 0.26411 0.97775 0.23892
 C839 C 0.27652 0.98789 0.22541
 C840 C 0.27822 1.00776 0.22673
 C841 C 0.26747 1.01828 0.24153
 C842 C 0.25478 1.00832 0.25529
 C843 C 0.23000 0.98855 0.28281
 C844 C 0.23109 1.00847 0.28363
 C845 C 0.24343 1.01864 0.27006
 C846 C 0.24430 1.03889 0.27050
 C847 C 0.25689 1.04848 0.25688
 C848 C 0.26871 1.03852 0.24262
 H849 H 0.28514 0.98055 0.21371
 H850 H 0.28782 1.01479 0.21577
 H851 H 0.22013 0.98153 0.29353
 H852 H 0.22201 1.01582 0.29495
 H853 H 0.24942 0.93239 0.25096
 H854 H 0.25804 1.06398 0.25792
 C855 C 0.23401 0.45542 0.76074
 C856 C 0.24396 0.44571 0.74492
 C857 C 0.25440 0.45558 0.72974
 C858 C 0.25469 0.47584 0.73002
 C859 C 0.24487 0.48593 0.74606
 C860 C 0.23458 0.47570 0.76154
 C861 C 0.22485 0.48602 0.77719
 C862 C 0.22544 0.50595 0.77784
 C863 C 0.23577 0.51636 0.76285
 C864 C 0.24547 0.50630 0.74672
 C865 C 0.26504 0.48627 0.71505
 C866 C 0.26561 0.50622 0.71568
 C867 C 0.25585 0.51654 0.73131
 C868 C 0.25658 0.53682 0.73226
 C869 C 0.24662 0.54649 0.74810
 C870 C 0.23625 0.53660 0.76330
 H871 H 0.21653 0.47879 0.78905
 H872 H 0.21760 0.51313 0.79020
 H873 H 0.27296 0.47909 0.70274
 H874 H 0.27396 0.51344 0.70385
 H875 H 0.24386 0.43016 0.74458
 H876 H 0.24694 0.56204 0.74865
 C877 C 0.75762 -0.04190 0.26610
 C878 C 0.74400 -0.05183 0.25355
 C879 C 0.72953 -0.04222 0.24186
 C880 C 0.72850 -0.02196 0.24276
 C881 C 0.74200 -0.01166 0.25562
 C882 C 0.75658 -0.02166 0.26735
 C883 C 0.76953 -0.01118 0.28027
 C884 C 0.76833 0.00873 0.28154
 C885 C 0.75425 0.01897 0.26981
 C886 C 0.74107 0.00871 0.25657
 C887 C 0.71471 -0.01168 0.23070
 C888 C 0.71413 0.00827 0.23128
 C889 C 0.72710 0.01877 0.24415
 C890 C 0.72689 0.03907 0.24454
 C891 C 0.73992 0.04892 0.25780
 C892 C 0.75335 0.03923 0.27060
 H893 H 0.78065 -0.01828 0.28966
 H894 H 0.77882 0.01602 0.29161
 H895 H 0.70446 -0.01895 0.22036
 H896 H 0.70346 0.01537 0.22137
 H897 H 0.74480 -0.06735 0.25276
 H898 H 0.73909 0.06444 0.25867
 C899 C 0.74994 0.46409 0.77642
 C900 C 0.74121 0.45433 0.75985
 C901 C 0.73220 0.46413 0.74368
 C902 C 0.73164 0.48438 0.74408
 C903 C 0.74009 0.49451 0.76094
 C904 C 0.74921 0.48433 0.77722
 C905 C 0.75792 0.49468 0.79351
 C906 C 0.75767 0.51465 0.79384
 C907 C 0.74863 0.52503 0.77794
 C908 C 0.73972 0.51487 0.76135
 C909 C 0.72256 0.49475 0.72821
 C910 C 0.72211 0.51468 0.72866
 C911 C 0.73078 0.52503 0.74497
 C912 C 0.73050 0.54528 0.74545
 C913 C 0.73950 0.55509 0.76179
 C914 C 0.74883 0.54530 0.77782
 H915 H 0.76519 0.48744 0.80608
 H916 H 0.76476 0.52186 0.80666
 H917 H 0.71559 0.48755 0.71530
 H918 H 0.71483 0.52189 0.71607
 H919 H 0.74188 0.43879 0.75930
 H920 H 0.73970 0.57065 0.76179
 C921 C 0.25973 0.45751 0.26107
 C922 C 0.24579 0.44770 0.24878
 C923 C 0.23106 0.45742 0.23753
 C924 C 0.23014 0.47769 0.23855
 C925 C 0.24403 0.48787 0.25109
 C926 C 0.25884 0.47775 0.26242
 C927 C 0.27212 0.48812 0.27509
 C928 C 0.27108 0.50802 0.27645
 C929 C 0.25680 0.51836 0.26509
 C930 C 0.24321 0.50823 0.25219
 C931 C 0.21607 0.48807 0.22696
 C932 C 0.21553 0.50803 0.22773
 C933 C 0.22889 0.51842 0.24030
 C934 C 0.22869 0.53874 0.24092
 C935 C 0.24227 0.54845 0.25372
 C936 C 0.25606 0.53860 0.26597
 H937 H 0.28339 0.48095 0.28423
 H938 H 0.28182 0.51523 0.28631
 H939 H 0.20552 0.48091 0.21686
 H940 H 0.20461 0.51521 0.21817
 H941 H 0.24647 0.43218 0.24792
 H942 H 0.24156 0.56397 0.25479
 C943 C 0.74437 0.96165 0.73174
 C944 C 0.73293 0.95197 0.74631
 C945 C 0.71995 0.96179 0.75959
 C946 C 0.71856 0.98200 0.75855
 C947 C 0.73023 0.99203 0.74398
 C948 C 0.74295 0.98180 0.73033
 C949 C 0.75441 0.99204 0.71606
 C950 C 0.75358 1.01194 0.71535
 C951 C 0.74136 1.02240 0.72895
 C952 C 0.72949 1.01237 0.74333
 C953 C 0.70629 0.99249 0.77210
 C954 C 0.70564 1.01242 0.77152
 C955 C 0.71721 1.02265 0.75735
 C956 C 0.71737 1.04292 0.75729
 C957 C 0.72947 1.05260 0.74327
 C958 C 0.74123 1.04265 0.72901
 H959 H 0.76442 0.98480 0.70549
 H960 H 0.76299 1.01907 0.70427
 H961 H 0.69739 0.98544 0.78364
 H962 H 0.69623 1.01973 0.78259
 H963 H 0.73365 0.93645 0.74683
 H964 H 0.72928 1.06815 0.74307
 C965 C 0.75265 0.46222 0.23324
 C966 C 0.73923 0.45225 0.24570
 C967 C 0.72612 0.46183 0.25906
 C968 C 0.72629 0.48213 0.25989
 C969 C 0.74036 0.49243 0.24789
 C970 C 0.75357 0.48243 0.23452
 C971 C 0.76768 0.49287 0.22314
 C972 C 0.76898 0.51272 0.22498
 C973 C 0.75607 0.52297 0.23812
 C974 C 0.74134 0.51277 0.24938
 C975 C 0.71317 0.49240 0.27277
 C976 C 0.71371 0.51235 0.27376
 C977 C 0.72767 0.52283 0.26221
 C978 C 0.72867 0.54307 0.26355
 C979 C 0.74349 0.55285 0.25257
 C980 C 0.75725 0.54317 0.24000
 H981 H 0.77812 0.48574 0.21291
 H982 H 0.78014 0.51996 0.21583
 H983 H 0.70239 0.48512 0.28235
 H984 H 0.70333 0.51945 0.28406
 H985 H 0.73852 0.43674 0.24448
 H986 H 0.74430 0.56835 0.25379
 C987 C 0.25809 -0.03826 0.76686
 C988 C 0.24505 -0.04812 0.75363
 C989 C 0.23018 -0.03858 0.74240
 C990 C 0.22818 -0.01844 0.74447
 C991 C 0.24114 -0.00823 0.75800
 C992 C 0.25613 -0.01816 0.76923
 C993 C 0.26854 -0.00779 0.78279
 C994 C 0.26647 0.01197 0.78512
 C995 C 0.25197 0.02218 0.77390
 C996 C 0.23924 0.01201 0.76012
 C997 C 0.21396 -0.00818 0.73295
 C998 C 0.21241 0.01167 0.73469
 C999 C 0.22485 0.02205 0.74821
 C1000 C 0.22375 0.04228 0.74964
 C1001 C 0.23634 0.05206 0.76336
 C1002 C 0.25026 0.04237 0.77562
 H1003 H 0.27996 -0.01488 0.79183
 H1004 H 0.27660 0.01920 0.79561
 H1005 H 0.20411 -0.01532 0.72213
 H1006 H 0.20143 0.01879 0.72516
 H1007 H 0.24653 -0.06355 0.75207
 H1008 H 0.23500 0.06751 0.76480
 C1009 C 0.24058 0.25621 1.04131
 C1010 C 0.25092 0.24162 1.05148
 C1011 C 0.26077 0.22693 1.04076
 C1012 C 0.26050 0.22676 1.01918
 C1013 C 0.25006 0.24139 1.00861
 C1014 C 0.23999 0.25612 1.01971
 C1015 C 0.22927 0.27017 1.00891
 C1016 C 0.22865 0.26992 0.98768
 C1017 C 0.23881 0.25568 0.97639
 C1018 C 0.24976 0.24135 0.98691
 C1019 C 0.27083 0.21262 1.00790
 C1020 C 0.27090 0.21283 0.98663
 C1021 C 0.26036 0.22699 0.97578
 C1022 C 0.26047 0.22745 0.95414
 C1023 C 0.24958 0.24178 0.94404
 C1024 C 0.23851 0.25560 0.95483
 H1025 H 0.22110 0.28145 1.01674
 H1026 H 0.22033 0.28123 0.98021
 H1027 H 0.27925 0.20141 1.01542
 H1028 H 0.27947 0.20180 0.97883
 H1029 H 0.25138 0.24172 1.06805
 H1030 H 0.24889 0.24162 0.92749
 C1031 C 0.27683 0.74086 0.45643
 C1032 C 0.26253 0.75202 0.44616
 C1033 C 0.24844 0.76322 0.45677
 C1034 C 0.24887 0.76371 0.47836
 C1035 C 0.26309 0.75235 0.48903
 C1036 C 0.27706 0.74081 0.47805
 C1037 C 0.29046 0.72910 0.48900
 C1038 C 0.29017 0.72872 0.51026
 C1039 C 0.27671 0.74028 0.52146
 C1040 C 0.26319 0.75235 0.51075
 C1041 C 0.23563 0.77550 0.48955
 C1042 C 0.23615 0.77596 0.51079
 C1043 C 0.24973 0.76443 0.52170
 C1044 C 0.24992 0.76443 0.54329
 C1045 C 0.26267 0.75176 0.55362
 C1046 C 0.27606 0.73975 0.54305
 H1047 H 0.30106 0.71979 0.48124
 H1048 H 0.30056 0.71913 0.51780
 H1049 H 0.22482 0.78467 0.48199
 H1050 H 0.22549 0.78520 0.51857
 H1051 H 0.26219 0.75181 0.42960
 H1052 H 0.26292 0.75196 0.57019
 C1053 C 0.26108 0.75886 0.04095
 C1054 C 0.24904 0.74551 0.05108
 C1055 C 0.23629 0.73299 0.04033
 C1056 C 0.23501 0.73420 0.01880
 C1057 C 0.24682 0.74792 0.00834
 C1058 C 0.26005 0.76015 0.01943
 C1059 C 0.27167 0.77357 0.00873
 C1060 C 0.27048 0.77487 -0.01242
 C1061 C 0.25743 0.76295 -0.02373
 C1062 C 0.24547 0.74935 -0.01327
 C1063 C 0.22196 0.72228 0.00749
 C1064 C 0.22056 0.72376 -0.01365
 C1065 C 0.23210 0.73725 -0.02435
 C1066 C 0.23092 0.73870 -0.04587
 C1067 C 0.24324 0.75185 -0.05600
 C1068 C 0.25630 0.76406 -0.04526
 H1069 H 0.28177 0.78333 0.01659
 H1070 H 0.28000 0.78530 -0.01981
 H1071 H 0.21256 0.71176 0.01490
 H1072 H 0.21041 0.71405 -0.02152
 H1073 H 0.25037 0.74418 0.06752
 H1074 H 0.24195 0.75326 -0.07243
 C1075 C 0.25920 0.26412 0.45762
 C1076 C 0.24512 0.25261 0.44736
 C1077 C 0.23346 0.23913 0.45774
 C1078 C 0.23623 0.23671 0.47900
 C1079 C 0.25074 0.24802 0.48955
 C1080 C 0.26211 0.26192 0.47886
 C1081 C 0.27637 0.27298 0.48963
 C1082 C 0.27937 0.27054 0.51048
 C1083 C 0.26833 0.25682 0.52140
 C1084 C 0.25387 0.24546 0.51084
 C1085 C 0.22519 0.22300 0.48991
 C1086 C 0.22820 0.22053 0.51077
 C1087 C 0.24247 0.23160 0.52153
 C1088 C 0.24531 0.22947 0.54280
 C1089 C 0.25935 0.24102 0.55306
 C1090 C 0.27102 0.25450 0.54267
 H1091 H 0.28546 0.28362 0.48201
 H1092 H 0.29037 0.27964 0.51797
 H1093 H 0.21416 0.21393 0.48242
 H1094 H 0.21911 0.20991 0.51839
 H1095 H 0.24267 0.25468 0.43114
 H1096 H 0.26168 0.23908 0.56932
 C1097 C 0.74095 0.76133 1.04051
 C1098 C 0.75043 0.74639 1.05095
 C1099 C 0.75946 0.73108 1.04050
 C1100 C 0.75893 0.73047 1.01893
 C1101 C 0.74963 0.74565 1.00809
 C1102 C 0.74070 0.76118 1.01891
 C1103 C 0.73134 0.77591 1.00786
 C1104 C 0.73099 0.77557 0.98660
 C1105 C 0.74002 0.76049 0.97553
 C1106 C 0.74928 0.74528 0.98638
 C1107 C 0.76783 0.71532 1.00791
 C1108 C 0.76753 0.71498 0.98666
 C1109 C 0.75826 0.72976 0.97557
 C1110 C 0.75819 0.72969 0.95397
 C1111 C 0.74883 0.74470 0.94351
 C1112 C 0.73967 0.75999 0.95392
 H1113 H 0.72405 0.78783 1.01554
 H1114 H 0.72339 0.78723 0.97897
 H1115 H 0.77529 0.70362 1.01562
 H1116 H 0.77480 0.70303 0.97902
 H1117 H 0.75075 0.74667 1.06752
 H1118 H 0.74882 0.74453 0.92694
 C1119 C 0.74587 0.26567 0.54418
 C1120 C 0.75986 0.25435 0.55468
 C1121 C 0.77464 0.24371 0.54437
 C1122 C 0.77550 0.24425 0.52279
 C1123 C 0.76158 0.25578 0.51188
 C1124 C 0.74683 0.26662 0.52261
 C1125 C 0.73361 0.27837 0.51148
 C1126 C 0.73458 0.27919 0.49028
 C1127 C 0.74872 0.26822 0.47929
 C1128 C 0.76226 0.25629 0.49017
 C1129 C 0.78950 0.23313 0.51178
 C1130 C 0.78985 0.23328 0.49052
 C1131 C 0.77641 0.24479 0.47939
 C1132 C 0.77637 0.24472 0.45776
 C1133 C 0.76285 0.25655 0.44728
 C1134 C 0.74936 0.26857 0.45770
 H1135 H 0.72243 0.28718 0.51904
 H1136 H 0.72383 0.28831 0.48257
 H1137 H 0.80012 0.22387 0.51947
 H1138 H 0.80070 0.22413 0.48291
 H1139 H 0.75910 0.25363 0.57120
 H1140 H 0.76347 0.25701 0.43074
 C1141 C 0.77986 0.25761 -0.04036
 C1142 C 0.76633 0.24581 -0.05106
 C1143 C 0.75400 0.23265 -0.04100
 C1144 C 0.75490 0.23142 -0.01945
 C1145 C 0.76820 0.24355 -0.00829
 C1146 C 0.78084 0.25658 -0.01879
 C1147 C 0.79371 0.26860 -0.00739
 C1148 C 0.79412 0.26794 0.01387
 C1149 C 0.78174 0.25516 0.02461
 C1150 C 0.76871 0.24279 0.01342
 C1151 C 0.74243 0.21872 -0.00871
 C1152 C 0.74299 0.21792 0.01250
 C1153 C 0.75598 0.22983 0.02389
 C1154 C 0.75612 0.22951 0.04549
 C1155 C 0.76873 0.24209 0.05630
 C1156 C 0.78160 0.25482 0.04624
 H1157 H 0.80335 0.27893 -0.01477
 H1158 H 0.80405 0.27782 0.02178
 H1159 H 0.73181 0.20948 -0.01656
 H1160 H 0.73280 0.20808 0.01989
 H1161 H 0.76605 0.24626 -0.06762
 H1162 H 0.76906 0.24148 0.07285
 C1163 C 0.76522 0.76439 0.46374
 C1164 C 0.75306 0.75122 0.45314
 C1165 C 0.74120 0.73782 0.46343
 C1166 C 0.74087 0.73796 0.48501
 C1167 C 0.75359 0.75075 0.49598
 C1168 C 0.76609 0.76375 0.48532
 C1169 C 0.77938 0.77552 0.49650
 C1170 C 0.78034 0.77458 0.51772
 C1171 C 0.76759 0.76226 0.52863
 C1172 C 0.75373 0.75059 0.51768
 C1173 C 0.72783 0.72593 0.49592
 C1174 C 0.72716 0.72656 0.51715
 C1175 C 0.73992 0.73885 0.52836
 C1176 C 0.73945 0.73947 0.54997
 C1177 C 0.75371 0.75059 0.56055
 C1178 C 0.76798 0.76167 0.55021
 H1179 H 0.78948 0.78533 0.48893
 H1180 H 0.79090 0.78394 0.52551
 H1181 H 0.71766 0.71618 0.48813
 H1182 H 0.71678 0.71700 0.52468
 H1183 H 0.75276 0.75144 0.43658
 H1184 H 0.75362 0.75078 0.57710
 C1185 C 1.04420 0.24970 0.27543
 C1186 C 1.05390 0.25981 0.25991
 C1187 C 1.04312 0.26819 0.24391
 C1188 C 1.02189 0.26655 0.24336
 C1189 C 1.01176 0.25668 0.25918
 C1190 C 1.02293 0.24836 0.27537
 C1191 C 1.01256 0.23840 0.29068
 C1192 C 0.99167 0.23675 0.29022
 C1193 C 0.98029 0.24490 0.27437
 C1194 C 0.99043 0.25485 0.25860
 C1195 C 1.01051 0.27477 0.22755
 C1196 C 0.98965 0.27298 0.22699
 C1197 C 0.97930 0.26289 0.24220
 C1198 C 0.95809 0.26101 0.24173
 C1199 C 0.94837 0.25102 0.25731
 C1200 C 0.95910 0.24292 0.27354
 H1201 H 1.02050 0.23164 0.30315
 H1202 H 0.98456 0.22879 0.30235
 H1203 H 1.01760 0.28282 0.21548
 H1204 H 0.98175 0.27973 0.21449
 H1205 H 1.07022 0.26068 0.25998
 H1206 H 0.93211 0.24954 0.25683
 C1207 C 0.46263 0.25410 0.71997
 C1208 C 0.45218 0.24550 0.73602
 C1209 C 0.46228 0.23646 0.75203
 C1210 C 0.48355 0.23596 0.75220
 C1211 C 0.49442 0.24410 0.73575
 C1212 C 0.48393 0.25306 0.71948
 C1213 C 0.49505 0.26122 0.70352
 C1214 C 0.51603 0.26046 0.70341
 C1215 C 0.52673 0.25161 0.71933
 C1216 C 0.51582 0.24348 0.73574
 C1217 C 0.49422 0.22723 0.76818
 C1218 C 0.51516 0.22684 0.76830
 C1219 C 0.52627 0.23503 0.75235
 C1220 C 0.54756 0.23472 0.75243
 C1221 C 0.55809 0.24264 0.73606
 C1222 C 0.54806 0.25126 0.71967
 H1223 H 0.48767 0.26840 0.69097
 H1224 H 0.52375 0.26709 0.69077
 H1225 H 0.48650 0.22056 0.78080
 H1226 H 0.52254 0.21987 0.78099
 H1227 H 0.43585 0.24608 0.73622
 H1228 H 0.57442 0.24259 0.73637
 C1229 C 0.03964 0.26434 0.76026
 C1230 C 0.05002 0.25271 0.74624
 C1231 C 0.03979 0.24075 0.73246
 C1232 C 0.01852 0.24040 0.73244
 C1233 C 0.00779 0.25133 0.74720
 C1234 C 0.01838 0.26326 0.76123
 C1235 C 0.00745 0.27351 0.77611
 C1236 C -0.01343 0.27204 0.77724
 C1237 C -0.02425 0.26047 0.76337
 C1238 C -0.01357 0.25032 0.74793
 C1239 C 0.00771 0.22909 0.71833
 C1240 C -0.01323 0.22865 0.71856
 C1241 C -0.02418 0.23917 0.73322
 C1242 C -0.04544 0.23843 0.73385
 C1243 C -0.05572 0.24815 0.74945
 C1244 C -0.04549 0.25910 0.76422
 H1245 H 0.01495 0.28251 0.78731
 H1246 H -0.02099 0.28026 0.78903
 H1247 H 0.01534 0.22042 0.70694
 H1248 H -0.02072 0.21964 0.70737
 H1249 H 0.06631 0.25359 0.74535
 H1250 H -0.07202 0.24735 0.74997
 C1251 C 0.54351 0.24007 0.23247
 C1252 C 0.55375 0.25102 0.24718
 C1253 C 0.54340 0.26203 0.26173
 C1254 C 0.52210 0.26215 0.26169
 C1255 C 0.51146 0.25123 0.24678
 C1256 C 0.52219 0.24018 0.23210
 C1257 C 0.51133 0.22917 0.21777
 C1258 C 0.49036 0.22911 0.21772
 C1259 C 0.47939 0.24017 0.23191
 C1260 C 0.49003 0.25132 0.24661
 C1261 C 0.51116 0.27321 0.27588
 C1262 C 0.49020 0.27342 0.27561
 C1263 C 0.47931 0.26247 0.26122
 C1264 C 0.45800 0.26268 0.26079
 C1265 C 0.44774 0.25139 0.24637
 C1266 C 0.45807 0.24001 0.23212
 H1267 H 0.51894 0.22028 0.20656
 H1268 H 0.48287 0.22015 0.20647
 H1269 H 0.51870 0.28201 0.28723
 H1270 H 0.48262 0.28237 0.28678
 H1271 H 0.57009 0.25093 0.24736
 H1272 H 0.43140 0.25136 0.24634
 C1273 C 1.04627 0.74998 0.76736
 C1274 C 1.05595 0.76052 0.75218
 C1275 C 1.04520 0.76889 0.73612
 C1276 C 1.02402 0.76669 0.73514
 C1277 C 1.01396 0.75612 0.75048
 C1278 C 1.02510 0.74783 0.76670
 C1279 C 1.01486 0.73708 0.78147
 C1280 C 0.99408 0.73470 0.78052
 C1281 C 0.98268 0.74301 0.76478
 C1282 C 0.99271 0.75371 0.74951
 C1283 C 1.01260 0.77506 0.71944
 C1284 C 0.99177 0.77286 0.71860
 C1285 C 0.98153 0.76210 0.73336
 C1286 C 0.96034 0.75998 0.73279
 C1287 C 0.95077 0.74903 0.74774
 C1288 C 0.96156 0.74056 0.76368
 H1289 H 1.02281 0.73023 0.79388
 H1290 H 0.98711 0.72610 0.79221
 H1291 H 1.01960 0.78361 0.70772
 H1292 H 0.98379 0.77975 0.70625
 H1293 H 1.07222 0.76186 0.75266
 H1294 H 0.93452 0.74747 0.74722
 C1295 C 0.54119 0.74294 0.26779
 C1296 C 0.55181 0.75279 0.25271
 C1297 C 0.54201 0.76488 0.23892
 C1298 C 0.52089 0.76729 0.24019
 C1299 C 0.50987 0.75733 0.25533
 C1300 C 0.52005 0.74509 0.26915
 C1301 C 0.50875 0.73496 0.28364
 C1302 C 0.48790 0.73682 0.28459
 C1303 C 0.47752 0.74907 0.27127
 C1304 C 0.48862 0.75953 0.25657
 C1305 C 0.51053 0.77967 0.22696
 C1306 C 0.48976 0.78199 0.22833
 C1307 C 0.47849 0.77201 0.24296
 C1308 C 0.45731 0.77382 0.24399
 C1309 C 0.44653 0.76302 0.25818
 C1310 C 0.45627 0.75070 0.27180
 H1311 H 0.51587 0.72517 0.29417
 H1312 H 0.48003 0.72837 0.29582
 H1313 H 0.51838 0.78778 0.21543
 H1314 H 0.48260 0.79152 0.21756
 H1315 H 0.56803 0.75111 0.25176
 H1316 H 0.43030 0.76462 0.25903
 C1317 C -0.04377 0.76632 0.26090
 C1318 C -0.05436 0.75424 0.24748
 C1319 C -0.04435 0.74172 0.23408
 C1320 C -0.02302 0.74128 0.23399
 C1321 C -0.01205 0.75353 0.24740
 C1322 C -0.02245 0.76610 0.26087
 C1323 C -0.01126 0.77832 0.27378
 C1324 C 0.00970 0.77811 0.27361
 C1325 C 0.02036 0.76565 0.26055
 C1326 C 0.00939 0.75311 0.24745
 C1327 C -0.01237 0.72853 0.22124
 C1328 C 0.00858 0.72794 0.22148
 C1329 C 0.01978 0.74018 0.23436
 C1330 C 0.04108 0.73953 0.23479
 C1331 C 0.05167 0.75191 0.24789
 C1332 C 0.04170 0.76517 0.26051
 H1333 H -0.01860 0.78831 0.28409
 H1334 H 0.01744 0.78768 0.28409
 H1335 H -0.02011 0.71862 0.21113
 H1336 H 0.01588 0.71758 0.21157
 H1337 H -0.07070 0.75446 0.24759
 H1338 H 0.06800 0.75193 0.24740
 C1339 C 0.45359 0.75499 0.71951
 C1340 C 0.44320 0.76475 0.73502
 C1341 C 0.45340 0.77483 0.75042
 C1342 C 0.47468 0.77529 0.75038
 C1343 C 0.48545 0.76597 0.73442
 C1344 C 0.47487 0.75594 0.71881
 C1345 C 0.48587 0.74654 0.70336
 C1346 C 0.50685 0.74698 0.70322
 C1347 C 0.51768 0.75673 0.71859
 C1348 C 0.50687 0.76625 0.73440
 C1349 C 0.48547 0.78497 0.76581
 C1350 C 0.50642 0.78511 0.76589
 C1351 C 0.51742 0.77565 0.75049
 C1352 C 0.53870 0.77554 0.75065
 C1353 C 0.54913 0.76624 0.73489
 C1354 C 0.53901 0.75663 0.71904
 H1355 H 0.47837 0.73861 0.69127
 H1356 H 0.51449 0.73935 0.69104
 H1357 H 0.47781 0.79257 0.77801
 H1358 H 0.51389 0.79283 0.77814
 H1359 H 0.42688 0.76393 0.73550
 H1360 H 0.56547 0.76596 0.73530
 C1361 C 0.40515 0.30893 0.27929
 C1362 C 0.41829 0.29540 0.28488
 C1363 C 0.43139 0.28582 0.26982
 C1364 C 0.44598 0.27386 0.27575
 H1365 H 0.41906 0.29089 0.30067
 H1366 H 0.42878 0.28817 0.25367
 H1367 H 0.40499 0.31396 0.26368
 H1368 H 0.44915 0.27210 0.29188
 C1369 C 0.40229 0.81853 0.77838
 C1370 C 0.41372 0.80283 0.78044
 C1371 C 0.42685 0.79608 0.76378
 C1372 C 0.44140 0.78327 0.76726
 H1373 H 0.41336 0.79463 0.79441
 H1374 H 0.42438 0.80133 0.74843
 H1375 H 0.40385 0.82713 0.76475
 H1376 H 0.44458 0.77874 0.78273
 C1377 C -0.09951 0.30238 0.78409
 C1378 C -0.08619 0.28937 0.79037
 C1379 C -0.07345 0.27967 0.77508
 C1380 C -0.05751 0.26905 0.78018
 H1381 H -0.08478 0.28589 0.80640
 H1382 H -0.07711 0.28142 0.75904
 H1383 H -0.10001 0.30611 0.76804
 H1384 H -0.05301 0.26797 0.79605
 C1385 C -0.09682 0.81230 0.28013
 C1386 C -0.08321 0.79907 0.28535
 C1387 C -0.07058 0.78936 0.26999
 C1388 C -0.05538 0.77803 0.27573
 H1389 H -0.08168 0.79487 0.30118
 H1390 H -0.07406 0.79100 0.25391
 H1391 H -0.09772 0.81718 0.26449
 H1392 H -0.05141 0.77707 0.29176
 C1393 C 0.59152 0.69437 0.28621
 C1394 C 0.57921 0.70868 0.29167
 C1395 C 0.56643 0.71844 0.27662
 C1396 C 0.55273 0.73135 0.28261
 H1397 H 0.57894 0.71372 0.30737
 H1398 H 0.56859 0.71549 0.26048
 H1399 H 0.59116 0.68880 0.27071
 H1400 H 0.55002 0.73368 0.29876
 C1401 C 0.59710 0.19174 0.78303
 C1402 C 0.58606 0.20766 0.78475
 C1403 C 0.57387 0.21436 0.76741
 C1404 C 0.55925 0.22730 0.76997
 H1405 H 0.58596 0.21576 0.79895
 H1406 H 0.57679 0.20854 0.75228
 H1407 H 0.59622 0.18319 0.76915
 H1408 H 0.55555 0.23238 0.78520
 C1409 C 1.09553 0.70229 0.78703
 C1410 C 1.08543 0.71793 0.79288
 C1411 C 1.07346 0.72849 0.77773
 C1412 C 1.05883 0.74063 0.78315
 H1413 H 1.08550 0.72255 0.80873
 H1414 H 1.07607 0.72563 0.76163
 H1415 H 1.09430 0.69731 0.77134
 H1416 H 1.05521 0.74276 0.79914
 C1417 C 1.09426 0.20163 0.29262
 C1418 C 1.08376 0.21679 0.29921
 C1419 C 1.07108 0.22740 0.28468
 C1420 C 1.05686 0.23975 0.29074
 H1421 H 1.08427 0.22114 0.31513
 H1422 H 1.07306 0.22465 0.26847
 H1423 H 1.09271 0.19696 0.27685
 H1424 H 1.05389 0.24188 0.30687
 C1425 C 0.59591 0.30022 0.70053
 C1426 C 0.58656 0.28421 0.69450
 C1427 C 0.57413 0.27384 0.70937
 C1428 C 0.56038 0.26081 0.70386
 H1429 H 0.58785 0.27901 0.67891
 H1430 H 0.57586 0.27743 0.72545
 H1431 H 0.59342 0.30564 0.71591
 H1432 H 0.55754 0.25782 0.68785
 C1433 C 0.59701 0.80663 0.21723
 C1434 C 0.58305 0.79364 0.21216
 C1435 C 0.57056 0.78469 0.22798
 C1436 C 0.55421 0.77447 0.22308
 H1437 H 0.58076 0.78960 0.19631
 H1438 H 0.57472 0.78653 0.24390
 H1439 H 0.59853 0.81124 0.23301
 H1440 H 0.54943 0.77340 0.20727
 C1441 C 1.09359 0.31286 0.21751
 C1442 C 1.08137 0.29790 0.21439
 C1443 C 1.06883 0.29038 0.23099
 C1444 C 1.05458 0.27730 0.22723
 H1445 H 1.08086 0.29086 0.19958
 H1446 H 1.07151 0.29528 0.24652
 H1447 H 1.09338 0.32039 0.23206
 H1448 H 1.05131 0.27302 0.21161
 C1449 C 1.09641 0.81436 0.71317
 C1450 C 1.08368 0.80011 0.70866
 C1451 C 1.07097 0.79168 0.72461
 C1452 C 1.05668 0.77886 0.72000
 H1453 H 1.08290 0.79433 0.69326
 H1454 H 1.07360 0.79569 0.74043
 H1455 H 1.09652 0.82052 0.72843
 H1456 H 1.05348 0.77543 0.70415
 C1457 C 0.40842 0.70133 0.70643
 C1458 C 0.41753 0.71681 0.69890
 C1459 C 0.43008 0.72889 0.71236
 C1460 C 0.44177 0.74288 0.70519
 H1461 H 0.41551 0.72074 0.68306
 H1462 H 0.42974 0.72632 0.72868
 H1463 H 0.41121 0.69728 0.72214
 H1464 H 0.44312 0.74510 0.68890
 C1465 C 0.40650 0.19194 0.21561
 C1466 C 0.41938 0.20535 0.20922
 C1467 C 0.43168 0.21642 0.22386
 C1468 C 0.44613 0.22829 0.21750
 H1469 H 0.42077 0.20838 0.19309
 H1470 H 0.42888 0.21491 0.24008
 H1471 H 0.40569 0.18858 0.23171
 H1472 H 0.44951 0.22923 0.20135
 C1473 C -0.09827 0.69551 0.21842
 C1474 C -0.08445 0.70798 0.21190
 C1475 C -0.07195 0.71905 0.22640
 C1476 C -0.05654 0.72972 0.21990
 H1477 H -0.08242 0.71026 0.19569
 H1478 H -0.07541 0.71857 0.24257
 H1479 H -0.09971 0.69278 0.23463
 H1480 H -0.05258 0.72952 0.20385
 C1481 C -0.09557 0.19106 0.71288
 C1482 C -0.08440 0.20614 0.70771
 C1483 C -0.07187 0.21581 0.72322
 C1484 C -0.05740 0.22812 0.71808
 H1485 H -0.08449 0.21131 0.69214
 H1486 H -0.07443 0.21272 0.73922
 H1487 H -0.09453 0.18549 0.72826
 H1488 H -0.05403 0.23049 0.70211
 C1489 C 0.28139 0.40516 0.30535
 C1490 C 0.28638 0.41835 0.29159
 C1491 C 0.27078 0.43085 0.28276
 C1492 C 0.27549 0.44618 0.27164
 H1493 H 0.30184 0.41968 0.28652
 H1494 H 0.25506 0.42725 0.28511
 H1495 H 0.26605 0.40459 0.31097
 H1496 H 0.29111 0.45042 0.27006
 C1497 C 0.28057 -0.09101 0.81002
 C1498 C 0.28534 -0.07766 0.79631
 C1499 C 0.26956 -0.06512 0.78792
 C1500 C 0.27402 -0.04939 0.77735
 H1501 H 0.30065 -0.07621 0.79083
 H1502 H 0.25391 -0.06909 0.78999
 H1503 H 0.26534 -0.09135 0.81597
 H1504 H 0.28954 -0.04474 0.77606
 C1505 C 0.79894 0.41516 0.79334
 C1506 C 0.78424 0.42654 0.80033
 C1507 C 0.77487 0.44025 0.78624
 C1508 C 0.76052 0.45255 0.79201
 H1509 H 0.77841 0.42508 0.81568
 H1510 H 0.77927 0.43976 0.77028
 H1511 H 0.80455 0.41741 0.77798
 H1512 H 0.75636 0.45396 0.80794
 C1513 C 0.78029 -0.09378 0.31075
 C1514 C 0.78466 -0.08111 0.29616
 C1515 C 0.76889 -0.06841 0.28797
 C1516 C 0.77345 -0.05311 0.27671
 H1517 H 0.79969 -0.08031 0.28982
 H1518 H 0.75322 -0.07193 0.29068
 H1519 H 0.76544 -0.09342 0.31762
 H1520 H 0.78905 -0.04894 0.27481
 C1521 C 0.30460 0.58686 0.71403
 C1522 C 0.28987 0.57507 0.70793
 C1523 C 0.28032 0.56213 0.72269
 C1524 C 0.26738 0.54844 0.71689
 H1525 H 0.28456 0.57524 0.69228
 H1526 H 0.28368 0.56406 0.73880
 H1527 H 0.31025 0.58597 0.72955
 H1528 H 0.26459 0.54579 0.70080
 C1529 C 0.28576 1.09230 0.19827
 C1530 C 0.29207 1.07790 0.20998
 C1531 C 0.27739 1.06566 0.22050
 C1532 C 0.28301 1.04961 0.22997
 H1533 H 0.30804 1.07540 0.21220
 H1534 H 0.26173 1.07008 0.22093
 H1535 H 0.26977 1.09412 0.19546
 H1536 H 0.29845 1.04468 0.22878
 C1537 C 0.77887 0.59718 0.19823
 C1538 C 0.78415 0.58292 0.21063
 C1539 C 0.76850 0.57059 0.21955
 C1540 C 0.77304 0.55455 0.22960
 H1541 H 0.79984 0.58052 0.21442
 H1542 H 0.75285 0.57484 0.21804
 H1543 H 0.76318 0.59886 0.19395
 H1544 H 0.78855 0.54973 0.23033
 C1545 C 0.79400 1.08830 0.71191
 C1546 C 0.77773 1.07852 0.70591
 C1547 C 0.76653 1.06678 0.72053
 C1548 C 0.75302 1.05387 0.71421
 H1549 H 0.77257 1.07923 0.69022
 H1550 H 0.76936 1.06867 0.73675
 H1551 H 0.79962 1.08673 0.72736
 H1552 H 0.75088 1.05113 0.69803
 C1553 C 0.71130 0.59492 0.31129
 C1554 C 0.70520 0.58186 0.29758
 C1555 C 0.71984 0.56886 0.28784
 C1556 C 0.71395 0.55453 0.27553
 H1557 H 0.68952 0.58115 0.29300
 H1558 H 0.73579 0.57142 0.29023
 H1559 H 0.72688 0.59502 0.31629
 H1560 H 0.69804 0.55140 0.27379
 C1561 C 0.70735 1.09329 0.80876
 C1562 C 0.69946 1.08113 0.79500
 C1563 C 0.71245 1.06823 0.78302
 C1564 C 0.70459 1.05445 0.77119
 H1565 H 0.68342 1.08101 0.79193
 H1566 H 0.72863 1.07039 0.78331
 H1567 H 0.72332 1.09246 0.81222
 H1568 H 0.68854 1.05164 0.77149
 C1569 C 0.18744 0.58446 0.78579
 C1570 C 0.20348 0.57375 0.79029
 C1571 C 0.21239 0.56110 0.77470
 C1572 C 0.22620 0.54797 0.77947
 H1573 H 0.21038 0.57464 0.80529
 H1574 H 0.20787 0.56278 0.75887
 H1575 H 0.18014 0.58279 0.77105
 H1576 H 0.23016 0.54547 0.79529
 C1577 C 0.19560 1.08900 0.28762
 C1578 C 0.21021 1.07722 0.29383
 C1579 C 0.22065 1.06467 0.27914
 C1580 C 0.23269 1.05052 0.28537
 H1581 H 0.21469 1.07698 0.30975
 H1582 H 0.21867 1.06715 0.26292
 H1583 H 0.19053 1.08847 0.27187
 H1584 H 0.23400 1.04734 0.30149
 C1585 C 0.68861 0.41469 0.71452
 C1586 C 0.70463 0.42600 0.71220
 C1587 C 0.71137 0.43841 0.72914
 C1588 C 0.72434 0.45272 0.72624
 H1589 H 0.71288 0.42597 0.69793
 H1590 H 0.70572 0.43571 0.74439
 H1591 H 0.67990 0.41559 0.72848
 H1592 H 0.72927 0.45618 0.71093
 C1593 C 0.71439 -0.09439 0.19363
 C1594 C 0.70767 -0.08089 0.20653
 C1595 C 0.72186 -0.06809 0.21725
 C1596 C 0.71537 -0.05383 0.22932
 H1597 H 0.69172 -0.07966 0.20977
 H1598 H 0.73790 -0.07069 0.21573
 H1599 H 0.73032 -0.09513 0.19008
 H1600 H 0.69940 -0.05072 0.23024
 C1601 C 0.21413 0.40534 0.18978
 C1602 C 0.20787 0.41883 0.20293
 C1603 C 0.22246 0.43151 0.21326
 C1604 C 0.21645 0.44591 0.22540
 H1605 H 0.19202 0.42020 0.20657
 H1606 H 0.23843 0.42873 0.21134
 H1607 H 0.22995 0.40450 0.18580
 H1608 H 0.20054 0.44919 0.22672
 C1609 C 0.21677 -0.09044 0.69312
 C1610 C 0.20960 -0.07688 0.70570
 C1611 C 0.22341 -0.06408 0.71696
 C1612 C 0.21648 -0.05017 0.72926
 H1613 H 0.19355 -0.07563 0.70834
 H1614 H 0.23951 -0.06640 0.71564
 H1615 H 0.23284 -0.09129 0.69033
 H1616 H 0.20043 -0.04742 0.73001
 C1617 C 0.30372 0.28441 0.40258
 C1618 C 0.29005 0.28917 0.41665
 C1619 C 0.28045 0.27433 0.42912
 C1620 C 0.26997 0.27891 0.44583
 H1621 H 0.28574 0.30404 0.41888
 H1622 H 0.28183 0.25940 0.42451
 H1623 H 0.30867 0.26964 0.40118
 H1624 H 0.26939 0.29367 0.45111
 C1625 C 0.30255 0.78483 -0.09903
 C1626 C 0.28856 0.78920 -0.08511
 C1627 C 0.27889 0.77419 -0.07290
 C1628 C 0.26745 0.77877 -0.05682
 H1629 H 0.28392 0.80397 -0.08286
 H1630 H 0.28086 0.75926 -0.07722
 H1631 H 0.30783 0.77017 -0.10055
 H1632 H 0.26623 0.79362 -0.05194
 C1633 C 0.79265 0.30659 -0.09183
 C1634 C 0.79995 0.29256 -0.08018
 C1635 C 0.78639 0.28161 -0.06685
 C1636 C 0.79348 0.27009 -0.05229
 H1637 H 0.81580 0.28887 -0.08077
 H1638 H 0.77025 0.28272 -0.06921
 H1639 H 0.77698 0.31074 -0.09034
 H1640 H 0.80951 0.26963 -0.04916
 C1641 C 0.80765 0.78600 0.40729
 C1642 C 0.79457 0.79035 0.42208
 C1643 C 0.78617 0.77517 0.43501
 C1644 C 0.77583 0.77936 0.45195
 H1645 H 0.78973 0.80505 0.42440
 H1646 H 0.78809 0.76031 0.43037
 H1647 H 0.81313 0.77142 0.40575
 H1648 H 0.77478 0.79413 0.45715
 C1649 C 0.72279 0.30767 0.59980
 C1650 C 0.71808 0.29491 0.58523
 C1651 C 0.73408 0.28572 0.57300
 C1652 C 0.72988 0.27560 0.55609
 H1653 H 0.70246 0.29132 0.58220
 H1654 H 0.74963 0.28739 0.57782
 H1655 H 0.73841 0.31176 0.60201
 H1656 H 0.71445 0.27468 0.55074
 C1657 C 0.69317 0.78515 1.09142
 C1658 C 0.70954 0.78838 1.08013
 C1659 C 0.71780 0.77320 1.06684
 C1660 C 0.73169 0.77696 1.05271
 H1661 H 0.71708 0.80215 1.08090
 H1662 H 0.71261 0.75858 1.06879
 H1663 H 0.68517 0.77167 1.08978
 H1664 H 0.73624 0.79163 1.04991
 C1665 C 0.19542 0.27942 1.09515
 C1666 C 0.21008 0.28321 1.08184
 C1667 C 0.21880 0.26779 1.06915
 C1668 C 0.23112 0.27168 1.05363
 H1669 H 0.21578 0.29768 1.08034
 H1670 H 0.21508 0.25301 1.07251
 H1671 H 0.18929 0.26504 1.09592
 H1672 H 0.23410 0.28646 1.04964
 C1673 C 0.20171 0.78462 0.59602
 C1674 C 0.21723 0.78873 0.58389
 C1675 C 0.22678 0.77389 0.57106
 C1676 C 0.23848 0.77877 0.55539
 H1677 H 0.22304 0.80325 0.58341
 H1678 H 0.22444 0.75888 0.57456
 H1679 H 0.19507 0.77042 0.59554
 H1680 H 0.23986 0.79374 0.55126
 C1681 C 0.29042 0.69125 0.59478
 C1682 C 0.29716 0.70508 0.58256
 C1683 C 0.28319 0.71590 0.56952
 C1684 C 0.28998 0.72766 0.55510
 H1685 H 0.31302 0.70872 0.58242
 H1686 H 0.26710 0.71449 0.57194
 H1687 H 0.27468 0.68713 0.59418
 H1688 H 0.30599 0.72848 0.55202
 C1689 C 0.31057 0.20472 1.09024
 C1690 C 0.29380 0.20131 1.07955
 C1691 C 0.28526 0.21604 1.06616
 C1692 C 0.27082 0.21177 1.05266
 H1693 H 0.28597 0.18776 1.08106
 H1694 H 0.29047 0.23073 1.06768
 H1695 H 0.31890 0.21788 1.08787
 H1696 H 0.26622 0.19700 1.05028
 C1697 C 0.80859 0.70815 1.09042
 C1698 C 0.79177 0.70503 1.07966
 C1699 C 0.78378 0.71974 1.06588
 C1700 C 0.76894 0.71577 1.05270
 H1701 H 0.78345 0.69178 1.08146
 H1702 H 0.78970 0.73422 1.06688
 H1703 H 0.81736 0.72100 1.08782
 H1704 H 0.76355 0.70119 1.05087
 C1705 C 0.78962 0.19491 0.59528
 C1706 C 0.79652 0.20922 0.58383
 C1707 C 0.78250 0.22008 0.57084
 C1708 C 0.78900 0.23223 0.55663
 H1709 H 0.81233 0.21304 0.58416
 H1710 H 0.76643 0.21811 0.57291
 H1711 H 0.77391 0.19080 0.59409
 H1712 H 0.80500 0.23358 0.55372
 C1713 C 0.69489 0.71838 0.40872
 C1714 C 0.70881 0.71349 0.42247
 C1715 C 0.71856 0.72820 0.43532
 C1716 C 0.72998 0.72333 0.45127
 H1717 H 0.71324 0.69862 0.42411
 H1718 H 0.71655 0.74321 0.43160
 H1719 H 0.68991 0.73315 0.40782
 H1720 H 0.73117 0.70840 0.45559
 C1721 C 0.70458 0.21814 -0.09506
 C1722 C 0.71841 0.21212 -0.08168
 C1723 C 0.72956 0.22573 -0.06858
 C1724 C 0.74139 0.21947 -0.05348
 H1725 H 0.72179 0.19697 -0.08049
 H1726 H 0.72833 0.24098 -0.07144
 H1727 H 0.70062 0.23321 -0.09558
 H1728 H 0.74192 0.20428 -0.05016
 C1729 C 0.21231 0.69527 -0.10182
 C1730 C 0.20640 0.70792 -0.08764
 C1731 C 0.22139 0.71816 -0.07507
 C1732 C 0.21609 0.72756 -0.05806
 H1733 H 0.19050 0.71064 -0.08520
 H1734 H 0.23707 0.71793 -0.07971
 H1735 H 0.22818 0.69191 -0.10337
 H1736 H 0.20062 0.72699 -0.05286
 C1737 C 0.21277 0.19506 0.40342
 C1738 C 0.20728 0.20848 0.41695
 C1739 C 0.22267 0.21873 0.42900
 C1740 C 0.21798 0.22834 0.44606
 H1741 H 0.19149 0.21176 0.41930
 H1742 H 0.23823 0.21824 0.42398
 H1743 H 0.22852 0.19112 0.40210
 H1744 H 0.20268 0.22800 0.45179
 C1745 C 0.30549 0.40896 0.70950
 C1746 C 0.28929 0.41918 0.70428
 C1747 C 0.27908 0.43135 0.71948
 C1748 C 0.26518 0.44419 0.71406
 H1749 H 0.28340 0.41845 0.68884
 H1750 H 0.28292 0.42974 0.73550
 H1751 H 0.31181 0.41049 0.72471
 H1752 H 0.26192 0.44664 0.69807
 C1753 C 0.30918 0.90769 0.21477
 C1754 C 0.29381 0.91939 0.21061
 C1755 C 0.28523 0.93191 0.22653
 C1756 C 0.27268 0.94615 0.22177
 H1757 H 0.28722 0.91952 0.19545
 H1758 H 0.28887 0.92923 0.24242
 H1759 H 0.31642 0.90834 0.22961
 H1760 H 0.26977 0.94954 0.20590
 C1761 C 0.80194 0.41282 0.21589
 C1762 C 0.78694 0.42411 0.20970
 C1763 C 0.77620 0.43634 0.22449
 C1764 C 0.76488 0.45107 0.21846
 H1765 H 0.78244 0.42421 0.19377
 H1766 H 0.77740 0.43313 0.24063
 H1767 H 0.80711 0.41368 0.23159
 H1768 H 0.76451 0.45504 0.20250
 C1769 C 0.79680 0.91384 0.71968
 C1770 C 0.78253 0.92517 0.71197
 C1771 C 0.77067 0.93771 0.72548
 C1772 C 0.75739 0.95019 0.71799
 H1773 H 0.77905 0.92474 0.69580
 H1774 H 0.77247 0.93645 0.74189
 H1775 H 0.80048 0.91480 0.73580
 H1776 H 0.75606 0.95211 0.70163
 C1777 C 0.68317 0.59244 0.71865
 C1778 C 0.69979 0.58197 0.71589
 C1779 C 0.70748 0.56970 0.73228
 C1780 C 0.72179 0.55666 0.72868
 H1781 H 0.70795 0.58264 0.70160
 H1782 H 0.70156 0.57145 0.74762
 H1783 H 0.67458 0.59101 0.73262
 H1784 H 0.72710 0.55415 0.71324
 C1785 C 0.71294 0.09114 0.19692
 C1786 C 0.70568 0.07817 0.20988
 C1787 C 0.71952 0.06523 0.22075
 C1788 C 0.71286 0.05054 0.23186
 H1789 H 0.68967 0.07742 0.21292
 H1790 H 0.73558 0.06807 0.22010
 H1791 H 0.72890 0.09119 0.19342
 H1792 H 0.69696 0.04705 0.23190
 C1793 C 0.21148 0.59199 0.19578
 C1794 C 0.20514 0.57832 0.20843
 C1795 C 0.21977 0.56559 0.21847
 C1796 C 0.21396 0.55029 0.22914
 H1797 H 0.18923 0.57675 0.21170
 H1798 H 0.23568 0.56899 0.21745
 H1799 H 0.22734 0.59289 0.19201
 H1800 H 0.19818 0.54633 0.22949
 C1801 C 0.20935 0.09345 0.70121
 C1802 C 0.20221 0.08073 0.71451
 C1803 C 0.21614 0.06841 0.72600
 C1804 C 0.20958 0.05370 0.73713
 H1805 H 0.18615 0.07959 0.71718
 H1806 H 0.23214 0.07152 0.72554
 H1807 H 0.22537 0.09387 0.69808
 H1808 H 0.19376 0.04990 0.73696
 C1809 C 0.30453 0.58930 0.28219
 C1810 C 0.29047 0.57711 0.28863
 C1811 C 0.27966 0.56471 0.27403
 C1812 C 0.26868 0.54988 0.28034
 H1813 H 0.28665 0.57649 0.30470
 H1814 H 0.28034 0.56796 0.25787
 H1815 H 0.30908 0.58909 0.26630
 H1816 H 0.26877 0.54598 0.29633
 C1817 C 0.29852 0.09312 0.79037
 C1818 C 0.28465 0.08131 0.79791
 C1819 C 0.27271 0.06927 0.78383
 C1820 C 0.26269 0.05381 0.79011
 H1821 H 0.28230 0.08039 0.81425
 H1822 H 0.27235 0.07299 0.76776
 H1823 H 0.30151 0.09294 0.77409
 H1824 H 0.26388 0.04930 0.80586
 C1825 C 0.80276 0.58899 0.79655
 C1826 C 0.78568 0.58060 0.80239
 C1827 C 0.77460 0.56844 0.78775
 C1828 C 0.75974 0.55676 0.79341
 H1829 H 0.77981 0.58285 0.81765
 H1830 H 0.77877 0.56897 0.77174
 H1831 H 0.80879 0.58586 0.78150
 H1832 H 0.75600 0.55518 0.80941
 C1833 C 0.80039 0.09080 0.28789
 C1834 C 0.78659 0.07830 0.29423
 C1835 C 0.77584 0.06607 0.27939
 C1836 C 0.76550 0.05067 0.28529
 H1837 H 0.78324 0.07705 0.31036
 H1838 H 0.77630 0.06976 0.26334
 H1839 H 0.80449 0.09115 0.27188
 H1840 H 0.76589 0.04635 0.30115
 C1841 C 0.71201 0.40856 0.30506
 C1842 C 0.70481 0.42198 0.29253
 C1843 C 0.71870 0.43506 0.28202
 C1844 C 0.71208 0.45010 0.27137
 H1845 H 0.68878 0.42301 0.28960
 H1846 H 0.73473 0.43208 0.28260
 H1847 H 0.72800 0.40820 0.30847
 H1848 H 0.69619 0.45368 0.27142
 C1849 C 0.70898 0.90976 0.80830
 C1850 C 0.70147 0.92352 0.79642
 C1851 C 0.71478 0.93611 0.78466
 C1852 C 0.70723 0.95043 0.77356
 H1853 H 0.68532 0.92511 0.79470
 H1854 H 0.73084 0.93325 0.78446
 H1855 H 0.72513 0.90862 0.81051
 H1856 H 0.69127 0.95367 0.77437
 C1857 C 0.18854 0.40449 0.78329
 C1858 C 0.20331 0.41689 0.78767
 C1859 C 0.21126 0.42978 0.77195
 C1860 C 0.22412 0.44387 0.77674
 H1861 H 0.20999 0.41720 0.80279
 H1862 H 0.20701 0.42740 0.75613
 H1863 H 0.18130 0.40485 0.76843
 H1864 H 0.22772 0.44684 0.79260
 C1865 C 0.19199 0.90689 0.28525
 C1866 C 0.20600 0.91965 0.29094
 C1867 C 0.21535 0.93250 0.27598
 C1868 C 0.22797 0.94643 0.28192
 H1869 H 0.21122 0.92017 0.30662
 H1870 H 0.21251 0.93012 0.25984
 H1871 H 0.18622 0.90695 0.26975
 H1872 H 0.23017 0.94933 0.29806
 C1873 C 0.41403 0.30335 0.70159
 C1874 C 0.42443 0.28796 0.69540
 C1875 C 0.43738 0.27786 0.71009
 C1876 C 0.45074 0.26452 0.70438
 H1877 H 0.42325 0.28278 0.67979
 H1878 H 0.43593 0.28142 0.72619
 H1879 H 0.41614 0.30876 0.71702
 H1880 H 0.45314 0.26143 0.68832
 C1881 C 0.40403 0.78991 0.19525
 C1882 C 0.41789 0.79580 0.20870
 C1883 C 0.42998 0.78187 0.22019
 C1884 C 0.44605 0.78742 0.23102
 H1885 H 0.42019 0.81098 0.21151
 H1886 H 0.42555 0.76690 0.22004
 H1887 H 0.40248 0.77475 0.19179
 H1888 H 0.45109 0.80219 0.23041
 C1889 C 0.90534 0.30430 0.21921
 C1890 C 0.91742 0.28977 0.21400
 C1891 C 0.92980 0.28060 0.22985
 C1892 C 0.94558 0.26948 0.22529
 H1893 H 0.91855 0.28506 0.19823
 H1894 H 0.92637 0.28357 0.24576
 H1895 H 0.90530 0.30943 0.23490
 H1896 H 0.94983 0.26726 0.20948
 C1897 C 0.90628 0.80427 0.71699
 C1898 C 0.91865 0.79084 0.70957
 C1899 C 0.93238 0.78101 0.72375
 C1900 C 0.94752 0.76981 0.71751
 H1901 H 0.91848 0.78702 0.69350
 H1902 H 0.93009 0.78311 0.74003
 H1903 H 0.90736 0.80826 0.73301
 H1904 H 0.95080 0.76825 0.70138
 C1905 C 0.59504 0.30846 0.28263
 C1906 C 0.58290 0.29390 0.28742
 C1907 C 0.56985 0.28484 0.27193
 C1908 C 0.55533 0.27261 0.27726
 H1909 H 0.58283 0.28834 0.30283
 H1910 H 0.57236 0.28788 0.25592
 H1911 H 0.59434 0.31462 0.26750
 H1912 H 0.55212 0.27024 0.29327
 C1913 C 0.59055 0.81759 0.77966
 C1914 C 0.57818 0.80270 0.78190
 C1915 C 0.56562 0.79590 0.76479
 C1916 C 0.55045 0.78372 0.76786
 H1917 H 0.57740 0.79533 0.79639
 H1918 H 0.56891 0.80073 0.74946
 H1919 H 0.59050 0.82552 0.76548
 H1920 H 0.54651 0.77962 0.78327
 C1921 C 0.09647 0.28311 0.80379
 C1922 C 0.08102 0.28841 0.79206
 C1923 C 0.06852 0.27382 0.78178
 C1924 C 0.05126 0.27847 0.77256
 H1925 H 0.07776 0.30347 0.78980
 H1926 H 0.07367 0.25906 0.78144
 H1927 H 0.09901 0.26801 0.80668
 H1928 H 0.04565 0.29304 0.77372
 C1929 C 0.09833 0.78372 0.30484
 C1930 C 0.08358 0.78894 0.29213
 C1931 C 0.07044 0.77440 0.28253
 C1932 C 0.05395 0.77941 0.27208
 H1933 H 0.08137 0.80393 0.28851
 H1934 H 0.07448 0.75938 0.28371
 H1935 H 0.09986 0.76878 0.30903
 H1936 H 0.04948 0.79435 0.27167
 C1937 C 0.58728 0.70640 0.70298
 C1938 C 0.57759 0.72184 0.69608
 C1939 C 0.56485 0.73297 0.71026
 C1940 C 0.55124 0.74575 0.70393
 H1941 H 0.57898 0.72613 0.68028
 H1942 H 0.56641 0.73038 0.72651
 H1943 H 0.58478 0.70184 0.71857
 H1944 H 0.54861 0.74777 0.68776
 C1945 C 0.59520 0.19286 0.21399
 C1946 C 0.58322 0.20732 0.20841
 C1947 C 0.56987 0.21681 0.22331
 C1948 C 0.55559 0.22909 0.21738
 H1949 H 0.58354 0.21252 0.19286
 H1950 H 0.57202 0.21404 0.23945
 H1951 H 0.59410 0.18712 0.22928
 H1952 H 0.55271 0.23123 0.20126
 C1953 C 0.09362 0.69231 0.21771
 C1954 C 0.08022 0.70548 0.21181
 C1955 C 0.06793 0.71619 0.22671
 C1956 C 0.05271 0.72727 0.22046
 H1957 H 0.07841 0.70865 0.19573
 H1958 H 0.07150 0.71529 0.24284
 H1959 H 0.09477 0.68850 0.23368
 H1960 H 0.04869 0.72750 0.20441
 C1961 C 0.09024 0.19216 0.71483
 C1962 C 0.07860 0.20682 0.70916
 C1963 C 0.06561 0.21686 0.72392
 C1964 C 0.05182 0.22948 0.71767
 H1965 H 0.07890 0.21178 0.69352
 H1966 H 0.06755 0.21422 0.74011
 H1967 H 0.08921 0.18663 0.73022
 H1968 H 0.04917 0.23156 0.70149
 C1969 C 0.40376 0.70417 0.28631
 C1970 C 0.41574 0.71794 0.29374
 C1971 C 0.42824 0.72920 0.27971
 C1972 C 0.44377 0.73973 0.28633
 H1973 H 0.41666 0.72059 0.31005
 H1974 H 0.42503 0.72845 0.26347
 H1975 H 0.40388 0.70102 0.27006
 H1976 H 0.44777 0.73977 0.30238
 C1977 C 0.41291 0.19069 0.77704
 C1978 C 0.42361 0.20657 0.78062
 C1979 C 0.43621 0.21473 0.76444
 C1980 C 0.45012 0.22802 0.76857
 H1981 H 0.42311 0.21356 0.79546
 H1982 H 0.43419 0.20971 0.74884
 H1983 H 0.41430 0.18334 0.76245
 H1984 H 0.45300 0.23241 0.78422
 C1985 C 0.91312 0.69191 0.78508
 C1986 C 0.92450 0.70703 0.79003
 C1987 C 0.93662 0.71667 0.77440
 C1988 C 0.95018 0.73003 0.77946
 H1989 H 0.92481 0.71243 0.80559
 H1990 H 0.93437 0.71286 0.75845
 H1991 H 0.91355 0.68616 0.76965
 H1992 H 0.95307 0.73327 0.79542
 C1993 C 0.91196 0.19311 0.29381
 C1994 C 0.92198 0.20894 0.29924
 C1995 C 0.93461 0.21873 0.28411
 C1996 C 0.94759 0.23255 0.28936
 H1997 H 0.92066 0.21479 0.31456
 H1998 H 0.93318 0.21460 0.26815
 H1999 H 0.91418 0.18705 0.27867
 H2000 H 0.94994 0.23617 0.30532
 C2001 C 0.29025 0.29977 0.59638
 C2002 C 0.29620 0.28635 0.58305
 C2003 C 0.28117 0.27538 0.57124
 C2004 C 0.28622 0.26558 0.55441
 H2005 H 0.31210 0.28367 0.58059
 H2006 H 0.26557 0.27564 0.57613
 H2007 H 0.27435 0.30304 0.59784
 H2008 H 0.30155 0.26614 0.54879
 C2009 C 0.27923 0.80331 0.09639
 C2010 C 0.28496 0.79076 0.08202
 C2011 C 0.27001 0.78030 0.06962
 C2012 C 0.27563 0.77031 0.05311
 H2013 H 0.30082 0.78809 0.07936
 H2014 H 0.25427 0.78070 0.07402
 H2015 H 0.26339 0.80658 0.09835
 H2016 H 0.29121 0.77065 0.04821
 C2017 C 0.79414 0.30159 0.10096
 C2018 C 0.80175 0.28875 0.08783
 C2019 C 0.78824 0.27735 0.07461
 C2020 C 0.79519 0.26706 0.05881
 H2021 H 0.81789 0.28662 0.08683
 H2022 H 0.77221 0.27737 0.07784
 H2023 H 0.77804 0.30421 0.10109
 H2024 H 0.81102 0.26771 0.05491
 C2025 C 0.78771 0.80806 0.60267
 C2026 C 0.79328 0.79355 0.59055
 C2027 C 0.77811 0.78361 0.57792
 C2028 C 0.78333 0.77220 0.56234
 H2029 H 0.80889 0.78900 0.58997
 H2030 H 0.76228 0.78578 0.58131
 H2031 H 0.77222 0.81301 0.60227
 H2032 H 0.79904 0.77083 0.55811
 C2033 C 0.29293 0.69425 0.40268
 C2034 C 0.29959 0.70769 0.41569
 C2035 C 0.28524 0.71819 0.42877
 C2036 C 0.29140 0.72954 0.44411
 H2037 H 0.31549 0.71110 0.41655
 H2038 H 0.26924 0.71667 0.42577
 H2039 H 0.27709 0.69048 0.40263
 H2040 H 0.30728 0.73039 0.44785
 C2041 C 0.30592 0.20869 0.89877
 C2042 C 0.29242 0.20317 0.91262
 C2043 C 0.28251 0.21762 0.92574
 C2044 C 0.27103 0.21272 0.94160
 H2045 H 0.28868 0.18814 0.91427
 H2046 H 0.28472 0.23268 0.92240
 H2047 H 0.30997 0.22373 0.89788
 H2048 H 0.26945 0.19773 0.94552
 C2049 C 0.80808 0.70754 0.90457
 C2050 C 0.79167 0.70342 0.91545
 C2051 C 0.78190 0.71843 0.92788
 C2052 C 0.76797 0.71428 0.94183
 H2053 H 0.78546 0.68905 0.91522
 H2054 H 0.78636 0.73325 0.92575
 H2055 H 0.81459 0.72177 0.90568
 H2056 H 0.76414 0.69947 0.94484
 C2057 C 0.79236 0.19587 0.40618
 C2058 C 0.79877 0.21043 0.41789
 C2059 C 0.78448 0.22129 0.43072
 C2060 C 0.79080 0.23308 0.44562
 H2061 H 0.81455 0.21440 0.41800
 H2062 H 0.76845 0.21964 0.42796
 H2063 H 0.77675 0.19140 0.40700
 H2064 H 0.80672 0.23406 0.44915
 C2065 C 0.70250 0.28561 0.40268
 C2066 C 0.71604 0.29114 0.41664
 C2067 C 0.72664 0.27694 0.42926
 C2068 C 0.73720 0.28234 0.44572
 H2069 H 0.71950 0.30622 0.41870
 H2070 H 0.72598 0.26190 0.42495
 H2071 H 0.69836 0.27061 0.40143
 H2072 H 0.73701 0.29724 0.45057
 C2073 C 0.69368 0.78308 0.90102
 C2074 C 0.70866 0.78691 0.91409
 C2075 C 0.71731 0.77160 0.92671
 C2076 C 0.73036 0.77549 0.94175
 H2077 H 0.71466 0.80130 0.91544
 H2078 H 0.71295 0.75685 0.92369
 H2079 H 0.68731 0.76878 0.90037
 H2080 H 0.73407 0.79026 0.94540
 C2081 C 0.22295 0.30302 0.90188
 C2082 C 0.21708 0.29002 0.91549
 C2083 C 0.23159 0.27916 0.92781
 C2084 C 0.22508 0.26849 0.94328
 H2085 H 0.20119 0.28691 0.91729
 H2086 H 0.24745 0.27938 0.92393
 H2087 H 0.23869 0.30696 0.90074
 H2088 H 0.20934 0.26904 0.94764
 C2089 C 0.22538 0.80697 0.40340
 C2090 C 0.22115 0.79311 0.41665
 C2091 C 0.23713 0.78448 0.42918
 C2092 C 0.23265 0.77326 0.44495
 H2093 H 0.20585 0.78790 0.41813
 H2094 H 0.25277 0.78715 0.42538
 H2095 H 0.24051 0.81276 0.40271
 H2096 H 0.21705 0.77136 0.44938
 C2097 C 0.71597 0.69794 0.60503
 C2098 C 0.71144 0.71053 0.59048
 C2099 C 0.72758 0.71966 0.57862
 C2100 C 0.72351 0.72955 0.56173
 H2101 H 0.69586 0.71397 0.58717
 H2102 H 0.74307 0.71809 0.58365
 H2103 H 0.73158 0.69399 0.60754
 H2104 H 0.70812 0.73028 0.55622
 C2105 C 0.70644 0.21257 0.09759
 C2106 C 0.72099 0.20697 0.08481
 C2107 C 0.73206 0.22108 0.07255
 C2108 C 0.74399 0.21555 0.05717
 H2109 H 0.72493 0.19193 0.08346
 H2110 H 0.73054 0.23621 0.07618
 H2111 H 0.70197 0.22752 0.09812
 H2112 H 0.74476 0.20052 0.05287
 C2113 C 0.19063 0.71110 0.09385
 C2114 C 0.20541 0.70703 0.08073
 C2115 C 0.21445 0.72220 0.06824
 C2116 C 0.22565 0.71794 0.05191
 H2117 H 0.21100 0.69247 0.07928
 H2118 H 0.21210 0.73708 0.07257
 H2119 H 0.18432 0.72545 0.09436
 H2120 H 0.22715 0.70315 0.04691
 C2121 C 0.19878 0.21102 0.59667
 C2122 C 0.21305 0.20564 0.58350
 C2123 C 0.22341 0.22002 0.57104
 C2124 C 0.23422 0.21497 0.55470
 H2125 H 0.21715 0.19066 0.58192
 H2126 H 0.22216 0.23506 0.57525
 H2127 H 0.19406 0.22590 0.59732
 H2128 H 0.23465 0.20012 0.54970
   
