data_POSCAR
  _audit_creation_date              2014-09-24
  _audit_creation_method            'ToBaCCo'
  _symmetry_space_group_name_H-M    'P1'
  _symmetry_Int_Tables_number       1
  _symmetry_cell_setting            triclinic
  loop_
  _symmetry_equiv_pos_as_xyz
 x,y,z
_cell_length_a 64.7678
_cell_length_b 64.2516
_cell_length_c 65.6691
_cell_angle_alpha 90.022800
_cell_angle_beta 90.034600
_cell_angle_gamma 90.022600
loop_
  _atom_site_label
  _atom_site_type_symbol
  _atom_site_fract_x
  _atom_site_fract_y
  _atom_site_fract_z
N1 N 0.32703 0.32327 0.32418
 N2 N 0.32393 0.82638 -0.17257
 N3 N 0.82316 0.32315 -0.17630
 N4 N 0.82201 0.81749 0.32288
 N5 N 0.67615 0.67766 0.32731
 N6 N 0.67992 0.18221 -0.17697
 N7 N 0.17727 0.67832 -0.17396
 N8 N 0.17652 0.17611 0.32667
 N9 N 0.67826 0.32308 0.67545
 N10 N 0.67205 0.82315 1.17374
 N11 N 0.17422 0.32190 1.17137
 N12 N 0.17069 0.82724 0.67013
 N13 N 0.32797 0.67433 0.67212
 N14 N 0.32928 0.16891 1.16732
 N15 N 0.81851 0.68245 1.18205
 N16 N 0.82324 0.17898 0.67636
 N17 N 0.32650 0.32661 0.67221
 N18 N 0.32256 0.81949 0.17964
 N19 N 0.82897 0.32969 0.17075
 N20 N 0.82855 0.82843 0.67278
 N21 N 0.67039 0.67556 0.67117
 N22 N 0.67468 0.17242 0.17121
 N23 N 0.17381 0.67331 0.17292
 N24 N 0.17435 0.17871 0.67360
 N25 N 0.32508 0.67292 0.32647
 N26 N 0.32128 0.18026 0.82002
 N27 N 0.82971 0.66990 0.83230
 N28 N 0.82885 0.16835 0.33140
 N29 N 0.67152 0.32619 0.32906
 N30 N 0.67352 0.82757 0.83022
 N31 N 0.17276 0.32706 0.82711
 N32 N 0.17676 0.82066 0.32474
 O33 O 0.24950 1.01996 0.27829
 O34 O 0.27662 0.97830 0.25063
 O35 O 0.27729 1.01904 0.24969
 O36 O 0.24924 0.97911 0.27894
 O37 O 0.22457 0.97900 0.25563
 O38 O 0.25263 1.01883 0.22639
 O39 O 0.25193 0.97811 0.22732
 O40 O 0.22485 1.01981 0.25498
 Cu41 Cu 0.26564 0.99925 0.26675
 Cu42 Cu 0.23599 0.99904 0.23874
 C43 C 0.23269 1.02705 0.27120
 C44 C 0.26856 0.97079 0.23461
 C45 C 0.26964 1.02575 0.23316
 C46 C 0.23248 0.97188 0.27187
 O47 O 0.22381 0.48130 0.75334
 O48 O 0.25266 0.52126 0.72494
 O49 O 0.25171 0.48059 0.72495
 O50 O 0.22489 0.52206 0.75328
 O51 O 0.24945 0.52143 0.77669
 O52 O 0.27625 0.48006 0.74838
 O53 O 0.27720 0.52069 0.74838
 O54 O 0.24837 0.48073 0.77674
 Cu55 Cu 0.23577 0.50133 0.73677
 Cu56 Cu 0.26527 0.50064 0.76492
 C57 C 0.23135 0.47410 0.76972
 C58 C 0.26967 0.52791 0.73201
 C59 C 0.26843 0.47323 0.73197
 C60 C 0.23284 0.52897 0.76959
 O61 O 0.72363 0.01838 0.24841
 O62 O 0.74974 -0.02396 0.27615
 O63 O 0.75106 0.01680 0.27728
 O64 O 0.72242 -0.02234 0.24755
 O65 O 0.74731 -0.02252 0.22450
 O66 O 0.77592 0.01664 0.25420
 O67 O 0.77461 -0.02407 0.25308
 O68 O 0.74850 0.01816 0.22535
 Cu69 Cu 0.73421 -0.00269 0.26469
 Cu70 Cu 0.76411 -0.00290 0.23697
 C71 C 0.73175 0.02551 0.23228
 C72 C 0.76635 -0.03146 0.26902
 C73 C 0.76822 0.02348 0.27065
 C74 C 0.73023 -0.02932 0.23122
 O75 O 0.72163 0.52152 0.74717
 O76 O 0.74877 0.47946 0.77428
 O77 O 0.74926 0.52018 0.77591
 O78 O 0.72113 0.48078 0.74599
 O79 O 0.74584 0.48136 0.72276
 O80 O 0.77395 0.52073 0.75267
 O81 O 0.77347 0.48005 0.75104
 O82 O 0.74634 0.52206 0.72395
 Cu83 Cu 0.73270 0.50051 0.76319
 Cu84 Cu 0.76239 0.50118 0.73526
 C85 C 0.72949 0.52899 0.73106
 C86 C 0.76549 0.47237 0.76699
 C87 C 0.76627 0.52721 0.76927
 C88 C 0.72897 0.47411 0.72954
 O89 O 0.22250 0.51754 0.24516
 O90 O 0.24978 0.47707 0.27433
 O91 O 0.24959 0.51783 0.27406
 O92 O 0.22274 0.47683 0.24514
 O93 O 0.24787 0.47690 0.22235
 O94 O 0.27472 0.51791 0.25127
 O95 O 0.27491 0.47715 0.25155
 O96 O 0.24763 0.51763 0.22237
 Cu97 Cu 0.23362 0.49726 0.26198
 Cu98 Cu 0.26383 0.49736 0.23459
 C99 C 0.23063 0.52466 0.22903
 C100 C 0.26683 0.47012 0.26774
 C101 C 0.26648 0.52507 0.26732
 C102 C 0.23087 0.46981 0.22897
 O103 O 0.74975 1.02242 0.77866
 O104 O 0.77767 0.98139 0.75086
 O105 O 0.77726 1.02213 0.75045
 O106 O 0.74991 0.98160 0.77949
 O107 O 0.72523 0.98106 0.75620
 O108 O 0.75257 1.02153 0.72716
 O109 O 0.75300 0.98081 0.72758
 O110 O 0.72507 1.02187 0.75536
 Cu111 Cu 0.76612 1.00182 0.76724
 Cu112 Cu 0.73646 1.00114 0.73924
 C113 C 0.73303 1.02949 0.77137
 C114 C 0.76999 0.97409 0.73459
 C115 C 0.76923 1.02904 0.73418
 C116 C 0.73305 0.97436 0.77265
 O117 O 0.77542 0.48081 0.24846
 O118 O 0.74725 0.52046 0.27786
 O119 O 0.74762 0.47973 0.27704
 O120 O 0.77497 0.52154 0.24992
 O121 O 0.75040 0.52200 0.22649
 O122 O 0.72304 0.48011 0.25366
 O123 O 0.72267 0.52087 0.25446
 O124 O 0.75088 0.48121 0.22505
 Cu125 Cu 0.76380 0.50046 0.26567
 Cu126 Cu 0.73428 0.50096 0.23753
 C127 C 0.76783 0.47421 0.23186
 C128 C 0.73050 0.52775 0.27084
 C129 C 0.73078 0.47279 0.26989
 C130 C 0.76699 0.52924 0.23397
 O131 O 0.27361 0.02151 0.75117
 O132 O 0.24554 -0.01907 0.72295
 O133 O 0.24591 0.02162 0.72297
 O134 O 0.27320 -0.01928 0.75146
 O135 O 0.24866 -0.01898 0.77486
 O136 O 0.22130 0.02199 0.74632
 O137 O 0.22094 -0.01879 0.74629
 O138 O 0.24906 0.02193 0.77456
 Cu139 Cu 0.26206 0.00111 0.73481
 Cu140 Cu 0.23252 0.00152 0.76289
 C141 C 0.26584 0.02894 0.76733
 C142 C 0.22862 -0.02595 0.72995
 C143 C 0.22922 0.02899 0.73003
 C144 C 0.26539 -0.02626 0.76778
 O145 O 0.24686 0.27371 0.97914
 O146 O 0.27569 0.24426 1.01790
 O147 O 0.27509 0.24561 0.97802
 O148 O 0.24692 0.27246 1.01901
 O149 O 0.22304 0.24786 1.01842
 O150 O 0.25121 0.22099 0.97742
 O151 O 0.25182 0.21965 1.01731
 O152 O 0.22298 0.24909 0.97852
 Cu153 Cu 0.26356 0.26148 0.99869
 Cu154 Cu 0.23485 0.23191 0.99797
 C155 C 0.23035 0.26608 0.97189
 C156 C 0.26854 0.22708 1.02428
 C157 C 0.26760 0.22909 0.97042
 C158 C 0.23030 0.26460 1.02574
 O159 O 0.24823 0.77563 0.48009
 O160 O 0.27748 0.74827 0.52002
 O161 O 0.27687 0.74790 0.48010
 O162 O 0.24823 0.77601 0.52002
 O163 O 0.22473 0.75104 0.52037
 O164 O 0.25335 0.72293 0.48054
 O165 O 0.25396 0.72331 0.52041
 O166 O 0.22472 0.75065 0.48046
 Cu167 Cu 0.26508 0.76447 0.50013
 Cu168 Cu 0.23681 0.73447 0.50059
 C169 C 0.23184 0.76746 0.47316
 C170 C 0.27057 0.73127 0.52708
 C171 C 0.26963 0.73095 0.47322
 C172 C 0.23173 0.76817 0.52704
 O173 O 0.22345 0.75178 -0.01876
 O174 O 0.25123 0.77895 0.02235
 O175 O 0.25155 0.78024 -0.01770
 O176 O 0.22286 0.75080 0.02120
 O177 O 0.24697 0.72643 0.02079
 O178 O 0.27560 0.75582 -0.01805
 O179 O 0.27530 0.75454 0.02191
 O180 O 0.24754 0.72739 -0.01910
 Cu181 Cu 0.23485 0.76793 0.00181
 Cu182 Cu 0.26380 0.73860 0.00134
 C183 C 0.23107 0.73524 -0.02616
 C184 C 0.26767 0.77101 0.02942
 C185 C 0.26814 0.77270 -0.02481
 C186 C 0.23033 0.73389 0.02789
 O187 O 0.22552 0.24973 0.47957
 O188 O 0.25456 0.27894 0.51844
 O189 O 0.25461 0.27713 0.47853
 O190 O 0.22545 0.25135 0.51949
 O191 O 0.24883 0.22629 0.52059
 O192 O 0.27799 0.25206 0.47964
 O193 O 0.27793 0.25387 0.51954
 O194 O 0.24890 0.22467 0.48068
 Cu195 Cu 0.23768 0.26682 0.49893
 Cu196 Cu 0.26577 0.23669 0.50025
 C197 C 0.23258 0.23250 0.47323
 C198 C 0.27095 0.27117 0.52580
 C199 C 0.27096 0.26868 0.47186
 C200 C 0.23242 0.23467 0.52720
 O201 O 0.74888 0.77367 0.98144
 O202 O 0.77634 0.74657 1.02272
 O203 O 0.77771 0.74563 0.98282
 O204 O 0.74754 0.77401 1.02136
 O205 O 0.72388 0.74917 1.02086
 O206 O 0.75409 0.72078 0.98238
 O207 O 0.75269 0.72172 1.02231
 O208 O 0.72524 0.74883 0.98093
 Cu209 Cu 0.76500 0.76248 1.00202
 Cu210 Cu 0.73660 0.73260 1.00147
 C211 C 0.73258 0.76574 0.97406
 C212 C 0.76880 0.72989 1.02988
 C213 C 0.77087 0.72851 0.97594
 C214 C 0.73094 0.76607 1.02803
 O215 O 0.77479 0.24711 0.52020
 O216 O 0.74631 0.27468 0.47994
 O217 O 0.74624 0.27477 0.51985
 O218 O 0.77526 0.24657 0.48033
 O219 O 0.75160 0.22175 0.48035
 O220 O 0.72254 0.24997 0.51982
 O221 O 0.72263 0.24988 0.47988
 O222 O 0.75109 0.22229 0.52025
 Cu223 Cu 0.76304 0.26329 0.49994
 Cu224 Cu 0.73457 0.23347 0.49993
 C225 C 0.76741 0.23039 0.52744
 C226 C 0.72974 0.26688 0.47302
 C227 C 0.72984 0.26679 0.52694
 C228 C 0.76828 0.22946 0.47360
 O229 O 0.75372 0.27855 0.02024
 O230 O 0.72463 0.25054 -0.01941
 O231 O 0.72525 0.24999 0.02061
 O232 O 0.75269 0.27881 -0.01964
 O233 O 0.77679 0.25442 -0.02027
 O234 O 0.74934 0.22563 0.01984
 O235 O 0.74874 0.22618 -0.02014
 O236 O 0.77779 0.25416 0.01956
 Cu237 Cu 0.73661 0.26692 0.00064
 Cu238 Cu 0.76558 0.23762 -0.00021
 C239 C 0.77059 0.27100 0.02669
 C240 C 0.73213 0.23400 -0.02693
 C241 C 0.73281 0.23306 0.02717
 C242 C 0.76907 0.27116 -0.02712
 O243 O 0.72490 0.75137 0.48133
 O244 O 0.75386 0.77936 0.52104
 O245 O 0.75392 0.77862 0.48109
 O246 O 0.72445 0.75171 0.52120
 O247 O 0.74771 0.72653 0.52165
 O248 O 0.77719 0.75343 0.48164
 O249 O 0.77712 0.75418 0.52157
 O250 O 0.74819 0.72619 0.48178
 Cu251 Cu 0.73694 0.76782 0.50125
 Cu252 Cu 0.76492 0.73756 0.50184
 C253 C 0.73198 0.73436 0.47445
 C254 C 0.77028 0.77142 0.52812
 C255 C 0.77018 0.77021 0.47416
 C256 C 0.73116 0.73462 0.52826
 O257 O 0.97923 0.25042 0.22568
 O258 O 1.01995 0.22268 0.25396
 O259 O 0.97950 0.22230 0.25422
 O260 O 1.01965 0.25037 0.22568
 O261 O 1.01974 0.27521 0.24902
 O262 O 0.97944 0.24713 0.27755
 O263 O 1.01989 0.24751 0.27731
 O264 O 0.97930 0.27526 0.24900
 Cu265 Cu 0.99947 0.23393 0.23754
 Cu266 Cu 0.99947 0.26378 0.26558
 C267 C 0.97232 0.26747 0.23264
 C268 C 1.02716 0.23071 0.27012
 C269 C 0.97259 0.23003 0.27063
 C270 C 1.02685 0.26723 0.23279
 O271 O 0.48033 0.25032 0.77625
 O272 O 0.52135 0.27778 0.74829
 O273 O 0.48086 0.27792 0.74773
 O274 O 0.52098 0.25011 0.77667
 O275 O 0.52111 0.22510 0.75352
 O276 O 0.48104 0.25290 0.72457
 O277 O 0.52150 0.25276 0.72515
 O278 O 0.48048 0.22532 0.75309
 Cu279 Cu 0.50085 0.26652 0.76461
 Cu280 Cu 0.50103 0.23647 0.73677
 C281 C 0.47310 0.23349 0.76909
 C282 C 0.52867 0.26964 0.73225
 C283 C 0.47389 0.26987 0.73148
 C284 C 0.52824 0.23324 0.76966
 O285 O -0.02108 0.27662 0.75308
 O286 O 0.01942 0.24904 0.72450
 O287 O -0.02095 0.24885 0.72450
 O288 O 0.01928 0.27686 0.75310
 O289 O 0.01942 0.25193 0.77632
 O290 O -0.02084 0.22388 0.74767
 O291 O 0.01958 0.22408 0.74769
 O292 O -0.02099 0.25167 0.77627
 Cu293 Cu -0.00083 0.26535 0.73646
 Cu294 Cu -0.00068 0.23537 0.76433
 C295 C -0.02807 0.26865 0.76934
 C296 C 0.02651 0.23204 0.73139
 C297 C -0.02789 0.23180 0.73140
 C298 C 0.02631 0.26901 0.76941
 O299 O 0.48053 0.27552 0.24842
 O300 O 0.52108 0.24789 0.21984
 O301 O 0.48072 0.24795 0.21956
 O302 O 0.52089 0.27574 0.24851
 O303 O 0.52084 0.25071 0.27162
 O304 O 0.48064 0.22293 0.24268
 O305 O 0.52097 0.22288 0.24297
 O306 O 0.48051 0.25047 0.27152
 Cu307 Cu 0.50082 0.26431 0.23175
 Cu308 Cu 0.50074 0.23422 0.25953
 C309 C 0.47353 0.26752 0.26468
 C310 C 0.52799 0.23081 0.22671
 C311 C 0.47374 0.23087 0.22636
 C312 C 0.52778 0.26782 0.26485
 O313 O 1.02009 0.77481 0.74840
 O314 O 0.98063 0.74619 0.77744
 O315 O 1.02098 0.74682 0.77679
 O316 O 0.97980 0.77405 0.74885
 O317 O 0.97988 0.74921 0.72552
 O318 O 1.02111 0.72196 0.75348
 O319 O 0.98074 0.72133 0.75413
 O320 O 1.02020 0.74997 0.72507
 Cu321 Cu 1.00036 0.76296 0.76523
 Cu322 Cu 1.00048 0.73309 0.73721
 C323 C 1.02695 0.76713 0.73194
 C324 C 0.97387 0.72903 0.77057
 C325 C 1.02818 0.72994 0.76972
 C326 C 0.97278 0.76614 0.73255
 O327 O 0.51905 0.77348 0.24868
 O328 O 0.47942 0.74455 0.27727
 O329 O 0.51978 0.74561 0.27721
 O330 O 0.47870 0.77259 0.24896
 O331 O 0.47910 0.74780 0.22559
 O332 O 0.52033 0.72080 0.25385
 O333 O 0.47994 0.71974 0.25392
 O334 O 0.51948 0.74869 0.22531
 Cu335 Cu 0.49920 0.76156 0.26539
 Cu336 Cu 0.49977 0.73175 0.23731
 C337 C 0.52611 0.76585 0.23229
 C338 C 0.47280 0.72739 0.27026
 C339 C 0.52717 0.72880 0.27019
 C340 C 0.47177 0.76463 0.23266
 O341 O 0.02109 0.75032 0.27449
 O342 O -0.02018 0.72326 0.24645
 O343 O 0.02025 0.72238 0.24585
 O344 O -0.01943 0.75060 0.27492
 O345 O -0.01941 0.77556 0.25172
 O346 O 0.02032 0.74731 0.22264
 O347 O -0.02014 0.74820 0.22323
 O348 O 0.02115 0.77527 0.25131
 Cu349 Cu 0.00056 0.73413 0.26277
 Cu350 Cu 0.00062 0.76412 0.23490
 C351 C 0.02824 0.76726 0.26751
 C352 C -0.02755 0.73149 0.23047
 C353 C 0.02710 0.73014 0.22943
 C354 C -0.02661 0.76749 0.26786
 O355 O 0.51982 0.75504 0.77861
 O356 O 0.47940 0.72732 0.74992
 O357 O 0.51975 0.72738 0.74975
 O358 O 0.47942 0.75474 0.77881
 O359 O 0.47921 0.77989 0.75582
 O360 O 0.51951 0.75252 0.72675
 O361 O 0.47916 0.75247 0.72693
 O362 O 0.51959 0.78017 0.75561
 Cu363 Cu 0.49965 0.73859 0.76660
 Cu364 Cu 0.49937 0.76881 0.73897
 C365 C 0.52667 0.77219 0.77183
 C366 C 0.47227 0.73535 0.73373
 C367 C 0.52655 0.73541 0.73343
 C368 C 0.47230 0.77178 0.77205
 C369 C 0.42375 0.29382 0.29290
 C370 C 0.41533 0.31275 0.28566
 C371 C 0.39599 0.31983 0.29319
 C372 C 0.38529 0.30799 0.30798
 C373 C 0.39419 0.28959 0.31593
 C374 C 0.41349 0.28247 0.30835
 C375 C 0.42196 0.26387 0.31631
 C376 C 0.41167 0.25263 0.33135
 C377 C 0.39280 0.25959 0.33877
 C378 C 0.38408 0.27784 0.33120
 C379 C 0.38768 0.33859 0.28545
 C380 C 0.39821 0.35009 0.27077
 C381 C 0.41716 0.34321 0.26348
 C382 C 0.42568 0.32475 0.27076
 C383 C 0.36463 0.31406 0.31418
 C384 C 0.34723 0.31854 0.31897
 C385 C 0.44211 0.28522 0.28342
 C386 C 0.45679 0.27748 0.27508
 H387 H 0.43663 0.25786 0.31106
 H388 H 0.41838 0.23844 0.33727
 H389 H 0.38487 0.25080 0.35045
 H390 H 0.36939 0.28265 0.33748
 H391 H 0.37300 0.34456 0.29068
 H392 H 0.39164 0.36441 0.26501
 H393 H 0.42530 0.35222 0.25209
 H394 H 0.44048 0.32003 0.26466
 C395 C 0.42188 0.79788 0.79932
 C396 C 0.41266 0.81570 0.79049
 C397 C 0.39307 0.82265 0.79747
 C398 C 0.38286 0.81175 0.81325
 C399 C 0.39255 0.79458 0.82278
 C400 C 0.41213 0.78761 0.81579
 C401 C 0.42140 0.77024 0.82536
 C402 C 0.41162 0.76006 0.84143
 C403 C 0.39247 0.76688 0.84828
 C404 C 0.38297 0.78393 0.83911
 C405 C 0.38401 0.84033 0.78823
 C406 C 0.39404 0.85088 0.77255
 C407 C 0.41321 0.84409 0.76573
 C408 C 0.42247 0.82670 0.77453
 C409 C 0.36194 0.81743 0.81884
 C410 C 0.34433 0.82174 0.82300
 C411 C 0.44051 0.78921 0.79045
 C412 C 0.45540 0.78153 0.78241
 H413 H 0.43631 0.76442 0.82062
 H414 H 0.41894 0.74682 0.84861
 H415 H 0.38495 0.75893 0.86077
 H416 H 0.36810 0.78870 0.84500
 H417 H 0.36915 0.84623 0.79306
 H418 H 0.38691 0.86439 0.76568
 H419 H 0.42095 0.85235 0.75357
 H420 H 0.43743 0.82206 0.76876
 C421 C -0.07860 0.29508 0.79615
 C422 C -0.08789 0.31271 0.78703
 C423 C -0.10752 0.31969 0.79389
 C424 C -0.11771 0.30899 0.80982
 C425 C -0.10794 0.29203 0.81964
 C426 C -0.08831 0.28505 0.81278
 C427 C -0.07896 0.26790 0.82266
 C428 C -0.08872 0.25793 0.83886
 C429 C -0.10792 0.26475 0.84556
 C430 C -0.11749 0.28160 0.83611
 C431 C -0.11664 0.33718 0.78438
 C432 C -0.10665 0.34749 0.76853
 C433 C -0.08746 0.34067 0.76182
 C434 C -0.07812 0.32348 0.77090
 C435 C -0.13870 0.31460 0.81526
 C436 C -0.15637 0.31877 0.81933
 C437 C -0.05992 0.28632 0.78743
 C438 C -0.04501 0.27853 0.77953
 H439 H -0.06399 0.26210 0.81805
 H440 H -0.08134 0.24485 0.84626
 H441 H -0.11543 0.25696 0.85815
 H442 H -0.13239 0.28639 0.84191
 H443 H -0.13151 0.34311 0.78913
 H444 H -0.11384 0.36086 0.76144
 H445 H -0.07976 0.34875 0.74951
 H446 H -0.06314 0.31881 0.76522
 C447 C -0.08062 0.79003 0.29090
 C448 C -0.09831 0.78525 0.27906
 C449 C -0.11822 0.79128 0.28596
 C450 C -0.12034 0.80212 0.30463
 C451 C -0.10266 0.80707 0.31636
 C452 C -0.08273 0.80099 0.30948
 C453 C -0.06529 0.80604 0.32148
 C454 C -0.06746 0.81681 0.33978
 C455 C -0.08693 0.82277 0.34651
 C456 C -0.10439 0.81799 0.33500
 C457 C -0.13566 0.78622 0.27392
 C458 C -0.13350 0.77558 0.25555
 C459 C -0.11403 0.76978 0.24875
 C460 C -0.09660 0.77443 0.26033
 C461 C -0.14077 0.80800 0.31171
 C462 C -0.15799 0.81255 0.31712
 C463 C -0.06045 0.78318 0.28397
 C464 C -0.04442 0.77660 0.27724
 H465 H -0.04984 0.80173 0.31684
 H466 H -0.05395 0.82056 0.34878
 H467 H -0.08853 0.83114 0.36073
 H468 H -0.11921 0.82294 0.34085
 H469 H -0.15114 0.79043 0.27853
 H470 H -0.14700 0.77184 0.24654
 H471 H -0.11243 0.76152 0.23446
 H472 H -0.08183 0.76947 0.25440
 C473 C 0.57796 0.70420 0.29815
 C474 C 0.58605 0.68462 0.29232
 C475 C 0.60567 0.67817 0.29969
 C476 C 0.61705 0.69135 0.31284
 C477 C 0.60849 0.71043 0.31951
 C478 C 0.58888 0.71689 0.31213
 C479 C 0.58077 0.73619 0.31878
 C480 C 0.59169 0.74871 0.33237
 C481 C 0.61085 0.74236 0.33962
 C482 C 0.61923 0.72347 0.33330
 C483 C 0.61359 0.65866 0.29346
 C484 C 0.60240 0.64583 0.28037
 C485 C 0.58321 0.65213 0.27316
 C486 C 0.57506 0.67131 0.27899
 C487 C 0.63803 0.68593 0.31852
 C488 C 0.65569 0.68193 0.32278
 C489 C 0.55922 0.71200 0.28872
 C490 C 0.54424 0.71924 0.28045
 H491 H 0.56589 0.74175 0.31363
 H492 H 0.58525 0.76341 0.33731
 H493 H 0.61926 0.75212 0.35020
 H494 H 0.63416 0.71917 0.33941
 H495 H 0.62843 0.65310 0.29870
 H496 H 0.60866 0.63092 0.27581
 H497 H 0.57458 0.64212 0.26298
 H498 H 0.56005 0.67553 0.27304
 C499 C 0.58239 0.21131 0.79296
 C500 C 0.60011 0.22239 0.78641
 C501 C 0.62004 0.21603 0.79295
 C502 C 0.62217 0.19862 0.80601
 C503 C 0.60447 0.18757 0.81259
 C504 C 0.58451 0.19394 0.80604
 C505 C 0.56705 0.18264 0.81277
 C506 C 0.56924 0.16551 0.82561
 C507 C 0.58876 0.15928 0.83201
 C508 C 0.60623 0.17012 0.82561
 C509 C 0.63752 0.22733 0.78616
 C510 C 0.63536 0.24446 0.77332
 C511 C 0.61587 0.25072 0.76696
 C512 C 0.59841 0.23985 0.77332
 C513 C 0.64262 0.19218 0.81255
 C514 C 0.65987 0.18733 0.81759
 C515 C 0.56215 0.21783 0.78590
 C516 C 0.54608 0.22423 0.77909
 H517 H 0.55157 0.18691 0.80818
 H518 H 0.55573 0.15702 0.83062
 H519 H 0.59037 0.14596 0.84198
 H520 H 0.62109 0.16468 0.83096
 H521 H 0.65302 0.22310 0.79069
 H522 H 0.64888 0.25292 0.76830
 H523 H 0.61427 0.26406 0.75702
 H524 H 0.58362 0.24532 0.76786
 C525 C 1.07903 0.70491 0.79720
 C526 C 1.08977 0.71725 0.81161
 C527 C 1.10939 0.71073 0.81888
 C528 C 1.11815 0.69193 0.81169
 C529 C 1.10694 0.67907 0.79811
 C530 C 1.08730 0.68558 0.79084
 C531 C 1.07648 0.67259 0.77708
 C532 C 1.08480 0.65366 0.77074
 C533 C 1.10400 0.64729 0.77786
 C534 C 1.11503 0.65981 0.79137
 C535 C 1.11996 0.72342 0.83310
 C536 C 1.11139 0.74204 0.83994
 C537 C 1.09221 0.74844 0.83280
 C538 C 1.08146 0.73626 0.81879
 C539 C 1.13913 0.68652 0.81729
 C540 C 1.15681 0.68253 0.82151
 C541 C 1.06028 0.71286 0.78792
 C542 C 1.04527 0.72024 0.77981
 H543 H 1.06146 0.67687 0.77119
 H544 H 1.07629 0.64388 0.76025
 H545 H 1.11040 0.63257 0.77291
 H546 H 1.12989 0.65419 0.79652
 H547 H 1.13489 0.71906 0.83915
 H548 H 1.11967 0.75155 0.85084
 H549 H 1.08561 0.76292 0.83815
 H550 H 1.06655 0.74185 0.81374
 C551 C 1.08055 0.20801 0.29456
 C552 C 1.09843 0.22000 0.29042
 C553 C 1.11801 0.21324 0.29761
 C554 C 1.11961 0.19454 0.30890
 C555 C 1.10173 0.18261 0.31312
 C556 C 1.08213 0.18937 0.30594
 C557 C 1.06449 0.17718 0.31029
 C558 C 1.06616 0.15878 0.32142
 C559 C 1.08533 0.15215 0.32843
 C560 C 1.10296 0.16387 0.32438
 C561 C 1.13566 0.22546 0.29321
 C562 C 1.13402 0.24382 0.28204
 C563 C 1.11488 0.25045 0.27505
 C564 C 1.09725 0.23874 0.27910
 C565 C 1.13973 0.18750 0.31582
 C566 C 1.15673 0.18204 0.32108
 C567 C 1.06070 0.21489 0.28677
 C568 C 1.04488 0.22153 0.27961
 H569 H 1.04926 0.18172 0.30516
 H570 H 1.05251 0.14962 0.32462
 H571 H 1.08654 0.13785 0.33705
 H572 H 1.11753 0.15810 0.33015
 H573 H 1.15090 0.22098 0.29834
 H574 H 1.14768 0.25294 0.27880
 H575 H 1.11368 0.26474 0.26639
 H576 H 1.08274 0.24455 0.27325
 C577 C 0.58215 0.29209 0.70792
 C578 C 0.59889 0.27789 0.70771
 C579 C 0.61860 0.28447 0.70074
 C580 C 0.62146 0.30521 0.69402
 C581 C 0.60474 0.31941 0.69425
 C582 C 0.58501 0.31281 0.70118
 C583 C 0.56853 0.32726 0.70129
 C584 C 0.57149 0.34770 0.69482
 C585 C 0.59080 0.35419 0.68811
 C586 C 0.60729 0.34026 0.68777
 C587 C 0.63512 0.27004 0.70080
 C588 C 0.63225 0.24969 0.70759
 C589 C 0.61297 0.24324 0.71435
 C590 C 0.59643 0.25709 0.71445
 C591 C 0.64167 0.31193 0.68711
 C592 C 0.65863 0.31722 0.68157
 C593 C 0.56229 0.28536 0.71573
 C594 C 0.54643 0.27878 0.72285
 H595 H 0.55323 0.32292 0.70637
 H596 H 0.55872 0.35857 0.69501
 H597 H 0.59303 0.37009 0.68314
 H598 H 0.62203 0.34603 0.68242
 H599 H 0.65041 0.27430 0.69566
 H600 H 0.64507 0.23889 0.70759
 H601 H 0.61082 0.22743 0.71965
 H602 H 0.58176 0.25130 0.71991
 C603 C 0.57515 0.79383 0.20427
 C604 C 0.58510 0.81089 0.21378
 C605 C 0.60429 0.81823 0.20614
 C606 C 0.61341 0.80845 0.18904
 C607 C 0.60289 0.79220 0.17883
 C608 C 0.58369 0.78486 0.18647
 C609 C 0.57358 0.76841 0.17616
 C610 C 0.58216 0.75951 0.15876
 C611 C 0.60093 0.76670 0.15128
 C612 C 0.61125 0.78285 0.16115
 C613 C 0.61408 0.83514 0.21603
 C614 C 0.60515 0.84457 0.23298
 C615 C 0.58638 0.83738 0.24047
 C616 C 0.57642 0.82072 0.23106
 C617 C 0.63416 0.81416 0.18286
 C618 C 0.65169 0.81848 0.17837
 C619 C 0.55702 0.78458 0.21362
 C620 C 0.54256 0.77634 0.22189
 H621 H 0.55890 0.76237 0.18136
 H622 H 0.57419 0.74697 0.15103
 H623 H 0.60752 0.75975 0.13775
 H624 H 0.62577 0.78799 0.15472
 H625 H 0.62866 0.84130 0.21073
 H626 H 0.61283 0.85752 0.24033
 H627 H 0.57950 0.84476 0.25364
 H628 H 0.56181 0.81573 0.23739
 C629 C 1.07956 0.29024 0.20725
 C630 C 1.09734 0.27766 0.20983
 C631 C 1.11667 0.28438 0.20199
 C632 C 1.11812 0.30364 0.19160
 C633 C 1.10035 0.31620 0.18900
 C634 C 1.08101 0.30948 0.19685
 C635 C 1.06348 0.32231 0.19413
 C636 C 1.06501 0.34127 0.18393
 C637 C 1.08392 0.34785 0.17625
 C638 C 1.10144 0.33552 0.17871
 C639 C 1.13423 0.27157 0.20483
 C640 C 1.13274 0.25266 0.21510
 C641 C 1.11383 0.24605 0.22272
 C642 C 1.09631 0.25835 0.22019
 C643 C 1.13798 0.31057 0.18391
 C644 C 1.15474 0.31598 0.17789
 C645 C 1.05997 0.28332 0.21559
 C646 C 1.04435 0.27658 0.22309
 H647 H 1.04845 0.31784 0.19984
 H648 H 1.05145 0.35092 0.18199
 H649 H 1.08502 0.36259 0.16835
 H650 H 1.11581 0.34128 0.17247
 H651 H 1.14928 0.27601 0.19916
 H652 H 1.14633 0.24309 0.21717
 H653 H 1.11275 0.23136 0.23070
 H654 H 1.08199 0.25253 0.22648
 C655 C 1.07537 0.79553 0.70330
 C656 C 1.08531 0.81261 0.71278
 C657 C 1.10423 0.82030 0.70480
 C658 C 1.11304 0.81090 0.68734
 C659 C 1.10254 0.79455 0.67724
 C660 C 1.08366 0.78682 0.68526
 C661 C 1.07360 0.77026 0.67507
 C662 C 1.08193 0.76162 0.65742
 C663 C 1.10039 0.76920 0.64957
 C664 C 1.11065 0.78546 0.65931
 C665 C 1.11407 0.83716 0.71472
 C666 C 1.10542 0.84625 0.73199
 C667 C 1.08690 0.83876 0.73978
 C668 C 1.07690 0.82212 0.73036
 C669 C 1.13343 0.81717 0.68057
 C670 C 1.15067 0.82199 0.67550
 C671 C 1.05751 0.78602 0.71288
 C672 C 1.04323 0.77763 0.72132
 H673 H 1.05916 0.76390 0.68056
 H674 H 1.07401 0.74899 0.64980
 H675 H 1.10679 0.76246 0.63584
 H676 H 1.12493 0.79088 0.65261
 H677 H 1.12848 0.84352 0.70922
 H678 H 1.11314 0.85915 0.73937
 H679 H 1.08023 0.84588 0.75319
 H680 H 1.06250 0.81688 0.73694
 C681 C 0.42252 0.70794 0.70631
 C682 C 0.41185 0.69201 0.71685
 C683 C 0.39290 0.68422 0.70900
 C684 C 0.38476 0.69238 0.69066
 C685 C 0.39579 0.70780 0.67975
 C686 C 0.41473 0.71561 0.68761
 C687 C 0.42535 0.73120 0.67656
 C688 C 0.41751 0.73882 0.65826
 C689 C 0.39901 0.73116 0.65057
 C690 C 0.38820 0.71583 0.66113
 C691 C 0.38238 0.66848 0.71993
 C692 C 0.39034 0.66063 0.73808
 C693 C 0.40888 0.66823 0.74575
 C694 C 0.41957 0.68374 0.73532
 C695 C 0.36463 0.68559 0.68353
 C696 C 0.34767 0.68024 0.67806
 C697 C 0.44081 0.71724 0.71533
 C698 C 0.45549 0.72530 0.72341
 H699 H 0.43983 0.73759 0.68192
 H700 H 0.42585 0.75073 0.65000
 H701 H 0.39299 0.73712 0.63634
 H702 H 0.37390 0.71031 0.65453
 H703 H 0.36792 0.66206 0.71457
 H704 H 0.38209 0.64859 0.74624
 H705 H 0.41500 0.66209 0.75986
 H706 H 0.43395 0.68912 0.74188
 C707 C 0.42460 0.20312 0.19821
 C708 C 0.41655 0.18433 0.20619
 C709 C 0.39763 0.17624 0.19858
 C710 C 0.38687 0.18703 0.18308
 C711 C 0.39540 0.20528 0.17442
 C712 C 0.41433 0.21336 0.18202
 C713 C 0.42245 0.23176 0.17329
 C714 C 0.41218 0.24186 0.15747
 C715 C 0.39367 0.23394 0.15003
 C716 C 0.38529 0.21588 0.15838
 C717 C 0.38979 0.15753 0.20690
 C718 C 0.40033 0.14709 0.22232
 C719 C 0.41882 0.15501 0.22980
 C720 C 0.42690 0.17342 0.22189
 C721 C 0.36648 0.18007 0.17691
 C722 C 0.34927 0.17471 0.17229
 C723 C 0.44266 0.21257 0.20752
 C724 C 0.45716 0.22073 0.21582
 H725 H 0.43683 0.23847 0.17853
 H726 H 0.41863 0.25589 0.15093
 H727 H 0.38575 0.24183 0.13774
 H728 H 0.37089 0.21029 0.15206
 H729 H 0.37552 0.15073 0.20150
 H730 H 0.39414 0.13277 0.22848
 H731 H 0.42696 0.14684 0.24176
 H732 H 0.44137 0.17892 0.22814
 C733 C -0.08249 0.70931 0.20926
 C734 C -0.08627 0.70238 0.18914
 C735 C -0.10656 0.69645 0.18322
 C736 C -0.12293 0.69752 0.19747
 C737 C -0.11912 0.70431 0.21764
 C738 C -0.09884 0.71019 0.22357
 C739 C -0.09544 0.71697 0.24383
 C740 C -0.11160 0.71792 0.25780
 C741 C -0.13143 0.71224 0.25197
 C742 C -0.13524 0.70548 0.23216
 C743 C -0.11000 0.68964 0.16301
 C744 C -0.09385 0.68872 0.14902
 C745 C -0.07401 0.69454 0.15481
 C746 C -0.07017 0.70131 0.17462
 C747 C -0.14376 0.69189 0.19143
 C748 C -0.16125 0.68742 0.18688
 C749 C -0.06204 0.71622 0.21531
 C750 C -0.04574 0.72271 0.22150
 H751 H -0.08031 0.72165 0.24912
 H752 H -0.10872 0.72323 0.27319
 H753 H -0.14396 0.71308 0.26285
 H754 H -0.15093 0.70120 0.22838
 H755 H -0.12517 0.68496 0.15781
 H756 H -0.09676 0.68348 0.13362
 H757 H -0.06153 0.69381 0.14388
 H758 H -0.05450 0.70567 0.17844
 C759 C -0.07820 0.20590 0.70366
 C760 C -0.08879 0.21767 0.68872
 C761 C -0.10840 0.21093 0.68157
 C762 C -0.11728 0.19248 0.68942
 C763 C -0.10615 0.18006 0.70343
 C764 C -0.08655 0.18681 0.71061
 C765 C -0.07586 0.17433 0.72489
 C766 C -0.08424 0.15563 0.73178
 C767 C -0.10338 0.14900 0.72471
 C768 C -0.11431 0.16103 0.71072
 C769 C -0.11882 0.22307 0.66681
 C770 C -0.11011 0.24136 0.65932
 C771 C -0.09095 0.24799 0.66635
 C772 C -0.08036 0.23635 0.68090
 C773 C -0.13838 0.18709 0.68419
 C774 C -0.15617 0.18314 0.68037
 C775 C -0.05959 0.21421 0.71293
 C776 C -0.04474 0.22184 0.72111
 H777 H -0.06089 0.17883 0.73076
 H778 H -0.07582 0.14624 0.74266
 H779 H -0.10981 0.13445 0.73009
 H780 H -0.12912 0.15521 0.70561
 H781 H -0.13373 0.21851 0.66084
 H782 H -0.11827 0.25044 0.64800
 H783 H -0.08425 0.26221 0.66049
 H784 H -0.06547 0.24210 0.68584
 C785 C 0.29375 0.42033 0.29589
 C786 C 0.31347 0.41338 0.28954
 C787 C 0.32136 0.39415 0.29684
 C788 C 0.30944 0.38192 0.31038
 C789 C 0.29020 0.38938 0.31755
 C790 C 0.28233 0.40864 0.31029
 C791 C 0.26293 0.41564 0.31746
 C792 C 0.25167 0.40397 0.33148
 C793 C 0.25938 0.38515 0.33861
 C794 C 0.27841 0.37784 0.33176
 C795 C 0.34104 0.38744 0.29018
 C796 C 0.35260 0.39942 0.27666
 C797 C 0.34485 0.41819 0.26943
 C798 C 0.32550 0.42516 0.27573
 C799 C 0.31627 0.36117 0.31585
 C800 C 0.32147 0.34362 0.31990
 C801 C 0.28466 0.43866 0.28662
 C802 C 0.27674 0.45336 0.27831
 H803 H 0.25632 0.43021 0.31239
 H804 H 0.23688 0.40958 0.33685
 H805 H 0.25059 0.37616 0.34952
 H806 H 0.28381 0.36314 0.33779
 H807 H 0.34772 0.37299 0.29544
 H808 H 0.36766 0.39413 0.27178
 H809 H 0.35388 0.42743 0.25891
 H810 H 0.32014 0.43990 0.26975
 C811 C 0.29133 -0.07825 0.79276
 C812 C 0.29660 -0.08024 0.81360
 C813 C 0.30402 -0.09957 0.82118
 C814 C 0.30614 -0.11677 0.80787
 C815 C 0.30133 -0.11465 0.78694
 C816 C 0.29387 -0.09535 0.77937
 C817 C 0.28900 -0.09368 0.75840
 C818 C 0.29143 -0.11057 0.74530
 C819 C 0.29877 -0.12942 0.75270
 C820 C 0.30368 -0.13153 0.77326
 C821 C 0.30908 -0.10125 0.84208
 C822 C 0.30692 -0.08427 0.85512
 C823 C 0.29969 -0.06536 0.84770
 C824 C 0.29455 -0.06328 0.82719
 C825 C 0.31281 -0.13682 0.81563
 C826 C 0.31808 -0.15382 0.82141
 C827 C 0.28268 -0.05896 0.78504
 C828 C 0.27504 -0.04358 0.77771
 H829 H 0.28329 -0.07933 0.75188
 H830 H 0.28763 -0.10899 0.72932
 H831 H 0.30066 -0.14249 0.74247
 H832 H 0.30937 -0.14652 0.77825
 H833 H 0.31479 -0.11564 0.84853
 H834 H 0.31088 -0.08581 0.87107
 H835 H 0.29806 -0.05222 0.85790
 H836 H 0.28902 -0.04826 0.82209
 C837 C 0.78989 0.41885 0.79032
 C838 C 0.80133 0.41780 0.80866
 C839 C 0.80854 0.39825 0.81591
 C840 C 0.80430 0.37989 0.80472
 C841 C 0.79296 0.38096 0.78631
 C842 C 0.78575 0.40049 0.77908
 C843 C 0.77441 0.40114 0.76063
 C844 C 0.77030 0.38304 0.74967
 C845 C 0.77732 0.36394 0.75676
 C846 C 0.78853 0.36282 0.77485
 C847 C 0.81985 0.39756 0.83433
 C848 C 0.82397 0.41568 0.84528
 C849 C 0.81695 0.43480 0.83817
 C850 C 0.80575 0.43593 0.82008
 C851 C 0.81144 0.35984 0.81210
 C852 C 0.81703 0.34289 0.81771
 C853 C 0.78202 0.43865 0.78302
 C854 C 0.77485 0.45448 0.77618
 H855 H 0.76862 0.41561 0.75445
 H856 H 0.76160 0.38384 0.73560
 H857 H 0.77408 0.34991 0.74821
 H858 H 0.79366 0.34759 0.77971
 H859 H 0.82562 0.38305 0.84046
 H860 H 0.83264 0.41488 0.85935
 H861 H 0.82020 0.44883 0.84672
 H862 H 0.80061 0.45114 0.81514
 C863 C 0.78948 -0.08570 0.29193
 C864 C 0.80053 -0.08746 0.31046
 C865 C 0.80757 -0.10728 0.31713
 C866 C 0.80354 -0.12520 0.30522
 C867 C 0.79254 -0.12343 0.28666
 C868 C 0.78547 -0.10364 0.28001
 C869 C 0.77441 -0.10230 0.26143
 C870 C 0.77049 -0.11998 0.24976
 C871 C 0.77744 -0.13932 0.25625
 C872 C 0.78834 -0.14113 0.27447
 C873 C 0.81852 -0.10867 0.33574
 C874 C 0.82242 -0.09098 0.34740
 C875 C 0.81555 -0.07160 0.34086
 C876 C 0.80471 -0.06977 0.32261
 C877 C 0.81052 -0.14550 0.31202
 C878 C 0.81601 -0.16263 0.31725
 C879 C 0.78202 -0.06560 0.28502
 C880 C 0.77522 -0.04954 0.27830
 H881 H 0.76868 -0.08761 0.25570
 H882 H 0.76200 -0.11864 0.23561
 H883 H 0.77436 -0.15302 0.24713
 H884 H 0.79341 -0.15653 0.27886
 H885 H 0.82416 -0.12341 0.34145
 H886 H 0.83082 -0.09232 0.36160
 H887 H 0.81863 -0.05791 0.34998
 H888 H 0.79966 -0.05438 0.31813
 C889 C 0.29780 0.57759 0.70486
 C890 C 0.31244 0.58923 0.71615
 C891 C 0.31982 0.60851 0.70846
 C892 C 0.31256 0.61602 0.68950
 C893 C 0.29868 0.60392 0.67777
 C894 C 0.29128 0.58464 0.68547
 C895 C 0.27723 0.57292 0.67358
 C896 C 0.27070 0.58004 0.65460
 C897 C 0.27794 0.59890 0.64707
 C898 C 0.29177 0.61077 0.65846
 C899 C 0.33421 0.62002 0.72017
 C900 C 0.34115 0.61265 0.73892
 C901 C 0.33395 0.59377 0.74642
 C902 C 0.31974 0.58214 0.73525
 C903 C 0.31846 0.63666 0.68267
 C904 C 0.32301 0.65410 0.67755
 C905 C 0.28842 0.55923 0.71381
 C906 C 0.28011 0.54457 0.72180
 H907 H 0.27123 0.55813 0.67879
 H908 H 0.25997 0.57087 0.64568
 H909 H 0.27284 0.60434 0.63231
 H910 H 0.29703 0.62530 0.65197
 H911 H 0.34028 0.63476 0.71494
 H912 H 0.35217 0.62164 0.74766
 H913 H 0.33940 0.58810 0.76098
 H914 H 0.31464 0.56752 0.74169
 C915 C 0.29775 1.07405 0.20360
 C916 C 0.31444 1.08453 0.21304
 C917 C 0.32223 1.10324 0.20443
 C918 C 0.31327 1.11135 0.18644
 C919 C 0.29730 1.10031 0.17643
 C920 C 0.28949 1.08162 0.18505
 C921 C 0.27330 1.07102 0.17494
 C922 C 0.26512 1.07864 0.15677
 C923 C 0.27281 1.09689 0.14831
 C924 C 0.28871 1.10768 0.15797
 C925 C 0.33876 1.11359 0.21427
 C926 C 0.34737 1.10566 0.23209
 C927 C 0.33975 1.08737 0.24053
 C928 C 0.32346 1.07687 0.23118
 C929 C 0.31953 1.13167 0.17903
 C930 C 0.32424 1.14889 0.17339
 C931 C 0.28830 1.05628 0.21358
 C932 C 0.28002 1.04204 0.22231
 H933 H 0.26687 1.05671 0.18089
 H934 H 0.25276 1.07031 0.14921
 H935 H 0.26643 1.10272 0.13418
 H936 H 0.29425 1.12175 0.15078
 H937 H 0.34523 1.12783 0.20825
 H938 H 0.36002 1.11376 0.23941
 H939 H 0.34648 1.08127 0.25438
 H940 H 0.31809 1.06267 0.23828
 C941 C 0.78958 0.58431 0.21260
 C942 C 0.80237 0.58655 0.19528
 C943 C 0.80861 0.60672 0.18884
 C944 C 0.80204 0.62451 0.19980
 C945 C 0.78944 0.62225 0.21728
 C946 C 0.78320 0.60210 0.22371
 C947 C 0.77059 0.60025 0.24125
 C948 C 0.76431 0.61779 0.25208
 C949 C 0.77039 0.63749 0.24576
 C950 C 0.78281 0.63979 0.22858
 C951 C 0.82136 0.60858 0.17144
 C952 C 0.82779 0.59101 0.16073
 C953 C 0.82172 0.57129 0.16706
 C954 C 0.80913 0.56900 0.18412
 C955 C 0.80816 0.64516 0.19312
 C956 C 0.81305 0.66244 0.18784
 C957 C 0.78260 0.56387 0.21900
 C958 C 0.77598 0.54754 0.22523
 H959 H 0.76546 0.58527 0.24682
 H960 H 0.75466 0.61607 0.26543
 H961 H 0.76546 0.65107 0.25422
 H962 H 0.78714 0.65545 0.22429
 H963 H 0.82649 0.62359 0.16594
 H964 H 0.83755 0.59271 0.14746
 H965 H 0.82678 0.55770 0.15871
 H966 H 0.80481 0.55335 0.18849
 C967 C 0.79148 1.08245 0.70880
 C968 C 0.77801 1.09979 0.70981
 C969 C 0.78470 1.11953 0.70266
 C970 C 0.80480 1.12182 0.69448
 C971 C 0.81823 1.10447 0.69337
 C972 C 0.81153 1.08471 0.70053
 C973 C 0.82523 1.06761 0.69934
 C974 C 0.84502 1.06997 0.69134
 C975 C 0.85160 1.08930 0.68439
 C976 C 0.83841 1.10641 0.68535
 C977 C 0.77104 1.13668 0.70402
 C978 C 0.75131 1.13437 0.71217
 C979 C 0.74472 1.11505 0.71907
 C980 C 0.75784 1.09791 0.71797
 C981 C 0.81171 1.14211 0.68758
 C982 C 0.81718 1.15917 0.68219
 C983 C 0.78476 1.06257 0.71694
 C984 C 0.77826 1.04674 0.72438
 H985 H 0.82079 1.05227 0.70456
 H986 H 0.85532 1.05673 0.69054
 H987 H 0.86699 1.09106 0.67821
 H988 H 0.84422 1.12114 0.67977
 H989 H 0.77543 1.15203 0.69883
 H990 H 0.74109 1.14766 0.71314
 H991 H 0.72939 1.11334 0.72543
 H992 H 0.75200 1.08324 0.72362
 C993 C 0.70711 0.58013 0.29739
 C994 C 0.72176 0.59470 0.30473
 C995 C 0.71507 0.61437 0.31210
 C996 C 0.69380 0.61941 0.31196
 C997 C 0.67912 0.60471 0.30499
 C998 C 0.68580 0.58501 0.29765
 C999 C 0.67088 0.57068 0.29049
 C1000 C 0.64993 0.57567 0.29057
 C1001 C 0.64340 0.59492 0.29778
 C1002 C 0.65776 0.60932 0.30496
 C1003 C 0.73000 0.62871 0.31927
 C1004 C 0.75096 0.62381 0.31906
 C1005 C 0.75751 0.60462 0.31178
 C1006 C 0.74316 0.59016 0.30470
 C1007 C 0.68718 0.64008 0.31801
 C1008 C 0.68195 0.65748 0.32254
 C1009 C 0.71422 0.56066 0.28863
 C1010 C 0.72108 0.54514 0.28085
 H1011 H 0.67523 0.55551 0.28476
 H1012 H 0.63871 0.56454 0.28501
 H1013 H 0.62711 0.59873 0.29783
 H1014 H 0.65194 0.62404 0.31050
 H1015 H 0.72566 0.64383 0.32513
 H1016 H 0.76216 0.63498 0.32458
 H1017 H 0.77381 0.60089 0.31162
 H1018 H 0.74905 0.57544 0.29921
 C1019 C 0.71063 1.08414 0.79400
 C1020 C 0.72214 1.10199 0.78835
 C1021 C 0.71553 1.12206 0.79468
 C1022 C 0.69748 1.12418 0.80668
 C1023 C 0.68602 1.10634 0.81239
 C1024 C 0.69262 1.08625 0.80603
 C1025 C 0.68090 1.06866 0.81186
 C1026 C 0.66315 1.07084 0.82365
 C1027 C 0.65670 1.09047 0.82988
 C1028 C 0.66794 1.10808 0.82436
 C1029 C 0.72723 1.13967 0.78874
 C1030 C 0.74498 1.13751 0.77696
 C1031 C 0.75151 1.11789 0.77085
 C1032 C 0.74025 1.10030 0.77637
 C1033 C 0.69072 1.14475 0.81296
 C1034 C 0.68552 1.16208 0.81781
 C1035 C 0.71735 1.06378 0.78705
 C1036 C 0.72390 1.04758 0.78043
 H1037 H 0.68533 1.05308 0.80736
 H1038 H 0.65434 1.05722 0.82798
 H1039 H 0.64290 1.09208 0.83904
 H1040 H 0.66231 1.12303 0.82954
 H1041 H 0.72280 1.15528 0.79313
 H1042 H 0.75374 1.15114 0.77256
 H1043 H 0.76533 1.11629 0.76171
 H1044 H 0.74594 1.08540 0.77113
 C1045 C 0.20911 0.58092 0.79676
 C1046 C 0.18775 0.58558 0.79676
 C1047 C 0.18079 0.60521 0.80402
 C1048 C 0.19523 0.62003 0.81123
 C1049 C 0.21652 0.61509 0.81188
 C1050 C 0.22349 0.59548 0.80463
 C1051 C 0.24489 0.59100 0.80522
 C1052 C 0.25898 0.60548 0.81275
 C1053 C 0.25216 0.62465 0.81985
 C1054 C 0.23119 0.62949 0.81946
 C1055 C 0.15939 0.60964 0.80368
 C1056 C 0.14525 0.59508 0.79638
 C1057 C 0.15207 0.57588 0.78929
 C1058 C 0.17306 0.57110 0.78944
 C1059 C 0.18840 0.64070 0.81703
 C1060 C 0.18309 0.65812 0.82140
 C1061 C 0.21654 0.56172 0.78768
 C1062 C 0.22351 0.54637 0.77967
 H1063 H 0.25096 0.57627 0.79993
 H1064 H 0.27529 0.60179 0.81308
 H1065 H 0.26316 0.63585 0.82568
 H1066 H 0.22664 0.64459 0.82519
 H1067 H 0.15337 0.62433 0.80912
 H1068 H 0.12893 0.59871 0.79623
 H1069 H 0.14102 0.56461 0.78365
 H1070 H 0.17763 0.55595 0.78382
 C1071 C 0.20651 1.07799 0.29811
 C1072 C 0.21802 1.08928 0.31275
 C1073 C 0.21075 1.10888 0.31975
 C1074 C 0.19202 1.11706 0.31206
 C1075 C 0.17999 1.10530 0.29821
 C1076 C 0.18726 1.08570 0.29120
 C1077 C 0.17510 1.07433 0.27717
 C1078 C 0.15624 1.08208 0.27030
 C1079 C 0.14912 1.10124 0.27717
 C1080 C 0.16081 1.11281 0.29095
 C1081 C 0.22265 1.12001 0.33421
 C1082 C 0.24118 1.11198 0.34158
 C1083 C 0.24829 1.09280 0.33474
 C1084 C 0.23692 1.08152 0.32048
 C1085 C 0.18577 1.13801 0.31754
 C1086 C 0.18121 1.15566 0.32184
 C1087 C 0.21514 1.05924 0.28916
 C1088 C 0.22286 1.04421 0.28124
 H1089 H 0.17997 1.05931 0.27146
 H1090 H 0.14711 1.07315 0.25960
 H1091 H 0.13446 1.10719 0.27181
 H1092 H 0.15461 1.12761 0.29592
 H1093 H 0.21773 1.13497 0.34004
 H1094 H 0.25006 1.12068 0.35266
 H1095 H 0.26270 1.08662 0.34051
 H1096 H 0.24304 1.06665 0.31567
 C1097 C 0.70442 0.42300 0.70153
 C1098 C 0.71751 0.41130 0.68859
 C1099 C 0.71121 0.39133 0.68167
 C1100 C 0.69186 0.38318 0.68773
 C1101 C 0.67830 0.39534 0.69972
 C1102 C 0.68460 0.41532 0.70666
 C1103 C 0.67091 0.42708 0.71887
 C1104 C 0.65149 0.41934 0.72403
 C1105 C 0.64532 0.39980 0.71723
 C1106 C 0.65852 0.38785 0.70523
 C1107 C 0.72466 0.37980 0.66897
 C1108 C 0.74381 0.38779 0.66327
 C1109 C 0.74998 0.40732 0.67005
 C1110 C 0.73706 0.41901 0.68257
 C1111 C 0.68654 0.36183 0.68274
 C1112 C 0.68255 0.34387 0.67916
 C1113 C 0.71207 0.44203 0.71080
 C1114 C 0.71929 0.45714 0.71904
 H1115 H 0.67501 0.44239 0.72443
 H1116 H 0.64118 0.42856 0.73334
 H1117 H 0.63022 0.39387 0.72127
 H1118 H 0.65302 0.37278 0.70025
 H1119 H 0.72050 0.36457 0.66325
 H1120 H 0.75390 0.37878 0.65353
 H1121 H 0.76486 0.41347 0.66557
 H1122 H 0.74250 0.43416 0.68737
 C1123 C 0.70387 -0.07955 0.20324
 C1124 C 0.71603 -0.09133 0.18952
 C1125 C 0.70863 -0.11074 0.18212
 C1126 C 0.68914 -0.11826 0.18852
 C1127 C 0.67660 -0.10606 0.20152
 C1128 C 0.68401 -0.08665 0.20894
 C1129 C 0.67133 -0.07488 0.22217
 C1130 C 0.65187 -0.08207 0.22789
 C1131 C 0.64461 -0.10103 0.22060
 C1132 C 0.65677 -0.11295 0.20756
 C1133 C 0.72115 -0.12236 0.16859
 C1134 C 0.74044 -0.11501 0.16256
 C1135 C 0.74770 -0.09605 0.16981
 C1136 C 0.73570 -0.08427 0.18314
 C1137 C 0.68257 -0.13903 0.18270
 C1138 C 0.67753 -0.15654 0.17835
 C1139 C 0.71242 -0.06092 0.21252
 C1140 C 0.72017 -0.04607 0.22074
 H1141 H 0.67628 -0.06000 0.22816
 H1142 H 0.64236 -0.07287 0.23802
 H1143 H 0.62947 -0.10653 0.22505
 H1144 H 0.65044 -0.12754 0.20219
 H1145 H 0.71613 -0.13717 0.16249
 H1146 H 0.74980 -0.12409 0.15219
 H1147 H 0.76269 -0.09041 0.16507
 H1148 H 0.74198 -0.06958 0.18830
 C1149 C 0.20438 0.41966 0.20090
 C1150 C 0.21479 0.40958 0.18470
 C1151 C 0.20743 0.39014 0.17732
 C1152 C 0.18974 0.38092 0.18619
 C1153 C 0.17869 0.39155 0.20159
 C1154 C 0.18603 0.41099 0.20897
 C1155 C 0.17486 0.42121 0.22456
 C1156 C 0.15692 0.41249 0.23259
 C1157 C 0.14974 0.39348 0.22537
 C1158 C 0.16045 0.38304 0.21006
 C1159 C 0.21821 0.38022 0.16128
 C1160 C 0.23573 0.38927 0.15274
 C1161 C 0.24293 0.40828 0.15996
 C1162 C 0.23266 0.41838 0.17578
 C1163 C 0.18368 0.36000 0.18037
 C1164 C 0.17910 0.34236 0.17603
 C1165 C 0.21328 0.43813 0.21016
 C1166 C 0.22109 0.45293 0.21844
 H1167 H 0.17979 0.43607 0.23060
 H1168 H 0.14853 0.42055 0.24447
 H1169 H 0.13579 0.38677 0.23165
 H1170 H 0.15422 0.36833 0.20487
 H1171 H 0.21317 0.36545 0.15514
 H1172 H 0.24376 0.38149 0.14045
 H1173 H 0.25655 0.41525 0.15328
 H1174 H 0.23879 0.43317 0.18085
 C1175 C 0.20214 -0.07605 0.70179
 C1176 C 0.21383 -0.08703 0.68706
 C1177 C 0.20643 -0.10628 0.67927
 C1178 C 0.18741 -0.11444 0.68627
 C1179 C 0.17528 -0.10300 0.70028
 C1180 C 0.18268 -0.08375 0.70808
 C1181 C 0.17041 -0.07273 0.72227
 C1182 C 0.15134 -0.08048 0.72854
 C1183 C 0.14409 -0.09929 0.72088
 C1184 C 0.15587 -0.11049 0.70691
 C1185 C 0.21846 -0.11709 0.66472
 C1186 C 0.23728 -0.10910 0.65804
 C1187 C 0.24454 -0.09029 0.66567
 C1188 C 0.23302 -0.07932 0.68003
 C1189 C 0.18095 -0.13510 0.68000
 C1190 C 0.17602 -0.15254 0.67525
 C1191 C 0.21075 -0.05759 0.71134
 C1192 C 0.21853 -0.04280 0.71965
 H1193 H 0.17537 -0.05799 0.72859
 H1194 H 0.14213 -0.07183 0.73938
 H1195 H 0.12925 -0.10523 0.72576
 H1196 H 0.14956 -0.12499 0.70130
 H1197 H 0.21345 -0.13176 0.65832
 H1198 H 0.24627 -0.11756 0.64688
 H1199 H 0.25917 -0.08415 0.66044
 H1200 H 0.23928 -0.06473 0.68548
 C1201 C 0.29622 0.29018 0.41896
 C1202 C 0.29143 0.27844 0.40130
 C1203 C 0.29847 0.28525 0.38192
 C1204 C 0.31021 0.30378 0.38031
 C1205 C 0.31525 0.31534 0.39799
 C1206 C 0.30823 0.30851 0.41739
 C1207 C 0.31337 0.32035 0.43484
 C1208 C 0.32515 0.33843 0.43318
 C1209 C 0.33202 0.34511 0.41423
 C1210 C 0.32716 0.33376 0.39678
 C1211 C 0.29344 0.27330 0.36449
 C1212 C 0.28176 0.25516 0.36614
 C1213 C 0.27483 0.24851 0.38507
 C1214 C 0.27957 0.25994 0.40249
 C1215 C 0.31669 0.31110 0.36039
 C1216 C 0.32166 0.31690 0.34363
 C1217 C 0.28825 0.28350 0.43856
 C1218 C 0.28085 0.27722 0.45423
 H1219 H 0.30839 0.31574 0.44991
 H1220 H 0.32897 0.34729 0.44669
 H1221 H 0.34117 0.35915 0.41303
 H1222 H 0.33286 0.33956 0.38237
 H1223 H 0.29848 0.27780 0.34942
 H1224 H 0.27806 0.24621 0.35265
 H1225 H 0.26573 0.23443 0.38627
 H1226 H 0.27385 0.25408 0.41687
 C1227 C 0.29313 0.79620 -0.07693
 C1228 C 0.29494 0.78165 -0.09306
 C1229 C 0.30182 0.78835 -0.11252
 C1230 C 0.30682 0.80955 -0.11576
 C1231 C 0.30527 0.82403 -0.09958
 C1232 C 0.29841 0.81733 -0.08008
 C1233 C 0.29692 0.83207 -0.06416
 C1234 C 0.30204 0.85289 -0.06739
 C1235 C 0.30872 0.85945 -0.08646
 C1236 C 0.31035 0.84526 -0.10243
 C1237 C 0.30341 0.77354 -0.12843
 C1238 C 0.29833 0.75273 -0.12521
 C1239 C 0.29164 0.74617 -0.10617
 C1240 C 0.28991 0.76038 -0.09024
 C1241 C 0.31321 0.81637 -0.13585
 C1242 C 0.31828 0.82133 -0.15284
 C1243 C 0.28507 0.78933 -0.05744
 C1244 C 0.27774 0.78245 -0.04198
 H1245 H 0.29182 0.82767 -0.04907
 H1246 H 0.30084 0.86397 -0.05503
 H1247 H 0.31267 0.87563 -0.08889
 H1248 H 0.31563 0.85108 -0.11698
 H1249 H 0.30860 0.77785 -0.14351
 H1250 H 0.29961 0.74164 -0.13755
 H1251 H 0.28768 0.72999 -0.10375
 H1252 H 0.28459 0.75448 -0.07574
 C1253 C 0.79241 0.29380 -0.08034
 C1254 C 0.79057 0.28006 -0.09713
 C1255 C 0.79726 0.28649 -0.11674
 C1256 C 0.80580 0.30659 -0.11946
 C1257 C 0.80778 0.32026 -0.10265
 C1258 C 0.80106 0.31384 -0.08302
 C1259 C 0.80315 0.32777 -0.06646
 C1260 C 0.81163 0.34751 -0.06921
 C1261 C 0.81819 0.35380 -0.08840
 C1262 C 0.81633 0.34039 -0.10499
 C1263 C 0.79518 0.27251 -0.13331
 C1264 C 0.78673 0.25276 -0.13057
 C1265 C 0.78026 0.24644 -0.11139
 C1266 C 0.78208 0.25987 -0.09482
 C1267 C 0.81232 0.31315 -0.13960
 C1268 C 0.81747 0.31804 -0.15659
 C1269 C 0.78497 0.28722 -0.06051
 C1270 C 0.77813 0.28060 -0.04473
 H1271 H 0.79828 0.32354 -0.05125
 H1272 H 0.81313 0.35798 -0.05637
 H1273 H 0.82476 0.36915 -0.09045
 H1274 H 0.82167 0.34596 -0.11962
 H1275 H 0.80005 0.27666 -0.14853
 H1276 H 0.78522 0.24230 -0.14341
 H1277 H 0.77368 0.23110 -0.10933
 H1278 H 0.77674 0.25422 -0.08023
 C1279 C 0.79457 0.79042 0.42045
 C1280 C 0.79205 0.77635 0.40401
 C1281 C 0.79847 0.78214 0.38412
 C1282 C 0.80742 0.80196 0.38077
 C1283 C 0.81025 0.81590 0.39724
 C1284 C 0.80379 0.81011 0.41716
 C1285 C 0.80666 0.82433 0.43336
 C1286 C 0.81568 0.84372 0.43001
 C1287 C 0.82200 0.84939 0.41055
 C1288 C 0.81934 0.83569 0.39429
 C1289 C 0.79564 0.76786 0.36791
 C1290 C 0.78678 0.74840 0.37127
 C1291 C 0.78057 0.74270 0.39072
 C1292 C 0.78308 0.75645 0.40694
 C1293 C 0.81320 0.80806 0.36026
 C1294 C 0.81751 0.81264 0.34296
 C1295 C 0.78698 0.78467 0.44048
 C1296 C 0.77983 0.77877 0.45641
 H1297 H 0.80200 0.82059 0.44876
 H1298 H 0.81778 0.85442 0.44258
 H1299 H 0.82900 0.86447 0.40803
 H1300 H 0.82449 0.84078 0.37942
 H1301 H 0.80026 0.77155 0.35250
 H1302 H 0.78472 0.73770 0.35870
 H1303 H 0.77364 0.72758 0.39325
 H1304 H 0.77790 0.75128 0.42176
 C1305 C 0.70573 0.28966 0.57977
 C1306 C 0.69798 0.31011 0.58219
 C1307 C 0.69166 0.31714 0.60175
 C1308 C 0.69314 0.30368 0.61876
 C1309 C 0.70060 0.28312 0.61627
 C1310 C 0.70690 0.27608 0.59673
 C1311 C 0.71441 0.25548 0.59467
 C1312 C 0.71565 0.24223 0.61141
 C1313 C 0.70953 0.24913 0.63053
 C1314 C 0.70206 0.26931 0.63302
 C1315 C 0.68406 0.33768 0.60383
 C1316 C 0.68277 0.35090 0.58706
 C1317 C 0.68898 0.34403 0.56794
 C1318 C 0.69651 0.32387 0.56544
 C1319 C 0.68745 0.31103 0.63889
 C1320 C 0.68305 0.31679 0.65583
 C1321 C 0.71326 0.28268 0.56011
 C1322 C 0.72032 0.27600 0.54444
 H1323 H 0.71942 0.24937 0.58013
 H1324 H 0.72149 0.22656 0.60956
 H1325 H 0.71057 0.23880 0.64351
 H1326 H 0.69744 0.27392 0.64819
 H1327 H 0.67904 0.34371 0.61840
 H1328 H 0.67693 0.36657 0.58892
 H1329 H 0.68795 0.35437 0.55497
 H1330 H 0.70113 0.31920 0.55028
 C1331 C 0.70594 0.78993 1.08001
 C1332 C 0.71752 0.78601 1.09792
 C1333 C 0.71010 0.79304 1.11708
 C1334 C 0.69116 0.80399 1.11823
 C1335 C 0.67956 0.80788 1.10034
 C1336 C 0.68699 0.80083 1.08117
 C1337 C 0.67515 0.80487 1.06350
 C1338 C 0.65647 0.81557 1.06474
 C1339 C 0.64920 0.82244 1.08348
 C1340 C 0.66056 0.81869 1.10114
 C1341 C 0.72192 0.78887 1.13477
 C1342 C 0.74055 0.77811 1.13356
 C1343 C 0.74786 0.77131 1.11483
 C1344 C 0.73652 0.77510 1.09718
 C1345 C 0.68371 0.81118 1.13786
 C1346 C 0.67806 0.81688 1.15444
 C1347 C 0.71359 0.78242 1.06058
 C1348 C 0.72091 0.77545 1.04516
 H1349 H 0.68019 0.79982 1.04859
 H1350 H 0.64759 0.81853 1.05107
 H1351 H 0.63468 0.83073 1.08436
 H1352 H 0.65428 0.82434 1.11538
 H1353 H 0.71691 0.79387 1.14971
 H1354 H 0.74936 0.77503 1.14725
 H1355 H 0.76235 0.76296 1.11397
 H1356 H 0.74285 0.76939 1.08300
 C1357 C 0.20268 0.29080 1.07550
 C1358 C 0.20997 0.30999 1.08332
 C1359 C 0.20265 0.31736 1.10241
 C1360 C 0.18814 0.30547 1.11357
 C1361 C 0.18009 0.28682 1.10528
 C1362 C 0.18738 0.27946 1.08618
 C1363 C 0.17929 0.26064 1.07831
 C1364 C 0.16438 0.24943 1.08899
 C1365 C 0.15724 0.25665 1.10766
 C1366 C 0.16497 0.27511 1.11580
 C1367 C 0.21029 0.33648 1.11002
 C1368 C 0.22475 0.34800 1.09910
 C1369 C 0.23194 0.34077 1.08045
 C1370 C 0.22469 0.32199 1.07258
 C1371 C 0.18250 0.31174 1.13407
 C1372 C 0.17842 0.31658 1.15134
 C1373 C 0.21185 0.28208 1.05721
 C1374 C 0.22000 0.27436 1.04253
 H1375 H 0.18430 0.25444 1.06381
 H1376 H 0.15832 0.23509 1.08273
 H1377 H 0.14564 0.24790 1.11588
 H1378 H 0.15889 0.28013 1.13034
 H1379 H 0.20508 0.34277 1.12441
 H1380 H 0.23040 0.36262 1.10512
 H1381 H 0.24318 0.34978 1.07201
 H1382 H 0.23067 0.31704 1.05798
 C1383 C 0.20321 0.79553 0.57571
 C1384 C 0.21169 0.81370 0.58462
 C1385 C 0.20370 0.82129 0.60336
 C1386 C 0.18731 0.81063 0.61308
 C1387 C 0.17818 0.79305 0.60370
 C1388 C 0.18617 0.78546 0.58496
 C1389 C 0.17697 0.76769 0.57600
 C1390 C 0.16032 0.75774 0.58527
 C1391 C 0.15250 0.76518 0.60358
 C1392 C 0.16128 0.78261 0.61278
 C1393 C 0.21255 0.83935 0.61209
 C1394 C 0.22884 0.84964 0.60258
 C1395 C 0.23668 0.84221 0.58427
 C1396 C 0.22828 0.82444 0.57533
 C1397 C 0.18073 0.81698 0.63328
 C1398 C 0.17584 0.82188 0.65033
 C1399 C 0.21281 0.78646 0.55780
 C1400 C 0.22123 0.77840 0.54345
 H1401 H 0.18248 0.76136 0.56173
 H1402 H 0.15344 0.74419 0.57819
 H1403 H 0.13955 0.75741 0.61071
 H1404 H 0.15465 0.78786 0.62700
 H1405 H 0.20692 0.84576 0.62628
 H1406 H 0.23540 0.86347 0.60945
 H1407 H 0.24934 0.85025 0.57693
 H1408 H 0.23485 0.81928 0.56105
 C1409 C 0.29892 0.70457 0.57617
 C1410 C 0.31470 0.71553 0.58655
 C1411 C 0.32203 0.70814 0.60563
 C1412 C 0.31351 0.68984 0.61420
 C1413 C 0.29849 0.67830 0.60333
 C1414 C 0.29118 0.68568 0.58424
 C1415 C 0.27596 0.67403 0.57377
 C1416 C 0.26821 0.65559 0.58192
 C1417 C 0.27536 0.64838 0.60059
 C1418 C 0.29032 0.65956 0.61124
 C1419 C 0.33762 0.71951 0.61587
 C1420 C 0.34577 0.73766 0.60748
 C1421 C 0.33859 0.74490 0.58883
 C1422 C 0.32323 0.73403 0.57842
 C1423 C 0.31920 0.68368 0.63472
 C1424 C 0.32345 0.67911 0.65203
 C1425 C 0.28959 0.71348 0.55804
 C1426 C 0.28123 0.72134 0.54356
 H1427 H 0.26997 0.67898 0.55916
 H1428 H 0.25658 0.64685 0.57371
 H1429 H 0.26928 0.63407 0.60686
 H1430 H 0.29546 0.65332 0.62567
 H1431 H 0.34371 0.71447 0.63039
 H1432 H 0.35770 0.74616 0.61551
 H1433 H 0.34496 0.75901 0.58238
 H1434 H 0.31819 0.74023 0.56393
 C1435 C 0.29687 0.19843 1.07229
 C1436 C 0.31536 0.20681 1.08038
 C1437 C 0.32321 0.19925 1.09919
 C1438 C 0.31248 0.18342 1.10980
 C1439 C 0.29461 0.17428 1.10118
 C1440 C 0.28678 0.18181 1.08236
 C1441 C 0.26871 0.17263 1.07417
 C1442 C 0.25871 0.15645 1.08429
 C1443 C 0.26639 0.14908 1.10270
 C1444 C 0.28412 0.15786 1.11113
 C1445 C 0.34160 0.20800 1.10711
 C1446 C 0.35194 0.22379 1.09675
 C1447 C 0.34423 0.23123 1.07838
 C1448 C 0.32615 0.22290 1.07022
 C1449 C 0.31898 0.17758 1.13016
 C1450 C 0.32393 0.17333 1.14736
 C1451 C 0.28742 0.20790 1.05451
 C1452 C 0.27906 0.21635 1.04034
 H1453 H 0.26220 0.17779 1.05986
 H1454 H 0.24493 0.14958 1.07781
 H1455 H 0.25858 0.13651 1.11050
 H1456 H 0.28955 0.15159 1.12545
 H1457 H 0.34822 0.20265 1.12130
 H1458 H 0.36600 0.23028 1.10301
 H1459 H 0.35231 0.24351 1.07039
 H1460 H 0.32080 0.22912 1.05585
 C1461 C 0.78999 0.70802 1.08432
 C1462 C 0.81023 0.70055 1.08790
 C1463 C 0.81636 0.69489 1.10795
 C1464 C 0.80220 0.69671 1.12428
 C1465 C 0.78192 0.70409 1.12068
 C1466 C 0.77579 0.70973 1.10065
 C1467 C 0.75543 0.71712 1.09746
 C1468 C 0.74157 0.71889 1.11358
 C1469 C 0.74759 0.71345 1.13317
 C1470 C 0.76750 0.70610 1.13676
 C1471 C 0.83672 0.68761 1.11120
 C1472 C 0.85062 0.68594 1.09510
 C1473 C 0.84462 0.69145 1.07550
 C1474 C 0.82466 0.69869 1.07185
 C1475 C 0.80847 0.69130 1.14483
 C1476 C 0.81330 0.68706 1.16208
 C1477 C 0.78379 0.71471 1.06411
 C1478 C 0.77759 0.72110 1.04797
 H1479 H 0.75000 0.72165 1.08253
 H1480 H 0.72610 0.72465 1.11086
 H1481 H 0.73679 0.71493 1.14565
 H1482 H 0.77144 0.70204 1.15227
 H1483 H 0.84210 0.68315 1.12619
 H1484 H 0.86614 0.68035 1.09785
 H1485 H 0.85548 0.69013 1.06304
 H1486 H 0.82068 0.70278 1.05636
 C1487 C 0.79113 0.20855 0.58085
 C1488 C 0.80364 0.19060 0.58279
 C1489 C 0.81056 0.18418 0.60235
 C1490 C 0.80494 0.19576 0.61984
 C1491 C 0.79253 0.21380 0.61789
 C1492 C 0.78562 0.22022 0.59834
 C1493 C 0.77325 0.23835 0.59679
 C1494 C 0.76796 0.24981 0.61403
 C1495 C 0.77466 0.24348 0.63314
 C1496 C 0.78680 0.22570 0.63514
 C1497 C 0.82303 0.16617 0.60393
 C1498 C 0.82852 0.15485 0.58665
 C1499 C 0.82175 0.16114 0.56753
 C1500 C 0.80944 0.17880 0.56553
 C1501 C 0.81182 0.18922 0.63988
 C1502 C 0.81725 0.18425 0.65677
 C1503 C 0.78368 0.21509 0.56102
 C1504 C 0.77675 0.22146 0.54517
 H1505 H 0.76756 0.24390 0.58228
 H1506 H 0.75855 0.26366 0.61254
 H1507 H 0.77045 0.25241 0.64649
 H1508 H 0.79166 0.22145 0.65035
 H1509 H 0.82867 0.16068 0.61848
 H1510 H 0.83808 0.14111 0.58812
 H1511 H 0.82607 0.15229 0.55416
 H1512 H 0.80455 0.18312 0.55034
 C1513 C 0.70772 0.71115 0.42178
 C1514 C 0.71269 0.72255 0.40397
 C1515 C 0.70579 0.71541 0.38465
 C1516 C 0.69394 0.69694 0.38324
 C1517 C 0.68881 0.68566 0.40106
 C1518 C 0.69573 0.69279 0.42040
 C1519 C 0.69045 0.68126 0.43799
 C1520 C 0.67866 0.66317 0.43653
 C1521 C 0.67190 0.65618 0.41762
 C1522 C 0.67687 0.66724 0.40004
 C1523 C 0.71101 0.72703 0.36707
 C1524 C 0.72266 0.74520 0.36853
 C1525 C 0.72933 0.75224 0.38742
 C1526 C 0.72452 0.74108 0.40498
 C1527 C 0.68721 0.68956 0.36342
 C1528 C 0.68193 0.68384 0.34672
 C1529 C 0.71533 0.71831 0.44136
 C1530 C 0.72243 0.72509 0.45698
 H1531 H 0.69534 0.68612 0.45302
 H1532 H 0.67474 0.65454 0.45014
 H1533 H 0.66275 0.64212 0.41657
 H1534 H 0.67124 0.66121 0.38568
 H1535 H 0.70613 0.72223 0.35202
 H1536 H 0.72651 0.75388 0.35492
 H1537 H 0.73837 0.76638 0.38848
 H1538 H 0.73016 0.74719 0.41930
 C1539 C 0.70849 0.21228 -0.08046
 C1540 C 0.69722 0.19357 -0.08285
 C1541 C 0.69081 0.18711 -0.10259
 C1542 C 0.69573 0.19942 -0.11981
 C1543 C 0.70682 0.21826 -0.11738
 C1544 C 0.71320 0.22472 -0.09766
 C1545 C 0.72427 0.24364 -0.09564
 C1546 C 0.72885 0.25583 -0.11258
 C1547 C 0.72271 0.24946 -0.13187
 C1548 C 0.71181 0.23092 -0.13433
 C1549 C 0.67961 0.16831 -0.10462
 C1550 C 0.67485 0.15624 -0.08762
 C1551 C 0.68112 0.16257 -0.06832
 C1552 C 0.69219 0.18100 -0.06588
 C1553 C 0.68963 0.19271 -0.14006
 C1554 C 0.68495 0.18762 -0.15714
 C1555 C 0.71575 0.21872 -0.06049
 C1556 C 0.72266 0.22506 -0.04461
 H1557 H 0.72949 0.24926 -0.08098
 H1558 H 0.73730 0.27025 -0.11073
 H1559 H 0.72638 0.25894 -0.14500
 H1560 H 0.70733 0.22668 -0.14965
 H1561 H 0.67440 0.16277 -0.11931
 H1562 H 0.66626 0.14191 -0.08943
 H1563 H 0.67737 0.15314 -0.05518
 H1564 H 0.69673 0.18531 -0.05058
 C1565 C 0.20794 0.71201 -0.07930
 C1566 C 0.19360 0.69544 -0.08065
 C1567 C 0.18699 0.68824 -0.10007
 C1568 C 0.19479 0.69764 -0.11798
 C1569 C 0.20907 0.71428 -0.11662
 C1570 C 0.21566 0.72150 -0.09722
 C1571 C 0.22993 0.73819 -0.09626
 C1572 C 0.23739 0.74752 -0.11394
 C1573 C 0.23099 0.74041 -0.13290
 C1574 C 0.21701 0.72399 -0.13432
 C1575 C 0.17263 0.67166 -0.10106
 C1576 C 0.16502 0.66246 -0.08338
 C1577 C 0.17150 0.66950 -0.06440
 C1578 C 0.18564 0.68580 -0.06296
 C1579 C 0.18819 0.69028 -0.13784
 C1580 C 0.18300 0.68455 -0.15456
 C1581 C 0.21504 0.71932 -0.05959
 C1582 C 0.22180 0.72612 -0.04384
 H1583 H 0.23544 0.74427 -0.08189
 H1584 H 0.24818 0.76035 -0.11291
 H1585 H 0.23688 0.74768 -0.14659
 H1586 H 0.21248 0.71905 -0.14943
 H1587 H 0.16713 0.66566 -0.11548
 H1588 H 0.15404 0.64980 -0.08441
 H1589 H 0.16556 0.66228 -0.05071
 H1590 H 0.19023 0.69076 -0.04787
 C1591 C 0.20802 0.20579 0.42227
 C1592 C 0.22228 0.19799 0.40780
 C1593 C 0.21518 0.19095 0.38852
 C1594 C 0.19387 0.19187 0.38375
 C1595 C 0.17955 0.19913 0.39840
 C1596 C 0.18665 0.20609 0.41773
 C1597 C 0.17207 0.21342 0.43207
 C1598 C 0.15107 0.21386 0.42746
 C1599 C 0.14413 0.20706 0.40855
 C1600 C 0.15815 0.19977 0.39412
 C1601 C 0.22974 0.18327 0.37429
 C1602 C 0.25072 0.18267 0.37895
 C1603 C 0.25768 0.18965 0.39777
 C1604 C 0.24371 0.19724 0.41209
 C1605 C 0.18691 0.18606 0.36352
 C1606 C 0.18178 0.18140 0.34646
 C1607 C 0.21559 0.21455 0.44124
 C1608 C 0.22280 0.22239 0.45633
 H1609 H 0.17675 0.21884 0.44699
 H1610 H 0.14012 0.21950 0.43861
 H1611 H 0.12780 0.20743 0.40503
 H1612 H 0.15203 0.19462 0.37963
 H1613 H 0.22508 0.17762 0.35945
 H1614 H 0.26163 0.17676 0.36789
 H1615 H 0.27400 0.18920 0.40131
 H1616 H 0.24989 0.20245 0.42653
 C1617 C 0.29559 0.42332 0.70418
 C1618 C 0.31295 0.41383 0.71343
 C1619 C 0.32055 0.39460 0.70580
 C1620 C 0.31074 0.38499 0.68898
 C1621 C 0.29407 0.39502 0.67908
 C1622 C 0.28646 0.41425 0.68670
 C1623 C 0.26963 0.42387 0.67669
 C1624 C 0.26061 0.41477 0.65959
 C1625 C 0.26805 0.39596 0.65213
 C1626 C 0.28457 0.38612 0.66172
 C1627 C 0.33779 0.38528 0.71541
 C1628 C 0.34728 0.39473 0.73208
 C1629 C 0.33985 0.41353 0.73955
 C1630 C 0.32286 0.42303 0.73041
 C1631 C 0.31698 0.36431 0.68262
 C1632 C 0.32162 0.34685 0.67767
 C1633 C 0.28637 0.44164 0.71339
 C1634 C 0.27834 0.45635 0.72158
 H1635 H 0.26336 0.43854 0.68189
 H1636 H 0.24779 0.42238 0.65207
 H1637 H 0.26101 0.38897 0.63882
 H1638 H 0.28988 0.37156 0.65532
 H1639 H 0.34417 0.37069 0.71010
 H1640 H 0.36049 0.38742 0.73921
 H1641 H 0.34729 0.42082 0.75248
 H1642 H 0.31768 0.43769 0.73671
 C1643 C 0.29149 0.91641 0.21184
 C1644 C 0.28563 0.89824 0.22262
 C1645 C 0.29237 0.87839 0.21578
 C1646 C 0.30494 0.87681 0.19821
 C1647 C 0.31089 0.89497 0.18750
 C1648 C 0.30413 0.91484 0.19434
 C1649 C 0.31021 0.93277 0.18337
 C1650 C 0.32263 0.93113 0.16613
 C1651 C 0.32926 0.91172 0.15944
 C1652 C 0.32351 0.89379 0.16995
 C1653 C 0.28629 0.86047 0.22680
 C1654 C 0.27394 0.86211 0.24410
 C1655 C 0.26740 0.88151 0.25082
 C1656 C 0.27306 0.89941 0.24025
 C1657 C 0.31159 0.85647 0.19116
 C1658 C 0.31682 0.83935 0.18565
 C1659 C 0.28427 0.93657 0.21884
 C1660 C 0.27756 0.95269 0.22549
 H1661 H 0.30544 0.94819 0.18801
 H1662 H 0.32714 0.94501 0.15791
 H1663 H 0.33892 0.91054 0.14604
 H1664 H 0.32905 0.87903 0.16418
 H1665 H 0.29101 0.84502 0.22221
 H1666 H 0.26946 0.84824 0.25235
 H1667 H 0.25785 0.88271 0.26430
 H1668 H 0.26750 0.91413 0.24608
 C1669 C 0.79610 0.42567 0.20285
 C1670 C 0.81429 0.41697 0.21127
 C1671 C 0.82225 0.39800 0.20339
 C1672 C 0.81196 0.38784 0.18716
 C1673 C 0.79441 0.39709 0.17805
 C1674 C 0.78646 0.41608 0.18591
 C1675 C 0.76876 0.42492 0.17671
 C1676 C 0.75919 0.41529 0.16019
 C1677 C 0.76695 0.39671 0.15251
 C1678 C 0.78435 0.38763 0.16129
 C1679 C 0.84030 0.38946 0.21219
 C1680 C 0.85023 0.39939 0.22833
 C1681 C 0.84243 0.41794 0.23605
 C1682 C 0.82467 0.42669 0.22768
 C1683 C 0.81861 0.36728 0.18075
 C1684 C 0.82363 0.34990 0.17593
 C1685 C 0.78655 0.44359 0.21248
 C1686 C 0.77821 0.45791 0.22103
 H1687 H 0.76220 0.43939 0.18211
 H1688 H 0.74567 0.42228 0.15331
 H1689 H 0.75946 0.38928 0.13968
 H1690 H 0.78986 0.37321 0.15477
 H1691 H 0.84698 0.37511 0.20664
 H1692 H 0.86404 0.39267 0.23486
 H1693 H 0.85020 0.42560 0.24858
 H1694 H 0.81923 0.44119 0.23414
 C1695 C 0.79782 0.92451 0.70685
 C1696 C 0.81387 0.91378 0.71706
 C1697 C 0.82141 0.89467 0.70909
 C1698 C 0.81287 0.88642 0.69095
 C1699 C 0.79751 0.89763 0.68024
 C1700 C 0.78995 0.91673 0.68822
 C1701 C 0.77439 0.92752 0.67738
 C1702 C 0.76655 0.91968 0.65915
 C1703 C 0.77397 0.90102 0.65133
 C1704 C 0.78926 0.89005 0.66170
 C1705 C 0.83726 0.88407 0.71970
 C1706 C 0.84548 0.89215 0.73765
 C1707 C 0.83812 0.91085 0.74545
 C1708 C 0.82249 0.92160 0.73534
 C1709 C 0.81901 0.86590 0.68397
 C1710 C 0.82363 0.84856 0.67860
 C1711 C 0.78851 0.94273 0.71617
 C1712 C 0.78030 0.95735 0.72434
 H1713 H 0.76818 0.94213 0.68282
 H1714 H 0.75467 0.92815 0.65104
 H1715 H 0.76786 0.89501 0.63716
 H1716 H 0.79459 0.87563 0.65501
 H1717 H 0.84349 0.86949 0.71422
 H1718 H 0.85762 0.88386 0.74556
 H1719 H 0.84456 0.91707 0.75940
 H1720 H 0.81730 0.93611 0.74197
 C1721 C 0.70254 0.57947 0.70405
 C1722 C 0.68560 0.58938 0.71363
 C1723 C 0.67801 0.60855 0.70588
 C1724 C 0.68739 0.61771 0.68860
 C1725 C 0.70382 0.60743 0.67857
 C1726 C 0.71141 0.58823 0.68630
 C1727 C 0.72798 0.57834 0.67613
 C1728 C 0.73681 0.58715 0.65881
 C1729 C 0.72941 0.60594 0.65127
 C1730 C 0.71312 0.61603 0.66098
 C1731 C 0.66122 0.61829 0.71586
 C1732 C 0.65218 0.60933 0.73299
 C1733 C 0.65961 0.59057 0.74057
 C1734 C 0.67613 0.58065 0.73107
 C1735 C 0.68088 0.63819 0.68183
 C1736 C 0.67585 0.65548 0.67668
 C1737 C 0.71159 0.56100 0.71312
 C1738 C 0.71953 0.54611 0.72109
 H1739 H 0.73423 0.56368 0.68140
 H1740 H 0.74946 0.57937 0.65121
 H1741 H 0.73634 0.61273 0.63783
 H1742 H 0.70787 0.63060 0.65454
 H1743 H 0.65491 0.63288 0.71052
 H1744 H 0.63936 0.61699 0.74044
 H1745 H 0.65254 0.58367 0.75389
 H1746 H 0.68133 0.56606 0.73750
 C1747 C 0.70638 0.07629 0.20431
 C1748 C 0.68692 0.08409 0.21050
 C1749 C 0.67958 0.10327 0.20251
 C1750 C 0.69177 0.11457 0.18846
 C1751 C 0.71086 0.10639 0.18167
 C1752 C 0.71819 0.08719 0.18962
 C1753 C 0.73742 0.07943 0.18276
 C1754 C 0.74906 0.09032 0.16844
 C1755 C 0.74190 0.10910 0.16069
 C1756 C 0.72303 0.11713 0.16718
 C1757 C 0.66014 0.11083 0.20901
 C1758 C 0.64830 0.09977 0.22303
 C1759 C 0.65551 0.08105 0.23089
 C1760 C 0.67459 0.07322 0.22476
 C1761 C 0.68524 0.13507 0.18180
 C1762 C 0.68019 0.15236 0.17671
 C1763 C 0.71477 0.05772 0.21381
 C1764 C 0.72223 0.04274 0.22206
 H1765 H 0.74363 0.06487 0.18832
 H1766 H 0.76373 0.08415 0.16335
 H1767 H 0.75100 0.11751 0.14958
 H1768 H 0.71809 0.13178 0.16067
 H1769 H 0.65387 0.12528 0.20326
 H1770 H 0.63346 0.10577 0.22782
 H1771 H 0.64627 0.07252 0.24180
 H1772 H 0.67953 0.05857 0.23125
 C1773 C 0.20488 0.57555 0.20171
 C1774 C 0.18571 0.58344 0.20864
 C1775 C 0.17850 0.60301 0.20150
 C1776 C 0.19052 0.61458 0.18751
 C1777 C 0.20925 0.60630 0.17993
 C1778 C 0.21646 0.58673 0.18706
 C1779 C 0.23538 0.57890 0.17948
 C1780 C 0.24683 0.59008 0.16522
 C1781 C 0.23976 0.60920 0.15822
 C1782 C 0.22120 0.61731 0.16545
 C1783 C 0.15941 0.61069 0.20879
 C1784 C 0.14776 0.59937 0.22277
 C1785 C 0.15482 0.58024 0.22977
 C1786 C 0.17357 0.57229 0.22284
 C1787 C 0.18420 0.63544 0.18178
 C1788 C 0.17925 0.65299 0.17749
 C1789 C 0.21337 0.55675 0.21068
 C1790 C 0.22094 0.54172 0.21872
 H1791 H 0.24148 0.56406 0.18442
 H1792 H 0.26125 0.58385 0.15956
 H1793 H 0.24869 0.61781 0.14713
 H1794 H 0.21631 0.63223 0.15952
 H1795 H 0.15326 0.62545 0.20372
 H1796 H 0.13318 0.60547 0.22816
 H1797 H 0.14572 0.57149 0.24062
 H1798 H 0.17839 0.55730 0.22867
 C1799 C 0.20568 0.08123 0.70329
 C1800 C 0.22015 0.09559 0.69529
 C1801 C 0.21335 0.11526 0.68801
 C1802 C 0.19213 0.12046 0.68881
 C1803 C 0.17759 0.10590 0.69631
 C1804 C 0.18439 0.08622 0.70359
 C1805 C 0.16962 0.07202 0.71125
 C1806 C 0.14870 0.07711 0.71172
 C1807 C 0.14205 0.09635 0.70459
 C1808 C 0.15626 0.11063 0.69694
 C1809 C 0.22813 0.12943 0.68026
 C1810 C 0.24903 0.12434 0.67974
 C1811 C 0.25569 0.10512 0.68687
 C1812 C 0.24150 0.09086 0.69457
 C1813 C 0.18543 0.14113 0.68282
 C1814 C 0.18016 0.15853 0.67834
 C1815 C 0.21296 0.06189 0.71219
 C1816 C 0.21986 0.04644 0.72006
 H1817 H 0.17407 0.05686 0.71692
 H1818 H 0.13760 0.06607 0.71763
 H1819 H 0.12579 0.10024 0.70497
 H1820 H 0.15036 0.12536 0.69150
 H1821 H 0.22370 0.14456 0.67450
 H1822 H 0.26012 0.13537 0.67377
 H1823 H 0.27195 0.10123 0.68643
 H1824 H 0.24745 0.07610 0.69991
 C1825 C 0.29000 0.57789 0.29299
 C1826 C 0.30648 0.57836 0.30715
 C1827 C 0.31374 0.59775 0.31478
 C1828 C 0.30448 0.61653 0.30818
 C1829 C 0.28786 0.61605 0.29416
 C1830 C 0.28063 0.59668 0.28652
 C1831 C 0.26407 0.59662 0.27240
 C1832 C 0.25492 0.61514 0.26606
 C1833 C 0.26197 0.63407 0.27358
 C1834 C 0.27824 0.63461 0.28746
 C1835 C 0.33026 0.59786 0.32889
 C1836 C 0.33936 0.57933 0.33528
 C1837 C 0.33227 0.56037 0.32781
 C1838 C 0.31602 0.55980 0.31390
 C1839 C 0.31221 0.63642 0.31541
 C1840 C 0.31833 0.65327 0.32082
 C1841 C 0.28261 0.55824 0.28483
 C1842 C 0.27570 0.54262 0.27728
 H1843 H 0.25799 0.58231 0.26611
 H1844 H 0.24228 0.61479 0.25526
 H1845 H 0.25479 0.64841 0.26863
 H1846 H 0.28314 0.64973 0.29288
 H1847 H 0.33628 0.61222 0.33513
 H1848 H 0.35197 0.57969 0.34611
 H1849 H 0.33940 0.54603 0.33284
 H1850 H 0.31101 0.54470 0.30852
 C1851 C 0.29109 0.08246 0.78970
 C1852 C 0.29146 0.09928 0.77575
 C1853 C 0.29851 0.11917 0.78218
 C1854 C 0.30513 0.12215 0.80253
 C1855 C 0.30508 0.10528 0.81639
 C1856 C 0.29805 0.08535 0.80994
 C1857 C 0.29804 0.06875 0.82407
 C1858 C 0.30480 0.07172 0.84402
 C1859 C 0.31165 0.09120 0.85033
 C1860 C 0.31181 0.10785 0.83674
 C1861 C 0.29861 0.13576 0.76799
 C1862 C 0.29192 0.13280 0.74802
 C1863 C 0.28502 0.11336 0.74173
 C1864 C 0.28476 0.09675 0.75535
 C1865 C 0.31141 0.14274 0.80925
 C1866 C 0.31618 0.16010 0.81443
 C1867 C 0.28288 0.06251 0.78318
 C1868 C 0.27544 0.04665 0.77664
 H1869 H 0.29286 0.05333 0.81984
 H1870 H 0.30471 0.05885 0.85465
 H1871 H 0.31687 0.09344 0.86584
 H1872 H 0.31728 0.12271 0.84234
 H1873 H 0.30385 0.15119 0.77214
 H1874 H 0.29211 0.14566 0.73738
 H1875 H 0.27984 0.11114 0.72621
 H1876 H 0.27927 0.08194 0.74967
 C1877 C 0.79482 0.57505 0.79923
 C1878 C 0.81392 0.58278 0.79196
 C1879 C 0.82229 0.60140 0.80026
 C1880 C 0.81146 0.61219 0.81571
 C1881 C 0.79299 0.60383 0.82380
 C1882 C 0.78461 0.58521 0.81551
 C1883 C 0.76596 0.57731 0.82364
 C1884 C 0.75593 0.58746 0.83957
 C1885 C 0.76416 0.60564 0.84771
 C1886 C 0.78246 0.61382 0.83995
 C1887 C 0.84133 0.60892 0.79268
 C1888 C 0.85181 0.59837 0.77730
 C1889 C 0.84359 0.58020 0.76913
 C1890 C 0.82486 0.57244 0.77630
 C1891 C 0.81851 0.63258 0.82223
 C1892 C 0.82389 0.64984 0.82709
 C1893 C 0.78509 0.55745 0.78918
 C1894 C 0.77668 0.54334 0.78035
 H1895 H 0.75901 0.56317 0.81785
 H1896 H 0.74170 0.58118 0.84564
 H1897 H 0.75633 0.61345 0.86011
 H1898 H 0.78831 0.62795 0.84681
 H1899 H 0.84838 0.62292 0.79866
 H1900 H 0.86639 0.60431 0.77173
 H1901 H 0.85179 0.57205 0.75718
 H1902 H 0.81912 0.55821 0.76952
 C1903 C 0.79636 0.07208 0.29973
 C1904 C 0.81490 0.08051 0.29182
 C1905 C 0.82273 0.09956 0.29968
 C1906 C 0.81195 0.11006 0.31536
 C1907 C 0.79401 0.10109 0.32398
 C1908 C 0.78619 0.08202 0.31615
 C1909 C 0.76809 0.07347 0.32484
 C1910 C 0.75800 0.08347 0.34083
 C1911 C 0.76564 0.10213 0.34847
 C1912 C 0.78342 0.11092 0.34019
 C1913 C 0.84115 0.10783 0.29139
 C1914 C 0.85156 0.09758 0.27577
 C1915 C 0.84390 0.07895 0.26807
 C1916 C 0.82577 0.07045 0.27594
 C1917 C 0.81852 0.13068 0.32166
 C1918 C 0.82350 0.14810 0.32638
 C1919 C 0.78697 0.05409 0.29004
 C1920 C 0.77867 0.03976 0.28147
 H1921 H 0.76161 0.05895 0.31945
 H1922 H 0.74419 0.07669 0.34733
 H1923 H 0.75774 0.10984 0.36089
 H1924 H 0.78880 0.12542 0.34666
 H1925 H 0.84775 0.12222 0.29696
 H1926 H 0.86565 0.10410 0.26964
 H1927 H 0.85205 0.07103 0.25595
 H1928 H 0.82045 0.05590 0.26951
 C1929 C 0.70389 0.42260 0.29747
 C1930 C 0.71469 0.41218 0.31321
 C1931 C 0.70709 0.39296 0.32087
 C1932 C 0.68873 0.38432 0.31278
 C1933 C 0.67741 0.39523 0.29776
 C1934 C 0.68504 0.41441 0.29004
 C1935 C 0.67361 0.42488 0.27479
 C1936 C 0.65512 0.41667 0.26744
 C1937 C 0.64763 0.39795 0.27505
 C1938 C 0.65859 0.38728 0.29002
 C1939 C 0.71829 0.38268 0.33641
 C1940 C 0.73644 0.39118 0.34422
 C1941 C 0.74386 0.40998 0.33675
 C1942 C 0.73318 0.42042 0.32141
 C1943 C 0.68213 0.36371 0.31909
 C1944 C 0.67705 0.34634 0.32388
 C1945 C 0.71281 0.44100 0.28812
 C1946 C 0.72072 0.45580 0.27998
 H1947 H 0.67878 0.43953 0.26847
 H1948 H 0.64656 0.42490 0.25580
 H1949 H 0.63323 0.39167 0.26934
 H1950 H 0.65212 0.37282 0.29554
 H1951 H 0.71310 0.36804 0.34273
 H1952 H 0.74478 0.38313 0.35613
 H1953 H 0.75797 0.41652 0.34286
 H1954 H 0.73953 0.43504 0.31612
 C1955 C 0.70630 0.92450 0.80085
 C1956 C 0.71774 0.91317 0.81549
 C1957 C 0.71008 0.89387 0.82289
 C1958 C 0.69104 0.88604 0.81557
 C1959 C 0.67912 0.89785 0.80168
 C1960 C 0.68679 0.91714 0.79428
 C1961 C 0.67475 0.92854 0.78018
 C1962 C 0.65565 0.92111 0.77360
 C1963 C 0.64815 0.90224 0.78087
 C1964 C 0.65969 0.89068 0.79475
 C1965 C 0.72189 0.88267 0.83734
 C1966 C 0.74075 0.89034 0.84430
 C1967 C 0.74825 0.90921 0.83706
 C1968 C 0.73695 0.92055 0.82282
 C1969 C 0.68434 0.86532 0.82137
 C1970 C 0.67917 0.84784 0.82567
 C1971 C 0.71523 0.94290 0.79152
 C1972 C 0.72312 0.95761 0.78321
 H1973 H 0.67991 0.94334 0.77417
 H1974 H 0.64662 0.93004 0.76283
 H1975 H 0.63330 0.89654 0.77574
 H1976 H 0.65318 0.87616 0.80005
 H1977 H 0.71666 0.86796 0.84347
 H1978 H 0.74958 0.88159 0.85537
 H1979 H 0.76291 0.91510 0.84252
 H1980 H 0.74339 0.93519 0.81769
 C1981 C 0.20384 0.42453 0.79772
 C1982 C 0.21470 0.41408 0.81340
 C1983 C 0.20727 0.39473 0.82090
 C1984 C 0.18900 0.38598 0.81271
 C1985 C 0.17756 0.39697 0.79782
 C1986 C 0.18502 0.41629 0.79027
 C1987 C 0.17351 0.42681 0.77512
 C1988 C 0.15510 0.41850 0.76769
 C1989 C 0.14777 0.39964 0.77511
 C1990 C 0.15882 0.38892 0.79000
 C1991 C 0.21855 0.38441 0.83635
 C1992 C 0.23666 0.39297 0.84419
 C1993 C 0.24393 0.41190 0.83686
 C1994 C 0.23315 0.42240 0.82164
 C1995 C 0.18277 0.36513 0.81856
 C1996 C 0.17798 0.34751 0.82278
 C1997 C 0.21282 0.44286 0.78830
 C1998 C 0.22093 0.45749 0.78004
 H1999 H 0.17855 0.44157 0.76895
 H2000 H 0.14646 0.42677 0.75612
 H2001 H 0.13345 0.39327 0.76933
 H2002 H 0.15248 0.37435 0.79538
 H2003 H 0.21346 0.36968 0.84258
 H2004 H 0.24510 0.38488 0.85601
 H2005 H 0.25800 0.41849 0.84300
 H2006 H 0.23937 0.43711 0.81648
 C2007 C 0.20830 0.91815 0.29481
 C2008 C 0.20796 0.90129 0.28090
 C2009 C 0.20107 0.88138 0.28740
 C2010 C 0.19455 0.87842 0.30778
 C2011 C 0.19476 0.89530 0.32165
 C2012 C 0.20164 0.91524 0.31514
 C2013 C 0.20175 0.93186 0.32927
 C2014 C 0.19528 0.92886 0.34930
 C2015 C 0.18858 0.90936 0.35568
 C2016 C 0.18828 0.89271 0.34207
 C2017 C 0.20096 0.86475 0.27323
 C2018 C 0.20749 0.86770 0.25323
 C2019 C 0.21420 0.88717 0.24685
 C2020 C 0.21448 0.90382 0.26045
 C2021 C 0.18792 0.85793 0.31442
 C2022 C 0.18263 0.84068 0.31944
 C2023 C 0.21608 0.93822 0.28812
 C2024 C 0.22317 0.95415 0.28141
 H2025 H 0.20681 0.94730 0.32499
 H2026 H 0.19546 0.94174 0.35993
 H2027 H 0.18359 0.90711 0.37125
 H2028 H 0.18293 0.87784 0.34772
 H2029 H 0.19583 0.84931 0.27743
 H2030 H 0.20734 0.85480 0.24262
 H2031 H 0.21930 0.88939 0.23131
 H2032 H 0.21989 0.91863 0.25473
 C2033 C 0.42150 0.29331 0.70567
 C2034 C 0.41994 0.31325 0.69665
 C2035 C 0.40056 0.32037 0.68921
 C2036 C 0.38289 0.30748 0.69081
 C2037 C 0.38449 0.28748 0.69973
 C2038 C 0.40385 0.28037 0.70717
 C2039 C 0.40503 0.26033 0.71610
 C2040 C 0.38760 0.24771 0.71764
 C2041 C 0.36867 0.25470 0.71043
 C2042 C 0.36704 0.27431 0.70154
 C2043 C 0.39933 0.34041 0.68039
 C2044 C 0.41675 0.35307 0.67895
 C2045 C 0.43569 0.34610 0.68620
 C2046 C 0.43736 0.32641 0.69496
 C2047 C 0.36296 0.31483 0.68369
 C2048 C 0.34611 0.32049 0.67817
 C2049 C 0.44102 0.28614 0.71398
 C2050 C 0.45654 0.27927 0.72155
 H2051 H 0.41938 0.25419 0.72200
 H2052 H 0.38879 0.23247 0.72457
 H2053 H 0.35516 0.24486 0.71173
 H2054 H 0.35197 0.27902 0.69613
 H2055 H 0.38493 0.34651 0.67453
 H2056 H 0.41553 0.36838 0.67217
 H2057 H 0.44918 0.35599 0.68504
 H2058 H 0.45241 0.32165 0.70038
 C2059 C 0.42096 0.79100 0.20633
 C2060 C 0.41145 0.80819 0.21603
 C2061 C 0.39179 0.81522 0.20933
 C2062 C 0.38176 0.80501 0.19297
 C2063 C 0.39174 0.78853 0.18259
 C2064 C 0.41141 0.78150 0.18929
 C2065 C 0.42098 0.76482 0.17886
 C2066 C 0.41141 0.75539 0.16224
 C2067 C 0.39216 0.76225 0.15568
 C2068 C 0.38235 0.77861 0.16571
 C2069 C 0.38244 0.83224 0.21943
 C2070 C 0.39228 0.84208 0.23567
 C2071 C 0.41151 0.83521 0.24224
 C2072 C 0.42105 0.81845 0.23260
 C2073 C 0.36074 0.81062 0.18766
 C2074 C 0.34304 0.81490 0.18376
 C2075 C 0.43970 0.78215 0.21482
 C2076 C 0.45469 0.77436 0.22258
 H2077 H 0.43597 0.75898 0.18338
 H2078 H 0.41896 0.74268 0.15440
 H2079 H 0.38480 0.75487 0.14276
 H2080 H 0.36741 0.78344 0.16004
 H2081 H 0.36751 0.83817 0.21485
 H2082 H 0.38493 0.85511 0.24320
 H2083 H 0.41908 0.84291 0.25487
 H2084 H 0.43603 0.81370 0.23822
 C2085 C 0.92341 0.29583 0.20467
 C2086 C 0.91489 0.28739 0.18660
 C2087 C 0.89613 0.29552 0.17867
 C2088 C 0.88599 0.31202 0.18888
 C2089 C 0.89495 0.32103 0.20646
 C2090 C 0.91374 0.31293 0.21436
 C2091 C 0.92231 0.32209 0.23206
 C2092 C 0.91259 0.33876 0.24168
 C2093 C 0.89420 0.34664 0.23397
 C2094 C 0.88541 0.33793 0.21657
 C2095 C 0.88779 0.28671 0.16070
 C2096 C 0.89771 0.27032 0.15083
 C2097 C 0.91605 0.26236 0.15859
 C2098 C 0.92462 0.27073 0.17627
 C2099 C 0.86582 0.31891 0.18197
 C2100 C 0.84878 0.32413 0.17661
 C2101 C 0.94136 0.28616 0.21397
 C2102 C 0.95578 0.27779 0.22221
 H2103 H 0.93662 0.31654 0.23860
 H2104 H 0.91937 0.34559 0.25519
 H2105 H 0.88670 0.35957 0.24151
 H2106 H 0.87111 0.34462 0.21112
 H2107 H 0.87360 0.29243 0.15406
 H2108 H 0.89113 0.26379 0.13708
 H2109 H 0.92371 0.24964 0.15086
 H2110 H 0.93895 0.26408 0.18168
 C2111 C 0.92333 0.79373 0.70484
 C2112 C 0.91314 0.78351 0.68858
 C2113 C 0.89424 0.79158 0.68092
 C2114 C 0.88568 0.80984 0.68954
 C2115 C 0.89632 0.82055 0.70520
 C2116 C 0.91520 0.81246 0.71289
 C2117 C 0.92542 0.82329 0.72873
 C2118 C 0.91724 0.84162 0.73672
 C2119 C 0.89879 0.84954 0.72917
 C2120 C 0.88839 0.83919 0.71360
 C2121 C 0.88418 0.78094 0.66485
 C2122 C 0.89258 0.76288 0.65654
 C2123 C 0.91109 0.75501 0.66400
 C2124 C 0.92131 0.76513 0.67985
 C2125 C 0.86545 0.81695 0.68309
 C2126 C 0.84837 0.82246 0.67815
 C2127 C 0.94144 0.78434 0.71409
 C2128 C 0.95602 0.77620 0.72226
 H2129 H 0.93985 0.81777 0.73505
 H2130 H 0.92527 0.84972 0.74882
 H2131 H 0.89251 0.86380 0.73541
 H2132 H 0.87413 0.84598 0.70818
 H2133 H 0.86976 0.78648 0.65853
 H2134 H 0.88469 0.75495 0.64424
 H2135 H 0.91756 0.74098 0.65749
 H2136 H 0.93568 0.75845 0.68511
 C2137 C 0.57662 0.29539 0.29369
 C2138 C 0.58760 0.31152 0.28375
 C2139 C 0.60647 0.31892 0.29212
 C2140 C 0.61421 0.31018 0.31038
 C2141 C 0.60274 0.29477 0.32082
 C2142 C 0.58387 0.28736 0.31245
 C2143 C 0.57276 0.27180 0.32305
 C2144 C 0.58008 0.26380 0.34141
 C2145 C 0.59854 0.27103 0.34958
 C2146 C 0.60982 0.28633 0.33946
 C2147 C 0.61733 0.33484 0.28178
 C2148 C 0.60974 0.34328 0.26373
 C2149 C 0.59127 0.33607 0.25556
 C2150 C 0.58027 0.32035 0.26537
 C2151 C 0.63447 0.31624 0.31775
 C2152 C 0.65161 0.32097 0.32325
 C2153 C 0.55866 0.28618 0.28397
 C2154 C 0.54426 0.27804 0.27547
 H2155 H 0.55829 0.26574 0.31733
 H2156 H 0.57135 0.25194 0.34935
 H2157 H 0.60416 0.26477 0.36385
 H2158 H 0.62406 0.29152 0.34642
 H2159 H 0.63175 0.34096 0.28755
 H2160 H 0.61824 0.35547 0.25604
 H2161 H 0.58542 0.34269 0.24154
 H2162 H 0.56596 0.31528 0.25846
 C2163 C 0.57623 0.79947 0.79969
 C2164 C 0.58670 0.81591 0.78973
 C2165 C 0.60602 0.82299 0.79731
 C2166 C 0.61472 0.81361 0.81482
 C2167 C 0.60370 0.79801 0.82546
 C2168 C 0.58439 0.79090 0.81786
 C2169 C 0.57377 0.77509 0.82859
 C2170 C 0.58198 0.76658 0.84636
 C2171 C 0.60085 0.77356 0.85381
 C2172 C 0.61167 0.78908 0.84352
 C2173 C 0.61637 0.83923 0.78693
 C2174 C 0.60783 0.84829 0.76959
 C2175 C 0.58892 0.84139 0.76218
 C2176 C 0.57842 0.82537 0.77205
 C2177 C 0.63554 0.81902 0.82106
 C2178 C 0.65312 0.82312 0.82559
 C2179 C 0.55794 0.79038 0.79046
 C2180 C 0.54333 0.78232 0.78225
 H2181 H 0.55900 0.76922 0.82343
 H2182 H 0.57363 0.75453 0.85441
 H2183 H 0.60715 0.76693 0.86763
 H2184 H 0.62626 0.79406 0.84993
 H2185 H 0.63109 0.84515 0.79213
 H2186 H 0.61593 0.86074 0.76186
 H2187 H 0.58234 0.84848 0.74870
 H2188 H 0.56372 0.82057 0.76576
 C2189 C 0.07601 0.29661 0.79671
 C2190 C 0.08596 0.31339 0.78675
 C2191 C 0.10523 0.32083 0.79411
 C2192 C 0.11442 0.31148 0.81140
 C2193 C 0.10399 0.29540 0.82194
 C2194 C 0.08472 0.28794 0.81457
 C2195 C 0.07470 0.27166 0.82520
 C2196 C 0.08346 0.26302 0.84264
 C2197 C 0.10231 0.27032 0.84985
 C2198 C 0.11253 0.28631 0.83968
 C2199 C 0.11505 0.33741 0.78373
 C2200 C 0.10605 0.34642 0.76659
 C2201 C 0.08719 0.33915 0.75940
 C2202 C 0.07719 0.32282 0.76929
 C2203 C 0.13509 0.31752 0.81758
 C2204 C 0.15253 0.32211 0.82221
 C2205 C 0.05767 0.28735 0.78776
 C2206 C 0.04301 0.27920 0.77972
 H2207 H 0.05999 0.26551 0.82020
 H2208 H 0.07558 0.25059 0.85061
 H2209 H 0.10904 0.26356 0.86341
 H2210 H 0.12712 0.29152 0.84589
 H2211 H 0.12972 0.34360 0.78877
 H2212 H 0.11376 0.35909 0.75884
 H2213 H 0.08026 0.34620 0.74608
 H2214 H 0.06252 0.31774 0.76316
 C2215 C 0.07909 0.79294 0.29456
 C2216 C 0.08884 0.81042 0.28563
 C2217 C 0.10838 0.81718 0.29297
 C2218 C 0.11803 0.80641 0.30919
 C2219 C 0.10784 0.78954 0.31874
 C2220 C 0.08831 0.78278 0.31140
 C2221 C 0.07854 0.76571 0.32102
 C2222 C 0.08779 0.75564 0.33746
 C2223 C 0.10688 0.76227 0.34465
 C2224 C 0.11688 0.77901 0.33544
 C2225 C 0.11796 0.83454 0.28366
 C2226 C 0.10849 0.84495 0.26756
 C2227 C 0.08939 0.83834 0.26036
 C2228 C 0.07962 0.82127 0.26923
 C2229 C 0.13888 0.81192 0.31526
 C2230 C 0.15643 0.81612 0.31984
 C2231 C 0.06035 0.78454 0.28557
 C2232 C 0.04534 0.77698 0.27761
 H2233 H 0.06364 0.76004 0.31602
 H2234 H 0.08009 0.74263 0.34467
 H2235 H 0.11399 0.75441 0.35743
 H2236 H 0.13168 0.78364 0.34161
 H2237 H 0.13279 0.84030 0.28877
 H2238 H 0.11602 0.85822 0.26063
 H2239 H 0.08211 0.84648 0.24785
 H2240 H 0.06474 0.81675 0.26316
 C2241 C 0.57533 0.70818 0.70425
 C2242 C 0.58563 0.71922 0.68859
 C2243 C 0.60445 0.71143 0.68051
 C2244 C 0.61286 0.69264 0.68813
 C2245 C 0.60201 0.68105 0.70300
 C2246 C 0.58321 0.68886 0.71112
 C2247 C 0.57279 0.67713 0.72619
 C2248 C 0.58068 0.65818 0.73298
 C2249 C 0.59905 0.65053 0.72499
 C2250 C 0.60967 0.66178 0.71019
 C2251 C 0.61459 0.72285 0.66503
 C2252 C 0.60634 0.74142 0.65771
 C2253 C 0.58793 0.74904 0.66561
 C2254 C 0.57764 0.73815 0.68090
 C2255 C 0.63321 0.68596 0.68158
 C2256 C 0.65041 0.68093 0.67658
 C2257 C 0.55742 0.71730 0.71410
 C2258 C 0.54304 0.72533 0.72271
 H2259 H 0.55841 0.68242 0.73279
 H2260 H 0.57248 0.64938 0.74447
 H2261 H 0.60508 0.63577 0.73027
 H2262 H 0.62383 0.65516 0.70436
 H2263 H 0.62891 0.71750 0.65837
 H2264 H 0.61427 0.74993 0.64583
 H2265 H 0.58157 0.76347 0.65986
 H2266 H 0.56333 0.74467 0.68652
 C2267 C 0.57750 0.20274 0.19969
 C2268 C 0.58765 0.18655 0.21036
 C2269 C 0.60695 0.17896 0.20327
 C2270 C 0.61595 0.18757 0.18553
 C2271 C 0.60524 0.20289 0.17421
 C2272 C 0.58596 0.21053 0.18133
 C2273 C 0.57568 0.22609 0.16995
 C2274 C 0.58418 0.23382 0.15198
 C2275 C 0.60302 0.22631 0.14499
 C2276 C 0.61352 0.21105 0.15594
 C2277 C 0.61698 0.16300 0.21435
 C2278 C 0.60816 0.15472 0.23192
 C2279 C 0.58928 0.16214 0.23886
 C2280 C 0.57908 0.17789 0.22829
 C2281 C 0.63675 0.18168 0.17976
 C2282 C 0.65432 0.17722 0.17557
 C2283 C 0.55925 0.21233 0.20841
 C2284 C 0.54465 0.22062 0.21638
 H2285 H 0.56096 0.23236 0.17476
 H2286 H 0.57609 0.24569 0.14342
 H2287 H 0.60955 0.23235 0.13101
 H2288 H 0.62811 0.20567 0.14990
 H2289 H 0.63168 0.15672 0.20953
 H2290 H 0.61603 0.14250 0.24019
 H2291 H 0.58249 0.15567 0.25253
 H2292 H 0.56441 0.18311 0.23426
 C2293 C 0.07627 0.70204 0.20182
 C2294 C 0.08449 0.71000 0.18343
 C2295 C 0.10386 0.70268 0.17619
 C2296 C 0.11486 0.68751 0.18742
 C2297 C 0.10605 0.67865 0.20513
 C2298 C 0.08668 0.68592 0.21235
 C2299 C 0.07829 0.67702 0.23024
 C2300 C 0.08873 0.66133 0.24067
 C2301 C 0.10769 0.65423 0.23361
 C2302 C 0.11634 0.66276 0.21607
 C2303 C 0.11190 0.71101 0.15789
 C2304 C 0.10110 0.72613 0.14703
 C2305 C 0.08218 0.73332 0.15414
 C2306 C 0.07391 0.72541 0.17214
 C2307 C 0.13576 0.68200 0.18157
 C2308 C 0.15338 0.67783 0.17733
 C2309 C 0.05803 0.71148 0.21076
 C2310 C 0.04353 0.71978 0.21891
 H2311 H 0.06355 0.68198 0.23627
 H2312 H 0.08207 0.65466 0.25429
 H2313 H 0.11575 0.64204 0.24176
 H2314 H 0.13110 0.65671 0.21116
 H2315 H 0.12653 0.70584 0.15173
 H2316 H 0.10744 0.73229 0.13303
 H2317 H 0.07385 0.74506 0.14565
 H2318 H 0.05910 0.73140 0.17703
 C2319 C 0.07663 0.20627 0.70325
 C2320 C 0.08497 0.18708 0.70993
 C2321 C 0.10446 0.18032 0.70247
 C2322 C 0.11545 0.19280 0.68841
 C2323 C 0.10658 0.21141 0.68089
 C2324 C 0.08710 0.21816 0.68833
 C2325 C 0.07865 0.23694 0.68076
 C2326 C 0.08913 0.24870 0.66623
 C2327 C 0.10819 0.24210 0.65897
 C2328 C 0.11690 0.22369 0.66618
 C2329 C 0.11262 0.16121 0.70953
 C2330 C 0.10182 0.14907 0.72350
 C2331 C 0.08276 0.15568 0.73080
 C2332 C 0.07438 0.17447 0.72417
 C2333 C 0.13634 0.18721 0.68262
 C2334 C 0.15395 0.18308 0.67827
 C2335 C 0.05812 0.21454 0.71274
 C2336 C 0.04333 0.22215 0.72103
 H2337 H 0.06383 0.24268 0.68589
 H2338 H 0.08242 0.26300 0.66057
 H2339 H 0.11627 0.25127 0.64768
 H2340 H 0.13173 0.21916 0.66002
 H2341 H 0.12737 0.15542 0.70425
 H2342 H 0.10826 0.13446 0.72869
 H2343 H 0.07442 0.14618 0.74165
 H2344 H 0.05949 0.17895 0.73021
 C2345 C 0.42314 0.69936 0.29708
 C2346 C 0.41578 0.70620 0.31625
 C2347 C 0.39630 0.69918 0.32349
 C2348 C 0.38433 0.68537 0.31153
 C2349 C 0.39225 0.67758 0.29295
 C2350 C 0.41171 0.68460 0.28569
 C2351 C 0.41917 0.67682 0.26692
 C2352 C 0.40773 0.66248 0.25565
 C2353 C 0.38870 0.65562 0.26275
 C2354 C 0.38096 0.66303 0.28117
 C2355 C 0.38912 0.70643 0.34256
 C2356 C 0.40087 0.72020 0.35417
 C2357 C 0.41992 0.72706 0.34710
 C2358 C 0.42736 0.72020 0.32834
 C2359 C 0.36336 0.68034 0.31757
 C2360 C 0.34564 0.67670 0.32195
 C2361 C 0.44154 0.70867 0.28836
 C2362 C 0.45620 0.71695 0.28046
 H2363 H 0.43394 0.68162 0.26083
 H2364 H 0.41369 0.65665 0.24134
 H2365 H 0.37988 0.64446 0.25396
 H2366 H 0.36613 0.65715 0.28613
 H2367 H 0.37443 0.70144 0.34873
 H2368 H 0.39517 0.72555 0.36876
 H2369 H 0.42901 0.73772 0.35619
 H2370 H 0.44231 0.72588 0.32350
 C2371 C 0.41878 0.21141 0.79190
 C2372 C 0.41661 0.19308 0.80364
 C2373 C 0.39665 0.18642 0.80991
 C2374 C 0.37900 0.19813 0.80438
 C2375 C 0.38120 0.21660 0.79280
 C2376 C 0.40113 0.22325 0.78654
 C2377 C 0.40291 0.24175 0.77493
 C2378 C 0.38553 0.25336 0.76973
 C2379 C 0.36604 0.24683 0.77583
 C2380 C 0.36381 0.22869 0.78723
 C2381 C 0.39486 0.16803 0.82163
 C2382 C 0.41228 0.15653 0.82698
 C2383 C 0.43178 0.16303 0.82083
 C2384 C 0.43401 0.18109 0.80928
 C2385 C 0.35854 0.19121 0.81036
 C2386 C 0.34130 0.18591 0.81499
 C2387 C 0.43899 0.21808 0.78491
 C2388 C 0.45510 0.22452 0.77824
 H2389 H 0.41772 0.24748 0.76975
 H2390 H 0.38719 0.26748 0.76088
 H2391 H 0.35258 0.25588 0.77171
 H2392 H 0.34832 0.22429 0.79163
 H2393 H 0.38001 0.16236 0.82677
 H2394 H 0.41064 0.14250 0.83596
 H2395 H 0.44526 0.15404 0.82502
 H2396 H 0.44948 0.18556 0.80486
 C2397 C 0.92522 0.70060 0.79880
 C2398 C 0.91428 0.68487 0.78821
 C2399 C 0.89530 0.67727 0.79612
 C2400 C 0.88740 0.68544 0.81455
 C2401 C 0.89886 0.70037 0.82567
 C2402 C 0.91785 0.70798 0.81777
 C2403 C 0.92894 0.72307 0.82904
 C2404 C 0.92149 0.73043 0.84761
 C2405 C 0.90290 0.72300 0.85532
 C2406 C 0.89165 0.70816 0.84453
 C2407 C 0.88448 0.66174 0.78514
 C2408 C 0.89222 0.65390 0.76690
 C2409 C 0.91079 0.66133 0.75917
 C2410 C 0.92175 0.67665 0.76963
 C2411 C 0.86698 0.67939 0.82142
 C2412 C 0.84973 0.67481 0.82665
 C2413 C 0.94320 0.71017 0.78948
 C2414 C 0.95754 0.71856 0.78115
 H2415 H 0.94350 0.72925 0.82369
 H2416 H 0.93019 0.74194 0.85606
 H2417 H 0.89718 0.72875 0.86975
 H2418 H 0.87732 0.70279 0.85117
 H2419 H 0.86999 0.65546 0.79056
 H2420 H 0.88376 0.64199 0.75872
 H2421 H 0.91675 0.65519 0.74499
 H2422 H 0.93615 0.68188 0.76304
 C2423 C 0.92386 0.20134 0.29852
 C2424 C 0.91379 0.18477 0.28834
 C2425 C 0.89494 0.17672 0.29614
 C2426 C 0.88632 0.18526 0.31409
 C2427 C 0.89692 0.20110 0.32483
 C2428 C 0.91574 0.20920 0.31701
 C2429 C 0.92591 0.22525 0.32785
 C2430 C 0.91775 0.23303 0.34596
 C2431 C 0.89937 0.22507 0.35363
 C2432 C 0.88900 0.20930 0.34324
 C2433 C 0.88499 0.16035 0.28555
 C2434 C 0.89345 0.15211 0.26778
 C2435 C 0.91189 0.15997 0.26016
 C2436 C 0.92200 0.17612 0.27024
 C2437 C 0.86600 0.17866 0.32079
 C2438 C 0.84881 0.17368 0.32590
 C2439 C 0.94178 0.21113 0.28931
 C2440 C 0.95615 0.21961 0.28110
 H2441 H 0.94028 0.23187 0.32252
 H2442 H 0.92575 0.24528 0.35409
 H2443 H 0.89312 0.23113 0.36772
 H2444 H 0.87480 0.20355 0.34983
 H2445 H 0.87064 0.15371 0.29091
 H2446 H 0.88564 0.13957 0.25989
 H2447 H 0.91840 0.15351 0.24636
 H2448 H 0.93633 0.18167 0.26376
 C2449 C 0.29729 0.29865 0.57555
 C2450 C 0.28556 0.31333 0.58672
 C2451 C 0.29265 0.32030 0.60604
 C2452 C 0.31140 0.31251 0.61409
 C2453 C 0.32360 0.29860 0.60251
 C2454 C 0.31653 0.29165 0.58316
 C2455 C 0.32887 0.27754 0.57197
 C2456 C 0.34769 0.27051 0.57965
 C2457 C 0.35460 0.27731 0.59856
 C2458 C 0.34275 0.29118 0.60994
 C2459 C 0.28054 0.33479 0.61703
 C2460 C 0.26197 0.34221 0.60916
 C2461 C 0.25501 0.33536 0.59028
 C2462 C 0.26660 0.32108 0.57913
 C2463 C 0.31747 0.31791 0.63471
 C2464 C 0.32191 0.32205 0.65208
 C2465 C 0.28882 0.28961 0.55707
 C2466 C 0.28107 0.28153 0.54236
 H2467 H 0.32416 0.27187 0.55716
 H2468 H 0.35695 0.25974 0.57087
 H2469 H 0.36922 0.27180 0.60446
 H2470 H 0.34878 0.29606 0.62456
 H2471 H 0.28532 0.34058 0.63177
 H2472 H 0.25292 0.35331 0.61776
 H2473 H 0.24056 0.34114 0.58423
 H2474 H 0.26058 0.31626 0.56449
 C2475 C 0.29064 0.79224 0.08339
 C2476 C 0.30665 0.80708 0.08550
 C2477 C 0.31352 0.81302 0.10524
 C2478 C 0.30435 0.80404 0.12272
 C2479 C 0.28836 0.78915 0.12061
 C2480 C 0.28147 0.78325 0.10089
 C2481 C 0.26542 0.76834 0.09919
 C2482 C 0.25644 0.75958 0.11645
 C2483 C 0.26324 0.76530 0.13572
 C2484 C 0.27901 0.77990 0.13787
 C2485 C 0.32956 0.82788 0.10697
 C2486 C 0.33855 0.83662 0.08970
 C2487 C 0.33184 0.83079 0.07041
 C2488 C 0.31607 0.81619 0.06824
 C2489 C 0.31128 0.81003 0.14292
 C2490 C 0.31666 0.81460 0.15992
 C2491 C 0.28354 0.78596 0.06334
 C2492 C 0.27682 0.77977 0.04734
 H2493 H 0.25961 0.76330 0.08454
 H2494 H 0.24411 0.74831 0.11486
 H2495 H 0.25624 0.75842 0.14908
 H2496 H 0.28375 0.78383 0.15319
 H2497 H 0.33531 0.83287 0.12166
 H2498 H 0.35080 0.84798 0.09130
 H2499 H 0.33890 0.83761 0.05704
 H2500 H 0.31137 0.81213 0.05293
 C2501 C 0.79920 0.29821 0.07538
 C2502 C 0.79212 0.31754 0.08301
 C2503 C 0.79962 0.32510 0.10197
 C2504 C 0.81412 0.31325 0.11318
 C2505 C 0.82198 0.29444 0.10506
 C2506 C 0.81450 0.28690 0.08610
 C2507 C 0.82239 0.26791 0.07841
 C2508 C 0.83726 0.25672 0.08915
 C2509 C 0.84457 0.26410 0.10771
 C2510 C 0.83706 0.28273 0.11565
 C2511 C 0.79213 0.34434 0.10942
 C2512 C 0.77765 0.35580 0.09845
 C2513 C 0.77031 0.34841 0.07991
 C2514 C 0.77741 0.32951 0.07220
 C2515 C 0.81997 0.31969 0.13356
 C2516 C 0.82433 0.32453 0.15078
 C2517 C 0.78969 0.28921 0.05739
 C2518 C 0.78125 0.28120 0.04302
 H2519 H 0.81723 0.26158 0.06401
 H2520 H 0.84314 0.24224 0.08304
 H2521 H 0.85612 0.25535 0.11600
 H2522 H 0.84324 0.28786 0.13011
 H2523 H 0.79747 0.35075 0.12373
 H2524 H 0.77211 0.37051 0.10436
 H2525 H 0.75908 0.35738 0.07143
 H2526 H 0.77132 0.32443 0.05767
 C2527 C 0.79812 0.79914 0.57696
 C2528 C 0.78804 0.81593 0.58678
 C2529 C 0.79545 0.82330 0.60583
 C2530 C 0.81292 0.81387 0.61492
 C2531 C 0.82365 0.79785 0.60459
 C2532 C 0.81622 0.79045 0.58555
 C2533 C 0.82702 0.77420 0.57564
 C2534 C 0.84469 0.76553 0.58429
 C2535 C 0.85197 0.77278 0.60291
 C2536 C 0.84163 0.78875 0.61302
 C2537 C 0.78493 0.83987 0.61553
 C2538 C 0.76759 0.84893 0.60663
 C2539 C 0.76035 0.84174 0.58798
 C2540 C 0.77039 0.82542 0.57810
 C2541 C 0.81900 0.81968 0.63542
 C2542 C 0.82360 0.82396 0.65272
 C2543 C 0.78899 0.78985 0.55892
 C2544 C 0.78079 0.78167 0.54451
 H2545 H 0.82199 0.76811 0.56109
 H2546 H 0.85279 0.75314 0.57649
 H2547 H 0.86571 0.76601 0.60956
 H2548 H 0.84791 0.79394 0.62741
 H2549 H 0.79002 0.84602 0.63002
 H2550 H 0.75973 0.86159 0.61425
 H2551 H 0.74688 0.84884 0.58111
 H2552 H 0.76422 0.82041 0.56358
 C2553 C 0.29344 0.70687 0.42072
 C2554 C 0.30704 0.68967 0.41973
 C2555 C 0.31390 0.68221 0.40049
 C2556 C 0.30709 0.69200 0.38238
 C2557 C 0.29350 0.70924 0.38338
 C2558 C 0.28668 0.71672 0.40260
 C2559 C 0.27313 0.73402 0.40318
 C2560 C 0.26656 0.74367 0.38532
 C2561 C 0.27316 0.73629 0.36653
 C2562 C 0.28647 0.71930 0.36548
 C2563 C 0.32747 0.66497 0.39986
 C2564 C 0.33409 0.65537 0.41774
 C2565 C 0.32740 0.66267 0.43654
 C2566 C 0.31402 0.67962 0.43762
 C2567 C 0.31400 0.68449 0.36266
 C2568 C 0.31933 0.67885 0.34596
 C2569 C 0.28606 0.71445 0.44024
 C2570 C 0.27910 0.72150 0.45580
 H2571 H 0.26748 0.74033 0.41740
 H2572 H 0.25629 0.75694 0.38606
 H2573 H 0.26796 0.74379 0.35269
 H2574 H 0.29118 0.71417 0.35049
 H2575 H 0.33309 0.65875 0.38559
 H2576 H 0.34447 0.64219 0.41699
 H2577 H 0.33259 0.65515 0.45038
 H2578 H 0.30922 0.68475 0.45258
 C2579 C 0.29142 0.20815 0.91670
 C2580 C 0.30022 0.18823 0.91365
 C2581 C 0.30685 0.18216 0.89387
 C2582 C 0.30465 0.19607 0.87730
 C2583 C 0.29600 0.21607 0.88038
 C2584 C 0.28936 0.22212 0.90013
 C2585 C 0.28067 0.24217 0.90280
 C2586 C 0.27863 0.25584 0.88645
 C2587 C 0.28509 0.24989 0.86714
 C2588 C 0.29369 0.23027 0.86405
 C2589 C 0.31549 0.16213 0.89116
 C2590 C 0.31755 0.14848 0.90752
 C2591 C 0.31109 0.15442 0.92686
 C2592 C 0.30250 0.17406 0.92997
 C2593 C 0.31098 0.18984 0.85698
 C2594 C 0.31591 0.18518 0.83988
 C2595 C 0.28390 0.21428 0.93664
 C2596 C 0.27693 0.22040 0.95257
 H2597 H 0.27534 0.24754 0.91750
 H2598 H 0.27191 0.27108 0.88877
 H2599 H 0.28342 0.26054 0.85447
 H2600 H 0.29849 0.22640 0.84873
 H2601 H 0.32074 0.15681 0.87640
 H2602 H 0.32420 0.13321 0.90519
 H2603 H 0.31273 0.14376 0.93952
 H2604 H 0.29770 0.17800 0.94528
 C2605 C 0.79982 0.70109 0.92763
 C2606 C 0.79197 0.68230 0.91942
 C2607 C 0.79950 0.67482 0.90046
 C2608 C 0.81483 0.68618 0.88986
 C2609 C 0.82346 0.70435 0.89858
 C2610 C 0.81592 0.71185 0.91753
 C2611 C 0.82456 0.73024 0.92581
 C2612 C 0.84027 0.74086 0.91569
 C2613 C 0.84767 0.73349 0.89718
 C2614 C 0.83939 0.71547 0.88863
 C2615 C 0.79124 0.65616 0.89240
 C2616 C 0.77599 0.64517 0.90279
 C2617 C 0.76862 0.65248 0.92134
 C2618 C 0.77645 0.67084 0.92963
 C2619 C 0.82074 0.67991 0.86946
 C2620 C 0.82510 0.67511 0.85225
 C2621 C 0.79029 0.71017 0.94556
 C2622 C 0.78176 0.71825 0.95982
 H2623 H 0.81936 0.73652 0.94022
 H2624 H 0.84674 0.75487 0.92227
 H2625 H 0.85989 0.74178 0.88938
 H2626 H 0.84566 0.71033 0.87422
 H2627 H 0.79656 0.64983 0.87807
 H2628 H 0.76987 0.63089 0.89642
 H2629 H 0.75678 0.64388 0.92936
 H2630 H 0.77030 0.67587 0.94413
 C2631 C 0.79723 0.20131 0.42565
 C2632 C 0.81368 0.21168 0.41571
 C2633 C 0.82149 0.20379 0.39702
 C2634 C 0.81283 0.18556 0.38843
 C2635 C 0.79715 0.17458 0.39891
 C2636 C 0.78931 0.18249 0.41758
 C2637 C 0.77342 0.17141 0.42763
 C2638 C 0.76554 0.15301 0.41950
 C2639 C 0.77324 0.14526 0.40125
 C2640 C 0.78885 0.15587 0.39100
 C2641 C 0.83772 0.21458 0.38719
 C2642 C 0.84605 0.23264 0.39562
 C2643 C 0.83843 0.24035 0.41391
 C2644 C 0.82241 0.23007 0.42390
 C2645 C 0.81912 0.17887 0.36826
 C2646 C 0.82383 0.17380 0.35120
 C2647 C 0.78755 0.21074 0.44333
 C2648 C 0.77900 0.21904 0.45747
 H2649 H 0.76700 0.17679 0.44191
 H2650 H 0.75341 0.14471 0.42741
 H2651 H 0.76709 0.13094 0.39501
 H2652 H 0.79441 0.14921 0.37691
 H2653 H 0.84418 0.20915 0.37297
 H2654 H 0.85847 0.24068 0.38791
 H2655 H 0.84495 0.25438 0.42040
 H2656 H 0.81704 0.23662 0.43812
 C2657 C 0.70213 0.29481 0.42416
 C2658 C 0.68358 0.28674 0.41590
 C2659 C 0.67601 0.29445 0.39703
 C2660 C 0.68705 0.31016 0.38656
 C2661 C 0.70500 0.31898 0.39534
 C2662 C 0.71258 0.31127 0.41420
 C2663 C 0.73073 0.32012 0.42254
 C2664 C 0.74106 0.33618 0.41256
 C2665 C 0.73363 0.34374 0.39413
 C2666 C 0.71582 0.33529 0.38555
 C2667 C 0.65757 0.28600 0.38894
 C2668 C 0.64687 0.27039 0.39922
 C2669 C 0.65428 0.26284 0.41766
 C2670 C 0.67243 0.27085 0.42597
 C2671 C 0.68077 0.31630 0.36621
 C2672 C 0.67622 0.32103 0.34902
 C2673 C 0.71119 0.28532 0.44213
 C2674 C 0.71933 0.27708 0.45654
 H2675 H 0.73706 0.31482 0.43688
 H2676 H 0.75490 0.34280 0.41917
 H2677 H 0.74169 0.35623 0.38645
 H2678 H 0.71059 0.34173 0.37123
 H2679 H 0.65119 0.29144 0.37467
 H2680 H 0.63276 0.26414 0.39284
 H2681 H 0.64591 0.25072 0.42559
 H2682 H 0.67756 0.26454 0.44039
 C2683 C 0.70800 0.79238 0.92302
 C2684 C 0.72179 0.79573 0.90660
 C2685 C 0.71426 0.80366 0.88781
 C2686 C 0.69299 0.80815 0.88552
 C2687 C 0.67925 0.80510 0.90201
 C2688 C 0.68679 0.79722 0.92084
 C2689 C 0.67277 0.79427 0.93709
 C2690 C 0.65189 0.79896 0.93482
 C2691 C 0.64451 0.80662 0.91640
 C2692 C 0.65797 0.80967 0.90012
 C2693 C 0.72834 0.80680 0.87160
 C2694 C 0.74923 0.80219 0.87387
 C2695 C 0.75659 0.79440 0.89222
 C2696 C 0.74311 0.79118 0.90845
 C2697 C 0.68531 0.81543 0.86601
 C2698 C 0.67956 0.82120 0.84948
 C2699 C 0.71571 0.78339 0.94184
 C2700 C 0.72292 0.77554 0.95692
 H2701 H 0.67781 0.78835 0.95170
 H2702 H 0.64137 0.79663 0.94742
 H2703 H 0.62827 0.81022 0.91471
 H2704 H 0.65152 0.81567 0.88609
 H2705 H 0.72338 0.81285 0.85702
 H2706 H 0.75976 0.80467 0.86131
 H2707 H 0.77283 0.79083 0.89391
 H2708 H 0.74961 0.78513 0.92242
 C2709 C 0.20571 0.29119 0.92025
 C2710 C 0.19408 0.30982 0.91954
 C2711 C 0.18682 0.31750 0.90053
 C2712 C 0.19128 0.30651 0.88236
 C2713 C 0.20285 0.28782 0.88309
 C2714 C 0.21009 0.28015 0.90208
 C2715 C 0.22168 0.26144 0.90239
 C2716 C 0.22592 0.25063 0.88449
 C2717 C 0.21887 0.25816 0.86592
 C2718 C 0.20746 0.27652 0.86513
 C2719 C 0.17524 0.33617 0.90018
 C2720 C 0.17097 0.34696 0.91811
 C2721 C 0.17808 0.33945 0.93669
 C2722 C 0.18951 0.32109 0.93748
 C2723 C 0.18421 0.31442 0.86285
 C2724 C 0.17872 0.32052 0.84634
 C2725 C 0.21351 0.28336 0.93951
 C2726 C 0.22072 0.27601 0.95482
 H2727 H 0.22759 0.25496 0.91644
 H2728 H 0.23478 0.23635 0.88502
 H2729 H 0.22226 0.24973 0.85204
 H2730 H 0.20229 0.28171 0.85031
 H2731 H 0.16938 0.34260 0.88609
 H2732 H 0.16210 0.36122 0.91758
 H2733 H 0.17473 0.34790 0.95056
 H2734 H 0.19471 0.31585 0.95228
 C2735 C 0.20671 0.78972 0.42050
 C2736 C 0.19998 0.81048 0.41765
 C2737 C 0.19320 0.81715 0.39811
 C2738 C 0.19318 0.80301 0.38157
 C2739 C 0.19964 0.78216 0.38449
 C2740 C 0.20642 0.77550 0.40400
 C2741 C 0.21293 0.75461 0.40651
 C2742 C 0.21274 0.74072 0.39021
 C2743 C 0.20614 0.74725 0.37112
 C2744 C 0.19962 0.76770 0.36821
 C2745 C 0.18670 0.83801 0.39558
 C2746 C 0.18686 0.85189 0.41189
 C2747 C 0.19345 0.84535 0.43100
 C2748 C 0.19996 0.82489 0.43394
 C2749 C 0.18695 0.80989 0.36143
 C2750 C 0.18209 0.81512 0.34445
 C2751 C 0.21470 0.78301 0.44009
 C2752 C 0.22206 0.77649 0.45569
 H2753 H 0.21824 0.74876 0.42104
 H2754 H 0.21782 0.72483 0.39240
 H2755 H 0.20607 0.73641 0.35850
 H2756 H 0.19457 0.77200 0.35308
 H2757 H 0.18142 0.84380 0.38100
 H2758 H 0.18184 0.86780 0.40969
 H2759 H 0.19353 0.85619 0.44363
 H2760 H 0.20493 0.82051 0.44908
 C2761 C 0.70178 0.70743 0.57652
 C2762 C 0.70885 0.68810 0.58416
 C2763 C 0.70096 0.68032 0.60287
 C2764 C 0.68610 0.69195 0.61382
 C2765 C 0.67817 0.71068 0.60560
 C2766 C 0.68604 0.71846 0.58689
 C2767 C 0.67807 0.73736 0.57910
 C2768 C 0.66270 0.74822 0.58947
 C2769 C 0.65499 0.74061 0.60776
 C2770 C 0.66260 0.72208 0.61582
 C2771 C 0.70837 0.66106 0.61031
 C2772 C 0.72316 0.64977 0.59957
 C2773 C 0.73091 0.65739 0.58130
 C2774 C 0.72391 0.67634 0.57362
 C2775 C 0.67998 0.68543 0.63410
 C2776 C 0.67537 0.68061 0.65125
 C2777 C 0.71159 0.71661 0.55877
 C2778 C 0.72025 0.72463 0.54455
 H2779 H 0.68354 0.74386 0.56489
 H2780 H 0.65674 0.76262 0.58327
 H2781 H 0.64304 0.74909 0.61575
 H2782 H 0.65608 0.71673 0.63005
 H2783 H 0.70272 0.65448 0.62441
 H2784 H 0.72860 0.63502 0.60544
 H2785 H 0.74239 0.64856 0.57301
 H2786 H 0.73034 0.68160 0.55931
 C2787 C 0.70794 0.20466 0.07714
 C2788 C 0.68654 0.20506 0.08148
 C2789 C 0.67917 0.19726 0.10039
 C2790 C 0.69325 0.18904 0.11478
 C2791 C 0.71456 0.18794 0.11014
 C2792 C 0.72194 0.19582 0.09129
 C2793 C 0.74337 0.19486 0.08713
 C2794 C 0.75709 0.18630 0.10117
 C2795 C 0.74985 0.17851 0.11957
 C2796 C 0.72885 0.17928 0.12409
 C2797 C 0.65775 0.19807 0.10453
 C2798 C 0.64397 0.20629 0.09035
 C2799 C 0.65117 0.21388 0.07184
 C2800 C 0.67221 0.21333 0.06738
 C2801 C 0.68606 0.18264 0.13474
 C2802 C 0.68059 0.17773 0.15160
 C2803 C 0.71581 0.21426 0.05868
 C2804 C 0.72311 0.22264 0.04393
 H2805 H 0.74974 0.20065 0.07300
 H2806 H 0.77342 0.18569 0.09773
 H2807 H 0.76057 0.17184 0.13041
 H2808 H 0.72397 0.17299 0.13860
 H2809 H 0.65143 0.19230 0.11870
 H2810 H 0.62763 0.20676 0.09375
 H2811 H 0.64041 0.22023 0.06086
 H2812 H 0.67709 0.21939 0.05278
 C2813 C 0.20650 0.70723 0.07911
 C2814 C 0.22083 0.70343 0.09498
 C2815 C 0.21380 0.69587 0.11408
 C2816 C 0.19249 0.69217 0.11721
 C2817 C 0.17818 0.69580 0.10129
 C2818 C 0.18522 0.70333 0.08216
 C2819 C 0.17064 0.70695 0.06651
 C2820 C 0.14968 0.70326 0.06967
 C2821 C 0.14279 0.69594 0.08840
 C2822 C 0.15681 0.69221 0.10408
 C2823 C 0.22840 0.69235 0.12978
 C2824 C 0.24933 0.69622 0.12669
 C2825 C 0.25622 0.70358 0.10800
 C2826 C 0.24222 0.70716 0.09228
 C2827 C 0.18533 0.68510 0.13696
 C2828 C 0.17980 0.67949 0.15360
 C2829 C 0.21373 0.71598 0.06003
 C2830 C 0.22070 0.72380 0.04485
 H2831 H 0.17529 0.71263 0.05169
 H2832 H 0.13873 0.70611 0.05753
 H2833 H 0.12649 0.69312 0.09079
 H2834 H 0.15072 0.68651 0.11837
 H2835 H 0.22381 0.68659 0.14458
 H2836 H 0.26026 0.69350 0.13888
 H2837 H 0.27249 0.70661 0.10569
 H2838 H 0.24836 0.71293 0.07804
 C2839 C 0.20634 0.21238 0.57941
 C2840 C 0.19576 0.19316 0.58081
 C2841 C 0.18856 0.18602 0.60004
 C2842 C 0.19196 0.19817 0.61771
 C2843 C 0.20223 0.21758 0.61624
 C2844 C 0.20944 0.22470 0.59704
 C2845 C 0.21977 0.24411 0.59599
 C2846 C 0.22287 0.25613 0.61339
 C2847 C 0.21580 0.24916 0.63216
 C2848 C 0.20559 0.23013 0.63367
 C2849 C 0.17812 0.16670 0.60110
 C2850 C 0.17485 0.15479 0.58365
 C2851 C 0.18187 0.16178 0.56485
 C2852 C 0.19224 0.18073 0.56336
 C2853 C 0.18525 0.19069 0.63749
 C2854 C 0.18005 0.18492 0.65419
 C2855 C 0.21466 0.21936 0.56005
 C2856 C 0.22232 0.22589 0.54460
 H2857 H 0.22553 0.25024 0.58174
 H2858 H 0.23079 0.27092 0.61229
 H2859 H 0.21824 0.25855 0.64564
 H2860 H 0.20037 0.22542 0.64862
 H2861 H 0.17236 0.16064 0.61538
 H2862 H 0.16682 0.14005 0.58472
 H2863 H 0.17928 0.15246 0.55135
 H2864 H 0.19740 0.18555 0.54842
   
