data_POSCAR
  _audit_creation_date              2014-09-24
  _audit_creation_method            'ToBaCCo'
  _symmetry_space_group_name_H-M    'P1'
  _symmetry_Int_Tables_number       1
  _symmetry_cell_setting            triclinic
  loop_
  _symmetry_equiv_pos_as_xyz
 x,y,z
_cell_length_a 59.8441
_cell_length_b 60.0074
_cell_length_c 59.7449
_cell_angle_alpha 89.538400
_cell_angle_beta 89.636700
_cell_angle_gamma 89.680600
loop_
  _atom_site_label
  _atom_site_type_symbol
  _atom_site_fract_x
  _atom_site_fract_y
  _atom_site_fract_z
C1 C 0.11333 -0.00343 0.23037
 C2 C 0.12790 0.01734 0.23122
 C3 C 0.14110 0.01824 0.24963
 C4 C 0.13868 -0.00184 0.26565
 C5 C 0.12959 -0.02309 0.23229
 C6 C 0.14281 -0.02230 0.25076
 C7 C 0.10014 -0.00350 0.25246
 C8 C 0.11348 -0.00268 0.27091
 H9 H 0.12706 0.03073 0.21888
 H10 H 0.14956 -0.00113 0.28062
 H11 H 0.12967 -0.03709 0.22086
 H12 H 0.08202 -0.00432 0.25344
 C13 C 0.38884 -0.00007 0.73088
 C14 C 0.37264 -0.01967 0.73178
 C15 C 0.35917 -0.01975 0.75024
 C16 C 0.36311 0.00001 0.76617
 C17 C 0.37401 0.02073 0.73253
 C18 C 0.36058 0.02088 0.75106
 C19 C 0.40115 -0.00108 0.75176
 C20 C 0.38694 -0.00102 0.77116
 H21 H 0.37271 -0.03302 0.71958
 H22 H 0.35198 -0.00001 0.78114
 H23 H 0.37524 0.03480 0.72102
 H24 H 0.41928 -0.00082 0.75268
 C25 C 0.88634 0.49921 0.22896
 C26 C 0.87058 0.47937 0.23060
 C27 C 0.85727 0.47949 0.24912
 C28 C 0.86082 0.49971 0.26449
 C29 C 0.87127 0.51980 0.23036
 C30 C 0.85802 0.52020 0.24899
 C31 C 0.89945 0.49892 0.25095
 C32 C 0.88603 0.49923 0.26955
 H33 H 0.87075 0.46575 0.21870
 H34 H 0.84983 0.49986 0.27955
 H35 H 0.87249 0.53380 0.21876
 H36 H 0.91758 0.49942 0.25173
 C37 C 0.61428 0.49896 0.73043
 C38 C 0.62912 0.51954 0.73125
 C39 C 0.64252 0.52017 0.74953
 C40 C 0.64001 0.50003 0.76545
 C41 C 0.63032 0.47910 0.73205
 C42 C 0.64375 0.47962 0.75038
 C43 C 0.60131 0.49892 0.75264
 C44 C 0.61485 0.49947 0.77096
 H45 H 0.62829 0.53303 0.71902
 H46 H 0.65106 0.50051 0.78032
 H47 H 0.63022 0.46525 0.72044
 H48 H 0.58320 0.49842 0.75380
 C49 C 0.22848 0.11171 0.99855
 C50 C 0.22902 0.12642 1.01927
 C51 C 0.24729 0.13974 1.02021
 C52 C 0.26348 0.13729 1.00027
 C53 C 0.23044 0.12780 0.97867
 C54 C 0.24876 0.14115 0.97955
 C55 C 0.25061 0.09874 0.99886
 C56 C 0.26890 0.11220 0.99975
 H57 H 0.21654 0.12566 1.03256
 H58 H 0.27835 0.14827 1.00103
 H59 H 0.21901 0.12785 0.96460
 H60 H 0.25173 0.08067 0.99827
 C61 C 0.73036 0.38564 0.99961
 C62 C 0.73143 0.37053 0.98073
 C63 C 0.75093 0.35663 0.98074
 C64 C 0.76576 0.36043 0.99982
 C65 C 0.73194 0.37159 1.01950
 C66 C 0.75150 0.35771 1.01973
 C67 C 0.75110 0.39832 0.99877
 C68 C 0.77070 0.38433 0.99889
 H69 H 0.71961 0.37087 0.96695
 H70 H 0.78084 0.34947 0.99987
 H71 H 0.72072 0.37298 1.03384
 H72 H 0.75183 0.41643 0.99887
 C73 C 0.23041 0.88996 0.49911
 C74 C 0.23204 0.87392 0.47948
 C75 C 0.25071 0.86091 0.47964
 C76 C 0.26625 0.86501 0.49971
 C77 C 0.23229 0.87529 0.52006
 C78 C 0.25105 0.86233 0.52051
 C79 C 0.25221 0.90335 0.49831
 C80 C 0.27098 0.89023 0.49866
 H81 H 0.22001 0.87371 0.46591
 H82 H 0.28143 0.85426 0.49992
 H83 H 0.22071 0.87636 0.53411
 H84 H 0.25275 0.92144 0.49825
 C85 C 0.73029 0.61285 0.49890
 C86 C 0.73121 0.62704 0.51997
 C87 C 0.74958 0.64020 0.52099
 C88 C 0.76551 0.63811 0.50081
 C89 C 0.73213 0.62942 0.47940
 C90 C 0.75057 0.64260 0.48039
 C91 C 0.75233 0.59971 0.49859
 C92 C 0.77073 0.61301 0.49957
 H93 H 0.71872 0.62629 0.53325
 H94 H 0.78048 0.64895 0.50167
 H95 H 0.72060 0.62984 0.46541
 H96 H 0.75330 0.58167 0.49738
 C97 C -0.00274 0.22765 0.11217
 C98 C 0.01760 0.22846 0.12743
 C99 C 0.01830 0.24696 0.14040
 C100 C -0.00150 0.26310 0.13706
 C101 C -0.02295 0.22999 0.12777
 C102 C -0.02234 0.24855 0.14075
 C103 C -0.00206 0.24945 0.09862
 C104 C -0.00143 0.26798 0.11172
 H105 H 0.03088 0.21603 0.12721
 H106 H -0.00095 0.27815 0.14775
 H107 H -0.03707 0.21867 0.12767
 H108 H -0.00237 0.25019 0.08045
 C109 C -0.00076 0.73091 0.38657
 C110 C -0.01901 0.73243 0.37087
 C111 C -0.01859 0.75206 0.35731
 C112 C 0.00019 0.76679 0.36179
 C113 C 0.02058 0.73301 0.37245
 C114 C 0.02120 0.75186 0.35954
 C115 C -0.00182 0.75252 0.40023
 C116 C -0.00124 0.77136 0.38715
 H117 H -0.03280 0.72070 0.37062
 H118 H 0.00060 0.78203 0.35108
 H119 H 0.03465 0.72156 0.37385
 H120 H -0.00190 0.75289 0.41840
 C121 C 0.49952 0.23013 0.88863
 C122 C 0.47977 0.23188 0.87267
 C123 C 0.48009 0.25044 0.85946
 C124 C 0.50034 0.26570 0.86330
 C125 C 0.52031 0.23166 0.87373
 C126 C 0.52086 0.25029 0.86057
 C127 C 0.49912 0.25191 0.90191
 C128 C 0.49960 0.27053 0.88858
 H129 H 0.46608 0.22004 0.87263
 H130 H 0.50065 0.28079 0.85240
 H131 H 0.53422 0.21997 0.87482
 H132 H 0.49924 0.25255 0.92007
 C133 C 0.49794 0.73095 0.61183
 C134 C 0.51825 0.73138 0.62714
 C135 C 0.51913 0.74971 0.64033
 C136 C 0.49950 0.76609 0.63715
 C137 C 0.47772 0.73332 0.62742
 C138 C 0.47850 0.75172 0.64062
 C139 C 0.49887 0.75291 0.59854
 C140 C 0.49967 0.77128 0.61187
 H141 H 0.53144 0.71885 0.62674
 H142 H 0.50018 0.78100 0.64803
 H143 H 0.46350 0.72214 0.62719
 H144 H 0.49867 0.75386 0.58038
 C145 C 0.88521 1.00139 0.77290
 C146 C 0.87016 1.02034 0.77127
 C147 C 0.85618 1.01985 0.75197
 C148 C 0.85970 1.00044 0.73779
 C149 C 0.87031 0.98079 0.77203
 C150 C 0.85698 0.98022 0.75367
 C151 C 0.89839 1.00114 0.75075
 C152 C 0.88494 1.00064 0.73233
 H153 H 0.87071 1.03449 0.78251
 H154 H 0.84873 0.99995 0.72285
 H155 H 0.87097 0.96734 0.78432
 H156 H 0.91651 1.00148 0.74972
 C157 C 0.38645 0.49841 0.27284
 C158 C 0.37028 0.51817 0.27115
 C159 C 0.35704 0.51764 0.25267
 C160 C 0.36107 0.49732 0.23756
 C161 C 0.37176 0.47774 0.27179
 C162 C 0.35853 0.47711 0.25340
 C163 C 0.39963 0.49864 0.25076
 C164 C 0.38628 0.49811 0.23230
 H165 H 0.37022 0.53201 0.28278
 H166 H 0.35018 0.49681 0.22258
 H167 H 0.37233 0.46434 0.28415
 H168 H 0.41773 0.49956 0.24978
 C169 C 0.61366 1.00232 0.26868
 C170 C 0.62819 0.98126 0.26722
 C171 C 0.64148 0.98066 0.24856
 C172 C 0.63914 1.00137 0.23320
 C173 C 0.62902 1.02079 0.26720
 C174 C 0.64297 1.02036 0.24781
 C175 C 0.60047 1.00281 0.24668
 C176 C 0.61389 1.00223 0.22805
 H177 H 0.62681 0.96734 0.27890
 H178 H 0.65012 1.00100 0.21813
 H179 H 0.62897 1.03457 0.27892
 H180 H 0.58234 1.00238 0.24593
 C181 C 0.11328 0.50129 0.76798
 C182 C 0.12808 0.48049 0.76645
 C183 C 0.14143 0.48012 0.74788
 C184 C 0.13894 0.50077 0.73255
 C185 C 0.12932 0.52093 0.76659
 C186 C 0.14270 0.52077 0.74811
 C187 C 0.10027 0.50197 0.74594
 C188 C 0.11375 0.50164 0.72740
 H189 H 0.12683 0.46651 0.77806
 H190 H 0.14997 0.50061 0.71752
 H191 H 0.12928 0.53445 0.77859
 H192 H 0.08214 0.50178 0.74507
 C193 C 0.77072 0.88680 0.00120
 C194 C 0.76861 0.87077 0.02113
 C195 C 0.75008 0.85768 0.02033
 C196 C 0.73537 0.86170 -0.00036
 C197 C 0.76991 0.87207 -0.01948
 C198 C 0.75147 0.85900 -0.02033
 C199 C 0.74877 0.90008 0.00096
 C200 C 0.73028 0.88686 0.00017
 H201 H 0.77998 0.87071 0.03524
 H202 H 0.72035 0.85092 -0.00107
 H203 H 0.78240 0.87258 -0.03276
 H204 H 0.74789 0.91814 0.00177
 C205 C 0.27257 0.38792 0.49979
 C206 C 0.27022 0.37254 0.52021
 C207 C 0.25180 0.35930 0.51954
 C208 C 0.23741 0.36252 0.49848
 C209 C 0.27221 0.37250 0.47960
 C210 C 0.25387 0.35926 0.47887
 C211 C 0.25053 0.40102 0.49872
 C212 C 0.23215 0.38766 0.49806
 H213 H 0.28145 0.37290 0.53442
 H214 H 0.22248 0.35162 0.49789
 H215 H 0.28483 0.37279 0.46643
 H216 H 0.24953 0.41910 0.49884
 C217 C 0.26925 0.60943 0.00154
 C218 C 0.26802 0.62471 -0.01904
 C219 C 0.24944 0.63794 -0.01951
 C220 C 0.23376 0.63487 0.00086
 C221 C 0.26740 0.62495 0.02159
 C222 C 0.24892 0.63822 0.02136
 C223 C 0.24729 0.59634 0.00147
 C224 C 0.22870 0.60971 0.00107
 H225 H 0.27991 0.62392 -0.03285
 H226 H 0.21872 0.64581 0.00064
 H227 H 0.27929 0.62485 0.03528
 H228 H 0.24651 0.57827 0.00092
 C229 C 0.76918 0.11299 0.50073
 C230 C 0.76809 0.12758 0.48118
 C231 C 0.74885 0.14193 0.48118
 C232 C 0.73438 0.13903 0.50093
 C233 C 0.76833 0.12762 0.51998
 C234 C 0.74919 0.14199 0.52019
 C235 C 0.74815 0.10080 0.50109
 C236 C 0.72888 0.11523 0.50117
 H237 H 0.77933 0.12622 0.46686
 H238 H 0.71956 0.15032 0.50111
 H239 H 0.78026 0.12692 0.53366
 H240 H 0.74700 0.08275 0.50009
 C241 C 0.99958 0.77043 0.88875
 C242 C 1.01945 0.76904 0.87258
 C243 C 1.01878 0.75104 0.85882
 C244 C 0.99823 0.73606 0.86238
 C245 C 0.97891 0.76996 0.87394
 C246 C 0.97814 0.75205 0.86020
 C247 C 0.99953 0.74807 0.90136
 C248 C 0.99886 0.73009 0.88749
 H249 H 1.03344 0.78050 0.87288
 H250 H 0.99760 0.72147 0.85106
 H251 H 0.96557 0.78231 0.87484
 H252 H 1.00042 0.74658 0.91947
 C253 C 0.49906 0.27370 0.38798
 C254 C 0.51868 0.27205 0.37151
 C255 C 0.51788 0.25372 0.35821
 C256 C 0.49749 0.23871 0.36247
 C257 C 0.47814 0.27277 0.37354
 C258 C 0.47727 0.25452 0.36025
 C259 C 0.49937 0.25164 0.40111
 C260 C 0.49857 0.23335 0.38769
 H261 H 0.53265 0.28354 0.37136
 H262 H 0.49676 0.22385 0.35152
 H263 H 0.46477 0.28508 0.37434
 H264 H 0.50056 0.25058 0.41922
 C265 C 1.00059 0.26962 0.61022
 C266 C 0.98000 0.26781 0.62539
 C267 C 0.98009 0.24935 0.63884
 C268 C 1.00096 0.23442 0.63608
 C269 C 1.02055 0.26861 0.62596
 C270 C 1.02085 0.25026 0.63946
 C271 C 1.00137 0.24766 0.59727
 C272 C 1.00151 0.22924 0.61087
 H273 H 0.96578 0.27911 0.62429
 H274 H 1.00118 0.21949 0.64720
 H275 H 1.03388 0.28084 0.62573
 H276 H 1.00081 0.24674 0.57913
 C277 C 0.50202 0.76855 0.11135
 C278 C 0.48148 0.76719 0.12666
 C279 C 0.48135 0.74886 0.14028
 C280 C 0.50196 0.73358 0.13755
 C281 C 0.52203 0.76736 0.12700
 C282 C 0.52211 0.74915 0.14068
 C283 C 0.50237 0.74645 0.09861
 C284 C 0.50228 0.72814 0.11238
 H285 H 0.46743 0.77869 0.12551
 H286 H 0.50201 0.71875 0.14881
 H287 H 0.53549 0.77946 0.12670
 H288 H 0.50167 0.74537 0.08048
 O289 O -0.00413 1.04740 1.04448
 O290 O -0.03834 1.03058 1.04893
 O291 O 0.04275 0.99284 1.05023
 O292 O 0.05061 0.96129 1.03272
 O293 O 0.04912 1.04121 0.99591
 O294 O 0.03028 1.04667 0.96167
 O295 O -0.01456 0.93561 0.99044
 O296 O -0.00169 0.93433 1.02623
 O297 O -0.06296 0.98684 0.98779
 O298 O -0.06416 1.02573 0.99802
 O299 O -0.01253 0.98472 0.93845
 O300 O 0.02611 0.99414 0.93652
 O301 O 0.00236 0.94924 0.95906
 O302 O 0.03940 0.96862 0.95343
 O303 O -0.04330 1.00219 0.95232
 O304 O -0.04785 1.03873 0.97187
 O305 O -0.04917 0.95559 1.00448
 O306 O -0.03194 0.95526 1.04221
 O307 O 0.01229 1.06128 1.01290
 O308 O 0.00162 1.06180 0.97407
 O309 O 0.06305 1.01032 1.01315
 O310 O 0.06221 0.97101 1.00078
 O311 O 0.01241 1.01107 1.06417
 O312 O -0.02656 0.99760 1.06369
 Zr313 Zr -0.00951 1.01378 1.03689
 O314 O -0.03108 0.99421 1.01766
 Zr315 Zr 0.03562 0.98873 1.01614
 O316 O 0.01586 0.96752 0.99674
 Zr317 Zr 0.01523 1.03393 0.99117
 O318 O -0.00484 1.01472 0.97004
 Zr319 Zr -0.01576 0.96334 1.01149
 O320 O 0.00513 0.98207 1.03261
 Zr321 Zr -0.03561 1.00857 0.98590
 O322 O -0.01633 1.02974 1.00613
 Zr323 Zr 0.00938 0.98291 0.96577
 O324 O 0.03114 1.00335 0.98436
 O325 O 0.02159 1.01979 1.02234
 O326 O -0.02197 0.97713 0.97992
 C327 C 0.00401 1.06348 1.03270
 C328 C 0.03168 1.00179 1.06636
 C329 C 0.06526 1.02979 1.00434
 C330 C -0.00656 0.93336 0.97058
 C331 C -0.06512 0.96700 0.99569
 C332 C -0.03221 0.99309 0.93633
 H333 H -0.04539 0.99233 1.02582
 H334 H -0.00664 1.02272 0.95563
 H335 H 0.03120 1.02919 1.03179
 H336 H 0.02364 0.95304 0.99511
 H337 H 0.00552 0.93908 1.04027
 H338 H 0.04074 0.94839 1.03035
 H339 H -0.03849 1.04241 0.95866
 H340 H -0.01340 1.06445 0.98058
 H341 H -0.03933 0.94062 1.04049
 H342 H -0.02441 1.00626 1.07759
 H343 H 0.02100 1.00956 0.93348
 H344 H 0.04004 1.03466 0.95579
 H345 H -0.04421 1.03963 1.03633
 H346 H -0.06786 1.01951 1.01297
 H347 H 0.06595 0.97904 0.98671
 H348 H 0.04281 0.95528 0.96266
 O349 O 0.54984 0.54466 0.49657
 O350 O 0.53288 0.54869 0.46234
 O351 O 0.49525 0.55084 0.54366
 O352 O 0.46367 0.53341 0.55196
 O353 O 0.54377 0.49688 0.55059
 O354 O 0.54911 0.46256 0.53206
 O355 O 0.43773 0.49046 0.48720
 O356 O 0.43644 0.52627 0.49979
 O357 O 0.48880 0.48746 0.43862
 O358 O 0.52789 0.49780 0.43716
 O359 O 0.48684 0.43895 0.48979
 O360 O 0.49664 0.43757 0.52861
 O361 O 0.45149 0.45945 0.50450
 O362 O 0.47082 0.45430 0.54159
 O363 O 0.50421 0.45244 0.45868
 O364 O 0.54088 0.47186 0.45369
 O365 O 0.45755 0.50418 0.45240
 O366 O 0.45732 0.54195 0.46918
 O367 O 0.56377 0.51343 0.51339
 O368 O 0.56428 0.47471 0.50322
 O369 O 0.51287 0.51416 0.56445
 O370 O 0.47343 0.50176 0.56391
 O371 O 0.51344 0.56441 0.51302
 O372 O 0.49985 0.56346 0.47406
 Zr373 Zr 0.51609 0.53700 0.49142
 O374 O 0.49637 0.51760 0.47015
 Zr375 Zr 0.49112 0.51681 0.53702
 O376 O 0.46978 0.49723 0.51756
 Zr377 Zr 0.53635 0.49180 0.51672
 O378 O 0.51703 0.47050 0.49693
 Zr379 Zr 0.46548 0.51155 0.48572
 O380 O 0.48435 0.53284 0.50628
 Zr381 Zr 0.51074 0.48595 0.46594
 O382 O 0.53204 0.50632 0.48493
 Zr383 Zr 0.48521 0.46636 0.51140
 O384 O 0.50575 0.48515 0.53288
 O385 O 0.52222 0.52287 0.52274
 O386 O 0.47929 0.48010 0.47986
 C387 C 0.56597 0.53305 0.50484
 C388 C 0.50416 0.56680 0.53231
 C389 C 0.53238 0.50543 0.56670
 C390 C 0.43556 0.47072 0.49539
 C391 C 0.46888 0.49523 0.43647
 C392 C 0.49507 0.43664 0.47004
 H393 H 0.49443 0.52556 0.45572
 H394 H 0.52503 0.45615 0.49526
 H395 H 0.53167 0.53241 0.53221
 H396 H 0.45528 0.49563 0.52542
 H397 H 0.44122 0.54035 0.50679
 H398 H 0.45070 0.53093 0.54215
 H399 H 0.54461 0.45882 0.46323
 H400 H 0.56680 0.48094 0.48802
 H401 H 0.44260 0.54013 0.46189
 H402 H 0.50855 0.57734 0.47598
 H403 H 0.51192 0.43427 0.52314
 H404 H 0.53710 0.45682 0.54198
 H405 H 0.54188 0.53607 0.45656
 H406 H 0.52153 0.51256 0.43320
 H407 H 0.48146 0.48779 0.56776
 H408 H 0.45753 0.46358 0.54499
 O409 O 0.45453 -0.04367 0.49673
 O410 O 0.47224 -0.04728 0.46235
 O411 O 0.50862 -0.04571 0.54392
 O412 O 0.54006 -0.02702 0.54997
 O413 O 0.45791 0.00541 0.54924
 O414 O 0.45056 0.03903 0.52955
 O415 O 0.56353 0.01720 0.48429
 O416 O 0.56687 -0.01841 0.49815
 O417 O 0.51228 0.01573 0.43612
 O418 O 0.47376 0.00316 0.43580
 O419 O 0.51184 0.06534 0.48530
 O420 O 0.50105 0.06684 0.52455
 O421 O 0.54789 0.04755 0.50087
 O422 O 0.52810 0.05232 0.53765
 O423 O 0.49530 0.05031 0.45490
 O424 O 0.45958 0.02909 0.45133
 O425 O 0.54455 0.00140 0.45010
 O426 O 0.54721 -0.03584 0.46823
 O427 O 0.43882 -0.01306 0.51283
 O428 O 0.43612 0.02544 0.50124
 O429 O 0.48984 -0.00972 0.56318
 O430 O 0.52828 0.00463 0.56185
 O431 O 0.49149 -0.06083 0.51385
 O432 O 0.50587 -0.06004 0.47481
 Zr433 Zr 0.48789 -0.03413 0.49104
 O434 O 0.50658 -0.01395 0.46892
 Zr435 Zr 0.51162 -0.01174 0.53554
 O436 O 0.53179 0.00885 0.51524
 Zr437 Zr 0.46496 0.01030 0.51501
 O438 O 0.48308 0.03235 0.49422
 Zr439 Zr 0.53707 -0.00573 0.48384
 O440 O 0.51937 -0.02785 0.50527
 Zr441 Zr 0.49035 0.01670 0.46372
 O442 O 0.47020 -0.00453 0.48367
 Zr443 Zr 0.51457 0.03864 0.50815
 O444 O 0.49516 0.01897 0.53050
 O445 O 0.48092 -0.01974 0.52188
 O446 O 0.52136 0.02468 0.47704
 C447 C 0.43773 -0.03296 0.50496
 C448 C 0.50029 -0.06229 0.53339
 C449 C 0.46982 -0.00222 0.56544
 C450 C 0.56452 0.03719 0.49188
 C451 C 0.53265 0.00917 0.43398
 C452 C 0.50382 0.06675 0.46544
 H453 H 0.50903 -0.02208 0.45477
 H454 H 0.47432 0.04621 0.49207
 H455 H 0.47190 -0.02952 0.53179
 H456 H 0.54613 0.01150 0.52287
 H457 H 0.56290 -0.03261 0.50570
 H458 H 0.55308 -0.02244 0.54081
 H459 H 0.45519 0.04211 0.46044
 H460 H 0.43411 0.01888 0.48624
 H461 H 0.56184 -0.03325 0.46079
 H462 H 0.49788 -0.07431 0.47729
 H463 H 0.48604 0.06972 0.51829
 H464 H 0.46233 0.04579 0.53883
 H465 H 0.46218 -0.03550 0.45648
 H466 H 0.48112 -0.01117 0.43214
 H467 H 0.51971 0.01842 0.56504
 H468 H 0.54163 0.04361 0.54154
 O469 O -0.04513 0.50129 1.04709
 O470 O -0.05128 0.53465 1.02892
 O471 O -0.04807 0.45288 0.99400
 O472 O -0.02985 0.44563 0.96225
 O473 O 0.00539 0.45045 1.04269
 O474 O 0.03909 0.47073 1.04672
 O475 O 0.00946 0.51203 0.93417
 O476 O -0.02570 0.49731 0.93358
 O477 O 0.00972 0.56127 0.98354
 O478 O -0.00164 0.56295 1.02273
 O479 O 0.06089 0.51361 0.98331
 O480 O 0.06446 0.47527 0.99419
 O481 O 0.04148 0.49713 0.94832
 O482 O 0.04865 0.46085 0.96881
 O483 O 0.04547 0.54390 1.00001
 O484 O 0.02502 0.54824 1.03648
 O485 O -0.00614 0.54613 0.95281
 O486 O -0.04313 0.52737 0.95353
 O487 O -0.01296 0.48675 1.06133
 O488 O 0.02522 0.49913 1.06127
 O489 O -0.01070 0.43511 1.01219
 O490 O 0.00253 0.43562 0.97261
 O491 O -0.06367 0.48277 1.01134
 O492 O -0.06490 0.52149 0.99621
 Zr493 Zr -0.03757 0.50623 1.01301
 O494 O -0.01916 0.52833 0.99253
 Zr495 Zr -0.01440 0.46177 0.98934
 O496 O 0.00427 0.48203 0.96730
 Zr497 Zr 0.00906 0.48423 1.03385
 O498 O 0.02938 0.50494 1.01382
 Zr499 Zr -0.01191 0.51273 0.96206
 O500 O -0.03220 0.49122 0.98165
 Zr501 Zr 0.01217 0.53471 1.00661
 O502 O -0.00734 0.51487 1.02859
 Zr503 Zr 0.03470 0.49034 0.98237
 O504 O 0.01695 0.46809 1.00367
 O505 O -0.02157 0.47615 1.02003
 O506 O 0.01911 0.52071 0.97554
 C507 C -0.03313 0.49401 1.06341
 C508 C -0.06479 0.46317 1.00285
 C509 C -0.00244 0.43377 1.03197
 C510 C 0.02975 0.50518 0.93214
 C511 C 0.00217 0.56261 0.96348
 C512 C 0.06205 0.53349 0.99108
 H513 H -0.02790 0.54216 0.99012
 H514 H 0.04355 0.50762 1.02173
 H515 H -0.03068 0.46639 1.02988
 H516 H 0.00647 0.47410 0.95301
 H517 H -0.03945 0.48965 0.93871
 H518 H -0.02746 0.45519 0.94892
 H519 H 0.03858 0.53964 1.04051
 H520 H 0.01804 0.51386 1.06344
 H521 H -0.04159 0.53440 0.93852
 H522 H -0.07878 0.51870 1.00495
 H523 H 0.06703 0.48083 1.00948
 H524 H 0.04518 0.46069 1.03507
 H525 H -0.03897 0.54163 1.03728
 H526 H -0.01640 0.56605 1.01599
 H527 H 0.01655 0.43275 0.98088
 H528 H 0.03960 0.45663 0.95573
 O529 O 0.01335 0.43619 0.50808
 O530 O -0.00031 0.43629 0.47205
 O531 O 0.06464 0.48613 0.50637
 O532 O 0.06735 0.52229 0.49791
 O533 O 0.01619 0.48576 0.56023
 O534 O -0.02165 0.49728 0.56322
 O535 O 0.00316 0.54882 0.45351
 O536 O 0.03710 0.53183 0.44805
 O537 O -0.04540 0.49849 0.45167
 O538 O -0.05082 0.46299 0.47101
 O539 O -0.04628 0.54489 0.50388
 O540 O -0.02553 0.54949 0.53828
 O541 O -0.01157 0.56269 0.48574
 O542 O 0.00235 0.56254 0.52521
 O543 O -0.06199 0.51475 0.48770
 O544 O -0.06294 0.47465 0.49990
 O545 O -0.01528 0.51542 0.43588
 O546 O 0.02235 0.49787 0.43348
 O547 O -0.00207 0.44995 0.54007
 O548 O -0.03613 0.47007 0.54782
 O549 O 0.04665 0.50216 0.54451
 O550 O 0.04980 0.53829 0.52459
 O551 O 0.04904 0.45555 0.49079
 O552 O 0.02816 0.45513 0.45504
 Zr553 Zr 0.01512 0.46418 0.48686
 O554 O -0.00622 0.48414 0.46715
 Zr555 Zr 0.03766 0.50824 0.51100
 O556 O 0.01783 0.53005 0.49170
 Zr557 Zr -0.00690 0.48426 0.53383
 O558 O -0.02877 0.50549 0.51609
 Zr559 Zr 0.00886 0.51514 0.46140
 O560 O 0.03139 0.49441 0.47936
 Zr561 Zr -0.03571 0.49155 0.48479
 O562 O -0.01563 0.46919 0.50351
 Zr563 Zr -0.01267 0.53563 0.50835
 O564 O 0.00815 0.51553 0.52888
 O565 O 0.02320 0.47756 0.51778
 O566 O -0.02131 0.52230 0.47753
 C567 C 0.00561 0.43386 0.52809
 C568 C 0.06586 0.46636 0.49831
 C569 C 0.03606 0.49371 0.56130
 C570 C -0.00477 0.56485 0.46538
 C571 C -0.03527 0.50774 0.43503
 C572 C -0.06301 0.53457 0.49559
 H573 H -0.00920 0.47644 0.45292
 H574 H -0.04249 0.50788 0.52506
 H575 H 0.03299 0.46763 0.52674
 H576 H 0.02614 0.54401 0.48895
 H577 H 0.05012 0.52190 0.45064
 H578 H 0.06302 0.53134 0.48473
 H579 H -0.06726 0.48283 0.51359
 H580 H -0.04238 0.46018 0.53627
 H581 H 0.02090 0.50764 0.42010
 H582 H 0.03645 0.44084 0.45656
 H583 H -0.03679 0.53905 0.54440
 H584 H -0.01582 0.51259 0.56481
 H585 H -0.01564 0.43548 0.47831
 H586 H -0.04122 0.45779 0.45855
 H587 H 0.03983 0.54218 0.53727
 H588 H 0.01544 0.56741 0.51627
 O589 O 0.45189 1.04411 0.00692
 O590 O 0.47073 1.04635 0.04062
 O591 O 0.50327 1.04889 -0.04301
 O592 O 0.53401 1.03069 -0.05319
 O593 O 0.45332 0.99653 -0.04676
 O594 O 0.44839 0.96215 -0.02755
 O595 O 0.56290 0.98542 0.01055
 O596 O 0.56446 1.02135 -0.00300
 O597 O 0.51526 0.98383 0.06170
 O598 O 0.47648 0.99520 0.06555
 O599 O 0.51269 0.93589 0.01035
 O600 O 0.50050 0.93564 -0.02783
 O601 O 0.54752 0.95520 -0.00600
 O602 O 0.52612 0.95173 -0.04220
 O603 O 0.49779 0.94935 0.04258
 O604 O 0.46198 0.96982 0.04999
 O605 O 0.54583 1.00000 0.04594
 O606 O 0.54583 1.03775 0.02866
 O607 O 0.43622 1.01365 -0.00896
 O608 O 0.43533 0.97477 0.00221
 O609 O 0.48365 1.01311 -0.06254
 O610 O 0.52288 0.99934 -0.06441
 O611 O 0.48757 1.06253 -0.01117
 O612 O 0.50337 1.06055 0.02683
 Zr613 Zr 0.48559 1.03487 0.01054
 O614 O 0.50624 1.01452 0.03055
 Zr615 Zr 0.50725 1.01462 -0.03654
 O616 O 0.52940 0.99406 -0.01841
 Zr617 Zr 0.46277 0.99081 -0.01335
 O618 O 0.48291 0.96860 0.00522
 Zr619 Zr 0.53595 1.00772 0.01307
 O620 O 0.51626 1.02992 -0.00631
 Zr621 Zr 0.49152 0.98326 0.03577
 O622 O 0.46941 1.00462 0.01811
 Zr623 Zr 0.51368 0.96364 -0.01124
 O624 O 0.49217 0.98340 -0.03140
 O625 O 0.47729 1.02144 -0.02031
 O626 O 0.52185 0.97666 0.01985
 C627 C 0.43506 1.03342 -0.00077
 C628 C 0.49543 1.06493 -0.03110
 C629 C 0.46380 1.00508 -0.06356
 C630 C 0.56412 0.96562 0.00255
 C631 C 0.53540 0.99114 0.06261
 C632 C 0.50578 0.93347 0.03060
 H633 H 0.50925 1.02222 0.04478
 H634 H 0.47473 0.95448 0.00740
 H635 H 0.46756 1.03142 -0.02928
 H636 H 0.54339 0.99206 -0.02706
 H637 H 0.55967 1.03569 -0.00978
 H638 H 0.54759 1.02737 -0.04441
 H639 H 0.45714 0.95737 0.04044
 H640 H 0.43384 0.98121 0.01735
 H641 H 0.56098 1.03544 0.03494
 H642 H 0.49469 1.07465 0.02562
 H643 H 0.48557 0.93266 -0.02131
 H644 H 0.45953 0.95620 -0.03830
 H645 H 0.46130 1.03410 0.04650
 H646 H 0.48307 1.00989 0.06878
 H647 H 0.51429 0.98572 -0.06771
 H648 H 0.53962 0.96038 -0.04614
 O649 O 0.54663 0.50573 -0.04543
 O650 O 0.54901 0.53930 -0.02664
 O651 O 0.55061 0.45611 0.00631
 O652 O 0.53209 0.44650 0.03722
 O653 O 0.49861 0.45244 -0.04402
 O654 O 0.46435 0.47156 -0.04946
 O655 O 0.48655 0.51009 0.06523
 O656 O 0.52250 0.49658 0.06725
 O657 O 0.48573 0.56074 0.01700
 O658 O 0.49751 0.56444 -0.02156
 O659 O 0.43745 0.50979 0.01440
 O660 O 0.43723 0.47161 0.00240
 O661 O 0.45636 0.49360 0.04961
 O662 O 0.45285 0.45754 0.02847
 O663 O 0.45127 0.54172 -0.00072
 O664 O 0.47245 0.54867 -0.03652
 O665 O 0.50159 0.54529 0.04792
 O666 O 0.53931 0.52794 0.04851
 O667 O 0.51615 0.48991 -0.06127
 O668 O 0.47723 0.50114 -0.06258
 O669 O 0.51473 0.43678 -0.01334
 O670 O 0.50066 0.43520 0.02584
 O671 O 0.56468 0.48768 -0.00944
 O672 O 0.56271 0.52562 0.00630
 Zr673 Zr 0.53708 0.50946 -0.01174
 O674 O 0.51650 0.52958 0.00855
 Zr675 Zr 0.51625 0.46281 0.01010
 O676 O 0.49547 0.48107 0.03193
 Zr677 Zr 0.49297 0.48575 -0.03485
 O678 O 0.47055 0.50439 -0.01506
 Zr679 Zr 0.50924 0.51243 0.03842
 O680 O 0.53165 0.49293 0.01908
 Zr681 Zr 0.48533 0.53480 -0.00654
 O682 O 0.50696 0.51704 -0.02829
 Zr683 Zr 0.46516 0.48821 0.01584
 O684 O 0.48513 0.46796 -0.00534
 O685 O 0.52349 0.47877 -0.01997
 O686 O 0.47828 0.51918 0.02391
 C687 C 0.53601 0.49804 -0.06233
 C688 C 0.56686 0.46781 -0.00153
 C689 C 0.50691 0.43572 -0.03331
 C690 C 0.46666 0.50214 0.06631
 C691 C 0.49287 0.56181 0.03722
 C692 C 0.43518 0.52990 0.00725
 H693 H 0.52426 0.54375 0.01154
 H694 H 0.45649 0.50655 -0.02342
 H695 H 0.53352 0.46976 -0.02958
 H696 H 0.49326 0.47255 0.04599
 H697 H 0.53689 0.48974 0.06265
 H698 H 0.52845 0.45521 0.05074
 H699 H 0.45974 0.53938 -0.04124
 H700 H 0.48385 0.51615 -0.06420
 H701 H 0.53685 0.53428 0.06361
 H702 H 0.57696 0.52427 -0.00219
 H703 H 0.43429 0.47818 -0.01253
 H704 H 0.45814 0.46102 -0.03824
 H705 H 0.53685 0.54521 -0.03620
 H706 H 0.51233 0.56749 -0.01506
 H707 H 0.48700 0.43198 0.01721
 H708 H 0.46149 0.45357 0.04200
 O709 O -0.01622 0.00988 0.56438
 O710 O 0.02051 -0.00249 0.56596
 O711 O -0.01527 0.06193 0.51482
 O712 O -0.00680 0.06601 0.47881
 O713 O -0.06586 0.00990 0.51237
 O714 O -0.06530 -0.02767 0.50047
 O715 O 0.04419 0.00547 0.45392
 O716 O 0.04567 0.03949 0.47130
 O717 O 0.04758 -0.04370 0.50345
 O718 O 0.02764 -0.05164 0.53810
 O719 O -0.00316 -0.04695 0.45499
 O720 O -0.03818 -0.02787 0.44876
 O721 O 0.01403 -0.01114 0.43837
 O722 O -0.02642 0.00094 0.43664
 O723 O 0.01299 -0.06248 0.48569
 O724 O -0.00001 -0.06501 0.52550
 O725 O 0.06147 -0.01200 0.48785
 O726 O 0.06000 0.02494 0.50606
 O727 O -0.04626 -0.00721 0.54902
 O728 O -0.04978 -0.04160 0.52851
 O729 O -0.05190 0.04180 0.49726
 O730 O -0.03096 0.04708 0.46168
 O731 O 0.00018 0.04648 0.54597
 O732 O 0.03668 0.02723 0.54842
 Zr733 Zr 0.00628 0.01303 0.53740
 O734 O 0.02836 -0.00628 0.51790
 Zr735 Zr -0.01763 0.03523 0.49232
 O736 O 0.00401 0.01740 0.47099
 Zr737 Zr -0.03783 -0.01124 0.51494
 O738 O -0.01762 -0.03119 0.49407
 Zr739 Zr 0.03413 0.01005 0.48727
 O740 O 0.01370 0.03060 0.50758
 Zr741 Zr 0.01351 -0.03659 0.50928
 O742 O -0.00762 -0.01849 0.53124
 Zr743 Zr -0.00991 -0.01387 0.46431
 O744 O -0.03279 0.00489 0.48391
 O745 O -0.02449 0.01960 0.52265
 O746 O 0.02084 -0.02086 0.47895
 C747 C -0.03581 0.00119 0.56571
 C748 C -0.00774 0.06316 0.53489
 C749 C -0.06812 0.02987 0.50475
 C750 C 0.03394 -0.00317 0.43729
 C751 C 0.06366 -0.03207 0.49513
 C752 C 0.00562 -0.06351 0.46556
 H753 H 0.04245 -0.00854 0.52620
 H754 H -0.02548 -0.04530 0.49113
 H755 H -0.03446 0.02870 0.53225
 H756 H 0.00675 0.02618 0.45718
 H757 H 0.04181 0.05198 0.48136
 H758 H 0.00731 0.06298 0.47068
 H759 H -0.01339 -0.06959 0.51710
 H760 H -0.03843 -0.04688 0.53934
 H761 H 0.07381 0.02488 0.49679
 H762 H 0.03395 0.03491 0.56284
 H763 H -0.04419 -0.03945 0.45897
 H764 H -0.06691 -0.02143 0.48517
 H765 H 0.01502 -0.01802 0.56635
 H766 H 0.03842 -0.04101 0.54444
 H767 H -0.04262 0.03639 0.45717
 H768 H -0.01791 0.01430 0.43202
 O769 O 0.68457 0.23394 0.25705
 O770 O 0.68608 0.24720 0.22076
 O771 O 0.73831 0.18592 0.26033
 O772 O 0.77513 0.18510 0.25730
 O773 O 0.73018 0.23692 0.31239
 O774 O 0.73925 0.27526 0.31373
 O775 O 0.80008 0.24882 0.20961
 O776 O 0.78594 0.21343 0.20570
 O777 O 0.74822 0.29402 0.20121
 O778 O 0.71114 0.29883 0.21674
 O779 O 0.78942 0.29979 0.25787
 O780 O 0.79337 0.27998 0.29283
 O781 O 0.81097 0.26580 0.24162
 O782 O 0.80916 0.25277 0.28175
 O783 O 0.75969 0.31331 0.23855
 O784 O 0.71852 0.31187 0.24641
 O785 O 0.76741 0.26379 0.18870
 O786 O 0.75204 0.22551 0.18766
 O787 O 0.69523 0.25151 0.28883
 O788 O 0.71226 0.28735 0.29528
 O789 O 0.74907 0.20648 0.29994
 O790 O 0.78739 0.20490 0.28317
 O791 O 0.70801 0.19926 0.24169
 O792 O 0.70770 0.21971 0.20575
 Zr793 Zr 0.71409 0.23360 0.23765
 O794 O 0.73431 0.25498 0.21818
 Zr795 Zr 0.75769 0.21439 0.26645
 O796 O 0.77975 0.23439 0.24751
 Zr797 Zr 0.72942 0.25843 0.28447
 O798 O 0.75070 0.28047 0.26704
 Zr799 Zr 0.76649 0.24123 0.21576
 O800 O 0.74582 0.21866 0.23353
 Zr801 Zr 0.73881 0.28551 0.23434
 O802 O 0.71617 0.26518 0.25263
 Zr803 Zr 0.78238 0.26576 0.26256
 O804 O 0.76192 0.24495 0.28287
 O805 O 0.72568 0.22737 0.26990
 O806 O 0.77084 0.27239 0.23035
 C807 C 0.68050 0.24209 0.27653
 C808 C 0.71961 0.18325 0.25020
 C809 C 0.73884 0.21749 0.31536
 C810 C 0.81475 0.25848 0.22174
 C811 C 0.75914 0.28341 0.18597
 C812 C 0.77850 0.31577 0.24848
 H813 H 0.72760 0.25695 0.20321
 H814 H 0.75150 0.29453 0.27550
 H815 H 0.71579 0.21721 0.27849
 H816 H 0.79439 0.22678 0.24618
 H817 H 0.77658 0.20008 0.20823
 H818 H 0.78373 0.18880 0.24361
 H819 H 0.72486 0.31683 0.26077
 H820 H 0.70223 0.29191 0.28293
 H821 H 0.76275 0.22660 0.17497
 H822 H 0.69381 0.21077 0.20665
 H823 H 0.78158 0.29039 0.29798
 H824 H 0.75455 0.26997 0.31721
 H825 H 0.68415 0.26265 0.22613
 H826 H 0.70662 0.28772 0.20553
 H827 H 0.78938 0.21548 0.29563
 H828 H 0.81552 0.23985 0.27369
 O829 O 0.75391 0.70731 0.70101
 O830 O 0.78779 0.70334 0.71804
 O831 O 0.70674 0.70107 0.75599
 O832 O 0.69796 0.71884 0.78704
 O833 O 0.69972 0.75528 0.70679
 O834 O 0.71842 0.78927 0.70106
 O835 O 0.76261 0.76165 0.81317
 O836 O 0.75043 0.72607 0.81459
 O837 O 0.81165 0.76439 0.76188
 O838 O 0.81309 0.75460 0.72291
 O839 O 0.76030 0.81332 0.76336
 O840 O 0.72187 0.81466 0.75402
 O841 O 0.74523 0.79255 0.79932
 O842 O 0.70852 0.79768 0.77937
 O843 O 0.79137 0.79996 0.74603
 O844 O 0.79659 0.78020 0.70971
 O845 O 0.79788 0.74759 0.79319
 O846 O 0.78068 0.71016 0.79365
 O847 O 0.73726 0.73847 0.68680
 O848 O 0.74716 0.77722 0.68618
 O849 O 0.68584 0.73798 0.73777
 O850 O 0.68644 0.75026 0.77727
 O851 O 0.73733 0.68755 0.73785
 O852 O 0.77623 0.68877 0.75121
 Zr853 Zr 0.75878 0.71508 0.73479
 O854 O 0.77998 0.73460 0.75445
 Zr855 Zr 0.71323 0.73523 0.75956
 O856 O 0.73265 0.75485 0.78088
 Zr857 Zr 0.73362 0.76013 0.71418
 O858 O 0.75330 0.78151 0.73353
 Zr859 Zr 0.76445 0.74067 0.78537
 O860 O 0.74391 0.71932 0.76654
 Zr861 Zr 0.78428 0.76626 0.74001
 O862 O 0.76535 0.74575 0.71873
 Zr863 Zr 0.73886 0.78574 0.76539
 O864 O 0.71747 0.76687 0.74479
 O865 O 0.72749 0.72904 0.72843
 O866 O 0.77041 0.77219 0.77152
 C867 C 0.74599 0.71894 0.68471
 C868 C 0.71820 0.68507 0.74740
 C869 C 0.68356 0.74696 0.71831
 C870 C 0.75402 0.78118 0.81539
 C871 C 0.81390 0.75621 0.78169
 C872 C 0.77987 0.81580 0.75481
 H873 H 0.79435 0.72662 0.75639
 H874 H 0.75493 0.79583 0.72542
 H875 H 0.71804 0.71945 0.71900
 H876 H 0.72471 0.75640 0.79535
 H877 H 0.74327 0.71204 0.80990
 H878 H 0.70806 0.72069 0.79990
 H879 H 0.78694 0.79306 0.70573
 H880 H 0.76234 0.77105 0.68372
 H881 H 0.78798 0.71189 0.80838
 H882 H 0.77431 0.67482 0.74264
 H883 H 0.72679 0.81754 0.73843
 H884 H 0.70861 0.79519 0.71304
 H885 H 0.79369 0.71597 0.70909
 H886 H 0.81678 0.73965 0.72897
 H887 H 0.68249 0.76415 0.76911
 H888 H 0.70503 0.78846 0.79272
 O889 O 0.29513 0.20187 0.74879
 O890 O 0.29793 0.21587 0.71284
 O891 O 0.30088 0.26054 0.78995
 O892 O 0.28217 0.29190 0.79622
 O893 O 0.24858 0.21135 0.80232
 O894 O 0.21338 0.20476 0.78539
 O895 O 0.23803 0.31220 0.73001
 O896 O 0.27431 0.31447 0.74174
 O897 O 0.23442 0.25797 0.68623
 O898 O 0.24613 0.21947 0.68747
 O899 O 0.18711 0.26248 0.73798
 O900 O 0.18669 0.25640 0.77726
 O901 O 0.20730 0.29958 0.74865
 O902 O 0.20347 0.28303 0.78777
 O903 O 0.20045 0.24276 0.70847
 O904 O 0.22161 0.20650 0.70634
 O905 O 0.25066 0.29020 0.69708
 O906 O 0.28932 0.29170 0.71241
 O907 O 0.26429 0.18912 0.76721
 O908 O 0.22524 0.18747 0.75757
 O909 O 0.26555 0.24320 0.81317
 O910 O 0.25110 0.28216 0.80951
 O911 O 0.31440 0.24010 0.76096
 O912 O 0.31215 0.24990 0.72073
 Zr913 Zr 0.28646 0.23497 0.74031
 O914 O 0.26608 0.25280 0.71769
 Zr915 Zr 0.26639 0.26310 0.78391
 O916 O 0.24587 0.28263 0.76294
 Zr917 Zr 0.24206 0.21639 0.76818
 O918 O 0.21987 0.23386 0.74713
 Zr919 Zr 0.25956 0.28458 0.73058
 O920 O 0.28172 0.26761 0.75236
 Zr921 Zr 0.23456 0.23791 0.71534
 O922 O 0.25589 0.21837 0.73582
 Zr923 Zr 0.21512 0.26657 0.75869
 O924 O 0.23488 0.24793 0.78165
 O925 O 0.27302 0.23124 0.77230
 O926 O 0.22821 0.27014 0.72652
 C927 C 0.28399 0.18642 0.75888
 C928 C 0.31695 0.25108 0.77916
 C929 C 0.25770 0.22365 0.81716
 C930 C 0.21824 0.31485 0.73804
 C931 C 0.24129 0.27791 0.68240
 C932 C 0.18453 0.25238 0.71929
 H933 H 0.27363 0.25384 0.70295
 H934 H 0.20568 0.22554 0.74653
 H935 H 0.28314 0.22276 0.78231
 H936 H 0.24410 0.29763 0.76945
 H937 H 0.28870 0.31023 0.74873
 H938 H 0.27955 0.30387 0.78508
 H939 H 0.20875 0.20328 0.71632
 H940 H 0.23161 0.18354 0.74278
 H941 H 0.28691 0.30576 0.70390
 H942 H 0.32634 0.24164 0.72325
 H943 H 0.18442 0.24039 0.77426
 H944 H 0.20804 0.21721 0.79483
 H945 H 0.28525 0.20654 0.70809
 H946 H 0.26102 0.22525 0.68324
 H947 H 0.23764 0.27393 0.81448
 H948 H 0.21237 0.29673 0.78957
 O949 O 0.25728 0.68485 0.23550
 O950 O 0.22112 0.68690 0.24914
 O951 O 0.26098 0.73775 0.18669
 O952 O 0.25782 0.77451 0.18540
 O953 O 0.31306 0.72983 0.23762
 O954 O 0.31494 0.73901 0.27596
 O955 O 0.21147 0.80069 0.24953
 O956 O 0.20706 0.78631 0.21415
 O957 O 0.20300 0.74947 0.29556
 O958 O 0.21799 0.71250 0.30084
 O959 O 0.25996 0.79008 0.30040
 O960 O 0.29488 0.79329 0.28007
 O961 O 0.24370 0.81135 0.26620
 O962 O 0.28358 0.80906 0.25280
 O963 O 0.24048 0.76076 0.31450
 O964 O 0.24801 0.71949 0.31341
 O965 O 0.19043 0.76849 0.26510
 O966 O 0.18871 0.75285 0.22689
 O967 O 0.28931 0.69526 0.25276
 O968 O 0.29622 0.71250 0.28859
 O969 O 0.30053 0.74854 0.20695
 O970 O 0.28423 0.78676 0.20482
 O971 O 0.24201 0.70795 0.20060
 O972 O 0.20620 0.70839 0.22135
 Zr973 Zr 0.23825 0.71447 0.23501
 O974 O 0.21932 0.73507 0.25641
 Zr975 Zr 0.26729 0.75745 0.21496
 O976 O 0.24891 0.77988 0.23494
 Zr977 Zr 0.28540 0.72947 0.25942
 O978 O 0.26854 0.75114 0.28143
 Zr979 Zr 0.21714 0.76706 0.24222
 O980 O 0.23434 0.74601 0.21964
 Zr981 Zr 0.23584 0.73966 0.28688
 O982 O 0.25354 0.71666 0.26659
 Zr983 Zr 0.26429 0.78263 0.26629
 O984 O 0.28405 0.76176 0.24546
 O985 O 0.27051 0.72564 0.22839
 O986 O 0.23209 0.77151 0.27334
 C987 C 0.27678 0.68064 0.24352
 C988 C 0.25068 0.71915 0.18433
 C989 C 0.31592 0.73832 0.21802
 C990 C 0.22382 0.81526 0.25900
 C991 C 0.18783 0.76043 0.28490
 C992 C 0.25056 0.77948 0.31665
 H993 H 0.20431 0.72857 0.25861
 H994 H 0.27713 0.75198 0.29547
 H995 H 0.27891 0.71560 0.21826
 H996 H 0.24768 0.79443 0.22714
 H997 H 0.20927 0.77680 0.20084
 H998 H 0.24460 0.78366 0.18928
 H999 H 0.26234 0.72588 0.31837
 H1000 H 0.28386 0.70259 0.29331
 H1001 H 0.17620 0.76372 0.22795
 H1002 H 0.20685 0.69446 0.21251
 H1003 H 0.29979 0.78175 0.29091
 H1004 H 0.31843 0.75426 0.27063
 H1005 H 0.22673 0.68494 0.26458
 H1006 H 0.20686 0.70778 0.28970
 H1007 H 0.29665 0.78888 0.21545
 H1008 H 0.27549 0.81533 0.23979
 O1009 O 0.18577 0.73469 0.75747
 O1010 O 0.18711 0.74833 0.72127
 O1011 O 0.23973 0.68695 0.76018
 O1012 O 0.27653 0.68634 0.75674
 O1013 O 0.23154 0.73727 0.81267
 O1014 O 0.24039 0.77562 0.81447
 O1015 O 0.30105 0.75071 0.70982
 O1016 O 0.28706 0.71529 0.70554
 O1017 O 0.24885 0.79571 0.70217
 O1018 O 0.21183 0.80016 0.71789
 O1019 O 0.29032 0.80103 0.75860
 O1020 O 0.29449 0.78097 0.79337
 O1021 O 0.31196 0.76734 0.74200
 O1022 O 0.31028 0.75384 0.78204
 O1023 O 0.26044 0.81462 0.73956
 O1024 O 0.21930 0.81291 0.74769
 O1025 O 0.26820 0.76576 0.68923
 O1026 O 0.25306 0.72742 0.68774
 O1027 O 0.19641 0.75197 0.78941
 O1028 O 0.21333 0.78784 0.79621
 O1029 O 0.25059 0.70711 0.79977
 O1030 O 0.28883 0.70589 0.78290
 O1031 O 0.20930 0.70032 0.74176
 O1032 O 0.20883 0.72109 0.70596
 Zr1033 Zr 0.21522 0.73471 0.73798
 O1034 O 0.23526 0.75642 0.71870
 Zr1035 Zr 0.25904 0.71544 0.76638
 O1036 O 0.28093 0.73575 0.74761
 Zr1037 Zr 0.23057 0.75912 0.78502
 O1038 O 0.25170 0.78145 0.76779
 Zr1039 Zr 0.26752 0.74287 0.71599
 O1040 O 0.24701 0.71999 0.73356
 Zr1041 Zr 0.23965 0.78678 0.73521
 O1042 O 0.21717 0.76614 0.75331
 Zr1043 Zr 0.28344 0.76695 0.76303
 O1044 O 0.26314 0.74582 0.78315
 O1045 O 0.22697 0.72821 0.77010
 O1046 O 0.27173 0.77388 0.73095
 C1047 C 0.18170 0.74260 0.77705
 C1048 C 0.22098 0.68430 0.75015
 C1049 C 0.24033 0.71786 0.81535
 C1050 C 0.31571 0.76028 0.72202
 C1051 C 0.25979 0.78534 0.68677
 C1052 C 0.27931 0.81705 0.74938
 H1053 H 0.22848 0.75853 0.70377
 H1054 H 0.25247 0.79542 0.77640
 H1055 H 0.21716 0.71792 0.77862
 H1056 H 0.29561 0.72824 0.74615
 H1057 H 0.27777 0.70187 0.70794
 H1058 H 0.28522 0.69031 0.74318
 H1059 H 0.22574 0.81780 0.76203
 H1060 H 0.20321 0.79247 0.78396
 H1061 H 0.26373 0.72873 0.67504
 H1062 H 0.19501 0.71205 0.70682
 H1063 H 0.28264 0.79122 0.79870
 H1064 H 0.25576 0.77044 0.81779
 H1065 H 0.18506 0.76369 0.72686
 H1066 H 0.20732 0.78916 0.70657
 H1067 H 0.29082 0.71633 0.79547
 H1068 H 0.31677 0.74112 0.77376
 O1069 O 0.25250 0.20539 0.20100
 O1070 O 0.28641 0.20118 0.21792
 O1071 O 0.20553 0.19933 0.25627
 O1072 O 0.19707 0.21711 0.28741
 O1073 O 0.19855 0.25358 0.20715
 O1074 O 0.21737 0.28751 0.20137
 O1075 O 0.26206 0.25964 0.31319
 O1076 O 0.24961 0.22406 0.31463
 O1077 O 0.31076 0.26223 0.26169
 O1078 O 0.31200 0.25224 0.22269
 O1079 O 0.25976 0.31131 0.26337
 O1080 O 0.22116 0.31277 0.25416
 O1081 O 0.24485 0.29067 0.29939
 O1082 O 0.20805 0.29602 0.27979
 O1083 O 0.29066 0.29774 0.24587
 O1084 O 0.29558 0.27795 0.20954
 O1085 O 0.29707 0.24549 0.29307
 O1086 O 0.27978 0.20808 0.29358
 O1087 O 0.23588 0.23664 0.18694
 O1088 O 0.24595 0.27532 0.18629
 O1089 O 0.18474 0.23635 0.23819
 O1090 O 0.18559 0.24862 0.27766
 O1091 O 0.23593 0.18567 0.23792
 O1092 O 0.27491 0.18666 0.25113
 Zr1093 Zr 0.25754 0.21307 0.23480
 O1094 O 0.27895 0.23248 0.25438
 Zr1095 Zr 0.21223 0.23345 0.25983
 O1096 O 0.23186 0.25300 0.28105
 Zr1097 Zr 0.23250 0.25828 0.21436
 O1098 O 0.25242 0.27954 0.23360
 Zr1099 Zr 0.26360 0.23863 0.28537
 O1100 O 0.24286 0.21739 0.26663
 Zr1101 Zr 0.28333 0.26410 0.23990
 O1102 O 0.26418 0.24372 0.21872
 Zr1103 Zr 0.23817 0.28385 0.26553
 O1104 O 0.21656 0.26508 0.24506
 O1105 O 0.22629 0.22721 0.22863
 O1106 O 0.26966 0.27011 0.27148
 C1107 C 0.24453 0.21709 0.18476
 C1108 C 0.21684 0.18328 0.24757
 C1109 C 0.18241 0.24532 0.21874
 C1110 C 0.25370 0.27928 0.31542
 C1111 C 0.31304 0.25414 0.28152
 C1112 C 0.27932 0.31366 0.25473
 H1113 H 0.29329 0.22444 0.25626
 H1114 H 0.25409 0.29385 0.22547
 H1115 H 0.21675 0.21768 0.21923
 H1116 H 0.22402 0.25459 0.29557
 H1117 H 0.24242 0.21004 0.30995
 H1118 H 0.20718 0.21905 0.30025
 H1119 H 0.28599 0.29087 0.20561
 H1120 H 0.26110 0.26910 0.18374
 H1121 H 0.28714 0.20980 0.30829
 H1122 H 0.27286 0.17272 0.24257
 H1123 H 0.22621 0.31577 0.23864
 H1124 H 0.20765 0.29346 0.21341
 H1125 H 0.29239 0.21381 0.20901
 H1126 H 0.31573 0.23735 0.22887
 H1127 H 0.18175 0.26258 0.26958
 H1128 H 0.20454 0.28673 0.29310
 O1129 O 0.75084 0.71232 0.30373
 O1130 O 0.71549 0.70697 0.28887
 O1131 O 0.79570 0.70259 0.24908
 O1132 O 0.80201 0.71708 0.21528
 O1133 O 0.80225 0.76135 0.29112
 O1134 O 0.78201 0.79516 0.29422
 O1135 O 0.73431 0.75728 0.18744
 O1136 O 0.74904 0.72201 0.18870
 O1137 O 0.68796 0.76270 0.23969
 O1138 O 0.68846 0.75636 0.27976
 O1139 O 0.73769 0.81244 0.23115
 O1140 O 0.77710 0.81486 0.23967
 O1141 O 0.75099 0.78956 0.19767
 O1142 O 0.78888 0.79666 0.21431
 O1143 O 0.70739 0.79998 0.25044
 O1144 O 0.70418 0.78395 0.28913
 O1145 O 0.70133 0.74337 0.20990
 O1146 O 0.72029 0.70662 0.21246
 O1147 O 0.76705 0.74478 0.31426
 O1148 O 0.75435 0.78300 0.31166
 O1149 O 0.81571 0.74161 0.26164
 O1150 O 0.81322 0.74994 0.22111
 O1151 O 0.76583 0.69020 0.26917
 O1152 O 0.72663 0.68927 0.25696
 Zr1153 Zr 0.74358 0.71738 0.26980
 O1154 O 0.72103 0.73458 0.24897
 Zr1155 Zr 0.78760 0.73604 0.24135
 O1156 O 0.76675 0.75340 0.21882
 Zr1157 Zr 0.76785 0.76446 0.28479
 O1158 O 0.74669 0.78365 0.26406
 Zr1159 Zr 0.73532 0.73821 0.21702
 O1160 O 0.75722 0.71901 0.23722
 Zr1161 Zr 0.71604 0.76725 0.26028
 O1162 O 0.73645 0.74912 0.28293
 Zr1163 Zr 0.75998 0.78529 0.23145
 O1164 O 0.78272 0.76872 0.25301
 O1165 O 0.77456 0.73251 0.27340
 O1166 O 0.72877 0.77057 0.22794
 C1167 C 0.75973 0.72501 0.31840
 C1168 C 0.78503 0.68729 0.25989
 C1169 C 0.81832 0.75231 0.28000
 C1170 C 0.74130 0.77711 0.18327
 C1171 C 0.68539 0.75276 0.22089
 C1172 C 0.71804 0.81515 0.23948
 H1173 H 0.70692 0.72610 0.24840
 H1174 H 0.74479 0.79860 0.27062
 H1175 H 0.78484 0.72408 0.28330
 H1176 H 0.77392 0.75400 0.20388
 H1177 H 0.75685 0.70853 0.19435
 H1178 H 0.79205 0.71876 0.20224
 H1179 H 0.71376 0.79710 0.29147
 H1180 H 0.73960 0.77644 0.31521
 H1181 H 0.71248 0.70686 0.19786
 H1182 H 0.72905 0.67637 0.26718
 H1183 H 0.77120 0.82003 0.25424
 H1184 H 0.79117 0.80027 0.28133
 H1185 H 0.71034 0.72000 0.29759
 H1186 H 0.68527 0.74081 0.27551
 H1187 H 0.81647 0.76486 0.22721
 H1188 H 0.79187 0.78646 0.20170
 O1189 O 0.70266 0.24868 0.79539
 O1190 O 0.71660 0.21291 0.79819
 O1191 O 0.76164 0.28966 0.80079
 O1192 O 0.79320 0.29545 0.78189
 O1193 O 0.71221 0.30215 0.74872
 O1194 O 0.70528 0.28536 0.71351
 O1195 O 0.81277 0.22981 0.73728
 O1196 O 0.81541 0.24138 0.77355
 O1197 O 0.75810 0.18634 0.73418
 O1198 O 0.71958 0.18773 0.74620
 O1199 O 0.76247 0.23795 0.68664
 O1200 O 0.75650 0.27735 0.68656
 O1201 O 0.79994 0.24842 0.70659
 O1202 O 0.78376 0.28721 0.70268
 O1203 O 0.74265 0.20860 0.70018
 O1204 O 0.70648 0.20659 0.72178
 O1205 O 0.79060 0.19700 0.75020
 O1206 O 0.79252 0.21224 0.78883
 O1207 O 0.68979 0.26718 0.76463
 O1208 O 0.68776 0.25777 0.72558
 O1209 O 0.74435 0.31280 0.76544
 O1210 O 0.78323 0.30906 0.75080
 O1211 O 0.74113 0.26079 0.81446
 O1212 O 0.75090 0.22069 0.81209
 Zr1213 Zr 0.73577 0.24024 0.78650
 O1214 O 0.75334 0.21768 0.76589
 Zr1215 Zr 0.76410 0.28357 0.76620
 O1216 O 0.78333 0.26264 0.74541
 Zr1217 Zr 0.71699 0.26813 0.74216
 O1218 O 0.73415 0.24711 0.71977
 Zr1219 Zr 0.78524 0.23039 0.75908
 O1220 O 0.76855 0.25209 0.78148
 Zr1221 Zr 0.73816 0.21542 0.73444
 O1222 O 0.71889 0.23587 0.75599
 Zr1223 Zr 0.76698 0.25850 0.71472
 O1224 O 0.74866 0.28141 0.73473
 O1225 O 0.73212 0.27211 0.77306
 O1226 O 0.77050 0.22644 0.72779
 C1227 C 0.68715 0.25879 0.78435
 C1228 C 0.75216 0.27895 0.81695
 C1229 C 0.72472 0.31687 0.75773
 C1230 C 0.81530 0.23783 0.71742
 C1231 C 0.77811 0.18242 0.74095
 C1232 C 0.75220 0.21937 0.68412
 H1233 H 0.75435 0.20299 0.77346
 H1234 H 0.72568 0.24656 0.70564
 H1235 H 0.72373 0.28210 0.78325
 H1236 H 0.79840 0.26907 0.74348
 H1237 H 0.81133 0.24832 0.78801
 H1238 H 0.80521 0.28454 0.77871
 H1239 H 0.70321 0.21655 0.70893
 H1240 H 0.68383 0.24299 0.73189
 H1241 H 0.80657 0.20376 0.78633
 H1242 H 0.74277 0.22321 0.82638
 H1243 H 0.74056 0.27396 0.68409
 H1244 H 0.71780 0.29470 0.70807
 H1245 H 0.70719 0.20816 0.78555
 H1246 H 0.72550 0.18344 0.76105
 H1247 H 0.77506 0.31387 0.73722
 H1248 H 0.79729 0.28924 0.71184
 C1249 C 0.03939 1.00916 1.12883
 C1250 C 0.06012 0.99882 1.13210
 C1251 C 0.07177 0.98985 1.11388
 C1252 C 0.06265 0.99104 1.09244
 C1253 C 0.09963 0.99603 1.21017
 C1254 C 0.03022 1.01038 1.10740
 C1255 C 0.06974 0.99769 1.15404
 C1256 C 0.07839 0.99686 1.17215
 C1257 C 0.08937 0.99618 1.19292
 C1258 C 0.04172 1.00126 1.08895
 H1259 H 0.03030 1.01624 1.14283
 H1260 H 0.08789 0.98191 1.11624
 H1261 H 0.07197 0.98384 1.07866
 H1262 H 0.01407 1.01834 1.10533
 C1263 C 0.53957 0.51226 0.62930
 C1264 C 0.56063 0.50257 0.63250
 C1265 C 0.57268 0.49434 0.61419
 C1266 C 0.56364 0.49556 0.59274
 C1267 C 0.60036 0.49874 0.71038
 C1268 C 0.53046 0.51351 0.60784
 C1269 C 0.57016 0.50126 0.65446
 C1270 C 0.57884 0.50018 0.67255
 C1271 C 0.58994 0.49918 0.69323
 C1272 C 0.54237 0.50507 0.58930
 H1273 H 0.53017 0.51876 0.64338
 H1274 H 0.58905 0.48690 0.61650
 H1275 H 0.57326 0.48889 0.57889
 H1276 H 0.51405 0.52090 0.60581
 C1277 C 0.46313 -0.01026 0.62815
 C1278 C 0.44161 -0.00176 0.63169
 C1279 C 0.42913 0.00624 0.61357
 C1280 C 0.43818 0.00590 0.59197
 C1281 C 0.40271 -0.00023 0.71059
 C1282 C 0.47223 -0.01062 0.60657
 C1283 C 0.43217 -0.00133 0.65385
 C1284 C 0.42372 -0.00094 0.67217
 C1285 C 0.41293 -0.00051 0.69318
 C1286 C 0.45989 -0.00247 0.58821
 H1287 H 0.47288 -0.01655 0.64207
 H1288 H 0.41242 0.01280 0.61615
 H1289 H 0.42822 0.01232 0.57826
 H1290 H 0.48898 -0.01718 0.60431
 C1291 C -0.03978 0.48713 1.12625
 C1292 C -0.06137 0.49550 1.12961
 C1293 C -0.07395 0.50293 1.11133
 C1294 C -0.06491 0.50220 1.08974
 C1295 C -0.09997 0.49876 1.20858
 C1296 C -0.03068 0.48637 1.10468
 C1297 C -0.07076 0.49643 1.15177
 C1298 C -0.07916 0.49725 1.17010
 C1299 C -0.08986 0.49815 1.19112
 C1300 C -0.04311 0.49400 1.08616
 H1301 H -0.02994 0.48127 1.14030
 H1302 H -0.09073 0.50938 1.11378
 H1303 H -0.07494 0.50822 1.07590
 H1304 H -0.01386 0.47996 1.10256
 C1305 C -0.07961 0.50014 0.39059
 C1306 C -0.06869 0.50832 0.37148
 C1307 C -0.04725 0.51732 0.37332
 C1308 C -0.03658 0.51770 0.39408
 C1309 C -0.10502 0.50115 0.29182
 C1310 C -0.06899 0.50050 0.41137
 C1311 C -0.07911 0.50671 0.34987
 C1312 C -0.08759 0.50505 0.33169
 C1313 C -0.09718 0.50294 0.31026
 C1314 C -0.04721 0.50903 0.41334
 H1315 H -0.09621 0.49313 0.38938
 H1316 H -0.03862 0.52369 0.35863
 H1317 H -0.01984 0.52439 0.39494
 H1318 H -0.07771 0.49370 0.42580
 C1319 C 0.42024 0.99648 -0.10865
 C1320 C 0.43122 1.00499 -0.12759
 C1321 C 0.45256 1.01411 -0.12551
 C1322 C 0.46303 1.01449 -0.10464
 C1323 C 0.39528 1.00019 -0.20765
 C1324 C 0.43066 0.99684 -0.08775
 C1325 C 0.42086 1.00385 -0.14927
 C1326 C 0.41247 1.00274 -0.16754
 C1327 C 0.40301 1.00135 -0.18910
 C1328 C 0.45228 1.00569 -0.08551
 H1329 H 0.40372 0.98936 -0.11005
 H1330 H 0.46123 1.02073 -0.14006
 H1331 H 0.47965 1.02143 -0.10358
 H1332 H 0.42187 0.98992 -0.07343
 C1333 C 0.57995 0.50688 -0.10767
 C1334 C 0.56907 0.49851 -0.12646
 C1335 C 0.54747 0.48993 -0.12429
 C1336 C 0.53674 0.48975 -0.10345
 C1337 C 0.60605 0.49938 -0.20654
 C1338 C 0.56925 0.50672 -0.08678
 C1339 C 0.57989 0.49885 -0.14804
 C1340 C 0.58856 0.49907 -0.16630
 C1341 C 0.59823 0.49926 -0.18791
 C1342 C 0.54747 0.49817 -0.08442
 H1343 H 0.59667 0.51357 -0.10917
 H1344 H 0.53889 0.48342 -0.13873
 H1345 H 0.52001 0.48303 -0.10229
 H1346 H 0.57803 0.51332 -0.07252
 C1347 C 0.04606 -0.01321 0.37575
 C1348 C 0.06751 -0.00430 0.37344
 C1349 C 0.07820 0.00464 0.39208
 C1350 C 0.06740 0.00483 0.41291
 C1351 C 0.10450 -0.00299 0.29334
 C1352 C 0.03523 -0.01303 0.39653
 C1353 C 0.07830 -0.00398 0.35184
 C1354 C 0.08694 -0.00368 0.33356
 C1355 C 0.09662 -0.00330 0.31196
 C1356 C 0.04571 -0.00389 0.41537
 H1357 H 0.03763 -0.02016 0.36143
 H1358 H 0.09481 0.01159 0.39048
 H1359 H 0.07599 0.01197 0.42703
 H1360 H 0.01858 -0.01992 0.39778
 C1361 C 0.12778 1.03692 1.01093
 C1362 C 0.13092 1.05792 1.00115
 C1363 C 0.11263 1.06992 0.99286
 C1364 C 0.09123 1.06090 0.99416
 C1365 C 0.20849 1.09784 0.99798
 C1366 C 0.10636 1.02783 1.01225
 C1367 C 0.15281 1.06749 0.99991
 C1368 C 0.17082 1.07623 0.99896
 C1369 C 0.19141 1.08739 0.99817
 C1370 C 0.08784 1.03970 1.00380
 H1371 H 0.14186 1.02757 1.01749
 H1372 H 0.11492 1.08625 0.98535
 H1373 H 0.07738 1.07049 0.98746
 H1374 H 0.10436 1.01146 1.01975
 C1375 C 0.62856 0.53961 0.51124
 C1376 C 0.63188 0.56062 0.50154
 C1377 C 0.61366 0.57286 0.49343
 C1378 C 0.59216 0.56405 0.49480
 C1379 C 0.71013 0.59923 0.49824
 C1380 C 0.60706 0.53074 0.51264
 C1381 C 0.65389 0.56989 0.50019
 C1382 C 0.67206 0.57831 0.49919
 C1383 C 0.69287 0.58908 0.49840
 C1384 C 0.58861 0.54283 0.50433
 H1385 H 0.64258 0.53007 0.51767
 H1386 H 0.61609 0.58920 0.48599
 H1387 H 0.57838 0.57380 0.48822
 H1388 H 0.60495 0.51435 0.52005
 C1389 C 0.61452 0.42670 0.00712
 C1390 C 0.63273 0.43879 -0.00122
 C1391 C 0.62943 0.46030 -0.00982
 C1392 C 0.60800 0.46972 -0.01002
 C1393 C 0.71105 0.39868 -0.00054
 C1394 C 0.59309 0.43607 0.00695
 C1395 C 0.65472 0.42894 -0.00109
 C1396 C 0.67288 0.42015 -0.00093
 C1397 C 0.69372 0.40905 -0.00071
 C1398 C 0.58955 0.45772 -0.00161
 H1399 H 0.61689 0.41001 0.01377
 H1400 H 0.64340 0.46978 -0.01637
 H1401 H 0.60592 0.48642 -0.01673
 H1402 H 0.57932 0.42635 0.01356
 C1403 C 0.12610 -0.03897 0.48591
 C1404 C 0.12990 -0.06010 0.49521
 C1405 C 0.11195 -0.07244 0.50377
 C1406 C 0.09030 -0.06356 0.50335
 C1407 C 0.20976 -0.09678 0.49860
 C1408 C 0.10448 -0.03005 0.48546
 C1409 C 0.15221 -0.06912 0.49612
 C1410 C 0.17073 -0.07706 0.49696
 C1411 C 0.19204 -0.08716 0.49792
 C1412 C 0.08633 -0.04216 0.49436
 H1413 H 0.13986 -0.02932 0.47917
 H1414 H 0.11471 -0.08885 0.51096
 H1415 H 0.07676 -0.07333 0.51035
 H1416 H 0.10207 -0.01355 0.47839
 C1417 C 0.39224 -0.07596 0.49603
 C1418 C 0.37334 -0.06477 0.50424
 C1419 C 0.37560 -0.04345 0.51325
 C1420 C 0.39656 -0.03324 0.51382
 C1421 C 0.29321 -0.10059 0.49967
 C1422 C 0.41323 -0.06580 0.49657
 C1423 C 0.35158 -0.07495 0.50305
 C1424 C 0.33327 -0.08324 0.50196
 C1425 C 0.31171 -0.09271 0.50068
 C1426 C 0.41565 -0.04422 0.50534
 H1427 H 0.39072 -0.09247 0.48901
 H1428 H 0.36111 -0.03461 0.51967
 H1429 H 0.39773 -0.01665 0.52068
 H1430 H 0.42750 -0.07476 0.48988
 C1431 C -0.10974 0.41955 0.99411
 C1432 C -0.12864 0.43021 1.00298
 C1433 C -0.12660 0.45147 1.01220
 C1434 C -0.10584 0.46212 1.01239
 C1435 C -0.20818 0.39289 0.99975
 C1436 C -0.08896 0.43015 0.99427
 C1437 C -0.15019 0.41952 1.00225
 C1438 C -0.16832 0.41080 1.00151
 C1439 C -0.18973 0.40092 1.00056
 C1440 C -0.08674 0.45164 1.00331
 H1441 H -0.11108 0.40310 0.98691
 H1442 H -0.14110 0.45992 1.01910
 H1443 H -0.10481 0.47862 1.01948
 H1444 H -0.07468 0.42154 0.98715
 C1445 C -0.10817 0.57837 0.50442
 C1446 C -0.12688 0.56766 0.49572
 C1447 C -0.12466 0.54637 0.48660
 C1448 C -0.10386 0.53569 0.48635
 C1449 C -0.20689 0.60412 0.49883
 C1450 C -0.08732 0.56773 0.50419
 C1451 C -0.14848 0.57827 0.49652
 C1452 C -0.16674 0.58678 0.49725
 C1453 C -0.18831 0.59633 0.49812
 C1454 C -0.08494 0.54618 0.49527
 H1455 H -0.10973 0.59486 0.51154
 H1456 H -0.13905 0.53793 0.47983
 H1457 H -0.10266 0.51915 0.47931
 H1458 H -0.07314 0.57632 0.51117
 C1459 C 0.37319 1.04465 -0.00890
 C1460 C 0.37103 1.06620 -0.00038
 C1461 C 0.38977 1.07709 0.00802
 C1462 C 0.41062 1.06645 0.00792
 C1463 C 0.29131 1.10337 -0.00011
 C1464 C 0.39399 1.03397 -0.00902
 C1465 C 0.34953 1.07702 -0.00019
 C1466 C 0.33135 1.08574 -0.00010
 C1467 C 0.30986 1.09549 -0.00007
 C1468 C 0.41298 1.04473 -0.00059
 H1469 H 0.35877 1.03607 -0.01543
 H1470 H 0.38827 1.09378 0.01466
 H1471 H 0.42486 1.07525 0.01452
 H1472 H 0.39516 1.01728 -0.01571
 C1473 C 0.01036 1.12595 1.03910
 C1474 C 0.00104 1.12920 1.06036
 C1475 C -0.00672 1.11097 1.07282
 C1476 C -0.00542 1.08954 1.06399
 C1477 C -0.00302 1.20738 1.09872
 C1478 C 0.01168 1.10451 1.03021
 C1479 C -0.00040 1.15117 1.06961
 C1480 C -0.00155 1.16930 1.07798
 C1481 C -0.00260 1.19009 1.08868
 C1482 C 0.00369 1.08606 1.04251
 H1483 H 0.01650 1.13997 1.02937
 H1484 H -0.01387 1.11334 1.08935
 H1485 H -0.01175 1.07575 1.07392
 H1486 H 0.01877 1.10245 1.01362
 C1487 C 0.51120 0.62917 0.53895
 C1488 C 0.50080 0.63266 0.55967
 C1489 C 0.49196 0.61461 0.57167
 C1490 C 0.49331 0.59314 0.56292
 C1491 C 0.49745 0.71082 0.59818
 C1492 C 0.51257 0.60770 0.53014
 C1493 C 0.49950 0.65464 0.56891
 C1494 C 0.49852 0.67279 0.57730
 C1495 C 0.49769 0.69357 0.58804
 C1496 C 0.50356 0.58943 0.54200
 H1497 H 0.51819 0.64304 0.52959
 H1498 H 0.48398 0.61715 0.58778
 H1499 H 0.48618 0.57950 0.57250
 H1500 H 0.52055 0.60547 0.51400
 C1501 C -0.01343 0.62719 0.45863
 C1502 C -0.00498 0.63083 0.43705
 C1503 C 0.00281 0.61284 0.42439
 C1504 C 0.00248 0.59128 0.43339
 C1505 C -0.00143 0.71028 0.39984
 C1506 C -0.01378 0.60566 0.46768
 C1507 C -0.00409 0.65303 0.42790
 C1508 C -0.00323 0.67145 0.41981
 C1509 C -0.00219 0.69264 0.40956
 C1510 C -0.00564 0.58745 0.45524
 H1511 H -0.01955 0.64101 0.46853
 H1512 H 0.00933 0.61550 0.40762
 H1513 H 0.00887 0.57769 0.42335
 H1514 H -0.02017 0.60335 0.48453
 C1515 C 0.48766 1.12741 -0.03765
 C1516 C 0.49646 1.13102 -0.05910
 C1517 C 0.50460 1.11305 -0.07155
 C1518 C 0.50409 1.09150 -0.06256
 C1519 C 0.49897 1.20976 -0.09774
 C1520 C 0.48712 1.10587 -0.02860
 C1521 C 0.49708 1.15312 -0.06848
 C1522 C 0.49768 1.17139 -0.07691
 C1523 C 0.49840 1.19234 -0.08764
 C1524 C 0.49541 1.08766 -0.04093
 H1525 H 0.48127 1.14122 -0.02791
 H1526 H 0.51139 1.11570 -0.08821
 H1527 H 0.51060 1.07791 -0.07251
 H1528 H 0.48032 1.10354 -0.01191
 C1529 C 0.49853 0.39092 -0.07697
 C1530 C 0.50648 0.37196 -0.06574
 C1531 C 0.51519 0.37391 -0.04416
 C1532 C 0.51569 0.39469 -0.03372
 C1533 C 0.50100 0.29265 -0.10231
 C1534 C 0.49901 0.41171 -0.06658
 C1535 C 0.50519 0.35042 -0.07613
 C1536 C 0.50391 0.33232 -0.08464
 C1537 C 0.50232 0.31099 -0.09434
 C1538 C 0.50744 0.41384 -0.04474
 H1539 H 0.49175 0.38961 -0.09367
 H1540 H 0.52138 0.35934 -0.03530
 H1541 H 0.52229 0.39567 -0.01692
 H1542 H 0.49253 0.42606 -0.07559
 C1543 C -0.00178 -0.10828 0.42167
 C1544 C 0.00610 -0.12723 0.43299
 C1545 C 0.01469 -0.12520 0.45462
 C1546 C 0.01504 -0.10441 0.46504
 C1547 C 0.00021 -0.20661 0.39652
 C1548 C -0.00145 -0.08747 0.43205
 C1549 C 0.00474 -0.14883 0.42270
 C1550 C 0.00336 -0.16696 0.41425
 C1551 C 0.00162 -0.18830 0.40457
 C1552 C 0.00674 -0.08530 0.45398
 H1553 H -0.00846 -0.10964 0.40493
 H1554 H 0.02083 -0.13975 0.46355
 H1555 H 0.02146 -0.10340 0.48190
 H1556 H -0.00796 -0.07317 0.42300
 C1557 C 0.49153 -0.12401 0.54442
 C1558 C 0.50062 -0.12655 0.56581
 C1559 C 0.50964 -0.10810 0.57665
 C1560 C 0.50957 -0.08718 0.56614
 C1561 C 0.50013 -0.20640 0.60280
 C1562 C 0.49144 -0.10314 0.53388
 C1563 C 0.50069 -0.14813 0.57651
 C1564 C 0.50063 -0.16636 0.58515
 C1565 C 0.50042 -0.18788 0.59486
 C1566 C 0.50047 -0.08444 0.54460
 H1567 H 0.48450 -0.13818 0.53588
 H1568 H 0.51672 -0.10989 0.59321
 H1569 H 0.51664 -0.07319 0.57490
 H1570 H 0.48428 -0.10168 0.51733
 C1571 C 0.00652 0.38829 1.07561
 C1572 C -0.00201 0.36968 1.06467
 C1573 C -0.01072 0.37200 1.04310
 C1574 C -0.01089 0.39282 1.03246
 C1575 C -0.00136 0.29019 1.10239
 C1576 C 0.00637 0.40915 1.06502
 C1577 C -0.00173 0.34816 1.07547
 C1578 C -0.00155 0.33001 1.08426
 C1579 C -0.00141 0.30861 1.09422
 C1580 C -0.00232 0.41168 1.04328
 H1581 H 0.01331 0.38667 1.09232
 H1582 H -0.01736 0.35769 1.03448
 H1583 H -0.01773 0.39412 1.01576
 H1584 H 0.01309 0.42327 1.07386
 C1585 C 0.75341 0.32405 0.13711
 C1586 C 0.76491 0.31275 0.12010
 C1587 C 0.77540 0.29239 0.12493
 C1588 C 0.77401 0.28316 0.14648
 C1589 C 0.75760 0.34693 0.03904
 C1590 C 0.75198 0.31485 0.15869
 C1591 C 0.76487 0.32151 0.09750
 C1592 C 0.76387 0.32901 0.07869
 C1593 C 0.76131 0.33829 0.05698
 C1594 C 0.76202 0.29412 0.16359
 H1595 H 0.74515 0.33979 0.13359
 H1596 H 0.78431 0.28344 0.11193
 H1597 H 0.78201 0.26721 0.14959
 H1598 H 0.74263 0.32376 0.17139
 C1599 C 0.27551 0.79507 0.62576
 C1600 C 0.26483 0.81539 0.62126
 C1601 C 0.25341 0.82645 0.63848
 C1602 C 0.25224 0.81703 0.65996
 C1603 C 0.25715 0.85051 0.54073
 C1604 C 0.27438 0.78561 0.64722
 C1605 C 0.26452 0.82437 0.59879
 C1606 C 0.26335 0.83207 0.58010
 C1607 C 0.26071 0.84162 0.55855
 C1608 C 0.26246 0.79631 0.66453
 H1609 H 0.28436 0.78632 0.61259
 H1610 H 0.24502 0.84217 0.63518
 H1611 H 0.24294 0.82574 0.67283
 H1612 H 0.28251 0.76968 0.65009
 C1613 C 0.75989 0.67989 0.63703
 C1614 C 0.75249 0.69226 0.61855
 C1615 C 0.74235 0.71306 0.62168
 C1616 C 0.73983 0.72161 0.64325
 C1617 C 0.75358 0.65358 0.54037
 C1618 C 0.75739 0.68837 0.65859
 C1619 C 0.75442 0.68306 0.59651
 C1620 C 0.75533 0.67464 0.57831
 C1621 C 0.75517 0.66380 0.55751
 C1622 C 0.74740 0.70938 0.66197
 H1623 H 0.76758 0.66366 0.63477
 H1624 H 0.73637 0.72266 0.60748
 H1625 H 0.73212 0.73785 0.64521
 H1626 H 0.76347 0.67853 0.67258
 C1627 C 0.25814 0.17830 0.13674
 C1628 C 0.25057 0.19076 0.11838
 C1629 C 0.24041 0.21151 0.12173
 C1630 C 0.23803 0.21993 0.14336
 C1631 C 0.25133 0.15297 0.03971
 C1632 C 0.25578 0.18665 0.15839
 C1633 C 0.25239 0.18175 0.09624
 C1634 C 0.25323 0.17355 0.07793
 C1635 C 0.25298 0.16298 0.05698
 C1636 C 0.24577 0.20762 0.16196
 H1637 H 0.26585 0.16211 0.13433
 H1638 H 0.23431 0.22119 0.10763
 H1639 H 0.23030 0.23614 0.14547
 H1640 H 0.26199 0.17675 0.17227
 C1641 C 0.26877 0.21850 0.87960
 C1642 C 0.26196 0.19657 0.88380
 C1643 C 0.25418 0.18351 0.86625
 C1644 C 0.25297 0.19230 0.84462
 C1645 C 0.25455 0.15553 0.96104
 C1646 C 0.26762 0.22737 0.85787
 C1647 C 0.26195 0.18733 0.90609
 C1648 C 0.26082 0.17840 0.92418
 C1649 C 0.25812 0.16663 0.94453
 C1650 C 0.25954 0.21439 0.84015
 H1651 H 0.27474 0.22877 0.89311
 H1652 H 0.24881 0.16654 0.86933
 H1653 H 0.24676 0.18177 0.83143
 H1654 H 0.27282 0.24442 0.85501
 C1655 C 0.75807 0.68485 0.36751
 C1656 C 0.76456 0.69846 0.38517
 C1657 C 0.77005 0.72077 0.38102
 C1658 C 0.76881 0.72948 0.35923
 C1659 C 0.75644 0.65720 0.46210
 C1660 C 0.75675 0.69348 0.34584
 C1661 C 0.76439 0.68936 0.40749
 C1662 C 0.76308 0.68039 0.42554
 C1663 C 0.76015 0.66847 0.44575
 C1664 C 0.76192 0.71594 0.34142
 H1665 H 0.75372 0.66758 0.37055
 H1666 H 0.77501 0.73147 0.39462
 H1667 H 0.77291 0.74683 0.35640
 H1668 H 0.75152 0.68252 0.33257
 C1669 C 0.26558 0.81808 0.36432
 C1670 C 0.25643 0.80684 0.38281
 C1671 C 0.24497 0.78685 0.37963
 C1672 C 0.24279 0.77806 0.35812
 C1673 C 0.25572 0.84691 0.46070
 C1674 C 0.26342 0.80935 0.34281
 C1675 C 0.25793 0.81643 0.40483
 C1676 C 0.25848 0.82513 0.42297
 C1677 C 0.25785 0.83633 0.44371
 C1678 C 0.25202 0.78919 0.33941
 H1679 H 0.27432 0.83367 0.36652
 H1680 H 0.23764 0.77808 0.39378
 H1681 H 0.23395 0.76250 0.35618
 H1682 H 0.27079 0.81838 0.32886
 C1683 C 0.76822 0.31633 0.86538
 C1684 C 0.75838 0.30528 0.88363
 C1685 C 0.74643 0.28563 0.88007
 C1686 C 0.74433 0.27709 0.85844
 C1687 C 0.75602 0.34412 0.96231
 C1688 C 0.76615 0.30784 0.84374
 C1689 C 0.75954 0.31474 0.90577
 C1690 C 0.75972 0.32322 0.92406
 C1691 C 0.75859 0.33401 0.94506
 C1692 C 0.75412 0.28812 0.83994
 H1693 H 0.77736 0.33164 0.86785
 H1694 H 0.73857 0.27699 0.89401
 H1695 H 0.73500 0.26187 0.85622
 H1696 H 0.77395 0.31678 0.82998
 C1697 C 0.81638 0.36395 0.26342
 C1698 C 0.80468 0.38216 0.25446
 C1699 C 0.78467 0.37864 0.24304
 C1700 C 0.77629 0.35704 0.24076
 C1701 C 0.84343 0.46046 0.25412
 C1702 C 0.80807 0.34236 0.26117
 C1703 C 0.81381 0.40428 0.25609
 C1704 C 0.82218 0.42252 0.25675
 C1705 C 0.83305 0.44338 0.25621
 C1706 C 0.78787 0.33860 0.24985
 H1707 H 0.83200 0.36644 0.27212
 H1708 H 0.77556 0.39257 0.23584
 H1709 H 0.76069 0.35482 0.23200
 H1710 H 0.81742 0.32863 0.26844
 C1711 C 0.31741 0.86510 0.76411
 C1712 C 0.30572 0.88334 0.75520
 C1713 C 0.28559 0.87989 0.74396
 C1714 C 0.27711 0.85833 0.74177
 C1715 C 0.34513 0.96129 0.75490
 C1716 C 0.30900 0.84354 0.76194
 C1717 C 0.31499 0.90540 0.75672
 C1718 C 0.32351 0.92356 0.75734
 C1719 C 0.33458 0.94430 0.75684
 C1720 C 0.28871 0.83986 0.75077
 H1721 H 0.33311 0.86753 0.77267
 H1722 H 0.27649 0.89386 0.73682
 H1723 H 0.26144 0.85616 0.73312
 H1724 H 0.31837 0.82978 0.76913
 C1725 C 0.18317 0.86387 0.25781
 C1726 C 0.19667 0.88147 0.26464
 C1727 C 0.21899 0.87738 0.27033
 C1728 C 0.22783 0.85576 0.26890
 C1729 C 0.15682 0.95902 0.25678
 C1730 C 0.19194 0.84234 0.25630
 C1731 C 0.18759 0.90373 0.26454
 C1732 C 0.17892 0.92188 0.26332
 C1733 C 0.16755 0.94236 0.26049
 C1734 C 0.21444 0.83803 0.26160
 H1735 H 0.16589 0.86685 0.25331
 H1736 H 0.22962 0.89091 0.27555
 H1737 H 0.24520 0.85303 0.27311
 H1738 H 0.18109 0.82912 0.25077
 C1739 C 0.68495 0.36610 0.75421
 C1740 C 0.69812 0.38341 0.76227
 C1741 C 0.72001 0.37900 0.76923
 C1742 C 0.72872 0.35732 0.76795
 C1743 C 0.65792 0.46092 0.75594
 C1744 C 0.69358 0.34451 0.75288
 C1745 C 0.68904 0.40568 0.76250
 C1746 C 0.68030 0.42381 0.76162
 C1747 C 0.66879 0.44427 0.75924
 C1748 C 0.71562 0.33983 0.75962
 H1749 H 0.66800 0.36933 0.74872
 H1750 H 0.73038 0.39231 0.77543
 H1751 H 0.74574 0.35430 0.77329
 H1752 H 0.68296 0.33151 0.74646
 C1753 C 0.68036 0.63661 0.76238
 C1754 C 0.69259 0.61857 0.75393
 C1755 C 0.71290 0.62229 0.74284
 C1756 C 0.72107 0.64395 0.74038
 C1757 C 0.65558 0.53967 0.75397
 C1758 C 0.68848 0.65829 0.75994
 C1759 C 0.68374 0.59640 0.75568
 C1760 C 0.67573 0.57804 0.75637
 C1761 C 0.66540 0.55700 0.75588
 C1762 C 0.70898 0.66223 0.74895
 H1763 H 0.66450 0.63392 0.77081
 H1764 H 0.72239 0.60845 0.73605
 H1765 H 0.73693 0.64633 0.73188
 H1766 H 0.67876 0.67191 0.76680
 C1767 C 0.17877 0.13498 0.26257
 C1768 C 0.19085 0.11690 0.25399
 C1769 C 0.21113 0.12055 0.24282
 C1770 C 0.21942 0.14217 0.24040
 C1771 C 0.15395 0.03790 0.25404
 C1772 C 0.18701 0.15662 0.26017
 C1773 C 0.18192 0.09475 0.25574
 C1774 C 0.17390 0.07639 0.25643
 C1775 C 0.16366 0.05530 0.25594
 C1776 C 0.20748 0.16048 0.24910
 H1777 H 0.16294 0.13235 0.27107
 H1778 H 0.22051 0.10668 0.23594
 H1779 H 0.23525 0.14448 0.23183
 H1780 H 0.17741 0.17028 0.26713
 C1781 C 0.29205 0.12517 0.77342
 C1782 C 0.31288 0.12072 0.76365
 C1783 C 0.32465 0.13793 0.75296
 C1784 C 0.31550 0.15941 0.75173
 C1785 C 0.34838 0.04079 0.75698
 C1786 C 0.28286 0.14661 0.77222
 C1787 C 0.32178 0.09836 0.76363
 C1788 C 0.32953 0.07979 0.76272
 C1789 C 0.33924 0.05842 0.76036
 C1790 C 0.29436 0.16398 0.76115
 H1791 H 0.28276 0.11198 0.78168
 H1792 H 0.34077 0.13466 0.74527
 H1793 H 0.32482 0.17232 0.74309
 H1794 H 0.26658 0.14948 0.77971
 C1795 C 0.82439 0.63811 0.25152
 C1796 C 0.81309 0.62117 0.26314
 C1797 C 0.79314 0.62607 0.27442
 C1798 C 0.78430 0.64768 0.27377
 C1799 C 0.84640 0.54042 0.25503
 C1800 C 0.81559 0.65976 0.25083
 C1801 C 0.82149 0.59863 0.26259
 C1802 C 0.82873 0.57988 0.26131
 C1803 C 0.83780 0.55827 0.25861
 C1804 C 0.79528 0.66476 0.26174
 H1805 H 0.83983 0.63450 0.24267
 H1806 H 0.78423 0.61310 0.28344
 H1807 H 0.76867 0.65088 0.28242
 H1808 H 0.82448 0.67245 0.24143
 C1809 C 0.86317 0.25716 0.18064
 C1810 C 0.88097 0.26381 0.19405
 C1811 C 0.87705 0.26955 0.21640
 C1812 C 0.85541 0.26828 0.22540
 C1813 C 0.95877 0.25479 0.15443
 C1814 C 0.84162 0.25581 0.18957
 C1815 C 0.90326 0.26340 0.18488
 C1816 C 0.92144 0.26189 0.17622
 C1817 C 0.94200 0.25873 0.16497
 C1818 C 0.83749 0.26110 0.21213
 H1819 H 0.86603 0.25262 0.16333
 H1820 H 0.89073 0.27462 0.22696
 H1821 H 0.85282 0.27247 0.24282
 H1822 H 0.82825 0.25037 0.17881
 C1823 C 0.37794 0.77178 0.71663
 C1824 C 0.38186 0.76624 0.69423
 C1825 C 0.36408 0.75958 0.68080
 C1826 C 0.34255 0.75803 0.68976
 C1827 C 0.45965 0.75790 0.65441
 C1828 C 0.35633 0.77031 0.72566
 C1829 C 0.40414 0.76604 0.68501
 C1830 C 0.42233 0.76471 0.67632
 C1831 C 0.44289 0.76173 0.66501
 C1832 C 0.33843 0.76312 0.71238
 H1833 H 0.39161 0.77687 0.72720
 H1834 H 0.36693 0.75519 0.66345
 H1835 H 0.32919 0.75258 0.67899
 H1836 H 0.35375 0.77435 0.74312
 C1837 C 0.36532 0.26749 0.81635
 C1838 C 0.38348 0.25766 0.80527
 C1839 C 0.37991 0.24557 0.78568
 C1840 C 0.35829 0.24333 0.77721
 C1841 C 0.46123 0.25564 0.84540
 C1842 C 0.34370 0.26527 0.80794
 C1843 C 0.40551 0.25887 0.81478
 C1844 C 0.42364 0.25911 0.82350
 C1845 C 0.44432 0.25807 0.83475
 C1846 C 0.33988 0.25311 0.78827
 H1847 H 0.36784 0.27671 0.83164
 H1848 H 0.39381 0.23771 0.77706
 H1849 H 0.35602 0.23390 0.76202
 H1850 H 0.32999 0.27307 0.81689
 C1851 C 0.88144 0.74772 0.28567
 C1852 C 0.88506 0.75955 0.30541
 C1853 C 0.86687 0.76886 0.31691
 C1854 C 0.84519 0.76639 0.30874
 C1855 C 0.96333 0.75741 0.34447
 C1856 C 0.85976 0.74523 0.27744
 C1857 C 0.90720 0.76097 0.31467
 C1858 C 0.92544 0.76127 0.32315
 C1859 C 0.94629 0.76013 0.33410
 C1860 C 0.84133 0.75449 0.28891
 H1861 H 0.89537 0.74026 0.27674
 H1862 H 0.86943 0.77787 0.33232
 H1863 H 0.83146 0.77380 0.31799
 H1864 H 0.85746 0.73603 0.26212
 C1865 C 0.12711 0.77690 0.29399
 C1866 C 0.12237 0.76640 0.31444
 C1867 C 0.13935 0.75499 0.32587
 C1868 C 0.16085 0.75359 0.31664
 C1869 C 0.04154 0.75822 0.34817
 C1870 C 0.14859 0.77553 0.28472
 C1871 C 0.09984 0.76611 0.32309
 C1872 C 0.08108 0.76484 0.33048
 C1873 C 0.05945 0.76200 0.33963
 C1874 C 0.16565 0.76354 0.29576
 H1875 H 0.11410 0.78573 0.28497
 H1876 H 0.13585 0.74674 0.34169
 H1877 H 0.17354 0.74424 0.32560
 H1878 H 0.15166 0.78347 0.26866
 C1879 C 0.62581 0.27320 0.79270
 C1880 C 0.62135 0.26321 0.81345
 C1881 C 0.63859 0.25246 0.82512
 C1882 C 0.66013 0.25136 0.81592
 C1883 C 0.54101 0.25613 0.84860
 C1884 C 0.64730 0.27214 0.78346
 C1885 C 0.59892 0.26301 0.82235
 C1886 C 0.58027 0.26197 0.83003
 C1887 C 0.55878 0.25952 0.83961
 C1888 C 0.66470 0.26099 0.79484
 H1889 H 0.61259 0.28151 0.78348
 H1890 H 0.63531 0.24459 0.84119
 H1891 H 0.67306 0.24266 0.82515
 H1892 H 0.65018 0.27979 0.76722
 C1893 C 0.62065 0.74244 0.71245
 C1894 C 0.61724 0.75292 0.69174
 C1895 C 0.63553 0.76082 0.67940
 C1896 C 0.65715 0.75849 0.68782
 C1897 C 0.53858 0.75380 0.65369
 C1898 C 0.64226 0.74008 0.72092
 C1899 C 0.59510 0.75475 0.68266
 C1900 C 0.57680 0.75562 0.67441
 C1901 C 0.55584 0.75542 0.66378
 C1902 C 0.66079 0.74816 0.70874
 H1903 H 0.60660 0.73608 0.72204
 H1904 H 0.63308 0.76878 0.66325
 H1905 H 0.67098 0.76497 0.67802
 H1906 H 0.64441 0.73212 0.73710
 C1907 C 0.13435 0.25912 0.17987
 C1908 C 0.11607 0.25122 0.19223
 C1909 C 0.11949 0.24082 0.21298
 C1910 C 0.14111 0.23852 0.22146
 C1911 C 0.03763 0.25132 0.15383
 C1912 C 0.15597 0.25684 0.18829
 C1913 C 0.09395 0.25290 0.18309
 C1914 C 0.07569 0.25359 0.17475
 C1915 C 0.05481 0.25317 0.16401
 C1916 C 0.15962 0.24657 0.20923
 H1917 H 0.13189 0.26701 0.16369
 H1918 H 0.10546 0.23446 0.22258
 H1919 H 0.14327 0.23060 0.23765
 H1920 H 0.16978 0.26330 0.17845
 C1921 C -0.07334 1.00313 0.88937
 C1922 C -0.06117 0.99560 0.87084
 C1923 C -0.03987 0.98636 0.87376
 C1924 C -0.03059 0.98501 0.89515
 C1925 C -0.10095 1.00139 0.79303
 C1926 C -0.06413 1.00182 0.91074
 C1927 C -0.07073 0.99741 0.84890
 C1928 C -0.07944 0.99898 0.83085
 C1929 C -0.09055 1.00057 0.81020
 C1930 C -0.04255 0.99293 0.91388
 H1931 H -0.08991 1.01020 0.88727
 H1932 H -0.03036 0.98040 0.85950
 H1933 H -0.01393 0.97812 0.89695
 H1934 H -0.07383 1.00805 0.92474
 C1935 C 0.42749 0.50331 0.38937
 C1936 C 0.43973 0.49538 0.37105
 C1937 C 0.46119 0.48660 0.37419
 C1938 C 0.47054 0.48607 0.39557
 C1939 C 0.40017 0.49862 0.29303
 C1940 C 0.43678 0.50282 0.41074
 C1941 C 0.43014 0.49636 0.34910
 C1942 C 0.42148 0.49728 0.33099
 C1943 C 0.41047 0.49820 0.31026
 C1944 C 0.45851 0.49437 0.41407
 H1945 H 0.41082 0.51006 0.38711
 H1946 H 0.47076 0.48034 0.36010
 H1947 H 0.48730 0.47947 0.39752
 H1948 H 0.42703 0.50933 0.42457
 C1949 C 0.53942 0.01644 0.37117
 C1950 C 0.56125 0.00863 0.36791
 C1951 C 0.57405 0.00193 0.38630
 C1952 C 0.56495 0.00262 0.40787
 C1953 C 0.59992 0.00313 0.28906
 C1954 C 0.53025 0.01716 0.39273
 C1955 C 0.57058 0.00720 0.34574
 C1956 C 0.57899 0.00583 0.32745
 C1957 C 0.58976 0.00424 0.30647
 C1958 C 0.54285 0.01003 0.41133
 H1959 H 0.52939 0.02172 0.35703
 H1960 H 0.59101 -0.00407 0.38395
 H1961 H 0.57513 -0.00298 0.42176
 H1962 H 0.51319 0.02294 0.39477
 C1963 C 0.03747 0.51350 0.86954
 C1964 C 0.05927 0.50552 0.86646
 C1965 C 0.07166 0.49816 0.88489
 C1966 C 0.06222 0.49845 0.90631
 C1967 C 0.09939 0.50183 0.78824
 C1968 C 0.02797 0.51382 0.89098
 C1969 C 0.06902 0.50465 0.84445
 C1970 C 0.07781 0.50373 0.82630
 C1971 C 0.08897 0.50262 0.80552
 C1972 C 0.04018 0.50611 0.90960
 H1973 H 0.02777 0.51930 0.85538
 H1974 H 0.08858 0.49200 0.88267
 H1975 H 0.07212 0.49241 0.92022
 H1976 H 0.01097 0.51984 0.89289
 C1977 C 0.07967 0.50232 0.60627
 C1978 C 0.06854 0.49432 0.62534
 C1979 C 0.04705 0.48546 0.62339
 C1980 C 0.03661 0.48488 0.60252
 C1981 C 0.10486 0.50020 0.70509
 C1982 C 0.06927 0.50177 0.58539
 C1983 C 0.07891 0.49573 0.64697
 C1984 C 0.08739 0.49711 0.66517
 C1985 C 0.09700 0.49881 0.68662
 C1986 C 0.04752 0.49320 0.58327
 H1987 H 0.09629 0.50923 0.60758
 H1988 H 0.03827 0.47922 0.63804
 H1989 H 0.01988 0.47818 0.60154
 H1990 H 0.07820 0.50831 0.57097
 C1991 C 0.57980 0.99840 0.10705
 C1992 C 0.56848 0.99125 0.12635
 C1993 C 0.54674 0.98296 0.12465
 C1994 C 0.53616 0.98228 0.10384
 C1995 C 0.60491 0.99994 0.20583
 C1996 C 0.56928 0.99776 0.08624
 C1997 C 0.57885 0.99324 0.14795
 C1998 C 0.58735 0.99525 0.16609
 C1999 C 0.59700 0.99780 0.18745
 C2000 C 0.54720 0.98997 0.08439
 H2001 H 0.59663 1.00485 0.10815
 H2002 H 0.53780 0.97738 0.13948
 H2003 H 0.51918 0.97621 0.10308
 H2004 H 0.57832 1.00378 0.07166
 C2005 C 0.42237 0.49365 0.11133
 C2006 C 0.43294 0.50240 0.13011
 C2007 C 0.45434 0.51149 0.12797
 C2008 C 0.46524 0.51164 0.10719
 C2009 C 0.39531 0.49902 0.20990
 C2010 C 0.43321 0.49378 0.09053
 C2011 C 0.42208 0.50163 0.15168
 C2012 C 0.41327 0.50085 0.16987
 C2013 C 0.40335 0.49986 0.19136
 C2014 C 0.45486 0.50265 0.08822
 H2015 H 0.40581 0.48656 0.11280
 H2016 H 0.46269 0.51830 0.14240
 H2017 H 0.48185 0.51864 0.10605
 H2018 H 0.42469 0.48674 0.07632
 C2019 C -0.04748 0.01034 0.62751
 C2020 C -0.06880 0.00115 0.62990
 C2021 C -0.07941 -0.00797 0.61131
 C2022 C -0.06873 -0.00794 0.59042
 C2023 C -0.10614 0.00063 0.70987
 C2024 C -0.03675 0.01039 0.60666
 C2025 C -0.07964 0.00094 0.65149
 C2026 C -0.08839 0.00080 0.66972
 C2027 C -0.09820 0.00068 0.69128
 C2028 C -0.04723 0.00121 0.58783
 H2029 H -0.03910 0.01743 0.64179
 H2030 H -0.09592 -0.01514 0.61297
 H2031 H -0.07731 -0.01513 0.57633
 H2032 H -0.02024 0.01759 0.60532
 C2033 C -0.12750 0.96000 0.98812
 C2034 C -0.13075 0.93876 0.99733
 C2035 C -0.11249 0.92639 1.00513
 C2036 C -0.09104 0.93535 1.00411
 C2037 C -0.20905 0.90034 1.00160
 C2038 C -0.10605 0.96903 0.98707
 C2039 C -0.15276 0.92951 0.99879
 C2040 C -0.17094 0.92113 1.00001
 C2041 C -0.19176 0.91043 1.00115
 C2042 C -0.08759 0.95687 0.99526
 H2043 H -0.14156 0.96965 0.98195
 H2044 H -0.11486 0.90987 1.01219
 H2045 H -0.07724 0.92553 1.01056
 H2046 H -0.10401 0.98564 0.98017
 C2047 C 0.38852 0.42967 0.50462
 C2048 C 0.37021 0.44173 0.49646
 C2049 C 0.37330 0.46298 0.48720
 C2050 C 0.39464 0.47230 0.48640
 C2051 C 0.29264 0.40171 0.50009
 C2052 C 0.40985 0.43893 0.50386
 C2053 C 0.34834 0.43208 0.49761
 C2054 C 0.33034 0.42331 0.49864
 C2055 C 0.30975 0.41213 0.49966
 C2056 C 0.41315 0.46044 0.49490
 H2057 H 0.38629 0.41316 0.51173
 H2058 H 0.35920 0.47238 0.48074
 H2059 H 0.39658 0.48888 0.47940
 H2060 H 0.42368 0.42931 0.51054
 C2061 C 0.38709 0.57050 -0.00128
 C2062 C 0.36893 0.55792 0.00636
 C2063 C 0.37247 0.53646 0.01498
 C2064 C 0.39407 0.52748 0.01567
 C2065 C 0.28968 0.59583 0.00216
 C2066 C 0.40871 0.56158 -0.00061
 C2067 C 0.34669 0.56711 0.00524
 C2068 C 0.32831 0.57534 0.00419
 C2069 C 0.30720 0.58586 0.00299
 C2070 C 0.41245 0.53988 0.00772
 H2071 H 0.38454 0.58717 -0.00792
 H2072 H 0.35853 0.52660 0.02100
 H2073 H 0.39631 0.51073 0.02219
 H2074 H 0.42242 0.57160 -0.00687
 C2075 C -0.13091 0.03693 0.51165
 C2076 C -0.13410 0.05852 0.50322
 C2077 C -0.11574 0.07084 0.49561
 C2078 C -0.09428 0.06160 0.49629
 C2079 C -0.21184 0.09948 0.50081
 C2080 C -0.10944 0.02762 0.51235
 C2081 C -0.15608 0.06832 0.50251
 C2082 C -0.17414 0.07727 0.50186
 C2083 C -0.19477 0.08873 0.50118
 C2084 C -0.09085 0.03984 0.50461
 H2085 H -0.14501 0.02728 0.51764
 H2086 H -0.11801 0.08760 0.48912
 H2087 H -0.08041 0.07149 0.49018
 H2088 H -0.10743 0.01083 0.51884
 C2089 C 0.62641 0.04889 0.48311
 C2090 C 0.62816 0.07048 0.49164
 C2091 C 0.60897 0.08150 0.49934
 C2092 C 0.58822 0.07087 0.49892
 C2093 C 0.70767 0.10713 0.49906
 C2094 C 0.60566 0.03821 0.48266
 C2095 C 0.64972 0.08104 0.49324
 C2096 C 0.66783 0.08966 0.49492
 C2097 C 0.68921 0.09936 0.49713
 C2098 C 0.58632 0.04897 0.49081
 H2099 H 0.64115 0.04017 0.47712
 H2100 H 0.61008 0.09820 0.50599
 H2101 H 0.57374 0.07972 0.50531
 H2102 H 0.60487 0.02138 0.47631
 C2103 C 0.10736 0.57669 0.99973
 C2104 C 0.12631 0.56549 0.99167
 C2105 C 0.12411 0.54421 0.98253
 C2106 C 0.10315 0.53400 0.98181
 C2107 C 0.20642 0.60081 0.99910
 C2108 C 0.08639 0.56652 0.99904
 C2109 C 0.14810 0.57554 0.99343
 C2110 C 0.16639 0.58374 0.99514
 C2111 C 0.18793 0.59309 0.99729
 C2112 C 0.08403 0.54492 0.99030
 H2113 H 0.10883 0.59316 1.00684
 H2114 H 0.13864 0.53537 0.97624
 H2115 H 0.10201 0.51739 0.97498
 H2116 H 0.07209 0.57546 1.00571
 C2117 C 0.12785 0.45543 0.50616
 C2118 C 0.13006 0.43385 0.49771
 C2119 C 0.11133 0.42287 0.48941
 C2120 C 0.09044 0.43342 0.48956
 C2121 C 0.20979 0.39662 0.49771
 C2122 C 0.10699 0.46602 0.50634
 C2123 C 0.15159 0.42308 0.49753
 C2124 C 0.16978 0.41436 0.49749
 C2125 C 0.19126 0.40457 0.49755
 C2126 C 0.08801 0.45515 0.49803
 H2127 H 0.14225 0.46408 0.51263
 H2128 H 0.11287 0.40616 0.48282
 H2129 H 0.07621 0.42454 0.48305
 H2130 H 0.10577 0.48272 0.51300
 C2131 C 0.60951 0.92204 -0.00602
 C2132 C 0.62808 0.93271 0.00301
 C2133 C 0.62569 0.95395 0.01224
 C2134 C 0.60486 0.96459 0.01229
 C2135 C 0.70796 0.89591 0.00069
 C2136 C 0.58865 0.93263 -0.00599
 C2137 C 0.64968 0.92211 0.00244
 C2138 C 0.66792 0.91352 0.00189
 C2139 C 0.68943 0.90383 0.00122
 C2140 C 0.58609 0.95411 0.00305
 H2141 H 0.61119 0.90559 -0.01322
 H2142 H 0.63997 0.96236 0.01927
 H2143 H 0.60352 0.98107 0.01943
 H2144 H 0.57459 0.92405 -0.01321
 C2145 C 0.00306 0.88604 0.93001
 C2146 C -0.00477 0.86781 0.94242
 C2147 C -0.01405 0.87106 0.96370
 C2148 C -0.01515 0.89247 0.97271
 C2149 C -0.00017 0.79019 0.90296
 C2150 C 0.00199 0.90744 0.93895
 C2151 C -0.00328 0.84586 0.93311
 C2152 C -0.00199 0.82781 0.92455
 C2153 C -0.00073 0.80721 0.91347
 C2154 C -0.00694 0.91090 0.96050
 H2155 H 0.01016 0.88370 0.91346
 H2156 H -0.02026 0.85704 0.97339
 H2157 H -0.02211 0.89452 0.98935
 H2158 H 0.00846 0.92120 0.92907
 C2159 C 0.48698 0.37447 0.46280
 C2160 C 0.49613 0.37128 0.44146
 C2161 C 0.50420 0.38950 0.42918
 C2162 C 0.50344 0.41082 0.43830
 C2163 C 0.49950 0.29372 0.40180
 C2164 C 0.48618 0.39582 0.47198
 C2165 C 0.49725 0.34941 0.43195
 C2166 C 0.49823 0.33140 0.42327
 C2167 C 0.49916 0.31081 0.41218
 C2168 C 0.49458 0.41423 0.45989
 H2169 H 0.48060 0.36046 0.47239
 H2170 H 0.51122 0.38719 0.41259
 H2171 H 0.51004 0.42458 0.42850
 H2172 H 0.47928 0.39783 0.48865
 C2173 C -0.00384 0.38608 0.56884
 C2174 C 0.00376 0.36790 0.55637
 C2175 C 0.01241 0.37126 0.53482
 C2176 C 0.01328 0.39275 0.52566
 C2177 C 0.00065 0.28978 0.59623
 C2178 C -0.00300 0.40756 0.55976
 C2179 C 0.00280 0.34588 0.56594
 C2180 C 0.00197 0.32775 0.57464
 C2181 C 0.00111 0.30700 0.58578
 C2182 C 0.00550 0.41116 0.53801
 H2183 H -0.01049 0.38364 0.58559
 H2184 H 0.01840 0.35727 0.52507
 H2185 H 0.01990 0.39490 0.50888
 H2186 H -0.00914 0.42131 0.56974
 C2187 C 0.51394 0.87100 0.03694
 C2188 C 0.50565 0.86735 0.05859
 C2189 C 0.49813 0.88536 0.07137
 C2190 C 0.49856 0.90694 0.06245
 C2191 C 0.50231 0.78867 0.09731
 C2192 C 0.51440 0.89257 0.02796
 C2193 C 0.50476 0.84519 0.06782
 C2194 C 0.50390 0.82690 0.07621
 C2195 C 0.50293 0.80598 0.08701
 C2196 C 0.50654 0.91079 0.04056
 H2197 H 0.51987 0.85716 0.02695
 H2198 H 0.49175 0.88270 0.08819
 H2199 H 0.49239 0.92053 0.07262
 H2200 H 0.52065 0.89491 0.01106
 C2201 C 0.48399 0.62359 0.04773
 C2202 C 0.49263 0.62575 0.06931
 C2203 C 0.50029 0.60683 0.08084
 C2204 C 0.49978 0.58593 0.07066
 C2205 C 0.50030 0.70581 0.10387
 C2206 C 0.48345 0.60270 0.03750
 C2207 C 0.49442 0.64747 0.07927
 C2208 C 0.49620 0.66575 0.08732
 C2209 C 0.49844 0.68729 0.09642
 C2210 C 0.49163 0.58364 0.04873
 H2211 H 0.47801 0.63811 0.03864
 H2212 H 0.50702 0.60829 0.09755
 H2213 H 0.50620 0.57166 0.07983
 H2214 H 0.47707 0.60160 0.02063
 C2215 C 0.00083 0.10838 0.57806
 C2216 C -0.00649 0.12735 0.56643
 C2217 C -0.01488 0.12528 0.54473
 C2218 C -0.01567 0.10437 0.53457
 C2219 C -0.00000 0.20699 0.60208
 C2220 C 0.00007 0.08746 0.56796
 C2221 C -0.00489 0.14899 0.57655
 C2222 C -0.00336 0.16716 0.58487
 C2223 C -0.00150 0.18857 0.59433
 C2224 C -0.00803 0.08521 0.54600
 H2225 H 0.00736 0.10978 0.59486
 H2226 H -0.02059 0.13986 0.53556
 H2227 H -0.02200 0.10329 0.51768
 H2228 H 0.00608 0.07311 0.57728
 C2229 C 0.51274 0.12845 0.45429
 C2230 C 0.50360 0.13094 0.43291
 C2231 C 0.49497 0.11239 0.42195
 C2232 C 0.49527 0.09146 0.43240
 C2233 C 0.49961 0.21099 0.39658
 C2234 C 0.51306 0.10754 0.46479
 C2235 C 0.50265 0.15262 0.42246
 C2236 C 0.50173 0.17089 0.41398
 C2237 C 0.50057 0.19244 0.40441
 C2238 C 0.50419 0.08880 0.45402
 H2239 H 0.51946 0.14271 0.46293
 H2240 H 0.48784 0.11413 0.40540
 H2241 H 0.48833 0.07742 0.42359
 H2242 H 0.52008 0.10613 0.48140
 C2243 C 0.01164 0.62426 0.95250
 C2244 C 0.00274 0.62687 0.93103
 C2245 C -0.00583 0.60838 0.91990
 C2246 C -0.00575 0.58741 0.93029
 C2247 C -0.00039 0.70751 0.89587
 C2248 C 0.01173 0.60332 0.96293
 C2249 C 0.00198 0.64864 0.92072
 C2250 C 0.00124 0.66704 0.91248
 C2251 C 0.00034 0.68878 0.90330
 C2252 C 0.00289 0.58464 0.95203
 H2253 H 0.01831 0.63845 0.96127
 H2254 H -0.01276 0.61022 0.90328
 H2255 H -0.01267 0.57343 0.92139
 H2256 H 0.01854 0.60185 0.97963
 C2257 C 0.22697 0.70894 0.87707
 C2258 C 0.23680 0.68809 0.88110
 C2259 C 0.24716 0.67666 0.86348
 C2260 C 0.24799 0.68613 0.84202
 C2261 C 0.24392 0.65055 0.96059
 C2262 C 0.22777 0.71845 0.85562
 C2263 C 0.23712 0.67870 0.90340
 C2264 C 0.23822 0.67046 0.92186
 C2265 C 0.24066 0.66014 0.94307
 C2266 C 0.23848 0.70725 0.83784
 H2267 H 0.21895 0.71797 0.89057
 H2268 H 0.25488 0.66053 0.86640
 H2269 H 0.25636 0.67702 0.82880
 H2270 H 0.22025 0.73472 0.85305
 C2271 C 0.72526 0.20956 0.37722
 C2272 C 0.73512 0.18882 0.38169
 C2273 C 0.74556 0.17710 0.36430
 C2274 C 0.74643 0.18619 0.34265
 C2275 C 0.74299 0.15324 0.46210
 C2276 C 0.72609 0.21869 0.35559
 C2277 C 0.73548 0.17989 0.40422
 C2278 C 0.73666 0.17209 0.42289
 C2279 C 0.73933 0.16233 0.44438
 C2280 C 0.73689 0.20722 0.33804
 H2281 H 0.71719 0.21884 0.39052
 H2282 H 0.75332 0.16105 0.36753
 H2283 H 0.75487 0.17687 0.32962
 H2284 H 0.71855 0.23490 0.35271
 C2285 C 0.26007 0.28582 0.37817
 C2286 C 0.24996 0.30661 0.38154
 C2287 C 0.24187 0.31882 0.36325
 C2288 C 0.24357 0.31017 0.34167
 C2289 C 0.24988 0.34561 0.45965
 C2290 C 0.26179 0.27710 0.35659
 C2291 C 0.24855 0.31586 0.40361
 C2292 C 0.24791 0.32432 0.42181
 C2293 C 0.24824 0.33525 0.44258
 C2294 C 0.25342 0.28913 0.33808
 H2295 H 0.26657 0.27632 0.39221
 H2296 H 0.23420 0.33503 0.36567
 H2297 H 0.23691 0.31988 0.32786
 H2298 H 0.26942 0.26085 0.35446
 C2299 C 0.74079 0.82010 0.86336
 C2300 C 0.74871 0.80780 0.88167
 C2301 C 0.75925 0.78723 0.87827
 C2302 C 0.76154 0.77879 0.85663
 C2303 C 0.74735 0.84565 0.96028
 C2304 C 0.74306 0.81172 0.84173
 C2305 C 0.74674 0.81675 0.90382
 C2306 C 0.74573 0.82495 0.92212
 C2307 C 0.74578 0.83555 0.94305
 C2308 C 0.75332 0.79088 0.83810
 H2309 H 0.73280 0.83615 0.86582
 H2310 H 0.76564 0.77769 0.89234
 H2311 H 0.76948 0.76268 0.85448
 H2312 H 0.73648 0.82146 0.82790
 C2313 C 0.74130 0.81762 0.13441
 C2314 C 0.73501 0.80392 0.11674
 C2315 C 0.72986 0.78153 0.12089
 C2316 C 0.73140 0.77279 0.14264
 C2317 C 0.74390 0.84371 0.03903
 C2318 C 0.74293 0.80896 0.15606
 C2319 C 0.73530 0.81289 0.09436
 C2320 C 0.73677 0.82155 0.07615
 C2321 C 0.73995 0.83296 0.05567
 C2322 C 0.73828 0.78637 0.16042
 H2323 H 0.74538 0.83496 0.13137
 H2324 H 0.72507 0.77076 0.10729
 H2325 H 0.72769 0.75535 0.14543
 H2326 H 0.74811 0.81995 0.16933
 C2327 C 0.23086 0.28305 0.61986
 C2328 C 0.23594 0.30552 0.61607
 C2329 C 0.24180 0.31905 0.63402
 C2330 C 0.24308 0.31013 0.65561
 C2331 C 0.24560 0.34553 0.53841
 C2332 C 0.23206 0.27406 0.64155
 C2333 C 0.23657 0.31473 0.59376
 C2334 C 0.23826 0.32349 0.57561
 C2335 C 0.24159 0.33488 0.55513
 C2336 C 0.23851 0.28746 0.65962
 H2337 H 0.22640 0.27240 0.60605
 H2338 H 0.24582 0.33644 0.63127
 H2339 H 0.24795 0.32099 0.66911
 H2340 H 0.22844 0.25656 0.64406
 C2341 C 0.75732 0.21308 0.62090
 C2342 C 0.74566 0.19324 0.61742
 C2343 C 0.73663 0.18172 0.63580
 C2344 C 0.73906 0.19002 0.65747
 C2345 C 0.74479 0.15478 0.53858
 C2346 C 0.75977 0.22145 0.64258
 C2347 C 0.74375 0.18412 0.59520
 C2348 C 0.74280 0.17578 0.57687
 C2349 C 0.74297 0.16501 0.55584
 C2350 C 0.75062 0.21004 0.66117
 H2351 H 0.76455 0.22207 0.60685
 H2352 H 0.72774 0.16625 0.63340
 H2353 H 0.73174 0.18079 0.67130
 H2354 H 0.76871 0.23691 0.64474
 C2355 C 0.25499 0.71285 0.12109
 C2356 C 0.24351 0.69287 0.11784
 C2357 C 0.23452 0.68147 0.13630
 C2358 C 0.23697 0.68994 0.15788
 C2359 C 0.24404 0.65241 0.04019
 C2360 C 0.25746 0.72139 0.14269
 C2361 C 0.24197 0.68334 0.09581
 C2362 C 0.24139 0.67455 0.07771
 C2363 C 0.24198 0.66317 0.05707
 C2364 C 0.24851 0.71000 0.16139
 H2365 H 0.26220 0.72173 0.10696
 H2366 H 0.22577 0.66590 0.13404
 H2367 H 0.22981 0.68073 0.17180
 H2368 H 0.26639 0.73687 0.14471
 C2369 C 0.18409 0.63577 0.73402
 C2370 C 0.19606 0.61760 0.74269
 C2371 C 0.21613 0.62120 0.75398
 C2372 C 0.22422 0.64288 0.75656
 C2373 C 0.15681 0.53963 0.74323
 C2374 C 0.19211 0.65743 0.73658
 C2375 C 0.18698 0.59547 0.74110
 C2376 C 0.17850 0.57729 0.74052
 C2377 C 0.16741 0.55656 0.74113
 C2378 C 0.21227 0.66129 0.74793
 H2379 H 0.16843 0.63321 0.72543
 H2380 H 0.22544 0.60728 0.76095
 H2381 H 0.23980 0.64519 0.76534
 H2382 H 0.18247 0.67114 0.72966
 C2383 C 0.68287 0.13471 0.23368
 C2384 C 0.69487 0.11651 0.24224
 C2385 C 0.71487 0.12010 0.25367
 C2386 C 0.72287 0.14179 0.25646
 C2387 C 0.65603 0.03833 0.24278
 C2388 C 0.69081 0.15638 0.23645
 C2389 C 0.68587 0.09435 0.24044
 C2390 C 0.67749 0.07612 0.23976
 C2391 C 0.66651 0.05532 0.24042
 C2392 C 0.71091 0.16023 0.24790
 H2393 H 0.66726 0.13218 0.22500
 H2394 H 0.72420 0.10616 0.26058
 H2395 H 0.73842 0.14408 0.26531
 H2396 H 0.68116 0.17011 0.22958
 C2397 C 0.81884 0.13386 0.74177
 C2398 C 0.80511 0.11609 0.73588
 C2399 C 0.78265 0.12009 0.73066
 C2400 C 0.77388 0.14176 0.73175
 C2401 C 0.84373 0.03804 0.74597
 C2402 C 0.81014 0.15545 0.74295
 C2403 C 0.81407 0.09377 0.73662
 C2404 C 0.82253 0.07556 0.73838
 C2405 C 0.83350 0.05493 0.74182
 C2406 C 0.78747 0.15965 0.73824
 H2407 H 0.83623 0.13097 0.74590
 H2408 H 0.77184 0.10643 0.72618
 H2409 H 0.75638 0.14440 0.72803
 H2410 H 0.82114 0.16879 0.74785
 C2411 C 0.31620 0.63118 0.24766
 C2412 C 0.30298 0.61389 0.23962
 C2413 C 0.28118 0.61840 0.23243
 C2414 C 0.27260 0.64015 0.23347
 C2415 C 0.34292 0.53633 0.24694
 C2416 C 0.30770 0.65283 0.24875
 C2417 C 0.31194 0.59157 0.23966
 C2418 C 0.32062 0.57343 0.24078
 C2419 C 0.33208 0.55297 0.24344
 C2420 C 0.28574 0.65761 0.24180
 H2421 H 0.33308 0.62788 0.25331
 H2422 H 0.27078 0.60511 0.22625
 H2423 H 0.25565 0.64324 0.22797
 H2424 H 0.31835 0.66580 0.25517
 C2425 C 0.31871 0.36147 0.24208
 C2426 C 0.30638 0.37969 0.24995
 C2427 C 0.28556 0.37629 0.26017
 C2428 C 0.27695 0.35475 0.26224
 C2429 C 0.34500 0.45786 0.24920
 C2430 C 0.31016 0.33993 0.24412
 C2431 C 0.31555 0.40175 0.24822
 C2432 C 0.32393 0.41994 0.24737
 C2433 C 0.33475 0.44075 0.24756
 C2434 C 0.28909 0.33630 0.25411
 H2435 H 0.33493 0.36391 0.23433
 H2436 H 0.27598 0.39028 0.26650
 H2437 H 0.26067 0.35260 0.26995
 H2438 H 0.31995 0.32618 0.23763
 C2439 C 0.81870 0.86405 0.74205
 C2440 C 0.80618 0.88214 0.74995
 C2441 C 0.78546 0.87849 0.76026
 C2442 C 0.77711 0.85685 0.76237
 C2443 C 0.84367 0.96085 0.74932
 C2444 C 0.81041 0.84241 0.74413
 C2445 C 0.81506 0.90431 0.74819
 C2446 C 0.82317 0.92263 0.74735
 C2447 C 0.83366 0.94361 0.74759
 C2448 C 0.78943 0.83854 0.75419
 H2449 H 0.83486 0.86668 0.73422
 H2450 H 0.77573 0.89237 0.76663
 H2451 H 0.76088 0.85452 0.77014
 H2452 H 0.82033 0.82876 0.73759
 C2453 C 0.67700 0.86328 0.24530
 C2454 C 0.68856 0.88055 0.23451
 C2455 C 0.70924 0.87618 0.22438
 C2456 C 0.71856 0.85476 0.22545
 C2457 C 0.65333 0.96053 0.24265
 C2458 C 0.68627 0.84185 0.24642
 C2459 C 0.67965 0.90292 0.23495
 C2460 C 0.67192 0.92148 0.23627
 C2461 C 0.66229 0.94284 0.23906
 C2462 C 0.70733 0.83738 0.23678
 H2463 H 0.66099 0.86647 0.25326
 H2464 H 0.71838 0.88942 0.21602
 H2465 H 0.73477 0.85196 0.21780
 H2466 H 0.67714 0.82893 0.25525
 C2467 C 0.17719 0.36298 0.74372
 C2468 C 0.18894 0.38034 0.73330
 C2469 C 0.20978 0.37605 0.72345
 C2470 C 0.21905 0.35461 0.72444
 C2471 C 0.15346 0.46012 0.74190
 C2472 C 0.18641 0.34153 0.74475
 C2473 C 0.18005 0.40270 0.73386
 C2474 C 0.17227 0.42123 0.73529
 C2475 C 0.16254 0.44253 0.73821
 C2476 C 0.20762 0.33714 0.73540
 H2477 H 0.16106 0.36611 0.75145
 H2478 H 0.21906 0.38936 0.71538
 H2479 H 0.23537 0.35186 0.71702
 H2480 H 0.17712 0.32853 0.75329
 C2481 C 0.11931 0.73149 0.78203
 C2482 C 0.11503 0.73837 0.80400
 C2483 C 0.13254 0.74611 0.81716
 C2484 C 0.15418 0.74725 0.80843
 C2485 C 0.03750 0.74557 0.84456
 C2486 C 0.14105 0.73256 0.77323
 C2487 C 0.09272 0.73845 0.81315
 C2488 C 0.07458 0.73958 0.82198
 C2489 C 0.05414 0.74219 0.83360
 C2490 C 0.15872 0.74064 0.78630
 H2491 H 0.10585 0.72553 0.77167
 H2492 H 0.12943 0.75153 0.83416
 H2493 H 0.16732 0.75346 0.81905
 H2494 H 0.14395 0.72735 0.75614
 C2495 C 0.63140 0.24616 0.31661
 C2496 C 0.61376 0.23886 0.30337
 C2497 C 0.61793 0.23201 0.28137
 C2498 C 0.63970 0.23272 0.27261
 C2499 C 0.53647 0.24786 0.34394
 C2500 C 0.65306 0.24694 0.30792
 C2501 C 0.59145 0.23942 0.31248
 C2502 C 0.57335 0.24097 0.32131
 C2503 C 0.55300 0.24408 0.33297
 C2504 C 0.65750 0.24040 0.28575
 H2505 H 0.62837 0.25154 0.33364
 H2506 H 0.60436 0.22640 0.27095
 H2507 H 0.64253 0.22757 0.25549
 H2508 H 0.66631 0.25283 0.31859
 C2509 C 0.63723 0.73778 0.18291
 C2510 C 0.61889 0.74632 0.19475
 C2511 C 0.62230 0.75755 0.21488
 C2512 C 0.64395 0.76002 0.22326
 C2513 C 0.54099 0.74487 0.15499
 C2514 C 0.65884 0.74023 0.19121
 C2515 C 0.59678 0.74438 0.18557
 C2516 C 0.57862 0.74334 0.17700
 C2517 C 0.55792 0.74332 0.16575
 C2518 C 0.66250 0.75132 0.21155
 H2519 H 0.63482 0.72925 0.16720
 H2520 H 0.60825 0.76442 0.22409
 H2521 H 0.64611 0.76859 0.23898
 H2522 H 0.67266 0.73328 0.18174
 C2523 C 0.12155 0.25800 0.71291
 C2524 C 0.11804 0.24651 0.69295
 C2525 C 0.13629 0.23746 0.68135
 C2526 C 0.15791 0.23969 0.68973
 C2527 C 0.03991 0.24590 0.65351
 C2528 C 0.14319 0.26026 0.72135
 C2529 C 0.09592 0.24482 0.68372
 C2530 C 0.07772 0.24399 0.67520
 C2531 C 0.05694 0.24420 0.66409
 C2532 C 0.16166 0.25107 0.70988
 H2533 H 0.10758 0.26526 0.72193
 H2534 H 0.13381 0.22871 0.66578
 H2535 H 0.17167 0.23235 0.68045
 H2536 H 0.14542 0.26906 0.73692
 C2537 C 0.87668 0.22374 0.70855
 C2538 C 0.88075 0.23343 0.68756
 C2539 C 0.86318 0.24353 0.67583
 C2540 C 0.84174 0.24442 0.68523
 C2541 C 0.96028 0.24307 0.65118
 C2542 C 0.85524 0.22458 0.71800
 C2543 C 0.90310 0.23422 0.67848
 C2544 C 0.92160 0.23589 0.67051
 C2545 C 0.94281 0.23911 0.66052
 C2546 C 0.83756 0.23525 0.70660
 H2547 H 0.89016 0.21592 0.71782
 H2548 H 0.86615 0.25114 0.65958
 H2549 H 0.82858 0.25273 0.67596
 H2550 H 0.85266 0.21731 0.73446
 C2551 C 0.37758 0.72498 0.21005
 C2552 C 0.38182 0.73460 0.18906
 C2553 C 0.36434 0.74466 0.17714
 C2554 C 0.34280 0.74547 0.18632
 C2555 C 0.46150 0.74299 0.15273
 C2556 C 0.35604 0.72575 0.21927
 C2557 C 0.40420 0.73516 0.18007
 C2558 C 0.42273 0.73655 0.17213
 C2559 C 0.44398 0.73939 0.16212
 C2560 C 0.33842 0.73624 0.20762
 H2561 H 0.39098 0.71720 0.21945
 H2562 H 0.36744 0.75222 0.16090
 H2563 H 0.32969 0.75366 0.17687
 H2564 H 0.35331 0.71845 0.23569
 C2565 C 0.37577 0.26020 0.28773
 C2566 C 0.37919 0.25050 0.30881
 C2567 C 0.36093 0.24286 0.32135
 C2568 C 0.33934 0.24456 0.31273
 C2569 C 0.45779 0.25038 0.34697
 C2570 C 0.35418 0.26192 0.27905
 C2571 C 0.40131 0.24902 0.31796
 C2572 C 0.41959 0.24834 0.32625
 C2573 C 0.44053 0.24868 0.33690
 C2574 C 0.33570 0.25397 0.29139
 H2575 H 0.38979 0.26635 0.27797
 H2576 H 0.36338 0.23550 0.33779
 H2577 H 0.32555 0.23822 0.32269
 H2578 H 0.35203 0.26920 0.26255
 C2579 C 0.87678 0.76101 0.78759
 C2580 C 0.88011 0.75113 0.80860
 C2581 C 0.86174 0.74395 0.82127
 C2582 C 0.84013 0.74622 0.81282
 C2583 C 0.95876 0.74838 0.84661
 C2584 C 0.85517 0.76330 0.77907
 C2585 C 0.90227 0.74892 0.81755
 C2586 C 0.92057 0.74761 0.82575
 C2587 C 0.94152 0.74722 0.83641
 C2588 C 0.83658 0.75575 0.79151
 H2589 H 0.89088 0.76681 0.77773
 H2590 H 0.86413 0.73647 0.83766
 H2591 H 0.82627 0.74018 0.82285
 H2592 H 0.85308 0.77065 0.76259
   
