data_POSCAR
  _audit_creation_date              2014-09-24
  _audit_creation_method            'ToBaCCo'
  _symmetry_space_group_name_H-M    'P1'
  _symmetry_Int_Tables_number       1
  _symmetry_cell_setting            triclinic
  loop_
  _symmetry_equiv_pos_as_xyz
 x,y,z
_cell_length_a 43.5734
_cell_length_b 43.5736
_cell_length_c 43.5735
_cell_angle_alpha 89.994500
_cell_angle_beta 89.997600
_cell_angle_gamma 89.993300
loop_
  _atom_site_label
  _atom_site_type_symbol
  _atom_site_fract_x
  _atom_site_fract_y
  _atom_site_fract_z
N1 N 0.34757 1.34777 0.34785
 N2 N 0.34749 0.84767 0.84785
 N3 N 0.84763 1.34774 0.84784
 N4 N 0.84757 0.84776 0.34782
 N5 N 0.65224 0.65209 0.34741
 N6 N 0.65226 0.15215 0.84738
 N7 N 1.15260 0.65282 0.84729
 N8 N 1.15278 0.15286 0.34724
 N9 N 0.65271 1.34723 0.65256
 N10 N 0.65259 0.84731 1.15242
 N11 N 1.15244 1.34755 1.15250
 N12 N 1.15260 0.84752 0.65254
 N13 N 0.34777 0.65217 0.65270
 N14 N 0.34747 0.15272 1.15270
 N15 N 0.84788 0.65275 1.15253
 N16 N 0.84748 0.15237 0.65214
 N17 N 1.34752 0.34750 0.65236
 N18 N 1.34759 0.84757 1.15223
 N19 N 0.84768 0.34761 1.15223
 N20 N 0.84749 0.84757 0.65225
 N21 N 0.65260 0.65266 0.65297
 N22 N 0.65200 1.15235 1.15212
 N23 N 0.15194 0.65250 1.15267
 N24 N 0.15234 1.15210 0.65228
 N25 N 1.34757 0.65240 0.34748
 N26 N 1.34745 1.15254 0.84740
 N27 N 0.84759 0.65245 0.84745
 N28 N 0.84743 1.15250 0.34741
 N29 N 0.65258 0.34746 0.34773
 N30 N 0.65250 0.84746 0.84781
 N31 N 0.15270 0.34762 0.84731
 N32 N 0.15275 0.84760 0.34731
 O33 O 0.96975 0.88925 0.84672
 O34 O 0.96964 0.85357 0.81084
 C35 C 0.95920 0.87853 0.82175
 C36 C 0.93397 0.89488 0.80580
 C37 C 0.92263 0.88412 0.77759
 H38 H 0.93289 0.86409 0.76701
 O39 O 1.03060 1.11049 0.84688
 O40 O 1.03083 1.14611 0.81093
 C41 C 1.04122 1.12117 0.82192
 C42 C 1.06647 1.10482 0.80605
 C43 C 1.07776 1.11546 0.77778
 H44 H 1.06744 1.13542 0.76712
 O45 O 0.84715 0.97082 0.88890
 O46 O 0.81129 0.97088 0.85319
 C47 C 0.82217 0.96036 0.87812
 C48 C 0.80615 0.93510 0.89428
 C49 C 0.77795 0.92397 0.88336
 H50 H 0.76711 0.93493 0.86385
 O51 O 1.15306 1.02939 0.88974
 O52 O 1.18902 1.02919 0.85412
 C53 C 1.17807 1.03982 0.87897
 C54 C 1.19405 1.06519 0.89499
 C55 C 1.22222 1.07629 0.88397
 H56 H 1.23306 1.06523 0.86453
 O57 O 0.88896 0.84768 0.96980
 O58 O 0.85315 0.81193 0.96982
 C59 C 0.87812 0.82273 0.95932
 C60 C 0.89423 0.80662 0.93408
 C61 C 0.88330 0.77837 0.92309
 H62 H 0.86383 0.76757 0.93414
 O63 O 1.11124 1.15307 0.96987
 O64 O 1.14698 1.18890 0.96983
 C65 C 1.12205 1.17801 0.95933
 C66 C 1.10587 1.19393 0.93401
 C67 C 1.11667 1.22215 0.92272
 H68 H 1.13661 1.23277 0.93309
 O69 O 0.88931 1.03047 0.84669
 O70 O 0.85359 1.03063 0.81085
 C71 C 0.87859 1.04099 0.82171
 C72 C 0.89498 1.06608 0.80566
 C73 C 0.88422 1.07738 0.77743
 H74 H 0.86415 1.06716 0.76690
 O75 O 1.11094 0.96953 0.84769
 O76 O 1.14680 0.96935 0.81198
 C77 C 1.12176 0.95899 0.82276
 C78 C 1.10553 0.93387 0.80661
 C79 C 1.11649 0.92283 0.77839
 H80 H 1.13608 0.93376 0.76769
 O81 O 1.02943 0.84701 0.88885
 O82 O 1.02948 0.81115 0.85315
 C83 C 1.03992 0.82202 0.87813
 C84 C 1.06507 0.80597 0.89450
 C85 C 1.07650 0.77784 0.88361
 H86 H 1.06638 0.76738 0.86346
 O87 O 0.97074 1.15272 0.88874
 O88 O 0.97089 1.18850 0.85294
 C89 C 0.96033 1.17770 0.87790
 C90 C 0.93515 1.19385 0.89406
 C91 C 0.92413 1.22210 0.88313
 H92 H 0.93507 1.23285 0.86357
 O93 O 0.84768 1.11160 0.96971
 O94 O 0.81202 1.14751 0.96957
 C95 C 0.82279 1.12249 0.95915
 C96 C 0.80672 1.10632 0.93393
 C97 C 0.77844 1.11716 0.92294
 H98 H 0.76761 1.13664 0.93394
 O99 O 1.15212 0.88848 0.97055
 O100 O 1.18778 0.85256 0.97063
 C101 C 1.17706 0.87756 0.96011
 C102 C 1.19326 0.89369 0.93494
 C103 C 1.22152 0.88276 0.92395
 H104 H 1.23225 0.86319 0.93491
 O105 O 0.97068 1.11069 0.84672
 O106 O 0.97088 1.14635 0.81080
 C107 C 0.96027 1.12149 0.82172
 C108 C 0.93494 1.10545 0.80572
 C109 C 0.92387 1.11641 0.77752
 H110 H 0.93491 1.13585 0.76666
 O111 O 1.02967 0.88900 0.84682
 O112 O 1.02970 0.85334 0.81091
 C113 C 1.04025 0.87822 0.82189
 C114 C 1.06567 0.89438 0.80608
 C115 C 1.07703 0.88362 0.77787
 H116 H 1.06665 0.86372 0.76719
 O117 O 1.15295 0.96943 0.88977
 O118 O 1.18894 0.96922 0.85418
 C119 C 1.17791 0.95879 0.87908
 C120 C 1.19373 0.93347 0.89536
 C121 C 1.22199 0.92218 0.88469
 H122 H 1.23267 0.93256 0.86478
 O123 O 0.84732 1.03073 0.88879
 O124 O 0.81143 1.03086 0.85311
 C125 C 0.82237 1.04133 0.87803
 C126 C 0.80646 1.06662 0.89428
 C127 C 0.77816 1.07782 0.88359
 H128 H 0.76753 1.06743 0.86367
 O129 O 0.88987 1.15343 0.96970
 O130 O 0.85437 1.18950 0.96958
 C131 C 0.87924 1.17843 0.95912
 C132 C 0.89555 1.19427 0.93382
 C133 C 0.88485 1.22251 0.92253
 H134 H 0.86492 1.23317 0.93290
 O135 O 1.10971 0.84684 0.97048
 O136 O 1.14526 0.81081 0.97059
 C137 C 1.12043 0.82184 0.95999
 C138 C 1.10438 0.80595 0.93457
 C139 C 1.11542 0.77784 0.92337
 H140 H 1.13487 0.76697 0.93440
 O141 O 1.11124 1.02940 0.84752
 O142 O 1.14708 1.02923 0.81178
 C143 C 1.12213 1.03981 0.82256
 C144 C 1.10606 1.06506 0.80642
 C145 C 1.11700 1.07602 0.77816
 H146 H 1.13651 1.06499 0.76739
 O147 O 0.88921 0.97059 0.84693
 O148 O 0.85349 0.97069 0.81108
 C149 C 0.87838 0.96010 0.82198
 C150 C 0.89445 0.93474 0.80599
 C151 C 0.88349 0.92366 0.77780
 H152 H 0.86401 0.93469 0.76697
 O153 O 1.03059 1.15260 0.88884
 O154 O 1.03077 1.18837 0.85302
 C155 C 1.04114 1.17753 0.87802
 C156 C 1.06631 1.19361 0.89425
 C157 C 1.07738 1.22182 0.88333
 H158 H 1.06645 1.23260 0.86377
 O159 O 0.96959 0.84718 0.88870
 O160 O 0.96949 0.81129 0.85302
 C161 C 0.95903 0.82223 0.87796
 C162 C 0.93377 0.80632 0.89427
 C163 C 0.92247 0.77807 0.88357
 H164 H 0.93276 0.76745 0.86359
 O165 O 1.15316 1.11094 0.96998
 O166 O 1.18908 1.14658 0.96988
 C167 C 1.17816 1.12162 0.95946
 C168 C 1.19414 1.10523 0.93431
 C169 C 1.22233 1.11601 0.92292
 H170 H 1.23284 1.13612 0.93308
 O171 O 0.84698 0.88982 0.96967
 O172 O 0.81105 0.85418 0.96964
 C173 C 0.82200 0.87909 0.95914
 C174 C 0.80603 0.89535 0.93389
 C175 C 0.77782 0.88454 0.92261
 H176 H 0.76728 0.86452 0.93293
 Cu177 Cu 0.99961 0.87169 0.87133
 Cu178 Cu 0.99957 0.82875 0.82837
 Cu179 Cu 1.00064 1.12803 0.87137
 Cu180 Cu 1.00087 1.17092 0.82831
 Cu181 Cu 0.87182 1.00067 0.87141
 Cu182 Cu 0.82885 1.00078 0.82846
 Cu183 Cu 1.12847 0.99945 0.87227
 Cu184 Cu 1.17158 0.99922 0.82945
 C185 C 0.91989 0.92038 0.81966
 H186 H 0.92817 0.92852 0.84163
 C187 C 0.89734 0.89832 0.76346
 C188 C 1.08060 1.07942 0.82002
 H189 H 1.07234 1.07137 0.84204
 C190 C 1.10306 1.10125 0.76369
 C191 C 0.81985 0.92082 0.91974
 H192 H 0.84183 0.92899 0.92798
 C193 C 0.76365 0.89866 0.89731
 C194 C 1.18035 1.07963 0.92035
 H195 H 1.15839 1.07147 0.92867
 C196 C 1.23648 1.10174 0.89770
 C197 C 0.91966 0.82024 0.91971
 H198 H 0.92792 0.84225 0.92779
 C199 C 0.89719 0.76396 0.89780
 C200 C 1.08050 1.18001 0.91979
 H201 H 1.07235 1.15802 0.92804
 C202 C 1.10261 1.23621 0.89731
 C203 C 0.92053 1.08010 0.81945
 H204 H 0.92866 1.07184 0.84144
 C205 C 0.89848 1.10259 0.76324
 C206 C 1.07992 0.91969 0.82010
 H207 H 1.07163 0.92781 0.84209
 C208 C 1.10250 0.89766 0.76391
 C209 C 1.07901 0.81968 0.92017
 H210 H 1.07068 0.84161 0.92840
 C211 C 1.10175 0.76367 0.89784
 C212 C 0.92089 1.18028 0.91960
 H213 H 0.92897 1.15827 0.92787
 C214 C 0.89895 1.23657 0.89716
 C215 C 0.82039 1.08086 0.91964
 H216 H 0.84243 1.07266 0.92772
 C217 C 0.76402 1.10313 0.89775
 C218 C 1.17971 0.91924 0.92068
 H219 H 1.15770 0.92751 0.92874
 C220 C 1.23603 0.89680 0.89880
 O221 O 1.02930 0.88977 1.15336
 O222 O 1.02918 0.85417 1.18933
 C223 C 1.03984 0.87900 1.17832
 C224 C 1.06533 0.89508 1.19413
 C225 C 1.07675 0.88418 1.22227
 H226 H 1.06635 0.86425 1.23290
 O227 O 0.97018 1.11068 1.15260
 O228 O 0.97026 1.14641 1.18845
 C229 C 0.95966 1.12153 1.17754
 C230 C 0.93424 1.10555 1.19349
 C231 C 0.92320 1.11650 1.22171
 H232 H 0.93432 1.13588 1.23260
 O233 O 0.84662 1.03074 1.11042
 O234 O 0.81061 1.03095 1.14598
 C235 C 0.82165 1.04138 1.12108
 C236 C 0.80585 1.06669 1.10476
 C237 C 0.77755 1.07796 1.11537
 H238 H 0.76684 1.06757 1.13526
 O239 O 1.15311 0.96997 1.11083
 O240 O 1.18903 0.96983 1.14648
 C241 C 1.17803 0.95933 1.12159
 C242 C 1.19379 0.93391 1.10540
 C243 C 1.22205 0.92258 1.11606
 H244 H 1.23281 0.93301 1.13590
 O245 O 1.10981 0.84673 1.03046
 O246 O 1.14532 0.81067 1.03059
 C247 C 1.12045 0.82173 1.04105
 C248 C 1.10416 0.80592 1.06638
 C249 C 1.11486 0.77768 1.07772
 H250 H 1.13478 0.76700 1.06736
 O251 O 0.88971 1.15353 1.02962
 O252 O 0.85421 1.18960 1.02957
 C253 C 0.87905 1.17855 1.04012
 C254 C 0.89529 1.19439 1.06544
 C255 C 0.88454 1.22260 1.07680
 H256 H 0.86460 1.23326 1.06647
 O257 O 0.88832 0.97077 1.15266
 O258 O 0.85250 0.97093 1.18841
 C259 C 0.87746 0.96037 1.17763
 C260 C 0.89362 0.93518 1.19379
 C261 C 0.88271 0.92417 1.22205
 H262 H 0.86313 0.93510 1.23279
 O263 O 1.11132 1.03000 1.15284
 O264 O 1.14703 1.02998 1.18870
 C265 C 1.12210 1.04050 1.17781
 C266 C 1.10584 1.06573 1.19379
 C267 C 1.11669 1.07711 1.22196
 H268 H 1.13676 1.06689 1.23248
 O269 O 0.96921 0.84794 1.11139
 O270 O 0.96895 0.81215 1.14718
 C271 C 0.95858 0.82302 1.12217
 C272 C 0.93340 0.80703 1.10579
 C273 C 0.92215 0.77876 1.11649
 H274 H 0.93240 0.76821 1.13654
 O275 O 1.03029 1.15255 1.11063
 O276 O 1.03031 1.18837 1.14638
 C277 C 1.04080 1.17750 1.12144
 C278 C 1.06604 1.19357 1.10530
 C279 C 1.07710 1.22176 1.11627
 H280 H 1.06611 1.23253 1.13580
 O281 O 0.84693 0.88999 1.02957
 O282 O 0.81103 0.85431 1.02955
 C283 C 0.82193 0.87924 1.04004
 C284 C 0.80586 0.89540 1.06527
 C285 C 0.77774 0.88433 1.07642
 H286 H 0.76701 0.86476 1.06548
 O287 O 1.15301 1.11089 1.02982
 O288 O 1.18892 1.14656 1.02983
 C289 C 1.17799 1.12163 1.04032
 C290 C 1.19397 1.10542 1.06558
 C291 C 1.22212 1.11637 1.07676
 H292 H 1.23293 1.13593 1.06586
 O293 O 1.03015 1.11052 1.15270
 O294 O 1.03019 1.14626 1.18853
 C295 C 1.04067 1.12132 1.17765
 C296 C 1.06597 1.10521 1.19366
 C297 C 1.07711 1.11621 1.22181
 H298 H 1.06610 1.13570 1.23263
 O299 O 0.96933 0.89001 1.15340
 O300 O 0.96912 0.85440 1.18936
 C301 C 0.95872 0.87933 1.17837
 C302 C 0.93343 0.89563 1.19423
 C303 C 0.92216 0.88493 1.22248
 H304 H 0.93255 0.86502 1.23315
 O305 O 1.15321 1.02992 1.11066
 O306 O 1.18909 1.02987 1.14635
 C307 C 1.17819 1.04041 1.12143
 C308 C 1.19416 1.06570 1.10522
 C309 C 1.22233 1.07704 1.11611
 H310 H 1.23287 1.06672 1.13612
 O311 O 0.84641 0.97083 1.11053
 O312 O 0.81041 0.97091 1.14610
 C313 C 0.82140 0.96035 1.12123
 C314 C 0.80551 0.93504 1.10498
 C315 C 0.77738 0.92358 1.11585
 H316 H 0.76679 0.93382 1.13588
 O317 O 1.11119 1.15309 1.02977
 O318 O 1.14691 1.18893 1.02984
 C319 C 1.12197 1.17803 1.04033
 C320 C 1.10573 1.19393 1.06563
 C321 C 1.11650 1.22213 1.07699
 H322 H 1.13647 1.23276 1.06668
 O323 O 0.88890 0.84790 1.02977
 O324 O 0.85312 0.81211 1.02978
 C325 C 0.87803 0.82300 1.04034
 C326 C 0.89405 0.80706 1.06576
 C327 C 0.88317 0.77880 1.07679
 H328 H 0.86380 0.76789 1.06567
 O329 O 1.11086 0.97016 1.15261
 O330 O 1.14661 0.97003 1.18844
 C331 C 1.12161 0.95964 1.17758
 C332 C 1.10531 0.93448 1.19367
 C333 C 1.11631 0.92329 1.22181
 H334 H 1.13595 0.93412 1.23251
 O335 O 0.88850 1.03059 1.15257
 O336 O 0.85269 1.03087 1.18833
 C337 C 0.87773 1.04119 1.17750
 C338 C 0.89415 1.06630 1.19352
 C339 C 0.88343 1.07760 1.22177
 H340 H 0.86334 1.06742 1.23230
 O341 O 0.97042 1.15275 1.11059
 O342 O 0.97047 1.18857 1.14635
 C343 C 0.96000 1.17775 1.12138
 C344 C 0.93487 1.19392 1.10519
 C345 C 0.92383 1.22213 1.11618
 H346 H 0.93478 1.23285 1.13576
 O347 O 1.02907 0.84762 1.11148
 O348 O 1.02889 0.81185 1.14729
 C349 C 1.03943 0.82262 1.12232
 C350 C 1.06458 0.80641 1.10616
 C351 C 1.07559 0.77818 1.11713
 H352 H 1.06464 0.76747 1.13671
 O353 O 1.15197 0.88867 1.03040
 O354 O 1.18761 0.85273 1.03049
 C355 C 1.17690 0.87778 1.04089
 C356 C 1.19314 0.89399 1.06597
 C357 C 1.22140 0.88305 1.07692
 H358 H 1.23208 0.86345 1.06597
 O359 O 0.84750 1.11168 1.02957
 O360 O 0.81184 1.14760 1.02948
 C361 C 0.82256 1.12259 1.04000
 C362 C 0.80635 1.10645 1.06516
 C363 C 0.77805 1.11735 1.07608
 H364 H 0.76731 1.13688 1.06507
 Cu365 Cu 0.99924 0.87242 1.12885
 Cu366 Cu 0.99901 0.82957 1.17191
 Cu367 Cu 1.00026 1.12802 1.12806
 Cu368 Cu 1.00032 1.17098 1.17104
 Cu369 Cu 0.87154 0.87241 0.99968
 Cu370 Cu 0.82850 0.82954 0.99970
 Cu371 Cu 1.12732 0.87126 1.00048
 Cu372 Cu 1.17004 0.82805 1.00059
 Cu373 Cu 0.87227 1.12898 0.99967
 Cu374 Cu 0.82954 1.17217 0.99954
 Cu375 Cu 1.12855 1.12845 0.99984
 Cu376 Cu 1.17157 1.17133 0.99985
 Cu377 Cu 0.87103 1.00072 1.12797
 Cu378 Cu 0.82793 1.00094 1.17078
 Cu379 Cu 1.12857 1.00004 1.12814
 Cu380 Cu 1.17155 0.99991 1.17108
 C381 C 1.07963 0.92042 1.18017
 H382 H 1.07130 0.92864 1.15824
 C383 C 1.10229 0.89808 1.23622
 C384 C 0.91975 1.08025 1.17974
 H385 H 0.92787 1.07199 1.15774
 C386 C 0.89777 1.10275 1.23598
 C387 C 0.81990 1.08092 1.07946
 H388 H 0.84194 1.07268 1.07145
 C389 C 0.76351 1.10331 1.10121
 C390 C 1.17968 0.91962 1.08017
 H391 H 1.15767 0.92790 1.07212
 C392 C 1.23599 0.89711 1.10200
 C393 C 1.07883 0.81993 1.08059
 H394 H 1.07075 0.84194 1.07230
 C395 C 1.10076 0.76367 1.10313
 C396 C 0.92065 1.18040 1.07963
 H397 H 0.92876 1.15842 1.07133
 C398 C 0.89862 1.23659 1.10222
 C399 C 0.91918 0.92095 1.18023
 H400 H 0.92743 0.92902 1.15822
 C401 C 0.89677 0.89901 1.23654
 C402 C 1.08029 1.07978 1.18000
 H403 H 1.07209 1.07147 1.15805
 C404 C 1.10252 1.10242 1.23608
 C405 C 0.91936 0.82084 1.08024
 H406 H 0.92758 0.84285 1.07214
 C407 C 0.89701 0.76450 1.10217
 C408 C 1.08031 1.17999 1.07979
 H409 H 1.07218 1.15802 1.07149
 C410 C 1.10237 1.23617 1.10237
 C411 C 0.81940 0.92095 1.07950
 H412 H 0.84133 0.92930 1.07130
 C413 C 0.76339 0.89816 1.10176
 C414 C 1.18033 1.07989 1.07976
 H415 H 1.15838 1.07161 1.07154
 C416 C 1.23642 1.10244 1.10208
 O417 O 0.96978 0.38926 0.34678
 O418 O 0.96966 0.35361 0.31086
 C419 C 0.95924 0.37857 0.32179
 C420 C 0.93403 0.39494 0.30584
 C421 C 0.92270 0.38420 0.27761
 H422 H 0.93295 0.36416 0.26704
 O423 O 1.03062 0.61071 0.34752
 O424 O 1.03085 0.64638 0.31161
 C425 C 1.04123 0.62141 0.32256
 C426 C 1.06643 0.60506 0.30661
 C427 C 1.07767 0.61576 0.27834
 H428 H 1.06735 0.63574 0.26775
 O429 O 0.84722 0.47081 0.38897
 O430 O 0.81140 0.47091 0.35322
 C431 C 0.82225 0.46036 0.37816
 C432 C 0.80622 0.43509 0.39429
 C433 C 0.77802 0.42396 0.38335
 H434 H 0.76721 0.43492 0.36383
 O435 O 1.15313 0.52935 0.38989
 O436 O 1.18903 0.52919 0.35422
 C437 C 1.17814 0.53978 0.37911
 C438 C 1.19419 0.56508 0.39517
 C439 C 1.22236 0.57616 0.38413
 H440 H 1.23315 0.56512 0.36464
 O441 O 0.88897 0.34762 0.46976
 O442 O 0.85311 0.31191 0.46972
 C443 C 0.87809 0.32269 0.45925
 C444 C 0.89420 0.30660 0.43401
 C445 C 0.88326 0.27836 0.42300
 H446 H 0.86378 0.26757 0.43404
 O447 O 1.11174 0.65301 0.47021
 O448 O 1.14751 0.68880 0.47018
 C449 C 1.12256 0.67795 0.45968
 C450 C 1.10632 0.69392 0.43441
 C451 C 1.11712 0.72212 0.42304
 H452 H 1.13715 0.73269 0.43330
 O453 O 0.88942 0.53054 0.34695
 O454 O 0.85374 0.53077 0.31105
 C455 C 0.87872 0.54112 0.32198
 C456 C 0.89512 0.56629 0.30603
 C457 C 0.88442 0.57762 0.27779
 H458 H 0.86439 0.56740 0.26719
 O459 O 1.11094 0.46957 0.34775
 O460 O 1.14676 0.46946 0.31200
 C461 C 1.12174 0.45907 0.32279
 C462 C 1.10550 0.43395 0.30663
 C463 C 1.11645 0.42292 0.27840
 H464 H 1.13604 0.43386 0.26769
 O465 O 1.02946 0.34697 0.38885
 O466 O 1.02951 0.31113 0.35312
 C467 C 1.03996 0.32198 0.37810
 C468 C 1.06512 0.30595 0.39445
 C469 C 1.07656 0.27782 0.38354
 H470 H 1.06643 0.26736 0.36339
 O471 O 0.97072 0.65292 0.38941
 O472 O 0.97090 0.68873 0.35364
 C473 C 0.96030 0.67790 0.37856
 C474 C 0.93500 0.69398 0.39462
 C475 C 0.92397 0.72220 0.38364
 H476 H 0.93501 0.73299 0.36415
 O477 O 0.84743 0.61144 0.47000
 O478 O 0.81168 0.64727 0.46993
 C479 C 0.82252 0.62229 0.45946
 C480 C 0.80650 0.60613 0.43420
 C481 C 0.77823 0.61696 0.42318
 H482 H 0.76736 0.63641 0.43420
 O483 O 1.15219 0.38840 0.47057
 O484 O 1.18789 0.35252 0.47061
 C485 C 1.17714 0.37752 0.46012
 C486 C 1.19331 0.39368 0.43495
 C487 C 1.22158 0.38278 0.42396
 H488 H 1.23234 0.36323 0.43493
 O489 O 0.97071 0.61092 0.34736
 O490 O 0.97094 0.64662 0.31147
 C491 C 0.96031 0.62174 0.32235
 C492 C 0.93502 0.60571 0.30628
 C493 C 0.92401 0.61670 0.27806
 H494 H 0.93506 0.63618 0.26727
 O495 O 1.02969 0.38901 0.34687
 O496 O 1.02972 0.35338 0.31093
 C497 C 1.04027 0.37825 0.32192
 C498 C 1.06566 0.39444 0.30612
 C499 C 1.07701 0.38369 0.27790
 H500 H 1.06663 0.36379 0.26722
 O501 O 1.15295 0.46940 0.38984
 O502 O 1.18890 0.46923 0.35421
 C503 C 1.17790 0.45878 0.37912
 C504 C 1.19374 0.43345 0.39537
 C505 C 1.22201 0.42219 0.38469
 H506 H 1.23267 0.43258 0.36478
 O507 O 0.84730 0.53071 0.38893
 O508 O 0.81146 0.53087 0.35320
 C509 C 0.82236 0.54130 0.37816
 C510 C 0.80638 0.56653 0.39445
 C511 C 0.77809 0.57772 0.38373
 H512 H 0.76751 0.56737 0.36376
 O513 O 0.88947 0.65341 0.46999
 O514 O 0.85391 0.68943 0.46989
 C515 C 0.87881 0.67841 0.45943
 C516 C 0.89516 0.69429 0.43416
 C517 C 0.88445 0.72251 0.42281
 H518 H 0.86444 0.73312 0.43306
 O519 O 1.10977 0.34677 0.47043
 O520 O 1.14536 0.31079 0.47048
 C521 C 1.12051 0.32181 0.45990
 C522 C 1.10446 0.30593 0.43448
 C523 C 1.11552 0.27783 0.42326
 H524 H 1.13498 0.26697 0.43428
 O525 O 1.11119 0.52947 0.34778
 O526 O 1.14698 0.52936 0.31199
 C527 C 1.12206 0.53994 0.32284
 C528 C 1.10598 0.56525 0.30680
 C529 C 1.11687 0.57627 0.27854
 H530 H 1.13633 0.56524 0.26769
 O531 O 0.88927 0.47065 0.34700
 O532 O 0.85359 0.47081 0.31110
 C533 C 0.87847 0.46019 0.32202
 C534 C 0.89454 0.43484 0.30601
 C535 C 0.88358 0.42377 0.27780
 H536 H 0.86412 0.43481 0.26697
 O537 O 1.03066 0.65277 0.38954
 O538 O 1.03083 0.68856 0.35375
 C539 C 1.04124 0.67769 0.37873
 C540 C 1.06651 0.69370 0.39486
 C541 C 1.07759 0.72188 0.38389
 H542 H 1.06656 0.73270 0.36441
 O543 O 0.96961 0.34713 0.38870
 O544 O 0.96951 0.31127 0.35299
 C545 C 0.95904 0.32219 0.37793
 C546 C 0.93377 0.30629 0.39422
 C547 C 0.92245 0.27805 0.38350
 H548 H 0.93275 0.26743 0.36352
 O549 O 1.15350 0.61075 0.47031
 O550 O 1.18949 0.64632 0.47025
 C551 C 1.17851 0.62140 0.45979
 C552 C 1.19443 0.60502 0.43459
 C553 C 1.22261 0.61578 0.42318
 H554 H 1.23318 0.63585 0.43336
 O555 O 0.84699 0.38975 0.46970
 O556 O 0.81102 0.35416 0.46963
 C557 C 0.82199 0.37906 0.45916
 C558 C 0.80605 0.39535 0.43391
 C559 C 0.77784 0.38454 0.42261
 H560 H 0.76729 0.36453 0.43292
 Cu561 Cu 0.99964 0.37166 0.37136
 Cu562 Cu 0.99959 0.32876 0.32837
 Cu563 Cu 1.00066 0.62825 0.37204
 Cu564 Cu 1.00090 0.67117 0.32903
 Cu565 Cu 0.87187 0.50068 0.37154
 Cu566 Cu 0.82896 0.50086 0.32854
 Cu567 Cu 1.12848 0.49945 0.37240
 Cu568 Cu 1.17152 0.49929 0.32952
 C569 C 0.91995 0.42045 0.31969
 H570 H 0.92823 0.42857 0.34168
 C571 C 0.89743 0.39842 0.26347
 C572 C 1.08057 0.57961 0.32049
 H573 H 1.07234 0.57153 0.34251
 C574 C 1.10292 0.60155 0.26416
 C575 C 0.81989 0.42081 0.41976
 H576 H 0.84186 0.42897 0.42803
 C577 C 0.76370 0.39866 0.39729
 C578 C 1.18057 0.57947 0.42060
 H579 H 1.15860 0.57134 0.42893
 C580 C 1.23669 0.60155 0.39789
 C581 C 0.91965 0.32021 0.41966
 H582 H 0.92792 0.34221 0.42775
 C583 C 0.89715 0.26396 0.39771
 C584 C 1.08083 0.68006 0.42031
 H585 H 1.07266 0.65809 0.42860
 C586 C 1.10294 0.73621 0.39772
 C587 C 0.92062 0.58031 0.31992
 H588 H 0.92870 0.57202 0.34191
 C589 C 0.89868 0.60288 0.26369
 C590 C 1.07991 0.41975 0.32014
 H591 H 1.07163 0.42786 0.34213
 C592 C 1.10246 0.39775 0.26391
 C593 C 1.07907 0.31965 0.42011
 H594 H 1.07073 0.34157 0.42836
 C595 C 1.10184 0.26367 0.39774
 C596 C 0.92063 0.68037 0.42008
 H597 H 0.92873 0.65839 0.42839
 C598 C 0.89866 0.73660 0.39750
 C599 C 0.82024 0.58072 0.41987
 H600 H 0.84227 0.57253 0.42797
 C601 C 0.76389 0.60298 0.39791
 C602 C 1.17974 0.41922 0.42070
 H603 H 1.15772 0.42747 0.42876
 C604 C 1.23608 0.39682 0.39880
 O605 O 1.02929 0.38908 0.65319
 O606 O 1.02920 0.35345 0.68913
 C607 C 1.03980 0.37832 0.67816
 C608 C 1.06518 0.39449 0.69402
 C609 C 1.07659 0.38366 0.72219
 H610 H 1.06628 0.36368 0.73280
 O611 O 0.97022 0.61071 0.65255
 O612 O 0.97029 0.64642 0.68842
 C613 C 0.95972 0.62153 0.67751
 C614 C 0.93438 0.60549 0.69351
 C615 C 0.92332 0.61645 0.72172
 H616 H 0.93437 0.63590 0.73255
 O617 O 0.84713 0.53040 0.61048
 O618 O 0.81121 0.53051 0.64614
 C619 C 0.82218 0.54098 0.62123
 C620 C 0.80627 0.56632 0.60510
 C621 C 0.77812 0.57748 0.61607
 H622 H 0.76727 0.56646 0.63554
 O623 O 1.15284 0.46968 0.61100
 O624 O 1.18868 0.46947 0.64673
 C625 C 1.17774 0.45902 0.62180
 C626 C 1.19357 0.43364 0.60560
 C627 C 1.22183 0.42234 0.61628
 H628 H 1.23254 0.43274 0.63616
 O629 O 1.10991 0.34648 0.53039
 O630 O 1.14547 0.31046 0.53045
 C631 C 1.12058 0.32146 0.54093
 C632 C 1.10429 0.30555 0.56619
 C633 C 1.11505 0.27731 0.57748
 H634 H 1.13501 0.26671 0.56713
 O635 O 0.88945 0.65340 0.52987
 O636 O 0.85389 0.68941 0.52989
 C637 C 0.87878 0.67840 0.54038
 C638 C 0.89508 0.69429 0.56563
 C639 C 0.88435 0.72251 0.57697
 H640 H 0.86436 0.73313 0.56668
 O641 O 0.88883 0.47041 0.65272
 O642 O 0.85304 0.47056 0.68851
 C643 C 0.87798 0.46000 0.67770
 C644 C 0.89407 0.43478 0.69382
 C645 C 0.88316 0.42383 0.72210
 H646 H 0.86367 0.43488 0.73289
 O647 O 1.11104 0.52974 0.65299
 O648 O 1.14670 0.52965 0.68890
 C649 C 1.12181 0.54023 0.67797
 C650 C 1.10562 0.56554 0.69391
 C651 C 1.11648 0.57693 0.72207
 H652 H 1.13651 0.56666 0.73263
 O653 O 0.96923 0.34729 0.61119
 O654 O 0.96896 0.31146 0.64693
 C655 C 0.95859 0.32237 0.62194
 C656 C 0.93336 0.30646 0.60556
 C657 C 0.92206 0.27819 0.61621
 H658 H 0.93231 0.26757 0.63622
 O659 O 1.03033 0.65260 0.61061
 O660 O 1.03035 0.68841 0.64637
 C661 C 1.04086 0.67753 0.62144
 C662 C 1.06617 0.69356 0.60536
 C663 C 1.07721 0.72177 0.61632
 H664 H 1.06616 0.73258 0.63579
 O665 O 0.84700 0.38984 0.52962
 O666 O 0.81105 0.35421 0.52955
 C667 C 0.82200 0.37910 0.54009
 C668 C 0.80600 0.39522 0.56538
 C669 C 0.77787 0.38417 0.57656
 H670 H 0.76709 0.36464 0.56559
 O671 O 1.15349 0.61084 0.53015
 O672 O 1.18949 0.64640 0.53027
 C673 C 1.17848 0.62149 0.54073
 C674 C 1.19434 0.60512 0.56598
 C675 C 1.22258 0.61579 0.57736
 H676 H 1.23322 0.63579 0.56712
 O677 O 1.03016 0.61055 0.65264
 O678 O 1.03019 0.64627 0.68849
 C679 C 1.04065 0.62132 0.67762
 C680 C 1.06589 0.60516 0.69366
 C681 C 1.07704 0.61617 0.72181
 H682 H 1.06607 0.63571 0.73258
 O683 O 0.96939 0.38928 0.65326
 O684 O 0.96918 0.35365 0.68919
 C685 C 0.95881 0.37861 0.67824
 C686 C 0.93363 0.39499 0.69416
 C687 C 0.92236 0.38435 0.72244
 H688 H 0.93266 0.36439 0.73309
 O689 O 1.15285 0.52962 0.61073
 O690 O 1.18865 0.52945 0.64651
 C691 C 1.17783 0.54002 0.62157
 C692 C 1.19396 0.56526 0.60549
 C693 C 1.22219 0.57624 0.61649
 H694 H 1.23294 0.56517 0.63598
 O695 O 0.84676 0.47049 0.61073
 O696 O 0.81083 0.47054 0.64637
 C697 C 0.82175 0.46001 0.62146
 C698 C 0.80580 0.43475 0.60520
 C699 C 0.77766 0.42332 0.61609
 H700 H 0.76713 0.43354 0.63616
 O701 O 1.11155 0.65291 0.53007
 O702 O 1.14733 0.68870 0.53021
 C703 C 1.12234 0.67784 0.54064
 C704 C 1.10603 0.69379 0.56586
 C705 C 1.11677 0.72201 0.57720
 H706 H 1.13679 0.73260 0.56694
 O707 O 0.88885 0.34764 0.52971
 O708 O 0.85302 0.31191 0.52965
 C709 C 0.87795 0.32273 0.54022
 C710 C 0.89397 0.30668 0.56558
 C711 C 0.88304 0.27842 0.57655
 H712 H 0.86363 0.26758 0.56542
 O713 O 1.11044 0.46986 0.65265
 O714 O 1.14614 0.46972 0.68853
 C715 C 1.12116 0.45932 0.67762
 C716 C 1.10492 0.43413 0.69366
 C717 C 1.11590 0.42301 0.72183
 H718 H 1.13546 0.43396 0.73258
 O719 O 0.88888 0.53028 0.65276
 O720 O 0.85312 0.53049 0.68857
 C721 C 0.87812 0.54086 0.67770
 C722 C 0.89446 0.56605 0.69367
 C723 C 0.88371 0.57738 0.72190
 H724 H 0.86367 0.56714 0.73247
 O725 O 0.97042 0.65281 0.61057
 O726 O 0.97048 0.68861 0.64635
 C727 C 0.95999 0.67780 0.62139
 C728 C 0.93480 0.69393 0.60525
 C729 C 0.92377 0.72215 0.61622
 H730 H 0.93475 0.73290 0.63576
 O731 O 1.02909 0.34698 0.61127
 O732 O 1.02894 0.31117 0.64703
 C733 C 1.03948 0.32198 0.62208
 C734 C 1.06467 0.30585 0.60591
 C735 C 1.07573 0.27762 0.61684
 H736 H 1.06479 0.26685 0.63639
 O737 O 1.15196 0.38853 0.53044
 O738 O 1.18764 0.35264 0.53048
 C739 C 1.17688 0.37765 0.54093
 C740 C 1.19305 0.39382 0.56608
 C741 C 1.22131 0.38290 0.57705
 H742 H 1.23204 0.36334 0.56607
 O743 O 0.84718 0.61162 0.52987
 O744 O 0.81144 0.64745 0.52991
 C745 C 0.82224 0.62246 0.54039
 C746 C 0.80621 0.60621 0.56562
 C747 C 0.77804 0.61708 0.57699
 H748 H 0.76752 0.63716 0.56677
 Cu749 Cu 0.99926 0.37174 0.62866
 Cu750 Cu 0.99904 0.32884 0.67168
 Cu751 Cu 1.00028 0.62808 0.62801
 Cu752 Cu 1.00034 0.67101 0.67101
 Cu753 Cu 0.87155 0.37228 0.49969
 Cu754 Cu 0.82845 0.32946 0.49963
 Cu755 Cu 1.12737 0.37113 0.50047
 Cu756 Cu 1.17015 0.32798 0.50051
 Cu757 Cu 0.87195 0.62888 0.49995
 Cu758 Cu 0.82914 0.67200 0.49989
 Cu759 Cu 1.12899 0.62833 0.50018
 Cu760 Cu 1.17207 0.67114 0.50024
 Cu761 Cu 0.87148 0.50037 0.62810
 Cu762 Cu 0.82844 0.50054 0.67098
 Cu763 Cu 1.12823 0.49975 0.62825
 Cu764 Cu 1.17113 0.49955 0.67126
 C765 C 1.07936 0.41992 0.68009
 H766 H 1.07106 0.42810 0.65814
 C767 C 1.10202 0.39772 0.73619
 C768 C 0.91998 0.58010 0.67983
 H769 H 0.92811 0.57182 0.65784
 C770 C 0.89795 0.60263 0.73604
 C771 C 0.81998 0.58064 0.57968
 H772 H 0.84193 0.57242 0.57140
 C773 C 0.76389 0.60291 0.60229
 C774 C 1.17953 0.41939 0.58031
 H775 H 1.15751 0.42765 0.57224
 C776 C 1.23584 0.39693 0.60218
 C777 C 1.07891 0.31946 0.58039
 H778 H 1.07079 0.34146 0.57213
 C779 C 1.10096 0.26322 0.60284
 C780 C 0.92050 0.68035 0.57975
 H781 H 0.92861 0.65836 0.57146
 C782 C 0.89850 0.73656 0.60232
 C783 C 0.91951 0.42040 0.68020
 H784 H 0.92775 0.42844 0.65817
 C785 C 0.89708 0.39859 0.73654
 C786 C 1.08013 0.57965 0.68006
 H787 H 1.07193 0.57133 0.65811
 C788 C 1.10238 0.60232 0.73613
 C789 C 0.91932 0.32036 0.58006
 H790 H 0.92758 0.34238 0.57200
 C791 C 0.89686 0.26403 0.60188
 C792 C 1.08053 0.67991 0.57994
 H793 H 1.07241 0.65793 0.57166
 C794 C 1.10254 0.73612 0.60248
 C795 C 0.81962 0.42070 0.57966
 H796 H 0.84154 0.42904 0.57144
 C797 C 0.76359 0.39796 0.60196
 C798 C 1.18039 0.57967 0.58004
 H799 H 1.15839 0.57160 0.57173
 C800 C 1.23662 0.60154 0.60266
 O801 O 0.46973 0.88928 0.34657
 O802 O 0.46955 0.85366 0.31063
 C803 C 0.45917 0.87861 0.32159
 C804 C 0.43396 0.89497 0.30568
 C805 C 0.42265 0.88428 0.27744
 H806 H 0.43293 0.86430 0.26681
 O807 O 0.53058 1.11065 0.34691
 O808 O 0.53079 1.14632 0.31101
 C809 C 0.54116 1.12134 0.32194
 C810 C 0.56636 1.10498 0.30600
 C811 C 0.57761 1.11565 0.27772
 H812 H 0.56729 1.13562 0.26710
 O813 O 0.34710 0.97044 0.38921
 O814 O 0.31122 0.97056 0.35352
 C815 C 0.32211 0.96000 0.37843
 C816 C 0.30610 0.93473 0.39461
 C817 C 0.27794 0.92339 0.38370
 H818 H 0.26742 0.93370 0.36367
 O819 O 0.65299 1.02932 0.38951
 O820 O 0.68892 1.02918 0.35386
 C821 C 0.67801 1.03973 0.37876
 C822 C 0.69408 1.06497 0.39491
 C823 C 0.72223 1.07612 0.38388
 H824 H 0.73299 1.06518 0.36432
 O825 O 0.38917 0.84742 0.46992
 O826 O 0.35332 0.81169 0.46987
 C827 C 0.37828 0.82252 0.45937
 C828 C 0.39433 0.80650 0.43404
 C829 C 0.38339 0.77826 0.42303
 H830 H 0.36397 0.76742 0.43412
 O831 O 0.61136 1.15224 0.47024
 O832 O 0.64720 1.18798 0.47031
 C833 C 0.62225 1.17716 0.45975
 C834 C 0.60618 1.19322 0.43443
 C835 C 0.61710 1.22147 0.42343
 H836 H 0.63655 1.23229 0.43450
 O837 O 0.38948 1.03024 0.34737
 O838 O 0.35371 1.03043 0.31157
 C839 C 0.37870 1.04082 0.32244
 C840 C 0.39494 1.06603 0.30641
 C841 C 0.38396 1.07719 0.27825
 H842 H 0.36439 1.06628 0.26749
 O843 O 0.61080 0.96959 0.34736
 O844 O 0.64664 0.96944 0.31162
 C845 C 0.62161 0.95907 0.32241
 C846 C 0.60539 0.93393 0.30628
 C847 C 0.61636 0.92285 0.27809
 H848 H 0.63596 0.93377 0.26737
 O849 O 0.52938 0.84700 0.38863
 O850 O 0.52928 0.81121 0.35285
 C851 C 0.53977 0.82200 0.37783
 C852 C 0.56489 0.80584 0.39406
 C853 C 0.57596 0.77762 0.38312
 H854 H 0.56506 0.76690 0.36352
 O855 O 0.47086 1.15293 0.38895
 O856 O 0.47102 1.18876 0.35322
 C857 C 0.46047 1.17793 0.37816
 C858 C 0.43525 1.19405 0.39432
 C859 C 0.42420 1.22228 0.38338
 H860 H 0.43516 1.23305 0.36384
 O861 O 0.34758 1.11171 0.46979
 O862 O 0.31186 1.14757 0.46971
 C863 C 0.32265 1.12257 0.45926
 C864 C 0.30659 1.10630 0.43407
 C865 C 0.27840 1.11716 0.42274
 H866 H 0.26790 1.13724 0.43296
 O867 O 0.65193 0.88827 0.46996
 O868 O 0.68761 0.85237 0.46996
 C869 C 0.67688 0.87740 0.45951
 C870 C 0.69309 0.89360 0.43441
 C871 C 0.72139 0.88272 0.42349
 H872 H 0.73213 0.86316 0.43446
 O873 O 0.47066 1.11093 0.34692
 O874 O 0.47077 1.14660 0.31101
 C875 C 0.46014 1.12173 0.32196
 C876 C 0.43473 1.10560 0.30608
 C877 C 0.42334 1.11649 0.27792
 H878 H 0.43368 1.13646 0.26733
 O879 O 0.52963 0.88900 0.34661
 O880 O 0.52957 0.85339 0.31066
 C881 C 0.54016 0.87824 0.32165
 C882 C 0.56556 0.89440 0.30582
 C883 C 0.57694 0.88360 0.27764
 H884 H 0.56658 0.86367 0.26699
 O885 O 0.65285 0.96939 0.38937
 O886 O 0.68883 0.96923 0.35377
 C887 C 0.67780 0.95877 0.37866
 C888 C 0.69362 0.93343 0.39491
 C889 C 0.72192 0.92219 0.38428
 H890 H 0.73264 0.93262 0.36443
 O891 O 0.34741 1.03038 0.38936
 O892 O 0.31153 1.03050 0.35367
 C893 C 0.32248 1.04098 0.37858
 C894 C 0.30658 1.06635 0.39466
 C895 C 0.27842 1.07750 0.38371
 H896 H 0.26753 1.06647 0.36428
 O897 O 0.38991 1.15345 0.46981
 O898 O 0.35437 1.18948 0.46976
 C899 C 0.37926 1.17847 0.45927
 C900 C 0.39557 1.19436 0.43400
 C901 C 0.38483 1.22260 0.42270
 H902 H 0.36486 1.23321 0.43303
 O903 O 0.60988 0.84624 0.46982
 O904 O 0.64542 0.81021 0.46982
 C905 C 0.62057 0.82124 0.45928
 C906 C 0.60437 0.80540 0.43392
 C907 C 0.61515 0.77718 0.42260
 H908 H 0.63507 0.76653 0.43299
 O909 O 0.61114 1.02948 0.34730
 O910 O 0.64695 1.02934 0.31153
 C911 C 0.62201 1.03992 0.32235
 C912 C 0.60594 1.06520 0.30626
 C913 C 0.61683 1.07618 0.27799
 H914 H 0.63631 1.06515 0.26718
 O915 O 0.38915 0.97036 0.34716
 O916 O 0.35338 0.97055 0.31135
 C917 C 0.37831 0.95996 0.32218
 C918 C 0.39439 0.93473 0.30605
 C919 C 0.38342 0.92374 0.27781
 H920 H 0.36390 0.93475 0.26705
 O921 O 0.53075 1.15266 0.38897
 O922 O 0.53100 1.18852 0.35325
 C923 C 0.54140 1.17758 0.37822
 C924 C 0.56667 1.19347 0.39456
 C925 C 0.57796 1.22174 0.38389
 H926 H 0.56767 1.23236 0.36391
 O927 O 0.46955 0.84719 0.38852
 O928 O 0.46935 0.81137 0.35278
 C929 C 0.45895 0.82227 0.37775
 C930 C 0.43374 0.80633 0.39410
 C931 C 0.42244 0.77808 0.38339
 H932 H 0.43268 0.76750 0.36337
 O933 O 0.65344 1.11029 0.47031
 O934 O 0.68944 1.14585 0.47034
 C935 C 0.67845 1.12097 0.45982
 C936 C 0.69436 1.10470 0.43453
 C937 C 0.72252 1.11553 0.42313
 H938 H 0.73309 1.13556 0.43340
 O939 O 0.34724 0.88954 0.47001
 O940 O 0.31129 0.85392 0.46994
 C941 C 0.32224 0.87884 0.45950
 C942 C 0.30626 0.89505 0.43427
 C943 C 0.27811 0.88409 0.42307
 H944 H 0.26730 0.86454 0.43398
 Cu945 Cu 0.49958 0.87171 0.37115
 Cu946 Cu 0.49942 0.82882 0.32811
 Cu947 Cu 0.50070 1.12821 0.37150
 Cu948 Cu 0.50092 1.17114 0.32853
 Cu949 Cu 0.37186 1.00032 0.37187
 Cu950 Cu 0.32886 1.00054 0.32894
 Cu951 Cu 0.62836 0.99946 0.37197
 Cu952 Cu 0.67144 0.99928 0.32911
 C953 C 0.41986 0.92039 0.31963
 H954 H 0.42814 0.92846 0.34164
 C955 C 0.39733 0.89848 0.26338
 C956 C 0.58051 1.07956 0.31992
 H957 H 0.57227 1.07150 0.34195
 C958 C 0.60288 1.10143 0.26358
 C959 C 0.31991 0.92057 0.42008
 H960 H 0.34186 0.92884 0.42832
 C961 C 0.26384 0.89800 0.39773
 C962 C 0.68049 1.07923 0.42043
 H963 H 0.65854 1.07104 0.42876
 C964 C 0.73657 1.10144 0.39775
 C965 C 0.41969 0.82019 0.41961
 H966 H 0.42796 0.84219 0.42771
 C967 C 0.39722 0.76392 0.39768
 C968 C 0.58077 1.17956 0.42002
 H969 H 0.57251 1.15755 0.42810
 C970 C 0.60321 1.23587 0.39814
 C971 C 0.42052 1.08019 0.31998
 H972 H 0.42882 1.07197 0.34192
 C973 C 0.39789 1.10247 0.26390
 C974 C 0.57979 0.91975 0.31980
 H975 H 0.57149 0.92790 0.34177
 C976 C 0.60239 0.89764 0.26365
 C977 C 0.57905 0.81937 0.41966
 H978 H 0.57092 0.84136 0.42793
 C979 C 0.60113 0.76317 0.39716
 C980 C 0.42098 1.18044 0.41983
 H981 H 0.42908 1.15844 0.42809
 C982 C 0.39895 1.23669 0.39735
 C983 C 0.32033 1.08071 0.42003
 H984 H 0.34229 1.07250 0.42830
 C985 C 0.26420 1.10295 0.39749
 C986 C 0.67955 0.91915 0.42017
 H987 H 0.65751 0.92737 0.42819
 C988 C 0.73595 0.89680 0.39840
 O989 O 0.52920 0.88880 0.65317
 O990 O 0.52905 0.85311 0.68906
 C991 C 0.53966 0.87798 0.67814
 C992 C 0.56503 0.89403 0.69409
 C993 C 0.57611 0.88312 0.72231
 H994 H 0.56505 0.86371 0.73322
 O995 O 0.47029 1.11045 0.65277
 O996 O 0.47045 1.14612 0.68868
 C997 C 0.45982 1.12127 0.67774
 C998 C 0.43443 1.10526 0.69370
 C999 C 0.42334 1.11625 0.72189
 H1000 H 0.43442 1.13567 0.73275
 O1001 O 0.34702 1.03046 0.61054
 O1002 O 0.31103 1.03063 0.64612
 C1003 C 0.32206 1.04109 0.62123
 C1004 C 0.30623 1.06642 0.60494
 C1005 C 0.27795 1.07767 0.61560
 H1006 H 0.26727 1.06728 0.63550
 O1007 O 0.65254 0.96889 0.61077
 O1008 O 0.68844 0.96868 0.64644
 C1009 C 0.67748 0.95826 0.62150
 C1010 C 0.69336 0.93299 0.60521
 C1011 C 0.72165 0.92177 0.61586
 H1012 H 0.73230 0.93215 0.63578
 O1013 O 0.60955 0.84648 0.52979
 O1014 O 0.64513 0.81048 0.52981
 C1015 C 0.62026 0.82151 0.54033
 C1016 C 0.60416 0.80564 0.56573
 C1017 C 0.61521 0.77756 0.57699
 H1018 H 0.63468 0.76670 0.56600
 O1019 O 0.38979 1.15345 0.52975
 O1020 O 0.35425 1.18949 0.52979
 C1021 C 0.37911 1.17844 0.54032
 C1022 C 0.39534 1.19423 0.56570
 C1023 C 0.38457 1.22242 0.57709
 H1024 H 0.36463 1.23307 0.56675
 O1025 O 0.38872 0.97034 0.65264
 O1026 O 0.35291 0.97048 0.68841
 C1027 C 0.37783 0.95987 0.67758
 C1028 C 0.39388 0.93454 0.69364
 C1029 C 0.38295 0.92355 0.72190
 H1030 H 0.36349 0.93462 0.73271
 O1031 O 0.61073 1.02892 0.65278
 O1032 O 0.64647 1.02879 0.68862
 C1033 C 0.62156 1.03938 0.67773
 C1034 C 0.60549 1.06472 0.69373
 C1035 C 0.61644 1.07581 0.72193
 H1036 H 0.63593 1.06481 0.73276
 O1037 O 0.46930 0.84689 0.61114
 O1038 O 0.46909 0.81101 0.64684
 C1039 C 0.45873 0.82192 0.62186
 C1040 C 0.43359 0.80596 0.60548
 C1041 C 0.42233 0.77769 0.61616
 H1042 H 0.43260 0.76710 0.63618
 O1043 O 0.53043 1.15228 0.61084
 O1044 O 0.53055 1.18805 0.64663
 C1045 C 0.54101 1.17719 0.62168
 C1046 C 0.56631 1.19318 0.60556
 C1047 C 0.57740 1.22138 0.61649
 H1048 H 0.56639 1.23220 0.63598
 O1049 O 0.34725 0.88953 0.52989
 O1050 O 0.31130 0.85390 0.52981
 C1051 C 0.32223 0.87881 0.54033
 C1052 C 0.30616 0.89500 0.56554
 C1053 C 0.27800 0.88400 0.57666
 H1054 H 0.26726 0.86442 0.56575
 O1055 O 0.65318 1.11006 0.53020
 O1056 O 0.68918 1.14562 0.53032
 C1057 C 0.67817 1.12070 0.54076
 C1058 C 0.69408 1.10435 0.56600
 C1059 C 0.72229 1.11512 0.57731
 H1060 H 0.73285 1.13514 0.56703
 O1061 O 0.53023 1.11024 0.65290
 O1062 O 0.53040 1.14589 0.68882
 C1063 C 0.54079 1.12093 0.67789
 C1064 C 0.56598 1.10457 0.69386
 C1065 C 0.57729 1.11534 0.72208
 H1066 H 0.56702 1.13538 0.73263
 O1067 O 0.46928 0.88900 0.65308
 O1068 O 0.46903 0.85332 0.68897
 C1069 C 0.45864 0.87829 0.67802
 C1070 C 0.43340 0.89467 0.69392
 C1071 C 0.42210 0.88401 0.72219
 H1072 H 0.43238 0.86402 0.73282
 O1073 O 0.65285 1.02881 0.61087
 O1074 O 0.68873 1.02865 0.64657
 C1075 C 0.67784 1.03924 0.62166
 C1076 C 0.69389 1.06454 0.60555
 C1077 C 0.72210 1.07563 0.61650
 H1078 H 0.73292 1.06465 0.63601
 O1079 O 0.34670 0.97054 0.61066
 O1080 O 0.31072 0.97060 0.64625
 C1081 C 0.32169 0.96006 0.62137
 C1082 C 0.30579 0.93474 0.60514
 C1083 C 0.27763 0.92335 0.61598
 H1084 H 0.26702 0.93367 0.63597
 O1085 O 0.61150 1.15246 0.53016
 O1086 O 0.64733 1.18819 0.53031
 C1087 C 0.62234 1.17737 0.54073
 C1088 C 0.60609 1.19336 0.56598
 C1089 C 0.61689 1.22157 0.57730
 H1090 H 0.63690 1.23214 0.56700
 O1091 O 0.38902 0.84720 0.52987
 O1092 O 0.35317 0.81148 0.52978
 C1093 C 0.37812 0.82226 0.54032
 C1094 C 0.39416 0.80617 0.56559
 C1095 C 0.38324 0.77791 0.57658
 H1096 H 0.36379 0.76708 0.56551
 O1097 O 0.61067 0.96904 0.65300
 O1098 O 0.64641 0.96885 0.68883
 C1099 C 0.62140 0.95849 0.67798
 C1100 C 0.60501 0.93339 0.69405
 C1101 C 0.61578 0.92213 0.72230
 H1102 H 0.63585 0.93236 0.73280
 O1103 O 0.38882 1.03022 0.65282
 O1104 O 0.35301 1.03046 0.68857
 C1105 C 0.37804 1.04079 0.67775
 C1106 C 0.39442 1.06593 0.69378
 C1107 C 0.38365 1.07727 0.72199
 H1108 H 0.36356 1.06708 0.73252
 O1109 O 0.47052 1.15259 0.61083
 O1110 O 0.47064 1.18836 0.64662
 C1111 C 0.46011 1.17758 0.62165
 C1112 C 0.43493 1.19375 0.60549
 C1113 C 0.42385 1.22195 0.61650
 H1114 H 0.43477 1.23265 0.63609
 O1115 O 0.52913 0.84674 0.61122
 O1116 O 0.52904 0.81087 0.64693
 C1117 C 0.53957 0.82174 0.62199
 C1118 C 0.56478 0.80569 0.60571
 C1119 C 0.57622 0.77759 0.61668
 H1120 H 0.56607 0.76715 0.63684
 O1121 O 0.65198 0.88808 0.52982
 O1122 O 0.68768 0.85220 0.52983
 C1123 C 0.67691 0.87719 0.54031
 C1124 C 0.69303 0.89332 0.56553
 C1125 C 0.72132 0.88245 0.57650
 H1126 H 0.73213 0.86296 0.56549
 O1127 O 0.34770 1.11151 0.52966
 O1128 O 0.31199 1.14737 0.52966
 C1129 C 0.32276 1.12237 0.54014
 C1130 C 0.30663 1.10618 0.56532
 C1131 C 0.27835 1.11706 0.57630
 H1132 H 0.26757 1.13659 0.56531
 Cu1133 Cu 0.49924 0.87144 0.62858
 Cu1134 Cu 0.49902 0.82850 0.67157
 Cu1135 Cu 0.50036 1.12781 0.62825
 Cu1136 Cu 0.50053 1.17069 0.67129
 Cu1137 Cu 0.37178 0.87198 0.49994
 Cu1138 Cu 0.32866 0.82916 0.49984
 Cu1139 Cu 0.62725 0.87085 0.49983
 Cu1140 Cu 0.67002 0.82768 0.49985
 Cu1141 Cu 0.37231 1.12896 0.49974
 Cu1142 Cu 0.32955 1.17210 0.49973
 Cu1143 Cu 0.62878 1.12770 0.50023
 Cu1144 Cu 0.67189 1.17049 0.50033
 Cu1145 Cu 0.37139 1.00039 0.62809
 Cu1146 Cu 0.32830 1.00057 0.67092
 Cu1147 Cu 0.62812 0.99891 0.62828
 Cu1148 Cu 0.67111 0.99872 0.67120
 C1149 C 0.57944 0.91935 0.68030
 H1150 H 0.57131 0.92758 0.65830
 C1151 C 0.60151 0.89696 0.73655
 C1152 C 0.42001 1.07991 0.67999
 H1153 H 0.42816 1.07162 0.65802
 C1154 C 0.39792 1.10248 0.73616
 C1155 C 0.32023 1.08067 0.57961
 H1156 H 0.34226 1.07244 0.57156
 C1157 C 0.26387 1.10302 0.60146
 C1158 C 0.67939 0.91878 0.57985
 H1159 H 0.65735 0.92700 0.57180
 C1160 C 0.73578 0.89648 0.60169
 C1161 C 0.57875 0.81937 0.58005
 H1162 H 0.57042 0.84128 0.57176
 C1163 C 0.60152 0.76343 0.60252
 C1164 C 0.42071 1.18025 0.57989
 H1165 H 0.42884 1.15828 0.57157
 C1166 C 0.39863 1.23641 0.60253
 C1167 C 0.41930 0.92013 0.67999
 H1168 H 0.42756 0.92819 0.65798
 C1169 C 0.39684 0.89827 0.73631
 C1170 C 0.58007 1.07906 0.68004
 H1171 H 0.57179 1.07092 0.65805
 C1172 C 0.60257 1.10116 0.73623
 C1173 C 0.41953 0.81984 0.58000
 H1174 H 0.42778 0.84186 0.57194
 C1175 C 0.39712 0.76353 0.60189
 C1176 C 0.58061 1.17951 0.58011
 H1177 H 0.57245 1.15754 0.57185
 C1178 C 0.60273 1.23570 0.60261
 C1179 C 0.31972 0.92056 0.57973
 H1180 H 0.34167 0.92887 0.57155
 C1181 C 0.26362 0.89792 0.60194
 C1182 C 0.68023 1.07887 0.58010
 H1183 H 0.65824 1.07074 0.57182
 C1184 C 0.73644 1.10095 0.60260
 O1185 O 0.46974 0.38935 0.84666
 O1186 O 0.46956 0.35372 0.81072
 C1187 C 0.45918 0.37868 0.82167
 C1188 C 0.43399 0.39505 0.80575
 C1189 C 0.42266 0.38433 0.77752
 H1190 H 0.43292 0.36432 0.76692
 O1191 O 0.53056 0.61069 0.84786
 O1192 O 0.53075 0.64644 0.81203
 C1193 C 0.54112 0.62145 0.82291
 C1194 C 0.56632 0.60522 0.80687
 C1195 C 0.57746 0.61618 0.77870
 H1196 H 0.56653 0.63573 0.76792
 O1197 O 0.34709 0.47048 0.88916
 O1198 O 0.31124 0.47060 0.85344
 C1199 C 0.32212 0.46001 0.87835
 C1200 C 0.30614 0.43469 0.89451
 C1201 C 0.27799 0.42334 0.88360
 H1202 H 0.26746 0.43365 0.86358
 O1203 O 0.65313 0.52930 0.88960
 O1204 O 0.68900 0.52919 0.85390
 C1205 C 0.67814 0.53971 0.87884
 C1206 C 0.69425 0.56493 0.89499
 C1207 C 0.72240 0.57605 0.88395
 H1208 H 0.73314 0.56511 0.86437
 O1209 O 0.38916 0.34743 0.97002
 O1210 O 0.35337 0.31165 0.97002
 C1211 C 0.37831 0.32250 0.95950
 C1212 C 0.39436 0.30650 0.93416
 C1213 C 0.38341 0.27828 0.92311
 H1214 H 0.36398 0.26743 0.93419
 O1215 O 0.61179 0.65227 0.97056
 O1216 O 0.64758 0.68805 0.97058
 C1217 C 0.62261 0.67723 0.96009
 C1218 C 0.60642 0.69332 0.93489
 C1219 C 0.61731 0.72158 0.92385
 H1220 H 0.63684 0.73237 0.93481
 O1221 O 0.38936 0.53038 0.84738
 O1222 O 0.35369 0.53064 0.81148
 C1223 C 0.37865 0.54101 0.82244
 C1224 C 0.39502 0.56625 0.80654
 C1225 C 0.38432 0.57755 0.77829
 H1226 H 0.36432 0.56727 0.76768
 O1227 O 0.61082 0.46967 0.84739
 O1228 O 0.64661 0.46957 0.81161
 C1229 C 0.62160 0.45917 0.82242
 C1230 C 0.60537 0.43402 0.80630
 C1231 C 0.61636 0.42291 0.77813
 H1232 H 0.63595 0.43382 0.76740
 O1233 O 0.52939 0.34706 0.88872
 O1234 O 0.52929 0.31126 0.85294
 C1235 C 0.53978 0.32205 0.87793
 C1236 C 0.56489 0.30587 0.89417
 C1237 C 0.57596 0.27766 0.88320
 H1238 H 0.56508 0.26697 0.86358
 O1239 O 0.47079 0.65308 0.88978
 O1240 O 0.47100 0.68891 0.85403
 C1241 C 0.46041 0.67808 0.87894
 C1242 C 0.43514 0.69419 0.89500
 C1243 C 0.42411 0.72239 0.88399
 H1244 H 0.43514 0.73317 0.86449
 O1245 O 0.34726 0.61162 0.96998
 O1246 O 0.31157 0.64750 0.96985
 C1247 C 0.32236 0.62250 0.95940
 C1248 C 0.30636 0.60625 0.93416
 C1249 C 0.27817 0.61709 0.92281
 H1250 H 0.26764 0.63714 0.93306
 O1251 O 0.65196 0.38820 0.97003
 O1252 O 0.68760 0.35226 0.97004
 C1253 C 0.67688 0.37729 0.95956
 C1254 C 0.69307 0.39347 0.93441
 C1255 C 0.72136 0.38260 0.92347
 H1256 H 0.73211 0.36305 0.93445
 O1257 O 0.47064 0.61101 0.84779
 O1258 O 0.47082 0.64672 0.81193
 C1259 C 0.46019 0.62184 0.82281
 C1260 C 0.43486 0.60578 0.80677
 C1261 C 0.42383 0.61671 0.77853
 H1262 H 0.43487 0.63618 0.76771
 O1263 O 0.52964 0.38906 0.84670
 O1264 O 0.52958 0.35345 0.81074
 C1265 C 0.54017 0.37830 0.82173
 C1266 C 0.56557 0.39447 0.80589
 C1267 C 0.57696 0.38364 0.77771
 H1268 H 0.56662 0.36368 0.76709
 O1269 O 0.65287 0.46936 0.88941
 O1270 O 0.68880 0.46921 0.85377
 C1271 C 0.67779 0.45872 0.87866
 C1272 C 0.69358 0.43332 0.89489
 C1273 C 0.72187 0.42207 0.88425
 H1274 H 0.73259 0.43250 0.86440
 O1275 O 0.34731 0.53042 0.88938
 O1276 O 0.31149 0.53058 0.85363
 C1277 C 0.32239 0.54102 0.87858
 C1278 C 0.30645 0.56636 0.89469
 C1279 C 0.27827 0.57749 0.88373
 H1280 H 0.26742 0.56647 0.86427
 O1281 O 0.38945 0.65348 0.97013
 O1282 O 0.35395 0.68955 0.97005
 C1283 C 0.37885 0.67853 0.95963
 C1284 C 0.39526 0.69446 0.93446
 C1285 C 0.38454 0.72267 0.92310
 H1286 H 0.36450 0.73326 0.93331
 O1287 O 0.60988 0.34621 0.96997
 O1288 O 0.64537 0.31012 0.97000
 C1289 C 0.62054 0.32119 0.95944
 C1290 C 0.60434 0.30537 0.93407
 C1291 C 0.61512 0.27716 0.92272
 H1292 H 0.63503 0.26650 0.93311
 O1293 O 0.61125 0.52957 0.84742
 O1294 O 0.64698 0.52952 0.81158
 C1295 C 0.62208 0.54010 0.82249
 C1296 C 0.60594 0.56548 0.80658
 C1297 C 0.61681 0.57684 0.77841
 H1298 H 0.63679 0.56651 0.76782
 O1299 O 0.38916 0.47048 0.84716
 O1300 O 0.35345 0.47070 0.81129
 C1301 C 0.37835 0.46010 0.82215
 C1302 C 0.39444 0.43485 0.80605
 C1303 C 0.38346 0.42382 0.77783
 H1304 H 0.36395 0.43482 0.76705
 O1305 O 0.53073 0.65284 0.88980
 O1306 O 0.53094 0.68870 0.85409
 C1307 C 0.54136 0.67776 0.87903
 C1308 C 0.56668 0.69364 0.89528
 C1309 C 0.57793 0.72190 0.88455
 H1310 H 0.56755 0.73254 0.86462
 O1311 O 0.46956 0.34725 0.88861
 O1312 O 0.46936 0.31143 0.85286
 C1313 C 0.45896 0.32232 0.87784
 C1314 C 0.43375 0.30637 0.89419
 C1315 C 0.42244 0.27814 0.88345
 H1316 H 0.43266 0.26758 0.86340
 O1317 O 0.65375 0.61020 0.97049
 O1318 O 0.68971 0.64580 0.97046
 C1319 C 0.67872 0.62091 0.95995
 C1320 C 0.69459 0.60464 0.93463
 C1321 C 0.72275 0.61546 0.92321
 H1322 H 0.73334 0.63548 0.93348
 O1323 O 0.34723 0.38955 0.97001
 O1324 O 0.31132 0.35388 0.96995
 C1325 C 0.32226 0.37881 0.95947
 C1326 C 0.30630 0.39500 0.93419
 C1327 C 0.27816 0.38404 0.92299
 H1328 H 0.26734 0.36450 0.93392
 Cu1329 Cu 0.49959 0.37176 0.87124
 Cu1330 Cu 0.49943 0.32888 0.82821
 Cu1331 Cu 0.50066 0.62833 0.87240
 Cu1332 Cu 0.50090 0.67128 0.82942
 Cu1333 Cu 0.37180 0.50041 0.87186
 Cu1334 Cu 0.32887 0.50066 0.82887
 Cu1335 Cu 0.62844 0.49949 0.87203
 Cu1336 Cu 0.67145 0.49935 0.82913
 C1337 C 0.41990 0.42051 0.81965
 H1338 H 0.42819 0.42860 0.84165
 C1339 C 0.39735 0.39852 0.76344
 C1340 C 0.58052 0.57967 0.82047
 H1341 H 0.57231 0.57138 0.84242
 C1342 C 0.60276 0.60226 0.76435
 C1343 C 0.31995 0.42052 0.91999
 H1344 H 0.34189 0.42880 0.92824
 C1345 C 0.26388 0.39794 0.89765
 C1346 C 0.68069 0.57919 0.92053
 H1347 H 0.65874 0.57102 0.92887
 C1348 C 0.73677 0.60137 0.89781
 C1349 C 0.41972 0.32020 0.91973
 H1350 H 0.42800 0.34219 0.92785
 C1351 C 0.39722 0.26397 0.89773
 C1352 C 0.58091 0.67970 0.92064
 H1353 H 0.57268 0.65769 0.92874
 C1354 C 0.60328 0.73600 0.89865
 C1355 C 0.42048 0.58035 0.82043
 H1356 H 0.42857 0.57208 0.84244
 C1357 C 0.39854 0.60281 0.76415
 C1358 C 0.57978 0.41985 0.81983
 H1359 H 0.57146 0.42802 0.84179
 C1360 C 0.60241 0.39767 0.76372
 C1361 C 0.57903 0.31937 0.91980
 H1362 H 0.57090 0.34135 0.92809
 C1363 C 0.60112 0.26318 0.89724
 C1364 C 0.42076 0.68057 0.92043
 H1365 H 0.42886 0.65858 0.92874
 C1366 C 0.39877 0.73676 0.89781
 C1367 C 0.32015 0.58069 0.92009
 H1368 H 0.34211 0.57250 0.92837
 C1369 C 0.26402 0.60289 0.89754
 C1370 C 0.67952 0.41903 0.92015
 H1371 H 0.65748 0.42726 0.92819
 C1372 C 0.73591 0.39668 0.89837
 O1373 O 0.52928 0.38961 1.15333
 O1374 O 0.52908 0.35391 1.18921
 C1375 C 0.53973 0.37876 1.17829
 C1376 C 0.56515 0.39470 1.19423
 C1377 C 0.57621 0.38372 1.22243
 H1378 H 0.56508 0.36436 1.23334
 O1379 O 0.47029 0.61041 1.15274
 O1380 O 0.47045 0.64608 1.18864
 C1381 C 0.45981 0.62124 1.17770
 C1382 C 0.43437 0.60528 1.19363
 C1383 C 0.42333 0.61623 1.22185
 H1384 H 0.43447 0.63560 1.23275
 O1385 O 0.34642 0.53063 1.11061
 O1386 O 0.31048 0.53075 1.14624
 C1387 C 0.32146 0.54122 1.12133
 C1388 C 0.30559 0.56652 1.10506
 C1389 C 0.27733 0.57781 1.11576
 H1390 H 0.26668 0.56744 1.13569
 O1391 O 0.65287 0.46906 1.11069
 O1392 O 0.68874 0.46881 1.14639
 C1393 C 0.67777 0.45839 1.12145
 C1394 C 0.69359 0.43307 1.10518
 C1395 C 0.72188 0.42184 1.11581
 H1396 H 0.73257 0.43224 1.13570
 O1397 O 0.60967 0.34645 1.02994
 O1398 O 0.64515 0.31036 1.03004
 C1399 C 0.62031 0.32147 1.04055
 C1400 C 0.60407 0.30572 1.06595
 C1401 C 0.61475 0.27748 1.07727
 H1402 H 0.63461 0.26675 1.06685
 O1403 O 0.38941 0.65325 1.03002
 O1404 O 0.35392 0.68933 1.03005
 C1405 C 0.37878 0.67825 1.04057
 C1406 C 0.39509 0.69406 1.06590
 C1407 C 0.38438 0.72228 1.07725
 H1408 H 0.36440 0.73292 1.06696
 O1409 O 0.38831 0.47065 1.15267
 O1410 O 0.35255 0.47075 1.18848
 C1411 C 0.37749 0.46020 1.17765
 C1412 C 0.39365 0.43499 1.19375
 C1413 C 0.38276 0.42396 1.22201
 H1414 H 0.36322 0.43492 1.23279
 O1415 O 0.61111 0.52919 1.15257
 O1416 O 0.64679 0.52904 1.18846
 C1417 C 0.62190 0.53964 1.17755
 C1418 C 0.60576 0.56492 1.19355
 C1419 C 0.61667 0.57600 1.22177
 H1420 H 0.63618 0.56504 1.23258
 O1421 O 0.46934 0.34780 1.11120
 O1422 O 0.46915 0.31200 1.14698
 C1423 C 0.45879 0.32286 1.12198
 C1424 C 0.43366 0.30679 1.10572
 C1425 C 0.42258 0.27858 1.11663
 H1426 H 0.43349 0.26782 1.13621
 O1427 O 0.53044 0.65224 1.11080
 O1428 O 0.53055 0.68802 1.14660
 C1429 C 0.54103 0.67714 1.12165
 C1430 C 0.56638 0.69310 1.10558
 C1431 C 0.57742 0.72133 1.11648
 H1432 H 0.56633 0.73221 1.13590
 O1433 O 0.34714 0.38959 1.02990
 O1434 O 0.31124 0.35391 1.02985
 C1435 C 0.32212 0.37885 1.04034
 C1436 C 0.30602 0.39505 1.06552
 C1437 C 0.27785 0.38404 1.07663
 H1438 H 0.26713 0.36445 1.06572
 O1439 O 0.65378 0.61011 1.03037
 O1440 O 0.68974 0.64572 1.03045
 C1441 C 0.67878 0.62080 1.04090
 C1442 C 0.69473 0.60447 1.06610
 C1443 C 0.72292 0.61528 1.07745
 H1444 H 0.73345 0.63532 1.06719
 O1445 O 0.53025 0.61022 1.15286
 O1446 O 0.53042 0.64587 1.18877
 C1447 C 0.54083 0.62092 1.17783
 C1448 C 0.56608 0.60462 1.19377
 C1449 C 0.57736 0.61538 1.22201
 H1450 H 0.56702 0.63535 1.23260
 O1451 O 0.46932 0.38982 1.15327
 O1452 O 0.46911 0.35414 1.18917
 C1453 C 0.45870 0.37909 1.17821
 C1454 C 0.43340 0.39537 1.19410
 C1455 C 0.42214 0.38466 1.22236
 H1456 H 0.43251 0.36473 1.23300
 O1457 O 0.65347 0.52898 1.11092
 O1458 O 0.68930 0.52880 1.14665
 C1459 C 0.67847 0.53938 1.12174
 C1460 C 0.69455 0.56465 1.10564
 C1461 C 0.72273 0.57578 1.11664
 H1462 H 0.73352 0.56482 1.13617
 O1463 O 0.34640 0.47070 1.11058
 O1464 O 0.31046 0.47071 1.14621
 C1465 C 0.32143 0.46017 1.12132
 C1466 C 0.30558 0.43482 1.10511
 C1467 C 0.27741 0.42342 1.11593
 H1468 H 0.26679 0.43373 1.13590
 O1469 O 0.61186 0.65226 1.03042
 O1470 O 0.64763 0.68806 1.03054
 C1471 C 0.62265 0.67720 1.04097
 C1472 C 0.60632 0.69320 1.06616
 C1473 C 0.61705 0.72145 1.07744
 H1474 H 0.63709 0.73201 1.06718
 O1475 O 0.38892 0.34729 1.02998
 O1476 O 0.35315 0.31149 1.02998
 C1477 C 0.37807 0.32236 1.04052
 C1478 C 0.39420 0.30643 1.06587
 C1479 C 0.38337 0.27821 1.07717
 H1480 H 0.36345 0.26758 1.06677
 O1481 O 0.61113 0.46936 1.15303
 O1482 O 0.64683 0.46913 1.18890
 C1483 C 0.62181 0.45884 1.17805
 C1484 C 0.60533 0.43384 1.19415
 C1485 C 0.61607 0.42253 1.22238
 H1486 H 0.63622 0.43265 1.23286
 O1487 O 0.38848 0.53047 1.15262
 O1488 O 0.35272 0.53068 1.18844
 C1489 C 0.37775 0.54102 1.17759
 C1490 C 0.39420 0.56610 1.19362
 C1491 C 0.38348 0.57741 1.22187
 H1492 H 0.36337 0.56726 1.23239
 O1493 O 0.47050 0.65254 1.11080
 O1494 O 0.47062 0.68832 1.14660
 C1495 C 0.46008 0.67752 1.12164
 C1496 C 0.43483 0.69366 1.10553
 C1497 C 0.42380 0.72189 1.11651
 H1498 H 0.43480 0.73264 1.13604
 O1499 O 0.52916 0.34758 1.11131
 O1500 O 0.52900 0.31176 1.14707
 C1501 C 0.53953 0.32256 1.12211
 C1502 C 0.56464 0.30634 1.10589
 C1503 C 0.57564 0.27809 1.11683
 H1504 H 0.56474 0.26741 1.13646
 O1505 O 0.65208 0.38808 1.02989
 O1506 O 0.68772 0.35213 1.02995
 C1507 C 0.67700 0.37716 1.04039
 C1508 C 0.69316 0.39332 1.06557
 C1509 C 0.72146 0.38245 1.07652
 H1510 H 0.73224 0.36293 1.06553
 O1511 O 0.34709 0.61155 1.02984
 O1512 O 0.31142 0.64745 1.02981
 C1513 C 0.32215 0.62244 1.04029
 C1514 C 0.30598 0.60627 1.06545
 C1515 C 0.27773 0.61719 1.07646
 H1516 H 0.26698 0.63674 1.06549
 Cu1517 Cu 0.49929 0.37231 1.12871
 Cu1518 Cu 0.49906 0.32938 1.17172
 Cu1519 Cu 0.50036 0.62777 1.12822
 Cu1520 Cu 0.50053 0.67065 1.17125
 Cu1521 Cu 0.37172 0.37202 1.00000
 Cu1522 Cu 0.32867 0.32914 0.99994
 Cu1523 Cu 0.62732 0.37081 0.99995
 Cu1524 Cu 0.67002 0.32759 1.00001
 Cu1525 Cu 0.37186 0.62888 0.99998
 Cu1526 Cu 0.32914 0.67208 0.99994
 Cu1527 Cu 0.62922 0.62764 1.00047
 Cu1528 Cu 0.67227 0.67049 1.00051
 Cu1529 Cu 0.37096 0.50062 1.12803
 Cu1530 Cu 0.32794 0.50074 1.17092
 Cu1531 Cu 0.62858 0.49915 1.12821
 Cu1532 Cu 0.67152 0.49892 1.17119
 C1533 C 0.57967 0.41995 1.18044
 H1534 H 0.57154 0.42822 1.15845
 C1535 C 0.60171 0.39741 1.23664
 C1536 C 0.41983 0.58002 1.17986
 H1537 H 0.42794 0.57175 1.15786
 C1538 C 0.39786 0.60253 1.23609
 C1539 C 0.31956 0.58074 1.07971
 H1540 H 0.34157 0.57249 1.07163
 C1541 C 0.26327 0.60318 1.10165
 C1542 C 0.67957 0.41882 1.07987
 H1543 H 0.65753 0.42705 1.07183
 C1544 C 0.73597 0.39651 1.10166
 C1545 C 0.57882 0.31981 1.08025
 H1546 H 0.57075 0.34182 1.07196
 C1547 C 0.60073 0.26352 1.10274
 C1548 C 0.42051 0.68010 1.08003
 H1549 H 0.42860 0.65811 1.07172
 C1550 C 0.39854 0.73633 1.10259
 C1551 C 0.41917 0.42073 1.18014
 H1552 H 0.42741 0.42882 1.15813
 C1553 C 0.39678 0.39877 1.23645
 C1554 C 0.58027 0.57920 1.17989
 H1555 H 0.57203 0.57106 1.15789
 C1556 C 0.60270 0.60126 1.23612
 C1557 C 0.41953 0.32036 1.08014
 H1558 H 0.42769 0.34235 1.07190
 C1559 C 0.39738 0.26418 1.10262
 C1560 C 0.58079 0.67938 1.08022
 H1561 H 0.57267 0.65737 1.07199
 C1562 C 0.60279 0.73564 1.10265
 C1563 C 0.31954 0.42064 1.07972
 H1564 H 0.34149 0.42896 1.07155
 C1565 C 0.26343 0.39797 1.10189
 C1566 C 0.68091 0.57896 1.08018
 H1567 H 0.65894 0.57080 1.07188
 C1568 C 0.73704 0.60113 1.10275
 C1569 C 1.12974 1.15951 1.29582
 C1570 C 1.13951 1.14014 1.31964
 C1571 C 1.13685 1.10822 1.31596
 C1572 C 1.12474 1.09591 1.28891
 C1573 C 1.11500 1.11531 1.26504
 C1574 C 1.11760 1.14725 1.26883
 H1575 H 1.13200 1.18417 1.29794
 H1576 H 1.14410 1.09287 1.33411
 H1577 H 1.12273 1.07124 1.28676
 H1578 H 1.11082 1.16277 1.25065
 C1579 C 1.12961 0.65945 0.79585
 C1580 C 1.13932 0.64009 0.81971
 C1581 C 1.13664 0.60817 0.81605
 C1582 C 1.12455 0.59584 0.78899
 C1583 C 1.11486 0.61523 0.76509
 C1584 C 1.11750 0.64717 0.76885
 H1585 H 1.13189 0.68410 0.79794
 H1586 H 1.14385 0.59283 0.83422
 H1587 H 1.12252 0.57117 0.78687
 H1588 H 1.11076 0.66268 0.75064
 C1589 C 0.65929 1.12876 0.79616
 C1590 C 0.63976 1.13855 0.81985
 C1591 C 0.60788 1.13560 0.81608
 C1592 C 0.59576 1.12328 0.78905
 C1593 C 0.61531 1.11361 0.76527
 C1594 C 0.64721 1.11640 0.76918
 H1595 H 0.68392 1.13121 0.79834
 H1596 H 0.59241 1.14283 0.83413
 H1597 H 0.57110 1.12111 0.78681
 H1598 H 0.66284 1.10965 0.75107
 C1599 C 0.60791 0.63552 1.31605
 C1600 C 0.63978 0.63852 1.31985
 C1601 C 0.65934 0.62884 1.29613
 C1602 C 0.64730 0.61654 1.26912
 C1603 C 0.61540 0.61369 1.26519
 C1604 C 0.59582 0.62326 1.28898
 H1605 H 0.59242 0.64268 1.33412
 H1606 H 0.68396 0.63134 1.29834
 H1607 H 0.66294 0.60987 1.25100
 H1608 H 0.57117 0.62104 1.28673
 C1609 C 0.84031 0.87116 1.29663
 C1610 C 0.85995 0.86144 1.32026
 C1611 C 0.89179 0.86459 1.31643
 C1612 C 0.90378 0.87703 1.28939
 C1613 C 0.88413 0.88660 1.26565
 C1614 C 0.85226 0.88363 1.26963
 H1615 H 0.81570 0.86858 1.29887
 H1616 H 0.90734 0.85743 1.33445
 H1617 H 0.92842 0.87934 1.28711
 H1618 H 0.83655 0.89030 1.25156
 C1619 C 0.84047 0.37115 0.79665
 C1620 C 0.86006 0.36143 0.82032
 C1621 C 0.89193 0.36445 0.81651
 C1622 C 0.90399 0.37673 0.78944
 C1623 C 0.88439 0.38628 0.76566
 C1624 C 0.85250 0.38346 0.76962
 H1625 H 0.81585 0.36865 0.79887
 H1626 H 0.90743 0.35727 0.83456
 H1627 H 0.92864 0.37893 0.78716
 H1628 H 0.83684 0.39014 0.75151
 C1629 C 0.34028 0.87102 0.79661
 C1630 C 0.35990 0.86126 0.82025
 C1631 C 0.39176 0.86419 0.81635
 C1632 C 0.40379 0.87639 0.78922
 C1633 C 0.38417 0.88598 0.76547
 C1634 C 0.35228 0.88326 0.76953
 H1635 H 0.31566 0.86860 0.79890
 H1636 H 0.40730 0.85700 0.83436
 H1637 H 0.42844 0.87852 0.78688
 H1638 H 0.33659 0.88997 0.75146
 C1639 C 0.34030 0.37117 1.29665
 C1640 C 0.35994 0.36144 1.32028
 C1641 C 0.39179 0.36451 1.31641
 C1642 C 0.40379 0.37683 1.28933
 C1643 C 0.38414 0.38640 1.26559
 C1644 C 0.35226 0.38352 1.26961
 H1645 H 0.31569 0.36864 1.29892
 H1646 H 0.40734 0.35734 1.33442
 H1647 H 0.42843 0.37908 1.28702
 H1648 H 0.33656 0.39019 1.25154
 C1649 C 0.87088 1.15936 0.70336
 C1650 C 0.86112 1.13984 0.67965
 C1651 C 0.86410 1.10796 0.68338
 C1652 C 0.87640 1.09582 0.71041
 C1653 C 0.88605 1.11535 0.73421
 C1654 C 0.88324 1.14726 0.73033
 H1655 H 0.86840 1.18399 0.70120
 H1656 H 0.85690 1.09251 0.66531
 H1657 H 0.87859 1.07116 0.71264
 H1658 H 0.88997 1.16286 0.74846
 C1659 C 0.86452 0.60833 0.18374
 C1660 C 0.86151 0.64022 0.18003
 C1661 C 0.87120 0.65971 0.20380
 C1662 C 0.88350 0.64759 0.23078
 C1663 C 0.88632 0.61568 0.23463
 C1664 C 0.87676 0.59617 0.21079
 H1665 H 0.85737 0.59289 0.16564
 H1666 H 0.86870 0.68434 0.20166
 H1667 H 0.89018 0.66318 0.24895
 H1668 H 0.87896 0.57151 0.21299
 C1669 C 0.39209 1.13669 0.18395
 C1670 C 0.36017 1.13940 0.18028
 C1671 C 0.34080 1.12971 0.20413
 C1672 C 0.35306 1.11762 0.23115
 C1673 C 0.38500 1.11496 0.23493
 C1674 C 0.40440 1.12461 0.21102
 H1675 H 0.40743 1.14389 0.16579
 H1676 H 0.31615 1.13201 0.20202
 H1677 H 0.33754 1.11091 0.24935
 H1678 H 0.42907 1.12255 0.21315
 C1679 C 0.37109 0.65936 0.70395
 C1680 C 0.36131 0.63975 0.68031
 C1681 C 0.36424 0.60789 0.68421
 C1682 C 0.37653 0.59586 0.71130
 C1683 C 0.38618 0.61548 0.73502
 C1684 C 0.38341 0.64737 0.73099
 H1685 H 0.36866 0.68398 0.70167
 H1686 H 0.35703 0.59236 0.66620
 H1687 H 0.37868 0.57121 0.71362
 H1688 H 0.39015 0.66305 0.74905
 C1689 C 1.15942 0.87046 0.70397
 C1690 C 1.13998 0.86086 0.68014
 C1691 C 1.10808 0.86369 0.68386
 C1692 C 1.09585 0.87577 0.71096
 C1693 C 1.11532 0.88529 0.73486
 C1694 C 1.14724 0.88254 0.73102
 H1695 H 1.18406 0.86807 0.70182
 H1696 H 1.09269 0.85657 0.66570
 H1697 H 1.07119 0.87790 0.71313
 H1698 H 1.16281 0.88915 0.74923
 C1699 C 1.10795 0.36370 0.18388
 C1700 C 1.13985 0.36088 0.18013
 C1701 C 1.15932 0.37052 0.20392
 C1702 C 1.14717 0.38264 0.23097
 C1703 C 1.11525 0.38538 0.23485
 C1704 C 1.09576 0.37581 0.21098
 H1705 H 1.09254 0.35655 0.16576
 H1706 H 1.18396 0.36815 0.20174
 H1707 H 1.16276 0.38929 0.24914
 H1708 H 1.07110 0.37794 0.21318
 C1709 C 0.65937 0.87032 0.20382
 C1710 C 0.63994 0.86065 0.18000
 C1711 C 0.60804 0.86347 0.18369
 C1712 C 0.59579 0.87560 0.21075
 C1713 C 0.61524 0.88521 0.23464
 C1714 C 0.64716 0.88246 0.23083
 H1715 H 0.68401 0.86795 0.20169
 H1716 H 0.59267 0.85630 0.16553
 H1717 H 0.57113 0.87773 0.21290
 H1718 H 0.66272 0.88913 0.24903
 C1719 C 0.60813 0.36339 0.68380
 C1720 C 0.64004 0.36057 0.68014
 C1721 C 0.65944 0.37027 0.70396
 C1722 C 0.64721 0.38245 0.73095
 C1723 C 0.61528 0.38520 0.73473
 C1724 C 0.59586 0.37555 0.71084
 H1725 H 0.59277 0.35620 0.66564
 H1726 H 0.68408 0.36790 0.70185
 H1727 H 0.66275 0.38915 0.74915
 H1728 H 0.57119 0.37768 0.71297
 C1729 C 1.31625 1.10814 1.13653
 C1730 C 1.31990 1.14004 1.13936
 C1731 C 1.29607 1.15944 1.12966
 C1732 C 1.26911 1.14722 1.11742
 C1733 C 1.26536 1.11529 1.11464
 C1734 C 1.28923 1.09586 1.12432
 H1735 H 1.33441 1.09277 1.14373
 H1736 H 1.29815 1.18409 1.13204
 H1737 H 1.25091 1.16275 1.11070
 H1738 H 1.28711 1.07120 1.12218
 C1739 C 1.31658 0.63565 0.60823
 C1740 C 1.32029 0.63853 0.64013
 C1741 C 1.29653 0.62877 0.65959
 C1742 C 1.26953 0.61654 0.64742
 C1743 C 1.26568 0.61385 0.61549
 C1744 C 1.28953 0.62346 0.59602
 H1745 H 1.33469 0.64287 0.59282
 H1746 H 1.29867 0.63118 0.68422
 H1747 H 1.25137 0.60983 0.66299
 H1748 H 1.28734 0.62135 0.57136
 C1749 C 0.81616 1.13573 0.60780
 C1750 C 0.81996 1.13871 0.63967
 C1751 C 0.79634 1.12880 0.65924
 C1752 C 0.76941 1.11629 0.64720
 C1753 C 0.76548 1.11345 0.61531
 C1754 C 0.78918 1.12325 0.59573
 H1755 H 0.83416 1.14304 0.59231
 H1756 H 0.79856 1.13126 0.68386
 H1757 H 0.75136 1.10945 0.66286
 H1758 H 0.78693 1.12106 0.57107
 C1759 C 0.81669 0.63605 1.10812
 C1760 C 0.82041 0.63905 1.14000
 C1761 C 0.79678 0.62909 1.15952
 C1762 C 0.76990 0.61652 1.14743
 C1763 C 0.76604 0.61368 1.11552
 C1764 C 0.78976 0.62352 1.09599
 H1765 H 0.83471 0.64340 1.09267
 H1766 H 0.79894 0.63156 1.18415
 H1767 H 0.75183 0.60966 1.16305
 H1768 H 0.78756 0.62133 1.07134
 C1769 C 1.29628 0.84037 0.87119
 C1770 C 1.31989 0.86003 0.86144
 C1771 C 1.31598 0.89188 0.86449
 C1772 C 1.28890 0.90385 0.87685
 C1773 C 1.26519 0.88418 0.88645
 C1774 C 1.26924 0.85230 0.88358
 H1775 H 1.29859 0.81575 0.86869
 H1776 H 1.33397 0.90743 0.85730
 H1777 H 1.28657 0.92849 0.87909
 H1778 H 1.25119 0.83658 0.89026
 C1779 C 1.31605 0.39194 0.36454
 C1780 C 1.31998 0.36010 0.36150
 C1781 C 1.29639 0.34042 0.37125
 C1782 C 1.26933 0.35234 0.38362
 C1783 C 1.26525 0.38422 0.38647
 C1784 C 1.28895 0.40390 0.37688
 H1785 H 1.33403 0.40752 0.35735
 H1786 H 1.29871 0.31581 0.36875
 H1787 H 1.25129 0.33661 0.39030
 H1788 H 1.28660 0.42854 0.37911
 C1789 C 0.79630 0.84041 0.37100
 C1790 C 0.81996 0.86008 0.36141
 C1791 C 0.81605 0.89193 0.36449
 C1792 C 0.78890 0.90389 0.37671
 C1793 C 0.76514 0.88421 0.38614
 C1794 C 0.76920 0.85233 0.38324
 H1795 H 0.79862 0.81580 0.36845
 H1796 H 0.83408 0.90749 0.35741
 H1797 H 0.78657 0.92852 0.37898
 H1798 H 0.75111 0.83660 0.38981
 C1799 C 0.79638 0.34034 0.87107
 C1800 C 0.82000 0.36004 0.86143
 C1801 C 0.81603 0.39188 0.86445
 C1802 C 0.78886 0.40382 0.87666
 C1803 C 0.76513 0.38411 0.88613
 C1804 C 0.76925 0.35224 0.88329
 H1805 H 0.79874 0.31573 0.86857
 H1806 H 0.83403 0.40747 0.85734
 H1807 H 0.78649 0.42845 0.87889
 H1808 H 0.75120 0.33649 0.88989
 C1809 C 0.68356 0.89204 1.13615
 C1810 C 0.68006 0.86011 1.13897
 C1811 C 0.70398 0.84083 1.12925
 C1812 C 0.73089 0.85320 1.11703
 C1813 C 0.73449 0.88515 1.11429
 C1814 C 0.71052 0.90445 1.12396
 H1815 H 0.66534 0.90731 1.14337
 H1816 H 0.70202 0.81618 1.13164
 H1817 H 0.74916 0.83776 1.11030
 H1818 H 0.71254 0.92913 1.12185
 C1819 C 0.70409 0.34070 0.62939
 C1820 C 0.68021 0.36001 0.63915
 C1821 C 0.68377 0.39193 0.63639
 C1822 C 0.71076 0.40432 0.62422
 C1823 C 0.73469 0.38498 0.61450
 C1824 C 0.73102 0.35304 0.61718
 H1825 H 0.70208 0.31605 0.63172
 H1826 H 0.66558 0.40723 0.64363
 H1827 H 0.71282 0.42900 0.62215
 H1828 H 0.74926 0.33757 0.61041
 C1829 C 0.18375 0.89213 0.63629
 C1830 C 0.18013 0.86022 0.63914
 C1831 C 0.20398 0.84084 0.62944
 C1832 C 0.23094 0.85310 0.61722
 C1833 C 0.23466 0.88503 0.61444
 C1834 C 0.21076 0.90443 0.62409
 H1835 H 0.16557 0.90747 0.64348
 H1836 H 0.20192 0.81620 0.63184
 H1837 H 0.24916 0.83758 0.61052
 H1838 H 0.21285 0.92910 0.62195
 C1839 C 0.20382 0.34087 1.12939
 C1840 C 0.17996 0.36025 1.13908
 C1841 C 0.18356 0.39215 1.13621
 C1842 C 0.21056 0.40446 1.12400
 C1843 C 0.23448 0.38506 1.11437
 C1844 C 0.23077 0.35313 1.11716
 H1845 H 0.20176 0.31623 1.13180
 H1846 H 0.16538 0.40750 1.14340
 H1847 H 0.21264 0.42913 1.12185
 H1848 H 0.24899 0.33762 1.11047
 C1849 C 0.68392 1.10796 0.86379
 C1850 C 0.67994 1.13982 0.86085
 C1851 C 0.70356 1.15949 0.87050
 C1852 C 0.73070 1.14758 0.88268
 C1853 C 0.73482 1.11570 0.88546
 C1854 C 0.71110 1.09601 0.87594
 H1855 H 0.66592 1.09239 0.85667
 H1856 H 0.70120 1.18411 0.86806
 H1857 H 0.74875 1.16332 0.88930
 H1858 H 0.71349 1.07137 0.87812
 C1859 C 0.70350 0.65939 0.37063
 C1860 C 0.67989 0.63973 0.36091
 C1861 C 0.68387 0.60787 0.36379
 C1862 C 0.71103 0.59589 0.37598
 C1863 C 0.73472 0.61556 0.38558
 C1864 C 0.73061 0.64745 0.38284
 H1865 H 0.70115 0.68401 0.36823
 H1866 H 0.66588 0.59231 0.35661
 H1867 H 0.71342 0.57125 0.37811
 H1868 H 0.74865 0.66317 0.38954
 C1869 C 0.18419 1.13701 0.39183
 C1870 C 0.18044 1.13966 0.35991
 C1871 C 0.20427 1.12999 0.34050
 C1872 C 0.23134 1.11797 0.35272
 C1873 C 0.23519 1.11538 0.38465
 C1874 C 0.21133 1.12503 0.40409
 H1875 H 0.16604 1.14418 0.40721
 H1876 H 0.20211 1.13224 0.31585
 H1877 H 0.24952 1.11124 0.33718
 H1878 H 0.21354 1.12303 0.42876
 C1879 C 0.18399 0.63691 0.89187
 C1880 C 0.18025 0.63960 0.85996
 C1881 C 0.20409 0.62996 0.84055
 C1882 C 0.23115 0.61793 0.85277
 C1883 C 0.23500 0.61531 0.88470
 C1884 C 0.21112 0.62492 0.90414
 H1885 H 0.16583 0.64406 0.90725
 H1886 H 0.20194 0.63224 0.81590
 H1887 H 0.24935 0.61123 0.83722
 H1888 H 0.21331 0.62290 0.92881
 C1889 C 1.12948 1.29611 1.15932
 C1890 C 1.13911 1.31994 1.13988
 C1891 C 1.13632 1.31622 1.10798
 C1892 C 1.12428 1.28911 1.09574
 C1893 C 1.11473 1.26521 1.11520
 C1894 C 1.11741 1.26905 1.14712
 H1895 H 1.13183 1.29826 1.18396
 H1896 H 1.14346 1.33437 1.09258
 H1897 H 1.12220 1.28692 1.07107
 H1898 H 1.11077 1.25086 1.16269
 C1899 C 1.12960 0.79611 0.65938
 C1900 C 1.13928 0.81990 0.63993
 C1901 C 1.13654 0.81614 0.60803
 C1902 C 1.12449 0.78903 0.59581
 C1903 C 1.11489 0.76517 0.61529
 C1904 C 1.11753 0.76905 0.64721
 H1905 H 1.13192 0.79828 0.68403
 H1906 H 1.14370 0.83427 0.59262
 H1907 H 1.12244 0.78681 0.57115
 H1908 H 1.11084 0.75088 0.66279
 C1909 C 0.63674 1.31575 0.60807
 C1910 C 0.63946 1.31956 0.63997
 C1911 C 0.62980 1.29577 0.65945
 C1912 C 0.61775 1.26869 0.64730
 C1913 C 0.61511 1.26477 0.61539
 C1914 C 0.62472 1.28860 0.59588
 H1915 H 0.64389 1.33386 0.59264
 H1916 H 0.63210 1.29798 0.68409
 H1917 H 0.61106 1.25054 0.66290
 H1918 H 0.62267 1.28636 0.57122
 C1919 C 0.62971 0.79585 1.15939
 C1920 C 0.63937 0.81961 1.13987
 C1921 C 0.63669 0.81573 1.10798
 C1922 C 0.62471 0.78855 1.09584
 C1923 C 0.61510 0.76474 1.11538
 C1924 C 0.61769 0.76874 1.14729
 H1925 H 0.63197 0.79811 1.18403
 H1926 H 0.64384 0.83381 1.09252
 H1927 H 0.62270 0.78624 1.07118
 H1928 H 0.61099 0.75061 1.16292
 C1929 C 0.87113 1.29660 0.84062
 C1930 C 0.86134 1.32022 0.86024
 C1931 C 0.86443 1.31640 0.89210
 C1932 C 0.87688 1.28939 0.90412
 C1933 C 0.88653 1.26566 0.88449
 C1934 C 0.88361 1.26962 0.85261
 H1935 H 0.86859 1.29884 0.81601
 H1936 H 0.85720 1.33441 0.90762
 H1937 H 0.87915 1.28712 0.92876
 H1938 H 0.89032 1.25156 0.83692
 C1939 C 0.87123 0.79665 0.34076
 C1940 C 0.86131 0.82027 0.36030
 C1941 C 0.86418 0.81645 0.39218
 C1942 C 0.87652 0.78942 0.40430
 C1943 C 0.88628 0.76569 0.38475
 C1944 C 0.88360 0.76966 0.35284
 H1945 H 0.86885 0.79888 0.31613
 H1946 H 0.85685 0.83445 0.40766
 H1947 H 0.87861 0.78715 0.42896
 H1948 H 0.89042 0.75159 0.33720
 C1949 C 0.36437 1.31649 0.39216
 C1950 C 0.36133 1.32028 0.36029
 C1951 C 0.37117 1.29665 0.34072
 C1952 C 0.38364 1.26969 0.35275
 C1953 C 0.38650 1.26575 0.38464
 C1954 C 0.37681 1.28949 0.40423
 H1955 H 0.35711 1.33451 0.40766
 H1956 H 0.36866 1.29886 0.31610
 H1957 H 0.39040 1.25162 0.33709
 H1958 H 0.37904 1.28724 0.42888
 C1959 C 0.37111 0.79653 0.84093
 C1960 C 0.36123 0.82023 0.86041
 C1961 C 0.36420 0.81655 0.89229
 C1962 C 0.37660 0.78958 0.90448
 C1963 C 0.38633 0.76578 0.88499
 C1964 C 0.38355 0.76961 0.85308
 H1965 H 0.36865 0.79866 0.81630
 H1966 H 0.35691 0.83461 0.90772
 H1967 H 0.37876 0.78740 0.92914
 H1968 H 0.39035 0.75149 0.83749
 C1969 C 1.10784 0.68391 0.86330
 C1970 C 1.13977 0.68033 0.86064
 C1971 C 1.15906 0.70420 0.87049
 C1972 C 1.14669 0.73111 0.88270
 C1973 C 1.11474 0.73479 0.88529
 C1974 C 1.09543 0.71089 0.87546
 H1975 H 1.09256 0.66573 0.85599
 H1976 H 1.18372 0.70218 0.86824
 H1977 H 1.16214 0.74932 0.88955
 H1978 H 1.07075 0.71297 0.87746
 C1979 C 1.10800 0.18389 0.36327
 C1980 C 1.13993 0.18036 0.36059
 C1981 C 1.15920 0.20426 0.37038
 C1982 C 1.14681 0.23117 0.38257
 C1983 C 1.11485 0.23480 0.38518
 C1984 C 1.09556 0.21087 0.37541
 H1985 H 1.09273 0.16569 0.35600
 H1986 H 1.18386 0.20227 0.36811
 H1987 H 1.16224 0.24941 0.38939
 H1988 H 1.07088 0.21292 0.37742
 C1989 C 0.62886 0.70331 0.34040
 C1990 C 0.63859 0.67959 0.35992
 C1991 C 0.63557 0.68330 0.39180
 C1992 C 0.62321 0.71032 0.40393
 C1993 C 0.61360 0.73413 0.38440
 C1994 C 0.61649 0.73028 0.35250
 H1995 H 0.63138 0.70116 0.31578
 H1996 H 0.64277 0.66522 0.40725
 H1997 H 0.62097 0.71250 0.42859
 H1998 H 0.60981 0.74842 0.33688
 C1999 C 0.62885 0.20337 0.84043
 C2000 C 0.63861 0.17964 0.85992
 C2001 C 0.63560 0.18334 0.89180
 C2002 C 0.62324 0.21033 0.90396
 C2003 C 0.61360 0.23416 0.88445
 C2004 C 0.61647 0.23033 0.85254
 H2005 H 0.63135 0.20123 0.81580
 H2006 H 0.64282 0.16525 0.90724
 H2007 H 0.62100 0.21250 0.92862
 H2008 H 0.60977 0.24847 0.83694
 C2009 C 0.84058 0.70399 1.12920
 C2010 C 0.86024 0.68042 1.13904
 C2011 C 0.89211 0.68447 1.13629
 C2012 C 0.90408 0.71165 1.12415
 C2013 C 0.88441 0.73531 1.11445
 C2014 C 0.85252 0.73113 1.11702
 H2015 H 0.81595 0.70159 1.13149
 H2016 H 0.90768 0.66652 1.14354
 H2017 H 0.92873 0.71409 1.12214
 H2018 H 0.83679 0.74913 1.11024
 C2019 C 0.89177 0.18394 0.63582
 C2020 C 0.85990 0.17999 0.63861
 C2021 C 0.84029 0.20363 0.62884
 C2022 C 0.85229 0.23075 0.61670
 C2023 C 0.88419 0.23485 0.61410
 C2024 C 0.90381 0.21111 0.62372
 H2025 H 0.90730 0.16593 0.64303
 H2026 H 0.81566 0.20130 0.63116
 H2027 H 0.83661 0.24881 0.60997
 H2028 H 0.92847 0.21348 0.62169
 C2029 C 0.39205 0.68362 0.63618
 C2030 C 0.36019 0.67976 0.63914
 C2031 C 0.34058 0.70339 0.62936
 C2032 C 0.35257 0.73042 0.61702
 C2033 C 0.38446 0.73442 0.61423
 C2034 C 0.40408 0.71069 0.62388
 H2035 H 0.40757 0.66560 0.64340
 H2036 H 0.31596 0.70112 0.63181
 H2037 H 0.33689 0.74848 0.61029
 H2038 H 0.42873 0.71301 0.62172
 C2039 C 0.36355 0.18408 1.10818
 C2040 C 0.36072 0.18037 1.14008
 C2041 C 0.37020 0.20424 1.15952
 C2042 C 0.38221 0.23132 1.14734
 C2043 C 0.38498 0.23514 1.11542
 C2044 C 0.37554 0.21122 1.09595
 H2045 H 0.35650 0.16589 1.09279
 H2046 H 0.36780 0.20209 1.18416
 H2047 H 0.38876 0.24955 1.16291
 H2048 H 0.37769 0.21339 1.07129
 C2049 C 1.15958 1.12871 0.70348
 C2050 C 1.13996 1.13844 0.67984
 C2051 C 1.10810 1.13540 0.68370
 C2052 C 1.09608 1.12311 0.71079
 C2053 C 1.11571 1.11355 0.73454
 C2054 C 1.14760 1.11638 0.73053
 H2055 H 1.18420 1.13121 0.70122
 H2056 H 1.09256 1.14258 0.66569
 H2057 H 1.07144 1.12090 0.71311
 H2058 H 1.16329 1.10970 0.74861
 C2059 C 1.15930 0.62908 0.20385
 C2060 C 1.13962 0.63887 0.18028
 C2061 C 1.10777 0.63587 0.18423
 C2062 C 1.09582 0.62354 0.21133
 C2063 C 1.11550 0.61390 0.23500
 C2064 C 1.14738 0.61671 0.23091
 H2065 H 1.18391 0.63155 0.20152
 H2066 H 1.09219 0.64309 0.16627
 H2067 H 1.07118 0.62135 0.21371
 H2068 H 1.16312 0.60998 0.24893
 C2069 C 0.60780 1.13568 0.18362
 C2070 C 0.63966 1.13867 0.17969
 C2071 C 0.65932 1.12889 0.20329
 C2072 C 0.64738 1.11655 0.23035
 C2073 C 0.61549 1.11376 0.23442
 C2074 C 0.59583 1.12337 0.21072
 H2075 H 0.59224 1.14289 0.16564
 H2076 H 0.68393 1.13137 0.20098
 H2077 H 0.66309 1.10984 0.24839
 H2078 H 0.57118 1.12118 0.21307
 C2079 C 0.62987 0.65932 0.70452
 C2080 C 0.63948 0.63994 0.68064
 C2081 C 0.63681 0.60803 0.68434
 C2082 C 0.62482 0.59573 0.71145
 C2083 C 0.61521 0.61513 0.73536
 C2084 C 0.61787 0.64707 0.73157
 H2085 H 0.63215 0.68397 0.70239
 H2086 H 0.64395 0.59268 0.66615
 H2087 H 0.62277 0.57105 0.71360
 H2088 H 0.61120 0.66259 0.74979
 C2089 C 0.84052 0.87095 0.70350
 C2090 C 0.86003 0.86117 0.67978
 C2091 C 0.89192 0.86405 0.68354
 C2092 C 0.90408 0.87627 0.71060
 C2093 C 0.88456 0.88592 0.73441
 C2094 C 0.85265 0.88321 0.73051
 H2095 H 0.81589 0.86854 0.70132
 H2096 H 0.90736 0.85683 0.66547
 H2097 H 0.92874 0.87839 0.71283
 H2098 H 0.83704 0.88995 0.74863
 C2099 C 0.84067 0.37104 0.20345
 C2100 C 0.86019 0.36121 0.17976
 C2101 C 0.89208 0.36407 0.18357
 C2102 C 0.90421 0.37632 0.21063
 C2103 C 0.88468 0.38603 0.23440
 C2104 C 0.85277 0.38333 0.23046
 H2105 H 0.81604 0.36866 0.20124
 H2106 H 0.90755 0.35681 0.16553
 H2107 H 0.92887 0.37842 0.21289
 H2108 H 0.83714 0.39011 0.24856
 C2109 C 0.39198 0.86417 0.18349
 C2110 C 0.36010 0.86117 0.17975
 C2111 C 0.34058 0.87092 0.20347
 C2112 C 0.35267 0.88327 0.23044
 C2113 C 0.38457 0.88610 0.23432
 C2114 C 0.40411 0.87648 0.21051
 H2115 H 0.40743 0.85697 0.16541
 H2116 H 0.31595 0.86844 0.20130
 H2117 H 0.33705 0.88998 0.24858
 H2118 H 0.42876 0.87868 0.21273
 C2119 C 0.34055 0.37089 0.70359
 C2120 C 0.36006 0.36111 0.67987
 C2121 C 0.39194 0.36409 0.68359
 C2122 C 0.40409 0.37643 0.71060
 C2123 C 0.38457 0.38610 0.73440
 C2124 C 0.35266 0.38327 0.73055
 H2125 H 0.31592 0.36841 0.70145
 H2126 H 0.40738 0.35687 0.66551
 H2127 H 0.42875 0.37863 0.71279
 H2128 H 0.33706 0.39000 0.74868
 C2129 C 1.15939 0.87056 1.29585
 C2130 C 1.14003 0.86092 1.31974
 C2131 C 1.10812 0.86375 1.31613
 C2132 C 1.09581 0.87592 1.28910
 C2133 C 1.11519 0.88553 1.26517
 C2134 C 1.14713 0.88274 1.26888
 H2135 H 1.18404 0.86817 1.29791
 H2136 H 1.09278 0.85659 1.33432
 H2137 H 1.07114 0.87808 1.28702
 H2138 H 1.16264 0.88940 1.25065
 C2139 C 1.15925 0.37058 0.79585
 C2140 C 1.13993 0.36095 0.81977
 C2141 C 1.10800 0.36367 0.81618
 C2142 C 1.09563 0.37569 0.78912
 C2143 C 1.11497 0.38528 0.76515
 C2144 C 1.14692 0.38261 0.76885
 H2145 H 1.18390 0.36826 0.79789
 H2146 H 1.09270 0.35650 0.83440
 H2147 H 1.07095 0.37775 0.78704
 H2148 H 1.16239 0.38928 0.75058
 C2149 C 0.63597 0.89179 0.81640
 C2150 C 0.63886 0.85991 0.82027
 C2151 C 0.62900 0.84033 0.79665
 C2152 C 0.61665 0.85237 0.76964
 C2153 C 0.61394 0.88427 0.76563
 C2154 C 0.62367 0.90386 0.78934
 H2155 H 0.64325 0.90729 0.83440
 H2156 H 0.63140 0.81571 0.79890
 H2157 H 0.60985 0.83671 0.75158
 H2158 H 0.62156 0.92851 0.78702
 C2159 C 0.63614 0.39193 1.31646
 C2160 C 0.63896 0.36003 1.32023
 C2161 C 0.62908 0.34055 1.29654
 C2162 C 0.61676 0.35270 1.26957
 C2163 C 0.61412 0.38461 1.26567
 C2164 C 0.62388 0.40411 1.28943
 H2165 H 0.64344 0.40736 1.33451
 H2166 H 0.63143 0.31591 1.29871
 H2167 H 0.60992 0.33711 1.25146
 H2168 H 0.62183 0.42878 1.28719
 C2169 C 0.86363 1.10808 1.31596
 C2170 C 0.86084 1.13997 1.31980
 C2171 C 0.87060 1.15950 1.29608
 C2172 C 0.88279 1.14740 1.26903
 C2173 C 0.88543 1.11549 1.26506
 C2174 C 0.87576 1.09595 1.28884
 H2175 H 0.85642 1.09262 1.33402
 H2176 H 0.86827 1.18413 1.29831
 H2177 H 0.88954 1.16302 1.25092
 H2178 H 0.87781 1.07129 1.28655
 C2179 C 0.86386 0.60802 0.81604
 C2180 C 0.86102 0.63991 0.81984
 C2181 C 0.87073 0.65942 0.79609
 C2182 C 0.88290 0.64730 0.76904
 C2183 C 0.88559 0.61539 0.76512
 C2184 C 0.87598 0.59587 0.78893
 H2185 H 0.85668 0.59257 0.83413
 H2186 H 0.86836 0.68405 0.79830
 H2187 H 0.88961 0.66291 0.75091
 H2188 H 0.87807 0.57121 0.78668
 C2189 C 0.37065 1.15939 0.79606
 C2190 C 0.36090 1.13993 0.81983
 C2191 C 0.36370 1.10803 0.81609
 C2192 C 0.37585 1.09582 0.78902
 C2193 C 0.38552 1.11530 0.76519
 C2194 C 0.38285 1.14722 0.76905
 H2195 H 0.36830 1.18403 0.79822
 H2196 H 0.35649 1.09262 0.83420
 H2197 H 0.37792 1.07116 0.78680
 H2198 H 0.38960 1.16279 0.75090
 C2199 C 0.37073 0.65934 1.29614
 C2200 C 0.36098 0.63984 1.31987
 C2201 C 0.36375 0.60795 1.31607
 C2202 C 0.37586 0.59578 1.28896
 C2203 C 0.38553 0.61530 1.26516
 C2204 C 0.38290 0.64721 1.26909
 H2205 H 0.36841 0.68398 1.29834
 H2206 H 0.35654 0.59251 1.33415
 H2207 H 0.37790 0.57112 1.28669
 H2208 H 0.38966 0.66281 1.25097
 C2209 C 1.12990 1.29614 0.84046
 C2210 C 1.13946 1.31997 0.85992
 C2211 C 1.13663 1.31624 0.89181
 C2212 C 1.12455 1.28912 0.90402
 C2213 C 1.11503 1.26525 0.88453
 C2214 C 1.11781 1.26908 0.85262
 H2215 H 1.13229 1.29830 0.81582
 H2216 H 1.14372 1.33439 0.90722
 H2217 H 1.12240 1.28693 0.92868
 H2218 H 1.11119 1.25089 0.83703
 C2219 C 1.12982 0.79614 0.34063
 C2220 C 1.13950 0.81999 0.36001
 C2221 C 1.13688 0.81626 0.39193
 C2222 C 1.12494 0.78913 0.40424
 C2223 C 1.11531 0.76523 0.38483
 C2224 C 1.11785 0.76907 0.35289
 H2225 H 1.13205 0.79829 0.31598
 H2226 H 1.14407 0.83442 0.40729
 H2227 H 1.12297 0.78695 0.42891
 H2228 H 1.11115 0.75087 0.33737
 C2229 C 0.60829 1.31593 0.36412
 C2230 C 0.64016 1.31984 0.36124
 C2231 C 0.65977 1.29618 0.37096
 C2232 C 0.64777 1.26908 0.38316
 C2233 C 0.61587 1.26503 0.38586
 C2234 C 0.59625 1.28878 0.37627
 H2235 H 0.59277 1.33395 0.35694
 H2236 H 0.68439 1.29847 0.36857
 H2237 H 0.66345 1.25101 0.38986
 H2238 H 0.57160 1.28644 0.37838
 C2239 C 0.60827 0.81599 0.86443
 C2240 C 0.64012 0.81986 0.86141
 C2241 C 0.65976 0.79622 0.87110
 C2242 C 0.64779 0.76916 0.88342
 C2243 C 0.61591 0.76514 0.88627
 C2244 C 0.59626 0.78888 0.87672
 H2245 H 0.59272 0.83401 0.85728
 H2246 H 0.68437 0.79850 0.86860
 H2247 H 0.66350 0.75108 0.89007
 H2248 H 0.57162 0.78657 0.87895
 C2249 C 0.87107 1.29638 1.15912
 C2250 C 0.86134 1.32015 1.13965
 C2251 C 0.86432 1.31648 1.10777
 C2252 C 0.87660 1.28948 1.09557
 C2253 C 0.88620 1.26561 1.11504
 C2254 C 0.88338 1.26941 1.14696
 H2255 H 0.86858 1.29850 1.18375
 H2256 H 0.85711 1.33460 1.09236
 H2257 H 0.87880 1.28733 1.07091
 H2258 H 0.89006 1.25124 1.16254
 C2259 C 0.86411 0.81641 0.60781
 C2260 C 0.86115 0.82010 0.63969
 C2261 C 0.87092 0.79636 0.65918
 C2262 C 0.88327 0.76941 0.64703
 C2263 C 0.88608 0.76558 0.61512
 C2264 C 0.87643 0.78941 0.59563
 H2265 H 0.85687 0.83450 0.59239
 H2266 H 0.86846 0.79850 0.68381
 H2267 H 0.89000 0.75126 0.66262
 H2268 H 0.87861 0.78723 0.57097
 C2269 C 0.36406 1.31623 0.60794
 C2270 C 0.36113 1.31998 0.63982
 C2271 C 0.37098 1.29630 0.65933
 C2272 C 0.38338 1.26934 0.64722
 C2273 C 0.38617 1.26545 0.61531
 C2274 C 0.37644 1.28924 0.59580
 H2275 H 0.35677 1.33428 0.59250
 H2276 H 0.36856 1.29847 0.68396
 H2277 H 0.39015 1.25123 0.66284
 H2278 H 0.37860 1.28704 0.57114
 C2279 C 0.36406 0.81619 1.10787
 C2280 C 0.36117 0.82001 1.13975
 C2281 C 0.37104 0.79636 1.15930
 C2282 C 0.38340 0.76937 1.14724
 C2283 C 0.38615 0.76542 1.11533
 C2284 C 0.37641 0.78916 1.09577
 H2285 H 0.35677 0.83421 1.09239
 H2286 H 0.36864 0.79859 1.18393
 H2287 H 0.39019 0.75130 1.16288
 H2288 H 0.37854 0.78690 1.07111
 C2289 C 0.84052 0.70376 0.87065
 C2290 C 0.86008 0.68008 0.86087
 C2291 C 0.89196 0.68396 0.86366
 C2292 C 0.90405 0.71108 0.87582
 C2293 C 0.88448 0.73484 0.88549
 C2294 C 0.85258 0.73083 0.88284
 H2295 H 0.81589 0.70148 0.86832
 H2296 H 0.90745 0.66592 0.85643
 H2297 H 0.92871 0.71338 0.87788
 H2298 H 0.83692 0.74891 0.88958
 C2299 C 0.89183 0.18394 0.36364
 C2300 C 0.85994 0.18011 0.36084
 C2301 C 0.84041 0.20382 0.37058
 C2302 C 0.85250 0.23089 0.38273
 C2303 C 0.88441 0.23485 0.38539
 C2304 C 0.90396 0.21106 0.37577
 H2305 H 0.90729 0.16587 0.35644
 H2306 H 0.81578 0.20158 0.36824
 H2307 H 0.83687 0.24900 0.38944
 H2308 H 0.92862 0.21333 0.37784
 C2309 C 0.39196 0.68391 0.36363
 C2310 C 0.36007 0.68004 0.36086
 C2311 C 0.34053 0.70374 0.37060
 C2312 C 0.35260 0.73082 0.38274
 C2313 C 0.38450 0.73481 0.38537
 C2314 C 0.40407 0.71104 0.37573
 H2315 H 0.40743 0.66585 0.35643
 H2316 H 0.31589 0.70147 0.36828
 H2317 H 0.33696 0.74892 0.38947
 H2318 H 0.42873 0.71335 0.37778
 C2319 C 0.39188 0.18400 0.86356
 C2320 C 0.35999 0.18016 0.86080
 C2321 C 0.34046 0.20387 0.87056
 C2322 C 0.35256 0.23092 0.88274
 C2323 C 0.38447 0.23489 0.88538
 C2324 C 0.40401 0.21111 0.87570
 H2325 H 0.40734 0.16594 0.85634
 H2326 H 0.31583 0.20163 0.86825
 H2327 H 0.33694 0.24903 0.88950
 H2328 H 0.42867 0.21339 0.87775
 C2329 C 1.13514 0.68377 1.10836
 C2330 C 1.13822 0.68000 1.14022
 C2331 C 1.12846 0.70368 1.15979
 C2332 C 1.11605 0.73066 1.14775
 C2333 C 1.11316 0.73458 1.11585
 C2334 C 1.12276 0.71080 1.09628
 H2335 H 1.14235 0.66573 1.09287
 H2336 H 1.13099 0.70148 1.18441
 H2337 H 1.10935 0.74877 1.16340
 H2338 H 1.12051 0.71303 1.07163
 C2339 C 1.13555 0.18341 0.60799
 C2340 C 1.13861 0.17961 0.63985
 C2341 C 1.12878 0.20324 0.65944
 C2342 C 1.11631 0.23020 0.64742
 C2343 C 1.11343 0.23415 0.61553
 C2344 C 1.12311 0.21042 0.59593
 H2345 H 1.14280 0.16540 0.59248
 H2346 H 1.13130 0.20102 0.68406
 H2347 H 1.10956 0.24827 0.66309
 H2348 H 1.12087 0.21267 0.57129
 C2349 C 0.65894 0.70409 0.62989
 C2350 C 0.63971 0.68017 0.63970
 C2351 C 0.60777 0.68369 0.63709
 C2352 C 0.59529 0.71066 0.62497
 C2353 C 0.61456 0.73460 0.61514
 C2354 C 0.64651 0.73100 0.61773
 H2355 H 0.68361 0.70212 0.63212
 H2356 H 0.59253 0.66547 0.64439
 H2357 H 0.57060 0.71269 0.62298
 H2358 H 0.66193 0.74925 0.61089
 C2359 C 0.62856 0.20352 1.15932
 C2360 C 0.63825 0.17985 1.13972
 C2361 C 0.63507 0.18361 1.10787
 C2362 C 0.62264 0.21063 1.09583
 C2363 C 0.61312 0.23442 1.11543
 C2364 C 0.61612 0.23051 1.14732
 H2365 H 0.63118 0.20133 1.18393
 H2366 H 0.64222 0.16556 1.09236
 H2367 H 0.62031 0.21285 1.07119
 H2368 H 0.60949 0.24862 1.16299
 C2369 C 1.29619 1.12916 0.84066
 C2370 C 1.31995 1.13902 0.86007
 C2371 C 1.31627 1.13624 0.89198
 C2372 C 1.28928 1.12398 0.90425
 C2373 C 1.26546 1.11420 0.88482
 C2374 C 1.26926 1.11686 0.85289
 H2375 H 1.29830 1.13149 0.81602
 H2376 H 1.33438 1.14354 0.90735
 H2377 H 1.28711 1.12193 0.92892
 H2378 H 1.25110 1.11003 0.83736
 C2379 C 1.31649 0.63602 0.39208
 C2380 C 1.32010 0.63886 0.36017
 C2381 C 1.29630 0.62904 0.34079
 C2382 C 1.26938 0.61672 0.35305
 C2383 C 1.26565 0.61400 0.38498
 C2384 C 1.28951 0.62374 0.40438
 H2385 H 1.33462 0.64329 0.40743
 H2386 H 1.29836 0.63142 0.31614
 H2387 H 1.25120 0.60993 0.33754
 H2388 H 1.28740 0.62164 0.42905
 C2389 C 0.79615 1.12914 0.34069
 C2390 C 0.81995 1.13894 0.36008
 C2391 C 0.81634 1.13603 0.39199
 C2392 C 0.78938 1.12370 0.40427
 C2393 C 0.76552 1.11398 0.38485
 C2394 C 0.76925 1.11678 0.35293
 H2395 H 0.79821 1.13157 0.31605
 H2396 H 0.83447 1.14328 0.40735
 H2397 H 0.78728 1.12153 0.42893
 H2398 H 0.75106 1.11001 0.33740
 C2399 C 0.81654 0.63594 0.89203
 C2400 C 0.82013 0.63887 0.86013
 C2401 C 0.79633 0.62906 0.84074
 C2402 C 0.76943 0.61669 0.85298
 C2403 C 0.76572 0.61389 0.88491
 C2404 C 0.78959 0.62360 0.90431
 H2405 H 0.83468 0.64320 0.90738
 H2406 H 0.79838 0.63151 0.81610
 H2407 H 0.75125 0.60993 0.83746
 H2408 H 0.78750 0.62143 0.92898
 C2409 C 1.29622 0.84045 1.12919
 C2410 C 1.31998 0.86002 1.13874
 C2411 C 1.31616 0.89189 1.13575
 C2412 C 1.28901 0.90397 1.12365
 C2413 C 1.26515 0.88440 1.11425
 C2414 C 1.26911 0.85250 1.11707
 H2415 H 1.29846 0.81583 1.13167
 H2416 H 1.33426 0.90738 1.14281
 H2417 H 1.28675 0.92862 1.12144
 H2418 H 1.25096 0.83685 1.11053
 C2419 C 1.29616 0.34034 0.62931
 C2420 C 1.31988 0.35993 0.63889
 C2421 C 1.31600 0.39180 0.63596
 C2422 C 1.28883 0.40385 0.62388
 C2423 C 1.26501 0.38425 0.61444
 C2424 C 1.26903 0.35235 0.61721
 H2425 H 1.29844 0.31571 0.63175
 H2426 H 1.33407 0.40731 0.64304
 H2427 H 1.28652 0.42850 0.62171
 H2428 H 1.25091 0.33668 0.61063
 C2429 C 0.79621 0.84017 0.62910
 C2430 C 0.81980 0.85988 0.63879
 C2431 C 0.81582 0.89172 0.63579
 C2432 C 0.78866 0.90364 0.62353
 C2433 C 0.76498 0.88393 0.61398
 C2434 C 0.76910 0.85206 0.61682
 H2435 H 0.79858 0.81556 0.63158
 H2436 H 0.83380 0.90731 0.64293
 H2437 H 0.78627 0.92828 0.62132
 H2438 H 0.75108 0.83630 0.61017
 C2439 C 0.79639 0.34021 1.12911
 C2440 C 0.82000 0.35992 1.13875
 C2441 C 0.81603 0.39176 1.13571
 C2442 C 0.78888 0.40367 1.12345
 C2443 C 0.76517 0.38396 1.11394
 C2444 C 0.76929 0.35209 1.11682
 H2445 H 0.79875 0.31560 1.13161
 H2446 H 0.83402 0.40735 1.14281
 H2447 H 0.78649 0.42831 1.12120
 H2448 H 0.75125 0.33633 1.11020
 C2449 C 0.68350 1.10818 1.13539
 C2450 C 0.67958 1.14002 1.13844
 C2451 C 0.70316 1.15970 1.12868
 C2452 C 0.73023 1.14779 1.11633
 C2453 C 0.73431 1.11591 1.11349
 C2454 C 0.71060 1.09623 1.12306
 H2455 H 0.66553 1.09260 1.14258
 H2456 H 0.70083 1.18431 1.13118
 H2457 H 0.74826 1.16352 1.10965
 H2458 H 0.71296 1.07159 1.12083
 C2459 C 0.70416 0.62989 0.65950
 C2460 C 0.68023 0.63951 0.64019
 C2461 C 0.68387 0.63689 0.60825
 C2462 C 0.71098 0.62497 0.59588
 C2463 C 0.73494 0.61536 0.61523
 C2464 C 0.73120 0.61794 0.64717
 H2465 H 0.70209 0.63213 0.68416
 H2466 H 0.66565 0.64403 0.59295
 H2467 H 0.71311 0.62298 0.57120
 H2468 H 0.74945 0.61124 0.66265
 C2469 C 0.20354 1.15943 0.62892
 C2470 C 0.17993 1.13977 0.63865
 C2471 C 0.18386 1.10792 0.63563
 C2472 C 0.21097 1.09595 0.62334
 C2473 C 0.23469 1.11562 0.61377
 C2474 C 0.23061 1.14751 0.61661
 H2475 H 0.20121 1.18405 0.63142
 H2476 H 0.16587 1.09235 0.64280
 H2477 H 0.21332 1.07131 0.62112
 H2478 H 0.24866 1.16323 0.60994
 C2479 C 0.20311 0.65972 1.12921
 C2480 C 0.17948 0.64010 1.13898
 C2481 C 0.18333 0.60824 1.13595
 C2482 C 0.21040 0.59622 1.12362
 C2483 C 0.23414 0.61584 1.11401
 C2484 C 0.23014 0.64773 1.11685
 H2485 H 0.20085 0.68433 1.13171
 H2486 H 0.16532 0.59272 1.14316
 H2487 H 0.21270 0.57157 1.12140
 H2488 H 0.24821 0.66342 1.11016
 C2489 C 0.70368 0.87092 0.84069
 C2490 C 0.68004 0.86111 0.86026
 C2491 C 0.68385 0.86409 0.89213
 C2492 C 0.71087 0.87647 0.90420
 C2493 C 0.73460 0.88617 0.88461
 C2494 C 0.73066 0.88333 0.85272
 H2495 H 0.70146 0.86844 0.81606
 H2496 H 0.66583 0.85684 0.90763
 H2497 H 0.71314 0.87867 0.92885
 H2498 H 0.74873 0.89010 0.83706
 C2499 C 0.68392 0.36403 0.39207
 C2500 C 0.68013 0.36105 0.36020
 C2501 C 0.70379 0.37086 0.34064
 C2502 C 0.73075 0.38330 0.35268
 C2503 C 0.73467 0.38615 0.38458
 C2504 C 0.71093 0.37644 0.40416
 H2505 H 0.66589 0.35678 0.40756
 H2506 H 0.70158 0.36839 0.31602
 H2507 H 0.74883 0.39007 0.33703
 H2508 H 0.71318 0.37865 0.42881
 C2509 C 0.20421 0.84094 0.37024
 C2510 C 0.18034 0.86031 0.36059
 C2511 C 0.18397 0.89223 0.36339
 C2512 C 0.21101 0.90453 0.37553
 C2513 C 0.23491 0.88512 0.38517
 C2514 C 0.23119 0.85319 0.38241
 H2515 H 0.20214 0.81629 0.36787
 H2516 H 0.16579 0.90757 0.35622
 H2517 H 0.21311 0.92920 0.37766
 H2518 H 0.24941 0.83768 0.38911
 C2519 C 0.18399 0.39222 0.86333
 C2520 C 0.18030 0.36031 0.86059
 C2521 C 0.20413 0.34092 0.87029
 C2522 C 0.23114 0.35315 0.88243
 C2523 C 0.23492 0.38508 0.88512
 C2524 C 0.21105 0.40450 0.87544
 H2525 H 0.16583 0.40759 0.85613
 H2526 H 0.20203 0.31627 0.86798
 H2527 H 0.24933 0.33761 0.88915
 H2528 H 0.21319 0.42917 0.87751
   
