data_POSCAR
  _audit_creation_date              2014-09-24
  _audit_creation_method            'ToBaCCo'
  _symmetry_space_group_name_H-M    'P1'
  _symmetry_Int_Tables_number       1
  _symmetry_cell_setting            triclinic
  loop_
  _symmetry_equiv_pos_as_xyz
 x,y,z
_cell_length_a 56.7004
_cell_length_b 52.1252
_cell_length_c 55.5973
_cell_angle_alpha 89.445200
_cell_angle_beta 89.885300
_cell_angle_gamma 89.858400
loop_
  _atom_site_label
  _atom_site_type_symbol
  _atom_site_fract_x
  _atom_site_fract_y
  _atom_site_fract_z
O1 O 0.30337 0.34388 0.02153
 O2 O 0.33059 0.30213 -0.02278
 O3 O 0.29848 0.33747 -0.02456
 O4 O 0.33313 0.30613 0.02366
 O5 O 0.30462 0.27788 0.02887
 O6 O 0.27012 0.30921 -0.01894
 O7 O 0.30262 0.27323 -0.01756
 O8 O 0.27448 0.31614 0.02706
 Cu9 Cu 0.31920 0.32521 -0.00108
 Cu10 Cu 0.28509 0.29128 0.00540
 C11 C 0.28429 0.33744 0.03181
 C12 C 0.32160 0.28059 -0.02774
 C13 C 0.27822 0.32877 -0.02993
 C14 C 0.32479 0.28648 0.03439
 O15 O 0.68263 0.64905 0.03388
 O16 O 0.66037 0.68493 -0.01859
 O17 O 0.68631 0.64365 -0.01279
 O18 O 0.65709 0.68937 0.02751
 O19 O 0.68902 0.71353 0.02749
 O20 O 0.71836 0.66744 -0.01291
 O21 O 0.69222 0.70916 -0.01856
 O22 O 0.71504 0.67249 0.03338
 Cu23 Cu 0.66849 0.66421 0.00734
 Cu24 Cu 0.70696 0.69296 0.00721
 C25 C 0.70256 0.65478 0.04266
 C26 C 0.67204 0.70377 -0.02698
 C27 C 0.70746 0.64742 -0.01955
 C28 C 0.66794 0.70932 0.03427
 O29 O 0.63573 0.33556 1.01923
 O30 O 0.67537 0.35226 0.96932
 O31 O 0.64078 0.32099 0.97418
 O32 O 0.67282 0.36581 1.01307
 O33 O 0.69354 0.33360 1.02806
 O34 O 0.66600 0.29044 0.98418
 O35 O 0.70118 0.32373 0.98269
 O36 O 0.65819 0.30248 1.02896
 Cu37 Cu 0.65346 0.34664 0.99311
 Cu38 Cu 0.68215 0.30933 1.00695
 C39 C 0.63982 0.31600 1.03238
 C40 C 0.69546 0.34162 0.96804
 C41 C 0.64839 0.29817 0.97199
 C42 C 0.68861 0.35738 1.02735
 O43 O 0.33943 0.62032 0.97269
 O44 O 0.36965 0.65284 1.02209
 O45 O 0.33551 0.61969 1.01947
 O46 O 0.37337 0.65278 0.97559
 O47 O 0.34787 0.68478 0.97343
 O48 O 0.30926 0.65079 1.01666
 O49 O 0.34387 0.68455 1.01990
 O50 O 0.31368 0.65205 0.97017
 Cu51 Cu 0.35700 0.63319 0.99783
 Cu52 Cu 0.32602 0.67124 0.99502
 C53 C 0.32161 0.63073 0.96276
 C54 C 0.36223 0.67451 1.02912
 C55 C 0.31569 0.62921 1.02531
 C56 C 0.36713 0.67438 0.96695
 O57 O 0.02643 0.29421 0.33149
 O58 O -0.02046 0.32318 0.29484
 O59 O -0.01965 0.28975 0.32895
 O60 O 0.02494 0.32621 0.29463
 O61 O 0.02830 0.29395 0.26945
 O62 O -0.01655 0.25795 0.30328
 O63 O -0.01703 0.29204 0.26833
 O64 O 0.02875 0.26172 0.30640
 Cu65 Cu 0.00276 0.31142 0.31521
 Cu66 Cu 0.00630 0.27318 0.28434
 C67 C 0.03517 0.27274 0.32560
 C68 C -0.02650 0.31285 0.27525
 C69 C -0.02594 0.26766 0.32185
 C70 C 0.03362 0.31657 0.27564
 O71 O 0.01838 0.68430 0.64877
 O72 O -0.02305 0.64061 0.67928
 O73 O -0.02622 0.67309 0.64379
 O74 O 0.02120 0.65170 0.68408
 O75 O 0.01195 0.68206 0.70985
 O76 O -0.03521 0.70422 0.66873
 O77 O -0.03226 0.67114 0.70491
 O78 O 0.00927 0.71501 0.67421
 Cu79 Cu -0.00153 0.65943 0.66138
 Cu80 Cu -0.01260 0.69623 0.69192
 C81 C 0.02104 0.70704 0.65629
 C82 C -0.03443 0.64825 0.69757
 C83 C -0.03877 0.69244 0.64913
 C84 C 0.02458 0.66294 0.70393
 O85 O 1.02825 0.64127 0.33263
 O86 O 0.98049 0.66526 0.37084
 O87 O 0.98611 0.62869 0.33699
 O88 O 1.02649 0.67599 0.36265
 O89 O 1.01477 0.70484 0.33597
 O90 O 0.97321 0.65776 0.31096
 O91 O 0.97057 0.69401 0.34335
 O92 O 1.01762 0.66851 0.30394
 Cu93 Cu 1.00537 0.65051 0.35427
 Cu94 Cu 0.99286 0.68413 0.32079
 C95 C 1.03107 0.65066 0.31169
 C96 C 0.96759 0.68385 0.36397
 C97 C 0.97330 0.63491 0.31913
 C98 C 1.02818 0.69828 0.35328
 O99 O 0.97356 0.31836 0.64417
 O100 O 1.02413 0.35761 0.66321
 O101 O 1.01507 0.31990 0.63113
 O102 O 0.97744 0.35572 0.67201
 O103 O 0.98566 0.32858 0.70153
 O104 O 1.02838 0.29593 0.66107
 O105 O 1.03064 0.33108 0.69359
 O106 O 0.98345 0.28943 0.67161
 Cu107 Cu 0.99768 0.34135 0.65022
 Cu108 Cu 1.00773 0.30837 0.68486
 C109 C 0.97047 0.29659 0.65418
 C110 C 1.03570 0.35136 0.68198
 C111 C 1.02807 0.30174 0.63874
 C112 C 0.97444 0.34808 0.69352
 O113 O 0.30457 -0.02197 0.33927
 O114 O 0.33683 0.02891 0.30584
 O115 O 0.30266 0.02788 0.33659
 O116 O 0.34137 -0.02075 0.31067
 O117 O 0.31774 -0.02422 0.27938
 O118 O 0.27731 0.02323 0.30682
 O119 O 0.31195 0.02487 0.27563
 O120 O 0.28073 -0.02628 0.30827
 Cu121 Cu 0.32382 0.00378 0.32611
 Cu122 Cu 0.29450 -0.00114 0.28948
 C123 C 0.28677 -0.03245 0.32951
 C124 C 0.32975 0.03556 0.28497
 C125 C 0.28338 0.03374 0.32641
 C126 C 0.33665 -0.03031 0.29037
 O127 O 0.65300 0.03363 0.69095
 O128 O 0.68849 -0.01104 0.65384
 O129 O 0.65371 -0.01567 0.68379
 O130 O 0.68409 0.03877 0.65672
 O131 O 0.71226 0.03615 0.68403
 O132 O 0.67977 -0.01757 0.71321
 O133 O 0.71488 -0.01321 0.68294
 O134 O 0.68067 0.03197 0.71875
 Cu135 Cu 0.66718 0.01170 0.66852
 Cu136 Cu 0.69951 0.00924 0.70263
 C137 C 0.66090 0.04024 0.71141
 C138 C 0.70786 -0.01970 0.66227
 C139 C 0.66120 -0.02589 0.70307
 C140 C 0.70350 0.04642 0.66519
 O141 O 0.37413 0.97614 0.66111
 O142 O 0.33102 1.01833 0.63050
 O143 O 0.36591 1.02515 0.65975
 O144 O 0.34006 0.96927 0.63048
 O145 O 0.31509 0.96429 0.66068
 O146 O 0.34136 1.02050 0.69033
 O147 O 0.30607 1.01274 0.66069
 O148 O 0.34945 0.97152 0.69157
 Cu149 Cu 0.35524 0.99766 0.64241
 Cu150 Cu 0.32555 0.99175 0.67892
 C151 C 0.36926 0.96693 0.68178
 C152 C 0.31110 1.02241 0.64029
 C153 C 0.35830 1.03229 0.68008
 C154 C 0.32296 0.95747 0.64029
 O155 O 0.62256 0.98480 0.33168
 O156 O 0.65719 1.03012 0.36657
 O157 O 0.62963 1.03408 0.32940
 O158 O 0.65265 0.98047 0.36647
 O159 O 0.68214 0.97603 0.34088
 O160 O 0.65957 1.02949 0.30438
 O161 O 0.68748 1.02541 0.34213
 O162 O 0.65177 0.98035 0.30576
 Cu163 Cu 0.63757 1.00788 0.35102
 Cu164 Cu 0.67321 1.00246 0.32074
 C165 C 0.63099 0.97482 0.31282
 C166 C 0.67832 1.03534 0.36083
 C167 C 0.64061 1.04070 0.31036
 C168 C 0.67147 0.96913 0.35993
 C169 C 0.88096 0.79037 0.49283
 C170 C 0.87958 0.79109 0.51747
 C171 C 0.85644 0.79734 0.52313
 N172 N 0.84370 0.80052 0.50279
 C173 C 0.85866 0.79630 0.48425
 C174 C 0.84702 0.79853 0.54670
 C175 C 0.82481 0.80980 0.55162
 C176 C 0.81227 0.80695 0.57293
 C177 C 0.79289 0.82287 0.57127
 C178 C 0.79411 0.83489 0.54896
 N179 N 0.81357 0.82679 0.53711
 C180 C 0.77862 0.85433 0.54075
 C181 C 0.77784 0.86243 0.51650
 C182 C 0.76731 0.88486 0.50829
 C183 C 0.76917 0.88473 0.48372
 C184 C 0.78056 0.86208 0.47776
 N185 N 0.78590 0.84850 0.49784
 C186 C 0.78455 0.85335 0.45413
 C187 C 0.80024 0.83298 0.44919
 C188 C 0.80133 0.81969 0.42774
 C189 C 0.82048 0.80349 0.42937
 C190 C 0.83053 0.80739 0.45177
 N191 N 0.81799 0.82525 0.46377
 C192 C 0.85202 0.79650 0.45976
 H193 H 0.89662 0.78609 0.48245
 H194 H 0.89400 0.78748 0.52976
 H195 H 0.82312 0.83415 0.47959
 H196 H 0.81677 0.79495 0.58824
 H197 H 0.77962 0.82559 0.58504
 H198 H 0.75922 0.89981 0.51890
 H199 H 0.76284 0.89964 0.47168
 H200 H 0.82659 0.79068 0.41547
 H201 H 0.82033 0.83478 0.52133
 H202 H 0.78980 0.82181 0.41235
 C203 C 0.24932 0.14289 0.47753
 C204 C 0.24992 0.14079 0.50207
 C205 C 0.23031 0.15377 0.51065
 N206 N 0.21772 0.16361 0.49209
 C207 C 0.22950 0.15734 0.47179
 C208 C 0.22350 0.15454 0.53512
 C209 C 0.20272 0.16679 0.54324
 C210 C 0.19172 0.16181 0.56506
 C211 C 0.17274 0.17818 0.56646
 C212 C 0.17304 0.19336 0.54581
 N213 N 0.19131 0.18612 0.53167
 C214 C 0.15773 0.21446 0.54127
 C215 C 0.15569 0.22610 0.51817
 C216 C 0.14411 0.24903 0.51328
 C217 C 0.14362 0.25188 0.48876
 C218 C 0.15563 0.23106 0.47934
 N219 N 0.16284 0.21527 0.49736
 C220 C 0.15823 0.22594 0.45449
 C221 C 0.17404 0.20729 0.44527
 C222 C 0.17576 0.20064 0.42121
 C223 C 0.19370 0.18306 0.41942
 C224 C 0.20262 0.17934 0.44240
 N225 N 0.19081 0.19456 0.45795
 C226 C 0.22201 0.16317 0.44805
 H227 H 0.26193 0.13429 0.46540
 H228 H 0.26297 0.13019 0.51231
 H229 H 0.19534 0.19790 0.47567
 H230 H 0.19667 0.14778 0.57859
 H231 H 0.16033 0.17893 0.58124
 H232 H 0.13648 0.26228 0.52600
 H233 H 0.13530 0.26757 0.47914
 H234 H 0.19970 0.17445 0.40287
 H235 H 0.19740 0.19585 0.51649
 H236 H 0.16562 0.20804 0.40621
 C237 C 0.11788 0.77241 0.50837
 C238 C 0.12007 0.77224 0.48384
 C239 C 0.14132 0.78411 0.47841
 N240 N 0.15216 0.79153 0.49879
 C241 C 0.13786 0.78436 0.51711
 C242 C 0.15154 0.78519 0.45524
 C243 C 0.17148 0.80029 0.44952
 C244 C 0.18470 0.79830 0.42863
 C245 C 0.20203 0.81676 0.42979
 C246 C 0.19882 0.82956 0.45133
 N247 N 0.18002 0.81953 0.46310
 C248 C 0.21237 0.85066 0.45918
 C249 C 0.21149 0.85968 0.48310
 C250 C 0.22070 0.88286 0.49066
 C251 C 0.21823 0.88332 0.51518
 C252 C 0.20756 0.86042 0.52184
 N253 N 0.20341 0.84600 0.50220
 C254 C 0.20363 0.85230 0.54586
 C255 C 0.18921 0.83116 0.55197
 C256 C 0.18866 0.81907 0.57431
 C257 C 0.17158 0.80039 0.57315
 C258 C 0.16224 0.80161 0.55015
 N259 N 0.17294 0.82055 0.53744
 C260 C 0.14369 0.78614 0.54169
 H261 H 0.10347 0.76419 0.51863
 H262 H 0.10768 0.76380 0.47144
 H263 H 0.16784 0.82759 0.52067
 H264 H 0.18215 0.78494 0.41409
 H265 H 0.21545 0.82032 0.41631
 H266 H 0.22855 0.89782 0.47967
 H267 H 0.22383 0.89867 0.52680
 H268 H 0.16662 0.78741 0.58760
 H269 H 0.17210 0.82699 0.47841
 H270 H 0.19941 0.82326 0.58983
 C271 C 0.88743 0.22131 0.47997
 C272 C 0.88743 0.22269 0.50456
 C273 C 0.86741 0.20991 0.51242
 N274 N 0.85510 0.20094 0.49353
 C275 C 0.86728 0.20795 0.47365
 C276 C 0.85992 0.20830 0.53658
 C277 C 0.84288 0.19046 0.54462
 C278 C 0.83257 0.19034 0.56724
 C279 C 0.81860 0.16885 0.56855
 C280 C 0.82050 0.15665 0.54654
 N281 N 0.83548 0.16984 0.53216
 C282 C 0.80983 0.13305 0.54082
 C283 C 0.80720 0.12417 0.51703
 C284 C 0.79788 0.10058 0.51088
 C285 C 0.79657 0.10030 0.48622
 C286 C 0.80508 0.12377 0.47811
 N287 N 0.81145 0.13835 0.49699
 C288 C 0.80538 0.13202 0.45378
 C289 C 0.81701 0.15460 0.44587
 C290 C 0.81390 0.16619 0.42352
 C291 C 0.82920 0.18663 0.42237
 C292 C 0.84116 0.18702 0.44407
 N293 N 0.83371 0.16739 0.45824
 C294 C 0.85935 0.20435 0.44986
 H295 H 0.90067 0.22944 0.46812
 H296 H 0.90063 0.23204 0.51542
 H297 H 0.84146 0.16145 0.47430
 H298 H 0.83514 0.20405 0.58149
 H299 H 0.80836 0.16286 0.58404
 H300 H 0.79225 0.08532 0.52290
 H301 H 0.78991 0.08470 0.47550
 H302 H 0.83130 0.19968 0.40726
 H303 H 0.84234 0.16346 0.51593
 H304 H 0.80192 0.16049 0.40943
 C305 C 0.50219 0.90239 0.79903
 C306 C 0.52634 0.90115 0.80054
 C307 C 0.53178 0.87738 0.81048
 N308 N 0.51182 0.86407 0.81506
 C309 C 0.49370 0.87937 0.80819
 C310 C 0.55485 0.86760 0.81363
 C311 C 0.55968 0.84408 0.82534
 C312 C 0.58042 0.83020 0.82296
 C313 C 0.57857 0.80926 0.83810
 C314 C 0.55691 0.81122 0.84960
 N315 N 0.54550 0.83249 0.84164
 C316 C 0.54883 0.79471 0.86816
 C317 C 0.52533 0.79524 0.87654
 C318 C 0.51756 0.78439 0.89797
 C319 C 0.49354 0.78738 0.89840
 C320 C 0.48744 0.79976 0.87711
 N321 N 0.50691 0.80462 0.86382
 C322 C 0.46414 0.80434 0.86919
 C323 C 0.45897 0.82025 0.84919
 C324 C 0.43771 0.82061 0.83693
 C325 C 0.43938 0.83970 0.81976
 C326 C 0.46157 0.85056 0.82210
 N327 N 0.47340 0.83855 0.84007
 C328 C 0.46969 0.87223 0.80901
 H329 H 0.49206 0.91840 0.79200
 H330 H 0.53850 0.91596 0.79474
 H331 H 0.48924 0.84443 0.84760
 H332 H 0.59532 0.83469 0.81147
 H333 H 0.59183 0.79451 0.84057
 H334 H 0.52811 0.77523 0.91182
 H335 H 0.48188 0.78089 0.91264
 H336 H 0.42569 0.84514 0.80715
 H337 H 0.53020 0.84033 0.84887
 H338 H 0.42255 0.80846 0.84010
 C339 C 0.50645 0.23169 0.12582
 C340 C 0.48234 0.23383 0.12560
 C341 C 0.47467 0.22815 0.14872
 N342 N 0.49328 0.22289 0.16312
 C343 C 0.51276 0.22509 0.14916
 C344 C 0.45095 0.22942 0.15648
 C345 C 0.44283 0.21754 0.17794
 C346 C 0.42061 0.22094 0.18798
 C347 C 0.41910 0.20443 0.20744
 C348 C 0.44052 0.19168 0.20890
 N349 N 0.45479 0.19963 0.19080
 C350 C 0.44608 0.17225 0.22584
 C351 C 0.46945 0.16420 0.23044
 C352 C 0.47563 0.14288 0.24415
 C353 C 0.49972 0.14292 0.24576
 C354 C 0.50748 0.16422 0.23291
 N355 N 0.48895 0.17726 0.22360
 C356 C 0.53124 0.17212 0.23117
 C357 C 0.53923 0.19000 0.21374
 C358 C 0.56140 0.20118 0.21342
 C359 C 0.56288 0.21541 0.19246
 C360 C 0.54153 0.21260 0.18067
 N361 N 0.52725 0.19709 0.19374
 C362 C 0.53618 0.22278 0.15765
 H363 H 0.51796 0.23476 0.11052
 H364 H 0.47166 0.23884 0.11013
 H365 H 0.51145 0.18927 0.18788
 H366 H 0.40679 0.23370 0.18176
 H367 H 0.40397 0.20205 0.21916
 H368 H 0.46400 0.12878 0.25223
 H369 H 0.51032 0.12882 0.25526
 H370 H 0.57801 0.22639 0.18650
 H371 H 0.47071 0.19122 0.18594
 H372 H 0.57521 0.19895 0.22668
 C373 C 0.50404 0.22734 0.88480
 C374 C 0.47996 0.22586 0.88640
 C375 C 0.47239 0.21314 0.86606
 N376 N 0.49101 0.20681 0.85209
 C377 C 0.51039 0.21548 0.86352
 C378 C 0.44852 0.20960 0.85967
 C379 C 0.44132 0.19310 0.84109
 C380 C 0.41884 0.19248 0.83130
 C381 C 0.41875 0.17309 0.81471
 C382 C 0.44122 0.16257 0.81471
 N383 N 0.45482 0.17470 0.83095
 C384 C 0.44840 0.14160 0.80060
 C385 C 0.47231 0.13562 0.79618
 C386 C 0.48016 0.11376 0.78462
 C387 C 0.50405 0.11640 0.78182
 C388 C 0.51003 0.13976 0.79183
 N389 N 0.49059 0.15150 0.80058
 C390 C 0.53282 0.15067 0.79110
 C391 C 0.53953 0.17177 0.80536
 C392 C 0.56033 0.18548 0.80269
 C393 C 0.56063 0.20353 0.82064
 C394 C 0.53993 0.20045 0.83365
 N395 N 0.52733 0.18088 0.82441
 C396 C 0.53350 0.21500 0.85397
 H397 H 0.51553 0.23651 0.89763
 H398 H 0.46921 0.23357 0.90074
 H399 H 0.51242 0.17263 0.83211
 H400 H 0.40399 0.20467 0.83567
 H401 H 0.40387 0.16746 0.80381
 H402 H 0.46973 0.09772 0.77856
 H403 H 0.51568 0.10275 0.77323
 H404 H 0.57445 0.21740 0.82369
 H405 H 0.47154 0.16898 0.83651
 H406 H 0.57393 0.18273 0.78927
 C407 C 0.50886 0.90987 0.19276
 C408 C 0.48472 0.91094 0.19107
 C409 C 0.47765 0.88808 0.18087
 N410 N 0.49660 0.87301 0.17645
 C411 C 0.51573 0.88631 0.18366
 C412 C 0.45396 0.88082 0.17710
 C413 C 0.44745 0.85892 0.16394
 C414 C 0.42512 0.84809 0.16410
 C415 C 0.42553 0.82840 0.14785
 C416 C 0.44809 0.82775 0.13822
 N417 N 0.46134 0.84644 0.14808
 C418 C 0.45553 0.81109 0.11982
 C419 C 0.47953 0.80669 0.11445
 C420 C 0.48774 0.79308 0.09483
 C421 C 0.51173 0.79119 0.09743
 C422 C 0.51736 0.80379 0.11850
 N423 N 0.49766 0.81324 0.12888
 C424 C 0.54007 0.80447 0.12885
 C425 C 0.54617 0.82138 0.14758
 C426 C 0.56674 0.81989 0.16096
 C427 C 0.56652 0.84041 0.17636
 C428 C 0.54576 0.85379 0.17205
 N429 N 0.53353 0.84217 0.15437
 C430 C 0.53911 0.87673 0.18368
 H431 H 0.52004 0.92467 0.20007
 H432 H 0.47364 0.92669 0.19679
 H433 H 0.51867 0.84951 0.14579
 H434 H 0.41003 0.85388 0.17471
 H435 H 0.41084 0.81605 0.14354
 H436 H 0.47751 0.78509 0.08032
 H437 H 0.52365 0.78145 0.08531
 H438 H 0.58009 0.84490 0.18931
 H439 H 0.47795 0.85223 0.14228
 H440 H 0.58054 0.80558 0.15973
 C441 C 0.91735 0.47903 0.81553
 C442 C 0.91581 0.50530 0.81478
 C443 C 0.89475 0.51176 0.82592
 N444 N 0.88343 0.49035 0.83350
 C445 C 0.89725 0.47032 0.82722
 C446 C 0.88553 0.53692 0.82756
 C447 C 0.86570 0.54300 0.84190
 C448 C 0.85290 0.56565 0.84016
 C449 C 0.83646 0.56510 0.85836
 C450 C 0.83960 0.54209 0.87069
 N451 N 0.85743 0.52870 0.86051
 C452 C 0.82713 0.53482 0.89173
 C453 C 0.82607 0.50912 0.90005
 C454 C 0.81578 0.50111 0.92147
 C455 C 0.81682 0.47480 0.92177
 C456 C 0.82804 0.46760 0.90071
 N457 N 0.83354 0.48859 0.88740
 C458 C 0.83136 0.44200 0.89327
 C459 C 0.84567 0.43497 0.87354
 C460 C 0.84607 0.41082 0.86328
 C461 C 0.86300 0.41142 0.84552
 C462 C 0.87252 0.43591 0.84544
 N463 N 0.86200 0.45006 0.86271
 C464 C 0.89117 0.44422 0.83036
 H465 H 0.93159 0.46764 0.80820
 H466 H 0.92867 0.51813 0.80680
 H467 H 0.86729 0.46807 0.86840
 H468 H 0.85531 0.58112 0.82727
 H469 H 0.82373 0.58003 0.86217
 H470 H 0.80806 0.51292 0.93533
 H471 H 0.80999 0.46237 0.93584
 H472 H 0.86780 0.39560 0.83402
 H473 H 0.86539 0.51234 0.86767
 H474 H 0.83538 0.39440 0.86818
 C475 C 0.08985 0.49976 0.19969
 C476 C 0.08917 0.52580 0.19595
 C477 C 0.10931 0.53209 0.18303
 N478 N 0.12228 0.51084 0.17880
 C479 C 0.11043 0.49105 0.18900
 C480 C 0.11666 0.55734 0.17758
 C481 C 0.13576 0.56291 0.16214
 C482 C 0.14762 0.58611 0.16114
 C483 C 0.16464 0.58380 0.14360
 C484 C 0.16245 0.55937 0.13414
 N485 N 0.14472 0.54683 0.14551
 C486 C 0.17587 0.54964 0.11474
 C487 C 0.17585 0.52341 0.10854
 C488 C 0.18447 0.51360 0.08716
 C489 C 0.18321 0.48738 0.08919
 C490 C 0.17403 0.48208 0.11181
 N491 N 0.16950 0.50412 0.12358
 C492 C 0.17194 0.45735 0.12215
 C493 C 0.16093 0.45295 0.14455
 C494 C 0.16437 0.43140 0.15891
 C495 C 0.14969 0.43396 0.17846
 C496 C 0.13743 0.45682 0.17526
 N497 N 0.14450 0.46833 0.15457
 C498 C 0.11895 0.46559 0.19023
 H499 H 0.07679 0.48858 0.20935
 H500 H 0.07560 0.53870 0.20236
 H501 H 0.13664 0.48415 0.14627
 H502 H 0.14447 0.60285 0.17206
 H503 H 0.17714 0.59851 0.13841
 H504 H 0.19116 0.52425 0.07180
 H505 H 0.18885 0.47379 0.07574
 H506 H 0.14807 0.42035 0.19319
 H507 H 0.13758 0.52924 0.14071
 H508 H 0.17625 0.41551 0.15565
 C509 C 0.76065 0.48259 0.14613
 C510 C 0.76345 0.50871 0.14555
 C511 C 0.78528 0.51370 0.15565
 N512 N 0.79614 0.49147 0.16168
 C513 C 0.78127 0.47238 0.15559
 C514 C 0.79619 0.53796 0.15675
 C515 C 0.81533 0.54299 0.17227
 C516 C 0.82876 0.56522 0.17196
 C517 C 0.84416 0.56341 0.19097
 C518 C 0.83962 0.54025 0.20252
 N519 N 0.82198 0.52796 0.19105
 C520 C 0.85071 0.53162 0.22390
 C521 C 0.85071 0.50544 0.23087
 C522 C 0.85918 0.49579 0.25251
 C523 C 0.85850 0.46955 0.25089
 C524 C 0.84901 0.46398 0.22857
 N525 N 0.84443 0.48595 0.21633
 C526 C 0.84682 0.43914 0.21880
 C527 C 0.83385 0.43418 0.19764
 C528 C 0.83493 0.41170 0.18451
 C529 C 0.81835 0.41379 0.16658
 C530 C 0.80715 0.43722 0.16954
 N531 N 0.81683 0.44959 0.18841
 C532 C 0.78745 0.44605 0.15613
 H533 H 0.74536 0.47236 0.13971
 H534 H 0.75076 0.52224 0.13838
 H535 H 0.81028 0.46618 0.19632
 H536 H 0.82737 0.58136 0.15967
 H537 H 0.85711 0.57767 0.19582
 H538 H 0.86562 0.50644 0.26774
 H539 H 0.86461 0.45628 0.26459
 H540 H 0.81481 0.39947 0.15312
 H541 H 0.81326 0.51164 0.19728
 H542 H 0.84621 0.39524 0.18757
 C543 C 0.21404 0.51728 0.88027
 C544 C 0.21588 0.49107 0.88044
 C545 C 0.20777 0.48290 0.85832
 N546 N 0.20111 0.50318 0.84460
 C547 C 0.20502 0.52424 0.85796
 C548 C 0.20854 0.45732 0.85029
 C549 C 0.19528 0.44887 0.83042
 C550 C 0.19793 0.42538 0.81923
 C551 C 0.18055 0.42403 0.80199
 C552 C 0.16790 0.44679 0.80310
 N553 N 0.17693 0.46175 0.82049
 C554 C 0.14756 0.45268 0.78945
 C555 C 0.13907 0.47808 0.78665
 C556 C 0.11753 0.48487 0.77661
 C557 C 0.11720 0.51112 0.77498
 C558 C 0.13835 0.51953 0.78448
 N559 N 0.15173 0.49935 0.79155
 C560 C 0.14575 0.54535 0.78471
 C561 C 0.16422 0.55410 0.79947
 C562 C 0.17472 0.57805 0.79777
 C563 C 0.19089 0.57935 0.81620
 C564 C 0.18978 0.55614 0.82854
 N565 N 0.17336 0.54099 0.81836
 C566 C 0.20289 0.54972 0.84930
 H567 H 0.21912 0.52981 0.89476
 H568 H 0.22261 0.47937 0.89510
 H569 H 0.16709 0.52373 0.82537
 H570 H 0.21083 0.41062 0.82325
 H571 H 0.17750 0.40807 0.79010
 H572 H 0.10354 0.47228 0.77084
 H573 H 0.10303 0.52273 0.76766
 H574 H 0.20214 0.59553 0.82008
 H575 H 0.16927 0.47845 0.82704
 H576 H 0.17102 0.59307 0.78473
 C577 C 0.24923 0.35467 0.05412
 C578 C 0.23877 0.37382 0.06826
 C579 C 0.25292 0.39360 0.07781
 C580 C 0.27723 0.39368 0.07346
 C581 C 0.28738 0.37490 0.05906
 C582 C 0.27350 0.35547 0.04898
 C583 C 0.24252 0.41336 0.09105
 C584 C 0.21808 0.41392 0.09456
 C585 C 0.20387 0.39403 0.08534
 C586 C 0.21434 0.37399 0.07239
 C587 C 0.17938 0.39478 0.08892
 C588 C 0.16904 0.41529 0.10109
 C589 C 0.18303 0.43530 0.10981
 C590 C 0.20756 0.43436 0.10681
 H591 H 0.23836 0.33984 0.04631
 H592 H 0.28832 0.40862 0.08072
 H593 H 0.30615 0.37582 0.05551
 H594 H 0.25339 0.42862 0.09815
 H595 H 0.20344 0.35888 0.06510
 H596 H 0.16822 0.37968 0.08207
 H597 H 0.15008 0.41575 0.10347
 H598 H 0.21834 0.44974 0.11379
 C599 C 0.73513 0.63301 0.06481
 C600 C 0.74333 0.61798 0.08412
 C601 C 0.72779 0.61135 0.10313
 C602 C 0.70420 0.61944 0.10221
 C603 C 0.69597 0.63353 0.08243
 C604 C 0.71138 0.64047 0.06370
 C605 C 0.73591 0.59616 0.12238
 C606 C 0.75899 0.58641 0.12223
 C607 C 0.77429 0.59247 0.10285
 C608 C 0.76656 0.60874 0.08426
 C609 C 0.79684 0.58147 0.10198
 C610 C 0.80389 0.56397 0.11971
 C611 C 0.78890 0.55795 0.13906
 C612 C 0.76671 0.56981 0.14062
 H613 H 0.74696 0.63806 0.05016
 H614 H 0.69201 0.61441 0.11652
 H615 H 0.67759 0.63921 0.08181
 H616 H 0.72403 0.59115 0.13699
 H617 H 0.77834 0.61346 0.06948
 H618 H 0.80872 0.58575 0.08720
 H619 H 0.82102 0.55486 0.11825
 H620 H 0.75515 0.56518 0.15560
 C621 C 0.73656 0.35286 0.95522
 C622 C 0.75178 0.36696 0.94008
 C623 C 0.74272 0.37890 0.91906
 C624 C 0.71889 0.37594 0.91313
 C625 C 0.70382 0.36256 0.92859
 C626 C 0.71236 0.35140 0.94996
 C627 C 0.75729 0.39456 0.90483
 C628 C 0.78068 0.39904 0.91163
 C629 C 0.79002 0.38666 0.93230
 C630 C 0.77557 0.37045 0.94625
 C631 C 0.81345 0.39140 0.93905
 C632 C 0.82720 0.40889 0.92594
 C633 C 0.81772 0.42173 0.90590
 C634 C 0.79463 0.41645 0.89856
 H635 H 0.74321 0.34456 0.97184
 H636 H 0.71170 0.38486 0.89705
 H637 H 0.68524 0.36159 0.92419
 H638 H 0.75017 0.40404 0.88896
 H639 H 0.78258 0.36134 0.96234
 H640 H 0.82094 0.38206 0.95477
 H641 H 0.84503 0.41289 0.93173
 H642 H 0.78740 0.42648 0.88305
 C643 C 0.28712 0.62476 0.93528
 C644 C 0.27579 0.61154 0.91671
 C645 C 0.28785 0.59158 0.90473
 C646 C 0.31097 0.58527 0.91139
 C647 C 0.32190 0.59812 0.93019
 C648 C 0.31007 0.61781 0.94241
 C649 C 0.27639 0.57766 0.88683
 C650 C 0.25270 0.58270 0.88143
 C651 C 0.24058 0.60270 0.89325
 C652 C 0.25237 0.61736 0.91050
 C653 C 0.21658 0.60691 0.88835
 C654 C 0.20440 0.59043 0.87304
 C655 C 0.21622 0.56997 0.86203
 C656 C 0.24059 0.56698 0.86541
 H657 H 0.27781 0.63987 0.94466
 H658 H 0.32044 0.57003 0.90238
 H659 H 0.33967 0.59259 0.93520
 H660 H 0.28558 0.56217 0.87786
 H661 H 0.24305 0.63256 0.91977
 H662 H 0.20701 0.62217 0.89719
 H663 H 0.18560 0.59296 0.87057
 H664 H 0.24971 0.55122 0.85679
 C665 C 0.06791 0.27450 0.35566
 C666 C 0.08276 0.26239 0.37252
 C667 C 0.08121 0.23554 0.37613
 C668 C 0.06574 0.22114 0.36202
 C669 C 0.05154 0.23324 0.34483
 C670 C 0.05215 0.26000 0.34185
 C671 C 0.09509 0.22352 0.39379
 C672 C 0.11114 0.23782 0.40731
 C673 C 0.11362 0.26444 0.40288
 C674 C 0.09909 0.27666 0.38582
 C675 C 0.13078 0.27829 0.41544
 C676 C 0.14543 0.26583 0.43210
 C677 C 0.14251 0.23960 0.43714
 C678 C 0.12512 0.22578 0.42488
 H679 H 0.06858 0.29516 0.35326
 H680 H 0.06450 0.20053 0.36441
 H681 H 0.03940 0.22178 0.33446
 H682 H 0.09357 0.20300 0.39684
 H683 H 0.10065 0.29716 0.38274
 H684 H 0.13314 0.29863 0.41208
 H685 H 0.15901 0.27665 0.44114
 H686 H 0.12304 0.20544 0.42856
 C687 C 0.05512 0.71423 0.62843
 C688 C 0.07075 0.73050 0.61605
 C689 C 0.06908 0.75736 0.61901
 C690 C 0.05218 0.76740 0.63482
 C691 C 0.03681 0.75102 0.64725
 C692 C 0.03792 0.72434 0.64394
 C693 C 0.08410 0.77371 0.60587
 C694 C 0.10070 0.76351 0.58978
 C695 C 0.10271 0.73658 0.58736
 C696 C 0.08778 0.72028 0.60054
 C697 C 0.11928 0.72635 0.57134
 C698 C 0.13317 0.74261 0.55721
 C699 C 0.13079 0.76933 0.55891
 C700 C 0.11489 0.77975 0.57557
 H701 H 0.05633 0.69367 0.62593
 H702 H 0.05071 0.78792 0.63740
 H703 H 0.02373 0.75928 0.65913
 H704 H 0.08260 0.79433 0.60787
 H705 H 0.08915 0.69967 0.59840
 H706 H 0.12112 0.70578 0.56935
 H707 H 0.14541 0.73438 0.54442
 H708 H 0.11304 0.80041 0.57680
 C709 C 0.94014 0.71883 0.37704
 C710 C 0.92376 0.72895 0.39342
 C711 C 0.91596 0.71377 0.41309
 C712 C 0.92476 0.68879 0.41609
 C713 C 0.94139 0.67905 0.39999
 C714 C 0.94926 0.69394 0.38036
 C715 C 0.89978 0.72389 0.42963
 C716 C 0.89163 0.74919 0.42703
 C717 C 0.89958 0.76446 0.40747
 C718 C 0.91542 0.75417 0.39069
 C719 C 0.89176 0.78990 0.40519
 C720 C 0.87636 0.80021 0.42220
 C721 C 0.86828 0.78520 0.44163
 C722 C 0.87586 0.75960 0.44385
 H723 H 0.94625 0.73057 0.36210
 H724 H 0.91901 0.67689 0.43107
 H725 H 0.94810 0.65980 0.40290
 H726 H 0.89381 0.71221 0.44470
 H727 H 0.92149 0.76590 0.37570
 H728 H 0.89772 0.80191 0.39037
 H729 H 0.87077 0.82001 0.42029
 H730 H 0.86960 0.74794 0.45879
 C731 C 0.93633 0.28788 0.62715
 C732 C 0.92166 0.27064 0.61512
 C733 C 0.92294 0.24413 0.62063
 C734 C 0.93812 0.23551 0.63889
 C735 C 0.95277 0.25281 0.65072
 C736 C 0.95248 0.27902 0.64449
 C737 C 0.90967 0.22664 0.60725
 C738 C 0.89539 0.23534 0.58825
 C739 C 0.89344 0.26197 0.58341
 C740 C 0.90645 0.27944 0.59698
 C741 C 0.87909 0.27067 0.56452
 C742 C 0.86754 0.25313 0.54991
 C743 C 0.87015 0.22665 0.55393
 C744 C 0.88368 0.21782 0.57346
 H745 H 0.93580 0.30808 0.62232
 H746 H 0.93921 0.21530 0.64349
 H747 H 0.96503 0.24550 0.66404
 H748 H 0.91105 0.20625 0.61111
 H749 H 0.90534 0.29980 0.59288
 H750 H 0.87728 0.29100 0.56067
 H751 H 0.85702 0.26017 0.53498
 H752 H 0.88570 0.19736 0.57654
 C753 C 0.35638 0.07396 0.28264
 C754 C 0.36899 0.09231 0.26913
 C755 C 0.36806 0.09186 0.24371
 C756 C 0.35389 0.07372 0.23226
 C757 C 0.34114 0.05582 0.24581
 C758 C 0.34252 0.05549 0.27105
 C759 C 0.38163 0.10920 0.23010
 C760 C 0.39621 0.12698 0.24157
 C761 C 0.39645 0.12813 0.26700
 C762 C 0.38280 0.11084 0.28061
 C763 C 0.41097 0.14602 0.27840
 C764 C 0.42607 0.16160 0.26483
 C765 C 0.42683 0.15961 0.23967
 C766 C 0.41130 0.14289 0.22806
 H767 H 0.35734 0.07403 0.30211
 H768 H 0.35286 0.07319 0.21281
 H769 H 0.33059 0.04180 0.23647
 H770 H 0.38128 0.10844 0.21061
 H771 H 0.38337 0.11140 0.30010
 H772 H 0.41127 0.14731 0.29784
 H773 H 0.43800 0.17442 0.27399
 H774 H 0.41198 0.14128 0.20864
 C775 C 0.62728 0.07087 0.71858
 C776 C 0.61363 0.08597 0.73419
 C777 C 0.61955 0.08709 0.75888
 C778 C 0.63933 0.07374 0.76740
 C779 C 0.65290 0.05900 0.75177
 C780 C 0.64690 0.05713 0.72730
 C781 C 0.60544 0.10121 0.77474
 C782 C 0.58542 0.11426 0.76629
 C783 C 0.57986 0.11379 0.74149
 C784 C 0.59400 0.09967 0.72560
 C785 C 0.55993 0.12704 0.73307
 C786 C 0.54521 0.13987 0.74916
 C787 C 0.55013 0.13964 0.77391
 C788 C 0.57053 0.12723 0.78234
 H789 H 0.62257 0.06973 0.69973
 H790 H 0.64418 0.07447 0.78622
 H791 H 0.66789 0.04861 0.75901
 H792 H 0.60981 0.10170 0.79372
 H793 H 0.58951 0.09902 0.70666
 H794 H 0.55546 0.12703 0.71413
 H795 H 0.52954 0.14943 0.74242
 H796 H 0.57429 0.12700 0.80146
 C797 C 0.38500 0.94746 0.71984
 C798 C 0.40217 0.93340 0.73251
 C799 C 0.42138 0.92244 0.71998
 C800 C 0.42318 0.92600 0.69500
 C801 C 0.40620 0.94038 0.68257
 C802 C 0.38694 0.95118 0.69482
 C803 C 0.43850 0.90826 0.73261
 C804 C 0.43681 0.90515 0.75767
 C805 C 0.41775 0.91645 0.77022
 C806 C 0.40052 0.93037 0.75756
 C807 C 0.41624 0.91362 0.79528
 C808 C 0.43332 0.89957 0.80781
 C809 C 0.45212 0.88798 0.79551
 C810 C 0.45383 0.89090 0.77041
 H811 H 0.37037 0.95593 0.72954
 H812 H 0.43780 0.91780 0.68510
 H813 H 0.40810 0.94298 0.66331
 H814 H 0.45317 0.89974 0.72298
 H815 H 0.38587 0.93892 0.76720
 H816 H 0.40181 0.92222 0.80518
 H817 H 0.43182 0.89755 0.82716
 H818 H 0.46830 0.88190 0.76088
 C819 C 0.62002 0.95224 0.27460
 C820 C 0.60432 0.93680 0.26154
 C821 C 0.58481 0.92542 0.27340
 C822 C 0.58138 0.92943 0.29801
 C823 C 0.59674 0.94510 0.31071
 C824 C 0.61605 0.95685 0.29917
 C825 C 0.56871 0.91062 0.26045
 C826 C 0.57156 0.90735 0.23565
 C827 C 0.59109 0.91855 0.22369
 C828 C 0.60746 0.93305 0.23674
 C829 C 0.59368 0.91534 0.19878
 C830 C 0.57689 0.90156 0.18583
 C831 C 0.55732 0.89072 0.19758
 C832 C 0.55492 0.89338 0.22255
 H833 H 0.63476 0.96133 0.26550
 H834 H 0.56656 0.92081 0.30737
 H835 H 0.59339 0.94818 0.32965
 H836 H 0.55371 0.90206 0.26960
 H837 H 0.62235 0.94177 0.22755
 H838 H 0.60853 0.92372 0.18929
 H839 H 0.57899 0.89956 0.16657
 H840 H 0.53989 0.88484 0.23164
 C841 C 0.35073 0.27524 0.93926
 C842 C 0.36507 0.25992 0.92475
 C843 C 0.36266 0.23295 0.92558
 C844 C 0.34521 0.22190 0.94033
 C845 C 0.33097 0.23740 0.95486
 C846 C 0.33405 0.26413 0.95486
 C847 C 0.37812 0.21758 0.91213
 C848 C 0.39598 0.22893 0.89808
 C849 C 0.39778 0.25600 0.89681
 C850 C 0.38226 0.27127 0.91005
 C851 C 0.41542 0.26741 0.88268
 C852 C 0.43155 0.25221 0.87034
 C853 C 0.43041 0.22536 0.87202
 C854 C 0.41238 0.21376 0.88564
 H855 H 0.35306 0.29588 0.93889
 H856 H 0.34299 0.20127 0.94109
 H857 H 0.31821 0.22843 0.96675
 H858 H 0.37659 0.19685 0.91301
 H859 H 0.38394 0.29200 0.90935
 H860 H 0.41692 0.28810 0.88142
 H861 H 0.44522 0.26136 0.85968
 H862 H 0.41146 0.19301 0.88684
 C863 C 0.64118 0.71232 0.94187
 C864 C 0.62854 0.72952 0.92720
 C865 C 0.63609 0.75527 0.92495
 C866 C 0.65687 0.76298 0.93640
 C867 C 0.66939 0.74571 0.95096
 C868 C 0.66128 0.72048 0.95439
 C869 C 0.62238 0.77303 0.91195
 C870 C 0.60121 0.76533 0.90118
 C871 C 0.59429 0.73929 0.90249
 C872 C 0.60799 0.72156 0.91547
 C873 C 0.57344 0.73150 0.89126
 C874 C 0.55917 0.74946 0.87949
 C875 C 0.56530 0.77555 0.87900
 C876 C 0.58656 0.78334 0.88960
 H877 H 0.63486 0.69284 0.94424
 H878 H 0.66304 0.78258 0.93472
 H879 H 0.68480 0.75249 0.96043
 H880 H 0.62787 0.79292 0.91072
 H881 H 0.60235 0.70174 0.91695
 H882 H 0.56799 0.71160 0.89188
 H883 H 0.54298 0.74309 0.87116
 H884 H 0.59137 0.80346 0.88926
 C885 C 0.37390 0.71533 0.04909
 C886 C 0.38883 0.72902 0.06443
 C887 C 0.40535 0.71561 0.07891
 C888 C 0.40645 0.68878 0.07799
 C889 C 0.39193 0.67537 0.06226
 C890 C 0.37573 0.68850 0.04750
 C891 C 0.42093 0.72924 0.09354
 C892 C 0.42063 0.75613 0.09346
 C893 C 0.40405 0.76958 0.07909
 C894 C 0.38808 0.75592 0.06488
 C895 C 0.40406 0.79649 0.07881
 C896 C 0.42067 0.80996 0.09222
 C897 C 0.43736 0.79673 0.10625
 C898 C 0.43702 0.76982 0.10710
 H899 H 0.36162 0.72566 0.03761
 H900 H 0.41897 0.67820 0.08897
 H901 H 0.39360 0.65469 0.06139
 H902 H 0.43370 0.71894 0.10450
 H903 H 0.37549 0.76623 0.05372
 H904 H 0.39148 0.80711 0.06793
 H905 H 0.42071 0.83073 0.09148
 H906 H 0.44984 0.75962 0.11807
 C907 C 0.62426 0.28481 0.06324
 C908 C 0.60775 0.27789 0.08103
 C909 C 0.58995 0.29550 0.08773
 C910 C 0.58894 0.31967 0.07652
 C911 C 0.60519 0.32626 0.05861
 C912 C 0.62297 0.30895 0.05173
 C913 C 0.57321 0.28855 0.10521
 C914 C 0.57369 0.26399 0.11573
 C915 C 0.59144 0.24632 0.10901
 C916 C 0.60851 0.25348 0.09191
 C917 C 0.59151 0.22158 0.11917
 C918 C 0.57380 0.21417 0.13529
 C919 C 0.55592 0.23146 0.14182
 C920 C 0.55630 0.25657 0.13239
 H921 H 0.63781 0.27123 0.05804
 H922 H 0.57541 0.33339 0.08141
 H923 H 0.60385 0.34500 0.05014
 H924 H 0.55952 0.30206 0.11026
 H925 H 0.62208 0.23990 0.08673
 H926 H 0.60497 0.20779 0.11424
 H927 H 0.57376 0.19473 0.14237
 H928 H 0.54261 0.27002 0.13751
 C929 C 0.29945 0.06174 0.61728
 C930 C 0.28257 0.07623 0.60458
 C931 C 0.25959 0.06631 0.60134
 C932 C 0.25358 0.04264 0.61186
 C933 C 0.27026 0.02875 0.62513
 C934 C 0.29335 0.03797 0.62754
 C935 C 0.24308 0.08009 0.58753
 C936 C 0.24906 0.10398 0.57741
 C937 C 0.27164 0.11448 0.58175
 C938 C 0.28832 0.10043 0.59506
 C939 C 0.27731 0.13875 0.57237
 C940 C 0.26105 0.15217 0.55822
 C941 C 0.23902 0.14143 0.55292
 C942 C 0.23299 0.11739 0.56272
 H943 H 0.31723 0.06899 0.61940
 H944 H 0.23602 0.03484 0.60975
 H945 H 0.26535 0.01041 0.63296
 H946 H 0.22565 0.07220 0.58458
 H947 H 0.30579 0.10826 0.59790
 H948 H 0.29444 0.14717 0.57566
 H949 H 0.26594 0.17063 0.55063
 H950 H 0.21605 0.10899 0.55845
 C951 C 0.71576 0.05587 0.37202
 C952 C 0.72879 0.07092 0.38816
 C953 C 0.71724 0.08254 0.40784
 C954 C 0.69301 0.07903 0.41110
 C955 C 0.68030 0.06373 0.39537
 C956 C 0.69141 0.05175 0.37570
 C957 C 0.73008 0.09721 0.42423
 C958 C 0.75447 0.10015 0.42150
 C959 C 0.76619 0.08855 0.40191
 C960 C 0.75325 0.07415 0.38526
 C961 C 0.79069 0.09141 0.39947
 C962 C 0.80343 0.10547 0.41634
 C963 C 0.79188 0.11697 0.43585
 C964 C 0.76737 0.11437 0.43823
 H965 H 0.72473 0.04681 0.35709
 H966 H 0.68390 0.08783 0.42607
 H967 H 0.66163 0.06125 0.39881
 H968 H 0.72112 0.10605 0.43930
 H969 H 0.76223 0.06520 0.37026
 H970 H 0.80000 0.08268 0.38460
 H971 H 0.82235 0.10737 0.41426
 H972 H 0.75842 0.12338 0.45321
 C973 C 0.71309 0.94700 0.63030
 C974 C 0.72761 0.93014 0.61731
 C975 C 0.75218 0.92956 0.62178
 C976 C 0.76174 0.94538 0.63944
 C977 C 0.74717 0.96171 0.65254
 C978 C 0.72280 0.96282 0.64803
 C979 C 0.76686 0.91334 0.60844
 C980 C 0.75734 0.89757 0.59068
 C981 C 0.73271 0.89759 0.58659
 C982 C 0.71800 0.91388 0.59992
 C983 C 0.72328 0.88169 0.56885
 C984 C 0.73818 0.86668 0.55470
 C985 C 0.76271 0.86727 0.55810
 C986 C 0.77217 0.88230 0.57648
 H987 H 0.69427 0.94757 0.62689
 H988 H 0.78049 0.94514 0.64314
 H989 H 0.75506 0.97377 0.66607
 H990 H 0.78572 0.91322 0.61168
 H991 H 0.69916 0.91412 0.59656
 H992 H 0.70446 0.88134 0.56552
 H993 H 0.73067 0.85516 0.54053
 H994 H 0.79112 0.88288 0.57899
 C995 C 0.28090 0.93640 0.36393
 C996 C 0.26626 0.91998 0.37755
 C997 C 0.24254 0.91629 0.37052
 C998 C 0.23414 0.92825 0.34955
 C999 C 0.24885 0.94420 0.33596
 C1000 C 0.27222 0.94882 0.34316
 C1001 C 0.22749 0.90105 0.38471
 C1002 C 0.23586 0.88923 0.40581
 C1003 C 0.25981 0.89206 0.41234
 C1004 C 0.27483 0.90748 0.39824
 C1005 C 0.26826 0.87976 0.43315
 C1006 C 0.25298 0.86550 0.44775
 C1007 C 0.22892 0.86352 0.44203
 C1008 C 0.22055 0.87505 0.42074
 H1009 H 0.29892 0.93966 0.36957
 H1010 H 0.21607 0.92552 0.34381
 H1011 H 0.24167 0.95356 0.32010
 H1012 H 0.20920 0.89868 0.37952
 H1013 H 0.29307 0.91001 0.40354
 H1014 H 0.28659 0.88148 0.43832
 H1015 H 0.25979 0.85651 0.46397
 H1016 H 0.20201 0.87354 0.41622
 C1017 C 0.06390 0.36394 0.71415
 C1018 C 0.08110 0.38030 0.72347
 C1019 C 0.08996 0.40064 0.70912
 C1020 C 0.08146 0.40416 0.68563
 C1021 C 0.06394 0.38804 0.67663
 C1022 C 0.05492 0.36789 0.69084
 C1023 C 0.10667 0.41749 0.71873
 C1024 C 0.11392 0.41477 0.74275
 C1025 C 0.10498 0.39442 0.75707
 C1026 C 0.08897 0.37704 0.74720
 C1027 C 0.11156 0.39231 0.78131
 C1028 C 0.12598 0.41087 0.79160
 C1029 C 0.13453 0.43147 0.77770
 C1030 C 0.12915 0.43276 0.75303
 H1031 H 0.05700 0.34857 0.72537
 H1032 H 0.08804 0.41966 0.67438
 H1033 H 0.05737 0.39141 0.65859
 H1034 H 0.11336 0.43323 0.70780
 H1035 H 0.08202 0.36152 0.75823
 H1036 H 0.10486 0.37683 0.79252
 H1037 H 0.12993 0.40958 0.81063
 H1038 H 0.13589 0.44853 0.74220
 C1039 C 0.04881 0.64187 0.27115
 C1040 C 0.06511 0.62847 0.25685
 C1041 C 0.08302 0.61363 0.26802
 C1042 C 0.08483 0.61303 0.29310
 C1043 C 0.06834 0.62592 0.30713
 C1044 C 0.04991 0.63997 0.29637
 C1045 C 0.09825 0.59872 0.25406
 C1046 C 0.09544 0.59783 0.22909
 C1047 C 0.07805 0.61318 0.21770
 C1048 C 0.06317 0.62869 0.23166
 C1049 C 0.07526 0.61188 0.19265
 C1050 C 0.08869 0.59454 0.17925
 C1051 C 0.10516 0.57853 0.19074
 C1052 C 0.10900 0.58079 0.21549
 H1053 H 0.03462 0.65260 0.26270
 H1054 H 0.09853 0.60189 0.30191
 H1055 H 0.06972 0.62442 0.32653
 H1056 H 0.11163 0.58696 0.26273
 H1057 H 0.04951 0.64007 0.22301
 H1058 H 0.06212 0.62356 0.18357
 H1059 H 0.08561 0.59287 0.16011
 H1060 H 0.12175 0.56831 0.22427
 C1061 C 0.93543 0.33598 0.27071
 C1062 C 0.92038 0.35205 0.25739
 C1063 C 0.92631 0.35875 0.23341
 C1064 C 0.94631 0.34779 0.22267
 C1065 C 0.96093 0.33132 0.23593
 C1066 C 0.95595 0.32601 0.26018
 C1067 C 0.91255 0.37680 0.22085
 C1068 C 0.89270 0.38781 0.23181
 C1069 C 0.88586 0.37974 0.25516
 C1070 C 0.89988 0.36210 0.26790
 C1071 C 0.86534 0.38985 0.26557
 C1072 C 0.85212 0.40840 0.25327
 C1073 C 0.85959 0.41763 0.23073
 C1074 C 0.87977 0.40709 0.21996
 H1075 H 0.93156 0.33173 0.28943
 H1076 H 0.95098 0.35248 0.20424
 H1077 H 0.97682 0.32387 0.22767
 H1078 H 0.91751 0.38257 0.20274
 H1079 H 0.89507 0.35654 0.28611
 H1080 H 0.85967 0.38363 0.28331
 H1081 H 0.83644 0.41621 0.26165
 H1082 H 0.88546 0.41413 0.20248
 C1083 C 0.94611 0.63308 0.73552
 C1084 C 0.93362 0.61436 0.74865
 C1085 C 0.92455 0.59267 0.73673
 C1086 C 0.92816 0.59006 0.71192
 C1087 C 0.94115 0.60841 0.69913
 C1088 C 0.95031 0.62999 0.71079
 C1089 C 0.91250 0.57366 0.74985
 C1090 C 0.90992 0.57572 0.77486
 C1091 C 0.91914 0.59732 0.78682
 C1092 C 0.93067 0.61664 0.77361
 C1093 C 0.91700 0.59903 0.81189
 C1094 C 0.90610 0.57939 0.82504
 C1095 C 0.89690 0.55787 0.81334
 C1096 C 0.89863 0.55628 0.78818
 H1097 H 0.95339 0.64950 0.74473
 H1098 H 0.92137 0.57355 0.70250
 H1099 H 0.94416 0.60566 0.68008
 H1100 H 0.90558 0.55702 0.74069
 H1101 H 0.93777 0.63317 0.78280
 H1102 H 0.92400 0.61540 0.82136
 H1103 H 0.90491 0.58087 0.84442
 H1104 H 0.89144 0.53974 0.77910
 C1105 C 0.74316 0.63129 0.96064
 C1106 C 0.75485 0.61219 0.94745
 C1107 C 0.74208 0.59092 0.93883
 C1108 C 0.71790 0.58901 0.94371
 C1109 C 0.70649 0.60774 0.95730
 C1110 C 0.71891 0.62913 0.96601
 C1111 C 0.75372 0.57175 0.92575
 C1112 C 0.77809 0.57328 0.92158
 C1113 C 0.79093 0.59439 0.93048
 C1114 C 0.77921 0.61381 0.94314
 C1115 C 0.81536 0.59565 0.92671
 C1116 C 0.82700 0.57615 0.91433
 C1117 C 0.81442 0.55518 0.90528
 C1118 C 0.78990 0.55393 0.90883
 H1119 H 0.75318 0.64745 0.96725
 H1120 H 0.70784 0.57282 0.93728
 H1121 H 0.68785 0.60538 0.96096
 H1122 H 0.74386 0.55548 0.91910
 H1123 H 0.78908 0.63001 0.94988
 H1124 H 0.82549 0.61164 0.93344
 H1125 H 0.84590 0.57740 0.91173
 H1126 H 0.78011 0.53786 0.90173
 C1127 C 0.27373 0.36163 0.93861
 C1128 C 0.25964 0.37466 0.92169
 C1129 C 0.23587 0.36733 0.91849
 C1130 C 0.22689 0.34642 0.93155
 C1131 C 0.24108 0.33329 0.94810
 C1132 C 0.26453 0.34101 0.95225
 C1133 C 0.22137 0.38127 0.90262
 C1134 C 0.23037 0.40243 0.88984
 C1135 C 0.25443 0.40908 0.89231
 C1136 C 0.26888 0.39518 0.90821
 C1137 C 0.26351 0.42999 0.87929
 C1138 C 0.24871 0.44484 0.86474
 C1139 C 0.22457 0.43915 0.86304
 C1140 C 0.21558 0.41753 0.87517
 H1141 H 0.29181 0.36773 0.94121
 H1142 H 0.20877 0.34039 0.92919
 H1143 H 0.23338 0.31744 0.95810
 H1144 H 0.20300 0.37596 0.90056
 H1145 H 0.28719 0.40065 0.91043
 H1146 H 0.28192 0.43523 0.88081
 H1147 H 0.25590 0.46139 0.85538
 H1148 H 0.19694 0.41313 0.87389
 C1149 C 0.27721 0.62325 0.04479
 C1150 C 0.26191 0.60828 0.05904
 C1151 C 0.27050 0.58580 0.07049
 C1152 C 0.29406 0.57850 0.06735
 C1153 C 0.30894 0.59296 0.05256
 C1154 C 0.30078 0.61547 0.04101
 C1155 C 0.25533 0.57064 0.08452
 C1156 C 0.23144 0.57718 0.08666
 C1157 C 0.22264 0.59940 0.07493
 C1158 C 0.23802 0.61504 0.06148
 C1159 C 0.19853 0.60532 0.07657
 C1160 C 0.18325 0.58920 0.08945
 C1161 C 0.19193 0.56719 0.10124
 C1162 C 0.21612 0.56148 0.09998
 H1163 H 0.27046 0.64038 0.03596
 H1164 H 0.30089 0.56130 0.07596
 H1165 H 0.32694 0.58640 0.05023
 H1166 H 0.26199 0.55344 0.09333
 H1167 H 0.23130 0.63211 0.05251
 H1168 H 0.19143 0.62219 0.06762
 H1169 H 0.16463 0.59380 0.09016
 H1170 H 0.22288 0.54454 0.10913
 C1171 C 0.71260 0.36581 0.06289
 C1172 C 0.72562 0.38290 0.07701
 C1173 C 0.72903 0.40840 0.06888
 C1174 C 0.71756 0.41705 0.04802
 C1175 C 0.70313 0.40048 0.03508
 C1176 C 0.70115 0.37447 0.04183
 C1177 C 0.74352 0.42496 0.08196
 C1178 C 0.75300 0.41703 0.10411
 C1179 C 0.74765 0.39240 0.11339
 C1180 C 0.73481 0.37510 0.09936
 C1181 C 0.75485 0.38574 0.13674
 C1182 C 0.76706 0.40340 0.15079
 C1183 C 0.77375 0.42742 0.14124
 C1184 C 0.76709 0.43371 0.11750
 H1185 H 0.71068 0.34603 0.06878
 H1186 H 0.71958 0.43669 0.04182
 H1187 H 0.69455 0.40777 0.01900
 H1188 H 0.74678 0.44426 0.07530
 H1189 H 0.73139 0.35587 0.10612
 H1190 H 0.75047 0.36715 0.14438
 H1191 H 0.77149 0.39817 0.16913
 H1192 H 0.77235 0.45191 0.10962
 C1193 C 0.93194 0.72452 0.63643
 C1194 C 0.91567 0.73370 0.61932
 C1195 C 0.91026 0.71864 0.59905
 C1196 C 0.92133 0.69485 0.59608
 C1197 C 0.93805 0.68625 0.61268
 C1198 C 0.94368 0.70092 0.63305
 C1199 C 0.89432 0.72783 0.58174
 C1200 C 0.88440 0.75235 0.58389
 C1201 C 0.89003 0.76764 0.60394
 C1202 C 0.90528 0.75803 0.62176
 C1203 C 0.88078 0.79256 0.60548
 C1204 C 0.86663 0.80247 0.58703
 C1205 C 0.86100 0.78743 0.56700
 C1206 C 0.86952 0.76214 0.56587
 H1207 H 0.93608 0.73626 0.65185
 H1208 H 0.91742 0.68310 0.58062
 H1209 H 0.94655 0.66795 0.60950
 H1210 H 0.89021 0.71622 0.56621
 H1211 H 0.90960 0.76976 0.63714
 H1212 H 0.88497 0.80461 0.62065
 H1213 H 0.86032 0.82205 0.58817
 H1214 H 0.86513 0.75041 0.55051
 C1215 C 0.94350 0.26575 0.35284
 C1216 C 0.92695 0.25172 0.36633
 C1217 C 0.92424 0.22515 0.36234
 C1218 C 0.93711 0.21339 0.34393
 C1219 C 0.95301 0.22764 0.33004
 C1220 C 0.95690 0.25382 0.33474
 C1221 C 0.90904 0.21071 0.37706
 C1222 C 0.89628 0.22262 0.39550
 C1223 C 0.89788 0.24950 0.39845
 C1224 C 0.91330 0.26385 0.38394
 C1225 C 0.88453 0.26150 0.41636
 C1226 C 0.87077 0.24686 0.43211
 C1227 C 0.87043 0.21999 0.43043
 C1228 C 0.88257 0.20801 0.41158
 H1229 H 0.94581 0.28600 0.35643
 H1230 H 0.93504 0.19311 0.34042
 H1231 H 0.96285 0.21784 0.31615
 H1232 H 0.90750 0.19018 0.37448
 H1233 H 0.91501 0.28434 0.38669
 H1234 H 0.88527 0.28210 0.41864
 H1235 H 0.86122 0.25637 0.44638
 H1236 H 0.88219 0.18728 0.41017
 C1237 C 0.06294 0.27595 0.62871
 C1238 C 0.07690 0.26376 0.61120
 C1239 C 0.06812 0.26107 0.58755
 C1240 C 0.04652 0.27225 0.58128
 C1241 C 0.03384 0.28634 0.59812
 C1242 C 0.04156 0.28793 0.62212
 C1243 C 0.08145 0.24813 0.57022
 C1244 C 0.10445 0.24004 0.57546
 C1245 C 0.11409 0.24460 0.59844
 C1246 C 0.09990 0.25536 0.61653
 C1247 C 0.13800 0.23918 0.60258
 C1248 C 0.15224 0.22991 0.58397
 C1249 C 0.14255 0.22426 0.56134
 C1250 C 0.11834 0.22865 0.55761
 H1251 H 0.06945 0.27763 0.64696
 H1252 H 0.03975 0.27076 0.56313
 H1253 H 0.01742 0.29520 0.59250
 H1254 H 0.07440 0.24557 0.55228
 H1255 H 0.10711 0.25830 0.63434
 H1256 H 0.14587 0.24298 0.61992
 H1257 H 0.17089 0.22711 0.58726
 H1258 H 0.11054 0.22422 0.54035
 C1259 C 0.06306 0.70693 0.37758
 C1260 C 0.07982 0.72406 0.38658
 C1261 C 0.07819 0.75047 0.38081
 C1262 C 0.06061 0.75902 0.36493
 C1263 C 0.04445 0.74169 0.35531
 C1264 C 0.04507 0.71554 0.36200
 C1265 C 0.09386 0.76789 0.39136
 C1266 C 0.11125 0.75914 0.40742
 C1267 C 0.11376 0.73249 0.41193
 C1268 C 0.09801 0.71516 0.40154
 C1269 C 0.13134 0.72365 0.42765
 C1270 C 0.14518 0.74108 0.44015
 C1271 C 0.14171 0.76757 0.43708
 C1272 C 0.12539 0.77658 0.42002
 H1273 H 0.06425 0.68680 0.38254
 H1274 H 0.05926 0.77915 0.36005
 H1275 H 0.03100 0.74899 0.34323
 H1276 H 0.09212 0.78826 0.38756
 H1277 H 0.09954 0.69483 0.40560
 H1278 H 0.13363 0.70330 0.43112
 H1279 H 0.15760 0.73396 0.45343
 H1280 H 0.12260 0.79705 0.41785
 C1281 C 0.64699 0.94856 0.73866
 C1282 C 0.63087 0.93102 0.74874
 C1283 C 0.61559 0.91717 0.73352
 C1284 C 0.61710 0.92049 0.70857
 C1285 C 0.63274 0.93831 0.69877
 C1286 C 0.64744 0.95287 0.71369
 C1287 C 0.59845 0.90091 0.74344
 C1288 C 0.59600 0.89866 0.76841
 C1289 C 0.61158 0.91197 0.78373
 C1290 C 0.62906 0.92791 0.77378
 C1291 C 0.60898 0.90959 0.80875
 C1292 C 0.59074 0.89474 0.81846
 C1293 C 0.57488 0.88216 0.80329
 C1294 C 0.57779 0.88380 0.77831
 H1295 H 0.65817 0.95984 0.75028
 H1296 H 0.60563 0.90993 0.69666
 H1297 H 0.63295 0.94117 0.67945
 H1298 H 0.58655 0.89063 0.73172
 H1299 H 0.64075 0.93845 0.78551
 H1300 H 0.62079 0.91952 0.82078
 H1301 H 0.58869 0.89342 0.83780
 H1302 H 0.56556 0.87387 0.76668
 C1303 C 0.35614 0.95082 0.25415
 C1304 C 0.37466 0.93677 0.24372
 C1305 C 0.39074 0.92329 0.25866
 C1306 C 0.38797 0.92396 0.28368
 C1307 C 0.36988 0.93846 0.29390
 C1308 C 0.35395 0.95216 0.27929
 C1309 C 0.40959 0.90976 0.24840
 C1310 C 0.41279 0.90978 0.22339
 C1311 C 0.39674 0.92326 0.20842
 C1312 C 0.37772 0.93655 0.21867
 C1313 C 0.40003 0.92322 0.18340
 C1314 C 0.41891 0.90981 0.17331
 C1315 C 0.43484 0.89634 0.18805
 C1316 C 0.43178 0.89645 0.21309
 H1317 H 0.34412 0.96162 0.24276
 H1318 H 0.40011 0.91374 0.29539
 H1319 H 0.36852 0.93924 0.31331
 H1320 H 0.42191 0.89947 0.25988
 H1321 H 0.36547 0.94694 0.20719
 H1322 H 0.38792 0.93342 0.17165
 H1323 H 0.42104 0.90970 0.15394
 H1324 H 0.44399 0.88584 0.22443
 C1325 C 0.61469 0.07902 0.30341
 C1326 C 0.60401 0.09690 0.28780
 C1327 C 0.60937 0.09650 0.26294
 C1328 C 0.62613 0.07907 0.25430
 C1329 C 0.63687 0.06156 0.26997
 C1330 C 0.63087 0.06098 0.29451
 C1331 C 0.59742 0.11298 0.24703
 C1332 C 0.58010 0.12981 0.25564
 C1333 C 0.57557 0.13111 0.28064
 C1334 C 0.58760 0.11470 0.29657
 C1335 C 0.55842 0.14816 0.28921
 C1336 C 0.54496 0.16271 0.27309
 C1337 C 0.54841 0.16040 0.24818
 C1338 C 0.56652 0.14455 0.23956
 H1339 H 0.61016 0.07889 0.32236
 H1340 H 0.63058 0.07862 0.23535
 H1341 H 0.64931 0.04784 0.26271
 H1342 H 0.60109 0.11217 0.22789
 H1343 H 0.58369 0.11525 0.31567
 H1344 H 0.55486 0.14959 0.30831
 H1345 H 0.53109 0.17496 0.27995
 H1346 H 0.56914 0.14272 0.22033
 C1347 C 0.36865 0.05667 0.71719
 C1348 C 0.38243 0.07513 0.72885
 C1349 C 0.39725 0.09147 0.71512
 C1350 C 0.39767 0.08950 0.69003
 C1351 C 0.38433 0.07077 0.67865
 C1352 C 0.37003 0.05393 0.69210
 C1353 C 0.41202 0.10894 0.72669
 C1354 C 0.41262 0.10987 0.75185
 C1355 C 0.39754 0.09389 0.76565
 C1356 C 0.38234 0.07681 0.75404
 C1357 C 0.39841 0.09480 0.79085
 C1358 C 0.41461 0.11077 0.80225
 C1359 C 0.43004 0.12608 0.78861
 C1360 C 0.42863 0.12600 0.76344
 H1361 H 0.35779 0.04367 0.72773
 H1362 H 0.40885 0.10194 0.67925
 H1363 H 0.38555 0.06913 0.65928
 H1364 H 0.42360 0.12121 0.71615
 H1365 H 0.37100 0.06429 0.76460
 H1366 H 0.38694 0.08278 0.80172
 H1367 H 0.41550 0.11080 0.82171
 H1368 H 0.44049 0.13800 0.75296
 C1369 C 0.63568 0.72028 0.06303
 C1370 C 0.62232 0.73826 0.07583
 C1371 C 0.62871 0.76447 0.07511
 C1372 C 0.64900 0.77200 0.06241
 C1373 C 0.66234 0.75389 0.04985
 C1374 C 0.65549 0.72801 0.04961
 C1375 C 0.61444 0.78270 0.08662
 C1376 C 0.59385 0.77501 0.09878
 C1377 C 0.58806 0.74864 0.10023
 C1378 C 0.60234 0.73047 0.08880
 C1379 C 0.56770 0.74088 0.11259
 C1380 C 0.55269 0.75910 0.12264
 C1381 C 0.55770 0.78538 0.12043
 C1382 C 0.57859 0.79326 0.10893
 H1383 H 0.63041 0.70030 0.06318
 H1384 H 0.65428 0.79196 0.06180
 H1385 H 0.67754 0.76028 0.03963
 H1386 H 0.61905 0.80287 0.08567
 H1387 H 0.59758 0.71033 0.08953
 H1388 H 0.56312 0.72075 0.11403
 H1389 H 0.53673 0.75276 0.13162
 H1390 H 0.58247 0.81356 0.10726
 C1391 C 0.35786 0.28549 0.06423
 C1392 C 0.37155 0.27252 0.08153
 C1393 C 0.36629 0.24674 0.08764
 C1394 C 0.34705 0.23464 0.07682
 C1395 C 0.33335 0.24778 0.05985
 C1396 C 0.33877 0.27317 0.05318
 C1397 C 0.38045 0.23341 0.10425
 C1398 C 0.39976 0.24557 0.11495
 C1399 C 0.40461 0.27157 0.10936
 C1400 C 0.39051 0.28485 0.09266
 C1401 C 0.42373 0.28378 0.12030
 C1402 C 0.43827 0.27020 0.13618
 C1403 C 0.43403 0.24418 0.14129
 C1404 C 0.41455 0.23201 0.13086
 H1405 H 0.36207 0.30515 0.05938
 H1406 H 0.34269 0.21494 0.08135
 H1407 H 0.31876 0.23784 0.05157
 H1408 H 0.37660 0.21354 0.10866
 H1409 H 0.39445 0.30468 0.08816
 H1410 H 0.42763 0.30372 0.11634
 H1411 H 0.45320 0.27984 0.14416
 H1412 H 0.41131 0.21190 0.13472
 C1413 C 0.62074 0.29002 0.93781
 C1414 C 0.60859 0.27325 0.92262
 C1415 C 0.61200 0.24646 0.92502
 C1416 C 0.62805 0.23699 0.94211
 C1417 C 0.64021 0.25384 0.95705
 C1418 C 0.63643 0.28046 0.95530
 C1419 C 0.59902 0.22960 0.91062
 C1420 C 0.58257 0.23920 0.89396
 C1421 C 0.57968 0.26605 0.89112
 C1422 C 0.59277 0.28286 0.90538
 C1423 C 0.56320 0.27565 0.87454
 C1424 C 0.54899 0.25888 0.86163
 C1425 C 0.55116 0.23226 0.86493
 C1426 C 0.56834 0.22244 0.88068
 H1427 H 0.61785 0.31052 0.93611
 H1428 H 0.63098 0.21654 0.94414
 H1429 H 0.65223 0.24597 0.97034
 H1430 H 0.60136 0.20904 0.91275
 H1431 H 0.59025 0.30342 0.90343
 H1432 H 0.56082 0.29614 0.87208
 H1433 H 0.53570 0.26663 0.84960
 H1434 H 0.56984 0.20187 0.88332
 C1435 C 0.37994 0.71379 0.94434
 C1436 C 0.39546 0.72635 0.92845
 C1437 C 0.41352 0.71221 0.91696
 C1438 C 0.41573 0.68584 0.92149
 C1439 C 0.40052 0.67361 0.93764
 C1440 C 0.38259 0.68744 0.94929
 C1441 C 0.42944 0.72471 0.90157
 C1442 C 0.42799 0.75131 0.89803
 C1443 C 0.40996 0.76553 0.90946
 C1444 C 0.39360 0.75289 0.92434
 C1445 C 0.40904 0.79226 0.90631
 C1446 C 0.42632 0.80486 0.89270
 C1447 C 0.44454 0.79087 0.88177
 C1448 C 0.44486 0.76403 0.88391
 H1449 H 0.36625 0.72466 0.95333
 H1450 H 0.42947 0.67474 0.91284
 H1451 H 0.40282 0.65326 0.94102
 H1452 H 0.44336 0.71386 0.89290
 H1453 H 0.37984 0.76379 0.93322
 H1454 H 0.39534 0.80347 0.91489
 H1455 H 0.42585 0.82558 0.89116
 H1456 H 0.45883 0.75321 0.87531
 C1457 C 0.70489 0.94014 0.37099
 C1458 C 0.71523 0.92150 0.38595
 C1459 C 0.70180 0.91008 0.40462
 C1460 C 0.67821 0.91746 0.40789
 C1461 C 0.66819 0.93649 0.39322
 C1462 C 0.68148 0.94811 0.37477
 C1463 C 0.71239 0.89211 0.42016
 C1464 C 0.73645 0.88624 0.41783
 C1465 C 0.74985 0.89769 0.39913
 C1466 C 0.73903 0.91484 0.38302
 C1467 C 0.77409 0.89261 0.39746
 C1468 C 0.78522 0.87742 0.41490
 C1469 C 0.77218 0.86650 0.43387
 C1470 C 0.74761 0.87013 0.43465
 H1471 H 0.71538 0.94907 0.35692
 H1472 H 0.66766 0.90892 0.42211
 H1473 H 0.65009 0.94221 0.39639
 H1474 H 0.70216 0.88351 0.43462
 H1475 H 0.74935 0.92376 0.36879
 H1476 H 0.78461 0.90123 0.38326
 H1477 H 0.80417 0.87488 0.41405
 H1478 H 0.73747 0.86159 0.44921
 C1479 C 0.28741 0.93153 0.63019
 C1480 C 0.27582 0.91419 0.61510
 C1481 C 0.28882 0.90087 0.59740
 C1482 C 0.31318 0.90482 0.59531
 C1483 C 0.32441 0.92267 0.60987
 C1484 C 0.31161 0.93639 0.62718
 C1485 C 0.27718 0.88456 0.58147
 C1486 C 0.25259 0.88205 0.58246
 C1487 C 0.23956 0.89518 0.60026
 C1488 C 0.25131 0.91087 0.61671
 C1489 C 0.21489 0.89300 0.60080
 C1490 C 0.20322 0.87865 0.58338
 C1491 C 0.21604 0.86604 0.56539
 C1492 C 0.24076 0.86731 0.56537
 H1493 H 0.27737 0.94230 0.64331
 H1494 H 0.32339 0.89475 0.58186
 H1495 H 0.34309 0.92609 0.60733
 H1496 H 0.28714 0.87456 0.56775
 H1497 H 0.24130 0.92117 0.63019
 H1498 H 0.20462 0.90290 0.61431
 H1499 H 0.18413 0.87778 0.58362
 H1500 H 0.25066 0.85744 0.55153
 C1501 C 0.27789 0.07356 0.34987
 C1502 C 0.26402 0.08933 0.36449
 C1503 C 0.23984 0.08369 0.36779
 C1504 C 0.22966 0.06336 0.35510
 C1505 C 0.24359 0.04795 0.34025
 C1506 C 0.26789 0.05248 0.33820
 C1507 C 0.22648 0.09791 0.38426
 C1508 C 0.23699 0.11782 0.39724
 C1509 C 0.26079 0.12445 0.39275
 C1510 C 0.27418 0.11008 0.37648
 C1511 C 0.27099 0.14497 0.40507
 C1512 C 0.25801 0.15823 0.42234
 C1513 C 0.23486 0.15081 0.42790
 C1514 C 0.22427 0.13085 0.41504
 H1515 H 0.29665 0.07719 0.34812
 H1516 H 0.21111 0.05893 0.35721
 H1517 H 0.23566 0.03168 0.33142
 H1518 H 0.20811 0.09313 0.38737
 H1519 H 0.29263 0.11466 0.37360
 H1520 H 0.28911 0.15049 0.40164
 H1521 H 0.26627 0.17374 0.43202
 H1522 H 0.20631 0.12527 0.41925
 C1523 C 0.73965 0.06282 0.64492
 C1524 C 0.74994 0.07888 0.62739
 C1525 C 0.73677 0.09960 0.61761
 C1526 C 0.71381 0.10424 0.62586
 C1527 C 0.70345 0.08762 0.64259
 C1528 C 0.71612 0.06664 0.65190
 C1529 C 0.74633 0.11468 0.59903
 C1530 C 0.76866 0.10897 0.58965
 C1531 C 0.78200 0.08848 0.59958
 C1532 C 0.77265 0.07373 0.61856
 C1533 C 0.80435 0.08286 0.59007
 C1534 C 0.81331 0.09729 0.57082
 C1535 C 0.80003 0.11743 0.56082
 C1536 C 0.77774 0.12323 0.57025
 H1537 H 0.74926 0.04627 0.65171
 H1538 H 0.70349 0.12001 0.61858
 H1539 H 0.68520 0.09062 0.64768
 H1540 H 0.73612 0.13038 0.59140
 H1541 H 0.78274 0.05782 0.62596
 H1542 H 0.81483 0.06727 0.59745
 H1543 H 0.83061 0.09280 0.56369
 H1544 H 0.76761 0.13892 0.56250
 C1545 C 0.93643 0.62036 0.29874
 C1546 C 0.92377 0.60170 0.28607
 C1547 C 0.93459 0.57790 0.28078
 C1548 C 0.95738 0.57270 0.28927
 C1549 C 0.96953 0.59103 0.30253
 C1550 C 0.95935 0.61509 0.30698
 C1551 C 0.92249 0.55972 0.26708
 C1552 C 0.89938 0.56460 0.25931
 C1553 C 0.88810 0.58781 0.26567
 C1554 C 0.90050 0.60639 0.27864
 C1555 C 0.86458 0.59200 0.25895
 C1556 C 0.85238 0.57346 0.24596
 C1557 C 0.86365 0.55072 0.23879
 C1558 C 0.88729 0.54655 0.24541
 H1559 H 0.92846 0.63886 0.30235
 H1560 H 0.96586 0.55450 0.28557
 H1561 H 0.98724 0.58674 0.30866
 H1562 H 0.93099 0.54170 0.26263
 H1563 H 0.89200 0.62441 0.28308
 H1564 H 0.85556 0.60954 0.26388
 H1565 H 0.83413 0.57699 0.24120
 H1566 H 0.89623 0.52920 0.23978
 C1567 C 0.95822 0.35989 0.73426
 C1568 C 0.94361 0.37544 0.74863
 C1569 C 0.92823 0.39338 0.73752
 C1570 C 0.92738 0.39525 0.71243
 C1571 C 0.94207 0.38005 0.69836
 C1572 C 0.95783 0.36246 0.70902
 C1573 C 0.91424 0.40958 0.75161
 C1574 C 0.91558 0.40841 0.77673
 C1575 C 0.93066 0.39031 0.78800
 C1576 C 0.94450 0.37382 0.77387
 C1577 C 0.93189 0.38937 0.81323
 C1578 C 0.91872 0.40656 0.82707
 C1579 C 0.90412 0.42488 0.81590
 C1580 C 0.90237 0.42547 0.79074
 H1581 H 0.97034 0.34647 0.74270
 H1582 H 0.91562 0.40882 0.70366
 H1583 H 0.94124 0.38231 0.67899
 H1584 H 0.90264 0.42346 0.74299
 H1585 H 0.95624 0.36011 0.78250
 H1586 H 0.94328 0.37561 0.82222
 H1587 H 0.92020 0.40591 0.84649
 H1588 H 0.89101 0.43957 0.78214
 C1589 C 0.06008 0.63579 0.71191
 C1590 C 0.07608 0.62408 0.72776
 C1591 C 0.07511 0.62969 0.75257
 C1592 C 0.05869 0.64774 0.76090
 C1593 C 0.04276 0.65934 0.74494
 C1594 C 0.04297 0.65303 0.72042
 C1595 C 0.09009 0.61664 0.76867
 C1596 C 0.10576 0.59783 0.76025
 C1597 C 0.10719 0.59292 0.73528
 C1598 C 0.09250 0.60621 0.71922
 C1599 C 0.12274 0.57411 0.72682
 C1600 C 0.13599 0.55946 0.74299
 C1601 C 0.13405 0.56349 0.76782
 C1602 C 0.11938 0.58314 0.77640
 H1603 H 0.06057 0.63097 0.69298
 H1604 H 0.05777 0.65241 0.77982
 H1605 H 0.02977 0.67260 0.75193
 H1606 H 0.08904 0.62054 0.78777
 H1607 H 0.09331 0.60205 0.70015
 H1608 H 0.12412 0.57021 0.70776
 H1609 H 0.14728 0.54436 0.73620
 H1610 H 0.11784 0.58613 0.79561
 C1611 C 0.05751 0.35615 0.26734
 C1612 C 0.06921 0.37257 0.25110
 C1613 C 0.07211 0.36511 0.22687
 C1614 C 0.06426 0.34096 0.21957
 C1615 C 0.05281 0.32470 0.23586
 C1616 C 0.04882 0.33234 0.25971
 C1617 C 0.08241 0.38206 0.21021
 C1618 C 0.09016 0.40627 0.21752
 C1619 C 0.08821 0.41334 0.24194
 C1620 C 0.07758 0.39652 0.25855
 C1621 C 0.09681 0.43721 0.24928
 C1622 C 0.10707 0.45398 0.23256
 C1623 C 0.10839 0.44747 0.20812
 C1624 C 0.09983 0.42354 0.20074
 H1625 H 0.05465 0.36220 0.28573
 H1626 H 0.06651 0.33487 0.20112
 H1627 H 0.04625 0.30650 0.22947
 H1628 H 0.08423 0.37649 0.19155
 H1629 H 0.07565 0.40215 0.27718
 H1630 H 0.09567 0.44286 0.26795
 H1631 H 0.11387 0.47220 0.23865
 H1632 H 0.10081 0.41840 0.18191
   
