data_POSCAR
  _audit_creation_date              2014-09-24
  _audit_creation_method            'ToBaCCo'
  _symmetry_space_group_name_H-M    'P1'
  _symmetry_Int_Tables_number       1
  _symmetry_cell_setting            triclinic
  loop_
  _symmetry_equiv_pos_as_xyz
 x,y,z
_cell_length_a 88.7692
_cell_length_b 89.5483
_cell_length_c 88.6868
_cell_angle_alpha 90.030500
_cell_angle_beta 90.032400
_cell_angle_gamma 89.946200
loop_
  _atom_site_label
  _atom_site_type_symbol
  _atom_site_fract_x
  _atom_site_fract_y
  _atom_site_fract_z
C1 C 0.30887 0.44010 0.92163
 C2 C 0.32150 0.44686 0.92829
 C3 C 0.32809 0.44112 0.94158
 C4 C 0.32134 0.42843 0.94823
 C5 C 0.30868 0.42154 0.94172
 C6 C 0.30250 0.42749 0.92846
 H7 H 0.32572 0.45703 0.92327
 H8 H 0.32619 0.42339 0.95818
 H9 H 0.29307 0.42193 0.92313
 C10 C 0.44131 0.83033 0.44205
 C11 C 0.44819 0.82377 0.42928
 C12 C 0.44233 0.81080 0.42257
 C13 C 0.42949 0.80411 0.42878
 C14 C 0.42241 0.81028 0.44146
 C15 C 0.42837 0.82328 0.44802
 H16 H 0.45783 0.82898 0.42402
 H17 H 0.42486 0.79417 0.42359
 H18 H 0.42292 0.82766 0.45798
 C19 C 0.93921 0.91855 0.81087
 C20 C 0.94561 0.92503 0.82380
 C21 C 0.93930 0.93789 0.83057
 C22 C 0.92637 0.94421 0.82377
 C23 C 0.91985 0.93788 0.81081
 C24 C 0.92638 0.92509 0.80444
 H25 H 0.95595 0.92027 0.82809
 H26 H 0.92064 0.95353 0.82899
 H27 H 0.92135 0.92010 0.79452
 C28 C 0.44092 -0.07924 0.30981
 C29 C 0.44715 -0.07277 0.32282
 C30 C 0.44044 -0.06025 0.32961
 C31 C 0.42741 -0.05408 0.32311
 C32 C 0.42102 -0.06036 0.31007
 C33 C 0.42790 -0.07291 0.30347
 H34 H 0.45737 -0.07741 0.32760
 H35 H 0.42189 -0.04473 0.32855
 H36 H 0.42296 -0.07789 0.29350
 C37 C 0.80926 0.31096 0.32828
 C38 C 0.82227 0.30436 0.32219
 C39 C 0.82944 0.31058 0.30956
 C40 C 0.82338 0.32351 0.30294
 C41 C 0.81039 0.33028 0.30886
 C42 C 0.80337 0.32389 0.32150
 H43 H 0.82694 0.29447 0.32742
 H44 H 0.82892 0.32843 0.29326
 H45 H 0.79341 0.32911 0.32620
 C46 C -0.19020 0.83134 0.80992
 C47 C -0.17713 0.82481 0.80370
 C48 C -0.17064 0.81198 0.81003
 C49 C -0.17735 0.80541 0.82268
 C50 C -0.19041 0.81150 0.82933
 C51 C -0.19673 0.82442 0.82268
 H52 H -0.17127 0.83015 0.79448
 H53 H -0.17261 0.79509 0.82687
 H54 H -0.20674 0.82922 0.82756
 C55 C 0.94213 0.32844 0.44134
 C56 C 0.92933 0.32191 0.44787
 C57 C 0.92261 0.30922 0.44141
 C58 C 0.92896 0.30298 0.42833
 C59 C 0.94178 0.30934 0.42164
 C60 C 0.94833 0.32202 0.42829
 H61 H 0.92442 0.32686 0.45787
 H62 H 0.92354 0.29351 0.42300
 H63 H 0.95838 0.32682 0.42336
 C64 C 0.44005 0.43899 0.82965
 C65 C 0.42691 0.44528 0.82322
 C66 C 0.41991 0.43883 0.81059
 C67 C 0.42617 0.42595 0.80414
 C68 C 0.43918 0.41943 0.81020
 C69 C 0.44605 0.42600 0.82283
 H70 H 0.42139 0.45469 0.82853
 H71 H 0.42101 0.42110 0.79421
 H72 H 0.45627 0.42097 0.82710
 C73 C 0.81028 0.92058 0.94032
 C74 C 0.82330 0.92711 0.94646
 C75 C 0.82988 0.93971 0.93973
 C76 C 0.82321 0.94586 0.92677
 C77 C 0.81020 0.93949 0.92046
 C78 C 0.80377 0.92691 0.92736
 H79 H 0.82866 0.92201 0.95615
 H80 H 0.82828 0.95550 0.92145
 H81 H 0.79357 0.92213 0.92273
 C82 C 0.30801 0.82889 0.30747
 C83 C 0.32090 0.82215 0.30103
 C84 C 0.32743 0.80929 0.30736
 C85 C 0.32090 0.80290 0.32021
 C86 C 0.30807 0.80925 0.32683
 C87 C 0.30168 0.82209 0.32037
 H88 H 0.32640 0.82715 0.29141
 H89 H 0.32619 0.79330 0.32543
 H90 H 0.29135 0.82635 0.32521
 C91 C 0.80777 0.42145 0.44151
 C92 C 0.82053 0.42806 0.44807
 C93 C 0.82734 0.44085 0.44168
 C94 C 0.82077 0.44693 0.42852
 C95 C 0.80801 0.44043 0.42183
 C96 C 0.80156 0.42776 0.42845
 H97 H 0.82493 0.42321 0.45832
 H98 H 0.82608 0.45614 0.42271
 H99 H 0.79156 0.42285 0.42350
 C100 C 0.94109 0.83086 -0.06014
 C101 C 0.94703 0.82436 -0.07339
 C102 C 0.94052 0.81161 -0.07990
 C103 C 0.92795 0.80507 -0.07300
 C104 C 0.92181 0.81118 -0.05981
 C105 C 0.92845 0.82394 -0.05344
 H106 H 0.95718 0.82876 -0.07846
 H107 H 0.92258 0.79552 -0.07824
 H108 H 0.92325 0.82872 -0.04353
 C109 C 0.30975 0.33024 0.80937
 C110 C 0.30311 0.32337 0.82197
 C111 C 0.30949 0.31049 0.82838
 C112 C 0.32256 0.30440 0.82193
 C113 C 0.32940 0.31111 0.80937
 C114 C 0.32286 0.32399 0.80311
 H115 H 0.29308 0.32818 0.82694
 H116 H 0.32736 0.29429 0.82662
 H117 H 0.32832 0.32950 0.79372
 C118 C 0.16987 0.56140 0.55963
 C119 C 0.17662 0.55487 0.57236
 C120 C 0.18971 0.56103 0.57875
 C121 C 0.19611 0.57381 0.57216
 C122 C 0.18953 0.58050 0.55944
 C123 C 0.17646 0.57416 0.55322
 H124 H 0.17134 0.54533 0.57767
 H125 H 0.20614 0.57868 0.57708
 H126 H 0.17150 0.57908 0.54322
 C127 C 0.58129 0.68802 0.06106
 C128 C 0.57482 0.69447 0.07397
 C129 C 0.56199 0.68816 0.08070
 C130 C 0.55557 0.67530 0.07430
 C131 C 0.56188 0.66869 0.06139
 C132 C 0.57470 0.67517 0.05482
 H133 H 0.57988 0.70433 0.07889
 H134 H 0.54598 0.67010 0.07970
 H135 H 0.57944 0.67032 0.04469
 C136 C 0.69163 0.19030 0.67155
 C137 C 0.67877 0.19666 0.67813
 C138 C 0.67251 0.19057 0.69127
 C139 C 0.67934 0.17805 0.69791
 C140 C 0.69225 0.17129 0.69154
 C141 C 0.69832 0.17775 0.67833
 H142 H 0.67328 0.20602 0.67268
 H143 H 0.67480 0.17403 0.70846
 H144 H 0.70794 0.17277 0.67281
 C145 C 1.07657 0.05754 0.19293
 C146 C 1.06995 0.05117 0.18006
 C147 C 1.05699 0.05749 0.17332
 C148 C 1.05072 0.07037 0.18010
 C149 C 1.05721 0.07686 0.19297
 C150 C 1.07006 0.07031 0.19935
 H151 H 1.07568 0.04188 0.17479
 H152 H 1.04062 0.07542 0.17557
 H153 H 1.07496 0.07512 0.20943
 C154 C 0.05867 0.17134 1.05854
 C155 C 0.05216 0.17829 1.07117
 C156 C 0.05872 0.19106 1.07784
 C157 C 0.07196 0.19684 1.07121
 C158 C 0.07862 0.19003 1.05859
 C159 C 0.07186 0.17733 1.05230
 H160 H 0.04226 0.17321 1.07606
 H161 H 0.07692 0.20706 1.07538
 H162 H 0.07721 0.17174 1.04287
 C163 C 0.17131 0.68967 0.69037
 C164 C 0.17749 0.69594 0.67723
 C165 C 0.19037 0.68971 0.67048
 C166 C 0.19713 0.67714 0.67712
 C167 C 0.19111 0.67069 0.69023
 C168 C 0.17824 0.67708 0.69681
 H169 H 0.17192 0.70533 0.67191
 H170 H 0.20723 0.67245 0.67216
 H171 H 0.17348 0.67212 0.70686
 C172 C 1.19210 0.17062 0.19072
 C173 C 1.17930 0.17701 0.19743
 C174 C 1.17238 0.18967 0.19112
 C175 C 1.17851 0.19602 0.17800
 C176 C 1.19131 0.18979 0.17113
 C177 C 1.19807 0.17715 0.17763
 H178 H 1.17457 0.17197 0.20746
 H179 H 1.17293 0.20546 0.17278
 H180 H 1.20812 0.17246 0.17257
 C181 C 0.67148 1.06075 0.55807
 C182 C 0.67820 1.07370 0.55191
 C183 C 0.69107 1.08038 0.55846
 C184 C 0.69733 1.07357 0.57135
 C185 C 0.69096 1.06071 0.57769
 C186 C 0.67818 1.05436 0.57098
 H187 H 0.67326 1.07872 0.54203
 H188 H 0.70763 1.07781 0.57626
 H189 H 0.67295 1.04498 0.57658
 C190 C 0.55903 0.56087 0.17149
 C191 C 0.57172 0.55408 0.17800
 C192 C 0.57855 0.56016 0.19091
 C193 C 0.57244 0.57313 0.19739
 C194 C 0.55975 0.58010 0.19104
 C195 C 0.55309 0.57385 0.17812
 H196 H 0.57645 0.54414 0.17288
 H197 H 0.57771 0.57795 0.20727
 H198 H 0.54337 0.57922 0.17309
 C199 C 0.67136 0.69020 0.19052
 C200 C 0.67800 0.69620 0.17750
 C201 C 0.69096 0.68970 0.17119
 C202 C 0.69734 0.67710 0.17815
 C203 C 0.69086 0.67093 0.19118
 C204 C 0.67791 0.67760 0.19732
 H205 H 0.67295 0.70585 0.17213
 H206 H 0.70726 0.67195 0.17329
 H207 H 0.67278 0.67283 0.20729
 C208 C 0.17238 0.05979 1.05761
 C209 C 0.17881 0.07293 1.05160
 C210 C 0.19150 0.07963 1.05820
 C211 C 0.19809 0.07299 1.07090
 C212 C 0.19207 0.05990 1.07712
 C213 C 0.17934 0.05337 1.07041
 H214 H 0.17441 0.07781 1.04135
 H215 H 0.20783 0.07816 1.07610
 H216 H 0.17435 0.04381 1.07593
 C217 C 0.57830 0.19091 0.55766
 C218 C 0.57148 0.17817 0.55146
 C219 C 0.55849 0.17199 0.55798
 C220 C 0.55220 0.17884 0.57077
 C221 C 0.55884 0.19162 0.57713
 C222 C 0.57184 0.19761 0.57044
 H223 H 0.57624 0.17312 0.54143
 H224 H 0.54249 0.17385 0.57617
 H225 H 0.57711 0.20738 0.57535
 C226 C 0.07698 0.55883 0.69143
 C227 C 0.07033 0.57148 0.69802
 C228 C 0.05751 0.57814 0.69157
 C229 C 0.05127 0.57190 0.67844
 C230 C 0.05776 0.55924 0.67169
 C231 C 0.07054 0.55273 0.67834
 H232 H 0.07529 0.57630 0.70806
 H233 H 0.04173 0.57728 0.67309
 H234 H 0.07542 0.54279 0.67337
 C235 C 0.67034 0.56194 0.05958
 C236 C 0.67716 0.55538 0.07226
 C237 C 0.69023 0.56156 0.07865
 C238 C 0.69655 0.57440 0.07212
 C239 C 0.68991 0.58113 0.05945
 C240 C 0.67685 0.57477 0.05322
 H241 H 0.67193 0.54578 0.07753
 H242 H 0.70657 0.57929 0.07704
 H243 H 0.67184 0.57971 0.04326
 C244 C 0.05972 0.68945 0.57783
 C245 C 0.07274 0.69563 0.57136
 C246 C 0.07958 0.68897 0.55876
 C247 C 0.07312 0.67608 0.55249
 C248 C 0.06007 0.66974 0.55877
 C249 C 0.05342 0.67654 0.57141
 H250 H 0.07748 0.70575 0.57606
 H251 H 0.07838 0.67083 0.54283
 H252 H 0.04368 0.67143 0.57662
 C253 C 0.55745 1.05858 0.67322
 C254 C 0.55096 1.07146 0.67977
 C255 C 0.55739 1.07855 0.69250
 C256 C 0.57050 1.07219 0.69882
 C257 C 0.57714 1.05938 0.69260
 C258 C 0.57052 1.05265 0.67997
 H259 H 0.54093 1.07613 0.67480
 H260 H 0.57628 1.07767 0.70802
 H261 H 0.57540 1.04235 0.67586
 C262 C 0.44145 0.32936 0.94101
 C263 C 0.44759 0.32300 0.92790
 C264 C 0.44097 0.31041 0.92117
 C265 C 0.42813 0.30405 0.92784
 C266 C 0.42184 0.31023 0.94098
 C267 C 0.42863 0.32284 0.94752
 H268 H 0.45766 0.32779 0.92300
 H269 H 0.42267 0.29465 0.92245
 H270 H 0.42377 0.32774 0.95757
 C271 C 0.94111 0.43869 0.32860
 C272 C 0.92801 0.44500 0.32211
 C273 C 0.92100 0.43848 0.30953
 C274 C 0.92721 0.42554 0.30318
 C275 C 0.94019 0.41900 0.30931
 C276 C 0.94707 0.42564 0.32190
 H277 H 0.92253 0.45446 0.32735
 H278 H 0.92203 0.42062 0.29329
 H279 H 0.95726 0.42059 0.32622
 C280 C 0.31019 0.93878 0.42030
 C281 C 0.32307 0.94515 0.42690
 C282 C 0.32944 0.93900 0.44000
 C283 C 0.32268 0.92643 0.44659
 C284 C 0.30983 0.91987 0.44015
 C285 C 0.30361 0.92618 0.42705
 H286 H 0.32827 0.95479 0.42171
 H287 H 0.32736 0.92181 0.45686
 H288 H 0.29399 0.92090 0.42174
 O289 O 0.20935 0.51962 0.74931
 O290 O 0.21412 0.51747 0.77502
 O291 O 0.24898 0.54009 0.73141
 O292 O 0.27377 0.53555 0.73083
 O293 O 0.23012 0.50131 0.70987
 O294 O 0.23113 0.47525 0.71510
 O295 O 0.28861 0.49901 0.77015
 O296 O 0.28454 0.52447 0.76740
 O297 O 0.25037 0.48043 0.78928
 O298 O 0.22328 0.48155 0.78404
 O299 O 0.26877 0.46104 0.75094
 O300 O 0.26821 0.46628 0.72413
 O301 O 0.28868 0.48118 0.75187
 O302 O 0.28330 0.48312 0.72375
 O303 O 0.25057 0.46080 0.76893
 O304 O 0.22276 0.46651 0.76710
 O305 O 0.26877 0.49803 0.78948
 O306 O 0.26385 0.52517 0.78493
 O307 O 0.20918 0.50151 0.73127
 O308 O 0.21479 0.47494 0.73220
 O309 O 0.24831 0.51915 0.70998
 O310 O 0.27559 0.51655 0.71620
 O311 O 0.23043 0.53998 0.74907
 O312 O 0.23378 0.53388 0.77625
 Zr313 Zr 0.23119 0.51832 0.75837
 O314 O 0.24417 0.50474 0.77276
 Zr315 Zr 0.25764 0.51823 0.73182
 O316 O 0.27199 0.50515 0.74537
 Zr317 Zr 0.23103 0.49219 0.73170
 O318 O 0.24439 0.47767 0.74477
 Zr319 Zr 0.26706 0.50842 0.76828
 O320 O 0.25415 0.52317 0.75480
 Zr321 Zr 0.24066 0.48212 0.76772
 O322 O 0.22613 0.49562 0.75462
 Zr323 Zr 0.26734 0.48250 0.74147
 O324 O 0.25396 0.49558 0.72671
 O325 O 0.23487 0.51471 0.73551
 O326 O 0.26353 0.48577 0.76435
 C327 C 0.20281 0.51205 0.73884
 C328 C 0.23828 0.54645 0.73879
 C329 C 0.23773 0.51174 0.70347
 C330 C 0.29492 0.48830 0.76284
 C331 C 0.26134 0.48735 0.79565
 C332 C 0.26145 0.45466 0.76164
 H333 H 0.24175 0.50709 0.78339
 H334 H 0.24199 0.46722 0.74214
 H335 H 0.22847 0.52118 0.72911
 H336 H 0.28261 0.50768 0.74321
 H337 H 0.27981 0.53399 0.76426
 H338 H 0.28134 0.53340 0.73870
 H339 H 0.22466 0.45955 0.75864
 H340 H 0.20961 0.47570 0.74205
 H341 H 0.27239 0.52458 0.79211
 H342 H 0.22585 0.54164 0.77533
 H343 H 0.25856 0.46077 0.72427
 H344 H 0.24127 0.47543 0.71044
 H345 H 0.20992 0.50724 0.77477
 H346 H 0.22410 0.49070 0.79023
 H347 H 0.27371 0.50751 0.71005
 H348 H 0.29057 0.49118 0.72599
 O349 O 0.21002 0.01885 0.24838
 O350 O 0.21475 0.01675 0.27408
 O351 O 0.24969 0.03942 0.23057
 O352 O 0.27448 0.03490 0.23007
 O353 O 0.23094 0.00062 0.20895
 O354 O 0.23198 -0.02546 0.21421
 O355 O 0.28929 -0.00161 0.26934
 O356 O 0.28516 0.02384 0.26659
 O357 O 0.25108 -0.02028 0.28843
 O358 O 0.22392 -0.01907 0.28316
 O359 O 0.26943 -0.03967 0.25013
 O360 O 0.26895 -0.03438 0.22329
 O361 O 0.28939 -0.01948 0.25110
 O362 O 0.28409 -0.01762 0.22301
 O363 O 0.25115 -0.03990 0.26803
 O364 O 0.22343 -0.03415 0.26628
 O365 O 0.26944 -0.00263 0.28864
 O366 O 0.26447 0.02449 0.28410
 O367 O 0.20993 0.00076 0.23032
 O368 O 0.21554 -0.02576 0.23121
 O369 O 0.24912 0.01846 0.20913
 O370 O 0.27635 0.01592 0.21540
 O371 O 0.23111 0.03927 0.24820
 O372 O 0.23437 0.03317 0.27537
 Zr373 Zr 0.23186 0.01762 0.25747
 O374 O 0.24483 0.00407 0.27191
 Zr375 Zr 0.25837 0.01756 0.23099
 O376 O 0.27269 0.00447 0.24456
 Zr377 Zr 0.23178 -0.00851 0.23080
 O378 O 0.24511 -0.02301 0.24392
 Zr379 Zr 0.26772 0.00776 0.26745
 O380 O 0.25482 0.02249 0.25396
 Zr381 Zr 0.24133 -0.01855 0.26686
 O382 O 0.22683 -0.00508 0.25371
 Zr383 Zr 0.26806 -0.01819 0.24066
 O384 O 0.25472 -0.00510 0.22587
 O385 O 0.23558 0.01402 0.23462
 O386 O 0.26422 -0.01491 0.26354
 C387 C 0.20352 0.01127 0.23790
 C388 C 0.23898 0.04577 0.23795
 C389 C 0.23858 0.01104 0.20258
 C390 C 0.29561 -0.01232 0.26204
 C391 C 0.26204 -0.01334 0.29480
 C392 C 0.26202 -0.04607 0.26076
 H393 H 0.24240 0.00642 0.28253
 H394 H 0.24270 -0.03346 0.24129
 H395 H 0.22920 0.02048 0.22821
 H396 H 0.28331 0.00700 0.24241
 H397 H 0.28042 0.03336 0.26345
 H398 H 0.28209 0.03269 0.23790
 H399 H 0.22523 -0.04102 0.25773
 H400 H 0.21036 -0.02504 0.24107
 H401 H 0.27300 0.02392 0.29130
 H402 H 0.22644 0.04093 0.27443
 H403 H 0.25932 -0.03993 0.22346
 H404 H 0.24211 -0.02523 0.20955
 H405 H 0.21061 0.00649 0.27387
 H406 H 0.22485 -0.01000 0.28945
 H407 H 0.27454 0.00683 0.20930
 H408 H 0.29130 -0.00948 0.22520
 O409 O 0.46037 0.75155 0.27014
 O410 O 0.46522 0.72603 0.26850
 O411 O 0.49996 0.76982 0.29044
 O412 O 0.52475 0.77027 0.28588
 O413 O 0.48104 0.79023 0.25081
 O414 O 0.48206 0.78442 0.22459
 O415 O 0.53972 0.73070 0.24981
 O416 O 0.53563 0.73396 0.27547
 O417 O 0.50152 0.71114 0.23149
 O418 O 0.47435 0.71630 0.23255
 O419 O 0.51973 0.74866 0.21108
 O420 O 0.51897 0.77544 0.21579
 O421 O 0.53968 0.74842 0.23144
 O422 O 0.53420 0.77619 0.23264
 O423 O 0.50160 0.73081 0.21123
 O424 O 0.47381 0.73266 0.21692
 O425 O 0.51998 0.71144 0.24923
 O426 O 0.51504 0.71651 0.27651
 O427 O 0.46016 0.76898 0.25145
 O428 O 0.46570 0.76751 0.22470
 O429 O 0.49927 0.79054 0.26881
 O430 O 0.52651 0.78441 0.26641
 O431 O 0.48149 0.75225 0.29070
 O432 O 0.48488 0.72523 0.28512
 Zr433 Zr 0.48224 0.74258 0.26904
 O434 O 0.49528 0.72805 0.25566
 Zr435 Zr 0.50862 0.76892 0.26839
 O436 O 0.52298 0.75528 0.25546
 Zr437 Zr 0.48198 0.76839 0.24208
 O438 O 0.49534 0.75513 0.22771
 Zr439 Zr 0.51816 0.73265 0.25927
 O440 O 0.50520 0.74627 0.27386
 Zr441 Zr 0.49171 0.73250 0.23271
 O442 O 0.47715 0.74576 0.24604
 Zr443 Zr 0.51827 0.75860 0.23250
 O444 O 0.50490 0.77347 0.24541
 O445 O 0.48585 0.76513 0.26490
 O446 O 0.51458 0.73600 0.23631
 C447 C 0.45381 0.76173 0.26226
 C448 C 0.48931 0.76260 0.29702
 C449 C 0.48867 0.79681 0.26119
 C450 C 0.54598 0.73776 0.23886
 C451 C 0.51255 0.70505 0.23859
 C452 C 0.51246 0.73789 0.20488
 H453 H 0.49291 0.71757 0.25827
 H454 H 0.49291 0.75747 0.21709
 H455 H 0.47945 0.77161 0.27129
 H456 H 0.53360 0.75752 0.25796
 H457 H 0.53089 0.73725 0.28502
 H458 H 0.53242 0.76254 0.28379
 H459 H 0.47564 0.74091 0.20974
 H460 H 0.46062 0.75771 0.22561
 H461 H 0.52363 0.70943 0.27609
 H462 H 0.47693 0.72628 0.29292
 H463 H 0.50943 0.77495 0.21005
 H464 H 0.49218 0.78905 0.22469
 H465 H 0.46099 0.72607 0.25817
 H466 H 0.47528 0.71033 0.24188
 H467 H 0.52466 0.79023 0.25710
 H468 H 0.54137 0.77431 0.24097
 O469 O 0.03907 0.72976 0.74825
 O470 O 0.03425 0.73204 0.77401
 O471 O -0.00062 0.70966 0.73018
 O472 O -0.02540 0.71438 0.72969
 O473 O 0.01849 0.74836 0.70881
 O474 O 0.01776 0.77444 0.71417
 O475 O -0.04010 0.75116 0.76878
 O476 O -0.03626 0.72561 0.76598
 O477 O -0.00178 0.76927 0.78821
 O478 O 0.02539 0.76784 0.78309
 O479 O -0.01981 0.78889 0.74989
 O480 O -0.01899 0.78359 0.72286
 O481 O -0.03990 0.76898 0.75052
 O482 O -0.03451 0.76716 0.72257
 O483 O -0.00165 0.78892 0.76793
 O484 O 0.02606 0.78299 0.76628
 O485 O -0.02037 0.75186 0.78824
 O486 O -0.01569 0.72470 0.78366
 O487 O 0.03943 0.74788 0.73024
 O488 O 0.03415 0.77446 0.73125
 O489 O 0.00019 0.73064 0.70882
 O490 O -0.02700 0.73339 0.71490
 O491 O 0.01778 0.70963 0.74802
 O492 O 0.01449 0.71575 0.77516
 Zr493 Zr 0.01722 0.73128 0.75729
 O494 O 0.00427 0.74493 0.77166
 Zr495 Zr -0.00915 0.73159 0.73064
 O496 O -0.02342 0.74484 0.74410
 Zr497 Zr 0.01769 0.75742 0.73068
 O498 O 0.00445 0.77206 0.74374
 Zr499 Zr -0.01864 0.74149 0.76703
 O500 O -0.00577 0.72663 0.75362
 Zr501 Zr 0.00804 0.76752 0.76670
 O502 O 0.02250 0.75393 0.75361
 Zr503 Zr -0.01852 0.76746 0.74029
 O504 O -0.00525 0.75422 0.72558
 O505 O 0.01364 0.73493 0.73443
 O506 O -0.01485 0.76411 0.76318
 C507 C 0.04568 0.73726 0.73779
 C508 C 0.00996 0.70321 0.73767
 C509 C 0.01081 0.73799 0.70236
 C510 C -0.04626 0.76194 0.76144
 C511 C -0.01287 0.76245 0.79449
 C512 C -0.01247 0.79517 0.76065
 H513 H 0.00661 0.74254 0.78229
 H514 H 0.00697 0.78249 0.74117
 H515 H 0.01998 0.72841 0.72803
 H516 H -0.03406 0.74243 0.74187
 H517 H -0.03160 0.71604 0.76286
 H518 H -0.03316 0.71680 0.73729
 H519 H 0.02435 0.78990 0.75775
 H520 H 0.03923 0.77369 0.74116
 H521 H -0.02428 0.72534 0.79078
 H522 H 0.02239 0.70795 0.77428
 H523 H -0.00951 0.78936 0.72343
 H524 H 0.00763 0.77437 0.70950
 H525 H 0.03861 0.74221 0.77370
 H526 H 0.02438 0.75873 0.78930
 H527 H -0.02513 0.74252 0.70890
 H528 H -0.04168 0.75896 0.72457
 O529 O 0.04066 0.01955 0.00071
 O530 O 0.03574 0.01748 -0.02502
 O531 O 0.00118 0.03996 0.01897
 O532 O -0.02363 0.03549 0.01949
 O533 O 0.02003 0.00098 0.04018
 O534 O 0.01914 -0.02504 0.03468
 O535 O -0.03873 -0.00094 -0.01972
 O536 O -0.03465 0.02454 -0.01686
 O537 O -0.00065 -0.01944 -0.03928
 O538 O 0.02658 -0.01822 -0.03425
 O539 O -0.01862 -0.03902 -0.00101
 O540 O -0.01777 -0.03381 0.02601
 O541 O -0.03861 -0.01889 -0.00158
 O542 O -0.03313 -0.01724 0.02639
 O543 O -0.00049 -0.03915 -0.01905
 O544 O 0.02724 -0.03342 -0.01749
 O545 O -0.01909 -0.00184 -0.03921
 O546 O -0.01412 0.02526 -0.03459
 O547 O 0.04093 0.00140 0.01868
 O548 O 0.03546 -0.02513 0.01757
 O549 O 0.00182 0.01883 0.04025
 O550 O -0.02538 0.01645 0.03416
 O551 O 0.01955 0.03991 0.00112
 O552 O 0.01608 0.03395 -0.02604
 Zr553 Zr 0.01877 0.01830 -0.00826
 O554 O 0.00569 0.00483 -0.02267
 Zr555 Zr -0.00753 0.01812 0.01843
 O556 O -0.02193 0.00507 0.00493
 Zr557 Zr 0.01913 -0.00795 0.01825
 O558 O 0.00574 -0.02240 0.00514
 Zr559 Zr -0.01717 0.00847 -0.01799
 O560 O -0.00418 0.02315 -0.00453
 Zr561 Zr 0.00930 -0.01782 -0.01780
 O562 O 0.02389 -0.00441 -0.00468
 Zr563 Zr -0.01719 -0.01762 0.00864
 O564 O -0.00378 -0.00457 0.02339
 O565 O 0.01523 0.01459 0.01460
 O566 O -0.01356 -0.01421 -0.01424
 C567 C 0.04725 0.01197 0.01113
 C568 C 0.01180 0.04635 0.01152
 C569 C 0.01238 0.01134 0.04669
 C570 C -0.04495 -0.01170 -0.01243
 C571 C -0.01172 -0.01251 -0.04550
 C572 C -0.01131 -0.04535 -0.01176
 H573 H 0.00802 0.00723 -0.03329
 H574 H 0.00820 -0.03287 0.00768
 H575 H 0.02164 0.02102 0.02103
 H576 H -0.03254 0.00757 0.00719
 H577 H -0.02989 0.03405 -0.01373
 H578 H -0.03139 0.03322 0.01183
 H579 H 0.02554 -0.04031 -0.00895
 H580 H 0.04054 -0.02434 0.00767
 H581 H -0.02274 0.02472 -0.04169
 H582 H 0.02403 0.04168 -0.02514
 H583 H -0.00831 -0.03962 0.02545
 H584 H 0.00902 -0.02492 0.03936
 H585 H 0.03996 0.00725 -0.02483
 H586 H 0.02556 -0.00911 -0.04047
 H587 H -0.02360 0.00726 0.04010
 H588 H -0.04028 -0.00898 0.02441
 O589 O -0.04068 0.49876 0.47975
 O590 O -0.03597 0.52429 0.48145
 O591 O -0.00094 0.48062 0.45963
 O592 O 0.02385 0.48031 0.46429
 O593 O -0.01984 0.46011 0.49915
 O594 O -0.01900 0.46591 0.52537
 O595 O 0.03847 0.51985 0.50051
 O596 O 0.03451 0.51658 0.47482
 O597 O 0.00016 0.53923 0.51870
 O598 O -0.02701 0.53404 0.51741
 O599 O 0.01834 0.50171 0.53916
 O600 O 0.01783 0.47494 0.53432
 O601 O 0.03844 0.50218 0.51892
 O602 O 0.03320 0.47439 0.51762
 O603 O 0.00008 0.51949 0.53893
 O604 O -0.02759 0.51767 0.53301
 O605 O 0.01863 0.53902 0.50100
 O606 O 0.01384 0.53396 0.47369
 O607 O -0.04087 0.48128 0.49839
 O608 O -0.03546 0.48275 0.52518
 O609 O -0.00154 0.45988 0.48125
 O610 O 0.02563 0.46611 0.48376
 O611 O -0.01947 0.49815 0.45930
 O612 O -0.01625 0.52518 0.46492
 Zr613 Zr -0.01886 0.50780 0.48097
 O614 O -0.00595 0.52236 0.49443
 Zr615 Zr 0.00766 0.48154 0.48171
 O616 O 0.02190 0.49522 0.49475
 Zr617 Zr -0.01909 0.48195 0.50789
 O618 O -0.00586 0.49524 0.52234
 Zr619 Zr 0.01696 0.51782 0.49093
 O620 O 0.00413 0.50418 0.47626
 Zr621 Zr -0.00960 0.51787 0.51735
 O622 O -0.02403 0.50457 0.50394
 Zr623 Zr 0.01712 0.49186 0.51768
 O624 O 0.00387 0.47696 0.50467
 O625 O -0.01514 0.48524 0.48510
 O626 O 0.01331 0.51445 0.51387
 C627 C -0.04721 0.48854 0.48757
 C628 C -0.01160 0.48782 0.45301
 C629 C -0.01212 0.45356 0.48881
 C630 C 0.04472 0.51285 0.51152
 C631 C 0.01118 0.54537 0.51164
 C632 C 0.01091 0.51240 0.54536
 H633 H -0.00836 0.53283 0.49182
 H634 H -0.00834 0.49286 0.53293
 H635 H -0.02148 0.47875 0.47867
 H636 H 0.03254 0.49302 0.49231
 H637 H 0.02982 0.51329 0.46525
 H638 H 0.03152 0.48800 0.46649
 H639 H -0.02586 0.50933 0.54010
 H640 H -0.04062 0.49251 0.52422
 H641 H 0.02238 0.54107 0.47416
 H642 H -0.02417 0.52411 0.45708
 H643 H 0.00826 0.47539 0.54001
 H644 H -0.00887 0.46129 0.52531
 H645 H -0.04021 0.52424 0.49177
 H646 H -0.02601 0.54007 0.50812
 H647 H 0.02382 0.46033 0.49310
 H648 H 0.04039 0.47631 0.50932
 O649 O 0.50011 0.04041 0.52035
 O650 O 0.47444 0.03546 0.51835
 O651 O 0.51854 0.00140 0.54112
 O652 O 0.51945 -0.02317 0.53664
 O653 O 0.53953 0.02006 0.50157
 O654 O 0.53400 0.01888 0.47532
 O655 O 0.47999 -0.03850 0.50026
 O656 O 0.48294 -0.03425 0.52590
 O657 O 0.46019 -0.00092 0.48140
 O658 O 0.46512 0.02604 0.48235
 O659 O 0.49846 -0.01883 0.46157
 O660 O 0.52536 -0.01797 0.46663
 O661 O 0.49804 -0.03850 0.48207
 O662 O 0.52604 -0.03288 0.48364
 O663 O 0.48032 -0.00095 0.46139
 O664 O 0.48183 0.02661 0.46697
 O665 O 0.46042 -0.01905 0.49929
 O666 O 0.46518 -0.01393 0.52661
 O667 O 0.51791 0.04063 0.50188
 O668 O 0.51677 0.03493 0.47511
 O669 O 0.53980 0.00219 0.51975
 O670 O 0.53390 -0.02491 0.51736
 O671 O 0.50065 0.01958 0.54102
 O672 O 0.47353 0.01608 0.53507
 Zr673 Zr 0.49125 0.01868 0.51922
 O674 O 0.47687 0.00556 0.50576
 Zr675 Zr 0.51808 -0.00728 0.51908
 O676 O 0.50458 -0.02172 0.50609
 Zr677 Zr 0.51761 0.01893 0.49260
 O678 O 0.50455 0.00547 0.47816
 Zr679 Zr 0.48168 -0.01705 0.50958
 O680 O 0.49513 -0.00401 0.52424
 Zr681 Zr 0.48163 0.00897 0.48285
 O682 O 0.49470 0.02359 0.49624
 Zr683 Zr 0.50817 -0.01721 0.48314
 O684 O 0.52290 -0.00373 0.49613
 O685 O 0.51409 0.01523 0.51541
 O686 O 0.48530 -0.01366 0.48663
 C687 C 0.51042 0.04693 0.51257
 C688 C 0.51104 0.01193 0.54754
 C689 C 0.54612 0.01266 0.51211
 C690 C 0.48726 -0.04476 0.48943
 C691 C 0.45405 -0.01182 0.48852
 C692 C 0.48764 -0.01169 0.45517
 H693 H 0.46625 0.00786 0.50821
 H694 H 0.50703 0.00782 0.46756
 H695 H 0.52047 0.02166 0.52186
 H696 H 0.50690 -0.03221 0.50868
 H697 H 0.48612 -0.02946 0.53545
 H698 H 0.51165 -0.03077 0.53459
 H699 H 0.49030 0.02485 0.45994
 H700 H 0.50687 0.03997 0.47593
 H701 H 0.45810 -0.02247 0.52615
 H702 H 0.47441 0.02402 0.54283
 H703 H 0.52495 -0.00849 0.46091
 H704 H 0.53875 0.00887 0.47551
 H705 H 0.47459 0.03958 0.50799
 H706 H 0.45902 0.02517 0.49164
 H707 H 0.53989 -0.02306 0.50813
 H708 H 0.52405 -0.03998 0.49194
 O709 O 0.45956 0.49895 -0.01924
 O710 O 0.46426 0.52448 -0.01753
 O711 O 0.49915 0.48089 -0.03973
 O712 O 0.52400 0.48067 -0.03526
 O713 O 0.48058 0.46025 -0.00016
 O714 O 0.48163 0.46596 0.02608
 O715 O 0.53882 0.52006 0.00098
 O716 O 0.53466 0.51690 -0.02470
 O717 O 0.50064 0.53932 0.01958
 O718 O 0.47344 0.53411 0.01839
 O719 O 0.51902 0.50181 0.03973
 O720 O 0.51848 0.47503 0.03481
 O721 O 0.53895 0.50234 0.01935
 O722 O 0.53375 0.47455 0.01800
 O723 O 0.50070 0.51952 0.03968
 O724 O 0.47298 0.51769 0.03394
 O725 O 0.51900 0.53919 0.00176
 O726 O 0.51397 0.53428 -0.02556
 O727 O 0.45953 0.48138 -0.00068
 O728 O 0.46513 0.48278 0.02607
 O729 O 0.49876 0.46011 -0.01820
 O730 O 0.52593 0.46637 -0.01586
 O731 O 0.48058 0.49840 -0.03986
 O732 O 0.48385 0.52542 -0.03420
 Zr733 Zr 0.48138 0.50800 -0.01817
 O734 O 0.49435 0.52254 -0.00476
 Zr735 Zr 0.50793 0.48178 -0.01771
 O736 O 0.52224 0.49544 -0.00473
 Zr737 Zr 0.48138 0.48206 0.00866
 O738 O 0.49468 0.49533 0.02306
 Zr739 Zr 0.51725 0.51805 -0.00843
 O740 O 0.50434 0.50444 -0.02307
 Zr741 Zr 0.49087 0.51796 0.01816
 O742 O 0.47637 0.50468 0.00482
 Zr743 Zr 0.51763 0.49200 0.01823
 O744 O 0.50432 0.47712 0.00526
 O745 O 0.48515 0.48544 -0.01415
 O746 O 0.51375 0.51459 0.01452
 C747 C 0.45309 0.48868 -0.01142
 C748 C 0.48841 0.48808 -0.04624
 C749 C 0.48823 0.45375 -0.01059
 C750 C 0.54516 0.51305 0.01193
 C751 C 0.51163 0.54548 0.01250
 C752 C 0.51161 0.51247 0.04600
 H753 H 0.49192 0.53302 -0.00731
 H754 H 0.49229 0.49291 0.03367
 H755 H 0.47877 0.47896 -0.02054
 H756 H 0.53287 0.49327 -0.00725
 H757 H 0.52989 0.51364 -0.03424
 H758 H 0.53168 0.48834 -0.03307
 H759 H 0.47478 0.50932 0.04100
 H760 H 0.45994 0.49252 0.02518
 H761 H 0.52251 0.54140 -0.02511
 H762 H 0.47589 0.52436 -0.04199
 H763 H 0.50897 0.47548 0.04060
 H764 H 0.49178 0.46136 0.02592
 H765 H 0.46011 0.52443 -0.00718
 H766 H 0.47442 0.54023 0.00916
 H767 H 0.52421 0.46056 -0.00652
 H768 H 0.54085 0.47649 0.00964
 O769 O 0.75100 0.27004 0.45988
 O770 O 0.72531 0.26788 0.46469
 O771 O 0.76913 0.29011 0.49962
 O772 O 0.76975 0.28539 0.52440
 O773 O 0.79041 0.25131 0.48039
 O774 O 0.78502 0.22528 0.48112
 O775 O 0.73046 0.24890 0.53910
 O776 O 0.73330 0.27435 0.53525
 O777 O 0.71102 0.23076 0.50068
 O778 O 0.71620 0.23203 0.47354
 O779 O 0.74932 0.21097 0.51877
 O780 O 0.77619 0.21611 0.51813
 O781 O 0.74865 0.23099 0.53894
 O782 O 0.77667 0.23274 0.53346
 O783 O 0.73128 0.21097 0.50062
 O784 O 0.73296 0.21685 0.47289
 O785 O 0.71101 0.24821 0.51927
 O786 O 0.71571 0.27534 0.51461
 O787 O 0.76896 0.25186 0.45947
 O788 O 0.76787 0.22525 0.46478
 O789 O 0.79045 0.26903 0.49874
 O790 O 0.78435 0.26631 0.52600
 O791 O 0.75130 0.29019 0.48121
 O792 O 0.72418 0.28415 0.48449
 Zr793 Zr 0.74200 0.26857 0.48175
 O794 O 0.72763 0.25497 0.49468
 Zr795 Zr 0.76866 0.26818 0.50811
 O796 O 0.75515 0.25504 0.52240
 Zr797 Zr 0.76854 0.24233 0.48123
 O798 O 0.75547 0.22777 0.49452
 Zr799 Zr 0.73225 0.25846 0.51760
 O800 O 0.74570 0.27324 0.50475
 Zr801 Zr 0.73255 0.23236 0.49092
 O802 O 0.74563 0.24590 0.47645
 Zr803 Zr 0.75890 0.23239 0.51752
 O804 O 0.77364 0.24553 0.50420
 O805 O 0.76484 0.26484 0.48530
 O806 O 0.73603 0.23580 0.51384
 C807 C 0.76143 0.26251 0.45324
 C808 C 0.76165 0.29658 0.48905
 C809 C 0.79688 0.26165 0.48809
 C810 C 0.73777 0.23813 0.54530
 C811 C 0.70473 0.23766 0.51172
 C812 C 0.73857 0.20470 0.51142
 H813 H 0.71702 0.25740 0.49231
 H814 H 0.75804 0.21732 0.49201
 H815 H 0.77125 0.27134 0.47896
 H816 H 0.75738 0.25746 0.53305
 H817 H 0.73648 0.28389 0.53060
 H818 H 0.76200 0.28313 0.53206
 H819 H 0.74148 0.20992 0.47461
 H820 H 0.75801 0.22611 0.45965
 H821 H 0.70857 0.27474 0.52318
 H822 H 0.72508 0.29196 0.47661
 H823 H 0.77587 0.21058 0.50849
 H824 H 0.78969 0.22533 0.49126
 H825 H 0.72558 0.25770 0.46033
 H826 H 0.71005 0.24121 0.47448
 H827 H 0.79039 0.25721 0.52406
 H828 H 0.77459 0.24085 0.54074
 O829 O 0.77042 0.79032 -0.00007
 O830 O 0.76850 0.78516 0.02562
 O831 O 0.79098 0.75152 -0.01900
 O832 O 0.78660 0.72692 -0.01985
 O833 O 0.75141 0.77032 -0.03961
 O834 O 0.72520 0.76918 -0.03396
 O835 O 0.75027 0.71131 0.01956
 O836 O 0.77592 0.71549 0.01652
 O837 O 0.73163 0.74877 0.03972
 O838 O 0.73255 0.77575 0.03498
 O839 O 0.71164 0.73119 0.00131
 O840 O 0.71660 0.73234 -0.02566
 O841 O 0.73205 0.71152 0.00151
 O842 O 0.73352 0.71732 -0.02646
 O843 O 0.71154 0.74888 0.01965
 O844 O 0.71710 0.77649 0.01830
 O845 O 0.74948 0.73059 0.03929
 O846 O 0.77675 0.73567 0.03446
 O847 O 0.75190 0.79072 -0.01785
 O848 O 0.72514 0.78513 -0.01658
 O849 O 0.76952 0.75237 -0.04008
 O850 O 0.76724 0.72526 -0.03434
 O851 O 0.79100 0.76950 -0.00089
 O852 O 0.78522 0.76573 0.02628
 Zr853 Zr 0.76929 0.76852 0.00865
 O854 O 0.75588 0.75532 0.02298
 Zr855 Zr 0.76901 0.74278 -0.01840
 O856 O 0.75606 0.72827 -0.00497
 Zr857 Zr 0.74257 0.76906 -0.01764
 O858 O 0.72818 0.75552 -0.00463
 Zr859 Zr 0.75965 0.73273 0.01799
 O860 O 0.77427 0.74585 0.00458
 Zr861 Zr 0.73297 0.75882 0.01832
 O862 O 0.74631 0.77352 0.00532
 Zr863 Zr 0.73313 0.73287 -0.00846
 O864 O 0.74606 0.74644 -0.02313
 O865 O 0.76536 0.76527 -0.01422
 O866 O 0.73672 0.73622 0.01445
 C867 C 0.76265 0.79693 -0.01036
 C868 C 0.79743 0.76199 -0.01145
 C869 C 0.76187 0.76292 -0.04629
 C870 C 0.73940 0.70516 0.01226
 C871 C 0.73876 0.73780 0.04576
 C872 C 0.70531 0.73820 0.01225
 H873 H 0.75838 0.75753 0.03361
 H874 H 0.71758 0.75791 -0.00706
 H875 H 0.77175 0.77172 -0.02060
 H876 H 0.75863 0.71779 -0.00738
 H877 H 0.78546 0.72028 0.01335
 H878 H 0.78447 0.71917 -0.01222
 H879 H 0.71001 0.77477 0.00986
 H880 H 0.72602 0.79007 -0.00664
 H881 H 0.77631 0.72705 0.04147
 H882 H 0.79297 0.77366 0.02543
 H883 H 0.71080 0.74175 -0.02506
 H884 H 0.72535 0.75922 -0.03879
 H885 H 0.75818 0.78934 0.02550
 H886 H 0.74188 0.77485 0.04102
 H887 H 0.75797 0.72712 -0.04026
 H888 H 0.74182 0.71019 -0.02455
 O889 O 1.00071 0.20924 0.23045
 O890 O 0.97507 0.21424 0.23239
 O891 O 1.01912 0.24826 0.20967
 O892 O 1.01994 0.27284 0.21414
 O893 O 1.04017 0.22957 0.24914
 O894 O 1.03470 0.23078 0.27542
 O895 O 0.98057 0.28817 0.25056
 O896 O 0.98348 0.28393 0.22490
 O897 O 0.96084 0.25061 0.26940
 O898 O 0.96580 0.22362 0.26840
 O899 O 0.99913 0.26844 0.28924
 O900 O 1.02601 0.26756 0.28415
 O901 O 0.99864 0.28813 0.26876
 O902 O 1.02663 0.28251 0.26718
 O903 O 0.98100 0.25057 0.28941
 O904 O 0.98250 0.22303 0.28381
 O905 O 0.96102 0.26875 0.25150
 O906 O 0.96574 0.26363 0.22420
 O907 O 1.01856 0.20901 0.24891
 O908 O 1.01752 0.21471 0.27565
 O909 O 1.04038 0.24749 0.23101
 O910 O 1.03444 0.27457 0.23341
 O911 O 1.00127 0.23007 0.20975
 O912 O 0.97413 0.23363 0.21569
 Zr913 Zr 0.99186 0.23100 0.23154
 O914 O 0.97749 0.24411 0.24503
 Zr915 Zr 1.01865 0.25694 0.23170
 O916 O 1.00516 0.27137 0.24472
 Zr917 Zr 1.01828 0.23072 0.25815
 O918 O 1.00520 0.24416 0.27262
 Zr919 Zr 0.98226 0.26672 0.24122
 O920 O 0.99571 0.25369 0.22654
 Zr921 Zr 0.98228 0.24069 0.26793
 O922 O 0.99536 0.22608 0.25452
 Zr923 Zr 1.00879 0.26684 0.26766
 O924 O 1.02352 0.25338 0.25464
 O925 O 1.01471 0.23442 0.23535
 O926 O 0.98592 0.26331 0.26416
 C927 C 1.01103 0.20270 0.23824
 C928 C 1.01165 0.23773 0.20324
 C929 C 1.04673 0.23700 0.23862
 C930 C 0.98784 0.29440 0.26140
 C931 C 0.95467 0.26153 0.26228
 C932 C 0.98833 0.26130 0.29563
 H933 H 0.96687 0.24182 0.24257
 H934 H 1.00771 0.24180 0.28321
 H935 H 1.02109 0.22799 0.22891
 H936 H 1.00746 0.28186 0.24213
 H937 H 0.98664 0.27914 0.21535
 H938 H 1.01218 0.28047 0.21624
 H939 H 0.99100 0.22476 0.29081
 H940 H 1.00760 0.20972 0.27488
 H941 H 0.95865 0.27219 0.22466
 H942 H 0.97503 0.22570 0.20791
 H943 H 1.02563 0.25808 0.28985
 H944 H 1.03947 0.24076 0.27519
 H945 H 0.97518 0.21015 0.24276
 H946 H 0.95962 0.22456 0.25916
 H947 H 1.04043 0.27273 0.24265
 H948 H 1.02463 0.28961 0.25887
 O949 O 0.71043 1.02053 0.74913
 O950 O 0.71543 1.01841 0.77479
 O951 O 0.75005 1.04050 0.73069
 O952 O 0.77478 1.03571 0.72988
 O953 O 0.73058 1.00178 0.70955
 O954 O 0.73135 0.97575 0.71492
 O955 O 0.78967 0.99918 0.76922
 O956 O 0.78586 1.02468 0.76635
 O957 O 0.75147 0.98113 0.78886
 O958 O 0.72431 0.98247 0.78388
 O959 O 0.76927 0.96134 0.75044
 O960 O 0.76843 0.96646 0.72357
 O961 O 0.78937 0.98126 0.75104
 O962 O 0.78372 0.98313 0.72296
 O963 O 0.75128 0.96139 0.76863
 O964 O 0.72352 0.96731 0.76707
 O965 O 0.77006 0.99855 0.78877
 O966 O 0.76536 1.02570 0.78410
 O967 O 0.70986 1.00233 0.73119
 O968 O 0.71519 0.97571 0.73220
 O969 O 0.74895 1.01943 0.70938
 O970 O 0.77626 1.01662 0.71532
 O971 O 0.73176 1.04065 0.74862
 O972 O 0.73526 1.03461 0.77577
 Zr973 Zr 0.73235 1.01902 0.75797
 O974 O 0.74535 1.00539 0.77229
 Zr975 Zr 0.75850 1.01855 0.73113
 O976 O 0.77286 1.00539 0.74458
 Zr977 Zr 0.73161 0.99277 0.73143
 O978 O 0.74498 0.97818 0.74443
 Zr979 Zr 0.76821 1.00883 0.76752
 O980 O 0.75531 1.02363 0.75412
 Zr981 Zr 0.74154 0.98278 0.76739
 O982 O 0.72701 0.99636 0.75439
 Zr983 Zr 0.76793 0.98276 0.74085
 O984 O 0.75452 0.99591 0.72617
 O985 O 0.73573 1.01528 0.73509
 O986 O 0.76442 0.98619 0.76376
 C987 C 0.70370 1.01299 0.73877
 C988 C 0.73954 1.04700 0.73821
 C989 C 0.73824 1.01209 0.70302
 C990 C 0.79579 0.98836 0.76192
 C991 C 0.76257 0.98799 0.79508
 C992 C 0.76203 0.95510 0.76128
 H993 H 0.74307 1.00782 0.78292
 H994 H 0.74244 0.96774 0.74188
 H995 H 0.72934 1.02178 0.72872
 H996 H 0.78348 1.00779 0.74229
 H997 H 0.78119 1.03424 0.76321
 H998 H 0.78244 1.03349 0.73765
 H999 H 0.72524 0.96032 0.75860
 H1000 H 0.71015 0.97656 0.74211
 H1001 H 0.77398 1.02508 0.79119
 H1002 H 0.72741 1.04245 0.77490
 H1003 H 0.75876 0.96099 0.72391
 H1004 H 0.74145 0.97577 0.71019
 H1005 H 0.71112 1.00822 0.77462
 H1006 H 0.72531 0.99164 0.79003
 H1007 H 0.77424 1.00755 0.70926
 H1008 H 0.79110 0.99112 0.72509
 O1009 O 0.74957 0.54020 0.23045
 O1010 O 0.77529 0.53536 0.23238
 O1011 O 0.73133 0.50132 0.20938
 O1012 O 0.73091 0.47665 0.21356
 O1013 O 0.71028 0.51946 0.24901
 O1014 O 0.71582 0.51815 0.27527
 O1015 O 0.77029 0.46128 0.24998
 O1016 O 0.76733 0.46567 0.22434
 O1017 O 0.78976 0.49881 0.26915
 O1018 O 0.78467 0.52576 0.26834
 O1019 O 0.75157 0.48065 0.28878
 O1020 O 0.72466 0.48138 0.28362
 O1021 O 0.75223 0.46109 0.26816
 O1022 O 0.72422 0.46648 0.26660
 O1023 O 0.76958 0.49863 0.28913
 O1024 O 0.76792 0.52621 0.28369
 O1025 O 0.78970 0.48082 0.25110
 O1026 O 0.78495 0.48609 0.22381
 O1027 O 0.73170 0.54017 0.24887
 O1028 O 0.73289 0.53435 0.27559
 O1029 O 0.71018 0.50165 0.23075
 O1030 O 0.71633 0.47462 0.23283
 O1031 O 0.74911 0.51956 0.20962
 O1032 O 0.77631 0.51609 0.21550
 Zr1033 Zr 0.75859 0.51850 0.23139
 O1034 O 0.77306 0.50539 0.24478
 Zr1035 Zr 0.73199 0.49238 0.23130
 O1036 O 0.74557 0.47795 0.24423
 Zr1037 Zr 0.73220 0.51842 0.25799
 O1038 O 0.74537 0.50497 0.27235
 Zr1039 Zr 0.76845 0.48277 0.24079
 O1040 O 0.75491 0.49582 0.22619
 Zr1041 Zr 0.76826 0.50863 0.26771
 O1042 O 0.75508 0.52325 0.25441
 Zr1043 Zr 0.74192 0.48230 0.26720
 O1044 O 0.72710 0.49576 0.25427
 O1045 O 0.73578 0.51489 0.23517
 O1046 O 0.76477 0.48601 0.26376
 C1047 C 0.73917 0.54660 0.23824
 C1048 C 0.73871 0.51196 0.20306
 C1049 C 0.70377 0.51204 0.23844
 C1050 C 0.76307 0.45493 0.26078
 C1051 C 0.79600 0.48799 0.26195
 C1052 C 0.76230 0.48783 0.29526
 H1053 H 0.78367 0.50777 0.24235
 H1054 H 0.74284 0.50725 0.28296
 H1055 H 0.72933 0.52132 0.22879
 H1056 H 0.74335 0.46746 0.24156
 H1057 H 0.76414 0.47051 0.21482
 H1058 H 0.73861 0.46896 0.21570
 H1059 H 0.75943 0.52439 0.29067
 H1060 H 0.74275 0.53945 0.27481
 H1061 H 0.79209 0.47757 0.22422
 H1062 H 0.77535 0.52407 0.20780
 H1063 H 0.72505 0.49078 0.28947
 H1064 H 0.71111 0.50813 0.27497
 H1065 H 0.77513 0.53939 0.24277
 H1066 H 0.79080 0.52496 0.25907
 H1067 H 0.71038 0.47630 0.24211
 H1068 H 0.72625 0.45947 0.25821
 O1069 O 0.50118 0.21049 0.73026
 O1070 O 0.47547 0.21540 0.73214
 O1071 O 0.51952 0.24948 0.70948
 O1072 O 0.52017 0.27409 0.71387
 O1073 O 0.54046 0.23100 0.74910
 O1074 O 0.53482 0.23226 0.77538
 O1075 O 0.48065 0.28940 0.75016
 O1076 O 0.48379 0.28514 0.72448
 O1077 O 0.46093 0.25188 0.76890
 O1078 O 0.46599 0.22484 0.76794
 O1079 O 0.49907 0.26979 0.78893
 O1080 O 0.52605 0.26892 0.78393
 O1081 O 0.49863 0.28943 0.76844
 O1082 O 0.52662 0.28394 0.76702
 O1083 O 0.48099 0.25188 0.78903
 O1084 O 0.48253 0.22438 0.78352
 O1085 O 0.46117 0.26995 0.75094
 O1086 O 0.46607 0.26480 0.72369
 O1087 O 0.51897 0.21036 0.74878
 O1088 O 0.51772 0.21606 0.77549
 O1089 O 0.54068 0.24888 0.73092
 O1090 O 0.53467 0.27590 0.73321
 O1091 O 0.50170 0.23127 0.70954
 O1092 O 0.47454 0.23471 0.71534
 Zr1093 Zr 0.49221 0.23221 0.73129
 O1094 O 0.47773 0.24534 0.74464
 Zr1095 Zr 0.51891 0.25825 0.73148
 O1096 O 0.50535 0.27267 0.74443
 Zr1097 Zr 0.51851 0.23208 0.75801
 O1098 O 0.50530 0.24550 0.77237
 Zr1099 Zr 0.48248 0.26795 0.74081
 O1100 O 0.49601 0.25490 0.72623
 Zr1101 Zr 0.48240 0.24197 0.76758
 O1102 O 0.49562 0.22736 0.75429
 Zr1103 Zr 0.50886 0.26818 0.76740
 O1104 O 0.52369 0.25474 0.75446
 O1105 O 0.51502 0.23573 0.73518
 O1106 O 0.48602 0.26459 0.76378
 C1107 C 0.51152 0.20401 0.73808
 C1108 C 0.51209 0.23891 0.70305
 C1109 C 0.54703 0.23843 0.73858
 C1110 C 0.48783 0.29566 0.76105
 C1111 C 0.45478 0.26276 0.76170
 C1112 C 0.48825 0.26264 0.79528
 H1113 H 0.46713 0.24302 0.74213
 H1114 H 0.50776 0.24316 0.78298
 H1115 H 0.52146 0.22930 0.72878
 H1116 H 0.50763 0.28317 0.74184
 H1117 H 0.48699 0.28034 0.71495
 H1118 H 0.51252 0.28182 0.71604
 H1119 H 0.49107 0.22606 0.79049
 H1120 H 0.50780 0.21107 0.77470
 H1121 H 0.45898 0.27336 0.72407
 H1122 H 0.47549 0.22674 0.70762
 H1123 H 0.52555 0.25952 0.78975
 H1124 H 0.53958 0.24225 0.77512
 H1125 H 0.47561 0.21130 0.74251
 H1126 H 0.45981 0.22580 0.75871
 H1127 H 0.54056 0.27416 0.74253
 H1128 H 0.52468 0.29098 0.75865
 O1129 O 0.25143 0.76888 0.45915
 O1130 O 0.22571 0.76667 0.46379
 O1131 O 0.26906 0.78963 0.49880
 O1132 O 0.26949 0.78523 0.52365
 O1133 O 0.29080 0.75079 0.48026
 O1134 O 0.28561 0.72470 0.48134
 O1135 O 0.23033 0.74867 0.53846
 O1136 O 0.23305 0.77411 0.53430
 O1137 O 0.21139 0.72986 0.50015
 O1138 O 0.21678 0.73093 0.47299
 O1139 O 0.24960 0.71062 0.51882
 O1140 O 0.27647 0.71592 0.51832
 O1141 O 0.24864 0.73087 0.53869
 O1142 O 0.27670 0.73274 0.53345
 O1143 O 0.23177 0.71028 0.50046
 O1144 O 0.23364 0.71583 0.47268
 O1145 O 0.21110 0.74756 0.51851
 O1146 O 0.21561 0.77467 0.51351
 O1147 O 0.26954 0.75085 0.45915
 O1148 O 0.26864 0.72432 0.46483
 O1149 O 0.29054 0.76874 0.49838
 O1150 O 0.28424 0.76629 0.52562
 O1151 O 0.25146 0.78935 0.48017
 O1152 O 0.22435 0.78321 0.48336
 Zr1153 Zr 0.24227 0.76769 0.48096
 O1154 O 0.22787 0.75417 0.49394
 Zr1155 Zr 0.26868 0.76782 0.50758
 O1156 O 0.25513 0.75476 0.52191
 Zr1157 Zr 0.26900 0.74163 0.48105
 O1158 O 0.25589 0.72715 0.49439
 Zr1159 Zr 0.23226 0.75797 0.51686
 O1160 O 0.24573 0.77268 0.50394
 Zr1161 Zr 0.23297 0.73155 0.49051
 O1162 O 0.24611 0.74498 0.47599
 Zr1163 Zr 0.25908 0.73208 0.51736
 O1164 O 0.27386 0.74515 0.50402
 O1165 O 0.26510 0.76416 0.48478
 O1166 O 0.23623 0.73530 0.51342
 C1167 C 0.26196 0.76133 0.45270
 C1168 C 0.26168 0.79591 0.48804
 C1169 C 0.29712 0.76129 0.48787
 C1170 C 0.23765 0.73801 0.54486
 C1171 C 0.20498 0.73684 0.51108
 C1172 C 0.23897 0.70419 0.51142
 H1173 H 0.21725 0.75649 0.49146
 H1174 H 0.25855 0.71669 0.49203
 H1175 H 0.27151 0.77061 0.47839
 H1176 H 0.25725 0.75733 0.53255
 H1177 H 0.23619 0.78361 0.52954
 H1178 H 0.26171 0.78300 0.53129
 H1179 H 0.24219 0.70899 0.47455
 H1180 H 0.25881 0.72501 0.45961
 H1181 H 0.20840 0.77412 0.52203
 H1182 H 0.22526 0.79091 0.47537
 H1183 H 0.27625 0.71025 0.50875
 H1184 H 0.29020 0.72495 0.49152
 H1185 H 0.22605 0.75643 0.45960
 H1186 H 0.21048 0.74000 0.47386
 H1187 H 0.29035 0.75720 0.52386
 H1188 H 0.27450 0.74093 0.54061
 O1189 O 0.28998 0.25179 0.98018
 O1190 O 0.28547 0.22626 0.98209
 O1191 O 0.25030 0.26944 0.95950
 O1192 O 0.22551 0.26983 0.96393
 O1193 O 0.26874 0.29042 0.99912
 O1194 O 0.26769 0.28485 1.02535
 O1195 O 0.21078 0.23032 1.00012
 O1196 O 0.21501 0.23339 0.97451
 O1197 O 0.24905 0.21134 1.01896
 O1198 O 0.27612 0.21672 1.01810
 O1199 O 0.23025 0.24894 1.03893
 O1200 O 0.23059 0.27554 1.03401
 O1201 O 0.21044 0.24817 1.01838
 O1202 O 0.21564 0.27608 1.01688
 O1203 O 0.24862 0.23128 1.03907
 O1204 O 0.27641 0.23328 1.03352
 O1205 O 0.23077 0.21128 1.00103
 O1206 O 0.23584 0.21619 0.97374
 O1207 O 0.28989 0.26942 0.99870
 O1208 O 0.28419 0.26803 1.02549
 O1209 O 0.25070 0.29042 0.98093
 O1210 O 0.22347 0.28405 0.98329
 O1211 O 0.26895 0.25202 0.95952
 O1212 O 0.26593 0.22503 0.96536
 Zr1213 Zr 0.26823 0.24260 0.98128
 O1214 O 0.25527 0.22807 0.99468
 Zr1215 Zr 0.24155 0.26872 0.98151
 O1216 O 0.22724 0.25503 0.99443
 Zr1217 Zr 0.26802 0.26866 1.00800
 O1218 O 0.25467 0.25543 1.02238
 Zr1219 Zr 0.23238 0.23242 0.99085
 O1220 O 0.24527 0.24605 0.97625
 Zr1221 Zr 0.25861 0.23279 1.01762
 O1222 O 0.27312 0.24604 1.00428
 Zr1223 Zr 0.23172 0.25861 1.01739
 O1224 O 0.24506 0.27350 1.00448
 O1225 O 0.26433 0.26516 0.98518
 O1226 O 0.23573 0.23601 1.01381
 C1227 C 0.29637 0.26214 0.98797
 C1228 C 0.26106 0.26223 0.95305
 C1229 C 0.26116 0.29684 0.98859
 C1230 C 0.20433 0.23738 1.01097
 C1231 C 0.23818 0.20506 1.01179
 C1232 C 0.23765 0.23833 1.04529
 H1233 H 0.25779 0.21760 0.99219
 H1234 H 0.25699 0.25791 1.03299
 H1235 H 0.27069 0.27163 0.97877
 H1236 H 0.21662 0.25714 0.99183
 H1237 H 0.21978 0.23667 0.96498
 H1238 H 0.21798 0.26195 0.96595
 H1239 H 0.27447 0.24162 1.04057
 H1240 H 0.28947 0.25833 1.02459
 H1241 H 0.22736 0.20900 0.97417
 H1242 H 0.27391 0.22609 0.95759
 H1243 H 0.24023 0.27542 1.03961
 H1244 H 0.25752 0.28939 1.02516
 H1245 H 0.28962 0.22644 0.99245
 H1246 H 0.27541 0.21073 1.00875
 H1247 H 0.22526 0.29003 0.99251
 H1248 H 0.20843 0.27393 1.00866
 C1249 C 0.29161 0.37108 0.79142
 C1250 C 0.29669 0.35988 0.78164
 C1251 C 0.30251 0.34654 0.78745
 C1252 C 0.30332 0.34426 0.80313
 C1253 C 0.29813 0.35558 0.81285
 C1254 C 0.29232 0.36888 0.80702
 C1255 C 0.28591 0.38495 0.78553
 C1256 C 0.28124 0.39671 0.78084
 C1257 C 0.27581 0.41091 0.77553
 C1258 C 0.28301 0.41807 0.76351
 C1259 C 0.27818 0.43219 0.75880
 C1260 C 0.26606 0.43935 0.76608
 C1261 C 0.25878 0.43194 0.77803
 C1262 C 0.26364 0.41783 0.78271
 H1263 H 0.29619 0.36147 0.76954
 H1264 H 0.30629 0.33798 0.77970
 H1265 H 0.29882 0.35426 0.82497
 H1266 H 0.28850 0.37751 0.81469
 H1267 H 0.29248 0.41283 0.75791
 H1268 H 0.28408 0.43756 0.74960
 H1269 H 0.24945 0.43712 0.78392
 H1270 H 0.25801 0.41241 0.79206
 C1271 C 0.29042 -0.13055 0.28967
 C1272 C 0.28812 -0.13420 0.30479
 C1273 C 0.29371 -0.14760 0.31061
 C1274 C 0.30183 -0.15771 0.30139
 C1275 C 0.30385 -0.15384 0.28604
 C1276 C 0.29821 -0.14042 0.28029
 C1277 C 0.28509 -0.11647 0.28392
 C1278 C 0.28073 -0.10455 0.27937
 C1279 C 0.27565 -0.09016 0.27424
 C1280 C 0.26350 -0.08316 0.28138
 C1281 C 0.25891 -0.06892 0.27685
 C1282 C 0.26645 -0.06145 0.26510
 C1283 C 0.27857 -0.06867 0.25788
 C1284 C 0.28313 -0.08293 0.26244
 H1285 H 0.28221 -0.12656 0.31219
 H1286 H 0.29223 -0.14951 0.32255
 H1287 H 0.30937 -0.16130 0.27820
 H1288 H 0.29995 -0.13774 0.26851
 H1289 H 0.25766 -0.08865 0.29056
 H1290 H 0.24958 -0.06370 0.28269
 H1291 H 0.28466 -0.06326 0.24883
 H1292 H 0.29258 -0.08823 0.25687
 C1293 C 0.79192 0.87160 0.79163
 C1294 C 0.78966 0.86812 0.80680
 C1295 C 0.79541 0.85487 0.81282
 C1296 C 0.80364 0.84471 0.80375
 C1297 C 0.80571 0.84844 0.78838
 C1298 C 0.79991 0.86172 0.78242
 C1299 C 0.78630 0.88547 0.78565
 C1300 C 0.78167 0.89722 0.78087
 C1301 C 0.77628 0.91140 0.77546
 C1302 C 0.76417 0.91844 0.78265
 C1303 C 0.75934 0.93253 0.77787
 C1304 C 0.76658 0.93980 0.76580
 C1305 C 0.77862 0.93251 0.75852
 C1306 C 0.78343 0.91842 0.76333
 H1307 H 0.78363 0.87579 0.81408
 H1308 H 0.79395 0.85313 0.82479
 H1309 H 0.81137 0.84095 0.78067
 H1310 H 0.80164 0.86426 0.77061
 H1311 H 0.75859 0.91312 0.79208
 H1312 H 0.75008 0.93780 0.78377
 H1313 H 0.78449 0.93777 0.74923
 H1314 H 0.79284 0.91309 0.75771
 C1315 C 0.45976 0.88077 0.29069
 C1316 C 0.45484 0.89230 0.28124
 C1317 C 0.44885 0.90540 0.28742
 C1318 C 0.44771 0.90711 0.30316
 C1319 C 0.45280 0.89549 0.31255
 C1320 C 0.45878 0.88242 0.30635
 C1321 C 0.46546 0.86706 0.28443
 C1322 C 0.47008 0.85536 0.27954
 C1323 C 0.47541 0.84115 0.27414
 C1324 C 0.46784 0.83382 0.26245
 C1325 C 0.47238 0.81955 0.25794
 C1326 C 0.48456 0.81239 0.26512
 C1327 C 0.49230 0.82002 0.27665
 C1328 C 0.48773 0.83429 0.28112
 H1329 H 0.45555 0.89113 0.26910
 H1330 H 0.44518 0.91421 0.27991
 H1331 H 0.45187 0.89637 0.32469
 H1332 H 0.46247 0.87353 0.31377
 H1333 H 0.45824 0.83902 0.25701
 H1334 H 0.46615 0.81401 0.24905
 H1335 H 0.50171 0.81487 0.28244
 H1336 H 0.49364 0.83985 0.29023
 C1337 C -0.04241 0.87827 0.79191
 C1338 C -0.04350 0.87993 0.80756
 C1339 C -0.04935 0.89308 0.81371
 C1340 C -0.05421 0.90476 0.80428
 C1341 C -0.05299 0.90302 0.78855
 C1342 C -0.04712 0.88985 0.78242
 C1343 C -0.03672 0.86455 0.78567
 C1344 C -0.03206 0.85289 0.78070
 C1345 C -0.02665 0.83880 0.77510
 C1346 C -0.01436 0.83183 0.78204
 C1347 C -0.00954 0.81778 0.77715
 C1348 C -0.01698 0.81047 0.76522
 C1349 C -0.02919 0.81769 0.75815
 C1350 C -0.03398 0.83175 0.76308
 H1351 H -0.03994 0.87101 0.81501
 H1352 H -0.05034 0.89400 0.82585
 H1353 H -0.05648 0.91188 0.78101
 H1354 H -0.04631 0.88868 0.77029
 H1355 H -0.00863 0.83717 0.79139
 H1356 H -0.00014 0.81256 0.78289
 H1357 H -0.03521 0.81239 0.74897
 H1358 H -0.04354 0.83703 0.75765
 C1359 C -0.04073 -0.12904 -0.04188
 C1360 C -0.04823 -0.13912 -0.03252
 C1361 C -0.05407 -0.15238 -0.03843
 C1362 C -0.05256 -0.15588 -0.05394
 C1363 C -0.04475 -0.14555 -0.06314
 C1364 C -0.03895 -0.13231 -0.05716
 C1365 C -0.03518 -0.11514 -0.03593
 C1366 C -0.03064 -0.10335 -0.03118
 C1367 C -0.02535 -0.08913 -0.02582
 C1368 C -0.03267 -0.08201 -0.01383
 C1369 C -0.02795 -0.06788 -0.00906
 C1370 C -0.01584 -0.06065 -0.01626
 C1371 C -0.00844 -0.06802 -0.02819
 C1372 C -0.01319 -0.08214 -0.03292
 H1373 H -0.04956 -0.13674 -0.02061
 H1374 H -0.05932 -0.16003 -0.03061
 H1375 H -0.04367 -0.14717 -0.07518
 H1376 H -0.03328 -0.12450 -0.06455
 H1377 H -0.04213 -0.08730 -0.00828
 H1378 H -0.03393 -0.06254 0.00012
 H1379 H 0.00088 -0.06280 -0.03402
 H1380 H -0.00747 -0.08754 -0.04225
 C1381 C -0.03973 0.36896 0.45995
 C1382 C -0.04425 0.35740 0.46954
 C1383 C -0.05000 0.34413 0.46352
 C1384 C -0.05130 0.34228 0.44781
 C1385 C -0.04659 0.35393 0.43828
 C1386 C -0.04086 0.36717 0.44432
 C1387 C -0.03428 0.38283 0.46605
 C1388 C -0.02987 0.39466 0.47081
 C1389 C -0.02479 0.40900 0.47607
 C1390 C -0.03248 0.41631 0.48770
 C1391 C -0.02815 0.43068 0.49212
 C1392 C -0.01606 0.43793 0.48492
 C1393 C -0.00821 0.43033 0.47344
 C1394 C -0.01257 0.41597 0.46906
 H1395 H -0.04341 0.35867 0.48166
 H1396 H -0.05337 0.33530 0.47114
 H1397 H -0.04766 0.35294 0.42616
 H1398 H -0.03746 0.37608 0.43679
 H1399 H -0.04199 0.41103 0.49317
 H1400 H -0.03446 0.43619 0.50096
 H1401 H 0.00113 0.43555 0.46764
 H1402 H -0.00657 0.41043 0.46001
 C1403 C 0.45816 -0.12899 0.46033
 C1404 C 0.44303 -0.13280 0.46219
 C1405 C 0.43750 -0.14623 0.45637
 C1406 C 0.44703 -0.15622 0.44845
 C1407 C 0.46237 -0.15219 0.44688
 C1408 C 0.46783 -0.13874 0.45275
 C1409 C 0.46367 -0.11491 0.46588
 C1410 C 0.46814 -0.10300 0.47037
 C1411 C 0.47332 -0.08865 0.47555
 C1412 C 0.46598 -0.08148 0.48748
 C1413 C 0.47065 -0.06730 0.49216
 C1414 C 0.48274 -0.06008 0.48493
 C1415 C 0.49014 -0.06748 0.47303
 C1416 C 0.48545 -0.08166 0.46838
 H1417 H 0.43540 -0.12525 0.46794
 H1418 H 0.42556 -0.14826 0.45752
 H1419 H 0.47044 -0.15954 0.44156
 H1420 H 0.47962 -0.13595 0.45135
 H1421 H 0.45655 -0.08677 0.49308
 H1422 H 0.46465 -0.06194 0.50132
 H1423 H 0.49946 -0.06226 0.46718
 H1424 H 0.49119 -0.08710 0.45910
 C1425 C 0.45996 0.36958 -0.04005
 C1426 C 0.45536 0.35797 -0.03055
 C1427 C 0.44948 0.34480 -0.03668
 C1428 C 0.44813 0.34310 -0.05240
 C1429 C 0.45290 0.35480 -0.06184
 C1430 C 0.45877 0.36793 -0.05570
 C1431 C 0.46556 0.38335 -0.03384
 C1432 C 0.47009 0.39509 -0.02898
 C1433 C 0.47530 0.40934 -0.02361
 C1434 C 0.46775 0.41658 -0.01184
 C1435 C 0.47218 0.43088 -0.00732
 C1436 C 0.48423 0.43816 -0.01456
 C1437 C 0.49194 0.43063 -0.02617
 C1438 C 0.48749 0.41633 -0.03066
 H1439 H 0.45624 0.35912 -0.01842
 H1440 H 0.44606 0.33593 -0.02913
 H1441 H 0.45180 0.35393 -0.07397
 H1442 H 0.46222 0.37688 -0.06315
 H1443 H 0.45826 0.41128 -0.00634
 H1444 H 0.46597 0.43633 0.00164
 H1445 H 0.50125 0.43587 -0.03201
 H1446 H 0.49338 0.41085 -0.03982
 C1447 C 0.78956 0.38105 0.46025
 C1448 C 0.79103 0.38263 0.44462
 C1449 C 0.79679 0.39583 0.43855
 C1450 C 0.80119 0.40764 0.44803
 C1451 C 0.79956 0.40601 0.46373
 C1452 C 0.79378 0.39278 0.46979
 C1453 C 0.78406 0.36722 0.46639
 C1454 C 0.77959 0.35543 0.47117
 C1455 C 0.77444 0.34112 0.47642
 C1456 C 0.76234 0.33410 0.46922
 C1457 C 0.75794 0.31976 0.47357
 C1458 C 0.76561 0.31221 0.48520
 C1459 C 0.77757 0.31952 0.49259
 C1460 C 0.78195 0.33387 0.48820
 H1461 H 0.78786 0.37360 0.43714
 H1462 H 0.79811 0.39667 0.42644
 H1463 H 0.80268 0.41497 0.47130
 H1464 H 0.79268 0.39167 0.48190
 H1465 H 0.75648 0.33960 0.46005
 H1466 H 0.74870 0.31450 0.46763
 H1467 H 0.78375 0.31405 0.50156
 H1468 H 0.79137 0.33919 0.49381
 C1469 C 0.79191 0.88056 -0.04025
 C1470 C 0.79270 0.88217 -0.05592
 C1471 C 0.79858 0.89521 -0.06222
 C1472 C 0.80377 0.90686 -0.05292
 C1473 C 0.80287 0.90517 -0.03716
 C1474 C 0.79697 0.89210 -0.03088
 C1475 C 0.78617 0.86692 -0.03390
 C1476 C 0.78149 0.85528 -0.02895
 C1477 C 0.77608 0.84114 -0.02349
 C1478 C 0.76368 0.83435 -0.03038
 C1479 C 0.75904 0.82013 -0.02584
 C1480 C 0.76679 0.81248 -0.01434
 C1481 C 0.77905 0.81958 -0.00724
 C1482 C 0.78366 0.83380 -0.01181
 H1483 H 0.78889 0.87327 -0.06328
 H1484 H 0.79934 0.89606 -0.07437
 H1485 H 0.80664 0.91400 -0.02972
 H1486 H 0.79641 0.89096 -0.01873
 H1487 H 0.75776 0.83992 -0.03948
 H1488 H 0.74958 0.81503 -0.03157
 H1489 H 0.78530 0.81403 0.00163
 H1490 H 0.79332 0.83894 -0.00643
 C1491 C 0.78984 0.29269 0.36864
 C1492 C 0.79110 0.30817 0.36689
 C1493 C 0.79722 0.31412 0.35368
 C1494 C 0.80217 0.30464 0.34203
 C1495 C 0.80069 0.28910 0.34382
 C1496 C 0.79456 0.28317 0.35705
 C1497 C 0.78413 0.28664 0.38253
 C1498 C 0.77957 0.28179 0.39436
 C1499 C 0.77438 0.27631 0.40869
 C1500 C 0.76242 0.28341 0.41604
 C1501 C 0.75796 0.27871 0.43039
 C1502 C 0.76545 0.26681 0.43760
 C1503 C 0.77728 0.25955 0.42996
 C1504 C 0.78171 0.26429 0.41561
 H1505 H 0.78756 0.31564 0.37583
 H1506 H 0.79841 0.32611 0.35274
 H1507 H 0.80425 0.28153 0.33498
 H1508 H 0.79363 0.27117 0.35829
 H1509 H 0.75670 0.29276 0.41080
 H1510 H 0.74883 0.28457 0.43591
 H1511 H 0.78331 0.25038 0.43516
 H1512 H 0.79102 0.25874 0.41003
 C1513 C 0.79080 0.79263 -0.13086
 C1514 C 0.80609 0.79082 -0.13406
 C1515 C 0.81223 0.79686 -0.14720
 C1516 C 0.80318 0.80496 -0.15752
 C1517 C 0.78767 0.80650 -0.15411
 C1518 C 0.78160 0.80041 -0.14094
 C1519 C 0.78474 0.78686 -0.11700
 C1520 C 0.77999 0.78214 -0.10519
 C1521 C 0.77473 0.77670 -0.09087
 C1522 C 0.78192 0.76455 -0.08403
 C1523 C 0.77750 0.75983 -0.06968
 C1524 C 0.76583 0.76723 -0.06195
 C1525 C 0.75846 0.77925 -0.06908
 C1526 C 0.76291 0.78395 -0.08343
 H1527 H 0.81336 0.78494 -0.12624
 H1528 H 0.82426 0.79574 -0.14874
 H1529 H 0.77996 0.81195 -0.16178
 H1530 H 0.76969 0.80178 -0.13861
 H1531 H 0.79112 0.75889 -0.08968
 H1532 H 0.78343 0.75056 -0.06455
 H1533 H 0.74945 0.78522 -0.06346
 H1534 H 0.75731 0.79340 -0.08861
 C1535 C 0.29096 0.45705 0.87995
 C1536 C 0.30655 0.45617 0.88213
 C1537 C 0.31235 0.45070 0.89569
 C1538 C 0.30262 0.44602 0.90729
 C1539 C 0.28696 0.44693 0.90499
 C1540 C 0.28118 0.45242 0.89140
 C1541 C 0.28512 0.46257 0.86588
 C1542 C 0.28050 0.46717 0.85397
 C1543 C 0.27529 0.47260 0.83962
 C1544 C 0.28271 0.48450 0.83262
 C1545 C 0.27805 0.48945 0.81842
 C1546 C 0.26588 0.48253 0.81099
 C1547 C 0.25841 0.47065 0.81822
 C1548 C 0.26310 0.46573 0.83242
 H1549 H 0.31422 0.45966 0.87332
 H1550 H 0.32445 0.44992 0.89702
 H1551 H 0.27920 0.44354 0.91376
 H1552 H 0.26909 0.45306 0.88982
 H1553 H 0.29219 0.48987 0.83807
 H1554 H 0.28409 0.49858 0.81320
 H1555 H 0.24904 0.46503 0.81284
 H1556 H 0.25731 0.45647 0.83773
 C1557 C 0.29219 -0.04377 0.37887
 C1558 C 0.30778 -0.04493 0.38088
 C1559 C 0.31363 -0.05053 0.39437
 C1560 C 0.30394 -0.05504 0.40607
 C1561 C 0.28827 -0.05380 0.40396
 C1562 C 0.28245 -0.04819 0.39044
 C1563 C 0.28627 -0.03820 0.36485
 C1564 C 0.28156 -0.03358 0.35298
 C1565 C 0.27624 -0.02814 0.33867
 C1566 C 0.28354 -0.01616 0.33169
 C1567 C 0.27878 -0.01119 0.31752
 C1568 C 0.26664 -0.01817 0.31012
 C1569 C 0.25928 -0.03013 0.31733
 C1570 C 0.26407 -0.03507 0.33150
 H1571 H 0.31542 -0.04161 0.37197
 H1572 H 0.32572 -0.05157 0.39555
 H1573 H 0.28054 -0.05705 0.41280
 H1574 H 0.27036 -0.04732 0.38900
 H1575 H 0.29301 -0.01074 0.33712
 H1576 H 0.28475 -0.00200 0.31232
 H1577 H 0.24993 -0.03579 0.31196
 H1578 H 0.25837 -0.04439 0.33679
 C1579 C -0.04243 -0.04379 -0.12907
 C1580 C -0.05050 -0.03471 -0.13900
 C1581 C -0.05643 -0.04066 -0.15232
 C1582 C -0.05442 -0.05591 -0.15604
 C1583 C -0.04608 -0.06485 -0.14583
 C1584 C -0.04020 -0.05884 -0.13253
 C1585 C -0.03668 -0.03780 -0.11515
 C1586 C -0.03196 -0.03296 -0.10337
 C1587 C -0.02648 -0.02741 -0.08916
 C1588 C -0.03376 -0.01546 -0.08207
 C1589 C -0.02881 -0.01044 -0.06798
 C1590 C -0.01649 -0.01734 -0.06077
 C1591 C -0.00915 -0.02925 -0.06810
 C1592 C -0.01412 -0.03424 -0.08219
 H1593 H -0.05220 -0.02299 -0.13647
 H1594 H -0.06214 -0.03304 -0.15986
 H1595 H -0.04460 -0.07671 -0.14759
 H1596 H -0.03409 -0.06602 -0.12483
 H1597 H -0.04336 -0.01013 -0.08735
 H1598 H -0.03477 -0.00129 -0.06267
 H1599 H 0.00033 -0.03485 -0.06288
 H1600 H -0.00843 -0.04353 -0.08756
 C1601 C -0.03974 0.45749 0.36832
 C1602 C -0.03766 0.44238 0.36505
 C1603 C -0.04376 0.43621 0.35192
 C1604 C -0.05220 0.44506 0.34172
 C1605 C -0.05398 0.46040 0.34519
 C1606 C -0.04782 0.46650 0.35834
 C1607 C -0.03402 0.46358 0.38221
 C1608 C -0.02945 0.46845 0.39403
 C1609 C -0.02429 0.47398 0.40837
 C1610 C -0.01225 0.46700 0.41573
 C1611 C -0.00786 0.47173 0.43010
 C1612 C -0.01550 0.48352 0.43733
 C1613 C -0.02740 0.49066 0.42968
 C1614 C -0.03176 0.48590 0.41531
 H1615 H -0.03154 0.43525 0.37280
 H1616 H -0.04243 0.42432 0.35035
 H1617 H -0.05973 0.46795 0.33761
 H1618 H -0.04942 0.47826 0.36073
 H1619 H -0.00643 0.45772 0.41047
 H1620 H 0.00133 0.46596 0.43564
 H1621 H -0.03355 0.49975 0.43489
 H1622 H -0.04113 0.49135 0.40973
 C1623 C 0.45821 -0.04214 0.37086
 C1624 C 0.45762 -0.05760 0.36871
 C1625 C 0.45193 -0.06348 0.35526
 C1626 C 0.44675 -0.05394 0.34376
 C1627 C 0.44745 -0.03840 0.34600
 C1628 C 0.45315 -0.03254 0.35947
 C1629 C 0.46378 -0.03619 0.38487
 C1630 C 0.46834 -0.03145 0.39675
 C1631 C 0.47362 -0.02604 0.41109
 C1632 C 0.48572 -0.03309 0.41827
 C1633 C 0.49046 -0.02828 0.43250
 C1634 C 0.48313 -0.01633 0.43976
 C1635 C 0.47108 -0.00919 0.43234
 C1636 C 0.46637 -0.01403 0.41811
 H1637 H 0.46144 -0.06513 0.37748
 H1638 H 0.45133 -0.07549 0.35398
 H1639 H 0.44368 -0.03078 0.33730
 H1640 H 0.45357 -0.02055 0.36102
 H1641 H 0.49139 -0.04243 0.41295
 H1642 H 0.49974 -0.03406 0.43787
 H1643 H 0.46514 0.00001 0.43759
 H1644 H 0.45695 -0.00852 0.41267
 C1645 C 0.45935 0.45768 -0.13064
 C1646 C 0.45114 0.46669 -0.14052
 C1647 C 0.44492 0.46062 -0.15365
 C1648 C 0.44675 0.44531 -0.15722
 C1649 C 0.45530 0.43646 -0.14711
 C1650 C 0.46147 0.44259 -0.13400
 C1651 C 0.46519 0.46375 -0.11679
 C1652 C 0.46988 0.46862 -0.10501
 C1653 C 0.47520 0.47416 -0.09073
 C1654 C 0.46781 0.48610 -0.08371
 C1655 C 0.47234 0.49089 -0.06940
 C1656 C 0.48434 0.48376 -0.06188
 C1657 C 0.49189 0.47197 -0.06919
 C1658 C 0.48733 0.46720 -0.08350
 H1659 H 0.44951 0.47844 -0.13807
 H1660 H 0.43908 0.46819 -0.16116
 H1661 H 0.45668 0.42458 -0.14875
 H1662 H 0.46768 0.43546 -0.12632
 H1663 H 0.45838 0.49154 -0.08919
 H1664 H 0.46626 0.49998 -0.06414
 H1665 H 0.50114 0.46620 -0.06374
 H1666 H 0.49310 0.45792 -0.08881
 C1667 C 0.46136 0.79272 0.38188
 C1668 C 0.45710 0.78317 0.39361
 C1669 C 0.45109 0.78904 0.40693
 C1670 C 0.44925 0.80456 0.40868
 C1671 C 0.45369 0.81406 0.39686
 C1672 C 0.45970 0.80817 0.38357
 C1673 C 0.46699 0.78671 0.36792
 C1674 C 0.47149 0.78189 0.35605
 C1675 C 0.47659 0.77641 0.34167
 C1676 C 0.46908 0.76455 0.33468
 C1677 C 0.47344 0.75981 0.32030
 C1678 C 0.48537 0.76691 0.31269
 C1679 C 0.49304 0.77864 0.31997
 C1680 C 0.48866 0.78336 0.33435
 H1681 H 0.45833 0.77119 0.39242
 H1682 H 0.44790 0.78146 0.41589
 H1683 H 0.45219 0.82603 0.39776
 H1684 H 0.46287 0.81566 0.37452
 H1685 H 0.45970 0.75913 0.34023
 H1686 H 0.46726 0.75077 0.31505
 H1687 H 0.50225 0.78438 0.31447
 H1688 H 0.49452 0.79258 0.33965
 C1689 C -0.04216 0.79357 0.87862
 C1690 C -0.04328 0.80903 0.88059
 C1691 C -0.04883 0.81489 0.89410
 C1692 C -0.05333 0.80533 0.90585
 C1693 C -0.05211 0.78979 0.90379
 C1694 C -0.04655 0.78396 0.89026
 C1695 C -0.03670 0.78762 0.86457
 C1696 C -0.03222 0.78283 0.85268
 C1697 C -0.02701 0.77733 0.83836
 C1698 C -0.01468 0.78407 0.83128
 C1699 C -0.00993 0.77910 0.81711
 C1700 C -0.01747 0.76731 0.80980
 C1701 C -0.02978 0.76052 0.81711
 C1702 C -0.03450 0.76551 0.83128
 H1703 H -0.03998 0.81657 0.87163
 H1704 H -0.04984 0.82688 0.89525
 H1705 H -0.05535 0.78217 0.91269
 H1706 H -0.04572 0.77197 0.88886
 H1707 H -0.00883 0.79326 0.83664
 H1708 H -0.00046 0.78462 0.81182
 H1709 H -0.03588 0.75145 0.81182
 H1710 H -0.04408 0.76025 0.83664
 C1711 C 0.36857 0.79095 0.28970
 C1712 C 0.36679 0.80642 0.29098
 C1713 C 0.35337 0.81239 0.29658
 C1714 C 0.34151 0.80294 0.30098
 C1715 C 0.34336 0.78739 0.29957
 C1716 C 0.35681 0.78144 0.29396
 C1717 C 0.38260 0.78491 0.28434
 C1718 C 0.39454 0.78015 0.28000
 C1719 C 0.40900 0.77486 0.27498
 C1720 C 0.41605 0.78161 0.26265
 C1721 C 0.43049 0.77712 0.25829
 C1722 C 0.43811 0.76580 0.26626
 C1723 C 0.43079 0.75888 0.27848
 C1724 C 0.41634 0.76340 0.28281
 H1725 H 0.37586 0.81388 0.28780
 H1726 H 0.35240 0.82439 0.29777
 H1727 H 0.33437 0.77985 0.30275
 H1728 H 0.35807 0.76944 0.29301
 H1729 H 0.41048 0.79053 0.25654
 H1730 H 0.43576 0.78271 0.24884
 H1731 H 0.43631 0.75016 0.28488
 H1732 H 0.41100 0.75813 0.29241
 C1733 C -0.12968 0.79367 0.79184
 C1734 C -0.13168 0.79470 0.80745
 C1735 C -0.14499 0.80063 0.81334
 C1736 C -0.15653 0.80562 0.80369
 C1737 C -0.15443 0.80455 0.78800
 C1738 C -0.14108 0.79860 0.78212
 C1739 C -0.11584 0.78772 0.78588
 C1740 C -0.10411 0.78282 0.78114
 C1741 C -0.08994 0.77711 0.77575
 C1742 C -0.08296 0.76518 0.78317
 C1743 C -0.06887 0.76005 0.77837
 C1744 C -0.06156 0.76681 0.76605
 C1745 C -0.06879 0.77868 0.75855
 C1746 C -0.08287 0.78379 0.76338
 H1747 H -0.12290 0.79099 0.81507
 H1748 H -0.14618 0.80151 0.82546
 H1749 H -0.16316 0.80817 0.78029
 H1750 H -0.13965 0.79785 0.77001
 H1751 H -0.08831 0.75997 0.79280
 H1752 H -0.06363 0.75093 0.78445
 H1753 H -0.06350 0.78419 0.74906
 H1754 H -0.08816 0.79306 0.75758
 C1755 C 0.88175 0.29091 0.45969
 C1756 C 0.89323 0.28137 0.45474
 C1757 C 0.90659 0.28730 0.44890
 C1758 C 0.90862 0.30285 0.44796
 C1759 C 0.89703 0.31233 0.45305
 C1760 C 0.88371 0.30638 0.45887
 C1761 C 0.86780 0.28490 0.46528
 C1762 C 0.85593 0.28016 0.46981
 C1763 C 0.84155 0.27485 0.47501
 C1764 C 0.83435 0.26310 0.46752
 C1765 C 0.81996 0.25856 0.47198
 C1766 C 0.81255 0.26574 0.48401
 C1767 C 0.82004 0.27737 0.49166
 C1768 C 0.83442 0.28188 0.48716
 H1769 H 0.89183 0.26936 0.45532
 H1770 H 0.91536 0.27973 0.44521
 H1771 H 0.89814 0.32434 0.45225
 H1772 H 0.87486 0.31387 0.46259
 H1773 H 0.83975 0.25762 0.45806
 H1774 H 0.81455 0.24959 0.46583
 H1775 H 0.81469 0.28316 0.50094
 H1776 H 0.83987 0.29102 0.49301
 C1777 C 0.88156 0.79217 -0.04092
 C1778 C 0.89323 0.78284 -0.04585
 C1779 C 0.90638 0.78900 -0.05189
 C1780 C 0.90802 0.80459 -0.05306
 C1781 C 0.89625 0.81386 -0.04800
 C1782 C 0.88313 0.80768 -0.04198
 C1783 C 0.86781 0.78592 -0.03511
 C1784 C 0.85609 0.78099 -0.03040
 C1785 C 0.84187 0.77549 -0.02497
 C1786 C 0.83472 0.76362 -0.03233
 C1787 C 0.82042 0.75895 -0.02769
 C1788 C 0.81306 0.76613 -0.01563
 C1789 C 0.82052 0.77785 -0.00810
 C1790 C 0.83480 0.78249 -0.01277
 H1791 H 0.89212 0.77081 -0.04509
 H1792 H 0.91530 0.78160 -0.05557
 H1793 H 0.89707 0.82588 -0.04899
 H1794 H 0.87413 0.81500 -0.03828
 H1795 H 0.84007 0.75816 -0.04183
 H1796 H 0.81503 0.74992 -0.03376
 H1797 H 0.81521 0.78365 0.00120
 H1798 H 0.84022 0.79172 -0.00702
 C1799 C -0.12895 -0.04209 -0.04251
 C1800 C -0.14045 -0.04654 -0.03270
 C1801 C -0.15388 -0.05240 -0.03845
 C1802 C -0.15597 -0.05387 -0.05411
 C1803 C -0.14436 -0.04933 -0.06387
 C1804 C -0.13095 -0.04348 -0.05810
 C1805 C -0.11500 -0.03634 -0.03667
 C1806 C -0.10317 -0.03163 -0.03199
 C1807 C -0.08889 -0.02617 -0.02664
 C1808 C -0.08184 -0.03302 -0.01434
 C1809 C -0.06767 -0.02816 -0.00954
 C1810 C -0.06032 -0.01635 -0.01702
 C1811 C -0.06761 -0.00942 -0.02927
 C1812 C -0.08178 -0.01432 -0.03404
 H1813 H -0.13901 -0.04551 -0.02061
 H1814 H -0.16267 -0.05567 -0.03066
 H1815 H -0.14552 -0.05054 -0.07596
 H1816 H -0.12210 -0.04015 -0.06580
 H1817 H -0.08723 -0.04224 -0.00856
 H1818 H -0.06240 -0.03378 -0.00010
 H1819 H -0.06228 -0.00035 -0.03533
 H1820 H -0.08712 -0.00897 -0.04361
 C1821 C -0.13236 0.45939 0.45974
 C1822 C -0.14231 0.46838 0.45159
 C1823 C -0.15564 0.46237 0.44579
 C1824 C -0.15934 0.44714 0.44801
 C1825 C -0.14916 0.43833 0.45650
 C1826 C -0.13585 0.44440 0.46224
 C1827 C -0.11832 0.46537 0.46516
 C1828 C -0.10639 0.47009 0.46956
 C1829 C -0.09194 0.47537 0.47463
 C1830 C -0.08462 0.48686 0.46687
 C1831 C -0.07020 0.49139 0.47126
 C1832 C -0.06288 0.48443 0.48348
 C1833 C -0.07048 0.47306 0.49137
 C1834 C -0.08489 0.46857 0.48695
 H1835 H -0.13976 0.48006 0.44967
 H1836 H -0.16319 0.46991 0.43997
 H1837 H -0.15091 0.42650 0.45815
 H1838 H -0.12813 0.43730 0.46842
 H1839 H -0.08996 0.49217 0.45728
 H1840 H -0.06470 0.50015 0.46492
 H1841 H -0.06521 0.46745 0.50082
 H1842 H -0.09044 0.45962 0.49301
 C1843 C 0.37029 -0.04265 0.45828
 C1844 C 0.35885 -0.03312 0.45324
 C1845 C 0.34549 -0.03905 0.44739
 C1846 C 0.34343 -0.05461 0.44653
 C1847 C 0.35498 -0.06408 0.45171
 C1848 C 0.36831 -0.05813 0.45753
 C1849 C 0.38420 -0.03664 0.46395
 C1850 C 0.39600 -0.03184 0.46861
 C1851 C 0.41025 -0.02638 0.47402
 C1852 C 0.41717 -0.01422 0.46697
 C1853 C 0.43132 -0.00932 0.47183
 C1854 C 0.43875 -0.01655 0.48382
 C1855 C 0.43159 -0.02868 0.49093
 C1856 C 0.41745 -0.03355 0.48605
 H1857 H 0.36026 -0.02112 0.45378
 H1858 H 0.33674 -0.03149 0.44364
 H1859 H 0.35383 -0.07610 0.45098
 H1860 H 0.37713 -0.06561 0.46134
 H1861 H 0.41171 -0.00863 0.45761
 H1862 H 0.43649 0.00002 0.46606
 H1863 H 0.43697 -0.03454 0.50015
 H1864 H 0.41221 -0.04301 0.49155
 C1865 C 0.36811 0.45994 -0.04004
 C1866 C 0.36480 0.46164 -0.05532
 C1867 C 0.35158 0.45563 -0.06134
 C1868 C 0.34130 0.44768 -0.05216
 C1869 C 0.34481 0.44625 -0.03665
 C1870 C 0.35806 0.45231 -0.03070
 C1871 C 0.38206 0.46562 -0.03411
 C1872 C 0.39395 0.47022 -0.02947
 C1873 C 0.40836 0.47549 -0.02430
 C1874 C 0.41555 0.48720 -0.03184
 C1875 C 0.42996 0.49173 -0.02745
 C1876 C 0.43741 0.48457 -0.01544
 C1877 C 0.42995 0.47298 -0.00774
 C1878 C 0.41553 0.46848 -0.01216
 H1879 H 0.37259 0.46740 -0.06270
 H1880 H 0.34998 0.45667 -0.07338
 H1881 H 0.33720 0.44087 -0.02885
 H1882 H 0.36048 0.45101 -0.01879
 H1883 H 0.41011 0.49267 -0.04129
 H1884 H 0.43535 0.50067 -0.03365
 H1885 H 0.43533 0.46721 0.00154
 H1886 H 0.41008 0.45937 -0.00627
 C1887 C 0.37872 0.45731 0.79309
 C1888 C 0.39046 0.46679 0.79747
 C1889 C 0.40390 0.46081 0.80311
 C1890 C 0.40574 0.44525 0.80443
 C1891 C 0.39386 0.43583 0.79997
 C1892 C 0.38046 0.44183 0.79434
 C1893 C 0.36479 0.46339 0.78748
 C1894 C 0.35298 0.46824 0.78284
 C1895 C 0.33874 0.47374 0.77741
 C1896 C 0.33157 0.48560 0.78477
 C1897 C 0.31743 0.49052 0.77989
 C1898 C 0.31025 0.48362 0.76755
 C1899 C 0.31767 0.47181 0.76012
 C1900 C 0.33180 0.46692 0.76503
 H1901 H 0.38924 0.47879 0.79654
 H1902 H 0.41289 0.46833 0.80632
 H1903 H 0.39485 0.42382 0.80106
 H1904 H 0.37141 0.43439 0.79105
 H1905 H 0.33682 0.49093 0.79440
 H1906 H 0.31206 0.49960 0.78591
 H1907 H 0.31248 0.46621 0.75062
 H1908 H 0.33724 0.45770 0.75928
 C1909 C 0.37975 -0.04253 0.29212
 C1910 C 0.38193 -0.05798 0.29290
 C1911 C 0.39538 -0.06378 0.29864
 C1912 C 0.40686 -0.05417 0.30368
 C1913 C 0.40460 -0.03864 0.30280
 C1914 C 0.39112 -0.03286 0.29704
 C1915 C 0.36574 -0.03666 0.28649
 C1916 C 0.35387 -0.03195 0.28188
 C1917 C 0.33956 -0.02659 0.27650
 C1918 C 0.33262 -0.03350 0.26418
 C1919 C 0.31843 -0.02871 0.25931
 C1920 C 0.31097 -0.01693 0.26673
 C1921 C 0.31815 -0.00994 0.27902
 C1922 C 0.33234 -0.01476 0.28386
 H1923 H 0.37317 -0.06556 0.28919
 H1924 H 0.39667 -0.07578 0.29939
 H1925 H 0.41329 -0.03097 0.30646
 H1926 H 0.38956 -0.02088 0.29648
 H1927 H 0.33809 -0.04270 0.25843
 H1928 H 0.31325 -0.03437 0.24985
 H1929 H 0.31275 -0.00088 0.28504
 H1930 H 0.33760 -0.00936 0.29345
 C1931 C 0.11781 0.54054 0.70988
 C1932 C 0.10617 0.54502 0.71952
 C1933 C 0.09282 0.55087 0.71356
 C1934 C 0.09095 0.55229 0.69786
 C1935 C 0.10270 0.54766 0.68828
 C1936 C 0.11602 0.54183 0.69426
 C1937 C 0.13176 0.53492 0.71591
 C1938 C 0.14364 0.53037 0.72063
 C1939 C 0.15805 0.52515 0.72587
 C1940 C 0.16534 0.53248 0.73774
 C1941 C 0.17977 0.52802 0.74220
 C1942 C 0.18713 0.51615 0.73481
 C1943 C 0.17955 0.50867 0.72307
 C1944 C 0.16513 0.51317 0.71864
 H1945 H 0.10745 0.54407 0.73163
 H1946 H 0.08392 0.55419 0.72120
 H1947 H 0.10171 0.54883 0.67617
 H1948 H 0.12499 0.53847 0.68670
 H1949 H 0.15999 0.54182 0.74339
 H1950 H 0.18525 0.53404 0.75126
 H1951 H 0.18485 0.49951 0.71711
 H1952 H 0.15960 0.50745 0.70940
 C1953 C 0.11791 0.03956 0.21053
 C1954 C 0.10636 0.02993 0.20599
 C1955 C 0.09283 0.03574 0.20039
 C1956 C 0.09073 0.05128 0.19925
 C1957 C 0.10239 0.06085 0.20393
 C1958 C 0.11588 0.05502 0.20952
 C1959 C 0.13202 0.03369 0.21589
 C1960 C 0.14403 0.02910 0.22024
 C1961 C 0.15857 0.02401 0.22525
 C1962 C 0.16576 0.01222 0.21780
 C1963 C 0.18027 0.00786 0.22210
 C1964 C 0.18779 0.01527 0.23392
 C1965 C 0.18032 0.02695 0.24150
 C1966 C 0.16582 0.03128 0.23717
 H1967 H 0.10782 0.01793 0.20672
 H1968 H 0.08400 0.02811 0.19700
 H1969 H 0.10122 0.07285 0.20297
 H1970 H 0.12479 0.06257 0.21292
 H1971 H 0.16026 0.00655 0.20852
 H1972 H 0.18566 -0.00115 0.21600
 H1973 H 0.18576 0.03292 0.25063
 H1974 H 0.16037 0.04045 0.24298
 C1975 C 0.63023 0.70828 0.20848
 C1976 C 0.64187 0.70404 0.21823
 C1977 C 0.65532 0.69830 0.21241
 C1978 C 0.65729 0.69674 0.19674
 C1979 C 0.64556 0.70115 0.18704
 C1980 C 0.63213 0.70688 0.19288
 C1981 C 0.61621 0.71380 0.21442
 C1982 C 0.60433 0.71831 0.21918
 C1983 C 0.59000 0.72359 0.22458
 C1984 C 0.58285 0.71635 0.23659
 C1985 C 0.56864 0.72110 0.24142
 C1986 C 0.56137 0.73316 0.23427
 C1987 C 0.56876 0.74046 0.22231
 C1988 C 0.58296 0.73569 0.21752
 H1989 H 0.64052 0.70510 0.23032
 H1990 H 0.66421 0.69515 0.22014
 H1991 H 0.64664 0.69988 0.17494
 H1992 H 0.62316 0.71006 0.18523
 H1993 H 0.58819 0.70693 0.24210
 H1994 H 0.56328 0.71518 0.25061
 H1995 H 0.56351 0.74975 0.21652
 H1996 H 0.58838 0.74134 0.20818
 C1997 C 0.13041 0.70764 0.70901
 C1998 C 0.14172 0.71727 0.70391
 C1999 C 0.15509 0.71145 0.69795
 C2000 C 0.15729 0.69591 0.69701
 C2001 C 0.14587 0.68634 0.70225
 C2002 C 0.13253 0.69218 0.70820
 C2003 C 0.11645 0.71355 0.71473
 C2004 C 0.10458 0.71826 0.71935
 C2005 C 0.09022 0.72362 0.72461
 C2006 C 0.08330 0.73576 0.71750
 C2007 C 0.06895 0.74042 0.72200
 C2008 C 0.06131 0.73297 0.73370
 C2009 C 0.06851 0.72094 0.74097
 C2010 C 0.08286 0.71630 0.73643
 H2011 H 0.14019 0.72926 0.70448
 H2012 H 0.16373 0.71910 0.69414
 H2013 H 0.14711 0.67434 0.70147
 H2014 H 0.12381 0.68462 0.71203
 H2015 H 0.08888 0.74147 0.70830
 H2016 H 0.06377 0.74970 0.71614
 H2017 H 0.06298 0.71493 0.74999
 H2018 H 0.08810 0.70686 0.74198
 C2019 C 0.61981 0.20808 0.53982
 C2020 C 0.61758 0.19266 0.54097
 C2021 C 0.60401 0.18709 0.54659
 C2022 C 0.59247 0.19688 0.55116
 C2023 C 0.59477 0.21237 0.54982
 C2024 C 0.60836 0.21793 0.54419
 C2025 C 0.63400 0.21374 0.53450
 C2026 C 0.64602 0.21829 0.53019
 C2027 C 0.66051 0.22351 0.52522
 C2028 C 0.66766 0.21663 0.51300
 C2029 C 0.68197 0.22134 0.50849
 C2030 C 0.68934 0.23301 0.51616
 C2031 C 0.68197 0.23994 0.52837
 C2032 C 0.66766 0.23520 0.53286
 H2033 H 0.62640 0.18495 0.53769
 H2034 H 0.60267 0.17512 0.54769
 H2035 H 0.58604 0.22018 0.55309
 H2036 H 0.60998 0.22989 0.54333
 H2037 H 0.66224 0.20754 0.50705
 H2038 H 0.68731 0.21573 0.49907
 H2039 H 0.68730 0.24892 0.53456
 H2040 H 0.66223 0.24057 0.54237
 C2041 C 0.62182 0.70661 0.04234
 C2042 C 0.61019 0.71606 0.04712
 C2043 C 0.59694 0.71004 0.05308
 C2044 C 0.59516 0.69447 0.05434
 C2045 C 0.60687 0.68508 0.04940
 C2046 C 0.62011 0.69112 0.04345
 C2047 C 0.63565 0.71275 0.03660
 C2048 C 0.64738 0.71770 0.03193
 C2049 C 0.66155 0.72334 0.02653
 C2050 C 0.66854 0.73530 0.03389
 C2051 C 0.68265 0.74034 0.02908
 C2052 C 0.68998 0.73345 0.01683
 C2053 C 0.68273 0.72156 0.00938
 C2054 C 0.66863 0.71655 0.01421
 H2055 H 0.61140 0.72807 0.04630
 H2056 H 0.58805 0.71755 0.05663
 H2057 H 0.60593 0.67306 0.05041
 H2058 H 0.62906 0.68370 0.03985
 H2059 H 0.66318 0.74061 0.04347
 H2060 H 0.68790 0.74948 0.03511
 H2061 H 0.68804 0.71596 -0.00006
 H2062 H 0.66333 0.70725 0.00846
 C2063 C 0.13225 0.04116 0.03927
 C2064 C 0.14243 0.03207 0.04703
 C2065 C 0.15570 0.03811 0.05294
 C2066 C 0.15911 0.05346 0.05123
 C2067 C 0.14869 0.06239 0.04316
 C2068 C 0.13544 0.05629 0.03730
 C2069 C 0.11829 0.03513 0.03372
 C2070 C 0.10640 0.03040 0.02921
 C2071 C 0.09199 0.02513 0.02404
 C2072 C 0.08495 0.01317 0.03132
 C2073 C 0.07053 0.00865 0.02690
 C2074 C 0.06293 0.01607 0.01514
 C2075 C 0.07026 0.02791 0.00771
 C2076 C 0.08467 0.03240 0.01215
 H2077 H 0.14010 0.02029 0.04854
 H2078 H 0.16343 0.03051 0.05843
 H2079 H 0.15021 0.07430 0.04192
 H2080 H 0.12754 0.06347 0.03144
 H2081 H 0.09050 0.00749 0.04057
 H2082 H 0.06526 -0.00049 0.03289
 H2083 H 0.06476 0.03390 -0.00137
 H2084 H 0.09000 0.04171 0.00647
 C2085 C 0.12863 0.54348 0.54172
 C2086 C 0.13063 0.55894 0.54281
 C2087 C 0.14406 0.56476 0.54856
 C2088 C 0.15571 0.55517 0.55330
 C2089 C 0.15361 0.53964 0.55212
 C2090 C 0.14016 0.53384 0.54636
 C2091 C 0.11465 0.53759 0.53605
 C2092 C 0.10282 0.53285 0.53141
 C2093 C 0.08855 0.52742 0.52600
 C2094 C 0.08141 0.53449 0.51388
 C2095 C 0.06726 0.52961 0.50900
 C2096 C 0.06004 0.51757 0.51620
 C2097 C 0.06742 0.51043 0.52828
 C2098 C 0.08156 0.51534 0.53314
 H2099 H 0.12176 0.56651 0.53933
 H2100 H 0.14523 0.57676 0.54954
 H2101 H 0.16243 0.53198 0.55554
 H2102 H 0.13873 0.52185 0.54556
 H2103 H 0.08669 0.54388 0.50831
 H2104 H 0.06191 0.53541 0.49971
 H2105 H 0.06220 0.50117 0.53412
 H2106 H 0.08697 0.50981 0.54256
 C2107 C 0.63110 0.04237 0.53996
 C2108 C 0.63433 0.05750 0.53802
 C2109 C 0.64765 0.06354 0.54380
 C2110 C 0.65811 0.05454 0.55175
 C2111 C 0.65465 0.03920 0.55343
 C2112 C 0.64131 0.03322 0.54760
 C2113 C 0.61708 0.03638 0.53448
 C2114 C 0.60517 0.03161 0.53005
 C2115 C 0.59076 0.02624 0.52496
 C2116 C 0.58346 0.03326 0.51291
 C2117 C 0.56908 0.02864 0.50850
 C2118 C 0.56177 0.01690 0.51611
 C2119 C 0.56935 0.00973 0.52805
 C2120 C 0.58373 0.01438 0.53243
 H2121 H 0.62641 0.06473 0.53226
 H2122 H 0.64919 0.07545 0.54262
 H2123 H 0.66239 0.03155 0.55883
 H2124 H 0.63895 0.02144 0.54909
 H2125 H 0.58878 0.04248 0.50707
 H2126 H 0.56360 0.03443 0.49928
 H2127 H 0.56408 0.00068 0.53418
 H2128 H 0.58927 0.00889 0.54181
 C2129 C 0.62913 0.54391 0.04173
 C2130 C 0.64072 0.53430 0.04628
 C2131 C 0.65417 0.54014 0.05201
 C2132 C 0.65619 0.55567 0.05326
 C2133 C 0.64448 0.56523 0.04860
 C2134 C 0.63105 0.55937 0.04288
 C2135 C 0.61515 0.53796 0.03611
 C2136 C 0.60331 0.53318 0.03151
 C2137 C 0.58903 0.52771 0.02617
 C2138 C 0.58213 0.51558 0.03332
 C2139 C 0.56798 0.51064 0.02853
 C2140 C 0.56050 0.51779 0.01652
 C2141 C 0.56764 0.52987 0.00930
 C2142 C 0.58180 0.53478 0.01411
 H2143 H 0.63935 0.52231 0.04543
 H2144 H 0.66303 0.53251 0.05535
 H2145 H 0.64559 0.57722 0.04963
 H2146 H 0.62213 0.56691 0.03947
 H2147 H 0.58762 0.51005 0.04270
 H2148 H 0.56282 0.50135 0.03438
 H2149 H 0.56222 0.53567 0.00006
 H2150 H 0.58702 0.54421 0.00853
 C2151 C 0.03935 0.03944 0.13257
 C2152 C 0.04717 0.03027 0.14262
 C2153 C 0.05282 0.03611 0.15611
 C2154 C 0.05078 0.05136 0.15986
 C2155 C 0.04261 0.06036 0.14959
 C2156 C 0.03701 0.05445 0.13613
 C2157 C 0.03410 0.03363 0.11838
 C2158 C 0.02985 0.02907 0.10632
 C2159 C 0.02493 0.02400 0.09173
 C2160 C 0.03259 0.01241 0.08442
 C2161 C 0.02833 0.00807 0.06988
 C2162 C 0.01635 0.01530 0.06244
 C2163 C 0.00857 0.02677 0.07003
 C2164 C 0.01285 0.03109 0.08455
 H2165 H 0.04895 0.01857 0.14002
 H2166 H 0.05838 0.02844 0.16370
 H2167 H 0.04111 0.07221 0.15138
 H2168 H 0.03109 0.06169 0.12834
 H2169 H 0.04199 0.00688 0.08986
 H2170 H 0.03459 -0.00079 0.06440
 H2171 H -0.00069 0.03260 0.06466
 H2172 H 0.00688 0.04010 0.09010
 C2173 C 0.03998 0.54197 0.63009
 C2174 C 0.03016 0.54656 0.64154
 C2175 C 0.03591 0.55212 0.65512
 C2176 C 0.05156 0.55314 0.65740
 C2177 C 0.06132 0.54846 0.64582
 C2178 C 0.05556 0.54292 0.63228
 C2179 C 0.03417 0.53647 0.61600
 C2180 C 0.02960 0.53194 0.60405
 C2181 C 0.02446 0.52663 0.58963
 C2182 C 0.01246 0.53374 0.58232
 C2183 C 0.00789 0.52897 0.56802
 C2184 C 0.01529 0.51702 0.56081
 C2185 C 0.02723 0.50984 0.56835
 C2186 C 0.03177 0.51463 0.58265
 H2187 H 0.01808 0.54587 0.63996
 H2188 H 0.02812 0.55551 0.66388
 H2189 H 0.07342 0.54933 0.64714
 H2190 H 0.06326 0.53947 0.62346
 H2191 H 0.00675 0.54307 0.58761
 H2192 H -0.00131 0.53479 0.56255
 H2193 H 0.03321 0.50064 0.56315
 H2194 H 0.04111 0.50908 0.58819
 C2195 C 0.53928 0.03972 0.63307
 C2196 C 0.52989 0.04734 0.64310
 C2197 C 0.53575 0.05338 0.65641
 C2198 C 0.55123 0.05196 0.66000
 C2199 C 0.56046 0.04397 0.64976
 C2200 C 0.55453 0.03798 0.63648
 C2201 C 0.53346 0.03414 0.61902
 C2202 C 0.52888 0.02966 0.60705
 C2203 C 0.52375 0.02458 0.59254
 C2204 C 0.51189 0.03193 0.58527
 C2205 C 0.50752 0.02762 0.57076
 C2206 C 0.51501 0.01587 0.56330
 C2207 C 0.52674 0.00836 0.57084
 C2208 C 0.53108 0.01271 0.58535
 H2209 H 0.51801 0.04865 0.64061
 H2210 H 0.52790 0.05873 0.66401
 H2211 H 0.57248 0.04293 0.65144
 H2212 H 0.56195 0.03222 0.62870
 H2213 H 0.50618 0.04117 0.59071
 H2214 H 0.49846 0.03366 0.56531
 H2215 H 0.53276 -0.00071 0.56546
 H2216 H 0.54032 0.00697 0.59086
 C2217 C 0.54065 0.54305 0.13040
 C2218 C 0.54213 0.55850 0.13226
 C2219 C 0.54793 0.56430 0.14569
 C2220 C 0.55234 0.55471 0.15745
 C2221 C 0.55068 0.53920 0.15553
 C2222 C 0.54487 0.53342 0.14208
 C2223 C 0.53513 0.53714 0.11636
 C2224 C 0.53066 0.53236 0.10446
 C2225 C 0.52547 0.52691 0.09011
 C2226 C 0.51327 0.53381 0.08294
 C2227 C 0.50860 0.52896 0.06871
 C2228 C 0.51610 0.51712 0.06141
 C2229 C 0.52826 0.51015 0.06881
 C2230 C 0.53290 0.51503 0.08305
 H2231 H 0.53896 0.56606 0.12326
 H2232 H 0.54927 0.57628 0.14673
 H2233 H 0.55383 0.53155 0.16445
 H2234 H 0.54376 0.52144 0.14076
 H2235 H 0.50747 0.54306 0.08829
 H2236 H 0.49923 0.53462 0.06336
 H2237 H 0.53432 0.50104 0.06353
 H2238 H 0.54239 0.50964 0.08848
 C2239 C 0.20843 0.54210 0.61919
 C2240 C 0.20755 0.55760 0.61749
 C2241 C 0.20156 0.56375 0.60431
 C2242 C 0.19637 0.55446 0.59261
 C2243 C 0.19738 0.53887 0.59439
 C2244 C 0.20337 0.53274 0.60760
 C2245 C 0.21422 0.53588 0.63299
 C2246 C 0.21891 0.53096 0.64475
 C2247 C 0.22430 0.52544 0.65900
 C2248 C 0.23641 0.53247 0.66618
 C2249 C 0.24105 0.52777 0.68048
 C2250 C 0.23358 0.51598 0.68784
 C2251 C 0.22160 0.50878 0.68037
 C2252 C 0.21700 0.51350 0.66607
 H2253 H 0.21135 0.56495 0.62643
 H2254 H 0.20072 0.57578 0.60339
 H2255 H 0.19361 0.53143 0.58553
 H2256 H 0.20400 0.52071 0.60881
 H2257 H 0.24212 0.54175 0.66083
 H2258 H 0.25029 0.53358 0.68587
 H2259 H 0.21558 0.49969 0.68568
 H2260 H 0.20757 0.50802 0.66063
 C2261 C 0.21036 0.04114 0.11783
 C2262 C 0.20890 0.05662 0.11632
 C2263 C 0.20309 0.06273 0.10304
 C2264 C 0.19865 0.05340 0.09106
 C2265 C 0.20025 0.03784 0.09264
 C2266 C 0.20608 0.03176 0.10596
 C2267 C 0.21593 0.03495 0.13174
 C2268 C 0.22044 0.03006 0.14357
 C2269 C 0.22561 0.02460 0.15793
 C2270 C 0.23775 0.03155 0.16515
 C2271 C 0.24220 0.02691 0.17952
 C2272 C 0.23455 0.01524 0.18691
 C2273 C 0.22255 0.00813 0.17940
 C2274 C 0.21811 0.01280 0.16502
 H2275 H 0.21211 0.06398 0.12547
 H2276 H 0.20178 0.07472 0.10226
 H2277 H 0.19706 0.03040 0.08356
 H2278 H 0.20716 0.01975 0.10701
 H2279 H 0.24360 0.04073 0.15978
 H2280 H 0.25147 0.03265 0.18495
 H2281 H 0.21638 -0.00086 0.18473
 H2282 H 0.20867 0.00738 0.15954
 C2283 C 0.70874 0.20792 0.62984
 C2284 C 0.70769 0.19247 0.63196
 C2285 C 0.70222 0.18675 0.64554
 C2286 C 0.69771 0.19641 0.65722
 C2287 C 0.69884 0.21193 0.65500
 C2288 C 0.70433 0.21764 0.64139
 C2289 C 0.71414 0.21373 0.61571
 C2290 C 0.71857 0.21840 0.60376
 C2291 C 0.72375 0.22374 0.58936
 C2292 C 0.73591 0.21676 0.58221
 C2293 C 0.74063 0.22156 0.56798
 C2294 C 0.73321 0.23345 0.56068
 C2295 C 0.72108 0.24049 0.56805
 C2296 C 0.71639 0.23565 0.58229
 H2297 H 0.71100 0.18485 0.62306
 H2298 H 0.70125 0.17476 0.64680
 H2299 H 0.69557 0.21963 0.66383
 H2300 H 0.70510 0.22962 0.63987
 H2301 H 0.74167 0.20749 0.58757
 H2302 H 0.74997 0.21585 0.56265
 H2303 H 0.71507 0.24963 0.56277
 H2304 H 0.70694 0.24111 0.58770
 C2305 C 0.70919 0.70719 0.12992
 C2306 C 0.70817 0.69175 0.13209
 C2307 C 0.70238 0.68606 0.14557
 C2308 C 0.69752 0.69576 0.15707
 C2309 C 0.69869 0.71128 0.15482
 C2310 C 0.70449 0.71694 0.14133
 C2311 C 0.71477 0.71297 0.11587
 C2312 C 0.71931 0.71766 0.10397
 C2313 C 0.72457 0.72307 0.08963
 C2314 C 0.73645 0.71583 0.08228
 C2315 C 0.74122 0.72074 0.06810
 C2316 C 0.73414 0.73298 0.06107
 C2317 C 0.72229 0.74027 0.06865
 C2318 C 0.71755 0.73533 0.08283
 H2319 H 0.71171 0.68410 0.12331
 H2320 H 0.70141 0.67408 0.14686
 H2321 H 0.69519 0.71902 0.16353
 H2322 H 0.70525 0.72892 0.13977
 H2323 H 0.74193 0.70630 0.08743
 H2324 H 0.75033 0.71483 0.06260
 H2325 H 0.71655 0.74969 0.06358
 H2326 H 0.70831 0.74099 0.08841
 C2327 C 0.54353 0.70671 0.12145
 C2328 C 0.55915 0.70567 0.11958
 C2329 C 0.56515 0.69973 0.10630
 C2330 C 0.55559 0.69472 0.09469
 C2331 C 0.53989 0.69585 0.09665
 C2332 C 0.53392 0.70182 0.10995
 C2333 C 0.53745 0.71257 0.13528
 C2334 C 0.53257 0.71738 0.14700
 C2335 C 0.52703 0.72298 0.16116
 C2336 C 0.53409 0.73515 0.16808
 C2337 C 0.52918 0.74019 0.18216
 C2338 C 0.51712 0.73310 0.18956
 C2339 C 0.50995 0.72099 0.18239
 C2340 C 0.51489 0.71598 0.16830
 H2341 H 0.56669 0.70936 0.12843
 H2342 H 0.57726 0.69879 0.10524
 H2343 H 0.53226 0.69223 0.08786
 H2344 H 0.52181 0.70257 0.11128
 H2345 H 0.54353 0.74063 0.16267
 H2346 H 0.53499 0.74951 0.18734
 H2347 H 0.50067 0.71523 0.18775
 H2348 H 0.50937 0.70651 0.16307
 C2349 C 0.04060 0.70838 0.61807
 C2350 C 0.05624 0.70736 0.61643
 C2351 C 0.06244 0.70130 0.60331
 C2352 C 0.05306 0.69617 0.59161
 C2353 C 0.03734 0.69730 0.59332
 C2354 C 0.03116 0.70337 0.60648
 C2355 C 0.03436 0.71424 0.63181
 C2356 C 0.02948 0.71900 0.64355
 C2357 C 0.02406 0.72446 0.65781
 C2358 C 0.03137 0.73638 0.66490
 C2359 C 0.02682 0.74105 0.67924
 C2360 C 0.01489 0.73381 0.68670
 C2361 C 0.00741 0.72203 0.67932
 C2362 C 0.01199 0.71738 0.66498
 H2363 H 0.06365 0.71111 0.62537
 H2364 H 0.07457 0.70037 0.60245
 H2365 H 0.02984 0.69358 0.58445
 H2366 H 0.01903 0.70411 0.60764
 H2367 H 0.04077 0.74190 0.65947
 H2368 H 0.03285 0.75014 0.68457
 H2369 H -0.00180 0.71618 0.68472
 H2370 H 0.00629 0.70810 0.65961
 C2371 C 0.54246 0.62119 0.20923
 C2372 C 0.53252 0.60996 0.20461
 C2373 C 0.53812 0.59652 0.19882
 C2374 C 0.55375 0.59417 0.19759
 C2375 C 0.56363 0.60550 0.20237
 C2376 C 0.55801 0.61891 0.20814
 C2377 C 0.53674 0.63519 0.21479
 C2378 C 0.53213 0.64704 0.21931
 C2379 C 0.52683 0.66132 0.22455
 C2380 C 0.51453 0.66819 0.21752
 C2381 C 0.50973 0.68232 0.22222
 C2382 C 0.51719 0.68979 0.23404
 C2383 C 0.52946 0.68269 0.24113
 C2384 C 0.53423 0.66856 0.23640
 H2385 H 0.52045 0.61161 0.20541
 H2386 H 0.53024 0.58795 0.19538
 H2387 H 0.57571 0.60411 0.20136
 H2388 H 0.56580 0.62756 0.21162
 H2389 H 0.50875 0.66270 0.20830
 H2390 H 0.50028 0.68745 0.21647
 H2391 H 0.53550 0.68810 0.25023
 H2392 H 0.54379 0.66336 0.24189
 C2393 C 0.03886 0.61867 0.70975
 C2394 C 0.05449 0.61672 0.70905
 C2395 C 0.06054 0.60348 0.70329
 C2396 C 0.05103 0.59200 0.69814
 C2397 C 0.03533 0.59401 0.69900
 C2398 C 0.02929 0.60727 0.70477
 C2399 C 0.03276 0.63254 0.71523
 C2400 C 0.02798 0.64435 0.71969
 C2401 C 0.02271 0.65867 0.72484
 C2402 C 0.02990 0.66573 0.73694
 C2403 C 0.02550 0.68006 0.74136
 C2404 C 0.01385 0.68758 0.73370
 C2405 C 0.00648 0.68024 0.72174
 C2406 C 0.01091 0.66590 0.71734
 H2407 H 0.06200 0.62550 0.71280
 H2408 H 0.07267 0.60238 0.70256
 H2409 H 0.02773 0.58531 0.69526
 H2410 H 0.01718 0.60867 0.70526
 H2411 H 0.03908 0.66025 0.74280
 H2412 H 0.03143 0.68535 0.75060
 H2413 H -0.00251 0.68569 0.71556
 H2414 H 0.00531 0.66055 0.70792
 C2415 C 0.04018 0.13071 0.04050
 C2416 C 0.04113 0.13279 0.05611
 C2417 C 0.04703 0.14604 0.06196
 C2418 C 0.05207 0.15742 0.05227
 C2419 C 0.05102 0.15526 0.03659
 C2420 C 0.04511 0.14198 0.03075
 C2421 C 0.03451 0.11684 0.03458
 C2422 C 0.02994 0.10504 0.02989
 C2423 C 0.02473 0.09075 0.02462
 C2424 C 0.01272 0.08364 0.03187
 C2425 C 0.00825 0.06934 0.02738
 C2426 C 0.01579 0.06193 0.01558
 C2427 C 0.02766 0.06932 0.00816
 C2428 C 0.03210 0.08362 0.01268
 H2429 H 0.03744 0.12410 0.06376
 H2430 H 0.04793 0.14725 0.07408
 H2431 H 0.05471 0.16387 0.02886
 H2432 H 0.04444 0.14048 0.01864
 H2433 H 0.00697 0.08904 0.04116
 H2434 H -0.00091 0.06400 0.03336
 H2435 H 0.03373 0.06397 -0.00095
 H2436 H 0.04144 0.08900 0.00702
 C2437 C 0.04177 0.62883 0.54123
 C2438 C 0.05737 0.63063 0.54252
 C2439 C 0.06332 0.64396 0.54812
 C2440 C 0.05373 0.65570 0.55251
 C2441 C 0.03805 0.65381 0.55110
 C2442 C 0.03212 0.64045 0.54549
 C2443 C 0.03574 0.61494 0.53573
 C2444 C 0.03094 0.60318 0.53120
 C2445 C 0.02552 0.58898 0.52588
 C2446 C 0.03280 0.58183 0.51390
 C2447 C 0.02798 0.56775 0.50910
 C2448 C 0.01580 0.56061 0.51625
 C2449 C 0.00844 0.56799 0.52819
 C2450 C 0.01329 0.58208 0.53296
 H2451 H 0.06494 0.62167 0.53932
 H2452 H 0.07542 0.64498 0.54929
 H2453 H 0.03039 0.66270 0.55425
 H2454 H 0.02002 0.63917 0.54452
 H2455 H 0.04231 0.58706 0.50837
 H2456 H 0.03394 0.56241 0.49991
 H2457 H -0.00093 0.56283 0.53398
 H2458 H 0.00761 0.58751 0.54229
 C2459 C 0.53952 0.13133 0.54053
 C2460 C 0.55515 0.13305 0.54148
 C2461 C 0.56130 0.14629 0.54707
 C2462 C 0.55188 0.15804 0.55178
 C2463 C 0.53616 0.15624 0.55074
 C2464 C 0.53003 0.14296 0.54514
 C2465 C 0.53334 0.11750 0.53508
 C2466 C 0.52854 0.10571 0.53063
 C2467 C 0.52326 0.09140 0.52547
 C2468 C 0.53028 0.08443 0.51323
 C2469 C 0.52587 0.07010 0.50880
 C2470 C 0.51437 0.06253 0.51659
 C2471 C 0.50717 0.06978 0.52871
 C2472 C 0.51161 0.08411 0.53312
 H2473 H 0.56260 0.12409 0.53802
 H2474 H 0.57343 0.14723 0.54795
 H2475 H 0.52863 0.16514 0.55416
 H2476 H 0.51791 0.14174 0.54445
 H2477 H 0.53935 0.08995 0.50727
 H2478 H 0.53167 0.06488 0.49943
 H2479 H 0.49830 0.06430 0.53498
 H2480 H 0.50614 0.08939 0.54265
 C2481 C 0.54308 0.62820 0.04333
 C2482 C 0.53355 0.63966 0.04827
 C2483 C 0.53963 0.65288 0.05407
 C2484 C 0.55534 0.65478 0.05501
 C2485 C 0.56481 0.64319 0.04997
 C2486 C 0.55871 0.63001 0.04418
 C2487 C 0.53689 0.61447 0.03759
 C2488 C 0.53196 0.60284 0.03285
 C2489 C 0.52637 0.58879 0.02730
 C2490 C 0.51409 0.58190 0.03430
 C2491 C 0.50909 0.56793 0.02932
 C2492 C 0.51635 0.56065 0.01725
 C2493 C 0.52858 0.56779 0.01017
 C2494 C 0.53354 0.58175 0.01518
 H2495 H 0.52143 0.63838 0.04765
 H2496 H 0.53206 0.66165 0.05772
 H2497 H 0.57694 0.64422 0.05075
 H2498 H 0.56618 0.62117 0.04045
 H2499 H 0.50848 0.58723 0.04372
 H2500 H 0.49969 0.56276 0.03507
 H2501 H 0.53447 0.56252 0.00090
 H2502 H 0.54309 0.58697 0.00971
 C2503 C 0.70927 0.12071 0.54078
 C2504 C 0.70166 0.11082 0.53129
 C2505 C 0.69578 0.09748 0.53700
 C2506 C 0.69740 0.09372 0.55243
 C2507 C 0.70533 0.10386 0.56177
 C2508 C 0.71115 0.11717 0.55599
 C2509 C 0.71487 0.13468 0.53504
 C2510 C 0.71942 0.14652 0.53045
 C2511 C 0.72468 0.16080 0.52522
 C2512 C 0.71748 0.16788 0.51313
 C2513 C 0.72215 0.18204 0.50847
 C2514 C 0.73411 0.18935 0.51585
 C2515 C 0.74139 0.18204 0.52788
 C2516 C 0.73669 0.16787 0.53252
 H2517 H 0.70025 0.11340 0.51944
 H2518 H 0.69047 0.08999 0.52906
 H2519 H 0.70649 0.10203 0.57376
 H2520 H 0.71692 0.12483 0.56349
 H2521 H 0.70814 0.16252 0.50743
 H2522 H 0.71626 0.18733 0.49920
 H2523 H 0.75060 0.18733 0.53385
 H2524 H 0.74231 0.16251 0.54192
 C2525 C 0.70843 0.62175 0.04148
 C2526 C 0.69281 0.62002 0.04275
 C2527 C 0.68680 0.60676 0.04845
 C2528 C 0.69634 0.59503 0.05299
 C2529 C 0.71202 0.59684 0.05158
 C2530 C 0.71802 0.61012 0.04586
 C2531 C 0.71453 0.63558 0.03595
 C2532 C 0.71942 0.64731 0.03143
 C2533 C 0.72494 0.66148 0.02617
 C2534 C 0.71798 0.66854 0.01394
 C2535 C 0.72285 0.68262 0.00924
 C2536 C 0.73479 0.68987 0.01672
 C2537 C 0.74185 0.68256 0.02888
 C2538 C 0.73694 0.66847 0.03356
 H2539 H 0.68529 0.62898 0.03945
 H2540 H 0.67469 0.60581 0.04960
 H2541 H 0.71964 0.58795 0.05482
 H2542 H 0.73012 0.61133 0.04491
 H2543 H 0.70864 0.66325 0.00817
 H2544 H 0.71712 0.68791 -0.00014
 H2545 H 0.75102 0.68781 0.03494
 H2546 H 0.74239 0.66313 0.04308
 C2547 C 0.21003 0.63057 0.70900
 C2548 C 0.20536 0.64213 0.71854
 C2549 C 0.19937 0.65527 0.71246
 C2550 C 0.19796 0.65699 0.69675
 C2551 C 0.20283 0.64535 0.68727
 C2552 C 0.20881 0.63223 0.69336
 C2553 C 0.21569 0.61680 0.71517
 C2554 C 0.22024 0.60507 0.72005
 C2555 C 0.22543 0.59083 0.72550
 C2556 C 0.21780 0.58365 0.73724
 C2557 C 0.22221 0.56937 0.74184
 C2558 C 0.23432 0.56204 0.73473
 C2559 C 0.24213 0.56951 0.72315
 C2560 C 0.23769 0.58379 0.71858
 H2561 H 0.20626 0.64095 0.73066
 H2562 H 0.19588 0.66410 0.72004
 H2563 H 0.20169 0.64623 0.67514
 H2564 H 0.21231 0.62332 0.68587
 H2565 H 0.20826 0.58898 0.74264
 H2566 H 0.21592 0.56396 0.75076
 H2567 H 0.25148 0.56423 0.71741
 H2568 H 0.24365 0.58923 0.70945
 C2569 C 0.21096 0.13023 0.20895
 C2570 C 0.20963 0.13205 0.19334
 C2571 C 0.20366 0.14525 0.18742
 C2572 C 0.19892 0.15682 0.19705
 C2573 C 0.20042 0.15494 0.21274
 C2574 C 0.20640 0.14171 0.21864
 C2575 C 0.21660 0.11638 0.21494
 C2576 C 0.22112 0.10458 0.21967
 C2577 C 0.22626 0.09026 0.22497
 C2578 C 0.23840 0.08319 0.21788
 C2579 C 0.24279 0.06886 0.22234
 C2580 C 0.23505 0.06138 0.23395
 C2581 C 0.22304 0.06874 0.24121
 C2582 C 0.21868 0.08307 0.23672
 H2583 H 0.21305 0.12320 0.18574
 H2584 H 0.20245 0.14626 0.17531
 H2585 H 0.19702 0.16371 0.22043
 H2586 H 0.20738 0.14041 0.23074
 H2587 H 0.24432 0.08864 0.20873
 H2588 H 0.25206 0.06355 0.21649
 H2589 H 0.21681 0.06333 0.25017
 H2590 H 0.20923 0.08843 0.24225
 C2591 C 0.71109 1.13158 0.71002
 C2592 C 0.69597 1.13507 0.71249
 C2593 C 0.68981 1.14819 0.70660
 C2594 C 0.69868 1.15819 0.69800
 C2595 C 0.71405 1.15450 0.69581
 C2596 C 0.72014 1.14135 0.70176
 C2597 C 0.71712 1.11771 0.71558
 C2598 C 0.72182 1.10590 0.72010
 C2599 C 0.72700 1.09157 0.72530
 C2600 C 0.71972 1.08456 0.73735
 C2601 C 0.72404 1.07020 0.74180
 C2602 C 0.73571 1.06264 0.73422
 C2603 C 0.74317 1.06993 0.72230
 C2604 C 0.73882 1.08429 0.71788
 H2605 H 0.68881 1.12749 0.71875
 H2606 H 0.67788 1.14994 0.70823
 H2607 H 0.72164 1.16190 0.68992
 H2608 H 0.73192 1.13879 0.69986
 H2609 H 0.71052 1.09007 0.74314
 H2610 H 0.71804 1.06495 0.75100
 H2611 H 0.75217 1.06446 0.71619
 H2612 H 0.74449 1.08960 0.70849
 C2613 C 0.70942 0.63075 0.21014
 C2614 C 0.71900 0.64221 0.20537
 C2615 C 0.71299 0.65537 0.19936
 C2616 C 0.69730 0.65721 0.19804
 C2617 C 0.68777 0.64567 0.20300
 C2618 C 0.69380 0.63254 0.20899
 C2619 C 0.71553 0.61696 0.21579
 C2620 C 0.72037 0.60521 0.22032
 C2621 C 0.72581 0.59096 0.22548
 C2622 C 0.73762 0.58384 0.21790
 C2623 C 0.74224 0.56956 0.22227
 C2624 C 0.73505 0.56217 0.23430
 C2625 C 0.72338 0.56958 0.24204
 C2626 C 0.71880 0.58386 0.23764
 H2627 H 0.73111 0.64094 0.20620
 H2628 H 0.72060 0.66412 0.19579
 H2629 H 0.67566 0.64665 0.20192
 H2630 H 0.68628 0.62370 0.21257
 H2631 H 0.74309 0.58922 0.20843
 H2632 H 0.75124 0.56420 0.21604
 H2633 H 0.71759 0.56425 0.25133
 H2634 H 0.70960 0.58925 0.24355
 C2635 C 0.53944 0.11905 0.71017
 C2636 C 0.54738 0.10930 0.71955
 C2637 C 0.55317 0.09593 0.71381
 C2638 C 0.55114 0.09197 0.69848
 C2639 C 0.54292 0.10198 0.68925
 C2640 C 0.53718 0.11533 0.69505
 C2641 C 0.53396 0.13309 0.71588
 C2642 C 0.52951 0.14502 0.72037
 C2643 C 0.52440 0.15944 0.72541
 C2644 C 0.53157 0.16654 0.73749
 C2645 C 0.52717 0.18091 0.74184
 C2646 C 0.51553 0.18840 0.73412
 C2647 C 0.50822 0.18103 0.72215
 C2648 C 0.51264 0.16666 0.71783
 H2649 H 0.54912 0.11204 0.73132
 H2650 H 0.55882 0.08855 0.72164
 H2651 H 0.54148 0.10007 0.67730
 H2652 H 0.53119 0.12290 0.68763
 H2653 H 0.54072 0.16107 0.74341
 H2654 H 0.53307 0.18623 0.75108
 H2655 H 0.49924 0.18644 0.71593
 H2656 H 0.50705 0.16128 0.70843
 C2657 C 1.03913 0.11770 0.21094
 C2658 C 1.05472 0.11577 0.20967
 C2659 C 1.06057 0.10243 0.20398
 C2660 C 1.05090 0.09081 0.19947
 C2661 C 1.03524 0.09280 0.20090
 C2662 C 1.02940 0.10618 0.20661
 C2663 C 1.03322 0.13168 0.21634
 C2664 C 1.02861 0.14359 0.22069
 C2665 C 1.02352 0.15802 0.22569
 C2666 C 1.03065 0.16505 0.23784
 C2667 C 1.02638 0.17946 0.24214
 C2668 C 1.01490 0.18707 0.23430
 C2669 C 1.00760 0.17977 0.22227
 C2670 C 1.01191 0.16535 0.21800
 H2671 H 1.06235 0.12465 0.21292
 H2672 H 1.07267 0.10132 0.20281
 H2673 H 1.02753 0.08400 0.19768
 H2674 H 1.01731 0.10756 0.20755
 H2675 H 1.03969 0.15948 0.24384
 H2676 H 1.03225 0.18471 0.25144
 H2677 H 0.99875 0.18528 0.21598
 H2678 H 1.00635 0.16003 0.20854
 C2679 C 0.20825 0.62095 0.54133
 C2680 C 0.21779 0.60930 0.54578
 C2681 C 0.21173 0.59608 0.55155
 C2682 C 0.19603 0.59434 0.55294
 C2683 C 0.18655 0.60609 0.54833
 C2684 C 0.19263 0.61929 0.54257
 C2685 C 0.21442 0.63473 0.53572
 C2686 C 0.21931 0.64642 0.53111
 C2687 C 0.22481 0.66055 0.52572
 C2688 C 0.23661 0.66778 0.53321
 C2689 C 0.24144 0.68186 0.52840
 C2690 C 0.23448 0.68891 0.51602
 C2691 C 0.22276 0.68142 0.50845
 C2692 C 0.21797 0.66736 0.51328
 H2693 H 0.22990 0.61047 0.54484
 H2694 H 0.21930 0.58717 0.55485
 H2695 H 0.17444 0.60519 0.54946
 H2696 H 0.18515 0.62826 0.53922
 H2697 H 0.24195 0.66263 0.54289
 H2698 H 0.25045 0.68729 0.53453
 H2699 H 0.21712 0.68651 0.49891
 H2700 H 0.20878 0.66188 0.50744
 C2701 C 0.20901 0.12097 1.04092
 C2702 C 0.19345 0.11875 1.04195
 C2703 C 0.18778 0.10528 1.04746
 C2704 C 0.19761 0.09380 1.05202
 C2705 C 0.21325 0.09610 1.05088
 C2706 C 0.21891 0.10960 1.04536
 C2707 C 0.21475 0.13500 1.03551
 C2708 C 0.21931 0.14688 1.03106
 C2709 C 0.22445 0.16121 1.02586
 C2710 C 0.21709 0.16828 1.01387
 C2711 C 0.22168 0.18245 1.00915
 C2712 C 0.23372 0.18977 1.01638
 C2713 C 0.24115 0.18248 1.02833
 C2714 C 0.23653 0.16830 1.03303
 H2715 H 0.18570 0.12750 1.03860
 H2716 H 0.17569 0.10393 1.04840
 H2717 H 0.22109 0.08742 1.05416
 H2718 H 0.23098 0.11120 1.04459
 H2719 H 0.20769 0.16290 1.00827
 H2720 H 0.21567 0.18772 0.99994
 H2721 H 0.25042 0.18778 1.03418
 H2722 H 0.24227 0.16295 1.04236
 C2723 C 0.20765 0.70782 0.62905
 C2724 C 0.20279 0.71741 0.64052
 C2725 C 0.19722 0.71156 0.65404
 C2726 C 0.19646 0.69601 0.65624
 C2727 C 0.20142 0.68648 0.64464
 C2728 C 0.20697 0.69235 0.63115
 C2729 C 0.21318 0.71376 0.61502
 C2730 C 0.21775 0.71848 0.60315
 C2731 C 0.22313 0.72383 0.58883
 C2732 C 0.21574 0.73560 0.58154
 C2733 C 0.22059 0.74039 0.56735
 C2734 C 0.23293 0.73344 0.56023
 C2735 C 0.24039 0.72172 0.56775
 C2736 C 0.23551 0.71696 0.58194
 H2737 H 0.20328 0.72941 0.63902
 H2738 H 0.19363 0.71918 0.66282
 H2739 H 0.20076 0.67447 0.64588
 H2740 H 0.21064 0.68482 0.62231
 H2741 H 0.20611 0.74096 0.58675
 H2742 H 0.21455 0.74940 0.56189
 H2743 H 0.24989 0.71608 0.56261
 H2744 H 0.24128 0.70781 0.58746
 C2745 C 0.20834 0.20807 1.12967
 C2746 C 0.20760 0.19259 1.13169
 C2747 C 0.20214 0.18667 1.14518
 C2748 C 0.19733 0.19615 1.15689
 C2749 C 0.19813 0.21171 1.15477
 C2750 C 0.20361 0.21762 1.14124
 C2751 C 0.21376 0.21406 1.11563
 C2752 C 0.21825 0.21880 1.10374
 C2753 C 0.22352 0.22416 1.08938
 C2754 C 0.23578 0.21724 1.08235
 C2755 C 0.24054 0.22199 1.06812
 C2756 C 0.23307 0.23376 1.06070
 C2757 C 0.22085 0.24077 1.06796
 C2758 C 0.21612 0.23599 1.08220
 H2759 H 0.21116 0.18510 1.12277
 H2760 H 0.20144 0.17465 1.14636
 H2761 H 0.19465 0.21929 1.16363
 H2762 H 0.20414 0.22962 1.13980
 H2763 H 0.24156 0.20804 1.08780
 H2764 H 0.24995 0.21631 1.06288
 H2765 H 0.21481 0.24983 1.06258
 H2766 H 0.20658 0.24140 1.08752
 C2767 C 0.70909 0.54246 0.11895
 C2768 C 0.70815 0.55798 0.11734
 C2769 C 0.70213 0.56418 0.10419
 C2770 C 0.69695 0.55493 0.09245
 C2771 C 0.69802 0.53934 0.09414
 C2772 C 0.70405 0.53315 0.10731
 C2773 C 0.71492 0.53619 0.13271
 C2774 C 0.71966 0.53123 0.14443
 C2775 C 0.72511 0.52569 0.15865
 C2776 C 0.73717 0.53279 0.16584
 C2777 C 0.74186 0.52809 0.18012
 C2778 C 0.73451 0.51619 0.18744
 C2779 C 0.72260 0.50891 0.17995
 C2780 C 0.71793 0.51365 0.16567
 H2781 H 0.71194 0.56529 0.12631
 H2782 H 0.70125 0.57621 0.10335
 H2783 H 0.69426 0.53194 0.08524
 H2784 H 0.70473 0.52112 0.10845
 H2785 H 0.74277 0.54216 0.16053
 H2786 H 0.75105 0.53397 0.18552
 H2787 H 0.71666 0.49975 0.18524
 H2788 H 0.70855 0.50810 0.16023
 C2789 C 0.70914 1.04191 0.61845
 C2790 C 0.70797 1.05741 0.61681
 C2791 C 0.70216 1.06350 0.60353
 C2792 C 0.69742 1.05417 0.59167
 C2793 C 0.69870 1.03859 0.59340
 C2794 C 0.70453 1.03251 0.60671
 C2795 C 0.71481 1.03575 0.63233
 C2796 C 0.71942 1.03090 0.64414
 C2797 C 0.72476 1.02549 0.65847
 C2798 C 0.73703 1.03240 0.66549
 C2799 C 0.74166 1.02781 0.67982
 C2800 C 0.73403 1.01624 0.68737
 C2801 C 0.72188 1.00916 0.68007
 C2802 C 0.71728 1.01378 0.66573
 H2803 H 0.71143 1.06478 0.62586
 H2804 H 0.70111 1.07552 0.60264
 H2805 H 0.69529 1.03113 0.58441
 H2806 H 0.70539 1.02050 0.60787
 H2807 H 0.74287 1.04151 0.65998
 H2808 H 0.75103 1.03353 0.68509
 H2809 H 0.71573 1.00024 0.68553
 H2810 H 0.70773 1.00839 0.66041
 C2811 C 0.54089 0.21038 0.61798
 C2812 C 0.55647 0.20906 0.61604
 C2813 C 0.56230 0.20307 0.60272
 C2814 C 0.55260 0.19831 0.59112
 C2815 C 0.53694 0.19975 0.59313
 C2816 C 0.53113 0.20575 0.60649
 C2817 C 0.53500 0.21610 0.63194
 C2818 C 0.53035 0.22071 0.64384
 C2819 C 0.52512 0.22593 0.65826
 C2820 C 0.53245 0.23779 0.66544
 C2821 C 0.52800 0.24227 0.67988
 C2822 C 0.51615 0.23489 0.68734
 C2823 C 0.50867 0.22315 0.67987
 C2824 C 0.51315 0.21871 0.66544
 H2825 H 0.56413 0.21251 0.62491
 H2826 H 0.57439 0.20188 0.60162
 H2827 H 0.52921 0.19631 0.58435
 H2828 H 0.51905 0.20671 0.60788
 H2829 H 0.54177 0.24342 0.66000
 H2830 H 0.53403 0.25131 0.68528
 H2831 H 0.49952 0.21721 0.68526
 H2832 H 0.50743 0.20948 0.66000
 C2833 C 1.04032 0.20986 0.11790
 C2834 C 1.03102 0.20216 0.10786
 C2835 C 1.03697 0.19613 0.09458
 C2836 C 1.05245 0.19766 0.09104
 C2837 C 1.06159 0.20571 0.10131
 C2838 C 1.05557 0.21169 0.11455
 C2839 C 1.03441 0.21544 0.13191
 C2840 C 1.02974 0.21992 0.14385
 C2841 C 1.02453 0.22502 0.15832
 C2842 C 1.01270 0.21763 0.16557
 C2843 C 1.00826 0.22197 0.18004
 C2844 C 1.01564 0.23378 0.18750
 C2845 C 1.02734 0.24133 0.17997
 C2846 C 1.03175 0.23696 0.16549
 H2847 H 1.01915 0.20076 0.11030
 H2848 H 1.02920 0.19069 0.08697
 H2849 H 1.07360 0.20683 0.09967
 H2850 H 1.06292 0.21750 0.12235
 H2851 H 1.00707 0.20834 0.16013
 H2852 H 0.99924 0.21589 0.18549
 H2853 H 1.03329 0.25044 0.18534
 H2854 H 1.04096 0.24272 0.16000
 C2855 C 0.63177 0.20897 0.70984
 C2856 C 0.63382 0.19350 0.70920
 C2857 C 0.64710 0.18754 0.70325
 C2858 C 0.65854 0.19699 0.69785
 C2859 C 0.65641 0.21255 0.69859
 C2860 C 0.64310 0.21850 0.70456
 C2861 C 0.61787 0.21498 0.71559
 C2862 C 0.60603 0.21973 0.72023
 C2863 C 0.59168 0.22507 0.72552
 C2864 C 0.58438 0.21779 0.73741
 C2865 C 0.57000 0.22235 0.74192
 C2866 C 0.56270 0.23427 0.73456
 C2867 C 0.57029 0.24170 0.72282
 C2868 C 0.58466 0.23711 0.71833
 H2869 H 0.62509 0.18602 0.71317
 H2870 H 0.64829 0.17552 0.70262
 H2871 H 0.66507 0.22011 0.69466
 H2872 H 0.64162 0.23050 0.70500
 H2873 H 0.58969 0.20841 0.74302
 H2874 H 0.56451 0.21636 0.75098
 H2875 H 0.56503 0.25090 0.71688
 H2876 H 0.59019 0.24279 0.70908
 C2877 C 1.13156 0.20761 0.20997
 C2878 C 1.14289 0.21725 0.20493
 C2879 C 1.15624 0.21144 0.19892
 C2880 C 1.15840 0.19590 0.19788
 C2881 C 1.14697 0.18632 0.20308
 C2882 C 1.13365 0.19215 0.20907
 C2883 C 1.11759 0.21351 0.21569
 C2884 C 1.10572 0.21821 0.22029
 C2885 C 1.09135 0.22354 0.22553
 C2886 C 1.08432 0.23555 0.21829
 C2887 C 1.06995 0.24016 0.22277
 C2888 C 1.06238 0.23279 0.23456
 C2889 C 1.06969 0.22090 0.24196
 C2890 C 1.08406 0.21631 0.23745
 H2891 H 1.14138 0.22924 0.20556
 H2892 H 1.16489 0.21909 0.19515
 H2893 H 1.14819 0.17432 0.20221
 H2894 H 1.12491 0.18459 0.21285
 H2895 H 1.08984 0.24120 0.20902
 H2896 H 1.06468 0.24934 0.21680
 H2897 H 1.06421 0.21495 0.25106
 H2898 H 1.08938 0.20697 0.24310
 C2899 C 0.12085 0.70657 0.54075
 C2900 C 0.10949 0.70169 0.53098
 C2901 C 0.09600 0.69604 0.53680
 C2902 C 0.09373 0.69523 0.55248
 C2903 C 0.10521 0.70023 0.56219
 C2904 C 0.11867 0.70586 0.55635
 C2905 C 0.13486 0.71214 0.53487
 C2906 C 0.14673 0.71674 0.53021
 C2907 C 0.16105 0.72215 0.52498
 C2908 C 0.16829 0.71517 0.51286
 C2909 C 0.18249 0.72007 0.50818
 C2910 C 0.18965 0.73204 0.51558
 C2911 C 0.18218 0.73907 0.52766
 C2912 C 0.16799 0.73415 0.53231
 H2913 H 0.11107 0.70221 0.51888
 H2914 H 0.08731 0.69242 0.52905
 H2915 H 0.10389 0.69954 0.57431
 H2916 H 0.12741 0.70955 0.56402
 H2917 H 0.16303 0.70584 0.50714
 H2918 H 0.18791 0.71437 0.49888
 H2919 H 0.18735 0.74828 0.53365
 H2920 H 0.16251 0.73960 0.54174
 C2921 C 0.12013 0.20710 1.04053
 C2922 C 0.10870 0.20233 1.03077
 C2923 C 0.09517 0.19680 1.03660
 C2924 C 0.09290 0.19599 1.05229
 C2925 C 0.10448 0.20082 1.06198
 C2926 C 0.11797 0.20634 1.05613
 C2927 C 0.13414 0.21266 1.03464
 C2928 C 0.14602 0.21728 1.02999
 C2929 C 0.16035 0.22271 1.02477
 C2930 C 0.16770 0.21560 1.01281
 C2931 C 0.18191 0.22050 1.00815
 C2932 C 0.18896 0.23261 1.01542
 C2933 C 0.18137 0.23979 1.02733
 C2934 C 0.16717 0.23486 1.03196
 H2935 H 0.11025 0.20289 1.01867
 H2936 H 0.08642 0.19330 1.02886
 H2937 H 0.10317 0.20013 1.07410
 H2938 H 0.12677 0.20993 1.06379
 H2939 H 0.16254 0.20615 1.00719
 H2940 H 0.18742 0.21468 0.99898
 H2941 H 0.18645 0.24911 1.03322
 H2942 H 0.16159 0.24042 1.04127
 C2943 C 0.61904 0.54107 0.20928
 C2944 C 0.61717 0.54218 0.19366
 C2945 C 0.60394 0.54824 0.18769
 C2946 C 0.59239 0.55328 0.19729
 C2947 C 0.59433 0.55201 0.21299
 C2948 C 0.60758 0.54594 0.21894
 C2949 C 0.63292 0.53530 0.21532
 C2950 C 0.64475 0.53065 0.22008
 C2951 C 0.65910 0.52533 0.22539
 C2952 C 0.66618 0.51337 0.21810
 C2953 C 0.68056 0.50880 0.22258
 C2954 C 0.68809 0.51617 0.23442
 C2955 C 0.68072 0.52799 0.24189
 C2956 C 0.66633 0.53253 0.23737
 H2957 H 0.62601 0.53852 0.18609
 H2958 H 0.60289 0.54927 0.17557
 H2959 H 0.58557 0.55566 0.22065
 H2960 H 0.60893 0.54513 0.23105
 H2961 H 0.66069 0.50775 0.20878
 H2962 H 0.68587 0.49968 0.21657
 H2963 H 0.68617 0.53392 0.25102
 H2964 H 0.66097 0.54183 0.24306
 C2965 C 0.61851 1.04198 0.71077
 C2966 C 0.61640 1.04282 0.69516
 C2967 C 0.60295 1.04843 0.68929
 C2968 C 0.59137 1.05329 0.69895
 C2969 C 0.59357 1.05240 0.71464
 C2970 C 0.60707 1.04677 0.72051
 C2971 C 0.63254 1.03641 0.71667
 C2972 C 0.64447 1.03184 0.72125
 C2973 C 0.65892 1.02653 0.72630
 C2974 C 0.66579 1.01445 0.71901
 C2975 C 0.68022 1.00982 0.72327
 C2976 C 0.68801 1.01725 0.73490
 C2977 C 0.68086 1.02921 0.74235
 C2978 C 0.66643 1.03381 0.73805
 H2979 H 0.62521 1.03922 0.68753
 H2980 H 0.60169 1.04919 0.67716
 H2981 H 0.58482 1.05593 0.72236
 H2982 H 0.60859 1.04617 0.73262
 H2983 H 0.66009 1.00876 0.70985
 H2984 H 0.68535 1.00059 0.71727
 H2985 H 0.68651 1.03520 0.75133
 H2986 H 0.66123 1.04321 0.74374
 C2987 C 0.87981 0.45695 0.29205
 C2988 C 0.88152 0.44148 0.29339
 C2989 C 0.89493 0.43548 0.29899
 C2990 C 0.90685 0.44490 0.30334
 C2991 C 0.90505 0.46045 0.30192
 C2992 C 0.89161 0.46643 0.29630
 C2993 C 0.86587 0.46303 0.28648
 C2994 C 0.85405 0.46788 0.28189
 C2995 C 0.83979 0.47336 0.27649
 C2996 C 0.83268 0.46632 0.26434
 C2997 C 0.81855 0.47122 0.25945
 C2998 C 0.81130 0.48326 0.26667
 C2999 C 0.81865 0.49037 0.27879
 C3000 C 0.83279 0.48544 0.28365
 H3001 H 0.87243 0.43405 0.29019
 H3002 H 0.89588 0.42348 0.30016
 H3003 H 0.91408 0.46797 0.30504
 H3004 H 0.89041 0.47843 0.29529
 H3005 H 0.83799 0.45693 0.25875
 H3006 H 0.81323 0.46545 0.25013
 H3007 H 0.81340 0.49963 0.28464
 H3008 H 0.83818 0.49094 0.29311
 C3009 C 0.87915 0.95649 0.79237
 C3010 C 0.89079 0.96592 0.79711
 C3011 C 0.90407 0.95989 0.80303
 C3012 C 0.90587 0.94432 0.80428
 C3013 C 0.89412 0.93494 0.79942
 C3014 C 0.88086 0.94099 0.79351
 C3015 C 0.86532 0.96264 0.78658
 C3016 C 0.85361 0.96760 0.78185
 C3017 C 0.83945 0.97328 0.77638
 C3018 C 0.83256 0.98539 0.78359
 C3019 C 0.81848 0.99049 0.77872
 C3020 C 0.81109 0.98352 0.76655
 C3021 C 0.81824 0.97147 0.75925
 C3022 C 0.83231 0.96640 0.76415
 H3023 H 0.88958 0.97793 0.79627
 H3024 H 0.91298 0.96738 0.80654
 H3025 H 0.89507 0.92293 0.80045
 H3026 H 0.87189 0.93359 0.78995
 H3027 H 0.83797 0.99076 0.79310
 H3028 H 0.81331 0.99974 0.78464
 H3029 H 0.81288 0.96581 0.74988
 H3030 H 0.83754 0.95698 0.75852
 C3031 C 0.37075 0.29339 0.79154
 C3032 C 0.36849 0.29412 0.80713
 C3033 C 0.35504 0.29984 0.81290
 C3034 C 0.34363 0.30493 0.80315
 C3035 C 0.34600 0.30416 0.78748
 C3036 C 0.35949 0.29842 0.78172
 C3037 C 0.38474 0.28767 0.78571
 C3038 C 0.39659 0.28296 0.78109
 C3039 C 0.41089 0.27748 0.77581
 C3040 C 0.41780 0.26539 0.78303
 C3041 C 0.43198 0.26043 0.77831
 C3042 C 0.43945 0.26753 0.76629
 C3043 C 0.43230 0.27959 0.75900
 C3044 C 0.41813 0.28451 0.76375
 H3045 H 0.37717 0.29034 0.81483
 H3046 H 0.35366 0.30051 0.82502
 H3047 H 0.33737 0.30786 0.77969
 H3048 H 0.36113 0.29790 0.76962
 H3049 H 0.41231 0.25989 0.79242
 H3050 H 0.43715 0.25116 0.78421
 H3051 H 0.43771 0.28535 0.74975
 H3052 H 0.41289 0.29391 0.75811
 C3053 C 0.87061 0.29187 0.29235
 C3054 C 0.86829 0.29295 0.30791
 C3055 C 0.85485 0.29890 0.31351
 C3056 C 0.84354 0.30388 0.30359
 C3057 C 0.84593 0.30266 0.28795
 C3058 C 0.85938 0.29669 0.28237
 C3059 C 0.88464 0.28613 0.28666
 C3060 C 0.89651 0.28147 0.28204
 C3061 C 0.91083 0.27608 0.27670
 C3062 C 0.91780 0.26396 0.28380
 C3063 C 0.93196 0.25907 0.27898
 C3064 C 0.93936 0.26627 0.26698
 C3065 C 0.93217 0.27837 0.25982
 C3066 C 0.91800 0.28323 0.26467
 H3067 H 0.87693 0.28932 0.31573
 H3068 H 0.85344 0.29990 0.32559
 H3069 H 0.83736 0.30624 0.28004
 H3070 H 0.86106 0.29590 0.27030
 H3071 H 0.91235 0.25838 0.29316
 H3072 H 0.93717 0.24976 0.28478
 H3073 H 0.93753 0.28421 0.25059
 H3074 H 0.91272 0.29266 0.25912
 C3075 C 0.38176 0.79095 0.45914
 C3076 C 0.38378 0.79228 0.44356
 C3077 C 0.39705 0.79844 0.43782
 C3078 C 0.40850 0.80337 0.44761
 C3079 C 0.40641 0.80188 0.46327
 C3080 C 0.39311 0.79571 0.46899
 C3081 C 0.36785 0.78505 0.46496
 C3082 C 0.35602 0.78030 0.46960
 C3083 C 0.34168 0.77489 0.47483
 C3084 C 0.33467 0.76295 0.46747
 C3085 C 0.32033 0.75827 0.47194
 C3086 C 0.31277 0.76551 0.48384
 C3087 C 0.32007 0.77732 0.49136
 C3088 C 0.33442 0.78197 0.48687
 H3089 H 0.37503 0.78871 0.43584
 H3090 H 0.39824 0.79962 0.42573
 H3091 H 0.41508 0.80541 0.47107
 H3092 H 0.39166 0.79473 0.48107
 H3093 H 0.34018 0.75741 0.45811
 H3094 H 0.31506 0.74916 0.46588
 H3095 H 0.31461 0.78317 0.50055
 H3096 H 0.33973 0.79126 0.49262
 C3097 C 0.38102 0.29191 0.95938
 C3098 C 0.39244 0.28237 0.95427
 C3099 C 0.40577 0.28830 0.94839
 C3100 C 0.40785 0.30386 0.94754
 C3101 C 0.39632 0.31333 0.95278
 C3102 C 0.38302 0.30739 0.95865
 C3103 C 0.36709 0.28590 0.96503
 C3104 C 0.35525 0.28112 0.96961
 C3105 C 0.34091 0.27572 0.97484
 C3106 C 0.33383 0.26386 0.96741
 C3107 C 0.31949 0.25920 0.97190
 C3108 C 0.31200 0.26637 0.98389
 C3109 C 0.31937 0.27811 0.99147
 C3110 C 0.33371 0.28275 0.98695
 H3111 H 0.39101 0.27037 0.95478
 H3112 H 0.41450 0.28073 0.94458
 H3113 H 0.39746 0.32535 0.95206
 H3114 H 0.37421 0.31487 0.96249
 H3115 H 0.33928 0.25838 0.95799
 H3116 H 0.31417 0.25015 0.96579
 H3117 H 0.31396 0.28391 1.00072
 H3118 H 0.33907 0.29197 0.99275
 C3119 C 0.79068 0.45798 0.38016
 C3120 C 0.79511 0.46773 0.39168
 C3121 C 0.80063 0.46205 0.40529
 C3122 C 0.80179 0.44653 0.40754
 C3123 C 0.79723 0.43684 0.39591
 C3124 C 0.79171 0.44254 0.38232
 C3125 C 0.78533 0.46376 0.36599
 C3126 C 0.78096 0.46838 0.35400
 C3127 C 0.77590 0.47366 0.33953
 C3128 C 0.78321 0.48563 0.33255
 C3129 C 0.77866 0.49040 0.31824
 C3130 C 0.76672 0.48321 0.31070
 C3131 C 0.75935 0.47127 0.31791
 C3132 C 0.76392 0.46654 0.33222
 H3133 H 0.79434 0.47970 0.39012
 H3134 H 0.80392 0.46977 0.41409
 H3135 H 0.79820 0.42486 0.39720
 H3136 H 0.78839 0.43490 0.37345
 H3137 H 0.79252 0.49119 0.33809
 H3138 H 0.78462 0.49959 0.31303
 H3139 H 0.75015 0.46546 0.31245
 H3140 H 0.75822 0.45722 0.33751
 C3141 C 0.79198 0.95732 0.87931
 C3142 C 0.79683 0.96699 0.89072
 C3143 C 0.80261 0.96123 0.90419
 C3144 C 0.80361 0.94569 0.90640
 C3145 C 0.79858 0.93608 0.89490
 C3146 C 0.79282 0.94187 0.88145
 C3147 C 0.78646 0.96320 0.86526
 C3148 C 0.78196 0.96793 0.85336
 C3149 C 0.77674 0.97337 0.83901
 C3150 C 0.78428 0.98509 0.83185
 C3151 C 0.77956 0.99000 0.81765
 C3152 C 0.76721 0.98322 0.81041
 C3153 C 0.75962 0.97152 0.81780
 C3154 C 0.76437 0.96664 0.83199
 H3155 H 0.79622 0.97898 0.88918
 H3156 H 0.80624 0.96890 0.91290
 H3157 H 0.79940 0.92408 0.89617
 H3158 H 0.78916 0.93428 0.87266
 H3159 H 0.79391 0.99034 0.83717
 H3160 H 0.78570 0.99900 0.81229
 H3161 H 0.75010 0.96601 0.81256
 H3162 H 0.75848 0.95752 0.83743
 C3163 C 0.29010 0.79061 0.36770
 C3164 C 0.29480 0.78116 0.35604
 C3165 C 0.30052 0.78719 0.34267
 C3166 C 0.30161 0.80276 0.34082
 C3167 C 0.29677 0.81215 0.35259
 C3168 C 0.29106 0.80610 0.36593
 C3169 C 0.28461 0.78451 0.38166
 C3170 C 0.28015 0.77973 0.39355
 C3171 C 0.27498 0.77443 0.40796
 C3172 C 0.28249 0.76270 0.41518
 C3173 C 0.27805 0.75819 0.42960
 C3174 C 0.26604 0.76540 0.43701
 C3175 C 0.25839 0.77700 0.42950
 C3176 C 0.26285 0.78148 0.41509
 H3177 H 0.29410 0.76915 0.35730
 H3178 H 0.30402 0.77969 0.33375
 H3179 H 0.29768 0.82416 0.35160
 H3180 H 0.28753 0.81352 0.37492
 H3181 H 0.29193 0.75720 0.40978
 H3182 H 0.28421 0.74924 0.43504
 H3183 H 0.24911 0.78282 0.43484
 H3184 H 0.25700 0.79061 0.40961
 C3185 C 0.29042 0.29152 0.86857
 C3186 C 0.30605 0.29268 0.86699
 C3187 C 0.31224 0.29872 0.85387
 C3188 C 0.30285 0.30371 0.84212
 C3189 C 0.28713 0.30242 0.84376
 C3190 C 0.28096 0.29636 0.85691
 C3191 C 0.28419 0.28572 0.88233
 C3192 C 0.27934 0.28101 0.89409
 C3193 C 0.27401 0.27559 0.90839
 C3194 C 0.28143 0.26374 0.91550
 C3195 C 0.27698 0.25913 0.92987
 C3196 C 0.26503 0.26636 0.93736
 C3197 C 0.25743 0.27806 0.92996
 C3198 C 0.26191 0.28265 0.91558
 H3199 H 0.31347 0.28904 0.87598
 H3200 H 0.32436 0.29977 0.85306
 H3201 H 0.27963 0.30603 0.83484
 H3202 H 0.26884 0.29552 0.85803
 H3203 H 0.29084 0.25824 0.91005
 H3204 H 0.28309 0.25010 0.93521
 H3205 H 0.24821 0.28390 0.93538
 H3206 H 0.25613 0.29188 0.91019
 C3207 C 0.45857 0.29266 0.87968
 C3208 C 0.45772 0.30811 0.88188
 C3209 C 0.45207 0.31387 0.89539
 C3210 C 0.44717 0.30423 0.90692
 C3211 C 0.44810 0.28870 0.90462
 C3212 C 0.45376 0.28297 0.89108
 C3213 C 0.46415 0.28684 0.86562
 C3214 C 0.46873 0.28218 0.85371
 C3215 C 0.47405 0.27686 0.83935
 C3216 C 0.48609 0.28402 0.83219
 C3217 C 0.49088 0.27926 0.81796
 C3218 C 0.48367 0.26725 0.81068
 C3219 C 0.47168 0.26003 0.81807
 C3220 C 0.46691 0.26482 0.83230
 H3221 H 0.46133 0.31572 0.87310
 H3222 H 0.45129 0.32586 0.89671
 H3223 H 0.44455 0.28101 0.91334
 H3224 H 0.45437 0.27098 0.88950
 H3225 H 0.49166 0.29339 0.83753
 H3226 H 0.50011 0.28511 0.81261
 H3227 H 0.46583 0.25078 0.81280
 H3228 H 0.45755 0.25923 0.83772
 C3229 C 0.95930 0.29142 0.38020
 C3230 C 0.95459 0.28177 0.39168
 C3231 C 0.94897 0.28757 0.40521
 C3232 C 0.94800 0.30311 0.40742
 C3233 C 0.95282 0.31269 0.39582
 C3234 C 0.95842 0.30688 0.38232
 C3235 C 0.96478 0.28554 0.36613
 C3236 C 0.96927 0.28085 0.35421
 C3237 C 0.97448 0.27551 0.33982
 C3238 C 0.96719 0.26354 0.33277
 C3239 C 0.97184 0.25875 0.31850
 C3240 C 0.98386 0.26590 0.31107
 C3241 C 0.99122 0.27781 0.31836
 C3242 C 0.98654 0.28257 0.33262
 H3243 H 0.95522 0.26978 0.39016
 H3244 H 0.94549 0.27991 0.41399
 H3245 H 0.95200 0.32470 0.39708
 H3246 H 0.96196 0.31445 0.37348
 H3247 H 0.95781 0.25802 0.33822
 H3248 H 0.96589 0.24958 0.31323
 H3249 H 1.00047 0.28360 0.31298
 H3250 H 0.99223 0.29188 0.33796
 C3251 C 0.45712 0.37888 0.79137
 C3252 C 0.44156 0.38062 0.79316
 C3253 C 0.43574 0.39385 0.79917
 C3254 C 0.44542 0.40553 0.80349
 C3255 C 0.46105 0.40371 0.80155
 C3256 C 0.46685 0.39046 0.79553
 C3257 C 0.46305 0.36507 0.78554
 C3258 C 0.46783 0.35337 0.78080
 C3259 C 0.47331 0.33923 0.77536
 C3260 C 0.46607 0.33210 0.76333
 C3261 C 0.47095 0.31805 0.75848
 C3262 C 0.48317 0.31091 0.76562
 C3263 C 0.49049 0.31828 0.77759
 C3264 C 0.48558 0.33233 0.78241
 H3265 H 0.43393 0.37170 0.79004
 H3266 H 0.42367 0.39484 0.80071
 H3267 H 0.46877 0.41257 0.80460
 H3268 H 0.47892 0.38923 0.79417
 H3269 H 0.45653 0.33732 0.75783
 H3270 H 0.46501 0.31271 0.74928
 H3271 H 0.49990 0.31313 0.78338
 H3272 H 0.49124 0.33773 0.79177
 C3273 C 0.95789 0.37813 0.29100
 C3274 C 0.94233 0.37999 0.29275
 C3275 C 0.93659 0.39333 0.29857
 C3276 C 0.94634 0.40500 0.30275
 C3277 C 0.96196 0.40306 0.30086
 C3278 C 0.96769 0.38970 0.29502
 C3279 C 0.96373 0.36421 0.28536
 C3280 C 0.96841 0.35242 0.28077
 C3281 C 0.97375 0.33818 0.27547
 C3282 C 0.96647 0.33107 0.26345
 C3283 C 0.97120 0.31694 0.25870
 C3284 C 0.98330 0.30970 0.26593
 C3285 C 0.99067 0.31705 0.27789
 C3286 C 0.98590 0.33118 0.28261
 H3287 H 0.93465 0.37108 0.28973
 H3288 H 0.92453 0.39441 0.30008
 H3289 H 0.96973 0.41191 0.30381
 H3290 H 0.97975 0.38838 0.29370
 H3291 H 0.95701 0.33637 0.25787
 H3292 H 0.96524 0.31162 0.24950
 H3293 H 0.99999 0.31182 0.28374
 H3294 H 0.99158 0.33657 0.29196
 C3295 C 0.29098 0.87980 0.45897
 C3296 C 0.28145 0.89116 0.45380
 C3297 C 0.28755 0.90426 0.44775
 C3298 C 0.30326 0.90613 0.44682
 C3299 C 0.31272 0.89466 0.45212
 C3300 C 0.30661 0.88160 0.45815
 C3301 C 0.28483 0.86611 0.46479
 C3302 C 0.28001 0.85442 0.46950
 C3303 C 0.27466 0.84023 0.47486
 C3304 C 0.26284 0.83300 0.46741
 C3305 C 0.25834 0.81874 0.47194
 C3306 C 0.26565 0.81148 0.48399
 C3307 C 0.27731 0.81901 0.49162
 C3308 C 0.28178 0.83327 0.48706
 H3309 H 0.26933 0.88987 0.45437
 H3310 H 0.27999 0.91295 0.44390
 H3311 H 0.32485 0.89566 0.45134
 H3312 H 0.31408 0.87283 0.46203
 H3313 H 0.25729 0.83827 0.45792
 H3314 H 0.24934 0.81330 0.46580
 H3315 H 0.28320 0.81378 0.50092
 H3316 H 0.29099 0.83876 0.49287
 C3317 C 0.29034 0.38110 0.96027
 C3318 C 0.28069 0.39243 0.95528
 C3319 C 0.28663 0.40566 0.94937
 C3320 C 0.30232 0.40770 0.94839
 C3321 C 0.31191 0.39626 0.95353
 C3322 C 0.30595 0.38307 0.95942
 C3323 C 0.28432 0.36727 0.96590
 C3324 C 0.27956 0.35549 0.97045
 C3325 C 0.27425 0.34122 0.97566
 C3326 C 0.26235 0.33409 0.96822
 C3327 C 0.25783 0.31980 0.97266
 C3328 C 0.26518 0.31242 0.98460
 C3329 C 0.27693 0.31984 0.99220
 C3330 C 0.28143 0.33413 0.98774
 H3331 H 0.26858 0.39102 0.95587
 H3332 H 0.27897 0.41432 0.94562
 H3333 H 0.32403 0.39738 0.95269
 H3334 H 0.31353 0.37432 0.96317
 H3335 H 0.25675 0.33947 0.95882
 H3336 H 0.24876 0.31444 0.96654
 H3337 H 0.28287 0.31452 1.00142
 H3338 H 0.29068 0.33953 0.99354
 C3339 C 0.79316 0.37119 0.29020
 C3340 C 0.78323 0.35981 0.29443
 C3341 C 0.78881 0.34644 0.30037
 C3342 C 0.80442 0.34429 0.30216
 C3343 C 0.81430 0.35576 0.29776
 C3344 C 0.80870 0.36911 0.29183
 C3345 C 0.78744 0.38513 0.28451
 C3346 C 0.78280 0.39694 0.27992
 C3347 C 0.77743 0.41119 0.27466
 C3348 C 0.76513 0.41802 0.28170
 C3349 C 0.76029 0.43214 0.27703
 C3350 C 0.76772 0.43964 0.26523
 C3351 C 0.77998 0.43257 0.25810
 C3352 C 0.78479 0.41845 0.26280
 H3353 H 0.77118 0.36130 0.29321
 H3354 H 0.78094 0.33775 0.30350
 H3355 H 0.82636 0.35454 0.29920
 H3356 H 0.81648 0.37788 0.28866
 H3357 H 0.75938 0.41251 0.29092
 H3358 H 0.75085 0.43724 0.28280
 H3359 H 0.78600 0.43802 0.24902
 H3360 H 0.79436 0.41327 0.25730
   
