data_POSCAR
  _audit_creation_date              2014-09-24
  _audit_creation_method            'ToBaCCo'
  _symmetry_space_group_name_H-M    'P1'
  _symmetry_Int_Tables_number       1
  _symmetry_cell_setting            triclinic
  loop_
  _symmetry_equiv_pos_as_xyz
 x,y,z
_cell_length_a 41.4489
_cell_length_b 40.8052
_cell_length_c 40.9686
_cell_angle_alpha 89.066500
_cell_angle_beta 90.229200
_cell_angle_gamma 89.792900
loop_
  _atom_site_label
  _atom_site_type_symbol
  _atom_site_fract_x
  _atom_site_fract_y
  _atom_site_fract_z
C1 C 0.11534 -0.05725 0.26329
 C2 C 0.11135 -0.02440 0.27269
 C3 C 0.10235 -0.01801 0.30521
 C4 C 0.09878 -0.04361 0.32790
 C5 C 0.09967 -0.07596 0.31743
 C6 C 0.10795 -0.08305 0.28509
 C7 C 0.11928 0.00316 0.24975
 C8 C 0.11408 0.00110 0.21573
 C9 C 0.12485 0.02617 0.19431
 C10 C 0.13910 0.05441 0.20767
 C11 C 0.14147 0.05784 0.24151
 C12 C 0.13288 0.03187 0.26210
 H13 H 0.12349 -0.06282 0.23890
 H14 H 0.09963 0.00684 0.31361
 H15 H 0.10268 -0.02045 0.20585
 H16 H 0.13734 0.03431 0.28799
 H17 H 0.09644 -0.09564 0.33522
 H18 H 0.14601 0.07490 0.19212
 C19 C 0.38746 -0.04379 0.76011
 C20 C 0.39744 -0.01308 0.74768
 C21 C 0.40379 -0.01007 0.71403
 C22 C 0.39558 -0.03521 0.69279
 C23 C 0.38386 -0.06497 0.70531
 C24 C 0.38128 -0.06979 0.73910
 C25 C 0.39594 0.01664 0.76848
 C26 C 0.39830 0.01422 0.80275
 C27 C 0.38808 0.04016 0.82251
 C28 C 0.37815 0.06984 0.80753
 C29 C 0.37963 0.07376 0.77364
 C30 C 0.38764 0.04717 0.75431
 H31 H 0.38239 -0.04733 0.78580
 H32 H 0.41310 0.01257 0.70374
 H33 H 0.40624 -0.00852 0.81420
 H34 H 0.38538 0.05029 0.72814
 H35 H 0.37770 -0.08458 0.68889
 H36 H 0.37125 0.09068 0.82201
 C37 C 0.88396 0.45529 0.23652
 C38 C 0.88585 0.48886 0.22781
 C39 C 0.89329 0.49717 0.19513
 C40 C 0.89780 0.47297 0.17187
 C41 C 0.89780 0.43997 0.18133
 C42 C 0.89083 0.43103 0.21366
 C43 C 0.87821 0.51499 0.25194
 C44 C 0.88148 0.50933 0.28591
 C45 C 0.87047 0.53256 0.30843
 C46 C 0.85847 0.56286 0.29667
 C47 C 0.85887 0.57019 0.26327
 C48 C 0.86717 0.54601 0.24114
 H49 H 0.87680 0.44767 0.26084
 H50 H 0.89549 0.52240 0.18709
 H51 H 0.89168 0.48650 0.29503
 H52 H 0.86442 0.55193 0.21549
 H53 H 0.90141 0.42124 0.16321
 H54 H 0.85170 0.58197 0.31340
 C55 C 0.62716 0.45099 0.74865
 C56 C 0.62280 0.48499 0.75208
 C57 C 0.61006 0.49633 0.78153
 C58 C 0.60321 0.47483 0.80743
 C59 C 0.60534 0.44108 0.80288
 C60 C 0.61732 0.42912 0.77341
 C61 C 0.62991 0.50877 0.72503
 C62 C 0.62745 0.49944 0.69224
 C63 C 0.62849 0.52303 0.66711
 C64 C 0.63029 0.55629 0.67444
 C65 C 0.63403 0.56577 0.70684
 C66 C 0.63567 0.54203 0.73171
 H67 H 0.63781 0.44124 0.72676
 H68 H 0.60537 0.52212 0.78491
 H69 H 0.62275 0.47425 0.68593
 H70 H 0.63960 0.55009 0.75644
 H71 H 0.59985 0.42429 0.82285
 H72 H 0.62904 0.57466 0.65504
 C73 C 0.24297 0.15097 1.04782
 C74 C 0.24065 0.14746 1.01383
 C75 C 0.21147 0.13559 1.00083
 C76 C 0.18629 0.12469 1.02127
 C77 C 0.19120 0.12442 1.05521
 C78 C 0.21920 0.13817 1.06849
 C79 C 0.26995 0.15069 0.99271
 C80 C 0.30079 0.14359 1.00577
 C81 C 0.32727 0.13746 0.98538
 C82 C 0.32260 0.13808 0.95148
 C83 C 0.29291 0.14801 0.93815
 C84 C 0.26706 0.15533 0.95870
 H85 H 0.26426 0.16168 1.05862
 H86 H 0.20927 0.13212 0.97485
 H87 H 0.30368 0.13930 1.03170
 H88 H 0.24421 0.16247 0.94780
 H89 H 0.17271 0.11497 1.07143
 H90 H 0.34236 0.13216 0.93529
 C91 C 0.78373 0.34892 1.04178
 C92 C 0.78411 0.35519 1.00792
 C93 C 0.81383 0.35977 0.99230
 C94 C 0.84216 0.36163 1.01063
 C95 C 0.84098 0.35982 1.04472
 C96 C 0.81169 0.35318 1.06065
 C97 C 0.75385 0.36427 0.99052
 C98 C 0.73117 0.38395 1.00631
 C99 C 0.70451 0.39765 0.98964
 C100 C 0.70176 0.39237 0.95579
 C101 C 0.72465 0.37290 0.93951
 C102 C 0.74983 0.35808 0.95729
 H103 H 0.76087 0.34438 1.05378
 H104 H 0.81485 0.36491 0.96629
 H105 H 0.73555 0.38980 1.03149
 H106 H 0.76748 0.34324 0.94478
 H107 H 0.86311 0.36281 1.05849
 H108 H 0.68197 0.40334 0.94209
 C109 C 0.24963 0.87221 0.54932
 C110 C 0.25016 0.87705 0.51531
 C111 C 0.27741 0.89166 0.50115
 C112 C 0.30451 0.90048 0.51974
 C113 C 0.30255 0.89760 0.55407
 C114 C 0.27522 0.88306 0.56894
 C115 C 0.22243 0.86766 0.49406
 C116 C 0.19032 0.87074 0.50484
 C117 C 0.16451 0.86429 0.48363
 C118 C 0.17059 0.85623 0.45110
 C119 C 0.20229 0.85376 0.43992
 C120 C 0.22795 0.85809 0.46160
 H121 H 0.22906 0.86047 0.56072
 H122 H 0.27697 0.89727 0.47531
 H123 H 0.18522 0.87877 0.52935
 H124 H 0.25228 0.85534 0.45248
 H125 H 0.32279 0.90491 0.56907
 H126 H 0.15068 0.85324 0.43418
 C127 C 0.72904 0.64886 0.53699
 C128 C 0.72923 0.64368 0.50330
 C129 C 0.70221 0.62941 0.48880
 C130 C 0.67686 0.61642 0.50743
 C131 C 0.67750 0.62058 0.54159
 C132 C 0.70362 0.63720 0.55645
 C133 C 0.75957 0.64547 0.48411
 C134 C 0.78804 0.63220 0.49748
 C135 C 0.81358 0.62187 0.47740
 C136 C 0.80963 0.62456 0.44317
 C137 C 0.78207 0.64028 0.42976
 C138 C 0.75819 0.65210 0.45052
 H139 H 0.74987 0.65993 0.54841
 H140 H 0.70221 0.62591 0.46275
 H141 H 0.78868 0.62651 0.52333
 H142 H 0.73661 0.66318 0.44006
 H143 H 0.65846 0.61019 0.55649
 H144 H 0.82813 0.61537 0.42707
 C145 C -0.03771 0.25284 0.12914
 C146 C -0.00428 0.25590 0.12587
 C147 C 0.00841 0.28532 0.11348
 C148 C -0.01120 0.31230 0.10578
 C149 C -0.04492 0.30828 0.10681
 C150 C -0.05819 0.27879 0.11944
 C151 C 0.01858 0.23054 0.13815
 C152 C 0.01545 0.19700 0.13116
 C153 C 0.03981 0.17455 0.14107
 C154 C 0.06819 0.18667 0.15582
 C155 C 0.07196 0.22027 0.16036
 C156 C 0.04630 0.24130 0.15426
 H157 H -0.04774 0.23060 0.13970
 H158 H 0.03422 0.28723 0.10985
 H159 H -0.00571 0.18854 0.11820
 H160 H 0.04931 0.26706 0.15963
 H161 H -0.06066 0.32875 0.10065
 H162 H 0.08867 0.17069 0.16054
 C163 C -0.06083 0.75347 0.38149
 C164 C -0.03093 0.73894 0.38956
 C165 C -0.02921 0.70450 0.39214
 C166 C -0.05529 0.68507 0.38266
 C167 C -0.08438 0.69999 0.37324
 C168 C -0.08752 0.73410 0.37400
 C169 C -0.00107 0.75925 0.39091
 C170 C -0.00243 0.79289 0.39800
 C171 C 0.02427 0.81317 0.39237
 C172 C 0.05346 0.79942 0.38181
 C173 C 0.05590 0.76554 0.37755
 C174 C 0.02869 0.74583 0.38139
 H175 H -0.06329 0.77978 0.37896
 H176 H -0.00712 0.69249 0.39996
 H177 H -0.02460 0.80386 0.40653
 H178 H 0.03090 0.72021 0.37540
 H179 H -0.10485 0.68509 0.36639
 H180 H 0.07442 0.81481 0.37803
 C181 C 0.46672 0.24479 0.85826
 C182 C 0.49469 0.23013 0.87107
 C183 C 0.49643 0.19600 0.87418
 C184 C 0.47084 0.17628 0.86342
 C185 C 0.44329 0.19146 0.84924
 C186 C 0.44059 0.22579 0.84834
 C187 C 0.51991 0.25100 0.88527
 C188 C 0.51076 0.27468 0.90773
 C189 C 0.53322 0.29681 0.92035
 C190 C 0.56564 0.29412 0.91081
 C191 C 0.57553 0.26889 0.88992
 C192 C 0.55243 0.24783 0.87662
 H193 H 0.46473 0.27130 0.85733
 H194 H 0.51751 0.18492 0.88566
 H195 H 0.48551 0.27650 0.91413
 H196 H 0.55975 0.22884 0.85998
 H197 H 0.42255 0.17699 0.84240
 H198 H 0.58341 0.31079 0.92057
 C199 C 0.45163 0.75187 0.65438
 C200 C 0.48533 0.75327 0.65135
 C201 C 0.49925 0.78156 0.63769
 C202 C 0.48013 0.80640 0.62386
 C203 C 0.44657 0.80433 0.62595
 C204 C 0.43225 0.77697 0.64096
 C205 C 0.50518 0.72298 0.65206
 C206 C 0.49379 0.69618 0.63446
 C207 C 0.51540 0.67416 0.62045
 C208 C 0.54854 0.67788 0.62523
 C209 C 0.56014 0.70429 0.64311
 C210 C 0.53836 0.72508 0.65876
 H211 H 0.44042 0.72993 0.66429
 H212 H 0.52511 0.78279 0.63449
 H213 H 0.46855 0.69493 0.62762
 H214 H 0.54749 0.74615 0.67161
 H215 H 0.43161 0.82315 0.61455
 H216 H 0.56522 0.66227 0.61230
 C217 C 0.88252 1.05093 0.75911
 C218 C 0.89029 1.01947 0.77183
 C219 C 0.89777 1.01634 0.80560
 C220 C 0.89363 1.04308 0.82668
 C221 C 0.88468 1.07379 0.81307
 C222 C 0.88045 1.07801 0.77942
 C223 C 0.88639 0.99006 0.75049
 C224 C 0.88949 0.99299 0.71611
 C225 C 0.87665 0.96903 0.69545
 C226 C 0.86345 0.94053 0.70947
 C227 C 0.86467 0.93495 0.74315
 C228 C 0.87539 0.95992 0.76371
 H229 H 0.87662 1.05455 0.73356
 H230 H 0.90465 0.99273 0.81589
 H231 H 0.89985 1.01490 0.70527
 H232 H 0.87349 0.95616 0.78983
 H233 H 0.88247 1.09509 0.82837
 H234 H 0.85474 0.92112 0.69402
 C235 C 0.34277 0.53663 0.26593
 C236 C 0.35113 0.50339 0.27118
 C237 C 0.35718 0.49212 0.30322
 C238 C 0.35631 0.51381 0.32921
 C239 C 0.35074 0.54729 0.32327
 C240 C 0.34446 0.55889 0.29146
 C241 C 0.36062 0.48272 0.24326
 C242 C 0.37813 0.49736 0.21789
 C243 C 0.39427 0.47872 0.19479
 C244 C 0.39180 0.44438 0.19626
 C245 C 0.37373 0.42896 0.22136
 C246 C 0.35774 0.44840 0.24432
 H247 H 0.33795 0.54586 0.24144
 H248 H 0.36426 0.46690 0.30796
 H249 H 0.38117 0.52368 0.21724
 H250 H 0.34455 0.43670 0.26405
 H251 H 0.35196 0.56434 0.34326
 H252 H 0.40483 0.42985 0.17874
 C253 C 0.62003 1.05495 0.24888
 C254 C 0.60869 1.02555 0.23538
 C255 C 0.60508 1.02421 0.20126
 C256 C 0.61682 1.04921 0.18080
 C257 C 0.62959 1.07767 0.19462
 C258 C 0.62980 1.08122 0.22866
 C259 C 0.60488 0.99508 0.25592
 C260 C 0.59906 0.99637 0.28991
 C261 C 0.60425 0.96845 0.30994
 C262 C 0.61216 0.93851 0.29535
 C263 C 0.61406 0.93610 0.26159
 C264 C 0.61124 0.96423 0.24206
 H265 H 0.62275 1.05726 0.27501
 H266 H 0.59444 1.00291 0.19017
 H267 H 0.59307 1.01942 0.30116
 H268 H 0.61609 0.96181 0.21631
 H269 H 0.63783 1.09760 0.17899
 H270 H 0.61526 0.91642 0.31010
 C271 C 0.13741 0.55043 0.72261
 C272 C 0.12971 0.51741 0.71610
 C273 C 0.12032 0.50938 0.68402
 C274 C 0.11895 0.53352 0.65927
 C275 C 0.12440 0.56646 0.66704
 C276 C 0.13305 0.57510 0.69892
 C277 C 0.13028 0.49208 0.74311
 C278 C 0.12613 0.50174 0.77576
 C279 C 0.12662 0.47879 0.80134
 C280 C 0.12891 0.44544 0.79474
 C281 C 0.13229 0.43496 0.76258
 C282 C 0.13400 0.45821 0.73693
 H283 H 0.14589 0.55759 0.74642
 H284 H 0.11441 0.48445 0.67782
 H285 H 0.12191 0.52706 0.78184
 H286 H 0.13775 0.44959 0.71242
 H287 H 0.12227 0.58529 0.64819
 H288 H 0.12827 0.42764 0.81467
 C289 C 0.73845 0.86030 -0.05058
 C290 C 0.73395 0.86717 -0.01730
 C291 C 0.70262 0.87539 -0.00660
 C292 C 0.67661 0.87670 -0.02843
 C293 C 0.68192 0.87163 -0.06167
 C294 C 0.71290 0.86372 -0.07285
 C295 C 0.76192 0.86829 0.00585
 C296 C 0.79293 0.87736 -0.00493
 C297 C 0.81809 0.88372 0.01739
 C298 C 0.81123 0.88236 0.05103
 C299 C 0.78105 0.87100 0.06199
 C300 C 0.75716 0.86301 0.03939
 H301 H 0.76198 0.85349 -0.05966
 H302 H 0.69813 0.88136 0.01861
 H303 H 0.79699 0.88181 -0.03065
 H304 H 0.73423 0.85407 0.04834
 H305 H 0.66198 0.87365 -0.07879
 H306 H 0.82982 0.88813 0.06869
 C307 C 0.25599 0.39187 0.45468
 C308 C 0.23707 0.40738 0.47812
 C309 C 0.20407 0.41202 0.47186
 C310 C 0.18927 0.39794 0.44463
 C311 C 0.20848 0.38050 0.42220
 C312 C 0.24206 0.37722 0.42729
 C313 C 0.24999 0.40961 0.51192
 C314 C 0.28273 0.41661 0.51749
 C315 C 0.29775 0.40688 0.54685
 C316 C 0.27927 0.39223 0.57170
 C317 C 0.24638 0.38590 0.56691
 C318 C 0.23177 0.39573 0.53741
 H319 H 0.28144 0.38848 0.45946
 H320 H 0.18932 0.42389 0.49002
 H321 H 0.29723 0.42661 0.49779
 H322 H 0.20687 0.38951 0.53293
 H323 H 0.19726 0.36842 0.40176
 H324 H 0.29094 0.38390 0.59405
 C325 C 0.26817 0.64743 -0.04798
 C326 C 0.26840 0.63880 -0.01468
 C327 C 0.29321 0.61841 -0.00266
 C328 C 0.31611 0.60469 -0.02362
 C329 C 0.31422 0.61182 -0.05730
 C330 C 0.28965 0.63273 -0.06971
 C331 C 0.23900 0.64352 0.00551
 C332 C 0.20864 0.63835 -0.00881
 C333 C 0.18146 0.63103 0.01027
 C334 C 0.18487 0.62987 0.04449
 C335 C 0.21430 0.63882 0.05922
 C336 C 0.24109 0.64592 0.03962
 H337 H 0.24907 0.66307 -0.05757
 H338 H 0.29328 0.61091 0.02281
 H339 H 0.20696 0.63573 -0.03500
 H340 H 0.26414 0.65086 0.05108
 H341 H 0.33063 0.59979 -0.07381
 H342 H 0.16441 0.62349 0.05967
 C343 C 0.76449 0.15635 0.46110
 C344 C 0.76679 0.15317 0.49526
 C345 C 0.79678 0.14505 0.50926
 C346 C 0.82293 0.13544 0.48986
 C347 C 0.81897 0.13511 0.45573
 C348 C 0.79021 0.14679 0.44124
 C349 C 0.73728 0.14940 0.51561
 C350 C 0.71197 0.13032 0.50350
 C351 C 0.68920 0.11602 0.52445
 C352 C 0.69088 0.12210 0.55800
 C353 C 0.71562 0.14195 0.57057
 C354 C 0.73780 0.15661 0.54908
 H355 H 0.74175 0.16345 0.44985
 H356 H 0.79852 0.14185 0.53547
 H357 H 0.71173 0.12370 0.47802
 H358 H 0.75745 0.17089 0.55893
 H359 H 0.83858 0.12700 0.44038
 H360 H 0.67429 0.10977 0.57442
 C361 C 1.04338 0.75674 0.86612
 C362 C 1.01025 0.76180 0.87150
 C363 C 1.00001 0.79245 0.88265
 C364 C 1.02173 0.81789 0.88872
 C365 C 1.05500 0.81143 0.88615
 C366 C 1.06586 0.78119 0.87374
 C367 C 0.98581 0.73584 0.86524
 C368 C 0.99270 0.70225 0.87068
 C369 C 0.96936 0.67830 0.86369
 C370 C 0.93820 0.68839 0.85384
 C371 C 0.93040 0.72161 0.85147
 C372 C 0.95441 0.74497 0.85528
 H373 H 1.05184 0.73371 0.85648
 H374 H 0.97481 0.79632 0.88819
 H375 H 1.01633 0.69470 0.87939
 H376 H 0.94797 0.77042 0.85111
 H377 H 1.07228 0.83052 0.89144
 H378 H 0.91916 0.67056 0.85069
 C379 C 0.56434 0.26644 0.34381
 C380 C 0.53118 0.26211 0.34874
 C381 C 0.51424 0.28517 0.36693
 C382 C 0.53023 0.31047 0.38282
 C383 C 0.56374 0.31408 0.37875
 C384 C 0.58104 0.29179 0.35931
 C385 C 0.51610 0.22959 0.34462
 C386 C 0.53168 0.20255 0.35931
 C387 C 0.51403 0.17541 0.37051
 C388 C 0.48079 0.17417 0.36395
 C389 C 0.46510 0.20042 0.34769
 C390 C 0.48314 0.22744 0.33695
 H391 H 0.57764 0.24808 0.33051
 H392 H 0.48882 0.28144 0.37176
 H393 H 0.55693 0.20450 0.36565
 H394 H 0.47076 0.24869 0.32668
 H395 H 0.57637 0.33293 0.39195
 H396 H 0.46672 0.15394 0.37364
 C397 C 1.03239 0.23002 0.65920
 C398 C 0.99909 0.22909 0.65239
 C399 C 0.98471 0.19864 0.64603
 C400 C 1.00376 0.17034 0.64215
 C401 C 1.03736 0.17281 0.64534
 C402 C 1.05168 0.20234 0.65449
 C403 C 0.98106 0.26003 0.64483
 C404 C 0.99679 0.28548 0.62795
 C405 C 0.98006 0.31295 0.61515
 C406 C 0.94607 0.31368 0.61841
 C407 C 0.92983 0.28841 0.63580
 C408 C 0.94771 0.26240 0.64966
 H409 H 1.04386 0.25303 0.66504
 H410 H 0.95926 0.19775 0.64018
 H411 H 1.02208 0.28241 0.62279
 H412 H 0.93528 0.24298 0.66278
 H413 H 1.05252 0.15158 0.64121
 H414 H 0.93236 0.33396 0.60799
 C415 C 0.53166 0.75237 0.13720
 C416 C 0.49833 0.75053 0.13052
 C417 C 0.48681 0.72485 0.11144
 C418 C 0.50772 0.70133 0.09879
 C419 C 0.54089 0.70349 0.10533
 C420 C 0.55316 0.72934 0.12409
 C421 C 0.47560 0.77712 0.13963
 C422 C 0.48461 0.81007 0.13523
 C423 C 0.46187 0.83525 0.13838
 C424 C 0.42951 0.82746 0.14491
 C425 C 0.42000 0.79463 0.14906
 C426 C 0.44332 0.76977 0.14770
 H427 H 0.54105 0.77245 0.15132
 H428 H 0.46141 0.72372 0.10533
 H429 H 0.50904 0.81620 0.12814
 H430 H 0.43576 0.74450 0.15056
 H431 H 0.55721 0.68572 0.09492
 H432 H 0.41155 0.84682 0.14552
 O433 O -0.03487 1.00384 0.92483
 O434 O 0.01265 1.03381 0.91751
 O435 O 0.00666 0.91366 0.97078
 O436 O 0.02622 0.89725 1.01835
 O437 O -0.08228 0.96280 1.00964
 O438 O -0.08904 1.00775 1.04364
 O439 O 0.08793 0.99968 1.05997
 O440 O 0.09435 0.95475 1.02382
 O441 O 0.05681 1.07982 1.00867
 O442 O 0.01465 1.09423 0.97516
 O443 O 0.01035 1.04434 1.09587
 O444 O -0.03171 1.00288 1.10619
 O445 O 0.04827 0.99872 1.09826
 O446 O -0.00179 0.96276 1.10599
 O447 O 0.01590 1.08349 1.05608
 O448 O -0.02403 1.09515 1.00816
 O449 O 0.09235 1.03733 1.01401
 O450 O 0.09600 0.99059 0.97625
 O451 O -0.07415 1.01164 0.96270
 O452 O -0.08320 1.04490 1.01007
 O453 O -0.04744 0.91950 1.00970
 O454 O -0.00476 0.90978 1.05493
 O455 O 0.00279 0.95157 0.92953
 O456 O 0.04969 0.99042 0.92637
 Zr457 Zr 0.00677 0.99659 0.95387
 O458 O 0.03754 1.02549 0.98237
 Zr459 Zr -0.00103 0.94088 1.01328
 O460 O 0.03142 0.96640 1.04358
 Zr461 Zr -0.05183 1.00396 1.00878
 O462 O -0.02268 1.03183 1.04020
 Zr463 Zr 0.06308 0.99519 1.01546
 O464 O 0.03404 0.96557 0.98518
 Zr465 Zr 0.01126 1.05756 1.01193
 O466 O -0.01964 1.03177 0.98026
 Zr467 Zr 0.00506 1.00046 1.07059
 O468 O -0.02784 0.97280 1.04251
 O469 O -0.02717 0.97026 0.98059
 O470 O 0.03800 1.02823 1.04387
 C471 C -0.06378 1.01145 0.93304
 C472 C 0.00515 0.92192 0.94043
 C473 C -0.07605 0.93197 1.00922
 C474 C 0.07798 1.00125 1.08961
 C475 C 0.08548 1.06787 1.01014
 C476 C 0.01563 1.07388 1.08616
 H477 H 0.05216 1.03743 0.96734
 H478 H -0.03621 1.04683 1.05303
 H479 H -0.04159 0.95807 0.96581
 H480 H 0.04358 0.95091 1.05783
 H481 H 0.08922 0.93864 1.00677
 H482 H 0.04890 0.90410 1.02119
 H483 H -0.03523 1.09654 1.02938
 H484 H -0.07376 1.06190 0.99553
 H485 H 0.11811 0.99354 0.98505
 H486 H 0.04414 0.98192 0.90454
 H487 H -0.04606 1.02146 1.10022
 H488 H -0.08191 0.99468 1.06294
 H489 H 0.00983 1.02411 0.89563
 H490 H 0.00999 1.08322 0.95435
 H491 H -0.02491 0.91587 1.06627
 H492 H 0.01693 0.94772 1.10506
 O493 O 0.44337 0.47721 0.41854
 O494 O 0.50180 0.50656 0.40280
 O495 O 0.47946 0.39918 0.48048
 O496 O 0.51076 0.39345 0.52440
 O497 O 0.40501 0.46516 0.51427
 O498 O 0.40697 0.52000 0.53421
 O499 O 0.58105 0.48754 0.53839
 O500 O 0.57915 0.43935 0.50947
 O501 O 0.55371 0.56475 0.48015
 O502 O 0.51050 0.56777 0.43309
 O503 O 0.50724 0.55895 0.56327
 O504 O 0.46753 0.52344 0.58927
 O505 O 0.54624 0.50987 0.57483
 O506 O 0.49610 0.48498 0.59862
 O507 O 0.50669 0.58468 0.51356
 O508 O 0.47782 0.58703 0.46413
 O509 O 0.58490 0.51929 0.48782
 O510 O 0.57985 0.46641 0.45709
 O511 O 0.40845 0.49420 0.45742
 O512 O 0.40937 0.54306 0.48803
 O513 O 0.43693 0.42132 0.52660
 O514 O 0.48369 0.41510 0.56190
 O515 O 0.49626 0.42422 0.43378
 O516 O 0.50715 0.45708 0.39726
 Zr517 Zr 0.48922 0.47477 0.44209
 O518 O 0.52692 0.50520 0.45904
 Zr519 Zr 0.48388 0.43665 0.51453
 O520 O 0.52055 0.46579 0.53439
 Zr521 Zr 0.43775 0.50086 0.49807
 O522 O 0.47221 0.53309 0.51662
 Zr523 Zr 0.55179 0.48178 0.49735
 O524 O 0.51729 0.44995 0.47795
 Zr525 Zr 0.50582 0.54650 0.48037
 O526 O 0.46823 0.51763 0.46041
 Zr527 Zr 0.50027 0.50904 0.55265
 O528 O 0.46298 0.47767 0.53657
 O529 O 0.45649 0.45861 0.47738
 O530 O 0.53291 0.52433 0.51739
 C531 C 0.41517 0.48610 0.42823
 C532 C 0.48900 0.39858 0.45077
 C533 C 0.40951 0.43602 0.52546
 C534 C 0.57435 0.49992 0.56612
 C535 C 0.58120 0.55015 0.48286
 C536 C 0.50698 0.58469 0.54479
 H537 H 0.54240 0.51137 0.44170
 H538 H 0.46010 0.55202 0.52513
 H539 H 0.44018 0.44336 0.46862
 H540 H 0.53240 0.45308 0.55135
 H541 H 0.57083 0.42147 0.49573
 H542 H 0.53299 0.40033 0.52966
 H543 H 0.45839 0.58761 0.47806
 H544 H 0.41712 0.55253 0.46709
 H545 H 0.60290 0.46921 0.46295
 H546 H 0.48829 0.45297 0.38279
 H547 H 0.45274 0.53989 0.57933
 H548 H 0.41254 0.50852 0.55497
 H549 H 0.48240 0.52009 0.39800
 H550 H 0.53266 0.56351 0.42526
 H551 H 0.47114 0.42992 0.57597
 H552 H 0.51159 0.46648 0.59925
 O553 O 0.50076 -0.06976 0.57472
 O554 O 0.54524 -0.03992 0.58871
 O555 O 0.42707 0.00392 0.55852
 O556 O 0.42610 0.05279 0.52907
 O557 O 0.43581 -0.07091 0.49201
 O558 O 0.47158 -0.08172 0.44712
 O559 O 0.53026 0.08377 0.47770
 O560 O 0.49806 0.09283 0.52338
 O561 O 0.59607 0.01324 0.49691
 O562 O 0.59600 -0.04146 0.52312
 O563 O 0.53991 0.00273 0.41416
 O564 O 0.48091 -0.01379 0.40622
 O565 O 0.51295 0.05891 0.43140
 O566 O 0.46613 0.03256 0.41486
 O567 O 0.57915 -0.01810 0.44744
 O568 O 0.58035 -0.06699 0.48542
 O569 O 0.57259 0.06036 0.51396
 O570 O 0.53569 0.06703 0.56100
 O571 O 0.48789 -0.09571 0.52746
 O572 O 0.50717 -0.10248 0.47446
 O573 O 0.41054 -0.02379 0.50668
 O574 O 0.41422 0.03062 0.48002
 O575 O 0.46712 -0.01740 0.59071
 O576 O 0.52078 0.00920 0.59878
 Zr577 Zr 0.50714 -0.02098 0.55937
 O578 O 0.54316 0.00539 0.53439
 Zr579 Zr 0.44874 0.00965 0.51245
 O580 O 0.48239 0.03802 0.48561
 Zr581 Zr 0.48527 -0.05898 0.49106
 O582 O 0.52013 -0.03400 0.46335
 Zr583 Zr 0.52296 0.04847 0.51461
 O584 O 0.48726 0.02383 0.54280
 Zr585 Zr 0.55866 -0.02085 0.49382
 O586 O 0.52548 -0.04897 0.52074
 Zr587 Zr 0.50087 0.01094 0.44652
 O588 O 0.46429 -0.01609 0.47114
 O589 O 0.46781 -0.03406 0.53083
 O590 O 0.54088 0.02309 0.47467
 C591 C 0.49520 -0.09541 0.55794
 C592 C 0.43793 -0.00785 0.58572
 C593 C 0.41043 -0.05398 0.49833
 C594 C 0.52461 0.08335 0.44685
 C595 C 0.59720 0.04332 0.50542
 C596 C 0.56813 -0.00967 0.41929
 H597 H 0.56103 0.01036 0.54957
 H598 H 0.52688 -0.04840 0.44543
 H599 H 0.45249 -0.04802 0.54315
 H600 H 0.47205 0.05854 0.47770
 H601 H 0.48326 0.08831 0.54181
 H602 H 0.43637 0.07158 0.51773
 H603 H 0.57237 -0.07489 0.46417
 H604 H 0.52873 -0.10374 0.48488
 H605 H 0.54614 0.08862 0.55753
 H606 H 0.51405 -0.00155 0.61954
 H607 H 0.49392 -0.03384 0.40293
 H608 H 0.45681 -0.06633 0.43551
 H609 H 0.55892 -0.05321 0.57421
 H610 H 0.59916 -0.02726 0.54221
 H611 H 0.41353 0.01654 0.46057
 H612 H 0.45134 0.04551 0.42849
 O613 O -0.03205 0.41174 0.97951
 O614 O 0.01117 0.40534 0.94398
 O615 O 0.01639 0.44587 1.06667
 O616 O 0.05037 0.48828 1.07826
 O617 O -0.06976 0.49475 1.03437
 O618 O -0.08055 0.53424 0.98968
 O619 O 0.09455 0.54244 0.98445
 O620 O 0.10477 0.49861 1.01794
 O621 O 0.05171 0.50348 0.89873
 O622 O 0.01042 0.46282 0.89171
 O623 O 0.00646 0.58349 0.94143
 O624 O -0.02632 0.58952 0.99356
 O625 O 0.05517 0.58160 0.98339
 O626 O 0.01364 0.59230 1.02115
 O627 O 0.00531 0.54567 0.90117
 O628 O -0.03062 0.50375 0.89380
 O629 O 0.09232 0.50292 0.93631
 O630 O 0.10042 0.45808 0.97667
 O631 O -0.07119 0.45046 0.98633
 O632 O -0.08606 0.49496 0.95586
 O633 O -0.02890 0.49075 1.07149
 O634 O 0.01510 0.52903 1.07889
 O635 O 0.00960 0.40926 1.02581
 O636 O 0.05160 0.40708 0.98202
 Zr637 Zr 0.01072 0.43851 0.98321
 O638 O 0.03890 0.46869 0.95286
 Zr639 Zr 0.01298 0.49225 1.04309
 O640 O 0.04092 0.52491 1.01480
 Zr641 Zr -0.04652 0.49545 0.98862
 O642 O -0.02074 0.52751 0.95770
 Zr643 Zr 0.06851 0.49856 0.98138
 O644 O 0.04311 0.46541 1.01215
 Zr645 Zr 0.00915 0.50095 0.92636
 O646 O -0.01979 0.46867 0.95434
 Zr647 Zr 0.01137 0.55551 0.98544
 O648 O -0.01701 0.52564 1.01723
 O649 O -0.01805 0.46365 1.01598
 O650 O 0.04039 0.53061 0.95274
 C651 C -0.06156 0.42080 0.98215
 C652 C 0.01310 0.41657 1.05593
 C653 C -0.05884 0.49252 1.06375
 C654 C 0.08486 0.57237 0.98428
 C655 C 0.08165 0.50321 0.90684
 C656 C 0.00332 0.57516 0.91136
 H657 H 0.05180 0.45476 0.93822
 H658 H -0.03646 0.54123 0.94541
 H659 H -0.03155 0.44893 1.02957
 H660 H 0.05484 0.53776 1.02943
 H661 H 0.10070 0.47930 1.03228
 H662 H 0.06829 0.50239 1.07073
 H663 H -0.04422 0.48434 0.89847
 H664 H -0.07890 0.50591 0.93546
 H665 H 0.12227 0.46669 0.97184
 H666 H 0.04469 0.38447 0.98783
 H667 H -0.04208 0.58743 0.97552
 H668 H -0.07378 0.54897 1.00738
 H669 H -0.00328 0.41460 0.92688
 H670 H 0.01233 0.47286 0.86958
 H671 H -0.00183 0.54534 1.07319
 H672 H 0.02610 0.58320 1.03983
 O673 O 0.00699 0.40326 0.51659
 O674 O -0.03027 0.39602 0.47397
 O675 O 0.08289 0.46078 0.47227
 O676 O 0.08908 0.50885 0.44883
 O677 O 0.04086 0.49114 0.56650
 O678 O -0.00811 0.51467 0.58108
 O679 O -0.02029 0.54704 0.40331
 O680 O 0.02556 0.51504 0.38957
 O681 O -0.09083 0.49469 0.44017
 O682 O -0.09385 0.44668 0.47490
 O683 O -0.06020 0.57108 0.49332
 O684 O -0.01388 0.58269 0.52846
 O685 O -0.02174 0.58097 0.44693
 O686 O 0.01876 0.59022 0.49268
 O687 O -0.09425 0.52778 0.48846
 O688 O -0.09560 0.47424 0.52089
 O689 O -0.05373 0.49984 0.39962
 O690 O -0.00608 0.46476 0.38846
 O691 O 0.00172 0.43644 0.56049
 O692 O -0.03870 0.47564 0.57561
 O693 O 0.07769 0.50077 0.52656
 O694 O 0.07820 0.54403 0.48313
 O695 O 0.04988 0.41659 0.46764
 O696 O 0.00340 0.41082 0.43062
 Zr697 Zr 0.00301 0.43547 0.47599
 O698 O -0.03238 0.46330 0.45048
 Zr699 Zr 0.05148 0.49991 0.48244
 O700 O 0.01899 0.52985 0.45562
 Zr701 Zr -0.00249 0.48415 0.54028
 O702 O -0.03707 0.51458 0.51690
 Zr703 Zr -0.00946 0.50125 0.42463
 O704 O 0.02625 0.47206 0.44794
 Zr705 Zr -0.06326 0.48710 0.48292
 O706 O -0.03065 0.45582 0.50861
 Zr707 Zr -0.01385 0.55068 0.48834
 O708 O 0.02055 0.52308 0.51546
 O709 O 0.03047 0.46202 0.50925
 O710 O -0.04151 0.52411 0.45594
 C711 C 0.00466 0.40818 0.54741
 C712 C 0.07769 0.43053 0.46588
 C713 C 0.06933 0.49872 0.55671
 C714 C -0.02475 0.57509 0.41634
 C715 C -0.08280 0.49959 0.41021
 C716 C -0.08845 0.55839 0.49229
 H717 H -0.04478 0.44907 0.43568
 H718 H -0.05121 0.52433 0.53354
 H719 H 0.04681 0.44847 0.52100
 H720 H 0.03081 0.54668 0.44286
 H721 H 0.04261 0.49799 0.39051
 H722 H 0.07858 0.51491 0.42789
 H723 H -0.09463 0.49162 0.53742
 H724 H -0.05358 0.45926 0.56638
 H725 H -0.01194 0.47506 0.36715
 H726 H 0.01432 0.38927 0.43329
 H727 H -0.02926 0.57386 0.54474
 H728 H 0.00114 0.53618 0.57479
 H729 H -0.01832 0.37490 0.47443
 H730 H -0.08206 0.42715 0.48326
 H731 H 0.07109 0.55623 0.50253
 H732 H 0.03093 0.59228 0.47204
 O733 O 0.54710 1.01188 0.08520
 O734 O 0.50239 1.04855 0.09155
 O735 O 0.49779 0.92397 0.05317
 O736 O 0.47111 0.90700 0.01031
 O737 O 0.58566 0.96085 0.00213
 O738 O 0.59398 1.00366 -0.03552
 O739 O 0.41699 1.01107 -0.04175
 O740 O 0.40918 0.96914 -0.00044
 O741 O 0.45736 1.09124 -0.00088
 O742 O 0.50218 1.10350 0.02913
 O743 O 0.49446 1.04486 -0.08610
 O744 O 0.53450 0.99921 -0.09305
 O745 O 0.45443 1.00246 -0.08123
 O746 O 0.50087 0.96281 -0.08851
 O747 O 0.49503 1.08698 -0.05038
 O748 O 0.53878 1.09858 -0.00652
 O749 O 0.41842 1.05198 -0.00073
 O750 O 0.41185 1.01005 0.04202
 O751 O 0.58518 1.01389 0.04542
 O752 O 0.59423 1.04201 -0.00458
 O753 O 0.54706 0.92153 0.00640
 O754 O 0.49949 0.91215 -0.03025
 O755 O 0.50088 0.96534 0.08962
 O756 O 0.46499 1.00977 0.09414
 Zr757 Zr 0.50323 1.00776 0.05995
 O758 O 0.47321 1.03716 0.03017
 Zr759 Zr 0.50289 0.94724 0.00709
 O760 O 0.47131 0.97350 -0.02453
 Zr761 Zr 0.55917 1.00501 0.00199
 O762 O 0.53072 1.03345 -0.03079
 Zr763 Zr 0.44366 1.00721 0.00171
 O764 O 0.47167 0.97745 0.03374
 Zr765 Zr 0.50055 1.06430 -0.00386
 O766 O 0.53108 1.03801 0.02879
 Zr767 Zr 0.49896 1.00279 -0.05627
 O768 O 0.53058 0.97408 -0.02681
 O769 O 0.53350 0.97586 0.03510
 O770 O 0.46994 1.03542 -0.03117
 C771 C 0.57600 1.01658 0.07522
 C772 C 0.49678 0.93512 0.08233
 C773 C 0.57648 0.93081 0.00288
 C774 C 0.42572 1.00927 -0.07170
 C775 C 0.42783 1.08189 -0.00032
 C776 C 0.49222 1.07534 -0.07926
 H777 H 0.46042 1.05146 0.04455
 H778 H 0.54465 1.04612 -0.04584
 H779 H 0.54751 0.96281 0.05008
 H780 H 0.45720 0.95828 -0.03649
 H781 H 0.41272 0.95515 0.01923
 H782 H 0.44914 0.91611 0.00743
 H783 H 0.54851 1.09745 -0.02849
 H784 H 0.58609 1.06155 0.00681
 H785 H 0.38967 1.01341 0.03339
 H786 H 0.44869 0.99343 0.08766
 H787 H 0.54829 1.01890 -0.09204
 H788 H 0.58448 0.99053 -0.05321
 H789 H 0.50831 1.04124 0.11405
 H790 H 0.51022 1.09409 0.05003
 H791 H 0.51728 0.91669 -0.04572
 H792 H 0.48189 0.94881 -0.08415
 O793 O 0.58431 0.44053 0.02585
 O794 O 0.55724 0.43911 0.07505
 O795 O 0.51466 0.42169 -0.04721
 O796 O 0.46533 0.44520 -0.06362
 O797 O 0.57769 0.50728 -0.05767
 O798 O 0.58185 0.55758 -0.03314
 O799 O 0.41781 0.51241 0.01959
 O800 O 0.41718 0.45824 0.01126
 O801 O 0.48285 0.52633 0.09463
 O802 O 0.53712 0.51719 0.10532
 O803 O 0.48125 0.59038 0.01456
 O804 O 0.50308 0.58819 -0.04159
 O805 O 0.43530 0.55593 -0.01071
 O806 O 0.46774 0.56147 -0.06033
 O807 O 0.50639 0.57759 0.06252
 O808 O 0.55988 0.55025 0.07726
 O809 O 0.44426 0.49193 0.07578
 O810 O 0.44615 0.43578 0.04514
 O811 O 0.60375 0.48504 -0.00202
 O812 O 0.59903 0.54332 0.01258
 O813 O 0.53874 0.47554 -0.08010
 O814 O 0.48182 0.48704 -0.08725
 O815 O 0.53384 0.40653 0.00300
 O816 O 0.51290 0.41218 0.05778
 Zr817 Zr 0.53479 0.45012 0.02957
 O818 O 0.50160 0.47911 0.05496
 Zr819 Zr 0.50367 0.47183 -0.04277
 O820 O 0.46798 0.50044 -0.02021
 Zr821 Zr 0.56278 0.51521 -0.01014
 O822 O 0.52976 0.54701 0.01216
 Zr823 Zr 0.45887 0.48298 0.02744
 O824 O 0.49113 0.45158 0.00306
 Zr825 Zr 0.51815 0.52755 0.05825
 O826 O 0.55359 0.49726 0.03708
 Zr827 Zr 0.48564 0.54803 -0.01351
 O828 O 0.52051 0.52015 -0.03871
 O829 O 0.54656 0.46763 -0.01688
 O830 O 0.47414 0.53125 0.03347
 C831 C 0.60725 0.45730 0.01298
 C832 C 0.52428 0.40025 -0.02601
 C833 C 0.56522 0.49185 -0.08148
 C834 C 0.41300 0.53933 0.00355
 C835 C 0.45684 0.50970 0.09802
 C836 C 0.49184 0.59768 0.04299
 H837 H 0.49822 0.46878 0.07666
 H838 H 0.53967 0.56894 0.01350
 H839 H 0.56201 0.45344 -0.02850
 H840 H 0.44819 0.50034 -0.03375
 H841 H 0.41840 0.45757 -0.01282
 H842 H 0.45543 0.43240 -0.04555
 H843 H 0.56524 0.56898 0.06265
 H844 H 0.60347 0.53289 0.03413
 H845 H 0.45444 0.43365 0.06776
 H846 H 0.52735 0.39271 0.05845
 H847 H 0.52107 0.59819 -0.02938
 H848 H 0.56459 0.56633 -0.04764
 H849 H 0.56939 0.45882 0.08155
 H850 H 0.53469 0.49337 0.10935
 H851 H 0.49018 0.50923 -0.09235
 H852 H 0.45246 0.54432 -0.06719
 O853 O -0.09244 0.04048 0.51256
 O854 O -0.09918 -0.00343 0.47335
 O855 O -0.05195 -0.00834 0.59731
 O856 O -0.00841 -0.03908 0.60979
 O857 O -0.00711 0.07894 0.55581
 O858 O 0.02804 0.08740 0.50997
 O859 O 0.03332 -0.09244 0.51215
 O860 O -0.00767 -0.09968 0.55138
 O861 O -0.00532 -0.05161 0.42917
 O862 O -0.05031 -0.00531 0.42212
 O863 O 0.07163 -0.01357 0.46479
 O864 O 0.08423 0.02836 0.50931
 O865 O 0.07283 -0.05371 0.51052
 O866 O 0.08538 -0.00667 0.54565
 O867 O 0.03216 -0.00719 0.42640
 O868 O -0.01275 0.02843 0.41603
 O869 O -0.00578 -0.09120 0.46894
 O870 O -0.05010 -0.09617 0.51121
 O871 O -0.05286 0.07929 0.51173
 O872 O -0.00864 0.08767 0.47385
 O873 O -0.01016 0.03984 0.59598
 O874 O 0.03094 -0.00509 0.60314
 O875 O -0.09194 -0.00695 0.55885
 O876 O -0.09982 -0.04456 0.51494
 Zr877 Zr -0.06711 -0.00455 0.51397
 O878 O -0.04036 -0.03578 0.48363
 Zr879 Zr -0.00890 -0.00466 0.57064
 O880 O 0.01991 -0.03624 0.54276
 Zr881 Zr -0.00941 0.05244 0.51225
 O882 O 0.01958 0.02383 0.48159
 Zr883 Zr -0.00938 -0.06485 0.51255
 O884 O -0.03833 -0.03615 0.54332
 Zr885 Zr -0.01003 -0.00713 0.45411
 O886 O -0.03909 0.02438 0.48189
 Zr887 Zr 0.04820 -0.00830 0.51019
 O888 O 0.02215 0.02357 0.54108
 O889 O -0.03918 0.02548 0.54316
 O890 O 0.02001 -0.03796 0.48133
 C891 C -0.08256 0.07036 0.51173
 C892 C -0.08172 -0.00937 0.58854
 C893 C -0.00921 0.06976 0.58585
 C894 C 0.06300 -0.08360 0.51043
 C895 C -0.00294 -0.08156 0.43909
 C896 C 0.06141 -0.01278 0.43505
 H897 H -0.05490 -0.04953 0.47046
 H898 H 0.03278 0.03824 0.46740
 H899 H -0.05307 0.03916 0.55708
 H900 H 0.03329 -0.05022 0.55741
 H901 H -0.02576 -0.09430 0.56611
 H902 H 0.00012 -0.05984 0.60116
 H903 H 0.00199 0.04644 0.42186
 H904 H -0.02527 0.08098 0.45789
 H905 H -0.04222 -0.11857 0.50650
 H906 H -0.12175 -0.03633 0.52005
 H907 H 0.08202 0.04093 0.48857
 H908 H 0.04600 0.07834 0.52336
 H909 H -0.12107 0.00275 0.48083
 H910 H -0.05808 -0.02797 0.41913
 H911 H 0.04492 0.01352 0.59669
 H912 H 0.07963 -0.02229 0.56338
 O913 O 0.71948 0.17059 0.25429
 O914 O 0.76275 0.15821 0.22029
 O915 O 0.76514 0.21662 0.33695
 O916 O 0.79532 0.25982 0.34657
 O917 O 0.68063 0.26375 0.28997
 O918 O 0.67208 0.29174 0.24165
 O919 O 0.85057 0.29673 0.24403
 O920 O 0.85753 0.25679 0.28609
 O921 O 0.80972 0.25345 0.16407
 O922 O 0.77041 0.21197 0.15791
 O923 O 0.77779 0.33445 0.19662
 O924 O 0.73254 0.35024 0.23705
 O925 O 0.81277 0.33746 0.24260
 O926 O 0.76454 0.35174 0.27613
 O927 O 0.76780 0.29400 0.16047
 O928 O 0.72866 0.24604 0.15582
 O929 O 0.84872 0.25555 0.20325
 O930 O 0.85393 0.21221 0.24829
 O931 O 0.68131 0.21092 0.25168
 O932 O 0.67455 0.25335 0.20868
 O933 O 0.71830 0.26667 0.33031
 O934 O 0.76739 0.30053 0.33624
 O935 O 0.76525 0.17395 0.30176
 O936 O 0.80499 0.16561 0.25747
 Zr937 Zr 0.76346 0.19637 0.25499
 O938 O 0.79385 0.22152 0.22181
 Zr939 Zr 0.76299 0.25872 0.30664
 O940 O 0.79509 0.28542 0.27669
 Zr941 Zr 0.70770 0.25502 0.24800
 O942 O 0.73627 0.28342 0.21583
 Zr943 Zr 0.82309 0.25382 0.24798
 O944 O 0.79436 0.22702 0.28161
 Zr945 Zr 0.76642 0.25158 0.19026
 O946 O 0.73577 0.22298 0.22021
 Zr947 Zr 0.76803 0.31305 0.24256
 O948 O 0.73584 0.28849 0.27446
 O949 O 0.73319 0.22662 0.28206
 O950 O 0.79692 0.28255 0.21537
 C951 C 0.69008 0.18062 0.25278
 C952 C 0.76724 0.18596 0.33055
 C953 C 0.68913 0.26896 0.31952
 C954 C 0.84205 0.32699 0.24169
 C955 C 0.83919 0.25641 0.17326
 C956 C 0.77694 0.32303 0.16762
 H957 H 0.80701 0.20589 0.20924
 H958 H 0.72240 0.29659 0.20093
 H959 H 0.71900 0.21444 0.29737
 H960 H 0.80897 0.29927 0.29046
 H961 H 0.85275 0.23862 0.30164
 H962 H 0.81718 0.26119 0.33711
 H963 H 0.71517 0.26607 0.15626
 H964 H 0.68056 0.23423 0.19541
 H965 H 0.87593 0.21993 0.24279
 H966 H 0.79932 0.14428 0.26783
 H967 H 0.72365 0.34919 0.21464
 H968 H 0.68244 0.31254 0.24792
 H969 H 0.75929 0.13690 0.23175
 H970 H 0.75970 0.19315 0.16880
 H971 H 0.75077 0.31644 0.32869
 H972 H 0.78220 0.34880 0.29226
 O973 O 0.69186 0.75103 0.66048
 O974 O 0.73162 0.79361 0.65139
 O975 O 0.73934 0.66808 0.69218
 O976 O 0.78216 0.65770 0.72861
 O977 O 0.66152 0.70033 0.74402
 O978 O 0.65347 0.74143 0.78565
 O979 O 0.82998 0.74812 0.77904
 O980 O 0.83673 0.71945 0.73238
 O981 O 0.78199 0.83698 0.74827
 O982 O 0.73703 0.84383 0.70731
 O983 O 0.74470 0.79035 0.82816
 O984 O 0.71398 0.73677 0.83694
 O985 O 0.79465 0.74904 0.82152
 O986 O 0.75499 0.71083 0.83678
 O987 O 0.73874 0.83205 0.79091
 O988 O 0.70049 0.84183 0.74719
 O989 O 0.82289 0.79971 0.74747
 O990 O 0.82780 0.76482 0.69642
 O991 O 0.65661 0.74825 0.70318
 O992 O 0.64832 0.78097 0.75177
 O993 O 0.70244 0.66304 0.74109
 O994 O 0.75181 0.65467 0.77394
 O995 O 0.73576 0.71021 0.65503
 O996 O 0.77481 0.75686 0.64903
 Zr997 Zr 0.73714 0.75293 0.68372
 O998 O 0.76730 0.78369 0.71124
 Zr999 Zr 0.74458 0.69149 0.73764
 O1000 O 0.77523 0.71946 0.76709
 Zr1001 Zr 0.68525 0.74575 0.74558
 O1002 O 0.71329 0.77573 0.77523
 Zr1003 Zr 0.79969 0.75464 0.73855
 O1004 O 0.77198 0.72369 0.70813
 Zr1005 Zr 0.73985 0.80853 0.74587
 O1006 O 0.70884 0.78077 0.71605
 Zr1007 Zr 0.74819 0.74729 0.80007
 O1008 O 0.71734 0.71606 0.77320
 O1009 O 0.71151 0.71970 0.71210
 O1010 O 0.77383 0.78140 0.77268
 C1011 C 0.66342 0.74792 0.67260
 C1012 C 0.73497 0.67953 0.66294
 C1013 C 0.67241 0.67097 0.74135
 C1014 C 0.82334 0.74752 0.80958
 C1015 C 0.81192 0.82909 0.74997
 C1016 C 0.73999 0.82071 0.82032
 H1017 H 0.77876 0.79940 0.69676
 H1018 H 0.69845 0.78692 0.79028
 H1019 H 0.69707 0.70605 0.69892
 H1020 H 0.79040 0.70437 0.77845
 H1021 H 0.83065 0.70635 0.71318
 H1022 H 0.80152 0.66559 0.74022
 H1023 H 0.68546 0.83414 0.76434
 H1024 H 0.65208 0.79855 0.73530
 H1025 H 0.84964 0.77121 0.70386
 H1026 H 0.76568 0.75222 0.62717
 H1027 H 0.69732 0.75419 0.83588
 H1028 H 0.66221 0.72375 0.80000
 H1029 H 0.71493 0.80798 0.66088
 H1030 H 0.74369 0.86546 0.71573
 H1031 H 0.73620 0.65915 0.79156
 H1032 H 0.76644 0.69234 0.82662
 O1033 O 0.20416 0.33404 0.73740
 O1034 O 0.25380 0.34697 0.76242
 O1035 O 0.22853 0.27920 0.65426
 O1036 O 0.26320 0.23754 0.64364
 O1037 O 0.15738 0.23985 0.71608
 O1038 O 0.15644 0.21589 0.76838
 O1039 O 0.33131 0.20288 0.73436
 O1040 O 0.33178 0.23978 0.69052
 O1041 O 0.30745 0.25940 0.81685
 O1042 O 0.26809 0.29865 0.82795
 O1043 O 0.26053 0.17187 0.80083
 O1044 O 0.21509 0.15482 0.76534
 O1045 O 0.29452 0.16549 0.75246
 O1046 O 0.24212 0.14953 0.72456
 O1047 O 0.26603 0.21674 0.83258
 O1048 O 0.22908 0.26589 0.83992
 O1049 O 0.33810 0.24718 0.77268
 O1050 O 0.33650 0.28663 0.72501
 O1051 O 0.16626 0.29607 0.75152
 O1052 O 0.16450 0.25661 0.79660
 O1053 O 0.18877 0.23094 0.67165
 O1054 O 0.23403 0.19622 0.65995
 O1055 O 0.23752 0.32485 0.68429
 O1056 O 0.28729 0.33431 0.71773
 Zr1057 Zr 0.24642 0.30616 0.73175
 O1058 O 0.28151 0.28252 0.76125
 Zr1059 Zr 0.23602 0.23988 0.68710
 O1060 O 0.27163 0.21389 0.71357
 Zr1061 Zr 0.19114 0.25067 0.75317
 O1062 O 0.22437 0.22426 0.78266
 Zr1063 Zr 0.30488 0.24667 0.73370
 O1064 O 0.27175 0.27238 0.70312
 Zr1065 Zr 0.25967 0.25661 0.79977
 O1066 O 0.22465 0.28365 0.77286
 Zr1067 Zr 0.25018 0.19082 0.75413
 O1068 O 0.21384 0.21402 0.72569
 O1069 O 0.21125 0.27484 0.71345
 O1070 O 0.28467 0.22182 0.77329
 C1071 C 0.17549 0.32575 0.74579
 C1072 C 0.23061 0.31037 0.65756
 C1073 C 0.16150 0.23128 0.68629
 C1074 C 0.32311 0.17397 0.74382
 C1075 C 0.33460 0.25345 0.80305
 C1076 C 0.26641 0.18565 0.82811
 H1077 H 0.29698 0.29880 0.76966
 H1078 H 0.21285 0.21314 0.80075
 H1079 H 0.19419 0.28606 0.70045
 H1080 H 0.28244 0.19814 0.69911
 H1081 H 0.32466 0.25701 0.67475
 H1082 H 0.28447 0.22815 0.64965
 H1083 H 0.21520 0.24647 0.84333
 H1084 H 0.17462 0.27490 0.80842
 H1085 H 0.35893 0.27822 0.72670
 H1086 H 0.27998 0.35494 0.70690
 H1087 H 0.20359 0.16175 0.78520
 H1088 H 0.16322 0.19475 0.75903
 H1089 H 0.24874 0.36741 0.74995
 H1090 H 0.25694 0.31699 0.81650
 H1091 H 0.22135 0.18027 0.67302
 H1092 H 0.25897 0.14929 0.70753
 O1093 O 0.18346 0.73447 0.33262
 O1094 O 0.22579 0.69729 0.34149
 O1095 O 0.22829 0.82334 0.30304
 O1096 O 0.26720 0.83769 0.26196
 O1097 O 0.14919 0.78762 0.24902
 O1098 O 0.14264 0.74643 0.20888
 O1099 O 0.32111 0.74826 0.21482
 O1100 O 0.33031 0.77397 0.25995
 O1101 O 0.27762 0.65786 0.24847
 O1102 O 0.23216 0.64262 0.27560
 O1103 O 0.23989 0.70689 0.16317
 O1104 O 0.20945 0.75153 0.15175
 O1105 O 0.28564 0.75383 0.17262
 O1106 O 0.23621 0.79043 0.16311
 O1107 O 0.23515 0.66385 0.19870
 O1108 O 0.19587 0.65130 0.24481
 O1109 O 0.31594 0.69642 0.25760
 O1110 O 0.31831 0.74510 0.29905
 O1111 O 0.14720 0.74010 0.29084
 O1112 O 0.14224 0.70561 0.24165
 O1113 O 0.18705 0.82746 0.25463
 O1114 O 0.23515 0.83991 0.22192
 O1115 O 0.22569 0.78040 0.33915
 O1116 O 0.26603 0.73550 0.34471
 Zr1117 Zr 0.22833 0.73859 0.30958
 O1118 O 0.25988 0.71027 0.28158
 Zr1119 Zr 0.23127 0.80147 0.25692
 O1120 O 0.26444 0.77629 0.22775
 Zr1121 Zr 0.17577 0.74392 0.24821
 O1122 O 0.20594 0.71725 0.21714
 Zr1123 Zr 0.29089 0.74163 0.25554
 O1124 O 0.26094 0.77040 0.28582
 Zr1125 Zr 0.23458 0.68499 0.24529
 O1126 O 0.20223 0.70968 0.27648
 Zr1127 Zr 0.23939 0.74812 0.19357
 O1128 O 0.20568 0.77580 0.22092
 O1129 O 0.20012 0.77117 0.28250
 O1130 O 0.26777 0.71409 0.21965
 C1131 C 0.15460 0.73645 0.32126
 C1132 C 0.22576 0.81121 0.33210
 C1133 C 0.15768 0.81755 0.25259
 C1134 C 0.31433 0.75448 0.18477
 C1135 C 0.30646 0.66651 0.25559
 C1136 C 0.23619 0.67624 0.16969
 H1137 H 0.27153 0.69530 0.29677
 H1138 H 0.19203 0.70577 0.20139
 H1139 H 0.18521 0.78372 0.29635
 H1140 H 0.27866 0.79282 0.21743
 H1141 H 0.32165 0.79628 0.25577
 H1142 H 0.28272 0.82915 0.27847
 H1143 H 0.18267 0.65607 0.22511
 H1144 H 0.14652 0.68910 0.25912
 H1145 H 0.31823 0.72330 0.30999
 H1146 H 0.25687 0.73960 0.36661
 H1147 H 0.18811 0.74293 0.15824
 H1148 H 0.15063 0.76368 0.19371
 H1149 H 0.21147 0.68118 0.33098
 H1150 H 0.24103 0.64856 0.29715
 H1151 H 0.21915 0.83543 0.20457
 H1152 H 0.25451 0.80486 0.16861
 O1153 O 0.25218 0.84129 0.70581
 O1154 O 0.20996 0.84827 0.74531
 O1155 O 0.33020 0.79988 0.75741
 O1156 O 0.33931 0.75271 0.79045
 O1157 O 0.29528 0.75757 0.66805
 O1158 O 0.25117 0.72075 0.65643
 O1159 O 0.24723 0.70818 0.83547
 O1160 O 0.27411 0.75194 0.85033
 O1161 O 0.16141 0.75358 0.79222
 O1162 O 0.15075 0.78667 0.74858
 O1163 O 0.20422 0.66878 0.74704
 O1164 O 0.24779 0.65737 0.71794
 O1165 O 0.24976 0.66944 0.79629
 O1166 O 0.28628 0.66316 0.74680
 O1167 O 0.16512 0.70788 0.74339
 O1168 O 0.15759 0.75936 0.70899
 O1169 O 0.19901 0.75381 0.83271
 O1170 O 0.24860 0.79282 0.84047
 O1171 O 0.25178 0.80259 0.66631
 O1172 O 0.21457 0.75742 0.65572
 O1173 O 0.33227 0.75634 0.70933
 O1174 O 0.33981 0.71780 0.75448
 O1175 O 0.29154 0.83960 0.75364
 O1176 O 0.24424 0.84556 0.78978
 Zr1177 Zr 0.24791 0.81352 0.74968
 O1178 O 0.21659 0.78439 0.77834
 Zr1179 Zr 0.30487 0.75571 0.75228
 O1180 O 0.27642 0.72500 0.78143
 Zr1181 Zr 0.25069 0.75740 0.69233
 O1182 O 0.22027 0.72571 0.71891
 Zr1183 Zr 0.24372 0.75265 0.80875
 O1184 O 0.27533 0.78404 0.78251
 Zr1185 Zr 0.18950 0.75285 0.74906
 O1186 O 0.21787 0.78520 0.71968
 Zr1187 Zr 0.24702 0.69602 0.75167
 O1188 O 0.27814 0.72470 0.72175
 O1189 O 0.27929 0.78676 0.72125
 O1190 O 0.21457 0.72143 0.78128
 C1191 C 0.25372 0.83246 0.67576
 C1192 C 0.32091 0.82993 0.75704
 C1193 C 0.32435 0.75757 0.67902
 C1194 C 0.25144 0.67856 0.82616
 C1195 C 0.16972 0.75531 0.82247
 C1196 C 0.17499 0.67801 0.74176
 H1197 H 0.20253 0.79916 0.79090
 H1198 H 0.20835 0.71254 0.70285
 H1199 H 0.29409 0.80102 0.70866
 H1200 H 0.29145 0.71207 0.79534
 H1201 H 0.29558 0.74451 0.84295
 H1202 H 0.33143 0.76709 0.80796
 H1203 H 0.16217 0.74181 0.69327
 H1204 H 0.19893 0.77483 0.66132
 H1205 H 0.22805 0.80523 0.83995
 H1206 H 0.25046 0.86792 0.78234
 H1207 H 0.24142 0.66695 0.69653
 H1208 H 0.26755 0.70436 0.66348
 H1209 H 0.19602 0.84133 0.72701
 H1210 H 0.15963 0.80784 0.75574
 H1211 H 0.33469 0.70253 0.73667
 H1212 H 0.30023 0.66532 0.76630
 O1213 O 0.25828 0.16057 0.20384
 O1214 O 0.30757 0.15092 0.23614
 O1215 O 0.18799 0.18837 0.27125
 O1216 O 0.18435 0.22975 0.31281
 O1217 O 0.20596 0.24975 0.18607
 O1218 O 0.24832 0.28802 0.17144
 O1219 O 0.28362 0.27298 0.34534
 O1220 O 0.24912 0.22214 0.35514
 O1221 O 0.35774 0.23671 0.28686
 O1222 O 0.35394 0.20472 0.23225
 O1223 O 0.30816 0.32567 0.25897
 O1224 O 0.25258 0.33543 0.23382
 O1225 O 0.27080 0.31718 0.31328
 O1226 O 0.23176 0.33336 0.27753
 O1227 O 0.34746 0.28893 0.24635
 O1228 O 0.35461 0.25315 0.20831
 O1229 O 0.32693 0.22767 0.33182
 O1230 O 0.28856 0.19238 0.34702
 O1231 O 0.24974 0.20521 0.17070
 O1232 O 0.28243 0.25317 0.15933
 O1233 O 0.17612 0.23788 0.23131
 O1234 O 0.17453 0.26898 0.28052
 O1235 O 0.22654 0.15218 0.25528
 O1236 O 0.27810 0.14158 0.28236
 Zr1237 Zr 0.26815 0.18109 0.24949
 O1238 O 0.30228 0.20666 0.27726
 Zr1239 Zr 0.21064 0.23441 0.26884
 O1240 O 0.24253 0.26263 0.29641
 Zr1241 Zr 0.25418 0.24590 0.20168
 O1242 O 0.28839 0.27376 0.22690
 Zr1243 Zr 0.27951 0.23229 0.31478
 O1244 O 0.24565 0.20299 0.28986
 Zr1245 Zr 0.32388 0.24335 0.24838
 O1246 O 0.29179 0.21565 0.21912
 Zr1247 Zr 0.26633 0.29703 0.26642
 O1248 O 0.23095 0.27165 0.23922
 O1249 O 0.23172 0.21051 0.23019
 O1250 O 0.30330 0.26842 0.28733
 C1251 C 0.25121 0.17407 0.17616
 C1252 C 0.19782 0.15941 0.26434
 C1253 C 0.17909 0.24478 0.20082
 C1254 C 0.27768 0.30365 0.34095
 C1255 C 0.35417 0.22909 0.31721
 C1256 C 0.33693 0.31835 0.24988
 H1257 H 0.31821 0.19045 0.28564
 H1258 H 0.29787 0.28955 0.21113
 H1259 H 0.21550 0.19786 0.21799
 H1260 H 0.23010 0.27328 0.31386
 H1261 H 0.23516 0.24149 0.35856
 H1262 H 0.19492 0.21210 0.32586
 H1263 H 0.34042 0.25844 0.18950
 H1264 H 0.29942 0.23605 0.15983
 H1265 H 0.28414 0.17240 0.33445
 H1266 H 0.27229 0.12077 0.27160
 H1267 H 0.26840 0.33613 0.21581
 H1268 H 0.23362 0.30297 0.18307
 H1269 H 0.31597 0.15942 0.21507
 H1270 H 0.37589 0.20756 0.24145
 H1271 H 0.17702 0.28767 0.26502
 H1272 H 0.21387 0.32209 0.28891
 O1273 O 0.81914 0.70617 0.24320
 O1274 O 0.82791 0.74821 0.20510
 O1275 O 0.78349 0.76065 0.32712
 O1276 O 0.73698 0.79336 0.33704
 O1277 O 0.74078 0.67081 0.29493
 O1278 O 0.69804 0.66155 0.25382
 O1279 O 0.69507 0.84032 0.23992
 O1280 O 0.73740 0.85382 0.27070
 O1281 O 0.73808 0.79675 0.15773
 O1282 O 0.77006 0.74406 0.15098
 O1283 O 0.65130 0.75280 0.20196
 O1284 O 0.64087 0.72325 0.24900
 O1285 O 0.65498 0.80241 0.24008
 O1286 O 0.64677 0.75738 0.28453
 O1287 O 0.68880 0.75250 0.16162
 O1288 O 0.73058 0.71719 0.14933
 O1289 O 0.74157 0.83700 0.19528
 O1290 O 0.77843 0.84267 0.24687
 O1291 O 0.77917 0.66807 0.24707
 O1292 O 0.73154 0.65830 0.21425
 O1293 O 0.74250 0.71193 0.33184
 O1294 O 0.70228 0.75600 0.33842
 O1295 O 0.82109 0.75271 0.28754
 O1296 O 0.82785 0.79035 0.24039
 Zr1297 Zr 0.79428 0.75126 0.24378
 O1298 O 0.76669 0.78134 0.21237
 Zr1299 Zr 0.73914 0.75512 0.30290
 O1300 O 0.70943 0.78581 0.27387
 Zr1301 Zr 0.73629 0.69546 0.24929
 O1302 O 0.70626 0.72333 0.21781
 Zr1303 Zr 0.73764 0.81237 0.24038
 O1304 O 0.76776 0.78468 0.27210
 Zr1305 Zr 0.73378 0.75295 0.18598
 O1306 O 0.76402 0.72190 0.21490
 Zr1307 Zr 0.67921 0.75705 0.24471
 O1308 O 0.70634 0.72602 0.27689
 O1309 O 0.76780 0.72339 0.27644
 O1310 O 0.70539 0.78600 0.21154
 C1311 C 0.80888 0.67648 0.24461
 C1312 C 0.81267 0.75779 0.31718
 C1313 C 0.74428 0.68153 0.32414
 C1314 C 0.66527 0.83206 0.23942
 C1315 C 0.74273 0.82671 0.16591
 C1316 C 0.65951 0.75105 0.17186
 H1317 H 0.78213 0.79329 0.19827
 H1318 H 0.69221 0.70807 0.20584
 H1319 H 0.78283 0.71019 0.29009
 H1320 H 0.69703 0.80057 0.28806
 H1321 H 0.72824 0.84675 0.29192
 H1322 H 0.75097 0.81109 0.32844
 H1323 H 0.71980 0.69786 0.15917
 H1324 H 0.74653 0.66401 0.19630
 H1325 H 0.79151 0.84149 0.22677
 H1326 H 0.84954 0.78208 0.24683
 H1327 H 0.64913 0.70202 0.24119
 H1328 H 0.68482 0.66857 0.27256
 H1329 H 0.81906 0.73258 0.18918
 H1330 H 0.78586 0.76212 0.15223
 H1331 H 0.68686 0.73847 0.33283
 H1332 H 0.64859 0.77878 0.29537
 O1333 O 0.70680 0.24979 0.84133
 O1334 O 0.75120 0.21383 0.84840
 O1335 O 0.74248 0.33738 0.80241
 O1336 O 0.77955 0.35049 0.75912
 O1337 O 0.66286 0.29488 0.75779
 O1338 O 0.65438 0.25078 0.72181
 O1339 O 0.83260 0.26081 0.71061
 O1340 O 0.84396 0.28997 0.75485
 O1341 O 0.79590 0.17049 0.75195
 O1342 O 0.75501 0.15482 0.78404
 O1343 O 0.74920 0.21395 0.66879
 O1344 O 0.71639 0.25633 0.65768
 O1345 O 0.79370 0.26315 0.67134
 O1346 O 0.74151 0.29740 0.66538
 O1347 O 0.74849 0.17256 0.70662
 O1348 O 0.71432 0.16123 0.75772
 O1349 O 0.83347 0.21094 0.75209
 O1350 O 0.83845 0.25881 0.79431
 O1351 O 0.66669 0.24967 0.80304
 O1352 O 0.65930 0.21199 0.75622
 O1353 O 0.69956 0.33629 0.75653
 O1354 O 0.74547 0.34930 0.72073
 O1355 O 0.74663 0.29668 0.84095
 O1356 O 0.79027 0.25370 0.84490
 Zr1357 Zr 0.74922 0.25298 0.81385
 O1358 O 0.77923 0.22403 0.78449
 Zr1359 Zr 0.74490 0.31263 0.75782
 O1360 O 0.77654 0.28732 0.72712
 Zr1361 Zr 0.69120 0.25229 0.75760
 O1362 O 0.71966 0.22558 0.72505
 Zr1363 Zr 0.80649 0.25502 0.75409
 O1364 O 0.77828 0.28449 0.78550
 Zr1365 Zr 0.75182 0.19593 0.75209
 O1366 O 0.72155 0.22094 0.78512
 Zr1367 Zr 0.74964 0.25657 0.69692
 O1368 O 0.71720 0.28396 0.72594
 O1369 O 0.71733 0.28257 0.78758
 O1370 O 0.78126 0.22494 0.72200
 C1371 C 0.67691 0.24970 0.83284
 C1372 C 0.74281 0.32690 0.83217
 C1373 C 0.67052 0.32530 0.75750
 C1374 C 0.82330 0.26498 0.68094
 C1375 C 0.82515 0.18057 0.75232
 C1376 C 0.74668 0.18362 0.67709
 H1377 H 0.79299 0.21006 0.79879
 H1378 H 0.70484 0.21279 0.71128
 H1379 H 0.70274 0.29533 0.80155
 H1380 H 0.78913 0.30384 0.71473
 H1381 H 0.83384 0.31139 0.74953
 H1382 H 0.79597 0.34369 0.77552
 H1383 H 0.69971 0.16365 0.73867
 H1384 H 0.66531 0.19715 0.77464
 H1385 H 0.84048 0.23686 0.80474
 H1386 H 0.78309 0.25933 0.86720
 H1387 H 0.69592 0.24763 0.66653
 H1388 H 0.66046 0.26682 0.70453
 H1389 H 0.73613 0.19683 0.84065
 H1390 H 0.76278 0.16296 0.80526
 H1391 H 0.72819 0.34382 0.70502
 H1392 H 0.76024 0.31221 0.66736
 C1393 C 0.12090 1.02334 1.16027
 C1394 C 0.13929 1.03981 1.13720
 C1395 C 0.12725 1.03091 1.10775
 C1396 C 0.10187 1.01024 1.11466
 O1397 O 0.09802 1.00536 1.14652
 H1398 H 0.15928 1.05626 1.14116
 H1399 H 0.13474 1.04012 1.08404
 C1400 C 0.62385 0.51298 0.63347
 C1401 C 0.64594 0.49539 0.61578
 C1402 C 0.63068 0.48891 0.58706
 C1403 C 0.60039 0.50270 0.58995
 O1404 O 0.59623 0.51736 0.61805
 H1405 H 0.66991 0.48773 0.62325
 H1406 H 0.64004 0.47494 0.56694
 C1407 C 0.39725 -0.02899 0.65750
 C1408 C 0.37121 -0.03084 0.63661
 C1409 C 0.38264 -0.02088 0.60693
 C1410 C 0.41484 -0.01404 0.61204
 O1411 O 0.42377 -0.01888 0.64273
 H1412 H 0.34684 -0.03828 0.64246
 H1413 H 0.36950 -0.02010 0.58403
 C1414 C -0.10020 0.48229 1.13727
 C1415 C -0.12590 0.49415 1.11912
 C1416 C -0.11399 0.49936 1.08850
 C1417 C -0.08187 0.49065 1.09064
 O1418 O -0.07345 0.48015 1.12016
 H1419 H -0.15037 0.49822 1.12728
 H1420 H -0.12697 0.50866 1.06731
 C1421 C -0.12693 0.52614 0.34209
 C1422 C -0.14530 0.54087 0.36587
 C1423 C -0.13334 0.52937 0.39487
 C1424 C -0.10809 0.50905 0.38679
 O1425 O -0.10432 0.50678 0.35485
 H1426 H -0.16480 0.55824 0.36258
 H1427 H -0.14032 0.53715 0.41899
 C1428 C 0.38829 1.03619 -0.14343
 C1429 C 0.37101 1.05502 -0.12178
 C1430 C 0.37996 1.04402 -0.09154
 C1431 C 0.40254 1.01980 -0.09682
 O1432 O 0.40738 1.01477 -0.12820
 H1433 H 0.35436 1.07483 -0.12717
 H1434 H 0.37316 1.05455 -0.06847
 C1435 C 0.59807 0.48834 -0.16003
 C1436 C 0.61499 0.51502 -0.14895
 C1437 C 0.60508 0.51911 -0.11792
 C1438 C 0.58269 0.49474 -0.11231
 O1439 O 0.57838 0.47574 -0.13780
 H1440 H 0.63290 0.52942 -0.16186
 H1441 H 0.61296 0.53790 -0.10136
 C1442 C 0.09864 -0.03680 0.36301
 C1443 C 0.12275 -0.04686 0.38422
 C1444 C 0.11315 -0.03675 0.41420
 C1445 C 0.08379 -0.02148 0.40896
 O1446 O 0.07496 -0.02141 0.37785
 H1447 H 0.14437 -0.06054 0.37850
 H1448 H 0.12512 -0.04164 0.43731
 C1449 C 0.15701 1.11354 1.00808
 C1450 C 0.14581 1.12097 0.97690
 C1451 C 0.11659 1.10613 0.97457
 C1452 C 0.11226 1.09030 1.00409
 O1453 O 0.13653 1.09472 1.02459
 H1454 H 0.15701 1.13604 0.95820
 H1455 H 0.10074 1.10594 0.95352
 C1456 C 0.65258 0.59561 0.49049
 C1457 C 0.65901 0.57963 0.46158
 C1458 C 0.63210 0.56253 0.45436
 C1459 C 0.61090 0.56906 0.47903
 O1460 O 0.62322 0.58869 0.50150
 H1461 H 0.68124 0.57897 0.44788
 H1462 H 0.62878 0.54589 0.43431
 C1463 C 0.68142 0.41646 0.00649
 C1464 C 0.68152 0.42184 0.03995
 C1465 C 0.65426 0.43910 0.04610
 C1466 C 0.63960 0.44353 0.01631
 O1467 O 0.65566 0.42981 -0.00783
 H1468 H 0.69842 0.41351 0.05844
 H1469 H 0.64551 0.44671 0.06966
 C1470 C 0.13101 -0.13193 0.49449
 C1471 C 0.10843 -0.15658 0.49349
 C1472 C 0.07997 -0.14204 0.50150
 C1473 C 0.08732 -0.10950 0.50638
 O1474 O 0.11834 -0.10329 0.50211
 H1475 H 0.11216 -0.18179 0.48658
 H1476 H 0.05641 -0.15339 0.50198
 C1477 C 0.33301 -0.08921 0.50367
 C1478 C 0.33954 -0.09504 0.47101
 C1479 C 0.36950 -0.08303 0.46542
 C1480 C 0.37919 -0.07021 0.49457
 O1481 O 0.35744 -0.07405 0.51808
 H1482 H 0.32504 -0.10782 0.45332
 H1483 H 0.38275 -0.08340 0.44271
 C1484 C -0.12754 0.36970 0.99451
 C1485 C -0.11098 0.34921 0.97402
 C1486 C -0.08350 0.36584 0.96618
 C1487 C -0.08604 0.39529 0.98206
 O1488 O -0.11261 0.39762 0.99938
 H1489 H -0.11777 0.32488 0.96650
 H1490 H -0.06394 0.35754 0.95093
 C1491 C -0.15847 0.60763 0.49164
 C1492 C -0.14939 0.61117 0.52405
 C1493 C -0.12167 0.59370 0.52790
 C1494 C -0.11586 0.58030 0.49799
 O1495 O -0.13779 0.58882 0.47569
 H1496 H -0.16092 0.62547 0.54272
 H1497 H -0.10749 0.59071 0.55000
 C1498 C 0.35747 1.12887 -0.00144
 C1499 C 0.36825 1.13672 0.02949
 C1500 C 0.39791 1.12252 0.03248
 C1501 C 0.40281 1.10669 0.00352
 O1502 O 0.37851 1.11049 -0.01715
 H1503 H 0.35608 1.15101 0.04778
 H1504 H 0.41321 1.12193 0.05395
 C1505 C 0.03711 1.14097 1.13449
 C1506 C 0.05317 1.11643 1.15178
 C1507 C 0.04497 1.08806 1.13708
 C1508 C 0.02517 1.09717 1.11139
 O1509 O 0.02005 1.12924 1.10978
 H1510 H 0.06884 1.11873 1.17281
 H1511 H 0.05377 1.06373 1.14328
 C1512 C 0.50437 0.65363 0.59378
 C1513 C 0.48542 0.66553 0.56847
 C1514 C 0.48493 0.64127 0.54629
 C1515 C 0.50340 0.61643 0.55993
 O1516 O 0.51542 0.62375 0.58874
 H1517 H 0.47443 0.68954 0.56595
 H1518 H 0.47233 0.64142 0.52310
 C1519 C -0.05142 0.64927 0.38210
 C1520 C -0.06377 0.62913 0.35840
 C1521 C -0.05363 0.59833 0.36703
 C1522 C -0.03616 0.60215 0.39545
 O1523 O -0.03477 0.63296 0.40461
 H1524 H -0.07834 0.63608 0.33741
 H1525 H -0.05946 0.57570 0.35495
 C1526 C 0.47197 1.14242 -0.13005
 C1527 C 0.45397 1.11889 -0.14575
 C1528 C 0.46168 1.09001 -0.13040
 C1529 C 0.48301 1.09805 -0.10591
 O1530 O 0.48949 1.12971 -0.10578
 H1531 H 0.43728 1.12219 -0.16593
 H1532 H 0.45156 1.06618 -0.13521
 C1533 C 0.52313 0.32128 -0.05822
 C1534 C 0.49530 0.31970 -0.03961
 C1535 C 0.49371 0.34857 -0.02383
 C1536 C 0.52027 0.36586 -0.03406
 O1537 O 0.53844 0.34954 -0.05477
 H1538 H 0.47818 0.29986 -0.03735
 H1539 H 0.47478 0.35669 -0.00769
 C1540 C 0.02085 -0.15121 0.39639
 C1541 C 0.03251 -0.12800 0.37472
 C1542 C 0.02304 -0.09861 0.38680
 C1543 C 0.00660 -0.10611 0.41516
 O1544 O 0.00520 -0.13803 0.42105
 H1545 H 0.04618 -0.13209 0.35277
 H1546 H 0.02874 -0.07456 0.37695
 C1547 C 0.49504 -0.16864 0.60265
 C1548 C 0.52248 -0.17411 0.58437
 C1549 C 0.52592 -0.14689 0.56538
 C1550 C 0.50057 -0.12695 0.57363
 O1551 O 0.48156 -0.13989 0.59604
 H1552 H 0.53737 -0.19592 0.58370
 H1553 H 0.54437 -0.14221 0.54728
 C1554 C 0.00349 0.34277 1.09924
 C1555 C 0.03318 0.35197 1.11188
 C1556 C 0.03922 0.38228 1.09923
 C1557 C 0.01330 0.38921 1.07932
 O1558 O -0.00868 0.36560 1.07941
 H1559 H 0.04864 0.33834 1.12863
 H1560 H 0.06076 0.39679 1.10259
 C1561 C 0.80941 0.35263 0.09474
 C1562 C 0.83100 0.36701 0.11597
 C1563 C 0.81906 0.36088 0.14634
 C1564 C 0.79152 0.34270 0.14153
 O1565 O 0.78553 0.33777 0.11034
 H1566 H 0.85273 0.38052 0.11028
 H1567 H 0.83044 0.36673 0.16933
 C1568 C 0.27301 0.87843 0.60486
 C1569 C 0.28374 0.90059 0.62751
 C1570 C 0.27601 0.88719 0.65724
 C1571 C 0.26140 0.85766 0.65064
 O1572 O 0.25955 0.85232 0.61885
 H1573 H 0.29565 0.92375 0.62288
 H1574 H 0.28162 0.89709 0.68094
 C1575 C 0.70714 0.63997 0.59235
 C1576 C 0.69725 0.61673 0.61498
 C1577 C 0.70834 0.62748 0.64438
 C1578 C 0.72408 0.65659 0.63763
 O1579 O 0.72326 0.66423 0.60611
 H1580 H 0.68408 0.59438 0.61055
 H1581 H 0.70432 0.61613 0.66807
 C1582 C 0.22488 0.13801 0.10393
 C1583 C 0.21834 0.11194 0.12466
 C1584 C 0.22910 0.12138 0.15454
 C1585 C 0.24113 0.15258 0.14972
 O1586 O 0.23865 0.16271 0.11905
 H1587 H 0.20746 0.08875 0.11858
 H1588 H 0.22735 0.10768 0.17731
 C1589 C 0.28811 0.14845 0.90268
 C1590 C 0.29467 0.12220 0.88305
 C1591 C 0.28631 0.13239 0.85237
 C1592 C 0.27549 0.16419 0.85569
 O1593 O 0.27644 0.17402 0.88625
 H1594 H 0.30401 0.09842 0.89043
 H1595 H 0.28850 0.11859 0.83014
 C1596 C 0.77563 0.64219 0.39428
 C1597 C 0.78206 0.61757 0.37261
 C1598 C 0.76907 0.62806 0.34356
 C1599 C 0.75560 0.65835 0.34969
 O1600 O 0.75956 0.66691 0.38044
 H1601 H 0.79405 0.59448 0.37765
 H1602 H 0.77032 0.61569 0.32043
 C1603 C 0.20876 0.85198 0.40480
 C1604 C 0.20857 0.87908 0.38433
 C1605 C 0.21610 0.86749 0.35433
 C1606 C 0.22031 0.83414 0.35882
 O1607 O 0.21587 0.82460 0.38954
 H1608 H 0.20341 0.90421 0.39063
 H1609 H 0.21757 0.88151 0.33174
 C1610 C 0.72428 0.36925 0.90371
 C1611 C 0.71330 0.39267 0.88164
 C1612 C 0.72030 0.38053 0.85165
 C1613 C 0.73493 0.35057 0.85765
 O1614 O 0.73734 0.34367 0.88918
 H1615 H 0.70214 0.41603 0.88675
 H1616 H 0.71463 0.39175 0.82819
 C1617 C 0.88820 0.39621 0.22276
 C1618 C 0.91179 0.37310 0.21721
 C1619 C 0.89828 0.34384 0.22594
 C1620 C 0.86733 0.35138 0.23571
 O1621 O 0.86117 0.38316 0.23382
 H1622 H 0.93553 0.37707 0.20701
 H1623 H 0.90899 0.31977 0.22359
 C1624 C 0.37145 0.89826 0.75255
 C1625 C 0.38907 0.88060 0.77543
 C1626 C 0.37252 0.85210 0.77995
 C1627 C 0.34578 0.85501 0.75999
 O1628 O 0.34510 0.88289 0.74315
 H1629 H 0.41160 0.88746 0.78683
 H1630 H 0.37892 0.83178 0.79603
 C1631 C 0.11085 0.88437 0.27569
 C1632 C 0.09065 0.85961 0.28626
 C1633 C 0.10390 0.83154 0.27503
 C1634 C 0.13179 0.84103 0.25928
 O1635 O 0.13592 0.87318 0.25924
 H1636 H 0.06914 0.86174 0.30089
 H1637 H 0.09582 0.80683 0.28038
 C1638 C 0.62174 0.39385 0.76927
 C1639 C 0.59888 0.37049 0.77674
 C1640 C 0.61362 0.34124 0.77113
 C1641 C 0.64443 0.34915 0.76108
 O1642 O 0.64938 0.38105 0.75984
 H1643 H 0.57470 0.37439 0.78579
 H1644 H 0.60372 0.31706 0.77549
 C1645 C 0.63411 0.60044 0.71534
 C1646 C 0.60930 0.62199 0.70832
 C1647 C 0.61921 0.65123 0.72033
 C1648 C 0.64942 0.64518 0.73350
 O1649 O 0.65846 0.61431 0.73055
 H1650 H 0.58702 0.61704 0.69546
 H1651 H 0.60696 0.67460 0.71768
 C1652 C 0.15028 0.08933 0.25603
 C1653 C 0.13249 0.10405 0.28018
 C1654 C 0.14794 0.13264 0.28639
 C1655 C 0.17425 0.13287 0.26597
 O1656 O 0.17571 0.10675 0.24729
 H1657 H 0.11060 0.09512 0.29150
 H1658 H 0.14106 0.15100 0.30384
 C1659 C 0.37227 0.10553 0.75807
 C1660 C 0.39175 0.12087 0.73533
 C1661 C 0.37613 0.14929 0.72721
 C1662 C 0.34810 0.14867 0.74522
 O1663 O 0.34575 0.12227 0.76412
 H1664 H 0.41465 0.11235 0.72604
 H1665 H 0.38388 0.16794 0.70990
 C1666 C 0.85341 0.60390 0.25145
 C1667 C 0.87541 0.62142 0.23305
 C1668 C 0.86194 0.65167 0.22858
 C1669 C 0.83259 0.64996 0.24414
 O1670 O 0.82737 0.62110 0.25824
 H1671 H 0.89867 0.61317 0.22444
 H1672 H 0.87197 0.67228 0.21516
 C1673 C 0.90684 0.27552 0.12494
 C1674 C 0.88337 0.28502 0.10280
 C1675 C 0.85487 0.27717 0.11739
 C1676 C 0.86302 0.26395 0.14759
 O1677 O 0.89461 0.26290 0.15223
 H1678 H 0.88669 0.29625 0.07893
 H1679 H 0.83091 0.28174 0.10771
 C1680 C 0.39716 0.77296 0.64022
 C1681 C 0.37739 0.78115 0.61412
 C1682 C 0.34692 0.77407 0.62438
 C1683 C 0.35063 0.76236 0.65594
 O1684 O 0.38103 0.76151 0.66551
 H1685 H 0.38435 0.79143 0.59068
 H1686 H 0.32463 0.77860 0.61118
 C1687 C 0.40919 0.24205 0.84244
 C1688 C 0.39698 0.26599 0.86244
 C1689 C 0.36718 0.27327 0.85034
 C1690 C 0.36360 0.25363 0.82358
 O1691 O 0.38892 0.23439 0.81875
 H1692 H 0.40823 0.27628 0.88383
 H1693 H 0.35011 0.29085 0.85976
 C1694 C 0.88155 0.74954 0.36564
 C1695 C 0.86645 0.77301 0.38407
 C1696 C 0.83789 0.77916 0.36847
 C1697 C 0.83831 0.75942 0.34149
 O1698 O 0.86462 0.74130 0.33977
 H1699 H 0.87497 0.78372 0.40649
 H1700 H 0.81917 0.79612 0.37562
 C1701 C 0.08684 0.75001 0.36983
 C1702 C 0.10206 0.72761 0.39022
 C1703 C 0.12954 0.71909 0.37434
 C1704 C 0.12851 0.73638 0.34517
 O1705 O 0.10269 0.75538 0.34236
 H1706 H 0.09421 0.71900 0.41401
 H1707 H 0.14820 0.70243 0.38297
 C1708 C 0.61008 0.26348 0.88340
 C1709 C 0.63389 0.26623 0.90676
 C1710 C 0.66191 0.25934 0.89114
 C1711 C 0.65324 0.25307 0.85928
 O1712 O 0.62168 0.25543 0.85448
 H1713 H 0.63112 0.27263 0.93213
 H1714 H 0.68598 0.26015 0.90143
 C1715 C 0.59397 0.71454 0.64031
 C1716 C 0.61339 0.70983 0.61344
 C1717 C 0.64172 0.72501 0.62062
 C1718 C 0.63728 0.73787 0.65120
 O1719 O 0.60837 0.73167 0.66305
 H1720 H 0.60768 0.69687 0.59133
 H1721 H 0.66360 0.72481 0.60629
 C1722 C 0.10399 0.23485 0.16404
 C1723 C 0.11617 0.25769 0.14215
 C1724 C 0.14628 0.26452 0.15315
 C1725 C 0.14985 0.24572 0.18114
 O1726 O 0.12436 0.22744 0.18781
 H1727 H 0.10452 0.26768 0.12046
 H1728 H 0.16355 0.28120 0.14224
 C1729 C -0.10274 1.03934 0.86087
 C1730 C -0.11904 1.05817 0.88332
 C1731 C -0.10855 1.04765 0.91315
 C1732 C -0.08594 1.02370 0.90718
 O1733 O -0.08252 1.01824 0.87542
 H1734 H -0.13679 1.07721 0.87866
 H1735 H -0.11511 1.05773 0.93649
 C1736 C 0.36307 0.50180 0.36239
 C1737 C 0.33998 0.49943 0.38630
 C1738 C 0.35646 0.49068 0.41388
 C1739 C 0.38843 0.48846 0.40467
 O1740 O 0.39253 0.49519 0.37328
 H1741 H 0.31445 0.50467 0.38405
 H1742 H 0.34662 0.48795 0.43820
 C1743 C 0.60315 -0.02977 0.34408
 C1744 C 0.62205 -0.04912 0.36456
 C1745 C 0.61311 -0.04138 0.39516
 C1746 C 0.58876 -0.01845 0.39154
 O1747 O 0.58288 -0.01084 0.36044
 H1748 H 0.64039 -0.06677 0.35804
 H1749 H 0.62191 -0.05275 0.41755
 C1750 C 0.12442 0.48984 0.83506
 C1751 C 0.15064 0.49741 0.85422
 C1752 C 0.13804 0.50478 0.88395
 C1753 C 0.10512 0.50132 0.88034
 O1754 O 0.09681 0.49219 0.85069
 H1755 H 0.17585 0.49685 0.84749
 H1756 H 0.15124 0.51107 0.90580
 C1757 C 0.11445 0.52415 0.62487
 C1758 C 0.13753 0.52952 0.60134
 C1759 C 0.12429 0.51865 0.57309
 C1760 C 0.09388 0.50760 0.58130
 O1761 O 0.08783 0.51081 0.61291
 H1762 H 0.16104 0.54054 0.60444
 H1763 H 0.13498 0.51997 0.54905
 C1764 C 0.61538 1.04454 0.14513
 C1765 C 0.63797 1.05534 0.12280
 C1766 C 0.62745 1.04426 0.09327
 C1767 C 0.59917 1.02772 0.09987
 O1768 O 0.59192 1.02785 0.13124
 H1769 H 0.65950 1.06947 0.12748
 H1770 H 0.63826 1.04892 0.06965
 C1771 C 0.41630 0.49599 0.17203
 C1772 C 0.43376 0.52334 0.18072
 C1773 C 0.45023 0.53254 0.15366
 C1774 C 0.44175 0.51026 0.13028
 O1775 O 0.42129 0.48776 0.14131
 H1776 H 0.43483 0.53494 0.20426
 H1777 H 0.46702 0.55271 0.15139
 C1778 C -0.12252 -0.02705 0.66130
 C1779 C -0.14398 -0.04136 0.63985
 C1780 C -0.13308 -0.03356 0.60944
 C1781 C -0.10538 -0.01577 0.61438
 O1782 O -0.09911 -0.01134 0.64576
 H1783 H -0.16499 -0.05600 0.64556
 H1784 H -0.14278 -0.04192 0.58647
 C1785 C -0.15064 0.89135 1.00612
 C1786 C -0.13856 0.88234 0.97606
 C1787 C -0.10792 0.89412 0.97494
 C1788 C -0.10349 0.91000 1.00395
 O1789 O -0.12924 0.90838 1.02307
 H1790 H -0.15037 0.86841 0.95724
 H1791 H -0.09133 0.89287 0.95465
 C1792 C 0.33333 0.40745 0.54922
 C1793 C 0.35167 0.38461 0.56640
 C1794 C 0.38291 0.39186 0.55919
 C1795 C 0.38132 0.41864 0.53832
 O1796 O 0.35135 0.42811 0.53213
 H1797 H 0.34334 0.36436 0.58148
 H1798 H 0.40429 0.37932 0.56820
 C1799 C 0.33810 0.57898 -0.01027
 C1800 C 0.32798 0.55513 0.01163
 C1801 C 0.35469 0.53726 0.01929
 C1802 C 0.37941 0.55144 0.00171
 O1803 O 0.36945 0.57679 -0.01655
 H1804 H 0.30387 0.55128 0.02095
 H1805 H 0.35605 0.51646 0.03599
 C1806 C -0.14850 0.12397 0.50474
 C1807 C -0.13825 0.13224 0.53578
 C1808 C -0.11097 0.11443 0.54139
 C1809 C -0.10685 0.09620 0.51381
 O1810 O -0.12926 0.10199 0.49133
 H1811 H -0.14914 0.14935 0.55241
 H1812 H -0.09650 0.11375 0.56346
 C1813 C 0.66816 0.09000 0.51167
 C1814 C 0.67889 0.06711 0.48973
 C1815 C 0.65361 0.04683 0.48486
 C1816 C 0.62910 0.05880 0.50398
 O1817 O 0.63780 0.08501 0.52057
 H1818 H 0.70264 0.06505 0.47906
 H1819 H 0.65303 0.02577 0.46914
 C1820 C 0.15232 0.62266 0.99482
 C1821 C 0.14312 0.63351 0.96389
 C1822 C 0.11517 0.61764 0.95708
 C1823 C 0.10960 0.59782 0.98388
 O1824 O 0.13180 0.60089 1.00701
 H1825 H 0.15535 0.65086 0.94802
 H1826 H 0.10139 0.61897 0.93459
 C1827 C 0.15342 0.39841 0.44306
 C1828 C 0.13449 0.37413 0.42991
 C1829 C 0.10342 0.38230 0.43761
 C1830 C 0.10558 0.41105 0.45473
 O1831 O 0.13583 0.42083 0.45805
 H1832 H 0.14237 0.35249 0.41723
 H1833 H 0.08177 0.36911 0.43117
 C1834 C 0.64373 0.88207 -0.01618
 C1835 C 0.62278 0.85698 -0.00873
 C1836 C 0.59498 0.87198 0.00068
 C1837 C 0.60111 0.90517 -0.00165
 O1838 O 0.63079 0.91140 -0.01192
 H1839 H 0.62717 0.83091 -0.01050
 H1840 H 0.57262 0.86018 0.00759
 C1841 C 0.00947 0.84918 0.89609
 C1842 C -0.01988 0.86104 0.88452
 C1843 C -0.02355 0.89113 0.89764
 C1844 C 0.00328 0.89537 0.91686
 O1845 O 0.02366 0.87017 0.91590
 H1846 H -0.03667 0.84926 0.86819
 H1847 H -0.04423 0.90726 0.89511
 C1848 C 0.51214 0.32875 0.40770
 C1849 C 0.49102 0.31384 0.42927
 C1850 C 0.47915 0.33827 0.44786
 C1851 C 0.49358 0.36640 0.43611
 O1852 O 0.51388 0.36079 0.41185
 H1853 H 0.48536 0.28802 0.43148
 H1854 H 0.46224 0.33591 0.46781
 C1855 C -0.00273 0.33819 0.59852
 C1856 C 0.03077 0.34058 0.59746
 C1857 C 0.03738 0.36722 0.57846
 C1858 C 0.00790 0.37961 0.56931
 O1859 O -0.01663 0.36241 0.58141
 H1860 H 0.04884 0.32533 0.60927
 H1861 H 0.06094 0.37659 0.57196
 C1862 C 0.47167 0.86951 0.13264
 C1863 C 0.46837 0.89396 0.15516
 C1864 C 0.47947 0.92163 0.13990
 C1865 C 0.48839 0.91204 0.10903
 O1866 O 0.48375 0.88032 0.10460
 H1867 H 0.45865 0.89186 0.17958
 H1868 H 0.47960 0.94616 0.14956
 C1869 C 0.49469 0.67612 0.07687
 C1870 C 0.46983 0.68181 0.05491
 C1871 C 0.46532 0.65295 0.03950
 C1872 C 0.48750 0.63164 0.05337
 O1873 O 0.50557 0.64561 0.07594
 H1874 H 0.45692 0.70452 0.05024
 H1875 H 0.44805 0.64800 0.02033
 C1876 C -0.00993 0.14069 0.63232
 C1877 C -0.04190 0.13187 0.63632
 C1878 C -0.04477 0.10224 0.62179
 C1879 C -0.01463 0.09541 0.60963
 O1880 O 0.00658 0.11852 0.61593
 H1881 H -0.06095 0.14531 0.64822
 H1882 H -0.06665 0.08822 0.61862
 C1883 C 0.52874 0.15186 0.39424
 C1884 C 0.55534 0.15865 0.41355
 C1885 C 0.55751 0.13344 0.43552
 C1886 C 0.53239 0.11296 0.42796
 O1887 O 0.51483 0.12393 0.40304
 H1888 H 0.57036 0.18026 0.41324
 H1889 H 0.57485 0.13063 0.45521
 C1890 C -0.02368 0.64477 0.86737
 C1891 C -0.03762 0.62082 0.84855
 C1892 C -0.02631 0.59197 0.86090
 C1893 C -0.00700 0.60006 0.88704
 O1894 O -0.00495 0.63222 0.89088
 H1895 H -0.05419 0.62397 0.82825
 H1896 H -0.03324 0.56771 0.85325
 C1897 C 0.28275 0.63617 0.89483
 C1898 C 0.28865 0.61234 0.87207
 C1899 C 0.27563 0.62416 0.84355
 C1900 C 0.26268 0.65436 0.85089
 O1901 O 0.26696 0.66165 0.88199
 H1902 H 0.30050 0.58891 0.87587
 H1903 H 0.27651 0.61267 0.81994
 C1904 C 0.78597 0.14716 0.40546
 C1905 C 0.79398 0.12152 0.38550
 C1906 C 0.78602 0.13194 0.35469
 C1907 C 0.77406 0.16330 0.35810
 O1908 O 0.77388 0.17255 0.38894
 H1909 H 0.80445 0.09813 0.39262
 H1910 H 0.78981 0.11881 0.33227
 C1911 C 0.26232 0.35489 0.40737
 C1912 C 0.28953 0.33886 0.41940
 C1913 C 0.29950 0.31883 0.39534
 C1914 C 0.27806 0.32402 0.37012
 O1915 O 0.25519 0.34565 0.37727
 H1916 H 0.30010 0.34005 0.44353
 H1917 H 0.31934 0.30151 0.39643
 C1918 C 0.71916 0.86165 0.89195
 C1919 C 0.71264 0.88684 0.87014
 C1920 C 0.72172 0.87542 0.84055
 C1921 C 0.73286 0.84393 0.84646
 O1922 O 0.73149 0.83551 0.87779
 H1923 H 0.70226 0.91058 0.87528
 H1924 H 0.71916 0.88800 0.81721
 C1925 C 0.77335 0.86813 0.09698
 C1926 C 0.78044 0.89162 0.11962
 C1927 C 0.76758 0.88015 0.14813
 C1928 C 0.75378 0.85035 0.14082
 O1929 O 0.75716 0.84305 0.10969
 H1930 H 0.79327 0.91439 0.11573
 H1931 H 0.76936 0.89145 0.17178
 C1932 C 0.22928 0.36405 0.59025
 C1933 C 0.20119 0.34709 0.58339
 C1934 C 0.19758 0.32522 0.60847
 C1935 C 0.22330 0.33068 0.62892
 O1936 O 0.24255 0.35409 0.61813
 H1937 H 0.18608 0.34864 0.56186
 H1938 H 0.17903 0.30677 0.61109
 C1939 C 0.72163 0.14366 0.60613
 C1940 C 0.71631 0.11819 0.62801
 C1941 C 0.72706 0.12910 0.65736
 C1942 C 0.73809 0.16046 0.65132
 O1943 O 0.73494 0.16932 0.62022
 H1944 H 0.70616 0.09437 0.62311
 H1945 H 0.72586 0.11621 0.68063
 C1946 C 0.21803 0.63888 0.09506
 C1947 C 0.20905 0.61335 0.11543
 C1948 C 0.21691 0.62316 0.14610
 C1949 C 0.22983 0.65413 0.14225
 O1950 O 0.23065 0.66369 0.11120
 H1951 H 0.19797 0.59045 0.10867
 H1952 H 0.21232 0.60996 0.16873
 C1953 C 0.13557 0.60991 0.70830
 C1954 C 0.11253 0.63327 0.70072
 C1955 C 0.12312 0.66138 0.71466
 C1956 C 0.15206 0.65330 0.72960
 O1957 O 0.15962 0.62193 0.72589
 H1958 H 0.09063 0.63010 0.68666
 H1959 H 0.11192 0.68534 0.71271
 C1960 C 0.63927 0.11263 0.24320
 C1961 C 0.62005 0.12986 0.26437
 C1962 C 0.63639 0.15809 0.27037
 C1963 C 0.66464 0.15564 0.25295
 O1964 O 0.66645 0.12816 0.23623
 H1965 H 0.59660 0.12293 0.27365
 H1966 H 0.62886 0.17793 0.28586
 C1967 C 0.87408 0.11101 0.76556
 C1968 C 0.89768 0.13124 0.75299
 C1969 C 0.88245 0.16022 0.74579
 C1970 C 0.85063 0.15534 0.75426
 O1971 O 0.84551 0.12551 0.76643
 H1972 H 0.92308 0.12574 0.75030
 H1973 H 0.89325 0.18235 0.73594
 C1974 C 0.34369 0.59438 0.28406
 C1975 C 0.36716 0.61596 0.29392
 C1976 C 0.35768 0.64581 0.28187
 C1977 C 0.32899 0.64028 0.26570
 O1978 O 0.32054 0.60897 0.26683
 H1979 H 0.38843 0.61054 0.30846
 H1980 H 0.36927 0.66911 0.28605
 C1981 C 0.37335 0.39277 0.22571
 C1982 C 0.39779 0.37195 0.21623
 C1983 C 0.38815 0.34134 0.22573
 C1984 C 0.35851 0.34557 0.24032
 O1985 O 0.34952 0.37677 0.24043
 H1986 H 0.42007 0.37828 0.20404
 H1987 H 0.40075 0.31852 0.22156
 C1988 C 0.85555 0.90226 0.75582
 C1989 C 0.87345 0.88412 0.77815
 C1990 C 0.86000 0.85358 0.77833
 C1991 C 0.83474 0.85562 0.75640
 O1992 O 0.83199 0.88501 0.74270
 H1993 H 0.89462 0.89183 0.79149
 H1994 H 0.86747 0.83247 0.79285
 C1995 C 0.62021 0.90408 0.24702
 C1996 C 0.59862 0.88781 0.22743
 C1997 C 0.61244 0.85793 0.22215
 C1998 C 0.64155 0.85868 0.23851
 O1999 O 0.64626 0.88653 0.25376
 H2000 H 0.57528 0.89639 0.21891
 H2001 H 0.60266 0.83812 0.20797
 C2002 C 0.13329 0.39955 0.75632
 C2003 C 0.10819 0.37858 0.76343
 C2004 C 0.12018 0.34785 0.75885
 C2005 C 0.15185 0.35239 0.74963
 O2006 O 0.15988 0.38378 0.74808
 H2007 H 0.08439 0.38498 0.77210
 H2008 H 0.10780 0.32488 0.76308
 C2009 C 0.10068 0.77486 0.86892
 C2010 C 0.12366 0.77980 0.89264
 C2011 C 0.15219 0.77117 0.87879
 C2012 C 0.14473 0.76189 0.84736
 O2013 O 0.11329 0.76401 0.84129
 H2014 H 0.11998 0.78873 0.91708
 H2015 H 0.17587 0.77272 0.88989
 C2016 C 0.61677 0.29163 0.35765
 C2017 C 0.63750 0.30267 0.38154
 C2018 C 0.66781 0.29454 0.37119
 C2019 C 0.66331 0.27929 0.34174
 O2020 O 0.63249 0.27751 0.33356
 H2021 H 0.63130 0.31445 0.40415
 H2022 H 0.69044 0.29964 0.38332
 C2023 C 0.58848 0.73385 0.12771
 C2024 C 0.61039 0.72828 0.10312
 C2025 C 0.63978 0.73564 0.11599
 C2026 C 0.63383 0.74497 0.14762
 O2027 O 0.60263 0.74407 0.15480
 H2028 H 0.60547 0.71993 0.07867
 H2029 H 0.66294 0.73342 0.10409
 C2030 C 0.08703 0.20540 0.65485
 C2031 C 0.10662 0.19248 0.63117
 C2032 C 0.13697 0.20177 0.63932
 C2033 C 0.13373 0.21946 0.66756
 O2034 O 0.10334 0.22191 0.67705
 H2035 H 0.09952 0.17831 0.61024
 H2036 H 0.15900 0.19567 0.62665
 C2037 C 0.89415 0.28740 0.63891
 C2038 C 0.87233 0.29873 0.61578
 C2039 C 0.84258 0.29031 0.62758
 C2040 C 0.84838 0.27464 0.65714
 O2041 O 0.87960 0.27284 0.66399
 H2042 H 0.87749 0.31112 0.59285
 H2043 H 0.81942 0.29579 0.61646
 C2044 C 0.38541 0.78588 0.14947
 C2045 C 0.36451 0.79368 0.12427
 C2046 C 0.33556 0.78077 0.13325
 C2047 C 0.34074 0.76616 0.16345
 O2048 O 0.37116 0.76910 0.17335
 H2049 H 0.36984 0.80728 0.10206
 H2050 H 0.31297 0.78307 0.12004
 C2051 C 0.42957 0.20307 0.34792
 C2052 C 0.41075 0.19244 0.37366
 C2053 C 0.38029 0.20240 0.36611
 C2054 C 0.38259 0.21834 0.33624
 O2055 O 0.41255 0.21895 0.32513
 H2056 H 0.41843 0.17966 0.39573
 H2057 H 0.35876 0.19786 0.38033
 C2058 C 0.89655 0.73217 0.84987
 C2059 C 0.87921 0.74152 0.87682
 C2060 C 0.84909 0.74882 0.86534
 C2061 C 0.85059 0.74367 0.83220
 O2062 O 0.87937 0.73348 0.82270
 H2063 H 0.88755 0.74250 0.90185
 H2064 H 0.82853 0.75683 0.87935
   
