data_POSCAR
  _audit_creation_date              2014-09-24
  _audit_creation_method            'ToBaCCo'
  _symmetry_space_group_name_H-M    'P1'
  _symmetry_Int_Tables_number       1
  _symmetry_cell_setting            triclinic
  loop_
  _symmetry_equiv_pos_as_xyz
 x,y,z
_cell_length_a 33.7128
_cell_length_b 33.1176
_cell_length_c 41.1720
_cell_angle_alpha 90.044300
_cell_angle_beta 90.268600
_cell_angle_gamma 89.726000
loop_
  _atom_site_label
  _atom_site_type_symbol
  _atom_site_fract_x
  _atom_site_fract_y
  _atom_site_fract_z
B1 B 0.26146 0.22924 0.21647
 B2 B 0.27216 0.27749 0.22607
 B3 B 0.22477 0.26441 0.21791
 B4 B 0.21710 0.21778 0.23287
 B5 B 0.26031 0.20228 0.25084
 B6 B 0.29464 0.23953 0.24631
 B7 B 0.23382 0.27004 0.28285
 B8 B 0.22308 0.22176 0.27336
 B9 B 0.27046 0.23485 0.28144
 B10 B 0.27811 0.28140 0.26648
 B11 B 0.23493 0.29692 0.24852
 B12 B 0.20058 0.25969 0.25308
 B13 B 0.73793 0.76843 0.21469
 B14 B 0.72839 0.71985 0.22497
 B15 B 0.77532 0.73464 0.21737
 B16 B 0.78143 0.78144 0.23213
 B17 B 0.73755 0.79625 0.24885
 B18 B 0.70436 0.75813 0.24391
 B19 B 0.76487 0.73017 0.28262
 B20 B 0.77464 0.77844 0.27254
 B21 B 0.72733 0.76435 0.27972
 B22 B 0.72144 0.71711 0.26520
 B23 B 0.76571 0.70240 0.24846
 B24 B 0.79849 0.74073 0.25349
 B25 B 0.73009 0.23542 -0.28477
 B26 B 0.77685 0.22316 -0.27385
 B27 B 0.76514 0.27179 -0.28187
 B28 B 0.71896 0.28074 -0.26821
 B29 B 0.70237 0.23702 -0.25122
 B30 B 0.73848 0.20108 -0.25502
 B31 B 0.76805 0.26195 -0.21690
 B32 B 0.72124 0.27415 -0.22774
 B33 B 0.73295 0.22554 -0.21977
 B34 B 0.77909 0.21663 -0.23340
 B35 B 0.79570 0.26032 -0.25044
 B36 B 0.75958 0.29626 -0.24665
 B37 B 0.27152 0.76349 -0.28331
 B38 B 0.22457 0.77552 -0.27309
 B39 B 0.23641 0.72702 -0.28147
 B40 B 0.28241 0.71787 -0.26712
 B41 B 0.29874 0.76129 -0.24925
 B42 B 0.26264 0.79726 -0.25326
 B43 B 0.23258 0.73578 -0.21642
 B44 B 0.27955 0.72370 -0.22658
 B45 B 0.26765 0.77219 -0.21824
 B46 B 0.22173 0.78134 -0.23261
 B47 B 0.20541 0.73794 -0.25042
 B48 B 0.24149 0.70195 -0.24642
 B49 B 1.23836 1.26841 0.71467
 B50 B 1.22903 1.21971 0.72490
 B51 B 1.27593 1.23487 0.71749
 B52 B 1.28174 1.28175 0.73225
 B53 B 1.23770 1.29631 0.74879
 B54 B 1.20472 1.25793 0.74379
 B55 B 1.26524 1.23051 0.78276
 B56 B 1.27486 1.27886 0.77268
 B57 B 1.22754 1.26445 0.77969
 B58 B 1.22195 1.21710 0.76517
 B59 B 1.26637 1.20263 0.74859
 B60 B 1.29894 1.24118 0.75371
 B61 B 0.77138 0.73473 0.78110
 B62 B 0.72392 0.72142 0.77340
 B63 B 0.73459 0.76966 0.78321
 B64 B 0.77860 0.78157 0.76648
 B65 B 0.79507 0.74010 0.74574
 B66 B 0.76098 0.70258 0.75028
 B67 B 0.72466 0.76500 0.71827
 B68 B 0.77214 0.77830 0.72604
 B69 B 0.76150 0.73011 0.71613
 B70 B 0.71743 0.71809 0.73290
 B71 B 0.70098 0.75958 0.75365
 B72 B 0.73508 0.79709 0.74910
 B73 B 1.23063 0.73575 0.21526
 B74 B 1.27738 0.72363 0.22642
 B75 B 1.26541 0.77229 0.21863
 B76 B 1.21901 0.78090 0.23202
 B77 B 1.20249 0.73693 0.24864
 B78 B 1.23887 0.70122 0.24489
 B79 B 1.26758 0.76197 0.28360
 B80 B 1.22078 0.77403 0.27252
 B81 B 1.23277 0.72539 0.28025
 B82 B 1.27913 0.71683 0.26689
 B83 B 1.29565 0.76077 0.25023
 B84 B 1.25927 0.79649 0.25398
 B85 B 0.76821 1.27273 0.28159
 B86 B 0.78052 1.22421 0.27363
 B87 B 0.73354 1.23602 0.28407
 B88 B 0.72199 1.28127 0.26751
 B89 B 0.76244 1.29732 0.24635
 B90 B 0.79895 1.26173 0.25039
 B91 B 0.73652 1.22643 0.21903
 B92 B 0.72425 1.27496 0.22702
 B93 B 0.77122 1.26320 0.21653
 B94 B 0.78281 1.21789 0.23307
 B95 B 0.74235 1.20186 0.25430
 B96 B 0.70587 1.23746 0.25027
 O97 O 0.55280 1.06971 0.05967
 O98 O 0.59937 1.03637 0.02911
 C99 C 0.58909 1.06272 0.05114
 O100 O 0.44773 0.92191 0.05363
 O101 O 0.39988 0.96089 0.02910
 C102 C 0.41104 0.93096 0.04768
 O103 O 0.55599 0.92648 0.05679
 O104 O 0.60050 0.96486 0.02827
 C105 C 0.59179 0.93653 0.04905
 O106 O 0.44443 1.07342 0.05644
 O107 O 0.39824 1.03573 0.02889
 C108 C 0.40814 1.06467 0.04888
 Zr109 Zr 0.49869 1.04846 0.04216
 O110 O 0.49795 1.03988 0.09301
 O111 O 0.49843 1.11182 0.04879
 Zr112 Zr 0.50091 0.94905 0.04072
 O113 O 0.49793 0.95405 0.09198
 O114 O 0.50365 0.88558 0.04584
 O115 O 0.53644 0.99926 0.04754
 O116 O 0.46400 0.99812 0.04774
 O117 O 0.44280 1.07481 -0.05375
 O118 O 0.39763 1.03592 -0.02658
 C119 C 0.40682 1.06549 -0.04617
 O120 O 0.55327 0.93106 -0.05979
 O121 O 0.59946 0.96579 -0.02973
 C122 C 0.58951 0.93901 -0.05157
 O123 O 0.44508 0.92630 -0.05545
 O124 O 0.39857 0.96111 -0.02590
 C125 C 0.40889 0.93328 -0.04667
 O126 O 0.55068 1.07145 -0.05787
 O127 O 0.59834 1.03733 -0.02876
 C128 C 0.58727 1.06411 -0.05025
 Zr129 Zr 0.49732 1.05040 -0.03927
 O130 O 0.49454 1.04619 -0.09047
 O131 O 0.49941 1.11427 -0.04038
 Zr132 Zr 0.49916 0.95076 -0.04078
 O133 O 0.49432 0.95427 -0.09203
 O134 O 0.50362 0.88703 -0.04322
 Zr135 Zr 0.56005 1.00061 0.00009
 Zr136 Zr 0.43799 0.99884 0.00114
 O137 O 0.46246 1.00019 -0.04575
 O138 O 0.53447 1.00128 -0.04677
 O139 O 0.46247 1.05732 0.00180
 O140 O 0.53484 0.94254 -0.00053
 O141 O 0.53264 1.05785 0.00123
 O142 O 0.46480 0.94100 0.00015
 H143 H 0.44599 0.99763 0.06670
 H144 H 0.55221 0.91836 -0.00125
 H145 H 0.44416 1.00027 -0.06467
 H146 H 0.54932 1.08238 0.00120
 H147 H 0.50856 0.87425 0.02403
 H148 H 0.48493 0.87578 -0.02717
 H149 H 0.51600 0.97173 -0.09989
 H150 H 0.49400 1.07429 -0.09874
 H151 H 0.48176 1.12433 -0.02300
 H152 H 0.50685 1.12413 0.02812
 H153 H 0.49646 1.06721 0.10273
 H154 H 0.52375 0.96438 0.09988
 O155 O 1.05258 0.56964 0.55989
 O156 O 1.09905 0.53645 0.52910
 C157 C 1.08883 0.56270 0.55122
 O158 O 0.94684 0.42473 0.55593
 O159 O 0.89922 0.46096 0.52843
 C160 C 0.91026 0.43243 0.54841
 O161 O 1.05534 0.42758 0.55796
 O162 O 1.09995 0.46502 0.52868
 C163 C 1.09117 0.43718 0.54989
 O164 O 0.94410 0.57279 0.55731
 O165 O 0.89800 0.53591 0.52895
 C166 C 0.90787 0.56443 0.54931
 Zr167 Zr 0.99849 0.54904 0.54184
 O168 O 0.99757 0.54275 0.59292
 O169 O 1.00064 0.61280 0.54492
 Zr170 Zr 1.00052 0.44927 0.54078
 O171 O 0.99800 0.45146 0.59216
 O172 O 1.00472 0.38545 0.54166
 O173 O 1.03598 0.49964 0.54742
 O174 O 0.96395 0.49863 0.54763
 O175 O 0.94271 0.57608 0.44728
 O176 O 0.89745 0.53629 0.47345
 C177 C 0.90668 0.56634 0.45435
 O178 O 1.05310 0.42996 0.44139
 O179 O 1.09929 0.46568 0.47062
 C180 C 1.08936 0.43834 0.44924
 O181 O 0.94503 0.42414 0.44680
 O182 O 0.89827 0.46112 0.47430
 C183 C 0.90868 0.43215 0.45458
 O184 O 1.05044 0.57175 0.44237
 O185 O 1.09808 0.53733 0.47126
 C186 C 1.08703 0.56428 0.44990
 Zr187 Zr 0.99696 0.55008 0.46030
 O188 O 0.99423 0.54315 0.40931
 O189 O 0.99694 0.61365 0.45520
 Zr190 Zr 0.99877 0.45086 0.45923
 O191 O 0.99346 0.45722 0.40817
 O192 O 1.00148 0.38761 0.45263
 Zr193 Zr 1.05972 0.50068 0.50012
 Zr194 Zr 0.93774 0.49909 0.50115
 O195 O 0.96180 0.50007 0.45409
 O196 O 1.03432 0.50109 0.45308
 O197 O 0.96226 0.55755 0.50147
 O198 O 1.03442 0.44266 0.49962
 O199 O 1.03233 0.55795 0.50089
 O200 O 0.96448 0.44122 0.50030
 H201 H 0.94624 0.49828 0.56678
 H202 H 1.05175 0.41843 0.49938
 H203 H 0.94305 0.49999 0.43547
 H204 H 1.04900 0.58249 0.50113
 H205 H 0.98497 0.37481 0.52604
 H206 H 1.00610 0.37554 0.47425
 H207 H 1.01858 0.46863 0.39995
 H208 H 0.99297 0.57080 0.40018
 H209 H 1.00476 0.62516 0.47640
 H210 H 0.98260 0.62365 0.52799
 H211 H 0.99689 0.57052 0.60190
 H212 H 1.02083 0.46757 0.59991
 O213 O 0.92814 0.44746 -0.05993
 O214 O 0.96205 0.39966 -0.03033
 C215 C 0.93540 0.41037 -0.05183
 O216 O 1.07391 0.55393 -0.05699
 O217 O 1.03794 0.60225 -0.03000
 C218 C 1.06630 0.59114 -0.04965
 O219 O 1.06709 0.44446 -0.06017
 O220 O 1.03311 0.39792 -0.02999
 C221 C 1.05952 0.40769 -0.05183
 O222 O 0.92643 0.55770 -0.05598
 O223 O 0.96413 0.60439 -0.02876
 C224 C 0.93515 0.59451 -0.04830
 Zr225 Zr 0.95084 0.50222 -0.04270
 O226 O 0.95711 0.50581 -0.09383
 O227 O 0.88860 0.50195 -0.04909
 Zr228 Zr 1.04847 0.49977 -0.04171
 O229 O 1.04349 0.50160 -0.09290
 O230 O 1.11107 0.49474 -0.04325
 O231 O 0.99894 0.46376 -0.04842
 O232 O 1.00040 0.53744 -0.04837
 O233 O 0.92699 0.55982 0.05364
 O234 O 0.96670 0.60461 0.02633
 C235 C 0.93825 0.59607 0.04643
 O236 O 1.06724 0.44471 0.05752
 O237 O 1.03210 0.39809 0.02802
 C238 C 1.05903 0.40794 0.04943
 O239 O 1.07486 0.55452 0.05318
 O240 O 1.03894 0.60259 0.02553
 C241 C 1.06723 0.59168 0.04552
 O242 O 0.92786 0.44884 0.05719
 O243 O 0.96145 0.40045 0.02804
 C244 C 0.93508 0.41158 0.04953
 Zr245 Zr 0.94965 0.50324 0.03877
 O246 O 0.95448 0.50521 0.08996
 O247 O 0.88688 0.50196 0.04003
 Zr248 Zr 1.04762 0.50034 0.03985
 O249 O 1.04155 0.50498 0.09096
 O250 O 1.10980 0.49701 0.04627
 Zr251 Zr 0.99792 0.43904 -0.00119
 Zr252 Zr 1.00080 0.56334 -0.00173
 O253 O 0.99961 0.53810 0.04514
 O254 O 0.99775 0.46470 0.04583
 O255 O 0.94296 0.53901 -0.00221
 O256 O 1.05508 0.46451 -0.00078
 O257 O 0.94184 0.46751 -0.00181
 O258 O 1.05728 0.53574 -0.00102
 H259 H 1.00062 0.55590 -0.06731
 H260 H 1.07871 0.44662 -0.00079
 H261 H 1.00038 0.55662 0.06406
 H262 H 0.91747 0.45092 -0.00179
 H263 H 1.12198 0.51350 -0.02681
 H264 H 1.12141 0.49133 0.02477
 H265 H 1.02872 0.48002 0.09883
 H266 H 0.92699 0.50664 0.09831
 H267 H 0.87698 0.52209 0.02416
 H268 H 0.87683 0.49922 -0.02729
 H269 H 0.96825 0.47982 -0.10154
 H270 H 1.07094 0.50116 -0.10142
 O271 O 0.56818 0.94519 0.55665
 O272 O 0.53266 0.89844 0.52760
 C273 C 0.55982 0.90837 0.54881
 O274 O 0.42677 1.06011 0.55309
 O275 O 0.46696 1.10481 0.52617
 C276 C 0.43835 1.09634 0.54614
 O277 O 0.42860 0.94926 0.55747
 O278 O 0.46197 0.90078 0.52826
 C279 C 0.43573 0.91198 0.54984
 O280 O 0.57570 1.05503 0.55200
 O281 O 0.53912 1.10298 0.52481
 C282 C 0.56777 1.09217 0.54450
 Zr283 Zr 0.54837 1.00079 0.53912
 O284 O 0.54335 1.00570 0.59029
 O285 O 0.61065 0.99756 0.54487
 Zr286 Zr 0.45058 1.00372 0.53928
 O287 O 0.45823 1.00554 0.59022
 O288 O 0.38812 1.00592 0.54432
 O289 O 0.49867 0.96509 0.54576
 O290 O 0.50049 1.03868 0.54489
 O291 O 0.57308 1.05421 0.44198
 O292 O 0.53833 1.10257 0.47007
 C293 C 0.56606 1.09140 0.44983
 O294 O 0.42742 0.94760 0.44041
 O295 O 0.46172 0.89994 0.46987
 C296 C 0.43487 0.91054 0.44849
 O297 O 0.42687 1.05798 0.44314
 O298 O 0.46412 1.10458 0.47093
 C299 C 0.43536 1.09473 0.45117
 O300 O 0.56665 0.94448 0.43934
 O301 O 0.53265 0.89811 0.46964
 C302 C 0.55900 0.90776 0.44775
 Zr303 Zr 0.54795 0.99998 0.45754
 O304 O 0.54546 1.00439 0.40622
 O305 O 0.61054 0.99458 0.45636
 Zr306 Zr 0.44992 1.00238 0.45779
 O307 O 0.45236 1.00636 0.40646
 O308 O 0.38719 1.00083 0.45631
 Zr309 Zr 0.49799 0.93937 0.49868
 Zr310 Zr 0.50084 1.06356 0.49787
 O311 O 0.49961 1.03734 0.45136
 O312 O 0.49811 0.96405 0.45137
 O313 O 0.55736 1.03602 0.49806
 O314 O 0.44192 0.96777 0.49880
 O315 O 0.55518 0.96484 0.49849
 O316 O 0.44302 1.03934 0.49824
 H317 H 0.50141 1.05738 0.56369
 H318 H 0.41776 0.95090 0.49881
 H319 H 0.49976 1.05565 0.43233
 H320 H 0.57877 0.94690 0.49834
 H321 H 0.37631 0.99197 0.52542
 H322 H 0.37749 1.01836 0.47408
 H323 H 0.46306 0.98054 0.39805
 H324 H 0.53101 0.98062 0.39783
 H325 H 0.62154 1.01435 0.47199
 H326 H 0.62191 0.99108 0.52339
 H327 H 0.53147 0.98044 0.59851
 H328 H 0.43126 1.00773 0.59952
 O329 O 1.03995 0.90639 0.45574
 O330 O 1.02293 0.95560 0.41913
 C331 C 1.03739 0.92033 0.42644
 O332 O 0.90763 0.95952 0.54368
 O333 O 0.95404 0.97770 0.58169
 C334 C 0.91995 0.96261 0.57338
 O335 O 0.91189 0.95653 0.45459
 O336 O 0.95894 0.97744 0.41845
 C337 C 0.92529 0.96054 0.42544
 O338 O 1.04215 0.90668 0.54529
 O339 O 1.02064 0.95328 0.58247
 C340 C 1.03778 0.91943 0.57475
 Zr341 Zr 1.02877 0.93349 0.50075
 O342 O 1.00547 0.87427 0.50313
 O343 O 1.08694 0.90937 0.49809
 Zr344 Zr 0.93621 0.97080 0.49962
 O345 O 0.91175 0.91213 0.50191
 O346 O 0.87851 0.99591 0.49517
 O347 O 0.98027 0.94486 0.47093
 O348 O 0.97919 0.94433 0.52843
 O349 O 1.09141 1.03720 0.54918
 O350 O 1.04183 1.01803 0.58389
 C351 C 1.07649 1.03301 0.57797
 O352 O 0.96477 1.09392 0.45659
 O353 O 0.98271 1.04560 0.41953
 C354 C 0.96808 1.08074 0.42711
 O355 O 0.95788 1.09003 0.54581
 O356 O 0.97664 1.04170 0.58268
 C357 C 0.96076 1.07624 0.57510
 O358 O 1.09109 1.04337 0.45895
 O359 O 1.04566 1.02273 0.42082
 C360 C 1.07864 1.04002 0.42927
 Zr361 Zr 1.06492 1.02754 0.50309
 O362 O 1.08477 1.08793 0.50577
 O363 O 1.12365 1.00474 0.50086
 Zr364 Zr 0.97250 1.06449 0.50111
 O365 O 0.99497 1.12388 0.50500
 O366 O 0.91411 1.08780 0.49660
 Zr367 Zr 1.00166 0.99969 0.45202
 Zr368 Zr 0.99921 0.99803 0.55012
 O369 O 1.02043 1.05255 0.53072
 O370 O 1.02224 1.05380 0.47305
 O371 O 1.05353 0.97697 0.53118
 O372 O 0.94797 1.02077 0.47170
 O373 O 1.05455 0.97843 0.47357
 O374 O 0.94609 1.02017 0.52945
 H375 H 0.97072 0.92163 0.54241
 H376 H 0.92637 1.02944 0.45682
 H377 H 1.02824 1.07489 0.54541
 H378 H 1.07709 0.97039 0.45958
 H379 H 0.87343 1.01251 0.51471
 H380 H 0.89823 1.07669 0.51461
 H381 H 1.01904 1.12518 0.49140
 H382 H 1.11415 1.08667 0.50622
 H383 H 1.12725 0.98574 0.51918
 H384 H 1.10282 0.92205 0.51555
 H385 H 0.98880 0.86998 0.48361
 H386 H 0.92615 0.89510 0.48609
 O387 O 0.41049 0.46070 -0.04584
 O388 O 0.45844 0.48002 -0.08172
 C389 C 0.42393 0.46470 -0.07499
 O390 O 0.46209 0.59125 0.04670
 O391 O 0.47791 0.54150 0.08326
 C392 C 0.46409 0.57708 0.07595
 O393 O 0.45853 0.59065 -0.04294
 O394 O 0.48062 0.54442 -0.08019
 C395 C 0.46311 0.57804 -0.07243
 O396 O 0.41041 0.45408 0.04315
 O397 O 0.45559 0.47449 0.08141
 C398 C 0.42261 0.45735 0.07284
 Zr399 Zr 0.43705 0.46990 -0.00062
 O400 O 0.37856 0.49331 0.00214
 O401 O 0.41434 0.41070 -0.00564
 Zr402 Zr 0.47247 0.56408 0.00168
 O403 O 0.41475 0.58933 0.00425
 O404 O 0.49836 0.62210 0.00137
 O405 O 0.44794 0.52052 -0.02872
 O406 O 0.44684 0.51905 0.02881
 O407 O 0.53880 0.40449 0.04555
 O408 O 0.51866 0.45173 0.08269
 C409 C 0.53440 0.41712 0.07506
 O410 O 0.59346 0.53989 -0.04110
 O411 O 0.54740 0.52066 -0.07918
 C412 C 0.58117 0.53648 -0.07084
 O413 O 0.58944 0.54222 0.04901
 O414 O 0.54136 0.51951 0.08383
 C415 C 0.57482 0.53691 0.07776
 O416 O 0.54550 0.40877 -0.04371
 O417 O 0.52522 0.45651 -0.08052
 C418 C 0.54208 0.42246 -0.07300
 Zr419 Zr 0.52969 0.43351 0.00102
 O420 O 0.58788 0.40974 0.00544
 O421 O 0.50702 0.37426 -0.00397
 Zr422 Zr 0.56517 0.52790 0.00314
 O423 O 0.62327 0.50377 0.00742
 O424 O 0.58797 0.58729 0.00181
 Zr425 Zr 0.50227 0.49981 -0.04786
 Zr426 Zr 0.49963 0.49770 0.05026
 O427 O 0.55369 0.47745 0.03063
 O428 O 0.55570 0.47845 -0.02698
 O429 O 0.47977 0.44337 0.02917
 O430 O 0.52197 0.55367 -0.02605
 O431 O 0.48159 0.44511 -0.02844
 O432 O 0.52065 0.55284 0.03175
 H433 H 0.42429 0.52707 0.04280
 H434 H 0.53011 0.57656 -0.03997
 H435 H 0.57540 0.46897 0.04547
 H436 H 0.47394 0.42292 -0.04335
 H437 H 0.47606 0.64171 0.00118
 H438 H 0.57094 0.60414 0.01593
 H439 H 0.62857 0.48743 -0.01222
 H440 H 0.60450 0.42321 -0.01101
 H441 H 0.48907 0.36923 0.01451
 H442 H 0.42623 0.39393 0.01176
 H443 H 0.37453 0.51180 -0.01645
 H444 H 0.39820 0.57539 -0.01212
 C445 C 0.31408 1.16329 0.13333
 C446 C 0.33291 1.19728 0.14640
 C447 C 0.31618 1.21688 0.17300
 C448 C 0.27839 1.20635 0.18473
 C449 C 0.25915 1.17252 0.17069
 C450 C 0.27764 1.15007 0.14562
 C451 C 0.33437 1.13975 0.10774
 C452 C 0.31856 1.10268 0.09727
 C453 C 0.34090 1.07812 0.07570
 C454 C 0.37821 1.09145 0.06455
 C455 C 0.39114 1.13049 0.07314
 C456 C 0.37051 1.15380 0.09562
 C457 C 0.26144 1.11397 0.13329
 C458 C 0.28180 1.09042 0.10998
 C459 C 0.36887 1.21055 0.13328
 C460 C 0.38695 1.18962 0.10781
 H461 H 0.23340 1.10313 0.14250
 H462 H 0.26886 1.06214 0.10216
 H463 H 0.38329 1.23720 0.14293
 H464 H 0.41497 1.20058 0.09859
 H465 H 0.33344 1.24009 0.18482
 H466 H 0.23094 1.16255 0.18018
 H467 H 0.33054 1.04824 0.06925
 H468 H 0.41927 1.14162 0.06424
 C469 C 0.81350 0.66412 0.63279
 C470 C 0.83200 0.69868 0.64523
 C471 C 0.81527 0.71868 0.67166
 C472 C 0.77793 0.70762 0.68404
 C473 C 0.75896 0.67331 0.67052
 C474 C 0.77737 0.65070 0.64552
 C475 C 0.83389 0.64019 0.60748
 C476 C 0.81835 0.60275 0.59760
 C477 C 0.84076 0.57794 0.57627
 C478 C 0.87794 0.59128 0.56487
 C479 C 0.89070 0.63052 0.57298
 C480 C 0.86989 0.65424 0.59509
 C481 C 0.76145 0.61418 0.63379
 C482 C 0.78181 0.59039 0.61065
 C483 C 0.86777 0.71198 0.63178
 C484 C 0.88602 0.69053 0.60665
 H485 H 0.73363 0.60320 0.64335
 H486 H 0.76909 0.56182 0.60328
 H487 H 0.88196 0.73901 0.64094
 H488 H 0.91391 0.70151 0.59721
 H489 H 0.83238 0.74232 0.68306
 H490 H 0.73110 0.66301 0.68047
 H491 H 0.83057 0.54787 0.57021
 H492 H 0.91879 0.64157 0.56393
 C493 C 0.68944 0.83787 0.13128
 C494 C 0.71732 0.85579 0.15202
 C495 C 0.73474 0.83253 0.17695
 C496 C 0.72369 0.79171 0.18200
 C497 C 0.69651 0.77425 0.16002
 C498 C 0.67937 0.79702 0.13478
 C499 C 0.66871 0.86288 0.10661
 C500 C 0.63945 0.84513 0.08704
 C501 C 0.61717 0.86953 0.06593
 C502 C 0.62319 0.91161 0.06459
 C503 C 0.65403 0.92885 0.08311
 C504 C 0.67677 0.90447 0.10447
 C505 C 0.65097 0.78011 0.11378
 C506 C 0.63141 0.80372 0.09031
 C507 C 0.72585 0.89711 0.14830
 C508 C 0.70588 0.92102 0.12505
 H509 H 0.64305 0.74857 0.11607
 H510 H 0.60893 0.78969 0.07523
 H511 H 0.74741 0.91139 0.16411
 H512 H 0.71262 0.95293 0.12374
 H513 H 0.75544 0.84699 0.19340
 H514 H 0.68751 0.74337 0.16277
 H515 H 0.59332 0.85616 0.05185
 H516 H 0.65836 0.96126 0.08265
 C517 C 1.18923 0.33801 0.63160
 C518 C 1.21764 0.35573 0.65196
 C519 C 1.23532 0.33237 0.67672
 C520 C 1.22400 0.29167 0.68199
 C521 C 1.19627 0.27440 0.66038
 C522 C 1.17888 0.29726 0.63529
 C523 C 1.16826 0.36315 0.60714
 C524 C 1.13853 0.34560 0.58794
 C525 C 1.11612 0.37012 0.56700
 C526 C 1.12248 0.41214 0.56547
 C527 C 1.15373 0.42918 0.58365
 C528 C 1.17661 0.40467 0.60482
 C529 C 1.14997 0.28055 0.61466
 C530 C 1.13020 0.30427 0.59138
 C531 C 1.22643 0.39698 0.64807
 C532 C 1.20623 0.42100 0.62503
 H533 H 1.14182 0.24908 0.61710
 H534 H 1.10736 0.29040 0.57658
 H535 H 1.24839 0.41111 0.66359
 H536 H 1.21321 0.45285 0.62358
 H537 H 1.25642 0.34669 0.69291
 H538 H 1.18701 0.24363 0.66334
 H539 H 1.09198 0.35688 0.55318
 H540 H 1.15835 0.46154 0.58303
 C541 C 0.67780 1.15827 -0.13934
 C542 C 0.71674 1.14805 -0.14803
 C543 C 0.73551 1.17024 -0.17293
 C544 C 0.71417 1.20023 -0.19037
 C545 C 0.67387 1.20651 -0.18294
 C546 C 0.65666 1.18818 -0.15622
 C547 C 0.65794 1.13627 -0.11296
 C548 C 0.61991 1.14857 -0.10361
 C549 C 0.60025 1.12699 -0.07985
 C550 C 0.61583 1.09041 -0.06758
 C551 C 0.65488 1.07890 -0.07603
 C552 C 0.67647 1.10255 -0.09856
 C553 C 0.61857 1.19950 -0.14611
 C554 C 0.60089 1.18071 -0.11960
 C555 C 0.73547 1.11554 -0.13192
 C556 C 0.71539 1.09266 -0.10816
 H557 H 0.60245 1.22328 -0.15863
 H558 H 0.57137 1.19020 -0.11249
 H559 H 0.76546 1.10698 -0.13838
 H560 H 0.73046 1.06704 -0.09727
 H561 H 0.76600 1.16349 -0.17919
 H562 H 0.65590 1.22730 -0.19707
 H563 H 0.57094 1.13727 -0.07279
 H564 H 0.66747 1.05116 -0.06648
 C565 C 1.17744 0.65799 0.36048
 C566 C 1.21654 0.64802 0.35206
 C567 C 1.23533 0.67019 0.32716
 C568 C 1.21386 0.69983 0.30944
 C569 C 1.17341 0.70570 0.31651
 C570 C 1.15616 0.68750 0.34327
 C571 C 1.15762 0.63618 0.38697
 C572 C 1.11950 0.64838 0.39614
 C573 C 1.09992 0.62702 0.42007
 C574 C 1.11560 0.59060 0.43258
 C575 C 1.15472 0.57920 0.42429
 C576 C 1.17629 0.60274 0.40167
 C577 C 1.11794 0.69867 0.35316
 C578 C 1.10031 0.68015 0.37982
 C579 C 1.23541 0.61584 0.36848
 C580 C 1.21534 0.59304 0.39230
 H581 H 1.10172 0.72217 0.34039
 H582 H 1.07071 0.68955 0.38678
 H583 H 1.26552 0.60747 0.36223
 H584 H 1.23052 0.56765 0.40342
 H585 H 1.26596 0.66374 0.32117
 H586 H 1.15540 0.72622 0.30217
 H587 H 1.07056 0.63729 0.42701
 H588 H 1.16741 0.55161 0.43404
 C589 C 0.31973 0.83801 -0.13532
 C590 C 0.28149 0.84895 -0.14566
 C591 C 0.26369 0.82712 -0.17134
 C592 C 0.28552 0.79702 -0.18810
 C593 C 0.32539 0.79033 -0.17922
 C594 C 0.34136 0.80797 -0.15152
 C595 C 0.33855 0.85967 -0.10811
 C596 C 0.37582 0.84670 -0.09711
 C597 C 0.39483 0.86840 -0.07286
 C598 C 0.37976 0.90593 -0.06227
 C599 C 0.34132 0.91798 -0.07215
 C600 C 0.32010 0.89410 -0.09488
 C601 C 0.37864 0.79592 -0.13975
 C602 C 0.39509 0.81419 -0.11230
 C603 C 0.26254 0.88189 -0.13044
 C604 C 0.28189 0.90467 -0.10607
 H605 H 0.39507 0.77199 -0.15171
 H606 H 0.42405 0.80420 -0.10396
 H607 H 0.23308 0.89100 -0.13818
 H608 H 0.26691 0.93083 -0.09605
 H609 H 0.23362 0.83435 -0.17878
 H610 H 0.34388 0.76975 -0.19297
 H611 H 0.42377 0.85804 -0.06469
 H612 H 0.32921 0.94655 -0.06391
 C613 C 0.82014 0.33835 0.36462
 C614 C 0.78183 0.34922 0.35440
 C615 C 0.76414 0.32762 0.32854
 C616 C 0.78617 0.29792 0.31149
 C617 C 0.82618 0.29161 0.32013
 C618 C 0.84200 0.30883 0.34805
 C619 C 0.83870 0.35948 0.39222
 C620 C 0.87586 0.34629 0.40329
 C621 C 0.89455 0.36741 0.42804
 C622 C 0.87951 0.40486 0.43888
 C623 C 0.84115 0.41710 0.42889
 C624 C 0.82009 0.39359 0.40582
 C625 C 0.87928 0.29669 0.35979
 C626 C 0.89538 0.31425 0.38767
 C627 C 0.76268 0.38178 0.36998
 C628 C 0.78189 0.40424 0.39463
 H629 H 0.89589 0.27313 0.34753
 H630 H 0.92429 0.30413 0.39604
 H631 H 0.73318 0.39085 0.36232
 H632 H 0.76677 0.43015 0.40492
 H633 H 0.73395 0.33460 0.32128
 H634 H 0.84478 0.27137 0.30616
 H635 H 0.92335 0.35676 0.43633
 H636 H 0.82900 0.44556 0.43732
 C637 C 1.15598 0.31643 0.13634
 C638 C 1.14509 0.27826 0.14788
 C639 C 1.16806 0.26018 0.17285
 C640 C 1.19938 0.28188 0.18783
 C641 C 1.20609 0.32193 0.17790
 C642 C 1.18721 0.33783 0.15070
 C643 C 1.13302 0.33561 0.10995
 C644 C 1.14590 0.37266 0.09770
 C645 C 1.12340 0.39197 0.07407
 C646 C 1.08544 0.37779 0.06535
 C647 C 1.07319 0.33954 0.07661
 C648 C 1.09773 0.31778 0.09868
 C649 C 1.19904 0.37497 0.13778
 C650 C 1.17944 0.39153 0.11098
 C651 C 1.11104 0.25981 0.13462
 C652 C 1.08727 0.27964 0.11107
 H653 H 1.22381 0.39120 0.14833
 H654 H 1.18935 0.42035 0.10167
 H655 H 1.10193 0.23044 0.14332
 H656 H 1.06045 0.26506 0.10260
 H657 H 1.16067 0.23019 0.18130
 H658 H 1.22706 0.34084 0.19070
 H659 H 1.13398 0.42055 0.06472
 H660 H 1.04431 0.32801 0.06977
 C661 C 0.65575 0.81738 0.63692
 C662 C 0.68640 0.83907 0.65184
 C663 C 0.70505 0.82308 0.67911
 C664 C 0.69889 0.78274 0.68850
 C665 C 0.66808 0.76080 0.67304
 C666 C 0.64521 0.77891 0.64800
 C667 C 0.63314 0.83646 0.61027
 C668 C 0.59833 0.81828 0.59839
 C669 C 0.57404 0.83990 0.57602
 C670 C 0.58618 0.87831 0.56500
 C671 C 0.62385 0.89278 0.57432
 C672 C 0.64592 0.87369 0.59831
 C673 C 0.61166 0.76015 0.63417
 C674 C 0.58808 0.77990 0.61043
 C675 C 0.69803 0.87647 0.63928
 C676 C 0.67890 0.89291 0.61221
 H677 H 0.60279 0.73054 0.64253
 H678 H 0.56164 0.76504 0.60150
 H679 H 0.72237 0.89293 0.65026
 H680 H 0.68870 0.92189 0.60314
 H681 H 0.72570 0.84205 0.69222
 H682 H 0.66110 0.73053 0.68106
 H683 H 0.54543 0.82810 0.56874
 H684 H 0.63446 0.92144 0.56515
 C685 C 1.16633 0.68380 -0.13363
 C686 C 1.19958 0.66376 -0.14624
 C687 C 1.21976 0.68050 -0.17246
 C688 C 1.21005 0.71919 -0.18451
 C689 C 1.17700 0.73962 -0.17083
 C690 C 1.15432 0.72138 -0.14601
 C691 C 1.14235 0.66369 -0.10839
 C692 C 1.10629 0.68102 -0.09821
 C693 C 1.08145 0.65909 -0.07679
 C694 C 1.09341 0.62056 -0.06553
 C695 C 1.13138 0.60594 -0.07405
 C696 C 1.15504 0.62630 -0.09625
 C697 C 1.11912 0.73897 -0.13405
 C698 C 1.09530 0.71894 -0.11098
 C699 C 1.21148 0.62654 -0.13309
 C700 C 1.18999 0.60849 -0.10806
 H701 H 1.10923 0.76793 -0.14335
 H702 H 1.06781 0.73307 -0.10340
 H703 H 1.23747 0.61109 -0.14238
 H704 H 1.19992 0.57950 -0.09883
 H705 H 1.24260 0.66250 -0.18388
 H706 H 1.16775 0.76861 -0.18048
 H707 H 1.05242 0.67078 -0.07047
 H708 H 1.14148 0.57682 -0.06515
 C709 C 0.66731 1.18435 0.36694
 C710 C 0.70092 1.16451 0.35474
 C711 C 0.72147 1.18136 0.32872
 C712 C 0.71141 1.21977 0.31628
 C713 C 0.67808 1.24004 0.32965
 C714 C 0.65526 1.22181 0.35438
 C715 C 0.64296 1.16409 0.39189
 C716 C 0.60670 1.18133 0.40173
 C717 C 0.58161 1.15934 0.42290
 C718 C 0.59340 1.12077 0.43415
 C719 C 0.63143 1.10611 0.42588
 C720 C 0.65550 1.12666 0.40405
 C721 C 0.61983 1.23927 0.36598
 C722 C 0.59578 1.21921 0.38886
 C723 C 0.71270 1.12730 0.36799
 C724 C 0.69074 1.10903 0.39264
 H725 H 0.60993 1.26816 0.35654
 H726 H 0.56814 1.23324 0.39618
 H727 H 0.73893 1.11198 0.35900
 H728 H 0.70057 1.08002 0.40191
 H729 H 0.74465 1.16353 0.31760
 H730 H 0.66865 1.26884 0.31977
 H731 H 0.55250 1.17101 0.42899
 H732 H 0.64133 1.07691 0.43476
 C733 C 0.84919 0.69129 0.13549
 C734 C 0.86729 0.70263 0.16480
 C735 C 0.84371 0.71734 0.19022
 C736 C 0.80206 0.72120 0.18667
 C737 C 0.78504 0.71238 0.15608
 C738 C 0.80816 0.69606 0.13087
 C739 C 0.87343 0.67228 0.10977
 C740 C 0.85477 0.65768 0.08158
 C741 C 0.87720 0.63555 0.05893
 C742 C 0.91799 0.62869 0.06420
 C743 C 0.93668 0.64549 0.09160
 C744 C 0.91437 0.66673 0.11482
 C745 C 0.79088 0.68284 0.10161
 C746 C 0.81369 0.66362 0.07755
 C747 C 0.90851 0.69773 0.16855
 C748 C 0.93167 0.68029 0.14393
 H749 H 0.75922 0.68619 0.09772
 H750 H 0.79892 0.65266 0.05587
 H751 H 0.92289 0.70668 0.19100
 H752 H 0.96318 0.67623 0.14816
 H753 H 0.85809 0.72495 0.21295
 H754 H 0.75354 0.71609 0.15229
 H755 H 0.86265 0.62173 0.03820
 H756 H 0.96781 0.63912 0.09614
 C757 C 0.34982 1.19157 0.63560
 C758 C 0.36786 1.20227 0.66509
 C759 C 0.34431 1.21697 0.69054
 C760 C 0.30275 1.22148 0.68682
 C761 C 0.28581 1.21329 0.65609
 C762 C 0.30888 1.19695 0.63085
 C763 C 0.37396 1.17254 0.60983
 C764 C 0.35529 1.15852 0.58144
 C765 C 0.37759 1.13638 0.55870
 C766 C 0.41828 1.12898 0.56405
 C767 C 0.43700 1.14522 0.59167
 C768 C 0.41481 1.16642 0.61498
 C769 C 0.29161 1.18430 0.60142
 C770 C 0.31432 1.16505 0.57730
 C771 C 0.40900 1.19677 0.66896
 C772 C 0.43209 1.17937 0.64428
 H773 H 0.26002 1.18812 0.59743
 H774 H 0.29953 1.15454 0.55548
 H775 H 0.42336 1.20523 0.69154
 H776 H 0.46353 1.17486 0.64859
 H777 H 0.35862 1.22403 0.71342
 H778 H 0.25437 1.21742 0.65221
 H779 H 0.36300 1.12299 0.53781
 H780 H 0.46803 1.13842 0.59627
 C781 C 0.83467 0.31511 -0.13435
 C782 C 0.84690 0.27754 -0.14657
 C783 C 0.82392 0.25869 -0.17111
 C784 C 0.79029 0.27850 -0.18466
 C785 C 0.78018 0.31707 -0.17260
 C786 C 0.80077 0.33445 -0.14672
 C787 C 0.85913 0.33606 -0.10967
 C788 C 0.84635 0.37358 -0.09789
 C789 C 0.87041 0.39475 -0.07630
 C790 C 0.90864 0.38063 -0.06787
 C791 C 0.92077 0.34201 -0.07874
 C792 C 0.89569 0.31939 -0.09970
 C793 C 0.78875 0.37175 -0.13385
 C794 C 0.81080 0.39066 -0.10941
 C795 C 0.88267 0.26066 -0.13485
 C796 C 0.90682 0.28139 -0.11220
 H797 H 0.76228 0.38666 -0.14299
 H798 H 0.80078 0.41972 -0.10042
 H799 H 0.89274 0.23172 -0.14401
 H800 H 0.93469 0.26778 -0.10477
 H801 H 0.83347 0.22984 -0.18079
 H802 H 0.75700 0.33478 -0.18398
 H803 H 0.86022 0.42392 -0.06761
 H804 H 0.95003 0.33074 -0.07243
 C805 C 0.33392 0.81485 0.36641
 C806 C 0.34644 0.77756 0.35386
 C807 C 0.32346 0.75872 0.32932
 C808 C 0.28949 0.77826 0.31610
 C809 C 0.27891 0.81648 0.32860
 C810 C 0.29963 0.83388 0.35443
 C811 C 0.35849 0.83589 0.39098
 C812 C 0.34552 0.87323 0.40301
 C813 C 0.36969 0.89453 0.42446
 C814 C 0.40813 0.88068 0.43256
 C815 C 0.42045 0.84224 0.42144
 C816 C 0.39533 0.81953 0.40057
 C817 C 0.28742 0.87097 0.36758
 C818 C 0.30963 0.88998 0.39188
 C819 C 0.38252 0.76097 0.36520
 C820 C 0.40670 0.78176 0.38779
 H821 H 0.26067 0.88565 0.35875
 H822 H 0.29946 0.91889 0.40107
 H823 H 0.39280 0.73224 0.35578
 H824 H 0.43480 0.76838 0.39492
 H825 H 0.33333 0.73014 0.31933
 H826 H 0.25541 0.83400 0.31749
 H827 H 0.35939 0.92358 0.43331
 H828 H 0.44988 0.83120 0.42746
 C829 C 1.16085 1.13934 0.33888
 C830 C 1.18722 1.16798 0.35146
 C831 C 1.20453 1.19546 0.33059
 C832 C 1.19832 1.19314 0.29683
 C833 C 1.17128 1.16443 0.28448
 C834 C 1.15198 1.13776 0.30559
 C835 C 1.14190 1.11086 0.36115
 C836 C 1.11345 1.08368 0.34922
 C837 C 1.09351 1.05856 0.37122
 C838 C 1.10282 1.06037 0.40459
 C839 C 1.13317 1.08620 0.41550
 C840 C 1.15197 1.11212 0.39418
 C841 C 1.12421 1.10944 0.29424
 C842 C 1.10491 1.08313 0.31576
 C843 C 1.19649 1.16833 0.38467
 C844 C 1.17947 1.14043 0.40569
 H845 H 1.11700 1.10791 0.26860
 H846 H 1.08315 1.06227 0.30616
 H847 H 1.21727 1.19014 0.39441
 H848 H 1.18725 1.14156 0.43125
 H849 H 1.22432 1.21776 0.34083
 H850 H 1.16534 1.16255 0.25866
 H851 H 1.07025 1.03870 0.36261
 H852 H 1.14078 1.08811 0.44106
 C853 C 0.66318 0.63675 -0.16120
 C854 C 0.68949 0.66541 -0.14854
 C855 C 0.70621 0.69364 -0.16927
 C856 C 0.69959 0.69201 -0.20305
 C857 C 0.67262 0.66318 -0.21542
 C858 C 0.65382 0.63586 -0.19442
 C859 C 0.64470 0.60759 -0.13906
 C860 C 0.61611 0.58058 -0.15100
 C861 C 0.59636 0.55507 -0.12906
 C862 C 0.60600 0.55622 -0.09569
 C863 C 0.63672 0.58173 -0.08486
 C864 C 0.65524 0.60816 -0.10611
 C865 C 0.62602 0.60755 -0.20581
 C866 C 0.60711 0.58072 -0.18440
 C867 C 0.69926 0.66501 -0.11541
 C868 C 0.68279 0.63645 -0.09457
 H869 H 0.61840 0.60651 -0.23138
 H870 H 0.58526 0.56001 -0.19407
 H871 H 0.72002 0.68677 -0.10557
 H872 H 0.69097 0.63711 -0.06909
 H873 H 0.72587 0.71599 -0.15894
 H874 H 0.66632 0.66175 -0.24121
 H875 H 0.57282 0.53557 -0.13769
 H876 H 0.64462 0.58323 -0.05934
 C877 C 0.86129 1.16009 0.66357
 C878 C 0.85929 1.14873 0.69631
 C879 C 0.83184 1.16824 0.71650
 C880 C 0.80564 1.19757 0.70355
 C881 C 0.80622 1.20552 0.67005
 C882 C 0.83504 1.18868 0.65040
 C883 C 0.89081 1.14122 0.64241
 C884 C 0.89339 1.15412 0.61011
 C885 C 0.91995 1.13516 0.58961
 C886 C 0.94180 1.10122 0.60014
 C887 C 0.94022 1.08930 0.63293
 C888 C 0.91489 1.10979 0.65443
 C889 C 0.83845 1.20071 0.61794
 C890 C 0.86778 1.18419 0.59820
 C891 C 0.88489 1.11835 0.70803
 C892 C 0.91184 1.09872 0.68727
 H893 H 0.81859 1.22333 0.60786
 H894 H 0.86963 1.19410 0.57318
 H895 H 0.88360 1.10920 0.73326
 H896 H 0.93032 1.07470 0.69697
 H897 H 0.83115 1.16066 0.74207
 H898 H 0.78525 1.22638 0.65920
 H899 H 0.92106 1.14520 0.56457
 H900 H 0.95724 1.06343 0.64128
 C901 C 0.36337 0.66107 0.16410
 C902 C 0.36095 0.64962 0.19680
 C903 C 0.33310 0.66899 0.21684
 C904 C 0.30684 0.69828 0.20382
 C905 C 0.30794 0.70635 0.17030
 C906 C 0.33717 0.68963 0.15081
 C907 C 0.39330 0.64227 0.14309
 C908 C 0.39630 0.65522 0.11084
 C909 C 0.42328 0.63635 0.09048
 C910 C 0.44517 0.60240 0.10107
 C911 C 0.44304 0.59042 0.13387
 C912 C 0.41732 0.61086 0.15522
 C913 C 0.34103 0.70169 0.11837
 C914 C 0.37070 0.68526 0.09882
 C915 C 0.38652 0.61925 0.20862
 C916 C 0.41381 0.59973 0.18804
 H917 H 0.32124 0.72427 0.10814
 H918 H 0.37282 0.69525 0.07383
 H919 H 0.38494 0.61000 0.23381
 H920 H 0.43221 0.57573 0.19786
 H921 H 0.33211 0.66129 0.24238
 H922 H 0.28699 0.72713 0.15933
 H923 H 0.42462 0.64638 0.06545
 H924 H 0.45992 0.56453 0.14232
 C925 C 1.13981 0.83807 0.66360
 C926 C 1.16710 0.81059 0.65048
 C927 C 1.19624 0.79428 0.67039
 C928 C 1.19605 0.80147 0.70404
 C929 C 1.16894 0.82989 0.71689
 C930 C 1.14117 0.84896 0.69649
 C931 C 1.10963 0.85607 0.64229
 C932 C 1.08437 0.88640 0.65434
 C933 C 1.05829 0.90615 0.63277
 C934 C 1.05706 0.89447 0.59987
 C935 C 1.08012 0.86141 0.58932
 C936 C 1.10749 0.84336 0.60990
 C937 C 1.11447 0.87826 0.70819
 C938 C 1.08696 0.89719 0.68732
 C939 C 1.16418 0.79885 0.61787
 C940 C 1.13426 0.81444 0.59799
 H941 H 1.11527 0.88706 0.73353
 H942 H 1.06759 0.92037 0.69705
 H943 H 1.18483 0.77706 0.60780
 H944 H 1.13279 0.80469 0.57289
 H945 H 1.21771 0.77391 0.65969
 H946 H 1.16901 0.83690 0.74259
 H947 H 1.04045 0.93136 0.64116
 H948 H 1.07932 0.85154 0.56422
 C949 C 0.63729 0.33593 0.16386
 C950 C 0.63916 0.34719 0.19666
 C951 C 0.66752 0.32861 0.21694
 C952 C 0.69483 0.30033 0.20407
 C953 C 0.69438 0.29274 0.17043
 C954 C 0.66463 0.30854 0.15068
 C955 C 0.60658 0.35356 0.14268
 C956 C 0.60399 0.34058 0.11036
 C957 C 0.57621 0.35842 0.08986
 C958 C 0.55320 0.39162 0.10034
 C959 C 0.55490 0.40347 0.13324
 C960 C 0.58135 0.38392 0.15473
 C961 C 0.66120 0.29649 0.11816
 C962 C 0.63082 0.31170 0.09845
 C963 C 0.61240 0.37645 0.20838
 C964 C 0.58444 0.39502 0.18763
 H965 H 0.68185 0.27476 0.10799
 H966 H 0.62907 0.30170 0.07342
 H967 H 0.61353 0.38557 0.23364
 H968 H 0.56512 0.41821 0.19741
 H969 H 0.66795 0.33595 0.24257
 H970 H 0.71592 0.27253 0.15964
 H971 H 0.57519 0.34845 0.06479
 H972 H 0.53725 0.42881 0.14164
 C973 C 0.83856 0.86302 0.33586
 C974 C 0.84950 0.86047 0.30314
 C975 C 0.82909 0.83361 0.28274
 C976 C 0.79923 0.80827 0.29539
 C977 C 0.79135 0.80942 0.32885
 C978 C 0.80922 0.83789 0.34875
 C979 C 0.85880 0.89175 0.35733
 C980 C 0.84644 0.89493 0.38961
 C981 C 0.86628 0.92096 0.41030
 C982 C 0.90050 0.94166 0.40003
 C983 C 0.91217 0.93921 0.36727
 C984 C 0.89080 0.91450 0.34556
 C985 C 0.79789 0.84183 0.38128
 C986 C 0.81573 0.87054 0.40128
 C987 C 0.88061 0.88473 0.29169
 C988 C 0.90133 0.91086 0.31268
 H989 H 0.77483 0.82287 0.39123
 H990 H 0.80624 0.87282 0.42633
 H991 H 0.88947 0.88297 0.26647
 H992 H 0.92576 0.92827 0.30311
 H993 H 0.83682 0.83236 0.25726
 H994 H 0.77056 0.78859 0.33958
 H995 H 0.85627 0.92271 0.43524
 H996 H 0.93827 0.95516 0.35906
 C997 C 0.33788 0.36545 -0.16429
 C998 C 0.30865 0.34027 -0.15129
 C999 C 0.29125 0.31103 -0.17094
 C1000 C 0.29934 0.30924 -0.20440
 C1001 C 0.32919 0.33465 -0.21710
 C1002 C 0.34920 0.36218 -0.19688
 C1003 C 0.35763 0.39502 -0.14307
 C1004 C 0.38966 0.41769 -0.15487
 C1005 C 0.41072 0.44303 -0.13330
 C1006 C 0.39870 0.44633 -0.10062
 C1007 C 0.36426 0.42580 -0.09046
 C1008 C 0.34483 0.39901 -0.11095
 C1009 C 0.38030 0.38645 -0.20839
 C1010 C 0.40061 0.41324 -0.18761
 C1011 C 0.29692 0.34502 -0.11890
 C1012 C 0.31418 0.37453 -0.09921
 H1013 H 0.38951 0.38417 -0.23350
 H1014 H 0.42506 0.43056 -0.19725
 H1015 H 0.27393 0.32607 -0.10881
 H1016 H 0.30432 0.37735 -0.07429
 H1017 H 0.27058 0.29020 -0.16007
 H1018 H 0.33719 0.33296 -0.24250
 H1019 H 0.43699 0.45868 -0.14151
 H1020 H 0.35397 0.42807 -0.06562
 C1021 C 1.15625 0.31744 -0.14044
 C1022 C 1.14694 0.27829 -0.15085
 C1023 C 1.17042 0.26005 -0.17544
 C1024 C 1.20072 0.28235 -0.19109
 C1025 C 1.20554 0.32320 -0.18239
 C1026 C 1.18622 0.33956 -0.15562
 C1027 C 1.13327 0.33657 -0.11404
 C1028 C 1.14509 0.37441 -0.10260
 C1029 C 1.12305 0.39323 -0.07852
 C1030 C 1.08605 0.37785 -0.06846
 C1031 C 1.07480 0.33889 -0.07921
 C1032 C 1.09928 0.31758 -0.10166
 C1033 C 1.19668 0.37771 -0.14368
 C1034 C 1.17727 0.39429 -0.11689
 C1035 C 1.11408 0.25893 -0.13667
 C1036 C 1.09014 0.27857 -0.11319
 H1037 H 1.22045 0.39461 -0.15485
 H1038 H 1.18634 0.42378 -0.10825
 H1039 H 1.10607 0.22880 -0.14448
 H1040 H 1.06436 0.26304 -0.10393
 H1041 H 1.16441 0.22930 -0.18289
 H1042 H 1.22587 0.34230 -0.19555
 H1043 H 1.13322 0.42228 -0.06972
 H1044 H 1.04680 0.32626 -0.07151
 C1045 C 0.65604 0.81730 0.35960
 C1046 C 0.68637 0.83926 0.34475
 C1047 C 0.70577 0.82297 0.31799
 C1048 C 0.70060 0.78225 0.30899
 C1049 C 0.66996 0.76012 0.32434
 C1050 C 0.64645 0.77835 0.34890
 C1051 C 0.63294 0.83643 0.38593
 C1052 C 0.59863 0.81767 0.39794
 C1053 C 0.57408 0.83903 0.42029
 C1054 C 0.58553 0.87783 0.43128
 C1055 C 0.62276 0.89297 0.42159
 C1056 C 0.64496 0.87409 0.39763
 C1057 C 0.61326 0.75918 0.36273
 C1058 C 0.58926 0.77885 0.38615
 C1059 C 0.69706 0.87720 0.35697
 C1060 C 0.67749 0.89377 0.38369
 H1061 H 0.60505 0.72920 0.35469
 H1062 H 0.56323 0.76348 0.39513
 H1063 H 0.72111 0.89397 0.34607
 H1064 H 0.68671 0.92311 0.39254
 H1065 H 0.72634 0.84199 0.30502
 H1066 H 0.66369 0.72952 0.31664
 H1067 H 0.54587 0.82661 0.42770
 H1068 H 0.63301 0.92190 0.43058
 C1069 C 0.83918 0.68416 -0.13632
 C1070 C 0.84999 0.72228 -0.14799
 C1071 C 0.82755 0.73974 -0.17353
 C1072 C 0.79703 0.71738 -0.18897
 C1073 C 0.79078 0.67724 -0.17907
 C1074 C 0.80883 0.66205 -0.15123
 C1075 C 0.86132 0.66583 -0.10910
 C1076 C 0.84829 0.62898 -0.09654
 C1077 C 0.87023 0.61037 -0.07219
 C1078 C 0.90812 0.62473 -0.06339
 C1079 C 0.92036 0.66287 -0.07488
 C1080 C 0.89615 0.68415 -0.09743
 C1081 C 0.79688 0.62507 -0.13806
 C1082 C 0.81546 0.60945 -0.11040
 C1083 C 0.88339 0.74136 -0.13423
 C1084 C 0.90667 0.72215 -0.11005
 H1085 H 0.77272 0.60832 -0.14902
 H1086 H 0.80546 0.58076 -0.10090
 H1087 H 0.89244 0.77070 -0.14304
 H1088 H 0.93313 0.73710 -0.10125
 H1089 H 0.83462 0.76983 -0.18191
 H1090 H 0.77037 0.65797 -0.19214
 H1091 H 0.85969 0.58183 -0.06271
 H1092 H 0.94918 0.67454 -0.06801
 C1093 C 0.33829 1.18470 0.36418
 C1094 C 0.34928 1.22261 0.35217
 C1095 C 0.32668 1.24000 0.32670
 C1096 C 0.29578 1.21779 0.31166
 C1097 C 0.28915 1.17789 0.32199
 C1098 C 0.30747 1.16278 0.34974
 C1099 C 0.36081 1.16631 0.39116
 C1100 C 0.34782 1.12955 0.40392
 C1101 C 0.37020 1.11077 0.42792
 C1102 C 0.40828 1.12498 0.43625
 C1103 C 0.42050 1.16304 0.42460
 C1104 C 0.39601 1.18441 0.40231
 C1105 C 0.29546 1.12598 0.36319
 C1106 C 0.31454 1.11026 0.39058
 C1107 C 0.38307 1.24149 0.36544
 C1108 C 0.40660 1.22225 0.38944
 H1109 H 0.27097 1.10938 0.35259
 H1110 H 0.30455 1.08165 0.40026
 H1111 H 0.39224 1.27066 0.35637
 H1112 H 0.43334 1.23702 0.39786
 H1113 H 0.33403 1.26988 0.31798
 H1114 H 0.26846 1.15864 0.30920
 H1115 H 0.35976 1.08224 0.43750
 H1116 H 0.44950 1.17456 0.43111
 C1117 C 1.16634 0.68491 0.13043
 C1118 C 1.15342 0.72179 0.14350
 C1119 C 1.17561 0.73982 0.16890
 C1120 C 1.20910 0.71982 0.18247
 C1121 C 1.21990 0.68186 0.16958
 C1122 C 1.20011 0.66537 0.14286
 C1123 C 1.14269 0.66483 0.10475
 C1124 C 1.15608 0.62796 0.09210
 C1125 C 1.13259 0.60742 0.06962
 C1126 C 1.09427 0.62142 0.06128
 C1127 C 1.08163 0.65946 0.07303
 C1128 C 1.10614 0.68151 0.09479
 C1129 C 1.21278 0.62877 0.12912
 C1130 C 1.19153 0.61075 0.10374
 C1131 C 1.11775 0.73880 0.13172
 C1132 C 1.09431 0.71880 0.10818
 H1133 H 1.23916 0.61371 0.13828
 H1134 H 1.20202 0.58218 0.09412
 H1135 H 1.10717 0.76721 0.14154
 H1136 H 1.06642 0.73239 0.10078
 H1137 H 1.16554 0.76819 0.17914
 H1138 H 1.24300 0.66399 0.18089
 H1139 H 1.14304 0.57859 0.06043
 H1140 H 1.05223 0.67054 0.06694
 C1141 C 0.66596 1.18482 0.63024
 C1142 C 0.65306 1.22173 0.64327
 C1143 C 0.67508 1.23961 0.66883
 C1144 C 0.70827 1.21934 0.68265
 C1145 C 0.71878 1.18120 0.66997
 C1146 C 0.69938 1.16499 0.64298
 C1147 C 0.64265 1.16503 0.60422
 C1148 C 0.65619 1.12827 0.59147
 C1149 C 0.63301 1.10800 0.56864
 C1150 C 0.59472 1.12199 0.56021
 C1151 C 0.58195 1.15995 0.57204
 C1152 C 0.60627 1.18186 0.59403
 C1153 C 0.71216 1.12845 0.62920
 C1154 C 0.69136 1.11080 0.60342
 C1155 C 0.61762 1.23896 0.63122
 C1156 C 0.59438 1.21912 0.60745
 H1157 H 0.73831 1.11320 0.63860
 H1158 H 0.70193 1.08230 0.59374
 H1159 H 0.60704 1.26738 0.64101
 H1160 H 0.56662 1.23283 0.59986
 H1161 H 0.66518 1.26811 0.67895
 H1162 H 0.74156 1.16310 0.68150
 H1163 H 0.64359 1.07926 0.55937
 H1164 H 0.55258 1.17104 0.56586
 C1165 C 0.83656 0.31682 0.13386
 C1166 C 0.80273 0.33597 0.14632
 C1167 C 0.78244 0.31840 0.17216
 C1168 C 0.79307 0.27999 0.18430
 C1169 C 0.82670 0.26043 0.17072
 C1170 C 0.84915 0.27933 0.14605
 C1171 C 0.86048 0.33778 0.10898
 C1172 C 0.89677 0.32109 0.09865
 C1173 C 0.92122 0.34353 0.07724
 C1174 C 0.90881 0.38208 0.06632
 C1175 C 0.87088 0.39633 0.07534
 C1176 C 0.84739 0.37524 0.09726
 C1177 C 0.88472 0.26252 0.13409
 C1178 C 0.90826 0.28317 0.11116
 C1179 C 0.79043 0.37326 0.13353
 C1180 C 0.81204 0.39225 0.10903
 H1181 H 0.89507 0.23365 0.14321
 H1182 H 0.93595 0.26955 0.10349
 H1183 H 0.76405 0.38808 0.14275
 H1184 H 0.80178 0.42127 0.10010
 H1185 H 0.75908 0.33580 0.18345
 H1186 H 0.83657 0.23166 0.18039
 H1187 H 0.95024 0.33215 0.07057
 H1188 H 0.86044 0.42546 0.06673
 C1189 C 0.33736 0.81755 0.63447
 C1190 C 0.30398 0.83705 0.64738
 C1191 C 0.28378 0.81946 0.67322
 C1192 C 0.29382 0.78062 0.68480
 C1193 C 0.32703 0.76076 0.67084
 C1194 C 0.34955 0.77972 0.64622
 C1195 C 0.36120 0.83845 0.60953
 C1196 C 0.39715 0.82142 0.59878
 C1197 C 0.42159 0.84380 0.57732
 C1198 C 0.40945 0.88259 0.56673
 C1199 C 0.37178 0.89714 0.57612
 C1200 C 0.34838 0.87617 0.59814
 C1201 C 0.38475 0.76258 0.63384
 C1202 C 0.40830 0.78321 0.61090
 C1203 C 0.29197 0.87462 0.63496
 C1204 C 0.31343 0.89353 0.61034
 H1205 H 0.39480 0.73343 0.64263
 H1206 H 0.43572 0.76931 0.60290
 H1207 H 0.26591 0.88969 0.64452
 H1208 H 0.30339 0.92275 0.60167
 H1209 H 0.26080 0.83706 0.68483
 H1210 H 0.33648 0.73165 0.68012
 H1211 H 0.45040 0.83215 0.57032
 H1212 H 0.36148 0.92642 0.56772
 C1213 C 0.31433 1.16479 -0.13196
 C1214 C 0.27974 1.15036 -0.14690
 C1215 C 0.26231 1.17288 -0.17250
 C1216 C 0.28077 1.20828 -0.18449
 C1217 C 0.31660 1.22061 -0.16980
 C1218 C 0.33230 1.20040 -0.14279
 C1219 C 0.33374 1.14087 -0.10591
 C1220 C 0.36824 1.15583 -0.09126
 C1221 C 0.38828 1.13218 -0.06840
 C1222 C 0.37645 1.09219 -0.06175
 C1223 C 0.34066 1.07793 -0.07550
 C1224 C 0.31892 1.10260 -0.09757
 C1225 C 0.36659 1.21452 -0.12712
 C1226 C 0.38382 1.19300 -0.10137
 C1227 C 0.26438 1.11295 -0.13671
 C1228 C 0.28389 1.08929 -0.11289
 H1229 H 0.38043 1.24228 -0.13500
 H1230 H 0.41058 1.20470 -0.09022
 H1231 H 0.23774 1.10121 -0.14800
 H1232 H 0.27173 1.06006 -0.10677
 H1233 H 0.23565 1.16164 -0.18407
 H1234 H 0.33347 1.24517 -0.17989
 H1235 H 0.41540 1.14382 -0.05772
 H1236 H 0.33127 1.04725 -0.07079
 C1237 C 0.81426 0.66487 0.36801
 C1238 C 0.83250 0.70008 0.35669
 C1239 C 0.81683 0.71992 0.32953
 C1240 C 0.78063 0.70790 0.31528
 C1241 C 0.76194 0.67286 0.32771
 C1242 C 0.77943 0.65052 0.35340
 C1243 C 0.83363 0.64126 0.39425
 C1244 C 0.81862 0.60322 0.40302
 C1245 C 0.84037 0.57874 0.42521
 C1246 C 0.87630 0.59301 0.43873
 C1247 C 0.88823 0.63288 0.43174
 C1248 C 0.86826 0.65625 0.40866
 C1249 C 0.76386 0.61340 0.36404
 C1250 C 0.78340 0.58993 0.38797
 C1251 C 0.86696 0.71423 0.37209
 C1252 C 0.88408 0.69310 0.39809
 H1253 H 0.73705 0.60170 0.35300
 H1254 H 0.77109 0.56088 0.39443
 H1255 H 0.88097 0.74173 0.36383
 H1256 H 0.91096 0.70481 0.40904
 H1257 H 0.83392 0.74408 0.31904
 H1258 H 0.73501 0.66179 0.31643
 H1259 H 0.83086 0.54817 0.43022
 H1260 H 0.91540 0.64460 0.44227
 C1261 C 0.68108 1.15848 0.13859
 C1262 C 0.72000 1.14820 0.14761
 C1263 C 0.73896 1.17075 0.17240
 C1264 C 0.71776 1.20105 0.18948
 C1265 C 0.67742 1.20722 0.18184
 C1266 C 0.66010 1.18870 0.15512
 C1267 C 0.66097 1.13608 0.11239
 C1268 C 0.62297 1.14844 0.10271
 C1269 C 0.60303 1.12643 0.07920
 C1270 C 0.61818 1.08934 0.06772
 C1271 C 0.65720 1.07774 0.07643
 C1272 C 0.67916 1.10184 0.09860
 C1273 C 0.62203 1.20005 0.14471
 C1274 C 0.60419 1.18098 0.11825
 C1275 C 0.73844 1.11522 0.13201
 C1276 C 0.71807 1.09191 0.10849
 H1277 H 0.60606 1.22408 0.15695
 H1278 H 0.57469 1.19051 0.11089
 H1279 H 0.76840 1.10659 0.13872
 H1280 H 0.73288 1.06590 0.09806
 H1281 H 0.76943 1.16394 0.17892
 H1282 H 0.65941 1.22794 0.19587
 H1283 H 0.57372 1.13668 0.07187
 H1284 H 0.66944 1.04958 0.06746
 C1285 C 1.18118 0.65927 0.63786
 C1286 C 1.16044 0.69007 0.65388
 C1287 C 1.17771 0.70880 0.68053
 C1288 C 1.21782 0.70205 0.68867
 C1289 C 1.23881 0.67123 0.67202
 C1290 C 1.21987 0.64862 0.64727
 C1291 C 1.16100 0.63657 0.61185
 C1292 C 1.17892 0.60187 0.59857
 C1293 C 1.15687 0.57757 0.57661
 C1294 C 1.11799 0.58935 0.56765
 C1295 C 1.10306 0.62673 0.57867
 C1296 C 1.12315 0.64909 0.60190
 C1297 C 1.23806 0.61514 0.63217
 C1298 C 1.21764 0.59168 0.60879
 C1299 C 1.12257 0.70165 0.64314
 C1300 C 1.10464 0.68217 0.61691
 H1301 H 1.26784 0.60623 0.63920
 H1302 H 1.23224 0.56529 0.59876
 H1303 H 1.10678 0.72610 0.65500
 H1304 H 1.07527 0.69184 0.60933
 H1305 H 1.15978 0.72988 0.69428
 H1306 H 1.26906 0.66399 0.67892
 H1307 H 1.16891 0.54914 0.56801
 H1308 H 1.07384 0.63703 0.57116
 C1309 C 0.68307 0.83764 -0.13444
 C1310 C 0.66439 0.80289 -0.14633
 C1311 C 0.68100 0.78215 -0.17244
 C1312 C 0.71840 0.79269 -0.18492
 C1313 C 0.73759 0.82718 -0.17190
 C1314 C 0.71929 0.85052 -0.14732
 C1315 C 0.66282 0.86232 -0.10954
 C1316 C 0.67855 0.89991 -0.10022
 C1317 C 0.65632 0.92529 -0.07919
 C1318 C 0.61917 0.91229 -0.06753
 C1319 C 0.60623 0.87294 -0.07509
 C1320 C 0.62680 0.84870 -0.09691
 C1321 C 0.73542 0.88724 -0.13617
 C1322 C 0.71516 0.91174 -0.11345
 C1323 C 0.62856 0.79010 -0.13268
 C1324 C 0.61047 0.81222 -0.10788
 H1325 H 0.76331 0.89780 -0.14588
 H1326 H 0.72805 0.94039 -0.10651
 H1327 H 0.61423 0.76292 -0.14142
 H1328 H 0.58255 0.80161 -0.09822
 H1329 H 0.66381 0.75831 -0.18349
 H1330 H 0.76552 0.83709 -0.18197
 H1331 H 0.66669 0.95540 -0.07346
 H1332 H 0.57824 0.86209 -0.06568
 C1333 C 1.18223 0.33799 0.36524
 C1334 C 1.16320 0.30368 0.35289
 C1335 C 1.17961 0.28334 0.32652
 C1336 C 1.21731 0.29348 0.31442
 C1337 C 1.23677 0.32760 0.32779
 C1338 C 1.21857 0.35078 0.35253
 C1339 C 1.16226 0.36227 0.39052
 C1340 C 1.17822 0.39960 0.40023
 C1341 C 1.15616 0.42474 0.42157
 C1342 C 1.11904 0.41165 0.43325
 C1343 C 1.10602 0.37241 0.42542
 C1344 C 1.12628 0.34855 0.40316
 C1345 C 1.23496 0.38718 0.36409
 C1346 C 1.21487 0.41144 0.38707
 C1347 C 1.12737 0.29083 0.36648
 C1348 C 1.10964 0.31244 0.39174
 H1349 H 1.26294 0.39768 0.35451
 H1350 H 1.22794 0.43989 0.39431
 H1351 H 1.11281 0.26395 0.35740
 H1352 H 1.08173 0.30177 0.40138
 H1353 H 1.16223 0.25985 0.31517
 H1354 H 1.26492 0.33727 0.31797
 H1355 H 1.16662 0.45475 0.42752
 H1356 H 1.07809 0.36144 0.43487
 C1357 C 0.32064 0.83837 0.13765
 C1358 C 0.28158 0.84853 0.14603
 C1359 C 0.26284 0.82686 0.17124
 C1360 C 0.28438 0.79765 0.18935
 C1361 C 0.32488 0.79180 0.18239
 C1362 C 0.34202 0.80933 0.15528
 C1363 C 0.34035 0.85953 0.11075
 C1364 C 0.37836 0.84702 0.10155
 C1365 C 0.39787 0.86786 0.07725
 C1366 C 0.38234 0.90428 0.06458
 C1367 C 0.34328 0.91592 0.07292
 C1368 C 0.32170 0.89275 0.09575
 C1369 C 0.38016 0.79787 0.14539
 C1370 C 0.39760 0.81561 0.11829
 C1371 C 0.26267 0.88038 0.12923
 C1372 C 0.28270 0.90271 0.10511
 H1373 H 0.39646 0.77469 0.15848
 H1374 H 0.42713 0.80597 0.11134
 H1375 H 0.23259 0.88891 0.13544
 H1376 H 0.26754 0.92794 0.09373
 H1377 H 0.23218 0.83333 0.17714
 H1378 H 0.34294 0.77162 0.19699
 H1379 H 0.42717 0.85738 0.07037
 H1380 H 0.33068 0.94350 0.06309
 C1381 C 0.81987 0.33820 0.63708
 C1382 C 0.78094 0.34845 0.64580
 C1383 C 0.76234 0.32656 0.67095
 C1384 C 0.78388 0.29698 0.68866
 C1385 C 0.82423 0.29088 0.68130
 C1386 C 0.84123 0.30872 0.65426
 C1387 C 0.83952 0.35980 0.61039
 C1388 C 0.87748 0.34740 0.60095
 C1389 C 0.89703 0.36880 0.57699
 C1390 C 0.88152 0.40549 0.56488
 C1391 C 0.84249 0.41700 0.57335
 C1392 C 0.82092 0.39341 0.59590
 C1393 C 0.87926 0.29728 0.64408
 C1394 C 0.89666 0.31555 0.61719
 C1395 C 0.76207 0.38070 0.62948
 C1396 C 0.78203 0.40336 0.60553
 H1397 H 0.89553 0.27379 0.65681
 H1398 H 0.92614 0.30598 0.61004
 H1399 H 0.73209 0.38929 0.63596
 H1400 H 0.76692 0.42889 0.59454
 H1401 H 0.73181 0.33323 0.67716
 H1402 H 0.84233 0.27043 0.69563
 H1403 H 0.92637 0.35857 0.56994
 H1404 H 0.82995 0.44483 0.56392
 C1405 C 1.16262 1.12937 0.66830
 C1406 C 1.14187 1.15875 0.68607
 C1407 C 1.16317 1.18752 0.70383
 C1408 C 1.20507 1.18694 0.70421
 C1409 C 1.22507 1.15519 0.68820
 C1410 C 1.20416 1.12746 0.66909
 C1411 C 1.14043 1.10065 0.64791
 C1412 C 1.16130 1.07325 0.62819
 C1413 C 1.14010 1.04881 0.60642
 C1414 C 1.09846 1.05104 0.60513
 C1415 C 1.07792 1.07674 0.62651
 C1416 C 1.09881 1.10241 0.64740
 C1417 C 1.22400 1.09839 0.65021
 C1418 C 1.20293 1.07209 0.62975
 C1419 C 1.10021 1.15918 0.68531
 C1420 C 1.07901 1.13125 0.66648
 H1421 H 1.25611 1.09675 0.65054
 H1422 H 1.21937 1.05096 0.61481
 H1423 H 1.08386 1.18155 0.69911
 H1424 H 1.04690 1.13293 0.66619
 H1425 H 1.14698 1.21056 0.71702
 H1426 H 1.25696 1.15222 0.69016
 H1427 H 1.15587 1.02920 0.58973
 H1428 H 1.04585 1.07910 0.62499
 C1429 C 0.66102 0.63070 0.16886
 C1430 C 0.64062 0.66054 0.18638
 C1431 C 0.66227 0.68894 0.20408
 C1432 C 0.70411 0.68752 0.20455
 C1433 C 0.72375 0.65534 0.18892
 C1434 C 0.70253 0.62791 0.16991
 C1435 C 0.63856 0.60260 0.14831
 C1436 C 0.65918 0.57484 0.12875
 C1437 C 0.63786 0.55118 0.10668
 C1438 C 0.59640 0.55466 0.10491
 C1439 C 0.57592 0.58052 0.12608
 C1440 C 0.59698 0.60541 0.14735
 C1441 C 0.72206 0.59842 0.15128
 C1442 C 0.70073 0.57262 0.13068
 C1443 C 0.59900 0.66193 0.18533
 C1444 C 0.57747 0.63457 0.16629
 H1445 H 0.75413 0.59613 0.15187
 H1446 H 0.71690 0.55115 0.11585
 H1447 H 0.58297 0.68469 0.19898
 H1448 H 0.54541 0.63699 0.16565
 H1449 H 0.64638 0.71238 0.21704
 H1450 H 0.75560 0.65190 0.19098
 H1451 H 0.65340 0.53120 0.09012
 H1452 H 0.54393 0.58355 0.12414
 C1453 C 1.13618 0.83638 0.33644
 C1454 C 1.13754 0.84768 0.30364
 C1455 C 1.16480 0.82829 0.28302
 C1456 C 1.19152 0.79911 0.29555
 C1457 C 1.19127 0.79095 0.32910
 C1458 C 1.16273 0.80780 0.34920
 C1459 C 1.10703 0.85535 0.35811
 C1460 C 1.10522 0.84268 0.39052
 C1461 C 1.07894 0.86167 0.41145
 C1462 C 1.05631 0.89524 0.40114
 C1463 C 1.05737 0.90701 0.36823
 C1464 C 1.08253 0.88660 0.34640
 C1465 C 1.16002 0.79596 0.38178
 C1466 C 1.13121 0.81267 0.40202
 C1467 C 1.11155 0.87798 0.29233
 C1468 C 1.08491 0.89754 0.31346
 H1469 H 1.18011 0.77338 0.39161
 H1470 H 1.13001 0.80287 0.42710
 H1471 H 1.11227 0.88713 0.26708
 H1472 H 1.06612 0.92143 0.30397
 H1473 H 1.16507 0.83593 0.25745
 H1474 H 1.21247 0.77013 0.33968
 H1475 H 1.07854 0.85192 0.43657
 H1476 H 1.03998 0.93268 0.36000
 C1477 C 0.63901 0.33787 -0.16344
 C1478 C 0.63971 0.34882 -0.19633
 C1479 C 0.66623 0.32891 -0.21716
 C1480 C 0.69275 0.29955 -0.20472
 C1481 C 0.69317 0.29165 -0.17119
 C1482 C 0.66545 0.30908 -0.15084
 C1483 C 0.61070 0.35738 -0.14152
 C1484 C 0.60958 0.34506 -0.10901
 C1485 C 0.58403 0.36444 -0.08789
 C1486 C 0.56134 0.39790 -0.09820
 C1487 C 0.56168 0.40944 -0.13112
 C1488 C 0.58622 0.38872 -0.15313
 C1489 C 0.66346 0.29758 -0.11817
 C1490 C 0.63542 0.31489 -0.09763
 C1491 C 0.61383 0.37927 -0.20752
 C1492 C 0.58789 0.39931 -0.18616
 H1493 H 0.68350 0.27485 -0.10850
 H1494 H 0.63468 0.30539 -0.07245
 H1495 H 0.61409 0.38811 -0.23285
 H1496 H 0.56908 0.42326 -0.19553
 H1497 H 0.66608 0.33629 -0.24278
 H1498 H 0.71430 0.27063 -0.16075
 H1499 H 0.58402 0.35481 -0.06273
 H1500 H 0.54411 0.43501 -0.13928
 C1501 C 0.86640 1.16264 0.33756
 C1502 C 0.83869 1.18976 0.35056
 C1503 C 0.80950 1.20596 0.33046
 C1504 C 0.80976 1.19880 0.29676
 C1505 C 0.83749 1.17083 0.28405
 C1506 C 0.86543 1.15200 0.30460
 C1507 C 0.89658 1.14468 0.35909
 C1508 C 0.92229 1.11470 0.34711
 C1509 C 0.94837 1.09496 0.36881
 C1510 C 0.94923 1.10625 0.40186
 C1511 C 0.92554 1.13891 0.41239
 C1512 C 0.89820 1.15699 0.39161
 C1513 C 0.89261 1.12305 0.29302
 C1514 C 0.92012 1.10423 0.31403
 C1515 C 0.84114 1.20112 0.38330
 C1516 C 0.87094 1.18554 0.40340
 H1517 H 0.89217 1.11439 0.26764
 H1518 H 0.93982 1.08132 0.30430
 H1519 H 0.82016 1.22260 0.39336
 H1520 H 0.87195 1.19503 0.42858
 H1521 H 0.78779 1.22607 0.34111
 H1522 H 0.83768 1.16390 0.25834
 H1523 H 0.96650 1.06999 0.36038
 H1524 H 0.92574 1.14831 0.43761
 C1525 C 0.36302 0.66052 -0.16236
 C1526 C 0.33558 0.68804 -0.14952
 C1527 C 0.30712 0.70481 -0.16982
 C1528 C 0.30790 0.69781 -0.20349
 C1529 C 0.33525 0.66945 -0.21609
 C1530 C 0.36247 0.65005 -0.19536
 C1531 C 0.39245 0.64202 -0.14062
 C1532 C 0.41795 0.61178 -0.15247
 C1533 C 0.44346 0.59172 -0.13062
 C1534 C 0.44385 0.60296 -0.09759
 C1535 C 0.42036 0.63572 -0.08712
 C1536 C 0.39366 0.65419 -0.10805
 C1537 C 0.38936 0.62076 -0.20680
 C1538 C 0.41624 0.60145 -0.18558
 C1539 C 0.33757 0.69926 -0.11675
 C1540 C 0.36672 0.68310 -0.09641
 H1541 H 0.38921 0.61227 -0.23221
 H1542 H 0.43580 0.57834 -0.19516
 H1543 H 0.31677 0.72105 -0.10688
 H1544 H 0.36748 0.69245 -0.07118
 H1545 H 0.28556 0.72521 -0.15931
 H1546 H 0.33572 0.66266 -0.24182
 H1547 H 0.46161 0.56670 -0.13894
 H1548 H 0.42043 0.64519 -0.06190
 C1549 C 0.83470 0.86323 0.66216
 C1550 C 0.80738 0.83588 0.64902
 C1551 C 0.79002 0.80743 0.66920
 C1552 C 0.79684 0.80788 0.70296
 C1553 C 0.82480 0.83541 0.71579
 C1554 C 0.84435 0.86271 0.69530
 C1555 C 0.85405 0.89240 0.64057
 C1556 C 0.88380 0.91785 0.65289
 C1557 C 0.90443 0.94317 0.63137
 C1558 C 0.89449 0.94342 0.59806
 C1559 C 0.86253 0.91969 0.58694
 C1560 C 0.84321 0.89332 0.60770
 C1561 C 0.87326 0.88955 0.70715
 C1562 C 0.89303 0.91629 0.68622
 C1563 C 0.79737 0.83773 0.61598
 C1564 C 0.81459 0.86645 0.59571
 H1565 H 0.88111 0.88946 0.73269
 H1566 H 0.91574 0.93580 0.69619
 H1567 H 0.77585 0.81702 0.60578
 H1568 H 0.80620 0.86695 0.57027
 H1569 H 0.76997 0.78571 0.65849
 H1570 H 0.83143 0.83578 0.74155
 H1571 H 0.92887 0.96133 0.64021
 H1572 H 0.85424 0.91939 0.56147
 C1573 C 0.33652 0.35958 0.16179
 C1574 C 0.30929 0.33206 0.14878
 C1575 C 0.29107 0.30472 0.16924
 C1576 C 0.29726 0.30621 0.20301
 C1577 C 0.32509 0.33385 0.21579
 C1578 C 0.34529 0.36026 0.19510
 C1579 C 0.35661 0.38771 0.13995
 C1580 C 0.38596 0.41362 0.15229
 C1581 C 0.40695 0.43833 0.13065
 C1582 C 0.39779 0.43736 0.09725
 C1583 C 0.36657 0.41286 0.08595
 C1584 C 0.34673 0.38733 0.10688
 C1585 C 0.37395 0.38736 0.20690
 C1586 C 0.39429 0.41332 0.18577
 C1587 C 0.30023 0.33259 0.11554
 C1588 C 0.31834 0.36023 0.09492
 H1589 H 0.38107 0.38815 0.23258
 H1590 H 0.41672 0.43320 0.19570
 H1591 H 0.27881 0.31167 0.10547
 H1592 H 0.31072 0.35979 0.06932
 H1593 H 0.27091 0.28299 0.15868
 H1594 H 0.33112 0.33500 0.24163
 H1595 H 0.43085 0.45718 0.13955
 H1596 H 0.35897 0.41166 0.06036
   
