data_POSCAR
  _audit_creation_date              2014-09-24
  _audit_creation_method            'ToBaCCo'
  _symmetry_space_group_name_H-M    'P1'
  _symmetry_Int_Tables_number       1
  _symmetry_cell_setting            triclinic
  loop_
  _symmetry_equiv_pos_as_xyz
 x,y,z
_cell_length_a 83.6128
_cell_length_b 84.8971
_cell_length_c 90.4723
_cell_angle_alpha 90.101600
_cell_angle_beta 89.380800
_cell_angle_gamma 89.292600
loop_
  _atom_site_label
  _atom_site_type_symbol
  _atom_site_fract_x
  _atom_site_fract_y
  _atom_site_fract_z
N1 N 0.36486 0.33134 0.34867
 N2 N 0.36745 0.34360 0.34015
 C3 C 0.37838 0.33972 0.32970
 C4 C 0.38282 0.32413 0.33175
 C5 C 0.37407 0.31920 0.34390
 H6 H 0.38197 0.34736 0.32075
 H7 H 0.37387 0.30744 0.34847
 Cu8 Cu 0.35449 0.36262 0.34180
 Cu9 Cu 0.34850 0.33153 0.36424
 Cu10 Cu 0.32330 0.36425 0.36512
 N11 N 0.33715 0.37767 0.33896
 N12 N 0.32468 0.37787 0.34792
 C13 C 0.31378 0.38826 0.34288
 C14 C 0.31974 0.39490 0.33007
 C15 C 0.33465 0.38798 0.32789
 H16 H 0.30214 0.39041 0.34788
 H17 H 0.34269 0.38963 0.31859
 N18 N 0.32138 0.34666 0.37907
 N19 N 0.33110 0.33428 0.37904
 C20 C 0.32619 0.32416 0.38958
 C21 C 0.31263 0.33046 0.39635
 C22 C 0.30995 0.34468 0.38944
 H23 H 0.33160 0.31276 0.39169
 H24 H 0.30004 0.35273 0.39148
 H25 H 0.33368 0.34654 0.35268
 H26 H 0.34666 0.35533 0.36707
 N27 N 0.36761 0.82033 -0.15878
 N28 N 0.37182 0.83423 -0.16376
 C29 C 0.38406 0.83239 -0.17347
 C30 C 0.38749 0.81639 -0.17466
 C31 C 0.37682 0.80915 -0.16521
 H32 H 0.38955 0.84189 -0.17956
 H33 H 0.37567 0.79663 -0.16331
 Cu34 Cu 0.35979 0.85308 -0.15797
 Cu35 Cu 0.34994 0.81748 -0.14496
 Cu36 Cu 0.33579 0.85147 -0.12809
 N37 N 0.34353 0.86928 -0.15412
 N38 N 0.33435 0.86870 -0.14224
 C39 C 0.32339 0.88039 -0.14275
 C40 C 0.32562 0.88862 -0.15574
 C41 C 0.33867 0.88139 -0.16267
 H42 H 0.31385 0.88214 -0.13471
 H43 H 0.34363 0.88402 -0.17346
 N44 N 0.33193 0.83044 -0.11996
 N45 N 0.33674 0.81746 -0.12679
 C46 C 0.33111 0.80494 -0.11939
 C47 C 0.32226 0.81030 -0.10740
 C48 C 0.32305 0.82657 -0.10803
 H49 H 0.33299 0.79278 -0.12265
 H50 H 0.31708 0.83498 -0.10082
 H51 H 0.33768 0.83871 -0.14682
 H52 H 0.35597 0.83794 -0.13521
 N53 N 0.87895 0.32525 -0.15714
 N54 N 0.87890 0.33790 -0.16551
 C55 C 0.88965 0.33589 -0.17659
 C56 C 0.89667 0.32112 -0.17504
 C57 C 0.88960 0.31474 -0.16263
 H58 H 0.89153 0.34413 -0.18553
 H59 H 0.89162 0.30304 -0.15828
 Cu60 Cu 0.86347 0.35490 -0.16203
 Cu61 Cu 0.86434 0.32262 -0.14052
 Cu62 Cu 0.83366 0.34996 -0.13704
 N63 N 0.84436 0.36821 -0.16199
 N64 N 0.83278 0.36614 -0.15225
 C65 C 0.82049 0.37587 -0.15543
 C66 C 0.82453 0.38448 -0.16782
 C67 C 0.83984 0.37941 -0.17169
 H68 H 0.80917 0.37623 -0.14952
 H69 H 0.84687 0.38295 -0.18119
 N70 N 0.83672 0.33254 -0.12295
 N71 N 0.84839 0.32203 -0.12441
 C72 C 0.84649 0.31074 -0.11415
 C73 C 0.83300 0.31427 -0.10585
 C74 C 0.82707 0.32821 -0.11166
 H75 H 0.85387 0.30025 -0.11323
 H76 H 0.81608 0.33421 -0.10850
 H77 H 0.84635 0.33516 -0.15102
 H78 H 0.85809 0.34605 -0.13684
 N79 N 0.86588 0.83474 0.34654
 N80 N 0.86713 0.84638 0.33704
 C81 C 0.87744 0.84215 0.32616
 C82 C 0.88287 0.82700 0.32900
 C83 C 0.87532 0.82268 0.34200
 H84 H 0.88000 0.84922 0.31651
 H85 H 0.87607 0.81132 0.34735
 Cu86 Cu 0.85366 0.86509 0.33862
 Cu87 Cu 0.85083 0.83534 0.36316
 Cu88 Cu 0.82270 0.86547 0.36254
 N89 N 0.83602 0.87998 0.33657
 N90 N 0.82384 0.87989 0.34589
 C91 C 0.81262 0.89017 0.34127
 C92 C 0.81801 0.89705 0.32836
 C93 C 0.83300 0.89041 0.32570
 H94 H 0.80109 0.89205 0.34657
 H95 H 0.84075 0.89231 0.31625
 N96 N 0.82359 0.84970 0.37842
 N97 N 0.83435 0.83820 0.37876
 C98 C 0.83101 0.82869 0.39029
 C99 C 0.81746 0.83452 0.39743
 C100 C 0.81312 0.84781 0.38964
 H101 H 0.83738 0.81787 0.39276
 H102 H 0.80262 0.85510 0.39163
 H103 H 0.83469 0.84792 0.35075
 H104 H 0.84678 0.85935 0.36429
 N105 N 0.62790 0.67428 0.34859
 N106 N 0.62768 0.66436 0.33740
 C107 C 0.61763 0.66998 0.32706
 C108 C 0.61132 0.68420 0.33208
 C109 C 0.61806 0.68653 0.34575
 H110 H 0.61570 0.66451 0.31643
 H111 H 0.61641 0.69669 0.35287
 Cu112 Cu 0.64148 0.64567 0.33691
 Cu113 Cu 0.64189 0.67119 0.36547
 Cu114 Cu 0.67527 0.64884 0.35628
 N115 N 0.65869 0.63005 0.33504
 N116 N 0.67173 0.63141 0.34292
 C117 C 0.68221 0.62000 0.33905
 C118 C 0.67551 0.61100 0.32812
 C119 C 0.66051 0.61765 0.32577
 H120 H 0.69415 0.61877 0.34341
 H121 H 0.65190 0.61419 0.31758
 N122 N 0.67443 0.66321 0.37330
 N123 N 0.66154 0.67138 0.37723
 C124 C 0.66497 0.68029 0.38912
 C125 C 0.68080 0.67748 0.39275
 C126 C 0.68636 0.66660 0.38255
 H127 H 0.65678 0.68866 0.39426
 H128 H 0.69838 0.66180 0.38174
 H129 H 0.65781 0.66493 0.34968
 H130 H 0.65183 0.64842 0.36207
 N131 N 0.62429 0.16535 -0.14937
 N132 N 0.62524 0.15578 -0.16079
 C133 C 0.61629 0.16174 -0.17182
 C134 C 0.60948 0.17580 -0.16694
 C135 C 0.61476 0.17767 -0.15267
 H136 H 0.61551 0.15664 -0.18275
 H137 H 0.61240 0.18761 -0.14543
 Cu138 Cu 0.63933 0.13731 -0.16046
 Cu139 Cu 0.63645 0.16180 -0.13150
 Cu140 Cu 0.67004 0.13811 -0.13659
 N141 N 0.65789 0.12351 -0.16285
 N142 N 0.67012 0.12443 -0.15388
 C143 C 0.68194 0.11483 -0.15880
 C144 C 0.67684 0.10744 -0.17147
 C145 C 0.66145 0.11315 -0.17373
 H146 H 0.69350 0.11349 -0.15367
 H147 H 0.65371 0.11061 -0.18291
 N148 N 0.66733 0.15263 -0.11969
 N149 N 0.65432 0.16135 -0.11764
 C150 C 0.65643 0.17092 -0.10598
 C151 C 0.67146 0.16806 -0.10038
 C152 C 0.67806 0.15635 -0.10927
 H153 H 0.64807 0.18001 -0.10241
 H154 H 0.69011 0.15163 -0.10877
 H155 H 0.65482 0.15492 -0.14528
 H156 H 0.64587 0.13884 -0.13400
 N157 N 0.13457 0.68065 -0.16395
 N158 N 0.13620 0.67258 -0.17630
 C159 C 0.12621 0.67851 -0.18646
 C160 C 0.11791 0.69101 -0.18024
 C161 C 0.12344 0.69210 -0.16589
 H162 H 0.12541 0.67442 -0.19775
 H163 H 0.12015 0.70090 -0.15772
 Cu164 Cu 0.15215 0.65603 -0.17872
 Cu165 Cu 0.14823 0.67639 -0.14697
 Cu166 Cu 0.17404 0.64408 -0.14993
 N167 N 0.16422 0.63643 -0.17928
 N168 N 0.17299 0.63175 -0.16811
 C169 C 0.18094 0.61842 -0.17196
 C170 C 0.17683 0.61463 -0.18632
 C171 C 0.16620 0.62626 -0.19056
 H172 H 0.18943 0.61229 -0.16504
 H173 H 0.16075 0.62749 -0.20129
 N174 N 0.17321 0.65804 -0.13248
 N175 N 0.16315 0.67009 -0.13116
 C176 C 0.16631 0.67788 -0.11854
 C177 C 0.17903 0.67042 -0.11172
 C178 C 0.18311 0.65795 -0.12084
 H179 H 0.16055 0.68877 -0.11511
 H180 H 0.19308 0.64988 -0.11943
 H181 H 0.16740 0.66606 -0.15799
 H182 H 0.15089 0.65276 -0.15209
 N183 N 0.12567 0.16947 0.34583
 N184 N 0.12463 0.15765 0.33649
 C185 C 0.11514 0.16198 0.32521
 C186 C 0.11010 0.17737 0.32766
 C187 C 0.11700 0.18173 0.34079
 H188 H 0.11279 0.15476 0.31563
 H189 H 0.11624 0.19320 0.34599
 Cu190 Cu 0.13712 0.13842 0.33918
 Cu191 Cu 0.13935 0.16884 0.36308
 Cu192 Cu 0.16573 0.13736 0.36506
 N193 N 0.15390 0.12235 0.33889
 N194 N 0.16503 0.12208 0.34904
 C195 C 0.17589 0.11082 0.34565
 C196 C 0.17137 0.10361 0.33271
 C197 C 0.15731 0.11118 0.32866
 H198 H 0.18672 0.10851 0.35175
 H199 H 0.15058 0.10934 0.31868
 N200 N 0.16453 0.15404 0.38018
 N201 N 0.15431 0.16598 0.37954
 C202 C 0.15733 0.17607 0.39066
 C203 C 0.17013 0.17018 0.39857
 C204 C 0.17437 0.15624 0.39166
 H205 H 0.15139 0.18733 0.39226
 H206 H 0.18446 0.14872 0.39434
 H207 H 0.15597 0.15493 0.35203
 H208 H 0.14201 0.14469 0.36507
 N209 N 0.62272 0.33694 0.65521
 N210 N 0.62483 0.34711 0.66595
 C211 C 0.61582 0.34292 0.67771
 C212 C 0.60771 0.32936 0.67405
 C213 C 0.61231 0.32595 0.65969
 H214 H 0.61592 0.34877 0.68834
 H215 H 0.60895 0.31580 0.65324
 Cu216 Cu 0.64051 0.36371 0.66400
 Cu217 Cu 0.63469 0.33795 0.63672
 Cu218 Cu 0.67032 0.35823 0.63908
 N219 N 0.66030 0.37527 0.66521
 N220 N 0.67211 0.37272 0.65575
 C221 C 0.68493 0.38091 0.66006
 C222 C 0.68093 0.38901 0.67285
 C223 C 0.66517 0.38520 0.67582
 H224 H 0.69650 0.38060 0.65459
 H225 H 0.65807 0.38862 0.68538
 N226 N 0.66579 0.34316 0.62301
 N227 N 0.65207 0.33571 0.62209
 C228 C 0.65295 0.32529 0.61090
 C229 C 0.66788 0.32624 0.60439
 C230 C 0.67575 0.33773 0.61228
 H231 H 0.64375 0.31692 0.60825
 H232 H 0.68809 0.34114 0.61090
 H233 H 0.65402 0.34365 0.64924
 H234 H 0.64612 0.35986 0.63743
 N235 N 0.63782 0.82812 1.15376
 N236 N 0.63668 0.84012 1.16296
 C237 C 0.62600 0.83672 1.17373
 C238 C 0.62023 0.82175 1.17111
 C239 C 0.62799 0.81668 1.15840
 H240 H 0.62321 0.84426 1.18307
 H241 H 0.62693 0.80526 1.15320
 Cu242 Cu 0.65028 0.85845 1.16075
 Cu243 Cu 0.65285 0.82753 1.13713
 Cu244 Cu 0.68046 0.85736 1.13591
 N245 N 0.66759 0.87361 1.16138
 N246 N 0.67925 0.87303 1.15152
 C247 C 0.69024 0.88380 1.15492
 C248 C 0.68529 0.89160 1.16754
 C249 C 0.67080 0.88490 1.17142
 H250 H 0.70144 0.88538 1.14904
 H251 H 0.66361 0.88742 1.18117
 N252 N 0.67984 0.84053 1.12104
 N253 N 0.66919 0.82918 1.12129
 C254 C 0.67269 0.81888 1.11031
 C255 C 0.68626 0.82401 1.10297
 C256 C 0.69044 0.83770 1.11004
 H257 H 0.66647 0.80798 1.10841
 H258 H 0.70091 0.84467 1.10772
 H259 H 0.66911 0.84044 1.14873
 H260 H 0.65642 0.85133 1.13512
 N261 N 0.12988 0.33174 1.16158
 N262 N 0.13215 0.34396 1.17022
 C263 C 0.12290 0.34263 1.18242
 C264 C 0.11422 0.32897 1.18122
 C265 C 0.11892 0.32234 1.16786
 H266 H 0.12278 0.35077 1.19163
 H267 H 0.11533 0.31109 1.16346
 Cu268 Cu 0.14756 0.35995 1.16503
 Cu269 Cu 0.14277 0.32788 1.14383
 Cu270 Cu 0.17410 0.35344 1.13749
 N271 N 0.16660 0.37257 1.16298
 N272 N 0.17706 0.36987 1.15229
 C273 C 0.18971 0.37930 1.15416
 C274 C 0.18697 0.38840 1.16662
 C275 C 0.17217 0.38385 1.17197
 H276 H 0.20038 0.37915 1.14730
 H277 H 0.16626 0.38780 1.18202
 N278 N 0.16901 0.33598 1.12398
 N279 N 0.15727 0.32605 1.12658
 C280 C 0.15794 0.31446 1.11640
 C281 C 0.17057 0.31729 1.10689
 C282 C 0.17733 0.33105 1.11196
 H283 H 0.15027 0.30430 1.11627
 H284 H 0.18809 0.33647 1.10778
 H285 H 0.16241 0.33910 1.15241
 H286 H 0.14962 0.35076 1.13950
 N287 N 0.13772 0.83016 0.65765
 N288 N 0.13697 0.84084 0.66819
 C289 C 0.12461 0.83769 0.67729
 C290 C 0.11726 0.82422 0.67225
 C291 C 0.12589 0.81973 0.65978
 H292 H 0.12182 0.84415 0.68732
 H293 H 0.12406 0.80936 0.65306
 Cu294 Cu 0.15328 0.85678 0.67027
 Cu295 Cu 0.15467 0.83042 0.64258
 Cu296 Cu 0.18927 0.84655 0.65630
 N297 N 0.17247 0.86776 0.67600
 N298 N 0.18655 0.86350 0.67066
 C299 C 0.19794 0.87184 0.67739
 C300 C 0.19062 0.88185 0.68750
 C301 C 0.17440 0.87901 0.68634
 H302 H 0.21065 0.87036 0.67545
 H303 H 0.16482 0.88412 0.69296
 N304 N 0.18894 0.83309 0.63853
 N305 N 0.17570 0.82737 0.63292
 C306 C 0.17942 0.81916 0.62055
 C307 C 0.19582 0.81979 0.61835
 C308 C 0.20143 0.82866 0.62993
 H309 H 0.17087 0.81296 0.61388
 H310 H 0.21375 0.83172 0.63188
 H311 H 0.16830 0.83433 0.66028
 H312 H 0.16753 0.85117 0.64705
 N313 N 0.37565 0.67401 0.66104
 N314 N 0.37244 0.66599 0.67309
 C315 C 0.38223 0.67059 0.68392
 C316 C 0.39206 0.68215 0.67840
 C317 C 0.38763 0.68404 0.66380
 H318 H 0.38175 0.66642 0.69520
 H319 H 0.39208 0.69268 0.65606
 Cu320 Cu 0.35465 0.65164 0.67415
 Cu321 Cu 0.36241 0.67237 0.64355
 Cu322 Cu 0.33299 0.64381 0.64386
 N323 N 0.34069 0.63366 0.67318
 N324 N 0.33200 0.63056 0.66152
 C325 C 0.32273 0.61802 0.66453
 C326 C 0.32593 0.61313 0.67883
 C327 C 0.33736 0.62327 0.68390
 H328 H 0.31400 0.61320 0.65710
 H329 H 0.34250 0.62334 0.69482
 N330 N 0.33624 0.65852 0.62716
 N331 N 0.34772 0.66907 0.62701
 C332 C 0.34601 0.67832 0.61508
 C333 C 0.33285 0.67349 0.60736
 C334 C 0.32690 0.66084 0.61525
 H335 H 0.35309 0.68861 0.61271
 H336 H 0.31602 0.65454 0.61307
 H337 H 0.34144 0.66418 0.65330
 H338 H 0.35660 0.64894 0.64750
 N339 N 0.36318 0.16945 1.16804
 N340 N 0.36183 0.15859 1.17832
 C341 C 0.37182 0.16193 1.18944
 C342 C 0.37998 0.17546 1.18590
 C343 C 0.37424 0.17994 1.17222
 H344 H 0.37276 0.15531 1.19961
 H345 H 0.37724 0.19048 1.16615
 Cu346 Cu 0.34651 0.14157 1.17693
 Cu347 Cu 0.34912 0.17027 1.15098
 Cu348 Cu 0.32017 0.14163 1.14912
 N349 N 0.32972 0.12590 1.17569
 N350 N 0.31944 0.12612 1.16481
 C351 C 0.30843 0.11497 1.16713
 C352 C 0.31198 0.10728 1.18011
 C353 C 0.32560 0.11447 1.18531
 H354 H 0.29820 0.11295 1.16020
 H355 H 0.33155 0.11211 1.19564
 N356 N 0.32256 0.15814 1.13413
 N357 N 0.33364 0.16907 1.13465
 C358 C 0.33127 0.17929 1.12343
 C359 C 0.31802 0.17450 1.11562
 C360 C 0.31287 0.16112 1.12269
 H361 H 0.33807 0.18987 1.12160
 H362 H 0.30233 0.15448 1.12002
 H363 H 0.33051 0.15934 1.16173
 H364 H 0.34440 0.14664 1.15044
 N365 N 0.86136 0.66989 1.15429
 N366 N 0.86350 0.65920 1.16461
 C367 C 0.87334 0.66500 1.17497
 C368 C 0.87743 0.68016 1.17086
 C369 C 0.86962 0.68284 1.15775
 H370 H 0.87664 0.65895 1.18501
 H371 H 0.86969 0.69360 1.15136
 Cu372 Cu 0.85187 0.63944 1.16422
 Cu373 Cu 0.84764 0.66671 1.13733
 Cu374 Cu 0.82758 0.63142 1.13597
 N375 N 0.83533 0.62345 1.16591
 N376 N 0.82584 0.62060 1.15475
 C377 C 0.81484 0.61006 1.15886
 C378 C 0.81748 0.60602 1.17337
 C379 C 0.83064 0.61468 1.17759
 H380 H 0.80519 0.60609 1.15196
 H381 H 0.83584 0.61522 1.18847
 N382 N 0.82573 0.64752 1.12057
 N383 N 0.83329 0.66106 1.12104
 C384 C 0.82841 0.67007 1.10965
 C385 C 0.81709 0.66182 1.10183
 C386 C 0.81568 0.64762 1.10906
 H387 H 0.83202 0.68209 1.10775
 H388 H 0.80732 0.63838 1.10658
 H389 H 0.83237 0.65137 1.14787
 H390 H 0.84969 0.64288 1.13726
 N391 N 0.87206 0.17859 0.66161
 N392 N 0.86993 0.16964 0.67328
 C393 C 0.88035 0.17387 0.68379
 C394 C 0.88948 0.18605 0.67838
 C395 C 0.88394 0.18876 0.66425
 H396 H 0.88092 0.16889 0.69476
 H397 H 0.88769 0.19791 0.65673
 Cu398 Cu 0.85304 0.15409 0.67401
 Cu399 Cu 0.85800 0.17767 0.64463
 Cu400 Cu 0.82801 0.14976 0.64546
 N401 N 0.83640 0.13830 0.67423
 N402 N 0.82685 0.13639 0.66293
 C403 C 0.81614 0.12517 0.66624
 C404 C 0.81913 0.11985 0.68040
 C405 C 0.83202 0.12843 0.68514
 H406 H 0.80651 0.12164 0.65912
 H407 H 0.83746 0.12777 0.69591
 N408 N 0.83115 0.16443 0.62881
 N409 N 0.84259 0.17502 0.62855
 C410 C 0.84053 0.18443 0.61675
 C411 C 0.82719 0.17960 0.60926
 C412 C 0.82153 0.16685 0.61714
 H413 H 0.84755 0.19472 0.61429
 H414 H 0.81061 0.16055 0.61514
 H415 H 0.83806 0.16902 0.65563
 H416 H 0.85207 0.15424 0.64710
 N417 N 0.33317 0.36774 0.65181
 N418 N 0.34335 0.36723 0.66279
 C419 C 0.33930 0.37845 0.67276
 C420 C 0.32581 0.38631 0.66772
 C421 C 0.32231 0.37926 0.65440
 H422 H 0.34514 0.38008 0.68325
 H423 H 0.31211 0.38177 0.64749
 Cu424 Cu 0.35990 0.35091 0.66375
 Cu425 Cu 0.33374 0.35226 0.63585
 Cu426 Cu 0.34986 0.31686 0.64765
 N427 N 0.37224 0.33165 0.66699
 N428 N 0.36800 0.31835 0.66078
 C429 C 0.37740 0.30660 0.66572
 C430 C 0.38820 0.31282 0.67547
 C431 C 0.38464 0.32881 0.67605
 H432 H 0.37619 0.29432 0.66274
 H433 H 0.39011 0.33755 0.68302
 N434 N 0.33571 0.31871 0.63048
 N435 N 0.32999 0.33226 0.62558
 C436 C 0.32073 0.32955 0.61376
 C437 C 0.32071 0.31347 0.61117
 C438 C 0.33033 0.30702 0.62191
 H439 H 0.31410 0.33854 0.60789
 H440 H 0.33301 0.29464 0.62348
 H441 H 0.33731 0.33741 0.65281
 H442 H 0.35470 0.33864 0.63977
 N443 N 0.31753 0.86160 0.15478
 N444 N 0.32870 0.86571 0.16407
 C445 C 0.32270 0.87657 0.17354
 C446 C 0.30686 0.87937 0.16997
 C447 C 0.30396 0.86966 0.15803
 H448 H 0.32921 0.88157 0.18264
 H449 H 0.29278 0.86842 0.15227
 Cu450 Cu 0.34965 0.85563 0.16360
 Cu451 Cu 0.32166 0.84612 0.13921
 Cu452 Cu 0.35438 0.82143 0.14511
 N453 N 0.36719 0.84126 0.16779
 N454 N 0.36905 0.82784 0.16064
 C455 C 0.38145 0.81979 0.16650
 C456 C 0.38752 0.82865 0.17798
 C457 C 0.37818 0.84215 0.17849
 H458 H 0.38523 0.80809 0.16313
 H459 H 0.37890 0.85163 0.18646
 N460 N 0.33812 0.81731 0.12987
 N461 N 0.32604 0.82708 0.12733
 C462 C 0.31727 0.82135 0.11621
 C463 C 0.32404 0.80723 0.11161
 C464 C 0.33716 0.80494 0.12055
 H465 H 0.30642 0.82677 0.11213
 H466 H 0.34534 0.79497 0.12027
 H467 H 0.33492 0.83344 0.15407
 H468 H 0.34650 0.84347 0.13919
 N469 N 0.82039 0.36366 0.15422
 N470 N 0.83046 0.36690 0.16483
 C471 C 0.82428 0.37861 0.17328
 C472 C 0.80950 0.38282 0.16766
 C473 C 0.80740 0.37308 0.15563
 H474 H 0.82979 0.38319 0.18313
 H475 H 0.79700 0.37265 0.14863
 Cu476 Cu 0.85004 0.35467 0.16737
 Cu477 Cu 0.82445 0.34695 0.13982
 Cu478 Cu 0.85695 0.32248 0.14642
 N479 N 0.86632 0.33912 0.17253
 N480 N 0.86928 0.32688 0.16398
 C481 C 0.88069 0.31783 0.17015
 C482 C 0.88506 0.32471 0.18334
 C483 C 0.87566 0.33818 0.18456
 H484 H 0.88489 0.30668 0.16571
 H485 H 0.87539 0.34645 0.19367
 N486 N 0.84299 0.31995 0.12927
 N487 N 0.83068 0.32937 0.12660
 C488 C 0.82292 0.32396 0.11468
 C489 C 0.83069 0.31042 0.10977
 C490 C 0.84329 0.30822 0.11925
 H491 H 0.81193 0.32893 0.11044
 H492 H 0.85163 0.29838 0.11919
 H493 H 0.83652 0.33329 0.15498
 H494 H 0.84894 0.34518 0.14191
 N495 N 0.83260 0.87625 0.64906
 N496 N 0.84141 0.87755 0.66094
 C497 C 0.83560 0.88945 0.66937
 C498 C 0.82241 0.89587 0.66235
 C499 C 0.82091 0.88727 0.64949
 H500 H 0.84004 0.89250 0.68018
 H501 H 0.81146 0.88834 0.64147
 Cu502 Cu 0.85859 0.86251 0.66500
 Cu503 Cu 0.83572 0.85911 0.63493
 Cu504 Cu 0.85243 0.82627 0.65150
 N505 N 0.87158 0.84460 0.67121
 N506 N 0.86893 0.83044 0.66593
 C507 C 0.87847 0.81997 0.67276
 C508 C 0.88765 0.82795 0.68282
 C509 C 0.88302 0.84362 0.68158
 H510 H 0.87842 0.80739 0.67086
 H511 H 0.88710 0.85343 0.68812
 N512 N 0.83988 0.82527 0.63322
 N513 N 0.83402 0.83786 0.62656
 C514 C 0.82587 0.83332 0.61454
 C515 C 0.82669 0.81705 0.61366
 C516 C 0.83569 0.81237 0.62560
 H517 H 0.81932 0.84124 0.60741
 H518 H 0.83866 0.80039 0.62867
 H519 H 0.83823 0.84636 0.65354
 H520 H 0.85681 0.84734 0.64199
 N521 N 0.67958 0.62620 0.65806
 N522 N 0.66883 0.62381 0.66851
 C523 C 0.67428 0.61257 0.67773
 C524 C 0.68930 0.60778 0.67279
 C525 C 0.69231 0.61669 0.66036
 H526 H 0.66808 0.60868 0.68759
 H527 H 0.70308 0.61644 0.65363
 Cu528 Cu 0.64934 0.63645 0.66973
 Cu529 Cu 0.67648 0.64177 0.64252
 Cu530 Cu 0.64355 0.66663 0.64628
 N531 N 0.63303 0.65252 0.67349
 N532 N 0.63035 0.66383 0.66390
 C533 C 0.61883 0.67352 0.66926
 C534 C 0.61414 0.66807 0.68302
 C535 C 0.62344 0.65476 0.68541
 H536 H 0.61487 0.68426 0.66395
 H537 H 0.62353 0.64752 0.69523
 N538 N 0.65857 0.66763 0.62940
 N539 N 0.67117 0.65821 0.62796
 C540 C 0.67983 0.66277 0.61609
 C541 C 0.67234 0.67574 0.60989
 C542 C 0.65894 0.67848 0.61857
 H543 H 0.69121 0.65765 0.61276
 H544 H 0.65056 0.68821 0.61750
 H545 H 0.66345 0.65679 0.65619
 H546 H 0.65187 0.64369 0.64370
 N547 N 0.66838 0.13270 0.15989
 N548 N 0.65692 0.13266 0.16996
 C549 C 0.66064 0.12223 0.18058
 C550 C 0.67511 0.11523 0.17694
 C551 C 0.67974 0.12210 0.16371
 H552 H 0.65365 0.12033 0.19054
 H553 H 0.69090 0.12019 0.15778
 Cu554 Cu 0.63883 0.14704 0.16898
 Cu555 Cu 0.66863 0.14805 0.14377
 Cu556 Cu 0.63912 0.17725 0.14536
 N557 N 0.62413 0.16467 0.17140
 N558 N 0.62395 0.17630 0.16183
 C559 C 0.61309 0.18720 0.16626
 C560 C 0.60623 0.18214 0.17938
 C561 C 0.61355 0.16784 0.18235
 H562 H 0.61094 0.19830 0.16075
 H563 H 0.61168 0.16055 0.19200
 N564 N 0.65553 0.17611 0.12961
 N565 N 0.66662 0.16490 0.12879
 C566 C 0.67654 0.16803 0.11734
 C567 C 0.67145 0.18190 0.11080
 C568 C 0.65815 0.18666 0.11881
 H569 H 0.68716 0.16124 0.11452
 H570 H 0.65132 0.19740 0.11722
 H571 H 0.65683 0.16480 0.15633
 H572 H 0.64447 0.15337 0.14312
 N573 N 0.16582 0.62772 0.16357
 N574 N 0.15570 0.63008 0.17459
 C575 C 0.15911 0.61993 0.18554
 C576 C 0.17204 0.61076 0.18118
 C577 C 0.17603 0.61596 0.16715
 H578 H 0.15307 0.61958 0.19616
 H579 H 0.18607 0.61209 0.16038
 Cu580 Cu 0.13972 0.64685 0.17428
 Cu581 Cu 0.16617 0.64141 0.14640
 Cu582 Cu 0.13671 0.67040 0.14435
 N583 N 0.12249 0.66217 0.17217
 N584 N 0.12116 0.67132 0.16053
 C585 C 0.10869 0.68135 0.16265
 C586 C 0.10195 0.67821 0.17636
 C587 C 0.11095 0.66600 0.18203
 H588 H 0.10530 0.69066 0.15513
 H589 H 0.10952 0.66075 0.19284
 N590 N 0.15358 0.66754 0.12912
 N591 N 0.16471 0.65642 0.12993
 C592 C 0.17540 0.65843 0.11891
 C593 C 0.17085 0.67140 0.11078
 C594 C 0.15692 0.67692 0.11749
 H595 H 0.18628 0.65157 0.11739
 H596 H 0.15032 0.68751 0.11472
 H597 H 0.15567 0.66120 0.15613
 H598 H 0.14186 0.64679 0.14743
 N599 N 0.18138 0.12376 0.66615
 N600 N 0.16809 0.12019 0.67319
 C601 C 0.17095 0.10800 0.68234
 C602 C 0.18698 0.10386 0.68097
 C603 C 0.19321 0.11411 0.67065
 H604 H 0.16229 0.10320 0.69000
 H605 H 0.20557 0.11486 0.66709
 Cu606 Cu 0.14902 0.13322 0.67111
 Cu607 Cu 0.18274 0.14159 0.65277
 Cu608 Cu 0.14661 0.15900 0.64315
 N609 N 0.13339 0.15036 0.67135
 N610 N 0.13207 0.16021 0.66022
 C611 C 0.12078 0.17115 0.66356
 C612 C 0.11493 0.16804 0.67763
 C613 C 0.12319 0.15478 0.68222
 H614 H 0.11780 0.18111 0.65663
 H615 H 0.12226 0.14911 0.69289
 N616 N 0.16641 0.16170 0.63148
 N617 N 0.18024 0.15555 0.63558
 C618 C 0.19175 0.16025 0.62616
 C619 C 0.18489 0.16982 0.61564
 C620 C 0.16876 0.17053 0.61929
 H621 H 0.20428 0.15711 0.62696
 H622 H 0.15955 0.17738 0.61389
 H623 H 0.16275 0.15488 0.65895
 H624 H 0.15987 0.13784 0.64626
 N625 N 0.33566 0.62971 0.33288
 N626 N 0.34506 0.63371 0.32181
 C627 C 0.34318 0.62354 0.31059
 C628 C 0.33194 0.61263 0.31476
 C629 C 0.32738 0.61682 0.32902
 H630 H 0.34896 0.62441 0.29988
 H631 H 0.31822 0.61143 0.33576
 Cu632 Cu 0.35736 0.65285 0.32220
 Cu633 Cu 0.33391 0.64268 0.35068
 Cu634 Cu 0.35946 0.67466 0.35313
 N635 N 0.37336 0.66889 0.32448
 N636 N 0.37421 0.67769 0.33641
 C637 C 0.38552 0.68873 0.33421
 C638 C 0.39195 0.68655 0.32014
 C639 C 0.38401 0.67388 0.31439
 H640 H 0.38828 0.69801 0.34194
 H641 H 0.38546 0.66910 0.30336
 N642 N 0.34358 0.66939 0.36873
 N643 N 0.33394 0.65721 0.36771
 C644 C 0.32352 0.65759 0.37913
 C645 C 0.32668 0.67054 0.38777
 C646 C 0.33951 0.67779 0.38091
 H647 H 0.31372 0.64954 0.38067
 H648 H 0.34481 0.68884 0.38404
 H649 H 0.34097 0.66419 0.34206
 H650 H 0.35719 0.65090 0.34897
 N651 N 0.32866 0.12992 0.84272
 N652 N 0.33607 0.13263 0.83010
 C653 C 0.33049 0.12286 0.81972
 C654 C 0.31897 0.11354 0.82609
 C655 C 0.31805 0.11826 0.84075
 H656 H 0.33428 0.12275 0.80825
 H657 H 0.30999 0.11393 0.84919
 Cu658 Cu 0.35166 0.14913 0.82777
 Cu659 Cu 0.33285 0.14256 0.86030
 Cu660 Cu 0.36493 0.16796 0.85774
 N661 N 0.37103 0.16142 0.82714
 N662 N 0.37639 0.16861 0.83892
 C663 C 0.38919 0.17724 0.83508
 C664 C 0.39191 0.17531 0.82006
 C665 C 0.38021 0.16518 0.81540
 H666 H 0.39544 0.18499 0.84247
 H667 H 0.37814 0.16140 0.80417
 N668 N 0.35174 0.16583 0.87575
 N669 N 0.33926 0.15648 0.87670
 C670 C 0.33128 0.15961 0.88944
 C671 C 0.33916 0.17153 0.89674
 C672 C 0.35205 0.17509 0.88780
 H673 H 0.31998 0.15449 0.89258
 H674 H 0.36026 0.18467 0.88943
 H675 H 0.34226 0.16224 0.85025
 H676 H 0.35633 0.14541 0.85394
 N677 N 0.83622 0.62839 0.82992
 N678 N 0.84501 0.63250 0.81846
 C679 C 0.84256 0.62234 0.80731
 C680 C 0.83166 0.61132 0.81199
 C681 C 0.82787 0.61545 0.82643
 H682 H 0.84786 0.62322 0.79638
 H683 H 0.81915 0.60997 0.83361
 Cu684 Cu 0.85776 0.65143 0.81854
 Cu685 Cu 0.83500 0.64125 0.84774
 Cu686 Cu 0.86131 0.67236 0.85002
 N687 N 0.87424 0.66707 0.82091
 N688 N 0.87584 0.67513 0.83322
 C689 C 0.88756 0.68574 0.83133
 C690 C 0.89350 0.68419 0.81704
 C691 C 0.88480 0.67227 0.81079
 H692 H 0.89090 0.69443 0.83944
 H693 H 0.88573 0.66809 0.79951
 N694 N 0.84552 0.66756 0.86571
 N695 N 0.83553 0.65568 0.86478
 C696 C 0.82499 0.65656 0.87610
 C697 C 0.82847 0.66956 0.88456
 C698 C 0.84160 0.67628 0.87772
 H699 H 0.81483 0.64894 0.87756
 H700 H 0.84710 0.68730 0.88063
 H701 H 0.84225 0.66269 0.83902
 H702 H 0.85841 0.64882 0.84523
 N703 N 0.83471 0.12545 0.33927
 N704 N 0.84730 0.12805 0.33083
 C705 C 0.84656 0.11893 0.31867
 C706 C 0.83284 0.11008 0.31961
 C707 C 0.82560 0.11448 0.33284
 H708 H 0.85503 0.11916 0.30955
 H709 H 0.81414 0.11070 0.33707
 Cu710 Cu 0.86276 0.14400 0.33589
 Cu711 Cu 0.83002 0.13788 0.35694
 Cu712 Cu 0.85396 0.17024 0.36272
 N713 N 0.87433 0.16356 0.33766
 N714 N 0.87057 0.17399 0.34793
 C715 C 0.87939 0.18697 0.34585
 C716 C 0.88929 0.18446 0.33374
 C717 C 0.88578 0.16948 0.32879
 H718 H 0.87841 0.19760 0.35241
 H719 H 0.89057 0.16364 0.31904
 N720 N 0.83655 0.16430 0.37638
 N721 N 0.82732 0.15205 0.37409
 C722 C 0.81576 0.15184 0.38456
 C723 C 0.81788 0.16448 0.39391
 C724 C 0.83119 0.17213 0.38844
 H725 H 0.80610 0.14350 0.38506
 H726 H 0.83609 0.18303 0.39248
 H727 H 0.84051 0.15761 0.34791
 H728 H 0.85281 0.14593 0.36126
 N729 N 0.67332 0.36402 0.33980
 N730 N 0.66062 0.36577 0.33149
 C731 C 0.66380 0.37641 0.32081
 C732 C 0.67938 0.38142 0.32259
 C733 C 0.68502 0.37331 0.33468
 H734 H 0.65568 0.37970 0.31209
 H735 H 0.69692 0.37390 0.33920
 Cu736 Cu 0.64175 0.35289 0.33472
 Cu737 Cu 0.67414 0.34949 0.35632
 Cu738 Cu 0.64337 0.32307 0.35947
 N739 N 0.62633 0.33585 0.33463
 N740 N 0.62724 0.32417 0.34414
 C741 C 0.61628 0.31332 0.34073
 C742 C 0.60798 0.31848 0.32853
 C743 C 0.61462 0.33286 0.32492
 H744 H 0.61485 0.30218 0.34634
 H745 H 0.61181 0.34013 0.31547
 N746 N 0.66098 0.32396 0.37374
 N747 N 0.67283 0.33398 0.37235
 C748 C 0.68368 0.33102 0.38289
 C749 C 0.67842 0.31858 0.39132
 C750 C 0.66395 0.31435 0.38528
 H751 H 0.69490 0.33705 0.38406
 H752 H 0.65657 0.30457 0.38855
 H753 H 0.65967 0.33355 0.34555
 H754 H 0.64976 0.34648 0.35987
 N755 N 0.67570 0.87360 0.83580
 N756 N 0.66306 0.87416 0.82730
 C757 C 0.66549 0.88476 0.81646
 C758 C 0.68052 0.89109 0.81830
 C759 C 0.68663 0.88376 0.83065
 H760 H 0.65730 0.88703 0.80752
 H761 H 0.69843 0.88527 0.83518
 Cu762 Cu 0.64549 0.85973 0.83026
 Cu763 Cu 0.67769 0.85880 0.85213
 Cu764 Cu 0.64927 0.82965 0.85431
 N765 N 0.63175 0.84150 0.82939
 N766 N 0.63335 0.82975 0.83873
 C767 C 0.62349 0.81810 0.83479
 C768 C 0.61528 0.82281 0.82237
 C769 C 0.62078 0.83776 0.81922
 H770 H 0.62283 0.80675 0.84016
 H771 H 0.61774 0.84502 0.80983
 N772 N 0.66657 0.83171 0.86880
 N773 N 0.67752 0.84275 0.86783
 C774 C 0.68847 0.84032 0.87841
 C775 C 0.68423 0.82718 0.88640
 C776 C 0.67025 0.82200 0.88007
 H777 H 0.69915 0.84720 0.87985
 H778 H 0.66373 0.81150 0.88294
 H779 H 0.66494 0.84183 0.84100
 H780 H 0.65373 0.85354 0.85539
 N781 N 0.18041 0.36515 0.84203
 N782 N 0.17090 0.36515 0.83054
 C783 C 0.17524 0.37674 0.82125
 C784 C 0.18817 0.38439 0.82726
 C785 C 0.19111 0.37676 0.84045
 H786 H 0.17006 0.37879 0.81052
 H787 H 0.20076 0.37902 0.84801
 Cu788 Cu 0.15523 0.34871 0.82779
 Cu789 Cu 0.17885 0.34930 0.85756
 Cu790 Cu 0.16032 0.31505 0.84628
 N791 N 0.14011 0.33161 0.82588
 N792 N 0.14240 0.31828 0.83298
 C793 C 0.13176 0.30767 0.82831
 C794 C 0.12227 0.31470 0.81775
 C795 C 0.12786 0.32994 0.81647
 H796 H 0.13145 0.29550 0.83182
 H797 H 0.12400 0.33878 0.80865
 N798 N 0.17427 0.31610 0.86366
 N799 N 0.18089 0.32922 0.86830
 C800 C 0.18966 0.32604 0.88038
 C801 C 0.18844 0.31012 0.88343
 C802 C 0.17860 0.30423 0.87265
 H803 H 0.19678 0.33456 0.88618
 H804 H 0.17500 0.29211 0.87138
 H805 H 0.17560 0.33365 0.84103
 H806 H 0.15742 0.33771 0.85262
 N807 N 0.16918 0.85596 0.34373
 N808 N 0.15901 0.85709 0.33278
 C809 C 0.16373 0.86863 0.32356
 C810 C 0.17767 0.87496 0.32903
 C811 C 0.18077 0.86666 0.34182
 H812 H 0.15791 0.87159 0.31330
 H813 H 0.19099 0.86794 0.34894
 Cu814 Cu 0.14136 0.84243 0.33086
 Cu815 Cu 0.16709 0.83988 0.35904
 Cu816 Cu 0.14915 0.80671 0.34505
 N817 N 0.12774 0.82453 0.32667
 N818 N 0.13117 0.81055 0.33210
 C819 C 0.12095 0.79996 0.32671
 C820 C 0.11042 0.80768 0.31752
 C821 C 0.11502 0.82332 0.31770
 H822 H 0.12134 0.78748 0.32908
 H823 H 0.10998 0.83292 0.31135
 N824 N 0.16274 0.80638 0.36268
 N825 N 0.16894 0.81913 0.36855
 C826 C 0.17688 0.81508 0.38089
 C827 C 0.17556 0.79895 0.38278
 C828 C 0.16658 0.79386 0.37105
 H829 H 0.18342 0.82319 0.38771
 H830 H 0.16299 0.78188 0.36887
 H831 H 0.16297 0.82647 0.34130
 H832 H 0.14542 0.82838 0.35414
 C833 C 0.24019 1.03455 0.25295
 C834 C 0.25270 1.02643 0.24576
 C835 C 0.25304 1.00992 0.24603
 C836 C 0.24017 1.00134 0.25216
 C837 C 0.22734 1.00991 0.25875
 C838 C 0.22771 1.02638 0.25982
 C839 C 0.24015 0.98363 0.25170
 C840 C 0.23118 0.97484 0.26204
 C841 C 0.23119 0.95831 0.26164
 C842 C 0.24043 0.95035 0.25090
 C843 C 0.24944 0.95878 0.24048
 C844 C 0.24915 0.97529 0.24088
 H845 H 0.24020 1.04731 0.25327
 H846 H 0.26333 1.00394 0.24122
 H847 H 0.21709 1.00395 0.26335
 H848 H 0.22441 0.98066 0.27075
 H849 H 0.24058 0.93760 0.25065
 H850 H 0.25576 0.98149 0.23242
 C851 C 0.25012 0.53803 0.74501
 C852 C 0.25819 0.52986 0.73363
 C853 C 0.25874 0.51335 0.73392
 C854 C 0.25248 0.50496 0.74610
 C855 C 0.24514 0.51355 0.75776
 C856 C 0.24336 0.52995 0.75699
 C857 C 0.25362 0.48736 0.74671
 C858 C 0.24190 0.47861 0.75432
 C859 C 0.24327 0.46220 0.75555
 C860 C 0.25572 0.45426 0.74807
 C861 C 0.26710 0.46263 0.73985
 C862 C 0.26639 0.47914 0.73973
 H863 H 0.24924 0.55075 0.74461
 H864 H 0.26431 0.50717 0.72471
 H865 H 0.24060 0.50757 0.76746
 H866 H 0.23173 0.48447 0.75951
 H867 H 0.25651 0.44152 0.74856
 H868 H 0.27572 0.48545 0.73395
 C869 C 0.75428 -0.03839 0.24371
 C870 C 0.76668 -0.03065 0.25093
 C871 C 0.76777 -0.01427 0.24985
 C872 C 0.75583 -0.00532 0.24269
 C873 C 0.74320 -0.01333 0.23583
 C874 C 0.74272 -0.02984 0.23583
 C875 C 0.75653 0.01227 0.24262
 C876 C 0.75024 0.02111 0.23080
 C877 C 0.75044 0.03762 0.23106
 C878 C 0.75815 0.04538 0.24264
 C879 C 0.76486 0.03681 0.25431
 C880 C 0.76345 0.02039 0.25451
 H881 H 0.75364 -0.05111 0.24422
 H882 H 0.77784 -0.00854 0.25491
 H883 H 0.73377 -0.00684 0.23034
 H884 H 0.74489 0.01526 0.22147
 H885 H 0.75873 0.05812 0.24268
 H886 H 0.76793 0.01402 0.26399
 C887 C 0.75131 0.45084 0.75574
 C888 C 0.76369 0.45909 0.76249
 C889 C 0.76408 0.47555 0.76134
 C890 C 0.75148 0.48402 0.75461
 C891 C 0.73874 0.47544 0.74858
 C892 C 0.73901 0.45894 0.74845
 C893 C 0.75181 0.50164 0.75355
 C894 C 0.74394 0.50958 0.74196
 C895 C 0.74430 0.52602 0.74079
 C896 C 0.75311 0.53469 0.75100
 C897 C 0.76128 0.52709 0.76248
 C898 C 0.76014 0.51070 0.76398
 H899 H 0.75130 0.43809 0.75607
 H900 H 0.77424 0.48163 0.76581
 H901 H 0.72868 0.48146 0.74360
 H902 H 0.73765 0.50309 0.73358
 H903 H 0.75307 0.54743 0.75042
 H904 H 0.76590 0.50513 0.77329
 C905 C 0.26037 0.45758 0.24070
 C906 C 0.27193 0.46560 0.24880
 C907 C 0.27183 0.48210 0.24889
 C908 C 0.25938 0.49071 0.24213
 C909 C 0.24741 0.48234 0.23467
 C910 C 0.24822 0.46589 0.23341
 C911 C 0.25870 0.50830 0.24306
 C912 C 0.25150 0.51725 0.23177
 C913 C 0.25002 0.53365 0.23295
 C914 C 0.25706 0.54139 0.24488
 C915 C 0.26494 0.53282 0.25592
 C916 C 0.26513 0.51632 0.25529
 H917 H 0.26065 0.44483 0.24033
 H918 H 0.28129 0.48810 0.25461
 H919 H 0.23742 0.48851 0.22973
 H920 H 0.24673 0.51154 0.22209
 H921 H 0.25640 0.55411 0.24559
 H922 H 0.27049 0.50986 0.26430
 C923 C 0.73430 1.04454 0.73834
 C924 C 0.74290 1.03766 0.72655
 C925 C 0.74263 1.02127 0.72465
 C926 C 0.73480 1.01151 0.73500
 C927 C 0.72636 1.01875 0.74683
 C928 C 0.72590 1.03516 0.74843
 C929 C 0.73591 0.99390 0.73378
 C930 C 0.72401 0.98422 0.74004
 C931 C 0.72582 0.96779 0.74012
 C932 C 0.73878 0.96081 0.73251
 C933 C 0.75043 0.97014 0.72570
 C934 C 0.74929 0.98657 0.72688
 H935 H 0.73370 1.05724 0.73938
 H936 H 0.74880 1.01623 0.71516
 H937 H 0.72043 1.01174 0.75517
 H938 H 0.71349 0.98934 0.74531
 H939 H 0.73998 0.94810 0.73214
 H940 H 0.75894 0.99350 0.72238
 C941 C 0.74116 0.54013 0.24870
 C942 C 0.75353 0.53202 0.24127
 C943 C 0.75303 0.51555 0.24030
 C944 C 0.73954 0.50716 0.24540
 C945 C 0.72688 0.51579 0.25222
 C946 C 0.72802 0.53206 0.25453
 C947 C 0.73876 0.48956 0.24375
 C948 C 0.72917 0.48046 0.25334
 C949 C 0.72863 0.46401 0.25200
 C950 C 0.73788 0.45644 0.24103
 C951 C 0.74760 0.46516 0.23142
 C952 C 0.74783 0.48161 0.23272
 H953 H 0.74179 0.55279 0.25000
 H954 H 0.76319 0.50947 0.23536
 H955 H 0.71619 0.50997 0.25606
 H956 H 0.72245 0.48594 0.26227
 H957 H 0.73765 0.44374 0.24008
 H958 H 0.75502 0.48809 0.22487
 C959 C 0.24379 -0.04778 0.77489
 C960 C 0.25497 -0.03820 0.78187
 C961 C 0.25335 -0.02179 0.78096
 C962 C 0.23998 -0.01478 0.77408
 C963 C 0.22863 -0.02470 0.76751
 C964 C 0.23091 -0.04109 0.76722
 C965 C 0.23828 0.00278 0.77319
 C966 C 0.23038 0.00992 0.76118
 C967 C 0.22937 0.02633 0.75990
 C968 C 0.23650 0.03580 0.77060
 C969 C 0.24474 0.02903 0.78248
 C970 C 0.24509 0.01260 0.78399
 H971 H 0.24534 -0.06046 0.77520
 H972 H 0.26262 -0.01461 0.78566
 H973 H 0.21817 -0.01978 0.76220
 H974 H 0.22541 0.00284 0.75245
 H975 H 0.23537 0.04849 0.76984
 H976 H 0.25098 0.00756 0.79351
 C977 C 0.25601 0.25340 1.04022
 C978 C 0.24504 0.26134 1.03120
 C979 C 0.24692 0.26061 1.01581
 C980 C 0.25992 0.25235 1.00925
 C981 C 0.27115 0.24495 1.01861
 C982 C 0.26898 0.24502 1.03401
 C983 C 0.26154 0.25114 0.99276
 C984 C 0.26919 0.23793 0.98616
 C985 C 0.27108 0.23688 0.97079
 C986 C 0.26418 0.24845 0.96179
 C987 C 0.25569 0.26123 0.96800
 C988 C 0.25508 0.26290 0.98342
 H989 H 0.25482 0.25425 1.05212
 H990 H 0.23795 0.26627 1.00906
 H991 H 0.28157 0.23895 1.01403
 H992 H 0.27383 0.22841 0.99286
 H993 H 0.26529 0.24738 0.94989
 H994 H 0.24927 0.27328 0.98803
 C995 C 0.25222 0.74172 0.53951
 C996 C 0.24409 0.75380 0.53203
 C997 C 0.24405 0.75376 0.51653
 C998 C 0.25172 0.74157 0.50838
 C999 C 0.25934 0.72928 0.51623
 C1000 C 0.26007 0.72959 0.53169
 C1001 C 0.25189 0.74166 0.49179
 C1002 C 0.26454 0.73435 0.48375
 C1003 C 0.26435 0.73368 0.46828
 C1004 C 0.25196 0.74124 0.46065
 C1005 C 0.23954 0.74906 0.46833
 C1006 C 0.23945 0.74904 0.48383
 H1007 H 0.25201 0.74139 0.55147
 H1008 H 0.23824 0.76349 0.51094
 H1009 H 0.26491 0.71946 0.51043
 H1010 H 0.27459 0.72907 0.48942
 H1011 H 0.25240 0.74157 0.44869
 H1012 H 0.22948 0.75464 0.48956
 C1013 C 0.23628 0.74943 -0.03750
 C1014 C 0.24507 0.76115 -0.03044
 C1015 C 0.24444 0.76233 -0.01500
 C1016 C 0.23615 0.75117 -0.00638
 C1017 C 0.22751 0.73938 -0.01379
 C1018 C 0.22741 0.73858 -0.02926
 C1019 C 0.23715 0.75136 0.01019
 C1020 C 0.22515 0.74443 0.01905
 C1021 C 0.22685 0.74324 0.03440
 C1022 C 0.24008 0.75004 0.04119
 C1023 C 0.25184 0.75757 0.03273
 C1024 C 0.25045 0.75797 0.01732
 H1025 H 0.23593 0.74904 -0.04946
 H1026 H 0.25073 0.77189 -0.00982
 H1027 H 0.22121 0.73040 -0.00769
 H1028 H 0.21452 0.73968 0.01411
 H1029 H 0.24089 0.74998 0.05313
 H1030 H 0.26007 0.76319 0.01101
 C1031 C 0.23658 0.25485 0.46265
 C1032 C 0.24870 0.26241 0.47042
 C1033 C 0.24825 0.26245 0.48590
 C1034 C 0.23506 0.25624 0.49374
 C1035 C 0.22259 0.24944 0.48559
 C1036 C 0.22370 0.24803 0.47019
 C1037 C 0.23462 0.25633 0.51031
 C1038 C 0.22636 0.24454 0.51820
 C1039 C 0.22651 0.24410 0.53367
 C1040 C 0.23521 0.25538 0.54140
 C1041 C 0.24383 0.26698 0.53386
 C1042 C 0.24299 0.26777 0.51841
 H1043 H 0.23721 0.25418 0.45070
 H1044 H 0.25824 0.26744 0.49170
 H1045 H 0.21214 0.24480 0.49114
 H1046 H 0.22019 0.23529 0.51243
 H1047 H 0.23504 0.25533 0.55337
 H1048 H 0.24917 0.27719 0.51281
 C1049 C 0.74889 0.73981 1.03173
 C1050 C 0.73941 0.75103 1.02445
 C1051 C 0.74022 0.75211 1.00900
 C1052 C 0.75031 0.74197 1.00058
 C1053 C 0.75962 0.73068 1.00824
 C1054 C 0.75910 0.72969 1.02369
 C1055 C 0.75126 0.74323 0.98400
 C1056 C 0.76475 0.73736 0.97605
 C1057 C 0.76527 0.73769 0.96058
 C1058 C 0.75305 0.74544 0.95291
 C1059 C 0.73999 0.75219 0.96051
 C1060 C 0.73874 0.75034 0.97587
 H1061 H 0.74844 0.73907 1.04367
 H1062 H 0.73327 0.76131 1.00377
 H1063 H 0.76717 0.72233 1.00235
 H1064 H 0.77486 0.73222 0.98169
 H1065 H 0.75372 0.74622 0.94096
 H1066 H 0.72803 0.75473 0.98133
 C1067 C 0.74307 0.24480 0.54153
 C1068 C 0.73556 0.25654 0.53311
 C1069 C 0.73565 0.25528 0.51767
 C1070 C 0.74210 0.24177 0.51057
 C1071 C 0.74901 0.22981 0.51934
 C1072 C 0.75014 0.23160 0.53468
 C1073 C 0.74191 0.24026 0.49411
 C1074 C 0.75426 0.23198 0.48657
 C1075 C 0.75397 0.23013 0.47120
 C1076 C 0.74188 0.23760 0.46311
 C1077 C 0.72990 0.24655 0.47028
 C1078 C 0.72958 0.24728 0.48576
 H1079 H 0.74349 0.24601 0.55344
 H1080 H 0.73053 0.26481 0.51128
 H1081 H 0.75387 0.21920 0.51429
 H1082 H 0.76417 0.22687 0.49258
 H1083 H 0.74194 0.23668 0.45116
 H1084 H 0.71986 0.25363 0.49118
 C1085 C 0.75509 0.23987 -0.03987
 C1086 C 0.76213 0.25241 -0.03237
 C1087 C 0.76200 0.25253 -0.01689
 C1088 C 0.75637 0.23948 -0.00875
 C1089 C 0.75016 0.22660 -0.01665
 C1090 C 0.74875 0.22713 -0.03206
 C1091 C 0.75683 0.23940 0.00784
 C1092 C 0.74612 0.23014 0.01619
 C1093 C 0.74633 0.23026 0.03168
 C1094 C 0.75725 0.23983 0.03902
 C1095 C 0.76794 0.24920 0.03100
 C1096 C 0.76780 0.24880 0.01553
 H1097 H 0.75450 0.24004 -0.05183
 H1098 H 0.76653 0.26282 -0.01136
 H1099 H 0.74603 0.21620 -0.01096
 H1100 H 0.73716 0.22314 0.01082
 H1101 H 0.75731 0.24009 0.05098
 H1102 H 0.77653 0.25574 0.00963
 C1103 C 0.74867 0.75394 0.46417
 C1104 C 0.76094 0.76108 0.47208
 C1105 C 0.76142 0.75939 0.48747
 C1106 C 0.74899 0.75175 0.49521
 C1107 C 0.73646 0.74510 0.48701
 C1108 C 0.73663 0.74557 0.47152
 C1109 C 0.74903 0.75081 0.51173
 C1110 C 0.74172 0.73813 0.51915
 C1111 C 0.74092 0.73772 0.53462
 C1112 C 0.74862 0.74936 0.54282
 C1113 C 0.75672 0.76161 0.53570
 C1114 C 0.75628 0.76264 0.52025
 H1115 H 0.74853 0.75487 0.45224
 H1116 H 0.77142 0.76430 0.49332
 H1117 H 0.72661 0.73936 0.49255
 H1118 H 0.73639 0.72864 0.51301
 H1119 H 0.74831 0.74881 0.55477
 H1120 H 0.76178 0.77267 0.51496
 C1121 C 1.04425 0.24656 0.24589
 C1122 C 1.03654 0.23466 0.25388
 C1123 C 1.01978 0.23437 0.25437
 C1124 C 1.01055 0.24645 0.24782
 C1125 C 1.01861 0.25837 0.23999
 C1126 C 1.03532 0.25834 0.23876
 C1127 C 0.99269 0.24691 0.24948
 C1128 C 0.98305 0.25449 0.23890
 C1129 C 0.96647 0.25602 0.24098
 C1130 C 0.95919 0.24892 0.25327
 C1131 C 0.96844 0.24067 0.26362
 C1132 C 0.98511 0.24003 0.26183
 H1133 H 1.05715 0.24629 0.24474
 H1134 H 1.01406 0.22472 0.26006
 H1135 H 1.01202 0.26798 0.23498
 H1136 H 0.98833 0.25936 0.22896
 H1137 H 0.94628 0.24917 0.25434
 H1138 H 0.99207 0.23423 0.27029
 C1139 C 0.54901 0.25801 0.75863
 C1140 C 0.54045 0.24561 0.76501
 C1141 C 0.52370 0.24608 0.76486
 C1142 C 0.51534 0.25937 0.75946
 C1143 C 0.52423 0.27199 0.75367
 C1144 C 0.54095 0.27106 0.75264
 C1145 C 0.49745 0.25983 0.75946
 C1146 C 0.48904 0.26808 0.74840
 C1147 C 0.47228 0.26799 0.74800
 C1148 C 0.46380 0.25934 0.75863
 C1149 C 0.47191 0.25088 0.76961
 C1150 C 0.48861 0.25160 0.77026
 H1151 H 0.56195 0.25745 0.75818
 H1152 H 0.51727 0.23601 0.76906
 H1153 H 0.51823 0.28245 0.74958
 H1154 H 0.49543 0.27427 0.73977
 H1155 H 0.45086 0.25956 0.75865
 H1156 H 0.49465 0.24549 0.77912
 C1157 C -0.03560 0.27254 0.73218
 C1158 C -0.02639 0.28041 0.74264
 C1159 C -0.00967 0.27968 0.74152
 C1160 C -0.00190 0.27148 0.72981
 C1161 C -0.01156 0.26425 0.71905
 C1162 C -0.02827 0.26412 0.72059
 C1163 C 0.01603 0.26955 0.72944
 C1164 C 0.02341 0.25680 0.72181
 C1165 C 0.03998 0.25422 0.72230
 C1166 C 0.04938 0.26414 0.73091
 C1167 C 0.04240 0.27675 0.73876
 C1168 C 0.02596 0.27981 0.73744
 H1169 H -0.04852 0.27318 0.73292
 H1170 H -0.00294 0.28507 0.75027
 H1171 H -0.00628 0.25825 0.70962
 H1172 H 0.01640 0.24839 0.71579
 H1173 H 0.06222 0.26233 0.73120
 H1174 H 0.02103 0.29005 0.74304
 C1175 C 0.44964 0.26364 0.24313
 C1176 C 0.45711 0.27569 0.25100
 C1177 C 0.47371 0.27746 0.24975
 C1178 C 0.48324 0.26654 0.24170
 C1179 C 0.47541 0.25443 0.23396
 C1180 C 0.45871 0.25310 0.23441
 C1181 C 0.50120 0.26733 0.24194
 C1182 C 0.51061 0.26007 0.23075
 C1183 C 0.52729 0.25917 0.23182
 C1184 C 0.53489 0.26671 0.24355
 C1185 C 0.52592 0.27468 0.25445
 C1186 C 0.50918 0.27473 0.25374
 H1187 H 0.43673 0.26285 0.24341
 H1188 H 0.47907 0.28729 0.25536
 H1189 H 0.48214 0.24562 0.22781
 H1190 H 0.50512 0.25475 0.22123
 H1191 H 0.54783 0.26678 0.24391
 H1192 H 0.50257 0.28021 0.26274
 C1193 C 1.04658 0.77977 0.76272
 C1194 C 1.03974 0.77330 0.77554
 C1195 C 1.02323 0.77507 0.77808
 C1196 C 1.01323 0.78211 0.76741
 C1197 C 1.02044 0.78833 0.75453
 C1198 C 1.03702 0.78736 0.75223
 C1199 C 0.99535 0.78205 0.76921
 C1200 C 0.98559 0.79306 0.76168
 C1201 C 0.96889 0.79168 0.76173
 C1202 C 0.96173 0.78003 0.77044
 C1203 C 0.97108 0.76921 0.77833
 C1204 C 0.98778 0.77020 0.77762
 H1205 H 1.05943 0.77927 0.76110
 H1206 H 1.01827 0.77054 0.78829
 H1207 H 1.01326 0.79352 0.74590
 H1208 H 0.99085 0.80250 0.75535
 H1209 H 0.94882 0.77943 0.77116
 H1210 H 0.99472 0.76119 0.78314
 C1211 C 0.54840 0.76043 0.25416
 C1212 C 0.53927 0.74951 0.26211
 C1213 C 0.52254 0.75081 0.26205
 C1214 C 0.51483 0.76357 0.25501
 C1215 C 0.52429 0.77468 0.24747
 C1216 C 0.54097 0.77285 0.24653
 C1217 C 0.49700 0.76520 0.25540
 C1218 C 0.48875 0.77188 0.24337
 C1219 C 0.47208 0.77379 0.24381
 C1220 C 0.46344 0.76809 0.25599
 C1221 C 0.47127 0.76062 0.26774
 C1222 C 0.48803 0.75981 0.26767
 H1223 H 0.56131 0.75921 0.25387
 H1224 H 0.51562 0.74189 0.26766
 H1225 H 0.51875 0.78471 0.24210
 H1226 H 0.49522 0.77563 0.23359
 H1227 H 0.45052 0.76915 0.25616
 H1228 H 0.49399 0.75463 0.27708
 C1229 C -0.05574 0.75999 0.24148
 C1230 C -0.04785 0.77291 0.24759
 C1231 C -0.03138 0.77455 0.24517
 C1232 C -0.02236 0.76268 0.23786
 C1233 C -0.03049 0.74948 0.23228
 C1234 C -0.04717 0.74840 0.23354
 C1235 C -0.00452 0.76375 0.23658
 C1236 C 0.00390 0.75623 0.22488
 C1237 C 0.02065 0.75589 0.22450
 C1238 C 0.02912 0.76412 0.23526
 C1239 C 0.02108 0.77199 0.24681
 C1240 C 0.00434 0.77171 0.24747
 H1241 H -0.06854 0.75892 0.24302
 H1242 H -0.02562 0.78496 0.24937
 H1243 H -0.02395 0.73996 0.22691
 H1244 H -0.00246 0.75024 0.21621
 H1245 H 0.04205 0.76451 0.23452
 H1246 H -0.00163 0.77723 0.25683
 C1247 C 0.46133 0.77001 0.73678
 C1248 C 0.46997 0.77727 0.74803
 C1249 C 0.48671 0.77603 0.74794
 C1250 C 0.49498 0.76781 0.73656
 C1251 C 0.48598 0.76110 0.72508
 C1252 C 0.46923 0.76157 0.72549
 C1253 C 0.51276 0.76536 0.73718
 C1254 C 0.52007 0.75191 0.73071
 C1255 C 0.53657 0.74914 0.73174
 C1256 C 0.54592 0.75963 0.73984
 C1257 C 0.53891 0.77297 0.74656
 C1258 C 0.52253 0.77604 0.74474
 H1259 H 0.44841 0.77107 0.73668
 H1260 H 0.49309 0.78101 0.75714
 H1261 H 0.49186 0.75503 0.71597
 H1262 H 0.51299 0.74326 0.72503
 H1263 H 0.55873 0.75779 0.74044
 H1264 H 0.51747 0.78673 0.74948
 C1265 C 0.39281 0.31407 0.32203
 C1266 C 0.40190 0.32019 0.31043
 C1267 C 0.41062 0.31000 0.29985
 N1268 N 0.42099 0.31640 0.28997
 N1269 N 0.42879 0.30734 0.28018
 C1270 C 0.42640 0.29155 0.27984
 N1271 N 0.41596 0.28517 0.28965
 N1272 N 0.40823 0.29421 0.29949
 C1273 C 0.43487 0.28133 0.26913
 C1274 C 0.44784 0.28651 0.26071
 H1275 H 0.40267 0.33281 0.30898
 H1276 H 0.43136 0.26911 0.26852
 H1277 H 0.39272 0.30147 0.32390
 H1278 H 0.45228 0.29830 0.26241
 C1279 C 0.39846 0.80850 0.81619
 C1280 C 0.40938 0.81603 0.80691
 C1281 C 0.41955 0.80692 0.79652
 N1282 N 0.43215 0.81376 0.78957
 N1283 N 0.44113 0.80560 0.77990
 C1284 C 0.43775 0.79033 0.77678
 N1285 N 0.42513 0.78355 0.78367
 N1286 N 0.41624 0.79166 0.79339
 C1287 C 0.44692 0.78129 0.76565
 C1288 C 0.46164 0.78610 0.76000
 H1289 H 0.41053 0.82872 0.80720
 H1290 H 0.44194 0.77026 0.76194
 H1291 H 0.39833 0.79574 0.81634
 H1292 H 0.46748 0.79617 0.76483
 C1293 C -0.09240 0.31264 0.81483
 C1294 C -0.08368 0.32000 0.80368
 C1295 C -0.07402 0.31071 0.79303
 N1296 N -0.06273 0.31773 0.78450
 N1297 N -0.05421 0.30936 0.77464
 C1298 C -0.05678 0.29369 0.77290
 N1299 N -0.06813 0.28672 0.78136
 N1300 N -0.07654 0.29504 0.79128
 C1301 C -0.04815 0.28437 0.76162
 C1302 C -0.03412 0.28946 0.75479
 H1303 H -0.08383 0.33271 0.80280
 H1304 H -0.05290 0.27296 0.75878
 H1305 H -0.09118 0.30002 0.81630
 H1306 H -0.02836 0.29998 0.75877
 C1307 C -0.10727 0.81661 0.31948
 C1308 C -0.09945 0.82196 0.30679
 C1309 C -0.09113 0.81107 0.29655
 N1310 N -0.08188 0.81676 0.28541
 N1311 N -0.07457 0.80697 0.27589
 C1312 C -0.07638 0.79115 0.27713
 N1313 N -0.08570 0.78548 0.28821
 N1314 N -0.09292 0.79525 0.29776
 C1315 C -0.06855 0.78010 0.26674
 C1316 C -0.05653 0.78461 0.25688
 H1317 H -0.09951 0.83440 0.30420
 H1318 H -0.07174 0.76780 0.26754
 H1319 H -0.10644 0.80428 0.32244
 H1320 H -0.05226 0.79660 0.25712
 C1321 C 0.60130 0.69569 0.32416
 C1322 C 0.59297 0.69200 0.31138
 C1323 C 0.58434 0.70421 0.30299
 N1324 N 0.57337 0.70014 0.29275
 N1325 N 0.56575 0.71118 0.28495
 C1326 C 0.56897 0.72668 0.28701
 N1327 N 0.58002 0.73072 0.29715
 N1328 N 0.58751 0.71971 0.30503
 C1329 C 0.56110 0.73906 0.27827
 C1330 C 0.54705 0.73662 0.27046
 H1331 H 0.59267 0.67994 0.30749
 H1332 H 0.56617 0.75074 0.27858
 H1333 H 0.60052 0.70754 0.32859
 H1334 H 0.54098 0.72547 0.27147
 C1335 C 0.60038 0.18768 0.82473
 C1336 C 0.59338 0.18471 0.81112
 C1337 C 0.58537 0.19743 0.80289
 N1338 N 0.57487 0.19407 0.79202
 N1339 N 0.56755 0.20562 0.78463
 C1340 C 0.57062 0.22095 0.78776
 N1341 N 0.58127 0.22428 0.79849
 N1342 N 0.58845 0.21276 0.80594
 C1343 C 0.56278 0.23394 0.77982
 C1344 C 0.54880 0.23202 0.77178
 H1345 H 0.59349 0.17288 0.80661
 H1346 H 0.56757 0.24564 0.78124
 H1347 H 0.59909 0.19928 0.82965
 H1348 H 0.54306 0.22065 0.77170
 C1349 C 1.10703 0.70150 0.81160
 C1350 C 1.09862 0.71414 0.81789
 C1351 C 1.08908 0.72485 0.80856
 N1352 N 1.07875 0.73554 0.81469
 N1353 N 1.07017 0.74519 0.80616
 C1354 C 1.07172 0.74455 0.79119
 N1355 N 1.08212 0.73397 0.78511
 N1356 N 1.09060 0.72430 0.79361
 C1357 C 1.06249 0.75494 0.78140
 C1358 C 1.04957 0.76425 0.78617
 H1359 H 1.09902 0.71622 0.82969
 H1360 H 1.06545 0.75440 0.76972
 H1361 H 1.10587 0.69919 0.79988
 H1362 H 1.04565 0.76363 0.79760
 C1363 C 1.10096 0.18791 0.31793
 C1364 C 1.09251 0.18262 0.30575
 C1365 C 1.08414 0.19378 0.29600
 N1366 N 1.07285 0.18864 0.28652
 N1367 N 1.06513 0.19877 0.27780
 C1368 C 1.06854 0.21438 0.27817
 N1369 N 1.07995 0.21946 0.28750
 N1370 N 1.08757 0.20937 0.29628
 C1371 C 1.06008 0.22584 0.26883
 C1372 C 1.04575 0.22243 0.26185
 H1373 H 1.09167 0.17013 0.30353
 H1374 H 1.06468 0.23770 0.26839
 H1375 H 1.10079 0.20035 0.32064
 H1376 H 1.04036 0.21102 0.26355
 C1377 C 0.59816 0.31909 0.68364
 C1378 C 0.59258 0.32363 0.69759
 C1379 C 0.58461 0.31230 0.70740
 N1380 N 0.57576 0.31739 0.71918
 N1381 N 0.56861 0.30710 0.72813
 C1382 C 0.57024 0.29136 0.72568
 N1383 N 0.57923 0.28630 0.71401
 N1384 N 0.58623 0.29657 0.70501
 C1385 C 0.56251 0.27974 0.73528
 C1386 C 0.54975 0.28351 0.74473
 H1387 H 0.59399 0.33564 0.70134
 H1388 H 0.56616 0.26753 0.73394
 H1389 H 0.59561 0.30738 0.67957
 H1390 H 0.54494 0.29542 0.74487
 C1391 C 0.60951 0.81219 0.18035
 C1392 C 0.60060 0.81832 0.19219
 C1393 C 0.59082 0.80811 0.20173
 N1394 N 0.58007 0.81449 0.21146
 N1395 N 0.57132 0.80528 0.22024
 C1396 C 0.57311 0.78936 0.21967
 N1397 N 0.58393 0.78301 0.21003
 N1398 N 0.59258 0.79219 0.20120
 C1399 C 0.56385 0.77890 0.22937
 C1400 C 0.55043 0.78393 0.23747
 H1401 H 0.60067 0.83085 0.19444
 H1402 H 0.56731 0.76656 0.22953
 H1403 H 0.60860 0.79980 0.17764
 H1404 H 0.54600 0.79589 0.23613
 C1405 C 1.10368 0.32216 0.19257
 C1406 C 1.09256 0.31071 0.18907
 C1407 C 1.08321 0.30247 0.20043
 N1408 N 1.07018 0.29415 0.19649
 N1409 N 1.06201 0.28598 0.20652
 C1410 C 1.06667 0.28568 0.22085
 N1411 N 1.07975 0.29394 0.22480
 N1412 N 1.08783 0.30225 0.21478
 C1413 C 1.05833 0.27587 0.23177
 C1414 C 1.04308 0.27010 0.22916
 H1415 H 1.09060 0.30766 0.17761
 H1416 H 1.06435 0.27304 0.24199
 H1417 H 1.10467 0.32628 0.20386
 H1418 H 1.03648 0.27444 0.21973
 C1419 C 1.10460 0.81527 0.67976
 C1420 C 1.09452 0.82231 0.69028
 C1421 C 1.08401 0.81317 0.70007
 N1422 N 1.07273 0.82071 0.70845
 N1423 N 1.06395 0.81280 0.71824
 C1424 C 1.06623 0.79706 0.72010
 N1425 N 1.07748 0.78951 0.71171
 N1426 N 1.08618 0.79740 0.70183
 C1427 C 1.05761 0.78846 0.73176
 C1428 C 1.04422 0.79482 0.73903
 H1429 H 1.09471 0.83497 0.69178
 H1430 H 1.06212 0.77693 0.73488
 H1431 H 1.10353 0.80285 0.67728
 H1432 H 1.03870 0.80550 0.73485
 C1433 C 0.40297 0.69168 0.68725
 C1434 C 0.41260 0.70340 0.68129
 C1435 C 0.42166 0.71397 0.69093
 N1436 N 0.43287 0.72370 0.68515
 N1437 N 0.44087 0.73346 0.69388
 C1438 C 0.43782 0.73392 0.70866
 N1439 N 0.42654 0.72428 0.71438
 N1440 N 0.41864 0.71447 0.70570
 C1441 C 0.44632 0.74455 0.71859
 C1442 C 0.46015 0.75252 0.71448
 H1443 H 0.41336 0.70502 0.66944
 H1444 H 0.44207 0.74524 0.72993
 H1445 H 0.40297 0.68965 0.69907
 H1446 H 0.46534 0.75060 0.70359
 C1447 C 0.39088 0.18398 0.19567
 C1448 C 0.40090 0.19584 0.19059
 C1449 C 0.41067 0.20518 0.20075
 N1450 N 0.42258 0.21433 0.19537
 N1451 N 0.43112 0.22325 0.20442
 C1452 C 0.42798 0.22343 0.21919
 N1453 N 0.41603 0.21433 0.22456
 N1454 N 0.40758 0.20532 0.21553
 C1455 C 0.43664 0.23391 0.22922
 C1456 C 0.45094 0.24107 0.22514
 H1457 H 0.40169 0.19832 0.17888
 H1458 H 0.43160 0.23599 0.24014
 H1459 H 0.39103 0.18072 0.20724
 H1460 H 0.45681 0.23760 0.21488
 C1461 C -0.11333 0.69196 0.17892
 C1462 C -0.10326 0.68834 0.19064
 C1463 C -0.09468 0.70085 0.19848
 N1464 N -0.08200 0.69728 0.20718
 N1465 N -0.07417 0.70865 0.21417
 C1466 C -0.07884 0.72397 0.21279
 N1467 N -0.09159 0.72748 0.20423
 N1468 N -0.09932 0.71616 0.19717
 C1469 C -0.07057 0.73676 0.22044
 C1470 C -0.05545 0.73497 0.22663
 H1471 H -0.10129 0.67619 0.19382
 H1472 H -0.07628 0.74828 0.22042
 H1473 H -0.11426 0.70404 0.17516
 H1474 H -0.04902 0.72390 0.22529
 C1475 C -0.09883 0.19510 0.68684
 C1476 C -0.08930 0.20670 0.68050
 C1477 C -0.07904 0.21673 0.68958
 N1478 N -0.06828 0.22645 0.68307
 N1479 N -0.05921 0.23582 0.69124
 C1480 C -0.06069 0.23588 0.70621
 N1481 N -0.07150 0.22624 0.71268
 N1482 N -0.08047 0.21682 0.70453
 C1483 C -0.05116 0.24629 0.71554
 C1484 C -0.03792 0.25459 0.71037
 H1485 H -0.08946 0.20861 0.66868
 H1486 H -0.05429 0.24682 0.72718
 H1487 H -0.09797 0.19270 0.69856
 H1488 H -0.03373 0.25285 0.69911
 C1489 C 0.31076 0.40532 0.32013
 C1490 C 0.31767 0.41261 0.30788
 C1491 C 0.30771 0.42108 0.29712
 N1492 N 0.31444 0.43084 0.28700
 N1493 N 0.30540 0.43824 0.27706
 C1494 C 0.28934 0.43597 0.27682
 N1495 N 0.28267 0.42614 0.28686
 N1496 N 0.29167 0.41887 0.29684
 C1497 C 0.27902 0.44377 0.26599
 C1498 C 0.28365 0.45692 0.25789
 H1499 H 0.33047 0.41196 0.30605
 H1500 H 0.26681 0.43973 0.26528
 H1501 H 0.29810 0.40698 0.32238
 H1502 H 0.29527 0.46203 0.25975
 C1503 C 0.31527 -0.09978 0.83893
 C1504 C 0.31743 -0.09214 0.82543
 C1505 C 0.30446 -0.08260 0.81898
 N1506 N 0.30749 -0.07259 0.80762
 N1507 N 0.29559 -0.06457 0.80128
 C1508 C 0.28024 -0.06641 0.80597
 N1509 N 0.27722 -0.07646 0.81726
 N1510 N 0.28911 -0.08435 0.82368
 C1511 C 0.26682 -0.05851 0.79858
 C1512 C 0.26869 -0.04527 0.78970
 H1513 H 0.32851 -0.09354 0.81923
 H1514 H 0.25494 -0.06311 0.80047
 H1515 H 0.30464 -0.09707 0.84546
 H1516 H 0.28017 -0.03950 0.78913
 C1517 C 0.81432 0.39488 0.82484
 C1518 C 0.81874 0.40331 0.81223
 C1519 C 0.80688 0.41261 0.80393
 N1520 N 0.81168 0.42296 0.79340
 N1521 N 0.80095 0.43111 0.78562
 C1522 C 0.78503 0.42908 0.78802
 N1523 N 0.78026 0.41868 0.79848
 N1524 N 0.79097 0.41064 0.80632
 C1525 C 0.77292 0.43754 0.77935
 C1526 C 0.77638 0.45066 0.77068
 H1527 H 0.83100 0.40304 0.80826
 H1528 H 0.76066 0.43368 0.78037
 H1529 H 0.80223 0.39622 0.82913
 H1530 H 0.78827 0.45557 0.77088
 C1531 C 0.80911 -0.09267 0.31961
 C1532 C 0.81488 -0.08599 0.30655
 C1533 C 0.80424 -0.07684 0.29685
 N1534 N 0.81039 -0.06762 0.28600
 N1535 N 0.80074 -0.05955 0.27704
 C1536 C 0.78459 -0.06057 0.27855
 N1537 N 0.77848 -0.06989 0.28931
 N1538 N 0.78811 -0.07784 0.29832
 C1539 C 0.77364 -0.05208 0.26871
 C1540 C 0.77840 -0.03951 0.25987
 H1541 H 0.82730 -0.08749 0.30329
 H1542 H 0.76114 -0.05527 0.26912
 H1543 H 0.79694 -0.08999 0.32314
 H1544 H 0.79048 -0.03516 0.26066
 C1545 C 0.31821 0.60110 0.68801
 C1546 C 0.30654 0.59080 0.68310
 C1547 C 0.29830 0.58042 0.69371
 N1548 N 0.28877 0.56861 0.68902
 N1549 N 0.28118 0.55946 0.69876
 C1550 C 0.28282 0.56190 0.71353
 N1551 N 0.29226 0.57373 0.71816
 N1552 N 0.29988 0.58277 0.70847
 C1553 C 0.27429 0.55254 0.72465
 C1554 C 0.26637 0.53855 0.72163
 H1555 H 0.30332 0.59048 0.67155
 H1556 H 0.27480 0.55667 0.73597
 H1557 H 0.32177 0.60066 0.69948
 H1558 H 0.26723 0.53337 0.71069
 C1559 C 0.30179 1.09549 0.18730
 C1560 C 0.30635 1.08680 0.19964
 C1561 C 0.29490 1.07641 0.20721
 N1562 N 0.29998 1.06570 0.21732
 N1563 N 0.28953 1.05656 0.22440
 C1564 C 0.27361 1.05793 0.22168
 N1565 N 0.26857 1.06869 0.21165
 N1566 N 0.27900 1.07770 0.20451
 C1567 C 0.26168 1.04860 0.22972
 C1568 C 0.26540 1.03516 0.23789
 H1569 H 0.31839 1.08765 0.20383
 H1570 H 0.24927 1.05224 0.22871
 H1571 H 0.29007 1.09372 0.18264
 H1572 H 0.27748 1.03039 0.23763
 C1573 C 0.80670 0.59633 0.18235
 C1574 C 0.81086 0.58947 0.19576
 C1575 C 0.79890 0.58051 0.20425
 N1576 N 0.80345 0.56934 0.21414
 N1577 N 0.79250 0.56107 0.22153
 C1578 C 0.77664 0.56381 0.21937
 N1579 N 0.77215 0.57513 0.20967
 N1580 N 0.78306 0.58325 0.20220
 C1581 C 0.76421 0.55511 0.22738
 C1582 C 0.76690 0.54068 0.23434
 H1583 H 0.82299 0.59021 0.19975
 H1584 H 0.75212 0.55979 0.22685
 H1585 H 0.79494 0.59419 0.17790
 H1586 H 0.77857 0.53504 0.23345
 C1587 C 0.80998 1.10867 0.68945
 C1588 C 0.79803 1.09920 0.68373
 C1589 C 0.78834 1.08902 0.69336
 N1590 N 0.77865 1.07802 0.68742
 N1591 N 0.76972 1.06890 0.69611
 C1592 C 0.77009 1.07054 0.71105
 N1593 N 0.77968 1.08161 0.71695
 N1594 N 0.78867 1.09065 0.70829
 C1595 C 0.76018 1.06086 0.72090
 C1596 C 0.75225 1.04743 0.71615
 H1597 H 0.79574 1.09917 0.67197
 H1598 H 0.75975 1.06407 0.73249
 H1599 H 0.81279 1.10796 0.70109
 H1600 H 0.75400 1.04332 0.70490
 C1601 C 0.68415 0.59846 0.32003
 C1602 C 0.67814 0.59033 0.30794
 C1603 C 0.68874 0.57982 0.29915
 N1604 N 0.68285 0.57055 0.28827
 N1605 N 0.69266 0.56150 0.28005
 C1606 C 0.70870 0.56150 0.28240
 N1607 N 0.71453 0.57077 0.29323
 N1608 N 0.70476 0.57970 0.30146
 C1609 C 0.72003 0.55236 0.27321
 C1610 C 0.71565 0.54057 0.26335
 H1611 H 0.66585 0.59208 0.30461
 H1612 H 0.73261 0.55479 0.27464
 H1613 H 0.69632 0.59610 0.32346
 H1614 H 0.70333 0.53679 0.26295
 C1615 C 0.68610 1.09731 0.81971
 C1616 C 0.68019 1.08951 0.80739
 C1617 C 0.69081 1.08031 0.79750
 N1618 N 0.68460 1.06967 0.78801
 N1619 N 0.69410 1.06165 0.77868
 C1620 C 0.71013 1.06409 0.77843
 N1621 N 0.71631 1.07480 0.78786
 N1622 N 0.70684 1.08270 0.79727
 C1623 C 0.72065 1.05601 0.76767
 C1624 C 0.71608 1.04235 0.76037
 H1625 H 0.66756 1.09000 0.80492
 H1626 H 0.73236 1.06087 0.76554
 H1627 H 0.69851 1.09548 0.82268
 H1628 H 0.70518 1.03651 0.76375
 C1629 C 0.18322 0.60218 0.80388
 C1630 C 0.19460 0.59101 0.80818
 C1631 C 0.20208 0.58023 0.79726
 N1632 N 0.21244 0.56874 0.80160
 N1633 N 0.21966 0.55939 0.79164
 C1634 C 0.21681 0.56127 0.77698
 N1635 N 0.20646 0.57274 0.77268
 N1636 N 0.19921 0.58201 0.78261
 C1637 C 0.22515 0.55176 0.76565
 C1638 C 0.23461 0.53859 0.76884
 H1639 H 0.19845 0.59046 0.81955
 H1640 H 0.22357 0.55524 0.75424
 H1641 H 0.17914 0.60227 0.79256
 H1642 H 0.23494 0.53406 0.78002
 C1643 C 0.18114 1.09205 0.32441
 C1644 C 0.17593 1.08431 0.31178
 C1645 C 0.18704 1.07436 0.30300
 N1646 N 0.18150 1.06452 0.29241
 N1647 N 0.19165 1.05578 0.28426
 C1648 C 0.20768 1.05671 0.28636
 N1649 N 0.21317 1.06661 0.29686
 N1650 N 0.20306 1.07522 0.30505
 C1651 C 0.21926 1.04775 0.27727
 C1652 C 0.21523 1.03499 0.26839
 H1653 H 0.16367 1.08565 0.30823
 H1654 H 0.23171 1.05100 0.27813
 H1655 H 0.19314 1.08980 0.32836
 H1656 H 0.20315 1.03051 0.26871
 C1657 C 0.69194 0.39810 0.68201
 C1658 C 0.68677 0.40707 0.69411
 C1659 C 0.69812 0.41496 0.70388
 N1660 N 0.69278 0.42570 0.71399
 N1661 N 0.70298 0.43277 0.72300
 C1662 C 0.71886 0.42925 0.72230
 N1663 N 0.72416 0.41843 0.71229
 N1664 N 0.71400 0.41144 0.70323
 C1665 C 0.73038 0.43691 0.73205
 C1666 C 0.72661 0.45040 0.74026
 H1667 H 0.67411 0.40841 0.69649
 H1668 H 0.74255 0.43240 0.73191
 H1669 H 0.70455 0.39758 0.67917
 H1670 H 0.71486 0.45580 0.73923
 C1671 C 0.69510 -0.09713 0.17566
 C1672 C 0.68973 -0.08836 0.18780
 C1673 C 0.70099 -0.07858 0.19611
 N1674 N 0.69562 -0.06725 0.20563
 N1675 N 0.70594 -0.05856 0.21319
 C1676 C 0.72196 -0.06101 0.21156
 N1677 N 0.72727 -0.07240 0.20216
 N1678 N 0.71700 -0.08097 0.19455
 C1679 C 0.73370 -0.05211 0.22005
 C1680 C 0.73017 -0.03812 0.22756
 H1681 H 0.67727 -0.08863 0.19118
 H1682 H 0.74592 -0.05653 0.21984
 H1683 H 0.70734 -0.09583 0.17185
 H1684 H 0.71848 -0.03264 0.22647
 C1685 C 0.19841 0.39916 0.17345
 C1686 C 0.19411 0.40929 0.18499
 C1687 C 0.20600 0.41872 0.19280
 N1688 N 0.20116 0.43007 0.20251
 N1689 N 0.21184 0.43833 0.21000
 C1690 C 0.22776 0.43546 0.20813
 N1691 N 0.23258 0.42409 0.19846
 N1692 N 0.22192 0.41590 0.19090
 C1693 C 0.23973 0.44403 0.21664
 C1694 C 0.23599 0.45755 0.22482
 H1695 H 0.18172 0.41028 0.18851
 H1696 H 0.25199 0.43977 0.21610
 H1697 H 0.21062 0.39893 0.16932
 H1698 H 0.22410 0.46270 0.22415
 C1699 C 0.19902 -0.10809 0.69807
 C1700 C 0.19118 -0.09820 0.70820
 C1701 C 0.20016 -0.08927 0.71927
 N1702 N 0.19265 -0.07828 0.72789
 N1703 N 0.20077 -0.07020 0.73794
 C1704 C 0.21668 -0.07293 0.73977
 N1705 N 0.22412 -0.08398 0.73123
 N1706 N 0.21603 -0.09198 0.72117
 C1707 C 0.22609 -0.06411 0.75055
 C1708 C 0.22023 -0.05091 0.75818
 H1709 H 0.17828 -0.09698 0.70805
 H1710 H 0.23853 -0.06754 0.75164
 H1711 H 0.21196 -0.10877 0.69798
 H1712 H 0.20820 -0.04668 0.75607
 C1713 C 0.30175 0.32316 0.40712
 C1714 C 0.30572 0.30977 0.41523
 C1715 C 0.29369 0.30201 0.42461
 N1716 N 0.29813 0.29105 0.43474
 N1717 N 0.28715 0.28376 0.44296
 C1718 C 0.27134 0.28710 0.44123
 N1719 N 0.26693 0.29798 0.43106
 N1720 N 0.27789 0.30533 0.42295
 C1721 C 0.25889 0.27883 0.44960
 C1722 C 0.26187 0.27027 0.46242
 H1723 H 0.31774 0.30490 0.41467
 H1724 H 0.24670 0.28008 0.44578
 H1725 H 0.29002 0.32855 0.40857
 H1726 H 0.27366 0.27040 0.46726
 C1727 C 0.31296 0.80038 -0.09727
 C1728 C 0.30368 0.80646 -0.08566
 C1729 C 0.29333 0.79627 -0.07667
 N1730 N 0.28497 0.80231 -0.06498
 N1731 N 0.27531 0.79319 -0.05699
 C1732 C 0.27363 0.77773 -0.06047
 N1733 N 0.28196 0.77173 -0.07216
 N1734 N 0.29163 0.78081 -0.08010
 C1735 C 0.26294 0.76742 -0.05202
 C1736 C 0.25515 0.77213 -0.03901
 H1737 H 0.30373 0.81895 -0.08326
 H1738 H 0.26170 0.75545 -0.05596
 H1739 H 0.31311 0.78781 -0.09937
 H1740 H 0.25752 0.78364 -0.03439
 C1741 C 0.82560 0.30376 -0.09493
 C1742 C 0.81215 0.30792 -0.08651
 C1743 C 0.80380 0.29615 -0.07745
 N1744 N 0.79248 0.30067 -0.06737
 N1745 N 0.78460 0.28995 -0.05948
 C1746 C 0.78766 0.27433 -0.06150
 N1747 N 0.79890 0.26985 -0.07162
 N1748 N 0.80684 0.28054 -0.07941
 C1749 C 0.77890 0.26219 -0.05333
 C1750 C 0.76986 0.26532 -0.04060
 H1751 H 0.80749 0.31987 -0.08676
 H1752 H 0.78036 0.25013 -0.05709
 H1753 H 0.83073 0.29204 -0.09387
 H1754 H 0.76976 0.27705 -0.03587
 C1755 C 0.80782 0.82727 0.40921
 C1756 C 0.81273 0.81397 0.41703
 C1757 C 0.80158 0.80569 0.42693
 N1758 N 0.80693 0.79415 0.43608
 N1759 N 0.79671 0.78619 0.44458
 C1760 C 0.78077 0.78943 0.44414
 N1761 N 0.77544 0.80093 0.43498
 N1762 N 0.78565 0.80894 0.42659
 C1763 C 0.76910 0.78030 0.45268
 C1764 C 0.77325 0.77036 0.46430
 H1765 H 0.82475 0.80930 0.41558
 H1766 H 0.75661 0.78174 0.44985
 H1767 H 0.79609 0.83237 0.41141
 H1768 H 0.78541 0.77016 0.46833
 C1769 C 0.67444 0.31516 0.59333
 C1770 C 0.68901 0.31735 0.58606
 C1771 C 0.69625 0.30473 0.57694
 N1772 N 0.70830 0.30789 0.56726
 N1773 N 0.71523 0.29634 0.55938
 C1774 C 0.71045 0.28120 0.56105
 N1775 N 0.69849 0.27805 0.57080
 N1776 N 0.69147 0.28960 0.57854
 C1777 C 0.71840 0.26813 0.55315
 C1778 C 0.72766 0.27016 0.54042
 H1779 H 0.69531 0.32833 0.58724
 H1780 H 0.71643 0.25632 0.55728
 H1781 H 0.66765 0.30465 0.59113
 H1782 H 0.72817 0.28162 0.53520
 C1783 C 0.69607 0.81581 1.09171
 C1784 C 0.69056 0.80330 1.08330
 C1785 C 0.70146 0.79444 1.07336
 N1786 N 0.69559 0.78530 1.06240
 N1787 N 0.70547 0.77701 1.05361
 C1788 C 0.72155 0.77746 1.05557
 N1789 N 0.72738 0.78649 1.06660
 N1790 N 0.71753 0.79489 1.07528
 C1791 C 0.73262 0.76782 1.04654
 C1792 C 0.72845 0.76159 1.03287
 H1793 H 0.67810 0.80001 1.08393
 H1794 H 0.74461 0.76589 1.05065
 H1795 H 0.70821 0.81983 1.09005
 H1796 H 0.71719 0.76502 1.02795
 C1797 C 0.17685 0.30642 1.09550
 C1798 C 0.18816 0.31100 1.08500
 C1799 C 0.19658 0.29949 1.07546
 N1800 N 0.20559 0.30451 1.06387
 N1801 N 0.21414 0.29429 1.05575
 C1802 C 0.21410 0.27867 1.05901
 N1803 N 0.20508 0.27365 1.07059
 N1804 N 0.19642 0.28386 1.07863
 C1805 C 0.22458 0.26746 1.05104
 C1806 C 0.23213 0.27126 1.03773
 H1807 H 0.19130 0.32329 1.08402
 H1808 H 0.22677 0.25605 1.05602
 H1809 H 0.17277 0.29436 1.09569
 H1810 H 0.22862 0.28191 1.03196
 C1811 C 0.20586 0.81227 0.60682
 C1812 C 0.19970 0.80516 0.59424
 C1813 C 0.21022 0.79697 0.58345
 N1814 N 0.20424 0.79142 0.57058
 N1815 N 0.21361 0.78353 0.56103
 C1816 C 0.22931 0.78088 0.56403
 N1817 N 0.23527 0.78645 0.57687
 N1818 N 0.22594 0.79438 0.58637
 C1819 C 0.23961 0.77117 0.55428
 C1820 C 0.23494 0.76603 0.54034
 H1821 H 0.18695 0.80552 0.59227
 H1822 H 0.25116 0.76756 0.55849
 H1823 H 0.21869 0.81248 0.60833
 H1824 H 0.22420 0.77092 0.53545
 C1825 C 0.32559 0.68237 0.59516
 C1826 C 0.31184 0.67777 0.58782
 C1827 C 0.30356 0.68878 0.57782
 N1828 N 0.29202 0.68366 0.56858
 N1829 N 0.28413 0.69382 0.55998
 C1830 C 0.28743 0.70945 0.56045
 N1831 N 0.29889 0.71453 0.56973
 N1832 N 0.30684 0.70440 0.57820
 C1833 C 0.27839 0.72108 0.55181
 C1834 C 0.26909 0.71723 0.53966
 H1835 H 0.30683 0.66625 0.58976
 H1836 H 0.27951 0.73335 0.55492
 H1837 H 0.33096 0.69354 0.59237
 H1838 H 0.26931 0.70530 0.53538
 C1839 C 0.30928 0.18259 1.10376
 C1840 C 0.31515 0.19543 1.09590
 C1841 C 0.30494 0.20388 1.08525
 N1842 N 0.31137 0.21399 1.07527
 N1843 N 0.30204 0.22178 1.06581
 C1844 C 0.28592 0.21981 1.06610
 N1845 N 0.27953 0.20981 1.07614
 N1846 N 0.28884 0.20195 1.08549
 C1847 C 0.27520 0.22861 1.05624
 C1848 C 0.28040 0.23640 1.04353
 H1849 H 0.32728 0.19932 1.09756
 H1850 H 0.26253 0.22838 1.05882
 H1851 H 0.29751 0.17821 1.10122
 H1852 H 0.29278 0.23524 1.03999
 C1853 C 0.80668 0.66764 1.08999
 C1854 C 0.81052 0.68068 1.08142
 C1855 C 0.79897 0.68779 1.07118
 N1856 N 0.80403 0.69791 1.06057
 N1857 N 0.79356 0.70505 1.05174
 C1858 C 0.77763 0.70245 1.05331
 N1859 N 0.77257 0.69238 1.06396
 N1860 N 0.78305 0.68512 1.07268
 C1861 C 0.76587 0.71119 1.04445
 C1862 C 0.77008 0.71872 1.03133
 H1863 H 0.82221 0.68593 1.08234
 H1864 H 0.75364 0.71186 1.04847
 H1865 H 0.79556 0.66156 1.08812
 H1866 H 0.78179 0.71651 1.02646
 C1867 C 0.81942 0.18840 0.59729
 C1868 C 0.80573 0.18325 0.59020
 C1869 C 0.79665 0.19378 0.58038
 N1870 N 0.78475 0.18808 0.57187
 N1871 N 0.77606 0.19774 0.56347
 C1872 C 0.77888 0.21347 0.56340
 N1873 N 0.79072 0.21915 0.57194
 N1874 N 0.79947 0.20949 0.58024
 C1875 C 0.76913 0.22452 0.55475
 C1876 C 0.75910 0.21982 0.54340
 H1877 H 0.80128 0.17152 0.59224
 H1878 H 0.77047 0.23697 0.55701
 H1879 H 0.82430 0.19979 0.59449
 H1880 H 0.75901 0.20758 0.53999
 C1881 C 0.69079 0.68521 0.40381
 C1882 C 0.68502 0.69613 0.41415
 C1883 C 0.69612 0.70461 0.42378
 N1884 N 0.69055 0.71364 0.43518
 N1885 N 0.70067 0.72153 0.44369
 C1886 C 0.71669 0.72072 0.44101
 N1887 N 0.72220 0.71177 0.42959
 N1888 N 0.71213 0.70385 0.42117
 C1889 C 0.72818 0.72958 0.44982
 C1890 C 0.72430 0.73712 0.46310
 H1891 H 0.67232 0.69862 0.41507
 H1892 H 0.74045 0.72961 0.44586
 H1893 H 0.70345 0.68233 0.40351
 H1894 H 0.71249 0.73577 0.46793
 C1895 C 0.67936 0.17771 -0.08919
 C1896 C 0.69427 0.17385 -0.08341
 C1897 C 0.70308 0.18519 -0.07440
 N1898 N 0.71601 0.18048 -0.06652
 N1899 N 0.72438 0.19089 -0.05884
 C1900 C 0.72020 0.20641 -0.05891
 N1901 N 0.70734 0.21110 -0.06684
 N1902 N 0.69890 0.20070 -0.07439
 C1903 C 0.72954 0.21825 -0.05109
 C1904 C 0.74025 0.21453 -0.03989
 H1905 H 0.69979 0.16252 -0.08583
 H1906 H 0.72731 0.23050 -0.05380
 H1907 H 0.67343 0.18857 -0.08583
 H1908 H 0.74120 0.20253 -0.03591
 C1909 C 0.18830 0.67587 -0.09901
 C1910 C 0.18253 0.68725 -0.08914
 C1911 C 0.19297 0.69458 -0.07816
 N1912 N 0.18657 0.70360 -0.06714
 N1913 N 0.19601 0.71113 -0.05774
 C1914 C 0.21218 0.70999 -0.05911
 N1915 N 0.21855 0.70096 -0.07012
 N1916 N 0.20913 0.69334 -0.07942
 C1917 C 0.22276 0.71940 -0.04982
 C1918 C 0.21757 0.72673 -0.03680
 H1919 H 0.17020 0.69123 -0.08974
 H1920 H 0.23497 0.72100 -0.05361
 H1921 H 0.20024 0.67103 -0.09764
 H1922 H 0.20604 0.72379 -0.03205
 C1923 C 0.17938 0.17806 0.41010
 C1924 C 0.17423 0.19193 0.41702
 C1925 C 0.18501 0.20104 0.42641
 N1926 N 0.17922 0.21311 0.43485
 N1927 N 0.18907 0.22184 0.44286
 C1928 C 0.20508 0.21888 0.44259
 N1929 N 0.21084 0.20686 0.43412
 N1930 N 0.20100 0.19808 0.42622
 C1931 C 0.21632 0.22867 0.45076
 C1932 C 0.21164 0.23895 0.46208
 H1933 H 0.16226 0.19646 0.41518
 H1934 H 0.22892 0.22721 0.44814
 H1935 H 0.19098 0.17306 0.41276
 H1936 H 0.19932 0.23920 0.46592
 C1937 C 0.31554 0.39782 0.67558
 C1938 C 0.32027 0.40567 0.68831
 C1939 C 0.30882 0.41529 0.69703
 N1940 N 0.31407 0.42554 0.70740
 N1941 N 0.30368 0.43390 0.71562
 C1942 C 0.28768 0.43217 0.71384
 N1943 N 0.28246 0.42186 0.70355
 N1944 N 0.29283 0.41363 0.69526
 C1945 C 0.27593 0.44074 0.72310
 C1946 C 0.27959 0.45421 0.73115
 H1947 H 0.33249 0.40463 0.69206
 H1948 H 0.26370 0.43668 0.72298
 H1949 H 0.30365 0.39989 0.67131
 H1950 H 0.29131 0.45939 0.72999
 C1951 C 0.29510 0.88951 0.17775
 C1952 C 0.29974 0.90141 0.18736
 C1953 C 0.28815 0.91073 0.19618
 N1954 N 0.29306 0.92367 0.20359
 N1955 N 0.28287 0.93190 0.21209
 C1956 C 0.26739 0.92743 0.21357
 N1957 N 0.26248 0.91446 0.20618
 N1958 N 0.27265 0.90628 0.19761
 C1959 C 0.25622 0.93595 0.22349
 C1960 C 0.25981 0.95064 0.22945
 H1961 H 0.31231 0.90406 0.18847
 H1962 H 0.24486 0.93056 0.22606
 H1963 H 0.28252 0.88759 0.17578
 H1964 H 0.27045 0.95663 0.22563
 C1965 C 0.79760 0.39403 0.17379
 C1966 C 0.80155 0.40548 0.18413
 C1967 C 0.78933 0.41565 0.19123
 N1968 N 0.79381 0.42835 0.19925
 N1969 N 0.78291 0.43726 0.20627
 C1970 C 0.76713 0.43375 0.20561
 N1971 N 0.76265 0.42104 0.19761
 N1972 N 0.77354 0.41220 0.19050
 C1973 C 0.75509 0.44279 0.21417
 C1974 C 0.75851 0.45725 0.22068
 H1975 H 0.81393 0.40705 0.18714
 H1976 H 0.74333 0.43776 0.21556
 H1977 H 0.78540 0.39324 0.16998
 H1978 H 0.76966 0.46296 0.21792
 C1979 C 0.81058 0.90733 0.66812
 C1980 C 0.81301 0.91625 0.68082
 C1981 C 0.79991 0.92551 0.68766
 N1982 N 0.80299 0.93619 0.69841
 N1983 N 0.79107 0.94411 0.70508
 C1984 C 0.77563 0.94150 0.70132
 N1985 N 0.77257 0.93078 0.69063
 N1986 N 0.78448 0.92298 0.68389
 C1987 C 0.76224 0.94943 0.70902
 C1988 C 0.76414 0.96281 0.71775
 H1989 H 0.82459 0.91615 0.68605
 H1990 H 0.75037 0.94477 0.70745
 H1991 H 0.79931 0.90834 0.66239
 H1992 H 0.77564 0.96853 0.71804
 C1993 C 0.70051 0.59666 0.67978
 C1994 C 0.69551 0.58566 0.69020
 C1995 C 0.70692 0.57549 0.69811
 N1996 N 0.70155 0.56301 0.70599
 N1997 N 0.71167 0.55410 0.71371
 C1998 C 0.72752 0.55742 0.71391
 N1999 N 0.73288 0.56992 0.70605
 N2000 N 0.72278 0.57876 0.69824
 C2001 C 0.73863 0.54837 0.72321
 C2002 C 0.73450 0.53396 0.72945
 H2003 H 0.68288 0.58439 0.69262
 H2004 H 0.75025 0.55333 0.72536
 H2005 H 0.71299 0.59707 0.67650
 H2006 H 0.72362 0.52829 0.72597
 C2007 C 0.68411 0.10437 0.18648
 C2008 C 0.69792 0.09631 0.18192
 C2009 C 0.70714 0.08672 0.19245
 N2010 N 0.71815 0.07596 0.18758
 N2011 N 0.72656 0.06737 0.19718
 C2012 C 0.72433 0.06938 0.21197
 N2013 N 0.71345 0.08022 0.21680
 N2014 N 0.70498 0.08869 0.20723
 C2015 C 0.73356 0.06037 0.22285
 C2016 C 0.74218 0.04667 0.21940
 H2017 H 0.70196 0.09693 0.17053
 H2018 H 0.73276 0.06425 0.23425
 H2019 H 0.67959 0.10271 0.19763
 H2020 H 0.74154 0.04173 0.20838
 C2021 C 0.18063 0.59953 0.19065
 C2022 C 0.19353 0.59035 0.18568
 C2023 C 0.20308 0.58087 0.19603
 N2024 N 0.21425 0.57042 0.19089
 N2025 N 0.22321 0.56213 0.20027
 C2026 C 0.22137 0.56409 0.21510
 N2027 N 0.21027 0.57457 0.22020
 N2028 N 0.20127 0.58278 0.21086
 C2029 C 0.23127 0.55540 0.22570
 C2030 C 0.24090 0.54252 0.22174
 H2031 H 0.19688 0.59029 0.17410
 H2032 H 0.23032 0.55886 0.23721
 H2033 H 0.17686 0.59885 0.20213
 H2034 H 0.24061 0.53804 0.21053
 C2035 C 0.19633 0.09265 0.68984
 C2036 C 0.18930 0.08173 0.69928
 C2037 C 0.19897 0.07221 0.70950
 N2038 N 0.19226 0.06017 0.71712
 N2039 N 0.20079 0.05196 0.72688
 C2040 C 0.21630 0.05558 0.72943
 N2041 N 0.22298 0.06762 0.72184
 N2042 N 0.21450 0.07575 0.71202
 C2043 C 0.22563 0.04739 0.74080
 C2044 C 0.22064 0.03345 0.74742
 H2045 H 0.17645 0.08032 0.69941
 H2046 H 0.23683 0.05256 0.74407
 H2047 H 0.20924 0.09329 0.68911
 H2048 H 0.21038 0.02736 0.74308
 C2049 C 0.32514 0.60084 0.30480
 C2050 C 0.31320 0.59037 0.30894
 C2051 C 0.30527 0.58063 0.29776
 N2052 N 0.29520 0.56895 0.30185
 N2053 N 0.28768 0.56049 0.29166
 C2054 C 0.28989 0.56352 0.27704
 N2055 N 0.29989 0.57522 0.27299
 N2056 N 0.30747 0.58358 0.28314
 C2057 C 0.28137 0.55490 0.26552
 C2058 C 0.27310 0.54101 0.26810
 H2059 H 0.30934 0.58959 0.32037
 H2060 H 0.28217 0.55946 0.25436
 H2061 H 0.32936 0.60093 0.29343
 H2062 H 0.27366 0.53545 0.27886
 C2063 C 0.30928 0.10217 0.81796
 C2064 C 0.29829 0.09209 0.82455
 C2065 C 0.28845 0.08172 0.81536
 N2066 N 0.27970 0.07002 0.82154
 N2067 N 0.27086 0.06066 0.81311
 C2068 C 0.27043 0.06275 0.79823
 N2069 N 0.27906 0.07451 0.79211
 N2070 N 0.28792 0.08378 0.80050
 C2071 C 0.26082 0.05281 0.78854
 C2072 C 0.25341 0.03899 0.79312
 H2073 H 0.29698 0.09170 0.83646
 H2074 H 0.26031 0.05620 0.77702
 H2075 H 0.31098 0.10183 0.80608
 H2076 H 0.25521 0.03473 0.80426
 C2077 C 0.82448 0.59921 0.80260
 C2078 C 0.81348 0.58831 0.80787
 C2079 C 0.80503 0.57775 0.79775
 N2080 N 0.79546 0.56627 0.80316
 N2081 N 0.78735 0.55704 0.79404
 C2082 C 0.78848 0.55904 0.77916
 N2083 N 0.79802 0.57052 0.77377
 N2084 N 0.80617 0.57968 0.78288
 C2085 C 0.77921 0.54949 0.76885
 C2086 C 0.77076 0.53617 0.77316
 H2087 H 0.81071 0.58772 0.81956
 H2088 H 0.77934 0.55294 0.75733
 H2089 H 0.82768 0.59926 0.79096
 H2090 H 0.77190 0.53178 0.78434
 C2091 C 0.82649 0.09984 0.30798
 C2092 C 0.81349 0.09003 0.31045
 C2093 C 0.80590 0.08132 0.29841
 N2094 N 0.79471 0.07034 0.30155
 N2095 N 0.78732 0.06276 0.29074
 C2096 C 0.79075 0.06598 0.27635
 N2097 N 0.80190 0.07700 0.27321
 N2098 N 0.80937 0.08450 0.28402
 C2099 C 0.78239 0.05808 0.26427
 C2100 C 0.77306 0.04479 0.26656
 H2101 H 0.80858 0.08881 0.32150
 H2102 H 0.78409 0.06257 0.25317
 H2103 H 0.83206 0.10027 0.29713
 H2104 H 0.77270 0.03942 0.27741
 C2105 C 0.68900 0.39188 0.31322
 C2106 C 0.68244 0.40234 0.30304
 C2107 C 0.69278 0.41226 0.29374
 N2108 N 0.68666 0.42504 0.28668
 N2109 N 0.69604 0.43403 0.27826
 C2110 C 0.71185 0.43048 0.27654
 N2111 N 0.71791 0.41763 0.28349
 N2112 N 0.70858 0.40873 0.29198
 C2113 C 0.72235 0.43990 0.26699
 C2114 C 0.71819 0.45495 0.26210
 H2115 H 0.66958 0.40361 0.30220
 H2116 H 0.73399 0.43497 0.26414
 H2117 H 0.70183 0.39161 0.31476
 H2118 H 0.70734 0.46054 0.26630
 C2119 C 0.68938 0.90178 0.80851
 C2120 C 0.68238 0.90978 0.79674
 C2121 C 0.69210 0.91920 0.78644
 N2122 N 0.68500 0.92918 0.77672
 N2123 N 0.69381 0.93759 0.76729
 C2124 C 0.71002 0.93619 0.76719
 N2125 N 0.71707 0.92612 0.77682
 N2126 N 0.70829 0.91782 0.78629
 C2127 C 0.72012 0.94518 0.75694
 C2128 C 0.71460 0.95810 0.74887
 H2129 H 0.66961 0.90917 0.79504
 H2130 H 0.73273 0.94213 0.75657
 H2131 H 0.70200 0.90324 0.81063
 H2132 H 0.70237 0.96221 0.75039
 C2133 C 0.19831 0.39636 0.82026
 C2134 C 0.19350 0.40472 0.80780
 C2135 C 0.20457 0.41474 0.79942
 N2136 N 0.19892 0.42455 0.78880
 N2137 N 0.20892 0.43313 0.78065
 C2138 C 0.22496 0.43208 0.78275
 N2139 N 0.23061 0.42224 0.79333
 N2140 N 0.22060 0.41376 0.80154
 C2141 C 0.23626 0.44091 0.77349
 C2142 C 0.23155 0.45350 0.76461
 H2143 H 0.18138 0.40367 0.80387
 H2144 H 0.24882 0.43770 0.77408
 H2145 H 0.21005 0.39830 0.82483
 H2146 H 0.21931 0.45783 0.76520
 C2147 C 0.18825 0.88657 0.32202
 C2148 C 0.18306 0.89669 0.31089
 C2149 C 0.19414 0.90710 0.30291
 N2150 N 0.18834 0.91924 0.29473
 N2151 N 0.19822 0.92837 0.28700
 C2152 C 0.21426 0.92560 0.28706
 N2153 N 0.22004 0.91342 0.29519
 N2154 N 0.21018 0.90439 0.30303
 C2155 C 0.22524 0.93497 0.27790
 C2156 C 0.22088 0.94961 0.27213
 H2157 H 0.17053 0.89705 0.30798
 H2158 H 0.23713 0.93025 0.27575
 H2159 H 0.20049 0.88716 0.32577
 H2160 H 0.20969 0.95507 0.27567
 C2161 C 0.39962 0.30354 0.68423
 C2162 C 0.41129 0.31023 0.69304
 C2163 C 0.42155 0.30038 0.70251
 N2164 N 0.43434 0.30665 0.70938
 N2165 N 0.44341 0.29783 0.71824
 C2166 C 0.43994 0.28243 0.72059
 N2167 N 0.42713 0.27619 0.71375
 N2168 N 0.41814 0.28497 0.70485
 C2169 C 0.44924 0.27264 0.73085
 C2170 C 0.46383 0.27732 0.73664
 H2171 H 0.41294 0.32286 0.69304
 H2172 H 0.44443 0.26129 0.73385
 H2173 H 0.39867 0.29084 0.68371
 H2174 H 0.46942 0.28789 0.73247
 C2175 C 0.39981 0.82429 0.18880
 C2176 C 0.41008 0.81136 0.18700
 C2177 C 0.42097 0.80637 0.19884
 N2178 N 0.43256 0.79536 0.19614
 N2179 N 0.44209 0.79041 0.20696
 C2180 C 0.44030 0.79625 0.22088
 N2181 N 0.42869 0.80721 0.22357
 N2182 N 0.41925 0.81222 0.21275
 C2183 C 0.44998 0.79033 0.23319
 C2184 C 0.46369 0.78102 0.23116
 H2185 H 0.41006 0.80468 0.17680
 H2186 H 0.44611 0.79343 0.24430
 H2187 H 0.40064 0.83151 0.19864
 H2188 H 0.46859 0.77930 0.22013
 C2189 C 0.89610 0.31832 0.19444
 C2190 C 0.90679 0.30608 0.19103
 C2191 C 0.91664 0.29818 0.20222
 N2192 N 0.92811 0.28767 0.19789
 N2193 N 0.93676 0.27991 0.20785
 C2194 C 0.93418 0.28231 0.22253
 N2195 N 0.92267 0.29280 0.22687
 N2196 N 0.91406 0.30062 0.21690
 C2197 C 0.94339 0.27355 0.23365
 C2198 C 0.95696 0.26464 0.22987
 H2199 H 0.90795 0.30197 0.17974
 H2200 H 0.93969 0.27457 0.24512
 H2201 H 0.89567 0.32322 0.20550
 H2202 H 0.96143 0.26488 0.21859
 C2203 C 0.89863 0.82045 0.69334
 C2204 C 0.90829 0.82877 0.70301
 C2205 C 0.91818 0.82040 0.71395
 N2206 N 0.92935 0.82816 0.72186
 N2207 N 0.93823 0.82052 0.73179
 C2208 C 0.93615 0.80487 0.73419
 N2209 N 0.92493 0.79719 0.72636
 N2210 N 0.91614 0.80478 0.71643
 C2211 C 0.94561 0.79600 0.74502
 C2212 C 0.95911 0.80188 0.75200
 H2213 H 0.90866 0.84150 0.70256
 H2214 H 0.94225 0.78388 0.74688
 H2215 H 0.89897 0.80770 0.69347
 H2216 H 0.96344 0.81345 0.74908
 C2217 C 0.59624 0.30926 0.32030
 C2218 C 0.58630 0.31585 0.30965
 C2219 C 0.57587 0.30601 0.30054
 N2220 N 0.56395 0.31271 0.29255
 N2221 N 0.55486 0.30393 0.28385
 C2222 C 0.55745 0.28814 0.28273
 N2223 N 0.56940 0.28146 0.29067
 N2224 N 0.57839 0.29021 0.29947
 C2225 C 0.54831 0.27843 0.27243
 C2226 C 0.53391 0.28353 0.26633
 H2227 H 0.58614 0.32847 0.30794
 H2228 H 0.55311 0.26692 0.26954
 H2229 H 0.59543 0.29681 0.32277
 H2230 H 0.52821 0.29421 0.27046
 C2231 C 0.60462 0.81291 0.81359
 C2232 C 0.59607 0.81868 0.80158
 C2233 C 0.58671 0.80825 0.79208
 N2234 N 0.57682 0.81446 0.78176
 N2235 N 0.56852 0.80510 0.77291
 C2236 C 0.56992 0.78918 0.77401
 N2237 N 0.57988 0.78299 0.78426
 N2238 N 0.58810 0.79234 0.79315
 C2239 C 0.56099 0.77862 0.76430
 C2240 C 0.54847 0.78393 0.75547
 H2241 H 0.59625 0.83112 0.79900
 H2242 H 0.56385 0.76615 0.76475
 H2243 H 0.60372 0.80060 0.81658
 H2244 H 0.54468 0.79616 0.75614
 C2245 C 0.11054 0.30656 0.80853
 C2246 C 0.10143 0.31420 0.79782
 C2247 C 0.09140 0.30536 0.78749
 N2248 N 0.08142 0.31311 0.77817
 N2249 N 0.07266 0.30517 0.76850
 C2250 C 0.07367 0.28920 0.76775
 N2251 N 0.08367 0.28149 0.77704
 N2252 N 0.09235 0.28940 0.78674
 C2253 C 0.06441 0.28012 0.75704
 C2254 C 0.05206 0.28663 0.74868
 H2255 H 0.10188 0.32689 0.79676
 H2256 H 0.06697 0.26761 0.75625
 H2257 H 0.10947 0.29395 0.80995
 H2258 H 0.04846 0.29879 0.75049
 C2259 C 0.09816 0.79991 0.30866
 C2260 C 0.08647 0.80797 0.30071
 C2261 C 0.07525 0.79935 0.29128
 N2262 N 0.06231 0.80678 0.28542
 N2263 N 0.05237 0.79901 0.27666
 C2264 C 0.05506 0.78355 0.27340
 N2265 N 0.06801 0.77619 0.27922
 N2266 N 0.07787 0.78391 0.28803
 C2267 C 0.04489 0.77487 0.26314
 C2268 C 0.03012 0.78048 0.25826
 H2269 H 0.08549 0.82067 0.30142
 H2270 H 0.04926 0.76349 0.25934
 H2271 H 0.09840 0.78715 0.30850
 H2272 H 0.02486 0.79098 0.26322
 C2273 C 0.60314 0.67583 0.69363
 C2274 C 0.59193 0.68703 0.68905
 C2275 C 0.58247 0.69678 0.69944
 N2276 N 0.57014 0.70568 0.69434
 N2277 N 0.56206 0.71538 0.70336
 C2278 C 0.56609 0.71665 0.71781
 N2279 N 0.57843 0.70774 0.72293
 N2280 N 0.58645 0.69794 0.71392
 C2281 C 0.55796 0.72817 0.72757
 C2282 C 0.54383 0.73580 0.72342
 H2283 H 0.59019 0.68898 0.67734
 H2284 H 0.56334 0.73085 0.73809
 H2285 H 0.60404 0.67285 0.70523
 H2286 H 0.53777 0.73184 0.71359
 C2287 C 0.59492 0.19065 0.18915
 C2288 C 0.58662 0.20411 0.18465
 C2289 C 0.57669 0.21340 0.19505
 N2290 N 0.56641 0.22459 0.18995
 N2291 N 0.55766 0.23331 0.19935
 C2292 C 0.55899 0.23124 0.21417
 N2293 N 0.56934 0.22013 0.21924
 N2294 N 0.57799 0.21134 0.20986
 C2295 C 0.54979 0.24093 0.22476
 C2296 C 0.53663 0.25012 0.22070
 H2297 H 0.58741 0.20799 0.17327
 H2298 H 0.55308 0.24023 0.23629
 H2299 H 0.59320 0.18621 0.20026
 H2300 H 0.53226 0.24951 0.20949
 C2301 C 0.08948 0.68689 0.18466
 C2302 C 0.08056 0.69938 0.17891
 C2303 C 0.07017 0.70901 0.18870
 N2304 N 0.05946 0.71950 0.18305
 N2305 N 0.05044 0.72850 0.19203
 C2306 C 0.05193 0.72739 0.20694
 N2307 N 0.06267 0.71698 0.21252
 N2308 N 0.07157 0.70794 0.20359
 C2309 C 0.04278 0.73752 0.21719
 C2310 C 0.02931 0.74632 0.21325
 H2311 H 0.08148 0.70235 0.16731
 H2312 H 0.04653 0.73752 0.22862
 H2313 H 0.08770 0.68356 0.19611
 H2314 H 0.02434 0.74508 0.20231
 C2315 C 0.10401 0.17768 0.68685
 C2316 C 0.09465 0.18987 0.68114
 C2317 C 0.08532 0.20056 0.69083
 N2318 N 0.07420 0.21046 0.68499
 N2319 N 0.06612 0.22061 0.69361
 C2320 C 0.06896 0.22129 0.70835
 N2321 N 0.08011 0.21144 0.71417
 N2322 N 0.08810 0.20122 0.70558
 C2323 C 0.06081 0.23299 0.71789
 C2324 C 0.04727 0.24135 0.71337
 H2325 H 0.09424 0.19172 0.66931
 H2326 H 0.06557 0.23497 0.72881
 H2327 H 0.10352 0.17520 0.69859
 H2328 H 0.04157 0.23812 0.70312
 C2329 C 0.40306 0.69627 0.31153
 C2330 C 0.41168 0.70888 0.31708
 C2331 C 0.42117 0.71867 0.30686
 N2332 N 0.43289 0.72820 0.31185
 N2333 N 0.44150 0.73681 0.30240
 C2334 C 0.43856 0.73626 0.28765
 N2335 N 0.42673 0.72690 0.28274
 N2336 N 0.41825 0.71826 0.29213
 C2337 C 0.44766 0.74547 0.27679
 C2338 C 0.46204 0.75295 0.27976
 H2339 H 0.41156 0.71146 0.32880
 H2340 H 0.44329 0.74533 0.26557
 H2341 H 0.40430 0.69332 0.29991
 H2342 H 0.46735 0.75173 0.29058
 C2343 C 0.40313 0.18367 0.81032
 C2344 C 0.41439 0.19422 0.81555
 C2345 C 0.42390 0.20395 0.80536
 N2346 N 0.43572 0.21318 0.81059
 N2347 N 0.44403 0.22238 0.80146
 C2348 C 0.44072 0.22273 0.78679
 N2349 N 0.42889 0.21353 0.78159
 N2350 N 0.42065 0.20430 0.79070
 C2351 C 0.44942 0.23300 0.77651
 C2352 C 0.46312 0.24113 0.78043
 H2353 H 0.41603 0.19570 0.82732
 H2354 H 0.44517 0.23365 0.76526
 H2355 H 0.40203 0.18182 0.79853
 H2356 H 0.46824 0.23929 0.79125
 C2357 C 0.90493 0.69414 0.80903
 C2358 C 0.91440 0.70532 0.81589
 C2359 C 0.92414 0.71628 0.80712
 N2360 N 0.93541 0.72521 0.81369
 N2361 N 0.94388 0.73551 0.80581
 C2362 C 0.94129 0.73730 0.79110
 N2363 N 0.92999 0.72842 0.78457
 N2364 N 0.92163 0.71807 0.79241
 C2365 C 0.94979 0.74913 0.78230
 C2366 C 0.96350 0.75665 0.78715
 H2367 H 0.91455 0.70617 0.82783
 H2368 H 0.94516 0.75184 0.77145
 H2369 H 0.90567 0.69273 0.79714
 H2370 H 0.96921 0.75276 0.79722
 C2371 C 0.89987 0.19608 0.32681
 C2372 C 0.91177 0.19165 0.31670
 C2373 C 0.92116 0.20326 0.30842
 N2374 N 0.93440 0.19853 0.30076
 N2375 N 0.94258 0.20874 0.29258
 C2376 C 0.93775 0.22404 0.29166
 N2377 N 0.92449 0.22877 0.29931
 N2378 N 0.91637 0.21859 0.30759
 C2379 C 0.94604 0.23509 0.28181
 C2380 C 0.96100 0.23147 0.27566
 H2381 H 0.91426 0.17928 0.31470
 H2382 H 0.94008 0.24610 0.27912
 H2383 H 0.89822 0.20837 0.32973
 H2384 H 0.96749 0.22124 0.27967
 C2385 C 0.31165 0.30439 0.60033
 C2386 C 0.30173 0.31120 0.58976
 C2387 C 0.29180 0.30134 0.58018
 N2388 N 0.28293 0.30791 0.56925
 N2389 N 0.27364 0.29898 0.56084
 C2390 C 0.27288 0.28319 0.56313
 N2391 N 0.28173 0.27667 0.57404
 N2392 N 0.29102 0.28556 0.58238
 C2393 C 0.26244 0.27301 0.55446
 C2394 C 0.25408 0.27801 0.54202
 H2395 H 0.30099 0.32388 0.58865
 H2396 H 0.26168 0.26083 0.55789
 H2397 H 0.31260 0.29167 0.60102
 H2398 H 0.25600 0.28971 0.53763
 C2399 C 0.31794 0.79633 0.10038
 C2400 C 0.30754 0.80150 0.08943
 C2401 C 0.29937 0.79068 0.07940
 N2402 N 0.29146 0.79652 0.06756
 N2403 N 0.28304 0.78706 0.05892
 C2404 C 0.28213 0.77142 0.06186
 N2405 N 0.29006 0.76556 0.07370
 N2406 N 0.29859 0.77500 0.08228
 C2407 C 0.27166 0.76118 0.05323
 C2408 C 0.26506 0.76602 0.03987
 H2409 H 0.30501 0.81398 0.08829
 H2410 H 0.26861 0.74980 0.05780
 H2411 H 0.32165 0.78407 0.10078
 H2412 H 0.26948 0.77656 0.03457
 C2413 C 0.82556 0.29919 0.09845
 C2414 C 0.81416 0.30302 0.08792
 C2415 C 0.80747 0.29099 0.07814
 N2416 N 0.79870 0.29535 0.06627
 N2417 N 0.79194 0.28453 0.05777
 C2418 C 0.79360 0.26895 0.06091
 N2419 N 0.80233 0.26460 0.07280
 N2420 N 0.80920 0.27541 0.08122
 C2421 C 0.78524 0.25696 0.05231
 C2422 C 0.77863 0.26025 0.03858
 H2423 H 0.80983 0.31504 0.08695
 H2424 H 0.78408 0.24531 0.05703
 H2425 H 0.83076 0.28744 0.09862
 H2426 H 0.78134 0.27130 0.03318
 C2427 C 0.81871 0.80640 0.60331
 C2428 C 0.80928 0.81172 0.59167
 C2429 C 0.80028 0.80068 0.58244
 N2430 N 0.79178 0.80604 0.57073
 N2431 N 0.78332 0.79614 0.56255
 C2432 C 0.78301 0.78053 0.56584
 N2433 N 0.79148 0.77521 0.57755
 N2434 N 0.79997 0.78508 0.58568
 C2435 C 0.77358 0.76935 0.55724
 C2436 C 0.76572 0.77339 0.54423
 H2437 H 0.80821 0.82420 0.58941
 H2438 H 0.77330 0.75730 0.56112
 H2439 H 0.82000 0.79387 0.60525
 H2440 H 0.76721 0.78506 0.53963
 C2441 C 0.31649 0.67624 0.40006
 C2442 C 0.32025 0.68907 0.40895
 C2443 C 0.30846 0.69569 0.41956
 N2444 N 0.31289 0.70644 0.42983
 N2445 N 0.30206 0.71290 0.43902
 C2446 C 0.28640 0.70890 0.43818
 N2447 N 0.28200 0.69820 0.42791
 N2448 N 0.29282 0.69168 0.41882
 C2449 C 0.27401 0.71655 0.44744
 C2450 C 0.27731 0.72535 0.46006
 H2451 H 0.33183 0.69456 0.40791
 H2452 H 0.26168 0.71502 0.44424
 H2453 H 0.30527 0.67026 0.40187
 H2454 H 0.28936 0.72551 0.46433
 C2455 C 0.33370 0.18114 0.90940
 C2456 C 0.31977 0.17820 0.91747
 C2457 C 0.31287 0.19027 0.92745
 N2458 N 0.30052 0.18678 0.93671
 N2459 N 0.29362 0.19799 0.94503
 C2460 C 0.29875 0.21310 0.94428
 N2461 N 0.31107 0.21656 0.93504
 N2462 N 0.31804 0.20536 0.92684
 C2463 C 0.29057 0.22594 0.95233
 C2464 C 0.28002 0.22351 0.96410
 H2465 H 0.31338 0.16733 0.91587
 H2466 H 0.29300 0.23788 0.94882
 H2467 H 0.34042 0.19167 0.91175
 H2468 H 0.27885 0.21188 0.96886
 C2469 C 0.81814 0.67607 0.89639
 C2470 C 0.82206 0.68925 0.90474
 C2471 C 0.81010 0.69700 0.91446
 N2472 N 0.81455 0.70809 0.92439
 N2473 N 0.80361 0.71557 0.93274
 C2474 C 0.78782 0.71232 0.93133
 N2475 N 0.78340 0.70130 0.92137
 N2476 N 0.79433 0.69375 0.91313
 C2477 C 0.77539 0.72086 0.93981
 C2478 C 0.77848 0.72968 0.95245
 H2479 H 0.83388 0.69425 0.90383
 H2480 H 0.76315 0.71962 0.93623
 H2481 H 0.80665 0.67058 0.89812
 H2482 H 0.79036 0.72956 0.95711
 C2483 C 0.80680 0.16966 0.40572
 C2484 C 0.81042 0.18179 0.41548
 C2485 C 0.79827 0.18871 0.42549
 N2486 N 0.80256 0.19931 0.43592
 N2487 N 0.79151 0.20634 0.44448
 C2488 C 0.77577 0.20308 0.44282
 N2489 N 0.77150 0.19246 0.43241
 N2490 N 0.78254 0.18537 0.42393
 C2491 C 0.76330 0.21145 0.45139
 C2492 C 0.76664 0.22080 0.46363
 H2493 H 0.82230 0.18672 0.41546
 H2494 H 0.75103 0.21019 0.44791
 H2495 H 0.79524 0.16407 0.40641
 H2496 H 0.77860 0.22078 0.46811
 C2497 C 0.68774 0.31064 0.40287
 C2498 C 0.68171 0.29866 0.41176
 C2499 C 0.69224 0.28982 0.42181
 N2500 N 0.68601 0.28008 0.43223
 N2501 N 0.69560 0.27177 0.44106
 C2502 C 0.71175 0.27284 0.43968
 N2503 N 0.71793 0.28250 0.42923
 N2504 N 0.70837 0.29086 0.42050
 C2505 C 0.72270 0.26342 0.44876
 C2506 C 0.71805 0.25559 0.46162
 H2507 H 0.66921 0.29559 0.41123
 H2508 H 0.73518 0.26316 0.44543
 H2509 H 0.70003 0.31424 0.40416
 H2510 H 0.70602 0.25721 0.46599
 C2511 C 0.69406 0.81950 0.89776
 C2512 C 0.68899 0.80652 0.90590
 C2513 C 0.70003 0.79781 0.91557
 N2514 N 0.69450 0.78644 0.92479
 N2515 N 0.70457 0.77811 0.93313
 C2516 C 0.72055 0.78079 0.93245
 N2517 N 0.72605 0.79212 0.92323
 N2518 N 0.71599 0.80050 0.91499
 C2519 C 0.73206 0.77136 0.94094
 C2520 C 0.72771 0.76134 0.95246
 H2521 H 0.67683 0.80244 0.90494
 H2522 H 0.74462 0.77274 0.93823
 H2523 H 0.70597 0.82402 0.89942
 H2524 H 0.71540 0.76114 0.95633
 C2525 C 0.19644 0.30067 0.89487
 C2526 C 0.20589 0.30709 0.90592
 C2527 C 0.21447 0.29693 0.91649
 N2528 N 0.22259 0.30332 0.92792
 N2529 N 0.23059 0.29413 0.93733
 C2530 C 0.23078 0.27822 0.93559
 N2531 N 0.22269 0.27188 0.92416
 N2532 N 0.21468 0.28104 0.91482
 C2533 C 0.23976 0.26770 0.94547
 C2534 C 0.24708 0.27262 0.95846
 H2535 H 0.20712 0.31974 0.90681
 H2536 H 0.24014 0.25533 0.94253
 H2537 H 0.19489 0.28803 0.89440
 H2538 H 0.24543 0.28465 0.96223
 C2539 C 0.18259 0.78871 0.39414
 C2540 C 0.18964 0.79441 0.40693
 C2541 C 0.19739 0.78369 0.41754
 N2542 N 0.20281 0.78925 0.43062
 N2543 N 0.21035 0.77970 0.44001
 C2544 C 0.21278 0.76424 0.43663
 N2545 N 0.20735 0.75870 0.42357
 N2546 N 0.19975 0.76822 0.41424
 C2547 C 0.22223 0.75378 0.44618
 C2548 C 0.22719 0.75813 0.46026
 H2549 H 0.18957 0.80694 0.40920
 H2550 H 0.22590 0.74245 0.44169
 H2551 H 0.18202 0.77611 0.39234
 H2552 H 0.22219 0.76866 0.46539
 C2553 C 0.67835 0.68624 0.59824
 C2554 C 0.69151 0.68244 0.58930
 C2555 C 0.69895 0.69424 0.57962
 N2556 N 0.71024 0.68984 0.56949
 N2557 N 0.71760 0.70060 0.56122
 C2558 C 0.71400 0.71616 0.56290
 N2559 N 0.70274 0.72053 0.57304
 N2560 N 0.69531 0.70979 0.58121
 C2561 C 0.72257 0.72833 0.55461
 C2562 C 0.73203 0.72508 0.54217
 H2563 H 0.69678 0.67074 0.58970
 H2564 H 0.72114 0.74041 0.55832
 H2565 H 0.67250 0.69762 0.59707
 H2566 H 0.73213 0.71338 0.53738
 C2567 C 0.67945 0.19127 0.09933
 C2568 C 0.69172 0.18530 0.09035
 C2569 C 0.70071 0.19562 0.08030
 N2570 N 0.71007 0.18936 0.06938
 N2571 N 0.71863 0.19866 0.06055
 C2572 C 0.71824 0.21455 0.06243
 N2573 N 0.70896 0.22078 0.07340
 N2574 N 0.70030 0.21150 0.08212
 C2575 C 0.72825 0.22495 0.05338
 C2576 C 0.73523 0.22012 0.04004
 H2577 H 0.69485 0.17290 0.09072
 H2578 H 0.72997 0.23689 0.05726
 H2579 H 0.67561 0.20343 0.09808
 H2580 H 0.73204 0.20885 0.03534
 C2581 C 0.18063 0.67880 0.09920
 C2582 C 0.17564 0.69196 0.09122
 C2583 C 0.18681 0.70035 0.08141
 N2584 N 0.18137 0.71158 0.07199
 N2585 N 0.19155 0.71953 0.06344
 C2586 C 0.20754 0.71660 0.06413
 N2587 N 0.21295 0.70544 0.07359
 N2588 N 0.20279 0.69744 0.08204
 C2589 C 0.21909 0.72549 0.05523
 C2590 C 0.21471 0.73482 0.04324
 H2591 H 0.16350 0.69640 0.09240
 H2592 H 0.23163 0.72410 0.05789
 H2593 H 0.19252 0.67395 0.09728
 H2594 H 0.20242 0.73493 0.03957
 C2595 C 0.19375 0.17826 0.60407
 C2596 C 0.18642 0.18706 0.59301
 C2597 C 0.19599 0.19649 0.58261
 N2598 N 0.18899 0.20366 0.57089
 N2599 N 0.19756 0.21266 0.56177
 C2600 C 0.21342 0.21483 0.56410
 N2601 N 0.22038 0.20767 0.57580
 N2602 N 0.21185 0.19864 0.58485
 C2603 C 0.22294 0.22547 0.55486
 C2604 C 0.21741 0.23191 0.54168
 H2605 H 0.17353 0.18722 0.59205
 H2606 H 0.23475 0.22844 0.55870
 H2607 H 0.20668 0.17761 0.60447
 H2608 H 0.20638 0.22772 0.53697
   
