data_POSCAR
  _audit_creation_date              2014-09-24
  _audit_creation_method            'ToBaCCo'
  _symmetry_space_group_name_H-M    'P1'
  _symmetry_Int_Tables_number       1
  _symmetry_cell_setting            triclinic
  loop_
  _symmetry_equiv_pos_as_xyz
 x,y,z
_cell_length_a 75.3314
_cell_length_b 75.4731
_cell_length_c 75.9856
_cell_angle_alpha 89.994000
_cell_angle_beta 90.020600
_cell_angle_gamma 90.005400
loop_
  _atom_site_label
  _atom_site_type_symbol
  _atom_site_fract_x
  _atom_site_fract_y
  _atom_site_fract_z
N1 N 0.17800 0.22303 0.22440
 N2 N 0.18304 0.20922 0.23371
 C3 C 0.17175 0.20705 0.24730
 C4 C 0.15910 0.22020 0.24635
 C5 C 0.16337 0.23013 0.23174
 H6 H 0.17261 0.19672 0.25713
 H7 H 0.15635 0.24162 0.22683
 Cu8 Cu 0.20379 0.19538 0.22714
 Cu9 Cu 0.19074 0.23075 0.20348
 Cu10 Cu 0.22734 0.20593 0.19100
 N11 N 0.22409 0.18133 0.21969
 N12 N 0.23325 0.18552 0.20555
 C13 C 0.24647 0.17371 0.20338
 C14 C 0.24545 0.16156 0.21687
 C15 C 0.23118 0.16668 0.22700
 H16 H 0.25608 0.17393 0.19281
 H17 H 0.22637 0.16020 0.23877
 N18 N 0.21928 0.22702 0.17797
 N19 N 0.20532 0.23647 0.18272
 C20 C 0.20321 0.24994 0.17125
 C21 C 0.21645 0.24881 0.15883
 C22 C 0.22643 0.23423 0.16337
 H23 H 0.19285 0.25984 0.17187
 H24 H 0.23800 0.22929 0.15654
 H25 H 0.20055 0.20603 0.19702
 H26 H 0.21519 0.22063 0.21056
 N27 N 0.67831 0.72308 0.72462
 N28 N 0.68331 0.70920 0.73387
 C29 C 0.67208 0.70706 0.74750
 C30 C 0.65950 0.72028 0.74665
 C31 C 0.66375 0.73023 0.73205
 H32 H 0.67293 0.69670 0.75730
 H33 H 0.65679 0.74178 0.72721
 Cu34 Cu 0.70398 0.69531 0.72717
 Cu35 Cu 0.69104 0.73082 0.70369
 Cu36 Cu 0.72757 0.70591 0.69111
 N37 N 0.72428 0.68124 0.71973
 N38 N 0.73344 0.68546 0.70560
 C39 C 0.74664 0.67364 0.70340
 C40 C 0.74561 0.66145 0.71686
 C41 C 0.73135 0.66656 0.72700
 H42 H 0.75625 0.67387 0.69283
 H43 H 0.72653 0.66006 0.73875
 N44 N 0.71956 0.72706 0.67814
 N45 N 0.70562 0.73654 0.68292
 C46 C 0.70356 0.75006 0.67150
 C47 C 0.71681 0.74892 0.65907
 C48 C 0.72672 0.73429 0.66356
 H49 H 0.69324 0.75999 0.67215
 H50 H 0.73828 0.72933 0.65671
 H51 H 0.70081 0.70611 0.69709
 H52 H 0.71549 0.72059 0.71071
 N53 N 0.32086 0.77734 0.72519
 N54 N 0.31572 0.79112 0.73448
 C55 C 0.32691 0.79330 0.74815
 C56 C 0.33961 0.78019 0.74727
 C57 C 0.33547 0.77028 0.73262
 H58 H 0.32596 0.80362 0.75797
 H59 H 0.34255 0.75882 0.72774
 Cu60 Cu 0.29498 0.80493 0.72776
 Cu61 Cu 0.30824 0.76959 0.70419
 Cu62 Cu 0.27165 0.79435 0.69148
 N63 N 0.27469 0.81895 0.72018
 N64 N 0.26562 0.81475 0.70597
 C65 C 0.25240 0.82654 0.70370
 C66 C 0.25333 0.83868 0.71720
 C67 C 0.26754 0.83360 0.72745
 H68 H 0.24286 0.82630 0.69305
 H69 H 0.27228 0.84008 0.73925
 N70 N 0.27982 0.77327 0.67853
 N71 N 0.29378 0.76384 0.68336
 C72 C 0.29593 0.75034 0.67195
 C73 C 0.28273 0.75141 0.65947
 C74 C 0.27273 0.76601 0.66392
 H75 H 0.30628 0.74043 0.67265
 H76 H 0.26117 0.77091 0.65703
 H77 H 0.29838 0.79431 0.69765
 H78 H 0.28369 0.77968 0.71111
 N79 N 0.82117 0.27685 0.22487
 N80 N 0.81606 0.29065 0.23415
 C81 C 0.82729 0.29287 0.24779
 C82 C 0.83997 0.27975 0.24688
 C83 C 0.83581 0.26979 0.23226
 H84 H 0.82635 0.30321 0.25761
 H85 H 0.84288 0.25833 0.22738
 Cu86 Cu 0.79531 0.30444 0.22747
 Cu87 Cu 0.80851 0.26908 0.20391
 Cu88 Cu 0.77191 0.29385 0.19125
 N89 N 0.77499 0.31843 0.21995
 N90 N 0.76591 0.31424 0.20575
 C91 C 0.75269 0.32603 0.20352
 C92 C 0.75361 0.33816 0.21703
 C93 C 0.76784 0.33306 0.22724
 H94 H 0.74313 0.32581 0.19289
 H95 H 0.77258 0.33953 0.23903
 N96 N 0.78006 0.27276 0.17828
 N97 N 0.79401 0.26332 0.18310
 C98 C 0.79616 0.24983 0.17168
 C99 C 0.78296 0.25094 0.15920
 C100 C 0.77297 0.26552 0.16367
 H101 H 0.80650 0.23993 0.17237
 H102 H 0.76141 0.27044 0.15679
 H103 H 0.79865 0.29379 0.19738
 H104 H 0.78398 0.27918 0.21087
 N105 N 0.82147 0.72338 0.27502
 N106 N 0.81648 0.70947 0.26583
 C107 C 0.82778 0.70723 0.25226
 C108 C 0.84038 0.72043 0.25310
 C109 C 0.83608 0.73047 0.26762
 H110 H 0.82696 0.69681 0.24252
 H111 H 0.84305 0.74202 0.27244
 Cu112 Cu 0.79578 0.69562 0.27252
 Cu113 Cu 0.80870 0.73121 0.29589
 Cu114 Cu 0.77215 0.70633 0.30853
 N115 N 0.77546 0.68160 0.27998
 N116 N 0.76628 0.68585 0.29409
 C117 C 0.75305 0.67405 0.29627
 C118 C 0.75408 0.66186 0.28283
 C119 C 0.76837 0.66693 0.27270
 H120 H 0.74341 0.67432 0.30682
 H121 H 0.77319 0.66042 0.26097
 N122 N 0.78017 0.72752 0.32143
 N123 N 0.79409 0.73700 0.31661
 C124 C 0.79614 0.75056 0.32797
 C125 C 0.78291 0.74946 0.34041
 C126 C 0.77301 0.73479 0.33598
 H127 H 0.80644 0.76052 0.32728
 H128 H 0.76146 0.72985 0.34285
 H129 H 0.79893 0.70649 0.30257
 H130 H 0.78425 0.72093 0.28890
 N131 N 0.32220 0.22295 -0.22490
 N132 N 0.31721 0.20908 -0.23416
 C133 C 0.32851 0.20688 -0.24773
 C134 C 0.34111 0.22009 -0.24681
 C135 C 0.33682 0.23008 -0.23225
 H136 H 0.32768 0.19651 -0.25752
 H137 H 0.34378 0.24162 -0.22739
 Cu138 Cu 0.29648 0.19522 -0.22756
 Cu139 Cu 0.30936 0.23074 -0.20405
 Cu140 Cu 0.27273 0.20589 -0.19162
 N141 N 0.27612 0.18119 -0.22020
 N142 N 0.26690 0.18543 -0.20611
 C143 C 0.25366 0.17364 -0.20398
 C144 C 0.25473 0.16145 -0.21743
 C145 C 0.26906 0.16653 -0.22750
 H146 H 0.24399 0.17390 -0.19346
 H147 H 0.27392 0.16001 -0.23922
 N148 N 0.28071 0.22705 -0.17865
 N149 N 0.29468 0.23651 -0.18338
 C150 C 0.29670 0.25005 -0.17198
 C151 C 0.28340 0.24894 -0.15960
 C152 C 0.27349 0.23431 -0.16412
 H153 H 0.30703 0.25997 -0.17259
 H154 H 0.26190 0.22937 -0.15730
 H155 H 0.29953 0.20604 -0.19748
 H156 H 0.28494 0.22052 -0.21117
 N157 N 0.67829 0.27675 -0.22483
 N158 N 0.68329 0.29069 -0.23397
 C159 C 0.67202 0.29298 -0.24756
 C160 C 0.65943 0.27976 -0.24677
 C161 C 0.66369 0.26967 -0.23227
 H162 H 0.67286 0.30343 -0.25727
 H163 H 0.65672 0.25809 -0.22750
 Cu164 Cu 0.70401 0.30449 -0.22722
 Cu165 Cu 0.69104 0.26884 -0.20396
 Cu166 Cu 0.72761 0.29361 -0.19122
 N167 N 0.72434 0.31847 -0.21968
 N168 N 0.73352 0.31415 -0.20558
 C169 C 0.74677 0.32592 -0.20335
 C170 C 0.74575 0.33817 -0.21674
 C171 C 0.73145 0.33316 -0.22689
 H172 H 0.75641 0.32559 -0.19280
 H173 H 0.72664 0.33974 -0.23861
 N174 N 0.71956 0.27240 -0.17838
 N175 N 0.70562 0.26295 -0.18324
 C176 C 0.70353 0.24937 -0.17191
 C177 C 0.71675 0.25042 -0.15944
 C178 C 0.72669 0.26507 -0.16383
 H179 H 0.69319 0.23946 -0.17263
 H180 H 0.73824 0.26999 -0.15692
 H181 H 0.70082 0.29351 -0.19721
 H182 H 0.71548 0.27910 -0.21091
 N183 N 0.17907 0.77769 0.27541
 N184 N 0.18379 0.79186 0.26646
 C185 C 0.17257 0.79400 0.25280
 C186 C 0.16030 0.78047 0.25332
 C187 C 0.16472 0.77034 0.26776
 H188 H 0.17324 0.80455 0.24318
 H189 H 0.15801 0.75853 0.27232
 Cu190 Cu 0.20416 0.80600 0.27356
 Cu191 Cu 0.19187 0.76982 0.29626
 Cu192 Cu 0.22822 0.79490 0.30913
 N193 N 0.22458 0.81998 0.28087
 N194 N 0.23394 0.81553 0.29482
 C195 C 0.24728 0.82722 0.29694
 C196 C 0.24612 0.83954 0.28362
 C197 C 0.23166 0.83467 0.27362
 H198 H 0.25708 0.82675 0.30734
 H199 H 0.22674 0.84131 0.26198
 N200 N 0.22034 0.77356 0.32190
 N201 N 0.20650 0.76400 0.31698
 C202 C 0.20451 0.75038 0.32829
 C203 C 0.21768 0.75152 0.34079
 C204 C 0.22750 0.76628 0.33646
 H205 H 0.19425 0.74038 0.32753
 H206 H 0.23897 0.77129 0.34343
 H207 H 0.20139 0.79445 0.30341
 H208 H 0.21611 0.78052 0.28933
 N209 N 0.47181 0.42808 0.47394
 N210 N 0.45750 0.43271 0.48272
 C211 C 0.45526 0.42151 0.49636
 C212 C 0.46887 0.40932 0.49597
 C213 C 0.47915 0.41378 0.48165
 H214 H 0.44460 0.42214 0.50587
 H215 H 0.49106 0.40715 0.47721
 Cu216 Cu 0.44324 0.45295 0.47554
 Cu217 Cu 0.47989 0.44094 0.45323
 Cu218 Cu 0.45520 0.47755 0.44056
 N219 N 0.42978 0.47379 0.46850
 N220 N 0.43453 0.48335 0.45480
 C221 C 0.42308 0.49692 0.45289
 C222 C 0.41061 0.49573 0.46608
 C223 C 0.41515 0.48098 0.47578
 H224 H 0.42379 0.50692 0.44272
 H225 H 0.40833 0.47595 0.48726
 N226 N 0.47654 0.46958 0.42783
 N227 N 0.48594 0.45562 0.43265
 C228 C 0.49962 0.45359 0.42140
 C229 C 0.49869 0.46688 0.40903
 C230 C 0.48399 0.47679 0.41338
 H231 H 0.50953 0.44324 0.42212
 H232 H 0.47914 0.48837 0.40652
 H233 H 0.46912 0.46505 0.46050
 H234 H 0.45536 0.45068 0.44585
 N235 N -0.02713 -0.07161 0.97369
 N236 N -0.04122 -0.06679 0.98272
 C237 C -0.04345 -0.07806 0.99631
 C238 C -0.03005 -0.09045 0.99565
 C239 C -0.01991 -0.08607 0.98121
 H240 H -0.05398 -0.07734 1.00596
 H241 H -0.00817 -0.09286 0.97656
 Cu242 Cu -0.05521 -0.04627 0.97579
 Cu243 Cu -0.01915 -0.05877 0.95291
 Cu244 Cu -0.04389 -0.02211 0.94039
 N245 N -0.06901 -0.02571 0.96863
 N246 N -0.06449 -0.01630 0.95476
 C247 C -0.07612 -0.00291 0.95272
 C248 C -0.08849 -0.00407 0.96601
 C249 C -0.08369 -0.01861 0.97590
 H250 H -0.07561 0.00694 0.94239
 H251 H -0.09041 -0.02359 0.98746
 N252 N -0.02261 -0.03009 0.92754
 N253 N -0.01321 -0.04407 0.93230
 C254 C 0.00041 -0.04611 0.92098
 C255 C -0.00057 -0.03282 0.90862
 C256 C -0.01522 -0.02287 0.91307
 H257 H 0.01033 -0.05645 0.92165
 H258 H -0.02007 -0.01125 0.90627
 H259 H -0.02957 -0.03451 0.96009
 H260 H -0.04376 -0.04893 0.94592
 N261 N 1.02842 0.57248 0.97307
 N262 N 1.04276 0.56785 0.98184
 C263 C 1.04504 0.57906 0.99546
 C264 C 1.03143 0.59125 0.99509
 C265 C 1.02111 0.58679 0.98079
 H266 H 1.05572 0.57842 1.00495
 H267 H 1.00919 0.59343 0.97638
 Cu268 Cu 1.05696 0.54757 0.97466
 Cu269 Cu 1.02027 0.55961 0.95239
 Cu270 Cu 1.04490 0.52296 0.93973
 N271 N 1.07039 0.52672 0.96761
 N272 N 1.06560 0.51716 0.95394
 C273 C 1.07703 0.50357 0.95201
 C274 C 1.08955 0.50477 0.96518
 C275 C 1.08504 0.51953 0.97487
 H276 H 1.07628 0.49357 0.94185
 H277 H 1.09191 0.52456 0.98633
 N278 N 1.02354 0.53093 0.92702
 N279 N 1.01416 0.54490 0.93184
 C280 C 1.00045 0.54693 0.92061
 C281 C 1.00134 0.53362 0.90826
 C282 C 1.01604 0.52370 0.91260
 H283 H 0.99055 0.55728 0.92133
 H284 H 1.02087 0.51210 0.90575
 H285 H 1.03104 0.53550 0.95966
 H286 H 1.04478 0.54984 0.94498
 N287 N 0.52661 0.07085 0.47538
 N288 N 0.54048 0.06576 0.48462
 C289 C 0.54279 0.07703 0.49819
 C290 C 0.52967 0.08972 0.49731
 C291 C 0.51962 0.08550 0.48275
 H292 H 0.55319 0.07613 0.50796
 H293 H 0.50812 0.09256 0.47790
 Cu294 Cu 0.55419 0.04496 0.47796
 Cu295 Cu 0.51868 0.05814 0.45452
 Cu296 Cu 0.54324 0.02141 0.44197
 N297 N 0.56807 0.02455 0.47052
 N298 N 0.56372 0.01540 0.45642
 C299 C 0.57544 0.00211 0.45423
 C300 C 0.58770 0.00307 0.46764
 C301 C 0.58275 0.01739 0.47776
 H302 H 0.57509 -0.00750 0.44368
 H303 H 0.58936 0.02219 0.48946
 N304 N 0.52210 0.02958 0.42904
 N305 N 0.51274 0.04358 0.43381
 C306 C 0.49920 0.04575 0.42241
 C307 C 0.50018 0.03251 0.41000
 C308 C 0.51475 0.02248 0.41448
 H309 H 0.48935 0.05616 0.42306
 H310 H 0.51960 0.01089 0.40763
 H311 H 0.52872 0.03366 0.46158
 H312 H 0.54334 0.04814 0.44790
 N313 N -0.02695 0.07125 0.52495
 N314 N -0.04085 0.06618 0.51574
 C315 C -0.04318 0.07747 0.50219
 C316 C -0.03006 0.09015 0.50306
 C317 C -0.01997 0.08591 0.51758
 H318 H -0.05361 0.07659 0.49244
 H319 H -0.00845 0.09296 0.52241
 Cu320 Cu -0.05456 0.04539 0.52239
 Cu321 Cu -0.01896 0.05849 0.54575
 Cu322 Cu -0.04356 0.02180 0.55835
 N323 N -0.06848 0.02504 0.52990
 N324 N -0.06413 0.01587 0.54398
 C325 C -0.07589 0.00262 0.54620
 C326 C -0.08817 0.00362 0.53280
 C327 C -0.08319 0.01792 0.52267
 H328 H -0.07554 -0.00702 0.55673
 H329 H -0.08979 0.02273 0.51097
 N330 N -0.02232 0.02989 0.57119
 N331 N -0.01295 0.04389 0.56640
 C332 C 0.00065 0.04601 0.57773
 C333 C -0.00029 0.03274 0.59012
 C334 C -0.01491 0.02274 0.58570
 H335 H 0.01051 0.05640 0.57706
 H336 H -0.01975 0.01116 0.59256
 H337 H -0.02908 0.03404 0.53870
 H338 H -0.04364 0.04853 0.55243
 N339 N 0.47297 0.57087 0.02552
 N340 N 0.45915 0.56574 0.01624
 C341 C 0.45688 0.57698 0.00264
 C342 C 0.46997 0.58970 0.00356
 C343 C 0.47997 0.58552 0.01816
 H344 H 0.44652 0.57605 -0.00717
 H345 H 0.49143 0.59261 0.02305
 Cu346 Cu 0.44542 0.54495 0.02288
 Cu347 Cu 0.48083 0.55821 0.04644
 Cu348 Cu 0.45617 0.52155 0.05903
 N349 N 0.43149 0.52458 0.03035
 N350 N 0.43575 0.51550 0.04452
 C351 C 0.42400 0.50223 0.04672
 C352 C 0.41182 0.50313 0.03322
 C353 C 0.41687 0.51738 0.02305
 H354 H 0.42427 0.49267 0.05732
 H355 H 0.41034 0.52212 0.01127
 N356 N 0.47729 0.52974 0.07201
 N357 N 0.48669 0.54371 0.06721
 C358 C 0.50022 0.54588 0.07862
 C359 C 0.49918 0.53267 0.09107
 C360 C 0.48459 0.52266 0.08659
 H361 H 0.51010 0.55625 0.07795
 H362 H 0.47971 0.51109 0.09346
 H363 H 0.47080 0.53370 0.03943
 H364 H 0.45613 0.54825 0.05298
 N365 N 0.52857 -0.07262 0.02743
 N366 N 0.54300 -0.06812 0.01876
 C367 C 0.54530 -0.07941 0.00521
 C368 C 0.53161 -0.09151 0.00553
 C369 C 0.52121 -0.08690 0.01972
 H370 H 0.55605 -0.07888 -0.00420
 H371 H 0.50920 -0.09344 0.02407
 Cu372 Cu 0.55730 -0.04789 0.02592
 Cu373 Cu 0.52041 -0.05961 0.04802
 Cu374 Cu 0.54510 -0.02299 0.06062
 N375 N 0.57072 -0.02700 0.03291
 N376 N 0.56586 -0.01730 0.04647
 C377 C 0.57730 -0.00371 0.04834
 C378 C 0.58988 -0.00504 0.03526
 C379 C 0.58541 -0.01988 0.02568
 H380 H 0.57650 0.00640 0.05841
 H381 H 0.59232 -0.02502 0.01430
 N382 N 0.52369 -0.03085 0.07329
 N383 N 0.51427 -0.04481 0.06849
 C384 C 0.50055 -0.04677 0.07970
 C385 C 0.50147 -0.03343 0.09203
 C386 C 0.51620 -0.02357 0.08768
 H387 H 0.49063 -0.05710 0.07900
 H388 H 0.52107 -0.01198 0.09452
 H389 H 0.53135 -0.03559 0.04066
 H390 H 0.54494 -0.04989 0.05553
 N391 N 1.02738 0.42883 0.52553
 N392 N 1.04150 0.43372 0.51656
 C393 C 1.04377 0.42254 0.50291
 C394 C 1.03037 0.41013 0.50347
 C395 C 1.02019 0.41441 0.51791
 H396 H 1.05432 0.42333 0.49330
 H397 H 1.00847 0.40756 0.52251
 Cu398 Cu 1.05547 0.45419 0.52366
 Cu399 Cu 1.01936 0.44152 0.54638
 Cu400 Cu 1.04410 0.47807 0.55925
 N401 N 1.06924 0.47471 0.53100
 N402 N 1.06472 0.48399 0.54495
 C403 C 1.07633 0.49738 0.54710
 C404 C 1.08870 0.49636 0.53379
 C405 C 1.08391 0.48190 0.52378
 H406 H 1.07582 0.50714 0.55751
 H407 H 1.09060 0.47706 0.51215
 N408 N 1.02281 0.46998 0.57199
 N409 N 1.01339 0.45605 0.56709
 C410 C 0.99974 0.45394 0.57836
 C411 C 1.00072 0.46713 0.59084
 C412 C 1.01540 0.47708 0.58651
 H413 H 0.98980 0.44363 0.57758
 H414 H 1.02025 0.48863 0.59342
 H415 H 1.02982 0.46585 0.53943
 H416 H 1.04396 0.45130 0.55352
 C417 C 0.39945 0.00818 0.22663
 H418 H 0.40018 0.02025 0.23428
 C419 C 0.41110 0.00551 0.21260
 H420 H 0.42082 0.01557 0.20934
 C421 C 0.38609 -0.01985 0.22169
 H422 H 0.37654 -0.02982 0.22543
 C423 C 0.39750 -0.02305 0.20754
 H424 H 0.39657 -0.03540 0.20033
 N425 N 0.38714 -0.00434 0.23078
 C426 C 0.34498 0.02408 0.25823
 H427 H 0.34422 0.01641 0.27024
 C428 C 0.33340 0.03827 0.25556
 H429 H 0.32371 0.04163 0.26555
 C430 C 0.35835 0.02895 0.23038
 H431 H 0.36789 0.02512 0.22049
 C432 C 0.34702 0.04324 0.22718
 H433 H 0.34798 0.05049 0.21491
 Zn434 Zn 0.37221 0.00017 0.25032
 N435 N 0.35728 0.01983 0.24581
 C436 C 0.38602 0.02018 0.27903
 N437 N 0.38713 0.00471 0.26988
 C438 C 0.39945 -0.00780 0.27403
 C439 C 0.41104 -0.00516 0.28814
 C440 C 0.39735 0.02334 0.29324
 C441 C 0.34507 -0.02386 0.24241
 C442 C 0.33355 -0.03811 0.24509
 C443 C 0.34720 -0.04302 0.27346
 C444 C 0.35847 -0.02868 0.27026
 N445 N 0.35735 -0.01956 0.25484
 H446 H 0.37645 0.03014 0.27529
 H447 H 0.40023 -0.01984 0.26635
 H448 H 0.42075 -0.01522 0.29142
 H449 H 0.39636 0.03565 0.30051
 H450 H 0.34428 -0.01620 0.23040
 H451 H 0.32387 -0.04151 0.23509
 H452 H 0.34821 -0.05026 0.28573
 H453 H 0.36800 -0.02481 0.28016
 C454 C 0.33447 0.04796 0.23991
 C455 C 0.41008 -0.01023 0.20295
 C456 C 0.33468 -0.04779 0.26074
 C457 C 0.40993 0.01053 0.29785
 C458 C 0.10064 -0.00793 0.72586
 H459 H 0.09985 -0.01997 0.73353
 C460 C 0.08904 -0.00527 0.71176
 H461 H 0.07931 -0.01531 0.70849
 C462 C 0.11413 0.02003 0.72085
 H463 H 0.12372 0.02997 0.72458
 C464 C 0.10277 0.02322 0.70666
 H465 H 0.10378 0.03554 0.69939
 N466 N 0.11300 0.00455 0.72999
 C467 C 0.15505 -0.02400 0.75745
 H468 H 0.15590 -0.01628 0.76942
 C469 C 0.16653 -0.03829 0.75482
 H470 H 0.17624 -0.04165 0.76480
 C471 C 0.14153 -0.02895 0.72969
 H472 H 0.13197 -0.02512 0.71981
 C473 C 0.15275 -0.04334 0.72653
 H474 H 0.15167 -0.05065 0.71431
 Zn475 Zn 0.12791 0.00001 0.74954
 N476 N 0.14274 -0.01974 0.74505
 C477 C 0.11404 -0.01997 0.77822
 N478 N 0.11299 -0.00448 0.76910
 C479 C 0.10071 0.00807 0.77326
 C480 C 0.08913 0.00546 0.78737
 C481 C 0.10271 -0.02311 0.79244
 C482 C 0.15520 0.02389 0.74166
 C483 C 0.16677 0.03809 0.74432
 C484 C 0.15305 0.04317 0.77262
 C485 C 0.14173 0.02886 0.76944
 N486 N 0.14286 0.01968 0.75405
 H487 H 0.12357 -0.02996 0.77447
 H488 H 0.09997 0.02013 0.76560
 H489 H 0.07946 0.01555 0.79066
 H490 H 0.10366 -0.03543 0.79969
 H491 H 0.15599 0.01618 0.72968
 H492 H 0.17649 0.04142 0.73435
 H493 H 0.15203 0.05046 0.78486
 H494 H 0.13216 0.02506 0.77931
 C495 C 0.16531 -0.04807 0.73924
 C496 C 0.09016 0.01043 0.70206
 C497 C 0.16564 0.04784 0.75992
 C498 C 0.09019 -0.01025 0.79707
 C499 C 0.60017 0.49211 0.22681
 H500 H 0.59946 0.48003 0.23445
 C501 C 0.58850 0.49476 0.21277
 H502 H 0.57880 0.48469 0.20951
 C503 C 0.61351 0.52014 0.22184
 H504 H 0.62306 0.53011 0.22557
 C505 C 0.60208 0.52333 0.20771
 H506 H 0.60300 0.53567 0.20048
 N507 N 0.61250 0.50462 0.23093
 C508 C 0.65467 0.47597 0.25811
 H509 H 0.65554 0.48363 0.27011
 C510 C 0.66613 0.46169 0.25538
 H511 H 0.67585 0.45827 0.26533
 C512 C 0.64112 0.47119 0.23032
 H513 H 0.63156 0.47509 0.22047
 C514 C 0.65234 0.45682 0.22707
 H515 H 0.65125 0.44959 0.21480
 Zn516 Zn 0.62757 0.50006 0.25036
 N517 N 0.64234 0.48030 0.24574
 C518 C 0.61378 0.48006 0.27905
 N519 N 0.61279 0.49561 0.27002
 C520 C 0.60063 0.50822 0.27432
 C521 C 0.58907 0.50559 0.28843
 C522 C 0.60244 0.47689 0.29326
 C523 C 0.65472 0.52398 0.24216
 C524 C 0.66628 0.53822 0.24470
 C525 C 0.65301 0.54311 0.27324
 C526 C 0.64169 0.52879 0.27018
 N527 N 0.64258 0.51969 0.25473
 H528 H 0.62322 0.47002 0.27520
 H529 H 0.59996 0.52034 0.26673
 H530 H 0.57947 0.51573 0.29181
 H531 H 0.60330 0.46450 0.30041
 H532 H 0.65534 0.51634 0.23014
 H533 H 0.67582 0.54163 0.23459
 H534 H 0.65217 0.55035 0.28553
 H535 H 0.63229 0.52492 0.28019
 C536 C 0.66491 0.45202 0.23974
 C537 C 0.58952 0.51050 0.20311
 C538 C 0.66536 0.54790 0.26036
 C539 C 0.59001 0.48980 0.29800
 C540 C 0.89919 0.50798 0.72596
 H541 H 0.89988 0.52009 0.73355
 C542 C 0.91075 0.50537 0.71184
 H543 H 0.92036 0.51550 0.70847
 C544 C 0.88600 0.47984 0.72117
 H545 H 0.87654 0.46981 0.72501
 C546 C 0.89733 0.47669 0.70696
 H547 H 0.89644 0.46432 0.69978
 N548 N 0.88700 0.49538 0.73023
 C549 C 0.84501 0.52381 0.75788
 H550 H 0.84436 0.51620 0.76993
 C551 C 0.83343 0.53802 0.75526
 H552 H 0.82385 0.54144 0.76534
 C553 C 0.85813 0.52857 0.72990
 H554 H 0.86757 0.52469 0.71994
 C555 C 0.84679 0.54286 0.72675
 H556 H 0.84765 0.55006 0.71444
 Zn557 Zn 0.87216 0.49986 0.74983
 N558 N 0.85719 0.51951 0.74537
 C559 C 0.88614 0.51994 0.77839
 N560 N 0.88716 0.50442 0.76931
 C561 C 0.89947 0.49190 0.77346
 C562 C 0.91114 0.49458 0.78750
 C563 C 0.89757 0.52315 0.79252
 C564 C 0.84501 0.47585 0.74197
 C565 C 0.83349 0.46160 0.74465
 C566 C 0.84723 0.45663 0.77297
 C567 C 0.85849 0.47098 0.76977
 N568 N 0.85733 0.48013 0.75437
 H569 H 0.87659 0.52992 0.77464
 H570 H 0.90018 0.47982 0.76583
 H571 H 0.92083 0.48450 0.79078
 H572 H 0.89665 0.53550 0.79973
 H573 H 0.84418 0.48353 0.72997
 H574 H 0.82378 0.45822 0.73467
 H575 H 0.84828 0.44936 0.78522
 H576 H 0.86805 0.47483 0.77964
 C577 C 0.83438 0.54765 0.73957
 C578 C 0.90978 0.48959 0.70225
 C579 C 0.83467 0.45188 0.76027
 C580 C 0.91013 0.51033 0.79713
 C581 C 0.22581 0.40386 0.00750
 H582 H 0.23338 0.40456 0.01959
 C583 C 0.21159 0.41541 0.00476
 H584 H 0.20811 0.42501 0.01478
 C585 C 0.22122 0.39068 -0.02047
 H586 H 0.22517 0.38123 -0.03039
 C587 C 0.20691 0.40198 -0.02374
 H588 H 0.19978 0.40108 -0.03609
 N589 N 0.23022 0.39168 -0.00496
 C590 C 0.25790 0.34967 0.02341
 H591 H 0.27008 0.34901 0.01590
 C592 C 0.25517 0.33806 0.03747
 H593 H 0.26531 0.32847 0.04087
 C594 C 0.22967 0.36280 0.02803
 H595 H 0.21965 0.37225 0.02415
 C596 C 0.22641 0.35142 0.04217
 H597 H 0.21395 0.35227 0.04925
 Zn598 Zn 0.24995 0.37682 -0.00037
 N599 N 0.24532 0.36187 0.01911
 C600 C 0.27871 0.39061 0.01975
 N601 N 0.26964 0.39171 0.00428
 C602 C 0.27399 0.40397 -0.00813
 C603 C 0.28825 0.41548 -0.00539
 C604 C 0.29305 0.40187 0.02301
 C605 C 0.24209 0.34969 -0.02416
 C606 C 0.24482 0.33812 -0.03824
 C607 C 0.27344 0.35175 -0.04312
 C608 C 0.27018 0.36307 -0.02894
 N609 N 0.25460 0.36198 -0.01991
 H610 H 0.27480 0.38110 0.02962
 H611 H 0.26638 0.40475 -0.02018
 H612 H 0.29170 0.42514 -0.01538
 H613 H 0.30026 0.40088 0.03531
 H614 H 0.22996 0.34892 -0.01657
 H615 H 0.23476 0.32843 -0.04158
 H616 H 0.28583 0.35272 -0.05029
 H617 H 0.28015 0.37260 -0.02512
 C618 C 0.23930 0.33899 0.04695
 C619 C 0.20204 0.41442 -0.01099
 C620 C 0.26062 0.33921 -0.04782
 C621 C 0.29789 0.41437 0.01030
 C622 C 0.72619 0.09551 -0.00760
 H623 H 0.73378 0.09472 -0.01966
 C624 C 0.71202 0.08393 -0.00477
 H625 H 0.70860 0.07420 -0.01470
 C626 C 0.72150 0.10896 0.02023
 H627 H 0.72540 0.11853 0.03006
 C628 C 0.70723 0.09763 0.02358
 H629 H 0.70007 0.09864 0.03590
 N630 N 0.73053 0.10784 0.00475
 C631 C 0.75801 0.14980 -0.02384
 H632 H 0.77015 0.15059 -0.01628
 C633 C 0.75526 0.16130 -0.03798
 H634 H 0.76533 0.17095 -0.04139
 C635 C 0.72989 0.13644 -0.02852
 H636 H 0.71993 0.12693 -0.02464
 C637 C 0.72661 0.14770 -0.04275
 H638 H 0.71419 0.14672 -0.04988
 Zn639 Zn 0.75018 0.12275 0.00005
 N640 N 0.74549 0.13754 -0.01953
 C641 C 0.77894 0.10895 -0.02002
 N642 N 0.76993 0.10791 -0.00452
 C643 C 0.77434 0.09571 0.00793
 C644 C 0.78858 0.08418 0.00519
 C645 C 0.79327 0.09768 -0.02328
 C646 C 0.74223 0.15001 0.02366
 C647 C 0.74490 0.16164 0.03771
 C648 C 0.77354 0.14811 0.04272
 C649 C 0.77034 0.13673 0.02858
 N650 N 0.75478 0.13774 0.01951
 H651 H 0.77498 0.11841 -0.02993
 H652 H 0.76676 0.09496 0.01999
 H653 H 0.79206 0.07456 0.01519
 H654 H 0.80041 0.09861 -0.03562
 H655 H 0.73011 0.15071 0.01605
 H656 H 0.73480 0.17131 0.04100
 H657 H 0.78592 0.14719 0.04994
 H658 H 0.78033 0.12719 0.02483
 C659 C 0.73943 0.16020 -0.04753
 C660 C 0.70244 0.08504 0.01094
 C661 C 0.76068 0.16063 0.04734
 C662 C 0.79815 0.08523 -0.01054
 C663 C 0.22583 0.59637 0.49220
 H664 H 0.23349 0.59560 0.48018
 C665 C 0.21156 0.58486 0.49487
 H666 H 0.20814 0.57523 0.48486
 C667 C 0.22105 0.60969 0.52008
 H668 H 0.22493 0.61917 0.52999
 C669 C 0.20669 0.59843 0.52327
 H670 H 0.19945 0.59940 0.53555
 N671 N 0.23017 0.60860 0.50465
 C672 C 0.25810 0.65061 0.47654
 H673 H 0.27017 0.65132 0.48422
 C674 C 0.25551 0.66222 0.46246
 H675 H 0.26563 0.67189 0.45922
 C676 C 0.23000 0.63735 0.47150
 H677 H 0.21997 0.62785 0.47522
 C678 C 0.22689 0.64871 0.45731
 H679 H 0.21454 0.64780 0.45005
 Zn680 Zn 0.24996 0.62341 0.50018
 N681 N 0.24551 0.63835 0.48065
 C682 C 0.27883 0.60957 0.48030
 N683 N 0.26965 0.60847 0.49569
 C684 C 0.27387 0.59617 0.50810
 C685 C 0.28809 0.58460 0.50545
 C686 C 0.29314 0.59825 0.47711
 C687 C 0.24201 0.65060 0.52389
 C688 C 0.24468 0.66216 0.53799
 C689 C 0.27318 0.64839 0.54315
 C690 C 0.26998 0.63708 0.52894
 N691 N 0.25450 0.63825 0.51976
 H692 H 0.27503 0.61912 0.47041
 H693 H 0.26616 0.59539 0.52009
 H694 H 0.29142 0.57490 0.51543
 H695 H 0.30043 0.59923 0.46486
 H696 H 0.22995 0.65143 0.51619
 H697 H 0.23464 0.67190 0.54124
 H698 H 0.28551 0.64736 0.55043
 H699 H 0.27993 0.62750 0.52521
 C700 C 0.23978 0.66122 0.45273
 C701 C 0.20189 0.58594 0.51053
 C702 C 0.26039 0.66100 0.54772
 C703 C 0.29783 0.58570 0.48983
 C704 C 0.72608 0.90418 0.50798
 H705 H 0.73382 0.90497 0.51995
 C706 C 0.71179 0.91568 0.50538
 H707 H 0.70845 0.92534 0.51540
 C708 C 0.72107 0.89080 0.48017
 H709 H 0.72487 0.88128 0.47026
 C710 C 0.70668 0.90204 0.47705
 H711 H 0.69933 0.90102 0.46483
 N712 N 0.73030 0.89192 0.49554
 C713 C 0.75811 0.84986 0.52367
 H714 H 0.77021 0.84914 0.51603
 C715 C 0.75545 0.83823 0.53772
 H716 H 0.76555 0.82855 0.54100
 C717 C 0.73001 0.86314 0.52859
 H718 H 0.72001 0.87266 0.52483
 C719 C 0.72681 0.85176 0.54273
 H720 H 0.71443 0.85266 0.54993
 Zn721 Zn 0.75004 0.87704 0.49998
 N722 N 0.74555 0.86213 0.51951
 C723 C 0.77901 0.89079 0.51981
 N724 N 0.76979 0.89190 0.50443
 C725 C 0.77402 0.90418 0.49200
 C726 C 0.78828 0.91570 0.49461
 C727 C 0.79337 0.90206 0.52295
 C728 C 0.74195 0.84988 0.47628
 C729 C 0.74455 0.83832 0.46216
 C730 C 0.77311 0.85196 0.45702
 C731 C 0.76998 0.86327 0.47124
 N732 N 0.75450 0.86217 0.48041
 H733 H 0.77521 0.88126 0.52971
 H734 H 0.76628 0.90496 0.48002
 H735 H 0.79162 0.92537 0.48461
 H736 H 0.80070 0.90106 0.53519
 H737 H 0.72990 0.84910 0.48399
 H738 H 0.73446 0.82864 0.45891
 H739 H 0.78543 0.85295 0.44973
 H740 H 0.77999 0.87280 0.47497
 C741 C 0.73967 0.83923 0.54735
 C742 C 0.70198 0.91455 0.48980
 C743 C 0.76025 0.83943 0.45243
 C744 C 0.79807 0.91459 0.51021
 C745 C 0.00798 0.22682 0.40196
 H746 H 0.01990 0.23479 0.40263
 C747 C 0.00572 0.21259 0.41349
 H748 H 0.01595 0.20951 0.42305
 C749 C -0.02006 0.22120 0.38889
 H750 H -0.03020 0.22476 0.37948
 C751 C -0.02285 0.20687 0.40018
 H752 H -0.03506 0.19932 0.39933
 N753 N -0.00474 0.23072 0.38984
 C754 C 0.02281 0.25906 0.34792
 H755 H 0.01479 0.27092 0.34719
 C756 C 0.03699 0.25672 0.33632
 H757 H 0.03997 0.26683 0.32663
 C758 C 0.02858 0.23120 0.36121
 H759 H 0.02509 0.22116 0.37072
 C760 C 0.04287 0.22834 0.34986
 H761 H 0.05047 0.21618 0.35078
 Zn762 Zn -0.00079 0.25048 0.37499
 N763 N 0.01900 0.24646 0.36017
 C764 C 0.01856 0.27982 0.38863
 N765 N 0.00323 0.27032 0.38970
 C766 C -0.00941 0.27428 0.40186
 C767 C -0.00706 0.28854 0.41334
 C768 C 0.02144 0.29418 0.39987
 C769 C -0.02451 0.24172 0.34808
 C770 C -0.03873 0.24397 0.33651
 C771 C -0.04455 0.27245 0.34987
 C772 C -0.03021 0.26967 0.36119
 N773 N -0.02064 0.25440 0.36023
 H774 H 0.02864 0.27622 0.37919
 H775 H -0.02133 0.26632 0.40262
 H776 H -0.01722 0.29165 0.42295
 H777 H 0.03366 0.30170 0.39894
 H778 H -0.01648 0.22985 0.34741
 H779 H -0.04176 0.23379 0.32692
 H780 H -0.05214 0.28462 0.35072
 H781 H -0.02668 0.27978 0.37062
 C782 C 0.04712 0.24123 0.33733
 C783 C -0.00982 0.20251 0.41255
 C784 C -0.04885 0.25947 0.33745
 C785 C 0.00849 0.29859 0.41230
 C786 C -0.00823 0.72643 0.09757
 H787 H -0.02014 0.73440 0.09686
 C788 C -0.00590 0.71224 0.08600
 H789 H -0.01607 0.70920 0.07637
 C790 C 0.01976 0.72080 0.11075
 H791 H 0.02986 0.72434 0.12020
 C792 C 0.02261 0.70650 0.09943
 H793 H 0.03483 0.69897 0.10031
 N794 N 0.00444 0.73031 0.10975
 C795 C -0.02314 0.75877 0.15158
 H796 H -0.01510 0.77063 0.15230
 C797 C -0.03735 0.75647 0.16316
 H798 H -0.04034 0.76661 0.17280
 C799 C -0.02892 0.73089 0.13834
 H800 H -0.02543 0.72083 0.12886
 C801 C -0.04324 0.72807 0.14967
 H802 H -0.05085 0.71592 0.14876
 Zn803 Zn 0.00047 0.75012 0.12453
 N804 N -0.01932 0.74614 0.13937
 C805 C -0.01885 0.77946 0.11081
 N806 N -0.00356 0.76990 0.10974
 C807 C 0.00905 0.77375 0.09751
 C808 C 0.00671 0.78795 0.08595
 C809 C -0.02172 0.79377 0.09950
 C810 C 0.02423 0.74151 0.15148
 C811 C 0.03850 0.74382 0.16298
 C812 C 0.04435 0.77219 0.14939
 C813 C 0.02996 0.76935 0.13814
 N814 N 0.02035 0.75412 0.13925
 H815 H -0.02891 0.77595 0.12030
 H816 H 0.02094 0.76575 0.09675
 H817 H 0.01685 0.79097 0.07629
 H818 H -0.03390 0.80134 0.10043
 H819 H 0.01618 0.72967 0.15226
 H820 H 0.04154 0.73371 0.17264
 H821 H 0.05197 0.78432 0.14841
 H822 H 0.02643 0.77940 0.12865
 C823 C -0.04750 0.74100 0.16215
 C824 C 0.00965 0.70218 0.08697
 C825 C 0.04866 0.75929 0.16189
 C826 C -0.00880 0.79806 0.08699
 C827 C 0.49140 0.22657 0.59819
 H828 H 0.47947 0.23453 0.59754
 C829 C 0.49365 0.21232 0.58667
 H830 H 0.48341 0.20924 0.57714
 C831 C 0.51946 0.22099 0.61123
 H832 H 0.52961 0.22456 0.62062
 C833 C 0.52225 0.20664 0.59995
 H834 H 0.53446 0.19911 0.60079
 N835 N 0.50413 0.23049 0.61029
 C836 C 0.47661 0.25886 0.65222
 H837 H 0.48463 0.27073 0.65294
 C838 C 0.46243 0.25653 0.66383
 H839 H 0.45944 0.26665 0.67349
 C840 C 0.47086 0.23099 0.63897
 H841 H 0.47434 0.22093 0.62947
 C842 C 0.45656 0.22813 0.65033
 H843 H 0.44897 0.21597 0.64942
 Zn844 Zn 0.50019 0.25027 0.62512
 N845 N 0.48043 0.24626 0.63999
 C846 C 0.48081 0.27959 0.61146
 N847 N 0.49614 0.27008 0.61038
 C848 C 0.50875 0.27400 0.59817
 C849 C 0.50636 0.28821 0.58663
 C850 C 0.47789 0.29390 0.60017
 C851 C 0.52397 0.24160 0.65203
 C852 C 0.53821 0.24390 0.66357
 C853 C 0.54402 0.27233 0.65010
 C854 C 0.52966 0.26950 0.63881
 N855 N 0.52008 0.25424 0.63985
 H856 H 0.47076 0.27602 0.62094
 H857 H 0.52067 0.26605 0.59742
 H858 H 0.51649 0.29128 0.57698
 H859 H 0.46568 0.30142 0.60110
 H860 H 0.51594 0.22973 0.65277
 H861 H 0.54125 0.23376 0.67321
 H862 H 0.55161 0.28449 0.64918
 H863 H 0.52612 0.27958 0.62935
 C864 C 0.45231 0.24103 0.66283
 C865 C 0.50920 0.20226 0.58760
 C866 C 0.54834 0.25939 0.66256
 C867 C 0.49080 0.29825 0.58767
 C868 C 0.50857 0.72620 0.90250
 H869 H 0.52051 0.73414 0.90321
 C870 C 0.50625 0.71195 0.91398
 H871 H 0.51645 0.70882 0.92355
 C872 C 0.48052 0.72072 0.88937
 H873 H 0.47040 0.72434 0.87997
 C874 C 0.47767 0.70636 0.90062
 H875 H 0.46544 0.69886 0.89974
 N876 N 0.49587 0.73019 0.89038
 C877 C 0.52349 0.75889 0.84874
 H878 H 0.51550 0.77078 0.84812
 C879 C 0.53769 0.75664 0.83714
 H880 H 0.54072 0.76686 0.82758
 C881 C 0.52916 0.73088 0.86174
 H882 H 0.52564 0.72074 0.87114
 C883 C 0.54348 0.72811 0.85039
 H884 H 0.55104 0.71592 0.85119
 Zn885 Zn 0.49984 0.75008 0.87572
 N886 N 0.51962 0.74617 0.86085
 C887 C 0.51926 0.77924 0.88965
 N888 N 0.50392 0.76976 0.89065
 C889 C 0.49132 0.77359 0.90290
 C890 C 0.49373 0.78769 0.91456
 C891 C 0.52220 0.79346 0.90107
 C892 C 0.47608 0.74165 0.84873
 C893 C 0.46181 0.74403 0.83723
 C894 C 0.45598 0.77232 0.85096
 C895 C 0.47036 0.76942 0.86222
 N896 N 0.47996 0.75418 0.86102
 H897 H 0.52931 0.77574 0.88015
 H898 H 0.47939 0.76563 0.90360
 H899 H 0.48361 0.79069 0.92424
 H900 H 0.53443 0.80096 0.90019
 H901 H 0.48411 0.72980 0.84789
 H902 H 0.45879 0.73397 0.82751
 H903 H 0.44837 0.78446 0.85200
 H904 H 0.47389 0.77940 0.87177
 C905 C 0.54778 0.74112 0.83801
 C906 C 0.49067 0.70193 0.91300
 C907 C 0.45166 0.75950 0.83839
 C908 C 0.50930 0.79772 0.91360
 C909 C 0.08869 0.23344 0.30349
 C910 C 0.09233 0.24609 0.29020
 C911 C 0.10677 0.24337 0.27846
 C912 C 0.11747 0.22803 0.28007
 C913 C 0.11380 0.21538 0.29334
 C914 C 0.09937 0.21809 0.30508
 C915 C 0.09596 0.20525 0.31824
 C916 C 0.10651 0.19016 0.31974
 C917 C 0.12062 0.18750 0.30827
 C918 C 0.12429 0.19992 0.29519
 C919 C 0.11015 0.25620 0.26528
 C920 C 0.09958 0.27127 0.26375
 C921 C 0.08547 0.27392 0.27523
 C922 C 0.08183 0.26152 0.28833
 C923 C 0.13223 0.22527 0.26809
 C924 C 0.14449 0.22297 0.25816
 C925 C 0.07396 0.23622 0.31549
 C926 C 0.06172 0.23851 0.32546
 H927 H 0.08513 0.20671 0.32747
 H928 H 0.10371 0.18047 0.32988
 H929 H 0.12877 0.17576 0.30950
 H930 H 0.13541 0.19727 0.28658
 H931 H 0.12097 0.25472 0.25603
 H932 H 0.10235 0.28094 0.25359
 H933 H 0.07730 0.28565 0.27398
 H934 H 0.07070 0.26418 0.29694
 C935 C 0.58938 0.73353 0.80414
 C936 C 0.59286 0.74610 0.79074
 C937 C 0.60725 0.74341 0.77894
 C938 C 0.61808 0.72817 0.78062
 C939 C 0.61461 0.71560 0.79402
 C940 C 0.60022 0.71829 0.80582
 C941 C 0.59700 0.70554 0.81911
 C942 C 0.60770 0.69056 0.82070
 C943 C 0.62177 0.68793 0.80917
 C944 C 0.62525 0.70026 0.79596
 C945 C 0.61046 0.75615 0.76564
 C946 C 0.59975 0.77112 0.76405
 C947 C 0.58568 0.77375 0.77558
 C948 C 0.58221 0.76143 0.78880
 C949 C 0.63277 0.72540 0.76855
 C950 C 0.64497 0.72308 0.75854
 C951 C 0.57465 0.73625 0.81617
 C952 C 0.56241 0.73849 0.82613
 H953 H 0.58621 0.70700 0.82840
 H954 H 0.60505 0.68094 0.83094
 H955 H 0.63004 0.67627 0.81046
 H956 H 0.63635 0.69763 0.78731
 H957 H 0.62124 0.75469 0.75635
 H958 H 0.60239 0.78073 0.75380
 H959 H 0.57741 0.78540 0.77428
 H960 H 0.57112 0.76407 0.79745
 C961 C 0.40994 0.76731 0.80467
 C962 C 0.39227 0.76547 0.81076
 C963 C 0.37784 0.76808 0.79897
 C964 C 0.38116 0.77254 0.78117
 C965 C 0.39883 0.77441 0.77509
 C966 C 0.41326 0.77180 0.78687
 C967 C 0.43080 0.77377 0.78049
 C968 C 0.43400 0.77819 0.76297
 C969 C 0.41989 0.78073 0.75145
 C970 C 0.40248 0.77888 0.75736
 C971 C 0.36030 0.76617 0.80537
 C972 C 0.35710 0.76180 0.82290
 C973 C 0.37120 0.75926 0.83442
 C974 C 0.38861 0.76105 0.82849
 C975 C 0.36642 0.77523 0.76914
 C976 C 0.35418 0.77748 0.75915
 C977 C 0.42469 0.76456 0.81668
 C978 C 0.43697 0.76226 0.82660
 H979 H 0.44222 0.77194 0.78894
 H980 H 0.44749 0.77966 0.75831
 H981 H 0.42245 0.78417 0.73785
 H982 H 0.39196 0.78099 0.74790
 H983 H 0.34888 0.76801 0.79691
 H984 H 0.34360 0.76039 0.82757
 H985 H 0.36864 0.75589 0.84803
 H986 H 0.39914 0.75895 0.83796
 C987 C -0.09051 0.26699 0.30363
 C988 C -0.09397 0.25439 0.29025
 C989 C -0.10840 0.25702 0.27847
 C990 C -0.11928 0.27223 0.28014
 C991 C -0.11582 0.28482 0.29352
 C992 C -0.10139 0.28220 0.30530
 C993 C -0.09818 0.29498 0.31855
 C994 C -0.10892 0.30993 0.32013
 C995 C -0.12304 0.31249 0.30862
 C996 C -0.12651 0.30012 0.29545
 C997 C -0.11160 0.24424 0.26520
 C998 C -0.10084 0.22931 0.26361
 C999 C -0.08673 0.22675 0.27512
 C1000 C -0.08328 0.23910 0.28832
 C1001 C -0.13401 0.27492 0.26810
 C1002 C -0.14624 0.27718 0.25811
 C1003 C -0.07576 0.26432 0.31564
 C1004 C -0.06350 0.26211 0.32560
 H1005 H -0.08736 0.29358 0.32783
 H1006 H -0.10628 0.31958 0.33034
 H1007 H -0.13134 0.32412 0.30991
 H1008 H -0.13765 0.30270 0.28682
 H1009 H -0.12242 0.24565 0.25594
 H1010 H -0.10347 0.21967 0.25339
 H1011 H -0.07842 0.21512 0.27383
 H1012 H -0.07215 0.23651 0.29696
 C1013 C -0.08919 0.73341 0.19591
 C1014 C -0.09272 0.74601 0.20926
 C1015 C -0.10716 0.74336 0.22101
 C1016 C -0.11800 0.72812 0.21934
 C1017 C -0.11448 0.71552 0.20597
 C1018 C -0.10003 0.71817 0.19423
 C1019 C -0.09678 0.70540 0.18097
 C1020 C -0.10749 0.69043 0.17937
 C1021 C -0.12161 0.68783 0.19085
 C1022 C -0.12513 0.70019 0.20403
 C1023 C -0.11042 0.75614 0.23425
 C1024 C -0.09973 0.77112 0.23584
 C1025 C -0.08561 0.77372 0.22435
 C1026 C -0.08209 0.76135 0.21119
 C1027 C -0.13276 0.72541 0.23133
 C1028 C -0.14502 0.72315 0.24127
 C1029 C -0.07442 0.73610 0.18393
 C1030 C -0.06215 0.73834 0.17399
 H1031 H -0.08596 0.70683 0.17172
 H1032 H -0.10483 0.68079 0.16915
 H1033 H -0.12990 0.67619 0.18955
 H1034 H -0.13626 0.69758 0.21264
 H1035 H -0.12125 0.75471 0.24350
 H1036 H -0.10241 0.78078 0.24603
 H1037 H -0.07735 0.78539 0.22563
 H1038 H -0.07096 0.76396 0.20257
 C1039 C 0.41070 0.23325 0.69664
 C1040 C 0.40719 0.24577 0.71008
 C1041 C 0.39276 0.24305 0.72183
 C1042 C 0.38192 0.22782 0.72007
 C1043 C 0.38544 0.21529 0.70664
 C1044 C 0.39987 0.21802 0.69489
 C1045 C 0.40311 0.20531 0.68157
 C1046 C 0.39241 0.19034 0.67991
 C1047 C 0.37831 0.18768 0.69139
 C1048 C 0.37479 0.19997 0.70462
 C1049 C 0.38952 0.25575 0.73515
 C1050 C 0.40022 0.27072 0.73682
 C1051 C 0.41432 0.27338 0.72533
 C1052 C 0.41783 0.26110 0.71209
 C1053 C 0.36717 0.22504 0.73206
 C1054 C 0.35492 0.22272 0.74200
 C1055 C 0.42544 0.23603 0.68465
 C1056 C 0.43769 0.23832 0.67470
 H1057 H 0.41393 0.20680 0.67232
 H1058 H 0.39508 0.18076 0.66965
 H1059 H 0.37004 0.17603 0.69004
 H1060 H 0.36367 0.19731 0.71323
 H1061 H 0.37870 0.25426 0.74440
 H1062 H 0.39755 0.28030 0.74708
 H1063 H 0.42259 0.28503 0.72668
 H1064 H 0.42895 0.26376 0.70347
 C1065 C 0.59002 0.26698 0.69635
 C1066 C 0.60093 0.28217 0.69465
 C1067 C 0.61534 0.28480 0.70646
 C1068 C 0.61874 0.27224 0.71989
 C1069 C 0.60784 0.25705 0.72156
 C1070 C 0.59344 0.25441 0.70975
 C1071 C 0.58274 0.23911 0.71169
 C1072 C 0.58617 0.22677 0.72490
 C1073 C 0.60025 0.22935 0.73645
 C1074 C 0.61100 0.24429 0.73486
 C1075 C 0.62606 0.30008 0.70450
 C1076 C 0.62266 0.31239 0.69125
 C1077 C 0.60858 0.30981 0.67971
 C1078 C 0.59779 0.29490 0.68133
 C1079 C 0.63344 0.27495 0.73197
 C1080 C 0.64565 0.27721 0.74197
 C1081 C 0.57527 0.26431 0.68433
 C1082 C 0.56300 0.26208 0.67438
 H1083 H 0.57163 0.23652 0.70303
 H1084 H 0.57786 0.21515 0.72619
 H1085 H 0.60285 0.21973 0.74669
 H1086 H 0.62180 0.24571 0.74416
 H1087 H 0.63717 0.30267 0.71315
 H1088 H 0.63099 0.32400 0.68994
 H1089 H 0.60599 0.31942 0.66945
 H1090 H 0.58699 0.29348 0.67204
 C1091 C 0.09039 0.76696 0.19560
 C1092 C 0.09402 0.75429 0.20887
 C1093 C 0.10841 0.75699 0.22067
 C1094 C 0.11909 0.77236 0.21914
 C1095 C 0.11548 0.78501 0.20585
 C1096 C 0.10109 0.78231 0.19405
 C1097 C 0.09774 0.79515 0.18087
 C1098 C 0.10831 0.81023 0.17940
 C1099 C 0.12238 0.81288 0.19094
 C1100 C 0.12599 0.80046 0.20404
 C1101 C 0.11176 0.74414 0.23383
 C1102 C 0.10121 0.72904 0.23528
 C1103 C 0.08715 0.72640 0.22373
 C1104 C 0.08353 0.73883 0.21065
 C1105 C 0.13373 0.77518 0.23126
 C1106 C 0.14587 0.77757 0.24133
 C1107 C 0.07563 0.76424 0.18361
 C1108 C 0.06335 0.76198 0.17368
 H1109 H 0.08696 0.79367 0.17158
 H1110 H 0.10557 0.81991 0.16925
 H1111 H 0.13055 0.82461 0.18974
 H1112 H 0.13708 0.80312 0.21270
 H1113 H 0.12255 0.74561 0.24313
 H1114 H 0.10396 0.71934 0.24541
 H1115 H 0.07900 0.71464 0.22491
 H1116 H 0.07245 0.73617 0.20198
 C1117 C 0.30111 0.08992 0.23124
 C1118 C 0.30316 0.10039 0.21591
 C1119 C 0.29169 0.11505 0.21294
 C1120 C 0.27825 0.11916 0.22530
 C1121 C 0.27618 0.10866 0.24062
 C1122 C 0.28765 0.09400 0.24360
 C1123 C 0.28534 0.08371 0.25900
 C1124 C 0.27208 0.08779 0.27113
 C1125 C 0.26087 0.10212 0.26822
 C1126 C 0.26283 0.11248 0.25316
 C1127 C 0.29400 0.12534 0.19752
 C1128 C 0.30726 0.12125 0.18540
 C1129 C 0.31846 0.10692 0.18831
 C1130 C 0.31650 0.09656 0.20336
 C1131 C 0.26659 0.13418 0.22230
 C1132 C 0.25693 0.14667 0.21981
 C1133 C 0.31290 0.07501 0.23433
 C1134 C 0.32272 0.06266 0.23688
 H1135 H 0.29372 0.07243 0.26185
 H1136 H 0.27049 0.07979 0.28284
 H1137 H 0.25059 0.10523 0.27768
 H1138 H 0.25378 0.12349 0.25148
 H1139 H 0.28561 0.13662 0.19468
 H1140 H 0.30884 0.12926 0.17368
 H1141 H 0.32874 0.10381 0.17884
 H1142 H 0.32554 0.08555 0.20503
 C1143 C 0.80103 0.58963 0.73108
 C1144 C 0.79796 0.59573 0.71372
 C1145 C 0.78654 0.61043 0.71077
 C1146 C 0.77825 0.61893 0.72520
 C1147 C 0.78127 0.61279 0.74255
 C1148 C 0.79269 0.59810 0.74550
 C1149 C 0.79551 0.59221 0.76296
 C1150 C 0.78730 0.60060 0.77711
 C1151 C 0.77613 0.61497 0.77424
 C1152 C 0.77310 0.62105 0.75718
 C1153 C 0.78369 0.61630 0.69330
 C1154 C 0.79188 0.60789 0.67915
 C1155 C 0.80305 0.59352 0.68203
 C1156 C 0.80611 0.58746 0.69908
 C1157 C 0.76666 0.63401 0.72220
 C1158 C 0.75705 0.64653 0.71975
 C1159 C 0.81281 0.57471 0.73410
 C1160 C 0.82262 0.56235 0.73660
 H1161 H 0.80408 0.58108 0.76588
 H1162 H 0.78961 0.59593 0.79038
 H1163 H 0.76978 0.62144 0.78528
 H1164 H 0.76430 0.63228 0.75562
 H1165 H 0.77511 0.62742 0.69039
 H1166 H 0.78956 0.61255 0.66588
 H1167 H 0.80938 0.58704 0.67099
 H1168 H 0.81490 0.57623 0.70065
 C1169 C 0.80142 0.40983 0.76897
 C1170 C 0.78798 0.40571 0.75660
 C1171 C 0.77651 0.39105 0.75959
 C1172 C 0.77857 0.38059 0.77494
 C1173 C 0.79198 0.38475 0.78733
 C1174 C 0.80344 0.39941 0.78433
 C1175 C 0.81676 0.40329 0.79691
 C1176 C 0.81869 0.39299 0.81201
 C1177 C 0.80748 0.37866 0.81494
 C1178 C 0.79426 0.37452 0.80278
 C1179 C 0.76317 0.38719 0.74704
 C1180 C 0.76121 0.39752 0.73196
 C1181 C 0.77242 0.41184 0.72903
 C1182 C 0.78568 0.41595 0.74116
 C1183 C 0.76692 0.36555 0.77794
 C1184 C 0.75726 0.35306 0.78039
 C1185 C 0.81318 0.42476 0.76587
 C1186 C 0.82297 0.43714 0.76331
 H1187 H 0.82580 0.41430 0.79522
 H1188 H 0.82894 0.39615 0.82149
 H1189 H 0.80904 0.37071 0.82669
 H1190 H 0.78587 0.36325 0.80565
 H1191 H 0.75412 0.37619 0.74873
 H1192 H 0.75094 0.39439 0.72250
 H1193 H 0.77085 0.41982 0.71729
 H1194 H 0.79407 0.42723 0.73829
 C1195 C 0.30138 -0.08979 0.26941
 C1196 C 0.30346 -0.10031 0.28470
 C1197 C 0.29197 -0.11494 0.28769
 C1198 C 0.27845 -0.11897 0.27537
 C1199 C 0.27633 -0.10842 0.26010
 C1200 C 0.28783 -0.09379 0.25711
 C1201 C 0.28546 -0.08345 0.24175
 C1202 C 0.27210 -0.08743 0.22969
 C1203 C 0.26085 -0.10172 0.23262
 C1204 C 0.26288 -0.11215 0.24763
 C1205 C 0.29431 -0.12526 0.30308
 C1206 C 0.30763 -0.12124 0.31516
 C1207 C 0.31888 -0.10694 0.31224
 C1208 C 0.31688 -0.09655 0.29721
 C1209 C 0.26676 -0.13397 0.27838
 C1210 C 0.25706 -0.14643 0.28085
 C1211 C 0.31316 -0.07489 0.26633
 C1212 C 0.32296 -0.06252 0.26377
 H1213 H 0.29388 -0.07219 0.23889
 H1214 H 0.27047 -0.07938 0.21801
 H1215 H 0.25049 -0.10476 0.22321
 H1216 H 0.25379 -0.12312 0.24932
 H1217 H 0.28589 -0.13652 0.30594
 H1218 H 0.30924 -0.12927 0.32686
 H1219 H 0.32921 -0.10389 0.32167
 H1220 H 0.32596 -0.08557 0.29552
 C1221 C 0.19838 -0.09031 0.73084
 C1222 C 0.19548 -0.10167 0.71629
 C1223 C 0.20690 -0.11638 0.71343
 C1224 C 0.22116 -0.11965 0.72514
 C1225 C 0.22408 -0.10827 0.73967
 C1226 C 0.21265 -0.09356 0.74253
 C1227 C 0.21583 -0.08238 0.75715
 C1228 C 0.22991 -0.08562 0.76861
 C1229 C 0.24108 -0.10000 0.76581
 C1230 C 0.23827 -0.11124 0.75153
 C1231 C 0.20374 -0.12755 0.69880
 C1232 C 0.18969 -0.12427 0.68731
 C1233 C 0.17852 -0.10989 0.69011
 C1234 C 0.18132 -0.09867 0.70441
 C1235 C 0.23280 -0.13471 0.72225
 C1236 C 0.24245 -0.14722 0.71987
 C1237 C 0.18668 -0.07531 0.73380
 C1238 C 0.17695 -0.06288 0.73627
 H1239 H 0.20751 -0.07102 0.75989
 H1240 H 0.23215 -0.07693 0.77972
 H1241 H 0.25200 -0.10246 0.77475
 H1242 H 0.24732 -0.12224 0.74991
 H1243 H 0.21206 -0.13890 0.69606
 H1244 H 0.18746 -0.13294 0.67618
 H1245 H 0.16763 -0.10740 0.68115
 H1246 H 0.17226 -0.08766 0.70603
 C1247 C 0.69806 0.40991 0.23108
 C1248 C 0.69586 0.39928 0.21589
 C1249 C 0.70729 0.38458 0.21297
 C1250 C 0.72085 0.38061 0.22526
 C1251 C 0.72309 0.39128 0.24042
 C1252 C 0.71166 0.40598 0.24335
 C1253 C 0.71415 0.41645 0.25860
 C1254 C 0.72757 0.41253 0.27062
 C1255 C 0.73874 0.39816 0.26776
 C1256 C 0.73659 0.38761 0.25287
 C1257 C 0.70483 0.37414 0.19768
 C1258 C 0.69147 0.37812 0.18562
 C1259 C 0.68030 0.39249 0.18848
 C1260 C 0.68240 0.40299 0.20341
 C1261 C 0.73248 0.36556 0.22231
 C1262 C 0.74212 0.35305 0.21989
 C1263 C 0.68632 0.42486 0.23412
 C1264 C 0.67656 0.43725 0.23667
 H1265 H 0.70580 0.42777 0.26141
 H1266 H 0.72930 0.42069 0.28221
 H1267 H 0.74914 0.39518 0.27714
 H1268 H 0.74561 0.37658 0.25123
 H1269 H 0.71318 0.36282 0.19488
 H1270 H 0.68978 0.37000 0.17400
 H1271 H 0.66995 0.39552 0.17906
 H1272 H 0.67338 0.41402 0.20505
 C1273 C 0.69858 0.59006 0.26857
 C1274 C 0.69702 0.60540 0.25794
 C1275 C 0.70843 0.62011 0.26086
 C1276 C 0.72134 0.61940 0.27440
 C1277 C 0.72294 0.60404 0.28499
 C1278 C 0.71152 0.58933 0.28207
 C1279 C 0.71336 0.57413 0.29283
 C1280 C 0.72612 0.57347 0.30609
 C1281 C 0.73729 0.58785 0.30895
 C1282 C 0.73577 0.60300 0.29856
 C1283 C 0.70662 0.63529 0.25006
 C1284 C 0.69390 0.63592 0.23676
 C1285 C 0.68274 0.62154 0.23390
 C1286 C 0.68422 0.60642 0.24433
 C1287 C 0.73296 0.63445 0.27742
 C1288 C 0.74260 0.64696 0.27990
 C1289 C 0.68685 0.57508 0.26564
 C1290 C 0.67707 0.56267 0.26323
 H1291 H 0.70499 0.56261 0.29111
 H1292 H 0.72736 0.56174 0.31419
 H1293 H 0.74718 0.58727 0.31927
 H1294 H 0.74476 0.61383 0.30129
 H1295 H 0.71500 0.64681 0.25177
 H1296 H 0.69269 0.64763 0.22863
 H1297 H 0.67288 0.62209 0.22355
 H1298 H 0.67524 0.59557 0.24159
 C1299 C 0.19905 0.08978 0.76850
 C1300 C 0.21359 0.09276 0.75708
 C1301 C 0.22508 0.10742 0.75998
 C1302 C 0.22196 0.11901 0.77430
 C1303 C 0.20745 0.11601 0.78576
 C1304 C 0.19596 0.10135 0.78285
 C1305 C 0.18155 0.09862 0.79448
 C1306 C 0.17856 0.11005 0.80857
 C1307 C 0.18978 0.12438 0.81141
 C1308 C 0.20408 0.12739 0.80017
 C1309 C 0.23952 0.11013 0.74838
 C1310 C 0.24253 0.09868 0.73431
 C1311 C 0.23131 0.08435 0.73147
 C1312 C 0.21698 0.08136 0.74268
 C1313 C 0.23363 0.13404 0.77721
 C1314 C 0.24327 0.14655 0.77965
 C1315 C 0.18724 0.07488 0.76546
 C1316 C 0.17740 0.06254 0.76294
 H1317 H 0.17244 0.08765 0.79283
 H1318 H 0.16747 0.10777 0.81734
 H1319 H 0.18740 0.13322 0.82237
 H1320 H 0.21243 0.13873 0.80293
 H1321 H 0.24863 0.12109 0.75004
 H1322 H 0.25364 0.10094 0.72556
 H1323 H 0.23370 0.07550 0.72052
 H1324 H 0.20863 0.07003 0.73992
 C1325 C 0.23068 0.30541 0.08843
 C1326 C 0.21380 0.29752 0.09083
 C1327 C 0.21085 0.28587 0.10524
 C1328 C 0.22481 0.28219 0.11718
 C1329 C 0.24169 0.29008 0.11479
 C1330 C 0.24464 0.30173 0.10037
 C1331 C 0.26163 0.30945 0.09826
 C1332 C 0.27531 0.30579 0.11004
 C1333 C 0.27244 0.29439 0.12413
 C1334 C 0.25586 0.28659 0.12654
 C1335 C 0.19387 0.27813 0.10735
 C1336 C 0.18018 0.28180 0.09555
 C1337 C 0.18305 0.29320 0.08147
 C1338 C 0.19964 0.30101 0.07907
 C1339 C 0.22180 0.27033 0.13194
 C1340 C 0.21934 0.26050 0.14420
 C1341 C 0.23370 0.31730 0.07370
 C1342 C 0.23623 0.32719 0.06149
 H1343 H 0.26452 0.31839 0.08750
 H1344 H 0.28822 0.31181 0.10823
 H1345 H 0.28313 0.29158 0.13323
 H1346 H 0.25428 0.27782 0.13769
 H1347 H 0.19098 0.26917 0.11809
 H1348 H 0.16728 0.27576 0.09736
 H1349 H 0.17237 0.29600 0.07236
 H1350 H 0.20122 0.30977 0.06791
 C1351 C 0.73106 0.80549 0.58868
 C1352 C 0.74487 0.79422 0.59456
 C1353 C 0.74191 0.78256 0.60895
 C1354 C 0.72516 0.78225 0.61740
 C1355 C 0.71133 0.79348 0.61150
 C1356 C 0.71429 0.80514 0.59710
 C1357 C 0.70027 0.81625 0.59144
 C1358 C 0.68380 0.81584 0.59975
 C1359 C 0.68090 0.80444 0.61382
 C1360 C 0.69446 0.79336 0.61969
 C1361 C 0.75591 0.77140 0.61458
 C1362 C 0.77237 0.77176 0.60622
 C1363 C 0.77527 0.78317 0.59215
 C1364 C 0.76172 0.79430 0.58633
 C1365 C 0.72217 0.77042 0.63218
 C1366 C 0.71971 0.76061 0.64445
 C1367 C 0.73410 0.81744 0.57402
 C1368 C 0.73663 0.82737 0.56185
 H1369 H 0.70187 0.82534 0.58054
 H1370 H 0.67322 0.82442 0.59525
 H1371 H 0.66807 0.80417 0.62022
 H1372 H 0.69155 0.78472 0.63068
 H1373 H 0.75431 0.76229 0.62546
 H1374 H 0.78293 0.76314 0.61068
 H1375 H 0.78808 0.78340 0.58571
 H1376 H 0.76462 0.80292 0.57533
 C1377 C 0.76865 0.80604 0.41078
 C1378 C 0.75618 0.79255 0.40693
 C1379 C 0.75912 0.78094 0.39249
 C1380 C 0.77452 0.78289 0.38199
 C1381 C 0.78698 0.79641 0.38582
 C1382 C 0.78404 0.80801 0.40026
 C1383 C 0.79667 0.82143 0.40382
 C1384 C 0.81178 0.82332 0.39342
 C1385 C 0.81467 0.81197 0.37931
 C1386 C 0.80246 0.79864 0.37549
 C1387 C 0.74647 0.76755 0.38891
 C1388 C 0.73133 0.76570 0.39928
 C1389 C 0.72844 0.77705 0.41339
 C1390 C 0.74068 0.79035 0.41723
 C1391 C 0.77753 0.77104 0.36723
 C1392 C 0.78000 0.76119 0.35499
 C1393 C 0.76567 0.81787 0.42555
 C1394 C 0.76320 0.82770 0.43781
 H1395 H 0.79501 0.83059 0.41465
 H1396 H 0.82131 0.83366 0.39633
 H1397 H 0.82643 0.81350 0.37127
 H1398 H 0.80529 0.79014 0.36437
 H1399 H 0.74812 0.75839 0.37808
 H1400 H 0.72178 0.75539 0.39635
 H1401 H 0.71665 0.77556 0.42139
 H1402 H 0.73784 0.79886 0.42834
 C1403 C 0.26926 0.30560 -0.08926
 C1404 C 0.28465 0.30750 -0.09977
 C1405 C 0.28758 0.29583 -0.11417
 C1406 C 0.27509 0.28233 -0.11797
 C1407 C 0.25970 0.28042 -0.10744
 C1408 C 0.25677 0.29210 -0.09304
 C1409 C 0.24129 0.28994 -0.08271
 C1410 C 0.22905 0.27663 -0.08649
 C1411 C 0.23191 0.26521 -0.10055
 C1412 C 0.24704 0.26702 -0.11095
 C1413 C 0.30307 0.29798 -0.12449
 C1414 C 0.31532 0.31129 -0.12070
 C1415 C 0.31245 0.32270 -0.10663
 C1416 C 0.29732 0.32089 -0.09624
 C1417 C 0.27804 0.27047 -0.13272
 C1418 C 0.28049 0.26063 -0.14499
 C1419 C 0.26624 0.31753 -0.07457
 C1420 C 0.26370 0.32742 -0.06237
 H1421 H 0.23847 0.29849 -0.07163
 H1422 H 0.21727 0.27516 -0.07845
 H1423 H 0.22237 0.25489 -0.10342
 H1424 H 0.24868 0.25782 -0.12175
 H1425 H 0.30589 0.28943 -0.13558
 H1426 H 0.32710 0.31275 -0.12872
 H1427 H 0.32201 0.33301 -0.10374
 H1428 H 0.29568 0.33009 -0.08544
 C1429 C 0.73081 0.19365 -0.08912
 C1430 C 0.74412 0.19583 -0.10211
 C1431 C 0.74120 0.20747 -0.11653
 C1432 C 0.72499 0.21687 -0.11789
 C1433 C 0.71169 0.21471 -0.10490
 C1434 C 0.71461 0.20306 -0.09048
 C1435 C 0.70112 0.20112 -0.07766
 C1436 C 0.68521 0.21044 -0.07903
 C1437 C 0.68236 0.22183 -0.09312
 C1438 C 0.69540 0.22399 -0.10595
 C1439 C 0.75471 0.20944 -0.12933
 C1440 C 0.77064 0.20016 -0.12792
 C1441 C 0.77349 0.18878 -0.11383
 C1442 C 0.76043 0.18658 -0.10103
 C1443 C 0.72202 0.22877 -0.13263
 C1444 C 0.71960 0.23865 -0.14486
 C1445 C 0.73381 0.18178 -0.07438
 C1446 C 0.73634 0.17193 -0.06213
 H1447 H 0.70271 0.19242 -0.06645
 H1448 H 0.67503 0.20881 -0.06911
 H1449 H 0.66998 0.22904 -0.09413
 H1450 H 0.69256 0.23301 -0.11666
 H1451 H 0.75312 0.21814 -0.14054
 H1452 H 0.78083 0.20182 -0.13783
 H1453 H 0.78589 0.18161 -0.11280
 H1454 H 0.76328 0.17758 -0.09030
 C1455 C 0.23152 0.69480 0.41116
 C1456 C 0.22943 0.68784 0.39398
 C1457 C 0.22661 0.69948 0.37953
 C1458 C 0.22589 0.71801 0.38236
 C1459 C 0.22800 0.72497 0.39954
 C1460 C 0.23082 0.71333 0.41398
 C1461 C 0.23289 0.72060 0.43103
 C1462 C 0.23219 0.73885 0.43374
 C1463 C 0.22943 0.75023 0.41962
 C1464 C 0.22736 0.74344 0.40269
 C1465 C 0.22457 0.69221 0.36248
 C1466 C 0.22528 0.67396 0.35977
 C1467 C 0.22803 0.66258 0.37389
 C1468 C 0.23009 0.66937 0.39083
 C1469 C 0.22298 0.72990 0.36761
 C1470 C 0.22056 0.73977 0.35537
 C1471 C 0.23442 0.68290 0.42592
 C1472 C 0.23685 0.67302 0.43816
 H1473 H 0.23506 0.71229 0.44243
 H1474 H 0.23377 0.74418 0.44686
 H1475 H 0.22890 0.76439 0.42179
 H1476 H 0.22526 0.75283 0.39213
 H1477 H 0.22241 0.70052 0.35107
 H1478 H 0.22369 0.66863 0.34664
 H1479 H 0.22856 0.64842 0.37172
 H1480 H 0.23220 0.65998 0.40138
 C1481 C 0.26889 0.69466 0.58915
 C1482 C 0.28421 0.69272 0.59978
 C1483 C 0.28708 0.70440 0.61419
 C1484 C 0.27461 0.71794 0.61787
 C1485 C 0.25931 0.71989 0.60722
 C1486 C 0.25644 0.70822 0.59281
 C1487 C 0.24105 0.71044 0.58235
 C1488 C 0.22884 0.72381 0.58601
 C1489 C 0.23165 0.73522 0.60009
 C1490 C 0.24668 0.73335 0.61062
 C1491 C 0.30249 0.70220 0.62463
 C1492 C 0.31472 0.68886 0.62094
 C1493 C 0.31192 0.67745 0.60685
 C1494 C 0.29687 0.67929 0.59635
 C1495 C 0.27751 0.72982 0.63262
 C1496 C 0.27990 0.73968 0.64487
 C1497 C 0.26593 0.68271 0.57446
 C1498 C 0.26343 0.67280 0.56227
 H1499 H 0.23828 0.70189 0.57125
 H1500 H 0.21714 0.72532 0.57787
 H1501 H 0.22213 0.74559 0.60287
 H1502 H 0.24828 0.74256 0.62142
 H1503 H 0.30526 0.71075 0.63573
 H1504 H 0.32644 0.68738 0.62905
 H1505 H 0.32147 0.66712 0.60404
 H1506 H 0.29527 0.67010 0.58554
 C1507 C 0.76915 0.19430 0.08877
 C1508 C 0.78452 0.19242 0.09934
 C1509 C 0.78739 0.20406 0.11377
 C1510 C 0.77486 0.21753 0.11754
 C1511 C 0.75952 0.21944 0.10694
 C1512 C 0.75665 0.20780 0.09251
 C1513 C 0.74121 0.20997 0.08211
 C1514 C 0.72895 0.22327 0.08585
 C1515 C 0.73175 0.23466 0.09996
 C1516 C 0.74683 0.23282 0.11043
 C1517 C 0.80284 0.20191 0.12415
 C1518 C 0.81513 0.18864 0.12038
 C1519 C 0.81234 0.17726 0.10626
 C1520 C 0.79723 0.17906 0.09582
 C1521 C 0.77776 0.22939 0.13231
 C1522 C 0.78014 0.23923 0.14458
 C1523 C 0.76619 0.18237 0.07407
 C1524 C 0.76369 0.17246 0.06188
 H1525 H 0.73845 0.20145 0.07099
 H1526 H 0.71722 0.22476 0.07775
 H1527 H 0.72219 0.24496 0.10281
 H1528 H 0.74841 0.24199 0.12127
 H1529 H 0.80560 0.21042 0.13528
 H1530 H 0.82688 0.18718 0.12845
 H1531 H 0.82193 0.16698 0.10338
 H1532 H 0.79565 0.16989 0.08499
 C1533 C 0.48277 0.33970 0.55380
 C1534 C 0.49539 0.34337 0.54049
 C1535 C 0.49256 0.35770 0.52867
 C1536 C 0.47712 0.36828 0.53023
 C1537 C 0.46450 0.36463 0.54357
 C1538 C 0.46733 0.35029 0.55538
 C1539 C 0.45452 0.34688 0.56858
 C1540 C 0.43935 0.35734 0.57007
 C1541 C 0.43659 0.37136 0.55853
 C1542 C 0.44898 0.37503 0.54541
 C1543 C 0.50537 0.36110 0.51547
 C1544 C 0.52053 0.35063 0.51397
 C1545 C 0.52329 0.33662 0.52551
 C1546 C 0.51091 0.33296 0.53865
 C1547 C 0.47419 0.38286 0.51810
 C1548 C 0.47176 0.39495 0.50801
 C1549 C 0.48563 0.32503 0.56584
 C1550 C 0.48800 0.31283 0.57581
 H1551 H 0.45607 0.33613 0.57787
 H1552 H 0.42969 0.35455 0.58023
 H1553 H 0.42479 0.37945 0.55975
 H1554 H 0.44624 0.38608 0.53675
 H1555 H 0.50382 0.37186 0.50618
 H1556 H 0.53019 0.35342 0.50380
 H1557 H 0.53509 0.32852 0.52429
 H1558 H 0.51365 0.32191 0.54731
 C1559 C -0.01660 0.83959 0.05317
 C1560 C -0.00398 0.84316 0.03983
 C1561 C -0.00671 0.85753 0.02803
 C1562 C -0.02206 0.86824 0.02965
 C1563 C -0.03468 0.86468 0.04300
 C1564 C -0.03194 0.85031 0.05479
 C1565 C -0.04476 0.84699 0.06801
 C1566 C -0.05984 0.85756 0.06953
 C1567 C -0.06252 0.87161 0.05801
 C1568 C -0.05012 0.87519 0.04487
 C1569 C 0.00608 0.86082 0.01479
 C1570 C 0.02115 0.85022 0.01324
 C1571 C 0.02382 0.83618 0.02477
 C1572 C 0.01145 0.83263 0.03794
 C1573 C -0.02487 0.88290 0.01758
 C1574 C -0.02722 0.89506 0.00757
 C1575 C -0.01383 0.82489 0.06519
 C1576 C -0.01153 0.81267 0.07515
 H1577 H -0.04327 0.83622 0.07729
 H1578 H -0.06951 0.85483 0.07972
 H1579 H -0.07426 0.87978 0.05925
 H1580 H -0.05279 0.88627 0.03622
 H1581 H 0.00459 0.87159 0.00551
 H1582 H 0.03079 0.85292 0.00303
 H1583 H 0.03554 0.82798 0.02351
 H1584 H 0.01412 0.82155 0.04660
 C1585 C 0.01758 0.66075 0.05306
 C1586 C 0.00493 0.65710 0.03975
 C1587 C 0.00777 0.64282 0.02788
 C1588 C 0.02324 0.63226 0.02939
 C1589 C 0.03587 0.63590 0.04272
 C1590 C 0.03303 0.65018 0.05459
 C1591 C 0.04585 0.65357 0.06779
 C1592 C 0.06105 0.64314 0.06923
 C1593 C 0.06383 0.62918 0.05762
 C1594 C 0.05143 0.62554 0.04450
 C1595 C -0.00506 0.63944 0.01468
 C1596 C -0.02025 0.64987 0.01325
 C1597 C -0.02303 0.66382 0.02485
 C1598 C -0.01064 0.66746 0.03798
 C1599 C 0.02616 0.61770 0.01724
 C1600 C 0.02857 0.60562 0.00713
 C1601 C 0.01473 0.67541 0.06511
 C1602 C 0.01240 0.68760 0.07509
 H1603 H 0.04428 0.66427 0.07713
 H1604 H 0.07072 0.64591 0.07940
 H1605 H 0.07566 0.62112 0.05880
 H1606 H 0.05419 0.61454 0.03579
 H1607 H -0.00349 0.62873 0.00534
 H1608 H -0.02992 0.64710 0.00307
 H1609 H -0.03486 0.67188 0.02368
 H1610 H -0.01339 0.67846 0.04670
 C1611 C 0.51674 0.16042 0.55407
 C1612 C 0.50576 0.14525 0.55531
 C1613 C 0.50844 0.13072 0.54370
 C1614 C 0.52207 0.13146 0.53089
 C1615 C 0.53305 0.14665 0.52964
 C1616 C 0.53038 0.16117 0.54126
 C1617 C 0.54151 0.17620 0.53975
 C1618 C 0.55491 0.17687 0.52713
 C1619 C 0.55754 0.16267 0.51578
 C1620 C 0.54677 0.14770 0.51696
 C1621 C 0.49730 0.11569 0.54521
 C1622 C 0.48390 0.11503 0.55783
 C1623 C 0.48128 0.12923 0.56918
 C1624 C 0.49204 0.14420 0.56800
 C1625 C 0.52478 0.11664 0.51899
 C1626 C 0.52702 0.10435 0.50910
 C1627 C 0.51404 0.17525 0.56596
 C1628 C 0.51182 0.18756 0.57583
 H1629 H 0.54000 0.18758 0.54828
 H1630 H 0.56331 0.18846 0.52616
 H1631 H 0.56797 0.16325 0.50601
 H1632 H 0.54933 0.13699 0.50783
 H1633 H 0.49882 0.10431 0.53669
 H1634 H 0.47551 0.10343 0.55881
 H1635 H 0.47085 0.12864 0.57896
 H1636 H 0.48948 0.15491 0.57712
 C1637 C -0.01734 0.16072 0.44613
 C1638 C -0.03256 0.14986 0.44437
 C1639 C -0.03518 0.13537 0.45604
 C1640 C -0.02257 0.13184 0.46942
 C1641 C -0.00735 0.14271 0.47118
 C1642 C -0.00472 0.15719 0.45950
 C1643 C 0.01060 0.16786 0.46152
 C1644 C 0.02297 0.16433 0.47470
 C1645 C 0.02040 0.15018 0.48612
 C1646 C 0.00544 0.13944 0.48444
 C1647 C -0.05050 0.12469 0.45402
 C1648 C -0.06287 0.12823 0.44083
 C1649 C -0.06030 0.14238 0.42942
 C1650 C -0.04535 0.15312 0.43110
 C1651 C -0.02525 0.11705 0.48135
 C1652 C -0.02745 0.10477 0.49126
 C1653 C -0.01467 0.17553 0.43422
 C1654 C -0.01245 0.18783 0.42433
 H1655 H 0.01319 0.17903 0.45296
 H1656 H 0.03462 0.17263 0.47606
 H1657 H 0.03005 0.14749 0.49634
 H1658 H 0.00404 0.12859 0.49364
 H1659 H -0.05308 0.11353 0.46257
 H1660 H -0.07451 0.11993 0.43947
 H1661 H -0.06995 0.14507 0.41920
 H1662 H -0.04394 0.16398 0.42190
 C1663 C 0.48291 0.66025 0.94665
 C1664 C 0.46761 0.64948 0.94494
 C1665 C 0.46493 0.63502 0.95663
 C1666 C 0.47756 0.63142 0.96997
 C1667 C 0.49284 0.64222 0.97170
 C1668 C 0.49552 0.65667 0.96000
 C1669 C 0.51089 0.66728 0.96199
 C1670 C 0.52325 0.66372 0.97517
 C1671 C 0.52063 0.64959 0.98661
 C1672 C 0.50563 0.63892 0.98496
 C1673 C 0.44953 0.62445 0.95467
 C1674 C 0.43714 0.62806 0.94154
 C1675 C 0.43976 0.64219 0.93010
 C1676 C 0.45480 0.65282 0.93171
 C1677 C 0.47485 0.61661 0.98188
 C1678 C 0.47262 0.60433 0.99177
 C1679 C 0.48566 0.67501 0.93469
 C1680 C 0.48794 0.68728 0.92479
 H1681 H 0.51352 0.67842 0.95342
 H1682 H 0.53493 0.67197 0.97652
 H1683 H 0.53027 0.64688 0.99683
 H1684 H 0.50417 0.62808 0.99418
 H1685 H 0.44690 0.61331 0.96325
 H1686 H 0.42543 0.61985 0.94023
 H1687 H 0.43008 0.64494 0.91992
 H1688 H 0.45624 0.66367 0.92251
 C1689 C 0.51750 0.83897 0.94767
 C1690 C 0.53411 0.84776 0.94790
 C1691 C 0.53701 0.86205 0.95975
 C1692 C 0.52329 0.86746 0.97130
 C1693 C 0.50668 0.85867 0.97106
 C1694 C 0.50378 0.84438 0.95921
 C1695 C 0.48708 0.83579 0.95923
 C1696 C 0.47363 0.84116 0.97062
 C1697 C 0.47646 0.85513 0.98219
 C1698 C 0.49277 0.86384 0.98247
 C1699 C 0.55371 0.87064 0.95974
 C1700 C 0.56717 0.86525 0.94837
 C1701 C 0.56434 0.85128 0.93679
 C1702 C 0.54803 0.84259 0.93650
 C1703 C 0.52626 0.88203 0.98343
 C1704 C 0.52871 0.89411 0.99351
 C1705 C 0.51455 0.82436 0.93558
 C1706 C 0.51213 0.81222 0.92555
 H1707 H 0.48423 0.82485 0.95046
 H1708 H 0.46093 0.83444 0.97045
 H1709 H 0.46596 0.85926 0.99101
 H1710 H 0.49432 0.87463 0.99172
 H1711 H 0.55656 0.88158 0.96850
 H1712 H 0.57987 0.87196 0.94853
 H1713 H 0.57485 0.84714 0.92799
 H1714 H 0.54647 0.83179 0.92726
 C1715 C 0.01658 0.34018 0.44600
 C1716 C 0.02846 0.33824 0.46031
 C1717 C 0.03134 0.35263 0.47205
 C1718 C 0.02231 0.36887 0.46941
 C1719 C 0.01043 0.37081 0.45509
 C1720 C 0.00755 0.35642 0.44335
 C1721 C -0.00439 0.35868 0.42914
 C1722 C -0.01324 0.37469 0.42659
 C1723 C -0.01042 0.38875 0.43807
 C1724 C 0.00125 0.38691 0.45218
 C1725 C 0.04328 0.35036 0.48627
 C1726 C 0.05213 0.33435 0.48881
 C1727 C 0.04931 0.32029 0.47733
 C1728 C 0.03763 0.32214 0.46323
 C1729 C 0.02519 0.38354 0.48145
 C1730 C 0.02757 0.39569 0.49148
 C1731 C 0.01366 0.32548 0.43401
 C1732 C 0.01127 0.31324 0.42409
 H1733 H -0.00703 0.34812 0.41987
 H1734 H -0.02232 0.37619 0.41565
 H1735 H -0.01733 0.40116 0.43603
 H1736 H 0.00299 0.39823 0.46074
 H1737 H 0.04590 0.36091 0.49556
 H1738 H 0.06121 0.33285 0.49975
 H1739 H 0.05622 0.30788 0.47936
 H1740 H 0.03588 0.31081 0.45467
 C1741 C 0.33973 0.55225 0.48107
 C1742 C 0.35026 0.55435 0.46578
 C1743 C 0.36484 0.54279 0.46271
 C1744 C 0.36878 0.52919 0.47494
 C1745 C 0.35825 0.52710 0.49023
 C1746 C 0.34367 0.53866 0.49331
 C1747 C 0.33333 0.53629 0.50868
 C1748 C 0.33728 0.52290 0.52068
 C1749 C 0.35153 0.51160 0.51769
 C1750 C 0.36194 0.51361 0.50266
 C1751 C 0.37518 0.54517 0.44734
 C1752 C 0.37124 0.55857 0.43534
 C1753 C 0.35698 0.56986 0.43834
 C1754 C 0.34657 0.56784 0.45336
 C1755 C 0.38363 0.51733 0.47177
 C1756 C 0.39595 0.50748 0.46916
 C1757 C 0.32486 0.56408 0.48422
 C1758 C 0.31252 0.57393 0.48679
 H1759 H 0.32211 0.54475 0.51159
 H1760 H 0.32923 0.52127 0.53237
 H1761 H 0.35454 0.50122 0.52705
 H1762 H 0.37289 0.50450 0.50091
 H1763 H 0.38641 0.53672 0.44443
 H1764 H 0.37929 0.56020 0.42366
 H1765 H 0.35397 0.58024 0.42897
 H1766 H 0.33562 0.57695 0.45511
 C1767 C 0.84011 0.05189 -0.01940
 C1768 C 0.84395 0.03818 -0.00726
 C1769 C 0.85857 0.02668 -0.01028
 C1770 C 0.86927 0.02895 -0.02544
 C1771 C 0.86540 0.04262 -0.03761
 C1772 C 0.85077 0.05413 -0.03458
 C1773 C 0.84716 0.06770 -0.04693
 C1774 C 0.85769 0.06983 -0.06186
 C1775 C 0.87199 0.05859 -0.06482
 C1776 C 0.87587 0.04512 -0.05287
 C1777 C 0.86214 0.01307 0.00204
 C1778 C 0.85156 0.01088 0.01692
 C1779 C 0.83727 0.02212 0.01988
 C1780 C 0.83344 0.03565 0.00798
 C1781 C 0.88425 0.01723 -0.02849
 C1782 C 0.89669 0.00751 -0.03101
 C1783 C 0.82522 0.06369 -0.01626
 C1784 C 0.81286 0.07350 -0.01365
 H1785 H 0.83618 0.07678 -0.04521
 H1786 H 0.85473 0.08027 -0.07118
 H1787 H 0.88013 0.06031 -0.07643
 H1788 H 0.88714 0.03671 -0.05575
 H1789 H 0.87311 0.00398 0.00031
 H1790 H 0.85447 0.00039 0.02620
 H1791 H 0.82909 0.02036 0.03146
 H1792 H 0.82218 0.04406 0.01086
 C1793 C 0.66070 0.05150 0.02010
 C1794 C 0.65938 0.03536 0.01069
 C1795 C 0.64487 0.02375 0.01386
 C1796 C 0.63176 0.02834 0.02641
 C1797 C 0.63311 0.04446 0.03584
 C1798 C 0.64762 0.05607 0.03268
 C1799 C 0.64868 0.07212 0.04227
 C1800 C 0.63578 0.07656 0.05463
 C1801 C 0.62159 0.06521 0.05773
 C1802 C 0.62020 0.04933 0.04848
 C1803 C 0.64383 0.00768 0.00430
 C1804 C 0.65676 0.00322 -0.00804
 C1805 C 0.67094 0.01458 -0.01114
 C1806 C 0.67230 0.03048 -0.00193
 C1807 C 0.61691 0.01650 0.02959
 C1808 C 0.60457 0.00667 0.03219
 C1809 C 0.67551 0.06338 0.01684
 C1810 C 0.68779 0.07325 0.01414
 H1811 H 0.65947 0.08138 0.04033
 H1812 H 0.63679 0.08888 0.06185
 H1813 H 0.61160 0.06873 0.06735
 H1814 H 0.60892 0.04094 0.05136
 H1815 H 0.63305 -0.00159 0.00624
 H1816 H 0.65577 -0.00912 -0.01523
 H1817 H 0.68095 0.01105 -0.02074
 H1818 H 0.68358 0.03887 -0.00481
 C1819 C 0.15990 0.55260 0.51926
 C1820 C 0.14939 0.55464 0.53457
 C1821 C 0.13480 0.54309 0.53760
 C1822 C 0.13080 0.52957 0.52530
 C1823 C 0.14132 0.52752 0.51000
 C1824 C 0.15592 0.53907 0.50697
 C1825 C 0.16624 0.53676 0.49157
 C1826 C 0.16226 0.52342 0.47952
 C1827 C 0.14799 0.51213 0.48249
 C1828 C 0.13760 0.51410 0.49753
 C1829 C 0.12448 0.54540 0.55300
 C1830 C 0.12847 0.55873 0.56506
 C1831 C 0.14274 0.57001 0.56210
 C1832 C 0.15313 0.56805 0.54706
 C1833 C 0.11586 0.51780 0.52836
 C1834 C 0.10346 0.50802 0.53086
 C1835 C 0.17480 0.56441 0.51615
 C1836 C 0.18716 0.57422 0.51358
 H1837 H 0.17747 0.54521 0.48868
 H1838 H 0.17029 0.52183 0.46781
 H1839 H 0.14495 0.50179 0.47308
 H1840 H 0.12664 0.50499 0.49925
 H1841 H 0.11324 0.53695 0.55589
 H1842 H 0.12045 0.56030 0.57677
 H1843 H 0.14579 0.58034 0.57151
 H1844 H 0.16409 0.57716 0.54534
 C1845 C 0.16028 0.44802 -0.01989
 C1846 C 0.15654 0.46177 -0.00776
 C1847 C 0.14205 0.47343 -0.01085
 C1848 C 0.13137 0.47127 -0.02605
 C1849 C 0.13513 0.45753 -0.03818
 C1850 C 0.14962 0.44587 -0.03509
 C1851 C 0.15312 0.43225 -0.04742
 C1852 C 0.14259 0.43020 -0.06236
 C1853 C 0.12842 0.44159 -0.06538
 C1854 C 0.12466 0.45512 -0.05347
 C1855 C 0.13858 0.48707 0.00145
 C1856 C 0.14913 0.48915 0.01638
 C1857 C 0.16329 0.47775 0.01940
 C1858 C 0.16702 0.46420 0.00752
 C1859 C 0.11654 0.48315 -0.02918
 C1860 C 0.10422 0.49302 -0.03177
 C1861 C 0.17508 0.43610 -0.01673
 C1862 C 0.18737 0.42621 -0.01411
 H1863 H 0.16399 0.42305 -0.04565
 H1864 H 0.14545 0.41971 -0.07166
 H1865 H 0.12029 0.43994 -0.07701
 H1866 H 0.11349 0.46364 -0.05640
 H1867 H 0.12770 0.49627 -0.00032
 H1868 H 0.14629 0.49966 0.02565
 H1869 H 0.17145 0.47943 0.03102
 H1870 H 0.17818 0.45567 0.01044
 C1871 C 0.65961 0.94754 0.48152
 C1872 C 0.66219 0.96609 0.48049
 C1873 C 0.64744 0.97748 0.47761
 C1874 C 0.63019 0.97024 0.47578
 C1875 C 0.62761 0.95169 0.47681
 C1876 C 0.64236 0.94030 0.47969
 C1877 C 0.63945 0.92180 0.48068
 C1878 C 0.62245 0.91474 0.47888
 C1879 C 0.60803 0.92587 0.47605
 C1880 C 0.61050 0.94414 0.47501
 C1881 C 0.65035 0.99598 0.47662
 C1882 C 0.66735 1.00303 0.47844
 C1883 C 0.68177 0.99190 0.48126
 C1884 C 0.67930 0.97363 0.48229
 C1885 C 0.61511 0.98188 0.47288
 C1886 C 0.60260 0.99155 0.47048
 C1887 C 0.67467 0.93589 0.48445
 C1888 C 0.68715 0.92619 0.48689
 H1889 H 0.65024 0.91259 0.48286
 H1890 H 0.62046 0.90056 0.47968
 H1891 H 0.59485 0.92032 0.47466
 H1892 H 0.59886 0.95225 0.47280
 H1893 H 0.63956 1.00519 0.47444
 H1894 H 0.66934 1.01721 0.47765
 H1895 H 0.69494 0.99745 0.48267
 H1896 H 0.69093 0.96552 0.48451
 C1897 C 0.84013 0.94789 0.51871
 C1898 C 0.84395 0.96155 0.50651
 C1899 C 0.85863 0.97302 0.50943
 C1900 C 0.86940 0.97077 0.52455
 C1901 C 0.86555 0.95714 0.53677
 C1902 C 0.85088 0.94567 0.53385
 C1903 C 0.84730 0.93214 0.54626
 C1904 C 0.85791 0.93001 0.56113
 C1905 C 0.87226 0.94123 0.56399
 C1906 C 0.87610 0.95466 0.55200
 C1907 C 0.86219 0.98657 0.49704
 C1908 C 0.85155 0.98872 0.48219
 C1909 C 0.83721 0.97751 0.47933
 C1910 C 0.83339 0.96405 0.49130
 C1911 C 0.88444 0.98244 0.52750
 C1912 C 0.89694 0.99211 0.52993
 C1913 C 0.82520 0.93611 0.51569
 C1914 C 0.81281 0.92631 0.51318
 H1915 H 0.83628 0.92309 0.54462
 H1916 H 0.85499 0.91960 0.57049
 H1917 H 0.88046 0.93951 0.57557
 H1918 H 0.88741 0.96304 0.55480
 H1919 H 0.87320 0.99563 0.49869
 H1920 H 0.85446 0.99916 0.47285
 H1921 H 0.82899 0.97924 0.46776
 H1922 H 0.82208 0.95566 0.48850
 C1923 C 0.34004 0.44753 0.01900
 C1924 C 0.35080 0.44521 0.03411
 C1925 C 0.36551 0.45664 0.03707
 C1926 C 0.36937 0.47031 0.02490
 C1927 C 0.35859 0.47265 0.00981
 C1928 C 0.34388 0.46123 0.00685
 C1929 C 0.33330 0.46383 -0.00833
 C1930 C 0.33714 0.47733 -0.02025
 C1931 C 0.35151 0.48850 -0.01736
 C1932 C 0.36216 0.48625 -0.00253
 C1933 C 0.37607 0.45405 0.05226
 C1934 C 0.37221 0.44057 0.06420
 C1935 C 0.35783 0.42941 0.06131
 C1936 C 0.34720 0.43164 0.04646
 C1937 C 0.38444 0.48195 0.02788
 C1938 C 0.39694 0.49161 0.03033
 C1939 C 0.32507 0.43581 0.01593
 C1940 C 0.31266 0.42605 0.01337
 H1941 H 0.32197 0.45548 -0.01116
 H1942 H 0.32891 0.47914 -0.03179
 H1943 H 0.35443 0.49897 -0.02665
 H1944 H 0.37320 0.49528 -0.00086
 H1945 H 0.38741 0.46239 0.05509
 H1946 H 0.38042 0.43878 0.07576
 H1947 H 0.35489 0.41896 0.07062
 H1948 H 0.33616 0.42262 0.04479
 C1949 C 0.55616 0.48123 0.33930
 C1950 C 0.55793 0.46579 0.34975
 C1951 C 0.54612 0.46282 0.36404
 C1952 C 0.53261 0.47531 0.36780
 C1953 C 0.53083 0.49073 0.35733
 C1954 C 0.54264 0.49370 0.34304
 C1955 C 0.54060 0.50921 0.33277
 C1956 C 0.52725 0.52143 0.33648
 C1957 C 0.51569 0.51853 0.35044
 C1958 C 0.51740 0.50338 0.36079
 C1959 C 0.54814 0.44729 0.37428
 C1960 C 0.56145 0.43503 0.37052
 C1961 C 0.57300 0.43794 0.35656
 C1962 C 0.57133 0.45312 0.34625
 C1963 C 0.52058 0.47230 0.38242
 C1964 C 0.51059 0.46981 0.39457
 C1965 C 0.56820 0.48425 0.32468
 C1966 C 0.57816 0.48677 0.31252
 H1967 H 0.54926 0.51207 0.32177
 H1968 H 0.52586 0.53322 0.32848
 H1969 H 0.50534 0.52806 0.35326
 H1970 H 0.50808 0.50170 0.37150
 H1971 H 0.53948 0.44443 0.38528
 H1972 H 0.56280 0.42321 0.37848
 H1973 H 0.58331 0.42837 0.35369
 H1974 H 0.58063 0.45479 0.33553
 C1975 C 0.05651 -0.01869 0.83853
 C1976 C 0.05827 -0.03415 0.84895
 C1977 C 0.04658 -0.03705 0.86335
 C1978 C 0.03320 -0.02447 0.86725
 C1979 C 0.03143 -0.00902 0.85681
 C1980 C 0.04312 -0.00612 0.84241
 C1981 C 0.04109 0.00942 0.83217
 C1982 C 0.02789 0.02174 0.83605
 C1983 C 0.01646 0.01892 0.85013
 C1984 C 0.01814 0.00373 0.86043
 C1985 C 0.04860 -0.05260 0.87357
 C1986 C 0.06180 -0.06493 0.86968
 C1987 C 0.07322 -0.06211 0.85560
 C1988 C 0.07154 -0.04692 0.84530
 C1989 C 0.02123 -0.02744 0.88194
 C1990 C 0.01128 -0.02989 0.89412
 C1991 C 0.06847 -0.01571 0.82384
 C1992 C 0.07838 -0.01322 0.81164
 H1993 H 0.04967 0.01222 0.82110
 H1994 H 0.02653 0.03356 0.82809
 H1995 H 0.00624 0.02855 0.85309
 H1996 H 0.00894 0.00213 0.87124
 H1997 H 0.04004 -0.05539 0.88467
 H1998 H 0.06317 -0.07674 0.87765
 H1999 H 0.08345 -0.07173 0.85264
 H2000 H 0.08075 -0.04529 0.83450
 C2001 C 0.05651 0.01888 0.66055
 C2002 C 0.05839 0.03426 0.65003
 C2003 C 0.04674 0.03714 0.63558
 C2004 C 0.03328 0.02463 0.63174
 C2005 C 0.03138 0.00926 0.64227
 C2006 C 0.04303 0.00638 0.65672
 C2007 C 0.04086 -0.00908 0.66706
 C2008 C 0.02757 -0.02133 0.66324
 C2009 C 0.01618 -0.01851 0.64912
 C2010 C 0.01800 -0.00342 0.63871
 C2011 C 0.04888 0.05261 0.62527
 C2012 C 0.06214 0.06489 0.62912
 C2013 C 0.07353 0.06207 0.64325
 C2014 C 0.07174 0.04696 0.65362
 C2015 C 0.02139 0.02754 0.61696
 C2016 C 0.01151 0.02993 0.60471
 C2017 C 0.06843 0.01591 0.67528
 C2018 C 0.07834 0.01343 0.68749
 H2019 H 0.04939 -0.01186 0.67818
 H2020 H 0.02609 -0.03307 0.67129
 H2021 H 0.00586 -0.02806 0.64622
 H2022 H 0.00882 -0.00182 0.62787
 H2023 H 0.04036 0.05539 0.61414
 H2024 H 0.06359 0.07666 0.62111
 H2025 H 0.08380 0.07166 0.64619
 H2026 H 0.08091 0.04536 0.66447
 C2027 C 0.55582 0.51895 0.16164
 C2028 C 0.55767 0.53434 0.15114
 C2029 C 0.54604 0.53720 0.13668
 C2030 C 0.53261 0.52466 0.13281
 C2031 C 0.53073 0.50929 0.14334
 C2032 C 0.54237 0.50642 0.15779
 C2033 C 0.54023 0.49096 0.16812
 C2034 C 0.52697 0.47868 0.16429
 C2035 C 0.51559 0.48148 0.15016
 C2036 C 0.51739 0.49658 0.13975
 C2037 C 0.54815 0.55269 0.12637
 C2038 C 0.56138 0.56499 0.13025
 C2039 C 0.57275 0.56220 0.14438
 C2040 C 0.57099 0.54707 0.15475
 C2041 C 0.52076 0.52754 0.11800
 C2042 C 0.51092 0.52989 0.10571
 C2043 C 0.56775 0.51598 0.17636
 C2044 C 0.57767 0.51349 0.18857
 H2045 H 0.54876 0.48819 0.17925
 H2046 H 0.52551 0.46693 0.17233
 H2047 H 0.50531 0.47190 0.14724
 H2048 H 0.50821 0.49816 0.12891
 H2049 H 0.53963 0.55545 0.11524
 H2050 H 0.56281 0.57677 0.12224
 H2051 H 0.58300 0.57180 0.14733
 H2052 H 0.58016 0.54549 0.16561
 C2053 C 0.44403 -0.01890 0.16174
 C2054 C 0.45756 -0.00644 0.15796
 C2055 C 0.46933 -0.00943 0.14365
 C2056 C 0.46752 -0.02486 0.13320
 C2057 C 0.45399 -0.03732 0.13699
 C2058 C 0.44221 -0.03433 0.15130
 C2059 C 0.42880 -0.04698 0.15482
 C2060 C 0.42706 -0.06214 0.14450
 C2061 C 0.43857 -0.06506 0.13051
 C2062 C 0.45191 -0.05284 0.12673
 C2063 C 0.48275 0.00321 0.14014
 C2064 C 0.48448 0.01838 0.15046
 C2065 C 0.47297 0.02130 0.16445
 C2066 C 0.45964 0.00908 0.16822
 C2067 C 0.47955 -0.02792 0.11859
 C2068 C 0.48955 -0.03044 0.10646
 C2069 C 0.43199 -0.01584 0.17635
 C2070 C 0.42199 -0.01328 0.18848
 H2071 H 0.41952 -0.04530 0.16556
 H2072 H 0.41672 -0.07168 0.14738
 H2073 H 0.43716 -0.07686 0.12253
 H2074 H 0.46054 -0.05571 0.11571
 H2075 H 0.49204 0.00153 0.12940
 H2076 H 0.49482 0.02792 0.14758
 H2077 H 0.47437 0.03310 0.17242
 H2078 H 0.45100 0.01194 0.17924
 C2079 C 0.94357 0.48110 0.66089
 C2080 C 0.95707 0.49359 0.65712
 C2081 C 0.96879 0.49069 0.64275
 C2082 C 0.96693 0.47532 0.63222
 C2083 C 0.95346 0.46280 0.63601
 C2084 C 0.94175 0.46570 0.65039
 C2085 C 0.92838 0.45300 0.65393
 C2086 C 0.92665 0.43787 0.64356
 C2087 C 0.93810 0.43504 0.62951
 C2088 C 0.95138 0.44732 0.62571
 C2089 C 0.98219 0.50336 0.63924
 C2090 C 0.98396 0.51847 0.64964
 C2091 C 0.97250 0.52130 0.66369
 C2092 C 0.95918 0.50906 0.66745
 C2093 C 0.97889 0.47238 0.61752
 C2094 C 0.98884 0.46997 0.60533
 C2095 C 0.93156 0.48409 0.67553
 C2096 C 0.92162 0.48659 0.68771
 H2097 H 0.91914 0.45463 0.66471
 H2098 H 0.91635 0.42830 0.64644
 H2099 H 0.93668 0.42327 0.62148
 H2100 H 0.95996 0.44453 0.61464
 H2101 H 0.99142 0.50175 0.62846
 H2102 H 0.99426 0.52803 0.64677
 H2103 H 0.97392 0.53307 0.67172
 H2104 H 0.95059 0.51186 0.67851
 C2105 C 0.94395 0.51899 0.83848
 C2106 C 0.94235 0.53463 0.84864
 C2107 C 0.95411 0.53767 0.86297
 C2108 C 0.96739 0.52505 0.86705
 C2109 C 0.96897 0.50939 0.85690
 C2110 C 0.95722 0.50635 0.84258
 C2111 C 0.95905 0.49060 0.83263
 C2112 C 0.97214 0.47821 0.83671
 C2113 C 0.98363 0.48119 0.85071
 C2114 C 0.98213 0.49657 0.86074
 C2115 C 0.95226 0.55341 0.87293
 C2116 C 0.93917 0.56580 0.86885
 C2117 C 0.92767 0.56282 0.85485
 C2118 C 0.92919 0.54745 0.84481
 C2119 C 0.97941 0.52814 0.88168
 C2120 C 0.98941 0.53067 0.89382
 C2121 C 0.93196 0.51590 0.82382
 C2122 C 0.92201 0.51335 0.81165
 H2123 H 0.95042 0.48768 0.82162
 H2124 H 0.97335 0.46623 0.82897
 H2125 H 0.99378 0.47152 0.85382
 H2126 H 0.99139 0.49828 0.87149
 H2127 H 0.96088 0.55633 0.88395
 H2128 H 0.93794 0.57777 0.87660
 H2129 H 0.91752 0.57248 0.85174
 H2130 H 0.91993 0.54573 0.83405
 C2131 C 0.44352 0.01887 0.33944
 C2132 C 0.44172 0.03427 0.34993
 C2133 C 0.45336 0.03711 0.36439
 C2134 C 0.46673 0.02451 0.36828
 C2135 C 0.46855 0.00912 0.35778
 C2136 C 0.45691 0.00629 0.34332
 C2137 C 0.45898 -0.00920 0.33302
 C2138 C 0.47218 -0.02154 0.33688
 C2139 C 0.48356 -0.01876 0.35101
 C2140 C 0.48183 -0.00364 0.36139
 C2141 C 0.45130 0.05261 0.37467
 C2142 C 0.43812 0.06496 0.37079
 C2143 C 0.42674 0.06219 0.35665
 C2144 C 0.42845 0.04705 0.34630
 C2145 C 0.47859 0.02738 0.38308
 C2146 C 0.48844 0.02973 0.39537
 C2147 C 0.43160 0.01595 0.32469
 C2148 C 0.42172 0.01350 0.31245
 H2149 H 0.45044 -0.01195 0.32189
 H2150 H 0.47358 -0.03331 0.32887
 H2151 H 0.49380 -0.02839 0.35396
 H2152 H 0.49101 -0.00207 0.37224
 H2153 H 0.45983 0.05535 0.38581
 H2154 H 0.43673 0.07674 0.37879
 H2155 H 0.41652 0.07182 0.35369
 H2156 H 0.41928 0.04548 0.33544
   
