data_POSCAR
  _audit_creation_date              2014-09-24
  _audit_creation_method            'ToBaCCo'
  _symmetry_space_group_name_H-M    'P1'
  _symmetry_Int_Tables_number       1
  _symmetry_cell_setting            triclinic
  loop_
  _symmetry_equiv_pos_as_xyz
 x,y,z
_cell_length_a 61.9329
_cell_length_b 61.2920
_cell_length_c 61.5727
_cell_angle_alpha 88.135400
_cell_angle_beta 87.515000
_cell_angle_gamma 87.170000
loop_
  _atom_site_label
  _atom_site_type_symbol
  _atom_site_fract_x
  _atom_site_fract_y
  _atom_site_fract_z
Si1 Si 0.76452 0.61728 0.99182
 Si2 Si 0.74647 0.37657 0.50318
 Si3 Si 0.24530 -0.13063 0.01207
 Si4 Si 0.26702 0.11086 0.50053
 Si5 Si 0.11072 0.49419 0.26763
 Si6 Si -0.13033 0.01070 0.25548
 Si7 Si 0.37212 0.51482 0.74681
 Si8 Si 0.61403 1.00293 0.77282
 Si9 Si 0.00773 0.25402 -0.12812
 Si10 Si 0.49028 0.25800 0.10837
 Si11 Si 0.99945 0.76663 0.60887
 Si12 Si 0.51805 0.74415 0.37403
 C13 C 0.42281 -0.02644 0.26084
 H14 H 0.42361 -0.01065 0.26804
 C15 C 0.43568 -0.04424 0.26851
 H16 H 0.44648 -0.04189 0.28151
 C17 C 0.40691 -0.04887 0.23595
 H18 H 0.39531 -0.05084 0.22366
 C19 C 0.41941 -0.06703 0.24311
 H20 H 0.41735 -0.08265 0.23594
 N21 N 0.40866 -0.02909 0.24495
 C22 C 0.38934 0.03334 0.21407
 H23 H 0.37227 0.03044 0.21381
 C24 C 0.39706 0.05269 0.20504
 H25 H 0.38571 0.06445 0.19773
 C26 C 0.42450 0.02150 0.22450
 H27 H 0.43504 0.00932 0.23226
 C28 C 0.43296 0.04081 0.21567
 H29 H 0.45007 0.04329 0.21668
 Zn30 Zn 0.38895 -0.00574 0.23718
 N31 N 0.40294 0.01837 0.22386
 C32 C 0.37498 0.02512 0.26804
 N33 N 0.37377 0.00383 0.26286
 C34 C 0.36325 -0.01048 0.27643
 C35 C 0.35342 -0.00345 0.29609
 C36 C 0.36535 0.03282 0.28731
 C37 C 0.37911 -0.01827 0.19630
 C38 C 0.36666 -0.02441 0.17944
 C39 C 0.33547 -0.02447 0.20442
 C40 C 0.34855 -0.01805 0.22085
 N41 N 0.36998 -0.01525 0.21652
 H42 H 0.38381 0.03623 0.25748
 H43 H 0.36282 -0.02743 0.27215
 H44 H 0.34528 -0.01508 0.30679
 H45 H 0.36679 0.04983 0.29098
 H46 H 0.39615 -0.01574 0.19330
 H47 H 0.37439 -0.02673 0.16352
 H48 H 0.31845 -0.02668 0.20810
 H49 H 0.34157 -0.01526 0.23697
 C50 C 0.41907 0.05685 0.20603
 C51 C 0.43379 -0.06498 0.25985
 C52 C 0.34453 -0.02763 0.18335
 C53 C 0.35450 0.01850 0.30176
 C54 C 0.09977 1.01431 0.78069
 H55 H 0.09924 0.99876 0.78950
 C56 C 0.08823 1.03269 0.78889
 H57 H 0.07869 1.03109 0.80396
 C58 C 0.11355 1.03545 0.75081
 H59 H 0.12388 1.03673 0.73632
 C60 C 0.10211 1.05410 0.75824
 H61 H 0.10373 1.06939 0.74915
 N62 N 0.11225 1.01605 0.76205
 C63 C 0.12547 0.95263 0.73340
 H64 H 0.14289 0.95341 0.73194
 C65 C 0.11553 0.93507 0.72502
 H66 H 0.12557 0.92242 0.71716
 C67 C 0.09154 0.96858 0.74527
 H68 H 0.08233 0.98183 0.75302
 C69 C 0.08084 0.95119 0.73702
 H70 H 0.06336 0.95119 0.73856
 Zn71 Zn 0.12996 0.99168 0.75282
 N72 N 0.11349 0.96885 0.74339
 C73 C 0.14485 0.96009 0.78346
 N74 N 0.14672 0.98119 0.77640
 C75 C 0.15927 0.99485 0.78674
 C76 C 0.17063 0.98732 0.80493
 C77 C 0.15605 0.95186 0.80129
 C78 C 0.13665 1.00389 0.70983
 C79 C 0.14770 1.00928 0.69040
 C80 C 0.18121 1.00625 0.70920
 C81 C 0.16944 1.00082 0.72840
 N82 N 0.14753 0.99994 0.72834
 H83 H 0.13435 0.94958 0.77558
 H84 H 0.16022 1.01167 0.78103
 H85 H 0.18045 0.99841 0.81306
 H86 H 0.15407 0.93504 0.80662
 H87 H 0.11926 1.00278 0.71021
 H88 H 0.13853 1.01242 0.67595
 H89 H 0.19863 1.00698 0.70949
 H90 H 0.17780 0.99723 0.74324
 C91 C 0.09292 0.93414 0.72669
 C92 C 0.08948 1.05298 0.77769
 C93 C 0.17029 1.01057 0.68985
 C94 C 0.16906 0.96551 0.81239
 C95 C 0.60241 0.50820 0.26925
 H96 H 0.60214 0.49253 0.27785
 C97 C 0.59204 0.52666 0.27855
 H98 H 0.58360 0.52497 0.29424
 C99 C 0.61472 0.52958 0.23888
 H100 H 0.62413 0.53092 0.22378
 C101 C 0.60440 0.54834 0.24743
 H102 H 0.60589 0.56378 0.23856
 N103 N 0.61371 0.51002 0.24989
 C104 C 0.62523 0.44676 0.22021
 H105 H 0.64259 0.44751 0.21779
 C106 C 0.61473 0.42935 0.21221
 H107 H 0.62426 0.41678 0.20370
 C108 C 0.59199 0.46265 0.23404
 H109 H 0.58327 0.47583 0.24239
 C110 C 0.58074 0.44541 0.22626
 H111 H 0.56333 0.44544 0.22878
 Zn112 Zn 0.63083 0.48564 0.23971
 N113 N 0.61387 0.46289 0.23096
 C114 C 0.64779 0.45392 0.26940
 N115 N 0.64858 0.47518 0.26249
 C116 C 0.66066 0.48937 0.27270
 C117 C 0.67243 0.48233 0.29074
 C118 C 0.65945 0.44616 0.28713
 C119 C 0.63617 0.49848 0.19659
 C120 C 0.64670 0.50464 0.17709
 C121 C 0.68070 0.50133 0.19504
 C122 C 0.66944 0.49517 0.21431
 N123 N 0.64753 0.49414 0.21473
 H124 H 0.63774 0.44295 0.26151
 H125 H 0.66076 0.50628 0.26709
 H126 H 0.68172 0.49391 0.29885
 H127 H 0.65828 0.42923 0.29243
 H128 H 0.61878 0.49723 0.19736
 H129 H 0.63717 0.50817 0.16296
 H130 H 0.69811 0.50230 0.19501
 H131 H 0.67817 0.49128 0.22886
 C132 C 0.59217 0.42847 0.21511
 C133 C 0.59323 0.54715 0.26773
 C134 C 0.66926 0.50626 0.17611
 C135 C 0.67179 0.46046 0.29824
 C136 C 0.91944 0.48184 0.75173
 H137 H 0.92064 0.49763 0.75881
 C138 C 0.93161 0.46373 0.75976
 H139 H 0.94230 0.46584 0.77291
 C140 C 0.90313 0.45975 0.72682
 H141 H 0.89162 0.45807 0.71439
 C142 C 0.91488 0.44126 0.73439
 H143 H 0.91240 0.42564 0.72739
 N144 N 0.90544 0.47952 0.73564
 C145 C 0.88868 0.54250 0.70452
 H146 H 0.87152 0.54019 0.70385
 C147 C 0.89722 0.56158 0.69573
 H148 H 0.88642 0.57374 0.68821
 C149 C 0.92322 0.52945 0.71572
 H150 H 0.93322 0.51691 0.72365
 C151 C 0.93250 0.54847 0.70717
 H152 H 0.94966 0.55035 0.70859
 Zn153 Zn 0.88661 0.50342 0.72747
 N154 N 0.90158 0.52708 0.71458
 C155 C 0.87275 0.53443 0.75826
 N156 N 0.87120 0.51324 0.75288
 C157 C 0.86029 0.49902 0.76620
 C158 C 0.85046 0.50601 0.78586
 C159 C 0.86313 0.54210 0.77755
 C160 C 0.87726 0.49121 0.68635
 C161 C 0.86494 0.48559 0.66919
 C162 C 0.83321 0.48679 0.69347
 C163 C 0.84618 0.49266 0.71021
 N164 N 0.86781 0.49460 0.70636
 H165 H 0.88188 0.54544 0.74787
 H166 H 0.85961 0.48214 0.76175
 H167 H 0.84206 0.49443 0.79638
 H168 H 0.86487 0.55901 0.78143
 H169 H 0.89447 0.49305 0.68374
 H170 H 0.87291 0.48296 0.65343
 H171 H 0.81603 0.48525 0.69677
 H172 H 0.83896 0.49573 0.72618
 C173 C 0.91934 0.56497 0.69727
 C174 C 0.92912 0.44301 0.75131
 C175 C 0.84260 0.48327 0.67260
 C176 C 0.85195 0.52783 0.79179
 C177 C 0.25752 0.42953 -0.02303
 H178 H 0.26476 0.43038 -0.00743
 C179 C 0.26519 0.44222 -0.04078
 H180 H 0.27825 0.45294 -0.03860
 C181 C 0.23248 0.41365 -0.04506
 H182 H 0.22015 0.40209 -0.04694
 C183 C 0.23959 0.42599 -0.06314
 H184 H 0.23234 0.42387 -0.07857
 N185 N 0.24156 0.41545 -0.02552
 C186 C 0.21094 0.39669 0.03675
 H187 H 0.21078 0.37942 0.03372
 C188 C 0.20161 0.40470 0.05601
 H189 H 0.19422 0.39336 0.06759
 C190 C 0.22123 0.43210 0.02521
 H191 H 0.22897 0.44262 0.01314
 C192 C 0.21212 0.44086 0.04448
 H193 H 0.21293 0.45818 0.04706
 Zn194 Zn 0.23361 0.39583 -0.00243
 N195 N 0.22072 0.41028 0.02194
 C196 C 0.26438 0.38102 0.02747
 N197 N 0.25888 0.37975 0.00643
 C198 C 0.27174 0.36831 -0.00813
 C199 C 0.29090 0.35738 -0.00156
 C200 C 0.28320 0.37034 0.03471
 C201 C 0.19265 0.38720 -0.01456
 C202 C 0.17563 0.37527 -0.02103
 C203 C 0.19972 0.34304 -0.02190
 C204 C 0.21633 0.35562 -0.01517
 N205 N 0.21254 0.37734 -0.01187
 H206 H 0.25440 0.39061 0.03874
 H207 H 0.26723 0.36787 -0.02488
 H208 H 0.30097 0.34840 -0.01335
 H209 H 0.28713 0.37178 0.05155
 H210 H 0.19007 0.40446 -0.01164
 H211 H 0.16000 0.38360 -0.02317
 H212 H 0.20300 0.32580 -0.02459
 H213 H 0.23217 0.34804 -0.01262
 C214 C 0.20231 0.42701 0.06027
 C215 C 0.25642 0.44025 -0.06128
 C216 C 0.17903 0.35289 -0.02491
 C217 C 0.29682 0.35835 0.02017
 C218 C 0.76327 0.09819 1.02519
 H219 H 0.75790 0.08810 1.01261
 C220 C 0.77011 0.08848 1.04479
 H221 H 0.76988 0.07090 1.04709
 C222 C 0.77033 0.13328 1.03746
 H223 H 0.77026 0.15078 1.03445
 C224 C 0.77736 0.12431 1.05713
 H225 H 0.78272 0.13513 1.06915
 N226 N 0.76323 0.12027 1.02208
 C227 C 0.75608 0.11747 0.95486
 H228 H 0.76873 0.12875 0.95142
 C229 C 0.74898 0.10516 0.93810
 H230 H 0.75654 0.10693 0.92199
 C231 C 0.73009 0.10241 0.97966
 H232 H 0.72242 0.10194 0.99578
 C233 C 0.72261 0.08966 0.96342
 H234 H 0.70924 0.07928 0.96730
 Zn235 Zn 0.75363 0.13535 0.99669
 N236 N 0.74648 0.11602 0.97511
 C237 C 0.79599 0.14078 0.98389
 N238 N 0.77678 0.15230 0.98626
 C239 C 0.77519 0.17425 0.98208
 C240 C 0.79350 0.18536 0.97479
 C241 C 0.81464 0.15122 0.97700
 C242 C 0.71854 0.14879 1.02392
 C243 C 0.69826 0.15840 1.02921
 C244 C 0.69812 0.17605 0.99357
 C245 C 0.71839 0.16575 0.98878
 N246 N 0.72815 0.15241 1.00394
 H247 H 0.79680 0.12338 0.98751
 H248 H 0.75983 0.18318 0.98444
 H249 H 0.79202 0.20281 0.97145
 H250 H 0.82972 0.14161 0.97522
 H251 H 0.72610 0.13765 1.03555
 H252 H 0.69076 0.15486 1.04507
 H253 H 0.69032 0.18626 0.98124
 H254 H 0.72602 0.16783 0.97276
 C255 C 0.73183 0.09125 0.94220
 C256 C 0.77717 0.10164 1.06112
 C257 C 0.68765 0.17199 1.01388
 C258 C 0.81358 0.17379 0.97229
 C259 C 0.27823 0.60164 0.51058
 H260 H 0.28594 0.59775 0.49498
 C261 C 0.28575 0.59134 0.52960
 H262 H 0.29921 0.57942 0.52846
 C263 C 0.25188 0.62257 0.53101
 H264 H 0.23906 0.63516 0.53161
 C265 C 0.25894 0.61282 0.55038
 H266 H 0.25113 0.61782 0.56561
 N267 N 0.26157 0.61692 0.51161
 C268 C 0.23826 0.62430 0.44588
 H269 H 0.23870 0.64191 0.44442
 C270 C 0.23093 0.61264 0.42887
 H271 H 0.22575 0.62150 0.41436
 C272 C 0.24406 0.59167 0.46700
 H273 H 0.24892 0.58368 0.48204
 C274 C 0.23651 0.57932 0.45040
 H275 H 0.23583 0.56177 0.45273
 Zn276 Zn 0.25328 0.63246 0.48599
 N277 N 0.24486 0.61375 0.46436
 C278 C 0.28742 0.64161 0.45632
 N279 N 0.27727 0.64818 0.47518
 C280 C 0.28528 0.66415 0.48695
 C281 C 0.30417 0.67428 0.47966
 C282 C 0.30627 0.65115 0.44855
 C283 C 0.21075 0.63920 0.49799
 C284 C 0.19105 0.65001 0.50318
 C285 C 0.20795 0.68445 0.49660
 C286 C 0.22747 0.67287 0.49136
 N287 N 0.22849 0.65063 0.49244
 H288 H 0.28138 0.62839 0.44756
 H289 H 0.27726 0.66868 0.50221
 H290 H 0.31049 0.68675 0.48935
 H291 H 0.31410 0.64537 0.43361
 H292 H 0.21201 0.62153 0.49852
 H293 H 0.17728 0.64039 0.50777
 H294 H 0.20737 0.70214 0.49592
 H295 H 0.24170 0.68163 0.48650
 C296 C 0.22987 0.58985 0.43100
 C297 C 0.27621 0.59710 0.54988
 C298 C 0.18943 0.67294 0.50271
 C299 C 0.31505 0.66758 0.46032
 C300 C 0.75551 0.92378 0.48616
 H301 H 0.76255 0.92562 0.50174
 C302 C 0.76280 0.93607 0.46801
 H303 H 0.77532 0.94749 0.46987
 C304 C 0.73155 0.90567 0.46468
 H305 H 0.71988 0.89333 0.46325
 C306 C 0.73837 0.91755 0.44613
 H307 H 0.73154 0.91436 0.43073
 N308 N 0.74033 0.90877 0.48415
 C309 C 0.71649 0.89113 0.54972
 H310 H 0.71858 0.87359 0.54837
 C311 C 0.70863 0.89995 0.56923
 H312 H 0.70456 0.88898 0.58278
 C313 C 0.71955 0.92652 0.53353
 H314 H 0.72391 0.93674 0.51954
 C315 C 0.71150 0.93609 0.55278
 H316 H 0.70980 0.95372 0.55348
 Zn317 Zn 0.73415 0.88956 0.50804
 N318 N 0.72218 0.90440 0.53253
 C319 C 0.76903 0.88005 0.53489
 N320 N 0.76075 0.87524 0.51561
 C321 C 0.77220 0.86228 0.50122
 C322 C 0.79266 0.85325 0.50627
 C323 C 0.78941 0.87163 0.54044
 C324 C 0.69323 0.87915 0.49756
 C325 C 0.67649 0.86657 0.49153
 C326 C 0.70127 0.83487 0.49161
 C327 C 0.71757 0.84809 0.49791
 N328 N 0.71334 0.86988 0.50037
 H329 H 0.76020 0.89102 0.54580
 H330 H 0.76562 0.85929 0.48566
 H331 H 0.80162 0.84309 0.49460
 H332 H 0.79564 0.87589 0.55583
 H333 H 0.69029 0.89650 0.49981
 H334 H 0.66071 0.87447 0.48909
 H335 H 0.70495 0.81761 0.48941
 H336 H 0.73353 0.84093 0.50065
 C337 C 0.70623 0.92271 0.57106
 C338 C 0.75452 0.93269 0.44754
 C339 C 0.68043 0.84415 0.48822
 C340 C 0.80156 0.85812 0.52605
 C341 C -0.02016 0.25849 0.42961
 H342 H -0.00498 0.26640 0.43026
 C343 C -0.03838 0.26649 0.44166
 H344 H -0.03698 0.28048 0.45171
 C345 C -0.04070 0.23148 0.41469
 H346 H -0.04183 0.21823 0.40374
 C347 C -0.05922 0.23888 0.42643
 H348 H -0.07421 0.23095 0.42445
 N349 N -0.02171 0.24144 0.41625
 C350 C 0.04085 0.21024 0.39842
 H351 H 0.03785 0.20884 0.38135
 C352 C 0.06020 0.20171 0.40651
 H353 H 0.07184 0.19361 0.39548
 C354 C 0.02928 0.22309 0.43311
 H355 H 0.01721 0.23162 0.44330
 C356 C 0.04862 0.21479 0.44195
 H357 H 0.05123 0.21697 0.45899
 Zn358 Zn 0.00181 0.23328 0.39698
 N359 N 0.02599 0.22095 0.41159
 C360 C 0.03153 0.26372 0.38121
 N361 N 0.01044 0.25858 0.38092
 C362 C -0.00429 0.27182 0.37041
 C363 C 0.00211 0.29105 0.35956
 C364 C 0.03862 0.28253 0.37049
 C365 C -0.00889 0.19140 0.38790
 C366 C -0.01500 0.17411 0.37579
 C367 C -0.01675 0.19857 0.34426
 C368 C -0.01037 0.21543 0.35700
 N369 N -0.00683 0.21159 0.37846
 H370 H 0.04300 0.25342 0.39001
 H371 H -0.02106 0.26757 0.37070
 H372 H -0.00981 0.30146 0.35137
 H373 H 0.05550 0.28618 0.37114
 H374 H -0.00582 0.18880 0.40498
 H375 H -0.01669 0.15826 0.38378
 H376 H -0.01972 0.20193 0.32725
 H377 H -0.00838 0.23155 0.34977
 C378 C 0.06451 0.20418 0.42847
 C379 C -0.05837 0.25690 0.43981
 C380 C -0.01918 0.17758 0.35369
 C381 C 0.02387 0.29658 0.35954
 C382 C 1.01316 0.77229 0.10328
 H383 H 0.99753 0.78021 0.10029
 C384 C 1.03177 0.77987 0.09242
 H385 H 1.03025 0.79357 0.08095
 C386 C 1.03416 0.74543 0.12261
 H387 H 1.03514 0.73236 0.13477
 C388 C 1.05314 0.75256 0.11226
 H389 H 1.06846 0.74459 0.11642
 N390 N 1.01468 0.75538 0.11808
 C391 C 0.95075 0.72941 0.12858
 H392 H 0.95048 0.72907 0.14617
 C393 C 0.93364 0.72131 0.11792
 H394 H 0.92025 0.71480 0.12754
 C395 C 0.96884 0.73824 0.09497
 H396 H 0.98274 0.74463 0.08617
 C397 C 0.95190 0.73033 0.08356
 H398 H 0.95291 0.73080 0.06595
 Zn399 Zn 0.98968 0.74729 0.13463
 N400 N 0.96783 0.73775 0.11710
 C401 C 0.95907 0.78107 0.14488
 N402 N 0.97877 0.77207 0.15002
 C403 C 0.99108 0.78152 0.16454
 C404 C 0.98347 0.80068 0.17474
 C405 C 0.95098 0.80021 0.15448
 C406 C 1.00145 0.70419 0.14306
 C407 C 1.00638 0.68499 0.15488
 C408 C 1.00203 0.70520 0.18796
 C409 C 0.99683 0.72407 0.17545
 N410 N 0.99687 0.72323 0.15339
 H411 H 0.94974 0.77378 0.13286
 H412 H 1.00694 0.77438 0.16794
 H413 H 0.99354 0.80811 0.18610
 H414 H 0.93532 0.80709 0.14993
 H415 H 1.00120 0.70398 0.12551
 H416 H 1.01008 0.67008 0.14621
 H417 H 1.00207 0.70610 0.20549
 H418 H 0.99274 0.73928 0.18338
 C419 C 0.93401 0.72166 0.09509
 C420 C 1.05215 0.77015 0.09710
 C421 C 1.00681 0.68531 0.17763
 C422 C 0.96323 0.81036 0.16955
 C423 C 0.51486 0.27962 0.59750
 H424 H 0.49921 0.28824 0.59703
 C425 C 0.53262 0.28789 0.58569
 H426 H 0.53042 0.30281 0.57597
 C427 C 0.53689 0.25024 0.61158
 H428 H 0.53870 0.23591 0.62212
 C429 C 0.55498 0.25779 0.59991
 H430 H 0.57043 0.24897 0.60157
 N431 N 0.51735 0.26125 0.61032
 C432 C 0.45582 0.23182 0.62558
 H433 H 0.45702 0.23081 0.64307
 C434 C 0.43848 0.22286 0.61604
 H435 H 0.42641 0.21503 0.62643
 C436 C 0.47043 0.24319 0.59108
 H437 H 0.48307 0.25100 0.58149
 C438 C 0.45322 0.23442 0.58078
 H439 H 0.45275 0.23559 0.56322
 Zn440 Zn 0.49393 0.25250 0.62883
 N441 N 0.47127 0.24185 0.61313
 C442 C 0.46200 0.28318 0.64423
 N443 N 0.48334 0.27693 0.64487
 C444 C 0.49722 0.28847 0.65600
 C445 C 0.48967 0.30701 0.66726
 C446 C 0.45376 0.30137 0.65538
 C447 C 0.50674 0.20952 0.63815
 C448 C 0.51262 0.19100 0.65063
 C449 C 0.51162 0.21331 0.68235
 C450 C 0.50545 0.23143 0.66924
 N451 N 0.50329 0.22921 0.64754
 H452 H 0.45126 0.27425 0.63487
 H453 H 0.51419 0.28337 0.65597
 H454 H 0.50094 0.31604 0.67598
 H455 H 0.43671 0.30598 0.65450
 H456 H 0.50472 0.20821 0.62088
 H457 H 0.51527 0.17551 0.64275
 H458 H 0.51329 0.21531 0.69959
 H459 H 0.50229 0.24717 0.67644
 C460 C 0.43695 0.22405 0.59334
 C461 C 0.55310 0.27708 0.58706
 C462 C 0.51515 0.19274 0.67304
 C463 C 0.46763 0.31361 0.66705
 C464 C 0.47744 0.76124 0.92173
 H465 H 0.49265 0.76886 0.92340
 C466 C 0.45926 0.76784 0.93461
 H467 H 0.46070 0.78047 0.94627
 C468 C 0.45690 0.73633 0.90368
 H469 H 0.45580 0.72448 0.89123
 C470 C 0.43838 0.74243 0.91614
 H471 H 0.42337 0.73490 0.91321
 N472 N 0.47592 0.74584 0.90653
 C473 C 0.54040 0.71977 0.88759
 H474 H 0.53825 0.72066 0.87023
 C475 C 0.55993 0.71152 0.89555
 H476 H 0.57262 0.70598 0.88410
 C477 C 0.52632 0.72641 0.92329
 H478 H 0.51316 0.73233 0.93397
 C479 C 0.54576 0.71830 0.93203
 H480 H 0.54737 0.71801 0.94948
 Zn481 Zn 0.49978 0.73949 0.88707
 N482 N 0.52421 0.72729 0.90137
 C483 C 0.52715 0.77363 0.87726
 N484 N 0.50763 0.76603 0.87276
 C485 C 0.49378 0.77788 0.85984
 C486 C 0.49965 0.79806 0.85058
 C487 C 0.53350 0.79367 0.86865
 C488 C 0.49005 0.69798 0.87661
 C489 C 0.48454 0.68076 0.86410
 C490 C 0.48375 0.70544 0.83269
 C491 C 0.48957 0.72223 0.84585
 N492 N 0.49225 0.71826 0.86746
 H493 H 0.53773 0.76447 0.88805
 H494 H 0.47807 0.77183 0.85698
 H495 H 0.48845 0.80738 0.84045
 H496 H 0.54910 0.79931 0.87266
 H497 H 0.49246 0.69527 0.89380
 H498 H 0.48264 0.66484 0.87190
 H499 H 0.48140 0.70888 0.81558
 H500 H 0.49181 0.73836 0.83878
 C501 C 0.56297 0.71093 0.91803
 C502 C 0.43928 0.75863 0.93163
 C503 C 0.48111 0.68438 0.84186
 C504 C 0.51970 0.80624 0.85519
 C505 C 0.49902 -0.19672 0.33108
 N506 N 0.51337 -0.19510 0.34693
 N507 N 0.51942 -0.21259 0.35900
 C508 C 0.51135 -0.23232 0.35567
 N509 N 0.49714 -0.23404 0.33973
 N510 N 0.49111 -0.21655 0.32761
 C511 C 0.49129 -0.17712 0.31876
 N512 N 0.47708 -0.17868 0.30277
 N513 N 0.46920 -0.16079 0.29241
 C514 C 0.47517 -0.14067 0.29770
 N515 N 0.48949 -0.13912 0.31359
 N516 N 0.49742 -0.15701 0.32391
 C517 C 0.46548 -0.12092 0.28708
 N518 N 0.46965 -0.10071 0.29380
 N519 N 0.45992 -0.08291 0.28492
 C520 C 0.44568 -0.08459 0.26893
 N521 N 0.44174 -0.10483 0.26211
 N522 N 0.45141 -0.12263 0.27101
 C523 C 0.99006 0.31131 0.82606
 N524 N 1.00541 0.31296 0.84092
 N525 N 1.01102 0.29591 0.85376
 C526 C 1.00149 0.27661 0.85225
 N527 N 0.98629 0.27482 0.83728
 N528 N 0.98070 0.29188 0.82437
 C529 C 0.98286 0.33063 0.81303
 N530 N 0.96775 0.32913 0.79790
 N531 N 0.96040 0.34691 0.78698
 C532 C 0.96782 0.36685 0.79086
 N533 N 0.98304 0.36831 0.80589
 N534 N 0.99044 0.35053 0.81675
 C535 C 0.95878 0.38660 0.77975
 N536 N 0.96423 0.40675 0.78548
 N537 N 0.95512 0.42468 0.77621
 C538 C 0.94025 0.42316 0.76080
 N539 N 0.93502 0.40295 0.75495
 N540 N 0.94406 0.38504 0.76426
 C541 C 0.03093 1.19043 0.84027
 N542 N 0.02792 1.19155 0.86217
 N543 N 0.02133 1.21029 0.87123
 C544 C 0.01747 1.22857 0.85874
 N545 N 0.02045 1.22754 0.83683
 N546 N 0.02714 1.20878 0.82775
 C547 C 0.03827 1.16965 0.83048
 N548 N 0.04338 1.16864 0.80885
 N549 N 0.05043 1.14981 0.80019
 C550 C 0.05252 1.13129 0.81280
 N551 N 0.04728 1.13228 0.83439
 N552 N 0.04031 1.15111 0.84306
 C553 C 0.06104 1.11070 0.80342
 N554 N 0.06209 1.09193 0.81576
 N555 N 0.07069 1.07348 0.80748
 C556 C 0.07864 1.07309 0.78657
 N557 N 0.07739 1.09187 0.77423
 N558 N 0.06872 1.11029 0.78247
 C559 C 0.54415 0.68354 0.33884
 N560 N 0.54177 0.68354 0.36085
 N561 N 0.53479 0.70157 0.37097
 C562 C 0.52995 0.72028 0.35948
 N563 N 0.53247 0.72044 0.33747
 N564 N 0.53952 0.70237 0.32732
 C565 C 0.55096 0.66324 0.32786
 N566 N 0.55471 0.66306 0.30597
 N567 N 0.56066 0.64449 0.29619
 C568 C 0.56293 0.62541 0.30791
 N569 N 0.55912 0.62560 0.32977
 N570 N 0.55327 0.64416 0.33956
 C571 C 0.56983 0.60495 0.29725
 N572 N 0.57078 0.58571 0.30882
 N573 N 0.57774 0.56727 0.29935
 C574 C 0.58408 0.56735 0.27795
 N575 N 0.58296 0.58662 0.26638
 N576 N 0.57592 0.60504 0.27582
 C577 C 0.52148 0.30895 0.14734
 N578 N 0.50004 0.30551 0.15036
 N579 N 0.49094 0.29029 0.13930
 C580 C 0.50295 0.27806 0.12482
 N581 N 0.52436 0.28141 0.12188
 N582 N 0.53347 0.29654 0.13298
 C583 C 0.53159 0.32619 0.15881
 N584 N 0.55321 0.32862 0.15625
 N585 N 0.56249 0.34459 0.16598
 C586 C 0.55052 0.35880 0.17859
 N587 N 0.52887 0.35636 0.18124
 N588 N 0.51957 0.34031 0.17154
 C589 C 0.56102 0.37669 0.18867
 N590 N 0.54940 0.39206 0.20025
 N591 N 0.55920 0.40848 0.20881
 C592 C 0.58098 0.41013 0.20610
 N593 N 0.59249 0.39465 0.19458
 N594 N 0.58273 0.37830 0.18604
 C595 C 0.02744 0.81533 0.65292
 N596 N 0.00585 0.81219 0.65386
 N597 N -0.00236 0.79754 0.64137
 C598 C 0.01073 0.78564 0.62749
 N599 N 0.03228 0.78867 0.62667
 N600 N 0.04049 0.80320 0.63920
 C601 C 0.03662 0.83211 0.66576
 N602 N 0.05834 0.83414 0.66532
 N603 N 0.06686 0.84988 0.67607
 C604 C 0.05400 0.86427 0.68763
 N605 N 0.03224 0.86222 0.68820
 N606 N 0.02369 0.84639 0.67746
 C607 C 0.06372 0.88207 0.69860
 N608 N 0.05133 0.89781 0.70891
 N609 N 0.06050 0.91430 0.71805
 C610 C 0.08238 0.91565 0.71720
 N611 N 0.09464 0.89978 0.70698
 N612 N 0.08552 0.88337 0.69786
 C613 C 0.97378 0.70582 0.64328
 N614 N 0.99476 0.71080 0.64492
 N615 N 1.00210 0.72902 0.63549
 C616 C 0.98872 0.74287 0.62411
 N617 N 0.96771 0.73805 0.62267
 N618 N 0.96036 0.71987 0.63212
 C619 C 0.96589 0.68511 0.65240
 N620 N 0.94500 0.68019 0.65020
 N621 N 0.93792 0.66106 0.65756
 C622 C 0.95147 0.64608 0.66735
 N623 N 0.97238 0.65101 0.66966
 N624 N 0.97946 0.67019 0.66229
 C625 C 0.94350 0.62490 0.67504
 N626 N 0.95673 0.60948 0.68466
 N627 N 0.94920 0.59033 0.69158
 C628 C 0.92817 0.58588 0.68909
 N629 N 0.91506 0.60135 0.67938
 N630 N 0.92255 0.62044 0.67248
 C631 C 0.46760 0.19846 0.14734
 N632 N 0.48859 0.20389 0.14742
 N633 N 0.49507 0.22185 0.13676
 C634 C 0.48079 0.23498 0.12568
 N635 N 0.45979 0.22972 0.12582
 N636 N 0.45329 0.21181 0.13651
 C637 C 0.46063 0.17784 0.15758
 N638 N 0.43970 0.17244 0.15683
 N639 N 0.43343 0.15329 0.16500
 C640 C 0.44784 0.13876 0.17417
 N641 N 0.46878 0.14418 0.17506
 N642 N 0.47507 0.16338 0.16688
 C643 C 0.44073 0.11744 0.18254
 N644 N 0.45480 0.10237 0.19151
 N645 N 0.44806 0.08304 0.19887
 C646 C 0.42702 0.07804 0.19749
 N647 N 0.41307 0.09318 0.18847
 N648 N 0.41977 0.11245 0.18113
 C649 C 0.32822 0.50051 -0.19379
 N650 N 0.34441 0.51454 -0.19273
 N651 N 0.35674 0.51930 -0.21034
 C652 C 0.35336 0.51020 -0.22961
 N653 N 0.33707 0.49635 -0.23077
 N654 N 0.32468 0.49163 -0.21317
 C655 C 0.31568 0.49400 -0.17403
 N656 N 0.29924 0.48028 -0.17514
 N657 N 0.28874 0.47328 -0.15710
 C658 C 0.29433 0.47966 -0.13727
 N659 N 0.31066 0.49352 -0.13616
 N660 N 0.32112 0.50058 -0.15422
 C661 C 0.28364 0.47071 -0.11739
 N662 N 0.29074 0.47492 -0.09745
 N663 N 0.28184 0.46564 -0.07956
 C664 C 0.26547 0.45182 -0.08091
 N665 N 0.25827 0.44788 -0.10088
 N666 N 0.26718 0.45710 -0.11875
 C667 C 0.82792 0.99132 0.31502
 N668 N 0.82452 0.98299 0.29533
 N669 N 0.83654 0.98881 0.27780
 C670 C 0.85233 1.00317 0.27937
 N671 N 0.85564 1.01159 0.29897
 N672 N 0.84367 1.00576 0.31649
 C673 C 0.81535 0.98430 0.33458
 N674 N 0.81992 0.99155 0.35439
 N675 N 0.80918 0.98455 0.37229
 C676 C 0.79341 0.97009 0.37103
 N677 N 0.78871 0.96297 0.35119
 N678 N 0.79948 0.96994 0.33329
 C679 C 0.78236 0.96149 0.39088
 N680 N 0.76664 0.94699 0.38963
 N681 N 0.75746 0.93827 0.40763
 C682 C 0.76364 0.94366 0.42761
 N683 N 0.77924 0.95836 0.42880
 N684 N 0.78840 0.96712 0.41079
 C685 C 0.83168 0.04025 1.19904
 N686 N 0.84456 0.05271 1.21029
 N687 N 0.85507 0.04425 1.22723
 C688 C 0.85301 0.02307 1.23364
 N689 N 0.83983 0.01067 1.22268
 N690 N 0.82937 0.01910 1.20563
 C691 C 0.82159 0.04932 1.17936
 N692 N 0.81141 0.03634 1.16597
 N693 N 0.80351 0.04450 1.14743
 C694 C 0.80549 0.06591 1.14166
 N695 N 0.81547 0.07887 1.15516
 N696 N 0.82342 0.07073 1.17362
 C697 C 0.79763 0.07497 1.12092
 N698 N 0.79929 0.09654 1.11589
 N699 N 0.79275 0.10490 1.09694
 C700 C 0.78435 0.09205 1.08218
 N701 N 0.78267 0.07042 1.08725
 N702 N 0.78919 0.06203 1.10626
 C703 C 0.33796 0.53910 0.68597
 N704 N 0.33483 0.55008 0.70477
 N705 N 0.34457 0.54295 0.72274
 C706 C 0.35771 0.52457 0.72250
 N707 N 0.36075 0.51357 0.70379
 N708 N 0.35108 0.52070 0.68584
 C709 C 0.32786 0.54715 0.66591
 N710 N 0.33282 0.53718 0.64683
 N711 N 0.32413 0.54468 0.62847
 C712 C 0.31008 0.56238 0.62851
 N713 N 0.30501 0.57229 0.64760
 N714 N 0.31377 0.56483 0.66597
 C715 C 0.30089 0.57094 0.60816
 N716 N 0.28583 0.58778 0.60837
 N717 N 0.27785 0.59587 0.58989
 C718 C 0.28464 0.58751 0.57044
 N719 N 0.29968 0.57060 0.57028
 N720 N 0.30762 0.56245 0.58878
 C721 C 0.15649 0.51856 0.31635
 N722 N 0.15451 0.52880 0.29658
 N723 N 0.14147 0.52139 0.28213
 C724 C 0.12992 0.50352 0.28698
 N725 N 0.13199 0.49317 0.30664
 N726 N 0.14505 0.50055 0.32108
 C727 C 0.16983 0.52754 0.33272
 N728 N 0.17179 0.51746 0.35256
 N729 N 0.18289 0.52633 0.36783
 C730 C 0.19238 0.54563 0.36379
 N731 N 0.19056 0.55559 0.34390
 N732 N 0.17953 0.54670 0.32864
 C733 C 0.20333 0.55632 0.38095
 N734 N 0.21025 0.57683 0.37742
 N735 N 0.21900 0.58724 0.39324
 C736 C 0.22126 0.57757 0.41323
 N737 N 0.21459 0.55689 0.41668
 N738 N 0.20573 0.54648 0.40085
 C739 C 0.65835 0.02536 0.82407
 N740 N 0.65945 0.03413 0.80352
 N741 N 0.64681 0.02729 0.78838
 C742 C 0.63270 0.01143 0.79326
 N743 N 0.63174 0.00259 0.81372
 N744 N 0.64431 0.00942 0.82885
 C745 C 0.67128 0.03356 0.84123
 N746 N 0.66823 0.02619 0.86211
 N747 N 0.67906 0.03430 0.87798
 C748 C 0.69340 0.05004 0.87355
 N749 N 0.69661 0.05730 0.85263
 N750 N 0.68572 0.04923 0.83675
 C751 C 0.70436 0.05979 0.89129
 N752 N 0.71930 0.07498 0.88700
 N753 N 0.72838 0.08460 0.90318
 C754 C 0.72281 0.07949 0.92427
 N755 N 0.70797 0.06414 0.92849
 N756 N 0.69896 0.05446 0.91233
 C757 C 0.64955 0.98078 0.71051
 N758 N 0.65132 0.96861 0.72925
 N759 N 0.64138 0.97530 0.74767
 C760 C 0.62927 0.99434 0.74793
 N761 N 0.62760 1.00657 0.72926
 N762 N 0.63760 0.99994 0.71089
 C763 C 0.65952 0.97291 0.68995
 N764 N 0.65865 0.98560 0.67148
 N765 N 0.66684 0.97810 0.65262
 C766 C 0.67611 0.95761 0.65156
 N767 N 0.67706 0.94497 0.67005
 N768 N 0.66895 0.95249 0.68891
 C769 C 0.68434 0.94889 0.63069
 N770 N 0.69100 0.92755 0.62941
 N771 N 0.69794 0.91934 0.61047
 C772 C 0.69857 0.93213 0.59203
 N773 N 0.69202 0.95356 0.59335
 N774 N 0.68496 0.96177 0.61231
 C775 C 0.14344 0.47504 0.20297
 N776 N 0.13331 0.46009 0.21601
 N777 N 0.12418 0.46570 0.23510
 C778 C 0.12492 0.48644 0.24191
 N779 N 0.13513 0.50142 0.22900
 N780 N 0.14427 0.49581 0.20983
 C781 C 0.15272 0.46867 0.18161
 N782 N 0.16231 0.48334 0.16776
 N783 N 0.17023 0.47731 0.14823
 C784 C 0.16878 0.45642 0.14191
 N785 N 0.15923 0.44182 0.15580
 N786 N 0.15134 0.44783 0.17525
 C787 C 0.17731 0.44934 0.12051
 N788 N 0.17553 0.42831 0.11495
 N789 N 0.18331 0.42143 0.09578
 C790 C 0.19320 0.43526 0.08129
 N791 N 0.19492 0.45640 0.08682
 N792 N 0.18710 0.46332 0.10608
 C793 C -0.19363 0.33148 0.49254
 N794 N -0.21242 0.32732 0.48319
 N795 N -0.23020 0.34008 0.48682
 C796 C -0.22980 0.35735 0.49999
 N797 N -0.21114 0.36134 0.50954
 N798 N -0.19336 0.34865 0.50587
 C799 C -0.17360 0.31853 0.48723
 N800 N -0.15434 0.32458 0.49424
 N801 N -0.13596 0.31375 0.48827
 C802 C -0.13618 0.29642 0.47512
 N803 N -0.15547 0.29022 0.46831
 N804 N -0.17383 0.30110 0.47422
 C805 C -0.11588 0.28531 0.46732
 N806 N -0.11630 0.26779 0.45449
 N807 N -0.09799 0.25849 0.44624
 C808 C -0.07851 0.26636 0.45043
 N809 N -0.07811 0.28379 0.46347
 N810 N -0.09644 0.29307 0.47178
 C811 C 0.30490 0.82564 0.99556
 N812 N 0.30557 0.84131 1.01055
 N813 N 0.28789 0.85353 1.01594
 C814 C 0.26891 0.85053 1.00653
 N815 N 0.26811 0.83472 0.99172
 N816 N 0.28580 0.82246 0.98635
 C817 C 0.32482 0.81344 0.98835
 N818 N 0.32428 0.79784 0.97326
 N819 N 0.34253 0.78783 0.96568
 C820 C 0.36199 0.79310 0.97284
 N821 N 0.36251 0.80857 0.98807
 N822 N 0.34425 0.81853 0.99570
 C823 C 0.38215 0.78315 0.96331
 N824 N 0.40168 0.79014 0.96857
 N825 N 0.41987 0.78206 0.95886
 C826 C 0.41926 0.76665 0.94355
 N827 N 0.39970 0.75953 0.93853
 N828 N 0.38152 0.76762 0.94819
 C829 C 1.18556 0.83414 0.03677
 N830 N 1.18492 0.84775 0.01895
 N831 N 1.20253 0.85775 0.01167
 C832 C 1.22140 0.85457 0.02195
 N833 N 1.22213 0.84095 0.03974
 N834 N 1.20451 0.83087 0.04701
 C835 C 1.16588 0.82364 0.04504
 N836 N 1.16651 0.80905 0.06210
 N837 N 1.14852 0.79994 0.06980
 C838 C 1.12923 0.80514 0.06078
 N839 N 1.12862 0.81969 0.04370
 N840 N 1.14661 0.82874 0.03595
 C841 C 1.10928 0.79559 0.06968
 N842 N 1.08972 0.80247 0.06218
 N843 N 1.07159 0.79426 0.07071
 C844 C 1.07231 0.77879 0.08701
 N845 N 1.09194 0.77184 0.09437
 N846 N 1.11005 0.78010 0.08591
 C847 C 0.68552 0.34345 0.52774
 N848 N 0.70472 0.33175 0.52612
 N849 N 0.72270 0.34135 0.51909
 C850 C 0.72208 0.36297 0.51357
 N851 N 0.70295 0.37465 0.51525
 N852 N 0.68499 0.36507 0.52220
 C853 C 0.66560 0.33302 0.53539
 N854 N 0.64634 0.34462 0.53576
 N855 N 0.62825 0.33536 0.54291
 C856 C 0.62876 0.31414 0.54999
 N857 N 0.64802 0.30252 0.54959
 N858 N 0.66611 0.31177 0.54237
 C859 C 0.60894 0.30417 0.55859
 N860 N 0.60978 0.28362 0.56750
 N861 N 0.59197 0.27491 0.57616
 C862 C 0.57260 0.28634 0.57620
 N863 N 0.57177 0.30683 0.56706
 N864 N 0.58959 0.31558 0.55845
 C865 C 0.31719 0.15210 0.52926
 N866 N 0.30574 0.13796 0.54206
 N867 N 0.29078 0.12622 0.53370
 C868 C 0.28667 0.12826 0.51228
 N869 N 0.29792 0.14254 0.49948
 N870 N 0.31296 0.15425 0.50781
 C871 C 0.33436 0.16419 0.53846
 N872 N 0.34757 0.17659 0.52554
 N873 N 0.36365 0.18680 0.53396
 C874 C 0.36704 0.18497 0.55561
 N875 N 0.35372 0.17270 0.56850
 N876 N 0.33772 0.16247 0.56008
 C877 C 0.38500 0.19562 0.56511
 N878 N 0.38754 0.19398 0.58686
 N879 N 0.40397 0.20312 0.59570
 C880 C 0.41859 0.21423 0.58318
 N881 N 0.41602 0.21591 0.56136
 N882 N 0.39952 0.20678 0.55248
 C883 C 0.81494 0.65584 0.02357
 N884 N 0.80245 0.64198 0.03559
 N885 N 0.78739 0.63108 0.02634
 C886 C 0.78419 0.63376 0.00477
 N887 N 0.79648 0.64777 -0.00727
 N888 N 0.81164 0.65862 0.00196
 C889 C 0.83218 0.66695 0.03379
 N890 N 0.84657 0.67879 0.02170
 N891 N 0.86264 0.68811 0.03111
 C892 C 0.86484 0.68593 0.05294
 N893 N 0.85038 0.67420 0.06498
 N894 N 0.83439 0.66484 0.05559
 C895 C 0.88269 0.69567 0.06355
 N896 N 0.88382 0.69403 0.08549
 N897 N 0.90006 0.70239 0.09537
 C898 C 0.91591 0.71268 0.08376
 N899 N 0.91478 0.71434 0.06175
 N900 N 0.89846 0.70600 0.05183
 C901 C 0.70450 0.65562 0.96907
 N902 N 0.70939 0.65516 0.99038
 N903 N 0.72749 0.64476 0.99694
 C904 C 0.74128 0.63448 0.98244
 N905 N 0.73654 0.63516 0.96114
 N906 N 0.71851 0.64561 0.95456
 C907 C 0.68382 0.66549 0.96188
 N908 N 0.67921 0.66558 0.94054
 N909 N 0.66006 0.67334 0.93395
 C910 C 0.64473 0.68123 0.94845
 N911 N 0.64934 0.68128 0.96982
 N912 N 0.66855 0.67352 0.97642
 C913 C 0.62346 0.68909 0.94093
 N914 N 0.60747 0.69642 0.95506
 N915 N 0.58818 0.70328 0.94791
 C916 C 0.58416 0.70302 0.92638
 N917 N 0.60022 0.69564 0.91237
 N918 N 0.61944 0.68880 0.91948
 C919 C 0.20637 0.14830 0.47808
 N920 N 0.21989 0.13755 0.46365
 N921 N 0.23807 0.12730 0.47009
 C922 C 0.24343 0.12751 0.49118
 N923 N 0.23011 0.13848 0.50561
 N924 N 0.21188 0.14871 0.49917
 C925 C 0.18561 0.15812 0.47107
 N926 N 0.17106 0.16748 0.48554
 N927 N 0.15180 0.17533 0.47916
 C928 C 0.14642 0.17403 0.45810
 N929 N 0.16104 0.16479 0.44367
 N930 N 0.18024 0.15697 0.45003
 C931 C 0.12510 0.18199 0.45083
 N932 N 0.12016 0.17986 0.42980
 N933 N 0.10090 0.18681 0.42289
 C934 C 0.08571 0.19615 0.43669
 N935 N 0.09065 0.19828 0.45781
 N936 N 0.10998 0.19130 0.46476
 C937 C 0.57190 0.06169 0.75100
 N938 N 0.58600 0.06352 0.76706
 N939 N 0.59779 0.04614 0.77408
 C940 C 0.59584 0.02635 0.76531
 N941 N 0.58153 0.02442 0.74953
 N942 N 0.56977 0.04179 0.74248
 C943 C 0.56056 0.08112 0.74163
 N944 N 0.54899 0.07949 0.72359
 N945 N 0.54022 0.09728 0.71384
 C946 C 0.54265 0.11737 0.72179
 N947 N 0.55395 0.11900 0.74003
 N948 N 0.56280 0.10119 0.74975
 C949 C 0.53442 0.13696 0.70990
 N950 N 0.53583 0.15717 0.71797
 N951 N 0.52940 0.17493 0.70646
 C952 C 0.52148 0.17313 0.68638
 N953 N 0.51998 0.15287 0.67845
 N954 N 0.52629 0.13515 0.68998
 C955 C 1.06508 0.55142 0.24905
 N956 N 1.07875 0.55301 0.26551
 N957 N 1.09147 0.53594 0.27157
 C958 C 1.09089 0.51666 0.26146
 N959 N 1.07700 0.51491 0.24527
 N960 N 1.06432 0.53200 0.23915
 C961 C 1.05288 0.57085 0.24074
 N962 N 1.04201 0.56999 0.22215
 N963 N 1.03269 0.58803 0.21337
 C964 C 1.03385 0.60759 0.22287
 N965 N 1.04442 0.60841 0.24167
 N966 N 1.05381 0.59037 0.25042
 C967 C 1.02532 0.62767 0.21199
 N968 N 1.02572 0.64733 0.22151
 N969 N 1.01937 0.66565 0.21083
 C970 C 1.01257 0.66501 0.19017
 N971 N 1.01201 0.64529 0.18081
 N972 N 1.01822 0.62700 0.19150
 C973 C 0.90376 0.94892 0.22917
 N974 N 0.90762 0.95539 0.24949
 N975 N 0.89789 0.97360 0.25723
 C976 C 0.88404 0.98596 0.24487
 N977 N 0.88032 0.97958 0.22457
 N978 N 0.88996 0.96138 0.21688
 C979 C 0.91365 0.92851 0.22061
 N980 N 0.90739 0.92128 0.20138
 N981 N 0.91578 0.90260 0.19355
 C982 C 0.93083 0.89044 0.20459
 N983 N 0.93724 0.89769 0.22380
 N984 N 0.92875 0.91639 0.23171
 C985 C 0.93955 0.86967 0.19579
 N986 N 0.95629 0.85816 0.20499
 N987 N 0.96393 0.83932 0.19670
 C988 C 0.95501 0.83124 0.17902
 N989 N 0.93827 0.84282 0.16994
 N990 N 0.93073 0.86165 0.17811
 C991 C 0.40505 0.44944 0.72912
 N992 N 0.41718 0.46639 0.73392
 N993 N 0.40769 0.48554 0.73947
 C994 C 0.38580 0.48833 0.74037
 N995 N 0.37372 0.47140 0.73570
 N996 N 0.38317 0.45230 0.73018
 C997 C 0.41514 0.42855 0.72201
 N998 N 0.40250 0.41228 0.71661
 N999 N 0.41130 0.39360 0.70919
 C1000 C 0.43310 0.39043 0.70690
 N1001 N 0.44583 0.40662 0.71246
 N1002 N 0.43699 0.42538 0.71989
 C1003 C 0.44242 0.37014 0.69758
 N1004 N 0.46416 0.36624 0.69522
 N1005 N 0.47227 0.34812 0.68585
 C1006 C 0.45894 0.33331 0.67841
 N1007 N 0.43723 0.33724 0.68097
 N1008 N 0.42914 0.35526 0.69038
 C1009 C 0.41751 0.56559 0.76765
 N1010 N 0.41712 0.54562 0.77785
 N1011 N 0.40436 0.53052 0.77121
 C1012 C 0.39158 0.53484 0.75413
 N1013 N 0.39215 0.55465 0.74371
 N1014 N 0.40490 0.56979 0.75036
 C1015 C 0.43004 0.58279 0.77635
 N1016 N 0.42938 0.60331 0.76729
 N1017 N 0.43934 0.61930 0.77637
 C1018 C 0.45028 0.61532 0.79484
 N1019 N 0.45115 0.59475 0.80370
 N1020 N 0.44123 0.57878 0.79463
 C1021 C 0.45968 0.63313 0.80606
 N1022 N 0.46825 0.62919 0.82578
 N1023 N 0.47540 0.64543 0.83688
 C1024 C 0.47433 0.66630 0.82872
 N1025 N 0.46602 0.67020 0.80881
 N1026 N 0.45877 0.65392 0.79771
 C1027 C -0.08442 0.05988 0.27901
 N1028 N -0.09698 0.06497 0.26188
 N1029 N -0.10989 0.05035 0.25457
 C1030 C -0.11068 0.03013 0.26407
 N1031 N -0.09788 0.02487 0.28096
 N1032 N -0.08499 0.03951 0.28834
 C1033 C -0.07175 0.07665 0.28827
 N1034 N -0.06114 0.07238 0.30688
 N1035 N -0.05112 0.08812 0.31624
 C1036 C -0.05131 0.10868 0.30733
 N1037 N -0.06167 0.11288 0.28856
 N1038 N -0.07174 0.09715 0.27922
 C1039 C -0.04171 0.12635 0.31860
 N1040 N -0.04198 0.14701 0.30992
 N1041 N -0.03445 0.16325 0.32085
 C1042 C -0.02648 0.15946 0.34091
 N1043 N -0.02607 0.13872 0.34944
 N1044 N -0.03352 0.12249 0.33850
 C1045 C 0.08002 0.43288 0.29568
 N1046 N 0.10181 0.43397 0.29314
 N1047 N 0.11058 0.45205 0.28510
 C1048 C 0.09789 0.46975 0.27937
 N1049 N 0.07607 0.46880 0.28191
 N1050 N 0.06726 0.45065 0.28995
 C1051 C 0.07075 0.41266 0.30447
 N1052 N 0.04900 0.41060 0.30667
 N1053 N 0.04097 0.39206 0.31474
 C1054 C 0.05443 0.37499 0.32086
 N1055 N 0.07611 0.37711 0.31861
 N1056 N 0.08411 0.39556 0.31055
 C1057 C 0.04607 0.35458 0.33023
 N1058 N 0.06013 0.33856 0.33737
 N1059 N 0.05297 0.32016 0.34642
 C1060 C 0.03145 0.31692 0.34867
 N1061 N 0.01732 0.33291 0.34134
 N1062 N 0.02450 0.35143 0.33230
 C1063 C 0.57640 0.94503 0.79924
 N1064 N 0.59096 0.95430 0.81145
 N1065 N 0.60159 0.97143 0.80378
 C1066 C 0.59810 0.97996 0.78361
 N1067 N 0.58345 0.97083 0.77134
 N1068 N 0.57276 0.95363 0.77903
 C1069 C 0.56577 0.92542 0.80768
 N1070 N 0.55103 0.91552 0.79611
 N1071 N 0.54235 0.89714 0.80376
 C1072 C 0.54818 0.88804 0.82319
 N1073 N 0.56278 0.89806 0.83473
 N1074 N 0.57137 0.91640 0.82716
 C1075 C 0.53990 0.86719 0.83148
 N1076 N 0.54875 0.85721 0.84917
 N1077 N 0.54214 0.83797 0.85663
 C1078 C 0.52632 0.82791 0.84681
 N1079 N 0.51724 0.83800 0.82919
 N1080 N 0.52398 0.85727 0.82159
 C1081 C 0.73752 0.57062 0.04393
 N1082 N 0.72421 0.58204 0.03028
 N1083 N 0.73224 0.59508 0.01456
 C1084 C 0.75389 0.59705 0.01181
 N1085 N 0.76729 0.58536 0.02517
 N1086 N 0.75924 0.57240 0.04102
 C1087 C 0.72831 0.55795 0.06241
 N1088 N 0.74092 0.54982 0.07858
 N1089 N 0.73209 0.53995 0.09619
 C1090 C 0.71036 0.53784 0.09820
 N1091 N 0.69784 0.54571 0.08189
 N1092 N 0.70664 0.55563 0.06436
 C1093 C 0.70018 0.52842 0.11808
 N1094 N 0.67845 0.52650 0.11953
 N1095 N 0.66879 0.51917 0.13786
 C1096 C 0.68042 0.51352 0.15555
 N1097 N 0.70224 0.51529 0.15404
 N1098 N 0.71195 0.52261 0.13565
 C1099 C 0.24078 1.06634 0.55490
 N1100 N 0.22748 1.07587 0.54002
 N1101 N 0.23539 1.08815 0.52362
 C1102 C 0.25689 1.09120 0.52138
 N1103 N 0.27031 1.08137 0.53598
 N1104 N 0.26238 1.06917 0.55251
 C1105 C 0.23153 1.05475 0.57408
 N1106 N 0.24380 1.04873 0.59124
 N1107 N 0.23476 1.04003 0.60937
 C1108 C 0.21316 1.03702 0.61092
 N1109 N 0.20101 1.04276 0.59364
 N1110 N 0.21001 1.05150 0.57560
 C1111 C 0.20262 1.02897 0.63123
 N1112 N 0.18098 1.02643 0.63220
 N1113 N 0.17089 1.02035 0.65076
 C1114 C 0.18198 1.01660 0.66916
 N1115 N 0.20373 1.01897 0.66815
 N1116 N 0.21386 1.02507 0.64953
 C1117 C 0.22787 0.90282 0.94766
 N1118 N 0.23276 0.91504 0.96465
 N1119 N 0.23810 0.90544 0.98357
 C1120 C 0.23867 0.88333 0.98608
 N1121 N 0.23386 0.87117 0.96912
 N1122 N 0.22856 0.88073 0.95027
 C1123 C 0.22124 0.91299 0.92690
 N1124 N 0.21585 0.90017 0.91062
 N1125 N 0.20900 0.90901 0.89199
 C1126 C 0.20730 0.93102 0.88886
 N1127 N 0.21284 0.94393 0.90507
 N1128 N 0.21970 0.93506 0.92378
 C1129 C 0.19856 0.94035 0.86859
 N1130 N 0.19691 0.96228 0.86455
 N1131 N 0.18796 0.97039 0.84648
 C1132 C 0.18026 0.95685 0.83186
 N1133 N 0.18215 0.93496 0.83592
 N1134 N 0.19114 0.92688 0.85387
 C1135 C 0.73020 0.40510 0.43640
 N1136 N 0.73053 0.38323 0.44066
 N1137 N 0.73557 0.37505 0.46018
 C1138 C 0.74046 0.38844 0.47615
 N1139 N 0.74025 0.41032 0.47197
 N1140 N 0.73519 0.41853 0.45240
 C1141 C 0.72376 0.41387 0.41503
 N1142 N 0.72256 0.43573 0.41046
 N1143 N 0.71580 0.44345 0.39129
 C1144 C 0.71000 0.42957 0.37603
 N1145 N 0.71136 0.40775 0.38058
 N1146 N 0.71812 0.40005 0.39969
 C1147 C 0.70134 0.43780 0.35532
 N1148 N 0.69384 0.42362 0.34132
 N1149 N 0.68486 0.43086 0.32304
 C1150 C 0.68304 0.45258 0.31797
 N1151 N 0.69081 0.46678 0.33188
 N1152 N 0.69976 0.45954 0.35025
 C1153 C 0.76690 0.42386 0.55288
 N1154 N 0.74935 0.41173 0.55707
 N1155 N 0.74266 0.39870 0.54208
 C1156 C 0.75326 0.39738 0.52239
 N1157 N 0.77056 0.40976 0.51803
 N1158 N 0.77725 0.42279 0.53301
 C1159 C 0.77589 0.43618 0.57016
 N1160 N 0.79471 0.44638 0.56641
 N1161 N 0.80410 0.45574 0.58252
 C1162 C 0.79505 0.45526 0.60300
 N1163 N 0.77605 0.44535 0.60671
 N1164 N 0.76665 0.43595 0.59058
 C1165 C 0.80657 0.46388 0.62098
 N1166 N 0.79791 0.46347 0.64163
 N1167 N 0.80914 0.47000 0.65804
 C1168 C 0.82951 0.47703 0.65442
 N1169 N 0.83800 0.47758 0.63371
 N1170 N 0.82676 0.47115 0.61733
 C1171 C 0.26740 -0.08674 0.06409
 N1172 N 0.25009 -0.09925 0.06815
 N1173 N 0.24295 -0.11139 0.05263
 C1174 C 0.25284 -0.11139 0.03253
 N1175 N 0.26990 -0.09865 0.02836
 N1176 N 0.27704 -0.08652 0.04385
 C1177 C 0.27676 -0.07509 0.08164
 N1178 N 0.29524 -0.06436 0.07773
 N1179 N 0.30487 -0.05530 0.09387
 C1180 C 0.29640 -0.05662 0.11455
 N1181 N 0.27774 -0.06710 0.11845
 N1182 N 0.26811 -0.07621 0.10228
 C1183 C 0.30810 -0.04801 0.13242
 N1184 N 0.29992 -0.04888 0.15324
 N1185 N 0.31128 -0.04210 0.16945
 C1186 C 0.33130 -0.03433 0.16544
 N1187 N 0.33932 -0.03336 0.14457
 N1188 N 0.32797 -0.04004 0.12840
 C1189 C 0.29685 0.07813 0.44034
 N1190 N 0.28819 0.06578 0.45694
 N1191 N 0.27986 0.07515 0.47489
 C1192 C 0.27995 0.09714 0.47681
 N1193 N 0.28867 0.10942 0.46030
 N1194 N 0.29701 0.10009 0.44242
 C1195 C 0.30545 0.06830 0.42010
 N1196 N 0.31398 0.08123 0.40397
 N1197 N 0.32144 0.07278 0.38533
 C1198 C 0.32064 0.05107 0.38204
 N1199 N 0.31214 0.03804 0.39818
 N1200 N 0.30465 0.04652 0.41690
 C1201 C 0.32898 0.04221 0.36126
 N1202 N 0.32840 0.02061 0.35710
 N1203 N 0.33629 0.01298 0.33814
 C1204 C 0.34503 0.02666 0.32268
 N1205 N 0.34545 0.04823 0.32694
 N1206 N 0.33759 0.05584 0.34580
 C1207 C 0.79493 0.58568 0.93131
 N1208 N 0.78580 0.57310 0.94746
 N1209 N 0.77733 0.58215 0.96552
 C1210 C 0.77774 0.60404 0.96800
 N1211 N 0.78694 0.61656 0.95196
 N1212 N 0.79542 0.60754 0.93397
 C1213 C 0.80356 0.57620 0.91094
 N1214 N 0.81250 0.58929 0.89517
 N1215 N 0.81991 0.58113 0.87638
 C1216 C 0.81863 0.55956 0.87257
 N1217 N 0.80973 0.54638 0.88835
 N1218 N 0.80230 0.55457 0.90721
 C1219 C 0.82684 0.55098 0.85164
 N1220 N 0.82574 0.52954 0.84706
 N1221 N 0.83349 0.52211 0.82798
 C1222 C 0.84261 0.53584 0.81281
 N1223 N 0.84357 0.55726 0.81749
 N1224 N 0.83584 0.56468 0.83648
 C1225 C 0.05483 0.74073 0.56449
 N1226 N 0.05141 0.76259 0.56697
 N1227 N 0.03477 0.77031 0.57940
 C1228 C 0.02113 0.75642 0.58986
 N1229 N 0.02443 0.73464 0.58723
 N1230 N 0.04094 0.72694 0.57472
 C1231 C 0.07388 0.73184 0.55215
 N1232 N 0.07614 0.71007 0.54887
 N1233 N 0.09402 0.70149 0.53911
 C1234 C 0.11037 0.71433 0.53232
 N1235 N 0.10807 0.73618 0.53538
 N1236 N 0.09010 0.74480 0.54510
 C1237 C 0.13057 0.70424 0.52313
 N1238 N 0.14816 0.71615 0.51821
 N1239 N 0.16682 0.70637 0.51130
 C1240 C 0.16857 0.68433 0.50911
 N1241 N 0.15084 0.67260 0.51381
 N1242 N 0.13226 0.68232 0.52068
 C1243 C 0.54447 0.22998 1.06389
 N1244 N 0.53243 0.21674 1.07711
 N1245 N 0.51590 0.22495 1.08927
 C1246 C 0.51076 0.24669 1.08865
 N1247 N 0.52246 0.25996 1.07510
 N1248 N 0.53905 0.25174 1.06291
 C1249 C 0.56427 0.22099 1.05282
 N1250 N 0.57720 0.23381 1.04002
 N1251 N 0.59620 0.22583 1.03189
 C1252 C 0.60294 0.20480 1.03643
 N1253 N 0.58986 0.19199 1.04898
 N1254 N 0.57089 0.19990 1.05698
 C1255 C 0.62462 0.19624 1.02952
 N1256 N 0.63262 0.17733 1.03875
 N1257 N 0.65260 0.16974 1.03364
 C1258 C 0.66539 0.18065 1.01899
 N1259 N 0.65732 0.19949 1.00949
 N1260 N 0.63731 0.20724 1.01478
 C1261 C 0.94669 0.23639 0.91095
 N1262 N 0.96599 0.22579 0.91477
 N1263 N 0.98392 0.23140 0.90369
 C1264 C 0.98317 0.24777 0.88838
 N1265 N 0.96396 0.25855 0.88466
 N1266 N 0.94601 0.25297 0.89577
 C1267 C 0.92680 0.22902 0.92212
 N1268 N 0.90731 0.23940 0.91857
 N1269 N 0.88919 0.23175 0.92776
 C1270 C 0.88993 0.21342 0.94075
 N1271 N 0.90942 0.20319 0.94442
 N1272 N 0.92751 0.21085 0.93530
 C1273 C 0.87004 0.20393 0.94979
 N1274 N 0.87109 0.18400 0.96001
 N1275 N 0.85315 0.17465 0.96733
 C1276 C 0.83341 0.18484 0.96480
 N1277 N 0.83236 0.20494 0.95478
 N1278 N 0.85035 0.21429 0.94733
 C1279 C 0.45497 0.72181 0.40608
 N1280 N 0.46185 0.74197 0.41001
 N1281 N 0.48048 0.74859 0.40095
 C1282 C 0.49283 0.73521 0.38777
 N1283 N 0.48599 0.71509 0.38398
 N1284 N 0.46742 0.70851 0.39294
 C1285 C 0.43417 0.71439 0.41515
 N1286 N 0.42695 0.69514 0.40887
 N1287 N 0.40798 0.68823 0.41647
 C1288 C 0.39548 0.70026 0.43072
 N1289 N 0.40269 0.71952 0.43714
 N1290 N 0.42170 0.72650 0.42944
 C1291 C 0.37448 0.69232 0.43859
 N1292 N 0.36234 0.70248 0.45454
 N1293 N 0.34339 0.69475 0.46151
 C1294 C 0.33586 0.67668 0.45268
 N1295 N 0.34807 0.66668 0.43672
 N1296 N 0.36697 0.67430 0.42985
 C1297 C 0.56659 0.76772 0.42034
 N1298 N 0.57180 0.75040 0.40761
 N1299 N 0.55735 0.74302 0.39456
 C1300 C 0.53720 0.75268 0.39384
 N1301 N 0.53188 0.76979 0.40674
 N1302 N 0.54632 0.77719 0.41976
 C1303 C 0.58300 0.77709 0.43329
 N1304 N 0.57824 0.79570 0.44424
 N1305 N 0.59349 0.80520 0.45466
 C1306 C 0.61406 0.79645 0.45455
 N1307 N 0.61877 0.77768 0.44384
 N1308 N 0.60352 0.76818 0.43337
 C1309 C 0.63111 0.80797 0.46463
 N1310 N 0.65178 0.79948 0.46471
 N1311 N 0.66741 0.81072 0.47264
 C1312 C 0.66297 0.83092 0.48068
 N1313 N 0.64223 0.83924 0.48075
 N1314 N 0.62662 0.82800 0.47291
 C1315 C 0.06012 0.27834 -0.08674
 N1316 N 0.06398 0.26020 -0.09867
 N1317 N 0.04846 0.25264 -0.11030
 C1318 C 0.02857 0.26295 -0.11037
 N1319 N 0.02461 0.28091 -0.09827
 N1320 N 0.04012 0.28847 -0.08666
 C1321 C 0.07756 0.28774 -0.07522
 N1322 N 0.07388 0.30685 -0.06485
 N1323 N 0.08991 0.31624 -0.05556
 C1324 C 0.11025 0.30688 -0.05628
 N1325 N 0.11392 0.28764 -0.06645
 N1326 N 0.09786 0.27825 -0.07578
 C1327 C 0.12804 0.31812 -0.04717
 N1328 N 0.14850 0.30902 -0.04749
 N1329 N 0.16469 0.31987 -0.04012
 C1330 C 0.16105 0.34026 -0.03226
 N1331 N 0.14054 0.34919 -0.03183
 N1332 N 0.12437 0.33835 -0.03912
 C1333 C 0.43112 0.29024 0.07704
 N1334 N 0.44725 0.28075 0.06439
 N1335 N 0.46483 0.27151 0.07336
 C1336 C 0.46681 0.27148 0.09523
 N1337 N 0.45075 0.28099 0.10781
 N1338 N 0.43325 0.29023 0.09888
 C1339 C 0.41142 0.30017 0.06764
 N1340 N 0.39589 0.30974 0.08085
 N1341 N 0.37781 0.31863 0.07277
 C1342 C 0.37451 0.31828 0.05116
 N1343 N 0.39004 0.30871 0.03785
 N1344 N 0.40819 0.29980 0.04596
 C1345 C 0.35440 0.32828 0.04270
 N1346 N 0.35015 0.32805 0.02124
 N1347 N 0.33182 0.33743 0.01398
 C1348 C 0.31709 0.34739 0.02790
 N1349 N 0.32143 0.34749 0.04932
 N1350 N 0.33967 0.33813 0.05657
 C1351 C 0.94276 0.79949 0.57398
 N1352 N 0.95309 0.81032 0.58905
 N1353 N 0.97015 0.80098 0.59874
 C1354 C 0.97745 0.78048 0.59373
 N1355 N 0.96732 0.76970 0.57851
 N1356 N 0.95028 0.77906 0.56877
 C1357 C 0.92295 0.80920 0.56466
 N1358 N 0.91255 0.79869 0.54939
 N1359 N 0.89383 0.80695 0.54203
 C1360 C 0.88481 0.82595 0.54977
 N1361 N 0.89531 0.83651 0.56490
 N1362 N 0.91404 0.82831 0.57218
 C1363 C 0.86357 0.83455 0.54286
 N1364 N 0.85351 0.85164 0.55322
 N1365 N 0.83389 0.85909 0.54775
 C1366 C 0.82353 0.84981 0.53166
 N1367 N 0.83370 0.83279 0.52114
 N1368 N 0.85333 0.82523 0.52670
   
