data_POSCAR
  _audit_creation_date              2014-09-24
  _audit_creation_method            'ToBaCCo'
  _symmetry_space_group_name_H-M    'P1'
  _symmetry_Int_Tables_number       1
  _symmetry_cell_setting            triclinic
  loop_
  _symmetry_equiv_pos_as_xyz
 x,y,z
_cell_length_a 56.1914
_cell_length_b 61.1618
_cell_length_c 61.5616
_cell_angle_alpha 90.007300
_cell_angle_beta 89.841800
_cell_angle_gamma 89.576800
loop_
  _atom_site_label
  _atom_site_type_symbol
  _atom_site_fract_x
  _atom_site_fract_y
  _atom_site_fract_z
C1 C 0.29625 0.28850 -0.00193
 C2 C 0.29546 0.29157 0.01998
 C3 C 0.28070 0.30913 0.02987
 C4 C 0.31077 0.27869 0.03497
 C5 C 0.31259 0.27219 -0.01186
 C6 C 0.28245 0.30259 -0.01707
 C7 C 0.28557 0.33121 0.02574
 C8 C 0.27164 0.34765 0.03528
 C9 C 0.25263 0.34222 0.04915
 C10 C 0.24768 0.32010 0.05303
 C11 C 0.26179 0.30369 0.04369
 C12 C 0.32713 0.28959 0.04820
 C13 C 0.34285 0.27782 0.06135
 C14 C 0.34233 0.25481 0.06173
 C15 C 0.32563 0.24395 0.04874
 C16 C 0.30986 0.25577 0.03559
 C17 C 0.30339 0.25395 -0.02258
 C18 C 0.31870 0.23836 -0.03177
 C19 C 0.34361 0.24093 -0.03099
 C20 C 0.35266 0.25945 -0.02001
 C21 C 0.33727 0.27482 -0.01060
 C22 C 0.25761 0.30451 -0.01545
 C23 C 0.24521 0.31924 -0.02871
 C24 C 0.25734 0.33210 -0.04402
 C25 C 0.28220 0.32970 -0.04595
 C26 C 0.29455 0.31499 -0.03269
 H27 H 0.30018 0.33567 0.01515
 H28 H 0.27559 0.36452 0.03155
 H29 H 0.23308 0.31554 0.06360
 H30 H 0.25784 0.28671 0.04704
 H31 H 0.32824 0.30726 0.04782
 H32 H 0.35582 0.28686 0.07058
 H33 H 0.29719 0.24705 0.02567
 H34 H 0.28433 0.25169 -0.02363
 H35 H 0.31089 0.22442 -0.03990
 H36 H 0.37146 0.26229 -0.01813
 H37 H 0.34462 0.28884 -0.00229
 H38 H 0.24790 0.29491 -0.00365
 H39 H 0.22610 0.32077 -0.02683
 H40 H 0.29241 0.33958 -0.05707
 H41 H 0.31374 0.31386 -0.03409
 H42 H 0.32489 0.22626 0.04866
 C43 C 0.70035 0.70771 -0.01420
 C44 C 0.70334 0.70707 0.00777
 C45 C 0.71831 0.68981 0.01788
 C46 C 0.69019 0.72193 0.02281
 C47 C 0.68135 0.72108 -0.02461
 C48 C 0.71514 0.69374 -0.02875
 C49 C 0.71233 0.66773 0.01534
 C50 C 0.72579 0.65144 0.02546
 C51 C 0.74544 0.65698 0.03837
 C52 C 0.75169 0.67905 0.04054
 C53 C 0.73801 0.69540 0.03060
 C54 C 0.67831 0.71317 0.04087
 C55 C 0.66497 0.72664 0.05461
 C56 C 0.66303 0.74914 0.05054
 C57 C 0.67559 0.75812 0.03291
 C58 C 0.68920 0.74462 0.01925
 C59 C 0.68680 0.73428 -0.04256
 C60 C 0.66899 0.74654 -0.05278
 C61 C 0.64538 0.74575 -0.04522
 C62 C 0.63995 0.73256 -0.02728
 C63 C 0.65767 0.72002 -0.01730
 C64 C 0.74008 0.69463 -0.02803
 C65 C 0.75384 0.68032 -0.04062
 C66 C 0.74297 0.66506 -0.05437
 C67 C 0.71794 0.66457 -0.05542
 C68 C 0.70420 0.67889 -0.04282
 H69 H 0.69707 0.66317 0.00567
 H70 H 0.72088 0.63453 0.02307
 H71 H 0.76683 0.68365 0.05034
 H72 H 0.74279 0.71238 0.03274
 H73 H 0.67888 0.69576 0.04408
 H74 H 0.65565 0.71936 0.06820
 H75 H 0.69877 0.75184 0.00579
 H76 H 0.70491 0.73523 -0.04854
 H77 H 0.67383 0.75692 -0.06630
 H78 H 0.62186 0.73167 -0.02121
 H79 H 0.65288 0.70946 -0.00389
 H80 H 0.74886 0.70617 -0.01744
 H81 H 0.77305 0.68102 -0.03944
 H82 H 0.70877 0.65275 -0.06533
 H83 H 0.68498 0.67788 -0.04349
 H84 H 0.67514 0.77551 0.02970
 C85 C 0.67615 0.31921 1.01033
 C86 C 0.67582 0.32036 0.98821
 C87 C 0.69076 0.33595 0.97570
 C88 C 0.66020 0.30617 0.97495
 C89 C 0.66035 0.30414 1.02261
 C90 C 0.69200 0.33320 1.02361
 C91 C 0.69007 0.35855 0.97984
 C92 C 0.70295 0.37298 0.96672
 C93 C 0.71630 0.36503 0.94900
 C94 C 0.71683 0.34250 0.94487
 C95 C 0.70434 0.32810 0.95815
 C96 C 0.64422 0.31583 0.96031
 C97 C 0.63009 0.30289 0.94697
 C98 C 0.63163 0.28001 0.94796
 C99 C 0.64786 0.27029 0.96253
 C100 C 0.66205 0.28329 0.97589
 C101 C 0.67024 0.29011 1.03827
 C102 C 0.65573 0.27628 1.05046
 C103 C 0.63098 0.27625 1.04723
 C104 C 0.62109 0.29013 1.03145
 C105 C 0.63558 0.30423 1.01949
 C106 C 0.71668 0.33359 1.02017
 C107 C 0.73111 0.34708 1.03281
 C108 C 0.72129 0.36015 1.04947
 C109 C 0.69648 0.35934 1.05303
 C110 C 0.68212 0.34600 1.04027
 H111 H 0.67913 0.36506 0.99286
 H112 H 0.70167 0.39034 0.96995
 H113 H 0.72685 0.33603 0.93122
 H114 H 0.70496 0.31078 0.95452
 H115 H 0.64271 0.33347 0.95921
 H116 H 0.61789 0.31081 0.93581
 H117 H 0.67472 0.27556 0.98672
 H118 H 0.68928 0.28980 1.04098
 H119 H 0.66396 0.26541 1.06215
 H120 H 0.60206 0.29038 1.02869
 H121 H 0.62746 0.31529 1.00790
 H122 H 0.72476 0.32350 1.00767
 H123 H 0.75008 0.34717 1.02958
 H124 H 0.68765 0.36911 1.06525
 H125 H 0.66310 0.34588 1.04322
 H126 H 0.65014 0.25275 0.96337
 C127 C 0.31976 0.68382 1.00854
 C128 C 0.31554 0.68450 0.98677
 C129 C 0.30049 0.66797 0.97590
 C130 C 0.32669 0.70137 0.97278
 C131 C 0.33720 0.69868 1.01872
 C132 C 0.30785 0.66794 1.02317
 C133 C 0.30648 0.64566 0.97678
 C134 C 0.29205 0.63016 0.96670
 C135 C 0.27137 0.63674 0.95555
 C136 C 0.26540 0.65905 0.95480
 C137 C 0.28001 0.67457 0.96464
 C138 C 0.34162 0.69504 0.95557
 C139 C 0.35367 0.71076 0.94335
 C140 C 0.35076 0.73318 0.94802
 C141 C 0.33530 0.73943 0.96490
 C142 C 0.32322 0.72371 0.97705
 C143 C 0.32939 0.71500 1.03307
 C144 C 0.34571 0.72905 1.04280
 C145 C 0.37035 0.72668 1.03872
 C146 C 0.37800 0.70987 1.02466
 C147 C 0.36158 0.69619 1.01455
 C148 C 0.28299 0.66600 1.02360
 C149 C 0.27204 0.65107 1.03756
 C150 C 0.28580 0.63788 1.05166
 C151 C 0.31068 0.64030 1.05139
 C152 C 0.32155 0.65511 1.03734
 H153 H 0.32229 0.64029 0.98534
 H154 H 0.29688 0.61305 0.96799
 H155 H 0.24952 0.66450 0.94638
 H156 H 0.27513 0.69172 0.96380
 H157 H 0.34457 0.67787 0.95208
 H158 H 0.36580 0.70517 0.93085
 H159 H 0.31146 0.72894 0.99004
 H160 H 0.31060 0.71692 1.03661
 H161 H 0.33880 0.74116 1.05398
 H162 H 0.39677 0.70742 1.02124
 H163 H 0.36787 0.68348 1.00366
 H164 H 0.27202 0.67619 1.01324
 H165 H 0.25286 0.65037 1.03724
 H166 H 0.32190 0.63058 1.06202
 H167 H 0.34076 0.65642 1.03741
 H168 H 0.33274 0.75655 0.96885
 C169 C -0.02126 0.32378 0.31391
 C170 C 0.00295 0.32421 0.31423
 C171 C 0.01665 0.31214 0.33089
 C172 C 0.01695 0.33746 0.29857
 C173 C -0.03490 0.33824 0.29917
 C174 C -0.03519 0.30975 0.32896
 C175 C 0.01462 0.31775 0.35291
 C176 C 0.02788 0.30646 0.36850
 C177 C 0.04298 0.28918 0.36231
 C178 C 0.04519 0.28375 0.34020
 C179 C 0.03226 0.29531 0.32459
 C180 C 0.03364 0.35251 0.30629
 C181 C 0.04688 0.36517 0.29182
 C182 C 0.04383 0.36285 0.26926
 C183 C 0.02718 0.34770 0.26157
 C184 C 0.01404 0.33495 0.27607
 C185 C -0.04848 0.32926 0.28241
 C186 C -0.06061 0.34291 0.26792
 C187 C -0.06003 0.36579 0.27034
 C188 C -0.04649 0.37466 0.28747
 C189 C -0.03402 0.36097 0.30165
 C190 C -0.03082 0.28718 0.33034
 C191 C -0.04342 0.27427 0.34511
 C192 C -0.06099 0.28367 0.35876
 C193 C -0.06576 0.30621 0.35672
 C194 C -0.05305 0.31907 0.34202
 H195 H 0.00287 0.33094 0.35794
 H196 H 0.02612 0.31100 0.38544
 H197 H 0.05717 0.27085 0.33494
 H198 H 0.03420 0.29101 0.30760
 H199 H 0.03613 0.35473 0.32359
 H200 H 0.05902 0.37707 0.29843
 H201 H 0.00162 0.32312 0.26973
 H202 H -0.04925 0.31170 0.28029
 H203 H -0.07072 0.33549 0.25493
 H204 H -0.04472 0.39207 0.28978
 H205 H -0.02351 0.36810 0.31453
 H206 H -0.01757 0.27954 0.31997
 H207 H -0.03918 0.25705 0.34545
 H208 H -0.07920 0.31406 0.36676
 H209 H -0.05687 0.33643 0.34113
 H210 H 0.02445 0.34563 0.24428
 C211 C 0.00172 0.66454 0.67419
 C212 C 0.02590 0.66425 0.67266
 C213 C 0.03818 0.67804 0.65648
 C214 C 0.04138 0.65033 0.68665
 C215 C -0.01166 0.64885 0.68808
 C216 C -0.01237 0.68043 0.66118
 C217 C 0.04091 0.67061 0.63508
 C218 C 0.05400 0.68276 0.62012
 C219 C 0.06424 0.70268 0.62622
 C220 C 0.06115 0.71028 0.64764
 C221 C 0.04828 0.69794 0.66269
 C222 C 0.05906 0.63710 0.67713
 C223 C 0.07405 0.62428 0.68999
 C224 C 0.07175 0.62429 0.71268
 C225 C 0.05425 0.63779 0.72232
 C226 C 0.03926 0.65073 0.70940
 C227 C -0.03041 0.65622 0.70137
 C228 C -0.04307 0.64164 0.71439
 C229 C -0.03716 0.61918 0.71458
 C230 C -0.01841 0.61184 0.70121
 C231 C -0.00620 0.62639 0.68777
 C232 C -0.01945 0.70047 0.67022
 C233 C -0.03304 0.71529 0.65812
 C234 C -0.03887 0.71087 0.63635
 C235 C -0.03127 0.69081 0.62721
 C236 C -0.01844 0.67565 0.63965
 H237 H 0.03335 0.65515 0.63015
 H238 H 0.05627 0.67652 0.60377
 H239 H 0.06931 0.72530 0.65300
 H240 H 0.04646 0.70373 0.67925
 H241 H 0.06118 0.63651 0.65966
 H242 H 0.08745 0.61417 0.68213
 H243 H 0.02615 0.66122 0.71715
 H244 H -0.03512 0.67337 0.70208
 H245 H -0.05681 0.64838 0.72477
 H246 H -0.01343 0.59469 0.70082
 H247 H 0.00760 0.62004 0.67715
 H248 H -0.01458 0.70456 0.68673
 H249 H -0.03854 0.73051 0.66570
 H250 H -0.03585 0.68628 0.61078
 H251 H -0.01316 0.66019 0.63246
 H252 H 0.05232 0.63879 0.73977
 C253 C 1.00979 0.68723 0.30790
 C254 C 0.98570 0.68571 0.30961
 C255 C 0.97174 0.69929 0.32516
 C256 C 0.97221 0.66908 0.29735
 C257 C 1.02367 0.67346 0.29242
 C258 C 1.02347 0.70134 0.32285
 C259 C 0.95639 0.68910 0.33998
 C260 C 0.94321 0.70150 0.35480
 C261 C 0.94521 0.72434 0.35525
 C262 C 0.96022 0.73465 0.34011
 C263 C 0.97328 0.72221 0.32512
 C264 C 0.97558 0.64674 0.30162
 C265 C 0.96159 0.63120 0.29112
 C266 C 0.94436 0.63774 0.27595
 C267 C 0.94114 0.66014 0.27160
 C268 C 0.95483 0.67569 0.28239
 C269 C 1.01789 0.67269 0.27028
 C270 C 1.03011 0.65852 0.25625
 C271 C 1.04871 0.64506 0.26392
 C272 C 1.05489 0.64645 0.28611
 C273 C 1.04252 0.66050 0.30009
 C274 C 1.03581 0.71944 0.31482
 C275 C 1.04823 0.73308 0.32898
 C276 C 1.04921 0.72851 0.35138
 C277 C 1.03684 0.71010 0.35928
 C278 C 1.02409 0.69674 0.34513
 H279 H 0.95480 0.67147 0.34024
 H280 H 0.93162 0.69319 0.36616
 H281 H 0.96160 0.75227 0.33951
 H282 H 0.98447 0.73045 0.31340
 H283 H 0.98867 0.64143 0.31341
 H284 H 0.96419 0.61404 0.29487
 H285 H 0.95182 0.69290 0.27920
 H286 H 1.00372 0.68288 0.26388
 H287 H 1.02489 0.65806 0.23933
 H288 H 1.06874 0.63648 0.29321
 H289 H 1.04728 0.66080 0.31713
 H290 H 1.03545 0.72319 0.29762
 H291 H 1.05739 0.74709 0.32230
 H292 H 1.03626 0.70608 0.37635
 H293 H 1.01459 0.68281 0.35156
 H294 H 0.92756 0.66569 0.26041
 C295 C 1.00637 0.31195 0.69253
 C296 C 0.98233 0.31416 0.69082
 C297 C 0.96835 0.30100 0.67514
 C298 C 0.96926 0.33136 0.70298
 C299 C 1.02021 0.32483 0.70851
 C300 C 1.01992 0.29790 0.67721
 C301 C 0.95364 0.31155 0.65997
 C302 C 0.94119 0.29946 0.64455
 C303 C 0.94331 0.27660 0.64388
 C304 C 0.95747 0.26594 0.65950
 C305 C 0.96976 0.27805 0.67507
 C306 C 0.97306 0.35348 0.69824
 C307 C 0.95992 0.36969 0.70896
 C308 C 0.94317 0.36404 0.72490
 C309 C 0.93947 0.34185 0.72972
 C310 C 0.95227 0.32561 0.71865
 C311 C 1.01463 0.32424 0.73075
 C312 C 1.02690 0.33741 0.74546
 C313 C 1.04520 0.35119 0.73828
 C314 C 1.05094 0.35152 0.71599
 C315 C 1.03867 0.33834 0.70132
 C316 C 1.03103 0.27873 0.68453
 C317 C 1.04218 0.26460 0.66976
 C318 C 1.04309 0.26969 0.64746
 C319 C 1.03237 0.28938 0.64035
 C320 C 1.02084 0.30324 0.65510
 H321 H 0.95216 0.32922 0.65978
 H322 H 0.93019 0.30803 0.63286
 H323 H 0.95885 0.24830 0.65996
 H324 H 0.98042 0.26953 0.68705
 H325 H 0.98591 0.35813 0.68596
 H326 H 0.96288 0.38668 0.70487
 H327 H 0.94898 0.30857 0.72227
 H328 H 1.00061 0.31373 0.73667
 H329 H 1.02205 0.33688 0.76249
 H330 H 1.06436 0.36234 0.70960
 H331 H 1.04311 0.33919 0.68421
 H332 H 1.03039 0.27439 0.70158
 H333 H 1.05016 0.24963 0.67584
 H334 H 1.03188 0.29396 0.62342
 H335 H 1.01225 0.31800 0.64923
 H336 H 0.92625 0.33702 0.74158
 C337 C 0.30538 -0.00748 0.30902
 C338 C 0.30270 0.01462 0.31087
 C339 C 0.31511 0.03006 0.29615
 C340 C 0.28879 0.02444 0.32897
 C341 C 0.29114 -0.02260 0.32264
 C342 C 0.32292 -0.01759 0.29379
 C343 C 0.32951 0.04643 0.30499
 C344 C 0.34288 0.05995 0.29148
 C345 C 0.34188 0.05755 0.26876
 C346 C 0.32694 0.04156 0.25992
 C347 C 0.31348 0.02806 0.27348
 C348 C 0.29583 0.02103 0.35056
 C349 C 0.28363 0.03135 0.36754
 C350 C 0.26399 0.04496 0.36326
 C351 C 0.25685 0.04824 0.34161
 C352 C 0.26932 0.03819 0.32459
 C353 C 0.26621 -0.02119 0.32297
 C354 C 0.25299 -0.03508 0.33626
 C355 C 0.26439 -0.05087 0.34921
 C356 C 0.28939 -0.05245 0.34861
 C357 C 0.30260 -0.03851 0.33533
 C358 C 0.31588 -0.03459 0.27998
 C359 C 0.33212 -0.04421 0.26557
 C360 C 0.35589 -0.03693 0.26459
 C361 C 0.36283 -0.01997 0.27860
 C362 C 0.34670 -0.01074 0.29332
 H363 H 0.33113 0.04819 0.32243
 H364 H 0.35464 0.07160 0.29902
 H365 H 0.32591 0.03933 0.24249
 H366 H 0.30224 0.01571 0.26632
 H367 H 0.31108 0.01075 0.35419
 H368 H 0.28960 0.02879 0.38407
 H369 H 0.26388 0.04121 0.30798
 H370 H 0.25700 -0.00925 0.31302
 H371 H 0.23378 -0.03348 0.33645
 H372 H 0.29895 -0.06397 0.35871
 H373 H 0.32184 -0.03980 0.33531
 H374 H 0.29765 -0.04021 0.28015
 H375 H 0.32556 -0.05681 0.25491
 H376 H 0.38095 -0.01402 0.27843
 H377 H 0.35280 0.00186 0.30429
 H378 H 0.24217 0.05911 0.33775
 C379 C 0.69936 -0.00807 0.69101
 C380 C 0.69828 0.01418 0.69243
 C381 C 0.68479 0.02550 0.71000
 C382 C 0.70907 0.02812 0.67535
 C383 C 0.71618 -0.01901 0.67571
 C384 C 0.68361 -0.02240 0.70430
 C385 C 0.66783 0.04155 0.70468
 C386 C 0.65374 0.05114 0.72084
 C387 C 0.65656 0.04508 0.74275
 C388 C 0.67390 0.02936 0.74809
 C389 C 0.68806 0.01981 0.73191
 C390 C 0.70122 0.02656 0.65379
 C391 C 0.71077 0.04008 0.63775
 C392 C 0.72864 0.05510 0.64291
 C393 C 0.73641 0.05675 0.66455
 C394 C 0.72649 0.04350 0.68069
 C395 C 0.74049 -0.01382 0.67580
 C396 C 0.75628 -0.02437 0.66164
 C397 C 0.74820 -0.04061 0.64741
 C398 C 0.72381 -0.04576 0.64728
 C399 C 0.70801 -0.03512 0.66138
 C400 C 0.69293 -0.04107 0.71454
 C401 C 0.67822 -0.05466 0.72685
 C402 C 0.65391 -0.04968 0.72960
 C403 C 0.64449 -0.03119 0.71884
 C404 C 0.65911 -0.01799 0.70608
 H405 H 0.66486 0.04608 0.68790
 H406 H 0.64013 0.06269 0.71591
 H407 H 0.67638 0.02435 0.76482
 H408 H 0.70125 0.00763 0.73641
 H409 H 0.68750 0.01501 0.64946
 H410 H 0.70437 0.03867 0.62123
 H411 H 0.73251 0.04509 0.69731
 H412 H 0.74726 -0.00171 0.68698
 H413 H 0.77493 -0.02005 0.66200
 H414 H 0.71674 -0.05769 0.63611
 H415 H 0.68931 -0.03930 0.66099
 H416 H 0.71168 -0.04508 0.71312
 H417 H 0.68603 -0.06889 0.73461
 H418 H 0.62576 -0.02714 0.71947
 H419 H 0.65120 -0.00431 0.69749
 H420 H 0.74977 0.06855 0.66909
 C421 C 0.30996 1.01721 0.67543
 C422 C 0.30884 0.99502 0.67480
 C423 C 0.32213 0.98092 0.69035
 C424 C 0.29454 0.98358 0.65805
 C425 C 0.29852 1.03098 0.65864
 C426 C 0.32276 1.02904 0.69274
 C427 C 0.34666 0.98365 0.69372
 C428 C 0.35918 0.96946 0.70739
 C429 C 0.34750 0.95194 0.71752
 C430 C 0.32314 0.94894 0.71382
 C431 C 0.31053 0.96339 0.70050
 C432 C 0.30552 0.96808 0.64449
 C433 C 0.29228 0.95677 0.62903
 C434 C 0.26763 0.96052 0.62705
 C435 C 0.25673 0.97625 0.64048
 C436 C 0.27001 0.98756 0.65597
 C437 C 0.28079 1.04605 0.66465
 C438 C 0.26968 1.05899 0.64896
 C439 C 0.27633 1.05718 0.62699
 C440 C 0.29462 1.04259 0.62110
 C441 C 0.30556 1.02946 0.63680
 C442 C 0.31395 1.02952 0.71408
 C443 C 0.32542 1.04198 0.72995
 C444 C 0.34615 1.05356 0.72477
 C445 C 0.35498 1.05290 0.70341
 C446 C 0.34317 1.04098 0.68747
 H447 H 0.35629 0.99635 0.68529
 H448 H 0.37814 0.97171 0.70935
 H449 H 0.31387 0.93540 0.72128
 H450 H 0.29172 0.96074 0.69787
 H451 H 0.32445 0.96488 0.64578
 H452 H 0.30155 0.94535 0.61854
 H453 H 0.26113 0.99926 0.66649
 H454 H 0.27539 1.04760 0.68149
 H455 H 0.25615 1.07058 0.65410
 H456 H 0.30019 1.04113 0.60430
 H457 H 0.31952 1.01815 0.63197
 H458 H 0.29799 1.02063 0.71829
 H459 H 0.31825 1.04245 0.74629
 H460 H 0.37068 1.06204 0.69894
 H461 H 0.34998 1.04096 0.67098
 H462 H 0.23781 0.97954 0.63922
 C463 C 0.68782 1.00212 0.32319
 C464 C 0.68483 0.98014 0.32528
 C465 C 0.66921 0.96756 0.31046
 C466 C 0.69667 0.96769 0.34295
 C467 C 0.70490 1.01425 0.33699
 C468 C 0.67343 1.01526 0.30770
 C469 C 0.65203 0.95346 0.31910
 C470 C 0.63736 0.94139 0.30537
 C471 C 0.63948 0.94326 0.28274
 C472 C 0.65707 0.95702 0.27405
 C473 C 0.67186 0.96897 0.28781
 C474 C 0.69077 0.97168 0.36476
 C475 C 0.70174 0.95966 0.38132
 C476 C 0.71911 0.94383 0.37634
 C477 C 0.72488 0.93976 0.35446
 C478 C 0.71354 0.95146 0.33789
 C479 C 0.72895 1.00802 0.33803
 C480 C 0.74467 1.01921 0.35154
 C481 C 0.73685 1.03713 0.36411
 C482 C 0.71269 1.04356 0.36260
 C483 C 0.69702 1.03226 0.34916
 C484 C 0.68468 1.02675 0.29090
 C485 C 0.67129 1.03941 0.27642
 C486 C 0.64653 1.04136 0.27895
 C487 C 0.63528 1.02987 0.29584
 C488 C 0.64863 1.01684 0.31004
 H489 H 0.64982 0.95192 0.33652
 H490 H 0.62414 0.93072 0.31246
 H491 H 0.65983 0.95827 0.25671
 H492 H 0.68555 0.97915 0.28077
 H493 H 0.67756 0.98398 0.36891
 H494 H 0.69688 0.96291 0.39806
 H495 H 0.71809 0.94805 0.32111
 H496 H 0.73554 0.99444 0.32840
 H497 H 0.76307 1.01380 0.35210
 H498 H 0.70537 1.05702 0.37182
 H499 H 0.67853 1.03737 0.34854
 H500 H 0.70382 1.02574 0.28890
 H501 H 0.68031 1.04804 0.26346
 H502 H 0.61616 1.03072 0.29792
 H503 H 0.63968 1.00814 0.32300
 H504 H 0.73779 0.92727 0.35012
 O505 O 0.88780 0.84322 0.48529
 O506 O 0.85449 0.86687 0.53153
 O507 O 0.88885 0.83747 0.52685
 O508 O 0.85457 0.87228 0.48935
 O509 O 0.82720 0.84669 0.48661
 O510 O 0.86147 0.81184 0.52455
 O511 O 0.82757 0.84093 0.52847
 O512 O 0.86073 0.81736 0.48255
 Cu513 Cu 0.87408 0.85762 0.50877
 Cu514 Cu 0.84153 0.82662 0.50531
 C515 C 0.87983 0.82625 0.47604
 C516 C 0.83521 0.85801 0.53768
 C517 C 0.88123 0.81864 0.53181
 C518 C 0.83524 0.86534 0.48138
 O519 O 0.10695 0.16130 0.47646
 O520 O 0.13760 0.13189 0.52038
 O521 O 0.11075 0.16660 0.51849
 O522 O 0.13478 0.12732 0.47827
 O523 O 0.16639 0.14817 0.47407
 O524 O 0.14218 0.18754 0.51353
 O525 O 0.16920 0.15270 0.51582
 O526 O 0.13840 0.18232 0.47199
 Cu527 Cu 0.11933 0.14469 0.49888
 Cu528 Cu 0.15722 0.16977 0.49340
 C529 C 0.11740 0.17683 0.46680
 C530 C 0.15861 0.13720 0.52551
 C531 C 0.12242 0.18381 0.52275
 C532 C 0.15477 0.13108 0.46940
 O533 O 0.17718 0.85072 0.46969
 O534 O 0.14340 0.82667 0.51481
 O535 O 0.17752 0.85510 0.51178
 O536 O 0.14382 0.82151 0.47268
 O537 O 0.17073 0.79519 0.47590
 O538 O 0.20438 0.82868 0.51439
 O539 O 0.17026 0.80026 0.51753
 O540 O 0.20417 0.82443 0.47232
 Cu541 Cu 0.15777 0.84115 0.49194
 Cu542 Cu 0.19013 0.80954 0.49530
 C543 C 0.19643 0.84176 0.46335
 C544 C 0.15099 0.80931 0.52377
 C545 C 0.19674 0.84750 0.51972
 C546 C 0.15154 0.80252 0.46782
 O547 O 0.88524 0.15368 0.51757
 O548 O 0.84616 0.12599 0.47803
 O549 O 0.88067 0.15427 0.47537
 O550 O 0.85221 0.12447 0.52010
 O551 O 0.82509 0.15062 0.52328
 O552 O 0.85452 0.18118 0.47893
 O553 O 0.82001 0.15293 0.48136
 O554 O 0.85832 0.17993 0.52109
 Cu555 Cu 0.86872 0.13694 0.49734
 Cu556 Cu 0.83683 0.16884 0.50146
 C557 C 0.87821 0.17147 0.52621
 C558 C 0.82637 0.13486 0.47303
 C559 C 0.87265 0.17281 0.46961
 C560 C 0.83389 0.13241 0.52934
 O561 O 0.47139 0.87470 0.83814
 O562 O 0.51806 0.84070 0.86306
 O563 O 0.51727 0.87601 0.83917
 O564 O 0.47177 0.83898 0.86144
 O565 O 0.47418 0.81877 0.83178
 O566 O 0.51956 0.85569 0.80955
 O567 O 0.52049 0.82070 0.83325
 O568 O 0.47326 0.85445 0.80846
 Cu569 Cu 0.49439 0.85955 0.85350
 Cu570 Cu 0.49701 0.83535 0.81778
 C571 C 0.46456 0.87051 0.81899
 C572 C 0.52732 0.82502 0.85240
 C573 C 0.52608 0.87216 0.82053
 C574 C 0.46531 0.82252 0.85039
 O575 O 0.52752 0.17726 0.15820
 O576 O 0.47969 0.15013 0.18890
 O577 O 0.48129 0.17908 0.15832
 O578 O 0.52612 0.14744 0.18913
 O579 O 0.52642 0.17317 0.21429
 O580 O 0.48325 0.20554 0.18266
 O581 O 0.48048 0.17664 0.21327
 O582 O 0.52960 0.20269 0.18359
 Cu583 Cu 0.50373 0.16081 0.17115
 Cu584 Cu 0.50521 0.19215 0.20089
 C585 C 0.53654 0.19471 0.16561
 C586 C 0.47171 0.15899 0.20615
 C587 C 0.47458 0.19767 0.16534
 C588 C 0.53346 0.15473 0.20723
 O589 O 0.47200 0.14650 0.87764
 O590 O 0.52024 0.12178 0.84406
 O591 O 0.51822 0.14778 0.87737
 O592 O 0.47420 0.11760 0.84574
 O593 O 0.47042 0.14540 0.82308
 O594 O 0.51607 0.17530 0.85419
 O595 O 0.51651 0.14920 0.82093
 O596 O 0.47020 0.17415 0.85459
 Cu597 Cu 0.49625 0.13059 0.86348
 Cu598 Cu 0.49291 0.16371 0.83585
 C599 C 0.46350 0.16500 0.87197
 C600 C 0.52653 0.13155 0.82673
 C601 C 0.52476 0.16657 0.87120
 C602 C 0.46500 0.12613 0.82898
 O603 O 0.51911 0.89098 0.14685
 O604 O 0.47525 0.86081 0.11444
 O605 O 0.47329 0.88622 0.14844
 O606 O 0.52157 0.86519 0.11323
 O607 O 0.52654 0.83732 0.13560
 O608 O 0.47643 0.85675 0.16901
 O609 O 0.48080 0.83166 0.13505
 O610 O 0.52232 0.86285 0.16917
 Cu611 Cu 0.49686 0.87865 0.12852
 Cu612 Cu 0.50195 0.84427 0.15438
 C613 C 0.52795 0.88217 0.16367
 C614 C 0.47075 0.84105 0.11907
 C615 C 0.46657 0.87493 0.16464
 C616 C 0.53250 0.84778 0.11865
 O617 O 0.83349 0.49093 0.87197
 O618 O 0.86308 0.52555 0.83122
 O619 O 0.83171 0.53216 0.86194
 O620 O 0.86460 0.48415 0.84114
 O621 O 0.83636 0.47890 0.81684
 O622 O 0.80210 0.52503 0.83954
 O623 O 0.83308 0.52054 0.80867
 O624 O 0.80528 0.48348 0.84824
 Cu625 Cu 0.85116 0.50884 0.85389
 Cu626 Cu 0.81629 0.50126 0.82600
 C627 C 0.81442 0.48119 0.86697
 C628 C 0.85294 0.52917 0.81314
 C629 C 0.81119 0.53661 0.85443
 C630 C 0.85624 0.47361 0.82516
 O631 O 0.14039 0.51964 0.17105
 O632 O 0.16990 0.47705 0.13742
 O633 O 0.14261 0.47701 0.17181
 O634 O 0.16592 0.51960 0.13569
 O635 O 0.19812 0.52221 0.15600
 O636 O 0.17487 0.47904 0.19209
 O637 O 0.20214 0.47999 0.15763
 O638 O 0.17266 0.52148 0.19138
 Cu639 Cu 0.15147 0.49805 0.15195
 Cu640 Cu 0.19016 0.50088 0.17631
 C641 C 0.15166 0.52773 0.18701
 C642 C 0.19121 0.47148 0.14181
 C643 C 0.15464 0.47080 0.18813
 C644 C 0.18591 0.52818 0.13965
 O645 O 0.85060 0.48404 0.16863
 O646 O 0.81989 0.52337 0.13268
 O647 O 0.85355 0.52592 0.16121
 O648 O 0.81765 0.48120 0.13897
 O649 O 0.79061 0.48662 0.16455
 O650 O 0.82642 0.53162 0.18669
 O651 O 0.79244 0.52852 0.15798
 O652 O 0.82358 0.49025 0.19409
 Cu653 Cu 0.83814 0.50299 0.14780
 Cu654 Cu 0.80548 0.50981 0.17834
 C655 C 0.84241 0.48073 0.18761
 C656 C 0.80089 0.53262 0.13932
 C657 C 0.84617 0.53629 0.17778
 C658 C 0.79800 0.47633 0.14791
 O659 O 0.14738 0.46742 0.83390
 O660 O 0.18041 0.50768 0.86707
 O661 O 0.14634 0.50985 0.83831
 O662 O 0.17970 0.46498 0.86407
 O663 O 0.20718 0.46683 0.83845
 O664 O 0.17376 0.51216 0.81266
 O665 O 0.20795 0.50920 0.84145
 O666 O 0.17504 0.46991 0.80845
 Cu667 Cu 0.16072 0.48732 0.85343
 Cu668 Cu 0.19373 0.48983 0.82272
 C669 C 0.15578 0.46185 0.81547
 C670 C 0.19998 0.51511 0.85982
 C671 C 0.15418 0.51853 0.82104
 C672 C 0.19899 0.45812 0.85562
 C673 C 0.23765 0.35919 0.05967
 C674 C 0.24661 0.37948 0.06578
 C675 C 0.23230 0.39571 0.07778
 N676 N 0.24329 0.41261 0.08774
 N677 N 0.23077 0.42727 0.09906
 C678 C 0.20674 0.42569 0.10073
 N679 N 0.19567 0.40894 0.09052
 N680 N 0.20823 0.39416 0.07932
 C681 C 0.19290 0.44170 0.11354
 C682 C 0.20402 0.45528 0.12851
 H683 H 0.26521 0.38309 0.06305
 H684 H 0.17373 0.44223 0.11179
 H685 H 0.21968 0.35493 0.06437
 H686 H 0.22300 0.45359 0.13114
 C687 C 0.75945 0.64005 0.04982
 C688 C 0.74880 0.62140 0.05835
 C689 C 0.76211 0.60500 0.07089
 N690 N 0.75011 0.59053 0.08340
 N691 N 0.76180 0.57568 0.09513
 C692 C 0.78594 0.57462 0.09462
 N693 N 0.79796 0.58891 0.08187
 N694 N 0.78626 0.60390 0.07027
 C695 C 0.79893 0.55847 0.10778
 C696 C 0.78816 0.54823 0.12542
 H697 H 0.72973 0.61937 0.05703
 H698 H 0.81756 0.55541 0.10425
 H699 H 0.77803 0.64318 0.05319
 H700 H 0.77008 0.55262 0.12990
 C701 C 0.72858 0.37973 0.93368
 C702 C 0.73790 0.39992 0.93959
 C703 C 0.74991 0.41390 0.92356
 N704 N 0.76404 0.43049 0.93022
 N705 N 0.77512 0.44308 0.91576
 C706 C 0.77231 0.43962 0.89411
 N707 N 0.75798 0.42320 0.88747
 N708 N 0.74706 0.41052 0.90191
 C709 C 0.78421 0.45341 0.87789
 C710 C 0.80283 0.46729 0.88327
 H711 H 0.73736 0.40517 0.95638
 H712 H 0.77857 0.45211 0.86113
 H713 H 0.73143 0.37387 0.91726
 H714 H 0.80939 0.46771 0.89979
 C715 C 0.25555 0.62073 0.94495
 C716 C 0.26409 0.60135 0.93576
 C717 C 0.24856 0.58593 0.92428
 N718 N 0.25838 0.57043 0.91123
 N719 N 0.24468 0.55645 0.90049
 C720 C 0.22062 0.55730 0.90253
 N721 N 0.21077 0.57263 0.91581
 N722 N 0.22448 0.58675 0.92643
 C723 C 0.20541 0.54200 0.89045
 C724 C 0.21424 0.53048 0.87261
 H725 H 0.28301 0.59791 0.93579
 H726 H 0.18689 0.54045 0.89508
 H727 H 0.23696 0.62507 0.94292
 H728 H 0.23232 0.53334 0.86721
 C729 C 0.05664 0.27735 0.37906
 C730 C 0.06120 0.25499 0.37761
 C731 C 0.07445 0.24319 0.39449
 N732 N 0.07259 0.22115 0.39607
 N733 N 0.08441 0.21024 0.41140
 C734 C 0.09869 0.22097 0.42554
 N735 N 0.10080 0.24297 0.42377
 N736 N 0.08880 0.25391 0.40858
 C737 C 0.11174 0.20914 0.44254
 C738 C 0.10486 0.18844 0.44938
 H739 H 0.05378 0.24563 0.36435
 H740 H 0.12627 0.21735 0.45061
 H741 H 0.06177 0.28614 0.39358
 H742 H 0.08914 0.18098 0.44254
 C743 C 0.07914 0.71436 0.61028
 C744 C 0.08256 0.73690 0.61064
 C745 C 0.09798 0.74770 0.59464
 N746 N 0.09685 0.76971 0.59201
 N747 N 0.11060 0.77958 0.57738
 C748 C 0.12612 0.76781 0.56500
 N749 N 0.12744 0.74585 0.56783
 N750 N 0.11358 0.73597 0.58234
 C751 C 0.14118 0.77831 0.54856
 C752 C 0.13699 0.79960 0.54143
 H753 H 0.07307 0.74699 0.62229
 H754 H 0.15511 0.76859 0.54101
 H755 H 0.08697 0.70487 0.59718
 H756 H 0.12223 0.80895 0.54808
 C757 C 0.93100 0.73668 0.37142
 C758 C 0.93711 0.75736 0.37909
 C759 C 0.92334 0.76821 0.39642
 N760 N 0.93108 0.78727 0.40510
 N761 N 0.91903 0.79694 0.42117
 C762 C 0.89878 0.78789 0.42911
 N763 N 0.89097 0.76893 0.42034
 N764 N 0.90303 0.75926 0.40431
 C765 C 0.88542 0.79801 0.44708
 C766 C 0.89308 0.81684 0.45762
 H767 H 0.95293 0.76539 0.37315
 H768 H 0.86924 0.79009 0.45242
 H769 H 0.91592 0.72846 0.37867
 H770 H 0.90930 0.82477 0.45243
 C771 C 0.93011 0.26454 0.62698
 C772 C 0.93690 0.24394 0.61927
 C773 C 0.92372 0.23297 0.60179
 N774 N 0.93172 0.21365 0.59360
 N775 N 0.91991 0.20364 0.57773
 C776 C 0.89966 0.21262 0.56951
 N777 N 0.89167 0.23189 0.57773
 N778 N 0.90348 0.24190 0.59355
 C779 C 0.88605 0.20184 0.55226
 C780 C 0.89317 0.18223 0.54256
 H781 H 0.95266 0.23591 0.62556
 H782 H 0.86959 0.20960 0.54721
 H783 H 0.91519 0.27284 0.61940
 H784 H 0.90973 0.17444 0.54730
 C785 C 0.35732 0.07036 0.25403
 C786 C 0.36782 0.09005 0.26005
 C787 C 0.38600 0.10079 0.24666
 N788 N 0.39606 0.11955 0.25377
 N789 N 0.41334 0.12903 0.24241
 C790 C 0.42126 0.12005 0.22352
 N791 N 0.41111 0.10134 0.21634
 N792 N 0.39382 0.09185 0.22771
 C793 C 0.44073 0.13008 0.21110
 C794 C 0.45208 0.14894 0.21825
 H795 H 0.36315 0.09773 0.27531
 H796 H 0.44638 0.12233 0.19611
 H797 H 0.36083 0.06381 0.23797
 H798 H 0.44635 0.15673 0.23320
 C799 C 0.64092 0.05396 0.76010
 C800 C 0.62875 0.07381 0.75812
 C801 C 0.61112 0.08155 0.77410
 N802 N 0.59972 0.10082 0.77062
 N803 N 0.58304 0.10789 0.78435
 C804 C 0.57705 0.09595 0.80212
 N805 N 0.58854 0.07668 0.80571
 N806 N 0.60526 0.06958 0.79192
 C807 C 0.55822 0.10364 0.81706
 C808 C 0.54560 0.12285 0.81278
 H809 H 0.63189 0.08416 0.74418
 H810 H 0.55409 0.09404 0.83135
 H811 H 0.63898 0.04457 0.77492
 H812 H 0.54982 0.13221 0.79835
 C813 C 0.36061 0.93593 0.73092
 C814 C 0.37987 0.94179 0.74380
 C815 C 0.39370 0.92553 0.75607
 N816 N 0.40833 0.93212 0.77223
 N817 N 0.42149 0.91762 0.78310
 C818 C 0.42064 0.89601 0.77806
 N819 N 0.40612 0.88944 0.76179
 N820 N 0.39280 0.90392 0.75105
 C821 C 0.43589 0.88005 0.78931
 C822 C 0.44692 0.88506 0.80888
 H823 H 0.38465 0.95884 0.74535
 H824 H 0.43862 0.86413 0.78196
 H825 H 0.35432 0.91922 0.73131
 H826 H 0.44287 0.90041 0.81692
 C827 C 0.62354 0.93021 0.26880
 C828 C 0.61769 0.93609 0.24756
 C829 C 0.60125 0.92312 0.23428
 N830 N 0.59425 0.93066 0.21457
 N831 N 0.57926 0.91919 0.20240
 C832 C 0.57077 0.89970 0.20947
 N833 N 0.57786 0.89210 0.22913
 N834 N 0.59280 0.90360 0.24133
 C835 C 0.55411 0.88688 0.19627
 C836 C 0.54488 0.89474 0.17676
 H837 H 0.62455 0.95102 0.24061
 H838 H 0.54872 0.87101 0.20225
 H839 H 0.61508 0.91607 0.27597
 H840 H 0.54990 0.91079 0.17098
 C841 C 0.35762 0.22579 0.95906
 C842 C 0.38226 0.22755 0.95608
 C843 C 0.39600 0.21161 0.94318
 N844 N 0.41628 0.21813 0.93324
 N845 N 0.42870 0.20433 0.92086
 C846 C 0.42151 0.18336 0.91815
 N847 N 0.40147 0.17663 0.92848
 N848 N 0.38883 0.19056 0.94068
 C849 C 0.43506 0.16855 0.90380
 C850 C 0.44670 0.17714 0.88579
 H851 H 0.39177 0.24198 0.96098
 H852 H 0.43554 0.15116 0.90709
 H853 H 0.34916 0.21168 0.95179
 H854 H 0.44388 0.19423 0.88180
 C855 C 0.62623 0.75879 0.94461
 C856 C 0.62602 0.76377 0.92251
 C857 C 0.60666 0.77656 0.91262
 N858 N 0.60457 0.77742 0.89068
 N859 N 0.58711 0.78897 0.88150
 C860 C 0.57118 0.80019 0.89394
 N861 N 0.57338 0.79947 0.91586
 N862 N 0.59075 0.78781 0.92504
 C863 C 0.55198 0.81322 0.88409
 C864 C 0.54630 0.81165 0.86214
 H865 H 0.63988 0.75740 0.91197
 H866 H 0.54173 0.82402 0.89454
 H867 H 0.61110 0.76346 0.95458
 H868 H 0.55572 0.80008 0.85187
 C869 C 0.38757 0.73995 0.04861
 C870 C 0.38255 0.75944 0.05966
 C871 C 0.40118 0.77172 0.07101
 N872 N 0.39769 0.79316 0.07581
 N873 N 0.41416 0.80434 0.08657
 C874 C 0.43461 0.79442 0.09313
 N875 N 0.43801 0.77293 0.08849
 N876 N 0.42165 0.76180 0.07754
 C877 C 0.45257 0.80637 0.10565
 C878 C 0.45342 0.82913 0.10583
 H879 H 0.36495 0.76666 0.05929
 H880 H 0.46579 0.79702 0.11452
 H881 H 0.40612 0.73517 0.04699
 H882 H 0.44150 0.83848 0.09554
 C883 C 0.61520 0.26173 0.05986
 C884 C 0.62000 0.25587 0.08132
 C885 C 0.60395 0.24193 0.09406
 N886 N 0.60623 0.24093 0.11597
 N887 N 0.59169 0.22856 0.12779
 C888 C 0.57446 0.21658 0.11810
 N889 N 0.57236 0.21737 0.09615
 N890 N 0.58679 0.22987 0.08435
 C891 C 0.55793 0.20321 0.13096
 C892 C 0.55500 0.20625 0.15325
 H893 H 0.63533 0.26261 0.08949
 H894 H 0.54661 0.19181 0.12244
 H895 H 0.59858 0.25673 0.05257
 H896 H 0.56510 0.21875 0.16151
 C897 C 0.26474 0.07057 0.61006
 C898 C 0.24091 0.07689 0.61148
 C899 C 0.22920 0.08988 0.59451
 N900 N 0.20515 0.09188 0.59449
 N901 N 0.19420 0.10354 0.57918
 C902 C 0.20691 0.11375 0.56343
 N903 N 0.23099 0.11193 0.56357
 N904 N 0.24195 0.10015 0.57881
 C905 C 0.19500 0.12652 0.54639
 C906 C 0.17058 0.12508 0.54293
 H907 H 0.23011 0.07134 0.62496
 H908 H 0.20579 0.13659 0.53581
 H909 H 0.27476 0.07432 0.59548
 H910 H 0.16002 0.11405 0.55270
 C911 C 0.75340 0.04761 0.37771
 C912 C 0.74848 0.06609 0.39041
 C913 C 0.76624 0.07600 0.40484
 N914 N 0.76057 0.09457 0.41577
 N915 N 0.77618 0.10378 0.42911
 C916 C 0.79809 0.09475 0.43208
 N917 N 0.80379 0.07614 0.42117
 N918 N 0.78816 0.06693 0.40778
 C919 C 0.81532 0.10481 0.44699
 C920 C 0.81015 0.12443 0.45757
 H921 H 0.73131 0.07406 0.38998
 H922 H 0.83223 0.09665 0.44971
 H923 H 0.77133 0.04096 0.37834
 H924 H 0.79333 0.13262 0.45452
 C925 C 0.76553 0.94855 0.63270
 C926 C 0.76191 0.92785 0.62382
 C927 C 0.77908 0.91741 0.60894
 N928 N 0.77456 0.89717 0.60106
 N929 N 0.78958 0.88758 0.58720
 C930 C 0.80973 0.89786 0.58071
 N931 N 0.81432 0.91809 0.58866
 N932 N 0.79928 0.92770 0.60253
 C933 C 0.82598 0.88769 0.56478
 C934 C 0.82096 0.86751 0.55540
 H935 H 0.74617 0.91870 0.62802
 H936 H 0.84160 0.89664 0.55968
 H937 H 0.78215 0.95682 0.62945
 H938 H 0.80518 0.85875 0.56039
 C939 C 0.24967 0.93543 0.36373
 C940 C 0.25762 0.91600 0.37326
 C941 C 0.24287 0.90384 0.38883
 N942 N 0.25132 0.88511 0.39789
 N943 N 0.23842 0.87429 0.41250
 C944 C 0.21660 0.88183 0.41858
 N945 N 0.20813 0.90050 0.40946
 N946 N 0.22102 0.91130 0.39486
 C947 C 0.20238 0.87060 0.43518
 C948 C 0.21020 0.85166 0.44561
 H949 H 0.27503 0.90941 0.36941
 H950 H 0.18544 0.87788 0.43970
 H951 H 0.23159 0.94087 0.36691
 H952 H 0.22702 0.84418 0.44105
 C953 C 0.05716 0.36555 0.75425
 C954 C 0.07927 0.37512 0.75048
 C955 C 0.09031 0.39052 0.76573
 N956 N 0.11159 0.39947 0.76058
 N957 N 0.12178 0.41380 0.77383
 C958 C 0.11110 0.41977 0.79276
 N959 N 0.08982 0.41076 0.79798
 N960 N 0.07958 0.39641 0.78469
 C961 C 0.12230 0.43580 0.80735
 C962 C 0.14361 0.44587 0.80168
 H963 H 0.08911 0.37132 0.73583
 H964 H 0.11366 0.43979 0.82260
 H965 H 0.04835 0.36846 0.76967
 H966 H 0.15199 0.44187 0.78630
 C967 C 0.05990 0.63050 0.24927
 C968 C 0.07953 0.61722 0.25426
 C969 C 0.08963 0.60121 0.23887
 N970 N 0.10989 0.59031 0.24418
 N971 N 0.11919 0.57545 0.23077
 C972 C 0.10855 0.57082 0.21155
 N973 N 0.08821 0.58167 0.20624
 N974 N 0.07892 0.59661 0.21965
 C975 C 0.11874 0.55424 0.19676
 C976 C 0.14071 0.54445 0.20104
 H977 H 0.08840 0.61842 0.26974
 H978 H 0.10898 0.54986 0.18228
 H979 H 0.05288 0.62951 0.23291
 H980 H 0.15066 0.54942 0.21523
 C981 C 0.92738 0.37883 0.25540
 C982 C 0.92278 0.40115 0.25813
 C983 C 0.90968 0.41398 0.24187
 N984 N 0.89874 0.43287 0.24784
 N985 N 0.88678 0.44475 0.23335
 C986 C 0.88553 0.43829 0.21228
 N987 N 0.89676 0.41954 0.20621
 N988 N 0.90853 0.40752 0.22077
 C989 C 0.87247 0.45147 0.19625
 C990 C 0.85493 0.46625 0.20281
 H991 H 0.92715 0.40938 0.27311
 H992 H 0.87624 0.44914 0.17914
 H993 H 0.91979 0.37093 0.24127
 H994 H 0.84992 0.46714 0.21980
 C995 C 0.95112 0.60399 0.72794
 C996 C 0.92954 0.60808 0.73862
 C997 C 0.91887 0.59208 0.75345
 N998 N 0.89520 0.59303 0.75778
 N999 N 0.88533 0.57894 0.77155
 C1000 C 0.89882 0.56356 0.78171
 N1001 N 0.92254 0.56275 0.77757
 N1002 N 0.93238 0.57669 0.76360
 C1003 C 0.88817 0.54832 0.79734
 C1004 C 0.86393 0.54377 0.79714
 H1005 H 0.91929 0.62271 0.73528
 H1006 H 0.89973 0.54000 0.80878
 H1007 H 0.95880 0.58774 0.72946
 H1008 H 0.85278 0.55054 0.78445
 C1009 C 0.75825 0.64924 0.93371
 C1010 C 0.75041 0.63666 0.91625
 C1011 C 0.76535 0.61952 0.90629
 N1012 N 0.75663 0.60741 0.88970
 N1013 N 0.76959 0.59133 0.88097
 C1014 C 0.79176 0.58675 0.88852
 N1015 N 0.80053 0.59892 0.90505
 N1016 N 0.78756 0.61500 0.91379
 C1017 C 0.80604 0.56869 0.87941
 C1018 C 0.79745 0.55527 0.86295
 H1019 H 0.73278 0.63909 0.90968
 H1020 H 0.82356 0.56565 0.88612
 H1021 H 0.77652 0.64736 0.93903
 H1022 H 0.77994 0.55830 0.85623
 C1023 C 0.24369 0.34859 0.94331
 C1024 C 0.25248 0.35916 0.92485
 C1025 C 0.23931 0.37694 0.91397
 N1026 N 0.24876 0.38676 0.89619
 N1027 N 0.23739 0.40326 0.88648
 C1028 C 0.21613 0.41058 0.89424
 N1029 N 0.20665 0.40074 0.91199
 N1030 N 0.21802 0.38425 0.92169
 C1031 C 0.20337 0.42894 0.88394
 C1032 C 0.21210 0.43983 0.86569
 H1033 H 0.26954 0.35455 0.91806
 H1034 H 0.18655 0.43403 0.89101
 H1035 H 0.22590 0.35266 0.94890
 H1036 H 0.22883 0.43472 0.85845
 C1037 C 0.27593 0.62255 0.06613
 C1038 C 0.25181 0.61716 0.06744
 C1039 C 0.24298 0.60084 0.08303
 N1040 N 0.21998 0.59434 0.08214
 N1041 N 0.21175 0.57947 0.09601
 C1042 C 0.22620 0.57060 0.11137
 N1043 N 0.24917 0.57720 0.11236
 N1044 N 0.25742 0.59201 0.09844
 C1045 C 0.21741 0.55402 0.12668
 C1046 C 0.19471 0.54520 0.12489
 H1047 H 0.23886 0.62431 0.05659
 H1048 H 0.22928 0.54828 0.13933
 H1049 H 0.28803 0.61394 0.07689
 H1050 H 0.18308 0.55056 0.11191
 C1051 C 0.73656 0.37370 0.06154
 C1052 C 0.72956 0.38640 0.07941
 C1053 C 0.74585 0.40149 0.09043
 N1054 N 0.73820 0.41276 0.10813
 N1055 N 0.75238 0.42701 0.11796
 C1056 C 0.77476 0.43053 0.11044
 N1057 N 0.78246 0.41922 0.09277
 N1058 N 0.76828 0.40494 0.08294
 C1059 C 0.79033 0.44678 0.12066
 C1060 C 0.78327 0.45881 0.13884
 H1061 H 0.71175 0.38560 0.08593
 H1062 H 0.80756 0.44970 0.11333
 H1063 H 0.75511 0.37430 0.05670
 H1064 H 0.76617 0.45572 0.14637
 C1065 C 0.94752 0.72635 0.62476
 C1066 C 0.94547 0.72682 0.60214
 C1067 C 0.93039 0.74313 0.59114
 N1068 N 0.93720 0.75147 0.57169
 N1069 N 0.92350 0.76598 0.56139
 C1070 C 0.90229 0.77241 0.56999
 N1071 N 0.89531 0.76383 0.58930
 N1072 N 0.90921 0.74958 0.59979
 C1073 C 0.88672 0.78779 0.55826
 C1074 C 0.89614 0.80438 0.54544
 H1075 H 0.95660 0.71646 0.59207
 H1076 H 0.86762 0.78646 0.56021
 H1077 H 0.93909 0.73955 0.63379
 H1078 H 0.91516 0.80720 0.54559
 C1079 C 0.92610 0.27168 0.37437
 C1080 C 0.92971 0.24954 0.37925
 C1081 C 0.91606 0.23822 0.39631
 N1082 N 0.92146 0.21716 0.40130
 N1083 N 0.90956 0.20669 0.41682
 C1084 C 0.89174 0.21685 0.42795
 N1085 N 0.88625 0.23790 0.42291
 N1086 N 0.89820 0.24840 0.40740
 C1087 C 0.87864 0.20547 0.44533
 C1088 C 0.88488 0.18439 0.45192
 H1089 H 0.94321 0.23999 0.37103
 H1090 H 0.86411 0.21401 0.45334
 H1091 H 0.91263 0.28038 0.38368
 H1092 H 0.89966 0.17606 0.44409
 C1093 C 0.05394 0.25465 0.63313
 C1094 C 0.05940 0.25905 0.61138
 C1095 C 0.06923 0.24222 0.59676
 N1096 N 0.08045 0.24830 0.57820
 N1097 N 0.08906 0.23330 0.56454
 C1098 C 0.08653 0.21165 0.56880
 N1099 N 0.07508 0.20556 0.58725
 N1100 N 0.06666 0.22057 0.60103
 C1101 C 0.09571 0.19501 0.55362
 C1102 C 0.11309 0.20000 0.53826
 H1103 H 0.05769 0.27538 0.60486
 H1104 H 0.08933 0.17840 0.55505
 H1105 H 0.05900 0.23875 0.63946
 H1106 H 0.12082 0.21618 0.53809
 C1107 C 0.06218 0.74260 0.36495
 C1108 C 0.06823 0.73795 0.38650
 C1109 C 0.08181 0.75328 0.39997
 N1110 N 0.09345 0.74576 0.41777
 N1111 N 0.10580 0.75934 0.43024
 C1112 C 0.10678 0.78101 0.42553
 N1113 N 0.09488 0.78860 0.40788
 N1114 N 0.08271 0.77496 0.39525
 C1115 C 0.12030 0.79606 0.43939
 C1116 C 0.13814 0.78832 0.45310
 H1117 H 0.06461 0.72213 0.39352
 H1118 H 0.11670 0.81345 0.43831
 H1119 H 0.06889 0.75765 0.35801
 H1120 H 0.14291 0.77112 0.45276
 C1121 C 0.63985 0.93639 0.74242
 C1122 C 0.61709 0.94171 0.75011
 C1123 C 0.60255 0.92597 0.76225
 N1124 N 0.58430 0.93320 0.77490
 N1125 N 0.57047 0.91910 0.78543
 C1126 C 0.57424 0.89723 0.78351
 N1127 N 0.59238 0.88998 0.77074
 N1128 N 0.60637 0.90409 0.76039
 C1129 C 0.55835 0.88148 0.79411
 C1130 C 0.54362 0.88736 0.81143
 H1131 H 0.60995 0.95807 0.74832
 H1132 H 0.55833 0.86480 0.78819
 H1133 H 0.64747 0.92086 0.74746
 H1134 H 0.54502 0.90349 0.81857
 C1135 C 0.37283 0.95439 0.25002
 C1136 C 0.36986 0.93529 0.23785
 C1137 C 0.38827 0.92750 0.22263
 N1138 N 0.38889 0.90617 0.21659
 N1139 N 0.40556 0.89886 0.20293
 C1140 C 0.42207 0.91267 0.19461
 N1141 N 0.42124 0.93407 0.20040
 N1142 N 0.40470 0.94134 0.21424
 C1143 C 0.44067 0.90478 0.17966
 C1144 C 0.44715 0.88278 0.17868
 H1145 H 0.35466 0.92487 0.24034
 H1146 H 0.45043 0.91668 0.17020
 H1147 H 0.38982 0.96260 0.24870
 H1148 H 0.43875 0.87116 0.18948
 C1149 C 0.63287 0.05522 0.26366
 C1150 C 0.61315 0.06755 0.27024
 C1151 C 0.59996 0.08197 0.25529
 N1152 N 0.58514 0.09757 0.26342
 N1153 N 0.57286 0.11064 0.25018
 C1154 C 0.57479 0.10851 0.22828
 N1155 N 0.58946 0.09277 0.22013
 N1156 N 0.60192 0.07981 0.23338
 C1157 C 0.56067 0.12246 0.21356
 C1158 C 0.54971 0.14165 0.22080
 H1159 H 0.60789 0.06753 0.28717
 H1160 H 0.55889 0.11753 0.19674
 H1161 H 0.63959 0.05708 0.24725
 H1162 H 0.55279 0.14719 0.23727
 C1163 C 0.35801 0.06684 0.74149
 C1164 C 0.38270 0.06717 0.74323
 C1165 C 0.39503 0.08111 0.75893
 N1166 N 0.41683 0.07510 0.76628
 N1167 N 0.42864 0.08786 0.77998
 C1168 C 0.41926 0.10729 0.78657
 N1169 N 0.39756 0.11346 0.77901
 N1170 N 0.38557 0.10052 0.76553
 C1171 C 0.43271 0.12162 0.80116
 C1172 C 0.44880 0.11280 0.81595
 H1173 H 0.39334 0.05619 0.73331
 H1174 H 0.42975 0.13913 0.80049
 H1175 H 0.34718 0.07560 0.75324
 H1176 H 0.44971 0.09522 0.81802
 C1177 C 0.64774 0.76247 0.06506
 C1178 C 0.63680 0.78205 0.05884
 C1179 C 0.61901 0.79293 0.07283
 N1180 N 0.60706 0.81089 0.06563
 N1181 N 0.59020 0.82025 0.07785
 C1182 C 0.58470 0.81197 0.09770
 N1183 N 0.59676 0.79413 0.10493
 N1184 N 0.61358 0.78479 0.09274
 C1185 C 0.56566 0.82143 0.11123
 C1186 C 0.55220 0.83961 0.10503
 H1187 H 0.64002 0.78885 0.04289
 H1188 H 0.56187 0.81346 0.12656
 H1189 H 0.64322 0.75551 0.08071
 H1190 H 0.55608 0.84795 0.08992
 C1191 C 0.35961 0.24168 0.07454
 C1192 C 0.37248 0.25005 0.09201
 C1193 C 0.39089 0.23726 0.10342
 N1194 N 0.40246 0.24623 0.12052
 N1195 N 0.41951 0.23511 0.13082
 C1196 C 0.42567 0.21460 0.12435
 N1197 N 0.41410 0.20562 0.10725
 N1198 N 0.39704 0.21674 0.09696
 C1199 C 0.44449 0.20212 0.13556
 C1200 C 0.45642 0.21039 0.15358
 H1201 H 0.36910 0.26649 0.09774
 H1202 H 0.44881 0.18589 0.12963
 H1203 H 0.36213 0.22468 0.07011
 H1204 H 0.45190 0.22651 0.15969
 C1205 C 0.61650 0.26713 0.93311
 C1206 C 0.61164 0.24496 0.93581
 C1207 C 0.59581 0.23314 0.92095
 N1208 N 0.59045 0.21193 0.92494
 N1209 N 0.57584 0.20111 0.91185
 C1210 C 0.56606 0.21107 0.89425
 N1211 N 0.57152 0.23225 0.89018
 N1212 N 0.58612 0.24308 0.90329
 C1213 C 0.54946 0.19943 0.87997
 C1214 C 0.54245 0.17809 0.88434
 H1215 H 0.61881 0.23603 0.94948
 H1216 H 0.54212 0.20804 0.86611
 H1217 H 0.60799 0.27579 0.91985
 H1218 H 0.54964 0.16962 0.89834
 C1219 C 0.36447 0.75035 0.93660
 C1220 C 0.37563 0.74727 0.91653
 C1221 C 0.39090 0.76407 0.90667
 N1222 N 0.40086 0.76048 0.88688
 N1223 N 0.41533 0.77518 0.87802
 C1224 C 0.42042 0.79403 0.88866
 N1225 N 0.41041 0.79765 0.90844
 N1226 N 0.39593 0.78295 0.91728
 C1227 C 0.43693 0.81015 0.87940
 C1228 C 0.44757 0.80725 0.85911
 H1229 H 0.37332 0.73219 0.90765
 H1230 H 0.44116 0.82444 0.88901
 H1231 H 0.36575 0.76618 0.94439
 H1232 H 0.44316 0.79308 0.84940
 C1233 C 0.73047 0.93133 0.39411
 C1234 C 0.75431 0.92489 0.39329
 C1235 C 0.76571 0.91238 0.41089
 N1236 N 0.78978 0.91175 0.41235
 N1237 N 0.80043 0.90024 0.42797
 C1238 C 0.78740 0.88874 0.44258
 N1239 N 0.76331 0.88919 0.44100
 N1240 N 0.75264 0.90088 0.42550
 C1241 C 0.79908 0.87552 0.45954
 C1242 C 0.82262 0.87913 0.46553
 H1243 H 0.76531 0.92998 0.37976
 H1244 H 0.78885 0.86302 0.46772
 H1245 H 0.72026 0.92834 0.40875
 H1246 H 0.83217 0.89274 0.45851
 C1247 C 0.25292 0.94856 0.61109
 C1248 C 0.25941 0.92815 0.60271
 C1249 C 0.24469 0.91617 0.58705
 N1250 N 0.25188 0.89613 0.58015
 N1251 N 0.23892 0.88494 0.56597
 C1252 C 0.21824 0.89337 0.55812
 N1253 N 0.21102 0.91344 0.56499
 N1254 N 0.22401 0.92466 0.57921
 C1255 C 0.20380 0.88105 0.54243
 C1256 C 0.21068 0.86030 0.53529
 H1257 H 0.27557 0.92018 0.60815
 H1258 H 0.18749 0.88841 0.53646
 H1259 H 0.23589 0.95559 0.60657
 H1260 H 0.22697 0.85300 0.54136
 C1261 C 0.25239 0.05664 0.38148
 C1262 C 0.22842 0.06271 0.38144
 C1263 C 0.21796 0.07591 0.39908
 N1264 N 0.19397 0.07782 0.40107
 N1265 N 0.18439 0.09026 0.41663
 C1266 C 0.19848 0.10138 0.43065
 N1267 N 0.22245 0.09956 0.42858
 N1268 N 0.23202 0.08699 0.41314
 C1269 C 0.18837 0.11594 0.44734
 C1270 C 0.16446 0.11551 0.45341
 H1271 H 0.21695 0.05747 0.36837
 H1272 H 0.20030 0.12719 0.45534
 H1273 H 0.26303 0.06006 0.39573
 H1274 H 0.15275 0.10330 0.44662
 C1275 C 0.73836 0.06917 0.62555
 C1276 C 0.76210 0.07562 0.62504
 C1277 C 0.77190 0.08858 0.60702
 N1278 N 0.79576 0.08906 0.60371
 N1279 N 0.80491 0.10046 0.58729
 C1280 C 0.79055 0.11197 0.57368
 N1281 N 0.76670 0.11174 0.57716
 N1282 N 0.75752 0.10017 0.59347
 C1283 C 0.80053 0.12453 0.55543
 C1284 C 0.82331 0.12021 0.54748
 H1285 H 0.77424 0.06984 0.63744
 H1286 H 0.78943 0.13672 0.54757
 H1287 H 0.72699 0.07308 0.61188
 H1288 H 0.83363 0.10689 0.55437
 C1289 C 0.92913 0.62107 0.26581
 C1290 C 0.92021 0.62324 0.24482
 C1291 C 0.90429 0.60687 0.23536
 N1292 N 0.90143 0.60581 0.21351
 N1293 N 0.88699 0.59106 0.20476
 C1294 C 0.87467 0.57702 0.21758
 N1295 N 0.87730 0.57827 0.23944
 N1296 N 0.89192 0.59287 0.24817
 C1297 C 0.85876 0.56060 0.20819
 C1298 C 0.86096 0.55381 0.18669
 H1299 H 0.92570 0.63683 0.23475
 H1300 H 0.84607 0.55267 0.21881
 H1301 H 0.92568 0.60620 0.27482
 H1302 H 0.87498 0.56039 0.17657
 C1303 C 0.92900 0.38148 0.73542
 C1304 C 0.92151 0.38031 0.75698
 C1305 C 0.90710 0.39782 0.76692
 N1306 N 0.90611 0.39990 0.78885
 N1307 N 0.89315 0.41579 0.79797
 C1308 C 0.88050 0.42999 0.78547
 N1309 N 0.88125 0.42771 0.76356
 N1310 N 0.89440 0.41198 0.75444
 C1311 C 0.86605 0.44757 0.79519
 C1312 C 0.86997 0.45516 0.81619
 H1313 H 0.92719 0.36675 0.76708
 H1314 H 0.85292 0.45563 0.78505
 H1315 H 0.92547 0.39626 0.72623
 H1316 H 0.88437 0.44835 0.82576
 C1317 C 0.08830 0.61040 0.72548
 C1318 C 0.08426 0.60396 0.74693
 C1319 C 0.10068 0.58906 0.75844
 N1320 N 0.09520 0.58196 0.77871
 N1321 N 0.10957 0.56808 0.78911
 C1322 C 0.13002 0.56080 0.77965
 N1323 N 0.13558 0.56800 0.75943
 N1324 N 0.12119 0.58186 0.74902
 C1325 C 0.14572 0.54491 0.79065
 C1326 C 0.13991 0.53591 0.81076
 H1327 H 0.06827 0.60909 0.75536
 H1328 H 0.16176 0.53958 0.78235
 H1329 H 0.10390 0.60402 0.71718
 H1330 H 0.12371 0.54107 0.81892
 C1331 C 0.05694 0.37646 0.25339
 C1332 C 0.07849 0.38667 0.25800
 C1333 C 0.09038 0.40112 0.24229
 N1334 N 0.11167 0.41015 0.24728
 N1335 N 0.12234 0.42371 0.23345
 C1336 C 0.11207 0.42876 0.21413
 N1337 N 0.09081 0.41970 0.20913
 N1338 N 0.08016 0.40613 0.22294
 C1339 C 0.12310 0.44424 0.19891
 C1340 C 0.14499 0.45409 0.20285
 H1341 H 0.08713 0.38402 0.27347
 H1342 H 0.11335 0.44833 0.18429
 H1343 H 0.04951 0.37809 0.23724
 H1344 H 0.15502 0.44985 0.21726
   
