data_POSCAR
  _audit_creation_date              2014-09-24
  _audit_creation_method            'ToBaCCo'
  _symmetry_space_group_name_H-M    'P1'
  _symmetry_Int_Tables_number       1
  _symmetry_cell_setting            triclinic
  loop_
  _symmetry_equiv_pos_as_xyz
 x,y,z
_cell_length_a 53.6586
_cell_length_b 53.8460
_cell_length_c 39.3399
_cell_angle_alpha 89.954700
_cell_angle_beta 89.209900
_cell_angle_gamma 89.333100
loop_
  _atom_site_label
  _atom_site_type_symbol
  _atom_site_fract_x
  _atom_site_fract_y
  _atom_site_fract_z
C1 C 0.29098 -0.03149 0.25710
 C2 C 0.30574 -0.01081 0.24956
 C3 C 0.32202 -0.01142 0.22158
 C4 C 0.32398 -0.03243 0.20078
 C5 C 0.30843 -0.05270 0.20755
 C6 C 0.29194 -0.05283 0.23607
 C7 C 0.30811 0.00993 0.27364
 C8 C 0.32811 0.00915 0.29609
 C9 C 0.33502 0.03030 0.31455
 C10 C 0.32061 0.05208 0.31130
 C11 C 0.30145 0.05356 0.28733
 C12 C 0.29488 0.03226 0.26901
 H13 H 0.27887 -0.03068 0.27931
 H14 H 0.33455 0.00401 0.21766
 H15 H 0.33888 -0.00794 0.29809
 H16 H 0.28094 0.03354 0.24940
 H17 H 0.31073 -0.06905 0.19182
 H18 H 0.32601 0.06884 0.32440
 C19 C 0.19047 -0.03364 0.76700
 C20 C 0.17619 -0.01341 0.77911
 C21 C 0.15797 -0.01720 0.80440
 C22 C 0.15332 -0.04109 0.81679
 C23 C 0.16731 -0.06125 0.80432
 C24 C 0.18598 -0.05769 0.77945
 C25 C 0.17565 0.01015 0.76012
 C26 C 0.15779 0.01295 0.73476
 C27 C 0.15363 0.03598 0.71849
 C28 C 0.16837 0.05614 0.72850
 C29 C 0.18630 0.05356 0.75404
 C30 C 0.19008 0.03041 0.76966
 H31 H 0.20379 -0.03094 0.74640
 H32 H 0.14605 -0.00184 0.81246
 H33 H 0.14596 -0.00275 0.72990
 H34 H 0.20337 0.02844 0.79001
 H35 H 0.16320 -0.07980 0.81338
 H36 H 0.16661 0.07398 0.71606
 C37 C 0.69898 0.45686 0.22813
 C38 C 0.68664 0.47951 0.23418
 C39 C 0.66647 0.48053 0.25705
 C40 C 0.65885 0.45940 0.27533
 C41 C 0.67187 0.43695 0.26966
 C42 C 0.69140 0.43536 0.24548
 C43 C 0.69065 0.50102 0.21178
 C44 C 0.67583 0.50272 0.18296
 C45 C 0.67374 0.52499 0.16467
 C46 C 0.68845 0.54512 0.17430
 C47 C 0.70242 0.54433 0.20441
 C48 C 0.70368 0.52192 0.22286
 H49 H 0.71349 0.45576 0.20874
 H50 H 0.65596 0.49776 0.25885
 H51 H 0.66387 0.48724 0.17728
 H52 H 0.71311 0.52119 0.24702
 H53 H 0.66693 0.42050 0.28393
 H54 H 0.68760 0.56210 0.15965
 C55 C 0.80157 0.47556 0.73263
 C56 C 0.81670 0.49640 0.72779
 C57 C 0.83464 0.49638 0.70167
 C58 C 0.83777 0.47587 0.68001
 C59 C 0.82185 0.45555 0.68410
 C60 C 0.80400 0.45501 0.71063
 C61 C 0.81734 0.51674 0.75278
 C62 C 0.83542 0.51558 0.77812
 C63 C 0.84133 0.53661 0.79781
 C64 C 0.82772 0.55874 0.79169
 C65 C 0.80985 0.56024 0.76597
 C66 C 0.80451 0.53908 0.74678
 H67 H 0.78853 0.47509 0.75388
 H68 H 0.84735 0.51184 0.69995
 H69 H 0.84638 0.49865 0.77967
 H70 H 0.79164 0.54039 0.72584
 H71 H 0.82420 0.43952 0.66771
 H72 H 0.83064 0.57516 0.80686
 C73 C 0.24817 0.41518 1.04492
 C74 C 0.25939 0.42855 1.01855
 C75 C 0.28205 0.44005 1.02366
 C76 C 0.29412 0.43804 1.05495
 C77 C 0.28287 0.42434 1.08153
 C78 C 0.25998 0.41192 1.07650
 C79 C 0.24850 0.42796 0.98450
 C80 C 0.22493 0.43817 0.97925
 C81 C 0.21219 0.43379 0.94895
 C82 C 0.22380 0.41910 0.92342
 C83 C 0.24782 0.40874 0.92845
 C84 C 0.26023 0.41408 0.95879
 H85 H 0.23019 0.40708 1.04014
 H86 H 0.29046 0.45033 1.00284
 H87 H 0.21634 0.44914 0.99941
 H88 H 0.27859 0.40630 0.96340
 H89 H 0.29315 0.42177 1.10476
 H90 H 0.21357 0.41452 0.90078
 C91 C 0.74251 0.09179 1.03282
 C92 C 0.73228 0.07788 1.00661
 C93 C 0.70949 0.06633 1.01126
 C94 C 0.69598 0.06924 1.04177
 C95 C 0.70595 0.08402 1.06776
 C96 C 0.72953 0.09558 1.06393
 C97 C 0.74502 0.07684 0.97345
 C98 C 0.76693 0.06304 0.96955
 C99 C 0.78190 0.06543 0.94019
 C100 C 0.77383 0.08138 0.91390
 C101 C 0.75129 0.09509 0.91745
 C102 C 0.73686 0.09218 0.94722
 H103 H 0.76088 0.09922 1.02833
 H104 H 0.70246 0.05501 0.99085
 H105 H 0.77258 0.05092 0.99012
 H106 H 0.71966 0.10265 0.95081
 H107 H 0.69438 0.08740 1.08997
 H108 H 0.78570 0.08422 0.89179
 C109 C 0.26470 0.58228 0.54219
 C110 C 0.25307 0.56782 0.51761
 C111 C 0.23055 0.55632 0.52536
 C112 C 0.21907 0.55960 0.55730
 C113 C 0.23026 0.57510 0.58143
 C114 C 0.25317 0.58675 0.57401
 C115 C 0.26256 0.56803 0.48235
 C116 C 0.28501 0.55617 0.47375
 C117 C 0.29547 0.55894 0.44112
 C118 C 0.28357 0.57449 0.41735
 C119 C 0.26067 0.58641 0.42562
 C120 C 0.25007 0.58229 0.45804
 H121 H 0.28218 0.59106 0.53565
 H122 H 0.22135 0.54573 0.50584
 H123 H 0.29469 0.54531 0.49279
 H124 H 0.23242 0.59090 0.46514
 H125 H 0.22065 0.57871 0.60533
 H126 H 0.29247 0.57763 0.39289
 C127 C 0.74740 0.91863 0.53854
 C128 C 0.75862 0.93269 0.51296
 C129 C 0.78030 0.94552 0.51936
 C130 C 0.79226 0.94364 0.55101
 C131 C 0.78082 0.92897 0.57676
 C132 C 0.75848 0.91607 0.57053
 C133 C 0.74874 0.93213 0.47842
 C134 C 0.72975 0.94845 0.46914
 C135 C 0.71683 0.94514 0.43859
 C136 C 0.72499 0.92600 0.41623
 C137 C 0.74535 0.91035 0.42458
 C138 C 0.75707 0.91380 0.45588
 H139 H 0.73020 0.90924 0.53293
 H140 H 0.78736 0.95727 0.49918
 H141 H 0.72474 0.96319 0.48669
 H142 H 0.77249 0.90192 0.46332
 H143 H 0.79007 0.92599 0.60067
 H144 H 0.71478 0.92226 0.39332
 C145 C -0.02849 0.24439 0.37505
 C146 C -0.00571 0.24483 0.39193
 C147 C 0.00152 0.22480 0.41234
 C148 C -0.01458 0.20475 0.41794
 C149 C -0.03766 0.20478 0.40106
 C150 C -0.04473 0.22407 0.37855
 C151 C 0.01010 0.26694 0.38962
 C152 C 0.00193 0.28926 0.40462
 C153 C 0.01759 0.30988 0.40496
 C154 C 0.04096 0.30850 0.38866
 C155 C 0.04909 0.28647 0.37283
 C156 C 0.03373 0.26552 0.37401
 H157 H -0.03263 0.25969 0.35817
 H158 H 0.01902 0.22588 0.42563
 H159 H -0.01610 0.29022 0.41737
 H160 H 0.03999 0.24821 0.36251
 H161 H -0.05006 0.18944 0.40541
 H162 H 0.05305 0.32449 0.38894
 C163 C -0.03423 0.75181 0.13450
 C164 C -0.01143 0.75393 0.11708
 C165 C -0.00511 0.77638 0.10144
 C166 C -0.02180 0.79652 0.10231
 C167 C -0.04447 0.79448 0.12031
 C168 C -0.05103 0.77215 0.13695
 C169 C 0.00594 0.73260 0.11534
 C170 C -0.00036 0.71116 0.09741
 C171 C 0.01677 0.69119 0.09367
 C172 C 0.04019 0.69315 0.10964
 C173 C 0.04630 0.71435 0.12857
 C174 C 0.02906 0.73404 0.13096
 H175 H -0.03799 0.73452 0.14753
 H176 H 0.01244 0.77790 0.08767
 H177 H -0.01812 0.71099 0.08469
 H178 H 0.03340 0.75051 0.14545
 H179 H -0.05727 0.81016 0.12002
 H180 H 0.05362 0.67803 0.10818
 C181 C 0.47157 0.25629 0.62801
 C182 C 0.49512 0.25704 0.61197
 C183 C 0.50227 0.27828 0.59401
 C184 C 0.48606 0.29872 0.59146
 C185 C 0.46280 0.29809 0.60819
 C186 C 0.45526 0.27697 0.62657
 C187 C 0.51186 0.23515 0.61141
 C188 C 0.50492 0.21381 0.59373
 C189 C 0.52200 0.19418 0.58873
 C190 C 0.54579 0.19557 0.60312
 C191 C 0.55285 0.21672 0.62132
 C192 C 0.53588 0.23664 0.62489
 H193 H 0.46592 0.23952 0.64108
 H194 H 0.52011 0.27841 0.58073
 H195 H 0.48671 0.21313 0.58220
 H196 H 0.54135 0.25334 0.63808
 H197 H 0.45068 0.31429 0.60717
 H198 H 0.55901 0.18038 0.59960
 C199 C 0.46906 0.74296 0.87276
 C200 C 0.49225 0.74159 0.88861
 C201 C 0.50034 0.71903 0.90306
 C202 C 0.48494 0.69787 0.90282
 C203 C 0.46204 0.69966 0.88559
 C204 C 0.45407 0.72193 0.87057
 C205 C 0.50750 0.76418 0.89117
 C206 C 0.49788 0.78524 0.90808
 C207 C 0.51232 0.80663 0.91121
 C208 C 0.53612 0.80720 0.89600
 C209 C 0.54584 0.78652 0.87822
 C210 C 0.53147 0.76486 0.87645
 H211 H 0.46290 0.76035 0.86160
 H212 H 0.51783 0.71876 0.91644
 H213 H 0.47943 0.78471 0.91964
 H214 H 0.53882 0.74853 0.86354
 H215 H 0.45024 0.68362 0.88325
 H216 H 0.54683 0.82410 0.89743
 C217 C -0.28383 0.55740 0.99327
 C218 C -0.26430 0.57336 1.00132
 C219 C -0.26781 0.59144 1.02649
 C220 C -0.29038 0.59331 1.04455
 C221 C -0.30924 0.57631 1.03806
 C222 C -0.30655 0.55849 1.01183
 C223 C -0.24128 0.57405 0.98060
 C224 C -0.23945 0.59233 0.95550
 C225 C -0.21651 0.59766 0.93930
 C226 C -0.19547 0.58341 0.94864
 C227 C -0.19708 0.56494 0.97382
 C228 C -0.22014 0.56015 0.98961
 H229 H -0.28105 0.54402 0.97298
 H230 H -0.25306 0.60449 1.03147
 H231 H -0.25579 0.60382 0.95123
 H232 H -0.22135 0.54670 1.01007
 H233 H -0.32683 0.57859 1.05163
 H234 H -0.17763 0.58618 0.93615
 C235 C -0.27417 0.44892 0.48203
 C236 C -0.25360 0.43363 0.47388
 C237 C -0.25520 0.41630 0.44762
 C238 C -0.27710 0.41389 0.42907
 C239 C -0.29733 0.42987 0.43643
 C240 C -0.29644 0.44739 0.46332
 C241 C -0.23139 0.43268 0.49542
 C242 C -0.22899 0.41287 0.51831
 C243 C -0.20644 0.40835 0.53472
 C244 C -0.18618 0.42382 0.52843
 C245 C -0.18810 0.44344 0.50503
 C246 C -0.21092 0.44810 0.48888
 H247 H -0.27258 0.46192 0.50284
 H248 H -0.23968 0.40360 0.44312
 H249 H -0.24439 0.40025 0.52217
 H250 H -0.21224 0.46251 0.46972
 H251 H -0.31436 0.42721 0.42257
 H252 H -0.16853 0.41982 0.54050
 C253 C 0.20690 -0.06369 0.00033
 C254 C 0.22875 -0.07571 -0.01098
 C255 C 0.22818 -0.09130 -0.03933
 C256 C 0.20582 -0.09593 -0.05651
 C257 C 0.18397 -0.08374 -0.04469
 C258 C 0.18437 -0.06774 -0.01646
 C259 C 0.25152 -0.07609 0.00945
 C260 C 0.25527 -0.09615 0.03162
 C261 C 0.27862 -0.10063 0.04665
 C262 C 0.29797 -0.08397 0.03934
 C263 C 0.29455 -0.06416 0.01658
 C264 C 0.27120 -0.06006 0.00191
 H265 H 0.20719 -0.05223 0.02295
 H266 H 0.24509 -0.10154 -0.04569
 H267 H 0.23970 -0.10827 0.03674
 H268 H 0.26881 -0.04549 -0.01683
 H269 H 0.16652 -0.08609 -0.05771
 H270 H 0.31645 -0.08722 0.04925
 C271 C 0.22220 1.05505 0.50516
 C272 C 0.24386 1.06733 0.51500
 C273 C 0.24277 1.08423 0.54198
 C274 C 0.21990 1.09074 0.55754
 C275 C 0.19835 1.07842 0.54747
 C276 C 0.19940 1.06050 0.52158
 C277 C 0.26567 1.06842 0.49206
 C278 C 0.26713 1.08863 0.46984
 C279 C 0.28859 1.09290 0.44998
 C280 C 0.30851 1.07572 0.45176
 C281 C 0.30792 1.05626 0.47578
 C282 C 0.28629 1.05256 0.49570
 H283 H 0.22274 1.04270 0.48342
 H284 H 0.25965 1.09372 0.54890
 H285 H 0.25133 1.10134 0.46846
 H286 H 0.28586 1.03802 0.51476
 H287 H 0.18041 1.08353 0.55851
 H288 H 0.32557 1.07908 0.43749
 C289 C 0.16436 0.49911 0.19740
 C290 C 0.17952 0.51118 0.22071
 C291 C 0.19099 0.53334 0.21168
 C292 C 0.18710 0.54391 0.17959
 C293 C 0.17096 0.53232 0.15669
 C294 C 0.15934 0.50976 0.16552
 C295 C 0.18126 0.50159 0.25559
 C296 C 0.19299 0.47885 0.26153
 C297 C 0.19110 0.46719 0.29341
 C298 C 0.17730 0.47907 0.31967
 C299 C 0.16553 0.50234 0.31404
 C300 C 0.16842 0.51369 0.28201
 H301 H 0.15573 0.48180 0.20482
 H302 H 0.20236 0.54278 0.23010
 H303 H 0.20327 0.47012 0.24079
 H304 H 0.15968 0.53150 0.27684
 H305 H 0.16702 0.54121 0.13261
 H306 H 0.17455 0.46956 0.34365
 C307 C -0.16827 0.99520 0.22136
 C308 C -0.18111 0.98411 0.24829
 C309 C -0.19181 0.96097 0.24409
 C310 C -0.18935 0.94776 0.21318
 C311 C -0.17592 0.95925 0.18609
 C312 C -0.16473 0.98291 0.18994
 C313 C -0.18172 0.99619 0.28188
 C314 C -0.19676 1.01714 0.28760
 C315 C -0.19504 1.03120 0.31788
 C316 C -0.17808 1.02253 0.34279
 C317 C -0.16324 1.00105 0.33748
 C318 C -0.16553 0.98787 0.30700
 H319 H -0.16126 1.01369 0.22548
 H320 H -0.20268 0.95396 0.26526
 H321 H -0.20981 1.02191 0.26793
 H322 H -0.15411 0.97148 0.30218
 H323 H -0.17219 0.94879 0.16318
 H324 H -0.17463 1.03333 0.36531
 C325 C 0.33680 0.50021 -0.29566
 C326 C 0.32298 0.49001 -0.26888
 C327 C 0.31200 0.46701 -0.27261
 C328 C 0.31515 0.45347 -0.30279
 C329 C 0.32930 0.46365 -0.32980
 C330 C 0.34108 0.48697 -0.32620
 C331 C 0.32236 0.50249 -0.23574
 C332 C 0.31168 0.52599 -0.23269
 C333 C 0.31416 0.54015 -0.20281
 C334 C 0.32769 0.52950 -0.17552
 C335 C 0.33882 0.50562 -0.17865
 C336 C 0.33502 0.49200 -0.20851
 H337 H 0.34441 0.51852 -0.29201
 H338 H 0.30125 0.45951 -0.25153
 H339 H 0.30096 0.53270 -0.25397
 H340 H 0.34309 0.47358 -0.21153
 H341 H 0.33271 0.45231 -0.35211
 H342 H 0.33137 0.54039 -0.15308
 C343 C 0.65626 0.00287 -0.28414
 C344 C 0.67228 0.01117 -0.25897
 C345 C 0.68742 0.03153 -0.26488
 C346 C 0.68604 0.04479 -0.29547
 C347 C 0.66991 0.03635 -0.32092
 C348 C 0.65469 0.01517 -0.31574
 C349 C 0.67105 0.00028 -0.22489
 C350 C 0.68492 -0.02096 -0.21727
 C351 C 0.68226 -0.03252 -0.18550
 C352 C 0.66509 -0.02263 -0.16147
 C353 C 0.65114 -0.00094 -0.16893
 C354 C 0.65481 0.01060 -0.20062
 H355 H 0.64394 -0.01224 -0.27770
 H356 H 0.69984 0.03733 -0.24499
 H357 H 0.69717 -0.02895 -0.23660
 H358 H 0.64462 0.02742 -0.20698
 H359 H 0.66950 0.04638 -0.34467
 H360 H 0.66221 -0.03219 -0.13753
 C361 C -0.01229 0.21274 0.88288
 C362 C -0.01175 0.23603 0.86696
 C363 C -0.03216 0.24404 0.84777
 C364 C -0.05284 0.22867 0.84367
 C365 C -0.05330 0.20545 0.86006
 C366 C -0.03319 0.19739 0.88002
 C367 C 0.01052 0.25171 0.86930
 C368 C 0.03341 0.24331 0.85565
 C369 C 0.05415 0.25889 0.85538
 C370 C 0.05225 0.28250 0.87034
 C371 C 0.02967 0.29088 0.88495
 C372 C 0.00870 0.27551 0.88376
 H373 H 0.00347 0.20680 0.89794
 H374 H -0.03152 0.26188 0.83501
 H375 H 0.03473 0.22517 0.84379
 H376 H -0.00898 0.28189 0.89440
 H377 H -0.06925 0.19354 0.85701
 H378 H 0.06828 0.29456 0.86991
 C379 C 0.51341 0.22004 0.12570
 C380 C 0.51480 0.24351 0.14098
 C381 C 0.53599 0.24982 0.15939
 C382 C 0.55548 0.23251 0.16339
 C383 C 0.55409 0.20922 0.14748
 C384 C 0.53315 0.20276 0.12838
 C385 C 0.49307 0.26050 0.14028
 C386 C 0.47096 0.25357 0.15685
 C387 C 0.45032 0.26972 0.15778
 C388 C 0.45161 0.29263 0.14080
 C389 C 0.47348 0.29965 0.12339
 C390 C 0.49438 0.28360 0.12381
 H391 H 0.49663 0.21513 0.11238
 H392 H 0.53678 0.26772 0.17190
 H393 H 0.47013 0.23590 0.17004
 H394 H 0.51148 0.28878 0.11080
 H395 H 0.56958 0.19628 0.14971
 H396 H 0.43560 0.30509 0.14141
 C397 C 0.00976 0.72678 0.61806
 C398 C 0.01166 0.74998 0.63395
 C399 C 0.03466 0.75742 0.64700
 C400 C 0.05567 0.74170 0.64464
 C401 C 0.05345 0.71862 0.62837
 C402 C 0.03078 0.71120 0.61459
 C403 C -0.01023 0.76676 0.63636
 C404 C -0.03224 0.75902 0.65276
 C405 C -0.05259 0.77561 0.65727
 C406 C -0.05084 0.79955 0.64281
 C407 C -0.02928 0.80705 0.62536
 C408 C -0.00882 0.79079 0.62290
 H409 H -0.00789 0.72122 0.60757
 H410 H 0.03609 0.77546 0.65896
 H411 H -0.03262 0.74064 0.66392
 H412 H 0.00805 0.79663 0.60984
 H413 H 0.06927 0.70596 0.62717
 H414 H -0.06646 0.81243 0.64431
 C415 C 0.48544 0.71550 0.39347
 C416 C 0.48364 0.73809 0.37611
 C417 C 0.46129 0.74491 0.36053
 C418 C 0.44091 0.72881 0.36129
 C419 C 0.44287 0.70614 0.37891
 C420 C 0.46512 0.69936 0.39510
 C421 C 0.50565 0.75393 0.37285
 C422 C 0.52711 0.74506 0.35582
 C423 C 0.54797 0.76028 0.35203
 C424 C 0.54766 0.78400 0.36672
 C425 C 0.52650 0.79274 0.38445
 C426 C 0.50530 0.77784 0.38680
 H427 H 0.50280 0.71051 0.40563
 H428 H 0.46020 0.76220 0.34646
 H429 H 0.52728 0.72665 0.34469
 H430 H 0.48878 0.78456 0.40022
 H431 H 0.42730 0.69350 0.37922
 H432 H 0.56388 0.79573 0.36419
 B433 B -0.03778 0.00829 1.01089
 B434 B -0.04639 -0.00322 0.97275
 B435 B -0.02722 0.02125 0.97455
 B436 B -0.00772 0.01744 1.00755
 B437 B -0.01497 -0.01013 1.02634
 B438 B -0.03942 -0.02270 1.00502
 B439 B 0.00043 -0.02012 0.96153
 B440 B 0.00920 -0.00840 0.99895
 B441 B -0.01024 -0.03296 0.99764
 B442 B -0.02960 -0.02912 0.96445
 B443 B -0.02208 -0.00173 0.94558
 B444 B 0.00194 0.01100 0.96696
 B445 B 0.47832 0.50389 0.50433
 B446 B 0.47082 0.49665 0.46395
 B447 B 0.48933 0.52093 0.47187
 B448 B 0.50815 0.51370 0.50479
 B449 B 0.50108 0.48421 0.51695
 B450 B 0.47754 0.47392 0.49193
 B451 B 0.51832 0.48237 0.45137
 B452 B 0.52590 0.48926 0.49148
 B453 B 0.50702 0.46513 0.48379
 B454 B 0.48845 0.47247 0.45087
 B455 B 0.49581 0.50177 0.43858
 B456 B 0.51890 0.51238 0.46399
 B457 B 0.53384 0.98697 0.49820
 B458 B 0.54044 0.99499 0.45753
 B459 B 0.52175 0.97082 0.46578
 B460 B 0.50376 0.97723 0.50024
 B461 B 0.51140 1.00606 0.51362
 B462 B 0.53446 1.01717 0.48715
 B463 B 0.49295 1.01032 0.44948
 B464 B 0.48589 1.00186 0.48942
 B465 B 0.50480 1.02637 0.48215
 B466 B 0.52272 1.02000 0.44730
 B467 B 0.51519 0.99106 0.43397
 B468 B 0.49250 0.97995 0.46011
 B469 B 0.02324 0.48375 1.00375
 B470 B 0.03426 0.49413 0.96593
 B471 B 0.01489 0.46977 0.96752
 B472 B -0.00661 0.47458 0.99876
 B473 B -0.00035 0.50260 1.01650
 B474 B 0.02535 0.51453 0.99639
 B475 B -0.01165 0.51074 0.95006
 B476 B -0.02280 0.50021 0.98737
 B477 B -0.00319 0.52464 0.98627
 B478 B 0.01815 0.51976 0.95483
 B479 B 0.01171 0.49183 0.93697
 B480 B -0.01369 0.47978 0.95719
 B481 B 0.03179 0.52130 0.48787
 B482 B 0.04093 0.51013 0.52595
 B483 B 0.02186 0.53511 0.52394
 B484 B 0.00186 0.53139 0.49154
 B485 B 0.00869 0.50331 0.47353
 B486 B 0.03329 0.49034 0.49463
 B487 B -0.00593 0.49496 0.53908
 B488 B -0.01510 0.50627 0.50149
 B489 B 0.00414 0.48117 0.50317
 B490 B 0.02401 0.48494 0.53569
 B491 B 0.01697 0.51285 0.55380
 B492 B -0.00727 0.52602 0.53255
 B493 B 0.51215 0.01488 -0.00169
 B494 B 0.52224 0.00340 0.03568
 B495 B 0.50322 0.02852 0.03503
 B496 B 0.48242 0.02511 0.00354
 B497 B 0.48867 -0.00288 -0.01515
 B498 B 0.51368 -0.01611 0.00459
 B499 B 0.47566 -0.01173 0.05090
 B500 B 0.46565 -0.00007 0.01387
 B501 B 0.48480 -0.02529 0.01432
 B502 B 0.50551 -0.02178 0.04597
 B503 B 0.49905 0.00602 0.06480
 B504 B 0.47425 0.01944 0.04489
 B505 B 0.47538 0.48757 -0.01198
 B506 B 0.46732 0.49954 0.02645
 B507 B 0.48559 0.47397 0.02382
 B508 B 0.50501 0.47668 -0.01020
 B509 B 0.49872 0.50470 -0.02860
 B510 B 0.47488 0.51864 -0.00604
 B511 B 0.51487 0.51351 0.03552
 B512 B 0.52291 0.50146 -0.00243
 B513 B 0.50442 0.52718 0.00001
 B514 B 0.48514 0.52437 0.03412
 B515 B 0.49171 0.49656 0.05254
 B516 B 0.51506 0.48241 0.02991
 B517 B -0.02553 0.99994 0.50743
 B518 B -0.03610 1.01049 0.54536
 B519 B -0.01712 0.98537 0.54336
 B520 B 0.00416 0.98952 0.51192
 B521 B -0.00171 1.01791 0.49449
 B522 B -0.02700 1.03079 0.51501
 B523 B 0.01015 1.02508 0.56095
 B524 B 0.02090 1.01430 0.52338
 B525 B 0.00187 1.03953 0.52503
 B526 B -0.01950 1.03537 0.55655
 B527 B -0.01348 1.00706 0.57405
 B528 B 0.01164 0.99413 0.55349
 B529 B 0.76652 0.21258 0.25119
 B530 B 0.75770 0.20710 0.29200
 B531 B 0.78172 0.22618 0.28346
 B532 B 0.77547 0.24270 0.24809
 B533 B 0.74697 0.23383 0.23458
 B534 B 0.73596 0.21145 0.26172
 B535 B 0.74089 0.25443 0.29752
 B536 B 0.75015 0.26006 0.25739
 B537 B 0.72589 0.24098 0.26528
 B538 B 0.73198 0.22454 0.30097
 B539 B 0.76054 0.23334 0.31455
 B540 B 0.77162 0.25540 0.28757
 B541 B 0.73615 0.78434 0.74393
 B542 B 0.74707 0.79432 0.78164
 B543 B 0.72266 0.77501 0.78055
 B544 B 0.72708 0.75446 0.74847
 B545 B 0.75504 0.76118 0.72968
 B546 B 0.76717 0.78637 0.75000
 B547 B 0.76402 0.74816 0.79525
 B548 B 0.75295 0.73804 0.75820
 B549 B 0.77746 0.75761 0.75889
 B550 B 0.77296 0.77802 0.79106
 B551 B 0.74526 0.77098 0.80991
 B552 B 0.73288 0.74630 0.78955
 B553 B 0.26746 0.27020 0.76660
 B554 B 0.25518 0.27976 0.72948
 B555 B 0.28014 0.26046 0.72954
 B556 B 0.27716 0.24030 0.76224
 B557 B 0.24962 0.24726 0.78244
 B558 B 0.23620 0.27208 0.76232
 B559 B 0.23895 0.23355 0.71764
 B560 B 0.25144 0.22380 0.75441
 B561 B 0.22641 0.24323 0.75450
 B562 B 0.22946 0.26340 0.72184
 B563 B 0.25683 0.25623 0.70158
 B564 B 0.27031 0.23159 0.72164
 B565 B 0.23382 0.72350 0.26213
 B566 B 0.24365 0.71646 0.22215
 B567 B 0.21940 0.73607 0.22834
 B568 B 0.22482 0.75373 0.26305
 B569 B 0.25325 0.74489 0.27809
 B570 B 0.26459 0.72130 0.25302
 B571 B 0.26032 0.76306 0.21404
 B572 B 0.25070 0.77029 0.25355
 B573 B 0.27483 0.75031 0.24761
 B574 B 0.26929 0.73281 0.21297
 B575 B 0.24120 0.74205 0.19779
 B576 B 0.22948 0.76516 0.22318
 B577 B 0.26762 0.72556 0.73669
 B578 B 0.25443 0.71564 0.77344
 B579 B 0.27935 0.73432 0.77418
 B580 B 0.27723 0.75517 0.74222
 B581 B 0.25030 0.74930 0.72149
 B582 B 0.23633 0.72437 0.74063
 B583 B 0.23787 0.76203 0.78659
 B584 B 0.25132 0.77217 0.75050
 B585 B 0.22633 0.75325 0.74918
 B586 B 0.22845 0.73248 0.78134
 B587 B 0.25529 0.73860 0.80220
 B588 B 0.26933 0.76315 0.78302
 B589 B 0.24151 0.28007 0.24854
 B590 B 0.25271 0.29082 0.28563
 B591 B 0.22736 0.27273 0.28546
 B592 B 0.23091 0.25091 0.25482
 B593 B 0.25918 0.25561 0.23593
 B594 B 0.27251 0.28075 0.25482
 B595 B 0.26719 0.24437 0.30248
 B596 B 0.25586 0.23361 0.26596
 B597 B 0.28132 0.25193 0.26559
 B598 B 0.27769 0.27359 0.29648
 B599 B 0.24952 0.26868 0.31546
 B600 B 0.23603 0.24397 0.29642
 B601 B 0.75989 0.76408 0.26845
 B602 B 0.75026 0.77259 0.22940
 B603 B 0.77481 0.75313 0.23356
 B604 B 0.76952 0.73406 0.26704
 B605 B 0.74091 0.74171 0.28333
 B606 B 0.72920 0.76596 0.26023
 B607 B 0.73451 0.72593 0.21816
 B608 B 0.74416 0.71737 0.25716
 B609 B 0.71953 0.73710 0.25294
 B610 B 0.72500 0.75611 0.21954
 B611 B 0.75340 0.74808 0.20298
 B612 B 0.76532 0.72409 0.22635
 B613 B 0.74336 0.22874 0.74257
 B614 B 0.75545 0.21660 0.70628
 B615 B 0.73060 0.23594 0.70498
 B616 B 0.73375 0.25826 0.73475
 B617 B 0.76119 0.25264 0.75460
 B618 B 0.77447 0.22640 0.73716
 B619 B 0.77184 0.26181 0.68789
 B620 B 0.75958 0.27408 0.72363
 B621 B 0.78450 0.25446 0.72552
 B622 B 0.78127 0.23228 0.69542
 B623 B 0.75387 0.23813 0.67545
 B624 B 0.74052 0.26399 0.69298
 C625 C 0.40411 1.03073 0.36614
 C626 C 0.40167 1.01922 0.33425
 C627 C 0.37880 1.01840 0.31820
 C628 C 0.35774 1.03060 0.33213
 C629 C 0.36050 1.04405 0.36252
 C630 C 0.38321 1.04361 0.37972
 C631 C 0.42785 1.02786 0.38548
 C632 C 0.43432 1.04414 0.41195
 C633 C 0.45554 1.03957 0.43156
 C634 C 0.47132 1.01916 0.42444
 C635 C 0.46540 1.00369 0.39702
 C636 C 0.44389 1.00758 0.37855
 H637 H 0.37805 1.00920 0.29376
 H638 H 0.34478 1.05382 0.37404
 H639 H 0.45884 1.05149 0.45302
 H640 H 0.47653 0.98738 0.39084
 H641 H 0.38392 1.05283 0.40406
 H642 H 0.42287 1.06017 0.41822
 H643 H 0.41739 1.01068 0.32117
 H644 H 0.43958 0.99370 0.35981
 C645 C -0.09510 0.53376 0.86159
 C646 C -0.10800 0.51209 0.85383
 C647 C -0.12943 0.51312 0.83419
 C648 C -0.13842 0.53591 0.82095
 C649 C -0.12569 0.55778 0.83028
 C650 C -0.10446 0.55666 0.85050
 C651 C -0.07174 0.53205 0.88089
 C652 C -0.06902 0.54513 0.91136
 C653 C -0.04863 0.54022 0.93221
 C654 C -0.03050 0.52223 0.92281
 C655 C -0.03233 0.51090 0.89069
 C656 C -0.05281 0.51561 0.87015
 H657 H -0.13896 0.49584 0.83004
 H658 H -0.13089 0.57584 0.82054
 H659 H -0.04840 0.54900 0.95686
 H660 H -0.01889 0.49702 0.88223
 H661 H -0.09475 0.57362 0.85635
 H662 H -0.08351 0.55784 0.92014
 H663 H -0.10147 0.49425 0.86312
 H664 H -0.05442 0.50560 0.84641
 C665 C 0.08705 -0.04753 0.87746
 C666 C 0.08719 -0.05431 0.84301
 C667 C 0.10919 -0.05332 0.82376
 C668 C 0.13129 -0.04527 0.83857
 C669 C 0.13149 -0.03927 0.87321
 C670 C 0.10952 -0.04062 0.89267
 C671 C 0.06321 -0.04509 0.89655
 C672 C 0.04335 -0.03154 0.88255
 C673 C 0.02241 -0.02538 0.90238
 C674 C 0.02077 -0.03282 0.93664
 C675 C 0.03973 -0.04840 0.94945
 C676 C 0.06089 -0.05414 0.92982
 H677 H 0.10880 -0.05786 0.79695
 H678 H 0.14844 -0.03290 0.88488
 H679 H 0.00828 -0.01353 0.89126
 H680 H 0.03926 -0.05480 0.97546
 H681 H 0.10981 -0.03506 0.91912
 H682 H 0.04473 -0.02429 0.85691
 H683 H 0.07011 -0.05974 0.83082
 H684 H 0.07587 -0.06486 0.94105
 C685 C 0.59624 0.46444 0.34596
 C686 C 0.60237 0.44165 0.33045
 C687 C 0.62230 0.43995 0.30705
 C688 C 0.63703 0.46086 0.29940
 C689 C 0.63048 0.48360 0.31474
 C690 C 0.61003 0.48551 0.33660
 C691 C 0.57679 0.46661 0.37326
 C692 C 0.58005 0.48416 0.39897
 C693 C 0.56170 0.48856 0.42317
 C694 C 0.53963 0.47466 0.42423
 C695 C 0.53652 0.45618 0.39942
 C696 C 0.55494 0.45224 0.37400
 H697 H 0.62604 0.42219 0.29512
 H698 H 0.64129 0.50016 0.31051
 H699 H 0.56510 0.50341 0.44089
 H700 H 0.51965 0.44538 0.39900
 H701 H 0.60537 0.50371 0.34662
 H702 H 0.59675 0.49512 0.40032
 H703 H 0.59216 0.42503 0.33686
 H704 H 0.55171 0.43855 0.35448
 C705 C 0.60625 0.53141 0.10839
 C706 C 0.62001 0.50916 0.10799
 C707 C 0.64332 0.50783 0.12304
 C708 C 0.65273 0.52836 0.14062
 C709 C 0.63931 0.55106 0.13946
 C710 C 0.61639 0.55262 0.12302
 C711 C 0.58114 0.53188 0.09393
 C712 C 0.57663 0.54442 0.06347
 C713 C 0.55453 0.54042 0.04605
 C714 C 0.53632 0.52419 0.05916
 C715 C 0.54018 0.51353 0.09140
 C716 C 0.56250 0.51710 0.10837
 H717 H 0.65343 0.49032 0.12221
 H718 H 0.64561 0.56727 0.15295
 H719 H 0.55286 0.54856 0.02114
 H720 H 0.52685 0.50085 0.10252
 H721 H 0.60600 0.56999 0.12327
 H722 H 0.59096 0.55578 0.05189
 H723 H 0.61259 0.49274 0.09606
 H724 H 0.56576 0.50731 0.13200
 C725 C 0.09237 1.04297 0.65161
 C726 C 0.10180 1.06411 0.66725
 C727 C 0.12251 1.06212 0.68843
 C728 C 0.13430 1.03883 0.69430
 C729 C 0.12537 1.01808 0.67635
 C730 C 0.10460 1.02012 0.65568
 C731 C 0.06919 1.04390 0.63210
 C732 C 0.04904 1.02947 0.64282
 C733 C 0.02900 1.02568 0.62141
 C734 C 0.02888 1.03591 0.58845
 C735 C 0.04817 1.05224 0.57907
 C736 C 0.06819 1.05620 0.60077
 H737 H 0.12796 1.07871 0.70170
 H738 H 0.13444 1.00008 0.67770
 H739 H 0.01457 1.01319 0.63000
 H740 H 0.04909 1.06025 0.55391
 H741 H 0.09788 1.00371 0.64296
 H742 H 0.04950 1.01997 0.66710
 H743 H 0.09251 1.08193 0.66426
 H744 H 0.08372 1.06731 0.59207
 C745 C -0.09486 0.47441 0.61986
 C746 C -0.10421 0.45228 0.63339
 C747 C -0.12674 0.45246 0.65171
 C748 C -0.14045 0.47473 0.65621
 C749 C -0.13165 0.49650 0.64057
 C750 C -0.10895 0.49638 0.62291
 C751 C -0.07022 0.47505 0.60305
 C752 C -0.06596 0.46234 0.57253
 C753 C -0.04435 0.46675 0.55340
 C754 C -0.02639 0.48371 0.56472
 C755 C -0.02989 0.49456 0.59703
 C756 C -0.05173 0.49052 0.61576
 H757 H -0.13273 0.43539 0.66366
 H758 H -0.14200 0.51382 0.64273
 H759 H -0.04317 0.45864 0.52837
 H760 H -0.01671 0.50770 0.60687
 H761 H -0.10218 0.51353 0.61190
 H762 H -0.08020 0.45051 0.56223
 H763 H -0.09358 0.43514 0.63100
 H764 H -0.05474 0.50036 0.63949
 C765 C 0.38864 -0.03410 0.13522
 C766 C 0.38099 -0.05587 0.15165
 C767 C 0.35917 -0.05580 0.17161
 C768 C 0.34453 -0.03401 0.17500
 C769 C 0.35154 -0.01277 0.15653
 C770 C 0.37349 -0.01276 0.13710
 C771 C 0.41287 -0.03290 0.11726
 C772 C 0.41671 -0.04538 0.08644
 C773 C 0.43786 -0.04050 0.06648
 C774 C 0.45573 -0.02323 0.07717
 C775 C 0.45261 -0.01242 0.10958
 C776 C 0.43128 -0.01701 0.12920
 H777 H 0.35453 -0.07240 0.18577
 H778 H 0.34046 0.00414 0.15802
 H779 H 0.43877 -0.04860 0.04143
 H780 H 0.46570 0.00104 0.11887
 H781 H 0.37897 0.00408 0.12405
 H782 H 0.40251 -0.05749 0.07669
 H783 H 0.39248 -0.07252 0.15030
 H784 H 0.42857 -0.00726 0.15307
 C785 C 0.36567 0.47290 0.05852
 C786 C 0.35901 0.45835 0.03071
 C787 C 0.33630 0.44622 0.03052
 C788 C 0.31940 0.44869 0.05795
 C789 C 0.32645 0.46245 0.08659
 C790 C 0.34959 0.47441 0.08694
 C791 C 0.38987 0.48559 0.05714
 C792 C 0.40923 0.47782 0.07827
 C793 C 0.43382 0.48430 0.07048
 C794 C 0.43941 0.49838 0.04120
 C795 C 0.41953 0.50886 0.02290
 C796 C 0.39501 0.50212 0.03043
 H797 H 0.33181 0.43510 0.00855
 H798 H 0.31380 0.46458 0.10810
 H799 H 0.44846 0.47698 0.08627
 H800 H 0.42296 0.52030 0.00071
 H801 H 0.35467 0.48529 0.10886
 H802 H 0.40559 0.46517 0.09913
 H803 H 0.37151 0.45632 0.00907
 H804 H 0.38022 0.50840 0.01392
 C805 C -0.13919 0.98175 0.56257
 C806 C -0.14707 0.97395 0.53065
 C807 C -0.16903 0.96093 0.52722
 C808 C -0.18452 0.95562 0.55563
 C809 C -0.17608 0.96283 0.58804
 C810 C -0.15362 0.97571 0.59142
 C811 C -0.11491 0.99440 0.56488
 C812 C -0.10823 1.01225 0.54042
 C813 C -0.08343 1.01927 0.53630
 C814 C -0.06478 1.00835 0.55635
 C815 C -0.07208 0.99312 0.58374
 C816 C -0.09691 0.98599 0.58779
 H817 H -0.17309 0.95427 0.50200
 H818 H -0.18711 0.95953 0.61077
 H819 H -0.07874 1.03164 0.51553
 H820 H -0.05849 0.98545 0.60088
 H821 H -0.14773 0.98130 0.61647
 H822 H -0.12193 1.01947 0.52291
 H823 H -0.13580 0.97733 0.50814
 H824 H -0.10160 0.97246 0.60715
 C825 C -0.14758 0.02625 0.94044
 C826 C -0.15717 0.03749 0.96996
 C827 C -0.17950 0.05079 0.96928
 C828 C -0.19329 0.05274 0.93920
 C829 C -0.18343 0.04192 0.90927
 C830 C -0.16058 0.02892 0.90984
 C831 C -0.12316 0.01339 0.94210
 C832 C -0.10319 0.02156 0.92192
 C833 C -0.07883 0.01450 0.92984
 C834 C -0.07401 -0.00063 0.95830
 C835 C -0.09432 -0.01145 0.97550
 C836 C -0.11867 -0.00414 0.96783
 H837 H -0.18591 0.05967 0.99253
 H838 H -0.19355 0.04311 0.88569
 H839 H -0.06379 0.02213 0.91477
 H840 H -0.09144 -0.02372 0.99694
 H841 H -0.15322 0.02067 0.88664
 H842 H -0.10623 0.03492 0.90177
 H843 H -0.14704 0.03641 0.99356
 H844 H -0.13392 -0.01090 0.98345
 C845 C 0.36779 0.52463 0.43062
 C846 C 0.36433 0.55005 0.42312
 C847 C 0.34052 0.56094 0.42427
 C848 C 0.31975 0.54675 0.43343
 C849 C 0.32290 0.52120 0.43926
 C850 C 0.34660 0.51020 0.43751
 C851 C 0.39340 0.51394 0.43444
 C852 C 0.39833 0.49607 0.45970
 C853 C 0.42279 0.48888 0.46695
 C854 C 0.44304 0.50008 0.45006
 C855 C 0.43801 0.51599 0.42258
 C856 C 0.41353 0.52291 0.41494
 H857 H 0.33852 0.58074 0.42003
 H858 H 0.30705 0.50990 0.44616
 H859 H 0.42578 0.47607 0.48776
 H860 H 0.45295 0.52382 0.40757
 H861 H 0.34837 0.49050 0.44256
 H862 H 0.38346 0.48871 0.47545
 H863 H 0.38011 0.56192 0.41821
 H864 H 0.41045 0.53588 0.39435
 C865 C 0.14504 0.53037 0.56173
 C866 C 0.14961 0.55485 0.57242
 C867 C 0.17393 0.56391 0.57333
 C868 C 0.19414 0.54876 0.56325
 C869 C 0.18978 0.52393 0.55443
 C870 C 0.16552 0.51478 0.55387
 C871 C 0.11907 0.52198 0.55590
 C872 C 0.11360 0.50695 0.52777
 C873 C 0.08893 0.50175 0.51962
 C874 C 0.06905 0.51205 0.53880
 C875 C 0.07462 0.52542 0.56839
 C876 C 0.09928 0.53039 0.57678
 H877 H 0.17678 0.58320 0.57981
 H878 H 0.20513 0.51185 0.54675
 H879 H 0.08550 0.49101 0.49695
 H880 H 0.05997 0.53267 0.58477
 H881 H 0.16279 0.49570 0.54629
 H882 H 0.12829 0.50026 0.51089
 H883 H 0.13433 0.56753 0.57821
 H884 H 0.10281 0.54131 0.59926
 C885 C 0.62542 0.03200 0.05084
 C886 C 0.63347 0.04198 0.01972
 C887 C 0.65580 0.05477 0.01723
 C888 C 0.67121 0.05726 0.04563
 C889 C 0.66304 0.04746 0.07703
 C890 C 0.64019 0.03516 0.07967
 C891 C 0.60097 0.01961 0.05276
 C892 C 0.59439 0.00251 0.02761
 C893 C 0.56968 -0.00488 0.02447
 C894 C 0.55094 0.00527 0.04586
 C895 C 0.55819 0.01981 0.07366
 C896 C 0.58296 0.02711 0.07693
 H897 H 0.66088 0.06279 -0.00709
 H898 H 0.67448 0.04887 0.09937
 H899 H 0.56509 -0.01675 0.00333
 H900 H 0.54458 0.02677 0.09181
 H901 H 0.63426 0.02775 0.10403
 H902 H 0.60810 -0.00395 0.00909
 H903 H 0.62224 0.04027 -0.00271
 H904 H 0.58766 0.04002 0.09688
 C905 C 0.64551 0.98113 0.42367
 C906 C 0.65580 0.97951 0.45603
 C907 C 0.67905 0.96853 0.46056
 C908 C 0.69330 0.95968 0.43259
 C909 C 0.68367 0.96325 0.39968
 C910 C 0.65973 0.97349 0.39532
 C911 C 0.61830 0.98410 0.42208
 C912 C 0.60669 1.00738 0.41804
 C913 C 0.58133 1.01054 0.42670
 C914 C 0.56761 0.99067 0.44061
 C915 C 0.57961 0.96735 0.44328
 C916 C 0.60426 0.96401 0.43332
 H917 H 0.68475 0.96556 0.48648
 H918 H 0.69410 0.95724 0.37738
 H919 H 0.57302 1.02889 0.42470
 H920 H 0.57125 0.95192 0.45615
 H921 H 0.65180 0.97416 0.37016
 H922 H 0.61752 1.02328 0.41017
 H923 H 0.64474 0.98463 0.47828
 H924 H 0.61317 0.94614 0.43776
 C925 C 0.13831 0.46551 0.94389
 C926 C 0.15345 0.46467 0.91446
 C927 C 0.17734 0.45377 0.91551
 C928 C 0.18617 0.44329 0.94591
 C929 C 0.17028 0.44309 0.97465
 C930 C 0.14683 0.45431 0.97375
 C931 C 0.11328 0.47728 0.94413
 C932 C 0.09504 0.46935 0.92158
 C933 C 0.07008 0.47625 0.92688
 C934 C 0.06295 0.49113 0.95487
 C935 C 0.08176 0.50139 0.97490
 C936 C 0.10661 0.49416 0.96996
 H937 H 0.18913 0.45418 0.89297
 H938 H 0.17606 0.43440 0.99814
 H939 H 0.05632 0.46890 0.90995
 H940 H 0.07718 0.51336 0.99623
 H941 H 0.13521 0.45411 0.99646
 H942 H 0.09983 0.45651 0.90126
 H943 H 0.14705 0.47300 0.89103
 H944 H 0.12049 0.50072 0.98747
 C945 C -0.00080 0.37819 0.45548
 C946 C -0.01649 0.36895 0.43023
 C947 C -0.01112 0.34614 0.41462
 C948 C 0.01026 0.33258 0.42363
 C949 C 0.02549 0.34141 0.44956
 C950 C 0.01990 0.36395 0.46554
 C951 C -0.00400 0.40380 0.46840
 C952 C -0.00201 0.40903 0.50318
 C953 C -0.00102 0.43361 0.51449
 C954 C -0.00198 0.45350 0.49123
 C955 C -0.00433 0.44797 0.45643
 C956 C -0.00580 0.42349 0.44527
 H957 H -0.02302 0.33957 0.39459
 H958 H 0.04199 0.33106 0.45694
 H959 H 0.00145 0.43696 0.54136
 H960 H -0.00359 0.46234 0.43728
 H961 H 0.03247 0.37085 0.48456
 H962 H -0.00040 0.39407 0.52146
 H963 H -0.03251 0.37969 0.42205
 H964 H -0.00662 0.41991 0.41821
 C965 C 0.48722 -0.12748 -0.03630
 C966 C 0.47227 -0.13830 -0.06120
 C967 C 0.47989 -0.16033 -0.07739
 C968 C 0.50287 -0.17153 -0.06949
 C969 C 0.51749 -0.16103 -0.04403
 C970 C 0.50964 -0.13935 -0.02738
 C971 C 0.48115 -0.10253 -0.02235
 C972 C 0.48303 -0.09764 0.01256
 C973 C 0.48175 -0.07321 0.02469
 C974 C 0.47886 -0.05305 0.00212
 C975 C 0.47593 -0.05833 -0.03269
 C976 C 0.47664 -0.08273 -0.04463
 H977 H 0.46837 -0.16809 -0.09702
 H978 H 0.53521 -0.16944 -0.03743
 H979 H 0.48450 -0.07006 0.05155
 H980 H 0.47500 -0.04368 -0.05139
 H981 H 0.52168 -0.13120 -0.00865
 H982 H 0.48655 -0.11265 0.03026
 H983 H 0.45496 -0.12941 -0.06859
 H984 H 0.47564 -0.08596 -0.07175
 C985 C -0.00642 -0.13521 1.05016
 C986 C -0.02718 -0.14936 1.04147
 C987 C -0.03205 -0.17169 1.05831
 C988 C -0.01595 -0.18045 1.08356
 C989 C 0.00542 -0.16687 1.09123
 C990 C 0.00997 -0.14423 1.07496
 C991 C -0.00364 -0.10986 1.03625
 C992 C -0.00331 -0.08971 1.05865
 C993 C -0.00430 -0.06548 1.04632
 C994 C -0.00465 -0.06059 1.01110
 C995 C -0.00424 -0.08097 0.98863
 C996 C -0.00387 -0.10536 1.00110
 H997 H -0.04852 -0.18204 1.05189
 H998 H 0.01807 -0.17340 1.11060
 H999 H -0.00584 -0.05066 1.06479
 H1000 H -0.00526 -0.07812 0.96144
 H1001 H 0.02602 -0.13350 1.08214
 H1002 H -0.00376 -0.09275 1.08588
 H1003 H -0.04021 -0.14259 1.02272
 H1004 H -0.00438 -0.12072 0.98338
 C1005 C 0.50603 0.36297 0.53272
 C1006 C 0.52357 0.35146 0.55393
 C1007 C 0.51722 0.33035 0.57263
 C1008 C 0.49318 0.32046 0.57061
 C1009 C 0.47591 0.33151 0.54857
 C1010 C 0.48230 0.35253 0.52974
 C1011 C 0.51123 0.38740 0.51713
 C1012 C 0.50365 0.39300 0.48393
 C1013 C 0.50454 0.41742 0.47179
 C1014 C 0.51270 0.43671 0.49287
 C1015 C 0.52177 0.43057 0.52531
 C1016 C 0.52122 0.40624 0.53714
 H1017 H 0.53086 0.32221 0.58949
 H1018 H 0.45738 0.32401 0.54615
 H1019 H 0.49738 0.42131 0.44675
 H1020 H 0.52822 0.44478 0.54244
 H1021 H 0.46831 0.36126 0.51397
 H1022 H 0.49607 0.37868 0.46791
 H1023 H 0.54199 0.35915 0.55661
 H1024 H 0.52697 0.40251 0.56295
 C1025 C 0.50381 1.12978 0.53006
 C1026 C 0.52608 1.14242 0.52356
 C1027 C 0.53185 1.16360 0.54232
 C1028 C 0.51527 1.17262 0.56752
 C1029 C 0.49238 1.16073 0.57265
 C1030 C 0.48680 1.13937 0.55427
 C1031 C 0.50050 1.10449 0.51649
 C1032 C 0.49815 1.08499 0.53965
 C1033 C 0.49848 1.06056 0.52850
 C1034 C 0.49980 1.05468 0.49354
 C1035 C 0.50164 1.07445 0.47016
 C1036 C 0.50220 1.09917 0.48157
 H1037 H 0.54945 1.17269 0.53757
 H1038 H 0.47930 1.16734 0.59190
 H1039 H 0.49834 1.04631 0.54789
 H1040 H 0.50369 1.07079 0.44320
 H1041 H 0.46962 1.12971 0.55987
 H1042 H 0.49752 1.08860 0.56675
 H1043 H 0.53961 1.13512 0.50537
 H1044 H 0.50449 1.11405 0.46331
 C1045 C -0.00126 0.62666 1.03697
 C1046 C 0.02340 0.63477 1.03828
 C1047 C 0.02937 0.65597 1.05685
 C1048 C 0.01069 0.66994 1.07414
 C1049 C -0.01426 0.66199 1.07150
 C1050 C -0.02005 0.64044 1.05355
 C1051 C -0.00659 0.60202 1.02265
 C1052 C -0.01157 0.58245 1.04496
 C1053 C -0.01223 0.55812 1.03307
 C1054 C -0.00891 0.55270 0.99819
 C1055 C -0.00523 0.57272 0.97559
 C1056 C -0.00380 0.59713 0.98778
 H1057 H 0.04866 0.66160 1.05682
 H1058 H -0.02931 0.67140 1.08501
 H1059 H -0.01352 0.54359 1.05192
 H1060 H -0.00196 0.56940 0.94875
 H1061 H -0.03914 0.63411 1.05335
 H1062 H -0.01318 0.58583 1.07206
 H1063 H 0.03819 0.62416 1.02589
 H1064 H 0.00037 0.61207 0.97022
 C1065 C 0.50441 0.62957 -0.04929
 C1066 C 0.52318 0.64540 -0.06103
 C1067 C 0.51696 0.66830 -0.07597
 C1068 C 0.49174 0.67550 -0.08020
 C1069 C 0.47319 0.65948 -0.06721
 C1070 C 0.47947 0.63692 -0.05203
 C1071 C 0.51009 0.60439 -0.03679
 C1072 C 0.51058 0.58465 -0.05985
 C1073 C 0.51043 0.56017 -0.04821
 C1074 C 0.51041 0.55477 -0.01312
 C1075 C 0.51087 0.57484 0.00990
 C1076 C 0.51068 0.59941 -0.00185
 H1077 H 0.53200 0.67951 -0.08589
 H1078 H 0.45361 0.66446 -0.06786
 H1079 H 0.50912 0.54557 -0.06695
 H1080 H 0.51005 0.57163 0.03706
 H1081 H 0.46477 0.62490 -0.04292
 H1082 H 0.50950 0.58821 -0.08690
 H1083 H 0.54257 0.63978 -0.05939
 H1084 H 0.50970 0.61450 0.01631
 C1085 C 0.00485 1.14204 0.47781
 C1086 C -0.01972 1.15105 0.47785
 C1087 C -0.02604 1.17200 0.45879
 C1088 C -0.00780 1.18485 0.43972
 C1089 C 0.01724 1.17661 0.44190
 C1090 C 0.02336 1.15509 0.46011
 C1091 C 0.00993 1.11708 0.49160
 C1092 C 0.01482 1.09763 0.46886
 C1093 C 0.01384 1.07307 0.47986
 C1094 C 0.00894 1.06729 0.51423
 C1095 C 0.00569 1.08707 0.53741
 C1096 C 0.00587 1.11174 0.52610
 H1097 H -0.04531 1.17818 0.45940
 H1098 H 0.03193 1.18551 0.42742
 H1099 H 0.01503 1.05880 0.46065
 H1100 H 0.00149 1.08351 0.56395
 H1101 H 0.04237 1.14811 0.45941
 H1102 H 0.01735 1.10140 0.44198
 H1103 H -0.03428 1.14110 0.49128
 H1104 H 0.00173 1.12658 0.54393
 C1105 C 0.78710 0.66243 0.87823
 C1106 C 0.80877 0.65310 0.89311
 C1107 C 0.80799 0.63115 0.91214
 C1108 C 0.78541 0.61803 0.91647
 C1109 C 0.76427 0.62690 0.89897
 C1110 C 0.76508 0.64890 0.88047
 C1111 C 0.78672 0.68657 0.86095
 C1112 C 0.79847 0.68939 0.82930
 C1113 C 0.79327 0.71026 0.80946
 C1114 C 0.77627 0.72869 0.82104
 C1115 C 0.76653 0.72672 0.85433
 C1116 C 0.77153 0.70573 0.87393
 H1117 H 0.82478 0.62572 0.92520
 H1118 H 0.74690 0.61690 0.89921
 H1119 H 0.80089 0.71060 0.78394
 H1120 H 0.75350 0.74040 0.86445
 H1121 H 0.74837 0.65556 0.86807
 H1122 H 0.81007 0.67458 0.81885
 H1123 H 0.82598 0.66335 0.89125
 H1124 H 0.76238 0.70376 0.89849
 C1125 C 0.29087 0.16016 0.39339
 C1126 C 0.28259 0.15972 0.42749
 C1127 C 0.28168 0.13757 0.44567
 C1128 C 0.29060 0.11519 0.43135
 C1129 C 0.30117 0.11582 0.39846
 C1130 C 0.30056 0.13782 0.37932
 C1131 C 0.28787 0.18334 0.37247
 C1132 C 0.30165 0.18702 0.34219
 C1133 C 0.29633 0.20709 0.32076
 C1134 C 0.27783 0.22479 0.32958
 C1135 C 0.26529 0.22204 0.36089
 C1136 C 0.26982 0.20150 0.38155
 H1137 H 0.27463 0.13818 0.47161
 H1138 H 0.30822 0.09896 0.38656
 H1139 H 0.30576 0.20762 0.29642
 H1140 H 0.25054 0.23482 0.36855
 H1141 H 0.30689 0.13684 0.35315
 H1142 H 0.31608 0.17405 0.33417
 H1143 H 0.27649 0.17641 0.44052
 H1144 H 0.25796 0.19950 0.40376
 C1145 C 0.71948 0.34773 0.36845
 C1146 C 0.74048 0.36294 0.36660
 C1147 C 0.74095 0.38530 0.38450
 C1148 C 0.72052 0.39272 0.40502
 C1149 C 0.69895 0.37804 0.40528
 C1150 C 0.69841 0.35574 0.38699
 C1151 C 0.72085 0.32258 0.35373
 C1152 C 0.70778 0.31663 0.32434
 C1153 C 0.71235 0.29395 0.30784
 C1154 C 0.73004 0.27682 0.32052
 C1155 C 0.74156 0.28232 0.35155
 C1156 C 0.73716 0.30501 0.36775
 H1157 H 0.75766 0.39636 0.38330
 H1158 H 0.68303 0.38301 0.42116
 H1159 H 0.70342 0.29090 0.28381
 H1160 H 0.75528 0.26986 0.36239
 H1161 H 0.68210 0.34413 0.38875
 H1162 H 0.69521 0.33009 0.31308
 H1163 H 0.75683 0.35706 0.35213
 H1164 H 0.74729 0.30930 0.39060
 C1165 C 0.20723 0.84530 0.87207
 C1166 C 0.18481 0.85174 0.88847
 C1167 C 0.18379 0.87204 0.91070
 C1168 C 0.20534 0.88616 0.91703
 C1169 C 0.22715 0.88051 0.89787
 C1170 C 0.22810 0.86023 0.87598
 C1171 C 0.20998 0.82205 0.85289
 C1172 C 0.22467 0.80282 0.86618
 C1173 C 0.23164 0.78260 0.84595
 C1174 C 0.22433 0.78142 0.81178
 C1175 C 0.20808 0.80006 0.79944
 C1176 C 0.20097 0.82021 0.81985
 H1177 H 0.16657 0.87515 0.92475
 H1178 H 0.24375 0.89160 0.89975
 H1179 H 0.24409 0.76879 0.85661
 H1180 H 0.20235 0.80033 0.77326
 H1181 H 0.24540 0.85576 0.86269
 H1182 H 0.23180 0.80410 0.89175
 H1183 H 0.16850 0.84033 0.88545
 H1184 H 0.18985 0.83512 0.80914
 C1185 C 0.28808 0.83711 0.11159
 C1186 C 0.27204 0.83590 0.08395
 C1187 C 0.26934 0.85614 0.06215
 C1188 C 0.28278 0.87818 0.06736
 C1189 C 0.30015 0.87852 0.09409
 C1190 C 0.30246 0.85830 0.11625
 C1191 C 0.28451 0.81945 0.13959
 C1192 C 0.29814 0.79713 0.14211
 C1193 C 0.29151 0.77943 0.16685
 C1194 C 0.27107 0.78390 0.18895
 C1195 C 0.25801 0.80669 0.18615
 C1196 C 0.26480 0.82421 0.16212
 H1197 H 0.25671 0.85427 0.04113
 H1198 H 0.31058 0.89504 0.09982
 H1199 H 0.30170 0.76199 0.16773
 H1200 H 0.24183 0.81100 0.20181
 H1201 H 0.31428 0.85982 0.13824
 H1202 H 0.31325 0.79311 0.12436
 H1203 H 0.26048 0.81976 0.08040
 H1204 H 0.25384 0.84117 0.16003
 C1205 C 0.79890 0.34207 0.59455
 C1206 C 0.79738 0.34082 0.55891
 C1207 C 0.79597 0.36247 0.53953
 C1208 C 0.79669 0.38576 0.55528
 C1209 C 0.79970 0.38726 0.59050
 C1210 C 0.80060 0.36558 0.61005
 C1211 C 0.79623 0.31926 0.61559
 C1212 C 0.80771 0.31717 0.64737
 C1213 C 0.80161 0.29780 0.66947
 C1214 C 0.78414 0.27982 0.66020
 C1215 C 0.77430 0.28082 0.62727
 C1216 C 0.78009 0.30036 0.60541
 H1217 H 0.79404 0.36109 0.51222
 H1218 H 0.80040 0.40518 0.60294
 H1219 H 0.80945 0.29802 0.69457
 H1220 H 0.76068 0.26751 0.61902
 H1221 H 0.80153 0.36735 0.63739
 H1222 H 0.82064 0.33109 0.65580
 H1223 H 0.79674 0.32310 0.54598
 H1224 H 0.77055 0.30140 0.58139
 C1225 C 0.21430 0.15497 0.62295
 C1226 C 0.19856 0.13457 0.62840
 C1227 C 0.20061 0.11346 0.60774
 C1228 C 0.21814 0.11245 0.58082
 C1229 C 0.23347 0.13305 0.57511
 C1230 C 0.23187 0.15373 0.59614
 C1231 C 0.21398 0.17686 0.64607
 C1232 C 0.22176 0.20015 0.63404
 C1233 C 0.22792 0.21889 0.65668
 C1234 C 0.22556 0.21515 0.69193
 C1235 C 0.21360 0.19356 0.70347
 C1236 C 0.20859 0.17426 0.68097
 H1237 H 0.18856 0.09790 0.61300
 H1238 H 0.24668 0.13345 0.55409
 H1239 H 0.23573 0.23577 0.64634
 H1240 H 0.20964 0.19069 0.73017
 H1241 H 0.24491 0.16858 0.59153
 H1242 H 0.22449 0.20353 0.60713
 H1243 H 0.18464 0.13482 0.64857
 H1244 H 0.20207 0.15687 0.69139
 C1245 C 0.70252 0.65242 0.11706
 C1246 C 0.69563 0.62817 0.12612
 C1247 C 0.69679 0.60906 0.10210
 C1248 C 0.70539 0.61387 0.06893
 C1249 C 0.71092 0.63838 0.05944
 C1250 C 0.70933 0.65756 0.08328
 C1251 C 0.70787 0.67071 0.14375
 C1252 C 0.69780 0.69492 0.14359
 C1253 C 0.70559 0.71248 0.16753
 C1254 C 0.72370 0.70611 0.19176
 C1255 C 0.73450 0.68221 0.18990
 C1256 C 0.72617 0.66458 0.16722
 H1257 H 0.69229 0.59032 0.10985
 H1258 H 0.71720 0.64254 0.03379
 H1259 H 0.69814 0.73119 0.16613
 H1260 H 0.75048 0.67719 0.20451
 H1261 H 0.71509 0.67604 0.07596
 H1262 H 0.68430 0.70029 0.12465
 H1263 H 0.69059 0.62383 0.15219
 H1264 H 0.73520 0.64646 0.16661
 C1265 C 0.21882 0.61626 0.17487
 C1266 C 0.23425 0.59511 0.17778
 C1267 C 0.22413 0.57135 0.17671
 C1268 C 0.19845 0.56822 0.17223
 C1269 C 0.18329 0.58914 0.16661
 C1270 C 0.19334 0.61297 0.16809
 C1271 C 0.22851 0.64143 0.18257
 C1272 C 0.21902 0.66256 0.16602
 C1273 C 0.22503 0.68634 0.17719
 C1274 C 0.24050 0.68962 0.20539
 C1275 C 0.25197 0.66852 0.21969
 C1276 C 0.24576 0.64472 0.20877
 H1277 H 0.23615 0.55538 0.18105
 H1278 H 0.16337 0.58714 0.16360
 H1279 H 0.21691 0.70207 0.16421
 H1280 H 0.26441 0.67022 0.24097
 H1281 H 0.18079 0.62878 0.16618
 H1282 H 0.20639 0.66074 0.14496
 H1283 H 0.25400 0.59690 0.18228
 H1284 H 0.25342 0.62894 0.22229
 C1285 C 0.72718 0.11300 0.69482
 C1286 C 0.71716 0.10552 0.72622
 C1287 C 0.70367 0.08369 0.72900
 C1288 C 0.70034 0.06824 0.70061
 C1289 C 0.71059 0.07562 0.66908
 C1290 C 0.72369 0.09794 0.66615
 C1291 C 0.73938 0.13748 0.69226
 C1292 C 0.75633 0.14486 0.71707
 C1293 C 0.76348 0.16964 0.71947
 C1294 C 0.75327 0.18767 0.69762
 C1295 C 0.73867 0.17964 0.67038
 C1296 C 0.73163 0.15481 0.66786
 H1297 H 0.69539 0.07924 0.75347
 H1298 H 0.70865 0.06412 0.64674
 H1299 H 0.77536 0.17488 0.74021
 H1300 H 0.73148 0.19268 0.65203
 H1301 H 0.73119 0.10340 0.64161
 H1302 H 0.76295 0.13170 0.73582
 H1303 H 0.71908 0.11700 0.74855
 H1304 H 0.71872 0.14956 0.64829
 C1305 C 0.77084 0.10284 0.32804
 C1306 C 0.77868 0.09001 0.35696
 C1307 C 0.78852 0.06585 0.35408
 C1308 C 0.79160 0.05423 0.32189
 C1309 C 0.78218 0.06721 0.29334
 C1310 C 0.77190 0.09098 0.29651
 C1311 C 0.76728 0.12996 0.32847
 C1312 C 0.78808 0.14443 0.32129
 C1313 C 0.78522 0.16912 0.31176
 C1314 C 0.76143 0.18048 0.31013
 C1315 C 0.74062 0.16623 0.32005
 C1316 C 0.74350 0.14103 0.32861
 H1317 H 0.79390 0.05670 0.37733
 H1318 H 0.78437 0.06040 0.26769
 H1319 H 0.80164 0.17782 0.30193
 H1320 H 0.72195 0.17399 0.31889
 H1321 H 0.76655 0.10097 0.27375
 H1322 H 0.80648 0.13593 0.31983
 H1323 H 0.77817 0.09905 0.38154
 H1324 H 0.72715 0.12990 0.33348
 C1325 C 0.28042 0.61214 0.79882
 C1326 C 0.28455 0.59939 0.82947
 C1327 C 0.29623 0.57590 0.82936
 C1328 C 0.30394 0.56462 0.79848
 C1329 C 0.30068 0.57836 0.76818
 C1330 C 0.28899 0.60148 0.76838
 C1331 C 0.26877 0.63722 0.79784
 C1332 C 0.25244 0.64360 0.77150
 C1333 C 0.24603 0.66838 0.76547
 C1334 C 0.25609 0.68733 0.78546
 C1335 C 0.26985 0.68058 0.81431
 C1336 C 0.27634 0.65578 0.82029
 H1337 H 0.29806 0.56627 0.85335
 H1338 H 0.30790 0.57184 0.74394
 H1339 H 0.23479 0.67271 0.74356
 H1340 H 0.27678 0.69448 0.83138
 H1341 H 0.28717 0.61133 0.74452
 H1342 H 0.24579 0.62952 0.75430
 H1343 H 0.27831 0.60737 0.85342
 H1344 H 0.28867 0.65139 0.84106
 C1345 C 0.28176 0.38144 0.69833
 C1346 C 0.29521 0.38992 0.72616
 C1347 C 0.30697 0.41273 0.72487
 C1348 C 0.30513 0.42795 0.69595
 C1349 C 0.29249 0.41909 0.66741
 C1350 C 0.28098 0.39581 0.66852
 C1351 C 0.26959 0.35710 0.70094
 C1352 C 0.27624 0.33796 0.67843
 C1353 C 0.26984 0.31349 0.68600
 C1354 C 0.25693 0.30777 0.71637
 C1355 C 0.24758 0.32744 0.73650
 C1356 C 0.25422 0.35186 0.72913
 H1357 H 0.31728 0.41864 0.74686
 H1358 H 0.29087 0.43043 0.64479
 H1359 H 0.27614 0.29904 0.66885
 H1360 H 0.23698 0.32392 0.75957
 H1361 H 0.27098 0.38932 0.64659
 H1362 H 0.28789 0.34167 0.65634
 H1363 H 0.29670 0.37877 0.74896
 H1364 H 0.24862 0.36650 0.74659
 C1365 C 0.77822 0.87570 0.20632
 C1366 C 0.78439 0.88591 0.23772
 C1367 C 0.79556 0.90902 0.23973
 C1368 C 0.80043 0.92344 0.21031
 C1369 C 0.79460 0.91273 0.17852
 C1370 C 0.78381 0.88909 0.17661
 C1371 C 0.76695 0.85065 0.20556
 C1372 C 0.77736 0.83165 0.18531
 C1373 C 0.77034 0.80692 0.19050
 C1374 C 0.75311 0.80072 0.21638
 C1375 C 0.74063 0.82019 0.23369
 C1376 C 0.74766 0.84481 0.22857
 H1377 H 0.80112 0.91483 0.26475
 H1378 H 0.79735 0.92277 0.15499
 H1379 H 0.77943 0.79265 0.17543
 H1380 H 0.72677 0.81644 0.25321
 H1381 H 0.77932 0.88152 0.15198
 H1382 H 0.79209 0.83568 0.16712
 H1383 H 0.78106 0.87567 0.26097
 H1384 H 0.73896 0.85920 0.24406
 C1385 C 0.71956 0.89674 0.81854
 C1386 C 0.69459 0.89929 0.82970
 C1387 C 0.68292 0.92262 0.83080
 C1388 C 0.69587 0.94384 0.82045
 C1389 C 0.72120 0.94155 0.81122
 C1390 C 0.73295 0.91826 0.81037
 C1391 C 0.73063 0.87162 0.81263
 C1392 C 0.74579 0.86678 0.78384
 C1393 C 0.75277 0.84242 0.77536
 C1394 C 0.74399 0.82233 0.79481
 C1395 C 0.73100 0.82748 0.82535
 C1396 C 0.72433 0.85177 0.83408
 H1397 H 0.66331 0.92385 0.83760
 H1398 H 0.73163 0.95773 0.80340
 H1399 H 0.76343 0.83926 0.75216
 H1400 H 0.72520 0.81276 0.84221
 H1401 H 0.75231 0.91703 0.80236
 H1402 H 0.75105 0.88161 0.76668
 H1403 H 0.68358 0.88312 0.83571
 H1404 H 0.71353 0.85493 0.85716
 C1405 C 0.22629 0.39511 0.30241
 C1406 C 0.22547 0.41115 0.33058
 C1407 C 0.21372 0.43453 0.32816
 C1408 C 0.20224 0.44193 0.29773
 C1409 C 0.20220 0.42516 0.27033
 C1410 C 0.21439 0.40232 0.27248
 C1411 C 0.23824 0.37025 0.30378
 C1412 C 0.23030 0.35276 0.32785
 C1413 C 0.23673 0.32768 0.32385
 C1414 C 0.25101 0.31964 0.29555
 C1415 C 0.26147 0.33772 0.27398
 C1416 C 0.25479 0.36272 0.27773
 H1417 H 0.21409 0.44698 0.34974
 H1418 H 0.19269 0.42964 0.24699
 H1419 H 0.22933 0.31452 0.34196
 H1420 H 0.27304 0.33244 0.25236
 H1421 H 0.21421 0.39004 0.25077
 H1422 H 0.21767 0.35820 0.34831
 H1423 H 0.23432 0.40578 0.35409
 H1424 H 0.26136 0.37601 0.25905
 C1425 C 0.12354 0.23947 0.80630
 C1426 C 0.11404 0.22452 0.83267
 C1427 C 0.09095 0.23025 0.84796
 C1428 C 0.07744 0.25134 0.83765
 C1429 C 0.08669 0.26594 0.81087
 C1430 C 0.10942 0.25992 0.79511
 C1431 C 0.14918 0.23565 0.79290
 C1432 C 0.15416 0.23574 0.75779
 C1433 C 0.17875 0.23624 0.74547
 C1434 C 0.19889 0.23694 0.76803
 C1435 C 0.19363 0.23630 0.80323
 C1436 C 0.16914 0.23519 0.81545
 H1437 H 0.08407 0.21880 0.86862
 H1438 H 0.07644 0.28223 0.80251
 H1439 H 0.18181 0.23751 0.71828
 H1440 H 0.20826 0.23806 0.82166
 H1441 H 0.11653 0.27191 0.77519
 H1442 H 0.13898 0.23638 0.73993
 H1443 H 0.12470 0.20873 0.84178
 H1444 H 0.16574 0.23575 0.84264
 C1445 C 0.61535 0.73808 0.30047
 C1446 C 0.60238 0.75953 0.29028
 C1447 C 0.58006 0.76638 0.30651
 C1448 C 0.57017 0.75165 0.33274
 C1449 C 0.58241 0.72949 0.34170
 C1450 C 0.60502 0.72288 0.32592
 C1451 C 0.64102 0.73363 0.28784
 C1452 C 0.66040 0.73207 0.31118
 C1453 C 0.68512 0.73209 0.29999
 C1454 C 0.69121 0.73276 0.26494
 C1455 C 0.67156 0.73334 0.24161
 C1456 C 0.64672 0.73394 0.25294
 H1457 H 0.57079 0.78351 0.29918
 H1458 H 0.57508 0.71795 0.36199
 H1459 H 0.69943 0.73196 0.31910
 H1460 H 0.67521 0.73477 0.21472
 H1461 H 0.61486 0.70634 0.33427
 H1462 H 0.65643 0.73227 0.33826
 H1463 H 0.61022 0.77170 0.27108
 H1464 H 0.63195 0.73544 0.23452
 C1465 C 0.62174 0.24682 0.21972
 C1466 C 0.61322 0.26405 0.19556
 C1467 C 0.59098 0.26004 0.17836
 C1468 C 0.57726 0.23842 0.18449
 C1469 C 0.58528 0.22171 0.20966
 C1470 C 0.60724 0.22598 0.22735
 C1471 C 0.64752 0.24816 0.23217
 C1472 C 0.65298 0.24840 0.26699
 C1473 C 0.67785 0.24743 0.27773
 C1474 C 0.69760 0.24580 0.25380
 C1475 C 0.69160 0.24493 0.21902
 C1476 C 0.66706 0.24672 0.20842
 H1477 H 0.58517 0.27314 0.15903
 H1478 H 0.57485 0.20500 0.21495
 H1479 H 0.68156 0.24723 0.30471
 H1480 H 0.70571 0.24201 0.19953
 H1481 H 0.61370 0.21228 0.24548
 H1482 H 0.63803 0.24900 0.28576
 H1483 H 0.62433 0.28008 0.18906
 H1484 H 0.66322 0.24568 0.18149
 C1485 C 0.12654 0.75846 0.68925
 C1486 C 0.10421 0.76615 0.70544
 C1487 C 0.08114 0.76134 0.69067
 C1488 C 0.07994 0.74888 0.65930
 C1489 C 0.10228 0.74208 0.64264
 C1490 C 0.12518 0.74649 0.65755
 C1491 C 0.15120 0.76160 0.70558
 C1492 C 0.17263 0.76488 0.68532
 C1493 C 0.19623 0.76323 0.69934
 C1494 C 0.19931 0.75985 0.73452
 C1495 C 0.17777 0.75807 0.75521
 C1496 C 0.15400 0.75886 0.74091
 H1497 H 0.06426 0.76671 0.70429
 H1498 H 0.10212 0.73291 0.61816
 H1499 H 0.21199 0.76338 0.68194
 H1500 H 0.17927 0.75479 0.78227
 H1501 H 0.14179 0.73973 0.64450
 H1502 H 0.17131 0.76760 0.65814
 H1503 H 0.10453 0.77565 0.72966
 H1504 H 0.13796 0.75593 0.75735
 C1505 C 0.88080 0.75643 0.70994
 C1506 C 0.88987 0.78063 0.71146
 C1507 C 0.91192 0.78680 0.69452
 C1508 C 0.92579 0.76878 0.67601
 C1509 C 0.91715 0.74408 0.67625
 C1510 C 0.89460 0.73812 0.69250
 C1511 C 0.85556 0.75150 0.72319
 C1512 C 0.83611 0.74882 0.70025
 C1513 C 0.81141 0.74948 0.71171
 C1514 C 0.80555 0.75181 0.74662
 C1515 C 0.82536 0.75345 0.76967
 C1516 C 0.85011 0.75347 0.75802
 H1517 H 0.91824 0.80575 0.69661
 H1518 H 0.92679 0.72961 0.66203
 H1519 H 0.79701 0.74959 0.69275
 H1520 H 0.82174 0.75599 0.79659
 H1521 H 0.88760 0.71938 0.69078
 H1522 H 0.83999 0.74801 0.67317
 H1523 H 0.87935 0.79500 0.72476
 H1524 H 0.86496 0.75606 0.77601
 C1525 C 0.38355 0.25042 0.21256
 C1526 C 0.39436 0.23372 0.18911
 C1527 C 0.41639 0.23976 0.17179
 C1528 C 0.42762 0.26283 0.17712
 C1529 C 0.41704 0.27935 0.20099
 C1530 C 0.39529 0.27311 0.21878
 C1531 C 0.35864 0.24570 0.22746
 C1532 C 0.35386 0.24895 0.26234
 C1533 C 0.32940 0.24845 0.27512
 C1534 C 0.30916 0.24506 0.25318
 C1535 C 0.31438 0.24111 0.21835
 C1536 C 0.33878 0.24091 0.20584
 H1537 H 0.42426 0.22677 0.15347
 H1538 H 0.42555 0.29714 0.20571
 H1539 H 0.32627 0.25217 0.30189
 H1540 H 0.29966 0.23992 0.19997
 H1541 H 0.38705 0.28642 0.23638
 H1542 H 0.36897 0.25283 0.27944
 H1543 H 0.38549 0.21620 0.18380
 H1544 H 0.34198 0.23893 0.17872
 C1545 C 0.37490 0.74658 0.30506
 C1546 C 0.38616 0.72299 0.30232
 C1547 C 0.40754 0.71723 0.32070
 C1548 C 0.41819 0.73502 0.34197
 C1549 C 0.40727 0.75881 0.34416
 C1550 C 0.38570 0.76449 0.32605
 C1551 C 0.35087 0.75165 0.28820
 C1552 C 0.33088 0.76187 0.30695
 C1553 C 0.30711 0.76301 0.29315
 C1554 C 0.30279 0.75444 0.25991
 C1555 C 0.32325 0.74571 0.24041
 C1556 C 0.34702 0.74420 0.25449
 H1557 H 0.41582 0.69886 0.31821
 H1558 H 0.41515 0.77283 0.36040
 H1559 H 0.29193 0.76975 0.30916
 H1560 H 0.32079 0.73873 0.21491
 H1561 H 0.37734 0.78281 0.32858
 H1562 H 0.33330 0.76758 0.33308
 H1563 H 0.37800 0.70874 0.28672
 H1564 H 0.36225 0.73643 0.23944
 C1565 C 0.88464 0.25114 0.78299
 C1566 C 0.89621 0.22791 0.77777
 C1567 C 0.91666 0.22068 0.79730
 C1568 C 0.92618 0.23674 0.82195
 C1569 C 0.91530 0.26043 0.82607
 C1570 C 0.89455 0.26746 0.80701
 C1571 C 0.86047 0.25682 0.76684
 C1572 C 0.83980 0.26262 0.78752
 C1573 C 0.81599 0.26364 0.77395
 C1574 C 0.81211 0.25995 0.73890
 C1575 C 0.83318 0.25555 0.71786
 C1576 C 0.85708 0.25376 0.73175
 H1577 H 0.92490 0.20243 0.79341
 H1578 H 0.92230 0.27314 0.84490
 H1579 H 0.80052 0.26610 0.79160
 H1580 H 0.83108 0.25200 0.69097
 H1581 H 0.88584 0.28543 0.81155
 H1582 H 0.84185 0.26462 0.81474
 H1583 H 0.88871 0.21490 0.75970
 H1584 H 0.87282 0.24915 0.71533
 C1585 C 0.60427 0.99089 0.60836
 C1586 C 0.61185 1.01572 0.60983
 C1587 C 0.62819 1.02367 0.63469
 C1588 C 0.63763 1.00703 0.65920
 C1589 C 0.62922 0.98212 0.65809
 C1590 C 0.61269 0.97423 0.63307
 C1591 C 0.58883 0.98284 0.57950
 C1592 C 0.56577 0.97105 0.58415
 C1593 C 0.54911 0.96921 0.55689
 C1594 C 0.55524 0.97934 0.52478
 C1595 C 0.57940 0.98903 0.52026
 C1596 C 0.59597 0.99028 0.54686
 H1597 H 0.63256 1.04321 0.63498
 H1598 H 0.63619 0.96815 0.67538
 H1599 H 0.53067 0.96195 0.56179
 H1600 H 0.58508 0.99849 0.49746
 H1601 H 0.60723 0.95494 0.63227
 H1602 H 0.55988 0.96505 0.60925
 H1603 H 0.60509 1.02912 0.59148
 H1604 H 0.61374 0.99919 0.54252
 C1605 C 0.10274 0.47876 1.10129
 C1606 C 0.12462 0.48866 1.08679
 C1607 C 0.14328 0.49830 1.10747
 C1608 C 0.14049 0.49819 1.14308
 C1609 C 0.11898 0.48744 1.15743
 C1610 C 0.10050 0.47772 1.13686
 C1611 C 0.08102 0.47289 1.07968
 C1612 C 0.05715 0.48121 1.08963
 C1613 C 0.03761 0.48124 1.06669
 C1614 C 0.04146 0.47330 1.03285
 C1615 C 0.06423 0.46131 1.02472
 C1616 C 0.08403 0.46161 1.04765
 H1617 H 0.15971 0.50616 1.09558
 H1618 H 0.11589 0.48733 1.18468
 H1619 H 0.02017 0.48967 1.07495
 H1620 H 0.06761 0.45372 0.99962
 H1621 H 0.08399 0.47009 1.14886
 H1622 H 0.05396 0.48974 1.11425
 H1623 H 0.12679 0.49003 1.05945
 H1624 H 0.10200 0.45418 1.03971
 C1625 C -0.11570 0.01262 1.11362
 C1626 C -0.13490 -0.00350 1.10457
 C1627 C -0.15134 -0.01298 1.12934
 C1628 C -0.14918 -0.00646 1.16402
 C1629 C -0.13028 0.01059 1.17235
 C1630 C -0.11395 0.01990 1.14765
 C1631 C -0.09556 0.01900 1.08882
 C1632 C -0.07059 0.01599 1.09823
 C1633 C -0.05156 0.01647 1.07377
 C1634 C -0.05700 0.01957 1.03903
 C1635 C -0.08141 0.02705 1.03074
 C1636 C -0.10072 0.02591 1.05515
 H1637 H -0.16584 -0.02520 1.12089
 H1638 H -0.12662 0.01576 1.19832
 H1639 H -0.03285 0.01216 1.08206
 H1640 H -0.08597 0.03223 1.00504
 H1641 H -0.09927 0.03220 1.15546
 H1642 H -0.06584 0.01119 1.12411
 H1643 H -0.13657 -0.00964 1.07850
 H1644 H -0.11974 0.02949 1.04748
 C1645 C 0.39564 0.51096 0.60163
 C1646 C 0.37546 0.49671 0.59101
 C1647 C 0.35712 0.48916 0.61443
 C1648 C 0.35831 0.49607 0.64903
 C1649 C 0.37820 0.51150 0.65878
 C1650 C 0.39656 0.51864 0.63550
 C1651 C 0.41753 0.51449 0.57903
 C1652 C 0.44075 0.50533 0.58930
 C1653 C 0.46078 0.50433 0.56646
 C1654 C 0.45811 0.51253 0.53264
 C1655 C 0.43574 0.52479 0.52398
 C1656 C 0.41533 0.52507 0.54662
 H1657 H 0.34199 0.47805 0.60514
 H1658 H 0.38102 0.51670 0.68496
 H1659 H 0.47785 0.49568 0.57507
 H1660 H 0.43337 0.53283 0.49905
 H1661 H 0.41218 0.52935 0.64431
 H1662 H 0.44299 0.49740 0.61441
 H1663 H 0.37454 0.49040 0.56492
 H1664 H 0.39769 0.53289 0.53854
 C1665 C 0.39378 0.47957 -0.10702
 C1666 C 0.39622 0.47438 -0.14182
 C1667 C 0.37829 0.48262 -0.16458
 C1668 C 0.35693 0.49583 -0.15324
 C1669 C 0.35383 0.50006 -0.11813
 C1670 C 0.37209 0.49199 -0.09522
 C1671 C 0.41535 0.47525 -0.08433
 C1672 C 0.41231 0.46700 -0.05066
 C1673 C 0.43242 0.46737 -0.02818
 C1674 C 0.45554 0.47710 -0.03863
 C1675 C 0.45914 0.48208 -0.07353
 C1676 C 0.43932 0.48142 -0.09589
 H1677 H 0.38182 0.47941 -0.19138
 H1678 H 0.33754 0.50994 -0.10846
 H1679 H 0.42929 0.46162 -0.00215
 H1680 H 0.47682 0.48842 -0.08357
 H1681 H 0.36982 0.49649 -0.06852
 H1682 H 0.39422 0.46113 -0.04155
 H1683 H 0.41257 0.46469 -0.15171
 H1684 H 0.44252 0.48758 -0.12177
 C1685 C -0.10431 0.98430 0.40800
 C1686 C -0.10059 0.98112 0.37286
 C1687 C -0.11988 0.98591 0.35022
 C1688 C -0.14352 0.99383 0.36209
 C1689 C -0.14759 0.99592 0.39738
 C1690 C -0.12820 0.99119 0.42010
 C1691 C -0.08275 0.98340 0.43137
 C1692 C -0.08483 0.97328 0.46421
 C1693 C -0.06567 0.97625 0.48768
 C1694 C -0.04417 0.98978 0.47901
 C1695 C -0.04133 0.99782 0.44509
 C1696 C -0.06035 0.99477 0.42174
 H1697 H -0.11589 0.98436 0.32325
 H1698 H -0.16564 1.00169 0.40739
 H1699 H -0.06846 0.96919 0.51316
 H1700 H -0.02507 1.00795 0.43674
 H1701 H -0.13160 0.99409 0.44700
 H1702 H -0.10160 0.96376 0.47204
 H1703 H -0.08248 0.97564 0.36275
 H1704 H -0.05806 1.00281 0.39667
 C1705 C 0.11163 0.53078 0.38744
 C1706 C 0.10859 0.53485 0.35250
 C1707 C 0.12629 0.52610 0.32903
 C1708 C 0.14798 0.51354 0.33976
 C1709 C 0.15179 0.51081 0.37491
 C1710 C 0.13377 0.51928 0.39850
 C1711 C 0.09025 0.53494 0.41133
 C1712 C 0.09355 0.54344 0.44474
 C1713 C 0.07381 0.54258 0.46851
 C1714 C 0.05088 0.53206 0.45971
 C1715 C 0.04691 0.52668 0.42518
 C1716 C 0.06632 0.52792 0.40147
 H1717 H 0.12220 0.52822 0.30232
 H1718 H 0.16838 0.50158 0.38419
 H1719 H 0.07716 0.54855 0.49425
 H1720 H 0.02933 0.51960 0.41649
 H1721 H 0.13656 0.51564 0.42526
 H1722 H 0.11161 0.54978 0.45281
 H1723 H 0.09190 0.54386 0.34312
 H1724 H 0.06292 0.52144 0.37592
 C1725 C 0.59248 0.02505 -0.10100
 C1726 C 0.59009 0.02706 -0.13637
 C1727 C 0.60918 0.01887 -0.15812
 C1728 C 0.63148 0.00886 -0.14517
 C1729 C 0.63437 0.00790 -0.10971
 C1730 C 0.61505 0.01589 -0.08784
 C1731 C 0.57039 0.02901 -0.07838
 C1732 C 0.57251 0.03955 -0.04593
 C1733 C 0.55285 0.03794 -0.02222
 C1734 C 0.53083 0.02546 -0.03047
 C1735 C 0.52772 0.01809 -0.06453
 C1736 C 0.54729 0.01958 -0.08797
 H1737 H 0.60597 0.01958 -0.18520
 H1738 H 0.65139 0.00063 -0.09885
 H1739 H 0.55578 0.04478 0.00322
 H1740 H 0.51090 0.00920 -0.07284
 H1741 H 0.61734 0.01380 -0.06067
 H1742 H 0.58975 0.04801 -0.03848
 H1743 H 0.57303 0.03418 -0.14730
 H1744 H 0.54482 0.01149 -0.11286
 C1745 C 0.62856 0.51869 -0.01286
 C1746 C 0.63467 0.52322 0.02100
 C1747 C 0.65636 0.53554 0.02915
 C1748 C 0.67307 0.54334 0.00350
 C1749 C 0.66779 0.53718 -0.03058
 C1750 C 0.64539 0.52548 -0.03872
 C1751 C 0.60344 0.50915 -0.01995
 C1752 C 0.59429 0.48922 -0.00080
 C1753 C 0.56876 0.48516 0.00172
 C1754 C 0.55167 0.50120 -0.01449
 C1755 C 0.56117 0.51887 -0.03744
 C1756 C 0.58687 0.52299 -0.03995
 H1757 H 0.65999 0.53888 0.05576
 H1758 H 0.67987 0.54308 -0.05125
 H1759 H 0.56260 0.47054 0.01860
 H1760 H 0.54891 0.53072 -0.05168
 H1761 H 0.64096 0.52224 -0.06511
 H1762 H 0.60677 0.47805 0.01451
 H1763 H 0.62191 0.51816 0.04118
 H1764 H 0.59354 0.53837 -0.05518
 C1765 C 0.12779 1.03086 0.50075
 C1766 C 0.13290 1.05586 0.49369
 C1767 C 0.15674 1.06515 0.49857
 C1768 C 0.17594 1.04954 0.51012
 C1769 C 0.17142 1.02417 0.51480
 C1770 C 0.14743 1.01490 0.51034
 C1771 C 0.10156 1.02267 0.50282
 C1772 C 0.09313 1.00988 0.53173
 C1773 C 0.06775 1.00609 0.53718
 C1774 C 0.05004 1.01528 0.51403
 C1775 C 0.05873 1.02604 0.48362
 C1776 C 0.08420 1.03006 0.47829
 H1777 H 0.15994 1.08480 0.49493
 H1778 H 0.18604 1.01192 0.52388
 H1779 H 0.06207 0.99715 0.56063
 H1780 H 0.04597 1.03181 0.46417
 H1781 H 0.14396 0.99552 0.51578
 H1782 H 0.10604 1.00411 0.55123
 H1783 H 0.11810 1.06863 0.48667
 H1784 H 0.09031 1.03950 0.45538
 C1785 C 0.11411 -0.03466 1.01268
 C1786 C 0.11671 -0.06054 1.00977
 C1787 C 0.13976 -0.07126 1.00133
 C1788 C 0.16075 -0.05635 0.99603
 C1789 C 0.15851 -0.03056 1.00058
 C1790 C 0.13529 -0.01976 1.00853
 C1791 C 0.08884 -0.02346 1.01553
 C1792 C 0.08148 -0.00528 0.99215
 C1793 C 0.05640 0.00130 0.98918
 C1794 C 0.03798 -0.01029 1.00947
 C1795 C 0.04587 -0.02619 1.03563
 C1796 C 0.07099 -0.03310 1.03824
 H1797 H 0.14110 -0.09121 0.99809
 H1798 H 0.17446 -0.01873 0.99646
 H1799 H 0.05149 0.01408 0.96906
 H1800 H 0.03263 -0.03437 1.05294
 H1801 H 0.13370 0.00026 1.01056
 H1802 H 0.09484 0.00243 0.97427
 H1803 H 0.10062 -0.07241 1.01228
 H1804 H 0.07633 -0.04680 1.05703
 C1805 C 0.63406 0.47975 0.49212
 C1806 C 0.64035 0.47637 0.45776
 C1807 C 0.66380 0.46731 0.44811
 C1808 C 0.68180 0.46124 0.47265
 C1809 C 0.67625 0.46730 0.50699
 C1810 C 0.65242 0.47612 0.51664
 C1811 C 0.60734 0.48135 0.50153
 C1812 C 0.59557 0.50359 0.51181
 C1813 C 0.56933 0.50544 0.51257
 C1814 C 0.55463 0.48523 0.50238
 C1815 C 0.56703 0.46267 0.49448
 C1816 C 0.59281 0.46072 0.49455
 H1817 H 0.66748 0.46451 0.42125
 H1818 H 0.68920 0.46295 0.52701
 H1819 H 0.56072 0.52325 0.51831
 H1820 H 0.55747 0.44703 0.48417
 H1821 H 0.64781 0.47830 0.54337
 H1822 H 0.60656 0.51985 0.51704
 H1823 H 0.62645 0.47911 0.43844
 H1824 H 0.60155 0.44351 0.48608
 C1825 C -0.11954 0.48094 0.48385
 C1826 C -0.14096 0.49467 0.49360
 C1827 C -0.16376 0.48275 0.49899
 C1828 C -0.16532 0.45692 0.49514
 C1829 C -0.14424 0.44341 0.48399
 C1830 C -0.12162 0.45528 0.47833
 C1831 C -0.09450 0.49235 0.48324
 C1832 C -0.07648 0.48525 0.45874
 C1833 C -0.05149 0.49166 0.46261
 C1834 C -0.04392 0.50477 0.49143
 C1835 C -0.06252 0.51433 0.51369
 C1836 C -0.08745 0.50799 0.50983
 H1837 H -0.17985 0.49346 0.50760
 H1838 H -0.14514 0.42347 0.48061
 H1839 H -0.03811 0.48544 0.44372
 H1840 H -0.05776 0.52507 0.53586
 H1841 H -0.10543 0.44411 0.47135
 H1842 H -0.08156 0.47383 0.43734
 H1843 H -0.13990 0.51449 0.49790
 H1844 H -0.10083 0.51377 0.52920
 C1845 C 0.36137 -0.02445 -0.00557
 C1846 C 0.33997 -0.01152 0.00612
 C1847 C 0.31756 -0.02409 0.01159
 C1848 C 0.31644 -0.04974 0.00577
 C1849 C 0.33737 -0.06232 -0.00764
 C1850 C 0.35958 -0.04980 -0.01338
 C1851 C 0.38627 -0.01287 -0.00523
 C1852 C 0.40421 -0.01868 -0.03042
 C1853 C 0.42920 -0.01278 -0.02580
 C1854 C 0.43683 -0.00141 0.00435
 C1855 C 0.41837 0.00699 0.02759
 C1856 C 0.39341 0.00111 0.02301
 H1857 H 0.30156 -0.01414 0.02201
 H1858 H 0.33678 -0.08212 -0.01235
 H1859 H 0.44254 -0.01800 -0.04531
 H1860 H 0.42328 0.01647 0.05076
 H1861 H 0.37579 -0.06037 -0.02192
 H1862 H 0.39907 -0.02883 -0.05297
 H1863 H 0.34083 0.00806 0.01217
 H1864 H 0.38006 0.00586 0.04293
 C1865 C 0.37876 1.02217 0.49656
 C1866 C 0.36431 1.03266 0.52300
 C1867 C 0.34061 1.04251 0.51650
 C1868 C 0.33115 1.04242 0.48336
 C1869 C 0.34523 1.03127 0.45715
 C1870 C 0.36873 1.02104 0.46374
 C1871 C 0.40490 1.01407 0.50217
 C1872 C 0.42143 1.02921 0.51986
 C1873 C 0.44705 1.02393 0.51938
 C1874 C 0.45681 1.00369 0.50079
 C1875 C 0.43959 0.98695 0.48677
 C1876 C 0.41410 0.99225 0.48708
 H1877 H 0.33013 1.05123 0.53707
 H1878 H 0.33825 1.03099 0.43147
 H1879 H 0.45897 1.03651 0.53222
 H1880 H 0.44565 0.97040 0.47333
 H1881 H 0.37954 1.01321 0.44283
 H1882 H 0.41479 1.04602 0.53225
 H1883 H 0.37153 1.03362 0.54853
 H1884 H 0.40167 0.97979 0.47417
 C1885 C -0.12807 0.52848 0.99857
 C1886 C -0.14920 0.51433 0.99119
 C1887 C -0.17210 0.52606 0.98466
 C1888 C -0.17402 0.55208 0.98477
 C1889 C -0.15313 0.56611 0.99332
 C1890 C -0.13044 0.55444 1.00033
 C1891 C -0.10298 0.51683 1.00069
 C1892 C -0.08606 0.52443 1.02542
 C1893 C -0.06097 0.51723 1.02319
 C1894 C -0.05210 0.50294 0.99564
 C1895 C -0.06969 0.49329 0.97293
 C1896 C -0.09477 0.50028 0.97533
 H1897 H -0.18799 0.51490 0.97808
 H1898 H -0.15424 0.58621 0.99372
 H1899 H -0.04850 0.52368 1.04235
 H1900 H -0.06395 0.48177 0.95163
 H1901 H -0.11441 0.56581 1.00549
 H1902 H -0.09209 0.53673 1.04577
 H1903 H -0.14782 0.49428 0.98972
 H1904 H -0.10737 0.49414 0.95584
 C1905 C 0.02913 0.63864 0.56958
 C1906 C 0.04788 0.65534 0.56025
 C1907 C 0.04802 0.67921 0.57417
 C1908 C 0.02926 0.68685 0.59736
 C1909 C 0.00989 0.67052 0.60543
 C1910 C 0.00989 0.64660 0.59178
 C1911 C 0.03016 0.61255 0.55787
 C1912 C 0.03420 0.60651 0.52348
 C1913 C 0.03300 0.58176 0.51264
 C1914 C 0.02825 0.56260 0.53613
 C1915 C 0.02526 0.56887 0.57073
 C1916 C 0.02628 0.59343 0.58140
 H1917 H 0.06300 0.69162 0.56725
 H1918 H -0.00473 0.67593 0.62328
 H1919 H 0.03465 0.57787 0.48573
 H1920 H 0.02103 0.55499 0.58978
 H1921 H -0.00497 0.63413 0.59902
 H1922 H 0.03713 0.62103 0.50483
 H1923 H 0.06290 0.64961 0.54322
 H1924 H 0.02347 0.59756 0.60814
 C1925 C 0.52596 0.12982 0.08391
 C1926 C 0.53849 0.13303 0.11475
 C1927 C 0.54106 0.15662 0.12889
 C1928 C 0.53147 0.17776 0.11237
 C1929 C 0.51973 0.17466 0.08088
 C1930 C 0.51695 0.15097 0.06687
 C1931 C 0.52104 0.10439 0.07093
 C1932 C 0.52145 0.09896 0.03592
 C1933 C 0.51601 0.07502 0.02432
 C1934 C 0.51062 0.05581 0.04746
 C1935 C 0.50962 0.06163 0.08237
 C1936 C 0.51487 0.08541 0.09387
 H1937 H 0.54997 0.15816 0.15330
 H1938 H 0.51252 0.19055 0.06713
 H1939 H 0.51572 0.07173 -0.00278
 H1940 H 0.50446 0.04789 0.10119
 H1941 H 0.50705 0.14919 0.04322
 H1942 H 0.52595 0.11321 0.01749
 H1943 H 0.54606 0.11720 0.12829
 H1944 H 0.51344 0.08905 0.12089
 C1945 C -0.03514 0.12460 0.92576
 C1946 C -0.05615 0.14033 0.92775
 C1947 C -0.05547 0.16414 0.91333
 C1948 C -0.03370 0.17268 0.89692
 C1949 C -0.01247 0.15716 0.89608
 C1950 C -0.01323 0.13339 0.91019
 C1951 C -0.03612 0.09854 0.93784
 C1952 C -0.02790 0.07952 0.91606
 C1953 C -0.02649 0.05508 0.92741
 C1954 C -0.03323 0.04879 0.96108
 C1955 C -0.04219 0.06784 0.98272
 C1956 C -0.04390 0.09249 0.97107
 H1957 H -0.07200 0.17584 0.91485
 H1958 H 0.00455 0.16312 0.88361
 H1959 H -0.01920 0.04125 0.90983
 H1960 H -0.04694 0.06401 1.00896
 H1961 H 0.00328 0.12164 0.90858
 H1962 H -0.02206 0.08369 0.89023
 H1963 H -0.07327 0.13390 0.93947
 H1964 H -0.05022 0.10696 0.98840
 C1965 C 0.47291 0.62631 0.43794
 C1966 C 0.45131 0.64043 0.44492
 C1967 C 0.44879 0.66445 0.43153
 C1968 C 0.46796 0.67466 0.41134
 C1969 C 0.48988 0.66073 0.40558
 C1970 C 0.49233 0.63688 0.41878
 C1971 C 0.47465 0.59979 0.44721
 C1972 C 0.48149 0.58271 0.42194
 C1973 C 0.48544 0.55793 0.42991
 C1974 C 0.48224 0.54919 0.46344
 C1975 C 0.47507 0.56634 0.48887
 C1976 C 0.47099 0.59144 0.48072
 H1977 H 0.43179 0.67491 0.43659
 H1978 H 0.50484 0.66791 0.38978
 H1979 H 0.49161 0.54586 0.40945
 H1980 H 0.47333 0.56060 0.51514
 H1981 H 0.50920 0.62632 0.41318
 H1982 H 0.48427 0.58869 0.39586
 H1983 H 0.43606 0.63253 0.45949
 H1984 H 0.46594 0.60446 0.50069
 C1985 C 0.52754 0.86605 0.42617
 C1986 C 0.54610 0.84876 0.43497
 C1987 C 0.54568 0.82472 0.42160
 C1988 C 0.52643 0.81764 0.39989
 C1989 C 0.50742 0.83470 0.39214
 C1990 C 0.50809 0.85878 0.40498
 C1991 C 0.52912 0.89216 0.43682
 C1992 C 0.52856 0.91072 0.41196
 C1993 C 0.52763 0.93558 0.42124
 C1994 C 0.52694 0.94254 0.45577
 C1995 C 0.52878 0.92389 0.48072
 C1996 C 0.52998 0.89882 0.47126
 H1997 H 0.56041 0.81169 0.42800
 H1998 H 0.49251 0.82960 0.37531
 H1999 H 0.52675 0.94921 0.40106
 H2000 H 0.52846 0.92859 0.50747
 H2001 H 0.49359 0.87193 0.39800
 H2002 H 0.52834 0.90590 0.38523
 H2003 H 0.56128 0.85413 0.45117
 H2004 H 0.53053 0.88463 0.49077
 C2005 C 0.02603 0.36518 0.92513
 C2006 C 0.04543 0.34898 0.93452
 C2007 C 0.04645 0.32469 0.92185
 C2008 C 0.02787 0.31608 0.90003
 C2009 C 0.00804 0.33206 0.89163
 C2010 C 0.00722 0.35639 0.90389
 C2011 C 0.02576 0.39151 0.93603
 C2012 C 0.02171 0.41022 0.91194
 C2013 C 0.01965 0.43497 0.92188
 C2014 C 0.02161 0.44185 0.95630
 C2015 C 0.02609 0.42303 0.98041
 C2016 C 0.02851 0.39813 0.97030
 H2017 H 0.06182 0.31264 0.92894
 H2018 H -0.00644 0.32596 0.87476
 H2019 H 0.01563 0.44857 0.90239
 H2020 H 0.02677 0.42732 1.00722
 H2021 H -0.00808 0.36848 0.89658
 H2022 H 0.01969 0.40562 0.88533
 H2023 H 0.06014 0.35535 0.95083
 H2024 H 0.03143 0.38394 0.98940
 C2025 C 0.47532 0.37161 0.07539
 C2026 C 0.49543 0.36309 0.09495
 C2027 C 0.49512 0.33949 0.10971
 C2028 C 0.47454 0.32398 0.10562
 C2029 C 0.45465 0.33226 0.08539
 C2030 C 0.45514 0.35579 0.07015
 C2031 C 0.47507 0.39748 0.06237
 C2032 C 0.46985 0.40301 0.02825
 C2033 C 0.47197 0.42743 0.01599
 C2034 C 0.47877 0.44684 0.03784
 C2035 C 0.48304 0.44108 0.07228
 C2036 C 0.48116 0.41687 0.08430
 H2037 H 0.51064 0.33368 0.12524
 H2038 H 0.43865 0.32057 0.08156
 H2039 H 0.46930 0.43083 -0.01081
 H2040 H 0.48879 0.45509 0.09012
 H2041 H 0.43942 0.36194 0.05522
 H2042 H 0.46523 0.38829 0.01077
 H2043 H 0.51133 0.37486 0.09913
 H2044 H 0.48499 0.41319 0.11081
 C2045 C -0.02730 0.88109 0.58516
 C2046 C -0.00800 0.87217 0.60580
 C2047 C -0.00828 0.84785 0.61805
 C2048 C -0.02811 0.83218 0.61034
 C2049 C -0.04723 0.84095 0.58924
 C2050 C -0.04670 0.86519 0.57644
 C2051 C -0.02757 0.90735 0.57432
 C2052 C -0.02939 0.91393 0.53992
 C2053 C -0.02722 0.93881 0.52995
 C2054 C -0.02398 0.95761 0.55431
 C2055 C -0.02290 0.95071 0.58885
 C2056 C -0.02472 0.92597 0.59866
 H2057 H 0.00658 0.84149 0.63438
 H2058 H -0.06263 0.82907 0.58285
 H2059 H -0.02701 0.94309 0.50308
 H2060 H -0.01962 0.96423 0.60855
 H2061 H -0.06179 0.87176 0.56067
 H2062 H -0.03131 0.89973 0.52069
 H2063 H 0.00721 0.88415 0.61269
 H2064 H -0.02336 0.92129 0.62537
 C2065 C 0.23340 0.35866 0.14827
 C2066 C 0.24677 0.37933 0.15935
 C2067 C 0.25516 0.39721 0.13603
 C2068 C 0.25001 0.39508 0.10102
 C2069 C 0.23544 0.37471 0.09069
 C2070 C 0.22744 0.35682 0.11389
 C2071 C 0.22907 0.33734 0.17133
 C2072 C 0.21858 0.34055 0.20389
 C2073 C 0.21922 0.32110 0.22759
 C2074 C 0.23135 0.29848 0.21948
 C2075 C 0.23898 0.29456 0.18544
 C2076 C 0.23791 0.31376 0.16175
 H2077 H 0.26552 0.41272 0.14574
 H2078 H 0.23161 0.37118 0.06424
 H2079 H 0.21209 0.32460 0.25299
 H2080 H 0.24768 0.27729 0.17737
 H2081 H 0.21740 0.34088 0.10470
 H2082 H 0.21084 0.35838 0.21134
 H2083 H 0.25176 0.38103 0.18583
 H2084 H 0.24581 0.31067 0.13660
 C2085 C 0.72946 0.86234 0.64270
 C2086 C 0.72700 0.85893 0.60753
 C2087 C 0.73627 0.87634 0.58451
 C2088 C 0.74771 0.89821 0.59582
 C2089 C 0.74913 0.90225 0.63110
 C2090 C 0.74017 0.88449 0.65428
 C2091 C 0.72413 0.84144 0.66655
 C2092 C 0.71455 0.84543 0.69961
 C2093 C 0.71441 0.82602 0.72355
 C2094 C 0.72505 0.80273 0.71533
 C2095 C 0.73104 0.79805 0.68091
 C2096 C 0.73089 0.81714 0.65707
 H2097 H 0.73519 0.87206 0.55772
 H2098 H 0.75748 0.91897 0.64082
 H2099 H 0.70781 0.82991 0.74910
 H2100 H 0.73804 0.78012 0.67255
 H2101 H 0.74265 0.88760 0.68120
 H2102 H 0.70819 0.86375 0.70737
 H2103 H 0.71861 0.84228 0.59764
 H2104 H 0.73810 0.81310 0.63182
 C2105 C 0.27967 0.64387 0.64146
 C2106 C 0.26924 0.62201 0.65484
 C2107 C 0.26140 0.60303 0.63318
 C2108 C 0.26375 0.60551 0.59765
 C2109 C 0.27522 0.62694 0.58455
 C2110 C 0.28325 0.64570 0.60613
 C2111 C 0.28345 0.66594 0.66353
 C2112 C 0.27562 0.68947 0.65225
 C2113 C 0.27390 0.70942 0.67469
 C2114 C 0.27956 0.70640 0.70935
 C2115 C 0.29076 0.68382 0.71940
 C2116 C 0.29226 0.66364 0.69689
 H2117 H 0.25299 0.58668 0.64425
 H2118 H 0.27703 0.62990 0.55743
 H2119 H 0.26602 0.72660 0.66513
 H2120 H 0.29651 0.68099 0.74535
 H2121 H 0.29144 0.66214 0.59498
 H2122 H 0.26884 0.69210 0.62669
 H2123 H 0.26596 0.62011 0.68194
 H2124 H 0.29923 0.64595 0.70602
 C2125 C 0.76025 0.14085 0.14245
 C2126 C 0.74097 0.12402 0.14949
 C2127 C 0.73121 0.10906 0.12408
 C2128 C 0.73978 0.11073 0.09006
 C2129 C 0.75889 0.12810 0.08310
 C2130 C 0.76908 0.14262 0.10883
 C2131 C 0.76981 0.15725 0.16996
 C2132 C 0.77751 0.18175 0.16346
 C2133 C 0.78087 0.19850 0.19032
 C2134 C 0.77542 0.19154 0.22420
 C2135 C 0.77049 0.16627 0.23033
 C2136 C 0.76859 0.14933 0.20386
 H2137 H 0.71733 0.09582 0.13197
 H2138 H 0.76572 0.13156 0.05763
 H2139 H 0.78484 0.21765 0.18406
 H2140 H 0.76530 0.15937 0.25481
 H2141 H 0.78380 0.15536 0.10215
 H2142 H 0.77903 0.18869 0.13772
 H2143 H 0.73290 0.12249 0.17474
 H2144 H 0.76406 0.13033 0.21019
 C2145 C 0.73098 0.15209 0.84529
 C2146 C 0.74069 0.12915 0.83381
 C2147 C 0.74708 0.11044 0.85703
 C2148 C 0.74375 0.11428 0.89215
 C2149 C 0.73335 0.13703 0.90336
 C2150 C 0.72695 0.15560 0.88025
 C2151 C 0.72804 0.17330 0.82150
 C2152 C 0.73758 0.19653 0.83023
 C2153 C 0.73941 0.21534 0.80606
 C2154 C 0.73216 0.21133 0.77220
 C2155 C 0.71972 0.18913 0.76477
 C2156 C 0.71796 0.17018 0.78908
 H2157 H 0.75482 0.09308 0.84756
 H2158 H 0.73083 0.14091 0.93019
 H2159 H 0.74847 0.23227 0.81361
 H2160 H 0.71308 0.18548 0.73947
 H2161 H 0.71943 0.17303 0.88983
 H2162 H 0.74540 0.19962 0.85508
 H2163 H 0.74431 0.12608 0.80698
 H2164 H 0.70969 0.15272 0.78212
 C2165 C 0.22913 0.64155 0.35778
 C2166 C 0.22591 0.64351 0.39317
 C2167 C 0.23582 0.62555 0.41486
 C2168 C 0.24869 0.60458 0.40189
 C2169 C 0.25065 0.60184 0.36635
 C2170 C 0.24109 0.62016 0.34457
 C2171 C 0.22316 0.66312 0.33537
 C2172 C 0.21503 0.65995 0.30182
 C2173 C 0.21458 0.68010 0.27916
 C2174 C 0.22328 0.70351 0.28917
 C2175 C 0.22770 0.70722 0.32403
 C2176 C 0.22798 0.68731 0.34663
 H2177 H 0.23417 0.62879 0.44193
 H2178 H 0.25998 0.58578 0.35532
 H2179 H 0.20876 0.67688 0.25340
 H2180 H 0.23309 0.72514 0.33372
 H2181 H 0.24412 0.61809 0.31745
 H2182 H 0.21001 0.64173 0.29270
 H2183 H 0.21645 0.65947 0.40430
 H2184 H 0.23400 0.69074 0.37232
 C2185 C 0.76753 0.84805 0.36111
 C2186 C 0.76855 0.84650 0.39668
 C2187 C 0.76127 0.86659 0.41696
 C2188 C 0.75330 0.88915 0.40234
 C2189 C 0.75304 0.89104 0.36667
 C2190 C 0.76002 0.87069 0.34627
 C2191 C 0.77138 0.82533 0.34003
 C2192 C 0.78275 0.82626 0.30766
 C2193 C 0.78206 0.80568 0.28587
 C2194 C 0.76956 0.78392 0.29578
 C2195 C 0.76107 0.78222 0.32978
 C2196 C 0.76168 0.80266 0.35135
 H2197 H 0.76129 0.86409 0.44425
 H2198 H 0.74728 0.90818 0.35452
 H2199 H 0.78988 0.80752 0.26054
 H2200 H 0.75205 0.76574 0.33938
 H2201 H 0.75864 0.87239 0.31893
 H2202 H 0.79138 0.84315 0.29878
 H2203 H 0.77445 0.82947 0.40899
 H2204 H 0.75288 0.80108 0.37617
 C2205 C 0.27679 0.35194 0.86055
 C2206 C 0.28073 0.35055 0.89567
 C2207 C 0.27176 0.36919 0.91731
 C2208 C 0.25889 0.39005 0.90446
 C2209 C 0.25596 0.39207 0.86908
 C2210 C 0.26487 0.37321 0.84732
 C2211 C 0.28163 0.32979 0.83880
 C2212 C 0.29086 0.33193 0.80535
 C2213 C 0.29013 0.31161 0.78310
 C2214 C 0.27906 0.28922 0.79351
 C2215 C 0.27328 0.28628 0.82833
 C2216 C 0.27435 0.30633 0.85055
 H2217 H 0.27403 0.36660 0.94437
 H2218 H 0.24639 0.40797 0.85829
 H2219 H 0.29620 0.31424 0.75704
 H2220 H 0.26578 0.26914 0.83821
 H2221 H 0.26130 0.37467 0.82035
 H2222 H 0.29750 0.34960 0.79602
 H2223 H 0.28995 0.33449 0.90661
 H2224 H 0.26743 0.30385 0.87629
 C2225 C 0.77283 0.38279 0.72692
 C2226 C 0.78176 0.39660 0.75447
 C2227 C 0.79039 0.42080 0.74964
 C2228 C 0.79036 0.43165 0.71716
 C2229 C 0.78015 0.41843 0.69004
 C2230 C 0.77147 0.39431 0.69485
 C2231 C 0.76686 0.35596 0.73067
 C2232 C 0.78151 0.34029 0.75111
 C2233 C 0.77816 0.31455 0.75081
 C2234 C 0.76044 0.30368 0.72968
 C2235 C 0.74456 0.31968 0.71123
 C2236 C 0.74773 0.34537 0.71174
 H2237 H 0.79838 0.43051 0.77090
 H2238 H 0.77980 0.42643 0.66476
 H2239 H 0.79017 0.30336 0.76624
 H2240 H 0.73006 0.31248 0.69528
 H2241 H 0.76490 0.38426 0.67297
 H2242 H 0.79641 0.34775 0.76618
 H2243 H 0.78273 0.38845 0.77958
 H2244 H 0.73554 0.35694 0.69656
 C2245 C 0.26056 0.87749 0.26152
 C2246 C 0.26510 0.89478 0.28719
 C2247 C 0.27371 0.91857 0.27885
 C2248 C 0.27868 0.92523 0.24459
 C2249 C 0.27202 0.90818 0.21909
 C2250 C 0.26315 0.88471 0.22749
 C2251 C 0.25847 0.85077 0.26913
 C2252 C 0.27953 0.83584 0.26333
 C2253 C 0.27748 0.81019 0.26161
 C2254 C 0.25432 0.79847 0.26636
 C2255 C 0.23351 0.81353 0.27523
 C2256 C 0.23552 0.83955 0.27622
 H2257 H 0.27868 0.93063 0.29960
 H2258 H 0.27403 0.91268 0.19238
 H2259 H 0.29377 0.80022 0.25269
 H2260 H 0.21527 0.80543 0.27860
 H2261 H 0.25970 0.87156 0.20734
 H2262 H 0.29730 0.84422 0.25717
 H2263 H 0.26359 0.88935 0.31364
 H2264 H 0.21895 0.85088 0.28035
 C2265 C 0.22421 0.87661 0.74434
 C2266 C 0.23782 0.89757 0.75396
 C2267 C 0.22544 0.91946 0.76393
 C2268 C 0.19930 0.92051 0.76497
 C2269 C 0.18576 0.89994 0.75396
 C2270 C 0.19809 0.87824 0.74362
 C2271 C 0.23658 0.85211 0.73975
 C2272 C 0.22922 0.83582 0.71399
 C2273 C 0.23640 0.81077 0.71488
 C2274 C 0.25021 0.80137 0.74217
 C2275 C 0.26009 0.81850 0.76544
 C2276 C 0.25323 0.84351 0.76433
 H2277 H 0.23621 0.93514 0.77234
 H2278 H 0.16557 0.90046 0.75422
 H2279 H 0.23000 0.79872 0.69515
 H2280 H 0.27145 0.81247 0.78646
 H2281 H 0.18713 0.86225 0.73688
 H2282 H 0.21694 0.84223 0.69412
 H2283 H 0.25798 0.89673 0.75477
 H2284 H 0.25926 0.85563 0.78450
 C2285 C 0.72397 0.36321 0.22750
 C2286 C 0.69799 0.36650 0.22837
 C2287 C 0.68751 0.39006 0.23329
 C2288 C 0.70277 0.41085 0.23735
 C2289 C 0.72874 0.40781 0.23469
 C2290 C 0.73927 0.38416 0.22995
 C2291 C 0.73472 0.33778 0.22875
 C2292 C 0.75293 0.33213 0.25278
 C2293 C 0.75941 0.30754 0.25953
 C2294 C 0.74758 0.28782 0.24274
 C2295 C 0.73157 0.29371 0.21590
 C2296 C 0.72486 0.31844 0.20931
 H2297 H 0.66740 0.39198 0.23465
 H2298 H 0.74090 0.42356 0.23765
 H2299 H 0.77240 0.30422 0.27985
 H2300 H 0.72346 0.27938 0.20078
 H2301 H 0.75937 0.38211 0.22920
 H2302 H 0.76085 0.34659 0.26826
 H2303 H 0.68575 0.35069 0.22700
 H2304 H 0.71127 0.32239 0.18989
 C2305 C 0.72666 0.61307 0.24937
 C2306 C 0.74139 0.59144 0.25274
 C2307 C 0.73390 0.56901 0.23787
 C2308 C 0.71173 0.56795 0.21913
 C2309 C 0.69736 0.58976 0.21567
 C2310 C 0.70485 0.61193 0.23011
 C2311 C 0.73364 0.63736 0.26435
 C2312 C 0.71471 0.65336 0.27631
 C2313 C 0.71873 0.67876 0.27856
 C2314 C 0.74194 0.68886 0.26976
 C2315 C 0.76223 0.67212 0.26533
 C2316 C 0.75800 0.64653 0.26169
 H2317 H 0.74544 0.55256 0.24095
 H2318 H 0.67987 0.58976 0.20229
 H2319 H 0.70282 0.69005 0.28453
 H2320 H 0.78075 0.67896 0.25981
 H2321 H 0.69343 0.62834 0.22597
 H2322 H 0.69601 0.64658 0.28074
 H2323 H 0.75841 0.59181 0.26716
 H2324 H 0.77323 0.63455 0.25341
 C2325 C 0.22511 0.12059 0.77635
 C2326 C 0.19906 0.11948 0.77985
 C2327 C 0.18666 0.09732 0.77408
 C2328 C 0.20002 0.07574 0.76495
 C2329 C 0.22615 0.07634 0.76332
 C2330 C 0.23862 0.09870 0.76870
 C2331 C 0.23729 0.14516 0.77642
 C2332 C 0.25357 0.15166 0.74975
 C2333 C 0.26009 0.17643 0.74466
 C2334 C 0.25013 0.19528 0.76587
 C2335 C 0.23654 0.18822 0.79501
 C2336 C 0.22990 0.16346 0.80002
 H2337 H 0.16648 0.09719 0.77556
 H2338 H 0.23676 0.05988 0.75620
 H2339 H 0.27117 0.18088 0.72234
 H2340 H 0.22989 0.20187 0.81307
 H2341 H 0.25871 0.09909 0.76587
 H2342 H 0.25961 0.13796 0.73116
 H2343 H 0.18811 0.13609 0.78511
 H2344 H 0.21791 0.15880 0.82140
 C2345 C 0.27418 0.12635 0.26150
 C2346 C 0.29982 0.12108 0.26180
 C2347 C 0.30845 0.09734 0.26981
 C2348 C 0.29164 0.07828 0.27756
 C2349 C 0.26595 0.08317 0.27602
 C2350 C 0.25726 0.10714 0.26834
 C2351 C 0.26559 0.15239 0.25756
 C2352 C 0.24850 0.16253 0.28104
 C2353 C 0.24401 0.18805 0.28188
 C2354 C 0.25664 0.20419 0.25933
 C2355 C 0.27181 0.19362 0.23372
 C2356 C 0.27652 0.16802 0.23309
 H2357 H 0.32837 0.09388 0.27027
 H2358 H 0.25270 0.06868 0.28171
 H2359 H 0.23175 0.19505 0.30178
 H2360 H 0.28079 0.20502 0.21488
 H2361 H 0.23737 0.11078 0.26819
 H2362 H 0.23987 0.15095 0.30029
 H2363 H 0.31326 0.13559 0.25713
 H2364 H 0.28940 0.16052 0.21420
 C2365 C 0.77820 0.63236 0.74565
 C2366 C 0.80413 0.62871 0.74607
 C2367 C 0.81426 0.60516 0.75208
 C2368 C 0.79870 0.58470 0.75744
 C2369 C 0.77276 0.58806 0.75575
 C2370 C 0.76257 0.61179 0.75025
 C2371 C 0.76786 0.65795 0.74377
 C2372 C 0.75024 0.66604 0.76803
 C2373 C 0.74397 0.69118 0.77070
 C2374 C 0.75527 0.70896 0.74921
 C2375 C 0.77086 0.70035 0.72267
 C2376 C 0.77745 0.67518 0.72032
 H2377 H 0.83433 0.60296 0.75301
 H2378 H 0.76044 0.57252 0.75984
 H2379 H 0.73150 0.69667 0.79125
 H2380 H 0.77882 0.71304 0.70452
 H2381 H 0.74251 0.61416 0.75009
 H2382 H 0.74258 0.65318 0.78649
 H2383 H 0.81658 0.64428 0.74314
 H2384 H 0.79070 0.66927 0.70086
 C2385 C 0.87886 0.76611 0.18779
 C2386 C 0.89056 0.74513 0.17354
 C2387 C 0.91387 0.74696 0.15768
 C2388 C 0.92598 0.77006 0.15500
 C2389 C 0.91421 0.79098 0.17030
 C2390 C 0.89103 0.78894 0.18676
 C2391 C 0.85283 0.76447 0.19990
 C2392 C 0.83468 0.75711 0.17699
 C2393 C 0.81010 0.75436 0.18766
 C2394 C 0.80283 0.75890 0.22172
 C2395 C 0.82124 0.76604 0.24482
 C2396 C 0.84599 0.76925 0.23384
 H2397 H 0.92141 0.73041 0.14565
 H2398 H 0.92301 0.80895 0.17027
 H2399 H 0.79691 0.74822 0.16897
 H2400 H 0.81675 0.76853 0.27148
 H2401 H 0.88219 0.80534 0.19763
 H2402 H 0.83964 0.75329 0.15070
 H2403 H 0.88124 0.72738 0.17379
 H2404 H 0.85993 0.77463 0.25199
 C2405 C 0.38212 0.27536 0.67413
 C2406 C 0.40273 0.26444 0.69033
 C2407 C 0.42648 0.26498 0.67506
 C2408 C 0.43015 0.27648 0.64327
 C2409 C 0.40956 0.28770 0.62742
 C2410 C 0.38594 0.28726 0.64270
 C2411 C 0.35646 0.27312 0.68861
 C2412 C 0.33660 0.26800 0.66701
 C2413 C 0.31258 0.26484 0.68000
 C2414 C 0.30742 0.26698 0.71510
 C2415 C 0.32736 0.27200 0.73686
 C2416 C 0.35158 0.27517 0.72375
 H2417 H 0.44198 0.25645 0.68818
 H2418 H 0.41155 0.29646 0.60277
 H2419 H 0.29820 0.26003 0.66225
 H2420 H 0.32445 0.27286 0.76409
 H2421 H 0.37056 0.29612 0.62971
 H2422 H 0.33974 0.26558 0.63996
 H2423 H 0.40038 0.25493 0.71440
 H2424 H 0.36652 0.27907 0.74110
 C2425 C 0.38146 0.72395 0.82570
 C2426 C 0.39863 0.70513 0.81673
 C2427 C 0.42243 0.70470 0.83082
 C2428 C 0.42955 0.72325 0.85376
 C2429 C 0.41265 0.74250 0.86180
 C2430 C 0.38880 0.74278 0.84804
 C2431 C 0.35568 0.72377 0.81272
 C2432 C 0.33558 0.72805 0.83512
 C2433 C 0.31137 0.72993 0.82302
 C2434 C 0.30647 0.72741 0.78809
 C2435 C 0.32666 0.72257 0.76574
 C2436 C 0.35099 0.72046 0.77800
 H2437 H 0.43524 0.68977 0.82401
 H2438 H 0.41764 0.75694 0.87953
 H2439 H 0.29664 0.73430 0.84118
 H2440 H 0.32393 0.72152 0.73861
 H2441 H 0.37599 0.75767 0.85503
 H2442 H 0.33867 0.73045 0.86207
 H2443 H 0.39339 0.69042 0.79958
 H2444 H 0.36626 0.71739 0.76016
 C2445 C 0.88596 0.22095 0.32705
 C2446 C 0.89778 0.19913 0.33773
 C2447 C 0.92082 0.20006 0.35375
 C2448 C 0.93248 0.22302 0.36031
 C2449 C 0.92046 0.24485 0.34838
 C2450 C 0.89755 0.24375 0.33197
 C2451 C 0.86016 0.22027 0.31504
 C2452 C 0.85459 0.22218 0.28041
 C2453 C 0.82970 0.22283 0.26997
 C2454 C 0.81011 0.22206 0.29415
 C2455 C 0.81611 0.21986 0.32883
 C2456 C 0.84082 0.21871 0.33904
 H2457 H 0.92945 0.18249 0.36024
 H2458 H 0.92768 0.26312 0.35329
 H2459 H 0.82584 0.22463 0.24313
 H2460 H 0.80174 0.21906 0.34835
 H2461 H 0.88830 0.26085 0.32445
 H2462 H 0.86945 0.22347 0.26161
 H2463 H 0.88896 0.18134 0.33413
 H2464 H 0.84489 0.21723 0.36587
 C2465 C 0.12315 0.28468 0.33024
 C2466 C 0.11489 0.26548 0.35164
 C2467 C 0.09052 0.26561 0.36448
 C2468 C 0.07412 0.28520 0.35667
 C2469 C 0.08224 0.30419 0.33473
 C2470 C 0.10652 0.30379 0.32131
 C2471 C 0.14943 0.28502 0.31864
 C2472 C 0.15575 0.28663 0.28398
 C2473 C 0.18066 0.28411 0.27327
 C2474 C 0.19973 0.28063 0.29712
 C2475 C 0.19313 0.28006 0.33192
 C2476 C 0.16836 0.28224 0.34247
 H2477 H 0.08475 0.25085 0.38147
 H2478 H 0.06983 0.31942 0.32821
 H2479 H 0.18475 0.28369 0.24628
 H2480 H 0.20691 0.27674 0.35126
 H2481 H 0.11258 0.31878 0.30491
 H2482 H 0.14132 0.28853 0.26515
 H2483 H 0.12741 0.25047 0.35868
 H2484 H 0.16389 0.28107 0.36936
 C2485 C 0.61924 0.78897 0.83178
 C2486 C 0.61428 0.80061 0.86319
 C2487 C 0.59054 0.79986 0.87808
 C2488 C 0.57101 0.78762 0.86185
 C2489 C 0.57575 0.77657 0.82996
 C2490 C 0.59961 0.77725 0.81507
 C2491 C 0.64523 0.78737 0.81822
 C2492 C 0.65081 0.78967 0.78328
 C2493 C 0.67542 0.78678 0.77115
 C2494 C 0.69494 0.78161 0.79371
 C2495 C 0.68905 0.77928 0.82858
 C2496 C 0.66472 0.78227 0.84060
 H2497 H 0.58766 0.80839 0.90275
 H2498 H 0.56101 0.76735 0.81653
 H2499 H 0.67897 0.78787 0.74406
 H2500 H 0.70308 0.77435 0.84695
 H2501 H 0.60287 0.76792 0.79102
 H2502 H 0.63612 0.79349 0.76535
 H2503 H 0.62893 0.81002 0.87656
 H2504 H 0.66105 0.77963 0.86748
 C2505 C 0.62733 0.22141 0.65975
 C2506 C 0.61241 0.20099 0.66808
 C2507 C 0.58819 0.19938 0.65550
 C2508 C 0.57832 0.21847 0.63513
 C2509 C 0.59311 0.23912 0.62745
 C2510 C 0.61747 0.24045 0.63935
 C2511 C 0.65339 0.22277 0.67138
 C2512 C 0.67267 0.22653 0.64765
 C2513 C 0.69712 0.22953 0.65832
 C2514 C 0.70304 0.22892 0.69314
 C2515 C 0.68354 0.22521 0.71687
 C2516 C 0.65905 0.22167 0.70606
 H2517 H 0.57708 0.18330 0.66176
 H2518 H 0.58597 0.25397 0.61160
 H2519 H 0.71125 0.23304 0.63908
 H2520 H 0.68694 0.22586 0.74387
 H2521 H 0.62866 0.25640 0.63270
 H2522 H 0.66871 0.22749 0.62075
 H2523 H 0.61972 0.18608 0.68366
 H2524 H 0.64435 0.21917 0.72485
 C2525 C 0.11741 0.72140 0.17718
 C2526 C 0.10446 0.69891 0.17931
 C2527 C 0.08143 0.69639 0.16326
 C2528 C 0.07083 0.71645 0.14535
 C2529 C 0.08367 0.73901 0.14393
 C2530 C 0.10660 0.74145 0.15963
 C2531 C 0.14292 0.72383 0.19078
 C2532 C 0.16113 0.73523 0.17058
 C2533 C 0.18492 0.73890 0.18281
 C2534 C 0.19165 0.73088 0.21561
 C2535 C 0.17334 0.71949 0.23607
 C2536 C 0.14922 0.71573 0.22361
 H2537 H 0.07186 0.67884 0.16501
 H2538 H 0.07616 0.75475 0.13013
 H2539 H 0.19800 0.74820 0.16611
 H2540 H 0.17737 0.71387 0.26179
 H2541 H 0.11607 0.75907 0.15775
 H2542 H 0.15697 0.74141 0.14505
 H2543 H 0.11246 0.68315 0.19255
 H2544 H 0.13535 0.70713 0.23988
   
