data_POSCAR
  _audit_creation_date              2014-09-24
  _audit_creation_method            'ToBaCCo'
  _symmetry_space_group_name_H-M    'P1'
  _symmetry_Int_Tables_number       1
  _symmetry_cell_setting            triclinic
  loop_
  _symmetry_equiv_pos_as_xyz
 x,y,z
_cell_length_a 55.3458
_cell_length_b 55.3360
_cell_length_c 55.3385
_cell_angle_alpha 90.207900
_cell_angle_beta 89.972300
_cell_angle_gamma 89.990700
loop_
  _atom_site_label
  _atom_site_type_symbol
  _atom_site_fract_x
  _atom_site_fract_y
  _atom_site_fract_z
N1 N 0.37217 1.37128 0.37087
 N2 N 0.37332 0.87147 0.87151
 N3 N 0.87532 1.37329 0.87381
 N4 N 0.87227 0.87208 0.37216
 N5 N 0.62642 0.62505 0.37288
 N6 N 0.62720 0.12519 0.87179
 N7 N 1.12832 0.62693 0.87274
 N8 N 1.12488 0.12482 0.37458
 N9 N 0.62597 1.37237 0.62444
 N10 N 0.62672 0.87289 1.12473
 N11 N 1.12827 1.37283 1.12710
 N12 N 1.12540 0.87383 0.62534
 N13 N 0.37362 0.62522 0.62560
 N14 N 0.37494 0.12545 1.12438
 N15 N 0.87357 0.62673 1.12665
 N16 N 0.81105 0.18674 0.68805
 N17 N 1.37311 0.37256 0.62516
 N18 N 1.37394 0.87259 1.12425
 N19 N 0.87459 0.37389 1.12556
 N20 N 0.87164 0.87266 0.62693
 N21 N 0.62533 0.62547 0.62450
 N22 N 0.62602 1.12531 1.12534
 N23 N 0.18784 0.68697 1.18763
 N24 N 0.12593 1.12587 0.62628
 N25 N 1.37289 0.62470 0.37223
 N26 N 1.37405 1.12526 0.87279
 N27 N 0.87492 0.62569 0.87424
 N28 N 0.87182 1.12625 0.37310
 N29 N 0.62730 0.37129 0.37137
 N30 N 0.62826 0.87124 0.87059
 N31 N 0.12769 0.37273 0.87262
 N32 N 0.12511 0.87280 0.37324
 O33 O 0.97692 0.91275 0.87908
 O34 O 0.97689 0.88470 0.85067
 C35 C 0.96872 0.90437 0.85933
 C36 C 0.94921 0.91754 0.84663
 C37 C 0.94209 0.91080 0.82319
 H38 H 0.95151 0.89630 0.81396
 O39 O 1.02427 1.08757 0.88031
 O40 O 1.02391 1.11566 0.85214
 C41 C 1.03217 1.09597 0.86049
 C42 C 1.05145 1.08283 0.84733
 C43 C 1.05822 1.08966 0.82385
 H44 H 1.04904 1.10455 0.81513
 O45 O 0.88016 0.97563 0.91312
 O46 O 0.85198 0.97563 0.88495
 C47 C 0.86050 0.96739 0.90458
 C48 C 0.84770 0.94782 0.91750
 C49 C 0.82436 0.94070 0.91051
 H50 H 0.81554 0.94977 0.89561
 O51 O 1.12074 1.02391 0.91226
 O52 O 1.14894 1.02407 0.88409
 C53 C 1.14044 1.03214 0.90388
 C54 C 1.15332 1.05151 0.91721
 C55 C 1.17678 1.05846 0.91050
 H56 H 1.18585 1.04905 0.89589
 O57 O 0.91347 0.87927 0.97610
 O58 O 0.88557 0.85081 0.97599
 C59 C 0.90519 0.85951 0.96782
 C60 C 0.91837 0.84681 0.94823
 C61 C 0.91178 0.82331 0.94121
 H62 H 0.89744 0.81407 0.95076
 O63 O 1.08834 1.12037 0.97712
 O64 O 1.11643 1.14864 0.97728
 C65 C 1.09675 1.14013 0.96907
 C66 C 1.08362 1.15297 0.94967
 C67 C 1.09039 1.17640 0.94269
 H68 H 1.10491 1.18554 0.95214
 O69 O 0.91315 1.02333 0.88092
 O70 O 0.88487 1.02369 0.85287
 C71 C 0.90443 1.03201 0.86159
 C72 C 0.91664 1.05259 0.84966
 C73 C 0.90609 1.06361 0.82942
 H74 H 0.88937 1.05654 0.82209
 O75 O 1.08761 0.97684 0.87907
 O76 O 1.11552 0.97691 0.85060
 C77 C 1.09590 0.96868 0.85925
 C78 C 1.08272 0.94918 0.84644
 C79 C 1.08931 0.94227 0.82289
 H80 H 1.10367 0.95185 0.81369
 O81 O 1.02408 0.87977 0.91198
 O82 O 1.02419 0.85148 0.88380
 C83 C 1.03233 0.86006 0.90352
 C84 C 1.05183 0.84731 0.91663
 C85 C 1.05888 0.82386 0.90985
 H86 H 1.04980 0.81488 0.89499
 O87 O 0.97748 1.12059 0.91413
 O88 O 0.97745 1.14908 0.88635
 C89 C 0.96929 1.14039 0.90594
 C90 C 0.94971 1.15309 0.91908
 C91 C 0.94270 1.17652 0.91240
 H92 H 0.95237 1.18577 0.89815
 O93 O 0.87977 1.08693 0.97691
 O94 O 0.85147 1.11500 0.97694
 C95 C 0.86001 1.09527 0.96877
 C96 C 0.84714 1.08195 0.94941
 C97 C 0.82366 1.08861 0.94243
 H98 H 0.81454 1.10321 0.95181
 O99 O 1.12105 0.91349 0.97506
 O100 O 1.14927 0.88534 0.97491
 C101 C 1.14073 0.90501 0.96679
 C102 C 1.15353 0.91800 0.94726
 C103 C 1.17687 0.91105 0.94010
 H104 H 1.18596 0.89652 0.94952
 O105 O 0.97715 1.08715 0.88138
 O106 O 0.97673 1.11556 0.85354
 C107 C 0.96849 1.09590 0.86206
 C108 C 0.94799 1.08372 0.84991
 C109 C 0.93724 1.09433 0.82959
 H110 H 0.94493 1.11061 0.82197
 O111 O 1.02400 0.91296 0.87912
 O112 O 1.02404 0.88493 0.85069
 C113 C 1.03218 0.90463 0.85932
 C114 C 1.05154 0.91788 0.84647
 C115 C 1.05838 0.91122 0.82293
 H116 H 1.04925 0.89636 0.81399
 O117 O 1.12105 0.97686 0.91171
 O118 O 1.14923 0.97692 0.88351
 C119 C 1.14075 0.96870 0.90317
 C120 C 1.15359 0.94921 0.91615
 C121 C 1.17693 0.94203 0.90920
 H122 H 1.18580 0.95103 0.89428
 O123 O 0.87975 1.02274 0.91359
 O124 O 0.85137 1.02268 0.88562
 C125 C 0.85993 1.03083 0.90532
 C126 C 0.84706 1.05027 0.91853
 C127 C 0.82360 1.05715 0.91179
 H128 H 0.81468 1.04788 0.89701
 O129 O 0.91290 1.12004 0.97705
 O130 O 0.88487 1.14837 0.97710
 C131 C 0.90460 1.13983 0.96899
 C132 C 0.91797 1.15279 0.94980
 C133 C 0.91120 1.17624 0.94288
 H134 H 0.89612 1.18503 0.95178
 O135 O 1.08797 0.88030 0.97528
 O136 O 1.11599 0.85196 0.97533
 C137 C 1.09630 0.86048 0.96718
 C138 C 1.08312 0.84752 0.94778
 C139 C 1.08993 0.82407 0.94078
 H140 H 1.10444 0.81501 0.95025
 O141 O 1.08772 1.02392 0.87915
 O142 O 1.11564 1.02410 0.85071
 C143 C 1.09599 1.03219 0.85943
 C144 C 1.08273 1.05167 0.84684
 C145 C 1.08927 1.05871 0.82339
 H146 H 1.10366 1.04923 0.81406
 O147 O 0.91316 0.97615 0.87987
 O148 O 0.88521 0.97641 0.85149
 C149 C 0.90487 0.96819 0.85998
 C150 C 0.91807 0.94886 0.84692
 C151 C 0.91118 0.94189 0.82349
 H152 H 0.89625 0.95098 0.81472
 O153 O 1.02462 1.12037 0.91392
 O154 O 1.02451 1.14866 0.88595
 C155 C 1.03277 1.14009 0.90554
 C156 C 1.05228 1.15293 0.91860
 C157 C 1.05927 1.17635 0.91184
 H158 H 1.05014 1.18521 0.89700
 O159 O 0.97700 0.87972 0.91212
 O160 O 0.97704 0.85141 0.88396
 C161 C 0.96887 0.85995 0.90370
 C162 C 0.94952 0.84701 0.91689
 C163 C 0.94268 0.82350 0.91010
 H164 H 0.95179 0.81463 0.89518
 O165 O 1.12111 1.08703 0.97677
 O166 O 1.14945 1.11504 0.97695
 C167 C 1.14083 1.09543 0.96860
 C168 C 1.15355 1.08238 0.94893
 C169 C 1.17700 1.08910 0.94196
 H170 H 1.18600 1.10383 0.95124
 O171 O 0.88005 0.91195 0.97629
 O172 O 0.85189 0.88375 0.97614
 C173 C 0.86038 0.90346 0.96804
 C174 C 0.84761 0.91652 0.94854
 C175 C 0.82427 0.90963 0.94132
 H176 H 0.81514 0.89509 0.95067
 Cu177 Cu 1.00049 0.89911 0.89840
 Cu178 Cu 1.00054 0.86530 0.86443
 Cu179 Cu 1.00098 1.10109 0.90024
 Cu180 Cu 1.00067 1.13505 0.86664
 Cu181 Cu 0.89938 0.99939 0.89968
 Cu182 Cu 0.86557 0.99956 0.86585
 Cu183 Cu 1.10148 1.00038 0.89837
 Cu184 Cu 1.13515 1.00052 0.86436
 C185 C 0.93722 0.93671 0.85822
 H186 H 0.94245 0.94183 0.87640
 C187 C 0.92318 0.92297 0.81141
 C188 C 1.06368 1.06370 0.85856
 H189 H 1.05872 1.05851 0.87675
 C190 C 1.07703 1.07761 0.81168
 C191 C 0.85906 0.93575 0.93665
 H192 H 0.87716 0.94100 0.94196
 C193 C 0.81243 0.92173 0.92241
 C194 C 1.14196 1.06344 0.93656
 H195 H 1.12378 1.05833 0.94169
 C196 C 1.18883 1.07714 0.92286
 C197 C 0.93738 0.85841 0.93610
 H198 H 0.94241 0.87663 0.94127
 C199 C 0.92392 0.81145 0.92225
 C200 C 1.06444 1.14151 0.93765
 H201 H 1.05928 1.12335 0.94279
 C202 C 1.07820 1.18830 0.92388
 C203 C 0.93771 1.06269 0.85970
 H204 H 0.94563 1.05466 0.87566
 C205 C 0.91610 1.08465 0.81949
 C206 C 1.06369 0.93700 0.85798
 H207 H 1.05866 0.94208 0.87622
 C208 C 1.07714 0.92341 0.81092
 C209 C 1.06392 0.85888 0.93574
 H210 H 1.05874 0.87706 0.94089
 C211 C 1.07783 0.81203 0.92191
 C212 C 0.93738 1.14148 0.93793
 H213 H 0.94253 1.12330 0.94299
 C214 C 0.92353 1.18830 0.92427
 C215 C 0.85857 1.06263 0.93749
 H216 H 0.87677 1.05757 0.94259
 C217 C 0.81167 1.07619 0.92373
 C218 C 1.14215 0.93721 0.93532
 H219 H 1.12405 0.94249 0.94061
 C220 C 1.18878 0.92304 0.92116
 O221 O 1.02358 0.91318 1.12012
 O222 O 1.02359 0.88521 1.14842
 C223 C 1.03169 0.90490 1.13991
 C224 C 1.05106 0.91811 1.15283
 C225 C 1.05784 0.91146 1.17634
 H226 H 1.04855 0.89673 1.18524
 O227 O 0.97668 1.08697 1.12042
 O228 O 0.97660 1.11503 1.14882
 C229 C 0.96844 1.09536 1.14016
 C230 C 0.94892 1.08222 1.15291
 C231 C 0.94184 1.08904 1.17633
 H232 H 0.95091 1.10393 1.18529
 O233 O 0.87969 1.02321 1.08723
 O234 O 0.85137 1.02322 1.11529
 C235 C 0.85994 1.03138 1.09563
 C236 C 0.84710 1.05080 1.08252
 C237 C 0.82357 1.05763 1.08916
 H238 H 0.81461 1.04843 1.10391
 O239 O 1.12074 0.97643 1.08705
 O240 O 1.14900 0.97629 1.11513
 C241 C 1.14049 0.96824 1.09534
 C242 C 1.15344 0.94901 1.08189
 C243 C 1.17687 0.94197 1.08861
 H244 H 1.18567 0.95081 1.10372
 O245 O 1.08787 0.88096 1.02245
 O246 O 1.11622 0.85295 1.02256
 C247 C 1.09662 0.86156 1.03094
 C248 C 1.08453 0.84941 1.05145
 C249 C 1.09522 0.82907 1.06210
 H250 H 1.11149 0.82143 1.05432
 O251 O 0.91290 1.11992 1.02408
 O252 O 0.88488 1.14827 1.02421
 C253 C 0.90457 1.13969 1.03232
 C254 C 0.91784 1.15257 1.05169
 C255 C 0.91130 1.17614 1.05852
 H256 H 0.89649 1.18507 1.04940
 O257 O 0.91277 0.97620 1.12022
 O258 O 0.88469 0.97616 1.14852
 C259 C 0.90437 0.96799 1.13992
 C260 C 0.91748 0.94846 1.15259
 C261 C 0.91066 0.94131 1.17595
 H262 H 0.89616 0.95074 1.18515
 O263 O 1.08764 1.02346 1.12030
 O264 O 1.11562 1.02345 1.14866
 C265 C 1.09595 1.03162 1.14010
 C266 C 1.08268 1.05099 1.15302
 C267 C 1.08919 1.05778 1.17660
 H268 H 1.10399 1.04863 1.18553
 O269 O 0.97702 0.87955 1.08668
 O270 O 0.97737 0.85116 1.11454
 C271 C 0.96910 0.85967 1.09493
 C272 C 0.94975 0.84668 1.08174
 C273 C 0.94281 0.82325 1.08855
 H274 H 0.95195 0.81443 1.10341
 O275 O 1.02394 1.12000 1.08756
 O276 O 1.02393 1.14829 1.11574
 C277 C 1.03215 1.13970 1.09605
 C278 C 1.05173 1.15247 1.08303
 C279 C 1.05875 1.17589 1.08993
 H280 H 1.04959 1.18483 1.10478
 O281 O 0.88024 0.91214 1.02337
 O282 O 0.85205 0.88398 1.02332
 C283 C 0.86053 0.90371 1.03153
 C284 C 0.84764 0.91689 1.05100
 C285 C 0.82417 0.91017 1.05790
 H286 H 0.81508 0.89566 1.04836
 O287 O 1.12127 1.08696 1.02389
 O288 O 1.14961 1.11499 1.02414
 C289 C 1.14100 1.09529 1.03215
 C290 C 1.15376 1.08208 1.05155
 C291 C 1.17729 1.08862 1.05840
 H292 H 1.18653 1.10295 1.04883
 O293 O 1.02379 1.08696 1.12056
 O294 O 1.02376 1.11501 1.14898
 C295 C 1.03194 1.09532 1.14035
 C296 C 1.05137 1.08215 1.15314
 C297 C 1.05812 1.08870 1.17673
 H298 H 1.04846 1.10303 1.18598
 O299 O 0.97650 0.91281 1.11980
 O300 O 0.97657 0.88463 1.14789
 C301 C 0.96830 0.90429 1.13944
 C302 C 0.94875 0.91728 1.15234
 C303 C 0.94170 0.91036 1.17570
 H304 H 0.95079 0.89543 1.18447
 O305 O 1.12093 1.02345 1.08745
 O306 O 1.14920 1.02340 1.11554
 C307 C 1.14069 1.03158 1.09587
 C308 C 1.15362 1.05092 1.08272
 C309 C 1.17716 1.05769 1.08936
 H310 H 1.18607 1.04854 1.10415
 O311 O 0.87990 0.97611 1.08699
 O312 O 0.85158 0.97607 1.11504
 C313 C 0.86019 0.96787 1.09535
 C314 C 0.84745 0.94833 1.08215
 C315 C 0.82398 0.94137 1.08881
 H316 H 0.81499 0.95054 1.10362
 O317 O 1.08805 1.11990 1.02417
 O318 O 1.11613 1.14818 1.02443
 C319 C 1.09642 1.13960 1.03251
 C320 C 1.08321 1.15238 1.05202
 C321 C 1.08998 1.17580 1.05916
 H322 H 1.10452 1.18491 1.04977
 O323 O 0.91335 0.87906 1.02318
 O324 O 0.88542 0.85063 1.02317
 C325 C 0.90508 0.85928 1.03132
 C326 C 0.91834 0.84653 1.05070
 C327 C 0.91164 0.82311 1.05774
 H328 H 0.89712 0.81393 1.04833
 O329 O 1.08773 0.97641 1.12029
 O330 O 1.11572 0.97630 1.14864
 C331 C 1.09601 0.96823 1.14004
 C332 C 1.08266 0.94894 1.15286
 C333 C 1.08921 0.94205 1.17637
 H334 H 1.10374 0.95145 1.18555
 O335 O 0.91290 1.02330 1.12016
 O336 O 0.88483 1.02334 1.14847
 C337 C 0.90450 1.03152 1.13991
 C338 C 0.91763 1.05104 1.15276
 C339 C 0.91080 1.05810 1.17619
 H340 H 0.89630 1.04863 1.18528
 O341 O 0.97681 1.12011 1.08752
 O342 O 0.97675 1.14843 1.11567
 C343 C 0.96861 1.13986 1.09595
 C344 C 0.94916 1.15267 1.08282
 C345 C 0.94239 1.17625 1.08941
 H346 H 0.95203 1.18549 1.10374
 O347 O 1.02419 0.88051 1.08661
 O348 O 1.02465 0.85245 1.11480
 C349 C 1.03293 0.86116 1.09524
 C350 C 1.05351 0.84920 1.08293
 C351 C 1.06461 0.82894 1.09338
 H352 H 1.05761 0.82162 1.11011
 O353 O 1.12120 0.91367 1.02221
 O354 O 1.14964 0.88573 1.02198
 C355 C 1.14099 0.90534 1.03031
 C356 C 1.15372 0.91835 1.04997
 C357 C 1.17714 0.91156 1.05693
 H358 H 1.18638 0.89729 1.04716
 O359 O 0.87974 1.08697 1.02396
 O360 O 0.85144 1.11505 1.02409
 C361 C 0.86000 1.09535 1.03217
 C362 C 0.84715 1.08215 1.05153
 C363 C 0.82361 1.08874 1.05840
 H364 H 0.81445 1.10317 1.04891
 Cu365 Cu 1.00025 0.89931 1.10048
 Cu366 Cu 1.00052 0.86547 1.13418
 Cu367 Cu 1.00031 1.10070 1.10119
 Cu368 Cu 1.00025 1.13453 1.13515
 Cu369 Cu 0.89957 0.89843 0.99976
 Cu370 Cu 0.86591 0.86444 0.99966
 Cu371 Cu 1.10170 0.89993 0.99869
 Cu372 Cu 1.13557 0.86612 0.99864
 Cu373 Cu 0.89913 1.10064 1.00047
 Cu374 Cu 0.86533 1.13451 1.00058
 Cu375 Cu 1.10188 1.10075 1.00046
 Cu376 Cu 1.13576 1.13454 1.00074
 Cu377 Cu 0.89913 0.99971 1.10084
 Cu378 Cu 0.86528 0.99971 1.13467
 Cu379 Cu 1.10145 0.99993 1.10096
 Cu380 Cu 1.13522 0.99984 1.13484
 C381 C 1.06343 0.93700 1.14135
 H382 H 1.05845 0.94205 1.12312
 C383 C 1.07679 0.92342 1.18833
 C384 C 0.93683 1.06308 1.14137
 H385 H 0.94204 1.05788 1.12321
 C386 C 0.92289 1.07699 1.18818
 C387 C 0.85863 1.06303 1.06356
 H388 H 0.87687 1.05801 1.05851
 C389 C 0.81161 1.07647 1.07710
 C390 C 1.14212 0.93722 1.06243
 H391 H 1.12395 0.94238 1.05731
 C392 C 1.18893 0.92334 1.07614
 C393 C 1.06351 0.85922 1.06185
 H394 H 1.05542 0.87520 1.05400
 C395 C 1.08564 0.81898 1.08325
 C396 C 0.93691 1.14108 1.06382
 H397 H 0.94189 1.12281 1.05879
 C398 C 0.92358 1.18820 1.07724
 C399 C 0.93665 0.93647 1.14105
 H400 H 0.94185 0.94174 1.12294
 C401 C 0.92277 0.92236 1.18772
 C402 C 1.06363 1.06315 1.14153
 H403 H 1.05866 1.05816 1.12325
 C404 C 1.07691 1.07651 1.18868
 C405 C 0.93754 0.85805 1.06267
 H406 H 0.94262 0.87622 1.05750
 C407 C 0.92386 0.81126 1.07657
 C408 C 1.06394 1.14097 1.06394
 H409 H 1.05878 1.12281 1.05868
 C410 C 1.07777 1.18776 1.07800
 C411 C 0.85903 0.93611 1.06311
 H412 H 0.87722 0.94124 1.05804
 C413 C 0.81212 0.92241 1.07668
 C414 C 1.14217 1.06309 1.06367
 H415 H 1.12392 1.05812 1.05862
 C416 C 1.18921 1.07643 1.07720
 O417 O 0.97647 0.41195 0.37955
 O418 O 0.97653 0.38384 0.35120
 C419 C 0.96838 0.40357 0.35975
 C420 C 0.94909 0.41682 0.34679
 C421 C 0.94228 0.41007 0.32327
 H422 H 0.95137 0.39514 0.31440
 O423 O 1.02354 0.58656 0.38100
 O424 O 1.02415 0.61482 0.35300
 C425 C 1.03234 0.59522 0.36169
 C426 C 1.05290 0.58286 0.34974
 C427 C 1.06401 0.59327 0.32946
 H428 H 1.05705 0.61001 0.32214
 O429 O 0.87963 0.47620 0.41169
 O430 O 0.85152 0.47614 0.38345
 C431 C 0.85996 0.46800 0.40317
 C432 C 0.84708 0.44856 0.41620
 C433 C 0.82375 0.44140 0.40922
 H434 H 0.81493 0.45039 0.39427
 O435 O 1.12051 0.52198 0.41411
 O436 O 1.14899 0.52181 0.38622
 C437 C 1.14031 0.53010 0.40582
 C438 C 1.15303 0.54975 0.41886
 C439 C 1.17642 0.55680 0.41200
 H440 H 1.18563 0.54710 0.39767
 O441 O 0.91229 0.37958 0.47579
 O442 O 0.88421 0.35130 0.47583
 C443 C 0.90395 0.35975 0.46772
 C444 C 0.91717 0.34673 0.44838
 C445 C 0.91036 0.32327 0.44141
 H446 H 0.89582 0.31424 0.45088
 O447 O 1.08699 0.61990 0.47701
 O448 O 1.11504 0.64821 0.47703
 C449 C 1.09533 0.63966 0.46890
 C450 C 1.08204 0.65255 0.44962
 C451 C 1.08868 0.67606 0.44277
 H452 H 1.10323 0.68517 0.45219
 O453 O 0.91300 0.52315 0.37893
 O454 O 0.88512 0.52319 0.35046
 C455 C 0.90476 0.53132 0.35916
 C456 C 0.91805 0.55072 0.34646
 C457 C 0.91144 0.55775 0.32302
 H458 H 0.89660 0.54870 0.31400
 O459 O 1.08734 0.47511 0.38056
 O460 O 1.11545 0.47521 0.35230
 C461 C 1.09574 0.46704 0.36074
 C462 C 1.08261 0.44766 0.34771
 C463 C 1.08950 0.44071 0.32426
 H464 H 1.10403 0.45022 0.31526
 O465 O 1.02332 0.37881 0.41283
 O466 O 1.02340 0.35043 0.38474
 C467 C 1.03148 0.35902 0.40448
 C468 C 1.05078 0.34611 0.41775
 C469 C 1.05760 0.32257 0.41108
 H470 H 1.04852 0.31366 0.39618
 O471 O 0.97582 0.61976 0.41320
 O472 O 0.97600 0.64793 0.38511
 C473 C 0.96766 0.63942 0.40472
 C474 C 0.94803 0.65224 0.41767
 C475 C 0.94095 0.67560 0.41080
 H476 H 0.95045 0.68467 0.39632
 O477 O 0.87922 0.58660 0.47625
 O478 O 0.85086 0.61460 0.47627
 C479 C 0.85952 0.59496 0.46801
 C480 C 0.84687 0.58185 0.44835
 C481 C 0.82340 0.58848 0.44135
 H482 H 0.81412 0.60281 0.45098
 O483 O 1.12008 0.41119 0.47713
 O484 O 1.14827 0.38301 0.47714
 C485 C 1.13980 0.40270 0.46898
 C486 C 1.15267 0.41576 0.44955
 C487 C 1.17608 0.40893 0.44244
 H488 H 1.18519 0.39440 0.45182
 O489 O 0.97641 0.58680 0.37979
 O490 O 0.97688 0.61474 0.35147
 C491 C 0.96858 0.59510 0.35990
 C492 C 0.94928 0.58193 0.34681
 C493 C 0.94245 0.58873 0.32335
 H494 H 0.95201 0.60322 0.31435
 O495 O 1.02353 0.41177 0.37975
 O496 O 1.02367 0.38366 0.35139
 C497 C 1.03181 0.40334 0.36004
 C498 C 1.05134 0.41648 0.34735
 C499 C 1.05847 0.40975 0.32391
 H500 H 1.04942 0.39490 0.31488
 O501 O 1.12019 0.47483 0.41398
 O502 O 1.14848 0.47475 0.38590
 C503 C 1.13989 0.46659 0.40554
 C504 C 1.15269 0.44708 0.41854
 C505 C 1.17608 0.44003 0.41166
 H506 H 1.18495 0.44912 0.39680
 O507 O 0.87987 0.52326 0.41201
 O508 O 0.85173 0.52327 0.38380
 C509 C 0.86017 0.53142 0.40358
 C510 C 0.84720 0.55078 0.41683
 C511 C 0.82374 0.55765 0.41007
 H512 H 0.81495 0.54858 0.39509
 O513 O 0.91206 0.61987 0.47648
 O514 O 0.88394 0.64812 0.47650
 C515 C 0.90364 0.63958 0.46832
 C516 C 0.91677 0.65236 0.44888
 C517 C 0.90991 0.67572 0.44178
 H518 H 0.89498 0.68462 0.45081
 O519 O 1.08665 0.37854 0.47692
 O520 O 1.11457 0.35008 0.47697
 C521 C 1.09497 0.35875 0.46872
 C522 C 1.08185 0.34599 0.44915
 C523 C 1.08843 0.32245 0.44223
 H524 H 1.10274 0.31322 0.45184
 O525 O 1.08711 0.52228 0.38146
 O526 O 1.11552 0.52243 0.35350
 C527 C 1.09591 0.53079 0.36208
 C528 C 1.08385 0.55131 0.34994
 C529 C 1.09454 0.56192 0.32959
 H530 H 1.11079 0.55411 0.32193
 O531 O 0.91311 0.47606 0.37906
 O532 O 0.88525 0.47601 0.35058
 C533 C 0.90485 0.46781 0.35928
 C534 C 0.91802 0.44823 0.34658
 C535 C 0.91146 0.44124 0.32306
 H536 H 0.89715 0.45084 0.31380
 O537 O 1.02291 0.62003 0.41369
 O538 O 1.02305 0.64842 0.38580
 C539 C 1.03109 0.63983 0.40549
 C540 C 1.05047 0.65268 0.41875
 C541 C 1.05734 0.67617 0.41216
 H542 H 1.04810 0.68512 0.39744
 O543 O 0.97624 0.37890 0.41256
 O544 O 0.97625 0.35053 0.38447
 C545 C 0.96804 0.35917 0.40414
 C546 C 0.94851 0.34644 0.41725
 C547 C 0.94146 0.32299 0.41050
 H548 H 0.95056 0.31398 0.39566
 O549 O 1.12004 0.58670 0.47701
 O550 O 1.14835 0.61474 0.47699
 C551 C 1.13982 0.59499 0.46887
 C552 C 1.15277 0.58159 0.44960
 C553 C 1.17616 0.58840 0.44248
 H554 H 1.18493 0.60354 0.45132
 O555 O 0.87935 0.41291 0.47532
 O556 O 0.85107 0.38483 0.47515
 C557 C 0.85969 0.40445 0.46699
 C558 C 0.84699 0.41743 0.44739
 C559 C 0.82366 0.41051 0.44020
 H560 H 0.81452 0.39603 0.44963
 Cu561 Cu 0.99988 0.39817 0.39899
 Cu562 Cu 0.99997 0.36427 0.36511
 Cu563 Cu 0.99957 0.60047 0.39972
 Cu564 Cu 1.00001 0.63427 0.36597
 Cu565 Cu 0.89920 0.49968 0.39825
 Cu566 Cu 0.86560 0.49967 0.36421
 Cu567 Cu 1.10096 0.49848 0.40034
 Cu568 Cu 1.13491 0.49850 0.36661
 C569 C 0.93698 0.43604 0.35819
 H570 H 0.94198 0.44119 0.37642
 C571 C 0.92357 0.42227 0.31120
 C572 C 1.06286 0.56176 0.35977
 H573 H 1.05476 0.55395 0.37576
 C574 C 1.08501 0.58309 0.31949
 C575 C 0.85844 0.43659 0.43542
 H576 H 0.87654 0.44185 0.44073
 C577 C 0.81183 0.42247 0.42121
 C578 C 1.14147 0.56212 0.43781
 H579 H 1.12333 0.55693 0.44301
 C580 C 1.18818 0.57604 0.42377
 C581 C 0.93639 0.35805 0.43633
 H582 H 0.94157 0.37624 0.44145
 C583 C 0.92248 0.31120 0.42257
 C584 C 1.06279 0.64112 0.43764
 H585 H 1.05774 0.62290 0.44264
 C586 C 1.07631 0.68808 0.42416
 C587 C 0.93711 0.56279 0.35809
 H588 H 0.94211 0.55762 0.37628
 C589 C 0.92364 0.57664 0.31124
 C590 C 1.06339 0.43558 0.35899
 H591 H 1.05816 0.44069 0.37717
 C592 C 1.07745 0.42186 0.31216
 C593 C 1.06288 0.35757 0.43693
 H594 H 1.05787 0.37582 0.44203
 C595 C 1.07631 0.31053 0.42331
 C596 C 0.93596 0.64088 0.43684
 H597 H 0.94119 0.62278 0.44207
 C598 C 0.92199 0.68755 0.42284
 C599 C 0.85852 0.56286 0.43611
 H600 H 0.87670 0.55781 0.44127
 C601 C 0.81163 0.57638 0.42233
 C602 C 1.14125 0.43498 0.43762
 H603 H 1.12311 0.44019 0.44284
 C604 C 1.18800 0.42108 0.42361
 O605 O 1.02326 0.41264 0.62024
 O606 O 1.02314 0.38462 0.64848
 C607 C 1.03143 0.40423 0.63994
 C608 C 1.05097 0.41728 0.65278
 C609 C 1.05804 0.41040 0.67614
 H610 H 1.04898 0.39547 0.68494
 O611 O 0.97590 0.58695 0.62038
 O612 O 0.97580 0.61505 0.64875
 C613 C 0.96768 0.59534 0.64013
 C614 C 0.94824 0.58218 0.65292
 C615 C 0.94143 0.58878 0.67649
 H616 H 0.95104 0.60314 0.68572
 O617 O 0.87908 0.52329 0.58714
 O618 O 0.85070 0.52337 0.61514
 C619 C 0.85931 0.53147 0.59547
 C620 C 0.84645 0.55079 0.58224
 C621 C 0.82290 0.55763 0.58882
 H622 H 0.81395 0.54854 0.60364
 O623 O 1.11992 0.47598 0.58736
 O624 O 1.14818 0.47607 0.61545
 C625 C 1.13961 0.46778 0.59578
 C626 C 1.15237 0.44815 0.58272
 C627 C 1.17582 0.44121 0.58944
 H628 H 1.18480 0.45049 0.60419
 O629 O 1.08659 0.37847 0.52399
 O630 O 1.11452 0.35004 0.52415
 C631 C 1.09483 0.35872 0.53220
 C632 C 1.08149 0.34602 0.55157
 C633 C 1.08811 0.32258 0.55861
 H634 H 1.10261 0.31336 0.54921
 O635 O 0.91215 0.61966 0.52356
 O636 O 0.88405 0.64793 0.52365
 C637 C 0.90374 0.63939 0.53181
 C638 C 0.91687 0.65225 0.55131
 C639 C 0.91007 0.67570 0.55833
 H640 H 0.89519 0.68456 0.54924
 O641 O 0.91208 0.47632 0.62027
 O642 O 0.88397 0.47635 0.64853
 C643 C 0.90371 0.46823 0.64003
 C644 C 0.91700 0.44899 0.65297
 C645 C 0.91027 0.44212 0.67645
 H646 H 0.89529 0.45112 0.68530
 O647 O 1.08679 0.52328 0.62032
 O648 O 1.11480 0.52342 0.64866
 C649 C 1.09514 0.53157 0.64005
 C650 C 1.08199 0.55113 0.65283
 C651 C 1.08882 0.55831 0.67621
 H652 H 1.10333 0.54888 0.68532
 O653 O 0.97558 0.38018 0.58723
 O654 O 0.97506 0.35227 0.61556
 C655 C 0.96681 0.36089 0.59597
 C656 C 0.94621 0.34893 0.58372
 C657 C 0.93498 0.32880 0.59430
 H658 H 0.94190 0.32158 0.61110
 O659 O 1.02295 0.62008 0.58740
 O660 O 1.02287 0.64845 0.61550
 C661 C 1.03109 0.63984 0.59582
 C662 C 1.05055 0.65266 0.58271
 C663 C 1.05739 0.67619 0.58940
 H664 H 1.04815 0.68518 0.60417
 O665 O 0.87890 0.41321 0.52245
 O666 O 0.85040 0.38534 0.52221
 C667 C 0.85905 0.40496 0.53050
 C668 C 0.84625 0.41806 0.55006
 C669 C 0.82280 0.41130 0.55700
 H670 H 0.81360 0.39699 0.54727
 O671 O 1.11998 0.58686 0.52405
 O672 O 1.14831 0.61489 0.52411
 C673 C 1.13973 0.59522 0.53223
 C674 C 1.15258 0.58202 0.55159
 C675 C 1.17609 0.58865 0.55846
 H676 H 1.18502 0.60348 0.54937
 O677 O 1.02300 0.58698 0.62034
 O678 O 1.02296 0.61510 0.64868
 C679 C 1.03118 0.59541 0.64008
 C680 C 1.05069 0.58232 0.65287
 C681 C 1.05778 0.58925 0.67626
 H682 H 1.04872 0.60419 0.68516
 O683 O 0.97617 0.41302 0.62055
 O684 O 0.97609 0.38519 0.64900
 C685 C 0.96800 0.40484 0.64037
 C686 C 0.94854 0.41807 0.65315
 C687 C 0.94159 0.41145 0.67662
 H688 H 0.95122 0.39715 0.68583
 O689 O 1.12007 0.52311 0.58742
 O690 O 1.14833 0.52324 0.61551
 C691 C 1.13979 0.53134 0.59582
 C692 C 1.15261 0.55078 0.58270
 C693 C 1.17613 0.55764 0.58933
 H694 H 1.18531 0.54806 0.60368
 O695 O 0.87913 0.47625 0.58699
 O696 O 0.85075 0.47625 0.61499
 C697 C 0.85933 0.46813 0.59526
 C698 C 0.84642 0.44885 0.58184
 C699 C 0.82297 0.44185 0.58854
 H700 H 0.81412 0.45075 0.60360
 O701 O 1.08690 0.61992 0.52405
 O702 O 1.11496 0.64822 0.52417
 C703 C 1.09525 0.63967 0.53228
 C704 C 1.08201 0.65255 0.55169
 C705 C 1.08860 0.67608 0.55861
 H706 H 1.10307 0.68522 0.54913
 O707 O 0.91217 0.38044 0.52298
 O708 O 0.88376 0.35249 0.52308
 C709 C 0.90332 0.36110 0.53152
 C710 C 0.91527 0.34904 0.55217
 C711 C 0.90445 0.32885 0.56297
 H712 H 0.88816 0.32123 0.55521
 O713 O 1.08694 0.47618 0.62050
 O714 O 1.11495 0.47624 0.64883
 C715 C 1.09530 0.46802 0.64022
 C716 C 1.08220 0.44850 0.65294
 C717 C 1.08903 0.44139 0.67630
 H718 H 1.10352 0.45085 0.68547
 O719 O 0.91215 0.52337 0.62019
 O720 O 0.88404 0.52347 0.64846
 C721 C 0.90375 0.53159 0.63993
 C722 C 0.91697 0.55099 0.65283
 C723 C 0.91039 0.55783 0.67639
 H724 H 0.89558 0.54869 0.68532
 O725 O 0.97584 0.61992 0.58730
 O726 O 0.97570 0.64827 0.61543
 C727 C 0.96757 0.63964 0.59572
 C728 C 0.94805 0.65237 0.58259
 C729 C 0.94101 0.67583 0.58936
 H730 H 0.95048 0.68503 0.60384
 O731 O 1.02276 0.37917 0.58735
 O732 O 1.02235 0.35091 0.61534
 C733 C 1.03065 0.35932 0.59568
 C734 C 1.05001 0.34625 0.58255
 C735 C 1.05686 0.32281 0.58937
 H736 H 1.04765 0.31400 0.60420
 O737 O 1.11966 0.41157 0.52417
 O738 O 1.14787 0.38341 0.52430
 C739 C 1.13935 0.40318 0.53241
 C740 C 1.15220 0.41647 0.55181
 C741 C 1.17565 0.40978 0.55877
 H742 H 1.18475 0.39519 0.54934
 O743 O 0.87900 0.58666 0.52336
 O744 O 0.85065 0.61468 0.52345
 C745 C 0.85924 0.59502 0.53156
 C746 C 0.84642 0.58187 0.55097
 C747 C 0.82288 0.58847 0.55779
 H748 H 0.81369 0.60280 0.54818
 Cu749 Cu 0.99953 0.39904 0.60101
 Cu750 Cu 0.99919 0.36538 0.63489
 Cu751 Cu 0.99943 0.60067 0.60104
 Cu752 Cu 0.99932 0.63456 0.63493
 Cu753 Cu 0.89851 0.39934 0.49907
 Cu754 Cu 0.86456 0.36562 0.49901
 Cu755 Cu 1.10045 0.39777 0.50055
 Cu756 Cu 1.13413 0.36377 0.50067
 Cu757 Cu 0.89842 0.60039 0.49991
 Cu758 Cu 0.86453 0.63416 0.49999
 Cu759 Cu 1.10066 0.60054 0.50050
 Cu760 Cu 1.13451 0.63435 0.50057
 Cu761 Cu 0.89843 0.49978 0.60084
 Cu762 Cu 0.86452 0.49986 0.63462
 Cu763 Cu 1.10063 0.49963 0.60108
 Cu764 Cu 1.13439 0.49976 0.63495
 C765 C 1.06303 0.43646 0.64144
 H766 H 1.05782 0.44170 0.62333
 C767 C 1.07696 0.42244 0.68811
 C768 C 0.93603 0.56315 0.64134
 H769 H 0.94105 0.55812 0.62308
 C770 C 0.92262 0.57660 0.68843
 C771 C 0.85796 0.56289 0.56317
 H772 H 0.87621 0.55787 0.55815
 C773 C 0.81091 0.57635 0.57660
 C774 C 1.14081 0.43580 0.56377
 H775 H 1.12263 0.44091 0.55865
 C776 C 1.18768 0.42214 0.57747
 C777 C 1.06230 0.35759 0.56351
 H778 H 1.05728 0.37578 0.55833
 C779 C 1.07582 0.31077 0.57742
 C780 C 0.93600 0.64084 0.56342
 H781 H 0.94119 0.62266 0.55825
 C782 C 0.92213 0.68770 0.57723
 C783 C 0.93628 0.43699 0.64159
 H784 H 0.94140 0.44201 0.62338
 C785 C 0.92255 0.42344 0.68847
 C786 C 1.06278 0.56312 0.64141
 H787 H 1.05757 0.55784 0.62327
 C788 C 1.07675 0.57727 0.68813
 C789 C 0.93631 0.35882 0.56253
 H790 H 0.94451 0.37469 0.55457
 C791 C 0.91393 0.31886 0.58421
 C792 C 1.06284 0.64110 0.56372
 H793 H 1.05781 0.62286 0.55862
 C794 C 1.07629 0.68812 0.57736
 C795 C 0.85780 0.43699 0.56246
 H796 H 0.87599 0.44212 0.55736
 C797 C 0.81096 0.42316 0.57614
 C798 C 1.14109 0.56294 0.56369
 H799 H 1.12286 0.55789 0.55864
 C800 C 1.18808 0.57646 0.57720
 O801 O 0.58526 1.02215 0.61918
 O802 O 0.61325 1.02226 0.64754
 C803 C 0.59357 1.03036 0.63897
 C804 C 0.58045 1.04991 0.65179
 C805 C 0.58734 1.05707 0.67516
 H806 H 0.60175 1.04752 0.68430
 O807 O 0.41171 0.97515 0.61876
 O808 O 0.38362 0.97511 0.64703
 C809 C 0.40332 0.96696 0.63845
 C810 C 0.41647 0.94750 0.65122
 C811 C 0.40971 0.94052 0.67465
 H812 H 0.39485 0.94964 0.68360
 O813 O 0.52194 1.11920 0.58586
 O814 O 0.52193 1.14761 0.61391
 C815 C 0.53004 1.13902 0.59417
 C816 C 0.54927 1.15195 0.58082
 C817 C 0.55630 1.17540 0.58764
 H818 H 0.54742 1.18423 0.60273
 O819 O 0.47543 0.87821 0.58549
 O820 O 0.47539 0.84991 0.61346
 C821 C 0.46725 0.85846 0.59380
 C822 C 0.44785 0.84559 0.58058
 C823 C 0.44097 0.82211 0.58722
 H824 H 0.45012 0.81323 0.60203
 O825 O 0.61752 1.08622 0.52170
 O826 O 0.64549 1.11460 0.52200
 C827 C 0.63689 1.09501 0.53031
 C828 C 0.64902 1.08297 0.55085
 C829 C 0.66931 1.09370 0.56162
 H830 H 0.67695 1.10997 0.55392
 O831 O 0.37873 0.91121 0.52193
 O832 O 0.35043 0.88315 0.52190
 C833 C 0.35899 0.90285 0.53010
 C834 C 0.34615 0.91608 0.54955
 C835 C 0.32261 0.90951 0.55640
 H836 H 0.31344 0.89507 0.54684
 O837 O 0.47499 1.08613 0.61899
 O838 O 0.47488 1.11429 0.64731
 C839 C 0.46678 1.09455 0.63874
 C840 C 0.44739 1.08135 0.65156
 C841 C 0.44050 1.08799 0.67509
 H842 H 0.45001 1.10246 0.68428
 O843 O 0.52244 0.91126 0.61878
 O844 O 0.52247 0.88319 0.64698
 C845 C 0.53064 0.90286 0.63847
 C846 C 0.55015 0.91598 0.65128
 C847 C 0.55742 0.90904 0.67456
 H848 H 0.54847 0.89407 0.68340
 O849 O 0.61883 0.97548 0.58573
 O850 O 0.64724 0.97588 0.61366
 C851 C 0.63871 0.96757 0.59400
 C852 C 0.65171 0.94820 0.58079
 C853 C 0.67512 0.94127 0.58766
 H854 H 0.68392 0.95042 0.60259
 O855 O 0.37864 1.02221 0.58576
 O856 O 0.35032 1.02225 0.61381
 C857 C 0.35889 1.03040 0.59415
 C858 C 0.34604 1.04983 0.58103
 C859 C 0.32262 1.05684 0.58787
 H860 H 0.31376 1.04779 0.60276
 O861 O 0.41144 1.11892 0.52203
 O862 O 0.38331 1.14716 0.52212
 C863 C 0.40302 1.13866 0.53025
 C864 C 0.41614 1.15154 0.54974
 C865 C 0.40950 1.17508 0.55661
 H866 H 0.39513 1.18424 0.54702
 O867 O 0.58641 0.87855 0.52195
 O868 O 0.61456 0.85034 0.52191
 C869 C 0.59484 0.85885 0.53009
 C870 C 0.58167 0.84598 0.54950
 C871 C 0.58840 0.82251 0.55638
 H872 H 0.60291 0.81339 0.54688
 O873 O 0.41163 1.02226 0.61892
 O874 O 0.38355 1.02227 0.64721
 C875 C 0.40323 1.03045 0.63867
 C876 C 0.41635 1.04993 0.65156
 C877 C 0.40969 1.05682 0.67509
 H878 H 0.39492 1.04762 0.68403
 O879 O 0.58569 0.97504 0.61885
 O880 O 0.61388 0.97517 0.64701
 C881 C 0.59424 0.96686 0.63849
 C882 C 0.58134 0.94723 0.65125
 C883 C 0.58838 0.94008 0.67454
 H884 H 0.60292 0.94955 0.68360
 O885 O 0.52252 0.87837 0.58542
 O886 O 0.52254 0.85006 0.61337
 C887 C 0.53073 0.85865 0.59374
 C888 C 0.55025 0.84588 0.58056
 C889 C 0.55722 0.82242 0.58720
 H890 H 0.54805 0.81348 0.60198
 O891 O 0.47490 1.11906 0.58591
 O892 O 0.47482 1.14748 0.61395
 C893 C 0.46669 1.13882 0.59426
 C894 C 0.44729 1.15161 0.58104
 C895 C 0.44041 1.17515 0.58767
 H896 H 0.44951 1.18412 0.60252
 O897 O 0.37844 1.08576 0.52208
 O898 O 0.35007 1.11376 0.52219
 C899 C 0.35871 1.09412 0.53033
 C900 C 0.34596 1.08102 0.54985
 C901 C 0.32254 1.08779 0.55693
 H902 H 0.31337 1.10223 0.54748
 O903 O 0.61937 0.91178 0.52197
 O904 O 0.64778 0.88382 0.52195
 C905 C 0.63914 0.90350 0.53015
 C906 C 0.65189 0.91676 0.54964
 C907 C 0.67531 0.91007 0.55675
 H908 H 0.68449 0.89554 0.54732
 O909 O 0.47535 0.91141 0.61857
 O910 O 0.47531 0.88336 0.64679
 C911 C 0.46714 0.90304 0.63827
 C912 C 0.44765 0.91620 0.65111
 C913 C 0.44066 0.90948 0.67453
 H914 H 0.45016 0.89502 0.68363
 O915 O 0.52204 1.08623 0.61902
 O916 O 0.52202 1.11439 0.64733
 C917 C 0.53018 1.09466 0.63879
 C918 C 0.54953 1.08145 0.65168
 C919 C 0.55666 1.08839 0.67506
 H920 H 0.54776 1.10345 0.68389
 O921 O 0.37868 0.97511 0.58564
 O922 O 0.35034 0.97510 0.61368
 C923 C 0.35894 0.96692 0.59398
 C924 C 0.34612 0.94747 0.58074
 C925 C 0.32260 0.94066 0.58735
 H926 H 0.31365 0.94987 0.60216
 O927 O 0.61792 1.02267 0.58579
 O928 O 0.64601 1.02318 0.61404
 C929 C 0.63728 1.03142 0.59449
 C930 C 0.64922 1.05199 0.58226
 C931 C 0.66945 1.06313 0.59283
 H932 H 0.67675 1.05617 0.60957
 O933 O 0.41176 0.87806 0.52187
 O934 O 0.38372 0.84974 0.52181
 C935 C 0.40339 0.85832 0.53000
 C936 C 0.41656 0.84552 0.54942
 C937 C 0.40992 0.82203 0.55630
 H938 H 0.39548 0.81284 0.54677
 O939 O 0.58481 1.11956 0.52133
 O940 O 0.61271 1.14803 0.52129
 C941 C 0.59309 1.13939 0.52950
 C942 C 0.58002 1.15216 0.54910
 C943 C 0.58680 1.17560 0.55616
 H944 H 0.60110 1.18481 0.54650
 Cu945 Cu 0.59911 0.99875 0.59957
 Cu946 Cu 0.63298 0.99910 0.63335
 Cu947 Cu 0.39799 0.99868 0.59946
 Cu948 Cu 0.36412 0.99868 0.63327
 Cu949 Cu 0.49849 1.09983 0.59964
 Cu950 Cu 0.49842 1.13379 0.63346
 Cu951 Cu 0.49893 0.89763 0.59927
 Cu952 Cu 0.49891 0.86379 0.63298
 C953 C 0.56141 1.06207 0.64030
 H954 H 0.55619 1.05680 0.62217
 C955 C 0.57548 1.07622 0.68700
 C956 C 0.43559 0.93536 0.63971
 H957 H 0.44074 0.94048 0.62155
 C958 C 0.42179 0.92162 0.68651
 C959 C 0.56111 1.14059 0.56141
 H960 H 0.55597 1.12241 0.55622
 C961 C 0.57497 1.18743 0.57533
 C962 C 0.43567 0.85705 0.56154
 H963 H 0.44073 0.87525 0.55649
 C964 C 0.42214 0.81011 0.57508
 C965 C 0.63922 1.06195 0.56116
 H966 H 0.62327 1.05383 0.55322
 C967 C 0.67939 1.08416 0.58280
 C968 C 0.35764 0.93521 0.56170
 H969 H 0.37588 0.94023 0.55667
 C970 C 0.31062 0.92181 0.57518
 C971 C 0.43534 1.06217 0.64005
 H972 H 0.44040 1.05711 0.62181
 C973 C 0.42177 1.07573 0.68707
 C974 C 0.56209 0.93520 0.63989
 H975 H 0.55673 0.94048 0.62184
 C976 C 0.57644 0.92108 0.68641
 C977 C 0.64035 0.93598 0.56163
 H978 H 0.62219 0.94106 0.55642
 C979 C 0.68714 0.92231 0.57566
 C980 C 0.35746 1.06189 0.56188
 H981 H 0.37562 1.05673 0.55666
 C982 C 0.31066 1.07571 0.57583
 C983 C 0.43518 1.14006 0.56192
 H984 H 0.44025 1.12182 0.55687
 C985 C 0.42164 1.18710 0.57546
 C986 C 0.56246 0.85740 0.56157
 H987 H 0.55732 0.87559 0.55652
 C988 C 0.57616 0.81051 0.57511
 O989 O 0.58598 0.97509 0.37796
 O990 O 0.61407 0.97504 0.34967
 C991 C 0.59440 0.96686 0.35822
 C992 C 0.58129 0.94736 0.34537
 C993 C 0.58796 0.94046 0.32186
 H994 H 0.60275 0.94966 0.31293
 O995 O 0.41140 1.02176 0.37777
 O996 O 0.38328 1.02155 0.34954
 C997 C 0.40295 1.02982 0.35804
 C998 C 0.41604 1.04924 0.34515
 C999 C 0.40926 1.05613 0.32170
 H1000 H 0.39442 1.04696 0.31278
 O1001 O 0.47471 1.11861 0.41085
 O1002 O 0.47454 1.14680 0.38278
 C1003 C 0.46643 1.13828 0.40249
 C1004 C 0.44696 1.15109 0.41570
 C1005 C 0.43986 1.17447 0.40893
 H1006 H 0.44927 1.18354 0.39439
 O1007 O 0.52273 0.87827 0.41111
 O1008 O 0.52283 0.84987 0.38305
 C1009 C 0.53097 0.85852 0.40274
 C1010 C 0.55043 0.84577 0.41592
 C1011 C 0.55741 0.82228 0.40921
 H1012 H 0.54832 0.81329 0.39436
 O1013 O 0.61929 0.91172 0.47487
 O1014 O 0.64770 0.88377 0.47476
 C1015 C 0.63904 0.90340 0.46662
 C1016 C 0.65177 0.91653 0.44712
 C1017 C 0.67522 0.90983 0.44009
 H1018 H 0.68442 0.89544 0.44959
 O1019 O 0.37842 1.08557 0.47498
 O1020 O 0.35004 1.11355 0.47502
 C1021 C 0.35866 1.09387 0.46682
 C1022 C 0.34587 1.08064 0.44734
 C1023 C 0.32236 1.08726 0.44048
 H1024 H 0.31318 1.10167 0.45009
 O1025 O 0.52191 1.08557 0.37777
 O1026 O 0.52182 1.11349 0.34943
 C1027 C 0.53008 1.09389 0.35803
 C1028 C 0.54964 1.08076 0.34526
 C1029 C 0.55667 1.08748 0.32184
 H1030 H 0.54753 1.10227 0.31292
 O1031 O 0.47556 0.91114 0.37807
 O1032 O 0.47561 0.88299 0.34974
 C1033 C 0.46740 0.90269 0.35832
 C1034 C 0.44795 0.91580 0.34549
 C1035 C 0.44115 0.90909 0.32196
 H1036 H 0.45038 0.89430 0.31300
 O1037 O 0.61893 1.02233 0.41106
 O1038 O 0.64729 1.02234 0.38305
 C1039 C 0.63866 1.03053 0.40273
 C1040 C 0.65141 1.05004 0.41596
 C1041 C 0.67486 1.05706 0.40930
 H1042 H 0.68385 1.04795 0.39445
 O1043 O 0.37864 0.97474 0.41112
 O1044 O 0.35027 0.97450 0.38314
 C1045 C 0.35890 0.96647 0.40282
 C1046 C 0.34612 0.94710 0.41607
 C1047 C 0.32258 0.94025 0.40952
 H1048 H 0.31360 0.94937 0.39475
 O1049 O 0.58506 1.11926 0.47419
 O1050 O 0.61317 1.14751 0.47422
 C1051 C 0.59353 1.13893 0.46599
 C1052 C 0.58055 1.15167 0.44643
 C1053 C 0.58751 1.17499 0.43929
 H1054 H 0.60203 1.18410 0.44876
 O1055 O 0.41189 0.87812 0.47478
 O1056 O 0.38385 0.84980 0.47465
 C1057 C 0.40354 0.85838 0.46652
 C1058 C 0.41675 0.84555 0.44704
 C1059 C 0.41011 0.82205 0.44007
 H1060 H 0.39568 0.81289 0.44958
 O1061 O 0.41171 0.97468 0.37802
 O1062 O 0.38360 0.97440 0.34978
 C1063 C 0.40333 0.96635 0.35832
 C1064 C 0.41657 0.94689 0.34550
 C1065 C 0.41002 0.93996 0.32197
 H1066 H 0.39560 0.94946 0.31279
 O1067 O 0.58590 1.02219 0.37792
 O1068 O 0.61402 1.02220 0.34967
 C1069 C 0.59429 1.03034 0.35820
 C1070 C 0.58110 1.04973 0.34536
 C1071 C 0.58788 1.05669 0.32193
 H1072 H 0.60243 1.04724 0.31282
 O1073 O 0.47564 0.87812 0.41109
 O1074 O 0.47568 0.84972 0.38302
 C1075 C 0.46749 0.85834 0.40270
 C1076 C 0.44806 0.84551 0.41587
 C1077 C 0.44118 0.82201 0.40914
 H1078 H 0.45034 0.81306 0.39430
 O1079 O 0.52176 1.11903 0.41055
 O1080 O 0.52168 1.14720 0.38245
 C1081 C 0.52989 1.13874 0.40212
 C1082 C 0.54936 1.15163 0.41521
 C1083 C 0.55654 1.17494 0.40829
 H1084 H 0.54755 1.18376 0.39333
 O1085 O 0.37875 0.91114 0.47485
 O1086 O 0.35045 0.88307 0.47474
 C1087 C 0.35902 0.90275 0.46664
 C1088 C 0.34618 0.91591 0.44724
 C1089 C 0.32263 0.90930 0.44045
 H1090 H 0.31347 0.89493 0.45002
 O1091 O 0.61834 1.08626 0.47453
 O1092 O 0.64665 1.11431 0.47477
 C1093 C 0.63817 1.09460 0.46654
 C1094 C 0.65117 1.08138 0.44718
 C1095 C 0.67463 1.08817 0.44030
 H1096 H 0.68368 1.10270 0.44985
 O1097 O 0.52264 0.91116 0.37794
 O1098 O 0.52275 0.88301 0.34963
 C1099 C 0.53085 0.90275 0.35819
 C1100 C 0.55024 0.91595 0.34535
 C1101 C 0.55715 0.90929 0.32182
 H1102 H 0.54767 0.89481 0.31264
 O1103 O 0.47482 1.08554 0.37764
 O1104 O 0.47466 1.11348 0.34932
 C1105 C 0.46659 1.09381 0.35792
 C1106 C 0.44716 1.08056 0.34514
 C1107 C 0.44017 1.08720 0.32170
 H1108 H 0.44967 1.10164 0.31256
 O1109 O 0.37855 1.02183 0.41111
 O1110 O 0.35017 1.02165 0.38314
 C1111 C 0.35876 1.02992 0.40280
 C1112 C 0.34590 1.04935 0.41604
 C1113 C 0.32239 1.05622 0.40942
 H1114 H 0.31346 1.04706 0.39457
 O1115 O 0.61900 0.97524 0.41108
 O1116 O 0.64734 0.97519 0.38304
 C1117 C 0.63877 0.96706 0.40272
 C1118 C 0.65165 0.94769 0.41589
 C1119 C 0.67510 0.94073 0.40912
 H1120 H 0.68397 0.94979 0.39423
 O1121 O 0.58635 0.87853 0.47486
 O1122 O 0.61451 0.85032 0.47475
 C1123 C 0.59479 0.85882 0.46662
 C1124 C 0.58167 0.84593 0.44713
 C1125 C 0.58841 0.82244 0.44019
 H1126 H 0.60285 0.81334 0.44972
 O1127 O 0.41135 1.11879 0.47490
 O1128 O 0.38321 1.14701 0.47494
 C1129 C 0.40289 1.13846 0.46671
 C1130 C 0.41593 1.15122 0.44716
 C1131 C 0.40907 1.17460 0.44014
 H1132 H 0.39423 1.18353 0.44929
 Cu1133 Cu 0.59964 0.99872 0.39731
 Cu1134 Cu 0.63352 0.99869 0.36352
 Cu1135 Cu 0.39790 0.99829 0.39730
 Cu1136 Cu 0.36398 0.99799 0.36357
 Cu1137 Cu 0.59862 1.10000 0.49785
 Cu1138 Cu 0.63238 1.13391 0.49804
 Cu1139 Cu 0.60004 0.89795 0.49844
 Cu1140 Cu 0.63399 0.86424 0.49834
 Cu1141 Cu 0.39774 1.09946 0.49850
 Cu1142 Cu 0.36381 1.13320 0.49857
 Cu1143 Cu 0.39809 0.89744 0.49837
 Cu1144 Cu 0.36428 0.86360 0.49826
 Cu1145 Cu 0.49831 1.09939 0.39702
 Cu1146 Cu 0.49815 1.13306 0.36314
 Cu1147 Cu 0.49914 0.89750 0.39736
 Cu1148 Cu 0.49922 0.86355 0.36352
 C1149 C 0.56229 0.93513 0.35687
 H1150 H 0.55721 0.94021 0.37510
 C1151 C 0.57589 0.92156 0.30986
 C1152 C 0.43513 1.06144 0.35661
 H1153 H 0.44029 1.05639 0.37479
 C1154 C 0.42132 1.07502 0.30978
 C1155 C 0.43502 1.13972 0.43496
 H1156 H 0.44024 1.12159 0.44012
 C1157 C 0.42103 1.18643 0.42113
 C1158 C 0.56254 0.85734 0.43502
 H1159 H 0.55740 0.87555 0.44013
 C1160 C 0.57629 0.81041 0.42134
 C1161 C 0.64023 0.93561 0.43504
 H1162 H 0.62204 0.94071 0.44021
 C1163 C 0.68710 0.92192 0.42120
 C1164 C 0.35738 1.06155 0.43515
 H1165 H 0.37560 1.05651 0.44020
 C1166 C 0.31042 1.07506 0.42163
 C1167 C 0.56183 1.06175 0.35676
 H1168 H 0.55666 1.05663 0.37492
 C1169 C 0.57567 1.07545 0.30996
 C1170 C 0.43568 0.93484 0.35701
 H1171 H 0.44068 0.93995 0.37525
 C1172 C 0.42231 0.92118 0.30998
 C1173 C 0.63982 1.06217 0.43504
 H1174 H 0.62163 1.05701 0.44009
 C1175 C 0.68669 1.07602 0.42146
 C1176 C 0.35767 0.93496 0.43508
 H1177 H 0.37592 0.93999 0.44007
 C1178 C 0.31062 0.92148 0.42171
 C1179 C 0.56134 1.14026 0.43441
 H1180 H 0.55605 1.12218 0.43967
 C1181 C 0.57553 1.18684 0.42031
 C1182 C 0.43587 0.85704 0.43496
 H1183 H 0.44093 0.87526 0.44009
 C1184 C 0.42232 0.81007 0.42124
 O1185 O 0.58808 0.52259 1.11922
 O1186 O 0.61610 0.52267 1.14755
 C1187 C 0.59643 0.53082 1.13898
 C1188 C 0.58327 0.55032 1.15181
 C1189 C 0.58988 0.55726 1.17533
 H1190 H 0.60425 0.54769 1.18452
 O1191 O 0.41399 0.47505 1.11889
 O1192 O 0.38578 0.47509 1.14705
 C1193 C 0.40545 0.46684 1.13853
 C1194 C 0.41841 0.44726 1.15129
 C1195 C 0.41141 0.44013 1.17460
 H1196 H 0.39684 0.44958 1.18368
 O1197 O 0.52460 0.61929 1.08613
 O1198 O 0.52456 0.64771 1.11418
 C1199 C 0.53275 0.63907 1.09450
 C1200 C 0.55215 0.65190 1.08130
 C1201 C 0.55903 0.67542 1.08797
 H1202 H 0.54990 0.68437 1.10284
 O1203 O 0.47753 0.37852 1.08551
 O1204 O 0.47752 0.35020 1.11346
 C1205 C 0.46935 0.35878 1.09382
 C1206 C 0.44988 0.34596 1.08062
 C1207 C 0.44295 0.32250 1.08725
 H1208 H 0.45211 0.31357 1.10204
 O1209 O 0.62127 0.58618 1.02241
 O1210 O 0.64956 0.61425 1.02255
 C1211 C 0.64096 0.59459 1.03069
 C1212 C 0.65370 0.58151 1.05022
 C1213 C 0.67709 0.58834 1.05734
 H1214 H 0.68624 0.60281 1.04790
 O1215 O 0.38071 0.41175 1.02200
 O1216 O 0.35238 0.38373 1.02195
 C1217 C 0.36095 0.40342 1.03015
 C1218 C 0.34812 0.41668 1.04961
 C1219 C 0.32468 0.40998 1.05666
 H1220 H 0.31553 0.39544 1.04721
 O1221 O 0.47751 0.58634 1.11919
 O1222 O 0.47738 0.61449 1.14751
 C1223 C 0.46931 0.59473 1.13895
 C1224 C 0.45001 0.58143 1.15183
 C1225 C 0.44305 0.58810 1.17534
 H1226 H 0.45239 0.60270 1.18448
 O1227 O 0.52455 0.41166 1.11872
 O1228 O 0.52460 0.38360 1.14692
 C1229 C 0.53274 0.40330 1.13843
 C1230 C 0.55214 0.41651 1.15132
 C1231 C 0.55909 0.40977 1.17475
 H1232 H 0.55001 0.39488 1.18358
 O1233 O 0.62123 0.47549 1.08601
 O1234 O 0.64951 0.47555 1.11408
 C1235 C 0.64097 0.46735 1.09437
 C1236 C 0.65386 0.44791 1.08116
 C1237 C 0.67735 0.44107 1.08785
 H1238 H 0.68624 0.45027 1.10269
 O1239 O 0.38163 0.52267 1.08594
 O1240 O 0.35355 0.52310 1.11421
 C1241 C 0.36226 0.53138 1.09467
 C1242 C 0.35029 0.55195 1.08248
 C1243 C 0.33007 0.56312 1.09309
 H1244 H 0.32280 0.55616 1.10986
 O1245 O 0.41471 0.61941 1.02150
 O1246 O 0.38681 0.64788 1.02141
 C1247 C 0.40642 0.63925 1.02962
 C1248 C 0.41952 0.65211 1.04914
 C1249 C 0.41283 0.67563 1.05601
 H1250 H 0.39816 0.68460 1.04668
 O1251 O 0.58848 0.37848 1.02212
 O1252 O 0.61656 0.35019 1.02207
 C1253 C 0.59686 0.35874 1.03024
 C1254 C 0.58365 0.34590 1.04961
 C1255 C 0.59026 0.32238 1.05643
 H1256 H 0.60471 0.31320 1.04690
 O1257 O 0.41441 0.52215 1.11919
 O1258 O 0.38642 0.52215 1.14759
 C1259 C 0.40610 0.53029 1.13902
 C1260 C 0.41924 0.54975 1.15191
 C1261 C 0.41252 0.55665 1.17541
 H1262 H 0.39779 0.54739 1.18434
 O1263 O 0.58810 0.47548 1.11905
 O1264 O 0.61613 0.47549 1.14737
 C1265 C 0.59647 0.46729 1.13876
 C1266 C 0.58334 0.44778 1.15148
 C1267 C 0.59005 0.44079 1.17492
 H1268 H 0.60448 0.45032 1.18412
 O1269 O 0.52462 0.37848 1.08561
 O1270 O 0.52466 0.35017 1.11357
 C1271 C 0.53282 0.35874 1.09392
 C1272 C 0.55227 0.34591 1.08071
 C1273 C 0.55911 0.32241 1.08729
 H1274 H 0.54991 0.31348 1.10206
 O1275 O 0.47757 0.61930 1.08601
 O1276 O 0.47743 0.64771 1.11406
 C1277 C 0.46939 0.63910 1.09432
 C1278 C 0.45015 0.65198 1.08094
 C1279 C 0.44322 0.67551 1.08756
 H1280 H 0.45254 0.68464 1.10219
 O1281 O 0.38195 0.58611 1.02187
 O1282 O 0.35397 0.61450 1.02214
 C1283 C 0.36257 0.59492 1.03048
 C1284 C 0.35045 0.58292 1.05105
 C1285 C 0.33017 0.59367 1.06188
 H1286 H 0.32254 0.60994 1.05418
 O1287 O 0.62146 0.41166 1.02225
 O1288 O 0.64980 0.38363 1.02223
 C1289 C 0.64120 0.40332 1.03044
 C1290 C 0.65396 0.41654 1.04994
 C1291 C 0.67747 0.40994 1.05687
 H1292 H 0.68667 0.39551 1.04732
 O1293 O 0.47747 0.41143 1.11885
 O1294 O 0.47745 0.38335 1.14704
 C1295 C 0.46925 0.40301 1.13854
 C1296 C 0.44969 0.41609 1.15134
 C1297 C 0.44246 0.40918 1.17465
 H1298 H 0.45146 0.39426 1.18350
 O1299 O 0.52456 0.58634 1.11918
 O1300 O 0.52451 0.61449 1.14750
 C1301 C 0.53269 0.59477 1.13893
 C1302 C 0.55208 0.58160 1.15180
 C1303 C 0.55893 0.58831 1.17531
 H1304 H 0.54980 0.60318 1.18425
 O1305 O 0.38095 0.47548 1.08571
 O1306 O 0.35252 0.47579 1.11364
 C1307 C 0.36109 0.46752 1.09397
 C1308 C 0.34816 0.44813 1.08074
 C1309 C 0.32473 0.44120 1.08755
 H1310 H 0.31586 0.45036 1.10244
 O1311 O 0.62112 0.52260 1.08608
 O1312 O 0.64938 0.52270 1.11417
 C1313 C 0.64083 0.53084 1.09449
 C1314 C 0.65365 0.55030 1.08139
 C1315 C 0.67703 0.55738 1.08826
 H1316 H 0.68589 0.54835 1.10316
 O1317 O 0.41375 0.37859 1.02200
 O1318 O 0.38568 0.35031 1.02191
 C1319 C 0.40536 0.35886 1.03012
 C1320 C 0.41852 0.34602 1.04953
 C1321 C 0.41183 0.32253 1.05640
 H1322 H 0.39736 0.31339 1.04688
 O1323 O 0.58818 0.61925 1.02230
 O1324 O 0.61623 0.64756 1.02241
 C1325 C 0.59653 0.63901 1.03054
 C1326 C 0.58335 0.65186 1.05001
 C1327 C 0.58998 0.67539 1.05693
 H1328 H 0.60437 0.68455 1.04736
 Cu1329 Cu 0.60182 0.49903 1.09978
 Cu1330 Cu 0.63561 0.49911 1.13363
 Cu1331 Cu 0.40055 0.49877 1.09960
 Cu1332 Cu 0.36668 0.49900 1.13341
 Cu1333 Cu 0.50105 0.59999 1.09982
 Cu1334 Cu 0.50095 0.63395 1.13365
 Cu1335 Cu 0.50105 0.39784 1.09937
 Cu1336 Cu 0.50107 0.36399 1.13307
 C1337 C 0.56422 0.56247 1.14030
 H1338 H 0.55919 0.55736 1.12207
 C1339 C 0.57771 0.57614 1.18730
 C1340 C 0.43768 0.43526 1.13992
 H1341 H 0.44301 0.44051 1.12185
 C1342 C 0.42342 0.42119 1.18649
 C1343 C 0.56429 0.64037 1.06217
 H1344 H 0.55924 0.62214 1.05708
 C1345 C 0.57782 0.68737 1.07579
 C1346 C 0.43769 0.35747 1.06162
 H1347 H 0.44279 0.37567 1.05657
 C1348 C 0.42405 0.31056 1.07514
 C1349 C 0.64224 0.56235 1.06223
 H1350 H 0.62411 0.55714 1.05699
 C1351 C 0.68897 0.57628 1.07625
 C1352 C 0.35960 0.43590 1.06163
 H1353 H 0.37777 0.44099 1.05646
 C1354 C 0.31277 0.42223 1.07552
 C1355 C 0.43813 0.56210 1.14037
 H1356 H 0.44323 0.55703 1.12215
 C1357 C 0.42442 0.57570 1.18735
 C1358 C 0.56424 0.43566 1.13994
 H1359 H 0.55913 0.44079 1.12178
 C1360 C 0.57792 0.42190 1.18676
 C1361 C 0.64242 0.43567 1.06207
 H1362 H 0.62421 0.44070 1.05698
 C1363 C 0.68938 0.42222 1.07570
 C1364 C 0.36025 0.56190 1.06134
 H1365 H 0.37618 0.55376 1.05337
 C1366 C 0.32011 0.58415 1.08308
 C1367 C 0.43833 0.64053 1.06157
 H1368 H 0.44341 0.62229 1.05652
 C1369 C 0.42467 0.68755 1.07509
 C1370 C 0.56451 0.35740 1.06173
 H1371 H 0.55946 0.37563 1.05672
 C1372 C 0.57797 0.31041 1.07515
 O1373 O 0.58862 0.47513 0.87829
 O1374 O 0.61677 0.47491 0.85007
 C1375 C 0.59704 0.46682 0.85859
 C1376 C 0.58383 0.44737 0.84574
 C1377 C 0.59045 0.44045 0.82221
 H1378 H 0.60527 0.44957 0.81328
 O1379 O 0.41417 0.52222 0.87806
 O1380 O 0.38612 0.52215 0.84976
 C1381 C 0.40580 0.53034 0.85832
 C1382 C 0.41898 0.54974 0.84548
 C1383 C 0.41215 0.55672 0.82208
 H1384 H 0.39722 0.54767 0.81322
 O1385 O 0.47804 0.61907 0.91079
 O1386 O 0.47810 0.64728 0.88273
 C1387 C 0.46989 0.63879 0.90238
 C1388 C 0.45037 0.65162 0.91548
 C1389 C 0.44328 0.67501 0.90872
 H1390 H 0.45275 0.68414 0.89425
 O1391 O 0.52479 0.37852 0.91128
 O1392 O 0.52487 0.35012 0.88322
 C1393 C 0.53300 0.35875 0.90291
 C1394 C 0.55241 0.34595 0.91610
 C1395 C 0.55931 0.32244 0.90940
 H1396 H 0.55017 0.31348 0.89456
 O1397 O 0.62152 0.41165 0.97516
 O1398 O 0.64986 0.38363 0.97507
 C1399 C 0.64127 0.40330 0.96696
 C1400 C 0.65412 0.41648 0.94758
 C1401 C 0.67769 0.40991 0.94081
 H1402 H 0.68686 0.39556 0.95040
 O1403 O 0.38128 0.58608 0.97469
 O1404 O 0.35297 0.61414 0.97488
 C1405 C 0.36147 0.59443 0.96666
 C1406 C 0.34856 0.58124 0.94724
 C1407 C 0.32514 0.58807 0.94026
 H1408 H 0.31606 0.60259 0.94979
 O1409 O 0.52509 0.58570 0.87788
 O1410 O 0.52520 0.61364 0.84956
 C1411 C 0.53331 0.59398 0.85814
 C1412 C 0.55272 0.58071 0.84532
 C1413 C 0.55949 0.58717 0.82177
 H1414 H 0.55027 0.60189 0.81281
 O1415 O 0.47775 0.41144 0.87808
 O1416 O 0.47779 0.38328 0.84978
 C1417 C 0.46960 0.40299 0.85833
 C1418 C 0.45016 0.41610 0.84549
 C1419 C 0.44316 0.40924 0.82205
 H1420 H 0.45224 0.39432 0.81315
 O1421 O 0.62163 0.52234 0.91138
 O1422 O 0.65004 0.52224 0.88342
 C1423 C 0.64140 0.53048 0.90308
 C1424 C 0.65418 0.54995 0.91634
 C1425 C 0.67773 0.55682 0.90983
 H1426 H 0.68695 0.54727 0.89540
 O1427 O 0.38111 0.47521 0.91116
 O1428 O 0.35280 0.47512 0.88312
 C1429 C 0.36137 0.46701 0.90280
 C1430 C 0.34850 0.44764 0.91598
 C1431 C 0.32502 0.44074 0.90926
 H1432 H 0.31614 0.44983 0.89441
 O1433 O 0.58839 0.61913 0.97517
 O1434 O 0.61646 0.64742 0.97523
 C1435 C 0.59682 0.63882 0.96698
 C1436 C 0.58380 0.65152 0.94738
 C1437 C 0.59059 0.67492 0.94036
 H1438 H 0.60500 0.68413 0.94992
 O1439 O 0.41391 0.37861 0.97491
 O1440 O 0.38583 0.35033 0.97474
 C1441 C 0.40554 0.35888 0.96664
 C1442 C 0.41873 0.34604 0.94715
 C1443 C 0.41205 0.32256 0.94016
 H1444 H 0.39759 0.31343 0.94966
 O1445 O 0.41413 0.47512 0.87802
 O1446 O 0.38608 0.47498 0.84973
 C1447 C 0.40575 0.46684 0.85830
 C1448 C 0.41890 0.44731 0.84550
 C1449 C 0.41214 0.44021 0.82207
 H1450 H 0.39767 0.44968 0.81293
 O1451 O 0.58880 0.52219 0.87804
 O1452 O 0.61696 0.52206 0.84981
 C1453 C 0.59724 0.53026 0.85830
 C1454 C 0.58406 0.54960 0.84538
 C1455 C 0.59062 0.55629 0.82180
 H1456 H 0.60503 0.54670 0.81263
 O1457 O 0.47769 0.37853 0.91123
 O1458 O 0.47773 0.35012 0.88317
 C1459 C 0.46952 0.35876 0.90284
 C1460 C 0.45006 0.34596 0.91599
 C1461 C 0.44312 0.32248 0.90924
 H1462 H 0.45226 0.31352 0.89439
 O1463 O 0.52510 0.61878 0.91108
 O1464 O 0.52525 0.64698 0.88302
 C1465 C 0.53334 0.63847 0.90273
 C1466 C 0.55274 0.65133 0.91597
 C1467 C 0.55978 0.67473 0.90920
 H1468 H 0.55079 0.68354 0.89424
 O1469 O 0.38085 0.41169 0.97491
 O1470 O 0.35251 0.38367 0.97477
 C1471 C 0.36113 0.40333 0.96665
 C1472 C 0.34839 0.41647 0.94717
 C1473 C 0.32491 0.40981 0.94021
 H1474 H 0.31570 0.39543 0.94972
 O1475 O 0.62140 0.58599 0.97530
 O1476 O 0.64972 0.61403 0.97540
 C1477 C 0.64117 0.59433 0.96718
 C1478 C 0.65408 0.58111 0.94776
 C1479 C 0.67761 0.58774 0.94101
 H1480 H 0.68650 0.60256 0.95026
 O1481 O 0.52485 0.41150 0.87822
 O1482 O 0.52494 0.38334 0.84991
 C1483 C 0.53308 0.40306 0.85850
 C1484 C 0.55257 0.41617 0.84571
 C1485 C 0.55942 0.40950 0.82217
 H1486 H 0.54982 0.39510 0.81297
 O1487 O 0.47800 0.58571 0.87791
 O1488 O 0.47805 0.61367 0.84960
 C1489 C 0.46982 0.59405 0.85819
 C1490 C 0.45027 0.58092 0.84542
 C1491 C 0.44321 0.58766 0.82202
 H1492 H 0.45271 0.60209 0.81287
 O1493 O 0.38101 0.52230 0.91110
 O1494 O 0.35272 0.52226 0.88305
 C1495 C 0.36128 0.53047 0.90274
 C1496 C 0.34846 0.54995 0.91595
 C1497 C 0.32505 0.55702 0.90920
 H1498 H 0.31614 0.54795 0.89429
 O1499 O 0.62162 0.47525 0.91141
 O1500 O 0.65005 0.47507 0.88346
 C1501 C 0.64140 0.46702 0.90313
 C1502 C 0.65420 0.44767 0.91640
 C1503 C 0.67776 0.44085 0.90987
 H1504 H 0.68675 0.44998 0.89511
 O1505 O 0.58845 0.37857 0.97504
 O1506 O 0.61654 0.35028 0.97491
 C1507 C 0.59685 0.35884 0.96677
 C1508 C 0.58369 0.34600 0.94728
 C1509 C 0.59034 0.32249 0.94033
 H1510 H 0.60476 0.31333 0.94985
 O1511 O 0.41454 0.61909 0.97438
 O1512 O 0.38642 0.64735 0.97438
 C1513 C 0.40610 0.63878 0.96619
 C1514 C 0.41917 0.65159 0.94672
 C1515 C 0.41231 0.67498 0.93974
 H1516 H 0.39739 0.68384 0.94884
 Cu1517 Cu 0.60235 0.49876 0.89758
 Cu1518 Cu 0.63631 0.49855 0.86387
 Cu1519 Cu 0.40042 0.49873 0.89739
 Cu1520 Cu 0.36660 0.49862 0.86357
 Cu1521 Cu 0.60199 0.59983 0.99879
 Cu1522 Cu 0.63582 0.63365 0.99891
 Cu1523 Cu 0.60216 0.39790 0.99866
 Cu1524 Cu 0.63603 0.36410 0.99856
 Cu1525 Cu 0.40092 0.59984 0.99803
 Cu1526 Cu 0.36716 0.63375 0.99817
 Cu1527 Cu 0.40012 0.39797 0.99848
 Cu1528 Cu 0.36626 0.36418 0.99833
 Cu1529 Cu 0.50155 0.59951 0.89723
 Cu1530 Cu 0.50168 0.63322 0.86338
 Cu1531 Cu 0.50126 0.39782 0.89751
 Cu1532 Cu 0.50134 0.36387 0.86368
 C1533 C 0.56475 0.43525 0.85724
 H1534 H 0.55970 0.44035 0.87547
 C1535 C 0.57824 0.42164 0.81021
 C1536 C 0.43818 0.56182 0.85689
 H1537 H 0.44338 0.55669 0.87503
 C1538 C 0.42425 0.57557 0.81014
 C1539 C 0.43834 0.64017 0.93462
 H1540 H 0.44355 0.62203 0.93977
 C1541 C 0.42435 0.68691 0.92086
 C1542 C 0.56458 0.35748 0.93519
 H1543 H 0.55951 0.37571 0.94030
 C1544 C 0.57814 0.31049 0.92151
 C1545 C 0.64262 0.43551 0.93540
 H1546 H 0.62436 0.44052 0.94037
 C1547 C 0.68972 0.42209 0.92208
 C1548 C 0.35995 0.56204 0.93511
 H1549 H 0.37811 0.55685 0.94024
 C1550 C 0.31318 0.57598 0.92134
 C1551 C 0.56497 0.56179 0.85688
 H1552 H 0.55997 0.55688 0.87514
 C1553 C 0.57829 0.57494 0.80977
 C1554 C 0.43805 0.43528 0.85695
 H1555 H 0.44319 0.44051 0.87512
 C1556 C 0.42425 0.42128 0.81014
 C1557 C 0.64261 0.56207 0.93546
 H1558 H 0.62437 0.55702 0.94043
 C1559 C 0.68965 0.57560 0.92218
 C1560 C 0.35993 0.43553 0.93508
 H1561 H 0.37813 0.44060 0.94020
 C1562 C 0.31301 0.42195 0.92137
 C1563 C 0.56472 0.63998 0.93521
 H1564 H 0.55954 0.62184 0.94037
 C1565 C 0.57858 0.68674 0.92138
 C1566 C 0.43789 0.35749 0.93509
 H1567 H 0.44298 0.37569 0.94024
 C1568 C 0.42423 0.31057 0.92131
 C1569 C 1.09106 1.11400 1.24450
 C1570 C 1.09615 1.09599 1.26145
 C1571 C 1.09505 1.07164 1.25461
 C1572 C 1.08885 1.06530 1.23094
 C1573 C 1.11894 1.11900 1.35091
 C1574 C 1.08484 1.10770 1.22082
 C1575 C 1.10243 1.10245 1.28586
 C1576 C 1.10766 1.10776 1.30635
 C1577 C 1.11375 1.11386 1.33036
 C1578 C 1.08365 1.08327 1.21378
 H1579 H 1.09193 1.13290 1.24959
 H1580 H 1.09888 1.05755 1.26760
 H1581 H 1.08777 1.04634 1.22615
 H1582 H 1.08124 1.12194 1.20794
 C1583 C 1.07308 0.59653 0.75394
 C1584 C 1.09754 0.59775 0.76022
 C1585 C 1.11523 0.59246 0.74291
 C1586 C 1.10850 0.58589 0.71944
 C1587 C 1.12218 0.62099 0.84915
 C1588 C 1.06630 0.58998 0.73048
 C1589 C 1.10446 0.60424 0.78446
 C1590 C 1.11017 0.60959 0.80481
 C1591 C 1.11672 0.61577 0.82869
 C1592 C 1.08395 0.58453 0.71297
 H1593 H 1.05923 0.60051 0.76722
 H1594 H 1.13422 0.59340 0.74756
 H1595 H 1.12250 0.58211 0.70628
 H1596 H 1.04726 0.58880 0.72614
 C1597 C 0.61421 1.09104 0.74172
 C1598 C 0.59661 1.09658 0.75904
 C1599 C 0.57213 1.09571 0.75278
 C1600 C 0.56524 1.08923 0.72932
 C1601 C 0.62129 1.11933 0.84811
 C1602 C 0.60737 1.08455 0.71826
 C1603 C 0.60364 1.10294 0.78329
 C1604 C 0.60940 1.10817 0.80366
 C1605 C 0.61594 1.11421 0.82759
 C1606 C 0.58279 1.08350 0.71181
 H1607 H 0.63322 1.09172 0.74635
 H1608 H 0.55835 1.09990 0.76606
 H1609 H 0.54618 1.08831 0.72500
 H1610 H 0.62131 1.08055 0.70510
 C1611 C 0.57309 0.59482 1.25320
 C1612 C 0.59746 0.59597 1.25985
 C1613 C 0.61540 0.59076 1.24278
 C1614 C 0.60902 0.58435 1.21916
 C1615 C 0.62064 0.61910 1.34920
 C1616 C 0.56667 0.58844 1.22960
 C1617 C 0.60400 0.60238 1.28421
 C1618 C 0.60937 0.60770 1.30466
 C1619 C 0.61551 0.61387 1.32865
 C1620 C 0.58456 0.58311 1.21232
 H1621 H 0.55905 0.59875 1.26629
 H1622 H 0.63432 0.59165 1.24772
 H1623 H 0.62320 0.58065 1.20619
 H1624 H 0.54769 0.58733 1.22497
 C1625 C 0.92678 0.90293 1.25332
 C1626 C 0.90235 0.90163 1.25972
 C1627 C 0.88457 0.90701 1.24259
 C1628 C 0.89117 0.91371 1.21915
 C1629 C 0.87831 0.87795 1.34856
 C1630 C 0.93342 0.90962 1.22990
 C1631 C 0.89558 0.89495 1.28391
 C1632 C 0.89003 0.88946 1.30423
 C1633 C 0.88365 0.88318 1.32810
 C1634 C 0.91569 0.91511 1.21255
 H1635 H 0.94070 0.89889 1.26646
 H1636 H 0.86560 0.90601 1.24734
 H1637 H 0.87710 0.91753 1.20612
 H1638 H 0.95244 0.91084 1.22546
 C1639 C 0.90832 0.38534 0.74361
 C1640 C 0.90299 0.40314 0.76083
 C1641 C 0.90379 0.42756 0.75436
 C1642 C 0.90999 0.43417 0.73080
 C1643 C 0.88106 0.37913 0.85013
 C1644 C 0.91454 0.39191 0.72004
 C1645 C 0.89691 0.39637 0.78518
 C1646 C 0.89189 0.39079 0.80561
 C1647 C 0.88605 0.38441 0.82959
 C1648 C 0.91552 0.41642 0.71338
 H1649 H 0.90769 0.36638 0.74840
 H1650 H 0.89977 0.44149 0.76757
 H1651 H 0.91088 0.45318 0.72631
 H1652 H 0.91838 0.37782 0.70696
 C1653 C 0.40306 0.92575 0.75240
 C1654 C 0.40187 0.90132 0.75876
 C1655 C 0.40703 0.88351 0.74150
 C1656 C 0.41343 0.89008 0.71798
 C1657 C 0.37914 0.87740 0.84787
 C1658 C 0.40944 0.93236 0.72888
 C1659 C 0.39553 0.89458 0.78305
 C1660 C 0.39030 0.88903 0.80344
 C1661 C 0.38425 0.88268 0.82737
 C1662 C 0.41474 0.91459 0.71142
 H1663 H 0.39917 0.93969 0.76564
 H1664 H 0.40611 0.86455 0.74622
 H1665 H 0.41711 0.87598 0.70486
 H1666 H 0.41059 0.95137 0.72447
 C1667 C 0.42681 0.40187 1.25217
 C1668 C 0.40233 0.40064 1.25837
 C1669 C 0.38470 0.40601 1.24107
 C1670 C 0.39152 0.41264 1.21768
 C1671 C 0.37800 0.37717 1.34722
 C1672 C 0.43367 0.40848 1.22879
 C1673 C 0.39534 0.39405 1.28254
 C1674 C 0.38967 0.38863 1.30285
 C1675 C 0.38326 0.38239 1.32673
 C1676 C 0.41610 0.41397 1.21128
 H1677 H 0.44061 0.39784 1.26544
 H1678 H 0.36569 0.40507 1.24566
 H1679 H 0.37757 0.41646 1.20452
 H1680 H 0.45273 0.40965 1.22452
 C1681 C 0.87965 1.09765 0.76296
 C1682 C 0.87711 1.12277 0.76459
 C1683 C 0.88781 1.13541 0.78368
 C1684 C 0.90082 1.12301 0.80129
 C1685 C 0.82490 1.17283 0.70350
 C1686 C 0.89269 1.08516 0.78060
 C1687 C 0.86297 1.13569 0.74716
 C1688 C 0.85101 1.14706 0.73306
 C1689 C 0.83695 1.16082 0.71701
 C1690 C 0.90332 1.09774 0.80000
 H1691 H 0.87139 1.08771 0.74822
 H1692 H 0.88581 1.15484 0.78516
 H1693 H 0.90838 1.13314 0.81626
 H1694 H 0.89446 1.06573 0.77910
 C1695 C 0.90873 0.61487 0.25636
 C1696 C 0.90340 0.59709 0.23912
 C1697 C 0.90469 0.57266 0.24542
 C1698 C 0.91126 0.56601 0.26886
 C1699 C 0.87953 0.62086 0.15026
 C1700 C 0.91532 0.60826 0.27982
 C1701 C 0.89673 0.60386 0.21492
 C1702 C 0.89120 0.60936 0.19460
 C1703 C 0.88484 0.61563 0.17073
 C1704 C 0.91666 0.58374 0.28634
 H1705 H 0.90774 0.63384 0.25168
 H1706 H 0.90069 0.55874 0.23220
 H1707 H 0.91244 0.54698 0.27323
 H1708 H 0.91908 0.62233 0.29294
 C1709 C 0.40699 1.11313 0.25470
 C1710 C 0.40206 1.09532 0.23737
 C1711 C 0.40309 1.07090 0.24377
 C1712 C 0.40915 1.06427 0.26736
 C1713 C 0.38067 1.11952 0.14803
 C1714 C 0.41308 1.10655 0.27829
 C1715 C 0.39616 1.10211 0.21299
 C1716 C 0.39129 1.10773 0.19254
 C1717 C 0.38560 1.11418 0.16856
 C1718 C 0.41431 1.08204 0.28487
 H1719 H 0.40618 1.13209 0.24996
 H1720 H 0.39936 1.05696 0.23048
 H1721 H 0.41024 1.04526 0.27179
 H1722 H 0.41663 1.12064 0.29144
 C1723 C 0.40914 0.61368 0.75523
 C1724 C 0.40373 0.59586 0.73806
 C1725 C 0.40495 0.57144 0.74443
 C1726 C 0.41157 0.56484 0.76787
 C1727 C 0.37973 0.61945 0.64920
 C1728 C 0.41578 0.60712 0.77869
 C1729 C 0.39705 0.60258 0.71385
 C1730 C 0.39152 0.60806 0.69353
 C1731 C 0.38513 0.61429 0.66966
 C1732 C 0.41709 0.58261 0.78527
 H1733 H 0.40820 0.63264 0.75051
 H1734 H 0.40088 0.55750 0.73126
 H1735 H 0.41272 0.54583 0.77230
 H1736 H 0.41962 0.62121 0.79176
 C1737 C 1.07245 0.90468 0.74504
 C1738 C 1.09681 0.90348 0.73835
 C1739 C 1.11477 0.90873 0.75537
 C1740 C 1.10841 0.91518 0.77899
 C1741 C 1.11973 0.87990 0.64902
 C1742 C 1.06605 0.91111 0.76864
 C1743 C 1.10332 0.89696 0.71400
 C1744 C 1.10863 0.89154 0.69356
 C1745 C 1.11468 0.88524 0.66957
 C1746 C 1.08396 0.91646 0.78589
 H1747 H 1.05839 0.90073 0.73199
 H1748 H 1.13368 0.90780 0.75040
 H1749 H 1.12261 0.91890 0.79193
 H1750 H 1.04708 0.91225 0.77331
 C1751 C 1.11596 0.40711 0.25722
 C1752 C 1.09828 0.40192 0.23990
 C1753 C 1.07381 0.40310 0.24620
 C1754 C 1.06703 0.40950 0.26971
 C1755 C 1.12245 0.37881 0.15077
 C1756 C 1.10922 0.41353 0.28074
 C1757 C 1.10519 0.39552 0.21562
 C1758 C 1.11082 0.39022 0.19523
 C1759 C 1.11720 0.38405 0.17129
 C1760 C 1.08467 0.41482 0.28724
 H1761 H 1.13495 0.40620 0.25255
 H1762 H 1.05997 0.39919 0.23291
 H1763 H 1.04799 0.41064 0.27407
 H1764 H 1.12322 0.41722 0.29391
 C1765 C 0.59472 0.92620 0.24408
 C1766 C 0.59621 0.90183 0.23741
 C1767 C 0.59103 0.88387 0.25439
 C1768 C 0.58440 0.89024 0.27796
 C1769 C 0.62058 0.87875 0.14834
 C1770 C 0.58810 0.93261 0.26762
 C1771 C 0.60299 0.89531 0.21313
 C1772 C 0.60862 0.88999 0.19275
 C1773 C 0.61513 0.88390 0.16883
 C1774 C 0.58288 0.91470 0.28484
 H1775 H 0.59860 0.94025 0.23106
 H1776 H 0.59218 0.86494 0.24943
 H1777 H 0.58077 0.87605 0.29088
 H1778 H 0.58677 0.95159 0.27228
 C1779 C 0.59654 0.42613 0.74427
 C1780 C 0.59766 0.40175 0.73757
 C1781 C 0.59257 0.38383 0.75462
 C1782 C 0.58631 0.39026 0.77827
 C1783 C 0.62016 0.37828 0.64812
 C1784 C 0.59031 0.43260 0.76791
 C1785 C 0.60390 0.39515 0.71318
 C1786 C 0.60908 0.38973 0.69270
 C1787 C 0.61507 0.38350 0.66869
 C1788 C 0.58509 0.41474 0.78517
 H1789 H 0.60038 0.44015 0.73120
 H1790 H 0.59343 0.36490 0.74964
 H1791 H 0.58269 0.37610 0.79122
 H1792 H 0.58921 0.45159 0.77259
 C1793 C 1.24478 1.11408 1.09141
 C1794 C 1.26187 1.09612 1.09635
 C1795 C 1.25518 1.07176 1.09526
 C1796 C 1.23152 1.06534 1.08916
 C1797 C 1.35130 1.11958 1.11847
 C1798 C 1.22112 1.10771 1.08529
 C1799 C 1.28629 1.10269 1.10242
 C1800 C 1.30677 1.10811 1.10746
 C1801 C 1.33077 1.11436 1.11337
 C1802 C 1.21424 1.08325 1.08405
 H1803 H 1.24975 1.13300 1.09227
 H1804 H 1.26829 1.05771 1.09899
 H1805 H 1.22685 1.04637 1.08805
 H1806 H 1.20814 1.12190 1.08176
 C1807 C 1.24357 0.59100 0.61489
 C1808 C 1.26061 0.59616 0.59695
 C1809 C 1.25395 0.59496 0.57258
 C1810 C 1.23036 0.58862 0.56616
 C1811 C 1.34993 0.61928 0.61993
 C1812 C 1.21996 0.58463 0.60851
 C1813 C 1.28495 0.60257 0.60348
 C1814 C 1.30539 0.60789 0.60881
 C1815 C 1.32938 0.61405 0.61488
 C1816 C 1.21310 0.58335 0.58406
 H1817 H 1.24851 0.59192 0.63382
 H1818 H 1.26702 0.59885 0.55854
 H1819 H 1.22572 0.58748 0.54718
 H1820 H 1.20700 0.58097 0.62270
 C1821 C 0.73591 1.09751 0.61927
 C1822 C 0.73434 1.12265 0.62174
 C1823 C 0.71527 1.13519 0.61099
 C1824 C 0.69764 1.12267 0.59801
 C1825 C 0.79556 1.17289 0.67405
 C1826 C 0.71826 1.08491 0.60626
 C1827 C 0.75179 1.13569 0.63586
 C1828 C 0.76592 1.14712 0.64782
 C1829 C 0.78202 1.16090 0.66193
 C1830 C 0.69888 1.09738 0.59558
 H1831 H 0.75063 1.08766 0.62757
 H1832 H 0.71382 1.15463 0.61293
 H1833 H 0.68270 1.13272 0.59040
 H1834 H 0.71973 1.06547 0.60455
 C1835 C 0.75465 0.57238 1.09561
 C1836 C 0.76102 0.59682 1.09694
 C1837 C 0.74385 0.61458 1.09158
 C1838 C 0.72041 0.60794 1.08488
 C1839 C 0.84994 0.62079 1.12074
 C1840 C 0.73122 0.56570 1.08893
 C1841 C 0.78523 0.60362 1.10363
 C1842 C 0.80556 0.60918 1.10914
 C1843 C 0.82945 0.61552 1.11547
 C1844 C 0.71383 0.58341 1.08347
 H1845 H 0.76782 0.55848 1.09963
 H1846 H 0.74858 0.63356 1.09259
 H1847 H 0.70735 0.62199 1.08108
 H1848 H 0.72680 0.54667 1.08770
 C1849 C 1.24346 0.88435 0.90603
 C1850 C 1.26079 0.90198 0.90076
 C1851 C 1.25455 0.92647 0.90196
 C1852 C 1.23112 0.93332 0.90848
 C1853 C 1.34970 0.87741 0.87751
 C1854 C 1.22001 0.89116 0.91257
 C1855 C 1.28500 0.89499 0.89429
 C1856 C 1.30534 0.88927 0.88894
 C1857 C 1.32923 0.88277 0.88276
 C1858 C 1.21359 0.91574 0.91392
 H1859 H 1.24807 0.86534 0.90509
 H1860 H 1.26784 0.94027 0.89799
 H1861 H 1.22682 0.95238 0.90966
 H1862 H 1.20684 0.87721 0.91634
 C1863 C 1.24290 0.38299 0.40771
 C1864 C 1.25998 0.40083 0.40230
 C1865 C 1.25358 0.42525 0.40395
 C1866 C 1.23020 0.43182 0.41091
 C1867 C 1.34861 0.37727 0.37701
 C1868 C 1.21950 0.38953 0.41470
 C1869 C 1.28410 0.39416 0.39518
 C1870 C 1.30437 0.38873 0.38929
 C1871 C 1.32818 0.38251 0.38256
 C1872 C 1.21288 0.41404 0.41635
 H1873 H 1.24765 0.36403 0.40646
 H1874 H 1.26668 0.43921 0.39990
 H1875 H 1.22575 0.45083 0.41233
 H1876 H 1.20649 0.37543 0.41848
 C1877 C 0.74230 0.88390 0.40626
 C1878 C 0.75941 0.90175 0.40100
 C1879 C 0.75289 0.92616 0.40223
 C1880 C 0.72936 0.93272 0.40872
 C1881 C 0.84859 0.87800 0.37795
 C1882 C 0.71876 0.89043 0.41277
 C1883 C 0.78371 0.89505 0.39453
 C1884 C 0.80411 0.88956 0.38921
 C1885 C 0.82807 0.88326 0.38308
 C1886 C 0.71204 0.91493 0.41410
 H1887 H 0.74714 0.86495 0.40532
 H1888 H 0.76601 0.94012 0.39828
 H1889 H 0.72483 0.95173 0.40989
 H1890 H 0.70575 0.87632 0.41651
 C1891 C 0.74533 0.38449 0.90772
 C1892 C 0.76238 0.40246 0.90270
 C1893 C 0.75569 0.42682 0.90394
 C1894 C 0.73205 0.43321 0.91018
 C1895 C 0.85169 0.37920 0.87977
 C1896 C 0.72168 0.39083 0.91398
 C1897 C 0.78675 0.39595 0.89638
 C1898 C 0.80720 0.39058 0.89112
 C1899 C 0.83117 0.38441 0.88499
 C1900 C 0.71478 0.41528 0.91529
 H1901 H 0.75030 0.36557 0.90676
 H1902 H 0.76876 0.44089 0.90016
 H1903 H 0.72737 0.45218 0.91135
 H1904 H 0.70872 0.37663 0.91752
 C1905 C 0.75687 0.88448 1.09134
 C1906 C 0.73971 0.90237 1.09644
 C1907 C 0.74621 0.92677 1.09519
 C1908 C 0.76976 0.93328 1.08883
 C1909 C 0.65042 0.87881 1.11908
 C1910 C 0.78044 0.89096 1.08495
 C1911 C 0.71538 0.89573 1.10280
 C1912 C 0.69495 0.89028 1.10804
 C1913 C 0.67097 0.88404 1.11405
 C1914 C 0.78715 0.91545 1.08361
 H1915 H 0.75204 0.86554 1.09230
 H1916 H 0.73305 0.94076 1.09903
 H1917 H 0.77429 0.95228 1.08764
 H1918 H 0.79349 0.87682 1.08133
 C1919 C 0.75591 0.38479 0.59036
 C1920 C 0.73872 0.40251 0.59590
 C1921 C 0.74516 0.42695 0.59518
 C1922 C 0.76867 0.43368 0.58888
 C1923 C 0.64961 0.37827 0.61853
 C1924 C 0.77944 0.39147 0.58403
 C1925 C 0.71443 0.39564 0.60217
 C1926 C 0.69404 0.39000 0.60735
 C1927 C 0.67011 0.38358 0.61338
 C1928 C 0.78607 0.41601 0.58317
 H1929 H 0.75114 0.36581 0.59092
 H1930 H 0.73197 0.44082 0.59938
 H1931 H 0.77314 0.45271 0.58808
 H1932 H 0.79250 0.37745 0.58004
 C1933 C 0.24481 0.92667 0.59385
 C1934 C 0.23814 0.90232 0.59521
 C1935 C 0.25514 0.88430 0.59001
 C1936 C 0.27872 0.89060 0.58347
 C1937 C 0.14903 0.87957 0.61924
 C1938 C 0.26836 0.93300 0.58734
 C1939 C 0.21385 0.89588 0.60187
 C1940 C 0.19345 0.89063 0.60741
 C1941 C 0.16952 0.88462 0.61383
 C1942 C 0.28560 0.91503 0.58208
 H1943 H 0.23177 0.94077 0.59775
 H1944 H 0.25018 0.86539 0.59105
 H1945 H 0.29165 0.87636 0.57982
 H1946 H 0.27302 0.95197 0.58611
 C1947 C 0.25780 0.38423 1.09104
 C1948 C 0.24070 0.40209 1.09645
 C1949 C 0.24713 0.42650 1.09501
 C1950 C 0.27055 0.43305 1.08820
 C1951 C 0.15188 0.37866 1.12103
 C1952 C 0.28124 0.39074 1.08422
 C1953 C 0.21652 0.39543 1.10336
 C1954 C 0.19621 0.39001 1.10906
 C1955 C 0.17235 0.38383 1.11560
 C1956 C 0.28788 0.41524 1.08273
 H1957 H 0.25303 0.36528 1.09215
 H1958 H 0.23401 0.44048 1.09906
 H1959 H 0.27501 0.45205 1.08691
 H1960 H 0.29425 0.37662 1.08041
 C1961 C 0.74603 1.07165 0.90440
 C1962 C 0.73957 1.09604 0.90268
 C1963 C 0.75663 1.11397 0.90793
 C1964 C 0.78007 1.10757 0.91485
 C1965 C 0.65080 1.11926 0.87778
 C1966 C 0.76945 1.06521 0.91129
 C1967 C 0.71541 1.10259 0.89564
 C1968 C 0.69511 1.10793 0.88983
 C1969 C 0.67126 1.11407 0.88322
 C1970 C 0.78675 1.08309 0.91657
 H1971 H 0.73295 1.05762 0.90048
 H1972 H 0.75183 1.13291 0.90663
 H1973 H 0.79306 1.12174 0.91851
 H1974 H 0.77394 1.04622 0.91277
 C1975 C 0.75623 0.61407 0.40766
 C1976 C 0.73925 0.59613 0.40220
 C1977 C 0.74592 0.57176 0.40323
 C1978 C 0.76946 0.56534 0.40972
 C1979 C 0.65007 0.61927 0.37882
 C1980 C 0.77979 0.60769 0.41417
 C1981 C 0.71495 0.60267 0.39568
 C1982 C 0.69454 0.60802 0.39029
 C1983 C 0.67059 0.61415 0.38406
 C1984 C 0.78666 0.58323 0.41528
 H1985 H 0.75127 0.63300 0.40687
 H1986 H 0.73290 0.55772 0.39912
 H1987 H 0.77412 0.54636 0.41072
 H1988 H 0.79270 0.62188 0.41806
 C1989 C 0.25504 1.11293 0.40739
 C1990 C 0.23789 1.09504 0.40231
 C1991 C 0.24447 1.07065 0.40334
 C1992 C 0.26807 1.06414 0.40950
 C1993 C 0.14854 1.11884 0.38030
 C1994 C 0.27866 1.10646 0.41358
 C1995 C 0.21351 1.10170 0.39620
 C1996 C 0.19306 1.10720 0.39115
 C1997 C 0.16907 1.11354 0.38530
 C1998 C 0.28543 1.08198 0.41475
 H1999 H 0.25016 1.13187 0.40659
 H2000 H 0.23131 1.05665 0.39950
 H2001 H 0.27266 1.04514 0.41054
 H2002 H 0.29168 1.12061 0.41721
 C2003 C 0.25831 0.61440 0.90653
 C2004 C 0.24105 0.59668 0.90121
 C2005 C 0.24738 0.57222 0.90233
 C2006 C 0.27084 0.56548 0.90879
 C2007 C 0.15199 0.62096 0.87844
 C2008 C 0.28178 0.60770 0.91302
 C2009 C 0.21680 0.60355 0.89480
 C2010 C 0.19643 0.60919 0.88954
 C2011 C 0.17250 0.61562 0.88350
 C2012 C 0.28831 0.58315 0.91425
 H2013 H 0.25362 0.63338 0.90568
 H2014 H 0.23414 0.55835 0.89833
 H2015 H 0.27522 0.54644 0.90988
 H2016 H 0.29490 0.62172 0.91681
 C2017 C 1.07375 1.25365 1.09693
 C2018 C 1.09818 1.26002 1.09826
 C2019 C 1.11597 1.24276 1.09316
 C2020 C 1.10936 1.21923 1.08666
 C2021 C 1.12227 1.34918 1.12124
 C2022 C 1.06710 1.23013 1.09044
 C2023 C 1.10496 1.28432 1.10469
 C2024 C 1.11054 1.30472 1.10998
 C2025 C 1.11694 1.32866 1.11608
 C2026 C 1.08484 1.21266 1.08519
 H2027 H 1.05983 1.26689 1.10077
 H2028 H 1.13493 1.24749 1.09419
 H2029 H 1.12343 1.20611 1.08302
 H2030 H 1.04808 1.22571 1.08917
 C2031 C 1.07162 0.75410 0.59575
 C2032 C 1.09599 0.76071 0.59707
 C2033 C 1.11395 0.74360 0.59208
 C2034 C 1.10758 0.71996 0.58573
 C2035 C 1.11943 0.85014 0.61963
 C2036 C 1.06521 0.73048 0.58942
 C2037 C 1.10253 0.78510 0.60338
 C2038 C 1.10793 0.80557 0.60859
 C2039 C 1.11416 0.82958 0.61458
 C2040 C 1.08312 0.71314 0.58430
 H2041 H 1.05758 0.76723 0.59950
 H2042 H 1.13287 0.74852 0.59310
 H2043 H 1.12177 0.70695 0.58219
 H2044 H 1.04624 0.72586 0.58817
 C2045 C 0.61338 1.24243 0.58993
 C2046 C 0.59568 1.25963 0.59553
 C2047 C 0.57123 1.25320 0.59473
 C2048 C 0.56449 1.22970 0.58827
 C2049 C 0.62002 1.34872 0.61852
 C2050 C 0.60667 1.21892 0.58345
 C2051 C 0.60256 1.28390 0.60194
 C2052 C 0.60822 1.30429 0.60722
 C2053 C 0.61467 1.32822 0.61333
 C2054 C 0.58214 1.21230 0.58250
 H2055 H 0.63235 1.24719 0.59055
 H2056 H 0.55738 1.26639 0.59896
 H2057 H 0.54546 1.22524 0.58741
 H2058 H 0.62068 1.20586 0.57942
 C2059 C 0.57329 0.75330 1.09441
 C2060 C 0.59767 0.75991 1.09558
 C2061 C 0.61559 0.74281 1.09039
 C2062 C 0.60917 0.71920 1.08401
 C2063 C 0.62094 0.84922 1.11873
 C2064 C 0.56683 0.72970 1.08805
 C2065 C 0.60425 0.78426 1.10199
 C2066 C 0.60964 0.80470 1.10731
 C2067 C 0.61580 0.82869 1.11348
 C2068 C 0.58471 0.71239 1.08275
 H2069 H 0.55927 0.76641 1.09832
 H2070 H 0.63452 0.74773 1.09130
 H2071 H 0.62334 0.70620 1.08032
 H2072 H 0.54785 0.72509 1.08693
 C2073 C 0.90436 1.25408 0.92822
 C2074 C 0.90364 1.26051 0.90380
 C2075 C 0.90918 1.24331 0.88604
 C2076 C 0.91553 1.21980 0.89267
 C2077 C 0.88116 1.34964 0.87968
 C2078 C 0.91070 1.23057 0.93489
 C2079 C 0.89739 1.28481 0.89698
 C2080 C 0.89224 1.30520 0.89137
 C2081 C 0.88626 1.32913 0.88497
 C2082 C 0.91643 1.21317 0.91718
 H2083 H 0.90017 1.26727 0.94212
 H2084 H 0.90861 1.24808 0.86708
 H2085 H 0.91953 1.20673 0.87861
 H2086 H 0.91151 1.22610 0.95391
 C2087 C 0.90696 0.74230 0.38447
 C2088 C 0.90158 0.75958 0.40220
 C2089 C 0.90276 0.75331 0.42665
 C2090 C 0.90932 0.72989 0.43337
 C2091 C 0.87816 0.84847 0.37809
 C2092 C 0.91354 0.71885 0.39114
 C2093 C 0.89502 0.78378 0.39536
 C2094 C 0.88961 0.80411 0.38977
 C2095 C 0.88339 0.82799 0.38339
 C2096 C 0.91482 0.71239 0.41568
 H2097 H 0.90605 0.74694 0.36549
 H2098 H 0.89871 0.76657 0.44053
 H2099 H 0.91045 0.72555 0.45240
 H2100 H 0.91738 0.70571 0.37711
 C2101 C 0.40219 1.25229 0.42511
 C2102 C 0.40090 1.25858 0.40067
 C2103 C 0.40599 1.24126 0.38289
 C2104 C 0.41245 1.21777 0.38951
 C2105 C 0.37804 1.34764 0.37672
 C2106 C 0.40862 1.22881 0.43177
 C2107 C 0.39452 1.28284 0.39387
 C2108 C 0.38926 1.30321 0.38831
 C2109 C 0.38319 1.32713 0.38196
 C2110 C 0.41388 1.21129 0.41404
 H2111 H 0.39835 1.26558 0.43902
 H2112 H 0.40499 1.24591 0.36392
 H2113 H 0.41608 1.20460 0.37545
 H2114 H 0.40987 1.22446 0.45079
 C2115 C 0.40486 0.75257 0.92511
 C2116 C 0.40352 0.75896 0.90071
 C2117 C 0.40897 0.74183 0.88285
 C2118 C 0.41575 0.71839 0.88936
 C2119 C 0.37929 0.84783 0.87731
 C2120 C 0.41162 0.72915 0.93166
 C2121 C 0.39670 0.78315 0.89405
 C2122 C 0.39107 0.80347 0.88863
 C2123 C 0.38463 0.82735 0.88246
 C2124 C 0.41715 0.71178 0.91386
 H2125 H 0.40077 0.76571 0.93909
 H2126 H 0.40795 0.74658 0.86390
 H2127 H 0.41961 0.70535 0.87524
 H2128 H 0.41284 0.72471 0.95067
 C2129 C 1.07400 0.74611 0.90306
 C2130 C 1.09845 0.73975 0.90184
 C2131 C 1.11618 0.75703 0.90703
 C2132 C 1.10951 0.78056 0.91349
 C2133 C 1.12248 0.65060 0.87871
 C2134 C 1.06729 0.76963 0.90949
 C2135 C 1.10529 0.71546 0.89542
 C2136 C 1.11088 0.69507 0.89010
 C2137 C 1.11724 0.67112 0.88394
 C2138 C 1.08498 0.78711 0.91483
 H2139 H 1.06012 0.73286 0.89915
 H2140 H 1.13516 0.75232 0.90609
 H2141 H 1.12355 0.79369 0.91719
 H2142 H 1.04826 0.77404 0.91067
 C2143 C 1.07164 0.24463 0.40462
 C2144 C 1.09599 0.23792 0.40356
 C2145 C 1.11395 0.25494 0.40882
 C2146 C 1.10758 0.27858 0.41519
 C2147 C 1.11912 0.14851 0.38054
 C2148 C 1.06523 0.26825 0.41097
 C2149 C 1.10252 0.21353 0.39718
 C2150 C 1.10788 0.19307 0.39190
 C2151 C 1.11401 0.16906 0.38576
 C2152 C 1.08314 0.28549 0.41636
 H2153 H 1.05759 0.23157 0.40066
 H2154 H 1.13286 0.24996 0.40799
 H2155 H 1.12178 0.29152 0.41894
 H2156 H 1.04626 0.27293 0.41202
 C2157 C 0.61435 0.75516 0.40669
 C2158 C 0.59652 0.73796 0.40155
 C2159 C 0.57211 0.74445 0.40273
 C2160 C 0.56552 0.76802 0.40908
 C2161 C 0.62043 0.64871 0.37874
 C2162 C 0.60780 0.77874 0.41306
 C2163 C 0.60324 0.71362 0.39521
 C2164 C 0.60877 0.69320 0.38996
 C2165 C 0.61511 0.66923 0.38388
 C2166 C 0.58330 0.78543 0.41436
 H2167 H 0.63330 0.75034 0.40578
 H2168 H 0.55816 0.73126 0.39886
 H2169 H 0.54651 0.77254 0.41023
 H2170 H 0.62190 0.79181 0.41672
 C2171 C 0.57361 0.24462 0.90272
 C2172 C 0.59798 0.23803 0.90141
 C2173 C 0.61591 0.25511 0.90660
 C2174 C 0.60950 0.27869 0.91312
 C2175 C 0.62132 0.14883 0.87780
 C2176 C 0.56715 0.26818 0.90922
 C2177 C 0.60456 0.21371 0.89484
 C2178 C 0.60994 0.19330 0.88939
 C2179 C 0.61612 0.16935 0.88310
 C2180 C 0.58503 0.28549 0.91450
 H2181 H 0.55958 0.23152 0.89882
 H2182 H 0.63484 0.25021 0.90558
 H2183 H 0.62367 0.29168 0.91679
 H2184 H 0.54817 0.27278 0.91044
 C2185 C 0.92790 0.74559 1.09575
 C2186 C 0.90347 0.73921 1.09713
 C2187 C 0.88568 0.75638 1.09189
 C2188 C 0.89227 0.77983 1.08524
 C2189 C 0.87951 0.65034 1.12073
 C2190 C 0.93454 0.76902 1.08912
 C2191 C 0.89670 0.71501 1.10376
 C2192 C 0.89115 0.69468 1.10921
 C2193 C 0.88480 0.67080 1.11549
 C2194 C 0.91679 0.78641 1.08376
 H2195 H 0.94182 0.73241 1.09969
 H2196 H 0.86671 0.75166 1.09295
 H2197 H 0.87820 0.79289 1.08153
 H2198 H 0.95355 0.77345 1.08785
 C2199 C 0.86281 0.28308 0.61212
 C2200 C 0.87530 0.26400 0.62291
 C2201 C 0.90044 0.26243 0.62060
 C2202 C 0.91309 0.28007 0.60770
 C2203 C 0.82492 0.20238 0.67434
 C2204 C 0.87537 0.30069 0.59925
 C2205 C 0.86220 0.24649 0.63683
 C2206 C 0.85074 0.23228 0.64859
 C2207 C 0.83693 0.21606 0.66245
 C2208 C 0.90066 0.29943 0.59696
 H2209 H 0.84336 0.28452 0.61392
 H2210 H 0.91026 0.24771 0.62892
 H2211 H 0.93253 0.27858 0.60611
 H2212 H 0.86535 0.31562 0.59159
 C2213 C 0.42678 0.74440 0.59396
 C2214 C 0.40242 0.73780 0.59538
 C2215 C 0.38446 0.75480 0.59013
 C2216 C 0.39083 0.77832 0.58349
 C2217 C 0.37942 0.64884 0.61957
 C2218 C 0.43319 0.76789 0.58735
 C2219 C 0.39590 0.71357 0.60214
 C2220 C 0.39060 0.69321 0.60774
 C2221 C 0.38452 0.66932 0.61419
 C2222 C 0.41528 0.78514 0.58205
 H2223 H 0.44083 0.73136 0.59790
 H2224 H 0.36554 0.74990 0.59121
 H2225 H 0.37663 0.79126 0.57981
 H2226 H 0.45216 0.77250 0.58608
 C2227 C 0.42853 0.24477 1.09382
 C2228 C 0.40415 0.23822 1.09520
 C2229 C 0.38623 0.25530 1.09004
 C2230 C 0.39266 0.27883 1.08351
 C2231 C 0.38083 0.14911 1.11860
 C2232 C 0.43500 0.26828 1.08732
 C2233 C 0.39756 0.21395 1.10178
 C2234 C 0.39218 0.19356 1.10720
 C2235 C 0.38602 0.16962 1.11342
 C2236 C 0.41714 0.28559 1.08208
 H2237 H 0.44254 0.23167 1.09770
 H2238 H 0.36730 0.25043 1.09109
 H2239 H 0.37850 0.29182 1.07987
 H2240 H 0.45398 0.27283 1.08607
 C2241 C 1.11472 1.09241 0.75631
 C2242 C 1.09678 1.09758 0.73928
 C2243 C 1.07241 1.09644 0.74594
 C2244 C 1.06598 1.09006 0.76951
 C2245 C 1.12013 1.12010 0.64996
 C2246 C 1.10833 1.08601 0.77989
 C2247 C 1.10335 1.10388 0.71494
 C2248 C 1.10876 1.10906 0.69450
 C2249 C 1.11496 1.11504 0.67051
 C2250 C 1.08387 1.08472 0.78674
 H2251 H 1.13364 1.09329 0.75137
 H2252 H 1.05838 1.10034 0.73288
 H2253 H 1.04700 1.08893 0.77414
 H2254 H 1.12252 1.08231 0.79282
 C2255 C 1.13600 0.61087 0.28351
 C2256 C 1.12346 0.62156 0.26442
 C2257 C 1.09833 0.61918 0.26287
 C2258 C 1.08573 0.60632 0.28057
 C2259 C 1.17388 0.67320 0.20312
 C2260 C 1.12349 0.59805 0.30118
 C2261 C 1.13650 0.63551 0.24693
 C2262 C 1.14796 0.64733 0.23278
 C2263 C 1.16181 0.66125 0.21668
 C2264 C 1.09821 0.59571 0.29996
 H2265 H 1.15544 0.61275 0.28493
 H2266 H 1.08847 0.62744 0.24814
 H2267 H 1.06629 0.60468 0.27912
 H2268 H 1.13354 0.59049 0.31614
 C2269 C 0.57159 1.09437 0.24422
 C2270 C 0.59601 1.09582 0.23783
 C2271 C 0.61382 1.09064 0.25499
 C2272 C 0.60725 1.08402 0.27846
 C2273 C 0.61995 1.11948 0.14895
 C2274 C 0.56498 1.08777 0.26766
 C2275 C 0.60275 1.10248 0.21362
 C2276 C 0.60827 1.10797 0.19329
 C2277 C 0.61461 1.11426 0.16941
 C2278 C 0.58273 1.08251 0.28506
 H2279 H 0.55765 1.09826 0.23105
 H2280 H 0.63278 1.09175 0.25026
 H2281 H 0.62133 1.08037 0.29153
 H2282 H 0.54596 1.08646 0.27210
 C2283 C 0.61549 0.58984 0.75408
 C2284 C 0.59738 0.59499 0.73723
 C2285 C 0.57308 0.59344 0.74401
 C2286 C 0.56688 0.58684 0.76757
 C2287 C 0.61958 0.61947 0.64814
 C2288 C 0.60934 0.58321 0.77767
 C2289 C 0.60365 0.60184 0.71295
 C2290 C 0.60874 0.60753 0.69257
 C2291 C 0.61459 0.61406 0.66864
 C2292 C 0.58494 0.58170 0.78469
 H2293 H 0.63437 0.59102 0.74903
 H2294 H 0.55890 0.59729 0.73108
 H2295 H 0.54795 0.58551 0.77232
 H2296 H 0.62364 0.57964 0.79051
 C2297 C 0.90347 0.92706 0.74585
 C2298 C 0.90205 0.90264 0.73936
 C2299 C 0.90752 0.88483 0.75640
 C2300 C 0.91440 0.89140 0.77984
 C2301 C 0.87760 0.87871 0.65054
 C2302 C 0.91032 0.93367 0.76927
 C2303 C 0.89513 0.89590 0.71518
 C2304 C 0.88945 0.89038 0.69487
 C2305 C 0.88296 0.88404 0.67101
 C2306 C 0.91588 0.91591 0.78653
 H2307 H 0.89936 0.94100 0.73278
 H2308 H 0.90644 0.86586 0.75159
 H2309 H 0.91827 0.87731 0.79280
 H2310 H 0.91160 0.95269 0.77378
 C2311 C 0.88584 0.40777 0.25572
 C2312 C 0.90376 0.40250 0.23865
 C2313 C 0.92813 0.40350 0.24531
 C2314 C 0.93459 0.40982 0.26892
 C2315 C 0.88038 0.37980 0.14925
 C2316 C 0.89225 0.41411 0.27934
 C2317 C 0.89718 0.39621 0.21426
 C2318 C 0.89175 0.39100 0.19380
 C2319 C 0.88554 0.38495 0.16980
 C2320 C 0.91671 0.41525 0.28620
 H2321 H 0.86692 0.40699 0.25077
 H2322 H 0.94216 0.39952 0.23222
 H2323 H 0.95356 0.41083 0.27356
 H2324 H 0.87808 0.41789 0.29231
 C2325 C 0.38482 0.90645 0.25440
 C2326 C 0.40283 0.90140 0.23735
 C2327 C 0.42718 0.90270 0.24404
 C2328 C 0.43351 0.90906 0.26767
 C2329 C 0.37979 0.87845 0.14793
 C2330 C 0.39112 0.91284 0.27804
 C2331 C 0.39637 0.89501 0.21296
 C2332 C 0.39106 0.88972 0.19250
 C2333 C 0.38495 0.88361 0.16849
 C2334 C 0.41555 0.91423 0.28493
 H2335 H 0.36592 0.90544 0.24942
 H2336 H 0.44127 0.89890 0.23097
 H2337 H 0.45247 0.91030 0.27234
 H2338 H 0.37688 0.91642 0.29100
 C2339 C 0.38599 0.40633 0.75514
 C2340 C 0.40375 0.40108 0.73789
 C2341 C 0.42819 0.40224 0.74428
 C2342 C 0.43486 0.40870 0.76779
 C2343 C 0.37928 0.37834 0.64878
 C2344 C 0.39262 0.41280 0.77866
 C2345 C 0.39693 0.39471 0.71359
 C2346 C 0.39128 0.38946 0.69320
 C2347 C 0.38476 0.38343 0.66927
 C2348 C 0.41715 0.41410 0.78524
 H2349 H 0.36702 0.40543 0.75040
 H2350 H 0.44209 0.39829 0.73104
 H2351 H 0.45389 0.40984 0.77222
 H2352 H 0.37857 0.41655 0.79177
 C2353 C 1.11432 0.90797 1.24361
 C2354 C 1.09631 0.90287 1.26062
 C2355 C 1.07197 0.90453 1.25403
 C2356 C 1.06562 0.91124 1.23055
 C2357 C 1.11925 0.87867 1.34960
 C2358 C 1.10801 0.91471 1.22011
 C2359 C 1.10277 0.89603 1.28485
 C2360 C 1.10805 0.89040 1.30520
 C2361 C 1.11412 0.88398 1.32911
 C2362 C 1.08357 0.91639 1.21330
 H2363 H 1.13323 0.90671 1.24851
 H2364 H 1.05788 0.90071 1.26707
 H2365 H 1.04666 0.91269 1.22596
 H2366 H 1.12224 0.91827 1.20717
 C2367 C 1.11524 0.40722 0.74294
 C2368 C 1.09748 0.40184 0.76011
 C2369 C 1.07305 0.40309 0.75375
 C2370 C 1.06637 0.40972 0.73033
 C2371 C 1.12163 0.37847 0.84900
 C2372 C 1.10861 0.41387 0.71951
 C2373 C 1.10429 0.39523 0.78431
 C2374 C 1.10987 0.38981 0.80464
 C2375 C 1.11627 0.38361 0.82852
 C2376 C 1.08408 0.41522 0.71294
 H2377 H 1.13422 0.40626 0.74766
 H2378 H 1.05915 0.39905 0.76692
 H2379 H 1.04735 0.41090 0.72593
 H2380 H 1.12266 0.41770 0.70645
 C2381 C 0.61527 0.90588 0.74086
 C2382 C 0.59768 0.90042 0.75819
 C2383 C 0.57319 0.90159 0.75204
 C2384 C 0.56628 0.90823 0.72869
 C2385 C 0.62230 0.87705 0.84696
 C2386 C 0.60840 0.91253 0.71750
 C2387 C 0.60472 0.89383 0.78233
 C2388 C 0.61045 0.88842 0.80263
 C2389 C 0.61695 0.88222 0.82648
 C2390 C 0.58381 0.91381 0.71115
 H2391 H 0.63429 0.90499 0.74541
 H2392 H 0.55942 0.89749 0.76534
 H2393 H 0.54721 0.90935 0.72446
 H2394 H 0.62232 0.91643 0.70432
 C2395 C 0.57358 0.40275 1.25242
 C2396 C 0.59797 0.40144 1.25892
 C2397 C 0.61585 0.40681 1.24186
 C2398 C 0.60937 0.41346 1.21839
 C2399 C 0.62143 0.37734 1.34778
 C2400 C 0.56706 0.40938 1.22896
 C2401 C 0.60461 0.39471 1.28313
 C2402 C 0.61003 0.38914 1.30346
 C2403 C 0.61623 0.38272 1.32732
 C2404 C 0.58488 0.41482 1.21167
 H2405 H 0.55959 0.39872 1.26550
 H2406 H 0.63479 0.40581 1.24669
 H2407 H 0.62350 0.41725 1.20541
 H2408 H 0.54806 0.41058 1.22444
 C2409 C 0.88453 1.09198 1.24315
 C2410 C 0.90226 1.09720 1.26042
 C2411 C 0.92670 1.09598 1.25406
 C2412 C 0.93342 1.08950 1.23056
 C2413 C 0.87789 1.12035 1.34948
 C2414 C 0.89120 1.08548 1.21963
 C2415 C 0.89540 1.10366 1.28469
 C2416 C 0.88976 1.10899 1.30507
 C2417 C 0.88329 1.11515 1.32899
 C2418 C 0.91574 1.08413 1.21308
 H2419 H 0.86554 1.09293 1.24786
 H2420 H 0.94058 1.09991 1.26731
 H2421 H 0.95245 1.08832 1.22616
 H2422 H 0.87717 1.08175 1.20651
 C2423 C 0.90836 0.61425 0.74414
 C2424 C 0.90330 0.59629 0.76114
 C2425 C 0.90442 0.57192 0.75438
 C2426 C 0.91062 0.56551 0.73072
 C2427 C 0.88077 0.61972 0.85058
 C2428 C 0.91459 0.60788 0.72047
 C2429 C 0.89706 0.60283 0.78555
 C2430 C 0.89189 0.60823 0.80603
 C2431 C 0.88588 0.61446 0.83004
 C2432 C 0.91581 0.58343 0.71350
 H2433 H 0.90749 0.63317 0.74917
 H2434 H 0.90060 0.55787 0.76742
 H2435 H 0.91172 0.54654 0.72599
 H2436 H 0.91819 0.62208 0.70754
 C2437 C 0.40714 1.11353 0.74259
 C2438 C 0.40215 1.09561 0.75966
 C2439 C 0.40343 1.07122 0.75300
 C2440 C 0.40973 1.06475 0.72938
 C2441 C 0.37972 1.11925 0.84909
 C2442 C 0.41347 1.10710 0.71896
 C2443 C 0.39586 1.10221 0.78405
 C2444 C 0.39069 1.10766 0.80452
 C2445 C 0.38473 1.11394 0.82853
 C2446 C 0.41486 1.08263 0.71210
 H2447 H 0.40615 1.13246 0.74755
 H2448 H 0.39967 1.05720 0.76609
 H2449 H 0.41095 1.04577 0.72474
 H2450 H 0.41701 1.12127 0.70599
 C2451 C 0.40532 0.57116 1.25307
 C2452 C 0.40355 0.59554 1.25963
 C2453 C 0.40868 0.61348 1.24261
 C2454 C 0.41552 0.60707 1.21911
 C2455 C 0.37887 0.61876 1.34859
 C2456 C 0.41214 0.56472 1.22959
 C2457 C 0.39658 0.60209 1.28385
 C2458 C 0.39083 0.60743 1.30419
 C2459 C 0.38427 0.61357 1.32810
 C2460 C 0.41730 0.58260 1.21233
 H2461 H 0.40149 0.55713 1.26612
 H2462 H 0.40733 0.63242 1.24748
 H2463 H 0.41910 0.62125 1.20615
 H2464 H 0.41367 0.54573 1.22502
 C2465 C 1.07394 1.25394 0.90467
 C2466 C 1.09834 1.26039 0.90320
 C2467 C 1.11620 1.24330 0.90850
 C2468 C 1.10969 1.21985 0.91526
 C2469 C 1.12180 1.34915 0.87870
 C2470 C 1.06739 1.23052 0.91140
 C2471 C 1.10499 1.28456 0.89634
 C2472 C 1.11041 1.30486 0.89066
 C2473 C 1.11660 1.32871 0.88414
 C2474 C 1.08520 1.21320 0.91677
 H2475 H 1.05996 1.26705 0.90069
 H2476 H 1.13515 1.24808 0.90737
 H2477 H 1.12381 1.20684 0.91899
 H2478 H 1.04839 1.22604 0.91272
 C2479 C 1.07170 0.75381 0.40530
 C2480 C 1.09607 0.76032 0.40361
 C2481 C 1.11403 0.74326 0.40872
 C2482 C 1.10764 0.71978 0.41547
 C2483 C 1.11920 0.84919 0.37918
 C2484 C 1.06528 0.73035 0.41203
 C2485 C 1.10260 0.78452 0.39673
 C2486 C 1.10792 0.80484 0.39104
 C2487 C 1.11403 0.82872 0.38454
 C2488 C 1.08318 0.71305 0.41716
 H2489 H 1.05765 0.76689 0.40148
 H2490 H 1.13295 0.74810 0.40743
 H2491 H 1.12183 0.70679 0.41903
 H2492 H 1.04631 0.72581 0.41349
 C2493 C 0.57215 1.25253 0.40103
 C2494 C 0.59663 1.25874 0.39991
 C2495 C 0.61425 1.24142 0.40527
 C2496 C 0.60742 1.21801 0.41181
 C2497 C 0.62130 1.34765 0.37709
 C2498 C 0.56528 1.22913 0.40756
 C2499 C 0.60364 1.28294 0.39348
 C2500 C 0.60937 1.30327 0.38821
 C2501 C 0.61590 1.32716 0.38216
 C2502 C 0.58284 1.21161 0.41308
 H2503 H 0.55835 1.26581 0.39700
 H2504 H 0.63326 1.24602 0.40441
 H2505 H 0.62137 1.20485 0.41565
 H2506 H 0.54622 1.22485 0.40867
 C2507 C 0.61667 0.74174 0.90626
 C2508 C 0.59885 0.75881 0.90076
 C2509 C 0.57444 0.75234 0.90199
 C2510 C 0.56785 0.72892 0.90869
 C2511 C 0.62239 0.84763 0.87658
 C2512 C 0.61012 0.71830 0.91298
 C2513 C 0.60555 0.78299 0.89397
 C2514 C 0.61099 0.80330 0.88837
 C2515 C 0.61720 0.82717 0.88193
 C2516 C 0.58562 0.71162 0.91426
 H2517 H 0.63563 0.74655 0.90532
 H2518 H 0.56049 0.76543 0.89786
 H2519 H 0.54885 0.72442 0.90983
 H2520 H 0.62422 0.70531 0.91687
 C2521 C 0.90915 1.24398 1.11473
 C2522 C 0.90396 1.26089 1.09672
 C2523 C 0.90516 1.25407 1.07238
 C2524 C 0.91153 1.23044 1.06604
 C2525 C 0.88055 1.35023 1.11969
 C2526 C 0.91553 1.22033 1.10844
 C2527 C 0.89747 1.28526 1.10317
 C2528 C 0.89207 1.30571 1.10845
 C2529 C 0.88582 1.32970 1.11454
 C2530 C 0.91679 1.21329 1.08401
 H2531 H 0.90822 1.24906 1.13364
 H2532 H 0.90126 1.26704 1.05828
 H2533 H 0.91265 1.22566 1.04708
 H2534 H 0.91919 1.20746 1.12267
 C2535 C 0.90295 0.75342 0.57304
 C2536 C 0.90160 0.75996 0.59745
 C2537 C 0.90691 0.74290 0.61529
 C2538 C 0.91358 0.71939 0.60876
 C2539 C 0.87762 0.84900 0.62105
 C2540 C 0.90960 0.72993 0.56646
 C2541 C 0.89488 0.78421 0.60414
 C2542 C 0.88933 0.80458 0.60960
 C2543 C 0.88295 0.82850 0.61583
 C2544 C 0.91500 0.71264 0.58425
 H2545 H 0.89896 0.76650 0.55908
 H2546 H 0.90587 0.74776 0.63425
 H2547 H 0.91734 0.70641 0.62286
 H2548 H 0.91084 0.72537 0.54746
 C2549 C 0.38394 1.24260 0.59011
 C2550 C 0.40189 1.25965 0.59535
 C2551 C 0.42625 1.25300 0.59413
 C2552 C 0.43268 1.22941 0.58770
 C2553 C 0.37885 1.34890 0.61906
 C2554 C 0.39033 1.21899 0.58365
 C2555 C 0.39535 1.28398 0.60190
 C2556 C 0.39002 1.30441 0.60736
 C2557 C 0.38393 1.32838 0.61369
 C2558 C 0.41478 1.21213 0.58237
 H2559 H 0.36502 1.24755 0.59105
 H2560 H 0.44030 1.26607 0.59808
 H2561 H 0.45165 1.22477 0.58656
 H2562 H 0.37614 1.20603 0.57994
 C2563 C 0.40906 0.74285 1.11285
 C2564 C 0.40411 0.75991 1.09491
 C2565 C 0.40591 0.75336 1.07053
 C2566 C 0.41261 0.72984 1.06409
 C2567 C 0.37990 0.84896 1.11827
 C2568 C 0.41578 0.71931 1.10645
 C2569 C 0.39730 0.78417 1.10147
 C2570 C 0.39168 0.80454 1.10685
 C2571 C 0.38524 0.82846 1.11304
 C2572 C 0.41761 0.71254 1.08198
 H2573 H 0.40769 0.74772 1.13179
 H2574 H 0.40221 0.76644 1.05650
 H2575 H 0.41417 0.72528 1.04511
 H2576 H 0.41923 0.70632 1.12063
 C2577 C 0.92846 0.74555 0.90349
 C2578 C 0.90409 0.73889 0.90246
 C2579 C 0.88617 0.75598 0.90769
 C2580 C 0.89259 0.77961 0.91403
 C2581 C 0.88070 0.64941 0.88003
 C2582 C 0.93492 0.76916 0.90980
 C2583 C 0.89749 0.71450 0.89621
 C2584 C 0.89207 0.69402 0.89106
 C2585 C 0.88587 0.66999 0.88510
 C2586 C 0.91705 0.78645 0.91520
 H2587 H 0.94248 0.73244 0.89955
 H2588 H 0.86724 0.75104 0.90689
 H2589 H 0.87842 0.79258 0.91778
 H2590 H 0.95390 0.77380 0.91085
 C2591 C 0.92631 0.24528 0.40372
 C2592 C 0.90187 0.23895 0.40246
 C2593 C 0.88413 0.25624 0.40764
 C2594 C 0.89080 0.27975 0.41413
 C2595 C 0.87774 0.14989 0.37911
 C2596 C 0.93303 0.26878 0.41019
 C2597 C 0.89502 0.21468 0.39597
 C2598 C 0.88942 0.19431 0.39060
 C2599 C 0.88303 0.17039 0.38438
 C2600 C 0.91534 0.28628 0.41550
 H2601 H 0.94020 0.23201 0.39982
 H2602 H 0.86515 0.25155 0.40666
 H2603 H 0.87677 0.29290 0.41781
 H2604 H 0.95206 0.27317 0.41139
 C2605 C 0.42678 0.74416 0.40253
 C2606 C 0.40239 0.73760 0.40128
 C2607 C 0.38449 0.75473 0.40642
 C2608 C 0.39093 0.77832 0.41286
 C2609 C 0.37882 0.64835 0.37816
 C2610 C 0.43326 0.76773 0.40895
 C2611 C 0.39577 0.71326 0.39485
 C2612 C 0.39032 0.69284 0.38953
 C2613 C 0.38407 0.66887 0.38337
 C2614 C 0.41541 0.78508 0.41422
 H2615 H 0.44078 0.73102 0.39866
 H2616 H 0.36555 0.74986 0.40545
 H2617 H 0.37678 0.79134 0.41651
 H2618 H 0.45225 0.77230 0.41014
 C2619 C 0.38624 0.25533 0.90651
 C2620 C 0.40409 0.23815 0.90137
 C2621 C 0.42849 0.24464 0.90259
 C2622 C 0.43505 0.26820 0.90898
 C2623 C 0.38011 0.14891 0.87859
 C2624 C 0.39275 0.27891 0.91292
 C2625 C 0.39739 0.21381 0.89500
 C2626 C 0.39185 0.19339 0.88975
 C2627 C 0.38548 0.16943 0.88369
 C2628 C 0.41725 0.28560 0.91427
 H2629 H 0.36729 0.25051 0.90556
 H2630 H 0.44246 0.23146 0.89872
 H2631 H 0.45405 0.27272 0.91016
 H2632 H 0.37864 0.29197 0.91659
 C2633 C 1.13657 0.78297 1.11113
 C2634 C 1.12399 0.76389 1.12182
 C2635 C 1.09886 0.76236 1.11941
 C2636 C 1.08631 0.78006 1.10652
 C2637 C 1.17405 0.70250 1.17373
 C2638 C 1.12409 0.80064 1.09828
 C2639 C 1.13699 0.74639 1.13582
 C2640 C 1.14838 0.73222 1.14768
 C2641 C 1.16211 0.71608 1.16169
 C2642 C 1.09881 0.79944 1.09591
 H2643 H 1.15601 0.78438 1.11303
 H2644 H 1.08898 0.74764 1.12766
 H2645 H 1.06687 0.77863 1.10486
 H2646 H 1.13417 0.81559 1.09072
 C2647 C 1.07159 0.24500 0.59624
 C2648 C 1.09600 0.23855 0.59755
 C2649 C 1.11383 0.25572 0.59247
 C2650 C 1.10730 0.27923 0.58602
 C2651 C 1.11997 0.14948 0.62041
 C2652 C 1.06501 0.26851 0.58981
 C2653 C 1.10272 0.21426 0.60393
 C2654 C 1.10827 0.19388 0.60918
 C2655 C 1.11465 0.16997 0.61526
 C2656 C 1.08280 0.28588 0.58456
 H2657 H 1.05763 0.23183 0.60007
 H2658 H 1.13279 0.25093 0.59349
 H2659 H 1.12141 0.29228 0.58240
 H2660 H 1.04601 0.27299 0.58855
 C2661 C 0.61402 0.75530 0.59010
 C2662 C 0.59611 0.73822 0.59526
 C2663 C 0.57173 0.74474 0.59383
 C2664 C 0.56524 0.76823 0.58728
 C2665 C 0.61943 0.64913 0.61876
 C2666 C 0.60757 0.77882 0.58353
 C2667 C 0.60271 0.71396 0.60189
 C2668 C 0.60808 0.69358 0.60735
 C2669 C 0.61424 0.66965 0.61359
 C2670 C 0.58310 0.78555 0.58206
 H2671 H 0.63295 0.75046 0.59119
 H2672 H 0.55772 0.73163 0.59770
 H2673 H 0.54626 0.77276 0.58599
 H2674 H 0.62173 0.79182 0.57990
 C2675 C 0.61549 0.25498 1.09014
 C2676 C 0.59748 0.23801 1.09532
 C2677 C 0.57314 0.24466 1.09385
 C2678 C 0.56680 0.26819 1.08726
 C2679 C 0.62023 0.14895 1.11939
 C2680 C 0.60919 0.27853 1.08354
 C2681 C 0.60392 0.21375 1.10206
 C2682 C 0.60916 0.19337 1.10764
 C2683 C 0.61516 0.16945 1.11406
 C2684 C 0.58476 0.28540 1.08205
 H2685 H 0.63440 0.25003 1.09126
 H2686 H 0.55905 0.23165 1.09772
 H2687 H 0.54784 0.27283 1.08596
 H2688 H 0.62342 0.29145 1.07991
 C2689 C 1.24397 1.09205 0.88487
 C2690 C 1.26120 1.09696 0.90273
 C2691 C 1.25477 1.09553 0.92715
 C2692 C 1.23122 1.08917 0.93370
 C2693 C 1.35040 1.11956 0.87885
 C2694 C 1.22042 1.08567 0.89138
 C2695 C 1.28552 1.10330 0.89605
 C2696 C 1.30593 1.10852 0.89054
 C2697 C 1.32988 1.11452 0.88419
 C2698 C 1.21378 1.08413 0.91588
 H2699 H 1.24875 1.09316 0.86592
 H2700 H 1.26798 1.09922 0.94112
 H2701 H 1.22675 1.08783 0.95270
 H2702 H 1.20732 1.08219 0.87726
 C2703 C 1.24299 0.59048 0.38512
 C2704 C 1.26023 0.59617 0.40274
 C2705 C 1.25388 0.59549 0.42721
 C2706 C 1.23043 0.58907 0.43406
 C2707 C 1.34924 0.61887 0.37815
 C2708 C 1.21954 0.58404 0.39192
 C2709 C 1.28447 0.60251 0.39575
 C2710 C 1.30482 0.60773 0.39002
 C2711 C 1.32873 0.61376 0.38351
 C2712 C 1.21300 0.58320 0.41649
 H2713 H 1.24769 0.59101 0.36612
 H2714 H 1.26710 0.59979 0.44101
 H2715 H 1.22604 0.58830 0.45312
 H2716 H 1.20644 0.57994 0.37797
 C2717 C 0.74173 1.11425 0.40681
 C2718 C 0.75897 1.09647 0.40160
 C2719 C 0.75258 1.07204 0.40277
 C2720 C 0.72907 1.06538 0.40916
 C2721 C 0.84814 1.12037 0.37883
 C2722 C 0.71820 1.10764 0.41322
 C2723 C 0.78325 1.10326 0.39522
 C2724 C 0.80365 1.10880 0.38996
 C2725 C 0.82760 1.11512 0.38391
 C2726 C 0.71161 1.08311 0.41449
 H2727 H 0.74647 1.13323 0.40591
 H2728 H 0.76580 1.05812 0.39886
 H2729 H 0.72464 1.04636 0.41029
 H2730 H 0.70510 1.12171 0.41692
 C2731 C 0.74523 0.59055 0.88482
 C2732 C 0.76215 0.59577 0.90289
 C2733 C 0.75542 0.59438 0.92722
 C2734 C 0.73186 0.58781 0.93349
 C2735 C 0.85129 0.61972 0.88012
 C2736 C 0.72164 0.58396 0.89105
 C2737 C 0.78646 0.60247 0.89651
 C2738 C 0.80686 0.60802 0.89128
 C2739 C 0.83079 0.61440 0.88525
 C2740 C 0.71469 0.58254 0.91547
 H2741 H 0.75024 0.59162 0.86593
 H2742 H 0.76840 0.59829 0.94135
 H2743 H 0.72714 0.58655 0.95243
 H2744 H 0.70876 0.58030 0.87678
 C2745 C 1.25468 0.92713 1.09529
 C2746 C 1.26115 0.90269 1.09591
 C2747 C 1.24400 0.88497 1.09028
 C2748 C 1.22048 0.89165 1.08394
 C2749 C 1.35029 0.87849 1.11842
 C2750 C 1.23117 0.93385 1.08898
 C2751 C 1.28544 0.89583 1.10217
 C2752 C 1.30584 0.89020 1.10733
 C2753 C 1.32978 0.88379 1.11332
 C2754 C 1.21381 0.91618 1.08318
 H2755 H 1.26784 0.94099 1.09956
 H2756 H 1.24880 0.86600 1.09076
 H2757 H 1.20744 0.87763 1.07988
 H2758 H 1.22667 0.95288 1.08826
 C2759 C 1.25360 0.42655 0.59586
 C2760 C 1.26009 0.40216 0.59725
 C2761 C 1.24290 0.38426 0.59232
 C2762 C 1.21933 0.39072 0.58595
 C2763 C 1.34941 0.37853 0.61959
 C2764 C 1.23004 0.43306 0.58951
 C2765 C 1.28443 0.39552 0.60355
 C2766 C 1.30487 0.39007 0.60872
 C2767 C 1.32886 0.38380 0.61464
 C2768 C 1.21264 0.41521 0.58444
 H2769 H 1.26679 0.44056 0.59956
 H2770 H 1.24772 0.36531 0.59339
 H2771 H 1.20626 0.37657 0.58245
 H2772 H 1.22554 0.45205 0.58819
 C2773 C 0.75273 0.92651 0.59529
 C2774 C 0.75915 0.90209 0.59668
 C2775 C 0.74206 0.88425 0.59123
 C2776 C 0.71863 0.89079 0.58439
 C2777 C 0.84800 0.87851 0.62098
 C2778 C 0.72932 0.93308 0.58848
 C2779 C 0.78333 0.89540 0.60355
 C2780 C 0.80365 0.88994 0.60919
 C2781 C 0.82752 0.88371 0.61564
 C2782 C 0.71200 0.91529 0.58293
 H2783 H 0.76584 0.94047 0.59939
 H2784 H 0.74683 0.86530 0.59228
 H2785 H 0.70563 0.87668 0.58053
 H2786 H 0.72486 0.95209 0.58722
 C2787 C 0.75514 0.42698 1.09457
 C2788 C 0.76179 0.40262 1.09587
 C2789 C 0.74480 0.38463 1.09060
 C2790 C 0.72124 0.39096 1.08404
 C2791 C 0.85094 0.37967 1.11960
 C2792 C 0.73160 0.43335 1.08803
 C2793 C 0.78609 0.39614 1.10250
 C2794 C 0.80648 0.39084 1.10799
 C2795 C 0.83043 0.38478 1.11431
 C2796 C 0.71437 0.41541 1.08269
 H2797 H 0.76817 0.44106 1.09852
 H2798 H 0.74974 0.36572 1.09160
 H2799 H 0.70831 0.37675 1.08033
 H2800 H 0.72696 0.45232 1.08683
 C2801 C 0.75610 1.11408 1.09185
 C2802 C 0.73905 1.09610 1.09683
 C2803 C 0.74570 1.07174 1.09545
 C2804 C 0.76930 1.06535 1.08909
 C2805 C 0.64969 1.11937 1.11961
 C2806 C 0.77972 1.10774 1.08547
 C2807 C 0.71468 1.10261 1.10321
 C2808 C 0.69423 1.10797 1.10847
 C2809 C 0.67024 1.11415 1.11453
 C2810 C 0.78658 1.08329 1.08401
 H2811 H 0.75115 1.13300 1.09292
 H2812 H 0.73262 1.05768 1.09918
 H2813 H 0.77395 1.04638 1.08780
 H2814 H 0.79269 1.12195 1.08196
 C2815 C 0.74496 0.57179 0.59480
 C2816 C 0.73830 0.59616 0.59591
 C2817 C 0.75538 0.61409 0.59087
 C2818 C 0.77903 0.60768 0.58466
 C2819 C 0.64897 0.61961 0.61853
 C2820 C 0.76859 0.56534 0.58861
 C2821 C 0.71392 0.60275 0.60213
 C2822 C 0.69347 0.60817 0.60730
 C2823 C 0.66949 0.61440 0.61335
 C2824 C 0.78588 0.58322 0.58343
 H2825 H 0.73185 0.55776 0.59861
 H2826 H 0.75044 0.63302 0.59174
 H2827 H 0.79201 0.62186 0.58107
 H2828 H 0.77324 0.54635 0.58751
 C2829 C 0.24494 1.07167 0.59509
 C2830 C 0.23850 1.09609 0.59640
 C2831 C 0.25564 1.11389 0.59107
 C2832 C 0.27912 1.10730 0.58441
 C2833 C 0.14955 1.11995 0.62027
 C2834 C 0.26840 1.06503 0.58846
 C2835 C 0.21427 1.10285 0.60308
 C2836 C 0.19393 1.10838 0.60859
 C2837 C 0.17003 1.11469 0.61494
 C2838 C 0.28576 1.08278 0.58302
 H2839 H 0.23179 1.05774 0.59910
 H2840 H 0.25087 1.13286 0.59208
 H2841 H 0.29216 1.12138 0.58063
 H2842 H 0.27287 1.04602 0.58724
 C2843 C 0.28412 0.63517 1.11122
 C2844 C 0.26505 0.62263 1.12200
 C2845 C 0.26355 0.59748 1.11959
 C2846 C 0.28125 0.58488 1.10661
 C2847 C 0.20343 0.67301 1.17383
 C2848 C 0.30179 0.62265 1.09827
 C2849 C 0.24751 0.63568 1.13603
 C2850 C 0.23329 0.64713 1.14789
 C2851 C 0.21708 0.66096 1.16185
 C2852 C 0.30060 0.59736 1.09588
 H2853 H 0.28551 0.65462 1.11310
 H2854 H 0.24884 0.58761 1.12790
 H2855 H 0.27982 0.56543 1.10494
 H2856 H 0.31671 0.63272 1.09063
 C2857 C 0.75769 0.88344 0.90656
 C2858 C 0.74054 0.90121 0.90115
 C2859 C 0.74687 0.92565 0.90268
 C2860 C 0.77024 0.93232 0.90958
 C2861 C 0.65185 0.87726 0.87657
 C2862 C 0.78107 0.89007 0.91348
 C2863 C 0.71641 0.89443 0.89419
 C2864 C 0.69613 0.88890 0.88848
 C2865 C 0.67230 0.88257 0.88195
 C2866 C 0.78761 0.91460 0.91507
 H2867 H 0.75299 0.86447 0.90540
 H2868 H 0.73372 0.93956 0.89863
 H2869 H 0.77462 0.95135 0.91094
 H2870 H 0.79413 0.87602 0.91730
 C2871 C 0.74613 0.42601 0.40185
 C2872 C 0.73985 0.40153 0.40067
 C2873 C 0.75712 0.38388 0.40602
 C2874 C 0.78056 0.39065 0.41261
 C2875 C 0.65093 0.37717 0.37733
 C2876 C 0.76955 0.43283 0.40842
 C2877 C 0.71564 0.39459 0.39415
 C2878 C 0.69531 0.38891 0.38878
 C2879 C 0.67142 0.38247 0.38258
 C2880 C 0.78703 0.41522 0.41393
 H2881 H 0.73288 0.43983 0.39782
 H2882 H 0.75248 0.36487 0.40511
 H2883 H 0.79369 0.37667 0.41644
 H2884 H 0.77388 0.45188 0.40957
 C2885 C 0.25510 0.88385 0.40719
 C2886 C 0.23805 0.90182 0.40214
 C2887 C 0.24471 0.92618 0.40342
 C2888 C 0.26831 0.93258 0.40974
 C2889 C 0.14877 0.87866 0.37912
 C2890 C 0.27871 0.89020 0.41353
 C2891 C 0.21370 0.89530 0.39575
 C2892 C 0.19327 0.88996 0.39044
 C2893 C 0.16929 0.88382 0.38430
 C2894 C 0.28559 0.91465 0.41488
 H2895 H 0.25014 0.86493 0.40620
 H2896 H 0.23164 0.94024 0.39963
 H2897 H 0.27297 0.95155 0.41094
 H2898 H 0.29168 0.87600 0.41710
 C2899 C 0.24722 0.42644 0.90258
 C2900 C 0.24062 0.40206 0.90131
 C2901 C 0.25768 0.38414 0.90651
 C2902 C 0.28124 0.39057 0.91299
 C2903 C 0.15137 0.37864 0.87834
 C2904 C 0.27076 0.43291 0.90904
 C2905 C 0.21630 0.39547 0.89485
 C2906 C 0.19589 0.39006 0.88953
 C2907 C 0.17191 0.38385 0.88343
 C2908 C 0.28804 0.41504 0.91435
 H2909 H 0.23413 0.44046 0.89868
 H2910 H 0.25277 0.36521 0.90553
 H2911 H 0.29421 0.37641 0.91668
 H2912 H 0.27536 0.45190 0.91024
   
