data_POSCAR
  _audit_creation_date              2014-09-24
  _audit_creation_method            'ToBaCCo'
  _symmetry_space_group_name_H-M    'P1'
  _symmetry_Int_Tables_number       1
  _symmetry_cell_setting            triclinic
  loop_
  _symmetry_equiv_pos_as_xyz
 x,y,z
_cell_length_a 57.6934
_cell_length_b 57.7446
_cell_length_c 58.0170
_cell_angle_alpha 89.981800
_cell_angle_beta 89.964900
_cell_angle_gamma 89.965400
loop_
  _atom_site_label
  _atom_site_type_symbol
  _atom_site_fract_x
  _atom_site_fract_y
  _atom_site_fract_z
O1 O 0.31687 0.34862 0.02247
 O2 O 0.34863 0.31697 -0.02261
 O3 O 0.31673 0.34894 -0.02229
 O4 O 0.34883 0.31671 0.02214
 O5 O 0.32176 0.28961 0.02215
 O6 O 0.28957 0.32194 -0.02239
 O7 O 0.32156 0.28988 -0.02271
 O8 O 0.28972 0.32160 0.02246
 Cu9 Cu 0.33549 0.33553 -0.00007
 Cu10 Cu 0.30291 0.30302 -0.00013
 C11 C 0.29788 0.34053 0.03000
 C12 C 0.34055 0.29803 -0.03018
 C13 C 0.29768 0.34098 -0.02976
 C14 C 0.34080 0.29767 0.02957
 O15 O 0.65143 0.68249 -0.02259
 O16 O 0.68375 0.65120 0.02231
 O17 O 0.65191 0.68325 0.02215
 O18 O 0.68317 0.65040 -0.02244
 O19 O 0.71044 0.67728 -0.02332
 O20 O 0.67909 0.71024 0.02139
 O21 O 0.71102 0.67809 0.02154
 O22 O 0.67862 0.70946 -0.02347
 Cu23 Cu 0.66483 0.66413 -0.00005
 Cu24 Cu 0.69755 0.69649 -0.00103
 C25 C 0.65950 0.70130 -0.03055
 C26 C 0.70289 0.65927 0.02942
 C27 C 0.66013 0.70234 0.02921
 C28 C 0.70211 0.65821 -0.03035
 O29 O 0.68306 0.34933 0.97801
 O30 O 0.65167 0.31753 1.02321
 O31 O 0.68341 0.34962 1.02277
 O32 O 0.65132 0.31728 0.97846
 O33 O 0.67855 0.29031 0.97835
 O34 O 0.71072 0.32273 1.02276
 O35 O 0.67889 0.29055 1.02320
 O36 O 0.71037 0.32244 0.97789
 Cu37 Cu 0.66462 0.33616 1.00063
 Cu38 Cu 0.69739 0.30378 1.00055
 C39 C 0.70204 0.34133 0.97038
 C40 C 0.65988 0.29862 1.03074
 C41 C 0.70253 0.34173 1.03017
 C42 C 0.65944 0.29830 0.97100
 O43 O 0.34991 0.68212 1.02350
 O44 O 0.31776 0.65033 0.97883
 O45 O 0.34989 0.68202 0.97873
 O46 O 0.31788 0.65028 1.02358
 O47 O 0.29084 0.67744 1.02367
 O48 O 0.32295 0.70928 0.97870
 O49 O 0.29074 0.67752 0.97882
 O50 O 0.32295 0.70937 1.02357
 Cu51 Cu 0.33658 0.66346 1.00117
 Cu52 Cu 0.30415 0.69616 1.00120
 C53 C 0.34195 0.70117 1.03098
 C54 C 0.29877 0.65848 0.97137
 C55 C 0.34190 0.70104 0.97120
 C56 C 0.29889 0.65839 1.03110
 O57 O -0.02289 0.34897 0.31775
 O58 O 0.02233 0.31794 0.35007
 O59 O 0.02210 0.34943 0.31789
 O60 O -0.02270 0.31754 0.35000
 O61 O -0.02240 0.29004 0.32349
 O62 O 0.02251 0.32202 0.29128
 O63 O 0.02273 0.29044 0.32356
 O64 O -0.02259 0.32154 0.29115
 Cu65 Cu -0.00033 0.33622 0.33661
 Cu66 Cu 0.00010 0.30322 0.30469
 C67 C -0.03027 0.34059 0.29894
 C68 C 0.03010 0.29892 0.34235
 C69 C 0.02977 0.34120 0.29911
 C70 C -0.03006 0.29837 0.34225
 O71 O 0.02279 0.68209 0.65102
 O72 O -0.02253 0.65028 0.68241
 O73 O -0.02220 0.68180 0.65031
 O74 O 0.02248 0.65047 0.68310
 O75 O 0.02193 0.67778 0.70981
 O76 O -0.02287 0.70920 0.67693
 O77 O -0.02318 0.67760 0.70911
 O78 O 0.02224 0.70949 0.67764
 Cu79 Cu 0.00021 0.66341 0.66403
 Cu80 Cu -0.00051 0.69629 0.69607
 C81 C 0.03007 0.70122 0.65893
 C82 C -0.03045 0.65850 0.70109
 C83 C -0.03003 0.70082 0.65801
 C84 C 0.02966 0.65873 0.70204
 O85 O 0.97786 0.68204 0.34975
 O86 O 1.02337 0.65105 0.31780
 O87 O 1.02286 0.68264 0.34986
 O88 O 0.97838 0.65044 0.31771
 O89 O 0.97802 0.67774 0.29097
 O90 O 1.02261 0.71002 0.32320
 O91 O 1.02311 0.67834 0.29105
 O92 O 0.97749 0.70942 0.32309
 Cu93 Cu 1.00065 0.66379 0.33647
 Cu94 Cu 1.00028 0.69665 0.30438
 C95 C 0.97006 0.70099 0.34189
 C96 C 1.03083 0.65937 0.29898
 C97 C 1.03017 0.70182 0.34205
 C98 C 0.97077 0.65857 0.29887
 O99 O 0.97823 0.31859 0.64980
 O100 O 1.02308 0.34994 0.68227
 O101 O 1.02324 0.31841 0.65012
 O102 O 0.97808 0.35022 0.68180
 O103 O 0.97764 0.32292 0.70854
 O104 O 1.02293 0.29100 0.67674
 O105 O 1.02276 0.32261 0.70898
 O106 O 0.97780 0.29120 0.67645
 Cu107 Cu 1.00070 0.33704 0.66331
 Cu108 Cu 1.00025 0.30416 0.69538
 C109 C 0.97051 0.29956 0.65758
 C110 C 1.03040 0.34165 0.70116
 C111 C 1.03064 0.29930 0.65799
 C112 C 0.97031 0.34203 0.70056
 O113 O 0.34942 0.02269 0.31789
 O114 O 0.31755 -0.02253 0.34938
 O115 O 0.34936 -0.02226 0.31744
 O116 O 0.31776 0.02245 0.34993
 O117 O 0.29043 0.02292 0.32322
 O118 O 0.32213 -0.02191 0.29063
 O119 O 0.29024 -0.02216 0.32264
 O120 O 0.32217 0.02315 0.29110
 Cu121 Cu 0.33626 0.00004 0.33636
 Cu122 Cu 0.30348 0.00053 0.30420
 C123 C 0.34126 0.03046 0.29913
 C124 C 0.29847 -0.02989 0.34141
 C125 C 0.34119 -0.02954 0.29850
 C126 C 0.29873 0.03017 0.34214
 O127 O 0.65133 0.02265 0.68267
 O128 O 0.68263 -0.02264 0.65072
 O129 O 0.65079 -0.02230 0.68255
 O130 O 0.68304 0.02234 0.65067
 O131 O 0.71033 0.02208 0.67742
 O132 O 0.67796 -0.02271 0.70942
 O133 O 0.70990 -0.02302 0.67750
 O134 O 0.67853 0.02236 0.70951
 Cu135 Cu 0.66421 0.00005 0.66395
 Cu136 Cu 0.69694 -0.00035 0.69617
 C137 C 0.65956 0.03006 0.70154
 C138 C 0.70158 -0.03042 0.65865
 C139 C 0.65884 -0.02998 0.70140
 C140 C 0.70216 0.02968 0.65857
 O141 O 0.34941 0.97710 0.68261
 O142 O 0.31800 1.02250 0.65097
 O143 O 0.34975 1.02206 0.68287
 O144 O 0.31766 0.97754 0.65069
 O145 O 0.29036 0.97754 0.67747
 O146 O 0.32254 1.02216 0.70973
 O147 O 0.29070 1.02262 0.67774
 O148 O 0.32220 0.97709 0.70948
 Cu149 Cu 0.33645 0.99979 0.66409
 Cu150 Cu 0.30369 0.99985 0.69632
 C151 C 0.34120 0.96950 0.70143
 C152 C 0.29901 1.03015 0.65893
 C153 C 0.34164 1.02955 0.70177
 C154 C 0.29855 0.97010 0.65856
 O155 O 0.65114 0.97809 0.31846
 O156 O 0.68265 1.02296 0.35074
 O157 O 0.65118 1.02304 0.31853
 O158 O 0.68249 0.97797 0.35078
 O159 O 0.71009 0.97785 0.32431
 O160 O 0.67868 1.02303 0.29196
 O161 O 0.71023 1.02295 0.32426
 O162 O 0.67866 0.97798 0.29191
 Cu163 Cu 0.66410 1.00052 0.33730
 Cu164 Cu 0.69721 1.00045 0.30544
 C165 C 0.65949 0.97056 0.29968
 C166 C 0.70179 1.03047 0.34302
 C167 C 0.65954 1.03055 0.29974
 C168 C 0.70160 0.97036 0.34307
 C169 C 0.86883 0.76616 0.51211
 C170 C 0.86868 0.76625 0.48847
 C171 C 0.85621 0.78566 0.48178
 N172 N 0.84889 0.79746 0.50053
 C173 C 0.85644 0.78552 0.51911
 C174 C 0.85333 0.79307 0.45876
 C175 C 0.83918 0.81189 0.45209
 C176 C 0.83933 0.82205 0.43042
 C177 C 0.82251 0.83895 0.43056
 C178 C 0.81253 0.83866 0.45233
 N179 N 0.82264 0.82197 0.46524
 C180 C 0.79383 0.85285 0.45929
 C181 C 0.78661 0.85547 0.48239
 C182 C 0.76727 0.86789 0.48939
 C183 C 0.76735 0.86774 0.51303
 C184 C 0.78675 0.85524 0.51972
 N185 N 0.79855 0.84789 0.50096
 C186 C 0.79415 0.85234 0.54273
 C187 C 0.81294 0.83814 0.54941
 C188 C 0.82309 0.83824 0.57109
 C189 C 0.83996 0.82139 0.57094
 C190 C 0.83967 0.81144 0.54918
 N191 N 0.82299 0.82160 0.53626
 C192 C 0.85382 0.79273 0.54221
 H193 H 0.87736 0.75347 0.52291
 H194 H 0.87708 0.75364 0.47747
 H195 H 0.81714 0.81591 0.52034
 H196 H 0.85034 0.81767 0.41594
 H197 H 0.81807 0.85010 0.41623
 H198 H 0.75459 0.87645 0.47859
 H199 H 0.75475 0.87616 0.52403
 H200 H 0.85109 0.81691 0.58527
 H201 H 0.81692 0.81612 0.48117
 H202 H 0.81873 0.84925 0.58556
 C203 C 0.23270 0.13145 0.51285
 C204 C 0.23270 0.13135 0.48920
 C205 C 0.21335 0.14382 0.48233
 N206 N 0.20149 0.15137 0.50097
 C207 C 0.21335 0.14396 0.51966
 C208 C 0.20606 0.14655 0.45925
 C209 C 0.18735 0.16078 0.45241
 C210 C 0.17733 0.16060 0.43068
 C211 C 0.16052 0.17752 0.43065
 C212 C 0.16072 0.18757 0.45236
 N213 N 0.17728 0.17743 0.46542
 C214 C 0.14660 0.20638 0.45915
 C215 C 0.14379 0.21371 0.48220
 C216 C 0.13136 0.23311 0.48899
 C217 C 0.13130 0.23314 0.51264
 C218 C 0.14371 0.21376 0.51953
 N219 N 0.15119 0.20186 0.50089
 C220 C 0.14643 0.20650 0.54261
 C221 C 0.16060 0.18775 0.54946
 C222 C 0.16041 0.17777 0.57122
 C223 C 0.17726 0.16091 0.57125
 C224 C 0.18730 0.16103 0.54951
 N225 N 0.17720 0.17760 0.53644
 C226 C 0.20606 0.14683 0.54272
 H227 H 0.24534 0.12298 0.52377
 H228 H 0.24533 0.12281 0.47833
 H229 H 0.18298 0.18331 0.52048
 H230 H 0.18173 0.14951 0.41629
 H231 H 0.14949 0.18196 0.41623
 H232 H 0.12292 0.24575 0.47806
 H233 H 0.12282 0.24581 0.52350
 H234 H 0.18169 0.14988 0.58569
 H235 H 0.18305 0.18320 0.48135
 H236 H 0.14935 0.18224 0.58562
 C237 C 0.21760 0.88354 0.51135
 C238 C 0.21753 0.88346 0.48771
 C239 C 0.20529 0.86393 0.48098
 N240 N 0.19809 0.85202 0.49972
 C241 C 0.20541 0.86407 0.51832
 C242 C 0.20217 0.85676 0.45792
 C243 C 0.18807 0.83793 0.45122
 C244 C 0.18780 0.82822 0.42934
 C245 C 0.17090 0.81141 0.42945
 C246 C 0.16131 0.81129 0.45138
 N247 N 0.17176 0.82762 0.46445
 C248 C 0.14247 0.79729 0.45831
 C249 C 0.13552 0.79425 0.48146
 C250 C 0.11606 0.78203 0.48845
 C251 C 0.11621 0.78204 0.51209
 C252 C 0.13576 0.79428 0.51879
 N253 N 0.14762 0.80153 0.50004
 C254 C 0.14300 0.79734 0.54184
 C255 C 0.16185 0.81143 0.54853
 C256 C 0.17163 0.81164 0.57037
 C257 C 0.18844 0.82854 0.57027
 C258 C 0.18848 0.83819 0.54836
 N259 N 0.17211 0.82777 0.53531
 C260 C 0.20245 0.85705 0.54145
 H261 H 0.22588 0.89638 0.52216
 H262 H 0.22573 0.89621 0.47674
 H263 H 0.16642 0.83333 0.51928
 H264 H 0.19851 0.83291 0.41475
 H265 H 0.16609 0.80065 0.41495
 H266 H 0.10319 0.77378 0.47765
 H267 H 0.10349 0.77380 0.52308
 H268 H 0.19925 0.83332 0.58475
 H269 H 0.16625 0.83325 0.48052
 H270 H 0.16700 0.80090 0.58495
 C271 C 0.76857 0.13047 0.51195
 C272 C 0.76845 0.13049 0.48830
 C273 C 0.78774 0.14301 0.48135
 N274 N 0.79967 0.15049 0.49995
 C275 C 0.78793 0.14298 0.51869
 C276 C 0.79490 0.14583 0.45824
 C277 C 0.81359 0.16002 0.45131
 C278 C 0.82352 0.15985 0.42952
 C279 C 0.84035 0.17672 0.42941
 C280 C 0.84025 0.18677 0.45113
 N281 N 0.82373 0.17664 0.46427
 C282 C 0.85441 0.20554 0.45786
 C283 C 0.85720 0.21290 0.48090
 C284 C 0.86956 0.23234 0.48765
 C285 C 0.86958 0.23242 0.51129
 C286 C 0.85724 0.21302 0.51823
 N287 N 0.84982 0.20107 0.49962
 C288 C 0.85453 0.20579 0.54133
 C289 C 0.84051 0.18697 0.54825
 C290 C 0.84082 0.17701 0.57001
 C291 C 0.82408 0.16005 0.57012
 C292 C 0.81399 0.16010 0.54842
 N293 N 0.82395 0.17672 0.53530
 C294 C 0.79530 0.14580 0.54172
 H295 H 0.75602 0.12194 0.52292
 H296 H 0.75578 0.12197 0.47748
 H297 H 0.81811 0.18240 0.51936
 H298 H 0.81905 0.14878 0.41514
 H299 H 0.85133 0.18116 0.41494
 H300 H 0.87796 0.24498 0.47669
 H301 H 0.87801 0.24513 0.52213
 H302 H 0.81977 0.14902 0.58459
 H303 H 0.81801 0.18239 0.48023
 H304 H 0.85189 0.18156 0.58438
 C305 C 0.48774 0.86873 0.76815
 C306 C 0.51152 0.86887 0.76809
 C307 C 0.51851 0.85650 0.78736
 N308 N 0.49982 0.84897 0.79924
 C309 C 0.48097 0.85629 0.78747
 C310 C 0.54174 0.85384 0.79454
 C311 C 0.54872 0.83969 0.81317
 C312 C 0.57061 0.83991 0.82304
 C313 C 0.57073 0.82305 0.83980
 C314 C 0.54890 0.81297 0.83972
 N315 N 0.53570 0.82306 0.82328
 C316 C 0.54216 0.79420 0.85384
 C317 C 0.51900 0.78687 0.85676
 C318 C 0.51224 0.76751 0.86922
 C319 C 0.48846 0.76747 0.86938
 C320 C 0.48146 0.78680 0.85701
 N321 N 0.50016 0.79869 0.84945
 C322 C 0.45823 0.79404 0.85437
 C323 C 0.45126 0.81271 0.84022
 C324 C 0.42937 0.82267 0.84045
 C325 C 0.42925 0.83945 0.82361
 C326 C 0.45107 0.83930 0.81354
 N327 N 0.46428 0.82280 0.82362
 C328 C 0.45781 0.85341 0.79480
 H329 H 0.47670 0.87712 0.75558
 H330 H 0.52240 0.87737 0.75546
 H331 H 0.48031 0.81707 0.81784
 H332 H 0.58505 0.85100 0.81858
 H333 H 0.58528 0.81865 0.85073
 H334 H 0.52328 0.75491 0.87760
 H335 H 0.47758 0.75483 0.87791
 H336 H 0.41470 0.85043 0.81921
 H337 H 0.51966 0.81725 0.81763
 H338 H 0.41493 0.81824 0.85152
 C339 C 0.51252 0.21761 0.11674
 C340 C 0.48875 0.21752 0.11657
 C341 C 0.48177 0.20545 0.13604
 N342 N 0.50048 0.19836 0.14816
 C343 C 0.51931 0.20559 0.13631
 C344 C 0.45850 0.20238 0.14297
 C345 C 0.45160 0.18854 0.16186
 C346 C 0.42954 0.18844 0.17140
 C347 C 0.42952 0.17181 0.18840
 C348 C 0.45156 0.16219 0.18877
 N349 N 0.46482 0.17238 0.17244
 C350 C 0.45840 0.14353 0.20300
 C351 C 0.48162 0.13646 0.20616
 C352 C 0.48846 0.11706 0.21853
 C353 C 0.51224 0.11703 0.21858
 C354 C 0.51916 0.13642 0.20626
 N355 N 0.50041 0.14835 0.19887
 C356 C 0.54240 0.14346 0.20321
 C357 C 0.54926 0.16223 0.18915
 C358 C 0.57124 0.17195 0.18900
 C359 C 0.57126 0.18872 0.17214
 C360 C 0.54929 0.18878 0.16243
 N361 N 0.53608 0.17248 0.17279
 C362 C 0.54250 0.20268 0.14355
 H363 H 0.52354 0.22578 0.10401
 H364 H 0.47786 0.22561 0.10369
 H365 H 0.51998 0.16682 0.16719
 H366 H 0.41491 0.19910 0.16650
 H367 H 0.41487 0.16718 0.19910
 H368 H 0.47748 0.10435 0.22682
 H369 H 0.52316 0.10430 0.22692
 H370 H 0.58588 0.19947 0.16742
 H371 H 0.48101 0.16675 0.16701
 H372 H 0.58583 0.16731 0.19978
 C373 C 0.51288 0.11647 0.78273
 C374 C 0.48911 0.11635 0.78266
 C375 C 0.48208 0.13577 0.79488
 N376 N 0.50076 0.14781 0.80220
 C377 C 0.51962 0.13596 0.79498
 C378 C 0.45880 0.14274 0.79787
 C379 C 0.45182 0.16154 0.81183
 C380 C 0.42978 0.17116 0.81191
 C381 C 0.42966 0.18800 0.82869
 C382 C 0.45162 0.18821 0.83842
 N383 N 0.46494 0.17191 0.82815
 C384 C 0.45833 0.20223 0.85722
 C385 C 0.48150 0.20528 0.86444
 C386 C 0.48823 0.21743 0.88394
 C387 C 0.51200 0.21744 0.88410
 C388 C 0.51905 0.20531 0.86470
 N389 N 0.50038 0.19808 0.85263
 C390 C 0.54233 0.20231 0.85779
 C391 C 0.54932 0.18841 0.83898
 C392 C 0.57138 0.18836 0.82944
 C393 C 0.57151 0.17163 0.81255
 C394 C 0.54952 0.16191 0.81223
 N395 N 0.53620 0.17212 0.82850
 C396 C 0.54280 0.14314 0.79811
 H397 H 0.52393 0.10376 0.77451
 H398 H 0.47825 0.10354 0.77438
 H399 H 0.52005 0.16646 0.83395
 H400 H 0.41523 0.16641 0.80115
 H401 H 0.41498 0.19871 0.83335
 H402 H 0.47717 0.22561 0.89663
 H403 H 0.52285 0.22565 0.89694
 H404 H 0.58619 0.16701 0.80188
 H405 H 0.48106 0.16635 0.83378
 H406 H 0.58595 0.19911 0.83429
 C407 C 0.48941 0.78339 0.11613
 C408 C 0.51319 0.78358 0.11600
 C409 C 0.52006 0.79583 0.13539
 N410 N 0.50128 0.80294 0.14741
 C411 C 0.48252 0.79554 0.13559
 C412 C 0.54330 0.79902 0.14234
 C413 C 0.55010 0.81300 0.16115
 C414 C 0.57212 0.81322 0.17074
 C415 C 0.57202 0.82993 0.18765
 C416 C 0.54995 0.83949 0.18792
 N417 N 0.53679 0.82918 0.17160
 C418 C 0.54300 0.85818 0.20206
 C419 C 0.51975 0.86521 0.20510
 C420 C 0.51280 0.88463 0.21736
 C421 C 0.48902 0.88461 0.21733
 C422 C 0.48220 0.86516 0.20506
 N423 N 0.50101 0.85325 0.19779
 C424 C 0.45899 0.85804 0.20199
 C425 C 0.45223 0.83918 0.18802
 C426 C 0.43027 0.82939 0.18789
 C427 C 0.43037 0.81251 0.17115
 C428 C 0.45237 0.81244 0.16149
 N429 N 0.46550 0.82887 0.17176
 C430 C 0.45929 0.79840 0.14276
 H431 H 0.47847 0.77508 0.10345
 H432 H 0.52415 0.77543 0.10321
 H433 H 0.48161 0.83452 0.16618
 H434 H 0.58680 0.80258 0.16594
 H435 H 0.58662 0.83465 0.19836
 H436 H 0.52371 0.89740 0.22564
 H437 H 0.47803 0.89734 0.22559
 H438 H 0.41581 0.80167 0.16649
 H439 H 0.52060 0.83471 0.16612
 H440 H 0.41563 0.83406 0.19860
 C441 C 0.76727 0.51154 0.86905
 C442 C 0.76738 0.48778 0.86894
 C443 C 0.78672 0.48105 0.85639
 N444 N 0.79844 0.49988 0.84898
 C445 C 0.78653 0.51855 0.85656
 C446 C 0.79412 0.45792 0.85350
 C447 C 0.81283 0.45119 0.83927
 C448 C 0.82299 0.42941 0.83935
 C449 C 0.83975 0.42952 0.82247
 C450 C 0.83938 0.45137 0.81253
 N451 N 0.82276 0.46437 0.82272
 C452 C 0.85340 0.45833 0.79379
 C453 C 0.85596 0.48154 0.78656
 C454 C 0.86821 0.48854 0.76720
 C455 C 0.86804 0.51230 0.76726
 C456 C 0.85570 0.51905 0.78665
 N457 N 0.84846 0.50022 0.79847
 C458 C 0.85285 0.54218 0.79400
 C459 C 0.83880 0.54892 0.81280
 C460 C 0.83897 0.57072 0.82284
 C461 C 0.82225 0.57061 0.83976
 C462 C 0.81230 0.54874 0.83960
 N463 N 0.82233 0.53573 0.82296
 C464 C 0.79369 0.54177 0.85384
 H465 H 0.75463 0.52240 0.87763
 H466 H 0.75485 0.47674 0.87742
 H467 H 0.81660 0.51971 0.81721
 H468 H 0.81872 0.41488 0.85036
 H469 H 0.85087 0.41511 0.81797
 H470 H 0.87667 0.47767 0.75453
 H471 H 0.87635 0.52333 0.75463
 H472 H 0.81785 0.58503 0.85084
 H473 H 0.81686 0.48036 0.81706
 H474 H 0.84993 0.58526 0.81838
 C475 C 0.11701 0.51253 0.21810
 C476 C 0.11678 0.48878 0.21812
 C477 C 0.13617 0.48170 0.20586
 N478 N 0.14830 0.50033 0.19856
 C479 C 0.13654 0.51921 0.20583
 C480 C 0.14303 0.45841 0.20281
 C481 C 0.16178 0.45141 0.18876
 C482 C 0.17129 0.42933 0.18857
 C483 C 0.18812 0.42920 0.17175
 C484 C 0.18844 0.45119 0.16211
 N485 N 0.17222 0.46453 0.17246
 C486 C 0.20250 0.45790 0.14331
 C487 C 0.20570 0.48107 0.13618
 C488 C 0.21792 0.48781 0.11670
 C489 C 0.21810 0.51157 0.11664
 C490 C 0.20599 0.51859 0.13608
 N491 N 0.19862 0.49992 0.14807
 C492 C 0.20314 0.54184 0.14308
 C493 C 0.18924 0.54880 0.16191
 C494 C 0.18929 0.57080 0.17152
 C495 C 0.17253 0.57094 0.18840
 C496 C 0.16268 0.54902 0.18866
 N497 N 0.17285 0.53573 0.17234
 C498 C 0.14384 0.54235 0.20274
 H499 H 0.10435 0.52361 0.22636
 H500 H 0.10390 0.47797 0.22639
 H501 H 0.16710 0.51964 0.16684
 H502 H 0.16646 0.41477 0.19929
 H503 H 0.19875 0.41450 0.16701
 H504 H 0.22604 0.47677 0.10396
 H505 H 0.22639 0.52241 0.10384
 H506 H 0.16796 0.58559 0.19912
 H507 H 0.16675 0.48070 0.16691
 H508 H 0.20013 0.58532 0.16673
 C509 C 0.88429 0.51106 0.21744
 C510 C 0.88408 0.48730 0.21737
 C511 C 0.86462 0.48064 0.20501
 N512 N 0.85287 0.49953 0.19773
 C513 C 0.86495 0.51815 0.20512
 C514 C 0.85735 0.45751 0.20185
 C515 C 0.83858 0.45087 0.18769
 C516 C 0.82872 0.42896 0.18738
 C517 C 0.81202 0.42915 0.17046
 C518 C 0.81212 0.45117 0.16089
 N519 N 0.82847 0.46421 0.17138
 C520 C 0.79828 0.45820 0.14205
 C521 C 0.79548 0.48146 0.13505
 C522 C 0.78345 0.48852 0.11558
 C523 C 0.78364 0.51227 0.11567
 C524 C 0.79577 0.51897 0.13519
 N525 N 0.80280 0.50011 0.14709
 C526 C 0.79894 0.54212 0.14237
 C527 C 0.81289 0.54879 0.16124
 C528 C 0.81315 0.57075 0.17094
 C529 C 0.82988 0.57055 0.18783
 C530 C 0.83940 0.54849 0.18800
 N531 N 0.82906 0.53542 0.17162
 C532 C 0.85808 0.54144 0.20210
 H533 H 0.89710 0.52185 0.22579
 H534 H 0.89671 0.47622 0.22565
 H535 H 0.83457 0.51926 0.16605
 H536 H 0.83324 0.41428 0.19808
 H537 H 0.80119 0.41465 0.16562
 H538 H 0.77521 0.47770 0.10275
 H539 H 0.77557 0.52334 0.10293
 H540 H 0.83463 0.58509 0.19862
 H541 H 0.83424 0.48031 0.16592
 H542 H 0.80253 0.58546 0.16620
 C543 C 0.21710 0.51173 0.88516
 C544 C 0.21713 0.48798 0.88515
 C545 C 0.20496 0.48111 0.86571
 N546 N 0.19769 0.49987 0.85379
 C547 C 0.20491 0.51862 0.86573
 C548 C 0.20198 0.45790 0.85863
 C549 C 0.18803 0.45108 0.83981
 C550 C 0.18797 0.42911 0.83013
 C551 C 0.17121 0.42914 0.81325
 C552 C 0.16148 0.45112 0.81308
 N553 N 0.17171 0.46429 0.82944
 C554 C 0.14270 0.45797 0.79901
 C555 C 0.13553 0.48117 0.79602
 C556 C 0.11606 0.48803 0.78377
 C557 C 0.11597 0.51178 0.78385
 C558 C 0.13538 0.51869 0.79613
 N559 N 0.14740 0.49994 0.80337
 C560 C 0.14238 0.54191 0.79925
 C561 C 0.16116 0.54875 0.81331
 C562 C 0.17081 0.57075 0.81354
 C563 C 0.18764 0.57073 0.83034
 C564 C 0.18783 0.54871 0.83992
 N565 N 0.17152 0.53551 0.82956
 C566 C 0.20186 0.54184 0.85868
 H567 H 0.22530 0.52267 0.89792
 H568 H 0.22536 0.47703 0.89789
 H569 H 0.16595 0.51936 0.83507
 H570 H 0.19873 0.41451 0.83485
 H571 H 0.16658 0.41455 0.80249
 H572 H 0.10335 0.47707 0.77547
 H573 H 0.10317 0.52271 0.77561
 H574 H 0.19837 0.58534 0.83509
 H575 H 0.16606 0.48040 0.83499
 H576 H 0.16608 0.58538 0.80286
 C577 C 0.28523 0.35337 0.04700
 C578 C 0.27463 0.36471 0.06090
 C579 C 0.26203 0.37891 0.07699
 C580 C 0.23775 0.37899 0.07680
 C581 C 0.22553 0.39400 0.09132
 C582 C 0.23755 0.40897 0.10607
 C583 C 0.26183 0.40860 0.10654
 C584 C 0.27404 0.39360 0.09203
 C585 C 0.22508 0.42559 0.11975
 C586 C 0.21475 0.44001 0.13072
 H587 H 0.22829 0.36780 0.06514
 H588 H 0.20676 0.39425 0.09073
 H589 H 0.27129 0.42020 0.11778
 H590 H 0.29282 0.39376 0.09222
 C591 C 0.71577 0.64654 0.04634
 C592 C 0.72654 0.63527 0.06016
 C593 C 0.73930 0.62114 0.07617
 C594 C 0.72743 0.60734 0.09216
 C595 C 0.73973 0.59236 0.10662
 C596 C 0.76394 0.59112 0.10516
 C597 C 0.77584 0.60521 0.08945
 C598 C 0.76354 0.62019 0.07498
 C599 C 0.77641 0.57449 0.11882
 C600 C 0.78672 0.56004 0.12978
 H601 H 0.70869 0.60784 0.09313
 H602 H 0.73036 0.58144 0.11861
 H603 H 0.79455 0.60428 0.08809
 H604 H 0.77287 0.63069 0.06259
 C605 C 0.71445 0.35417 0.95321
 C606 C 0.72475 0.36552 0.93909
 C607 C 0.73685 0.37972 0.92266
 C608 C 0.72442 0.39498 0.90852
 C609 C 0.73621 0.40987 0.89357
 C610 C 0.76047 0.40957 0.89268
 C611 C 0.77290 0.39406 0.90655
 C612 C 0.76111 0.37916 0.92152
 C613 C 0.77255 0.42596 0.87841
 C614 C 0.78246 0.44022 0.86687
 H615 H 0.70567 0.39563 0.90936
 H616 H 0.72644 0.42189 0.88301
 H617 H 0.79167 0.39378 0.90608
 H618 H 0.77089 0.36751 0.93246
 C619 C 0.28596 0.64562 0.95451
 C620 C 0.27520 0.63429 0.94074
 C621 C 0.26239 0.62016 0.92479
 C622 C 0.27419 0.60535 0.90967
 C623 C 0.26176 0.59047 0.89524
 C624 C 0.23749 0.59035 0.89586
 C625 C 0.22568 0.60543 0.91069
 C626 C 0.23811 0.62031 0.92513
 C627 C 0.22479 0.57389 0.88221
 C628 C 0.21430 0.55959 0.87126
 H629 H 0.29297 0.60501 0.90935
 H630 H 0.27107 0.57878 0.88393
 H631 H 0.20691 0.60538 0.91140
 H632 H 0.22881 0.63161 0.93684
 C633 C 0.04724 0.28662 0.35540
 C634 C 0.06131 0.27639 0.36690
 C635 C 0.07767 0.26432 0.38125
 C636 C 0.08034 0.24028 0.37927
 C637 C 0.09524 0.22842 0.39419
 C638 C 0.10752 0.24058 0.41115
 C639 C 0.10510 0.26465 0.41290
 C640 C 0.09021 0.27650 0.39799
 C641 C 0.12175 0.22831 0.42744
 C642 C 0.13326 0.21824 0.44159
 H643 H 0.07063 0.23068 0.36646
 H644 H 0.09691 0.20979 0.39276
 H645 H 0.11442 0.27419 0.42603
 H646 H 0.08820 0.29507 0.39975
 C647 C 0.04711 0.71393 0.64613
 C648 C 0.06100 0.72457 0.63480
 C649 C 0.07706 0.73722 0.62060
 C650 C 0.07724 0.76148 0.62106
 C651 C 0.09168 0.77379 0.60606
 C652 C 0.10599 0.76188 0.59055
 C653 C 0.10610 0.73762 0.59037
 C654 C 0.09166 0.72531 0.60536
 C655 C 0.11959 0.77449 0.57399
 C656 C 0.13048 0.78493 0.55963
 H657 H 0.06592 0.77085 0.63269
 H658 H 0.09138 0.79255 0.60626
 H659 H 0.11700 0.72824 0.57835
 H660 H 0.09156 0.70656 0.60477
 C661 C 0.95281 0.71329 0.35482
 C662 C 0.93867 0.72351 0.36625
 C663 C 0.92224 0.73556 0.38053
 C664 C 0.92046 0.75974 0.37940
 C665 C 0.90552 0.77153 0.39435
 C666 C 0.89233 0.75917 0.41049
 C667 C 0.89386 0.73498 0.41138
 C668 C 0.90878 0.72320 0.39643
 C669 C 0.87812 0.77131 0.42688
 C670 C 0.86664 0.78129 0.44112
 H671 H 0.93088 0.76947 0.36726
 H672 H 0.90455 0.79025 0.39361
 H673 H 0.88383 0.72528 0.42387
 H674 H 0.91011 0.70451 0.39753
 C675 C 0.95350 0.28713 0.64450
 C676 C 0.93953 0.27677 0.63301
 C677 C 0.92327 0.26452 0.61872
 C678 C 0.92076 0.24048 0.62087
 C679 C 0.90591 0.22845 0.60604
 C680 C 0.89354 0.24043 0.58901
 C681 C 0.89582 0.26451 0.58708
 C682 C 0.91064 0.27653 0.60190
 C683 C 0.87936 0.22800 0.57284
 C684 C 0.86787 0.21779 0.55878
 H685 H 0.93052 0.23102 0.63374
 H686 H 0.90436 0.20982 0.60760
 H687 H 0.88642 0.27392 0.57390
 H688 H 0.91253 0.29510 0.60002
 C689 C 0.35417 0.04750 0.28655
 C690 C 0.36556 0.06141 0.27598
 C691 C 0.37978 0.07749 0.26339
 C692 C 0.37845 0.07850 0.23929
 C693 C 0.39340 0.09299 0.22696
 C694 C 0.40974 0.10652 0.23868
 C695 C 0.41080 0.10580 0.26279
 C696 C 0.39585 0.09132 0.27512
 C697 C 0.42624 0.12014 0.22598
 C698 C 0.44059 0.13103 0.21546
 H699 H 0.36617 0.06779 0.23004
 H700 H 0.39253 0.09332 0.20831
 H701 H 0.42347 0.11609 0.27201
 H702 H 0.39711 0.09057 0.29374
 C703 C 0.64684 0.04711 0.71430
 C704 C 0.63559 0.06103 0.72501
 C705 C 0.62150 0.07713 0.73776
 C706 C 0.62185 0.07697 0.76191
 C707 C 0.60694 0.09146 0.77430
 C708 C 0.59162 0.10616 0.76258
 C709 C 0.59156 0.10661 0.73844
 C710 C 0.60647 0.09212 0.72605
 C711 C 0.57507 0.11977 0.77524
 C712 C 0.56068 0.13066 0.78571
 H713 H 0.63332 0.06534 0.77113
 H714 H 0.60703 0.09088 0.79296
 H715 H 0.57968 0.11781 0.72921
 H716 H 0.60596 0.09229 0.70738
 C717 C 0.35396 0.95233 0.71399
 C718 C 0.36527 0.93826 0.72443
 C719 C 0.37946 0.92190 0.73673
 C720 C 0.39479 0.90755 0.72460
 C721 C 0.40971 0.89273 0.73656
 C722 C 0.40936 0.89218 0.76070
 C723 C 0.39377 0.90625 0.77283
 C724 C 0.37885 0.92110 0.76086
 C725 C 0.42579 0.87806 0.77295
 C726 C 0.44008 0.86665 0.78299
 H727 H 0.39549 0.90812 0.70595
 H728 H 0.42178 0.88201 0.72702
 H729 H 0.39345 0.90605 0.79150
 H730 H 0.36715 0.93221 0.77041
 C731 C 0.64670 0.95368 0.28679
 C732 C 0.63540 0.93992 0.27596
 C733 C 0.62127 0.92398 0.26309
 C734 C 0.60600 0.90912 0.27466
 C735 C 0.59112 0.89475 0.26214
 C736 C 0.59144 0.89518 0.23800
 C737 C 0.60698 0.90976 0.22642
 C738 C 0.62187 0.92413 0.23894
 C739 C 0.57500 0.88161 0.22518
 C740 C 0.56072 0.87071 0.21459
 H741 H 0.60531 0.90896 0.29332
 H742 H 0.57908 0.88364 0.27126
 H743 H 0.60728 0.91031 0.20775
 H744 H 0.63352 0.93565 0.22982
 C745 C 0.35346 0.28539 0.95285
 C746 C 0.36487 0.27479 0.93901
 C747 C 0.37915 0.26219 0.92301
 C748 C 0.39444 0.27413 0.90848
 C749 C 0.40951 0.26185 0.89408
 C750 C 0.40935 0.23759 0.89414
 C751 C 0.39378 0.22565 0.90837
 C752 C 0.37871 0.23792 0.92278
 C753 C 0.42599 0.22502 0.88057
 C754 C 0.44044 0.21460 0.86970
 H755 H 0.39501 0.29288 0.90862
 H756 H 0.42157 0.27125 0.88324
 H757 H 0.39361 0.20689 0.90864
 H758 H 0.36705 0.22852 0.93404
 C759 C 0.64646 0.71370 0.95242
 C760 C 0.63496 0.72402 0.93844
 C761 C 0.62060 0.73620 0.92219
 C762 C 0.62191 0.76037 0.92041
 C763 C 0.60692 0.77228 0.90562
 C764 C 0.59058 0.76006 0.89255
 C765 C 0.58951 0.73587 0.89408
 C766 C 0.60449 0.72397 0.90886
 C767 C 0.57416 0.77232 0.87846
 C768 C 0.55989 0.78237 0.86705
 H769 H 0.63423 0.77001 0.93073
 H770 H 0.60781 0.79100 0.90464
 H771 H 0.57685 0.72627 0.88415
 H772 H 0.60325 0.70529 0.91019
 C773 C 0.35499 0.71387 0.04779
 C774 C 0.36647 0.72455 0.06150
 C775 C 0.38079 0.73726 0.07736
 C776 C 0.39732 0.72559 0.09070
 C777 C 0.41230 0.73805 0.10499
 C778 C 0.41082 0.76225 0.10602
 C779 C 0.39404 0.77390 0.09296
 C780 C 0.37905 0.76143 0.07866
 C781 C 0.42728 0.77512 0.11950
 C782 C 0.44157 0.78577 0.13032
 H783 H 0.39890 0.70691 0.08973
 H784 H 0.42530 0.72888 0.11491
 H785 H 0.39283 0.79262 0.09354
 H786 H 0.36641 0.77064 0.06833
 C787 C 0.64709 0.28591 0.04773
 C788 C 0.63574 0.27527 0.06159
 C789 C 0.62151 0.26265 0.07762
 C790 C 0.60637 0.27458 0.09230
 C791 C 0.59132 0.26231 0.10672
 C792 C 0.59135 0.23805 0.10650
 C793 C 0.60677 0.22611 0.09211
 C794 C 0.62182 0.23838 0.07769
 C795 C 0.57473 0.22548 0.12010
 C796 C 0.56033 0.21507 0.13100
 H797 H 0.60589 0.29334 0.09229
 H798 H 0.57937 0.27171 0.11769
 H799 H 0.60685 0.20735 0.09172
 H800 H 0.63337 0.22899 0.06630
 C801 C 0.28655 0.04736 0.64610
 C802 C 0.27622 0.06147 0.63475
 C803 C 0.26405 0.07788 0.62054
 C804 C 0.23986 0.07966 0.62184
 C805 C 0.22796 0.09459 0.60697
 C806 C 0.24021 0.10776 0.59075
 C807 C 0.26442 0.10622 0.58969
 C808 C 0.27631 0.09132 0.60455
 C809 C 0.22797 0.12198 0.57445
 C810 C 0.21791 0.13349 0.56029
 H811 H 0.23019 0.06926 0.63406
 H812 H 0.20922 0.09557 0.60785
 H813 H 0.27405 0.11624 0.57713
 H814 H 0.29501 0.08998 0.60332
 C815 C 0.71361 0.04657 0.35533
 C816 C 0.72402 0.06057 0.36673
 C817 C 0.73631 0.07688 0.38094
 C818 C 0.76048 0.07874 0.37934
 C819 C 0.77251 0.09362 0.39413
 C820 C 0.76041 0.10669 0.41055
 C821 C 0.73622 0.10506 0.41192
 C822 C 0.72420 0.09019 0.39714
 C823 C 0.77280 0.12092 0.42672
 C824 C 0.78296 0.13245 0.44078
 H825 H 0.77003 0.06844 0.36695
 H826 H 0.79122 0.09467 0.39301
 H827 H 0.72671 0.11499 0.42464
 H828 H 0.70553 0.08881 0.39860
 C829 C 0.71396 0.95236 0.64579
 C830 C 0.72427 0.93820 0.63448
 C831 C 0.73643 0.92170 0.62036
 C832 C 0.76066 0.92024 0.62132
 C833 C 0.77253 0.90520 0.60654
 C834 C 0.76021 0.89158 0.59078
 C835 C 0.73597 0.89279 0.59007
 C836 C 0.72410 0.90781 0.60484
 C837 C 0.77240 0.87726 0.57452
 C838 C 0.78240 0.86570 0.56036
 H839 H 0.77036 0.93099 0.63318
 H840 H 0.79128 0.90448 0.60714
 H841 H 0.72629 0.88242 0.57785
 H842 H 0.70538 0.90889 0.60388
 C843 C 0.28575 0.95307 0.35418
 C844 C 0.27508 0.93915 0.36545
 C845 C 0.26237 0.92305 0.37954
 C846 C 0.23808 0.92323 0.37938
 C847 C 0.22573 0.90871 0.39426
 C848 C 0.23762 0.89395 0.40935
 C849 C 0.26190 0.89348 0.40922
 C850 C 0.27425 0.90800 0.39435
 C851 C 0.22500 0.88027 0.42583
 C852 C 0.21456 0.86932 0.44015
 H853 H 0.22872 0.93490 0.36809
 H854 H 0.20696 0.90930 0.39432
 H855 H 0.27127 0.88223 0.42092
 H856 H 0.29303 0.90782 0.39470
 C857 C 0.04728 0.35438 0.71412
 C858 C 0.06105 0.36563 0.72500
 C859 C 0.07699 0.37969 0.73794
 C860 C 0.09234 0.39450 0.72640
 C861 C 0.10671 0.40936 0.73895
 C862 C 0.10580 0.40946 0.76308
 C863 C 0.09074 0.39438 0.77463
 C864 C 0.07635 0.37952 0.76208
 C865 C 0.11936 0.42592 0.77588
 C866 C 0.13023 0.44022 0.78647
 H867 H 0.09288 0.39487 0.70774
 H868 H 0.11820 0.42105 0.72984
 H869 H 0.08980 0.39442 0.79328
 H870 H 0.06446 0.36823 0.77117
 C871 C 0.04794 0.64672 0.28622
 C872 C 0.06189 0.63548 0.27553
 C873 C 0.07800 0.62136 0.26284
 C874 C 0.09305 0.60643 0.27461
 C875 C 0.10750 0.59143 0.26229
 C876 C 0.10698 0.59132 0.23815
 C877 C 0.09224 0.60654 0.22636
 C878 C 0.07777 0.62154 0.23869
 C879 C 0.12055 0.57469 0.22556
 C880 C 0.13140 0.56025 0.21513
 H881 H 0.09326 0.60605 0.29328
 H882 H 0.11874 0.57963 0.27157
 H883 H 0.09160 0.60650 0.20770
 H884 H 0.06610 0.63292 0.22942
 C885 C 0.95273 0.35324 0.28603
 C886 C 0.93888 0.36446 0.27520
 C887 C 0.92288 0.37854 0.26235
 C888 C 0.92372 0.37877 0.23821
 C889 C 0.90934 0.39373 0.22577
 C890 C 0.89405 0.40852 0.23742
 C891 C 0.89291 0.40800 0.26153
 C892 C 0.90729 0.39304 0.27397
 C893 C 0.88054 0.42515 0.22475
 C894 C 0.86973 0.43959 0.21428
 H895 H 0.93581 0.36773 0.22905
 H896 H 0.91045 0.39410 0.20713
 H897 H 0.88125 0.41947 0.27071
 H898 H 0.90659 0.39311 0.29263
 C899 C 0.95233 0.64567 0.71351
 C900 C 0.93819 0.63434 0.72384
 C901 C 0.92173 0.62018 0.73602
 C902 C 0.90806 0.60429 0.72388
 C903 C 0.89311 0.58945 0.73578
 C904 C 0.89177 0.59044 0.75987
 C905 C 0.90517 0.60658 0.77200
 C906 C 0.92013 0.62143 0.76009
 C907 C 0.87757 0.57410 0.77212
 C908 C 0.86610 0.55987 0.78217
 H909 H 0.90925 0.60310 0.70528
 H910 H 0.88292 0.57694 0.72625
 H911 H 0.90435 0.60740 0.79063
 H912 H 0.93072 0.63358 0.76965
 C913 C 0.71380 0.64569 0.95360
 C914 C 0.72404 0.63409 0.93963
 C915 C 0.73608 0.61963 0.92333
 C916 C 0.72380 0.60305 0.91064
 C917 C 0.73558 0.58811 0.89571
 C918 C 0.75970 0.58967 0.89340
 C919 C 0.77197 0.60645 0.90586
 C920 C 0.76018 0.62141 0.92080
 C921 C 0.77188 0.57340 0.87904
 C922 C 0.78189 0.55928 0.86738
 H923 H 0.70519 0.60145 0.91253
 H924 H 0.72595 0.57512 0.88625
 H925 H 0.79064 0.60774 0.90428
 H926 H 0.76986 0.63409 0.93061
 C927 C 0.28560 0.35334 0.95438
 C928 C 0.27493 0.36483 0.94064
 C929 C 0.26230 0.37918 0.92470
 C930 C 0.27417 0.39523 0.91095
 C931 C 0.26184 0.41025 0.89655
 C932 C 0.23759 0.40928 0.89582
 C933 C 0.22573 0.39300 0.90930
 C934 C 0.23806 0.37797 0.92371
 C935 C 0.22490 0.42579 0.88218
 C936 C 0.21441 0.44012 0.87123
 H937 H 0.29290 0.39640 0.91167
 H938 H 0.27118 0.42286 0.88630
 H939 H 0.20697 0.39219 0.90896
 H940 H 0.22870 0.36572 0.93436
 C941 C 0.28678 0.64614 0.04704
 C942 C 0.27609 0.63472 0.06082
 C943 C 0.26341 0.62042 0.07677
 C944 C 0.23912 0.62086 0.07694
 C945 C 0.22680 0.60584 0.09136
 C946 C 0.23871 0.59032 0.10567
 C947 C 0.26299 0.59014 0.10576
 C948 C 0.27532 0.60516 0.09135
 C949 C 0.22608 0.57381 0.11936
 C950 C 0.21560 0.55952 0.13038
 H951 H 0.22974 0.63250 0.06565
 H952 H 0.20802 0.60604 0.09107
 H953 H 0.27238 0.57813 0.11666
 H954 H 0.29409 0.60458 0.09127
 C955 C 0.71460 0.35411 0.04600
 C956 C 0.72526 0.36560 0.05972
 C957 C 0.73788 0.37993 0.07566
 C958 C 0.76211 0.37860 0.07675
 C959 C 0.77444 0.39357 0.09119
 C960 C 0.76259 0.40993 0.10459
 C961 C 0.73834 0.41102 0.10375
 C962 C 0.72602 0.39606 0.08932
 C963 C 0.77529 0.42634 0.11830
 C964 C 0.78580 0.44057 0.12933
 H965 H 0.77146 0.36627 0.06617
 H966 H 0.79319 0.39265 0.09162
 H967 H 0.72901 0.42369 0.11395
 H968 H 0.70730 0.39732 0.08852
 C969 C 0.95389 0.71253 0.64552
 C970 C 0.93988 0.72278 0.63395
 C971 C 0.92353 0.73481 0.61954
 C972 C 0.92012 0.75870 0.62211
 C973 C 0.90512 0.77054 0.60725
 C974 C 0.89349 0.75851 0.58976
 C975 C 0.89668 0.73458 0.58739
 C976 C 0.91165 0.72276 0.60224
 C977 C 0.87908 0.77078 0.57362
 C978 C 0.86739 0.78085 0.55961
 H979 H 0.92929 0.76821 0.63536
 H980 H 0.90286 0.78906 0.60917
 H981 H 0.88785 0.72513 0.57385
 H982 H 0.91423 0.70430 0.60003
 C983 C 0.95385 0.28644 0.35453
 C984 C 0.93985 0.27598 0.36592
 C985 C 0.92352 0.26369 0.38015
 C986 C 0.92223 0.23947 0.37919
 C987 C 0.90731 0.22750 0.39402
 C988 C 0.89363 0.23970 0.40987
 C989 C 0.89468 0.26393 0.41060
 C990 C 0.90959 0.27589 0.39578
 C991 C 0.87935 0.22741 0.42613
 C992 C 0.86780 0.21735 0.44027
 H993 H 0.93300 0.22985 0.36725
 H994 H 0.90671 0.20876 0.39339
 H995 H 0.88428 0.27353 0.42287
 H996 H 0.91052 0.29460 0.39675
 C997 C 0.04681 0.28737 0.64582
 C998 C 0.06087 0.27692 0.63447
 C999 C 0.07724 0.26463 0.62027
 C1000 C 0.09143 0.27688 0.60492
 C1001 C 0.10633 0.26494 0.59007
 C1002 C 0.10713 0.24069 0.59051
 C1003 C 0.09320 0.22844 0.60610
 C1004 C 0.07827 0.24039 0.62095
 C1005 C 0.12141 0.22844 0.57423
 C1006 C 0.13299 0.21837 0.56011
 H1007 H 0.09069 0.29561 0.60416
 H1008 H 0.11694 0.27457 0.57800
 H1009 H 0.09359 0.20969 0.60650
 H1010 H 0.06729 0.23074 0.63267
 C1011 C 0.04605 0.71393 0.35437
 C1012 C 0.05982 0.72463 0.36580
 C1013 C 0.07580 0.73730 0.38005
 C1014 C 0.07556 0.76157 0.38002
 C1015 C 0.09005 0.77386 0.39497
 C1016 C 0.10484 0.76193 0.41001
 C1017 C 0.10534 0.73768 0.40979
 C1018 C 0.09085 0.72539 0.39484
 C1019 C 0.11862 0.77450 0.42645
 C1020 C 0.12970 0.78491 0.44069
 H1021 H 0.06390 0.77095 0.36874
 H1022 H 0.08944 0.79261 0.39508
 H1023 H 0.11661 0.72828 0.42143
 H1024 H 0.09109 0.70663 0.39510
 C1025 C 0.64578 0.95308 0.71399
 C1026 C 0.63424 0.93915 0.72439
 C1027 C 0.61980 0.92292 0.73658
 C1028 C 0.62112 0.92116 0.76064
 C1029 C 0.60614 0.90631 0.77253
 C1030 C 0.58977 0.89317 0.76041
 C1031 C 0.58867 0.89470 0.73634
 C1032 C 0.60365 0.90953 0.72445
 C1033 C 0.57344 0.87890 0.77265
 C1034 C 0.55929 0.86732 0.78269
 H1035 H 0.63347 0.93151 0.77020
 H1036 H 0.60707 0.90534 0.79116
 H1037 H 0.57600 0.88471 0.72680
 H1038 H 0.60239 0.91083 0.70586
 C1039 C 0.35407 0.95365 0.28556
 C1040 C 0.36550 0.93992 0.27477
 C1041 C 0.37981 0.92402 0.26200
 C1042 C 0.38026 0.92488 0.23786
 C1043 C 0.39535 0.91050 0.22553
 C1044 C 0.41005 0.89521 0.23729
 C1045 C 0.40933 0.89408 0.26140
 C1046 C 0.39425 0.90846 0.27373
 C1047 C 0.42670 0.88158 0.22473
 C1048 C 0.44112 0.87064 0.21434
 H1049 H 0.36928 0.93694 0.22862
 H1050 H 0.39586 0.91160 0.20690
 H1051 H 0.42072 0.88242 0.27067
 H1052 H 0.39414 0.90773 0.29239
 C1053 C 0.64677 0.04749 0.28687
 C1054 C 0.63543 0.06131 0.27611
 C1055 C 0.62122 0.07730 0.26337
 C1056 C 0.60665 0.09274 0.27510
 C1057 C 0.59164 0.10717 0.26277
 C1058 C 0.59114 0.10623 0.23864
 C1059 C 0.60598 0.09108 0.22689
 C1060 C 0.62099 0.07664 0.23922
 C1061 C 0.57455 0.11990 0.22606
 C1062 C 0.56019 0.13086 0.21563
 H1063 H 0.60659 0.09330 0.29377
 H1064 H 0.58014 0.11873 0.27203
 H1065 H 0.60564 0.09012 0.20824
 H1066 H 0.63209 0.06468 0.22998
 C1067 C 0.35462 0.04639 0.71455
 C1068 C 0.36606 0.06017 0.72522
 C1069 C 0.38033 0.07616 0.73786
 C1070 C 0.39546 0.09098 0.72605
 C1071 C 0.41042 0.10548 0.73833
 C1072 C 0.41033 0.10522 0.76248
 C1073 C 0.39495 0.09067 0.77430
 C1074 C 0.37998 0.07616 0.76201
 C1075 C 0.42681 0.11897 0.77505
 C1076 C 0.44110 0.13002 0.78547
 H1077 H 0.39596 0.09104 0.70738
 H1078 H 0.42233 0.11657 0.72902
 H1079 H 0.39482 0.09024 0.79297
 H1080 H 0.36844 0.06469 0.77132
 C1081 C 0.64740 0.71541 0.04602
 C1082 C 0.63613 0.72630 0.05978
 C1083 C 0.62201 0.73918 0.07574
 C1084 C 0.62053 0.76334 0.07397
 C1085 C 0.60560 0.77570 0.08846
 C1086 C 0.59209 0.76396 0.10478
 C1087 C 0.59384 0.73984 0.10680
 C1088 C 0.60878 0.72748 0.09231
 C1089 C 0.57553 0.77646 0.11855
 C1090 C 0.56115 0.78679 0.12962
 H1091 H 0.63059 0.77255 0.06113
 H1092 H 0.60428 0.79433 0.08666
 H1093 H 0.58338 0.73057 0.11926
 H1094 H 0.60968 0.70880 0.09375
 C1095 C 0.35381 0.28487 0.04635
 C1096 C 0.36528 0.27418 0.06008
 C1097 C 0.37960 0.26151 0.07602
 C1098 C 0.39293 0.27342 0.09234
 C1099 C 0.40798 0.26125 0.10685
 C1100 C 0.40976 0.23711 0.10511
 C1101 C 0.39617 0.22516 0.08903
 C1102 C 0.38112 0.23734 0.07451
 C1103 C 0.42635 0.22477 0.11896
 C1104 C 0.44072 0.21455 0.13012
 H1105 H 0.39198 0.29212 0.09358
 H1106 H 0.41850 0.27067 0.11914
 H1107 H 0.39750 0.20652 0.08745
 H1108 H 0.37098 0.22796 0.06187
 C1109 C 0.64647 0.28547 0.95423
 C1110 C 0.63504 0.27476 0.94049
 C1111 C 0.62079 0.26208 0.92454
 C1112 C 0.62039 0.23782 0.92517
 C1113 C 0.60543 0.22555 0.91067
 C1114 C 0.59081 0.23749 0.89547
 C1115 C 0.59147 0.26173 0.89459
 C1116 C 0.60643 0.27399 0.90909
 C1117 C 0.57432 0.22499 0.88167
 C1118 C 0.56003 0.21463 0.87057
 H1119 H 0.63133 0.22843 0.93714
 H1120 H 0.60497 0.20682 0.91158
 H1121 H 0.58015 0.27114 0.88300
 H1122 H 0.60651 0.29275 0.90854
 C1123 C 0.35484 0.71357 0.95415
 C1124 C 0.36627 0.72395 0.94014
 C1125 C 0.38054 0.73614 0.92379
 C1126 C 0.39636 0.72387 0.91012
 C1127 C 0.41122 0.73575 0.89519
 C1128 C 0.41032 0.75996 0.89384
 C1129 C 0.39427 0.77222 0.90727
 C1130 C 0.37941 0.76033 0.92222
 C1131 C 0.42659 0.77219 0.87950
 C1132 C 0.44070 0.78222 0.86788
 H1133 H 0.39747 0.70518 0.91127
 H1134 H 0.42364 0.72611 0.88497
 H1135 H 0.39351 0.79095 0.90644
 H1136 H 0.36732 0.77000 0.93279
 C1137 C 0.71396 0.95323 0.35610
 C1138 C 0.72418 0.93914 0.36759
 C1139 C 0.73619 0.92271 0.38192
 C1140 C 0.72394 0.91018 0.39864
 C1141 C 0.73571 0.89516 0.41349
 C1142 C 0.75979 0.89258 0.41168
 C1143 C 0.77202 0.90486 0.39476
 C1144 C 0.76024 0.91990 0.37991
 C1145 C 0.77197 0.87814 0.42786
 C1146 C 0.78200 0.86644 0.44189
 H1147 H 0.70536 0.91229 0.40043
 H1148 H 0.72610 0.88584 0.42659
 H1149 H 0.79065 0.90307 0.39329
 H1150 H 0.76990 0.92958 0.36711
 C1151 C 0.28580 0.95329 0.64554
 C1152 C 0.27515 0.93953 0.63406
 C1153 C 0.26253 0.92356 0.61975
 C1154 C 0.27448 0.90916 0.60436
 C1155 C 0.26220 0.89469 0.58940
 C1156 C 0.23792 0.89456 0.58975
 C1157 C 0.22597 0.90870 0.60538
 C1158 C 0.23825 0.92318 0.62035
 C1159 C 0.22532 0.88083 0.57331
 C1160 C 0.21487 0.86978 0.55907
 H1161 H 0.29324 0.90940 0.60367
 H1162 H 0.27161 0.88392 0.57729
 H1163 H 0.20719 0.90883 0.60572
 H1164 H 0.22884 0.93434 0.63210
 C1165 C 0.28624 0.04714 0.35527
 C1166 C 0.27591 0.06109 0.36685
 C1167 C 0.26377 0.07735 0.38128
 C1168 C 0.27610 0.09077 0.39722
 C1169 C 0.26427 0.10563 0.41219
 C1170 C 0.24005 0.10715 0.41129
 C1171 C 0.22773 0.09396 0.39515
 C1172 C 0.23957 0.07909 0.38018
 C1173 C 0.22787 0.12144 0.42761
 C1174 C 0.21787 0.13305 0.44175
 H1175 H 0.29480 0.08949 0.39830
 H1176 H 0.27396 0.11566 0.42467
 H1177 H 0.20899 0.09493 0.39439
 H1178 H 0.22985 0.06871 0.36800
 C1179 C 0.71489 0.04663 0.64565
 C1180 C 0.72539 0.06055 0.63421
 C1181 C 0.73769 0.07680 0.61990
 C1182 C 0.72535 0.09165 0.60525
 C1183 C 0.73724 0.10648 0.59030
 C1184 C 0.76152 0.10655 0.58993
 C1185 C 0.77387 0.09195 0.60481
 C1186 C 0.76198 0.07710 0.61977
 C1187 C 0.77365 0.12080 0.57354
 C1188 C 0.78360 0.13236 0.55933
 H1189 H 0.70658 0.09149 0.60512
 H1190 H 0.72752 0.11761 0.57878
 H1191 H 0.79265 0.09178 0.60458
 H1192 H 0.77169 0.06561 0.63094
 C1193 C 0.95398 0.64553 0.28608
 C1194 C 0.94025 0.63403 0.27541
 C1195 C 0.92432 0.61969 0.26275
 C1196 C 0.92316 0.62125 0.23867
 C1197 C 0.90874 0.60628 0.22629
 C1198 C 0.89542 0.58970 0.23795
 C1199 C 0.89632 0.58838 0.26204
 C1200 C 0.91074 0.60335 0.27441
 C1201 C 0.88175 0.57329 0.22519
 C1202 C 0.87075 0.55907 0.21463
 H1203 H 0.93368 0.63374 0.22947
 H1204 H 0.90826 0.60736 0.20765
 H1205 H 0.88620 0.57555 0.27122
 H1206 H 0.91159 0.60191 0.29302
 C1207 C 0.95319 0.35493 0.71311
 C1208 C 0.93914 0.36634 0.72350
 C1209 C 0.92277 0.38061 0.73571
 C1210 C 0.90911 0.39657 0.72358
 C1211 C 0.89419 0.41144 0.73549
 C1212 C 0.89283 0.41043 0.75958
 C1213 C 0.90623 0.39426 0.77170
 C1214 C 0.92118 0.37938 0.75978
 C1215 C 0.87851 0.42671 0.77184
 C1216 C 0.86689 0.44082 0.78191
 H1217 H 0.91028 0.39776 0.70498
 H1218 H 0.88399 0.42396 0.72596
 H1219 H 0.90540 0.39341 0.79034
 H1220 H 0.93174 0.36719 0.76934
 C1221 C 0.04648 0.64597 0.71508
 C1222 C 0.06024 0.63466 0.72596
 C1223 C 0.07618 0.62049 0.73882
 C1224 C 0.09174 0.60597 0.72719
 C1225 C 0.10616 0.59102 0.73962
 C1226 C 0.10509 0.59054 0.76374
 C1227 C 0.08980 0.60533 0.77540
 C1228 C 0.07537 0.62028 0.76296
 C1229 C 0.11876 0.57402 0.77641
 C1230 C 0.12974 0.55969 0.78686
 H1231 H 0.09242 0.60589 0.70852
 H1232 H 0.11782 0.57957 0.73042
 H1233 H 0.08874 0.60500 0.79404
 H1234 H 0.06332 0.63134 0.77213
 C1235 C 0.04664 0.35417 0.28631
 C1236 C 0.06042 0.36561 0.27561
 C1237 C 0.07640 0.37992 0.26292
 C1238 C 0.07625 0.37971 0.23877
 C1239 C 0.09073 0.39471 0.22645
 C1240 C 0.10541 0.40998 0.23825
 C1241 C 0.10580 0.40993 0.26239
 C1242 C 0.09133 0.39493 0.27470
 C1243 C 0.11917 0.42647 0.22565
 C1244 C 0.13025 0.44074 0.21521
 H1245 H 0.06469 0.36826 0.22948
 H1246 H 0.09020 0.39469 0.20779
 H1247 H 0.11699 0.42175 0.27169
 H1248 H 0.09150 0.39532 0.29337
   
