data_POSCAR
  _audit_creation_date              2014-09-24
  _audit_creation_method            'ToBaCCo'
  _symmetry_space_group_name_H-M    'P1'
  _symmetry_Int_Tables_number       1
  _symmetry_cell_setting            triclinic
  loop_
  _symmetry_equiv_pos_as_xyz
 x,y,z
_cell_length_a 52.9929
_cell_length_b 53.8473
_cell_length_c 57.4897
_cell_angle_alpha 89.969300
_cell_angle_beta 89.940100
_cell_angle_gamma 89.925500
loop_
  _atom_site_label
  _atom_site_type_symbol
  _atom_site_fract_x
  _atom_site_fract_y
  _atom_site_fract_z
C1 C 0.26082 0.36147 0.02408
 C2 C 0.25884 0.36383 0.00046
 C3 C 0.26870 0.34223 -0.00912
 N4 N 0.27711 0.32697 0.00787
 C5 C 0.27221 0.33872 0.02816
 C6 C 0.26857 0.33622 -0.03309
 C7 C 0.28494 0.31780 -0.04226
 C8 C 0.28178 0.30593 -0.06347
 C9 C 0.30197 0.29016 -0.06620
 C10 C 0.31694 0.29274 -0.04657
 N11 N 0.30631 0.30945 -0.03194
 C12 C 0.34010 0.28019 -0.04273
 C13 C 0.35002 0.27714 -0.01999
 C14 C 0.37481 0.27084 -0.01482
 C15 C 0.37607 0.26776 0.00879
 C16 C 0.35216 0.27268 0.01735
 N17 N 0.33623 0.27852 -0.00022
 C18 C 0.34503 0.27041 0.04094
 C19 C 0.32303 0.28174 0.04990
 C20 C 0.31262 0.27725 0.07166
 C21 C 0.29312 0.29396 0.07446
 C22 C 0.29213 0.30794 0.05425
 N23 N 0.31038 0.30042 0.03943
 C24 C 0.27600 0.32830 0.05038
 H25 H 0.25457 0.37494 0.03682
 H26 H 0.25096 0.37964 -0.00862
 H27 H 0.31582 0.30955 0.02428
 H28 H 0.26636 0.30815 -0.07563
 H29 H 0.30507 0.27793 -0.08086
 H30 H 0.39041 0.26870 -0.02681
 H31 H 0.39275 0.26271 0.01857
 H32 H 0.28128 0.29584 0.08971
 H33 H 0.31443 0.31642 -0.01679
 H34 H 0.31875 0.26371 0.08438
 C35 C 0.72605 0.61479 -0.00889
 C36 C 0.72684 0.61632 0.01492
 C37 C 0.71867 0.63996 0.02075
 N38 N 0.71330 0.65308 0.00131
 C39 C 0.71798 0.63778 -0.01690
 C40 C 0.71750 0.64943 0.04366
 C41 C 0.70308 0.67061 0.04972
 C42 C 0.70459 0.68313 0.07075
 C43 C 0.68613 0.70119 0.07045
 C44 C 0.67385 0.69920 0.04925
 N45 N 0.68430 0.68050 0.03675
 C46 C 0.65257 0.71340 0.04245
 C47 C 0.64373 0.71404 0.01928
 C48 C 0.62050 0.72330 0.01230
 C49 C 0.62008 0.72209 -0.01154
 C50 C 0.64313 0.71227 -0.01828
 N51 N 0.65753 0.70737 0.00056
 C52 C 0.65139 0.70922 -0.04141
 C53 C 0.67355 0.69592 -0.04683
 C54 C 0.68674 0.69796 -0.06755
 C55 C 0.70489 0.67973 -0.06728
 C56 C 0.70202 0.66687 -0.04650
 N57 N 0.68322 0.67722 -0.03389
 C58 C 0.71492 0.64469 -0.04056
 H59 H 0.73050 0.59842 -0.01898
 H60 H 0.73233 0.60154 0.02665
 H61 H 0.67507 0.66965 -0.01899
 H62 H 0.71743 0.67944 0.08497
 H63 H 0.68205 0.71413 0.08436
 H64 H 0.60541 0.73019 0.02325
 H65 H 0.60464 0.72787 -0.02259
 H66 H 0.71823 0.67589 -0.08109
 H67 H 0.67728 0.67310 0.02136
 H68 H 0.68324 0.71088 -0.08162
 C69 C 0.63513 0.25943 0.99665
 C70 C 0.63523 0.26315 1.02021
 C71 C 0.64764 0.28542 1.02406
 N72 N 0.65496 0.29546 1.00359
 C73 C 0.64771 0.27942 0.98679
 C74 C 0.65013 0.29701 1.04600
 C75 C 0.66186 0.32033 1.04899
 C76 C 0.65744 0.33634 1.06741
 C77 C 0.67305 0.35636 1.06431
 C78 C 0.68760 0.35159 1.04471
 N79 N 0.68027 0.32973 1.03521
 C80 C 0.70792 0.36662 1.03670
 C81 C 0.71768 0.36402 1.01381
 C82 C 0.74082 0.37298 1.00623
 C83 C 0.74227 0.36813 0.98290
 C84 C 0.72034 0.35567 0.97702
 N85 N 0.70527 0.35324 0.99591
 C86 C 0.71382 0.34831 0.95421
 C87 C 0.69375 0.33193 0.94921
 C88 C 0.68454 0.32702 0.92713
 C89 C 0.66686 0.30853 0.92951
 C90 C 0.66569 0.30261 0.95300
 N91 N 0.68232 0.31687 0.96481
 C92 C 0.65097 0.28319 0.96259
 H93 H 0.62639 0.24391 0.98787
 H94 H 0.62640 0.25116 1.03294
 H95 H 0.68782 0.31450 0.98198
 H96 H 0.64423 0.33421 1.08158
 H97 H 0.67369 0.37249 1.07551
 H98 H 0.75527 0.38206 1.01643
 H99 H 0.75783 0.37316 0.97167
 H100 H 0.65654 0.30005 0.91537
 H101 H 0.68933 0.32029 1.02179
 H102 H 0.69037 0.33543 0.91089
 C103 C 0.39929 0.71175 0.98780
 C104 C 0.39783 0.71074 1.01155
 C105 C 0.37533 0.69885 1.01695
 N106 N 0.36331 0.69199 0.99724
 C107 C 0.37792 0.70003 0.97943
 C108 C 0.36514 0.69653 1.03967
 C109 C 0.34530 0.67971 1.04466
 C110 C 0.32897 0.68166 1.06343
 C111 C 0.31197 0.66252 1.06152
 C112 C 0.31853 0.64908 1.04180
 N113 N 0.33887 0.65978 1.03159
 C114 C 0.30575 0.62766 1.03349
 C115 C 0.30951 0.61885 1.01052
 C116 C 0.30420 0.59491 1.00304
 C117 C 0.30718 0.59484 0.97938
 C118 C 0.31441 0.61864 0.97320
 N119 N 0.31606 0.63329 0.99226
 C120 C 0.31648 0.62730 0.95010
 C121 C 0.32863 0.64982 0.94461
 C122 C 0.32662 0.66246 0.92368
 C123 C 0.34204 0.68297 0.92535
 C124 C 0.35300 0.68215 0.94724
 N125 N 0.34486 0.66182 0.95877
 C126 C 0.37103 0.69907 0.95576
 H127 H 0.41426 0.72029 0.97779
 H128 H 0.41156 0.71833 1.02352
 H129 H 0.35182 0.65523 0.97454
 H130 H 0.32872 0.69594 1.07667
 H131 H 0.29616 0.65939 1.07306
 H132 H 0.29827 0.57928 1.01355
 H133 H 0.30391 0.57920 0.96796
 H134 H 0.34489 0.69683 0.91197
 H135 H 0.34884 0.65299 1.01730
 H136 H 0.31522 0.65748 0.90879
 C137 C -0.00624 0.38872 0.28844
 C138 C 0.01948 0.38757 0.29048
 C139 C 0.02518 0.36366 0.29766
 N140 N 0.00384 0.35011 0.30004
 C141 C -0.01542 0.36537 0.29418
 C142 C 0.04988 0.35416 0.30007
 C143 C 0.05508 0.33163 0.31157
 C144 C 0.07770 0.31871 0.31043
 C145 C 0.07561 0.29899 0.32558
 C146 C 0.05181 0.30057 0.33552
 N147 N 0.03945 0.32047 0.32686
 C148 C 0.04268 0.28521 0.35351
 C149 C 0.01696 0.28481 0.35984
 C150 C 0.00772 0.27508 0.38043
 C151 C -0.01800 0.27684 0.37921
 C152 C -0.02366 0.28729 0.35774
 N153 N -0.00221 0.29240 0.34598
 C154 C -0.04835 0.29035 0.34870
 C155 C -0.05356 0.30681 0.33004
 C156 C -0.07486 0.30582 0.31609
 C157 C -0.07274 0.32473 0.30013
 C158 C -0.05030 0.33703 0.30487
 N159 N -0.03866 0.32585 0.32309
 C160 C -0.04105 0.35802 0.29250
 H161 H -0.01698 0.40489 0.28320
 H162 H 0.03251 0.40258 0.28699
 H163 H -0.02243 0.33200 0.33150
 H164 H 0.09410 0.32321 0.30002
 H165 H 0.09009 0.28532 0.32914
 H166 H 0.01840 0.26759 0.39486
 H167 H -0.03108 0.27098 0.39259
 H168 H -0.08603 0.32860 0.28632
 H169 H 0.02256 0.32779 0.33309
 H170 H -0.09008 0.29247 0.31694
 C171 C -0.00220 0.74825 0.64623
 C172 C 0.02353 0.74831 0.64878
 C173 C 0.03020 0.72450 0.65551
 N174 N 0.00954 0.70995 0.65733
 C175 C -0.01024 0.72433 0.65131
 C176 C 0.05502 0.71518 0.65638
 C177 C 0.06045 0.69322 0.66884
 C178 C 0.08221 0.67907 0.66687
 C179 C 0.07999 0.65993 0.68266
 C180 C 0.05675 0.66276 0.69353
 N181 N 0.04520 0.68326 0.68524
 C182 C 0.04730 0.64788 0.71179
 C183 C 0.02188 0.64919 0.71910
 C184 C 0.01272 0.64089 0.74030
 C185 C -0.01300 0.64306 0.73935
 C186 C -0.01891 0.65137 0.71716
 N187 N 0.00253 0.65568 0.70499
 C188 C -0.04353 0.65246 0.70743
 C189 C -0.04787 0.66642 0.68689
 C190 C -0.06653 0.66165 0.67061
 C191 C -0.06384 0.67903 0.65323
 C192 C -0.04381 0.69422 0.65951
 N193 N -0.03403 0.68617 0.67994
 C194 C -0.03452 0.71477 0.64660
 H195 H -0.01363 0.76365 0.64024
 H196 H 0.03601 0.76375 0.64525
 H197 H -0.01964 0.69464 0.68943
 H198 H 0.09804 0.68211 0.65533
 H199 H 0.09406 0.64576 0.68582
 H200 H 0.02321 0.63392 0.75502
 H201 H -0.02590 0.63831 0.75326
 H202 H -0.07496 0.67977 0.63748
 H203 H 0.02878 0.69123 0.69190
 H204 H -0.08008 0.64663 0.67078
 C205 C 0.98732 0.63530 0.25884
 C206 C 1.01246 0.63984 0.25511
 C207 C 1.02219 0.64842 0.27601
 N208 N 1.00368 0.64999 0.29215
 C209 C 0.98245 0.64179 0.28171
 C210 C 1.04805 0.65282 0.28077
 C211 C 1.05499 0.66797 0.29995
 C212 C 1.07841 0.66811 0.31075
 C213 C 1.07758 0.68619 0.32758
 C214 C 1.05340 0.69607 0.32721
 N215 N 1.03977 0.68492 0.31032
 C216 C 1.04496 0.71611 0.34105
 C217 C 1.01915 0.72143 0.34457
 C218 C 1.00971 0.74272 0.35497
 C219 C 0.98418 0.73930 0.35735
 C220 C 0.97895 0.71576 0.34890
 N221 N 1.00035 0.70496 0.34095
 C222 C 0.95540 0.70353 0.35057
 C223 C 0.95091 0.68073 0.33916
 C224 C 0.93200 0.66399 0.34482
 C225 C 0.93335 0.64504 0.32878
 C226 C 0.95289 0.65089 0.31369
 N227 N 0.96355 0.67259 0.32021
 C228 C 0.95952 0.63749 0.29348
 H229 H 0.97414 0.62787 0.24627
 H230 H 1.02252 0.63675 0.23897
 H231 H 0.97688 0.68259 0.31074
 H232 H 1.09451 0.65638 0.30708
 H233 H 1.09311 0.69129 0.33877
 H234 H 1.02006 0.75892 0.36063
 H235 H 0.97113 0.75247 0.36495
 H236 H 0.92116 0.62894 0.32821
 H237 H 1.02190 0.69031 0.30467
 H238 H 0.91866 0.66529 0.35903
 C239 C 0.98430 0.30521 0.58863
 C240 C 1.00976 0.30939 0.58732
 C241 C 1.01716 0.31850 0.60883
 N242 N 0.99695 0.32023 0.62317
 C243 C 0.97685 0.31202 0.61084
 C244 C 1.04240 0.32402 0.61521
 C245 C 1.04829 0.33812 0.63533
 C246 C 1.07175 0.33856 0.64612
 C247 C 1.07004 0.35501 0.66427
 C248 C 1.04552 0.36390 0.66436
 N249 N 1.03232 0.35355 0.64668
 C250 C 1.03621 0.38170 0.68021
 C251 C 1.01023 0.38473 0.68468
 C252 C 0.99990 0.40310 0.69862
 C253 C 0.97472 0.39773 0.70073
 C254 C 0.97049 0.37637 0.68785
 N255 N 0.99222 0.36845 0.67805
 C256 C 0.94744 0.36327 0.68725
 C257 C 0.94224 0.34399 0.67131
 C258 C 0.92153 0.32834 0.67248
 C259 C 0.92282 0.31296 0.65338
 C260 C 0.94431 0.31965 0.64111
 N261 N 0.95590 0.33872 0.65203
 C262 C 0.95221 0.30887 0.61988
 H263 H 0.97259 0.29795 0.57481
 H264 H 1.02151 0.30610 0.57222
 H265 H 0.97088 0.34904 0.64551
 H266 H 1.08839 0.32795 0.64158
 H267 H 1.08507 0.35959 0.67625
 H268 H 1.00960 0.41843 0.70685
 H269 H 0.96115 0.40813 0.71091
 H270 H 0.90947 0.29848 0.64907
 H271 H 1.01424 0.35852 0.64133
 H272 H 0.90694 0.32808 0.68567
 C273 C 0.28769 0.01130 0.38878
 C274 C 0.28731 -0.01406 0.38742
 C275 C 0.29861 -0.02041 0.36644
 N276 N 0.30626 0.00022 0.35511
 C277 C 0.29946 0.01960 0.36874
 C278 C 0.29942 -0.04476 0.35713
 C279 C 0.31570 -0.05138 0.33852
 C280 C 0.31273 -0.07215 0.32457
 C281 C 0.33138 -0.07120 0.30792
 C282 C 0.34563 -0.05006 0.31231
 N283 N 0.33591 -0.03813 0.33108
 C284 C 0.36683 -0.04212 0.29899
 C285 C 0.37691 -0.01781 0.30120
 C286 C 0.40114 -0.01091 0.29466
 C287 C 0.40270 0.01430 0.29747
 C288 C 0.37946 0.02198 0.30580
 N289 N 0.36371 0.00234 0.30821
 C290 C 0.37239 0.04699 0.30925
 C291 C 0.35003 0.05371 0.32085
 C292 C 0.33852 0.07682 0.31965
 C293 C 0.31834 0.07616 0.33469
 C294 C 0.31829 0.05271 0.34469
 N295 N 0.33765 0.03917 0.33616
 C296 C 0.30174 0.04477 0.36234
 H297 H 0.27999 0.02239 0.40279
 H298 H 0.27920 -0.02645 0.40024
 H299 H 0.34387 0.02206 0.34236
 H300 H 0.29809 -0.08609 0.32572
 H301 H 0.33366 -0.08431 0.29382
 H302 H 0.41611 -0.02284 0.28833
 H303 H 0.41899 0.02570 0.29363
 H304 H 0.30539 0.09129 0.33806
 H305 H 0.34351 -0.02260 0.33924
 H306 H 0.34417 0.09255 0.30914
 C307 C 0.64043 -0.00181 0.73058
 C308 C 0.63665 0.02323 0.72837
 C309 C 0.64528 0.02973 0.70646
 N310 N 0.65350 0.00934 0.69494
 C311 C 0.65021 -0.01011 0.70955
 C312 C 0.64392 0.05385 0.69691
 C313 C 0.65865 0.06176 0.67780
 C314 C 0.65688 0.08496 0.66746
 C315 C 0.67600 0.08638 0.65137
 C316 C 0.68876 0.06384 0.65197
 N317 N 0.67823 0.04913 0.66841
 C318 C 0.71035 0.05793 0.63847
 C319 C 0.72008 0.03351 0.63620
 C320 C 0.74115 0.02718 0.62313
 C321 C 0.74338 0.00187 0.62420
 C322 C 0.72358 -0.00658 0.63784
 N323 N 0.70920 0.01276 0.64491
 C324 C 0.71796 -0.03188 0.64186
 C325 C 0.69788 -0.04003 0.65619
 C326 C 0.68767 -0.06371 0.65572
 C327 C 0.66959 -0.06459 0.67279
 C328 C 0.66972 -0.04169 0.68389
 N329 N 0.68687 -0.02670 0.67343
 C330 C 0.65475 -0.03536 0.70359
 H331 H 0.63627 -0.01264 0.74597
 H332 H 0.62877 0.03522 0.74160
 H333 H 0.69272 -0.00941 0.67939
 H334 H 0.64375 0.09972 0.67161
 H335 H 0.68011 0.10248 0.64080
 H336 H 0.75336 0.03934 0.61327
 H337 H 0.75760 -0.00903 0.61534
 H338 H 0.65770 -0.08042 0.67653
 H339 H 0.68563 0.03260 0.67470
 H340 H 0.69253 -0.07888 0.64424
 C341 C 0.29507 1.00364 0.60427
 C342 C 0.29703 0.97828 0.60489
 C343 C 0.30292 0.97202 0.62761
 N344 N 0.30480 0.99268 0.64090
 C345 C 0.29974 1.01203 0.62668
 C346 C 0.30430 0.94754 0.63633
 C347 C 0.31508 0.94225 0.65814
 C348 C 0.31187 0.92047 0.67068
 C349 C 0.32702 0.92235 0.69008
 C350 C 0.33907 0.94514 0.68862
 N351 N 0.33168 0.95710 0.66915
 C352 C 0.35795 0.95373 0.70379
 C353 C 0.36692 0.97831 0.70302
 C354 C 0.39007 0.98589 0.71148
 C355 C 0.39081 1.01115 0.70884
 C356 C 0.36764 1.01826 0.69963
 N357 N 0.35322 0.99802 0.69567
 C358 C 0.35914 1.04308 0.69679
 C359 C 0.33845 1.04850 0.68193
 C360 C 0.32297 1.06921 0.68364
 C361 C 0.30536 1.06737 0.66614
 C362 C 0.31064 1.04569 0.65401
 N363 N 0.33070 1.03418 0.66394
 C364 C 0.29733 1.03698 0.63416
 H365 H 0.29051 1.01470 0.58911
 H366 H 0.29421 0.96587 0.59032
 H367 H 0.33988 1.01839 0.65770
 H368 H 0.30003 0.90482 0.66623
 H369 H 0.32927 0.90837 0.70345
 H370 H 0.40490 0.97435 0.71863
 H371 H 0.40651 1.02296 0.71350
 H372 H 0.29013 1.08035 0.66305
 H373 H 0.33969 0.97319 0.66234
 H374 H 0.32385 1.08382 0.69654
 C375 C 0.60578 1.00842 0.28704
 C376 C 0.60273 0.98335 0.29037
 C377 C 0.62392 0.97522 0.30223
 N378 N 0.63978 0.99441 0.30627
 C379 C 0.62871 1.01474 0.29705
 C380 C 0.62925 0.95024 0.30780
 C381 C 0.65014 0.94329 0.32147
 C382 C 0.66027 0.91956 0.32248
 C383 C 0.67893 0.92012 0.33906
 C384 C 0.67946 0.94412 0.34780
 N385 N 0.66198 0.95816 0.33688
 C386 C 0.69395 0.95191 0.36698
 C387 C 0.69764 0.97718 0.37241
 C388 C 0.70678 0.98586 0.39343
 C389 C 0.70870 1.01111 0.39126
 C390 C 0.70106 1.01703 0.36881
 N391 N 0.69409 0.99621 0.35737
 C392 C 0.70168 1.04118 0.35891
 C393 C 0.68803 1.04708 0.33837
 C394 C 0.69260 1.06748 0.32421
 C395 C 0.67535 1.06655 0.30637
 C396 C 0.66071 1.04557 0.30999
 N397 N 0.66853 1.03382 0.32955
 C398 C 0.63996 1.03851 0.29595
 H399 H 0.59268 1.02058 0.27815
 H400 H 0.58690 0.97235 0.28450
 H401 H 0.65961 1.01890 0.33759
 H402 H 0.65460 0.90347 0.31251
 H403 H 0.69038 0.90448 0.34443
 H404 H 0.71135 0.97514 0.40879
 H405 H 0.71495 1.02369 0.40474
 H406 H 0.67387 1.07978 0.29226
 H407 H 0.65620 0.97585 0.34185
 H408 H 0.70709 1.08144 0.32632
 O409 O 0.86244 0.81668 0.48617
 O410 O 0.81948 0.85125 0.52450
 O411 O 0.85198 0.81553 0.52946
 O412 O 0.82989 0.85274 0.48019
 O413 O 0.79963 0.82547 0.47369
 O414 O 0.82154 0.78821 0.52360
 O415 O 0.78911 0.82426 0.51736
 O416 O 0.83242 0.78929 0.47903
 Cu417 Cu 0.84389 0.83690 0.50567
 Cu418 Cu 0.80771 0.80394 0.49769
 C419 C 0.85497 0.79686 0.47646
 C420 C 0.79694 0.84383 0.52733
 C421 C 0.84083 0.79549 0.53476
 C422 C 0.81070 0.84571 0.46877
 O423 O 0.20024 0.16107 0.52077
 O424 O 0.16627 0.19525 0.47451
 O425 O 0.20336 0.16380 0.47573
 O426 O 0.16047 0.18953 0.51894
 O427 O 0.18513 0.22216 0.52333
 O428 O 0.22989 0.19491 0.48062
 O429 O 0.19247 0.22668 0.47901
 O430 O 0.22525 0.19333 0.52572
 Cu431 Cu 0.18010 0.17422 0.49706
 Cu432 Cu 0.21078 0.21242 0.50272
 C433 C 0.21873 0.17140 0.53105
 C434 C 0.17357 0.21698 0.46899
 C435 C 0.22392 0.17457 0.47078
 C436 C 0.16492 0.21043 0.52814
 O437 O 0.18997 0.84304 0.46746
 O438 O 0.14516 0.81521 0.50874
 O439 O 0.17868 0.85053 0.51119
 O440 O 0.15534 0.80952 0.46534
 O441 O 0.18217 0.78038 0.47634
 O442 O 0.20846 0.82348 0.52001
 O443 O 0.17445 0.78870 0.52027
 O444 O 0.21804 0.81422 0.47612
 Cu445 Cu 0.16456 0.83251 0.48728
 Cu446 Cu 0.19879 0.79893 0.49909
 C447 C 0.21150 0.83316 0.46435
 C448 C 0.15213 0.79721 0.52152
 C449 C 0.19759 0.84423 0.52336
 C450 C 0.16418 0.78773 0.46341
 O451 O 0.78736 0.17732 0.46583
 O452 O 0.82171 0.21419 0.50932
 O453 O 0.78754 0.17940 0.51096
 O454 O 0.82064 0.21240 0.46411
 O455 O 0.79101 0.24122 0.46362
 O456 O 0.75656 0.20681 0.50912
 O457 O 0.79131 0.24218 0.50899
 O458 O 0.75752 0.20587 0.46416
 Cu459 Cu 0.80734 0.19307 0.48772
 Cu460 Cu 0.77110 0.22693 0.48656
 C461 C 0.76666 0.18522 0.45746
 C462 C 0.81256 0.23460 0.51650
 C463 C 0.76602 0.18706 0.51751
 C464 C 0.81161 0.23241 0.45585
 O465 O 0.47609 0.84763 0.81298
 O466 O 0.52762 0.83200 0.85308
 O467 O 0.52126 0.86328 0.81845
 O468 O 0.48181 0.81600 0.84660
 O469 O 0.49482 0.78803 0.82126
 O470 O 0.53669 0.83492 0.79459
 O471 O 0.54057 0.80281 0.82891
 O472 O 0.49062 0.82052 0.78749
 Cu473 Cu 0.50043 0.84248 0.83538
 Cu474 Cu 0.51716 0.80873 0.80560
 C475 C 0.47491 0.83734 0.79314
 C476 C 0.54247 0.81424 0.84815
 C477 C 0.53527 0.85732 0.80141
 C478 C 0.48138 0.79397 0.83872
 O479 O 0.53300 0.20203 0.16213
 O480 O 0.48613 0.15915 0.18578
 O481 O 0.48445 0.19642 0.15741
 O482 O 0.53377 0.16632 0.19315
 O483 O 0.52675 0.19367 0.22095
 O484 O 0.47621 0.22204 0.18641
 O485 O 0.47902 0.18464 0.21514
 O486 O 0.52394 0.22949 0.18944
 Cu487 Cu 0.51029 0.17841 0.17178
 Cu488 Cu 0.50088 0.21006 0.20593
 C489 C 0.53578 0.22336 0.17107
 C490 C 0.47475 0.16430 0.20458
 C491 C 0.47187 0.21441 0.16593
 C492 C 0.53834 0.17467 0.21341
 O493 O 0.52981 0.14188 0.82856
 O494 O 0.47640 0.16110 0.86453
 O495 O 0.48179 0.13034 0.83026
 O496 O 0.52331 0.17418 0.86114
 O497 O 0.51354 0.20325 0.83556
 O498 O 0.47209 0.15949 0.80481
 O499 O 0.46659 0.19049 0.83934
 O500 O 0.52007 0.17028 0.80229
 Cu501 Cu 0.50378 0.14889 0.84858
 Cu502 Cu 0.49218 0.18377 0.81785
 C503 C 0.53418 0.15274 0.80943
 C504 C 0.46251 0.17915 0.85841
 C505 C 0.46961 0.13750 0.81241
 C506 C 0.52526 0.19633 0.85370
 O507 O 0.51981 0.83350 0.18758
 O508 O 0.47012 0.79502 0.16281
 O509 O 0.47157 0.82988 0.19459
 O510 O 0.51913 0.79632 0.15919
 O511 O 0.52399 0.76945 0.18784
 O512 O 0.47580 0.80181 0.22226
 O513 O 0.47510 0.76692 0.19033
 O514 O 0.52422 0.80724 0.21681
 Cu515 Cu 0.49453 0.81632 0.17324
 Cu516 Cu 0.50023 0.78365 0.20714
 C517 C 0.53039 0.82726 0.20643
 C518 C 0.46436 0.77426 0.17173
 C519 C 0.46577 0.82161 0.21466
 C520 C 0.52969 0.77707 0.16762
 O521 O 0.81489 0.46883 0.84389
 O522 O 0.86020 0.51114 0.81650
 O523 O 0.83033 0.51369 0.85297
 O524 O 0.84442 0.46697 0.80800
 O525 O 0.81453 0.48263 0.78565
 O526 O 0.79981 0.52868 0.83098
 O527 O 0.83002 0.52721 0.79474
 O528 O 0.78439 0.48411 0.82199
 Cu529 Cu 0.84046 0.48874 0.83264
 Cu530 Cu 0.80412 0.50723 0.80616
 C531 C 0.79190 0.46925 0.83773
 C532 C 0.85312 0.52591 0.80056
 C533 C 0.81226 0.52888 0.84985
 C534 C 0.83229 0.46714 0.78895
 O535 O 0.19277 0.46996 0.14725
 O536 O 0.15025 0.51680 0.17178
 O537 O 0.19175 0.51887 0.14563
 O538 O 0.15274 0.46984 0.17128
 O539 O 0.17563 0.47134 0.20331
 O540 O 0.21550 0.52018 0.17705
 O541 O 0.17438 0.51963 0.20300
 O542 O 0.21686 0.47181 0.17854
 Cu543 Cu 0.16987 0.49430 0.15553
 Cu544 Cu 0.19801 0.49610 0.19363
 C545 C 0.21161 0.46236 0.15889
 C546 C 0.15449 0.52540 0.19194
 C547 C 0.21057 0.52756 0.15656
 C548 C 0.15740 0.46222 0.19172
 O549 O 0.83148 0.47537 0.20021
 O550 O 0.79882 0.52450 0.16712
 O551 O 0.83124 0.52324 0.20120
 O552 O 0.79952 0.47651 0.16557
 O553 O 0.76911 0.47350 0.19175
 O554 O 0.79877 0.52425 0.22532
 O555 O 0.76642 0.52194 0.19111
 O556 O 0.80095 0.47580 0.22631
 Cu557 Cu 0.81840 0.49999 0.18100
 Cu558 Cu 0.78062 0.49877 0.21115
 C559 C 0.82211 0.46760 0.21924
 C560 C 0.77678 0.53126 0.17318
 C561 C 0.82047 0.53185 0.21917
 C562 C 0.77908 0.46687 0.17261
 O563 O 0.16887 0.51126 0.86716
 O564 O 0.13272 0.46829 0.83104
 O565 O 0.16961 0.46358 0.86072
 O566 O 0.13414 0.51645 0.83648
 O567 O 0.16221 0.51945 0.80815
 O568 O 0.19791 0.46729 0.83279
 O569 O 0.16067 0.47184 0.80275
 O570 O 0.19748 0.51532 0.83951
 Cu571 Cu 0.14849 0.48936 0.85160
 Cu572 Cu 0.18248 0.49370 0.81801
 C573 C 0.18908 0.52093 0.85959
 C574 C 0.14017 0.46291 0.81068
 C575 C 0.19004 0.45662 0.85109
 C576 C 0.14228 0.52696 0.81816
 C577 C 0.27386 0.35546 0.08556
 C578 C 0.25950 0.37071 0.10035
 C579 C 0.23283 0.36925 0.09976
 C580 C 0.22105 0.35169 0.08546
 C581 C 0.23544 0.33691 0.07059
 C582 C 0.26178 0.33927 0.07003
 C583 C 0.21830 0.38618 0.11253
 C584 C 0.23004 0.40478 0.12563
 C585 C 0.25666 0.40551 0.12728
 C586 C 0.27125 0.38836 0.11468
 C587 C 0.26817 0.42393 0.14092
 C588 C 0.25348 0.44202 0.15202
 C589 C 0.22716 0.44214 0.14931
 C590 C 0.21554 0.42318 0.13650
 H591 H 0.29421 0.35740 0.08490
 H592 H 0.20066 0.35023 0.08493
 H593 H 0.22598 0.32457 0.05856
 H594 H 0.19787 0.38548 0.11153
 H595 H 0.29168 0.38936 0.11535
 H596 H 0.28852 0.42465 0.14258
 H597 H 0.26271 0.45646 0.16196
 H598 H 0.19516 0.42300 0.13472
 C599 C 0.72012 0.62488 0.08081
 C600 C 0.73395 0.61034 0.09665
 C601 C 0.76030 0.60745 0.09360
 C602 C 0.77245 0.61966 0.07520
 C603 C 0.75856 0.63398 0.05951
 C604 C 0.73231 0.63637 0.06195
 C605 C 0.77401 0.59199 0.10865
 C606 C 0.76173 0.57923 0.12666
 C607 C 0.73551 0.58258 0.13010
 C608 C 0.72180 0.59815 0.11510
 C609 C 0.72338 0.56994 0.14826
 C610 C 0.73693 0.55372 0.16257
 C611 C 0.76287 0.54971 0.15894
 C612 C 0.77519 0.56281 0.14106
 H613 H 0.69983 0.62662 0.08265
 H614 H 0.79263 0.61775 0.07266
 H615 H 0.76820 0.64278 0.04508
 H616 H 0.79414 0.58954 0.10607
 H617 H 0.70163 0.60043 0.11755
 H618 H 0.70333 0.57235 0.15122
 H619 H 0.72696 0.54390 0.17620
 H620 H 0.79521 0.56004 0.13815
 C621 C 0.71907 0.37923 0.92213
 C622 C 0.73410 0.39111 0.90537
 C623 C 0.75897 0.38253 0.90127
 C624 C 0.76789 0.36151 0.91312
 C625 C 0.75271 0.34969 0.92961
 C626 C 0.72854 0.35886 0.93462
 C627 C 0.77474 0.39551 0.88592
 C628 C 0.76599 0.41694 0.87462
 C629 C 0.74076 0.42480 0.87780
 C630 C 0.72495 0.41183 0.89318
 C631 C 0.73199 0.44594 0.86602
 C632 C 0.74836 0.45978 0.85201
 C633 C 0.77380 0.45284 0.84977
 C634 C 0.78234 0.43107 0.86072
 H635 H 0.70032 0.38620 0.92600
 H636 H 0.78680 0.35457 0.91004
 H637 H 0.76012 0.33391 0.93912
 H638 H 0.79401 0.38930 0.88324
 H639 H 0.70579 0.41823 0.89609
 H640 H 0.71265 0.45212 0.86809
 H641 H 0.74139 0.47652 0.84374
 H642 H 0.80189 0.42543 0.85886
 C643 C 0.27737 0.60863 0.93353
 C644 C 0.26490 0.59364 0.91733
 C645 C 0.27838 0.58345 0.89835
 C646 C 0.30420 0.58877 0.89588
 C647 C 0.31661 0.60345 0.91239
 C648 C 0.30333 0.61318 0.93147
 C649 C 0.26592 0.56781 0.88251
 C650 C 0.24030 0.56191 0.88573
 C651 C 0.22700 0.57227 0.90477
 C652 C 0.23929 0.58822 0.92025
 C653 C 0.20165 0.56620 0.90833
 C654 C 0.18956 0.54966 0.89348
 C655 C 0.20244 0.53900 0.87455
 C656 C 0.22782 0.54547 0.87055
 H657 H 0.26707 0.61628 0.94818
 H658 H 0.31487 0.58118 0.88145
 H659 H 0.33666 0.60683 0.91057
 H660 H 0.27624 0.55987 0.86800
 H661 H 0.22903 0.59600 0.93489
 H662 H 0.19121 0.57401 0.92282
 H663 H 0.16997 0.54520 0.89685
 H664 H 0.23796 0.53732 0.85605
 C665 C 0.08089 0.27968 0.37871
 C666 C 0.09654 0.26479 0.39264
 C667 C 0.09183 0.23900 0.39444
 C668 C 0.07201 0.22844 0.38171
 C669 C 0.05656 0.24339 0.36786
 C670 C 0.06061 0.26912 0.36655
 C671 C 0.10669 0.22429 0.40924
 C672 C 0.12617 0.23504 0.42232
 C673 C 0.13128 0.26071 0.42000
 C674 C 0.11647 0.27540 0.40518
 C675 C 0.15089 0.27138 0.43286
 C676 C 0.16495 0.25695 0.44831
 C677 C 0.15964 0.23155 0.45130
 C678 C 0.14035 0.22064 0.43798
 H679 H 0.08400 0.29955 0.37780
 H680 H 0.06820 0.20871 0.38276
 H681 H 0.04105 0.23497 0.35848
 H682 H 0.10283 0.20458 0.41086
 H683 H 0.12019 0.29514 0.40370
 H684 H 0.15514 0.29098 0.43122
 H685 H 0.17968 0.26586 0.45831
 H686 H 0.13615 0.20107 0.44002
 C687 C 0.06907 0.73244 0.61801
 C688 C 0.08686 0.74403 0.60365
 C689 C 0.11121 0.74933 0.61232
 C690 C 0.11695 0.74365 0.63557
 C691 C 0.09871 0.73288 0.65006
 C692 C 0.07467 0.72700 0.64138
 C693 C 0.12924 0.76037 0.59765
 C694 C 0.12289 0.76689 0.57470
 C695 C 0.09814 0.76244 0.56647
 C696 C 0.08048 0.75065 0.58083
 C697 C 0.09136 0.76999 0.54400
 C698 C 0.10892 0.78180 0.52971
 C699 C 0.13373 0.78563 0.53737
 C700 C 0.14072 0.77805 0.55986
 H701 H 0.05066 0.72778 0.61106
 H702 H 0.13543 0.74777 0.64261
 H703 H 0.10337 0.72908 0.66805
 H704 H 0.14806 0.76415 0.60416
 H705 H 0.06163 0.74695 0.57436
 H706 H 0.07244 0.76688 0.53752
 H707 H 0.10328 0.78744 0.51238
 H708 H 0.15982 0.78125 0.56590
 C709 C 0.94009 0.72135 0.38856
 C710 C 0.92158 0.73331 0.40197
 C711 C 0.89718 0.73714 0.39268
 C712 C 0.89190 0.72924 0.36995
 C713 C 0.91077 0.71825 0.35638
 C714 C 0.93507 0.71437 0.36547
 C715 C 0.87869 0.74926 0.40605
 C716 C 0.88460 0.75849 0.42823
 C717 C 0.90925 0.75516 0.43721
 C718 C 0.92737 0.74215 0.42425
 C719 C 0.91557 0.76537 0.45883
 C720 C 0.89781 0.77906 0.47135
 C721 C 0.87320 0.78218 0.46282
 C722 C 0.86652 0.77156 0.44138
 H723 H 0.95868 0.71811 0.39582
 H724 H 0.87336 0.73209 0.36248
 H725 H 0.90650 0.71300 0.33863
 H726 H 0.85994 0.75208 0.39897
 H727 H 0.94620 0.73953 0.43124
 H728 H 0.93438 0.76310 0.46591
 H729 H 0.90319 0.78701 0.48792
 H730 H 0.84759 0.77416 0.43466
 C731 C 0.91142 0.30158 0.59841
 C732 C 0.89535 0.28618 0.58533
 C733 C 0.90244 0.26127 0.58094
 C734 C 0.92508 0.25203 0.59012
 C735 C 0.94087 0.26742 0.60312
 C736 C 0.93440 0.29236 0.60709
 C737 C 0.88697 0.24605 0.56722
 C738 C 0.86450 0.25538 0.55771
 C739 C 0.85710 0.28010 0.56246
 C740 C 0.87255 0.29534 0.57626
 C741 C 0.83451 0.28924 0.55301
 C742 C 0.81970 0.27426 0.53858
 C743 C 0.82719 0.24985 0.53325
 C744 C 0.84954 0.24047 0.54318
 H745 H 0.90635 0.32081 0.60150
 H746 H 0.93072 0.23296 0.58704
 H747 H 0.95840 0.25998 0.60987
 H748 H 0.89261 0.22705 0.56367
 H749 H 0.86700 0.31439 0.57968
 H750 H 0.82846 0.30810 0.55653
 H751 H 0.80262 0.28198 0.53118
 H752 H 0.85554 0.22166 0.53934
 C753 C 0.39239 0.06860 0.27543
 C754 C 0.40691 0.08793 0.26608
 C755 C 0.41749 0.10602 0.28101
 C756 C 0.41340 0.10438 0.30506
 C757 C 0.39897 0.08501 0.31423
 C758 C 0.38841 0.06704 0.29950
 C759 C 0.43204 0.12535 0.27166
 C760 C 0.43641 0.12665 0.24762
 C761 C 0.42586 0.10848 0.23275
 C762 C 0.41104 0.08937 0.24205
 C763 C 0.43062 0.10949 0.20881
 C764 C 0.44616 0.12798 0.19970
 C765 C 0.45690 0.14603 0.21429
 C766 C 0.45161 0.14551 0.23823
 H767 H 0.38404 0.05482 0.26406
 H768 H 0.42135 0.11805 0.31677
 H769 H 0.39593 0.08403 0.33284
 H770 H 0.44019 0.13920 0.28311
 H771 H 0.40299 0.07545 0.23062
 H772 H 0.42268 0.09574 0.19718
 H773 H 0.44991 0.12807 0.18117
 H774 H 0.46003 0.15922 0.24963
 C775 C 0.63021 0.08345 0.72815
 C776 C 0.61157 0.09827 0.73859
 C777 C 0.58816 0.10189 0.72722
 C778 C 0.58390 0.09075 0.70554
 C779 C 0.60228 0.07545 0.69562
 C780 C 0.62535 0.07147 0.70698
 C781 C 0.56909 0.11583 0.73806
 C782 C 0.57273 0.12531 0.76053
 C783 C 0.59615 0.12163 0.77188
 C784 C 0.61558 0.10864 0.76062
 C785 C 0.59940 0.13007 0.79473
 C786 C 0.57929 0.14098 0.80663
 C787 C 0.55593 0.14443 0.79563
 C788 C 0.55290 0.13725 0.77235
 H789 H 0.64809 0.08037 0.73684
 H790 H 0.56611 0.09330 0.69658
 H791 H 0.59842 0.06637 0.67920
 H792 H 0.55109 0.11841 0.72942
 H793 H 0.63344 0.10567 0.76943
 H794 H 0.61716 0.12736 0.80370
 H795 H 0.58180 0.14637 0.82463
 H796 H 0.53469 0.13952 0.76402
 C797 C 0.38280 0.91587 0.71506
 C798 C 0.39526 0.90164 0.73204
 C799 C 0.39315 0.90837 0.75577
 C800 C 0.37816 0.92869 0.76218
 C801 C 0.36613 0.94286 0.74520
 C802 C 0.36868 0.93682 0.72158
 C803 C 0.40677 0.89528 0.77265
 C804 C 0.42298 0.87593 0.76612
 C805 C 0.42463 0.86869 0.74254
 C806 C 0.41053 0.88143 0.72564
 C807 C 0.44110 0.84942 0.73619
 C808 C 0.45669 0.83832 0.75285
 C809 C 0.45594 0.84618 0.77616
 C810 C 0.43840 0.86448 0.78275
 H811 H 0.38486 0.91132 0.69679
 H812 H 0.37630 0.93403 0.78028
 H813 H 0.35523 0.95897 0.75041
 H814 H 0.40548 0.90077 0.79077
 H815 H 0.41213 0.87620 0.70748
 H816 H 0.44253 0.84351 0.71822
 H817 H 0.46998 0.82421 0.74731
 H818 H 0.43751 0.87065 0.80068
 C819 C 0.61222 0.92518 0.27466
 C820 C 0.59758 0.90550 0.26610
 C821 C 0.58335 0.89072 0.28168
 C822 C 0.58409 0.89588 0.30558
 C823 C 0.59877 0.91546 0.31395
 C824 C 0.61284 0.93023 0.29857
 C825 C 0.56852 0.87116 0.27312
 C826 C 0.56749 0.86638 0.24915
 C827 C 0.58184 0.88115 0.23364
 C828 C 0.59692 0.90044 0.24222
 C829 C 0.58043 0.87678 0.20967
 C830 C 0.56426 0.85859 0.20104
 C831 C 0.54960 0.84407 0.21620
 C832 C 0.55173 0.84761 0.24032
 H833 H 0.62333 0.93645 0.26284
 H834 H 0.57336 0.88476 0.31779
 H835 H 0.59928 0.91908 0.33247
 H836 H 0.55750 0.85994 0.28506
 H837 H 0.60781 0.91178 0.23027
 H838 H 0.59131 0.88788 0.19756
 H839 H 0.56291 0.85610 0.18238
 H840 H 0.54021 0.83668 0.25207
 C841 C 0.36355 0.24570 0.93957
 C842 C 0.37861 0.23613 0.92168
 C843 C 0.38334 0.25055 0.90161
 C844 C 0.37211 0.27404 0.89951
 C845 C 0.35720 0.28355 0.91753
 C846 C 0.35332 0.26981 0.93810
 C847 C 0.39965 0.24149 0.88430
 C848 C 0.41152 0.21833 0.88704
 C849 C 0.40616 0.20371 0.90690
 C850 C 0.38959 0.21260 0.92395
 C851 C 0.41803 0.18070 0.90977
 C852 C 0.43578 0.17255 0.89359
 C853 C 0.44191 0.18715 0.87411
 C854 C 0.42925 0.20984 0.87065
 H855 H 0.35994 0.23440 0.95484
 H856 H 0.37539 0.28534 0.88420
 H857 H 0.34971 0.30219 0.91581
 H858 H 0.40362 0.25271 0.86906
 H859 H 0.38584 0.20150 0.93933
 H860 H 0.41402 0.16923 0.92482
 H861 H 0.44506 0.15491 0.89660
 H862 H 0.43382 0.22127 0.85570
 C863 C 0.63018 0.74498 0.93811
 C864 C 0.61563 0.75438 0.91967
 C865 C 0.60751 0.73821 0.90179
 C866 C 0.61387 0.71298 0.90271
 C867 C 0.62796 0.70373 0.92127
 C868 C 0.63622 0.71958 0.93909
 C869 C 0.59286 0.74740 0.88343
 C870 C 0.58563 0.77244 0.88297
 C871 C 0.59352 0.78862 0.90091
 C872 C 0.60876 0.77956 0.91900
 C873 C 0.58551 0.81346 0.90071
 C874 C 0.56930 0.82200 0.88326
 C875 C 0.56130 0.80600 0.86544
 C876 C 0.56995 0.78134 0.86518
 H877 H 0.63668 0.75729 0.95176
 H878 H 0.60774 0.70033 0.88919
 H879 H 0.63242 0.68410 0.92179
 H880 H 0.58663 0.73496 0.86976
 H881 H 0.61481 0.79196 0.93277
 H882 H 0.59131 0.82613 0.91432
 H883 H 0.56283 0.84108 0.88380
 H884 H 0.56360 0.76876 0.85169
 C885 C 0.38116 0.70410 0.07931
 C886 C 0.39252 0.72020 0.09551
 C887 C 0.39536 0.74564 0.08992
 C888 C 0.38642 0.75469 0.06867
 C889 C 0.37592 0.73854 0.05247
 C890 C 0.37373 0.71296 0.05723
 C891 C 0.40794 0.76155 0.10523
 C892 C 0.41863 0.75227 0.12572
 C893 C 0.41557 0.72700 0.13169
 C894 C 0.40216 0.71115 0.11669
 C895 C 0.42682 0.71793 0.15213
 C896 C 0.44193 0.73347 0.16586
 C897 C 0.44580 0.75839 0.15948
 C898 C 0.43336 0.76776 0.13974
 H899 H 0.37964 0.68447 0.08326
 H900 H 0.38822 0.77418 0.06427
 H901 H 0.36955 0.74608 0.03601
 H902 H 0.41035 0.78096 0.10070
 H903 H 0.40010 0.69166 0.12105
 H904 H 0.42463 0.69864 0.15708
 H905 H 0.45124 0.72578 0.18100
 H906 H 0.43600 0.78698 0.13464
 C907 C 0.61816 0.29218 0.07818
 C908 C 0.60822 0.27866 0.09697
 C909 C 0.61958 0.25591 0.10354
 C910 C 0.64155 0.24789 0.09224
 C911 C 0.65184 0.26192 0.07418
 C912 C 0.64001 0.28386 0.06673
 C913 C 0.60848 0.24127 0.12089
 C914 C 0.58642 0.24927 0.13209
 C915 C 0.57608 0.27283 0.12675
 C916 C 0.58691 0.28729 0.10905
 C917 C 0.55456 0.28111 0.13870
 C918 C 0.54252 0.26559 0.15474
 C919 C 0.55164 0.24150 0.15877
 C920 C 0.57398 0.23368 0.14790
 H921 H 0.60877 0.30891 0.07225
 H922 H 0.65063 0.23064 0.09719
 H923 H 0.66869 0.25529 0.06546
 H924 H 0.61669 0.22342 0.12534
 H925 H 0.57850 0.30498 0.10439
 H926 H 0.54653 0.29921 0.13504
 H927 H 0.52516 0.27180 0.16286
 H928 H 0.58108 0.21508 0.15107
 C929 C 0.28738 0.07747 0.61594
 C930 C 0.27144 0.09220 0.60203
 C931 C 0.24825 0.08245 0.59406
 C932 C 0.24103 0.05848 0.60060
 C933 C 0.25695 0.04394 0.61427
 C934 C 0.28060 0.05291 0.62180
 C935 C 0.23282 0.09658 0.57929
 C936 C 0.24035 0.12033 0.57217
 C937 C 0.26326 0.13037 0.58053
 C938 C 0.27863 0.11629 0.59545
 C939 C 0.27063 0.15419 0.57347
 C940 C 0.25581 0.16769 0.55784
 C941 C 0.23331 0.15764 0.54891
 C942 C 0.22554 0.13401 0.55643
 H943 H 0.30561 0.08469 0.62112
 H944 H 0.22318 0.05082 0.59489
 H945 H 0.25066 0.02548 0.61904
 H946 H 0.21519 0.08889 0.57299
 H947 H 0.29635 0.12389 0.60159
 H948 H 0.28807 0.16224 0.57976
 H949 H 0.26227 0.18585 0.55239
 H950 H 0.20821 0.12606 0.54978
 C951 C 0.70760 0.08333 0.37477
 C952 C 0.72201 0.10021 0.38791
 C953 C 0.74660 0.09352 0.39515
 C954 C 0.75660 0.07046 0.38875
 C955 C 0.74202 0.05363 0.37621
 C956 C 0.71712 0.05949 0.36953
 C957 C 0.76059 0.10965 0.40924
 C958 C 0.75017 0.13222 0.41667
 C959 C 0.72576 0.13920 0.40920
 C960 C 0.71191 0.12325 0.39468
 C961 C 0.71544 0.16178 0.41684
 C962 C 0.72890 0.17698 0.43217
 C963 C 0.75296 0.16993 0.44012
 C964 C 0.76359 0.14762 0.43196
 H965 H 0.68843 0.08815 0.36994
 H966 H 0.77551 0.06516 0.39395
 H967 H 0.75020 0.03578 0.37181
 H968 H 0.77934 0.10431 0.41496
 H969 H 0.69306 0.12847 0.38918
 H970 H 0.69680 0.16750 0.41126
 H971 H 0.72026 0.19408 0.43811
 H972 H 0.78216 0.14196 0.43783
 C973 C 0.72467 0.93629 0.61051
 C974 C 0.74025 0.91937 0.59868
 C975 C 0.76552 0.91599 0.60598
 C976 C 0.77442 0.92876 0.62557
 C977 C 0.75859 0.94506 0.63758
 C978 C 0.73379 0.94919 0.62997
 C979 C 0.78155 0.90012 0.59349
 C980 C 0.77252 0.88716 0.57406
 C981 C 0.74694 0.88962 0.56741
 C982 C 0.73103 0.90591 0.57961
 C983 C 0.73777 0.87588 0.54851
 C984 C 0.75391 0.86027 0.53598
 C985 C 0.77956 0.85855 0.54186
 C986 C 0.78872 0.87191 0.56104
 H987 H 0.70553 0.93958 0.60459
 H988 H 0.79366 0.92627 0.63150
 H989 H 0.76583 0.95496 0.65254
 H990 H 0.80106 0.89793 0.59881
 H991 H 0.71155 0.90818 0.57422
 H992 H 0.71819 0.87737 0.54328
 H993 H 0.74653 0.85017 0.52119
 H994 H 0.80847 0.87042 0.56580
 C995 C 0.28931 0.91538 0.37585
 C996 C 0.27192 0.90096 0.38858
 C997 C 0.24633 0.90846 0.38975
 C998 C 0.23838 0.92972 0.37784
 C999 C 0.25585 0.94444 0.36617
 C1000 C 0.28159 0.93792 0.36560
 C1001 C 0.22924 0.89533 0.40366
 C1002 C 0.23746 0.87527 0.41717
 C1003 C 0.26286 0.86735 0.41582
 C1004 C 0.27988 0.88002 0.40124
 C1005 C 0.27089 0.84735 0.42965
 C1006 C 0.25414 0.83587 0.44515
 C1007 C 0.22902 0.84413 0.44704
 C1008 C 0.22077 0.86358 0.43261
 H1009 H 0.30910 0.91025 0.37563
 H1010 H 0.21882 0.93560 0.37844
 H1011 H 0.24937 0.96144 0.35802
 H1012 H 0.20973 0.90139 0.40473
 H1013 H 0.29947 0.87420 0.40049
 H1014 H 0.29026 0.84092 0.42884
 H1015 H 0.26098 0.82084 0.45596
 H1016 H 0.20142 0.87005 0.43371
 C1017 C 0.05555 0.39329 0.71847
 C1018 C 0.07314 0.40659 0.73175
 C1019 C 0.09030 0.42281 0.72060
 C1020 C 0.08951 0.42542 0.69632
 C1021 C 0.07182 0.41219 0.68324
 C1022 C 0.05468 0.39614 0.69421
 C1023 C 0.10781 0.43625 0.73390
 C1024 C 0.10813 0.43393 0.75824
 C1025 C 0.09088 0.41772 0.76931
 C1026 C 0.07367 0.40402 0.75600
 C1027 C 0.09080 0.41577 0.79360
 C1028 C 0.10721 0.43016 0.80690
 C1029 C 0.12434 0.44647 0.79618
 C1030 C 0.12501 0.44797 0.77176
 H1031 H 0.04249 0.38068 0.72693
 H1032 H 0.10251 0.43774 0.68746
 H1033 H 0.07145 0.41444 0.66452
 H1034 H 0.12093 0.44874 0.72536
 H1035 H 0.06045 0.39164 0.76454
 H1036 H 0.07772 0.40344 0.80235
 H1037 H 0.10640 0.42863 0.82567
 H1038 H 0.13797 0.46071 0.76336
 C1039 C 0.06358 0.61580 0.26000
 C1040 C 0.08225 0.60334 0.24726
 C1041 C 0.10536 0.61526 0.24231
 C1042 C 0.10885 0.63994 0.24930
 C1043 C 0.08978 0.65255 0.26134
 C1044 C 0.06697 0.64059 0.26731
 C1045 C 0.12453 0.60228 0.23053
 C1046 C 0.12052 0.57776 0.22306
 C1047 C 0.09684 0.56637 0.22710
 C1048 C 0.07807 0.57905 0.23948
 C1049 C 0.09226 0.54238 0.21872
 C1050 C 0.11104 0.52961 0.20667
 C1051 C 0.13487 0.54030 0.20334
 C1052 C 0.13967 0.56438 0.21157
 H1053 H 0.04668 0.60574 0.26487
 H1054 H 0.12626 0.64958 0.24532
 H1055 H 0.09286 0.67184 0.26582
 H1056 H 0.14247 0.61126 0.22711
 H1057 H 0.06014 0.57007 0.24293
 H1058 H 0.07417 0.53349 0.22150
 H1059 H 0.10720 0.51099 0.20046
 H1060 H 0.15806 0.57267 0.20881
 C1061 C 0.91824 0.37874 0.28413
 C1062 C 0.90307 0.39333 0.26937
 C1063 C 0.91232 0.40047 0.24728
 C1064 C 0.93626 0.39260 0.24013
 C1065 C 0.95125 0.37831 0.25489
 C1066 C 0.94274 0.37144 0.27726
 C1067 C 0.89769 0.41569 0.23277
 C1068 C 0.87398 0.42417 0.24013
 C1069 C 0.86450 0.41683 0.26207
 C1070 C 0.87906 0.40137 0.27653
 C1071 C 0.84078 0.42542 0.26933
 C1072 C 0.82681 0.44151 0.25521
 C1073 C 0.83625 0.44932 0.23353
 C1074 C 0.85979 0.44026 0.22601
 H1075 H 0.91140 0.37402 0.30136
 H1076 H 0.94353 0.39770 0.22316
 H1077 H 0.96962 0.37241 0.24869
 H1078 H 0.90496 0.42128 0.21592
 H1079 H 0.87187 0.39593 0.29345
 H1080 H 0.83316 0.41995 0.28606
 H1081 H 0.80873 0.44814 0.26146
 H1082 H 0.86734 0.44606 0.20934
 C1083 C 0.94111 0.61445 0.72681
 C1084 C 0.92225 0.60141 0.73872
 C1085 C 0.89760 0.61127 0.74009
 C1086 C 0.89241 0.63423 0.72961
 C1087 C 0.91164 0.64766 0.71859
 C1088 C 0.93650 0.63824 0.71742
 C1089 C 0.87875 0.59815 0.75217
 C1090 C 0.88456 0.57571 0.76351
 C1091 C 0.90949 0.56630 0.76251
 C1092 C 0.92799 0.57893 0.74978
 C1093 C 0.91566 0.54449 0.77446
 C1094 C 0.89735 0.53193 0.78726
 C1095 C 0.87235 0.54064 0.78802
 C1096 C 0.86600 0.56257 0.77602
 H1097 H 0.95956 0.60595 0.72495
 H1098 H 0.87363 0.64216 0.73050
 H1099 H 0.90720 0.66590 0.71177
 H1100 H 0.85974 0.60559 0.75308
 H1101 H 0.94703 0.57155 0.74895
 H1102 H 0.93470 0.53713 0.77395
 H1103 H 0.90265 0.51498 0.79615
 H1104 H 0.84679 0.56948 0.77660
 C1105 C 0.74818 0.61825 0.94184
 C1106 C 0.75678 0.60334 0.92334
 C1107 C 0.74106 0.59943 0.90383
 C1108 C 0.71707 0.61022 0.90314
 C1109 C 0.70863 0.62485 0.92154
 C1110 C 0.72397 0.62923 0.94117
 C1111 C 0.74945 0.58471 0.88529
 C1112 C 0.77332 0.57356 0.88602
 C1113 C 0.78912 0.57727 0.90551
 C1114 C 0.78082 0.59229 0.92400
 C1115 C 0.81281 0.56562 0.90622
 C1116 C 0.82057 0.55015 0.88799
 C1117 C 0.80493 0.54633 0.86858
 C1118 C 0.78141 0.55838 0.86766
 H1119 H 0.76064 0.62189 0.95639
 H1120 H 0.70473 0.60725 0.88839
 H1121 H 0.68970 0.63242 0.92059
 H1122 H 0.73730 0.58176 0.87037
 H1123 H 0.79293 0.59517 0.93895
 H1124 H 0.82519 0.56820 0.92101
 H1125 H 0.83877 0.54107 0.88914
 H1126 H 0.76903 0.55542 0.85292
 C1127 C 0.25937 0.35866 0.93057
 C1128 C 0.24305 0.37348 0.91722
 C1129 C 0.21816 0.37793 0.92507
 C1130 C 0.20973 0.36687 0.94568
 C1131 C 0.22613 0.35248 0.95901
 C1132 C 0.25137 0.34870 0.95203
 C1133 C 0.20230 0.39396 0.91262
 C1134 C 0.21116 0.40603 0.89263
 C1135 C 0.23582 0.40114 0.88439
 C1136 C 0.25155 0.38472 0.89662
 C1137 C 0.24456 0.41331 0.86439
 C1138 C 0.22937 0.43082 0.85316
 C1139 C 0.20514 0.43644 0.86168
 C1140 C 0.19598 0.42354 0.88119
 H1141 H 0.27876 0.35621 0.92497
 H1142 H 0.19061 0.36983 0.95180
 H1143 H 0.21909 0.34437 0.97500
 H1144 H 0.18334 0.39764 0.91890
 H1145 H 0.27061 0.38130 0.89051
 H1146 H 0.26335 0.40971 0.85775
 H1147 H 0.23688 0.44042 0.83812
 H1148 H 0.17728 0.42757 0.88787
 C1149 C 0.29220 0.60979 0.07116
 C1150 C 0.27424 0.59679 0.08446
 C1151 C 0.25111 0.58969 0.07420
 C1152 C 0.24606 0.59604 0.05109
 C1153 C 0.26396 0.60879 0.03799
 C1154 C 0.28744 0.61560 0.04761
 C1155 C 0.23350 0.57594 0.08700
 C1156 C 0.23880 0.56882 0.10991
 C1157 C 0.26168 0.57619 0.12043
 C1158 C 0.27923 0.59026 0.10768
 C1159 C 0.26682 0.56885 0.14337
 C1160 C 0.24983 0.55369 0.15545
 C1161 C 0.22736 0.54568 0.14485
 C1162 C 0.22179 0.55380 0.12219
 H1163 H 0.31027 0.61444 0.07884
 H1164 H 0.22832 0.59095 0.04305
 H1165 H 0.25926 0.61361 0.02021
 H1166 H 0.21590 0.57032 0.07896
 H1167 H 0.29692 0.59569 0.11566
 H1168 H 0.28421 0.57439 0.15179
 H1169 H 0.25460 0.54774 0.17290
 H1170 H 0.20452 0.54786 0.11379
 C1171 C 0.72297 0.37981 0.07547
 C1172 C 0.73273 0.39809 0.09034
 C1173 C 0.73932 0.42158 0.08124
 C1174 C 0.73500 0.42677 0.05773
 C1175 C 0.72431 0.40885 0.04327
 C1176 C 0.71840 0.38494 0.05174
 C1177 C 0.74997 0.43959 0.09579
 C1178 C 0.75337 0.43470 0.11952
 C1179 C 0.74569 0.41164 0.12893
 C1180 C 0.73583 0.39330 0.11419
 C1181 C 0.74799 0.40740 0.15294
 C1182 C 0.75815 0.42571 0.16742
 C1183 C 0.76675 0.44817 0.15796
 C1184 C 0.76426 0.45260 0.13404
 H1185 H 0.71924 0.36144 0.08238
 H1186 H 0.73954 0.44484 0.05056
 H1187 H 0.72026 0.41393 0.02543
 H1188 H 0.75543 0.45747 0.08868
 H1189 H 0.73034 0.37543 0.12129
 H1190 H 0.74198 0.38994 0.16050
 H1191 H 0.75999 0.42210 0.18588
 H1192 H 0.77061 0.47013 0.12680
 C1193 C 0.92559 0.72827 0.62785
 C1194 C 0.91301 0.73895 0.60874
 C1195 C 0.92706 0.74629 0.58897
 C1196 C 0.95299 0.74192 0.58806
 C1197 C 0.96521 0.73098 0.60680
 C1198 C 0.95198 0.72452 0.62727
 C1199 C 0.91512 0.75821 0.57042
 C1200 C 0.88917 0.76271 0.57114
 C1201 C 0.87467 0.75446 0.59029
 C1202 C 0.88674 0.74276 0.60912
 C1203 C 0.84843 0.75842 0.59027
 C1204 C 0.83692 0.77103 0.57174
 C1205 C 0.85163 0.78020 0.55336
 C1206 C 0.87762 0.77570 0.55302
 H1207 H 0.91497 0.72387 0.64343
 H1208 H 0.96390 0.74702 0.57283
 H1209 H 0.98525 0.72737 0.60513
 H1210 H 0.92609 0.76425 0.55550
 H1211 H 0.87579 0.73686 0.62408
 H1212 H 0.83691 0.75205 0.60466
 H1213 H 0.81677 0.77438 0.57213
 H1214 H 0.88890 0.78251 0.53859
 C1215 C 0.90935 0.28691 0.36601
 C1216 C 0.89195 0.27319 0.37927
 C1217 C 0.89668 0.24779 0.38391
 C1218 C 0.91811 0.23632 0.37460
 C1219 C 0.93563 0.25020 0.36209
 C1220 C 0.93198 0.27581 0.35832
 C1221 C 0.88056 0.23447 0.39860
 C1222 C 0.86012 0.24634 0.40932
 C1223 C 0.85484 0.27151 0.40427
 C1224 C 0.87063 0.28473 0.38903
 C1225 C 0.83432 0.28320 0.41517
 C1226 C 0.81977 0.27033 0.43154
 C1227 C 0.82553 0.24557 0.43726
 C1228 C 0.84543 0.23358 0.42567
 H1229 H 0.90628 0.30662 0.36332
 H1230 H 0.92184 0.21681 0.37775
 H1231 H 0.95247 0.24099 0.35572
 H1232 H 0.88452 0.21512 0.40243
 H1233 H 0.86690 0.30418 0.38550
 H1234 H 0.82987 0.30244 0.41145
 H1235 H 0.80443 0.27995 0.44015
 H1236 H 0.84989 0.21440 0.42973
 C1237 C 0.06307 0.28848 0.59664
 C1238 C 0.08375 0.27806 0.58495
 C1239 C 0.10396 0.29336 0.57774
 C1240 C 0.10322 0.31885 0.58260
 C1241 C 0.08281 0.32903 0.59471
 C1242 C 0.06248 0.31400 0.60190
 C1243 C 0.12459 0.28292 0.56591
 C1244 C 0.12532 0.25731 0.56137
 C1245 C 0.10524 0.24203 0.56899
 C1246 C 0.08461 0.25248 0.58067
 C1247 C 0.10591 0.21650 0.56454
 C1248 C 0.12588 0.20624 0.55201
 C1249 C 0.14566 0.22126 0.54377
 C1250 C 0.14553 0.24679 0.54892
 H1251 H 0.04790 0.27652 0.60254
 H1252 H 0.11852 0.33089 0.57722
 H1253 H 0.08276 0.34878 0.59831
 H1254 H 0.13999 0.29469 0.56019
 H1255 H 0.06917 0.24072 0.58634
 H1256 H 0.09076 0.20451 0.57037
 H1257 H 0.12556 0.18651 0.54837
 H1258 H 0.16060 0.25857 0.54255
 C1259 C 0.07621 0.72108 0.37322
 C1260 C 0.09363 0.73535 0.38573
 C1261 C 0.09806 0.76029 0.37915
 C1262 C 0.08593 0.77011 0.35951
 C1263 C 0.06916 0.75550 0.34675
 C1264 C 0.06389 0.73111 0.35376
 C1265 C 0.11420 0.77511 0.39252
 C1266 C 0.12617 0.76523 0.41220
 C1267 C 0.12284 0.73993 0.41805
 C1268 C 0.10645 0.72517 0.40484
 C1269 C 0.13546 0.73003 0.43741
 C1270 C 0.15028 0.74533 0.45149
 C1271 C 0.15242 0.77076 0.44655
 C1272 C 0.14083 0.78047 0.42655
 H1273 H 0.07214 0.70218 0.37856
 H1274 H 0.08929 0.78910 0.35411
 H1275 H 0.05984 0.76335 0.33168
 H1276 H 0.11709 0.79442 0.38785
 H1277 H 0.10338 0.70592 0.40964
 H1278 H 0.13331 0.71063 0.44201
 H1279 H 0.15901 0.73756 0.46689
 H1280 H 0.14265 0.80007 0.42255
 C1281 C 0.61810 0.94762 0.72478
 C1282 C 0.60698 0.92918 0.73861
 C1283 C 0.62049 0.90725 0.74378
 C1284 C 0.64531 0.90462 0.73573
 C1285 C 0.65668 0.92358 0.72281
 C1286 C 0.64326 0.94539 0.71697
 C1287 C 0.60900 0.88843 0.75702
 C1288 C 0.58449 0.89173 0.76584
 C1289 C 0.57151 0.91426 0.76149
 C1290 C 0.58262 0.93258 0.74755
 C1291 C 0.54760 0.91815 0.77121
 C1292 C 0.53642 0.89982 0.78487
 C1293 C 0.54864 0.87701 0.78858
 C1294 C 0.57271 0.87300 0.77901
 H1295 H 0.60692 0.96366 0.71988
 H1296 H 0.65612 0.88808 0.73977
 H1297 H 0.67624 0.92134 0.71775
 H1298 H 0.61921 0.87139 0.76066
 H1299 H 0.57243 0.94964 0.74394
 H1300 H 0.53750 0.93537 0.76821
 H1301 H 0.51777 0.90315 0.79196
 H1302 H 0.58227 0.85547 0.78198
 C1303 C 0.38399 0.91693 0.28746
 C1304 C 0.39664 0.90193 0.27112
 C1305 C 0.40288 0.91170 0.24901
 C1306 C 0.39594 0.93604 0.24340
 C1307 C 0.38363 0.95088 0.25973
 C1308 C 0.37781 0.94179 0.28214
 C1309 C 0.41645 0.89722 0.23301
 C1310 C 0.42428 0.87316 0.23892
 C1311 C 0.41770 0.86319 0.26087
 C1312 C 0.40379 0.87755 0.27676
 C1313 C 0.42568 0.83920 0.26679
 C1314 C 0.44069 0.82551 0.25145
 C1315 C 0.44792 0.83543 0.22979
 C1316 C 0.43918 0.85917 0.22347
 H1317 H 0.38012 0.90965 0.30468
 H1318 H 0.40035 0.94376 0.22647
 H1319 H 0.37854 0.96964 0.25477
 H1320 H 0.42144 0.90491 0.21617
 H1321 H 0.39903 0.86996 0.29369
 H1322 H 0.42075 0.83120 0.28348
 H1323 H 0.44702 0.80724 0.25677
 H1324 H 0.44461 0.86709 0.20687
 C1325 C 0.61983 0.07934 0.28566
 C1326 C 0.60851 0.09532 0.26939
 C1327 C 0.60732 0.08829 0.24570
 C1328 C 0.61828 0.06584 0.23857
 C1329 C 0.62956 0.05011 0.25484
 C1330 C 0.62996 0.05647 0.27853
 C1331 C 0.59468 0.10348 0.22964
 C1332 C 0.58304 0.12554 0.23697
 C1333 C 0.58498 0.13299 0.26049
 C1334 C 0.59778 0.11789 0.27653
 C1335 C 0.57346 0.15510 0.26774
 C1336 C 0.55923 0.16917 0.25211
 C1337 C 0.55625 0.16146 0.22890
 C1338 C 0.56878 0.13987 0.22132
 H1339 H 0.62016 0.08430 0.30394
 H1340 H 0.61772 0.06023 0.22047
 H1341 H 0.63752 0.03263 0.24905
 H1342 H 0.59337 0.09782 0.21158
 H1343 H 0.59883 0.12340 0.29465
 H1344 H 0.57489 0.16118 0.28566
 H1345 H 0.54988 0.18573 0.25845
 H1346 H 0.56673 0.13372 0.20347
 C1347 C 0.37851 0.05835 0.73301
 C1348 C 0.39328 0.07578 0.74484
 C1349 C 0.39948 0.09849 0.73399
 C1350 C 0.39038 0.10345 0.71155
 C1351 C 0.37635 0.08558 0.69953
 C1352 C 0.37088 0.06239 0.70978
 C1353 C 0.41511 0.11555 0.74554
 C1354 C 0.42512 0.10981 0.76753
 C1355 C 0.41885 0.08702 0.77831
 C1356 C 0.40268 0.07034 0.76706
 C1357 C 0.42922 0.08106 0.80002
 C1358 C 0.44584 0.09740 0.81095
 C1359 C 0.45221 0.12015 0.80051
 C1360 C 0.44161 0.12630 0.77880
 H1361 H 0.37339 0.04126 0.74179
 H1362 H 0.39487 0.12081 0.70296
 H1363 H 0.37095 0.08945 0.68173
 H1364 H 0.41995 0.13297 0.73719
 H1365 H 0.39801 0.05281 0.77531
 H1366 H 0.42463 0.06365 0.80849
 H1367 H 0.45359 0.09226 0.82770
 H1368 H 0.44641 0.14376 0.77051
 C1369 C 0.62699 0.71778 0.07909
 C1370 C 0.61167 0.73207 0.09394
 C1371 C 0.60850 0.75776 0.08961
 C1372 C 0.62147 0.76890 0.07109
 C1373 C 0.63669 0.75458 0.05646
 C1374 C 0.63911 0.72887 0.05999
 C1375 C 0.59203 0.77181 0.10353
 C1376 C 0.57875 0.76054 0.12183
 C1377 C 0.58262 0.73505 0.12666
 C1378 C 0.59899 0.72097 0.11267
 C1379 C 0.56981 0.72396 0.14529
 C1380 C 0.55301 0.73784 0.15878
 C1381 C 0.54840 0.76299 0.15373
 C1382 C 0.56147 0.77428 0.13525
 H1383 H 0.62881 0.69794 0.08183
 H1384 H 0.61943 0.78858 0.06762
 H1385 H 0.64602 0.76342 0.04188
 H1386 H 0.58931 0.79140 0.09993
 H1387 H 0.60158 0.70134 0.11616
 H1388 H 0.57265 0.70450 0.14934
 H1389 H 0.54317 0.72870 0.17291
 H1390 H 0.55826 0.79374 0.13138
 C1391 C 0.37200 0.26728 0.07667
 C1392 C 0.38885 0.25418 0.09095
 C1393 C 0.39569 0.22952 0.08520
 C1394 C 0.38498 0.21818 0.06560
 C1395 C 0.36804 0.23129 0.05161
 C1396 C 0.36166 0.25600 0.05685
 C1397 C 0.41326 0.21670 0.09897
 C1398 C 0.42395 0.22816 0.11853
 C1399 C 0.41656 0.25258 0.12460
 C1400 C 0.39917 0.26546 0.11072
 C1401 C 0.42683 0.26382 0.14440
 C1402 C 0.44446 0.25115 0.15795
 C1403 C 0.45241 0.22709 0.15185
 C1404 C 0.44199 0.21565 0.13210
 H1405 H 0.36721 0.28639 0.08069
 H1406 H 0.38987 0.19927 0.06099
 H1407 H 0.36014 0.22230 0.03643
 H1408 H 0.41872 0.19791 0.09439
 H1409 H 0.39378 0.28429 0.11525
 H1410 H 0.42131 0.28247 0.14934
 H1411 H 0.45226 0.26041 0.17304
 H1412 H 0.44784 0.19703 0.12734
 C1413 C 0.61654 0.27392 0.93407
 C1414 C 0.60344 0.25735 0.91965
 C1415 C 0.61149 0.23233 0.91805
 C1416 C 0.63309 0.22462 0.93015
 C1417 C 0.64632 0.24139 0.94407
 C1418 C 0.63789 0.26597 0.94644
 C1419 C 0.59772 0.21542 0.90454
 C1420 C 0.57628 0.22329 0.89227
 C1421 C 0.56889 0.24853 0.89308
 C1422 C 0.58237 0.26534 0.90694
 C1423 C 0.54799 0.25651 0.88012
 C1424 C 0.53426 0.23957 0.86680
 C1425 C 0.54089 0.21432 0.86656
 C1426 C 0.56203 0.20629 0.87925
 H1427 H 0.61012 0.29296 0.93585
 H1428 H 0.63965 0.20559 0.92898
 H1429 H 0.66284 0.23509 0.95347
 H1430 H 0.60363 0.19615 0.90365
 H1431 H 0.57641 0.28460 0.90789
 H1432 H 0.54217 0.27580 0.88041
 H1433 H 0.51800 0.24611 0.85717
 H1434 H 0.56741 0.18686 0.87891
 C1435 C 0.39733 0.71024 0.92084
 C1436 C 0.40938 0.72811 0.90688
 C1437 C 0.40611 0.75365 0.91189
 C1438 C 0.39048 0.76092 0.93034
 C1439 C 0.37867 0.74307 0.94413
 C1440 C 0.38226 0.71767 0.93971
 C1441 C 0.41889 0.77155 0.89870
 C1442 C 0.43508 0.76431 0.88065
 C1443 C 0.43800 0.73885 0.87525
 C1444 C 0.42505 0.72089 0.88836
 C1445 C 0.45419 0.73181 0.85709
 C1446 C 0.46784 0.74976 0.84479
 C1447 C 0.46557 0.77507 0.85045
 C1448 C 0.44882 0.78218 0.86823
 H1449 H 0.40013 0.69062 0.91746
 H1450 H 0.38770 0.78039 0.93434
 H1451 H 0.36700 0.74903 0.95857
 H1452 H 0.41659 0.79109 0.90276
 H1453 H 0.42752 0.70134 0.88442
 H1454 H 0.45660 0.71240 0.85263
 H1455 H 0.48060 0.74376 0.83117
 H1456 H 0.44675 0.80163 0.87270
 C1457 C 0.73173 0.93203 0.38544
 C1458 C 0.74264 0.91398 0.39987
 C1459 C 0.72709 0.89616 0.41092
 C1460 C 0.70091 0.89683 0.40747
 C1461 C 0.69020 0.91505 0.39331
 C1462 C 0.70549 0.93270 0.38218
 C1463 C 0.73788 0.87820 0.42547
 C1464 C 0.76395 0.87815 0.42957
 C1465 C 0.77950 0.89605 0.41869
 C1466 C 0.76878 0.91367 0.40367
 C1467 C 0.80544 0.89639 0.42346
 C1468 C 0.81576 0.87961 0.43938
 C1469 C 0.80042 0.86187 0.45036
 C1470 C 0.77459 0.86093 0.44501
 H1471 H 0.74354 0.94565 0.37681
 H1472 H 0.68872 0.88338 0.41586
 H1473 H 0.66992 0.91544 0.39101
 H1474 H 0.72594 0.86458 0.43397
 H1475 H 0.78069 0.92742 0.39533
 H1476 H 0.81763 0.90999 0.41530
 H1477 H 0.83572 0.88064 0.44328
 H1478 H 0.76255 0.84753 0.45368
 C1479 C 0.26835 0.92838 0.61464
 C1480 C 0.25863 0.91031 0.59962
 C1481 C 0.27394 0.89004 0.59278
 C1482 C 0.29868 0.88817 0.60127
 C1483 C 0.30841 0.90660 0.61582
 C1484 C 0.29343 0.92698 0.62234
 C1485 C 0.26446 0.87235 0.57716
 C1486 C 0.24011 0.87502 0.56790
 C1487 C 0.22487 0.89532 0.57481
 C1488 C 0.23411 0.91264 0.59083
 C1489 C 0.20078 0.89827 0.56522
 C1490 C 0.19197 0.88155 0.54860
 C1491 C 0.20694 0.86136 0.54147
 C1492 C 0.23093 0.85803 0.55144
 H1493 H 0.25671 0.94402 0.61981
 H1494 H 0.31068 0.87278 0.59623
 H1495 H 0.32780 0.90528 0.62162
 H1496 H 0.27622 0.85686 0.57182
 H1497 H 0.22244 0.92826 0.59601
 H1498 H 0.18887 0.91372 0.57032
 H1499 H 0.17336 0.88444 0.54131
 H1500 H 0.24268 0.84259 0.54600
 C1501 C 0.29536 0.08301 0.38674
 C1502 C 0.27941 0.09950 0.39871
 C1503 C 0.25296 0.09605 0.39770
 C1504 C 0.24287 0.07675 0.38431
 C1505 C 0.25884 0.06050 0.37249
 C1506 C 0.28511 0.06325 0.37390
 C1507 C 0.23696 0.11155 0.41053
 C1508 C 0.24701 0.13028 0.42461
 C1509 C 0.27334 0.13435 0.42519
 C1510 C 0.28942 0.11897 0.41211
 C1511 C 0.28307 0.15331 0.43935
 C1512 C 0.26695 0.16734 0.45355
 C1513 C 0.24090 0.16255 0.45378
 C1514 C 0.23106 0.14444 0.43876
 H1515 H 0.31567 0.08514 0.38778
 H1516 H 0.22266 0.07398 0.38327
 H1517 H 0.25072 0.04547 0.36247
 H1518 H 0.21672 0.10859 0.41004
 H1519 H 0.30967 0.12176 0.41280
 H1520 H 0.30319 0.15683 0.43992
 H1521 H 0.27494 0.18123 0.46498
 H1522 H 0.21094 0.14079 0.43857
 C1523 C 0.71132 0.08971 0.60645
 C1524 C 0.72384 0.10826 0.59377
 C1525 C 0.74900 0.11453 0.59948
 C1526 C 0.76067 0.10314 0.61860
 C1527 C 0.74771 0.08541 0.63168
 C1528 C 0.72317 0.07821 0.62546
 C1529 C 0.76214 0.13187 0.58589
 C1530 C 0.75020 0.14357 0.56706
 C1531 C 0.72454 0.13846 0.56227
 C1532 C 0.71163 0.12057 0.57544
 C1533 C 0.71234 0.15108 0.54414
 C1534 C 0.72564 0.16797 0.53036
 C1535 C 0.75145 0.17207 0.53417
 C1536 C 0.76360 0.16005 0.55272
 H1537 H 0.69238 0.08416 0.60161
 H1538 H 0.77984 0.10791 0.62339
 H1539 H 0.75704 0.07674 0.64636
 H1540 H 0.78166 0.13616 0.58988
 H1541 H 0.69216 0.11618 0.57137
 H1542 H 0.69263 0.14759 0.54037
 H1543 H 0.71604 0.17700 0.51603
 H1544 H 0.78350 0.16336 0.55580
 C1545 C 0.91715 0.62136 0.28031
 C1546 C 0.90216 0.60233 0.27092
 C1547 C 0.91330 0.57912 0.26554
 C1548 C 0.93876 0.57489 0.27064
 C1549 C 0.95333 0.59367 0.28043
 C1550 C 0.94290 0.61721 0.28485
 C1551 C 0.89896 0.56058 0.25484
 C1552 C 0.87348 0.56472 0.24975
 C1553 C 0.86186 0.58736 0.25617
 C1554 C 0.87636 0.60616 0.26655
 C1555 C 0.83602 0.59084 0.25176
 C1556 C 0.82207 0.57233 0.24050
 C1557 C 0.83394 0.55042 0.23311
 C1558 C 0.85954 0.54659 0.23802
 H1559 H 0.90898 0.63947 0.28371
 H1560 H 0.94747 0.55712 0.26689
 H1561 H 0.97302 0.59000 0.28415
 H1562 H 0.90770 0.54302 0.25025
 H1563 H 0.86765 0.62376 0.27101
 H1564 H 0.82670 0.60795 0.25674
 H1565 H 0.80228 0.57547 0.23679
 H1566 H 0.86861 0.52948 0.23256
 C1567 C 0.90802 0.38454 0.70075
 C1568 C 0.89334 0.39415 0.71902
 C1569 C 0.89932 0.38784 0.74229
 C1570 C 0.91903 0.37116 0.74683
 C1571 C 0.93373 0.36202 0.72860
 C1572 C 0.92874 0.36916 0.70560
 C1573 C 0.88640 0.39923 0.76069
 C1574 C 0.86800 0.41731 0.75619
 C1575 C 0.86119 0.42284 0.73298
 C1576 C 0.87372 0.41101 0.71452
 C1577 C 0.84273 0.44093 0.72865
 C1578 C 0.83223 0.45446 0.74703
 C1579 C 0.83999 0.45009 0.77005
 C1580 C 0.85727 0.43085 0.77454
 H1581 H 0.90436 0.39015 0.68295
 H1582 H 0.92378 0.36604 0.76452
 H1583 H 0.94975 0.35021 0.73249
 H1584 H 0.89150 0.39487 0.77851
 H1585 H 0.86899 0.41576 0.69671
 H1586 H 0.83710 0.44528 0.71099
 H1587 H 0.81890 0.46912 0.74310
 H1588 H 0.86324 0.42714 0.79224
 C1589 C 0.07171 0.62945 0.74506
 C1590 C 0.08505 0.60955 0.75494
 C1591 C 0.09191 0.58902 0.74092
 C1592 C 0.08461 0.58837 0.71751
 C1593 C 0.07014 0.60759 0.70821
 C1594 C 0.06366 0.62826 0.72184
 C1595 C 0.10545 0.56922 0.75060
 C1596 C 0.11115 0.56907 0.77438
 C1597 C 0.10335 0.58905 0.78867
 C1598 C 0.09089 0.60946 0.77874
 C1599 C 0.10786 0.58807 0.81271
 C1600 C 0.12000 0.56749 0.82246
 C1601 C 0.12847 0.54805 0.80822
 C1602 C 0.12413 0.54897 0.78420
 H1603 H 0.06680 0.64546 0.75557
 H1604 H 0.08950 0.57269 0.70659
 H1605 H 0.06389 0.60636 0.69031
 H1606 H 0.11099 0.55365 0.73976
 H1607 H 0.08516 0.62493 0.78962
 H1608 H 0.10183 0.60309 0.82395
 H1609 H 0.12333 0.56699 0.84105
 H1610 H 0.13042 0.53375 0.77326
 C1611 C 0.07127 0.37232 0.26535
 C1612 C 0.08983 0.38738 0.25528
 C1613 C 0.10866 0.39820 0.26944
 C1614 C 0.10884 0.39328 0.29341
 C1615 C 0.09009 0.37840 0.30334
 C1616 C 0.07102 0.36818 0.28942
 C1617 C 0.12659 0.41417 0.25947
 C1618 C 0.12566 0.41971 0.23562
 C1619 C 0.10702 0.40851 0.22150
 C1620 C 0.08937 0.39229 0.23137
 C1621 C 0.10593 0.41413 0.19776
 C1622 C 0.12268 0.43121 0.18813
 C1623 C 0.14099 0.44291 0.20200
 C1624 C 0.14265 0.43674 0.22573
 H1625 H 0.05656 0.36431 0.25462
 H1626 H 0.12315 0.40133 0.30453
 H1627 H 0.09007 0.37531 0.32196
 H1628 H 0.14087 0.42270 0.27035
 H1629 H 0.07493 0.38395 0.22055
 H1630 H 0.09182 0.40564 0.18669
 H1631 H 0.12106 0.43548 0.16978
 H1632 H 0.15666 0.44565 0.23661
   
