data_POSCAR
  _audit_creation_date              2014-09-24
  _audit_creation_method            'ToBaCCo'
  _symmetry_space_group_name_H-M    'P1'
  _symmetry_Int_Tables_number       1
  _symmetry_cell_setting            triclinic
  loop_
  _symmetry_equiv_pos_as_xyz
 x,y,z
_cell_length_a 46.8075
_cell_length_b 46.7995
_cell_length_c 46.8835
_cell_angle_alpha 90.010100
_cell_angle_beta 90.004100
_cell_angle_gamma 90.015700
loop_
  _atom_site_label
  _atom_site_type_symbol
  _atom_site_fract_x
  _atom_site_fract_y
  _atom_site_fract_z
C1 C 0.36804 0.33244 0.33291
 N2 N 0.35599 0.35609 0.32118
 C3 C 0.33232 0.36811 0.33290
 N4 N 0.32063 0.35613 0.35658
 C5 C 0.33240 0.33249 0.36861
 N6 N 0.35607 0.32075 0.35659
 C7 C 0.36820 0.83223 -0.16819
 N8 N 0.35626 0.82064 -0.14440
 C9 C 0.33262 0.83237 -0.13236
 N10 N 0.32078 0.85595 -0.14443
 C11 C 0.33232 0.86792 -0.16821
 N12 N 0.35603 0.85587 -0.17989
 C13 C 0.86776 0.33289 -0.16794
 N14 N 0.85581 0.32126 -0.14423
 C15 C 0.83216 0.33301 -0.13223
 N16 N 0.82038 0.35662 -0.14431
 C17 C 0.83198 0.36859 -0.16808
 N18 N 0.85569 0.35650 -0.17973
 C19 C 0.86860 0.83197 0.33227
 N20 N 0.85657 0.85573 0.32065
 C21 C 0.83299 0.86785 0.33245
 N22 N 0.82132 0.85590 0.35614
 C23 C 0.83302 0.83221 0.36811
 N24 N 0.85660 0.82037 0.35602
 C25 C 0.63181 0.66747 0.33272
 N26 N 0.64381 0.67917 0.35640
 C27 C 0.66747 0.66742 0.36841
 N28 N 0.67921 0.64376 0.35637
 C29 C 0.66751 0.63178 0.33270
 N30 N 0.64384 0.64381 0.32099
 C31 C 0.63188 0.16783 -0.16833
 N32 N 0.64405 0.14419 -0.18004
 C33 C 0.66779 0.13216 -0.16839
 N34 N 0.67934 0.14416 -0.14462
 C35 C 0.66751 0.16775 -0.13255
 N36 N 0.64384 0.17944 -0.14457
 C37 C 0.13239 0.66720 -0.16787
 N38 N 0.14436 0.67886 -0.14418
 C39 C 0.16801 0.66711 -0.13217
 N40 N 0.17977 0.64347 -0.14423
 C41 C 0.16815 0.63147 -0.16798
 N42 N 0.14444 0.64356 -0.17963
 C43 C 0.13212 0.16801 0.33154
 N44 N 0.14424 0.14434 0.31984
 C45 C 0.16787 0.13217 0.33157
 N46 N 0.17937 0.14407 0.35542
 C47 C 0.16759 0.16767 0.36749
 N48 N 0.14402 0.17951 0.35539
 C49 C 0.63175 0.33228 0.66728
 N50 N 0.64376 0.35597 0.67901
 C51 C 0.66740 0.36804 0.66728
 N52 N 0.67910 0.35607 0.64360
 C53 C 0.66738 0.33239 0.63158
 N54 N 0.64374 0.32060 0.64360
 C55 C 0.63140 0.83192 1.16797
 N56 N 0.64337 0.82029 1.14420
 C57 C 0.66698 0.83209 1.13211
 N58 N 0.67872 0.85576 1.14409
 C59 C 0.66709 0.86773 1.16779
 N60 N 0.64348 0.85566 1.17959
 C61 C 0.13211 0.33229 1.16817
 N62 N 0.14410 0.32071 1.14441
 C63 C 0.16771 0.33250 1.13237
 N64 N 0.17947 0.35615 1.14441
 C65 C 0.16787 0.36812 1.16817
 N66 N 0.14419 0.35600 1.17985
 C67 C 0.13196 0.83219 0.66821
 N68 N 0.14414 0.85582 0.67995
 C69 C 0.16785 0.86790 0.66830
 N70 N 0.17939 0.85596 0.64450
 C71 C 0.16755 0.83239 0.63239
 N72 N 0.14390 0.82064 0.64441
 C73 C 0.36808 0.66754 0.66735
 N74 N 0.35609 0.67922 0.64367
 C75 C 0.33244 0.66744 0.63165
 N76 N 0.32071 0.64376 0.64366
 C77 C 0.33241 0.63180 0.66734
 N78 N 0.35606 0.64387 0.67907
 C79 C 0.36803 0.16785 1.16840
 N80 N 0.35608 0.17942 1.14461
 C81 C 0.33244 0.16765 1.13257
 N82 N 0.32064 0.14405 1.14464
 C83 C 0.33219 0.13209 1.16842
 N84 N 0.35589 0.14419 1.18010
 C85 C 0.86762 0.66717 1.16773
 N86 N 0.85565 0.67883 1.14405
 C87 C 0.83198 0.66708 1.13205
 N88 N 0.82020 0.64345 1.14412
 C89 C 0.83183 0.63146 1.16786
 N90 N 0.85556 0.64354 1.17949
 C91 C 0.86806 0.16780 0.66816
 N92 N 0.85613 0.17937 0.64436
 C93 C 0.83248 0.16762 0.63233
 N94 N 0.82064 0.14404 0.64441
 C95 C 0.83217 0.13209 0.66820
 N96 N 0.85588 0.14417 0.67988
 C97 C 0.33218 0.36760 0.66812
 N98 N 0.35584 0.35556 0.67985
 C99 C 0.36784 0.33187 0.66814
 N100 N 0.35583 0.32015 0.64449
 C101 C 0.33217 0.33190 0.63247
 N102 N 0.32046 0.35559 0.64447
 C103 C 0.33253 0.86895 0.16731
 N104 N 0.32079 0.85691 0.14367
 C105 C 0.33254 0.83325 0.13166
 N106 N 0.35624 0.82155 0.14364
 C107 C 0.36826 0.83328 0.16727
 N108 N 0.35623 0.85695 0.17900
 C109 C 0.83319 0.36819 0.16713
 N110 N 0.85687 0.35617 0.17883
 C111 C 0.86886 0.33246 0.16715
 N112 N 0.85679 0.32068 0.14354
 C113 C 0.83310 0.33242 0.13155
 N114 N 0.82142 0.35613 0.14353
 C115 C 0.83280 0.86903 0.66754
 N116 N 0.85652 0.85706 0.67922
 C117 C 0.86856 0.83339 0.66749
 N118 N 0.85652 0.82163 0.64387
 C119 C 0.83281 0.83331 0.63190
 N120 N 0.82106 0.85697 0.64391
 C121 C 0.66755 0.63214 0.66800
 N122 N 0.64390 0.64420 0.67974
 C123 C 0.63189 0.66789 0.66803
 N124 N 0.64389 0.67958 0.64435
 C125 C 0.66753 0.66781 0.63232
 N126 N 0.67924 0.64413 0.64433
 C127 C 0.66726 0.13144 0.16701
 N128 N 0.64352 0.14338 0.17866
 C129 C 0.63143 0.16699 0.16691
 N130 N 0.64344 0.17875 0.14328
 C131 C 0.66719 0.16710 0.13133
 N132 N 0.67899 0.14348 0.14337
 C133 C 0.16696 0.63171 0.16710
 N134 N 0.14334 0.64379 0.17885
 C135 C 0.13142 0.66756 0.16722
 N136 N 0.14349 0.67932 0.14361
 C137 C 0.16711 0.66752 0.13157
 N138 N 0.17874 0.64375 0.14350
 C139 C 0.16710 0.13071 0.66749
 N140 N 0.17882 0.14271 0.64383
 C141 C 0.16705 0.16635 0.63179
 N142 N 0.14335 0.17804 0.64376
 C143 C 0.13134 0.16634 0.66742
 N144 N 0.14340 0.14271 0.67918
 C145 C 0.33203 0.63204 0.33206
 N146 N 0.32033 0.64405 0.35572
 C147 C 0.33209 0.66772 0.36774
 N148 N 0.35577 0.67944 0.35573
 C149 C 0.36776 0.66773 0.33207
 N150 N 0.35571 0.64406 0.32034
 C151 C 0.33255 0.13090 0.83301
 N152 N 0.32079 0.14296 0.85662
 C153 C 0.33255 0.16663 0.86863
 N154 N 0.35628 0.17831 0.85667
 C155 C 0.36833 0.16653 0.83307
 N156 N 0.35628 0.14287 0.82135
 C157 C 0.83302 0.63192 0.83261
 N158 N 0.85664 0.64402 0.82085
 C159 C 0.86860 0.66777 0.83251
 N160 N 0.85657 0.67950 0.85615
 C161 C 0.83294 0.66769 0.86820
 N162 N 0.82129 0.64394 0.85624
 C163 C 0.83332 0.13173 0.33238
 N164 N 0.85700 0.14374 0.32067
 C165 C 0.86907 0.16739 0.33242
 N166 N 0.85708 0.17910 0.35610
 C167 C 0.83340 0.16736 0.36810
 N168 N 0.82164 0.14371 0.35606
 C169 C 0.66776 0.36776 0.33201
 N170 N 0.64408 0.35572 0.32030
 C171 C 0.63206 0.33204 0.33203
 N172 N 0.64407 0.32034 0.35569
 C173 C 0.66775 0.33209 0.36769
 N174 N 0.67948 0.35577 0.35567
 C175 C 0.66745 0.86907 0.83279
 N176 N 0.64370 0.85711 0.82112
 C177 C 0.63165 0.83345 0.83283
 N178 N 0.64370 0.82167 0.85642
 C179 C 0.66744 0.83332 0.86838
 N180 N 0.67921 0.85699 0.85639
 C181 C 0.16701 0.36794 0.83281
 N182 N 0.17873 0.35592 0.85645
 C183 C 0.16707 0.33216 0.86837
 N184 N 0.14346 0.32035 0.85629
 C185 C 0.13145 0.33209 0.83265
 N186 N 0.14341 0.35584 0.82102
 C187 C 0.16720 0.86898 0.33257
 N188 N 0.14353 0.85694 0.32085
 C189 C 0.13150 0.83327 0.33257
 N190 N 0.14351 0.82157 0.35623
 C191 C 0.16719 0.83330 0.36823
 N192 N 0.17893 0.85698 0.35622
 O193 O 0.24687 1.02893 0.28614
 O194 O 0.28615 0.97314 0.24700
 O195 O 0.28629 1.02890 0.24714
 O196 O 0.24695 0.97317 0.28623
 O197 O 0.21367 0.97317 0.25293
 O198 O 0.25303 1.02892 0.21381
 O199 O 0.25287 0.97317 0.21369
 O200 O 0.21362 1.02894 0.25282
 Cu201 Cu 0.26990 1.00103 0.26996
 Cu202 Cu 0.22996 1.00105 0.22998
 C203 C 0.22361 1.03864 0.27608
 C204 C 0.27613 0.96345 0.22373
 C205 C 0.27631 1.03861 0.22388
 C206 C 0.22367 0.96348 0.27619
 O207 O 0.24685 0.52803 0.78653
 O208 O 0.28595 0.47210 0.74747
 O209 O 0.28598 0.52785 0.74724
 O210 O 0.24666 0.47226 0.78660
 O211 O 0.21332 0.47225 0.75336
 O212 O 0.25263 0.52779 0.71400
 O213 O 0.25260 0.47205 0.71423
 O214 O 0.21350 0.52801 0.75329
 Cu215 Cu 0.26970 0.50006 0.77029
 Cu216 Cu 0.22967 0.50002 0.73039
 C217 C 0.22358 0.53775 0.77651
 C218 C 0.27588 0.46234 0.72426
 C219 C 0.27595 0.53748 0.72396
 C220 C 0.22335 0.46258 0.77661
 O221 O 0.74710 -0.02814 0.21380
 O222 O 0.78653 0.02766 0.25275
 O223 O 0.78650 -0.02808 0.25281
 O224 O 0.74723 0.02760 0.21361
 O225 O 0.71399 0.02770 0.24695
 O226 O 0.75327 -0.02798 0.28616
 O227 O 0.75329 0.02775 0.28609
 O228 O 0.71387 -0.02803 0.24715
 Cu229 Cu 0.77017 -0.00025 0.22990
 Cu230 Cu 0.73028 -0.00012 0.26993
 C231 C 0.72382 -0.03778 0.22389
 C232 C 0.77657 0.03740 0.27601
 C233 C 0.77653 -0.03771 0.27611
 C234 C 0.72397 0.03731 0.22365
 O235 O 0.71395 0.52776 0.74736
 O236 O 0.75313 0.47188 0.78638
 O237 O 0.75331 0.52763 0.78642
 O238 O 0.71394 0.47201 0.74714
 O239 O 0.74723 0.47205 0.71386
 O240 O 0.78660 0.52764 0.75313
 O241 O 0.78643 0.47188 0.75310
 O242 O 0.74723 0.52779 0.71407
 Cu243 Cu 0.73025 0.49982 0.77017
 Cu244 Cu 0.77021 0.49984 0.73021
 C245 C 0.72397 0.53750 0.72413
 C246 C 0.77639 0.46216 0.77634
 C247 C 0.77660 0.53732 0.77640
 C248 C 0.72394 0.46236 0.72386
 O249 O 0.21312 0.52744 0.24666
 O250 O 0.25240 0.47193 0.28610
 O251 O 0.25235 0.52767 0.28586
 O252 O 0.21325 0.47167 0.24682
 O253 O 0.24660 0.47163 0.21360
 O254 O 0.28570 0.52761 0.25263
 O255 O 0.28576 0.47187 0.25288
 O256 O 0.24648 0.52739 0.21344
 Cu257 Cu 0.22943 0.49968 0.26968
 Cu258 Cu 0.26947 0.49962 0.22981
 C259 C 0.22317 0.53709 0.22341
 C260 C 0.27572 0.46225 0.27616
 C261 C 0.27564 0.53737 0.27584
 C262 C 0.22333 0.46191 0.22362
 O263 O 0.78633 0.97327 0.74711
 O264 O 0.74699 1.02905 0.78619
 O265 O 0.74713 0.97329 0.78635
 O266 O 0.78635 1.02903 0.74712
 O267 O 0.75306 1.02896 0.71382
 O268 O 0.71383 0.97321 0.75307
 O269 O 0.71371 1.02897 0.75289
 O270 O 0.75303 0.97320 0.71383
 Cu271 Cu 0.77003 1.00117 0.77003
 Cu272 Cu 0.73007 1.00107 0.73007
 C273 C 0.77631 0.96354 0.72386
 C274 C 0.72370 1.03871 0.77614
 C275 C 0.72386 0.96356 0.77633
 C276 C 0.77634 1.03869 0.72386
 O277 O 0.71405 0.47212 0.25256
 O278 O 0.75311 0.52805 0.21346
 O279 O 0.75337 0.47229 0.21346
 O280 O 0.71401 0.52787 0.25278
 O281 O 0.74736 0.52788 0.28602
 O282 O 0.78671 0.47234 0.24670
 O283 O 0.78646 0.52810 0.24670
 O284 O 0.74739 0.47214 0.28580
 Cu285 Cu 0.73030 0.50008 0.22973
 Cu286 Cu 0.77032 0.50012 0.26963
 C287 C 0.72412 0.46241 0.27578
 C288 C 0.77638 0.53780 0.22347
 C289 C 0.77669 0.46265 0.22345
 C290 C 0.72404 0.53753 0.27605
 O291 O 0.25306 -0.02905 0.78634
 O292 O 0.21369 0.02668 0.74723
 O293 O 0.21368 -0.02907 0.74728
 O294 O 0.25288 0.02670 0.78649
 O295 O 0.28618 0.02678 0.75322
 O296 O 0.24697 -0.02900 0.71399
 O297 O 0.24700 0.02674 0.71396
 O298 O 0.28634 -0.02897 0.75304
 Cu299 Cu 0.22999 -0.00119 0.77017
 Cu300 Cu 0.26996 -0.00110 0.73022
 C301 C 0.27635 -0.03870 0.77629
 C302 C 0.22370 0.03640 0.72398
 C303 C 0.22370 -0.03873 0.72401
 C304 C 0.27615 0.03644 0.77649
 O305 O 0.24693 0.28595 0.97236
 O306 O 0.28627 0.24689 1.02807
 O307 O 0.28618 0.24670 0.97241
 O308 O 0.24706 0.28614 1.02802
 O309 O 0.21373 0.25282 1.02815
 O310 O 0.25285 0.21338 0.97255
 O311 O 0.25294 0.21356 1.02821
 O312 O 0.21361 0.25262 0.97250
 Cu313 Cu 0.26995 0.26976 1.00019
 Cu314 Cu 0.22994 0.22976 1.00036
 C315 C 0.22362 0.27589 0.96274
 C316 C 0.27624 0.22363 1.03784
 C317 C 0.27613 0.22337 0.96282
 C318 C 0.22379 0.27613 1.03777
 O319 O 0.24685 0.78667 0.47219
 O320 O 0.28609 0.74720 0.52767
 O321 O 0.28597 0.74730 0.47202
 O322 O 0.24686 0.78645 0.52785
 O323 O 0.21349 0.75316 0.52779
 O324 O 0.25260 0.71402 0.47198
 O325 O 0.25273 0.71392 0.52764
 O326 O 0.21348 0.75338 0.47213
 Cu327 Cu 0.26978 0.77024 0.49994
 Cu328 Cu 0.22973 0.73029 0.49988
 C329 C 0.22354 0.77669 0.46251
 C330 C 0.27604 0.72391 0.53731
 C331 C 0.27589 0.72405 0.46230
 C332 C 0.22358 0.77641 0.53754
 O333 O 0.28650 0.75303 -0.02790
 O334 O 0.24715 0.71389 0.02777
 O335 O 0.24736 0.71368 -0.02788
 O336 O 0.28636 0.75321 0.02776
 O337 O 0.25300 0.78647 0.02759
 O338 O 0.21399 0.74694 -0.02805
 O339 O 0.21379 0.74716 0.02760
 O340 O 0.25313 0.78629 -0.02806
 Cu341 Cu 0.27019 0.73012 -0.00003
 Cu342 Cu 0.23013 0.77005 -0.00025
 C343 C 0.27645 0.77627 -0.03767
 C344 C 0.22382 0.72391 0.03736
 C345 C 0.22409 0.72364 -0.03765
 C346 C 0.27628 0.77651 0.03735
 O347 O 0.21346 0.24666 0.47233
 O348 O 0.25259 0.28569 0.52823
 O349 O 0.25271 0.28590 0.47258
 O350 O 0.21342 0.24636 0.52799
 O351 O 0.24676 0.21307 0.52790
 O352 O 0.28605 0.25260 0.47249
 O353 O 0.28593 0.25240 0.52814
 O354 O 0.24679 0.21336 0.47224
 Cu355 Cu 0.22970 0.26949 0.50030
 Cu356 Cu 0.26972 0.22952 0.50019
 C357 C 0.22353 0.22343 0.46255
 C358 C 0.27587 0.27565 0.53790
 C359 C 0.27601 0.27592 0.46289
 C360 C 0.22345 0.22304 0.53759
 O361 O 0.71341 0.75279 1.02773
 O362 O 0.75290 0.71382 0.97206
 O363 O 0.75266 0.71356 1.02772
 O364 O 0.71367 0.75309 0.97208
 O365 O 0.74699 0.78641 0.97234
 O366 O 0.78598 0.74689 1.02797
 O367 O 0.78622 0.74715 0.97232
 O368 O 0.74673 0.78612 1.02799
 Cu369 Cu 0.72982 0.72998 0.99986
 Cu370 Cu 0.76982 0.76998 1.00019
 C371 C 0.72341 0.77604 1.03755
 C372 C 0.77623 0.72389 0.96251
 C373 C 0.77591 0.72357 1.03753
 C374 C 0.72374 0.77643 0.96254
 O375 O 0.78653 0.24695 0.52780
 O376 O 0.74735 0.28603 0.47197
 O377 O 0.74724 0.28615 0.52762
 O378 O 0.78675 0.24695 0.47213
 O379 O 0.75351 0.21354 0.47207
 O380 O 0.71400 0.25274 0.52757
 O381 O 0.71411 0.25263 0.47192
 O382 O 0.75328 0.21355 0.52772
 Cu383 Cu 0.77030 0.26987 0.49989
 Cu384 Cu 0.73040 0.22977 0.49981
 C385 C 0.77651 0.22366 0.53748
 C386 C 0.72412 0.27593 0.46223
 C387 C 0.72396 0.27607 0.53725
 C388 C 0.77680 0.22363 0.46244
 O389 O 0.78610 0.25322 -0.02815
 O390 O 0.74694 0.21376 0.02742
 O391 O 0.74697 0.21385 -0.02822
 O392 O 0.78632 0.25288 0.02750
 O393 O 0.75302 0.28622 0.02767
 O394 O 0.71366 0.24717 -0.02810
 O395 O 0.71363 0.24708 0.02756
 O396 O 0.75279 0.28653 -0.02798
 Cu397 Cu 0.76992 0.23009 -0.00038
 Cu398 Cu 0.72994 0.27009 -0.00019
 C399 C 0.77605 0.27653 -0.03773
 C400 C 0.72366 0.22376 0.03715
 C401 C 0.72369 0.22391 -0.03786
 C402 C 0.77633 0.27614 0.03727
 O403 O 0.71389 0.74717 0.47241
 O404 O 0.75313 0.78657 0.52797
 O405 O 0.75328 0.78629 0.47232
 O406 O 0.71392 0.74727 0.52807
 O407 O 0.74720 0.71392 0.52817
 O408 O 0.78655 0.75293 0.47245
 O409 O 0.78641 0.75323 0.52810
 O410 O 0.74716 0.71382 0.47252
 Cu411 Cu 0.73022 0.77017 0.50018
 Cu412 Cu 0.77016 0.73013 0.50033
 C413 C 0.72390 0.72385 0.46280
 C414 C 0.77639 0.77656 0.53770
 C415 C 0.77656 0.77619 0.46269
 C416 C 0.72393 0.72400 0.53781
 O417 O 0.97321 0.25295 0.21351
 O418 O 1.02901 0.21378 0.25267
 O419 O 0.97326 0.21380 0.25279
 O420 O 1.02896 0.25315 0.21361
 O421 O 1.02892 0.28646 0.24690
 O422 O 0.97323 0.24713 0.28605
 O423 O 1.02898 0.24709 0.28596
 O424 O 0.97316 0.28627 0.24677
 Cu425 Cu 1.00111 0.23008 0.22981
 Cu426 Cu 1.00107 0.27008 0.26975
 C427 C 0.96348 0.27622 0.22352
 C428 C 1.03870 0.22381 0.27593
 C429 C 0.96356 0.22383 0.27604
 C430 C 1.03863 0.27645 0.22365
 O431 O 0.52798 0.28561 0.74724
 O432 O 0.47250 0.24625 0.78666
 O433 O 0.52825 0.24640 0.78645
 O434 O 0.47225 0.28552 0.74751
 O435 O 0.47218 0.25219 0.71424
 O436 O 0.52820 0.21307 0.75318
 O437 O 0.47244 0.21291 0.75340
 O438 O 0.52792 0.25229 0.71397
 Cu439 Cu 0.50025 0.26928 0.77030
 Cu440 Cu 0.50018 0.22927 0.73037
 C441 C 0.53760 0.27560 0.72395
 C442 C 0.46281 0.22293 0.77667
 C443 C 0.53797 0.22314 0.77639
 C444 C 0.46249 0.27546 0.72429
 O445 O 0.02733 0.25235 0.78605
 O446 O -0.02857 0.21326 0.74690
 O447 O 0.02719 0.21306 0.74688
 O448 O -0.02840 0.25267 0.78592
 O449 O -0.02823 0.28591 0.75258
 O450 O 0.02734 0.24632 0.71356
 O451 O -0.02840 0.24650 0.71356
 O452 O 0.02749 0.28561 0.75272
 Cu453 Cu -0.00063 0.22950 0.76977
 Cu454 Cu -0.00043 0.26941 0.72976
 C455 C 0.03711 0.27559 0.77601
 C456 C -0.03821 0.22328 0.72363
 C457 C 0.03693 0.22301 0.72362
 C458 C -0.03798 0.27598 0.77585
 O459 O 0.52727 0.24658 0.21345
 O460 O 0.47181 0.28589 0.25293
 O461 O 0.52755 0.28577 0.25269
 O462 O 0.47152 0.24666 0.21372
 O463 O 0.47159 0.21331 0.24696
 O464 O 0.52762 0.25242 0.28592
 O465 O 0.47189 0.25254 0.28617
 O466 O 0.52734 0.21322 0.24667
 Cu467 Cu 0.49952 0.26956 0.22987
 Cu468 Cu 0.49962 0.22953 0.26975
 C469 C 0.53696 0.22327 0.22340
 C470 C 0.46221 0.27586 0.27622
 C471 C 0.53732 0.27570 0.27589
 C472 C 0.46181 0.22338 0.22376
 O473 O 0.97272 0.75357 0.71358
 O474 O 1.02835 0.71406 0.75261
 O475 O 0.97262 0.71427 0.75272
 O476 O 1.02847 0.75343 0.71357
 O477 O 1.02859 0.78668 0.74691
 O478 O 0.97274 0.74754 0.78604
 O479 O 1.02847 0.74731 0.78596
 O480 O 0.97284 0.78684 0.74691
 Cu481 Cu 1.00052 0.73051 0.72978
 Cu482 Cu 1.00067 0.77043 0.76979
 C483 C 0.96309 0.77687 0.72365
 C484 C 1.03808 0.72401 0.77588
 C485 C 0.96298 0.72429 0.77600
 C486 C 1.03825 0.77667 0.72364
 O487 O 0.52811 0.78649 0.24685
 O488 O 0.47215 0.74738 0.28593
 O489 O 0.52789 0.74735 0.28615
 O490 O 0.47236 0.78673 0.24685
 O491 O 0.47231 0.75340 0.21359
 O492 O 0.52788 0.71402 0.25289
 O493 O 0.47214 0.71406 0.25267
 O494 O 0.52806 0.75315 0.21360
 Cu495 Cu 0.50013 0.77033 0.26978
 Cu496 Cu 0.50010 0.73032 0.22985
 C497 C 0.53781 0.77642 0.22362
 C498 C 0.46242 0.72411 0.27590
 C499 C 0.53755 0.72404 0.27616
 C500 C 0.46267 0.77672 0.22359
 O501 O -0.02839 0.78639 0.25319
 O502 O 0.02738 0.74732 0.21388
 O503 O -0.02835 0.74715 0.21398
 O504 O 0.02735 0.78658 0.25306
 O505 O 0.02749 0.75326 0.28632
 O506 O -0.02822 0.71383 0.24725
 O507 O 0.02751 0.71399 0.24713
 O508 O -0.02825 0.75307 0.28645
 Cu509 Cu -0.00052 0.77020 0.23020
 Cu510 Cu -0.00035 0.73020 0.27012
 C511 C -0.03802 0.77633 0.27645
 C512 C 0.03713 0.72405 0.22386
 C513 C -0.03797 0.72383 0.22401
 C514 C 0.03710 0.77658 0.27629
 O515 O 0.47169 0.78683 0.75317
 O516 O 0.52764 0.74767 0.71418
 O517 O 0.47191 0.74759 0.71396
 O518 O 0.52744 0.78702 0.75327
 O519 O 0.52743 0.75372 0.78656
 O520 O 0.47188 0.71430 0.74725
 O521 O 0.52761 0.71438 0.74747
 O522 O 0.47168 0.75354 0.78645
 Cu523 Cu 0.49967 0.77062 0.73031
 Cu524 Cu 0.49965 0.73066 0.77027
 C525 C 0.46195 0.77679 0.77639
 C526 C 0.53735 0.72440 0.72424
 C527 C 0.46224 0.72429 0.72396
 C528 C 0.53711 0.77702 0.77654
 C529 C 0.40500 0.33027 0.29418
 C530 C 0.39316 0.31880 0.31926
 C531 C 0.40503 0.29367 0.33065
 C532 C 0.42777 0.28001 0.31696
 C533 C 0.43918 0.29117 0.29157
 C534 C 0.42773 0.31661 0.28050
 H535 H 0.39647 0.34963 0.28483
 H536 H 0.39652 0.28426 0.34996
 H537 H 0.43613 0.26047 0.32608
 H538 H 0.43607 0.32580 0.26100
 C539 C 0.40415 0.83079 0.79380
 C540 C 0.39217 0.81937 0.81894
 C541 C 0.40436 0.79436 0.83047
 C542 C 0.42728 0.78087 0.81693
 C543 C 0.43870 0.79198 0.79155
 C544 C 0.42708 0.81725 0.78031
 H545 H 0.39564 0.85003 0.78419
 H546 H 0.39602 0.78484 0.84981
 H547 H 0.43580 0.76146 0.82620
 H548 H 0.43543 0.82641 0.76081
 C549 C -0.09527 0.33049 0.79333
 C550 C -0.10711 0.31919 0.81849
 C551 C -0.09522 0.29414 0.83006
 C552 C -0.07247 0.28041 0.81649
 C553 C -0.06104 0.29139 0.79104
 C554 C -0.07251 0.31674 0.77977
 H555 H -0.10382 0.34976 0.78384
 H556 H -0.10373 0.28486 0.84944
 H557 H -0.06410 0.26094 0.82577
 H558 H -0.06416 0.32579 0.76021
 C559 C -0.09552 0.83050 0.29421
 C560 C -0.10752 0.81903 0.31931
 C561 C -0.09546 0.79390 0.33071
 C562 C -0.07262 0.78035 0.31707
 C563 C -0.06118 0.79153 0.29172
 C564 C -0.07269 0.81691 0.28062
 H565 H -0.10393 0.84983 0.28470
 H566 H -0.10383 0.78433 0.35001
 H567 H -0.06419 0.76085 0.32622
 H568 H -0.06431 0.82613 0.26116
 C569 C 0.59481 0.70624 0.33051
 C570 C 0.60668 0.68112 0.31909
 C571 C 0.59483 0.66965 0.29400
 C572 C 0.57207 0.68331 0.28035
 C573 C 0.56061 0.70873 0.29146
 C574 C 0.57205 0.71988 0.31685
 H575 H 0.60333 0.71564 0.34982
 H576 H 0.60336 0.65031 0.28463
 H577 H 0.56372 0.67413 0.26085
 H578 H 0.56368 0.73941 0.32600
 C579 C 0.59585 0.16921 0.79372
 C580 C 0.60787 0.18065 0.81883
 C581 C 0.59568 0.20566 0.83037
 C582 C 0.57272 0.21913 0.81687
 C583 C 0.56126 0.20798 0.79151
 C584 C 0.57289 0.18272 0.78026
 H585 H 0.60436 0.14997 0.78409
 H586 H 0.60405 0.21521 0.84969
 H587 H 0.56420 0.23853 0.82614
 H588 H 0.56450 0.17353 0.76078
 C589 C 1.09540 0.66955 0.79341
 C590 C 1.10725 0.68088 0.81855
 C591 C 1.09537 0.70594 0.83010
 C592 C 1.07260 0.71965 0.81652
 C593 C 1.06116 0.70863 0.79108
 C594 C 1.07263 0.68327 0.77983
 H595 H 1.10395 0.65026 0.78393
 H596 H 1.10389 0.71525 0.84946
 H597 H 1.06423 0.73913 0.82578
 H598 H 1.06428 0.67419 0.76029
 C599 C 1.09629 0.16963 0.29344
 C600 C 1.10824 0.18098 0.31861
 C601 C 1.09611 0.20603 0.33014
 C602 C 1.07327 0.21962 0.31655
 C603 C 1.06187 0.20856 0.29113
 C604 C 1.07344 0.18326 0.27990
 H605 H 1.10475 0.15036 0.28382
 H606 H 1.10444 0.21551 0.34951
 H607 H 1.06480 0.23906 0.32581
 H608 H 1.06510 0.17413 0.26037
 C609 C 0.59480 0.33006 0.70602
 C610 C 0.60664 0.31860 0.68094
 C611 C 0.59479 0.29345 0.66954
 C612 C 0.57206 0.27978 0.68322
 C613 C 0.56063 0.29093 0.70861
 C614 C 0.57207 0.31638 0.71969
 H615 H 0.60332 0.34943 0.71538
 H616 H 0.60332 0.28405 0.65023
 H617 H 0.56371 0.26023 0.67410
 H618 H 0.56372 0.32556 0.73919
 C619 C 0.59536 0.79392 0.16947
 C620 C 0.60748 0.81901 0.18091
 C621 C 0.59549 0.83049 0.20601
 C622 C 0.57260 0.81694 0.21956
 C623 C 0.56103 0.79159 0.20841
 C624 C 0.57248 0.78041 0.18307
 H625 H 0.60372 0.78435 0.15016
 H626 H 0.60395 0.84980 0.21555
 H627 H 0.56423 0.82615 0.23902
 H628 H 0.56400 0.76094 0.17388
 C629 C 1.09616 0.33073 0.20617
 C630 C 1.10818 0.31934 0.18105
 C631 C 1.09610 0.29426 0.16953
 C632 C 1.07325 0.28066 0.18308
 C633 C 1.06179 0.29174 0.20846
 C634 C 1.07330 0.31709 0.21967
 H635 H 1.10458 0.35002 0.21577
 H636 H 1.10449 0.28475 0.15020
 H637 H 1.06481 0.26120 0.17384
 H638 H 1.06490 0.32623 0.23916
 C639 C 1.09602 0.83070 0.70622
 C640 C 1.10799 0.81931 0.68107
 C641 C 1.09580 0.79430 0.66952
 C642 C 1.07288 0.78078 0.68306
 C643 C 1.06148 0.79187 0.70846
 C644 C 1.07311 0.81715 0.71971
 H645 H 1.10453 0.84994 0.71585
 H646 H 1.10414 0.78479 0.65017
 H647 H 1.06436 0.76137 0.67379
 H648 H 1.06476 0.82630 0.73922
 C649 C 0.40504 0.70636 0.66958
 C650 C 0.39318 0.68123 0.68100
 C651 C 0.40502 0.66981 0.70610
 C652 C 0.42775 0.68351 0.71977
 C653 C 0.43920 0.70895 0.70866
 C654 C 0.42778 0.72006 0.68325
 H655 H 0.39653 0.71574 0.65025
 H656 H 0.39649 0.65047 0.71548
 H657 H 0.43609 0.67436 0.73928
 H658 H 0.43614 0.73959 0.67410
 C659 C 0.40415 0.20578 0.16974
 C660 C 0.39199 0.18075 0.18127
 C661 C 0.40401 0.16934 0.20639
 C662 C 0.42694 0.18290 0.21986
 C663 C 0.43854 0.20819 0.20863
 C664 C 0.42708 0.21930 0.18326
 H665 H 0.39578 0.21531 0.15041
 H666 H 0.39552 0.15008 0.21600
 H667 H 0.43533 0.17374 0.23935
 H668 H 0.43557 0.23872 0.17400
 C669 C -0.09533 0.70590 0.16981
 C670 C -0.10722 0.68082 0.18131
 C671 C -0.09535 0.66943 0.20641
 C672 C -0.07255 0.68312 0.21999
 C673 C -0.06108 0.70850 0.20880
 C674 C -0.07254 0.71958 0.18340
 H675 H -0.10386 0.71525 0.15048
 H676 H -0.10390 0.65012 0.21585
 H677 H -0.06419 0.67399 0.23951
 H678 H -0.06416 0.73907 0.17418
 C679 C -0.09600 0.16927 0.70618
 C680 C -0.10797 0.18068 0.68104
 C681 C -0.09577 0.20569 0.66950
 C682 C -0.07285 0.21920 0.68305
 C683 C -0.06145 0.20809 0.70844
 C684 C -0.07308 0.18282 0.71968
 H685 H -0.10452 0.15003 0.71579
 H686 H -0.10411 0.21520 0.65016
 H687 H -0.06432 0.23861 0.67379
 H688 H -0.06474 0.17366 0.73918
 C689 C 0.33013 0.40506 0.29415
 C690 C 0.31866 0.39321 0.31922
 C691 C 0.29350 0.40506 0.33059
 C692 C 0.27984 0.42779 0.31689
 C693 C 0.29101 0.43921 0.29150
 C694 C 0.31647 0.42778 0.28045
 H695 H 0.34950 0.39654 0.28481
 H696 H 0.28409 0.39654 0.34989
 H697 H 0.26029 0.43614 0.32599
 H698 H 0.32567 0.43612 0.26096
 C699 C 0.33067 -0.09617 0.79375
 C700 C 0.31933 -0.10819 0.81889
 C701 C 0.29424 -0.09614 0.83042
 C702 C 0.28061 -0.07331 0.81686
 C703 C 0.29166 -0.06185 0.79147
 C704 C 0.31700 -0.07333 0.78024
 H705 H 0.34996 -0.10457 0.78414
 H706 H 0.28477 -0.10452 0.84976
 H707 H 0.26116 -0.06489 0.82611
 H708 H 0.32611 -0.06494 0.76073
 C709 C 0.83050 0.40451 0.79388
 C710 C 0.81907 0.39251 0.81900
 C711 C 0.79400 0.40463 0.83047
 C712 C 0.78046 0.42750 0.81689
 C713 C 0.79160 0.43895 0.79153
 C714 C 0.81692 0.42738 0.78034
 H715 H 0.84978 0.39605 0.78430
 H716 H 0.78446 0.39626 0.84979
 H717 H 0.76102 0.43597 0.82611
 H718 H 0.82610 0.43576 0.76086
 C719 C 0.83079 -0.09516 0.29374
 C720 C 0.81939 -0.10697 0.31887
 C721 C 0.79436 -0.09502 0.33038
 C722 C 0.78073 -0.07222 0.31678
 C723 C 0.79181 -0.06082 0.29135
 C724 C 0.81716 -0.07235 0.28015
 H725 H 0.85007 -0.10376 0.28430
 H726 H 0.78500 -0.10351 0.34972
 H727 H 0.76126 -0.06379 0.32599
 H728 H 0.82629 -0.06403 0.26062
 C729 C 0.33028 0.59482 0.70607
 C730 C 0.31880 0.60665 0.68099
 C731 C 0.29368 0.59474 0.66959
 C732 C 0.28006 0.57197 0.68326
 C733 C 0.29122 0.56055 0.70864
 C734 C 0.31665 0.57205 0.71973
 H735 H 0.34962 0.60338 0.71543
 H736 H 0.28426 0.60325 0.65028
 H737 H 0.26053 0.56358 0.67413
 H738 H 0.32584 0.56372 0.73923
 C739 C 0.33058 1.09617 0.20645
 C740 C 0.31923 1.10817 0.18130
 C741 C 0.29417 1.09607 0.16977
 C742 C 0.28056 1.07322 0.18331
 C743 C 0.29161 1.06177 0.20871
 C744 C 0.31693 1.07330 0.21995
 H745 H 0.34986 1.10461 0.21607
 H746 H 0.28469 1.10444 0.15042
 H747 H 0.26112 1.06477 0.17405
 H748 H 0.32605 1.06492 0.23946
 C749 C 0.79384 0.59540 0.16935
 C750 C 0.81894 0.60752 0.18078
 C751 C 0.83043 0.59550 0.20586
 C752 C 0.81688 0.57260 0.21940
 C753 C 0.79154 0.56104 0.20826
 C754 C 0.78034 0.57250 0.18293
 H755 H 0.78426 0.60378 0.15005
 H756 H 0.84973 0.60396 0.21540
 H757 H 0.82611 0.56421 0.23885
 H758 H 0.76087 0.56402 0.17375
 C759 C 0.83058 1.09622 0.70627
 C760 C 0.81920 1.10820 0.68113
 C761 C 0.79411 1.09611 0.66964
 C762 C 0.78051 1.07327 0.68324
 C763 C 0.79160 1.06185 0.70863
 C764 C 0.81694 1.07338 0.71982
 H765 H 0.84987 1.10465 0.71586
 H766 H 0.78461 1.10446 0.65030
 H767 H 0.76105 1.06482 0.67402
 H768 H 0.82609 1.06501 0.73932
 C769 C 0.66967 0.59481 0.29395
 C770 C 0.68114 0.60665 0.31904
 C771 C 0.70626 0.59477 0.33044
 C772 C 0.71991 0.57202 0.31676
 C773 C 0.70875 0.56059 0.29137
 C774 C 0.68332 0.57205 0.28028
 H775 H 0.65033 0.60335 0.28460
 H776 H 0.71567 0.60329 0.34975
 H777 H 0.73944 0.56365 0.32589
 H778 H 0.67414 0.56371 0.26078
 C779 C 0.70587 1.09622 0.83023
 C780 C 0.68077 1.10826 0.81872
 C781 C 0.66940 1.09620 0.79360
 C782 C 0.68306 1.07335 0.78009
 C783 C 0.70841 1.06188 0.79131
 C784 C 0.71948 1.07338 0.81668
 H785 H 0.71536 1.10463 0.84955
 H786 H 0.65010 1.10460 0.78400
 H787 H 0.67392 1.06493 0.76061
 H788 H 0.73895 1.06497 0.82592
 C789 C 0.16955 0.59548 0.79403
 C790 C 0.18103 0.60752 0.81912
 C791 C 0.20610 0.59540 0.83058
 C792 C 0.21959 0.57248 0.81703
 C793 C 0.20841 0.56100 0.79169
 C794 C 0.18309 0.57257 0.78052
 H795 H 0.15027 0.60394 0.78447
 H796 H 0.21567 0.60379 0.84988
 H797 H 0.23904 0.56401 0.82624
 H798 H 0.17388 0.56416 0.76106
 C799 C 0.16947 1.09629 0.29349
 C800 C 0.18080 1.10824 0.31868
 C801 C 0.20580 1.09608 0.33025
 C802 C 0.21938 1.07321 0.31670
 C803 C 0.20835 1.06182 0.29126
 C804 C 0.18308 1.07342 0.27998
 H805 H 0.15024 1.10479 0.28384
 H806 H 0.21526 1.10440 0.34963
 H807 H 0.23878 1.06471 0.32599
 H808 H 0.17399 1.06508 0.26044
 C809 C 0.66959 0.40501 0.70603
 C810 C 0.68103 0.39319 0.68092
 C811 C 0.70612 0.40511 0.66949
 C812 C 0.71976 0.42788 0.68315
 C813 C 0.70864 0.43928 0.70856
 C814 C 0.68324 0.42778 0.71968
 H815 H 0.65027 0.39644 0.71541
 H816 H 0.71551 0.39661 0.65016
 H817 H 0.73927 0.43628 0.67399
 H818 H 0.67408 0.43611 0.73920
 C819 C 0.66943 -0.09523 0.20647
 C820 C 0.68076 -0.10709 0.18134
 C821 C 0.70580 -0.09519 0.16976
 C822 C 0.71949 -0.07238 0.18331
 C823 C 0.70848 -0.06092 0.20874
 C824 C 0.68314 -0.07242 0.22001
 H825 H 0.65016 -0.10380 0.21596
 H826 H 0.71510 -0.10372 0.15041
 H827 H 0.73895 -0.06399 0.17403
 H828 H 0.67406 -0.06405 0.23955
 C829 C 0.20580 0.40425 0.16955
 C830 C 0.18075 0.39210 0.18105
 C831 C 0.16930 0.40412 0.20615
 C832 C 0.18284 0.42706 0.21964
 C833 C 0.20815 0.43865 0.20845
 C834 C 0.21930 0.42718 0.18310
 H835 H 0.21535 0.39587 0.15024
 H836 H 0.15003 0.39564 0.21573
 H837 H 0.17365 0.43545 0.23912
 H838 H 0.23874 0.43567 0.17387
 C839 C 0.16945 -0.09625 0.70640
 C840 C 0.18083 -0.10822 0.68125
 C841 C 0.20591 -0.09613 0.66977
 C842 C 0.21952 -0.07330 0.68338
 C843 C 0.20843 -0.06189 0.70878
 C844 C 0.18309 -0.07342 0.71996
 H845 H 0.15015 -0.10469 0.71597
 H846 H 0.21541 -0.10448 0.65042
 H847 H 0.23898 -0.06485 0.67416
 H848 H 0.17395 -0.06506 0.73947
 C849 C 0.29370 0.33030 0.40563
 C850 C 0.31882 0.31888 0.39376
 C851 C 0.33033 0.29380 0.40564
 C852 C 0.31672 0.28015 0.42840
 C853 C 0.29128 0.29125 0.43985
 C854 C 0.28009 0.31664 0.42839
 H855 H 0.28426 0.34961 0.39708
 H856 H 0.34967 0.28442 0.39711
 H857 H 0.32593 0.26065 0.43676
 H858 H 0.26056 0.32579 0.43675
 C859 C 0.29406 0.83037 -0.09520
 C860 C 0.31912 0.81886 -0.10711
 C861 C 0.33062 0.79381 -0.09518
 C862 C 0.31706 0.78027 -0.07231
 C863 C 0.29169 0.79147 -0.06082
 C864 C 0.28051 0.81683 -0.07234
 H865 H 0.28462 0.84967 -0.10378
 H866 H 0.34992 0.78436 -0.10375
 H867 H 0.32626 0.76078 -0.06391
 H868 H 0.26102 0.82605 -0.06395
 C869 C 0.79352 0.33085 -0.09514
 C870 C 0.81864 0.31944 -0.10702
 C871 C 0.83021 0.29441 -0.09511
 C872 C 0.81667 0.28078 -0.07230
 C873 C 0.79125 0.29186 -0.06084
 C874 C 0.77999 0.31721 -0.07232
 H875 H 0.78403 0.35012 -0.10371
 H876 H 0.84956 0.28505 -0.10366
 H877 H 0.82594 0.26131 -0.06392
 H878 H 0.76045 0.32633 -0.06394
 C879 C 0.79442 0.83030 0.40524
 C880 C 0.81943 0.81869 0.39332
 C881 C 0.83081 0.79356 0.40520
 C882 C 0.81718 0.78005 0.42804
 C883 C 0.79186 0.79135 0.43954
 C884 C 0.78080 0.81678 0.42807
 H885 H 0.78508 0.84965 0.39670
 H886 H 0.85007 0.78404 0.39662
 H887 H 0.82629 0.76051 0.43641
 H888 H 0.76135 0.82608 0.43647
 C889 C 0.66960 0.29367 0.59456
 C890 C 0.68100 0.31881 0.60642
 C891 C 0.70606 0.33036 0.59454
 C892 C 0.71971 0.31676 0.57176
 C893 C 0.70863 0.29131 0.56032
 C894 C 0.68326 0.28008 0.57178
 H895 H 0.65031 0.28420 0.60311
 H896 H 0.71542 0.34972 0.60307
 H897 H 0.73919 0.32601 0.56339
 H898 H 0.67413 0.26053 0.56343
 C899 C 0.70555 0.83016 1.09498
 C900 C 0.68054 0.81855 1.10690
 C901 C 0.66915 0.79341 1.09503
 C902 C 0.68278 0.77989 1.07219
 C903 C 0.70810 0.79119 1.06068
 C904 C 0.71917 0.81664 1.07215
 H905 H 0.71490 0.84953 1.10351
 H906 H 0.64990 0.78390 1.10362
 H907 H 0.67367 0.76034 1.06382
 H908 H 0.73861 0.82594 1.06375
 C909 C 0.20632 0.33040 1.09523
 C910 C 0.18123 0.31895 1.10714
 C911 C 0.16967 0.29390 1.09523
 C912 C 0.18320 0.28030 1.07239
 C913 C 0.20860 0.29142 1.06090
 C914 C 0.21984 0.31679 1.07238
 H915 H 0.21579 0.34969 1.10380
 H916 H 0.15035 0.28450 1.10379
 H917 H 0.17395 0.26082 1.06401
 H918 H 0.23936 0.32595 1.06399
 C919 C 0.16949 0.79390 0.59513
 C920 C 0.18103 0.81891 0.60711
 C921 C 0.20610 0.83043 0.59521
 C922 C 0.21962 0.81692 0.57231
 C923 C 0.20839 0.79158 0.56074
 C924 C 0.18301 0.78039 0.57222
 H925 H 0.15018 0.78446 0.60368
 H926 H 0.21557 0.84969 0.60383
 H927 H 0.23912 0.82613 0.56393
 H928 H 0.17377 0.76093 0.56378
 C929 C 0.33034 0.70611 0.59460
 C930 C 0.31884 0.68103 0.60649
 C931 C 0.29372 0.66959 0.59464
 C932 C 0.28011 0.68322 0.57186
 C933 C 0.29130 0.70860 0.56038
 C934 C 0.31673 0.71973 0.57182
 H935 H 0.34969 0.71550 0.60312
 H936 H 0.28428 0.65028 0.60319
 H937 H 0.26058 0.67406 0.56351
 H938 H 0.32595 0.73922 0.56344
 C939 C 0.29389 0.16958 1.09540
 C940 C 0.31893 0.18114 1.10732
 C941 C 0.33041 0.20620 1.09538
 C942 C 0.31684 0.21971 1.07250
 C943 C 0.29149 0.20846 1.06101
 C944 C 0.28033 0.18309 1.07253
 H945 H 0.28447 0.15027 1.10398
 H946 H 0.34969 0.21568 1.10395
 H947 H 0.32602 0.23921 1.06409
 H948 H 0.26085 0.17383 1.06414
 C949 C 0.83003 0.70569 1.09495
 C950 C 0.81844 0.68067 1.10686
 C951 C 0.79331 0.66927 1.09498
 C952 C 0.77978 0.68291 1.07214
 C953 C 0.79107 0.70825 1.06065
 C954 C 0.81650 0.71932 1.07213
 H955 H 0.84939 0.71505 1.10349
 H956 H 0.78381 0.65000 1.10354
 H957 H 0.76024 0.67379 1.06377
 H958 H 0.82579 0.73878 1.06374
 C959 C 0.83053 0.20618 0.59514
 C960 C 0.81901 0.18112 0.60705
 C961 C 0.79398 0.16958 0.59508
 C962 C 0.78049 0.18310 0.57218
 C963 C 0.79169 0.20848 0.56069
 C964 C 0.81702 0.21970 0.57224
 H965 H 0.84980 0.21564 0.60375
 H966 H 0.78454 0.15028 0.60364
 H967 H 0.76102 0.17387 0.56375
 H968 H 0.82624 0.23919 0.56385
 C969 C 0.70617 0.66955 0.40544
 C970 C 0.68108 0.68102 0.39357
 C971 C 0.66961 0.70611 0.40545
 C972 C 0.68323 0.71972 0.42824
 C973 C 0.70863 0.70857 0.43970
 C974 C 0.71979 0.68317 0.42823
 H975 H 0.71558 0.65022 0.39690
 H976 H 0.65029 0.71553 0.39691
 H977 H 0.67405 0.73924 0.43661
 H978 H 0.73929 0.67398 0.43660
 C979 C 0.66953 0.20636 -0.09541
 C980 C 0.68102 0.18129 -0.10732
 C981 C 0.70607 0.16978 -0.09539
 C982 C 0.71962 0.18333 -0.07253
 C983 C 0.70845 0.20872 -0.06103
 C984 C 0.68309 0.21992 -0.07254
 H985 H 0.65024 0.21581 -0.10399
 H986 H 0.71550 0.15047 -0.10395
 H987 H 0.73910 0.17411 -0.06413
 H988 H 0.67390 0.23942 -0.06415
 C989 C 0.16995 0.70572 -0.09506
 C990 C 0.18155 0.68070 -0.10698
 C991 C 0.20668 0.66933 -0.09510
 C992 C 0.22021 0.68298 -0.07227
 C993 C 0.20892 0.70831 -0.06077
 C994 C 0.18348 0.71936 -0.07224
 H995 H 0.15059 0.71506 -0.10359
 H996 H 0.21619 0.65007 -0.10368
 H997 H 0.23976 0.67388 -0.06391
 H998 H 0.17419 0.73881 -0.06384
 C999 C 0.16952 0.20612 0.40480
 C1000 C 0.18104 0.18109 0.39283
 C1001 C 0.20604 0.16951 0.40478
 C1002 C 0.21954 0.18297 0.42773
 C1003 C 0.20835 0.20831 0.43930
 C1004 C 0.18302 0.21957 0.42776
 H1005 H 0.15027 0.21561 0.39621
 H1006 H 0.21549 0.15023 0.39616
 H1007 H 0.23899 0.17371 0.43615
 H1008 H 0.17382 0.23904 0.43620
 C1009 C 0.33005 0.40474 0.70673
 C1010 C 0.31858 0.39281 0.68169
 C1011 C 0.29351 0.40472 0.67020
 C1012 C 0.27992 0.42759 0.68375
 C1013 C 0.29109 0.43912 0.70909
 C1014 C 0.31646 0.42761 0.72027
 H1015 H 0.34936 0.39618 0.71615
 H1016 H 0.28409 0.39614 0.65092
 H1017 H 0.26044 0.43599 0.67455
 H1018 H 0.32566 0.43602 0.73974
 C1019 C 0.33038 0.90599 0.20600
 C1020 C 0.31891 0.89411 0.18093
 C1021 C 0.29381 0.90601 0.16950
 C1022 C 0.28021 0.92883 0.18312
 C1023 C 0.29138 0.94030 0.20849
 C1024 C 0.31677 0.92880 0.21962
 H1025 H 0.34971 0.89743 0.21539
 H1026 H 0.28440 0.89747 0.15020
 H1027 H 0.26070 0.93722 0.17395
 H1028 H 0.32596 0.93718 0.23910
 C1029 C 0.83105 0.40530 0.20575
 C1030 C 0.81958 0.39338 0.18070
 C1031 C 0.79448 0.40524 0.16925
 C1032 C 0.78084 0.42805 0.18284
 C1033 C 0.79199 0.43955 0.20819
 C1034 C 0.81741 0.42811 0.21934
 H1035 H 0.85038 0.39676 0.21515
 H1036 H 0.78507 0.39667 0.14995
 H1037 H 0.76132 0.43641 0.17366
 H1038 H 0.82658 0.43650 0.23882
 C1039 C 0.83062 0.90610 0.70621
 C1040 C 0.81917 0.89420 0.68114
 C1041 C 0.79406 0.90607 0.66969
 C1042 C 0.78044 0.92888 0.68329
 C1043 C 0.79159 0.94038 0.70865
 C1044 C 0.81699 0.92892 0.71980
 H1045 H 0.84995 0.89756 0.71561
 H1046 H 0.78466 0.89751 0.65039
 H1047 H 0.76093 0.93725 0.67411
 H1048 H 0.82616 0.93731 0.73928
 C1049 C 0.66975 0.59507 0.70665
 C1050 C 0.68117 0.60695 0.68157
 C1051 C 0.70622 0.59503 0.67005
 C1052 C 0.71983 0.57218 0.68360
 C1053 C 0.70872 0.56069 0.70897
 C1054 C 0.68337 0.57221 0.72019
 H1055 H 0.65046 0.60364 0.71610
 H1056 H 0.71559 0.60358 0.65074
 H1057 H 0.73930 0.56378 0.67437
 H1058 H 0.67422 0.56383 0.73968
 C1059 C 0.66953 0.09452 0.20578
 C1060 C 0.68096 0.10636 0.18068
 C1061 C 0.70611 0.09453 0.16928
 C1062 C 0.71979 0.07181 0.18296
 C1063 C 0.70866 0.06038 0.20836
 C1064 C 0.68322 0.07181 0.21945
 H1065 H 0.65017 0.10304 0.21514
 H1066 H 0.71549 0.10305 0.14996
 H1067 H 0.73933 0.06346 0.17382
 H1068 H 0.67406 0.06346 0.23895
 C1069 C 0.20557 0.59454 0.16920
 C1070 C 0.18049 0.60646 0.18063
 C1071 C 0.16896 0.59455 0.20565
 C1072 C 0.18252 0.57170 0.21924
 C1073 C 0.20793 0.56020 0.20813
 C1074 C 0.21913 0.57168 0.18279
 H1075 H 0.21502 0.60310 0.14993
 H1076 H 0.14964 0.60312 0.21504
 H1077 H 0.17330 0.56331 0.23870
 H1078 H 0.23865 0.56329 0.17364
 C1079 C 0.16934 0.09374 0.70624
 C1080 C 0.18077 0.10559 0.68114
 C1081 C 0.20588 0.09372 0.66971
 C1082 C 0.21953 0.07095 0.68335
 C1083 C 0.20841 0.05951 0.70874
 C1084 C 0.18300 0.07097 0.71987
 H1085 H 0.15001 0.10228 0.71563
 H1086 H 0.21526 0.10224 0.65039
 H1087 H 0.23904 0.06258 0.67417
 H1088 H 0.17384 0.06262 0.73937
 C1089 C 0.29329 0.59497 0.32992
 C1090 C 0.31840 0.60686 0.31846
 C1091 C 0.32986 0.59494 0.29342
 C1092 C 0.31625 0.57208 0.27986
 C1093 C 0.29086 0.56059 0.29102
 C1094 C 0.27969 0.57212 0.31635
 H1095 H 0.28388 0.60355 0.34920
 H1096 H 0.34919 0.60349 0.28402
 H1097 H 0.32544 0.56367 0.26040
 H1098 H 0.26018 0.56373 0.32554
 C1099 C 0.33043 0.09385 0.79432
 C1100 C 0.31893 0.10574 0.81937
 C1101 C 0.29379 0.09386 0.83075
 C1102 C 0.28018 0.07106 0.81711
 C1103 C 0.29138 0.05958 0.79176
 C1104 C 0.31681 0.07105 0.78068
 H1105 H 0.34978 0.10239 0.78498
 H1106 H 0.28435 0.10241 0.85003
 H1107 H 0.26065 0.06268 0.82623
 H1108 H 0.32604 0.06267 0.76122
 C1109 C 0.79439 0.59476 0.83058
 C1110 C 0.81945 0.60669 0.81907
 C1111 C 0.83089 0.59480 0.79400
 C1112 C 0.81726 0.57196 0.78044
 C1113 C 0.79190 0.56045 0.79163
 C1114 C 0.78078 0.57191 0.81701
 H1115 H 0.78501 0.60330 0.84989
 H1116 H 0.85018 0.60339 0.78456
 H1117 H 0.82642 0.56359 0.76094
 H1118 H 0.76130 0.56351 0.82622
 C1119 C 0.83099 0.09477 0.29361
 C1120 C 0.81963 0.10660 0.31875
 C1121 C 0.79456 0.09472 0.33025
 C1122 C 0.78086 0.07195 0.31664
 C1123 C 0.79191 0.06052 0.29121
 C1124 C 0.81728 0.07200 0.28001
 H1125 H 0.85029 0.10333 0.28417
 H1126 H 0.78523 0.10322 0.34961
 H1127 H 0.76137 0.06357 0.32587
 H1128 H 0.82638 0.06365 0.26047
 C1129 C 0.66991 0.40484 0.29337
 C1130 C 0.68138 0.39295 0.31842
 C1131 C 0.70647 0.40485 0.32988
 C1132 C 0.72007 0.42770 0.31631
 C1133 C 0.70890 0.43920 0.29097
 C1134 C 0.68351 0.42769 0.27981
 H1135 H 0.65059 0.39628 0.28397
 H1136 H 0.71589 0.39629 0.34917
 H1137 H 0.73957 0.43610 0.32550
 H1138 H 0.67432 0.43609 0.26034
 C1139 C 0.70622 0.90610 0.83056
 C1140 C 0.68108 0.89423 0.81917
 C1141 C 0.66957 0.90614 0.79414
 C1142 C 0.68318 0.92895 0.78051
 C1143 C 0.70862 0.94041 0.79160
 C1144 C 0.71983 0.92892 0.81693
 H1145 H 0.71566 0.89754 0.84983
 H1146 H 0.65021 0.89760 0.78478
 H1147 H 0.67396 0.93734 0.76106
 H1148 H 0.73937 0.93728 0.82606
 C1149 C 0.20565 0.40510 0.83077
 C1150 C 0.18057 0.39319 0.81929
 C1151 C 0.16909 0.40510 0.79426
 C1152 C 0.18269 0.42796 0.78070
 C1153 C 0.20808 0.43945 0.79186
 C1154 C 0.21924 0.42796 0.81721
 H1155 H 0.21507 0.39654 0.85005
 H1156 H 0.14978 0.39653 0.78484
 H1157 H 0.17350 0.43634 0.76123
 H1158 H 0.23875 0.43635 0.82639
 C1159 C 0.20591 0.90607 0.33042
 C1160 C 0.18083 0.89415 0.31895
 C1161 C 0.16939 0.90600 0.29387
 C1162 C 0.18301 0.92882 0.28026
 C1163 C 0.20840 0.94034 0.29142
 C1164 C 0.21953 0.92889 0.31681
 H1165 H 0.21530 0.89755 0.34973
 H1166 H 0.15007 0.89743 0.28446
 H1167 H 0.17385 0.93717 0.26077
 H1168 H 0.23902 0.93729 0.32600
 C1169 C 0.40493 0.32968 0.70678
 C1170 C 0.39301 0.31823 0.68172
 C1171 C 0.40490 0.29314 0.67024
 C1172 C 0.42774 0.27953 0.68379
 C1173 C 0.43927 0.29069 0.70914
 C1174 C 0.42778 0.31607 0.72033
 H1175 H 0.39638 0.34900 0.71621
 H1176 H 0.39633 0.28374 0.65095
 H1177 H 0.43612 0.26004 0.67459
 H1178 H 0.43619 0.32525 0.73980
 C1179 C 0.40531 0.79456 0.16937
 C1180 C 0.39344 0.81966 0.18085
 C1181 C 0.40533 0.83110 0.20592
 C1182 C 0.42813 0.81744 0.21951
 C1183 C 0.43958 0.79203 0.20835
 C1184 C 0.42810 0.78091 0.18297
 H1185 H 0.39675 0.78517 0.15007
 H1186 H 0.39679 0.85042 0.21534
 H1187 H 0.43651 0.82660 0.23900
 H1188 H 0.43646 0.76140 0.17378
 C1189 C 0.90595 0.29375 0.16934
 C1190 C 0.89405 0.31887 0.18075
 C1191 C 0.90596 0.33040 0.20578
 C1192 C 0.92881 0.31683 0.21938
 C1193 C 0.94030 0.29142 0.20828
 C1194 C 0.92879 0.28019 0.18295
 H1195 H 0.89738 0.28429 0.15008
 H1196 H 0.89741 0.34975 0.21514
 H1197 H 0.93720 0.32607 0.23883
 H1198 H 0.93718 0.26067 0.17381
 C1199 C 0.90564 0.83119 0.70614
 C1200 C 0.89376 0.81979 0.68104
 C1201 C 0.90568 0.79474 0.66951
 C1202 C 0.92850 0.78111 0.68306
 C1203 C 0.93997 0.79219 0.70846
 C1204 C 0.92847 0.81755 0.71969
 H1205 H 0.89707 0.85048 0.71560
 H1206 H 0.89714 0.78538 0.65018
 H1207 H 0.93689 0.76163 0.67382
 H1208 H 0.93684 0.82667 0.73920
 C1209 C 0.59494 0.32989 0.29342
 C1210 C 0.60686 0.31842 0.31846
 C1211 C 0.59497 0.29332 0.32992
 C1212 C 0.57210 0.27973 0.31637
 C1213 C 0.56056 0.29091 0.29104
 C1214 C 0.57206 0.31630 0.27988
 H1215 H 0.60349 0.34922 0.28401
 H1216 H 0.60355 0.28390 0.34920
 H1217 H 0.56371 0.26023 0.32556
 H1218 H 0.56365 0.32550 0.26042
 C1219 C 0.59454 0.83134 0.79422
 C1220 C 0.60643 0.81988 0.81928
 C1221 C 0.59451 0.79480 0.83075
 C1222 C 0.57168 0.78119 0.81717
 C1223 C 0.56021 0.79232 0.79180
 C1224 C 0.57171 0.81771 0.78064
 H1225 H 0.60312 0.85065 0.78480
 H1226 H 0.60305 0.78540 0.85005
 H1227 H 0.56329 0.76168 0.82636
 H1228 H 0.56334 0.82688 0.76115
 C1229 C 0.09452 0.32988 0.79387
 C1230 C 0.10635 0.31841 0.81895
 C1231 C 0.09447 0.29327 0.83033
 C1232 C 0.07170 0.27964 0.81665
 C1233 C 0.06026 0.29082 0.79128
 C1234 C 0.07175 0.31624 0.78020
 H1235 H 0.10307 0.34924 0.78452
 H1236 H 0.10298 0.28386 0.84964
 H1237 H 0.06331 0.26011 0.82578
 H1238 H 0.06341 0.32545 0.76072
 C1239 C 0.09447 0.83100 0.29390
 C1240 C 0.10635 0.81960 0.31898
 C1241 C 0.09448 0.79450 0.33047
 C1242 C 0.07170 0.78082 0.31689
 C1243 C 0.06022 0.79191 0.29150
 C1244 C 0.07167 0.81731 0.28031
 H1245 H 0.10300 0.85032 0.28447
 H1246 H 0.10303 0.78514 0.34979
 H1247 H 0.06333 0.76132 0.32609
 H1248 H 0.06329 0.82644 0.26081
 C1249 C 0.59486 0.70664 0.67014
 C1250 C 0.60674 0.68155 0.68162
 C1251 C 0.59485 0.67013 0.70670
 C1252 C 0.57203 0.68378 0.72026
 C1253 C 0.56054 0.70915 0.70907
 C1254 C 0.57204 0.72027 0.68370
 H1255 H 0.60341 0.71601 0.65083
 H1256 H 0.60340 0.65082 0.71613
 H1257 H 0.56364 0.67462 0.73975
 H1258 H 0.56365 0.73976 0.67449
 C1259 C 0.59434 0.16901 0.20553
 C1260 C 0.60621 0.18054 0.18049
 C1261 C 0.59429 0.20563 0.16908
 C1262 C 0.57148 0.21921 0.18272
 C1263 C 0.56004 0.20801 0.20808
 C1264 C 0.57153 0.18260 0.21916
 H1265 H 0.60292 0.14968 0.21490
 H1266 H 0.60283 0.21508 0.14980
 H1267 H 0.56308 0.23873 0.17359
 H1268 H 0.56318 0.17338 0.23864
 C1269 C 0.09443 0.66971 0.20592
 C1270 C 0.10632 0.68123 0.18089
 C1271 C 0.09450 0.70641 0.16955
 C1272 C 0.07173 0.72004 0.18323
 C1273 C 0.06025 0.70881 0.20856
 C1274 C 0.07167 0.68335 0.21959
 H1275 H 0.10293 0.65032 0.21524
 H1276 H 0.10305 0.71586 0.15028
 H1277 H 0.06339 0.73960 0.17414
 H1278 H 0.06329 0.67411 0.23904
 C1279 C 0.09431 0.16861 0.70610
 C1280 C 0.10617 0.17998 0.68098
 C1281 C 0.09426 0.20502 0.66943
 C1282 C 0.07147 0.21870 0.68300
 C1283 C 0.06003 0.20765 0.70843
 C1284 C 0.07151 0.18230 0.71966
 H1285 H 0.10288 0.14933 0.71556
 H1286 H 0.10278 0.21435 0.65009
 H1287 H 0.06308 0.23817 0.67375
 H1288 H 0.06315 0.17320 0.73919
 C1289 C 0.40486 0.70644 0.32998
 C1290 C 0.39295 0.68135 0.31850
 C1291 C 0.40485 0.66990 0.29344
 C1292 C 0.42770 0.68350 0.27989
 C1293 C 0.43922 0.70888 0.29107
 C1294 C 0.42771 0.72004 0.31642
 H1295 H 0.39630 0.71584 0.34927
 H1296 H 0.39628 0.65058 0.28402
 H1297 H 0.43610 0.67432 0.26042
 H1298 H 0.43611 0.73954 0.32563
 C1299 C 0.40544 0.20522 0.83093
 C1300 C 0.39354 0.18011 0.81950
 C1301 C 0.40543 0.16861 0.79446
 C1302 C 0.42824 0.18223 0.78085
 C1303 C 0.43972 0.20765 0.79196
 C1304 C 0.42826 0.21883 0.81732
 H1305 H 0.39689 0.21465 0.85022
 H1306 H 0.39687 0.14928 0.78508
 H1307 H 0.43661 0.17302 0.76138
 H1308 H 0.43664 0.23836 0.82647
 C1309 C 0.90557 0.66997 0.79378
 C1310 C 0.89371 0.68144 0.81885
 C1311 C 0.90558 0.70658 0.83026
 C1312 C 0.92837 0.72021 0.81661
 C1313 C 0.93983 0.70904 0.79125
 C1314 C 0.92835 0.68362 0.78014
 H1315 H 0.89703 0.65062 0.78441
 H1316 H 0.89705 0.71599 0.84956
 H1317 H 0.93675 0.73974 0.82576
 H1318 H 0.93672 0.67442 0.76066
 C1319 C 0.90610 0.16955 0.29374
 C1320 C 0.89424 0.18101 0.31882
 C1321 C 0.90616 0.20610 0.33028
 C1322 C 0.92897 0.21971 0.31666
 C1323 C 0.94043 0.20856 0.29129
 C1324 C 0.92892 0.18317 0.28014
 H1325 H 0.89753 0.15023 0.28434
 H1326 H 0.89763 0.21550 0.34958
 H1327 H 0.93738 0.23922 0.32584
 H1328 H 0.93727 0.17398 0.26065
 C1329 C 0.29349 0.32980 0.59542
 C1330 C 0.31857 0.31831 0.60730
 C1331 C 0.33004 0.29323 0.59541
 C1332 C 0.31646 0.27965 0.57257
 C1333 C 0.29108 0.29084 0.56108
 C1334 C 0.27991 0.31622 0.57259
 H1335 H 0.28408 0.34912 0.60398
 H1336 H 0.34935 0.28380 0.60395
 H1337 H 0.32565 0.26016 0.56418
 H1338 H 0.26042 0.32543 0.56420
 C1339 C 0.29378 0.83093 0.09468
 C1340 C 0.31894 0.81958 0.10653
 C1341 C 0.33050 0.79452 0.09466
 C1342 C 0.31692 0.78083 0.07190
 C1343 C 0.29147 0.79187 0.06045
 C1344 C 0.28021 0.81723 0.07191
 H1345 H 0.28430 0.85022 0.10322
 H1346 H 0.34987 0.78519 0.10318
 H1347 H 0.32619 0.76135 0.06353
 H1348 H 0.26065 0.82632 0.06355
 C1349 C 0.79432 0.33034 0.09463
 C1350 C 0.81940 0.31880 0.10645
 C1351 C 0.83076 0.29366 0.09457
 C1352 C 0.81704 0.28008 0.07181
 C1353 C 0.79166 0.29133 0.06038
 C1354 C 0.78061 0.31676 0.07187
 H1355 H 0.78499 0.34971 0.10317
 H1356 H 0.85006 0.28419 0.10308
 H1357 H 0.82615 0.26054 0.06342
 H1358 H 0.76112 0.32602 0.06353
 C1359 C 0.79406 0.83101 0.59493
 C1360 C 0.81919 0.81962 0.60680
 C1361 C 0.83068 0.79451 0.59497
 C1362 C 0.81707 0.78081 0.57223
 C1363 C 0.79164 0.79190 0.56076
 C1364 C 0.78045 0.81731 0.57218
 H1365 H 0.78463 0.85034 0.60343
 H1366 H 0.85003 0.78515 0.60351
 H1367 H 0.82628 0.76130 0.56390
 H1368 H 0.76092 0.82644 0.56381
 C1369 C 0.33004 0.70638 0.40481
 C1370 C 0.31852 0.68131 0.39291
 C1371 C 0.29342 0.66985 0.40479
 C1372 C 0.27986 0.68345 0.42762
 C1373 C 0.29108 0.70882 0.43913
 C1374 C 0.31648 0.71997 0.42764
 H1375 H 0.34936 0.71579 0.39627
 H1376 H 0.28397 0.65055 0.39623
 H1377 H 0.26036 0.67427 0.43600
 H1378 H 0.32571 0.73946 0.43604
 C1379 C 0.33043 0.20542 0.90557
 C1380 C 0.31892 0.18032 0.89372
 C1381 C 0.29377 0.16894 0.90556
 C1382 C 0.28015 0.18264 0.92830
 C1383 C 0.29137 0.20804 0.93975
 C1384 C 0.31681 0.21911 0.92830
 H1385 H 0.34980 0.21477 0.89705
 H1386 H 0.28432 0.14962 0.89704
 H1387 H 0.26061 0.17351 0.93666
 H1388 H 0.32605 0.23862 0.93665
 C1389 C 0.79422 0.66969 0.90518
 C1390 C 0.81928 0.68127 0.89332
 C1391 C 0.83063 0.70643 0.90519
 C1392 C 0.81693 0.71999 0.92796
 C1393 C 0.79157 0.70871 0.93941
 C1394 C 0.78053 0.68326 0.92794
 H1395 H 0.78490 0.65032 0.89665
 H1396 H 0.84991 0.71593 0.89666
 H1397 H 0.82602 0.73955 0.93634
 H1398 H 0.76106 0.67398 0.93630
 C1399 C 0.79472 0.16937 0.40513
 C1400 C 0.81978 0.18093 0.39326
 C1401 C 0.83118 0.20607 0.40513
 C1402 C 0.81751 0.21964 0.42792
 C1403 C 0.79214 0.20840 0.43937
 C1404 C 0.78107 0.18295 0.42791
 H1405 H 0.78537 0.15001 0.39660
 H1406 H 0.85047 0.21554 0.39659
 H1407 H 0.82663 0.23919 0.43628
 H1408 H 0.76158 0.17370 0.43627
 C1409 C 0.66992 0.29342 0.40474
 C1410 C 0.68136 0.31853 0.39285
 C1411 C 0.70642 0.33006 0.40475
 C1412 C 0.72002 0.31651 0.42758
 C1413 C 0.70888 0.29111 0.43906
 C1414 C 0.68352 0.27987 0.42757
 H1415 H 0.65062 0.28395 0.39618
 H1416 H 0.71581 0.34940 0.39620
 H1417 H 0.73949 0.32576 0.43597
 H1418 H 0.67436 0.26035 0.43595
 C1419 C 0.70623 0.83093 0.90532
 C1420 C 0.68106 0.81960 0.89346
 C1421 C 0.66950 0.79451 0.90528
 C1422 C 0.68309 0.78078 0.92800
 C1423 C 0.70855 0.79180 0.93947
 C1424 C 0.71981 0.81719 0.92806
 H1425 H 0.71571 0.85024 0.89682
 H1426 H 0.65012 0.78519 0.89675
 H1427 H 0.67382 0.76128 0.93633
 H1428 H 0.73937 0.82628 0.93643
 C1429 C 0.16932 0.29341 0.90535
 C1430 C 0.18071 0.31856 0.89350
 C1431 C 0.20576 0.33012 0.90540
 C1432 C 0.21941 0.31653 0.92818
 C1433 C 0.20833 0.29109 0.93963
 C1434 C 0.18297 0.27984 0.92814
 H1435 H 0.15003 0.28393 0.89679
 H1436 H 0.21512 0.34948 0.89689
 H1437 H 0.23888 0.32579 0.93657
 H1438 H 0.17385 0.26029 0.93649
 C1439 C 0.16925 0.79460 0.40524
 C1440 C 0.18078 0.81967 0.39337
 C1441 C 0.20592 0.83108 0.40523
 C1442 C 0.21951 0.81741 0.42799
 C1443 C 0.20829 0.79202 0.43945
 C1444 C 0.18285 0.78093 0.42800
 H1445 H 0.14990 0.78523 0.39671
 H1446 H 0.21537 0.85038 0.39669
 H1447 H 0.23906 0.82654 0.43635
 H1448 H 0.17362 0.76144 0.43636
 C1449 C 0.70617 0.66983 0.59525
 C1450 C 0.68112 0.68137 0.60715
 C1451 C 0.66969 0.70649 0.59527
 C1452 C 0.68331 0.72004 0.57245
 C1453 C 0.70866 0.70881 0.56096
 C1454 C 0.71978 0.68340 0.57243
 H1455 H 0.71555 0.65050 0.60379
 H1456 H 0.65041 0.71595 0.60384
 H1457 H 0.67416 0.73957 0.56408
 H1458 H 0.73925 0.67415 0.56404
 C1459 C 0.70595 0.16936 0.09439
 C1460 C 0.68081 0.18076 0.10623
 C1461 C 0.66932 0.20585 0.09437
 C1462 C 0.68295 0.21952 0.07163
 C1463 C 0.70839 0.20843 0.06020
 C1464 C 0.71958 0.18304 0.07165
 H1465 H 0.71538 0.15004 0.10292
 H1466 H 0.64996 0.21521 0.10288
 H1467 H 0.67374 0.23903 0.06328
 H1468 H 0.73912 0.17390 0.06330
 C1469 C 0.20590 0.66964 0.09464
 C1470 C 0.18080 0.68115 0.10648
 C1471 C 0.16942 0.70629 0.09462
 C1472 C 0.18311 0.71989 0.07187
 C1473 C 0.20850 0.70868 0.06044
 C1474 C 0.21959 0.68325 0.07190
 H1475 H 0.21525 0.65028 0.10317
 H1476 H 0.15010 0.71573 0.10314
 H1477 H 0.17398 0.73943 0.06351
 H1478 H 0.23909 0.67403 0.06356
 C1479 C 0.16912 0.20506 0.59479
 C1480 C 0.18065 0.17999 0.60666
 C1481 C 0.20579 0.16860 0.59482
 C1482 C 0.21940 0.18229 0.57207
 C1483 C 0.20819 0.20767 0.56062
 C1484 C 0.18273 0.21874 0.57204
 H1485 H 0.14975 0.21440 0.60330
 H1486 H 0.21525 0.14930 0.60336
 H1487 H 0.23895 0.17318 0.56373
 H1488 H 0.17350 0.23823 0.56368
   
