data_POSCAR
  _audit_creation_date              2014-09-24
  _audit_creation_method            'ToBaCCo'
  _symmetry_space_group_name_H-M    'P1'
  _symmetry_Int_Tables_number       1
  _symmetry_cell_setting            triclinic
  loop_
  _symmetry_equiv_pos_as_xyz
 x,y,z
_cell_length_a 88.9645
_cell_length_b 89.1492
_cell_length_c 89.3878
_cell_angle_alpha 90.001500
_cell_angle_beta 89.982000
_cell_angle_gamma 89.960100
loop_
  _atom_site_label
  _atom_site_type_symbol
  _atom_site_fract_x
  _atom_site_fract_y
  _atom_site_fract_z
N1 N 0.36487 0.32344 0.33379
 N2 N 0.36478 0.33406 0.32360
 C3 C 0.37649 0.33198 0.31427
 C4 C 0.38430 0.31933 0.31881
 C5 C 0.37656 0.31420 0.33124
 H6 H 0.37903 0.33900 0.30474
 H7 H 0.37931 0.30455 0.33804
 Cu8 Cu 0.34923 0.34942 0.32343
 Cu9 Cu 0.34992 0.32242 0.34970
 Cu10 Cu 0.32200 0.34957 0.34948
 N11 N 0.33356 0.36466 0.32352
 N12 N 0.32290 0.36458 0.33369
 C13 C 0.31361 0.37625 0.33128
 C14 C 0.31869 0.38414 0.31892
 C15 C 0.33140 0.37640 0.31429
 H16 H 0.30396 0.37884 0.33815
 H17 H 0.33851 0.37905 0.30485
 N18 N 0.32303 0.33350 0.36457
 N19 N 0.33380 0.32332 0.36482
 C20 C 0.33163 0.31420 0.37664
 C21 C 0.31882 0.31880 0.38415
 C22 C 0.31366 0.33105 0.37615
 H23 H 0.33872 0.30478 0.37949
 H24 H 0.30392 0.33783 0.37873
 H25 H 0.33298 0.33279 0.33783
 H26 H 0.34481 0.34503 0.35000
 N27 N 0.36470 0.82326 -0.16669
 N28 N 0.36454 0.83387 -0.17688
 C29 C 0.37628 0.83191 -0.18619
 C30 C 0.38430 0.81931 -0.18165
 C31 C 0.37650 0.81415 -0.16918
 H32 H 0.37870 0.83912 -0.19559
 H33 H 0.37920 0.80460 -0.16226
 Cu34 Cu 0.34901 0.84924 -0.17674
 Cu35 Cu 0.34980 0.82225 -0.15066
 Cu36 Cu 0.32244 0.85006 -0.15023
 N37 N 0.33369 0.86482 -0.17656
 N38 N 0.32338 0.86509 -0.16605
 C39 C 0.31431 0.87696 -0.16824
 C40 C 0.31915 0.88468 -0.18086
 C41 C 0.33153 0.87654 -0.18582
 H42 H 0.30490 0.87966 -0.16109
 H43 H 0.33853 0.87893 -0.19540
 N44 N 0.32342 0.83388 -0.13524
 N45 N 0.33377 0.82327 -0.13540
 C46 C 0.33143 0.81400 -0.12372
 C47 C 0.31901 0.81900 -0.11579
 C48 C 0.31424 0.83163 -0.12348
 H49 H 0.33837 0.80440 -0.12113
 H50 H 0.30472 0.83865 -0.12078
 H51 H 0.33276 0.83304 -0.16198
 H52 H 0.34513 0.84496 -0.15009
 N53 N 0.86457 0.32427 -0.16651
 N54 N 0.86398 0.33442 -0.17714
 C55 C 0.87568 0.33237 -0.18651
 C56 C 0.88396 0.32018 -0.18153
 C57 C 0.87655 0.31535 -0.16880
 H58 H 0.87784 0.33904 -0.19638
 H59 H 0.87969 0.30607 -0.16167
 Cu60 Cu 0.84777 0.34909 -0.17817
 Cu61 Cu 0.84969 0.32312 -0.15063
 Cu62 Cu 0.82011 0.34828 -0.15231
 N63 N 0.83305 0.36518 -0.17636
 N64 N 0.82239 0.36487 -0.16621
 C65 C 0.81345 0.37692 -0.16795
 C66 C 0.81870 0.38533 -0.17996
 C67 C 0.83125 0.37746 -0.18495
 H68 H 0.80363 0.37905 -0.16117
 H69 H 0.83844 0.38021 -0.19429
 N70 N 0.82217 0.33322 -0.13634
 N71 N 0.83349 0.32370 -0.13562
 C72 C 0.83172 0.31491 -0.12349
 C73 C 0.81867 0.31914 -0.11614
 C74 C 0.81294 0.33082 -0.12464
 H75 H 0.83940 0.30611 -0.12022
 H76 H 0.80271 0.33703 -0.12257
 H77 H 0.83257 0.33170 -0.16309
 H78 H 0.84309 0.34555 -0.15146
 N79 N 0.86411 0.82336 0.33347
 N80 N 0.86415 0.83412 0.32341
 C81 C 0.87587 0.83205 0.31409
 C82 C 0.88356 0.81927 0.31850
 C83 C 0.87573 0.81406 0.33084
 H84 H 0.87854 0.83921 0.30470
 H85 H 0.87840 0.80434 0.33757
 Cu86 Cu 0.84885 0.84974 0.32352
 Cu87 Cu 0.84926 0.82244 0.34945
 Cu88 Cu 0.82215 0.85042 0.35012
 N89 N 0.83343 0.86523 0.32386
 N90 N 0.82309 0.86548 0.33436
 C91 C 0.81395 0.87729 0.33209
 C92 C 0.81874 0.88496 0.31941
 C93 C 0.83118 0.87687 0.31453
 H94 H 0.80446 0.87992 0.33915
 H95 H 0.83815 0.87924 0.30492
 N96 N 0.82308 0.83418 0.36507
 N97 N 0.83331 0.82346 0.36475
 C98 C 0.83092 0.81408 0.37632
 C99 C 0.81860 0.81913 0.38436
 C100 C 0.81394 0.83191 0.37687
 H101 H 0.83774 0.80437 0.37881
 H102 H 0.80447 0.83895 0.37970
 H103 H 0.83232 0.83351 0.33808
 H104 H 0.84477 0.84521 0.35014
 N105 N 0.63553 0.67721 0.33367
 N106 N 0.63541 0.66653 0.32354
 C107 C 0.62359 0.66864 0.31436
 C108 C 0.61582 0.68131 0.31900
 C109 C 0.62380 0.68644 0.33130
 H110 H 0.62074 0.66137 0.30511
 H111 H 0.62131 0.69618 0.33805
 Cu112 Cu 0.65062 0.65081 0.32367
 Cu113 Cu 0.65059 0.67820 0.34946
 Cu114 Cu 0.67749 0.65004 0.35006
 N115 N 0.66609 0.63534 0.32376
 N116 N 0.67651 0.63509 0.33417
 C117 C 0.68572 0.62336 0.33175
 C118 C 0.68083 0.61576 0.31912
 C119 C 0.66832 0.62373 0.31436
 H120 H 0.69522 0.62057 0.33874
 H121 H 0.66143 0.62135 0.30470
 N122 N 0.67663 0.66620 0.36509
 N123 N 0.66669 0.67719 0.36457
 C124 C 0.66929 0.68668 0.37602
 C125 C 0.68132 0.68132 0.38422
 C126 C 0.68568 0.66832 0.37698
 H127 H 0.66274 0.69662 0.37840
 H128 H 0.69493 0.66107 0.38005
 H129 H 0.66733 0.66696 0.33801
 H130 H 0.65487 0.65541 0.35023
 N131 N 0.63512 0.17622 -0.16606
 N132 N 0.63501 0.16556 -0.17620
 C133 C 0.62323 0.16773 -0.18542
 C134 C 0.61550 0.18043 -0.18078
 C135 C 0.62344 0.18550 -0.16845
 H136 H 0.62042 0.16053 -0.19473
 H137 H 0.62102 0.19529 -0.16174
 Cu138 Cu 0.65024 0.14989 -0.17624
 Cu139 Cu 0.65026 0.17726 -0.15040
 Cu140 Cu 0.67788 0.14983 -0.15058
 N141 N 0.66597 0.13471 -0.17638
 N142 N 0.67677 0.13480 -0.16637
 C143 C 0.68608 0.12318 -0.16897
 C144 C 0.68085 0.11525 -0.18131
 C145 C 0.66802 0.12301 -0.18568
 H146 H 0.69587 0.12074 -0.16224
 H147 H 0.66069 0.12042 -0.19495
 N148 N 0.67704 0.16599 -0.13552
 N149 N 0.66651 0.17642 -0.13549
 C150 C 0.66880 0.18567 -0.12381
 C151 C 0.68137 0.18086 -0.11603
 C152 C 0.68631 0.16835 -0.12384
 H153 H 0.66182 0.19523 -0.12120
 H154 H 0.69584 0.16135 -0.12112
 H155 H 0.66696 0.16647 -0.16239
 H156 H 0.65518 0.15458 -0.14982
 N157 N 0.13688 0.67791 -0.16710
 N158 N 0.13514 0.66612 -0.17572
 C159 C 0.12251 0.66777 -0.18382
 C160 C 0.11593 0.68140 -0.18014
 C161 C 0.12547 0.68754 -0.16947
 H162 H 0.11854 0.65969 -0.19191
 H163 H 0.12434 0.69823 -0.16388
 Cu164 Cu 0.14984 0.65001 -0.17586
 Cu165 Cu 0.15420 0.68005 -0.15390
 Cu166 Cu 0.17412 0.64711 -0.14752
 N167 N 0.16588 0.63521 -0.17618
 N168 N 0.17537 0.63406 -0.16498
 C169 C 0.18473 0.62248 -0.16752
 C170 C 0.18093 0.61599 -0.18110
 C171 C 0.16891 0.62443 -0.18628
 H172 H 0.19338 0.61886 -0.15983
 H173 H 0.16274 0.62278 -0.19656
 N174 N 0.17562 0.66483 -0.13448
 N175 N 0.16823 0.67741 -0.13703
 C176 C 0.17149 0.68731 -0.12615
 C177 C 0.18154 0.68070 -0.11632
 C178 C 0.18395 0.66645 -0.12201
 H179 H 0.16688 0.69851 -0.12545
 H180 H 0.19109 0.65783 -0.11736
 H181 H 0.16908 0.66364 -0.16200
 H182 H 0.15310 0.65769 -0.14986
 N183 N 0.13523 0.17668 0.33359
 N184 N 0.13461 0.16549 0.32404
 C185 C 0.12274 0.16753 0.31489
 C186 C 0.11563 0.18077 0.31887
 C187 C 0.12390 0.18628 0.33076
 H188 H 0.11965 0.16011 0.30584
 H189 H 0.12169 0.19640 0.33704
 Cu190 Cu 0.14961 0.14955 0.32413
 Cu191 Cu 0.15037 0.17776 0.34925
 Cu192 Cu 0.17820 0.15065 0.34887
 N193 N 0.16573 0.13474 0.32387
 N194 N 0.17710 0.13555 0.33321
 C195 C 0.18676 0.12429 0.33033
 C196 C 0.18109 0.11588 0.31862
 C197 C 0.16771 0.12283 0.31481
 H198 H 0.19701 0.12219 0.33649
 H199 H 0.16013 0.11956 0.30594
 N200 N 0.17736 0.16677 0.36391
 N201 N 0.16661 0.17696 0.36419
 C202 C 0.16878 0.18602 0.37606
 C203 C 0.18154 0.18134 0.38359
 C204 C 0.18670 0.16912 0.37552
 H205 H 0.16165 0.19539 0.37897
 H206 H 0.19637 0.16226 0.37813
 H207 H 0.16659 0.16675 0.33688
 H208 H 0.15538 0.15509 0.35023
 N209 N 0.63548 0.32320 0.66653
 N210 N 0.63606 0.33320 0.67728
 C211 C 0.62433 0.33106 0.68659
 C212 C 0.61597 0.31901 0.68140
 C213 C 0.62344 0.31432 0.66863
 H214 H 0.62216 0.33770 0.69646
 H215 H 0.62030 0.30522 0.66129
 Cu216 Cu 0.65210 0.34803 0.67836
 Cu217 Cu 0.65029 0.32239 0.65058
 Cu218 Cu 0.67705 0.35040 0.64990
 N219 N 0.66671 0.36423 0.67701
 N220 N 0.67606 0.36537 0.66569
 C221 C 0.68468 0.37764 0.66755
 C222 C 0.68059 0.38451 0.68082
 C223 C 0.66915 0.37568 0.68653
 H224 H 0.69354 0.38108 0.66002
 H225 H 0.66301 0.37752 0.69681
 N226 N 0.67630 0.33421 0.63494
 N227 N 0.66616 0.32345 0.63530
 C228 C 0.66856 0.31405 0.62375
 C229 C 0.68083 0.31912 0.61566
 C230 C 0.68545 0.33194 0.62314
 H231 H 0.66191 0.30418 0.62149
 H232 H 0.69475 0.33915 0.62019
 H233 H 0.66768 0.33289 0.66174
 H234 H 0.65434 0.34530 0.65129
 N235 N 0.63585 0.82265 1.16668
 N236 N 0.63567 0.83338 1.17675
 C237 C 0.62390 0.83125 1.18597
 C238 C 0.61623 0.81848 1.18145
 C239 C 0.62422 0.81334 1.16915
 H240 H 0.62113 0.83846 1.19529
 H241 H 0.62168 0.80366 1.16233
 Cu242 Cu 0.65075 0.84921 1.17655
 Cu243 Cu 0.65085 0.82179 1.15080
 Cu244 Cu 0.67740 0.85027 1.14997
 N245 N 0.66603 0.86482 1.17637
 N246 N 0.67636 0.86521 1.16587
 C247 C 0.68548 0.87699 1.16828
 C248 C 0.68065 0.88448 1.18100
 C249 C 0.66825 0.87638 1.18582
 H250 H 0.69493 0.87985 1.16124
 H251 H 0.66142 0.87864 1.19556
 N252 N 0.67662 0.83408 1.13495
 N253 N 0.66686 0.82295 1.13559
 C254 C 0.66951 0.81347 1.12415
 C255 C 0.68138 0.81898 1.11583
 C256 C 0.68560 0.83207 1.12298
 H257 H 0.66310 0.80344 1.12184
 H258 H 0.69470 0.83943 1.11980
 H259 H 0.66756 0.83321 1.16210
 H260 H 0.65487 0.84461 1.14997
 N261 N 0.13510 0.32360 1.16642
 N262 N 0.13540 0.33401 1.17683
 C263 C 0.12385 0.33177 1.18632
 C264 C 0.11589 0.31926 1.18163
 C265 C 0.12341 0.31438 1.16895
 H266 H 0.12150 0.33865 1.19600
 H267 H 0.12054 0.30490 1.16199
 Cu268 Cu 0.15075 0.34956 1.17664
 Cu269 Cu 0.14993 0.32260 1.15041
 Cu270 Cu 0.17981 0.34746 1.15280
 N271 N 0.16648 0.36474 1.17653
 N272 N 0.17773 0.36391 1.16703
 C273 C 0.18699 0.37563 1.16922
 C274 C 0.18127 0.38434 1.18075
 C275 C 0.16823 0.37703 1.18512
 H276 H 0.19722 0.37751 1.16299
 H277 H 0.16055 0.38043 1.19385
 N278 N 0.17772 0.33264 1.13655
 N279 N 0.16623 0.32337 1.13551
 C280 C 0.16792 0.31486 1.12318
 C281 C 0.18112 0.31896 1.11603
 C282 C 0.18700 0.33031 1.12487
 H283 H 0.16013 0.30623 1.11977
 H284 H 0.19727 0.33649 1.12299
 H285 H 0.16645 0.33139 1.16350
 H286 H 0.15689 0.34489 1.15062
 N287 N 0.13664 0.82227 0.66724
 N288 N 0.13511 0.83393 0.67610
 C289 C 0.12260 0.83222 0.68439
 C290 C 0.11590 0.81872 0.68054
 C291 C 0.12518 0.81271 0.66961
 H292 H 0.11869 0.84021 0.69261
 H293 H 0.12391 0.80206 0.66396
 Cu294 Cu 0.14990 0.84998 0.67613
 Cu295 Cu 0.15382 0.82011 0.65385
 Cu296 Cu 0.17376 0.85301 0.64742
 N297 N 0.16596 0.86477 0.67629
 N298 N 0.17526 0.86598 0.66493
 C299 C 0.18466 0.87754 0.66737
 C300 C 0.18111 0.88395 0.68106
 C301 C 0.16919 0.87547 0.68641
 H302 H 0.19318 0.88117 0.65955
 H303 H 0.16319 0.87705 0.69680
 N304 N 0.17514 0.83530 0.63431
 N305 N 0.16774 0.82273 0.63689
 C306 C 0.17100 0.81280 0.62602
 C307 C 0.18106 0.81938 0.61618
 C308 C 0.18346 0.83363 0.62184
 H309 H 0.16643 0.80159 0.62537
 H310 H 0.19064 0.84223 0.61718
 H311 H 0.16890 0.83640 0.66186
 H312 H 0.15277 0.84249 0.65000
 N313 N 0.36485 0.67654 0.66593
 N314 N 0.36501 0.66580 0.67599
 C315 C 0.37668 0.66801 0.68533
 C316 C 0.38431 0.68082 0.68086
 C317 C 0.37642 0.68591 0.66849
 H318 H 0.37946 0.66079 0.69464
 H319 H 0.37878 0.69580 0.66192
 Cu320 Cu 0.34992 0.65000 0.67601
 Cu321 Cu 0.34967 0.67762 0.65028
 Cu322 Cu 0.32168 0.65067 0.65090
 N323 N 0.33394 0.63511 0.67624
 N324 N 0.32267 0.63575 0.66676
 C325 C 0.31308 0.62443 0.66962
 C326 C 0.31872 0.61615 0.68145
 C327 C 0.33198 0.62324 0.68536
 H328 H 0.30294 0.62217 0.66336
 H329 H 0.33951 0.62007 0.69431
 N330 N 0.32266 0.66662 0.63569
 N331 N 0.33336 0.67685 0.63540
 C332 C 0.33112 0.68593 0.62357
 C333 C 0.31840 0.68119 0.61597
 C334 C 0.31335 0.66891 0.62404
 H335 H 0.33834 0.69520 0.62061
 H336 H 0.30359 0.66213 0.62163
 H337 H 0.33320 0.66700 0.66266
 H338 H 0.34452 0.65499 0.64973
 N339 N 0.36481 0.17657 1.16603
 N340 N 0.36496 0.16584 1.17611
 C341 C 0.37674 0.16794 1.18533
 C342 C 0.38437 0.18069 1.18080
 C343 C 0.37645 0.18588 1.16852
 H344 H 0.37946 0.16085 1.19476
 H345 H 0.37905 0.19559 1.16177
 Cu346 Cu 0.34964 0.15030 1.17620
 Cu347 Cu 0.34973 0.17755 1.15026
 Cu348 Cu 0.32224 0.14997 1.15038
 N349 N 0.33405 0.13504 1.17634
 N350 N 0.32335 0.13500 1.16622
 C351 C 0.31410 0.12334 1.16879
 C352 C 0.31926 0.11559 1.18122
 C353 C 0.33196 0.12340 1.18571
 H354 H 0.30442 0.12066 1.16201
 H355 H 0.33909 0.12088 1.19517
 N356 N 0.32308 0.16608 1.13529
 N357 N 0.33353 0.17657 1.13525
 C358 C 0.33119 0.18575 1.12352
 C359 C 0.31865 0.18083 1.11574
 C360 C 0.31382 0.16832 1.12359
 H361 H 0.33821 0.19524 1.12078
 H362 H 0.30423 0.16136 1.12102
 H363 H 0.33300 0.16678 1.16211
 H364 H 0.34495 0.15486 1.14972
 N365 N 0.86427 0.67690 1.16619
 N366 N 0.86410 0.66644 1.17656
 C367 C 0.87588 0.66852 1.18579
 C368 C 0.88381 0.68100 1.18101
 C369 C 0.87607 0.68604 1.16854
 H370 H 0.87840 0.66160 1.19539
 H371 H 0.87892 0.69552 1.16157
 Cu372 Cu 0.84849 0.65117 1.17706
 Cu373 Cu 0.84935 0.67778 1.15030
 Cu374 Cu 0.82201 0.65016 1.15017
 N375 N 0.83325 0.63552 1.17654
 N376 N 0.82296 0.63521 1.16600
 C377 C 0.81395 0.62330 1.16819
 C378 C 0.81881 0.61565 1.18079
 C379 C 0.83111 0.62379 1.18579
 H380 H 0.80448 0.62051 1.16115
 H381 H 0.83808 0.62131 1.19538
 N382 N 0.82292 0.66623 1.13510
 N383 N 0.83331 0.67676 1.13514
 C384 C 0.83095 0.68601 1.12345
 C385 C 0.81845 0.68106 1.11564
 C386 C 0.81367 0.66849 1.12339
 H387 H 0.83791 0.69556 1.12077
 H388 H 0.80408 0.66153 1.12079
 H389 H 0.83230 0.66724 1.16193
 H390 H 0.84477 0.65501 1.15033
 N391 N 0.86484 0.17638 0.66607
 N392 N 0.86462 0.16596 0.67646
 C393 C 0.87630 0.16811 0.68580
 C394 C 0.88421 0.18060 0.68104
 C395 C 0.87658 0.18557 0.66849
 H396 H 0.87875 0.16125 0.69547
 H397 H 0.87939 0.19510 0.66156
 Cu398 Cu 0.84911 0.15061 0.67669
 Cu399 Cu 0.84984 0.17739 0.65023
 Cu400 Cu 0.81990 0.15266 0.65296
 N401 N 0.83341 0.13544 0.67658
 N402 N 0.82210 0.13624 0.66716
 C403 C 0.81285 0.12453 0.66947
 C404 C 0.81864 0.11588 0.68099
 C405 C 0.83172 0.12318 0.68522
 H406 H 0.80254 0.12265 0.66337
 H407 H 0.83946 0.11981 0.69391
 N408 N 0.82192 0.16738 0.63664
 N409 N 0.83342 0.17664 0.63548
 C410 C 0.83167 0.18507 0.62311
 C411 C 0.81845 0.18090 0.61606
 C412 C 0.81260 0.16961 0.62499
 H413 H 0.83949 0.19358 0.61946
 H414 H 0.80226 0.16350 0.62321
 H415 H 0.83336 0.16873 0.66350
 H416 H 0.84280 0.15508 0.65067
 N417 N 0.32317 0.36471 0.66632
 N418 N 0.33345 0.36425 0.67685
 C419 C 0.33128 0.37583 0.68629
 C420 C 0.31899 0.38406 0.68139
 C421 C 0.31413 0.37660 0.66867
 H422 H 0.33827 0.37821 0.69588
 H423 H 0.30469 0.37950 0.66165
 Cu424 Cu 0.34891 0.34883 0.67682
 Cu425 Cu 0.32232 0.34999 0.65020
 Cu426 Cu 0.34985 0.32240 0.65005
 N427 N 0.36416 0.33320 0.67681
 N428 N 0.36479 0.32325 0.66597
 C429 C 0.37677 0.31427 0.66814
 C430 C 0.38394 0.31874 0.68112
 C431 C 0.37559 0.33073 0.68637
 H432 H 0.37990 0.30503 0.66095
 H433 H 0.37791 0.33734 0.69625
 N434 N 0.33371 0.32345 0.63498
 N435 N 0.32337 0.33408 0.63490
 C436 C 0.31409 0.33184 0.62321
 C437 C 0.31874 0.31914 0.61561
 C438 C 0.33118 0.31409 0.62342
 H439 H 0.30448 0.33876 0.62056
 H440 H 0.33796 0.30439 0.62077
 H441 H 0.33273 0.33278 0.66173
 H442 H 0.34502 0.34507 0.65007
 N443 N 0.32293 0.86452 0.16595
 N444 N 0.33290 0.86374 0.17675
 C445 C 0.33082 0.87536 0.18615
 C446 C 0.31885 0.88389 0.18100
 C447 C 0.31413 0.87660 0.16814
 H448 H 0.33748 0.87739 0.19604
 H449 H 0.30507 0.87990 0.16079
 Cu450 Cu 0.34783 0.84779 0.17755
 Cu451 Cu 0.32220 0.84994 0.14980
 Cu452 Cu 0.34997 0.82280 0.14922
 N453 N 0.36369 0.83278 0.17651
 N454 N 0.36478 0.82340 0.16521
 C455 C 0.37697 0.81465 0.16716
 C456 C 0.38382 0.81868 0.18046
 C457 C 0.37507 0.83020 0.18610
 H458 H 0.38041 0.80580 0.15964
 H459 H 0.37699 0.83638 0.19633
 N460 N 0.33395 0.82395 0.13407
 N461 N 0.32331 0.83425 0.13435
 C462 C 0.31394 0.83197 0.12275
 C463 C 0.31887 0.81961 0.11475
 C464 C 0.33161 0.81482 0.12230
 H465 H 0.30410 0.83870 0.12044
 H466 H 0.33867 0.80539 0.11943
 H467 H 0.33244 0.83235 0.16102
 H468 H 0.34505 0.84546 0.15053
 N469 N 0.82215 0.36423 0.16605
 N470 N 0.83235 0.36389 0.17666
 C471 C 0.83019 0.37565 0.18587
 C472 C 0.81795 0.38382 0.18077
 C473 C 0.81315 0.37618 0.16815
 H474 H 0.83714 0.37815 0.19545
 H475 H 0.80378 0.37903 0.16101
 Cu476 Cu 0.84770 0.34833 0.17740
 Cu477 Cu 0.82151 0.34941 0.15012
 Cu478 Cu 0.85029 0.32330 0.14916
 N479 N 0.86384 0.33362 0.17641
 N480 N 0.86512 0.32426 0.16512
 C481 C 0.87740 0.31566 0.16716
 C482 C 0.88414 0.31979 0.18049
 C483 C 0.87520 0.33121 0.18607
 H484 H 0.88095 0.30679 0.15970
 H485 H 0.87695 0.33739 0.19632
 N486 N 0.83413 0.32403 0.13410
 N487 N 0.82284 0.33360 0.13484
 C488 C 0.81326 0.33082 0.12351
 C489 C 0.81886 0.31904 0.11515
 C490 C 0.83213 0.31503 0.12216
 H491 H 0.80305 0.33704 0.12134
 H492 H 0.83957 0.30598 0.11897
 H493 H 0.83260 0.33226 0.16120
 H494 H 0.84450 0.34578 0.15043
 N495 N 0.82261 0.86391 0.66713
 N496 N 0.83407 0.86473 0.67637
 C497 C 0.83211 0.87657 0.68554
 C498 C 0.81867 0.88349 0.68187
 C499 C 0.81293 0.87512 0.67016
 H500 H 0.83977 0.87982 0.69434
 H501 H 0.80267 0.87727 0.66405
 Cu502 Cu 0.85033 0.85011 0.67581
 Cu503 Cu 0.82157 0.84904 0.65125
 Cu504 Cu 0.85022 0.82280 0.64974
 N505 N 0.86551 0.83436 0.67555
 N506 N 0.86545 0.82380 0.66531
 C507 C 0.87704 0.81441 0.66776
 C508 C 0.88482 0.81929 0.68027
 C509 C 0.87712 0.83199 0.68493
 H510 H 0.87946 0.80463 0.66103
 H511 H 0.87978 0.83901 0.69442
 N512 N 0.83378 0.82356 0.63503
 N513 N 0.82258 0.83323 0.63591
 C514 C 0.81299 0.83071 0.62452
 C515 C 0.81850 0.81900 0.61598
 C516 C 0.83171 0.81476 0.62296
 H517 H 0.80292 0.83715 0.62237
 H518 H 0.83915 0.80579 0.61958
 H519 H 0.83373 0.83288 0.66267
 H520 H 0.84443 0.84531 0.64960
 N521 N 0.67678 0.63534 0.66610
 N522 N 0.66633 0.63545 0.67649
 C523 C 0.66847 0.62365 0.68567
 C524 C 0.68096 0.61570 0.68079
 C525 C 0.68592 0.62352 0.66832
 H526 H 0.66153 0.62113 0.69526
 H527 H 0.69541 0.62079 0.66129
 Cu528 Cu 0.65099 0.65103 0.67696
 Cu529 Cu 0.67775 0.65045 0.65040
 Cu530 Cu 0.65047 0.67820 0.65083
 N531 N 0.63545 0.66640 0.67675
 N532 N 0.63561 0.67725 0.66679
 C533 C 0.62401 0.68659 0.66941
 C534 C 0.61604 0.68122 0.68155
 C535 C 0.62358 0.66836 0.68591
 H536 H 0.62142 0.69642 0.66281
 H537 H 0.62074 0.66114 0.69521
 N538 N 0.66643 0.67721 0.63558
 N539 N 0.67687 0.66668 0.63546
 C540 C 0.68612 0.66906 0.62377
 C541 C 0.68126 0.68166 0.61610
 C542 C 0.66873 0.68651 0.62394
 H543 H 0.69561 0.66204 0.62095
 H544 H 0.66189 0.69620 0.62143
 H545 H 0.66735 0.66739 0.66235
 H546 H 0.65499 0.65547 0.65037
 N547 N 0.67727 0.13521 0.16559
 N548 N 0.66658 0.13507 0.17571
 C549 C 0.66885 0.12343 0.18504
 C550 C 0.68165 0.11579 0.18051
 C551 C 0.68670 0.12366 0.16811
 H552 H 0.66173 0.12080 0.19447
 H553 H 0.69643 0.12117 0.16131
 Cu554 Cu 0.65065 0.15003 0.17581
 Cu555 Cu 0.67805 0.15022 0.14980
 Cu556 Cu 0.65060 0.17775 0.15021
 N557 N 0.63566 0.16591 0.17608
 N558 N 0.63581 0.17681 0.16620
 C559 C 0.62434 0.18624 0.16900
 C560 C 0.61648 0.18093 0.18128
 C561 C 0.62401 0.16800 0.18549
 H562 H 0.62175 0.19607 0.16241
 H563 H 0.62130 0.16074 0.19478
 N564 N 0.66648 0.17681 0.13491
 N565 N 0.67696 0.16634 0.13476
 C566 C 0.68606 0.16865 0.12294
 C567 C 0.68107 0.18119 0.11523
 C568 C 0.66862 0.18605 0.12319
 H569 H 0.69553 0.16163 0.12009
 H570 H 0.66169 0.19568 0.12071
 H571 H 0.66732 0.16680 0.16206
 H572 H 0.65537 0.15512 0.14943
 N573 N 0.17646 0.63458 0.16494
 N574 N 0.16611 0.63474 0.17541
 C575 C 0.16843 0.62310 0.18473
 C576 C 0.18092 0.61518 0.17983
 C577 C 0.18570 0.62285 0.16721
 H578 H 0.16151 0.62056 0.19434
 H579 H 0.19532 0.62027 0.16030
 Cu580 Cu 0.15065 0.65017 0.17580
 Cu581 Cu 0.17744 0.64975 0.14930
 Cu582 Cu 0.15084 0.67817 0.15062
 N583 N 0.13559 0.66600 0.17625
 N584 N 0.13588 0.67703 0.16650
 C585 C 0.12433 0.68639 0.16925
 C586 C 0.11630 0.68092 0.18135
 C587 C 0.12380 0.66795 0.18550
 H588 H 0.12182 0.69629 0.16273
 H589 H 0.12093 0.66055 0.19464
 N590 N 0.16681 0.67726 0.13537
 N591 N 0.17659 0.66615 0.13456
 C592 C 0.18554 0.66832 0.12260
 C593 C 0.18127 0.68148 0.11562
 C594 C 0.16941 0.68689 0.12404
 H595 H 0.19464 0.66099 0.11931
 H596 H 0.16296 0.69694 0.12187
 H597 H 0.16749 0.66650 0.16180
 H598 H 0.15488 0.65535 0.14935
 N599 N 0.17657 0.13439 0.66597
 N600 N 0.16613 0.13463 0.67636
 C601 C 0.16829 0.12300 0.68573
 C602 C 0.18078 0.11499 0.68097
 C603 C 0.18572 0.12262 0.66837
 H604 H 0.16136 0.12063 0.69536
 H605 H 0.19525 0.11984 0.66140
 Cu606 Cu 0.15074 0.15015 0.67660
 Cu607 Cu 0.17762 0.14941 0.65018
 Cu608 Cu 0.15072 0.17758 0.65082
 N609 N 0.13548 0.16578 0.67661
 N610 N 0.13568 0.17660 0.66663
 C611 C 0.12404 0.18591 0.66915
 C612 C 0.11604 0.18062 0.68135
 C613 C 0.12364 0.16781 0.68578
 H614 H 0.12147 0.19566 0.66244
 H615 H 0.12084 0.16060 0.69509
 N616 N 0.16680 0.17657 0.63569
 N617 N 0.17681 0.16564 0.63522
 C618 C 0.18591 0.16781 0.62337
 C619 C 0.18148 0.18076 0.61607
 C620 C 0.16937 0.18604 0.62423
 H621 H 0.19522 0.16062 0.62037
 H622 H 0.16275 0.19592 0.62181
 H623 H 0.16748 0.16634 0.66226
 H624 H 0.15502 0.15479 0.65005
 N625 N 0.32324 0.63501 0.33410
 N626 N 0.33319 0.63583 0.32327
 C627 C 0.33082 0.62449 0.31359
 C628 C 0.31885 0.61603 0.31876
 C629 C 0.31433 0.62303 0.33181
 H630 H 0.33745 0.62236 0.30369
 H631 H 0.30509 0.61977 0.33898
 Cu632 Cu 0.34861 0.65132 0.32328
 Cu633 Cu 0.32223 0.64970 0.35017
 Cu634 Cu 0.34923 0.67774 0.35008
 N635 N 0.36390 0.66692 0.32355
 N636 N 0.36407 0.67718 0.33408
 C637 C 0.37580 0.68644 0.33182
 C638 C 0.38347 0.68175 0.31916
 C639 C 0.37555 0.66931 0.31422
 H640 H 0.37847 0.69593 0.33888
 H641 H 0.37814 0.66239 0.30464
 N642 N 0.33327 0.67637 0.36533
 N643 N 0.32306 0.66565 0.36543
 C644 C 0.31377 0.66780 0.37714
 C645 C 0.31834 0.68049 0.38484
 C646 C 0.33074 0.68561 0.37698
 H647 H 0.30426 0.66075 0.37973
 H648 H 0.33749 0.69534 0.37957
 H649 H 0.33219 0.66706 0.33850
 H650 H 0.34482 0.65501 0.35008
 N651 N 0.32309 0.13513 0.83389
 N652 N 0.33372 0.13522 0.82368
 C653 C 0.33166 0.12351 0.81439
 C654 C 0.31905 0.11562 0.81903
 C655 C 0.31393 0.12340 0.83145
 H656 H 0.33887 0.12086 0.80503
 H657 H 0.30420 0.12081 0.83821
 Cu658 Cu 0.34922 0.15062 0.82366
 Cu659 Cu 0.32200 0.15006 0.84976
 Cu660 Cu 0.34955 0.17751 0.85004
 N661 N 0.36458 0.16616 0.82390
 N662 N 0.36463 0.17661 0.83427
 C663 C 0.37635 0.18584 0.83195
 C664 C 0.38414 0.18095 0.81943
 C665 C 0.37629 0.16841 0.81462
 H666 H 0.37891 0.19548 0.83881
 H667 H 0.37896 0.16138 0.80514
 N668 N 0.33334 0.17652 0.86503
 N669 N 0.32283 0.16610 0.86490
 C670 C 0.31351 0.16836 0.87657
 C671 C 0.31838 0.18080 0.88449
 C672 C 0.33099 0.18568 0.87679
 H673 H 0.30387 0.16145 0.87906
 H674 H 0.33805 0.19512 0.87959
 H675 H 0.33272 0.16696 0.83810
 H676 H 0.34472 0.15482 0.85024
 N677 N 0.82296 0.63541 0.83375
 N678 N 0.83330 0.63567 0.82326
 C679 C 0.83109 0.62400 0.81395
 C680 C 0.81868 0.61596 0.81887
 C681 C 0.81383 0.62361 0.83147
 H682 H 0.83812 0.62143 0.80443
 H683 H 0.80435 0.62086 0.83851
 Cu684 Cu 0.84886 0.65104 0.82316
 Cu685 Cu 0.82223 0.65014 0.84980
 Cu686 Cu 0.85020 0.67718 0.85026
 N687 N 0.86429 0.66652 0.82331
 N688 N 0.86506 0.67634 0.83426
 C689 C 0.87703 0.68529 0.83207
 C690 C 0.88409 0.68095 0.81898
 C691 C 0.87567 0.66903 0.81368
 H692 H 0.88023 0.69446 0.83933
 H693 H 0.87787 0.66253 0.80371
 N694 N 0.83410 0.67619 0.86540
 N695 N 0.82340 0.66596 0.86514
 C696 C 0.81404 0.66831 0.87675
 C697 C 0.81906 0.68062 0.88476
 C698 C 0.83181 0.68533 0.87718
 H699 H 0.80420 0.66163 0.87908
 H700 H 0.83894 0.69470 0.88004
 H701 H 0.83296 0.66725 0.83840
 H702 H 0.84502 0.65460 0.84995
 N703 N 0.82319 0.13521 0.33387
 N704 N 0.83338 0.13566 0.32327
 C705 C 0.83134 0.12390 0.31402
 C706 C 0.81917 0.11561 0.31909
 C707 C 0.81429 0.12320 0.33174
 H708 H 0.83830 0.12151 0.30441
 H709 H 0.80495 0.12028 0.33888
 Cu710 Cu 0.84856 0.15136 0.32267
 Cu711 Cu 0.82231 0.15003 0.34981
 Cu712 Cu 0.84990 0.17737 0.35006
 N713 N 0.86423 0.16658 0.32335
 N714 N 0.86478 0.17657 0.33411
 C715 C 0.87675 0.18553 0.33196
 C716 C 0.88416 0.18092 0.31912
 C717 C 0.87586 0.16883 0.31396
 H718 H 0.87972 0.19483 0.33913
 H719 H 0.87819 0.16208 0.30419
 N720 N 0.83384 0.17632 0.36519
 N721 N 0.82328 0.16595 0.36504
 C722 C 0.81392 0.16826 0.37665
 C723 C 0.81880 0.18071 0.38456
 C724 C 0.83147 0.18551 0.37692
 H725 H 0.80419 0.16145 0.37907
 H726 H 0.83851 0.19498 0.37969
 H727 H 0.83269 0.16731 0.33829
 H728 H 0.84513 0.15469 0.34951
 N729 N 0.67656 0.36521 0.33455
 N730 N 0.66670 0.36453 0.32362
 C731 C 0.66925 0.37590 0.31402
 C732 C 0.68122 0.38424 0.31933
 C733 C 0.68556 0.37715 0.33240
 H734 H 0.66275 0.37812 0.30404
 H735 H 0.69478 0.38028 0.33964
 Cu736 Cu 0.65124 0.34914 0.32340
 Cu737 Cu 0.67740 0.35024 0.35045
 Cu738 Cu 0.65053 0.32208 0.34951
 N739 N 0.63597 0.33356 0.32315
 N740 N 0.63589 0.32290 0.33332
 C741 C 0.62424 0.31366 0.33072
 C742 C 0.61651 0.31882 0.31831
 C743 C 0.62429 0.33149 0.31379
 H744 H 0.62143 0.30406 0.33756
 H745 H 0.62168 0.33860 0.30435
 N746 N 0.66625 0.32325 0.36499
 N747 N 0.67640 0.33402 0.36543
 C748 C 0.68548 0.33173 0.37727
 C749 C 0.68082 0.31889 0.38470
 C750 C 0.66859 0.31384 0.37654
 H751 H 0.69477 0.33891 0.38027
 H752 H 0.66194 0.30396 0.37875
 H753 H 0.66758 0.33313 0.33833
 H754 H 0.65480 0.34484 0.35010
 N755 N 0.67670 0.86514 0.83369
 N756 N 0.66616 0.86500 0.82341
 C757 C 0.66826 0.87667 0.81408
 C758 C 0.68082 0.88458 0.81876
 C759 C 0.68588 0.87688 0.83125
 H760 H 0.66124 0.87916 0.80454
 H761 H 0.69543 0.87964 0.83818
 Cu762 Cu 0.65069 0.84961 0.82327
 Cu763 Cu 0.67770 0.85020 0.84955
 Cu764 Cu 0.65024 0.82261 0.84952
 N765 N 0.63534 0.83409 0.82339
 N766 N 0.63527 0.82354 0.83364
 C767 C 0.62353 0.81435 0.83122
 C768 C 0.61576 0.81940 0.81876
 C769 C 0.62363 0.83197 0.81409
 H770 H 0.62080 0.80480 0.83814
 H771 H 0.62109 0.83900 0.80457
 N772 N 0.66633 0.82362 0.86463
 N773 N 0.67678 0.83411 0.86465
 C774 C 0.68603 0.83182 0.87636
 C775 C 0.68118 0.81929 0.88415
 C776 C 0.66866 0.81439 0.87633
 H777 H 0.69552 0.83886 0.87908
 H778 H 0.66179 0.80475 0.87890
 H779 H 0.66714 0.83326 0.83778
 H780 H 0.65496 0.84531 0.84988
 N781 N 0.17671 0.36509 0.83403
 N782 N 0.16618 0.36498 0.82372
 C783 C 0.16832 0.37668 0.81443
 C784 C 0.18086 0.38460 0.81916
 C785 C 0.18588 0.37684 0.83165
 H786 H 0.16130 0.37919 0.80489
 H787 H 0.19542 0.37957 0.83861
 Cu788 Cu 0.15063 0.34966 0.82365
 Cu789 Cu 0.17766 0.35008 0.84988
 Cu790 Cu 0.15030 0.32240 0.84956
 N791 N 0.13535 0.33407 0.82354
 N792 N 0.13541 0.32335 0.83363
 C793 C 0.12378 0.31406 0.83108
 C794 C 0.11592 0.31926 0.81877
 C795 C 0.12360 0.33200 0.81427
 H796 H 0.12111 0.30438 0.83786
 H797 H 0.12090 0.33912 0.80486
 N798 N 0.16629 0.32338 0.86477
 N799 N 0.17669 0.33392 0.86493
 C800 C 0.18585 0.33158 0.87669
 C801 C 0.18100 0.31895 0.88436
 C802 C 0.16856 0.31408 0.87641
 H803 H 0.19530 0.33864 0.87952
 H804 H 0.16168 0.30441 0.87886
 H805 H 0.16716 0.33328 0.83796
 H806 H 0.15497 0.34514 0.85019
 N807 N 0.17636 0.86519 0.33443
 N808 N 0.16594 0.86497 0.32402
 C809 C 0.16819 0.87655 0.31461
 C810 C 0.18069 0.88451 0.31937
 C811 C 0.18557 0.87691 0.33201
 H812 H 0.16120 0.87902 0.30504
 H813 H 0.19523 0.87954 0.33885
 Cu814 Cu 0.15050 0.84954 0.32383
 Cu815 Cu 0.17739 0.85013 0.35021
 Cu816 Cu 0.15081 0.82172 0.34920
 N817 N 0.13546 0.83373 0.32358
 N818 N 0.13580 0.82275 0.33337
 C819 C 0.12424 0.81339 0.33073
 C820 C 0.11614 0.81882 0.31866
 C821 C 0.12361 0.83176 0.31441
 H822 H 0.12177 0.80352 0.33730
 H823 H 0.12070 0.83912 0.30525
 N824 N 0.16681 0.82274 0.36440
 N825 N 0.17659 0.83384 0.36510
 C826 C 0.18553 0.83177 0.37707
 C827 C 0.18128 0.81866 0.38417
 C828 C 0.16940 0.81321 0.37581
 H829 H 0.19462 0.83913 0.38031
 H830 H 0.16293 0.80321 0.37810
 H831 H 0.16739 0.83332 0.33788
 H832 H 0.15481 0.84457 0.35030
 C833 C 0.23963 0.95379 0.24989
 C834 C 0.25074 0.95383 0.23927
 C835 C 0.25684 0.96814 0.23927
 N836 N 0.24984 0.97682 0.24953
 C837 C 0.23928 0.96808 0.25600
 C838 C 0.26934 0.97262 0.23061
 C839 C 0.27411 0.98769 0.22933
 C840 C 0.28778 0.99219 0.22338
 C841 C 0.28780 1.00762 0.22348
 C842 C 0.27415 1.01212 0.22949
 N843 N 0.26583 0.99990 0.23293
 C844 C 0.26948 1.02720 0.23100
 C845 C 0.25705 1.03172 0.23977
 C846 C 0.25136 1.04619 0.24026
 C847 C 0.24017 1.04619 0.25078
 C848 C 0.23928 1.03168 0.25632
 N849 N 0.24970 1.02289 0.24964
 C850 C 0.22978 1.02711 0.26814
 C851 C 0.22816 1.01201 0.27275
 C852 C 0.22121 1.00744 0.28587
 C853 C 0.22132 0.99201 0.28586
 C854 C 0.22823 0.98755 0.27268
 N855 N 0.23224 0.99981 0.26470
 C856 C 0.23001 0.97248 0.26806
 H857 H 0.23265 0.94430 0.25283
 H858 H 0.25402 0.94438 0.23241
 H859 H 0.23604 0.99984 0.25372
 H860 H 0.29679 0.98509 0.21936
 H861 H 0.29684 1.01472 0.21954
 H862 H 0.25501 1.05582 0.23383
 H863 H 0.23358 1.05584 0.25409
 H864 H 0.21673 0.98488 0.29453
 H865 H 0.25458 0.99991 0.23601
 H866 H 0.21648 1.01446 0.29455
 C867 C 0.24958 0.45410 0.76111
 C868 C 0.26067 0.45399 0.75047
 C869 C 0.26113 0.46829 0.74441
 N870 N 0.25066 0.47712 0.75095
 C871 C 0.24360 0.46846 0.76119
 C872 C 0.27044 0.47266 0.73237
 C873 C 0.27226 0.48771 0.72774
 C874 C 0.27913 0.49213 0.71453
 C875 C 0.27929 0.50755 0.71451
 C876 C 0.27242 0.51216 0.72767
 N877 N 0.26833 0.49999 0.73573
 C878 C 0.27088 0.52726 0.73227
 C879 C 0.26148 0.53189 0.74416
 C880 C 0.26068 0.54641 0.74968
 C881 C 0.24953 0.54649 0.76024
 C882 C 0.24377 0.53205 0.76076
 N883 N 0.25105 0.52316 0.75088
 C884 C 0.23132 0.52762 0.76952
 C885 C 0.22660 0.51257 0.77109
 C886 C 0.21293 0.50816 0.77712
 C887 C 0.21288 0.49273 0.77722
 C888 C 0.22652 0.48814 0.77125
 N889 N 0.23486 0.50030 0.76766
 C890 C 0.23117 0.47304 0.76990
 H891 H 0.24623 0.44465 0.76794
 H892 H 0.26756 0.44443 0.74748
 H893 H 0.24610 0.50023 0.76455
 H894 H 0.28366 0.48498 0.70584
 H895 H 0.28402 0.51455 0.70582
 H896 H 0.26728 0.55603 0.74634
 H897 H 0.24594 0.55614 0.76666
 H898 H 0.20383 0.48570 0.78124
 H899 H 0.26457 0.50004 0.74673
 H900 H 0.20392 0.51532 0.78104
 C901 C 0.75016 -0.04592 0.23900
 C902 C 0.76119 -0.04595 0.24969
 C903 C 0.76129 -0.03173 0.25596
 N904 N 0.75070 -0.02302 0.24947
 C905 C 0.74389 -0.03169 0.23908
 C906 C 0.77026 -0.02737 0.26826
 C907 C 0.77178 -0.01230 0.27295
 C908 C 0.77784 -0.00781 0.28652
 C909 C 0.77790 0.00762 0.28650
 C910 C 0.77185 0.01213 0.27293
 N911 N 0.76826 -0.00008 0.26469
 C912 C 0.77041 0.02719 0.26823
 C913 C 0.76146 0.03164 0.25597
 C914 C 0.76134 0.04591 0.24982
 C915 C 0.75041 0.04593 0.23902
 C916 C 0.74419 0.03167 0.23895
 N917 N 0.75094 0.02296 0.24934
 C918 C 0.73174 0.02729 0.23017
 C919 C 0.72688 0.01226 0.22886
 C920 C 0.71317 0.00784 0.22295
 C921 C 0.71305 -0.00760 0.22305
 C922 C 0.72670 -0.01217 0.22899
 N923 N 0.73509 0.00000 0.23242
 C924 C 0.73138 -0.02725 0.23041
 H925 H 0.74704 -0.05534 0.23202
 H926 H 0.76827 -0.05539 0.25259
 H927 H 0.74635 -0.00006 0.23550
 H928 H 0.78181 -0.01491 0.29551
 H929 H 0.78193 0.01471 0.29547
 H930 H 0.76833 0.05536 0.25287
 H931 H 0.74732 0.05540 0.23209
 H932 H 0.70397 -0.01465 0.21914
 H933 H 0.76506 -0.00008 0.25350
 H934 H 0.70419 0.01499 0.21897
 C935 C 0.76078 0.54603 0.75015
 C936 C 0.74996 0.54603 0.73923
 C937 C 0.74388 0.53172 0.73900
 N938 N 0.75059 0.52300 0.74941
 C939 C 0.76095 0.53172 0.75622
 C940 C 0.73166 0.52725 0.72995
 C941 C 0.72704 0.51216 0.72833
 C942 C 0.71372 0.50764 0.72166
 C943 C 0.71377 0.49221 0.72161
 C944 C 0.72709 0.48770 0.72833
 N945 N 0.73516 0.49994 0.73225
 C946 C 0.73187 0.47264 0.72982
 C947 C 0.74396 0.46815 0.73905
 C948 C 0.74978 0.45373 0.73969
 C949 C 0.76047 0.45377 0.75072
 C950 C 0.76075 0.46816 0.75658
 N951 N 0.75062 0.47693 0.74945
 C952 C 0.76947 0.47266 0.76901
 C953 C 0.77100 0.48779 0.77355
 C954 C 0.77696 0.49238 0.78714
 C955 C 0.77709 0.50781 0.78699
 C956 C 0.77118 0.51223 0.77334
 N957 N 0.76761 0.49997 0.76516
 C958 C 0.76981 0.52728 0.76855
 H959 H 0.76766 0.55552 0.75332
 H960 H 0.74687 0.55550 0.73232
 H961 H 0.76454 0.49991 0.75395
 H962 H 0.70492 0.51472 0.71718
 H963 H 0.70503 0.48514 0.71703
 H964 H 0.74655 0.44410 0.73307
 H965 H 0.76715 0.44422 0.75413
 H966 H 0.78107 0.51496 0.79594
 H967 H 0.74625 0.49996 0.73586
 H968 H 0.78083 0.48535 0.79623
 C969 C 0.23964 0.45409 0.24920
 C970 C 0.25040 0.45407 0.26016
 C971 C 0.25652 0.46836 0.26043
 N972 N 0.24989 0.47710 0.24998
 C973 C 0.23953 0.46840 0.24313
 C974 C 0.26870 0.47279 0.26955
 C975 C 0.27337 0.48785 0.27122
 C976 C 0.28668 0.49231 0.27797
 C977 C 0.28666 0.50774 0.27808
 C978 C 0.27339 0.51230 0.27132
 N979 N 0.26530 0.50010 0.26732
 C980 C 0.26866 0.52738 0.26985
 C981 C 0.25664 0.53196 0.26057
 C982 C 0.25104 0.54646 0.25978
 C983 C 0.24031 0.54647 0.24879
 C984 C 0.23977 0.53200 0.24312
 N985 N 0.24981 0.52317 0.25029
 C986 C 0.23084 0.52749 0.23086
 C987 C 0.22931 0.51241 0.22619
 C988 C 0.22318 0.50795 0.21264
 C989 C 0.22315 0.49252 0.21261
 C990 C 0.22924 0.48798 0.22615
 N991 N 0.23287 0.50017 0.23441
 C992 C 0.23066 0.47289 0.23081
 H993 H 0.23273 0.44463 0.24601
 H994 H 0.25343 0.44459 0.26710
 H995 H 0.23606 0.50015 0.24558
 H996 H 0.29544 0.48519 0.28246
 H997 H 0.29540 0.51477 0.28272
 H998 H 0.25443 0.55611 0.26629
 H999 H 0.23381 0.55609 0.24524
 H1000 H 0.21909 0.48545 0.20364
 H1001 H 0.25422 0.50011 0.26367
 H1002 H 0.21915 0.51507 0.20369
 C1003 C 0.76075 1.04606 0.74986
 C1004 C 0.74974 1.04611 0.76059
 C1005 C 0.74351 1.03186 0.76065
 N1006 N 0.75036 1.02311 0.75033
 C1007 C 0.76092 1.03177 0.74375
 C1008 C 0.73103 1.02748 0.76938
 C1009 C 0.72626 1.01241 0.77074
 C1010 C 0.71256 1.00794 0.77665
 C1011 C 0.71253 0.99251 0.77661
 C1012 C 0.72620 0.98798 0.77066
 N1013 N 0.73454 1.00018 0.76721
 C1014 C 0.73086 0.97290 0.76922
 C1015 C 0.74330 0.96831 0.76051
 C1016 C 0.74897 0.95383 0.76011
 C1017 C 0.76016 0.95375 0.74957
 C1018 C 0.76106 0.96822 0.74395
 N1019 N 0.75066 0.97707 0.75058
 C1020 C 0.77052 0.97270 0.73206
 C1021 C 0.77204 0.98775 0.72728
 C1022 C 0.77885 0.99222 0.71406
 C1023 C 0.77865 1.00764 0.71391
 C1024 C 0.77182 1.01219 0.72710
 N1025 N 0.76795 1.00000 0.73524
 C1026 C 0.77005 1.02729 0.73162
 H1027 H 0.76778 1.05549 0.74686
 H1028 H 0.74662 1.05558 0.76750
 H1029 H 0.76424 1.00008 0.74625
 H1030 H 0.70353 1.01504 0.78060
 H1031 H 0.70347 0.98543 0.78053
 H1032 H 0.74531 0.94425 0.76658
 H1033 H 0.76671 0.94406 0.74631
 H1034 H 0.78314 1.01470 0.70513
 H1035 H 0.74580 1.00015 0.76416
 H1036 H 0.78357 0.98514 0.70542
 C1037 C 0.75988 0.45362 0.24895
 C1038 C 0.74917 0.45362 0.25997
 C1039 C 0.74359 0.46812 0.26081
 N1040 N 0.75043 0.47692 0.25054
 C1041 C 0.76044 0.46810 0.24333
 C1042 C 0.73156 0.47268 0.27011
 C1043 C 0.72678 0.48775 0.27155
 C1044 C 0.71346 0.49227 0.27826
 C1045 C 0.71336 0.50770 0.27809
 C1046 C 0.72666 0.51220 0.27137
 N1047 N 0.73482 0.49998 0.26752
 C1048 C 0.73125 0.52729 0.26966
 C1049 C 0.74348 0.53174 0.26061
 C1050 C 0.74955 0.54606 0.26035
 C1051 C 0.76043 0.54603 0.24949
 C1052 C 0.76066 0.53170 0.24348
 N1053 N 0.75026 0.52299 0.25026
 C1054 C 0.76965 0.52722 0.23124
 C1055 C 0.77112 0.51215 0.22656
 C1056 C 0.77731 0.50766 0.21304
 C1057 C 0.77723 0.49223 0.21300
 C1058 C 0.77100 0.48772 0.22649
 N1059 N 0.76742 0.49993 0.23474
 C1060 C 0.76938 0.47263 0.23107
 H1061 H 0.76637 0.44399 0.24536
 H1062 H 0.74576 0.44395 0.26645
 H1063 H 0.76413 0.49993 0.24589
 H1064 H 0.70474 0.48522 0.28291
 H1065 H 0.70454 0.51478 0.28253
 H1066 H 0.74643 0.55555 0.26722
 H1067 H 0.76733 0.55551 0.24634
 H1068 H 0.78131 0.48514 0.20405
 H1069 H 0.74590 0.50001 0.26391
 H1070 H 0.78146 0.51475 0.20413
 C1071 C 0.25100 -0.04623 0.73886
 C1072 C 0.26196 -0.04616 0.74962
 C1073 C 0.26188 -0.03195 0.75591
 N1074 N 0.25123 -0.02334 0.74938
 C1075 C 0.24458 -0.03206 0.73894
 C1076 C 0.27072 -0.02752 0.76826
 C1077 C 0.27215 -0.01244 0.77294
 C1078 C 0.27824 -0.00789 0.78648
 C1079 C 0.27821 0.00754 0.78644
 C1080 C 0.27206 0.01199 0.77289
 N1081 N 0.26851 -0.00025 0.76468
 C1082 C 0.27045 0.02704 0.76819
 C1083 C 0.26134 0.03140 0.75601
 C1084 C 0.26102 0.04567 0.74988
 C1085 C 0.24995 0.04560 0.73921
 C1086 C 0.24387 0.03129 0.73920
 N1087 N 0.25083 0.02262 0.74949
 C1088 C 0.23140 0.02678 0.73052
 C1089 C 0.22680 0.01167 0.72912
 C1090 C 0.21313 0.00706 0.72326
 C1091 C 0.21331 -0.00838 0.72318
 C1092 C 0.22708 -0.01276 0.72899
 N1093 N 0.23527 -0.00047 0.73248
 C1094 C 0.23202 -0.02777 0.73027
 H1095 H 0.24801 -0.05568 0.73187
 H1096 H 0.26910 -0.05554 0.75256
 H1097 H 0.24655 -0.00036 0.73548
 H1098 H 0.28230 -0.01495 0.79546
 H1099 H 0.28223 0.01468 0.79538
 H1100 H 0.26795 0.05518 0.75285
 H1101 H 0.24668 0.05505 0.73234
 H1102 H 0.20432 -0.01556 0.71928
 H1103 H 0.26525 -0.00027 0.75352
 H1104 H 0.20398 0.01408 0.71943
 C1105 C 0.24983 0.26095 1.04598
 C1106 C 0.26066 0.25001 1.04600
 C1107 C 0.26075 0.24382 1.03178
 N1108 N 0.25033 0.25059 1.02308
 C1109 C 0.24366 0.26109 1.03174
 C1110 C 0.26958 0.23140 1.02740
 C1111 C 0.27102 0.22664 1.01239
 C1112 C 0.27705 0.21300 1.00794
 C1113 C 0.27704 0.21296 0.99255
 C1114 C 0.27102 0.22658 0.98803
 N1115 N 0.26749 0.23489 1.00019
 C1116 C 0.26957 0.23126 0.97300
 C1117 C 0.26074 0.24366 0.96858
 C1118 C 0.26067 0.24980 0.95433
 C1119 C 0.24981 0.26071 0.95430
 C1120 C 0.24361 0.26088 0.96853
 N1121 N 0.25029 0.25043 0.97723
 C1122 C 0.23125 0.26981 0.97290
 C1123 C 0.22656 0.27138 0.98793
 C1124 C 0.21297 0.27754 0.99241
 C1125 C 0.21300 0.27761 1.00781
 C1126 C 0.22660 0.27149 1.01230
 N1127 N 0.23485 0.26783 1.00011
 C1128 C 0.23133 0.27004 1.02732
 H1129 H 0.24677 0.26793 1.05541
 H1130 H 0.26760 0.24689 1.05545
 H1131 H 0.24607 0.26458 1.00011
 H1132 H 0.28105 0.20401 1.01504
 H1133 H 0.28104 0.20394 0.98549
 H1134 H 0.26764 0.24667 0.94491
 H1135 H 0.24676 0.26766 0.94485
 H1136 H 0.20401 0.28170 1.01489
 H1137 H 0.26435 0.24612 1.00016
 H1138 H 0.20397 0.28158 0.98533
 C1139 C 0.25948 0.74906 0.45407
 C1140 C 0.24890 0.76023 0.45410
 C1141 C 0.24336 0.76112 0.46858
 N1142 N 0.25011 0.75074 0.47733
 C1143 C 0.26001 0.74340 0.46850
 C1144 C 0.23143 0.77055 0.47315
 C1145 C 0.22672 0.77207 0.48819
 C1146 C 0.21344 0.77884 0.49273
 C1147 C 0.21339 0.77868 0.50812
 C1148 C 0.22671 0.77193 0.51258
 N1149 N 0.23481 0.76805 0.50036
 C1150 C 0.23137 0.77021 0.52761
 C1151 C 0.24360 0.76108 0.53196
 C1152 C 0.24985 0.76087 0.54616
 C1153 C 0.26060 0.74985 0.54610
 C1154 C 0.26057 0.74370 0.53186
 N1155 N 0.25015 0.75055 0.52324
 C1156 C 0.26933 0.73126 0.52741
 C1157 C 0.27066 0.72649 0.51239
 C1158 C 0.27668 0.71286 0.50791
 C1159 C 0.27655 0.71279 0.49252
 C1160 C 0.27044 0.72638 0.48802
 N1161 N 0.26700 0.73471 0.50020
 C1162 C 0.26883 0.73100 0.47298
 H1163 H 0.26590 0.74540 0.44445
 H1164 H 0.24554 0.76678 0.44447
 H1165 H 0.26385 0.74593 0.50020
 H1166 H 0.20469 0.78349 0.48572
 H1167 H 0.20460 0.78314 0.51521
 H1168 H 0.24692 0.76787 0.55561
 H1169 H 0.26757 0.74668 0.55550
 H1170 H 0.28051 0.70377 0.48544
 H1171 H 0.24588 0.76438 0.50034
 H1172 H 0.28077 0.70389 0.51499
 C1173 C 0.24887 0.73999 0.04580
 C1174 C 0.25953 0.75107 0.04583
 C1175 C 0.26011 0.75672 0.03139
 N1176 N 0.25017 0.74945 0.02256
 C1177 C 0.24335 0.73913 0.03131
 C1178 C 0.26902 0.76904 0.02690
 C1179 C 0.27064 0.77364 0.01186
 C1180 C 0.27681 0.78719 0.00736
 C1181 C 0.27694 0.78713 -0.00803
 C1182 C 0.27086 0.77353 -0.01250
 N1183 N 0.26715 0.76534 -0.00032
 C1184 C 0.26954 0.76875 -0.02752
 C1185 C 0.26079 0.75633 -0.03198
 C1186 C 0.26085 0.75015 -0.04621
 C1187 C 0.25012 0.73913 -0.04626
 C1188 C 0.24384 0.73894 -0.03207
 N1189 N 0.25036 0.74948 -0.02336
 C1190 C 0.23160 0.72984 -0.02773
 C1191 C 0.22685 0.72822 -0.01271
 C1192 C 0.21347 0.72160 -0.00828
 C1193 C 0.21343 0.72153 0.00712
 C1194 C 0.22672 0.72823 0.01168
 N1195 N 0.23490 0.73213 -0.00048
 C1196 C 0.23138 0.72978 0.02673
 H1197 H 0.24546 0.73348 0.05543
 H1198 H 0.26597 0.75468 0.05544
 H1199 H 0.24601 0.73570 -0.00042
 H1200 H 0.28082 0.79619 0.01443
 H1201 H 0.28107 0.79606 -0.01512
 H1202 H 0.26784 0.75331 -0.05560
 H1203 H 0.24722 0.73211 -0.05571
 H1204 H 0.20461 0.71699 0.01412
 H1205 H 0.26395 0.75414 -0.00030
 H1206 H 0.20469 0.71716 -0.01539
 C1207 C 0.24489 0.24387 0.45296
 C1208 C 0.25528 0.25518 0.45294
 C1209 C 0.25824 0.25858 0.46779
 N1210 N 0.24985 0.24978 0.47683
 C1211 C 0.24164 0.24078 0.46782
 C1212 C 0.26878 0.26948 0.47258
 C1213 C 0.27205 0.27287 0.48773
 C1214 C 0.28368 0.28218 0.49227
 C1215 C 0.28352 0.28236 0.50763
 C1216 C 0.27187 0.27308 0.51216
 N1217 N 0.26475 0.26758 0.49994
 C1218 C 0.26832 0.26996 0.52731
 C1219 C 0.25802 0.25884 0.53212
 C1220 C 0.25528 0.25529 0.54698
 C1221 C 0.24517 0.24373 0.54699
 C1222 C 0.24202 0.24052 0.53214
 N1223 N 0.24989 0.24978 0.52310
 C1224 C 0.23150 0.22961 0.52736
 C1225 C 0.22773 0.22670 0.51222
 C1226 C 0.21580 0.21776 0.50773
 C1227 C 0.21562 0.21793 0.49237
 C1228 C 0.22751 0.22688 0.48780
 N1229 N 0.23499 0.23198 0.49998
 C1230 C 0.23093 0.23007 0.47263
 H1231 H 0.24023 0.23859 0.44309
 H1232 H 0.26013 0.26025 0.44306
 H1233 H 0.24508 0.23775 0.49995
 H1234 H 0.29163 0.28808 0.48525
 H1235 H 0.29131 0.28848 0.51464
 H1236 H 0.26013 0.26041 0.55684
 H1237 H 0.24060 0.23840 0.55687
 H1238 H 0.20751 0.21222 0.48538
 H1239 H 0.25490 0.26143 0.49993
 H1240 H 0.20787 0.21185 0.51477
 C1241 C 0.74911 0.76039 1.04608
 C1242 C 0.75973 0.74926 1.04613
 C1243 C 0.76029 0.74357 1.03170
 N1244 N 0.75036 0.75087 1.02286
 C1245 C 0.74358 0.76124 1.03160
 C1246 C 0.76916 0.73120 1.02724
 C1247 C 0.77074 0.72652 1.01221
 C1248 C 0.77691 0.71293 1.00777
 C1249 C 0.77698 0.71290 0.99238
 C1250 C 0.77085 0.72647 0.98785
 N1251 N 0.76720 0.73475 1.00000
 C1252 C 0.76943 0.73113 0.97280
 C1253 C 0.76060 0.74351 0.96829
 C1254 C 0.76050 0.74951 0.95398
 C1255 C 0.74976 0.76053 0.95391
 C1256 C 0.74367 0.76092 0.96818
 N1257 N 0.75028 0.75047 0.97694
 C1258 C 0.73153 0.77015 0.97257
 C1259 C 0.72691 0.77195 0.98760
 C1260 C 0.71365 0.77881 0.99205
 C1261 C 0.71370 0.77901 1.00743
 C1262 C 0.72694 0.77215 1.01198
 N1263 N 0.73499 0.76804 0.99981
 C1264 C 0.73165 0.77066 1.02701
 H1265 H 0.74573 0.76694 1.05570
 H1266 H 0.76616 0.74564 1.05575
 H1267 H 0.74605 0.76432 0.99982
 H1268 H 0.78095 0.70397 1.01488
 H1269 H 0.78109 0.70392 0.98534
 H1270 H 0.76738 0.74623 0.94455
 H1271 H 0.74674 0.76743 0.94441
 H1272 H 0.70499 0.78375 1.01444
 H1273 H 0.76399 0.74595 0.99996
 H1274 H 0.70490 0.78333 0.98495
 C1275 C 0.74985 0.26040 0.54606
 C1276 C 0.76074 0.24951 0.54602
 C1277 C 0.76079 0.24333 0.53179
 N1278 N 0.75030 0.25006 0.52315
 C1279 C 0.74362 0.26052 0.53185
 C1280 C 0.76966 0.23096 0.52736
 C1281 C 0.77110 0.22626 0.51232
 C1282 C 0.77717 0.21267 0.50780
 C1283 C 0.77712 0.21270 0.49240
 C1284 C 0.77103 0.22631 0.48796
 N1285 N 0.76750 0.23455 0.50017
 C1286 C 0.76955 0.23107 0.47296
 C1287 C 0.76068 0.24346 0.46861
 C1288 C 0.76061 0.24970 0.45440
 C1289 C 0.74972 0.26058 0.45443
 C1290 C 0.74350 0.26062 0.46865
 N1291 N 0.75020 0.25013 0.47730
 C1292 C 0.73111 0.26947 0.47307
 C1293 C 0.72640 0.27089 0.48811
 C1294 C 0.71276 0.27692 0.49263
 C1295 C 0.71280 0.27691 0.50803
 C1296 C 0.72646 0.27087 0.51247
 N1297 N 0.73472 0.26733 0.50026
 C1298 C 0.73124 0.26943 0.52748
 H1299 H 0.74680 0.26735 0.55551
 H1300 H 0.76774 0.24642 0.55543
 H1301 H 0.74596 0.26418 0.50024
 H1302 H 0.78124 0.20367 0.51485
 H1303 H 0.78114 0.20372 0.48529
 H1304 H 0.76759 0.24665 0.44496
 H1305 H 0.74666 0.26758 0.44503
 H1306 H 0.70380 0.28090 0.51514
 H1307 H 0.76430 0.24577 0.50020
 H1308 H 0.70372 0.28092 0.48558
 C1309 C 0.74899 0.24007 0.04578
 C1310 C 0.76002 0.25079 0.04579
 C1311 C 0.76083 0.25636 0.03132
 N1312 N 0.75054 0.24951 0.02254
 C1313 C 0.74334 0.23949 0.03135
 C1314 C 0.77012 0.26839 0.02678
 C1315 C 0.77160 0.27313 0.01175
 C1316 C 0.77827 0.28645 0.00724
 C1317 C 0.77817 0.28651 -0.00815
 C1318 C 0.77154 0.27318 -0.01264
 N1319 N 0.76768 0.26505 -0.00045
 C1320 C 0.76990 0.26854 -0.02769
 C1321 C 0.76084 0.25631 -0.03210
 C1322 C 0.76062 0.25020 -0.04636
 C1323 C 0.74971 0.23935 -0.04632
 C1324 C 0.74361 0.23920 -0.03205
 N1325 N 0.75040 0.24960 -0.02338
 C1326 C 0.73129 0.23027 -0.02760
 C1327 C 0.72655 0.22880 -0.01258
 C1328 C 0.71298 0.22259 -0.00812
 C1329 C 0.71293 0.22265 0.00728
 C1330 C 0.72646 0.22891 0.01178
 N1331 N 0.73474 0.23251 -0.00039
 C1332 C 0.73105 0.23053 0.02684
 H1333 H 0.74543 0.23358 0.05538
 H1334 H 0.76651 0.25422 0.05543
 H1335 H 0.74594 0.23580 -0.00038
 H1336 H 0.78282 0.29521 0.01428
 H1337 H 0.78258 0.29532 -0.01522
 H1338 H 0.76755 0.25327 -0.05582
 H1339 H 0.74658 0.23242 -0.05576
 H1340 H 0.70395 0.21855 0.01434
 H1341 H 0.76413 0.25396 -0.00046
 H1342 H 0.70405 0.21843 -0.01520
 C1343 C 0.75968 0.75105 0.45387
 C1344 C 0.74898 0.74001 0.45393
 C1345 C 0.74343 0.73923 0.46841
 N1346 N 0.75030 0.74955 0.47713
 C1347 C 0.76029 0.75673 0.46828
 C1348 C 0.73142 0.72993 0.47302
 C1349 C 0.72666 0.72858 0.48807
 C1350 C 0.71337 0.72186 0.49263
 C1351 C 0.71329 0.72215 0.50802
 C1352 C 0.72658 0.72894 0.51246
 N1353 N 0.73471 0.73271 0.50023
 C1354 C 0.73116 0.73078 0.52749
 C1355 C 0.74331 0.73994 0.53196
 C1356 C 0.74893 0.74069 0.54640
 C1357 C 0.75988 0.75149 0.54633
 C1358 C 0.76066 0.75696 0.53183
 N1359 N 0.75043 0.74996 0.52310
 C1360 C 0.76988 0.76901 0.52719
 C1361 C 0.77123 0.77371 0.51214
 C1362 C 0.77783 0.78704 0.50754
 C1363 C 0.77763 0.78702 0.49215
 C1364 C 0.77100 0.77366 0.48775
 N1365 N 0.76724 0.76558 0.50000
 C1366 C 0.76931 0.76898 0.47274
 H1367 H 0.76614 0.75461 0.44424
 H1368 H 0.74556 0.73348 0.44432
 H1369 H 0.76376 0.75447 0.50005
 H1370 H 0.70464 0.71716 0.48564
 H1371 H 0.70449 0.71775 0.51514
 H1372 H 0.74541 0.73424 0.55604
 H1373 H 0.76635 0.75502 0.55595
 H1374 H 0.78198 0.79582 0.48501
 H1375 H 0.74579 0.73634 0.50022
 H1376 H 0.78241 0.79584 0.51451
 C1377 C 1.04611 0.24029 0.25108
 C1378 C 1.04615 0.25140 0.24048
 C1379 C 1.03166 0.25710 0.23994
 N1380 N 1.02280 0.24985 0.24986
 C1381 C 1.03158 0.23948 0.25661
 C1382 C 1.02716 0.26943 0.23106
 C1383 C 1.01206 0.27412 0.22946
 C1384 C 1.00762 0.28755 0.22301
 C1385 C 0.99216 0.28755 0.22280
 C1386 C 0.98756 0.27414 0.22920
 N1387 N 0.99977 0.26597 0.23310
 C1388 C 0.97244 0.26938 0.23042
 C1389 C 0.96781 0.25720 0.23944
 C1390 C 0.95328 0.25161 0.24007
 C1391 C 0.95324 0.24068 0.25085
 C1392 C 0.96772 0.23997 0.25652
 N1393 N 0.97658 0.25013 0.24960
 C1394 C 0.97222 0.23071 0.26854
 C1395 C 0.98732 0.22894 0.27315
 C1396 C 0.99175 0.22213 0.28638
 C1397 C 1.00721 0.22192 0.28638
 C1398 C 1.01182 0.22869 0.27318
 N1399 N 0.99961 0.23279 0.26512
 C1400 C 1.02695 0.23010 0.26851
 H1401 H 1.05577 0.23373 0.25443
 H1402 H 1.05581 0.25499 0.23405
 H1403 H 0.99964 0.23644 0.25410
 H1404 H 1.01478 0.29640 0.21878
 H1405 H 0.98514 0.29640 0.21834
 H1406 H 0.94364 0.25514 0.23359
 H1407 H 0.94359 0.23411 0.25423
 H1408 H 1.01422 0.21724 0.29510
 H1409 H 0.99975 0.25483 0.23645
 H1410 H 0.98459 0.21768 0.29511
 C1411 C 0.54611 0.25026 0.73977
 C1412 C 0.54608 0.23933 0.75054
 C1413 C 0.53172 0.23912 0.75658
 N1414 N 0.52301 0.24957 0.74988
 C1415 C 0.53178 0.25636 0.73956
 C1416 C 0.52722 0.23011 0.76877
 C1417 C 0.51212 0.22863 0.77345
 C1418 C 0.50762 0.22237 0.78692
 C1419 C 0.49215 0.22242 0.78695
 C1420 C 0.48764 0.22872 0.77349
 N1421 N 0.49988 0.23236 0.76528
 C1422 C 0.47252 0.23035 0.76890
 C1423 C 0.46799 0.23937 0.75670
 C1424 C 0.45350 0.23996 0.75105
 C1425 C 0.45351 0.25072 0.74010
 C1426 C 0.46804 0.25631 0.73934
 N1427 N 0.47684 0.24941 0.74958
 C1428 C 0.47261 0.26837 0.73014
 C1429 C 0.48771 0.27315 0.72875
 C1430 C 0.49224 0.28648 0.72211
 C1431 C 0.50770 0.28657 0.72230
 C1432 C 0.51221 0.27325 0.72894
 N1433 N 0.49997 0.26510 0.73273
 C1434 C 0.52733 0.26863 0.73061
 H1435 H 0.55563 0.25340 0.73290
 H1436 H 0.55556 0.23239 0.75364
 H1437 H 0.49999 0.25401 0.73627
 H1438 H 0.51473 0.21819 0.79582
 H1439 H 0.48505 0.21829 0.79587
 H1440 H 0.44386 0.23346 0.75457
 H1441 H 0.44384 0.25416 0.73362
 H1442 H 0.51480 0.29539 0.71792
 H1443 H 0.49989 0.23570 0.75415
 H1444 H 0.48517 0.29521 0.71750
 C1445 C 0.04722 0.24461 0.74456
 C1446 C 0.04722 0.25542 0.75543
 C1447 C 0.03229 0.25866 0.75855
 N1448 N 0.02322 0.25001 0.75003
 C1449 C 0.03229 0.24137 0.74149
 C1450 C 0.02746 0.26974 0.76884
 C1451 C 0.01223 0.27350 0.77167
 C1452 C 0.00772 0.28591 0.77990
 C1453 C -0.00771 0.28602 0.77983
 C1454 C -0.01230 0.27367 0.77157
 N1455 N -0.00006 0.26597 0.76683
 C1456 C -0.02754 0.27009 0.76863
 C1457 C -0.03238 0.25898 0.75837
 C1458 C -0.04730 0.25576 0.75528
 C1459 C -0.04731 0.24489 0.74447
 C1460 C -0.03238 0.24160 0.74140
 N1461 N -0.02331 0.25027 0.74990
 C1462 C -0.02755 0.23046 0.73118
 C1463 C -0.01232 0.22670 0.72834
 C1464 C -0.00779 0.21429 0.72014
 C1465 C 0.00764 0.21424 0.72015
 C1466 C 0.01221 0.22663 0.72836
 N1467 N -0.00004 0.23429 0.73313
 C1468 C 0.02744 0.23030 0.73121
 H1469 H 0.05714 0.23966 0.73958
 H1470 H 0.05715 0.26038 0.76037
 H1471 H -0.00003 0.24465 0.73836
 H1472 H 0.01481 0.29421 0.78520
 H1473 H -0.01475 0.29443 0.78506
 H1474 H -0.05723 0.26074 0.76022
 H1475 H -0.05723 0.23993 0.73954
 H1476 H 0.01469 0.20586 0.71490
 H1477 H -0.00008 0.25563 0.76155
 H1478 H -0.01486 0.20594 0.71489
 C1479 C 0.45297 0.25554 0.25520
 C1480 C 0.45294 0.24472 0.24435
 C1481 C 0.46786 0.24141 0.24127
 N1482 N 0.47695 0.25002 0.24980
 C1483 C 0.46790 0.25872 0.25831
 C1484 C 0.47266 0.23031 0.23100
 C1485 C 0.48787 0.22651 0.22819
 C1486 C 0.49238 0.21407 0.22000
 C1487 C 0.50781 0.21400 0.22002
 C1488 C 0.51239 0.22639 0.22821
 N1489 N 0.50016 0.23408 0.23297
 C1490 C 0.52763 0.23005 0.23106
 C1491 C 0.53250 0.24114 0.24130
 C1492 C 0.54744 0.24438 0.24433
 C1493 C 0.54748 0.25521 0.25517
 C1494 C 0.53256 0.25847 0.25831
 N1495 N 0.52346 0.24982 0.24983
 C1496 C 0.52775 0.26957 0.26859
 C1497 C 0.51254 0.27331 0.27147
 C1498 C 0.50803 0.28570 0.27972
 C1499 C 0.49260 0.28576 0.27972
 C1500 C 0.48801 0.27340 0.27147
 N1501 N 0.50025 0.26574 0.26668
 C1502 C 0.47277 0.26977 0.26859
 H1503 H 0.44306 0.26054 0.26015
 H1504 H 0.44300 0.23980 0.23938
 H1505 H 0.50022 0.25540 0.26141
 H1506 H 0.48529 0.20574 0.21475
 H1507 H 0.51484 0.20559 0.21479
 H1508 H 0.55735 0.23941 0.23934
 H1509 H 0.55742 0.26016 0.26009
 H1510 H 0.48556 0.29415 0.28498
 H1511 H 0.50020 0.24445 0.23818
 H1512 H 0.51511 0.29403 0.28498
 C1513 C 0.95373 0.75998 0.74917
 C1514 C 0.95371 0.74926 0.76015
 C1515 C 0.96823 0.74365 0.76094
 N1516 N 0.97705 0.75048 0.75069
 C1517 C 0.96823 0.76052 0.74352
 C1518 C 0.97279 0.73163 0.77021
 C1519 C 0.98790 0.72695 0.77176
 C1520 C 0.99247 0.71372 0.77855
 C1521 C 1.00793 0.71374 0.77852
 C1522 C 1.01240 0.72703 0.77181
 N1523 N 1.00013 0.73506 0.76782
 C1524 C 1.02749 0.73172 0.77022
 C1525 C 1.03196 0.74379 0.76099
 C1526 C 1.04630 0.74986 0.76067
 C1527 C 1.04631 0.76050 0.74960
 C1528 C 1.03198 0.76059 0.74353
 N1529 N 1.02323 0.75033 0.75047
 C1530 C 1.02750 0.76937 0.73114
 C1531 C 1.01237 0.77085 0.72651
 C1532 C 1.00783 0.77696 0.71297
 C1533 C 0.99237 0.77703 0.71303
 C1534 C 0.98788 0.77092 0.72658
 N1535 N 1.00014 0.76729 0.73477
 C1536 C 0.97278 0.76943 0.73126
 H1537 H 0.94410 0.76650 0.74562
 H1538 H 0.94402 0.74587 0.76664
 H1539 H 1.00016 0.76409 0.74594
 H1540 H 0.98542 0.70497 0.78315
 H1541 H 1.01506 0.70501 0.78305
 H1542 H 1.05580 0.74688 0.76763
 H1543 H 1.05581 0.76735 0.74636
 H1544 H 0.98525 0.78111 0.70411
 H1545 H 1.00012 0.74611 0.76417
 H1546 H 1.01492 0.78099 0.70399
 C1547 C 0.54590 0.75041 0.23981
 C1548 C 0.54586 0.73956 0.25067
 C1549 C 0.53147 0.73933 0.25663
 N1550 N 0.52275 0.74969 0.24980
 C1551 C 0.53154 0.75645 0.23948
 C1552 C 0.52695 0.73036 0.26885
 C1553 C 0.51184 0.72890 0.27349
 C1554 C 0.50730 0.72275 0.28700
 C1555 C 0.49183 0.72285 0.28701
 C1556 C 0.48735 0.72906 0.27350
 N1557 N 0.49961 0.73260 0.26528
 C1558 C 0.47224 0.73069 0.26889
 C1559 C 0.46773 0.73958 0.25659
 C1560 C 0.45323 0.74014 0.25094
 C1561 C 0.45325 0.75078 0.23988
 C1562 C 0.46779 0.75633 0.23906
 N1563 N 0.47658 0.74953 0.24936
 C1564 C 0.47238 0.76830 0.22973
 C1565 C 0.48748 0.77305 0.22829
 C1566 C 0.49201 0.78628 0.22148
 C1567 C 0.50747 0.78640 0.22172
 C1568 C 0.51198 0.77318 0.22857
 N1569 N 0.49973 0.76507 0.23242
 C1570 C 0.52710 0.76862 0.23038
 H1571 H 0.55544 0.75352 0.23297
 H1572 H 0.55536 0.73269 0.25387
 H1573 H 0.49976 0.75404 0.23613
 H1574 H 0.51438 0.71862 0.29594
 H1575 H 0.48470 0.71881 0.29595
 H1576 H 0.44358 0.73369 0.25452
 H1577 H 0.44358 0.75417 0.23336
 H1578 H 0.51457 0.79516 0.21723
 H1579 H 0.49964 0.73586 0.25413
 H1580 H 0.48495 0.79494 0.21673
 C1581 C -0.04736 0.74473 0.24437
 C1582 C -0.04737 0.75552 0.25526
 C1583 C -0.03244 0.75874 0.25837
 N1584 N -0.02336 0.75010 0.24983
 C1585 C -0.03243 0.74147 0.24128
 C1586 C -0.02761 0.76980 0.26867
 C1587 C -0.01238 0.77347 0.27155
 C1588 C -0.00782 0.78585 0.27978
 C1589 C 0.00761 0.78582 0.27978
 C1590 C 0.01216 0.77342 0.27156
 N1591 N -0.00012 0.76582 0.26677
 C1592 C 0.02739 0.76971 0.26869
 C1593 C 0.03222 0.75860 0.25843
 C1594 C 0.04715 0.75534 0.25534
 C1595 C 0.04716 0.74450 0.24450
 C1596 C 0.03223 0.74127 0.24142
 N1597 N 0.02315 0.74994 0.24992
 C1598 C 0.02740 0.73018 0.23115
 C1599 C 0.01217 0.72654 0.22825
 C1600 C 0.00760 0.71416 0.22002
 C1601 C -0.00783 0.71423 0.21997
 C1602 C -0.01236 0.72665 0.22816
 N1603 N -0.00009 0.73422 0.23298
 C1604 C -0.02759 0.73040 0.23098
 H1605 H -0.05728 0.73979 0.23940
 H1606 H -0.05729 0.76046 0.26023
 H1607 H -0.00008 0.74458 0.23822
 H1608 H -0.01488 0.79423 0.28502
 H1609 H 0.01468 0.79418 0.28504
 H1610 H 0.05708 0.76030 0.26029
 H1611 H 0.05708 0.73954 0.23955
 H1612 H -0.01490 0.70588 0.21471
 H1613 H -0.00012 0.75547 0.26152
 H1614 H 0.01466 0.70576 0.21481
 C1615 C 0.54625 0.73997 0.74968
 C1616 C 0.54624 0.75118 0.76017
 C1617 C 0.53177 0.75695 0.76053
 N1618 N 0.52295 0.74963 0.75063
 C1619 C 0.53174 0.73916 0.74406
 C1620 C 0.52725 0.76944 0.76917
 C1621 C 0.51216 0.77421 0.77052
 C1622 C 0.50769 0.78794 0.77630
 C1623 C 0.49222 0.78800 0.77630
 C1624 C 0.48767 0.77429 0.77054
 N1625 N 0.49989 0.76592 0.76714
 C1626 C 0.47255 0.76957 0.76926
 C1627 C 0.46811 0.75697 0.76076
 C1628 C 0.45384 0.75072 0.76093
 C1629 C 0.45381 0.73959 0.75036
 C1630 C 0.46808 0.73937 0.74412
 N1631 N 0.47679 0.75002 0.75047
 C1632 C 0.47247 0.73013 0.73205
 C1633 C 0.48758 0.72838 0.72744
 C1634 C 0.49207 0.72155 0.71425
 C1635 C 0.50753 0.72138 0.71431
 C1636 C 0.51208 0.72821 0.72749
 N1637 N 0.49983 0.73230 0.73550
 C1638 C 0.52718 0.72971 0.73220
 H1639 H 0.55591 0.73334 0.74646
 H1640 H 0.55586 0.75480 0.76663
 H1641 H 0.49982 0.73603 0.74650
 H1642 H 0.51483 0.79698 0.78014
 H1643 H 0.48514 0.79710 0.78013
 H1644 H 0.44441 0.75391 0.76788
 H1645 H 0.44435 0.73251 0.74754
 H1646 H 0.51458 0.71666 0.70564
 H1647 H 0.49986 0.75465 0.76421
 H1648 H 0.48495 0.71704 0.70553
 C1649 C 0.42364 0.29992 0.29839
 C1650 C 0.41991 0.31503 0.29586
 C1651 C 0.40715 0.32133 0.30249
 C1652 C 0.39787 0.31269 0.31184
 C1653 C 0.40163 0.29760 0.31443
 C1654 C 0.41435 0.29128 0.30775
 C1655 C 0.43696 0.29304 0.29106
 C1656 C 0.44596 0.28263 0.29881
 C1657 C 0.45788 0.27542 0.29161
 C1658 C 0.46102 0.27848 0.27656
 C1659 C 0.45243 0.28921 0.26891
 C1660 C 0.44049 0.29642 0.27609
 H1661 H 0.40467 0.33303 0.30041
 H1662 H 0.39461 0.29056 0.32137
 H1663 H 0.46448 0.26720 0.29766
 H1664 H 0.45472 0.29164 0.25726
 H1665 H 0.41673 0.27953 0.30968
 H1666 H 0.44371 0.27999 0.31042
 H1667 H 0.42693 0.32202 0.28885
 H1668 H 0.43371 0.30427 0.26977
 C1669 C 0.42333 0.80046 0.79830
 C1670 C 0.41704 0.81377 0.79270
 C1671 C 0.40426 0.82003 0.79933
 C1672 C 0.39737 0.81314 0.81178
 C1673 C 0.40386 0.79986 0.81743
 C1674 C 0.41663 0.79362 0.81077
 C1675 C 0.43655 0.79345 0.79090
 C1676 C 0.44801 0.78671 0.79942
 C1677 C 0.45995 0.77931 0.79240
 C1678 C 0.46062 0.77851 0.77675
 C1679 C 0.44945 0.78558 0.76820
 C1680 C 0.43752 0.79298 0.77520
 H1681 H 0.39993 0.83032 0.79460
 H1682 H 0.39908 0.79404 0.82690
 H1683 H 0.46852 0.77396 0.79915
 H1684 H 0.44981 0.78506 0.75610
 H1685 H 0.42106 0.78322 0.81520
 H1686 H 0.44771 0.78709 0.81152
 H1687 H 0.42207 0.81942 0.78322
 H1688 H 0.42881 0.79791 0.76832
 C1689 C -0.07675 0.30056 0.79810
 C1690 C -0.08055 0.31563 0.79536
 C1691 C -0.09328 0.32202 0.80198
 C1692 C -0.10246 0.31351 0.81154
 C1693 C -0.09863 0.29847 0.81434
 C1694 C -0.08597 0.29207 0.80766
 C1695 C -0.06345 0.29357 0.79082
 C1696 C -0.05444 0.28325 0.79868
 C1697 C -0.04250 0.27596 0.79157
 C1698 C -0.03934 0.27887 0.77649
 C1699 C -0.04798 0.28947 0.76870
 C1700 C -0.05994 0.29674 0.77579
 H1701 H -0.09584 0.33367 0.79973
 H1702 H -0.10561 0.29152 0.82144
 H1703 H -0.03591 0.26782 0.79772
 H1704 H -0.04571 0.29174 0.75702
 H1705 H -0.08357 0.28034 0.80974
 H1706 H -0.05671 0.28071 0.81030
 H1707 H -0.07360 0.32252 0.78819
 H1708 H -0.06676 0.30447 0.76937
 C1709 C -0.07687 0.79995 0.29835
 C1710 C -0.08068 0.81502 0.29571
 C1711 C -0.09351 0.82130 0.30224
 C1712 C -0.10280 0.81266 0.31160
 C1713 C -0.09895 0.79761 0.31429
 C1714 C -0.08616 0.79133 0.30772
 C1715 C -0.06351 0.79308 0.29106
 C1716 C -0.05447 0.78275 0.29886
 C1717 C -0.04253 0.77552 0.29169
 C1718 C -0.03941 0.77851 0.27662
 C1719 C -0.04805 0.78917 0.26892
 C1720 C -0.06001 0.79638 0.27607
 H1721 H -0.09603 0.83298 0.30008
 H1722 H -0.10596 0.79057 0.32125
 H1723 H -0.03589 0.76737 0.29779
 H1724 H -0.04578 0.79155 0.25725
 H1725 H -0.08371 0.77960 0.30974
 H1726 H -0.05671 0.78016 0.31049
 H1727 H -0.07366 0.82202 0.28870
 H1728 H -0.06682 0.80417 0.26971
 C1729 C 0.57603 0.70098 0.29953
 C1730 C 0.58385 0.68954 0.29202
 C1731 C 0.59669 0.68309 0.29836
 C1732 C 0.60200 0.68791 0.31238
 C1733 C 0.59401 0.69922 0.31997
 C1734 C 0.58120 0.70568 0.31361
 C1735 C 0.56284 0.70835 0.29245
 C1736 C 0.56114 0.72402 0.29320
 C1737 C 0.54926 0.73110 0.28583
 C1738 C 0.53883 0.72266 0.27762
 C1739 C 0.54020 0.70700 0.27719
 C1740 C 0.55214 0.69989 0.28451
 H1741 H 0.60256 0.67451 0.29211
 H1742 H 0.59757 0.70310 0.33086
 H1743 H 0.54835 0.74321 0.28624
 H1744 H 0.53220 0.70033 0.27093
 H1745 H 0.57530 0.71433 0.31976
 H1746 H 0.56925 0.73085 0.29910
 H1747 H 0.58027 0.68583 0.28105
 H1748 H 0.55305 0.68780 0.28391
 C1749 C 0.57614 0.20051 0.79941
 C1750 C 0.58395 0.18905 0.79193
 C1751 C 0.59665 0.18247 0.79838
 C1752 C 0.60183 0.18718 0.81248
 C1753 C 0.59387 0.19852 0.82003
 C1754 C 0.58120 0.20512 0.81356
 C1755 C 0.56305 0.20796 0.79228
 C1756 C 0.56141 0.22363 0.79305
 C1757 C 0.54956 0.23076 0.78569
 C1758 C 0.53912 0.22237 0.77747
 C1759 C 0.54045 0.20671 0.77697
 C1760 C 0.55235 0.19955 0.78428
 H1761 H 0.60253 0.17387 0.79215
 H1762 H 0.59735 0.20233 0.83098
 H1763 H 0.54868 0.24287 0.78614
 H1764 H 0.53244 0.20009 0.77068
 H1765 H 0.57530 0.21380 0.81969
 H1766 H 0.56954 0.23042 0.79899
 H1767 H 0.58045 0.18542 0.78091
 H1768 H 0.55322 0.18745 0.78365
 C1769 C 1.07624 0.70119 0.80028
 C1770 C 1.08412 0.70871 0.81164
 C1771 C 1.09689 0.70225 0.81812
 C1772 C 1.10206 0.68810 0.81340
 C1773 C 1.09394 0.68048 0.80224
 C1774 C 1.08122 0.68695 0.79575
 C1775 C 1.06324 0.70840 0.79275
 C1776 C 1.06167 0.70746 0.77712
 C1777 C 1.04988 0.71480 0.76987
 C1778 C 1.03941 0.72318 0.77811
 C1779 C 1.04070 0.72389 0.79372
 C1780 C 1.05255 0.71659 0.80099
 H1781 H 1.10276 0.70849 0.82668
 H1782 H 1.09741 0.66954 0.79833
 H1783 H 1.04904 0.71418 0.75780
 H1784 H 1.03268 0.73031 0.80022
 H1785 H 1.07527 0.68079 0.78716
 H1786 H 1.06980 0.70138 0.77044
 H1787 H 1.08065 0.71978 0.81525
 H1788 H 1.05337 0.71736 0.81306
 C1789 C 1.07638 0.20065 0.29872
 C1790 C 1.08714 0.20961 0.30601
 C1791 C 1.09982 0.20314 0.31261
 C1792 C 1.10215 0.18758 0.31193
 C1793 C 1.09149 0.17859 0.30460
 C1794 C 1.07870 0.18504 0.29815
 C1795 C 1.06301 0.20762 0.29147
 C1796 C 1.05742 0.20198 0.27785
 C1797 C 1.04537 0.20900 0.27065
 C1798 C 1.03875 0.22184 0.27687
 C1799 C 1.04405 0.22736 0.29057
 C1800 C 1.05600 0.22026 0.29786
 H1801 H 1.10797 0.21038 0.31797
 H1802 H 1.09290 0.16654 0.30406
 H1803 H 1.04148 0.20471 0.26000
 H1804 H 1.03903 0.23727 0.29550
 H1805 H 1.07055 0.17776 0.29285
 H1806 H 1.06264 0.19242 0.27249
 H1807 H 1.08594 0.22169 0.30637
 H1808 H 1.05979 0.22473 0.30846
 C1809 C 0.57646 0.29939 0.70141
 C1810 C 0.58161 0.31355 0.70604
 C1811 C 0.59433 0.31998 0.69947
 C1812 C 0.60223 0.31239 0.68814
 C1813 C 0.59697 0.29829 0.68341
 C1814 C 0.58424 0.29188 0.68996
 C1815 C 0.56331 0.29225 0.70877
 C1816 C 0.55266 0.28423 0.70032
 C1817 C 0.54073 0.27688 0.70737
 C1818 C 0.53929 0.27736 0.72298
 C1819 C 0.54970 0.28558 0.73142
 C1820 C 0.56159 0.29299 0.72439
 H1821 H 0.59791 0.33093 0.70328
 H1822 H 0.60281 0.29201 0.67485
 H1823 H 0.53278 0.27056 0.70071
 H1824 H 0.54876 0.28600 0.74350
 H1825 H 0.58071 0.28085 0.68632
 H1826 H 0.55360 0.28361 0.68826
 H1827 H 0.57574 0.31969 0.71472
 H1828 H 0.56968 0.29893 0.73122
 C1829 C 0.57649 0.79908 0.20131
 C1830 C 0.58165 0.81324 0.20587
 C1831 C 0.59446 0.81957 0.19938
 C1832 C 0.60247 0.81186 0.18819
 C1833 C 0.59721 0.79773 0.18356
 C1834 C 0.58438 0.79143 0.19003
 C1835 C 0.56324 0.79207 0.20860
 C1836 C 0.55264 0.78400 0.20013
 C1837 C 0.54064 0.77672 0.20715
 C1838 C 0.53908 0.77733 0.22275
 C1839 C 0.54941 0.78564 0.23120
 C1840 C 0.56137 0.79297 0.22420
 H1841 H 0.59801 0.83053 0.20316
 H1842 H 0.60309 0.79135 0.17509
 H1843 H 0.53273 0.77035 0.20048
 H1844 H 0.54837 0.78617 0.24326
 H1845 H 0.58083 0.78038 0.18644
 H1846 H 0.55367 0.78328 0.18809
 H1847 H 0.57572 0.81950 0.21442
 H1848 H 0.56941 0.79896 0.23104
 C1849 C 1.07649 0.29972 0.20186
 C1850 C 1.08095 0.31438 0.20554
 C1851 C 1.09371 0.32074 0.19896
 C1852 C 1.10231 0.31257 0.18857
 C1853 C 1.09781 0.29791 0.18488
 C1854 C 1.08505 0.29157 0.19144
 C1855 C 1.06322 0.29277 0.20915
 C1856 C 1.05314 0.28392 0.20084
 C1857 C 1.04113 0.27669 0.20789
 C1858 C 1.03907 0.27813 0.22336
 C1859 C 1.04886 0.28721 0.23165
 C1860 C 1.06081 0.29452 0.22460
 H1861 H 1.09671 0.33211 0.20193
 H1862 H 1.10425 0.29119 0.17710
 H1863 H 1.03363 0.26972 0.20136
 H1864 H 1.04741 0.28837 0.24363
 H1865 H 1.08205 0.28015 0.18860
 H1866 H 1.05461 0.28253 0.18889
 H1867 H 1.07449 0.32099 0.21341
 H1868 H 1.06844 0.30116 0.23132
 C1869 C 1.07629 0.79868 0.69992
 C1870 C 1.08355 0.81071 0.70704
 C1871 C 1.09629 0.81729 0.70068
 C1872 C 1.10211 0.81199 0.68705
 C1873 C 1.09475 0.80007 0.67983
 C1874 C 1.08198 0.79349 0.68619
 C1875 C 1.06319 0.79126 0.70709
 C1876 C 1.06188 0.77554 0.70695
 C1877 C 1.05010 0.76847 0.71450
 C1878 C 1.03939 0.77698 0.72230
 C1879 C 1.04040 0.79267 0.72215
 C1880 C 1.05221 0.79976 0.71463
 H1881 H 1.10174 0.82631 0.70667
 H1882 H 1.09878 0.79582 0.66922
 H1883 H 1.04947 0.75634 0.71452
 H1884 H 1.03219 0.79939 0.72810
 H1885 H 1.07653 0.78437 0.68032
 H1886 H 1.07021 0.76867 0.70138
 H1887 H 1.07961 0.81480 0.71775
 H1888 H 1.05279 0.81189 0.71478
 C1889 C 0.42336 0.70094 0.70125
 C1890 C 0.41536 0.68958 0.70868
 C1891 C 0.40274 0.68302 0.70206
 C1892 C 0.39784 0.68763 0.68783
 C1893 C 0.40594 0.69891 0.68035
 C1894 C 0.41854 0.70550 0.68699
 C1895 C 0.43644 0.70828 0.70853
 C1896 C 0.43828 0.72392 0.70769
 C1897 C 0.45016 0.73095 0.71510
 C1898 C 0.46047 0.72247 0.72343
 C1899 C 0.45892 0.70683 0.72404
 C1900 C 0.44697 0.69979 0.71668
 H1901 H 0.39673 0.67450 0.70825
 H1902 H 0.40266 0.70264 0.66931
 H1903 H 0.45119 0.74304 0.71458
 H1904 H 0.46681 0.70014 0.73042
 H1905 H 0.42458 0.71409 0.68091
 H1906 H 0.43029 0.73078 0.70163
 H1907 H 0.41866 0.68601 0.71978
 H1908 H 0.44595 0.68771 0.71738
 C1909 C 0.42373 0.20018 0.20100
 C1910 C 0.42012 0.18504 0.20348
 C1911 C 0.40738 0.17870 0.19689
 C1912 C 0.39798 0.18735 0.18765
 C1913 C 0.40165 0.20245 0.18509
 C1914 C 0.41436 0.20880 0.19171
 C1915 C 0.43696 0.20711 0.20839
 C1916 C 0.44597 0.21753 0.20068
 C1917 C 0.45783 0.22475 0.20794
 C1918 C 0.46088 0.22170 0.22301
 C1919 C 0.45226 0.21098 0.23063
 C1920 C 0.44039 0.20375 0.22339
 H1921 H 0.40500 0.16697 0.19893
 H1922 H 0.39455 0.20949 0.17820
 H1923 H 0.46447 0.23295 0.20191
 H1924 H 0.45450 0.20854 0.24229
 H1925 H 0.41668 0.22058 0.18981
 H1926 H 0.44378 0.22014 0.18906
 H1927 H 0.42723 0.17806 0.21042
 H1928 H 0.43359 0.19589 0.22967
 C1929 C -0.07659 0.70025 0.20102
 C1930 C -0.08579 0.70884 0.19151
 C1931 C -0.09857 0.70256 0.18494
 C1932 C -0.10250 0.68757 0.18778
 C1933 C -0.09328 0.67895 0.19722
 C1934 C -0.08045 0.68521 0.20375
 C1935 C -0.06330 0.70713 0.20838
 C1936 C -0.05995 0.70389 0.22343
 C1937 C -0.04806 0.71112 0.23065
 C1938 C -0.03937 0.72174 0.22299
 C1939 C -0.04233 0.72467 0.20788
 C1940 C -0.05419 0.71742 0.20062
 H1941 H -0.10553 0.70958 0.17790
 H1942 H -0.09586 0.66731 0.19947
 H1943 H -0.04589 0.70877 0.24234
 H1944 H -0.03562 0.73277 0.20180
 H1945 H -0.07350 0.67824 0.21085
 H1946 H -0.06682 0.69614 0.22976
 H1947 H -0.08330 0.72054 0.18941
 H1948 H -0.05630 0.71995 0.18897
 C1949 C -0.07649 0.20015 0.70132
 C1950 C -0.08576 0.20870 0.69186
 C1951 C -0.09846 0.20234 0.68523
 C1952 C -0.10222 0.18728 0.68794
 C1953 C -0.09294 0.17870 0.69736
 C1954 C -0.08020 0.18506 0.70396
 C1955 C -0.06325 0.20710 0.70868
 C1956 C -0.05989 0.20390 0.72373
 C1957 C -0.04802 0.21117 0.73093
 C1958 C -0.03933 0.22178 0.72323
 C1959 C -0.04232 0.22468 0.70812
 C1960 C -0.05418 0.21740 0.70090
 H1961 H -0.10548 0.20933 0.67822
 H1962 H -0.09542 0.16702 0.69952
 H1963 H -0.04584 0.20886 0.74263
 H1964 H -0.03565 0.23280 0.70203
 H1965 H -0.07318 0.17811 0.71103
 H1966 H -0.06674 0.19614 0.73007
 H1967 H -0.08338 0.22044 0.68984
 H1968 H -0.05631 0.21990 0.68923
 C1969 C 0.29913 0.42366 0.29895
 C1970 C 0.31337 0.41857 0.29445
 C1971 C 0.31975 0.40583 0.30098
 C1972 C 0.31202 0.39784 0.31216
 C1973 C 0.29782 0.40304 0.31674
 C1974 C 0.29146 0.41580 0.31023
 C1975 C 0.29207 0.43682 0.29158
 C1976 C 0.28394 0.44743 0.29998
 C1977 C 0.27667 0.45938 0.29288
 C1978 C 0.27735 0.46085 0.27728
 C1979 C 0.28569 0.45048 0.26890
 C1980 C 0.29301 0.43859 0.27598
 H1981 H 0.33077 0.40233 0.29726
 H1982 H 0.29143 0.39716 0.32520
 H1983 H 0.27028 0.46732 0.29949
 H1984 H 0.28627 0.45146 0.25683
 H1985 H 0.28036 0.41931 0.31378
 H1986 H 0.28318 0.44646 0.31203
 H1987 H 0.31963 0.42449 0.28591
 H1988 H 0.29904 0.43052 0.26919
 C1989 C 0.29965 -0.07643 0.79961
 C1990 C 0.31220 -0.08332 0.79302
 C1991 C 0.31872 -0.09602 0.79950
 C1992 C 0.31283 -0.10226 0.81276
 C1993 C 0.30034 -0.09514 0.81942
 C1994 C 0.29387 -0.08243 0.81294
 C1995 C 0.29232 -0.06334 0.79233
 C1996 C 0.27655 -0.06223 0.79193
 C1997 C 0.26959 -0.05039 0.78441
 C1998 C 0.27824 -0.03945 0.77713
 C1999 C 0.29396 -0.04029 0.77778
 C2000 C 0.30095 -0.05214 0.78532
 H2001 H 0.32828 -0.10096 0.79387
 H2002 H 0.29542 -0.09927 0.82968
 H2003 H 0.25743 -0.04989 0.78400
 H2004 H 0.30079 -0.03191 0.77224
 H2005 H 0.28433 -0.07725 0.81842
 H2006 H 0.26957 -0.07075 0.79703
 H2007 H 0.31680 -0.07911 0.78262
 H2008 H 0.31311 -0.05257 0.78560
 C2009 C 0.79865 0.42404 0.80068
 C2010 C 0.81157 0.41759 0.79434
 C2011 C 0.81833 0.40504 0.80085
 C2012 C 0.81229 0.39845 0.81387
 C2013 C 0.79948 0.40516 0.82035
 C2014 C 0.79276 0.41775 0.81383
 C2015 C 0.79118 0.43704 0.79337
 C2016 C 0.77540 0.43795 0.79277
 C2017 C 0.76837 0.44974 0.78521
 C2018 C 0.77696 0.46080 0.77802
 C2019 C 0.79268 0.46018 0.77893
 C2020 C 0.79973 0.44843 0.78655
 H2021 H 0.82813 0.40045 0.79537
 H2022 H 0.79448 0.40078 0.83047
 H2023 H 0.75621 0.45008 0.78467
 H2024 H 0.79948 0.46869 0.77354
 H2025 H 0.78296 0.42260 0.81915
 H2026 H 0.76847 0.42932 0.79777
 H2027 H 0.81628 0.42202 0.78408
 H2028 H 0.81188 0.44823 0.78707
 C2029 C 0.79916 -0.07630 0.29964
 C2030 C 0.81171 -0.08323 0.29308
 C2031 C 0.81823 -0.09590 0.29962
 C2032 C 0.81235 -0.10206 0.31293
 C2033 C 0.79984 -0.09492 0.31954
 C2034 C 0.79337 -0.08224 0.31299
 C2035 C 0.79184 -0.06323 0.29231
 C2036 C 0.77608 -0.06208 0.29192
 C2037 C 0.76912 -0.05024 0.28440
 C2038 C 0.77777 -0.03934 0.27708
 C2039 C 0.79350 -0.04020 0.27771
 C2040 C 0.80048 -0.05206 0.28525
 H2041 H 0.82776 -0.10088 0.29400
 H2042 H 0.79492 -0.09902 0.32981
 H2043 H 0.75696 -0.04972 0.28402
 H2044 H 0.80033 -0.03184 0.27215
 H2045 H 0.78383 -0.07704 0.31845
 H2046 H 0.76909 -0.07056 0.29708
 H2047 H 0.81630 -0.07907 0.28266
 H2048 H 0.81264 -0.05250 0.28553
 C2049 C 0.29941 0.57676 0.70160
 C2050 C 0.31506 0.57902 0.70171
 C2051 C 0.32132 0.59185 0.69522
 C2052 C 0.31210 0.60259 0.68831
 C2053 C 0.29649 0.60029 0.68803
 C2054 C 0.29021 0.58757 0.69469
 C2055 C 0.29267 0.56338 0.70896
 C2056 C 0.27991 0.55636 0.70283
 C2057 C 0.27306 0.54436 0.71023
 C2058 C 0.27893 0.53906 0.72377
 C2059 C 0.29187 0.54571 0.72974
 C2060 C 0.29866 0.55780 0.72243
 H2061 H 0.33341 0.59323 0.69541
 H2062 H 0.28910 0.60850 0.68297
 H2063 H 0.26304 0.53932 0.70551
 H2064 H 0.29642 0.54183 0.74029
 H2065 H 0.27810 0.58637 0.69468
 H2066 H 0.27515 0.56018 0.69236
 H2067 H 0.32251 0.57082 0.70670
 H2068 H 0.30832 0.56305 0.72759
 C2069 C 0.29997 1.07620 0.20161
 C2070 C 0.31429 1.08124 0.20587
 C2071 C 0.32058 1.09396 0.19922
 C2072 C 0.31266 1.10198 0.18818
 C2073 C 0.29834 1.09687 0.18391
 C2074 C 0.29208 1.08412 0.19053
 C2075 C 0.29305 1.06300 0.20901
 C2076 C 0.28490 1.05241 0.20062
 C2077 C 0.27762 1.04049 0.20774
 C2078 C 0.27831 1.03902 0.22333
 C2079 C 0.28675 1.04931 0.23170
 C2080 C 0.29409 1.06119 0.22460
 H2081 H 0.33169 1.09741 0.20271
 H2082 H 0.29181 1.10279 0.17559
 H2083 H 0.27118 1.03259 0.20114
 H2084 H 0.28734 1.04832 0.24376
 H2085 H 0.28091 1.08065 0.18720
 H2086 H 0.28409 1.05340 0.18858
 H2087 H 0.32069 1.07528 0.21428
 H2088 H 0.30017 1.06922 0.23136
 C2089 C 0.79910 0.57606 0.20046
 C2090 C 0.81042 0.58400 0.20802
 C2091 C 0.81688 0.59678 0.20162
 C2092 C 0.81221 0.60189 0.18748
 C2093 C 0.80103 0.59378 0.17984
 C2094 C 0.79454 0.58105 0.18627
 C2095 C 0.79172 0.56295 0.20759
 C2096 C 0.77603 0.56124 0.20678
 C2097 C 0.76892 0.54943 0.21421
 C2098 C 0.77737 0.53909 0.22251
 C2099 C 0.79306 0.54048 0.22303
 C2100 C 0.80018 0.55235 0.21567
 H2101 H 0.82535 0.60274 0.20793
 H2102 H 0.79723 0.59720 0.16887
 H2103 H 0.75679 0.54850 0.21374
 H2104 H 0.79972 0.53255 0.22937
 H2105 H 0.78597 0.57505 0.18009
 H2106 H 0.76920 0.56929 0.20078
 H2107 H 0.81401 0.58056 0.21908
 H2108 H 0.81230 0.55329 0.21632
 C2109 C 0.79905 1.07627 0.70060
 C2110 C 0.81058 1.08406 0.70801
 C2111 C 0.81702 1.09681 0.70159
 C2112 C 0.81208 1.10210 0.68761
 C2113 C 0.80066 1.09420 0.68013
 C2114 C 0.79422 1.08144 0.68655
 C2115 C 0.79176 1.06312 0.70777
 C2116 C 0.77608 1.06132 0.70709
 C2117 C 0.76910 1.04948 0.71458
 C2118 C 0.77766 1.03920 0.72285
 C2119 C 0.79334 1.04069 0.72326
 C2120 C 0.80034 1.05257 0.71581
 H2121 H 0.82565 1.10268 0.70778
 H2122 H 0.79671 1.09781 0.66927
 H2123 H 0.75697 1.04847 0.71419
 H2124 H 0.80009 1.03281 0.72957
 H2125 H 0.78549 1.07557 0.68048
 H2126 H 0.76915 1.06932 0.70113
 H2127 H 0.81436 1.08051 0.71897
 H2128 H 0.81245 1.05355 0.71637
 C2129 C 0.70054 0.57642 0.29887
 C2130 C 0.70815 0.58422 0.31022
 C2131 C 0.70176 0.59693 0.31681
 C2132 C 0.68756 0.60215 0.31222
 C2133 C 0.67991 0.59426 0.30093
 C2134 C 0.68633 0.58157 0.29432
 C2135 C 0.70762 0.56325 0.29152
 C2136 C 0.70678 0.56146 0.27591
 C2137 C 0.71418 0.54957 0.26888
 C2138 C 0.72250 0.53922 0.27731
 C2139 C 0.72304 0.54069 0.29291
 C2140 C 0.71569 0.55262 0.29997
 H2141 H 0.70810 0.60276 0.32533
 H2142 H 0.66890 0.59779 0.29720
 H2143 H 0.71370 0.54859 0.25681
 H2144 H 0.72939 0.53275 0.29957
 H2145 H 0.68012 0.57570 0.28571
 H2146 H 0.70078 0.56951 0.26909
 H2147 H 0.71924 0.58069 0.31379
 H2148 H 0.71636 0.55359 0.31202
 C2149 C 0.69999 1.07644 0.79861
 C2150 C 0.70689 1.08325 0.81099
 C2151 C 0.70057 1.09597 0.81764
 C2152 C 0.68715 1.10228 0.81209
 C2153 C 0.68021 1.09530 0.79973
 C2154 C 0.68655 1.08258 0.79310
 C2155 C 0.70709 1.06331 0.79119
 C2156 C 0.70738 1.06227 0.77549
 C2157 C 0.71484 1.05043 0.76845
 C2158 C 0.72217 1.03940 0.77695
 C2159 C 0.72155 1.04013 0.79261
 C2160 C 0.71408 1.05199 0.79967
 H2161 H 0.70645 1.10084 0.82704
 H2162 H 0.66986 1.09953 0.79503
 H2163 H 0.71521 1.05002 0.75634
 H2164 H 0.72710 1.03167 0.79933
 H2165 H 0.68086 1.07748 0.78368
 H2166 H 0.70223 1.07086 0.76863
 H2167 H 0.71739 1.07895 0.81535
 H2168 H 0.71384 1.05234 0.81178
 C2169 C 0.20071 0.57693 0.79838
 C2170 C 0.20828 0.58462 0.80985
 C2171 C 0.20188 0.59729 0.81649
 C2172 C 0.18776 0.60258 0.81181
 C2173 C 0.18019 0.59488 0.80034
 C2174 C 0.18659 0.58221 0.79370
 C2175 C 0.20771 0.56369 0.79110
 C2176 C 0.20692 0.56186 0.77549
 C2177 C 0.21425 0.54990 0.76853
 C2178 C 0.22247 0.53954 0.77704
 C2179 C 0.22292 0.54103 0.79264
 C2180 C 0.21561 0.55302 0.79962
 H2181 H 0.20812 0.60303 0.82515
 H2182 H 0.16922 0.59850 0.79657
 H2183 H 0.21384 0.54889 0.75646
 H2184 H 0.22920 0.53308 0.79936
 H2185 H 0.18041 0.57643 0.78501
 H2186 H 0.20102 0.56995 0.76861
 H2187 H 0.21931 0.58100 0.81349
 H2188 H 0.21622 0.55400 0.81168
 C2189 C 0.20081 1.07662 0.29850
 C2190 C 0.20990 1.08750 0.30545
 C2191 C 0.20348 1.10019 0.31207
 C2192 C 0.18785 1.10238 0.31175
 C2193 C 0.17875 1.09157 0.30480
 C2194 C 0.18515 1.07879 0.29833
 C2195 C 0.20770 1.06327 0.29120
 C2196 C 0.20182 1.05762 0.27771
 C2197 C 0.20872 1.04554 0.27048
 C2198 C 0.22165 1.03894 0.27654
 C2199 C 0.22743 1.04432 0.29010
 C2200 C 0.22048 1.05632 0.29741
 H2201 H 0.21079 1.10844 0.31715
 H2202 H 0.16665 1.09286 0.30457
 H2203 H 0.20425 1.04160 0.25992
 H2204 H 0.23743 1.03933 0.29490
 H2205 H 0.17779 1.07053 0.29331
 H2206 H 0.19216 1.06281 0.27249
 H2207 H 0.22201 1.08639 0.30552
 H2208 H 0.22516 1.06020 0.30790
 C2209 C 0.70096 0.42351 0.70077
 C2210 C 0.69382 0.41265 0.70970
 C2211 C 0.68702 0.40011 0.70321
 C2212 C 0.68736 0.39803 0.68764
 C2213 C 0.69446 0.40885 0.67868
 C2214 C 0.70111 0.42149 0.68515
 C2215 C 0.70847 0.43669 0.70775
 C2216 C 0.72204 0.44230 0.70189
 C2217 C 0.72941 0.45426 0.70883
 C2218 C 0.72342 0.46077 0.72179
 C2219 C 0.70982 0.45540 0.72759
 C2220 C 0.70235 0.44353 0.72058
 H2221 H 0.68185 0.39184 0.71042
 H2222 H 0.69475 0.40764 0.66663
 H2223 H 0.74001 0.45820 0.70434
 H2224 H 0.70507 0.46032 0.73761
 H2225 H 0.70628 0.42974 0.67790
 H2226 H 0.72721 0.43719 0.69218
 H2227 H 0.69377 0.41363 0.72177
 H2228 H 0.69181 0.43970 0.72525
 C2229 C 0.70035 -0.07629 0.20145
 C2230 C 0.68647 -0.08186 0.20647
 C2231 C 0.68004 -0.09452 0.19981
 C2232 C 0.68737 -0.10195 0.18798
 C2233 C 0.70124 -0.09631 0.18295
 C2234 C 0.70764 -0.08364 0.18959
 C2235 C 0.70745 -0.06312 0.20879
 C2236 C 0.71499 -0.05220 0.20025
 C2237 C 0.72242 -0.04030 0.20725
 C2238 C 0.72249 -0.03915 0.22289
 C2239 C 0.71467 -0.04979 0.23143
 C2240 C 0.70719 -0.06165 0.22445
 H2241 H 0.66930 -0.09839 0.20394
 H2242 H 0.70734 -0.10175 0.17400
 H2243 H 0.72839 -0.03215 0.20051
 H2244 H 0.71465 -0.04906 0.24353
 H2245 H 0.71848 -0.07979 0.18564
 H2246 H 0.71521 -0.05291 0.18816
 H2247 H 0.68051 -0.07636 0.21550
 H2248 H 0.70160 -0.06993 0.23135
 C2249 C 0.20104 0.42417 0.19989
 C2250 C 0.18924 0.41672 0.20722
 C2251 C 0.18273 0.40390 0.20096
 C2252 C 0.18786 0.39823 0.18719
 C2253 C 0.19950 0.40584 0.17974
 C2254 C 0.20602 0.41865 0.18602
 C2255 C 0.20851 0.43727 0.20698
 C2256 C 0.22425 0.43863 0.20662
 C2257 C 0.23140 0.45039 0.21410
 C2258 C 0.22294 0.46104 0.22202
 C2259 C 0.20722 0.46000 0.22207
 C2260 C 0.20005 0.44819 0.21464
 H2261 H 0.17391 0.39830 0.20712
 H2262 H 0.20362 0.40197 0.16903
 H2263 H 0.24355 0.45104 0.21397
 H2264 H 0.20054 0.46817 0.22810
 H2265 H 0.21496 0.42426 0.18000
 H2266 H 0.23109 0.43035 0.20095
 H2267 H 0.18531 0.42055 0.21803
 H2268 H 0.18790 0.44754 0.21495
 C2269 C 0.20129 -0.07712 0.70151
 C2270 C 0.20837 -0.08440 0.68948
 C2271 C 0.20185 -0.09703 0.68287
 C2272 C 0.18808 -0.10269 0.68813
 C2273 C 0.18100 -0.09538 0.70016
 C2274 C 0.18752 -0.08276 0.70677
 C2275 C 0.20843 -0.06394 0.70879
 C2276 C 0.20831 -0.06250 0.72446
 C2277 C 0.21567 -0.05054 0.73138
 C2278 C 0.22325 -0.03978 0.72278
 C2279 C 0.22309 -0.04092 0.70714
 C2280 C 0.21576 -0.05292 0.70020
 H2281 H 0.20774 -0.10244 0.67376
 H2282 H 0.17031 -0.09927 0.70442
 H2283 H 0.21573 -0.04982 0.74348
 H2284 H 0.22889 -0.03269 0.70036
 H2285 H 0.18169 -0.07730 0.71591
 H2286 H 0.20289 -0.07085 0.73140
 H2287 H 0.21912 -0.08050 0.68535
 H2288 H 0.21586 -0.05361 0.68810
 C2289 C 0.29906 0.29908 0.42354
 C2290 C 0.31436 0.29685 0.42024
 C2291 C 0.32078 0.30325 0.40746
 C2292 C 0.31207 0.31209 0.39774
 C2293 C 0.29682 0.31441 0.40109
 C2294 C 0.29038 0.30795 0.41382
 C2295 C 0.29206 0.29187 0.43681
 C2296 C 0.28109 0.29949 0.44526
 C2297 C 0.27382 0.29235 0.45715
 C2298 C 0.27740 0.27749 0.46081
 C2299 C 0.28864 0.26998 0.45274
 C2300 C 0.29589 0.27710 0.44083
 H2301 H 0.33261 0.30141 0.40531
 H2302 H 0.28974 0.32096 0.39373
 H2303 H 0.26520 0.29829 0.46334
 H2304 H 0.29147 0.25847 0.45543
 H2305 H 0.27850 0.30964 0.41585
 H2306 H 0.27806 0.31095 0.44261
 H2307 H 0.32141 0.29026 0.42760
 H2308 H 0.30415 0.27085 0.43448
 C2309 C 0.29898 0.79944 -0.07636
 C2310 C 0.31045 0.79188 -0.08411
 C2311 C 0.31699 0.79824 -0.09684
 C2312 C 0.31225 0.81234 -0.10211
 C2313 C 0.30088 0.81995 -0.09421
 C2314 C 0.29432 0.81357 -0.08152
 C2315 C 0.29158 0.79236 -0.06325
 C2316 C 0.27586 0.79301 -0.06165
 C2317 C 0.26877 0.78562 -0.04983
 C2318 C 0.27724 0.77752 -0.03936
 C2319 C 0.29294 0.77718 -0.04063
 C2320 C 0.30006 0.78451 -0.05252
 H2321 H 0.32559 0.79194 -0.10264
 H2322 H 0.29701 0.83089 -0.09776
 H2323 H 0.25662 0.78594 -0.04899
 H2324 H 0.29962 0.77098 -0.03261
 H2325 H 0.28562 0.81974 -0.07568
 H2326 H 0.26902 0.79885 -0.06979
 H2327 H 0.31413 0.78087 -0.08053
 H2328 H 0.31219 0.78398 -0.05336
 C2329 C 0.79915 0.29945 -0.07658
 C2330 C 0.81075 0.29207 -0.08431
 C2331 C 0.81716 0.29850 -0.09707
 C2332 C 0.81214 0.31248 -0.10238
 C2333 C 0.80068 0.31995 -0.09450
 C2334 C 0.79427 0.31351 -0.08176
 C2335 C 0.79181 0.29225 -0.06349
 C2336 C 0.77610 0.29289 -0.06180
 C2337 C 0.76906 0.28545 -0.04999
 C2338 C 0.77757 0.27728 -0.03959
 C2339 C 0.79326 0.27689 -0.04099
 C2340 C 0.80033 0.28429 -0.05287
 H2341 H 0.82584 0.29232 -0.10289
 H2342 H 0.79667 0.33082 -0.09810
 H2343 H 0.75692 0.28581 -0.04908
 H2344 H 0.79999 0.27063 -0.03305
 H2345 H 0.78550 0.31957 -0.07591
 H2346 H 0.76922 0.29878 -0.06988
 H2347 H 0.81461 0.28112 -0.08073
 H2348 H 0.81246 0.28374 -0.05378
 C2349 C 0.79859 0.79925 0.42358
 C2350 C 0.80879 0.79107 0.41478
 C2351 C 0.81533 0.79752 0.40210
 C2352 C 0.81183 0.81233 0.39794
 C2353 C 0.80171 0.82054 0.40683
 C2354 C 0.79515 0.81407 0.41949
 C2355 C 0.79129 0.79220 0.43675
 C2356 C 0.77583 0.79424 0.43938
 C2357 C 0.76877 0.78696 0.45130
 C2358 C 0.77706 0.77763 0.46086
 C2359 C 0.79253 0.77586 0.45855
 C2360 C 0.79959 0.78304 0.44655
 H2361 H 0.82291 0.79078 0.39544
 H2362 H 0.79890 0.83203 0.40412
 H2363 H 0.75678 0.78835 0.45292
 H2364 H 0.79905 0.76867 0.46585
 H2365 H 0.78746 0.82071 0.42616
 H2366 H 0.76911 0.80110 0.43195
 H2367 H 0.81146 0.77953 0.41751
 H2368 H 0.81154 0.78140 0.44490
 C2369 C 0.70047 0.29891 0.57634
 C2370 C 0.70781 0.31070 0.58376
 C2371 C 0.70144 0.31729 0.59646
 C2372 C 0.68754 0.31227 0.60204
 C2373 C 0.68014 0.30056 0.59449
 C2374 C 0.68653 0.29395 0.58181
 C2375 C 0.70758 0.29148 0.56324
 C2376 C 0.70718 0.27577 0.56182
 C2377 C 0.71460 0.26866 0.55001
 C2378 C 0.72250 0.27712 0.53937
 C2379 C 0.72259 0.29280 0.54048
 C2380 C 0.71522 0.29993 0.55234
 H2381 H 0.70757 0.32617 0.60200
 H2382 H 0.66935 0.29647 0.59829
 H2383 H 0.71446 0.25654 0.54931
 H2384 H 0.72861 0.29948 0.53232
 H2385 H 0.68050 0.28501 0.57624
 H2386 H 0.70152 0.26893 0.57009
 H2387 H 0.71868 0.31461 0.57995
 H2388 H 0.71554 0.31205 0.55302
 C2389 C 0.70120 0.79954 1.07639
 C2390 C 0.70138 0.81516 1.07862
 C2391 C 0.69499 0.82147 1.09145
 C2392 C 0.68810 0.81232 1.10224
 C2393 C 0.68773 0.79675 1.09997
 C2394 C 0.69430 0.79041 1.08724
 C2395 C 0.70848 0.79273 1.06303
 C2396 C 0.70223 0.78000 1.05610
 C2397 C 0.70957 0.77305 1.04414
 C2398 C 0.72321 0.77880 1.03879
 C2399 C 0.72930 0.79171 1.04533
 C2400 C 0.72203 0.79860 1.05738
 H2401 H 0.69523 0.83354 1.09281
 H2402 H 0.68269 0.78941 1.10821
 H2403 H 0.70475 0.76307 1.03917
 H2404 H 0.73991 0.79617 1.04139
 H2405 H 0.69423 0.77833 1.08608
 H2406 H 0.69169 0.77534 1.05997
 H2407 H 0.70636 0.82254 1.07038
 H2408 H 0.72729 0.80824 1.06255
 C2409 C 0.20048 0.29929 1.07626
 C2410 C 0.20781 0.31106 1.08373
 C2411 C 0.20149 0.31752 1.09652
 C2412 C 0.18765 0.31239 1.10216
 C2413 C 0.18022 0.30075 1.09451
 C2414 C 0.18657 0.29428 1.08174
 C2415 C 0.20759 0.29193 1.06313
 C2416 C 0.20717 0.27623 1.06160
 C2417 C 0.21459 0.26919 1.04977
 C2418 C 0.22254 0.27769 1.03920
 C2419 C 0.22268 0.29337 1.04041
 C2420 C 0.21529 0.30044 1.05230
 H2421 H 0.20761 0.32641 1.10203
 H2422 H 0.16952 0.29651 1.09836
 H2423 H 0.21442 0.25706 1.04899
 H2424 H 0.22876 0.30008 1.03233
 H2425 H 0.18055 0.28535 1.07613
 H2426 H 0.20148 0.26935 1.06982
 H2427 H 0.21865 0.31503 1.07991
 H2428 H 0.21566 0.31255 1.05307
 C2429 C 0.20077 0.79936 0.57688
 C2430 C 0.18719 0.79388 0.58277
 C2431 C 0.18078 0.80040 0.59548
 C2432 C 0.18775 0.81262 0.60257
 C2433 C 0.20122 0.81824 0.59658
 C2434 C 0.20769 0.81167 0.58392
 C2435 C 0.20793 0.79202 0.56373
 C2436 C 0.21541 0.80056 0.55277
 C2437 C 0.22271 0.79352 0.54081
 C2438 C 0.22267 0.77784 0.53960
 C2439 C 0.21496 0.76930 0.55031
 C2440 C 0.20768 0.77631 0.56226
 H2441 H 0.17028 0.79593 0.59966
 H2442 H 0.20698 0.82753 0.60187
 H2443 H 0.22862 0.80027 0.53263
 H2444 H 0.21487 0.75718 0.54957
 H2445 H 0.21829 0.81600 0.57985
 H2446 H 0.21565 0.81268 0.55346
 H2447 H 0.18144 0.78458 0.57749
 H2448 H 0.20222 0.76937 0.57058
 C2449 C 0.29855 0.70052 0.57636
 C2450 C 0.31011 0.70803 0.58400
 C2451 C 0.31659 0.70173 0.59679
 C2452 C 0.31169 0.68776 0.60223
 C2453 C 0.30024 0.68018 0.59444
 C2454 C 0.29374 0.68650 0.58168
 C2455 C 0.29120 0.70756 0.56320
 C2456 C 0.27548 0.70705 0.56161
 C2457 C 0.26844 0.71446 0.54976
 C2458 C 0.27698 0.72244 0.53925
 C2459 C 0.29268 0.72264 0.54052
 C2460 C 0.29974 0.71529 0.55242
 H2461 H 0.32527 0.70799 0.60250
 H2462 H 0.29628 0.66933 0.59812
 H2463 H 0.25630 0.71425 0.54894
 H2464 H 0.29941 0.72876 0.53247
 H2465 H 0.28497 0.68037 0.57592
 H2466 H 0.26859 0.70132 0.56979
 H2467 H 0.31389 0.71896 0.58031
 H2468 H 0.31188 0.71572 0.55325
 C2469 C 0.29865 0.20042 1.07630
 C2470 C 0.31045 0.20772 1.08378
 C2471 C 0.31698 0.20134 1.09649
 C2472 C 0.31189 0.18748 1.10204
 C2473 C 0.30021 0.18009 1.09442
 C2474 C 0.29365 0.18650 1.08172
 C2475 C 0.29131 0.20755 1.06318
 C2476 C 0.27558 0.20722 1.06166
 C2477 C 0.26857 0.21470 1.04984
 C2478 C 0.27715 0.22259 1.03929
 C2479 C 0.29286 0.22261 1.04050
 C2480 C 0.29989 0.21518 1.05236
 H2481 H 0.32586 0.20745 1.10204
 H2482 H 0.29607 0.16934 1.09818
 H2483 H 0.25642 0.21460 1.04905
 H2484 H 0.29963 0.22863 1.03241
 H2485 H 0.28471 0.18051 1.07609
 H2486 H 0.26865 0.20157 1.06987
 H2487 H 0.31440 0.21856 1.08001
 H2488 H 0.31203 0.21545 1.05312
 C2489 C 0.79832 0.70068 1.07632
 C2490 C 0.80940 0.70846 1.08437
 C2491 C 0.81597 0.70209 1.09707
 C2492 C 0.81163 0.68776 1.10202
 C2493 C 0.80061 0.67994 1.09387
 C2494 C 0.79402 0.68633 1.08119
 C2495 C 0.79100 0.70768 1.06313
 C2496 C 0.77536 0.70657 1.06114
 C2497 C 0.76832 0.71389 1.04923
 C2498 C 0.77680 0.72240 1.03909
 C2499 C 0.79244 0.72320 1.04076
 C2500 C 0.79949 0.71593 1.05271
 H2501 H 0.82427 0.70856 1.10311
 H2502 H 0.79708 0.66882 1.09718
 H2503 H 0.75622 0.71323 1.04810
 H2504 H 0.79912 0.72971 1.03299
 H2505 H 0.78562 0.67999 1.07512
 H2506 H 0.76850 0.70042 1.06905
 H2507 H 0.81276 0.71965 1.08104
 H2508 H 0.81157 0.71682 1.05386
 C2509 C 0.79879 0.19997 0.57624
 C2510 C 0.79355 0.18626 0.58196
 C2511 C 0.80001 0.17999 0.59477
 C2512 C 0.81187 0.18730 0.60218
 C2513 C 0.81725 0.20091 0.59632
 C2514 C 0.81078 0.20717 0.58351
 C2515 C 0.79144 0.20705 0.56309
 C2516 C 0.80002 0.21452 0.55215
 C2517 C 0.79298 0.22197 0.54030
 C2518 C 0.77726 0.22210 0.53922
 C2519 C 0.76868 0.21435 0.54986
 C2520 C 0.77570 0.20688 0.56168
 H2521 H 0.79570 0.16940 0.59881
 H2522 H 0.82625 0.20696 0.60176
 H2523 H 0.79975 0.22789 0.53214
 H2524 H 0.75653 0.21436 0.54917
 H2525 H 0.81492 0.21787 0.57953
 H2526 H 0.81217 0.21468 0.55282
 H2527 H 0.78446 0.18033 0.57650
 H2528 H 0.76877 0.20137 0.56998
 C2529 C 0.70114 0.70091 0.42360
 C2530 C 0.70172 0.68532 0.42120
 C2531 C 0.69534 0.67897 0.40839
 C2532 C 0.68806 0.68803 0.39778
 C2533 C 0.68729 0.70357 0.40022
 C2534 C 0.69384 0.70995 0.41292
 C2535 C 0.70840 0.70777 0.43696
 C2536 C 0.70203 0.72043 0.44396
 C2537 C 0.70932 0.72740 0.45593
 C2538 C 0.72300 0.72174 0.46127
 C2539 C 0.72920 0.70889 0.45467
 C2540 C 0.72201 0.70200 0.44259
 H2541 H 0.69591 0.66693 0.40690
 H2542 H 0.68191 0.71085 0.39213
 H2543 H 0.70442 0.73734 0.46092
 H2544 H 0.73985 0.70450 0.45859
 H2545 H 0.69345 0.72202 0.41420
 H2546 H 0.69144 0.72502 0.44013
 H2547 H 0.70699 0.67797 0.42930
 H2548 H 0.72738 0.69244 0.43737
 C2549 C 0.70081 0.20089 -0.07658
 C2550 C 0.70848 0.18953 -0.08435
 C2551 C 0.70216 0.18298 -0.09709
 C2552 C 0.68800 0.18762 -0.10235
 C2553 C 0.68027 0.19888 -0.09443
 C2554 C 0.68662 0.20546 -0.08173
 C2555 C 0.70782 0.20827 -0.06343
 C2556 C 0.70702 0.22394 -0.06174
 C2557 C 0.71435 0.23102 -0.04988
 C2558 C 0.72255 0.22257 -0.03946
 C2559 C 0.72304 0.20692 -0.04083
 C2560 C 0.71576 0.19982 -0.05275
 H2561 H 0.70853 0.17445 -0.10291
 H2562 H 0.66928 0.20265 -0.09796
 H2563 H 0.71391 0.24313 -0.04898
 H2564 H 0.72931 0.20026 -0.03285
 H2565 H 0.68036 0.21407 -0.07587
 H2566 H 0.70111 0.23076 -0.06985
 H2567 H 0.71954 0.18594 -0.08079
 H2568 H 0.71640 0.18772 -0.05366
 C2569 C 0.20108 0.70056 -0.07690
 C2570 C 0.20800 0.68825 -0.08392
 C2571 C 0.20160 0.68171 -0.09663
 C2572 C 0.18816 0.68739 -0.10265
 C2573 C 0.18115 0.69959 -0.09556
 C2574 C 0.18751 0.70607 -0.08281
 C2575 C 0.20822 0.70794 -0.06378
 C2576 C 0.20801 0.72365 -0.06240
 C2577 C 0.21528 0.73069 -0.05048
 C2578 C 0.22294 0.72218 -0.03971
 C2579 C 0.22295 0.70649 -0.04083
 C2580 C 0.21565 0.69942 -0.05276
 H2581 H 0.20737 0.67242 -0.10191
 H2582 H 0.17067 0.70408 -0.09976
 H2583 H 0.21523 0.74282 -0.04980
 H2584 H 0.22882 0.69976 -0.03260
 H2585 H 0.18174 0.71536 -0.07753
 H2586 H 0.20259 0.73056 -0.07077
 H2587 H 0.21859 0.68389 -0.07983
 H2588 H 0.21586 0.68729 -0.05339
 C2589 C 0.20087 0.20062 0.42339
 C2590 C 0.18569 0.20313 0.41980
 C2591 C 0.17941 0.19685 0.40691
 C2592 C 0.18815 0.18787 0.39734
 C2593 C 0.20328 0.18524 0.40101
 C2594 C 0.20957 0.19156 0.41386
 C2595 C 0.20776 0.20778 0.43676
 C2596 C 0.21839 0.20001 0.44547
 C2597 C 0.22559 0.20711 0.45743
 C2598 C 0.22227 0.22208 0.46088
 C2599 C 0.21133 0.22974 0.45255
 C2600 C 0.20415 0.22266 0.44059
 H2601 H 0.16766 0.19891 0.40455
 H2602 H 0.21038 0.17854 0.39379
 H2603 H 0.23398 0.20105 0.46380
 H2604 H 0.20871 0.24133 0.45507
 H2605 H 0.22137 0.18964 0.41614
 H2606 H 0.22124 0.18847 0.44296
 H2607 H 0.17863 0.20987 0.42702
 H2608 H 0.19615 0.22902 0.43402
 C2609 C 0.29957 0.42360 0.70149
 C2610 C 0.29501 0.41884 0.68722
 C2611 C 0.30139 0.40611 0.68066
 C2612 C 0.31246 0.39779 0.68823
 C2613 C 0.31715 0.40269 0.70244
 C2614 C 0.31080 0.41545 0.70898
 C2615 C 0.29228 0.43670 0.70877
 C2616 C 0.30081 0.44709 0.71703
 C2617 C 0.29377 0.45902 0.72442
 C2618 C 0.27811 0.46066 0.72374
 C2619 C 0.26961 0.45048 0.71531
 C2620 C 0.27662 0.43863 0.70786
 H2621 H 0.29761 0.40287 0.66964
 H2622 H 0.32556 0.39657 0.70870
 H2623 H 0.30048 0.46682 0.73087
 H2624 H 0.25750 0.45160 0.71472
 H2625 H 0.31440 0.41871 0.72009
 H2626 H 0.31290 0.44599 0.71778
 H2627 H 0.28652 0.42501 0.68109
 H2628 H 0.26974 0.43073 0.70173
 C2629 C 0.29997 0.92365 0.20114
 C2630 C 0.29242 0.91625 0.18949
 C2631 C 0.29858 0.90343 0.18290
 C2632 C 0.31246 0.89769 0.18780
 C2633 C 0.32009 0.90522 0.19935
 C2634 C 0.31391 0.91803 0.20596
 C2635 C 0.29304 0.93684 0.20858
 C2636 C 0.29347 0.93824 0.22425
 C2637 C 0.28608 0.95009 0.23136
 C2638 C 0.27818 0.96077 0.22294
 C2639 C 0.27808 0.95970 0.20730
 C2640 C 0.28543 0.94781 0.20017
 H2641 H 0.29227 0.89790 0.17416
 H2642 H 0.33088 0.90129 0.20331
 H2643 H 0.28622 0.95076 0.24345
 H2644 H 0.27204 0.96788 0.20066
 H2645 H 0.32008 0.92359 0.21480
 H2646 H 0.29911 0.92991 0.23104
 H2647 H 0.28153 0.92015 0.18571
 H2648 H 0.28508 0.94714 0.18808
 C2649 C 0.79847 0.42364 0.20019
 C2650 C 0.79422 0.41889 0.18583
 C2651 C 0.80064 0.40607 0.17947
 C2652 C 0.81142 0.39766 0.18736
 C2653 C 0.81578 0.40254 0.20167
 C2654 C 0.80939 0.41539 0.20800
 C2655 C 0.79118 0.43684 0.20725
 C2656 C 0.79969 0.44719 0.21557
 C2657 C 0.79265 0.45911 0.22296
 C2658 C 0.77701 0.46079 0.22221
 C2659 C 0.76852 0.45074 0.21361
 C2660 C 0.77555 0.43888 0.20616
 H2661 H 0.79713 0.40283 0.16835
 H2662 H 0.82393 0.39634 0.20817
 H2663 H 0.79935 0.46683 0.22952
 H2664 H 0.75642 0.45191 0.21296
 H2665 H 0.81273 0.41865 0.21919
 H2666 H 0.81178 0.44602 0.21643
 H2667 H 0.78596 0.42514 0.17947
 H2668 H 0.76869 0.43103 0.19994
 C2669 C 0.79925 0.92290 0.70196
 C2670 C 0.81489 0.92059 0.70220
 C2671 C 0.82119 0.90776 0.69574
 C2672 C 0.81201 0.89703 0.68877
 C2673 C 0.79641 0.89936 0.68840
 C2674 C 0.79009 0.91210 0.69499
 C2675 C 0.79246 0.93633 0.70919
 C2676 C 0.77979 0.94339 0.70289
 C2677 C 0.77290 0.95546 0.71014
 C2678 C 0.77863 0.96080 0.72372
 C2679 C 0.79149 0.95413 0.72987
 C2680 C 0.79832 0.94197 0.72270
 H2681 H 0.83328 0.90637 0.69599
 H2682 H 0.78903 0.89119 0.68326
 H2683 H 0.76297 0.96053 0.70527
 H2684 H 0.79594 0.95807 0.74044
 H2685 H 0.77798 0.91333 0.69488
 H2686 H 0.77516 0.93955 0.69237
 H2687 H 0.82230 0.92878 0.70724
 H2688 H 0.80792 0.93671 0.72799
 C2689 C 0.70068 0.57618 0.70066
 C2690 C 0.70823 0.58401 0.68928
 C2691 C 0.70180 0.59675 0.68279
 C2692 C 0.68765 0.60198 0.68750
 C2693 C 0.68003 0.59402 0.69877
 C2694 C 0.68648 0.58129 0.70528
 C2695 C 0.70786 0.56306 0.70801
 C2696 C 0.70709 0.56133 0.72363
 C2697 C 0.71457 0.54952 0.73069
 C2698 C 0.72290 0.53916 0.72227
 C2699 C 0.72341 0.54058 0.70666
 C2700 C 0.71598 0.55246 0.69958
 H2701 H 0.70811 0.60261 0.67426
 H2702 H 0.66905 0.59754 0.70260
 H2703 H 0.71412 0.54859 0.74276
 H2704 H 0.72980 0.53266 0.70001
 H2705 H 0.68031 0.57538 0.71391
 H2706 H 0.70107 0.56938 0.73045
 H2707 H 0.71929 0.58049 0.68563
 H2708 H 0.71662 0.55338 0.68752
 C2709 C 0.70127 0.07642 0.20078
 C2710 C 0.70859 0.08377 0.18893
 C2711 C 0.70223 0.09649 0.18233
 C2712 C 0.68837 0.10217 0.18740
 C2713 C 0.68101 0.09469 0.19916
 C2714 C 0.68739 0.08200 0.20577
 C2715 C 0.70831 0.06327 0.20819
 C2716 C 0.70796 0.06190 0.22386
 C2717 C 0.71526 0.04999 0.23094
 C2718 C 0.72302 0.03922 0.22250
 C2719 C 0.72307 0.04028 0.20685
 C2720 C 0.71580 0.05223 0.19974
 H2721 H 0.70832 0.10193 0.17339
 H2722 H 0.67028 0.09856 0.20332
 H2723 H 0.71514 0.04932 0.24304
 H2724 H 0.72899 0.03202 0.20019
 H2725 H 0.68139 0.07648 0.21476
 H2726 H 0.70242 0.07028 0.23067
 H2727 H 0.71942 0.07988 0.18498
 H2728 H 0.71607 0.05287 0.18765
 C2729 C 0.20129 0.57617 0.19993
 C2730 C 0.20555 0.58085 0.18554
 C2731 C 0.19887 0.59343 0.17898
 C2732 C 0.18781 0.60165 0.18668
 C2733 C 0.18350 0.59688 0.20105
 C2734 C 0.19015 0.58429 0.20758
 C2735 C 0.20873 0.56313 0.20712
 C2736 C 0.20032 0.55273 0.21548
 C2737 C 0.20746 0.54089 0.22287
 C2738 C 0.22312 0.53933 0.22209
 C2739 C 0.23152 0.54947 0.21352
 C2740 C 0.22439 0.56126 0.20606
 H2741 H 0.20237 0.59661 0.16784
 H2742 H 0.17516 0.60298 0.20742
 H2743 H 0.20084 0.53311 0.22944
 H2744 H 0.24363 0.54841 0.21286
 H2745 H 0.18682 0.58109 0.21879
 H2746 H 0.18822 0.55379 0.21634
 H2747 H 0.21398 0.57472 0.17930
 H2748 H 0.23117 0.56917 0.19983
 C2749 C 0.20038 0.07569 0.70136
 C2750 C 0.18651 0.08129 0.70638
 C2751 C 0.18011 0.09396 0.69971
 C2752 C 0.18745 0.10137 0.68790
 C2753 C 0.20130 0.09568 0.68284
 C2754 C 0.20767 0.08300 0.68948
 C2755 C 0.20746 0.06254 0.70875
 C2756 C 0.21501 0.05158 0.70026
 C2757 C 0.22242 0.03969 0.70731
 C2758 C 0.22246 0.03861 0.72295
 C2759 C 0.21463 0.04929 0.73145
 C2760 C 0.20718 0.06114 0.72442
 H2761 H 0.16938 0.09787 0.70386
 H2762 H 0.20739 0.10109 0.67387
 H2763 H 0.22841 0.03152 0.70061
 H2764 H 0.21460 0.04861 0.74355
 H2765 H 0.21850 0.07911 0.68553
 H2766 H 0.21524 0.05225 0.68817
 H2767 H 0.18053 0.07582 0.71541
 H2768 H 0.20160 0.06947 0.73127
 C2769 C 0.29909 0.57677 0.29884
 C2770 C 0.29890 0.57882 0.31444
 C2771 C 0.30535 0.59156 0.32089
 C2772 C 0.31229 0.60246 0.31191
 C2773 C 0.31273 0.60036 0.29635
 C2774 C 0.30609 0.58771 0.28987
 C2775 C 0.29177 0.56346 0.29193
 C2776 C 0.29801 0.55661 0.27916
 C2777 C 0.29069 0.54462 0.27221
 C2778 C 0.27709 0.53918 0.27796
 C2779 C 0.27103 0.54565 0.29091
 C2780 C 0.27826 0.55772 0.29780
 H2781 H 0.30507 0.59279 0.33293
 H2782 H 0.31785 0.60867 0.28915
 H2783 H 0.29552 0.53969 0.26223
 H2784 H 0.26047 0.54162 0.29540
 H2785 H 0.30616 0.58668 0.27780
 H2786 H 0.30853 0.56054 0.27451
 H2787 H 0.29386 0.57051 0.32172
 H2788 H 0.27301 0.56283 0.30747
 C2789 C 0.29943 0.07616 0.79903
 C2790 C 0.31110 0.08388 0.79178
 C2791 C 0.31753 0.09661 0.79829
 C2792 C 0.31245 0.10191 0.81222
 C2793 C 0.30089 0.09405 0.81954
 C2794 C 0.29445 0.08134 0.81302
 C2795 C 0.29214 0.06304 0.79182
 C2796 C 0.27643 0.06136 0.79233
 C2797 C 0.26946 0.04947 0.78492
 C2798 C 0.27804 0.03901 0.77690
 C2799 C 0.29373 0.04038 0.77665
 C2800 C 0.30074 0.05233 0.78402
 H2801 H 0.32631 0.10238 0.79223
 H2802 H 0.29677 0.09762 0.83035
 H2803 H 0.25732 0.04856 0.78519
 H2804 H 0.30051 0.03237 0.77053
 H2805 H 0.28560 0.07552 0.81898
 H2806 H 0.26949 0.06949 0.79810
 H2807 H 0.31503 0.08029 0.78089
 H2808 H 0.31287 0.05322 0.78359
 C2809 C 0.79899 0.57631 0.79930
 C2810 C 0.79432 0.58141 0.81342
 C2811 C 0.80079 0.59416 0.81981
 C2812 C 0.81207 0.60219 0.81221
 C2813 C 0.81684 0.59697 0.79814
 C2814 C 0.81039 0.58418 0.79177
 C2815 C 0.79166 0.56315 0.79220
 C2816 C 0.80019 0.55250 0.78427
 C2817 C 0.79314 0.54057 0.77693
 C2818 C 0.77745 0.53918 0.77732
 C2819 C 0.76893 0.54956 0.78550
 C2820 C 0.77597 0.56142 0.79291
 H2821 H 0.79692 0.59766 0.83073
 H2822 H 0.82539 0.60286 0.79187
 H2823 H 0.79987 0.53260 0.77069
 H2824 H 0.75680 0.54862 0.78589
 H2825 H 0.81407 0.58065 0.78077
 H2826 H 0.81231 0.55344 0.78369
 H2827 H 0.78568 0.57548 0.81957
 H2828 H 0.76908 0.56950 0.79882
 C2829 C 0.79970 0.07593 0.29936
 C2830 C 0.81140 0.08360 0.29210
 C2831 C 0.81781 0.09637 0.29854
 C2832 C 0.81269 0.10177 0.31243
 C2833 C 0.80116 0.09390 0.31980
 C2834 C 0.79474 0.08116 0.31333
 C2835 C 0.79233 0.06288 0.29211
 C2836 C 0.77660 0.06139 0.29250
 C2837 C 0.76954 0.04961 0.28499
 C2838 C 0.77806 0.03908 0.27700
 C2839 C 0.79378 0.04028 0.27687
 C2840 C 0.80086 0.05211 0.28433
 H2841 H 0.82659 0.10211 0.29246
 H2842 H 0.79701 0.09753 0.33058
 H2843 H 0.75739 0.04884 0.28516
 H2844 H 0.80050 0.03221 0.27075
 H2845 H 0.78587 0.07537 0.31929
 H2846 H 0.76971 0.06958 0.29825
 H2847 H 0.81533 0.07997 0.28122
 H2848 H 0.81300 0.05288 0.28397
 C2849 C 0.70115 0.42341 0.29937
 C2850 C 0.69411 0.41249 0.29043
 C2851 C 0.68751 0.39985 0.29693
 C2852 C 0.68797 0.39774 0.31248
 C2853 C 0.69501 0.40859 0.32144
 C2854 C 0.70144 0.42134 0.31497
 C2855 C 0.70847 0.43670 0.29240
 C2856 C 0.72206 0.44236 0.29814
 C2857 C 0.72931 0.45437 0.29116
 C2858 C 0.72317 0.46087 0.27826
 C2859 C 0.70952 0.45547 0.27261
 C2860 C 0.70218 0.44356 0.27966
 H2861 H 0.68235 0.39154 0.28974
 H2862 H 0.69534 0.40734 0.33349
 H2863 H 0.73994 0.45833 0.29554
 H2864 H 0.70465 0.46040 0.26265
 H2865 H 0.70653 0.42964 0.32222
 H2866 H 0.72735 0.43724 0.30778
 H2867 H 0.69398 0.41353 0.27837
 H2868 H 0.69160 0.43967 0.27509
 C2869 C 0.70016 0.92402 0.79853
 C2870 C 0.68583 0.91901 0.79424
 C2871 C 0.67952 0.90628 0.80086
 C2872 C 0.68741 0.89824 0.81189
 C2873 C 0.70172 0.90333 0.81622
 C2874 C 0.70801 0.91607 0.80962
 C2875 C 0.70713 0.93720 0.79116
 C2876 C 0.71533 0.94773 0.79955
 C2877 C 0.72267 0.95962 0.79246
 C2878 C 0.72198 0.96111 0.77687
 C2879 C 0.71350 0.95087 0.76848
 C2880 C 0.70610 0.93903 0.77556
 H2881 H 0.66841 0.90285 0.79735
 H2882 H 0.70823 0.89738 0.82453
 H2883 H 0.72918 0.96746 0.79906
 H2884 H 0.71292 0.95188 0.75642
 H2885 H 0.71918 0.91951 0.81297
 H2886 H 0.71615 0.94670 0.81159
 H2887 H 0.67945 0.92500 0.78583
 H2888 H 0.69999 0.93102 0.76879
 C2889 C 0.20018 0.42421 0.79914
 C2890 C 0.18613 0.41884 0.79439
 C2891 C 0.17982 0.40607 0.80094
 C2892 C 0.18744 0.39832 0.81237
 C2893 C 0.20145 0.40380 0.81719
 C2894 C 0.20773 0.41659 0.81067
 C2895 C 0.20721 0.43738 0.79177
 C2896 C 0.21503 0.44816 0.80023
 C2897 C 0.22246 0.46002 0.79316
 C2898 C 0.22224 0.46124 0.77753
 C2899 C 0.21413 0.45076 0.76907
 C2900 C 0.20665 0.43895 0.77613
 H2901 H 0.16895 0.40235 0.79701
 H2902 H 0.20774 0.39813 0.82585
 H2903 H 0.22866 0.46805 0.79982
 H2904 H 0.21389 0.45156 0.75699
 H2905 H 0.21868 0.42031 0.81440
 H2906 H 0.21547 0.44736 0.81231
 H2907 H 0.17996 0.42457 0.78565
 H2908 H 0.20084 0.43077 0.76930
 C2909 C 0.20077 0.92349 0.29889
 C2910 C 0.18946 0.91542 0.29145
 C2911 C 0.18289 0.90284 0.29811
 C2912 C 0.18747 0.89803 0.31239
 C2913 C 0.19868 0.90623 0.31989
 C2914 C 0.20526 0.91878 0.31320
 C2915 C 0.20812 0.93652 0.29157
 C2916 C 0.22378 0.93844 0.29254
 C2917 C 0.23081 0.95030 0.28513
 C2918 C 0.22233 0.96050 0.27668
 C2919 C 0.20668 0.95884 0.27592
 C2920 C 0.19963 0.94692 0.28327
 H2921 H 0.17440 0.89680 0.29191
 H2922 H 0.20237 0.90303 0.33096
 H2923 H 0.24292 0.95142 0.28576
 H2924 H 0.19998 0.96664 0.26943
 H2925 H 0.21382 0.92488 0.31930
 H2926 H 0.23065 0.93053 0.29869
 H2927 H 0.18591 0.91863 0.28032
 H2928 H 0.18754 0.94582 0.28246
 C2929 C 0.42331 0.29897 0.70098
 C2930 C 0.41239 0.30604 0.70994
 C2931 C 0.39969 0.31261 0.70346
 C2932 C 0.39753 0.31209 0.68792
 C2933 C 0.40841 0.30507 0.67894
 C2934 C 0.42121 0.29868 0.68538
 C2935 C 0.43661 0.29161 0.70793
 C2936 C 0.44224 0.27803 0.70215
 C2937 C 0.45426 0.27074 0.70911
 C2938 C 0.46078 0.27680 0.72202
 C2939 C 0.45543 0.29045 0.72770
 C2940 C 0.44350 0.29784 0.72067
 H2941 H 0.39138 0.31778 0.71067
 H2942 H 0.40712 0.30471 0.66690
 H2943 H 0.45821 0.26013 0.70469
 H2944 H 0.46039 0.29527 0.73766
 H2945 H 0.42952 0.29359 0.67812
 H2946 H 0.43709 0.27279 0.69251
 H2947 H 0.41346 0.30621 0.72200
 H2948 H 0.43965 0.30840 0.72526
 C2949 C 0.42310 0.79878 0.20043
 C2950 C 0.42115 0.79869 0.18481
 C2951 C 0.40839 0.80514 0.17832
 C2952 C 0.39739 0.81197 0.18729
 C2953 C 0.39938 0.81225 0.20286
 C2954 C 0.41205 0.80566 0.20937
 C2955 C 0.43638 0.79145 0.20741
 C2956 C 0.44317 0.79765 0.22022
 C2957 C 0.45510 0.79029 0.22728
 C2958 C 0.46055 0.77669 0.22157
 C2959 C 0.45412 0.77064 0.20861
 C2960 C 0.44211 0.77792 0.20161
 H2961 H 0.40724 0.80495 0.16626
 H2962 H 0.39098 0.81726 0.21007
 H2963 H 0.45999 0.79510 0.23728
 H2964 H 0.45814 0.76007 0.20417
 H2965 H 0.41300 0.80566 0.22144
 H2966 H 0.43924 0.80817 0.22484
 H2967 H 0.42956 0.79374 0.17757
 H2968 H 0.43703 0.77271 0.19191
 C2969 C 0.92338 0.30006 0.20082
 C2970 C 0.92145 0.29980 0.18519
 C2971 C 0.90872 0.30621 0.17860
 C2972 C 0.89772 0.31319 0.18745
 C2973 C 0.89972 0.31370 0.20302
 C2974 C 0.91235 0.30713 0.20964
 C2975 C 0.93661 0.29269 0.20792
 C2976 C 0.94332 0.29884 0.22080
 C2977 C 0.95519 0.29144 0.22793
 C2978 C 0.96068 0.27785 0.22223
 C2979 C 0.95433 0.27186 0.20919
 C2980 C 0.94237 0.27916 0.20213
 H2981 H 0.90759 0.30585 0.16654
 H2982 H 0.89133 0.31884 0.21016
 H2983 H 0.96001 0.29621 0.23799
 H2984 H 0.95838 0.26130 0.20474
 H2985 H 0.91328 0.30730 0.22172
 H2986 H 0.93938 0.30936 0.22541
 H2987 H 0.92984 0.29472 0.17802
 H2988 H 0.93736 0.27396 0.19239
 C2989 C 0.92384 0.79885 0.70045
 C2990 C 0.91564 0.80990 0.70815
 C2991 C 0.90303 0.81656 0.70160
 C2992 C 0.89832 0.81235 0.68719
 C2993 C 0.90661 0.80136 0.67946
 C2994 C 0.91920 0.79468 0.68602
 C2995 C 0.93694 0.79145 0.70762
 C2996 C 0.93895 0.77584 0.70643
 C2997 C 0.95081 0.76875 0.71384
 C2998 C 0.96091 0.77714 0.72249
 C2999 C 0.95922 0.79274 0.72340
 C3000 C 0.94730 0.79984 0.71606
 H3001 H 0.89686 0.82483 0.70799
 H3002 H 0.90347 0.79795 0.66828
 H3003 H 0.95197 0.75668 0.71308
 H3004 H 0.96696 0.79935 0.73003
 H3005 H 0.92538 0.78631 0.67976
 H3006 H 0.93109 0.76906 0.70014
 H3007 H 0.91878 0.81314 0.71939
 H3008 H 0.94615 0.81190 0.71702
 C3009 C 0.57690 0.29965 0.29829
 C3010 C 0.58622 0.29098 0.30758
 C3011 C 0.59902 0.29723 0.31412
 C3012 C 0.60284 0.31228 0.31147
 C3013 C 0.59351 0.32098 0.30222
 C3014 C 0.58066 0.31474 0.29572
 C3015 C 0.56356 0.29281 0.29100
 C3016 C 0.56007 0.29614 0.27601
 C3017 C 0.54815 0.28892 0.26884
 C3018 C 0.53955 0.27822 0.27652
 C3019 C 0.54266 0.27520 0.29158
 C3020 C 0.55457 0.28244 0.29877
 H3021 H 0.60607 0.29015 0.32102
 H3022 H 0.59601 0.33267 0.30012
 H3023 H 0.54587 0.29132 0.25718
 H3024 H 0.53605 0.26702 0.29766
 H3025 H 0.57360 0.32177 0.28877
 H3026 H 0.56686 0.30397 0.26967
 H3027 H 0.58380 0.27924 0.30955
 H3028 H 0.55680 0.27983 0.31039
 C3029 C 0.57624 0.80003 0.79857
 C3030 C 0.58417 0.79225 0.80972
 C3031 C 0.59694 0.79854 0.81630
 C3032 C 0.60206 0.81280 0.81192
 C3033 C 0.59400 0.82065 0.80086
 C3034 C 0.58127 0.81432 0.79425
 C3035 C 0.56307 0.79304 0.79117
 C3036 C 0.56133 0.79398 0.77556
 C3037 C 0.54947 0.78661 0.76845
 C3038 C 0.53910 0.77825 0.77683
 C3039 C 0.54053 0.77762 0.79243
 C3040 C 0.55244 0.78493 0.79955
 H3041 H 0.60289 0.79207 0.82464
 H3042 H 0.59745 0.83171 0.79731
 H3043 H 0.54854 0.78712 0.75638
 H3044 H 0.53261 0.77120 0.79903
 H3045 H 0.57528 0.82066 0.78580
 H3046 H 0.56942 0.80001 0.76880
 H3047 H 0.58071 0.78111 0.81311
 H3048 H 0.55341 0.78416 0.81160
 C3049 C 0.07643 0.29991 0.79871
 C3050 C 0.08009 0.31504 0.79620
 C3051 C 0.09289 0.32133 0.80273
 C3052 C 0.10228 0.31265 0.81195
 C3053 C 0.09855 0.29757 0.81455
 C3054 C 0.08579 0.29126 0.80798
 C3055 C 0.06315 0.29302 0.79137
 C3056 C 0.05419 0.28257 0.79910
 C3057 C 0.04234 0.27531 0.79186
 C3058 C 0.03923 0.27838 0.77681
 C3059 C 0.04780 0.28913 0.76918
 C3060 C 0.05967 0.29639 0.77639
 H3061 H 0.09532 0.33304 0.80067
 H3062 H 0.10564 0.29051 0.82141
 H3063 H 0.03575 0.26708 0.79790
 H3064 H 0.04552 0.29158 0.75753
 H3065 H 0.08345 0.27950 0.80990
 H3066 H 0.05643 0.27994 0.81071
 H3067 H 0.07299 0.32205 0.78927
 H3068 H 0.06643 0.30427 0.77009
 C3069 C 0.07654 0.79968 0.29853
 C3070 C 0.08024 0.81481 0.29611
 C3071 C 0.09304 0.82104 0.30270
 C3072 C 0.10244 0.81228 0.31185
 C3073 C 0.09867 0.79719 0.31436
 C3074 C 0.08589 0.79096 0.30776
 C3075 C 0.06322 0.79286 0.29119
 C3076 C 0.05420 0.78248 0.29893
 C3077 C 0.04228 0.77529 0.29172
 C3078 C 0.03917 0.77836 0.27666
 C3079 C 0.04781 0.78905 0.26901
 C3080 C 0.05974 0.79624 0.27621
 H3081 H 0.09548 0.83276 0.30071
 H3082 H 0.10574 0.79007 0.32119
 H3083 H 0.03566 0.76710 0.29777
 H3084 H 0.04555 0.79148 0.25735
 H3085 H 0.08351 0.77919 0.30962
 H3086 H 0.05643 0.77984 0.31054
 H3087 H 0.07316 0.82187 0.28922
 H3088 H 0.06655 0.80408 0.26991
 C3089 C 0.57669 0.70070 0.70177
 C3090 C 0.58740 0.70978 0.69456
 C3091 C 0.60009 0.70342 0.68787
 C3092 C 0.60248 0.68787 0.68843
 C3093 C 0.59186 0.67876 0.69565
 C3094 C 0.57904 0.68509 0.70216
 C3095 C 0.56331 0.70755 0.70909
 C3096 C 0.55776 0.70178 0.72268
 C3097 C 0.54570 0.70871 0.72995
 C3098 C 0.53904 0.72157 0.72383
 C3099 C 0.54430 0.72721 0.71017
 C3100 C 0.55626 0.72021 0.70281
 H3101 H 0.60822 0.71073 0.68256
 H3102 H 0.59333 0.66671 0.69606
 H3103 H 0.54183 0.70432 0.74057
 H3104 H 0.53925 0.73714 0.70532
 H3105 H 0.57091 0.67773 0.70738
 H3106 H 0.56302 0.69219 0.72795
 H3107 H 0.58616 0.72186 0.69433
 H3108 H 0.56002 0.72478 0.69223
 C3109 C 0.57691 0.20007 0.20148
 C3110 C 0.58619 0.20878 0.19219
 C3111 C 0.59901 0.20257 0.18562
 C3112 C 0.60288 0.18751 0.18824
 C3113 C 0.59359 0.17880 0.19753
 C3114 C 0.58075 0.18501 0.20407
 C3115 C 0.56351 0.20683 0.20872
 C3116 C 0.56005 0.20356 0.22373
 C3117 C 0.54807 0.21074 0.23086
 C3118 C 0.53938 0.22131 0.22312
 C3119 C 0.54241 0.22422 0.20802
 C3120 C 0.55438 0.21704 0.20086
 H3121 H 0.60602 0.20967 0.17872
 H3122 H 0.59612 0.16711 0.19963
 H3123 H 0.54584 0.20841 0.24255
 H3124 H 0.53571 0.23230 0.20189
 H3125 H 0.57373 0.17796 0.21104
 H3126 H 0.56693 0.19585 0.23011
 H3127 H 0.58371 0.22051 0.19023
 H3128 H 0.55658 0.21957 0.18922
 C3129 C 0.07663 0.70003 0.20150
 C3130 C 0.08598 0.70876 0.19228
 C3131 C 0.09880 0.70254 0.18572
 C3132 C 0.10262 0.68746 0.18825
 C3133 C 0.09327 0.67871 0.19745
 C3134 C 0.08041 0.68493 0.20399
 C3135 C 0.06324 0.70684 0.20877
 C3136 C 0.05971 0.70350 0.22375
 C3137 C 0.04777 0.71074 0.23090
 C3138 C 0.03918 0.72145 0.22322
 C3139 C 0.04231 0.72445 0.20815
 C3140 C 0.05424 0.71721 0.20098
 H3141 H 0.10585 0.70967 0.17889
 H3142 H 0.09575 0.66701 0.19948
 H3143 H 0.04548 0.70835 0.24256
 H3144 H 0.03571 0.73263 0.20206
 H3145 H 0.07335 0.67787 0.21090
 H3146 H 0.06649 0.69567 0.23009
 H3147 H 0.08356 0.72051 0.19039
 H3148 H 0.05650 0.71981 0.18937
 C3149 C 0.07646 0.20000 0.70137
 C3150 C 0.08581 0.20862 0.69206
 C3151 C 0.09859 0.20231 0.68551
 C3152 C 0.10236 0.18723 0.68815
 C3153 C 0.09298 0.17858 0.69739
 C3154 C 0.08016 0.18489 0.70392
 C3155 C 0.06316 0.20691 0.70870
 C3156 C 0.05968 0.20359 0.72369
 C3157 C 0.04779 0.21087 0.73089
 C3158 C 0.03921 0.22160 0.72324
 C3159 C 0.04230 0.22461 0.70817
 C3160 C 0.05418 0.21734 0.70095
 H3161 H 0.10567 0.20936 0.67863
 H3162 H 0.09543 0.16688 0.69949
 H3163 H 0.04553 0.20848 0.74256
 H3164 H 0.03571 0.23283 0.70211
 H3165 H 0.07308 0.17789 0.71088
 H3166 H 0.06646 0.19574 0.73001
 H3167 H 0.08344 0.22038 0.69011
 H3168 H 0.05641 0.21994 0.68933
 C3169 C 0.42297 0.70178 0.29955
 C3170 C 0.41481 0.69078 0.29176
 C3171 C 0.40205 0.68424 0.29812
 C3172 C 0.39714 0.68854 0.31245
 C3173 C 0.40539 0.69947 0.32028
 C3174 C 0.41813 0.70603 0.31389
 C3175 C 0.43624 0.70903 0.29255
 C3176 C 0.43835 0.72462 0.29372
 C3177 C 0.45029 0.73160 0.28633
 C3178 C 0.46035 0.72311 0.27772
 C3179 C 0.45862 0.70750 0.27693
 C3180 C 0.44663 0.70052 0.28425
 H3181 H 0.39595 0.67600 0.29166
 H3182 H 0.40211 0.70295 0.33140
 H3183 H 0.45151 0.74366 0.28704
 H3184 H 0.46637 0.70080 0.27039
 H3185 H 0.42427 0.71436 0.32023
 H3186 H 0.43049 0.73149 0.29994
 H3187 H 0.41812 0.68747 0.28057
 H3188 H 0.44542 0.68847 0.28335
 C3189 C 0.42351 0.20099 0.79960
 C3190 C 0.41878 0.20520 0.81399
 C3191 C 0.40608 0.19863 0.82046
 C3192 C 0.39779 0.18772 0.81266
 C3193 C 0.40261 0.18343 0.79830
 C3194 C 0.41533 0.18998 0.79186
 C3195 C 0.43666 0.20835 0.79250
 C3196 C 0.44707 0.19994 0.78411
 C3197 C 0.45900 0.20704 0.77680
 C3198 C 0.46065 0.22265 0.77766
 C3199 C 0.45051 0.23104 0.78629
 C3200 C 0.43864 0.22396 0.79367
 H3201 H 0.40287 0.20210 0.83160
 H3202 H 0.39645 0.17520 0.79188
 H3203 H 0.46677 0.20042 0.77020
 H3204 H 0.45164 0.24312 0.78703
 H3205 H 0.41856 0.18667 0.78065
 H3206 H 0.44594 0.18789 0.78318
 H3207 H 0.42496 0.21353 0.82030
 H3208 H 0.43074 0.23075 0.79993
 C3209 C 0.92337 0.70095 0.79911
 C3210 C 0.91245 0.69391 0.79014
 C3211 C 0.89980 0.68725 0.79660
 C3212 C 0.89766 0.68766 0.81216
 C3213 C 0.90852 0.69466 0.82115
 C3214 C 0.92128 0.70115 0.81471
 C3215 C 0.93667 0.70834 0.79219
 C3216 C 0.94233 0.72186 0.79807
 C3217 C 0.95438 0.72917 0.79119
 C3218 C 0.96093 0.72316 0.77826
 C3219 C 0.95557 0.70957 0.77249
 C3220 C 0.94360 0.70218 0.77943
 H3221 H 0.89149 0.68210 0.78939
 H3222 H 0.90727 0.69495 0.83319
 H3223 H 0.95834 0.73973 0.79569
 H3224 H 0.96057 0.70478 0.76251
 H3225 H 0.92957 0.70621 0.82199
 H3226 H 0.93716 0.72706 0.80774
 H3227 H 0.91351 0.69382 0.77807
 H3228 H 0.93974 0.69166 0.77476
 C3229 C 0.92344 0.20087 0.29909
 C3230 C 0.91462 0.19063 0.29101
 C3231 C 0.90194 0.18409 0.29753
 C3232 C 0.89782 0.18760 0.31230
 C3233 C 0.90678 0.19770 0.32045
 C3234 C 0.91943 0.20428 0.31391
 C3235 C 0.93649 0.20832 0.29192
 C3236 C 0.93884 0.22380 0.29381
 C3237 C 0.95062 0.23101 0.28641
 C3238 C 0.96032 0.22285 0.27710
 C3239 C 0.95827 0.20736 0.27544
 C3240 C 0.94640 0.20014 0.28275
 H3241 H 0.89524 0.17652 0.29084
 H3242 H 0.90410 0.20052 0.33191
 H3243 H 0.95205 0.24300 0.28772
 H3244 H 0.96569 0.20093 0.26828
 H3245 H 0.92613 0.21199 0.32046
 H3246 H 0.93130 0.23041 0.30068
 H3247 H 0.91730 0.18798 0.27949
 H3248 H 0.94494 0.18819 0.28121
 C3249 C 0.29835 0.29938 0.57660
 C3250 C 0.29663 0.31476 0.57964
 C3251 C 0.30324 0.32117 0.59231
 C3252 C 0.31181 0.31236 0.60216
 C3253 C 0.31364 0.29702 0.59909
 C3254 C 0.30694 0.29059 0.58649
 C3255 C 0.29101 0.29245 0.56335
 C3256 C 0.29831 0.28107 0.55519
 C3257 C 0.29109 0.27403 0.54322
 C3258 C 0.27651 0.27833 0.53911
 C3259 C 0.26929 0.28987 0.54697
 C3260 C 0.27647 0.29688 0.55899
 H3261 H 0.30180 0.33306 0.59426
 H3262 H 0.32000 0.28990 0.60659
 H3263 H 0.29676 0.26508 0.53727
 H3264 H 0.25795 0.29316 0.54402
 H3265 H 0.30823 0.27865 0.58467
 H3266 H 0.30958 0.27755 0.55811
 H3267 H 0.29031 0.32190 0.57213
 H3268 H 0.27044 0.30544 0.56514
 C3269 C 0.29837 0.79983 0.07572
 C3270 C 0.30960 0.79211 0.08365
 C3271 C 0.31628 0.79854 0.09626
 C3272 C 0.31191 0.81286 0.10123
 C3273 C 0.30072 0.82060 0.09322
 C3274 C 0.29402 0.81415 0.08063
 C3275 C 0.29097 0.79275 0.06261
 C3276 C 0.27531 0.79377 0.06073
 C3277 C 0.26823 0.78636 0.04891
 C3278 C 0.27668 0.77787 0.03872
 C3279 C 0.29234 0.77717 0.04027
 C3280 C 0.29943 0.78452 0.05214
 H3281 H 0.32469 0.79213 0.10221
 H3282 H 0.29717 0.83171 0.09658
 H3283 H 0.25611 0.78696 0.04786
 H3284 H 0.29901 0.77068 0.03246
 H3285 H 0.28550 0.82043 0.07466
 H3286 H 0.26847 0.79992 0.06867
 H3287 H 0.31299 0.78094 0.08030
 H3288 H 0.31153 0.78371 0.05318
 C3289 C 0.79906 0.29887 0.07608
 C3290 C 0.81474 0.29879 0.07814
 C3291 C 0.82116 0.30527 0.09086
 C3292 C 0.81207 0.31215 0.10171
 C3293 C 0.79643 0.31238 0.09964
 C3294 C 0.78999 0.30574 0.08701
 C3295 C 0.79216 0.29155 0.06279
 C3296 C 0.77930 0.29770 0.05597
 C3297 C 0.77234 0.29035 0.04402
 C3298 C 0.77821 0.27682 0.03858
 C3299 C 0.79123 0.27082 0.04505
 C3300 C 0.79813 0.27808 0.05708
 H3301 H 0.83327 0.30510 0.09209
 H3302 H 0.78913 0.31740 0.10795
 H3303 H 0.76227 0.29510 0.03912
 H3304 H 0.79578 0.26028 0.04106
 H3305 H 0.77786 0.30573 0.08598
 H3306 H 0.77456 0.30817 0.05989
 H3307 H 0.82209 0.29383 0.06984
 H3308 H 0.80786 0.27290 0.06218
 C3309 C 0.79890 0.79951 0.57645
 C3310 C 0.81453 0.79903 0.57879
 C3311 C 0.82088 0.80534 0.59163
 C3312 C 0.81178 0.81245 0.60233
 C3313 C 0.79620 0.81315 0.59994
 C3314 C 0.78982 0.80668 0.58719
 C3315 C 0.79204 0.79222 0.56311
 C3316 C 0.77931 0.79849 0.55614
 C3317 C 0.77232 0.79113 0.54422
 C3318 C 0.77805 0.77749 0.53891
 C3319 C 0.79098 0.77139 0.54549
 C3320 C 0.79788 0.77865 0.55752
 H3321 H 0.83295 0.80481 0.59307
 H3322 H 0.78889 0.81839 0.60810
 H3323 H 0.76233 0.79596 0.53924
 H3324 H 0.79542 0.76077 0.54160
 H3325 H 0.77772 0.80701 0.58595
 H3326 H 0.77467 0.80905 0.55995
 H3327 H 0.82190 0.79387 0.57064
 H3328 H 0.80750 0.77335 0.56273
 C3329 C 0.29795 0.70017 0.42403
 C3330 C 0.30910 0.70792 0.41603
 C3331 C 0.31572 0.70153 0.40337
 C3332 C 0.31139 0.68720 0.39840
 C3333 C 0.30031 0.67941 0.40649
 C3334 C 0.29364 0.68583 0.41913
 C3335 C 0.29061 0.70721 0.43719
 C3336 C 0.27496 0.70619 0.43917
 C3337 C 0.26793 0.71361 0.45103
 C3338 C 0.27643 0.72212 0.46115
 C3339 C 0.29208 0.72282 0.45950
 C3340 C 0.29912 0.71546 0.44760
 H3341 H 0.32408 0.70798 0.39740
 H3342 H 0.29678 0.66829 0.40316
 H3343 H 0.25583 0.71302 0.45215
 H3344 H 0.29878 0.72935 0.46725
 H3345 H 0.28520 0.67951 0.42517
 H3346 H 0.26810 0.70004 0.43127
 H3347 H 0.31247 0.71909 0.41937
 H3348 H 0.31121 0.71629 0.44647
 C3349 C 0.29847 0.20026 0.92403
 C3350 C 0.29341 0.18639 0.91854
 C3351 C 0.29992 0.18004 0.90579
 C3352 C 0.31162 0.18743 0.89818
 C3353 C 0.31673 0.20126 0.90377
 C3354 C 0.31024 0.20759 0.91654
 C3355 C 0.29118 0.20734 0.93721
 C3356 C 0.29980 0.21497 0.94799
 C3357 C 0.29281 0.22241 0.95988
 C3358 C 0.27711 0.22238 0.96114
 C3359 C 0.26850 0.21447 0.95065
 C3360 C 0.27546 0.20700 0.93880
 H3361 H 0.29574 0.16932 0.90198
 H3362 H 0.32560 0.20739 0.89822
 H3363 H 0.29961 0.22845 0.96793
 H3364 H 0.25635 0.21438 0.95148
 H3365 H 0.31422 0.21842 0.92034
 H3366 H 0.31194 0.21525 0.94718
 H3367 H 0.28447 0.18040 0.92417
 H3368 H 0.26850 0.20134 0.93062
 C3369 C 0.79875 0.70031 0.92398
 C3370 C 0.81031 0.70781 0.91632
 C3371 C 0.81695 0.70140 0.90366
 C3372 C 0.81218 0.68734 0.89835
 C3373 C 0.80070 0.67979 0.90612
 C3374 C 0.79405 0.68622 0.91876
 C3375 C 0.79136 0.70739 0.93709
 C3376 C 0.77565 0.70677 0.93872
 C3377 C 0.76858 0.71418 0.95056
 C3378 C 0.77709 0.72229 0.96099
 C3379 C 0.79278 0.72260 0.95968
 C3380 C 0.79987 0.71524 0.94780
 H3381 H 0.82564 0.70764 0.89794
 H3382 H 0.79683 0.66888 0.90254
 H3383 H 0.75644 0.71388 0.95143
 H3384 H 0.79949 0.72881 0.96767
 H3385 H 0.78528 0.68010 0.92453
 H3386 H 0.76878 0.70095 0.93059
 H3387 H 0.81401 0.71880 0.91991
 H3388 H 0.81200 0.71574 0.94694
 C3389 C 0.79854 0.20041 0.42382
 C3390 C 0.79355 0.18650 0.41837
 C3391 C 0.80015 0.18009 0.40571
 C3392 C 0.81189 0.18745 0.39814
 C3393 C 0.81690 0.20136 0.40364
 C3394 C 0.81031 0.20775 0.41633
 C3395 C 0.79123 0.20747 0.43699
 C3396 C 0.79983 0.21504 0.44783
 C3397 C 0.79282 0.22237 0.45978
 C3398 C 0.77712 0.22229 0.46104
 C3399 C 0.76852 0.21444 0.45049
 C3400 C 0.77551 0.20707 0.43858
 H3401 H 0.79604 0.16933 0.40195
 H3402 H 0.82578 0.20748 0.39808
 H3403 H 0.79960 0.22837 0.46787
 H3404 H 0.75638 0.21430 0.45132
 H3405 H 0.81421 0.21862 0.42008
 H3406 H 0.81197 0.21535 0.44702
 H3407 H 0.78459 0.18051 0.42398
 H3408 H 0.76857 0.20146 0.43037
 C3409 C 0.70042 0.29859 0.42399
 C3410 C 0.68650 0.29362 0.41848
 C3411 C 0.68011 0.30025 0.40581
 C3412 C 0.68751 0.31198 0.39830
 C3413 C 0.70141 0.31698 0.40388
 C3414 C 0.70778 0.31037 0.41656
 C3415 C 0.70747 0.29124 0.43715
 C3416 C 0.71508 0.29978 0.44801
 C3417 C 0.72240 0.29274 0.45996
 C3418 C 0.72228 0.27707 0.46119
 C3419 C 0.71441 0.26854 0.45060
 C3420 C 0.70705 0.27555 0.43871
 H3421 H 0.66933 0.29616 0.40200
 H3422 H 0.70755 0.32586 0.39836
 H3423 H 0.72843 0.29948 0.46805
 H3424 H 0.71427 0.25641 0.45140
 H3425 H 0.71865 0.31428 0.42037
 H3426 H 0.71543 0.31189 0.44723
 H3427 H 0.68047 0.28467 0.42405
 H3428 H 0.70142 0.26864 0.43047
 C3429 C 0.70093 0.79940 0.92354
 C3430 C 0.68668 0.79485 0.91853
 C3431 C 0.68024 0.80137 0.90584
 C3432 C 0.68791 0.81257 0.89781
 C3433 C 0.70212 0.81720 0.90292
 C3434 C 0.70854 0.81070 0.91563
 C3435 C 0.70805 0.79207 0.93666
 C3436 C 0.71623 0.80053 0.94716
 C3437 C 0.72356 0.79347 0.95907
 C3438 C 0.72287 0.77784 0.96064
 C3439 C 0.71448 0.76939 0.95039
 C3440 C 0.70711 0.77644 0.93852
 H3441 H 0.66921 0.79761 0.90241
 H3442 H 0.70846 0.82567 0.89700
 H3443 H 0.72999 0.80013 0.96692
 H3444 H 0.71389 0.75730 0.95144
 H3445 H 0.71964 0.81428 0.91908
 H3446 H 0.71700 0.81261 0.94612
 H3447 H 0.68045 0.78630 0.92449
 H3448 H 0.70103 0.76959 0.93055
 C3449 C 0.20058 0.29878 0.92372
 C3450 C 0.18663 0.29384 0.91826
 C3451 C 0.18024 0.30043 0.90557
 C3452 C 0.18767 0.31211 0.89799
 C3453 C 0.20160 0.31709 0.90353
 C3454 C 0.20796 0.31051 0.91623
 C3455 C 0.20763 0.29147 0.93690
 C3456 C 0.21529 0.30003 0.94770
 C3457 C 0.22262 0.29304 0.95966
 C3458 C 0.22245 0.27737 0.96098
 C3459 C 0.21453 0.26881 0.95044
 C3460 C 0.20717 0.27578 0.93853
 H3461 H 0.16945 0.29635 0.90180
 H3462 H 0.20776 0.32593 0.89798
 H3463 H 0.22868 0.29979 0.96771
 H3464 H 0.21435 0.25669 0.95130
 H3465 H 0.21885 0.31440 0.92000
 H3466 H 0.21567 0.31214 0.94686
 H3467 H 0.18058 0.28493 0.92387
 H3468 H 0.20150 0.26886 0.93034
 C3469 C 0.20098 0.79923 0.42366
 C3470 C 0.19405 0.79010 0.41283
 C3471 C 0.18752 0.79642 0.40008
 C3472 C 0.18794 0.81199 0.39778
 C3473 C 0.19485 0.82114 0.40855
 C3474 C 0.20121 0.81485 0.42139
 C3475 C 0.20827 0.79245 0.43704
 C3476 C 0.22179 0.79838 0.44270
 C3477 C 0.22904 0.79155 0.45478
 C3478 C 0.22298 0.77864 0.46135
 C3479 C 0.20938 0.77284 0.45599
 C3480 C 0.20203 0.77973 0.44399
 H3481 H 0.18247 0.78908 0.39184
 H3482 H 0.19515 0.83320 0.40715
 H3483 H 0.23963 0.79605 0.45872
 H3484 H 0.20458 0.76285 0.46097
 H3485 H 0.20620 0.82224 0.42961
 H3486 H 0.22703 0.80802 0.43750
 H3487 H 0.19395 0.77801 0.41402
 H3488 H 0.19151 0.77503 0.44013
 C3489 C 0.70094 0.70166 0.57679
 C3490 C 0.68616 0.70521 0.58106
 C3491 C 0.67975 0.69868 0.59377
 C3492 C 0.68799 0.68847 0.60252
 C3493 C 0.70276 0.68488 0.59820
 C3494 C 0.70916 0.69140 0.58549
 C3495 C 0.70793 0.70890 0.56355
 C3496 C 0.71702 0.70058 0.55369
 C3497 C 0.72420 0.70760 0.54166
 C3498 C 0.72248 0.72306 0.53938
 C3499 C 0.71320 0.73135 0.54898
 C3500 C 0.70593 0.72433 0.56093
 H3501 H 0.66829 0.70156 0.59662
 H3502 H 0.70952 0.67725 0.60478
 H3503 H 0.73135 0.70107 0.53432
 H3504 H 0.71185 0.74332 0.54737
 H3505 H 0.72067 0.68867 0.58265
 H3506 H 0.71862 0.68865 0.55532
 H3507 H 0.67950 0.71295 0.57448
 H3508 H 0.69913 0.73107 0.56841
 C3509 C 0.70040 0.20121 0.07574
 C3510 C 0.68602 0.20546 0.08066
 C3511 C 0.67970 0.19890 0.09340
 C3512 C 0.68764 0.18795 0.10153
 C3513 C 0.70197 0.18362 0.09650
 C3514 C 0.70826 0.19016 0.08375
 C3515 C 0.70740 0.20857 0.06258
 C3516 C 0.71570 0.20015 0.05214
 C3517 C 0.72302 0.20724 0.04024
 C3518 C 0.72222 0.22286 0.03865
 C3519 C 0.71367 0.23127 0.04882
 C3520 C 0.70629 0.22419 0.06066
 H3521 H 0.66856 0.20239 0.09677
 H3522 H 0.70851 0.17536 0.10252
 H3523 H 0.72959 0.20060 0.03247
 H3524 H 0.71301 0.24335 0.04775
 H3525 H 0.71946 0.18681 0.08037
 H3526 H 0.71660 0.18808 0.05323
 H3527 H 0.67961 0.21382 0.07461
 H3528 H 0.70011 0.23099 0.06860
 C3529 C 0.20100 0.70110 0.07626
 C3530 C 0.19409 0.71019 0.08715
 C3531 C 0.18754 0.70381 0.09986
 C3532 C 0.18792 0.68823 0.10205
 C3533 C 0.19478 0.67912 0.09120
 C3534 C 0.20117 0.68547 0.07841
 C3535 C 0.20828 0.70792 0.06290
 C3536 C 0.22178 0.70197 0.05720
 C3537 C 0.22900 0.70878 0.04509
 C3538 C 0.22291 0.72170 0.03853
 C3539 C 0.20934 0.72754 0.04395
 C3540 C 0.20204 0.72067 0.05598
 H3541 H 0.18249 0.71111 0.10814
 H3542 H 0.19503 0.66705 0.09250
 H3543 H 0.23958 0.70426 0.04112
 H3544 H 0.20454 0.73754 0.03899
 H3545 H 0.20613 0.67811 0.07013
 H3546 H 0.22704 0.69233 0.06238
 H3547 H 0.19403 0.72229 0.08603
 H3548 H 0.19154 0.72540 0.05991
 C3549 C 0.20147 0.20039 0.57678
 C3550 C 0.19327 0.20928 0.58691
 C3551 C 0.18668 0.20289 0.59959
 C3552 C 0.18824 0.18749 0.60251
 C3553 C 0.19639 0.17858 0.59239
 C3554 C 0.20288 0.18494 0.57964
 C3555 C 0.20877 0.20728 0.56349
 C3556 C 0.22313 0.20254 0.55886
 C3557 C 0.23031 0.20950 0.54680
 C3558 C 0.22327 0.22130 0.53919
 C3559 C 0.20886 0.22591 0.54356
 C3560 C 0.20164 0.21893 0.55557
 H3561 H 0.18063 0.21009 0.60728
 H3562 H 0.19759 0.16663 0.59420
 H3563 H 0.24152 0.20597 0.54365
 H3564 H 0.20333 0.23507 0.53779
 H3565 H 0.20889 0.17773 0.57195
 H3566 H 0.22904 0.19377 0.56483
 H3567 H 0.19220 0.22126 0.58521
 H3568 H 0.19050 0.22269 0.55869
   
