data_POSCAR
  _audit_creation_date              2014-09-24
  _audit_creation_method            'ToBaCCo'
  _symmetry_space_group_name_H-M    'P1'
  _symmetry_Int_Tables_number       1
  _symmetry_cell_setting            triclinic
  loop_
  _symmetry_equiv_pos_as_xyz
 x,y,z
_cell_length_a 52.8718
_cell_length_b 52.8261
_cell_length_c 52.9248
_cell_angle_alpha 89.758500
_cell_angle_beta 89.869000
_cell_angle_gamma 89.053100
loop_
  _atom_site_label
  _atom_site_type_symbol
  _atom_site_fract_x
  _atom_site_fract_y
  _atom_site_fract_z
C1 C 0.08994 0.01934 0.21718
 H2 H 0.08789 0.03399 0.23129
 C3 C 0.07718 0.02167 0.19411
 H4 H 0.06527 0.03817 0.19062
 C5 C 0.10906 -0.01929 0.20404
 H6 H 0.12200 -0.03491 0.20755
 C7 C 0.09670 -0.01772 0.18084
 H8 H 0.09964 -0.03271 0.16725
 N9 N 0.10554 -0.00092 0.22170
 C10 C 0.11832 -0.00442 0.30311
 H11 H 0.13871 -0.00641 0.30242
 C12 C 0.10596 -0.00373 0.32636
 H13 H 0.11699 -0.00542 0.34351
 C14 C 0.07934 -0.00005 0.28135
 H15 H 0.06912 0.00133 0.26372
 C16 C 0.06613 0.00054 0.30432
 H17 H 0.04573 0.00271 0.30422
 Zn18 Zn 0.12517 -0.00202 0.25170
 N19 N 0.10503 -0.00199 0.28126
 C20 C 0.14116 0.04533 0.26929
 N21 N 0.14561 0.02722 0.25155
 C22 C 0.16202 0.03122 0.23215
 C23 C 0.17415 0.05448 0.22971
 C24 C 0.15280 0.06875 0.26755
 C25 C 0.13013 -0.05378 0.25425
 C26 C 0.14165 -0.07757 0.25617
 C27 C 0.18230 -0.05741 0.25656
 C28 C 0.16985 -0.03390 0.25422
 N29 N 0.14422 -0.03259 0.25301
 H30 H 0.12766 0.04219 0.28425
 H31 H 0.16487 0.01673 0.21800
 H32 H 0.18644 0.05770 0.21365
 H33 H 0.14860 0.08297 0.28170
 H34 H 0.10971 -0.05210 0.25388
 H35 H 0.12936 -0.09364 0.25784
 H36 H 0.20272 -0.05738 0.25664
 H37 H 0.18067 -0.01672 0.25353
 C38 C 0.07957 -0.00079 0.32720
 C39 C 0.08080 0.00312 0.17544
 C40 C 0.16829 -0.08010 0.25753
 C41 C 0.16901 0.07386 0.24720
 C42 C 0.42241 -0.00203 0.77926
 H43 H 0.43352 -0.00411 0.76221
 C44 C 0.43449 -0.00005 0.80273
 H45 H 0.45493 -0.00113 0.80351
 C46 C 0.38230 0.00194 0.79905
 H47 H 0.36192 0.00287 0.79741
 C48 C 0.39346 0.00411 0.82264
 H49 H 0.38141 0.00698 0.83897
 N50 N 0.39672 -0.00118 0.77800
 C51 C 0.38882 0.01409 0.69973
 H52 H 0.37324 0.02715 0.70290
 C53 C 0.40083 0.01416 0.67636
 H54 H 0.39483 0.02799 0.66236
 C55 C 0.41463 -0.02022 0.71369
 H56 H 0.41944 -0.03394 0.72821
 C57 C 0.42720 -0.02089 0.69034
 H58 H 0.44172 -0.03520 0.68712
 Zn59 Zn 0.37696 -0.00236 0.74842
 N60 N 0.39603 -0.00264 0.71803
 C61 C 0.37099 0.04900 0.74825
 N62 N 0.35716 0.02762 0.74947
 C63 C 0.33163 0.02865 0.75243
 C64 C 0.31899 0.05215 0.75366
 C65 C 0.35918 0.07267 0.74859
 C66 C 0.36246 -0.04966 0.76709
 C67 C 0.35004 -0.07267 0.76703
 C68 C 0.32715 -0.05899 0.72981
 C69 C 0.34007 -0.03609 0.73060
 N70 N 0.35731 -0.03189 0.74909
 H71 H 0.39134 0.04755 0.74634
 H72 H 0.32112 0.01134 0.75415
 H73 H 0.29876 0.05239 0.75653
 H74 H 0.37084 0.08913 0.74625
 H75 H 0.37670 -0.04635 0.78122
 H76 H 0.35445 -0.08645 0.78164
 H77 H 0.31388 -0.06221 0.71467
 H78 H 0.33675 -0.02184 0.71619
 C79 C 0.42027 -0.00350 0.67127
 C80 C 0.41990 0.00308 0.82484
 C81 C 0.33225 -0.07774 0.74813
 C82 C 0.33276 0.07472 0.75133
 C83 C 0.91413 0.51262 0.28136
 H84 H 0.92057 0.52406 0.26571
 C85 C 0.92583 0.51461 0.30498
 H86 H 0.94195 0.52679 0.30620
 C87 C 0.88486 0.48359 0.29796
 H88 H 0.86812 0.47242 0.29555
 C89 C 0.89550 0.48542 0.32186
 H90 H 0.88625 0.47540 0.33700
 N91 N 0.89424 0.49699 0.27822
 C92 C 0.87924 0.49341 0.19718
 H93 H 0.85887 0.49362 0.19912
 C94 C 0.89012 0.49114 0.17336
 H95 H 0.87787 0.48941 0.15712
 C96 C 0.91963 0.49440 0.21643
 H97 H 0.93100 0.49510 0.23332
 C98 C 0.93140 0.49229 0.19277
 H99 H 0.95184 0.49213 0.19174
 Zn100 Zn 0.87481 0.49687 0.24818
 N101 N 0.89395 0.49525 0.21808
 C102 C 0.85795 0.54477 0.23049
 N103 N 0.85487 0.52677 0.24863
 C104 C 0.83984 0.53106 0.26910
 C105 C 0.82794 0.55462 0.27239
 C106 C 0.84622 0.56847 0.23293
 C107 C 0.86820 0.44560 0.25068
 C108 C 0.85596 0.42255 0.24984
 C109 C 0.81671 0.44507 0.24143
 C110 C 0.82970 0.46789 0.24314
 N111 N 0.85497 0.46764 0.24778
 H112 H 0.87026 0.54120 0.21456
 H113 H 0.83800 0.51652 0.28340
 H114 H 0.81685 0.55810 0.28929
 H115 H 0.84880 0.58233 0.21819
 H116 H 0.88838 0.44604 0.25394
 H117 H 0.86702 0.40548 0.25320
 H118 H 0.79676 0.44580 0.23703
 H119 H 0.81976 0.48571 0.24019
 C120 C 0.91654 0.49065 0.17081
 C121 C 0.91639 0.50116 0.32610
 C122 C 0.82982 0.42186 0.24499
 C123 C 0.83164 0.57388 0.25447
 C124 C 0.58849 0.52201 0.71952
 H125 H 0.58646 0.53656 0.73375
 C126 C 0.57590 0.52463 0.69639
 H127 H 0.56411 0.54122 0.69293
 C128 C 0.60741 0.48334 0.70617
 H129 H 0.62015 0.46756 0.70965
 C130 C 0.59521 0.48518 0.68294
 H131 H 0.59806 0.47024 0.66928
 N132 N 0.60396 0.50163 0.72391
 C133 C 0.61675 0.49501 0.80492
 H134 H 0.63713 0.49295 0.80416
 C135 C 0.60439 0.49478 0.82814
 H136 H 0.61540 0.49239 0.84524
 C137 C 0.57780 0.50063 0.78334
 H138 H 0.56761 0.50292 0.76577
 C139 C 0.56457 0.50033 0.80629
 H140 H 0.54419 0.50275 0.80631
 Zn141 Zn 0.62358 0.50007 0.75377
 N142 N 0.60348 0.49860 0.78321
 C143 C 0.64028 0.54613 0.77385
 N144 N 0.64363 0.52947 0.75457
 C145 C 0.65953 0.53460 0.73502
 C146 C 0.67293 0.55724 0.73447
 C147 C 0.65327 0.56883 0.77408
 C148 C 0.63016 0.44836 0.75580
 C149 C 0.64260 0.42495 0.75533
 C150 C 0.68242 0.44661 0.75233
 C151 C 0.66914 0.46973 0.75272
 N152 N 0.64344 0.47010 0.75390
 H153 H 0.62708 0.54219 0.78888
 H154 H 0.66141 0.52131 0.71961
 H155 H 0.68507 0.56121 0.71849
 H156 H 0.65030 0.58168 0.78973
 H157 H 0.60975 0.44929 0.75724
 H158 H 0.63161 0.40787 0.75662
 H159 H 0.70284 0.44650 0.75075
 H160 H 0.67933 0.48728 0.75180
 C161 C 0.57804 0.49801 0.82907
 C162 C 0.57959 0.50621 0.67761
 C163 C 0.66903 0.42385 0.75313
 C164 C 0.66972 0.57481 0.75414
 C165 C 0.29638 0.11579 0.98198
 H166 H 0.29388 0.13407 0.97304
 C167 C 0.32006 0.10390 0.98124
 H168 H 0.33548 0.11297 0.97141
 C169 C 0.27992 0.08252 1.00694
 H170 H 0.26463 0.07489 1.01804
 C171 C 0.30331 0.06972 1.00631
 H172 H 0.30573 0.05207 1.01657
 N173 N 0.27689 0.10517 0.99484
 C174 C 0.19609 0.12270 1.00456
 H175 H 0.19802 0.14286 1.00699
 C176 C 0.17233 0.11196 1.00682
 H177 H 0.15620 0.12400 1.01137
 C178 C 0.21484 0.08271 0.99554
 H179 H 0.23128 0.07152 0.99030
 C180 C 0.19134 0.07108 0.99779
 H181 H 0.19004 0.05093 0.99457
 Zn182 Zn 0.24739 0.12610 0.99765
 N183 N 0.21682 0.10804 0.99947
 C184 C 0.24012 0.13220 0.94705
 N185 N 0.24594 0.14586 0.96785
 C186 C 0.25276 0.17052 0.96596
 C187 C 0.25398 0.18228 0.94224
 C188 C 0.24136 0.14304 0.92310
 C189 C 0.26149 0.13383 1.04756
 C190 C 0.26195 0.14522 1.07124
 C191 C 0.23849 0.18069 1.05385
 C192 C 0.23821 0.16834 1.03053
 N193 N 0.24985 0.14541 1.02772
 H194 H 0.23537 0.11246 0.94905
 H195 H 0.25829 0.18080 0.98260
 H196 H 0.25943 0.20190 0.94118
 H197 H 0.23752 0.13132 0.90688
 H198 H 0.26980 0.11519 1.04531
 H199 H 0.27045 0.13418 1.08626
 H200 H 0.22978 0.19929 1.05468
 H201 H 0.22827 0.17697 1.01481
 C202 C 0.16974 0.08578 1.00370
 C203 C 0.32382 0.08079 0.99380
 C204 C 0.25033 0.16925 1.07514
 C205 C 0.24866 0.16835 0.92030
 C206 C 0.71750 0.41182 0.97905
 H207 H 0.73227 0.41461 0.96518
 C208 C 0.69395 0.42402 0.97605
 H209 H 0.69081 0.43632 0.95990
 C210 C 0.70307 0.39116 1.01604
 H211 H 0.70628 0.37775 1.03119
 C212 C 0.67929 0.40276 1.01366
 H213 H 0.66480 0.39863 1.02749
 N214 N 0.72157 0.39562 0.99875
 C215 C 0.80339 0.38151 1.00233
 H216 H 0.80268 0.36110 1.00379
 C217 C 0.82670 0.39344 1.00194
 H218 H 0.84384 0.38204 1.00333
 C219 C 0.78166 0.42098 0.99904
 H220 H 0.76403 0.43157 0.99800
 C221 C 0.80469 0.43376 0.99878
 H222 H 0.80460 0.45421 0.99717
 Zn223 Zn 0.75180 0.37558 1.00000
 N224 N 0.78150 0.39525 1.00031
 C225 C 0.76955 0.35930 0.95229
 N226 N 0.75198 0.35492 0.97056
 C227 C 0.73281 0.33852 0.96660
 C228 C 0.73052 0.32623 0.94332
 C229 C 0.76790 0.34754 0.92880
 C230 C 0.75328 0.37099 1.05176
 C231 C 0.75443 0.35970 1.07556
 C232 C 0.75472 0.31878 1.05547
 C233 C 0.75329 0.33101 1.03193
 N234 N 0.75250 0.35668 1.03057
 H235 H 0.78429 0.37283 0.95539
 H236 H 0.71874 0.33576 0.98117
 H237 H 0.71468 0.31389 0.94022
 H238 H 0.78192 0.35167 0.91449
 H239 H 0.75315 0.39141 1.05010
 H240 H 0.75583 0.37217 1.09161
 H241 H 0.75447 0.29835 1.05541
 H242 H 0.75290 0.31997 1.01479
 C243 C 0.82762 0.41989 0.99974
 C244 C 0.67429 0.41905 0.99318
 C245 C 0.75526 0.33303 1.07817
 C246 C 0.74785 0.33122 0.92380
 C247 C 0.21567 0.91312 0.48217
 H248 H 0.23016 0.91707 0.46830
 C249 C 0.19252 0.92644 0.48144
 H250 H 0.18940 0.94061 0.46691
 C251 C 0.20159 0.88878 0.51697
 H252 H 0.20464 0.87348 0.53024
 C253 C 0.17841 0.90158 0.51700
 H254 H 0.16443 0.89645 0.53101
 N255 N 0.21986 0.89488 0.49999
 C256 C 0.30102 0.87961 0.50312
 H257 H 0.29950 0.85922 0.50366
 C258 C 0.32464 0.89058 0.50490
 H259 H 0.34116 0.87838 0.50701
 C260 C 0.28089 0.91996 0.50059
 H261 H 0.26371 0.93124 0.49924
 C262 C 0.30435 0.93183 0.50229
 H263 H 0.30501 0.95229 0.50171
 Zn264 Zn 0.25007 0.87495 0.50015
 N265 N 0.27978 0.89425 0.50087
 C266 C 0.26743 0.86000 0.45213
 N267 N 0.25016 0.85493 0.47048
 C268 C 0.23135 0.83815 0.46652
 C269 C 0.22908 0.82616 0.44310
 C270 C 0.26584 0.84852 0.42853
 C271 C 0.25014 0.86981 0.55171
 C272 C 0.25229 0.85846 0.57539
 C273 C 0.25882 0.81816 0.55482
 C274 C 0.25568 0.83026 0.53139
 N275 N 0.25150 0.85569 0.53034
 H276 H 0.28191 0.87380 0.45531
 H277 H 0.21757 0.83479 0.48125
 H278 H 0.21353 0.81347 0.43999
 H279 H 0.27968 0.85311 0.41418
 H280 H 0.24721 0.89008 0.55028
 H281 H 0.25008 0.87034 0.59184
 H282 H 0.26301 0.79806 0.55515
 H283 H 0.25738 0.81952 0.51410
 C284 C 0.32665 0.91702 0.50447
 C285 C 0.17346 0.92064 0.49903
 C286 C 0.25720 0.83229 0.57737
 C287 C 0.24612 0.83182 0.42352
 C288 C 0.77812 0.58823 0.48376
 H289 H 0.76277 0.58545 0.47063
 C290 C 0.80144 0.57595 0.47984
 H291 H 0.80385 0.56352 0.46377
 C292 C 0.79426 0.60932 0.51957
 H293 H 0.79181 0.62307 0.53444
 C294 C 0.81783 0.59761 0.51627
 H295 H 0.83298 0.60191 0.52922
 N296 N 0.77508 0.60476 0.50322
 C297 C 0.69432 0.62196 0.50709
 H298 H 0.69594 0.64235 0.50677
 C299 C 0.67064 0.61111 0.50938
 H300 H 0.65412 0.62338 0.51097
 C301 C 0.71433 0.58149 0.50635
 H302 H 0.73151 0.57013 0.50549
 C303 C 0.69087 0.56975 0.50856
 H304 H 0.69021 0.54929 0.50883
 Zn305 Zn 0.74570 0.62560 0.50444
 N306 N 0.71552 0.60717 0.50564
 C307 C 0.73126 0.63818 0.45536
 N308 N 0.74617 0.64551 0.47476
 C309 C 0.76343 0.66406 0.47165
 C310 C 0.76574 0.67649 0.44838
 C311 C 0.73351 0.64945 0.43167
 C312 C 0.74571 0.63127 0.55592
 C313 C 0.74639 0.64320 0.57928
 C314 C 0.74554 0.68363 0.55771
 C315 C 0.74497 0.67084 0.53464
 N316 N 0.74573 0.64509 0.53422
 H317 H 0.71846 0.62263 0.45788
 H318 H 0.77582 0.66886 0.48707
 H319 H 0.77929 0.69149 0.44678
 H320 H 0.72221 0.64213 0.41645
 H321 H 0.74560 0.61081 0.55498
 H322 H 0.74660 0.63177 0.59631
 H323 H 0.74558 0.70412 0.55780
 H324 H 0.74394 0.68150 0.51721
 C325 C 0.66860 0.58465 0.51024
 C326 C 0.82184 0.58121 0.49582
 C327 C 0.74680 0.66972 0.58038
 C328 C 0.75099 0.66891 0.42768
 C329 C 0.00615 0.21833 0.08180
 H330 H 0.01852 0.23317 0.07541
 C331 C 0.00567 0.19531 0.06892
 H332 H 0.01780 0.19269 0.05263
 C333 C -0.02314 0.20320 0.11205
 H334 H -0.03381 0.20612 0.12926
 C335 C -0.02447 0.18012 0.09963
 H336 H -0.03678 0.16573 0.10714
 N337 N -0.00780 0.22162 0.10319
 C338 C -0.01262 0.28217 0.08120
 H339 H -0.02384 0.26674 0.07428
 C340 C -0.01193 0.30489 0.06760
 H341 H -0.02326 0.30634 0.05069
 C342 C 0.01426 0.29866 0.11250
 H343 H 0.02430 0.29632 0.13009
 C344 C 0.01564 0.32157 0.09953
 H345 H 0.02763 0.33596 0.10730
 Zn346 Zn -0.00411 0.25040 0.12369
 N347 N 0.00001 0.27963 0.10343
 C348 C 0.02950 0.25953 0.16528
 N349 N 0.02507 0.24530 0.14437
 C350 C 0.04267 0.22825 0.13590
 C351 C 0.06599 0.22562 0.14784
 C352 C 0.05251 0.25706 0.17822
 C353 C -0.05522 0.26005 0.12796
 C354 C -0.07902 0.26257 0.13899
 C355 C -0.06014 0.25354 0.17962
 C356 C -0.03654 0.25114 0.16772
 N357 N -0.03454 0.25456 0.14230
 H358 H 0.01554 0.27337 0.17145
 H359 H 0.03912 0.21715 0.11929
 H360 H 0.07999 0.21242 0.14039
 H361 H 0.05609 0.26882 0.19449
 H362 H -0.05333 0.26213 0.10777
 H363 H -0.09512 0.26713 0.12711
 H364 H -0.06149 0.25031 0.19978
 H365 H -0.02004 0.24597 0.17871
 C366 C 0.00198 0.32545 0.07690
 C367 C -0.00954 0.17566 0.07807
 C368 C -0.08180 0.25927 0.16514
 C369 C 0.07120 0.24028 0.16908
 C370 C 0.00444 0.78294 0.42041
 H371 H 0.00260 0.76597 0.43171
 C372 C 0.00611 0.80659 0.43214
 H373 H 0.00509 0.80763 0.45254
 C374 C 0.00782 0.80225 0.38007
 H375 H 0.00864 0.80031 0.35974
 C376 C 0.00965 0.82607 0.39091
 H377 H 0.01211 0.84233 0.37869
 N378 N 0.00522 0.78133 0.39478
 C379 C 0.02013 0.70247 0.39235
 H380 H 0.03577 0.70519 0.37953
 C381 C 0.01673 0.67869 0.40328
 H382 H 0.03034 0.66368 0.39934
 C383 C -0.01726 0.71820 0.41191
 H384 H -0.03093 0.73346 0.41437
 C385 C -0.02135 0.69467 0.42332
 H386 H -0.03811 0.69207 0.43478
 Zn387 Zn 0.00423 0.75104 0.37607
 N388 N 0.00302 0.72153 0.39645
 C389 C 0.05572 0.75201 0.37047
 N390 N 0.03421 0.75064 0.35658
 C391 C 0.03495 0.75029 0.33089
 C392 C 0.05826 0.75038 0.31826
 C393 C 0.07928 0.75212 0.35870
 C394 C -0.04438 0.76765 0.36283
 C395 C -0.06847 0.76545 0.35257
 C396 C -0.05317 0.73008 0.32783
 C397 C -0.02945 0.73262 0.33913
 N398 N -0.02557 0.75111 0.35637
 H399 H 0.05449 0.75288 0.39085
 H400 H 0.01759 0.74995 0.32018
 H401 H 0.05864 0.74957 0.29783
 H402 H 0.09610 0.75327 0.37023
 H403 H -0.04112 0.78197 0.37690
 H404 H -0.08251 0.77943 0.35819
 H405 H -0.05563 0.71443 0.31500
 H406 H -0.01443 0.71913 0.33493
 C407 C -0.00462 0.67432 0.41841
 C408 C 0.00879 0.82859 0.41729
 C409 C -0.07371 0.74598 0.33516
 C410 C 0.08083 0.75093 0.33226
 C411 C 0.50223 0.28625 0.91785
 H412 H 0.50200 0.26906 0.92896
 C413 C 0.50443 0.30966 0.92995
 H414 H 0.50509 0.31016 0.95038
 C415 C 0.50222 0.30648 0.87784
 H416 H 0.50175 0.30500 0.85746
 C417 C 0.50451 0.33011 0.88906
 H418 H 0.50587 0.34668 0.87707
 N419 N 0.50098 0.28515 0.89221
 C420 C 0.51468 0.20522 0.88345
 H421 H 0.52616 0.20787 0.86676
 C422 C 0.51352 0.18124 0.89433
 H423 H 0.52430 0.16603 0.88564
 C424 C 0.48475 0.22135 0.91276
 H425 H 0.47277 0.23682 0.91918
 C426 C 0.48352 0.19768 0.92475
 H427 H 0.47123 0.19580 0.94096
 Zn428 Zn 0.50019 0.25494 0.87301
 N429 N 0.50044 0.22475 0.89267
 C430 C 0.55160 0.25555 0.86760
 N431 N 0.53015 0.25514 0.85354
 C432 C 0.53104 0.25488 0.82786
 C433 C 0.55445 0.25419 0.81540
 C434 C 0.57525 0.25480 0.85601
 C435 C 0.45189 0.27201 0.85679
 C436 C 0.42842 0.26962 0.84511
 C437 C 0.44378 0.23134 0.82509
 C438 C 0.46701 0.23443 0.83721
 N439 N 0.47052 0.25437 0.85295
 H440 H 0.55025 0.25609 0.88799
 H441 H 0.51370 0.25491 0.81707
 H442 H 0.55497 0.25341 0.79497
 H443 H 0.59204 0.25508 0.86767
 H444 H 0.45477 0.28741 0.86976
 H445 H 0.41379 0.28373 0.84873
 H446 H 0.44105 0.21489 0.81333
 H447 H 0.48194 0.22039 0.83486
 C448 C 0.49775 0.17695 0.91531
 C449 C 0.50571 0.33204 0.91548
 C450 C 0.42388 0.24873 0.82951
 C451 C 0.57694 0.25369 0.82959
 C452 C 0.51784 0.71435 0.58907
 H453 H 0.53273 0.72771 0.58552
 C454 C 0.51800 0.69102 0.57662
 H455 H 0.53313 0.68663 0.56347
 C456 C 0.48083 0.70336 0.61162
 H457 H 0.46676 0.70781 0.62581
 C458 C 0.48026 0.67994 0.59968
 H459 H 0.46524 0.66703 0.60434
 N460 N 0.49935 0.72008 0.60613
 C461 C 0.50261 0.80127 0.61906
 H462 H 0.50341 0.80000 0.63946
 C463 C 0.50176 0.82487 0.60736
 H464 H 0.50174 0.84165 0.61903
 C465 C 0.50055 0.78056 0.57951
 H466 H 0.49974 0.76316 0.56887
 C467 C 0.49967 0.80396 0.56691
 H468 H 0.49865 0.80432 0.54650
 Zn469 Zn 0.50096 0.75020 0.62525
 N470 N 0.50190 0.77976 0.60516
 C471 C 0.55111 0.76043 0.63453
 N472 N 0.53093 0.74843 0.64463
 C473 C 0.53335 0.73402 0.66587
 C474 C 0.55658 0.73237 0.67850
 C475 C 0.57470 0.75867 0.64599
 C476 C 0.45016 0.75685 0.62976
 C477 C 0.42635 0.76000 0.64056
 C478 C 0.44569 0.75796 0.68185
 C479 C 0.46934 0.75502 0.67015
 N480 N 0.47101 0.75400 0.64451
 H481 H 0.54915 0.77077 0.61697
 H482 H 0.51738 0.72357 0.67291
 H483 H 0.55767 0.72141 0.69575
 H484 H 0.59042 0.76775 0.63677
 H485 H 0.45212 0.75653 0.60941
 H486 H 0.41012 0.76230 0.62828
 H487 H 0.44462 0.75804 0.70226
 H488 H 0.48619 0.75365 0.68158
 C489 C 0.50006 0.82656 0.58094
 C490 C 0.49907 0.67338 0.58200
 C491 C 0.42375 0.76029 0.66694
 C492 C 0.57784 0.74471 0.66849
 C493 C 0.91893 0.99891 0.71896
 H494 H 0.93045 0.99892 0.73577
 C495 C 0.92998 1.00118 0.69622
 H496 H 0.95033 1.00263 0.69546
 C497 C 0.87823 0.99390 0.70076
 H498 H 0.85818 0.99083 0.70245
 C499 C 0.88945 0.99619 0.67546
 H500 H 0.87663 0.99592 0.65959
 N501 N 0.89201 0.99596 0.72094
 C502 C 0.88743 0.97408 0.79962
 H503 H 0.87231 0.96122 0.79570
 C504 C 0.89882 0.97288 0.82207
 H505 H 0.89295 0.95851 0.83539
 C506 C 0.91377 1.00735 0.78520
 H507 H 0.91848 1.02180 0.77155
 C508 C 0.92771 1.00591 0.80943
 H509 H 0.94254 1.01936 0.81248
 Zn510 Zn 0.87363 0.99554 0.75193
 N511 N 0.89481 0.99249 0.78104
 C512 C 0.83045 0.96616 0.76426
 N513 N 0.85281 0.96682 0.75153
 C514 C 0.86316 0.94563 0.74102
 C515 C 0.85137 0.92241 0.74365
 C516 C 0.81813 0.94313 0.76766
 C517 C 0.86032 1.04439 0.77022
 C518 C 0.84946 1.06861 0.76842
 C519 C 0.82444 1.05436 0.73334
 C520 C 0.83569 1.03038 0.73590
 N521 N 0.85401 1.02608 0.75348
 H522 H 0.82292 0.98320 0.77291
 H523 H 0.88117 0.94659 0.73137
 H524 H 0.86012 0.90587 0.73511
 H525 H 0.80096 0.94270 0.77882
 H526 H 0.87450 1.04062 0.78443
 H527 H 0.85518 1.08296 0.78167
 H528 H 0.81083 1.05760 0.71837
 H529 H 0.83030 1.01546 0.72324
 C530 C 0.92000 0.99005 0.82791
 C531 C 0.91443 1.00034 0.67267
 C532 C 0.83192 1.07415 0.74917
 C533 C 0.82900 0.92071 0.75787
 C534 C 0.41132 0.47331 0.21748
 H535 H 0.40909 0.45592 0.22806
 C536 C 0.42590 0.47336 0.19542
 H537 H 0.43504 0.45599 0.18914
 C538 C 0.40137 0.51690 0.21205
 H539 H 0.39141 0.53378 0.21820
 C540 C 0.41625 0.51794 0.19030
 H541 H 0.41752 0.53557 0.17990
 N542 N 0.39890 0.49476 0.22503
 C543 C 0.38131 0.49772 0.30487
 H544 H 0.36234 0.50552 0.30334
 C545 C 0.39310 0.49689 0.32832
 H546 H 0.38289 0.50434 0.34446
 C547 C 0.41779 0.48024 0.28515
 H548 H 0.42739 0.47397 0.26820
 C549 C 0.43023 0.47863 0.30845
 H550 H 0.44920 0.47068 0.30902
 Zn551 Zn 0.37613 0.49396 0.25287
 N552 N 0.39377 0.48978 0.28380
 C553 C 0.33899 0.45988 0.26978
 N554 N 0.35309 0.46684 0.24943
 C555 C 0.35232 0.45350 0.22752
 C556 C 0.33823 0.43144 0.22602
 C557 C 0.32450 0.43800 0.26905
 C558 C 0.37036 0.54501 0.26540
 C559 C 0.35925 0.56908 0.26555
 C560 C 0.32452 0.55286 0.24121
 C561 C 0.33619 0.52890 0.24186
 N562 N 0.35866 0.52546 0.25390
 H563 H 0.33963 0.47078 0.28696
 H564 H 0.36297 0.45965 0.21126
 H565 H 0.33831 0.42082 0.20856
 H566 H 0.31425 0.43227 0.28580
 H567 H 0.38856 0.54193 0.27428
 H568 H 0.36880 0.58414 0.27529
 H569 H 0.30697 0.55524 0.23096
 H570 H 0.32760 0.51316 0.23231
 C571 C 0.41801 0.48739 0.33049
 C572 C 0.42830 0.49587 0.18152
 C573 C 0.33603 0.57341 0.25327
 C574 C 0.32447 0.42313 0.24713
 C575 C 0.60497 0.97615 0.29241
 H576 H 0.61562 0.95937 0.28712
 C577 C 0.59188 0.97635 0.31403
 H578 H 0.59218 0.95946 0.32566
 C579 C 0.59012 1.01746 0.28105
 H580 H 0.59007 1.03368 0.26856
 C581 C 0.57492 1.01836 0.30450
 H582 H 0.56448 1.03567 0.30840
 N583 N 0.60461 0.99793 0.27609
 C584 C 0.62079 1.00583 0.19604
 H585 H 0.64071 1.01011 0.19687
 C586 C 0.60823 1.00638 0.17294
 H587 H 0.61881 1.01084 0.15601
 C588 C 0.58320 0.99415 0.21730
 H589 H 0.57363 0.98934 0.23470
 C590 C 0.56984 0.99457 0.19454
 H591 H 0.54986 0.99039 0.19466
 Zn592 Zn 0.62688 0.99963 0.24794
 N593 N 0.60819 0.99980 0.21759
 C594 C 0.65109 0.95632 0.22696
 N595 N 0.64959 0.97120 0.24789
 C596 C 0.66281 0.96511 0.26917
 C597 C 0.67744 0.94286 0.27023
 C598 C 0.66606 0.93432 0.22698
 C599 C 0.63210 1.05138 0.24032
 C600 C 0.64253 1.07533 0.24237
 C601 C 0.67846 1.05635 0.26365
 C602 C 0.66730 1.03266 0.26106
 N603 N 0.64435 1.03066 0.24982
 H604 H 0.64025 0.96105 0.21032
 H605 H 0.66113 0.97697 0.28572
 H606 H 0.68723 0.93780 0.28753
 H607 H 0.66669 0.92246 0.21033
 H608 H 0.61394 1.04936 0.23125
 H609 H 0.63223 1.09096 0.23381
 H610 H 0.69624 1.05723 0.27363
 H611 H 0.67679 1.01603 0.26856
 C612 C 0.58233 1.00095 0.17198
 C613 C 0.57623 0.99898 0.32121
 C614 C 0.66594 1.07845 0.25465
 C615 C 0.67906 0.92720 0.24894
 C616 C 0.07980 0.50241 0.78005
 H617 H 0.06849 0.50022 0.76324
 C618 C 0.06802 0.50430 0.80375
 H619 H 0.04772 0.50300 0.80474
 C620 C 0.12004 0.50663 0.79898
 H621 H 0.14036 0.50770 0.79692
 C622 C 0.10914 0.50883 0.82278
 H623 H 0.12135 0.51200 0.83881
 N624 N 0.10543 0.50326 0.77824
 C625 C 0.10975 0.51902 0.70010
 H626 H 0.12454 0.53255 0.70280
 C627 C 0.09691 0.51887 0.67721
 H628 H 0.10149 0.53297 0.66310
 C629 C 0.08675 0.48374 0.71470
 H630 H 0.08340 0.46973 0.72923
 C631 C 0.07343 0.48282 0.69187
 H632 H 0.05982 0.46803 0.68907
 Zn633 Zn 0.12445 0.50170 0.74806
 N634 N 0.10435 0.50185 0.71845
 C635 C 0.16038 0.46714 0.72811
 N636 N 0.14434 0.47172 0.74776
 C637 C 0.14059 0.45410 0.76611
 C638 C 0.15316 0.43077 0.76513
 C639 C 0.17341 0.44393 0.72638
 C640 C 0.13085 0.55300 0.74802
 C641 C 0.14303 0.57606 0.74888
 C642 C 0.18290 0.55347 0.75310
 C643 C 0.16989 0.53066 0.75133
 N644 N 0.14434 0.53095 0.74862
 H645 H 0.16260 0.48132 0.71350
 H646 H 0.12733 0.45781 0.78125
 H647 H 0.14985 0.41707 0.78000
 H648 H 0.18566 0.44040 0.71033
 H649 H 0.11046 0.55259 0.74641
 H650 H 0.13163 0.59314 0.74713
 H651 H 0.20313 0.55263 0.75588
 H652 H 0.18012 0.51281 0.75263
 C653 C 0.07856 0.50054 0.67269
 C654 C 0.08280 0.50731 0.82562
 C655 C 0.16948 0.57675 0.75159
 C656 C 0.16966 0.42528 0.74497
 C657 C 0.78296 0.91813 0.00738
 H658 H 0.76634 0.92923 0.01220
 C659 C 0.80647 0.92986 0.00581
 H660 H 0.80766 0.94981 0.01014
 C661 C 0.80174 0.87887 -0.00413
 H662 H 0.79971 0.85914 -0.00885
 C663 C 0.82545 0.88979 -0.00604
 H664 H 0.84116 0.87806 -0.01206
 N665 N 0.78111 0.89292 0.00280
 C666 C 0.70307 0.89268 -0.01391
 H667 H 0.70624 0.87901 -0.02873
 C668 C 0.67958 0.90492 -0.01220
 H669 H 0.66529 0.90096 -0.02619
 C670 C 0.71726 0.91354 0.02284
 H671 H 0.73163 0.91596 0.03709
 C672 C 0.69395 0.92627 0.02523
 H673 H 0.69072 0.93873 0.04116
 Zn674 Zn 0.75035 0.87491 0.00338
 N675 N 0.72121 0.89669 0.00376
 C676 C 0.73023 0.85606 0.04925
 N677 N 0.74975 0.85360 0.03253
 C678 C 0.76962 0.83761 0.03741
 C679 C 0.77103 0.82449 0.06036
 C680 C 0.73101 0.84349 0.07249
 C681 C 0.75433 0.87016 -0.04795
 C682 C 0.75655 0.85865 -0.07143
 C683 C 0.75069 0.81805 -0.05121
 C684 C 0.74861 0.83044 -0.02792
 N685 N 0.75050 0.85606 -0.02682
 H686 H 0.71420 0.86820 0.04492
 H687 H 0.78475 0.83547 0.02385
 H688 H 0.78729 0.81239 0.06436
 H689 H 0.71565 0.84608 0.08584
 H690 H 0.75606 0.89048 -0.04641
 H691 H 0.76009 0.87034 -0.08787
 H692 H 0.74893 0.79768 -0.05186
 H693 H 0.74570 0.81964 -0.01079
 C694 C 0.67449 0.92137 0.00799
 C695 C 0.82820 0.91560 -0.00089
 C696 C 0.75483 0.83224 -0.07338
 C697 C 0.75188 0.82798 0.07837
 C698 C 0.28114 0.41849 0.50394
 H699 H 0.26431 0.42961 0.50799
 C700 C 0.30481 0.43000 0.50435
 H701 H 0.30575 0.44976 0.50922
 C702 C 0.30025 0.37930 0.49266
 H703 H 0.29835 0.35972 0.48728
 C704 C 0.32413 0.38998 0.49281
 H705 H 0.34036 0.37833 0.48764
 N706 N 0.27933 0.39346 0.49841
 C707 C 0.20394 0.39709 0.47505
 H708 H 0.20837 0.38441 0.45969
 C709 C 0.18117 0.41072 0.47455
 H710 H 0.16890 0.40877 0.45836
 C711 C 0.21425 0.41460 0.51474
 H712 H 0.22692 0.41543 0.53072
 C713 C 0.19136 0.42830 0.51522
 H714 H 0.18680 0.43959 0.53166
 Zn715 Zn 0.24822 0.37616 0.49652
 N716 N 0.21983 0.39887 0.49511
 C717 C 0.22493 0.35759 0.54119
 N718 N 0.24523 0.35478 0.52548
 C719 C 0.26463 0.33859 0.53144
 C720 C 0.26487 0.32585 0.55462
 C721 C 0.22457 0.34547 0.56469
 C722 C 0.25644 0.37087 0.44537
 C723 C 0.25779 0.35934 0.42181
 C724 C 0.24537 0.32002 0.44128
 C725 C 0.24431 0.33236 0.46466
 N726 N 0.24959 0.35741 0.46615
 H727 H 0.20920 0.36972 0.53592
 H728 H 0.28036 0.33612 0.51863
 H729 H 0.28082 0.31368 0.55952
 H730 H 0.20861 0.34840 0.57724
 H731 H 0.26073 0.39073 0.44717
 H732 H 0.26352 0.37048 0.40562
 H733 H 0.24047 0.30030 0.44045
 H734 H 0.23893 0.32207 0.48149
 C735 C 0.17419 0.42608 0.49511
 C736 C 0.32677 0.41564 0.49881
 C737 C 0.25199 0.33363 0.41938
 C738 C 0.24504 0.32995 0.57180
 C739 C 0.21768 0.58151 -0.00268
 H740 H 0.23508 0.57058 -0.00421
 C741 C 0.19437 0.56960 -0.00535
 H742 H 0.19465 0.54955 -0.00924
 C743 C 0.19701 0.62125 0.00185
 H744 H 0.19827 0.64151 0.00433
 C745 C 0.17339 0.61015 -0.00004
 H746 H 0.15710 0.62251 0.00212
 N747 N 0.21851 0.60693 0.00078
 C748 C 0.29719 0.60876 -0.01446
 H749 H 0.29449 0.62252 -0.02939
 C750 C 0.32085 0.59709 -0.01152
 H751 H 0.33580 0.60148 -0.02477
 C752 C 0.28159 0.58751 0.02171
 H753 H 0.26641 0.58461 0.03511
 C754 C 0.30502 0.57527 0.02529
 H755 H 0.30767 0.56280 0.04139
 Zn756 Zn 0.24886 0.62531 0.00158
 N757 N 0.27824 0.60418 0.00229
 C758 C 0.26951 0.66135 0.03458
 N759 N 0.24999 0.64523 0.03130
 C760 C 0.23327 0.64063 0.05029
 C761 C 0.23603 0.65214 0.07376
 C762 C 0.27290 0.67340 0.05780
 C763 C 0.24746 0.63109 -0.04996
 C764 C 0.24788 0.64292 -0.07351
 C765 C 0.24988 0.68333 -0.05247
 C766 C 0.24955 0.67064 -0.02917
 N767 N 0.24882 0.64492 -0.02842
 H768 H 0.28300 0.66411 0.01946
 H769 H 0.21842 0.62712 0.04774
 H770 H 0.22268 0.64792 0.08867
 H771 H 0.28895 0.68560 0.06033
 H772 H 0.24640 0.61068 -0.04876
 H773 H 0.24691 0.63144 -0.09037
 H774 H 0.25101 0.70378 -0.05285
 H775 H 0.25003 0.68131 -0.01181
 C776 C 0.32525 0.58066 0.00897
 C777 C 0.17145 0.58384 -0.00418
 C778 C 0.24950 0.66936 -0.07503
 C779 C 0.25636 0.66834 0.07794
 C780 C 0.69558 0.11180 0.51510
 H781 H 0.69712 0.12723 0.52822
 C782 C 0.67219 0.10034 0.51193
 H783 H 0.65624 0.10694 0.52308
 C784 C 0.71430 0.08451 0.48477
 H785 H 0.73077 0.07843 0.47416
 C786 C 0.69124 0.07256 0.48094
 H787 H 0.69019 0.05759 0.46709
 N788 N 0.71587 0.10438 0.50095
 C789 C 0.79479 0.11183 0.48523
 H790 H 0.79276 0.12887 0.47400
 C791 C 0.81840 0.09990 0.48705
 H792 H 0.83406 0.10750 0.47641
 C793 C 0.77698 0.08195 0.51338
 H794 H 0.76089 0.07566 0.52423
 C795 C 0.80042 0.06952 0.51592
 H796 H 0.80214 0.05350 0.52867
 Zn797 Zn 0.74563 0.12422 0.50042
 N798 N 0.77481 0.10308 0.49870
 C799 C 0.76745 0.13855 0.54665
 N800 N 0.74826 0.14431 0.53035
 C801 C 0.73122 0.16316 0.53576
 C802 C 0.73256 0.17620 0.55870
 C803 C 0.76936 0.15095 0.56977
 C804 C 0.74417 0.13116 0.44849
 C805 C 0.74448 0.14369 0.42532
 C806 C 0.74534 0.18349 0.44751
 C807 C 0.74516 0.17010 0.47044
 N808 N 0.74466 0.14434 0.47050
 H809 H 0.78120 0.12397 0.54209
 H810 H 0.71629 0.16776 0.52250
 H811 H 0.71855 0.19072 0.56309
 H812 H 0.78458 0.14588 0.58255
 H813 H 0.74422 0.11075 0.44886
 H814 H 0.74415 0.13267 0.40812
 H815 H 0.74621 0.20395 0.44770
 H816 H 0.74592 0.18030 0.48805
 C817 C 0.82171 0.07903 0.50329
 C818 C 0.66956 0.08105 0.49397
 C819 C 0.74540 0.17018 0.42456
 C820 C 0.75151 0.16966 0.57615
 C821 C 0.98746 0.71477 0.91526
 H822 H 0.97186 0.72767 0.91919
 C823 C 0.98943 0.69286 0.92800
 H824 H 0.97521 0.68861 0.94205
 C825 C 1.02341 0.70482 0.88972
 H826 H 1.03643 0.70906 0.87466
 C827 C 1.02586 0.68022 0.90265
 H828 H 1.04132 0.66775 0.89705
 N829 N 1.00530 0.72075 0.89563
 C830 C 1.00440 0.80357 0.88036
 H831 H 1.00923 0.80252 0.86053
 C832 C 1.00385 0.82600 0.89182
 H833 H 1.00857 0.84246 0.88073
 C834 C 0.99553 0.78139 0.91851
 H835 H 0.99281 0.76413 0.92899
 C836 C 0.99408 0.80587 0.93193
 H837 H 0.98921 0.80515 0.95172
 Zn838 Zn 1.00170 0.75041 0.87514
 N839 N 0.99996 0.78072 0.89433
 C840 C 0.96488 0.76795 0.84034
 N841 N 0.97167 0.74838 0.85581
 C842 C 0.95626 0.72826 0.85918
 C843 C 0.93256 0.72786 0.84770
 C844 C 0.94134 0.76828 0.82840
 C845 C 1.05130 0.76300 0.86462
 C846 C 1.07473 0.76125 0.85268
 C847 C 1.05541 0.73735 0.81926
 C848 C 1.03212 0.73992 0.83170
 N849 N 1.03066 0.75219 0.85421
 H850 H 0.97744 0.78363 0.83769
 H851 H 0.96207 0.71263 0.87112
 H852 H 0.92049 0.71179 0.85086
 H853 H 0.93601 0.78442 0.81680
 H854 H 1.04978 0.77217 0.88279
 H855 H 1.09079 0.77005 0.86149
 H856 H 1.05649 0.72649 0.80197
 H857 H 1.01553 0.73097 0.82414
 C858 C 0.99813 0.82784 0.91938
 C859 C 1.00966 0.67402 0.92129
 C860 C 1.07729 0.74750 0.83014
 C861 C 0.92467 0.74821 0.83236
 C862 C 0.47599 0.21550 0.40810
 H863 H 0.46208 0.22994 0.41291
 C864 C 0.47561 0.19190 0.42021
 H865 H 0.46146 0.18821 0.43453
 C866 C 0.51107 0.20225 0.38322
 H867 H 0.52461 0.20601 0.36843
 C868 C 0.51127 0.17847 0.39470
 H869 H 0.52541 0.16451 0.38920
 N870 N 0.49383 0.22036 0.39022
 C871 C 0.49943 0.30245 0.38350
 H872 H 0.50048 0.30301 0.36309
 C873 C 0.50128 0.32474 0.39722
 H874 H 0.50353 0.34244 0.38714
 C875 C 0.49481 0.27848 0.42114
 H876 H 0.49262 0.26037 0.43035
 C877 C 0.49644 0.30049 0.43569
 H878 H 0.49550 0.29914 0.45609
 Zn879 Zn 0.49441 0.25208 0.37319
 N880 N 0.49617 0.27993 0.39550
 C881 C 0.44733 0.27366 0.36067
 N882 N 0.46459 0.25566 0.35354
 C883 C 0.45966 0.23944 0.33431
 C884 C 0.43663 0.24117 0.32132
 C885 C 0.42416 0.27592 0.34837
 C886 C 0.54562 0.25243 0.36818
 C887 C 0.56939 0.25183 0.35696
 C888 C 0.54931 0.25396 0.31604
 C889 C 0.52570 0.25432 0.32816
 N890 N 0.52439 0.25321 0.35380
 H891 H 0.45109 0.28587 0.37647
 H892 H 0.47338 0.22483 0.32945
 H893 H 0.43267 0.22773 0.30656
 H894 H 0.41051 0.29012 0.35456
 H895 H 0.54397 0.25154 0.38854
 H896 H 0.58582 0.25007 0.36902
 H897 H 0.54987 0.25489 0.29569
 H898 H 0.50855 0.25530 0.31711
 C899 C 0.49994 0.32397 0.42368
 C900 C 0.49337 0.17312 0.41336
 C901 C 0.57164 0.25261 0.33051
 C902 C 0.41855 0.25952 0.32854
 C903 C 0.98044 0.28817 0.59105
 H904 H 0.96325 0.27741 0.59218
 C905 C 0.98014 0.31181 0.57896
 H906 H 0.96268 0.31828 0.57029
 C907 C 1.02365 0.29251 0.60118
 H908 H 1.04055 0.28546 0.61035
 C909 C 1.02443 0.31577 0.58869
 H910 H 1.04202 0.32593 0.58900
 N911 N 1.00175 0.27946 0.60279
 C912 C 1.00848 0.19844 0.61652
 H913 H 1.01895 0.19961 0.63398
 C914 C 1.00486 0.17487 0.60553
 H915 H 1.01346 0.15834 0.61433
 C916 C 0.98451 0.21869 0.58431
 H917 H 0.97624 0.23577 0.57638
 C918 C 0.98016 0.19535 0.57279
 H919 H 0.96852 0.19481 0.55601
 Zn920 Zn 1.00137 0.25033 0.62441
 N921 N 0.99838 0.21979 0.60588
 C922 C 0.96791 0.23032 0.66014
 N923 N 0.97332 0.25179 0.64704
 C924 C 0.95732 0.27223 0.64760
 C925 C 0.93383 0.27065 0.65961
 C926 C 0.94474 0.22802 0.67264
 C927 C 1.05298 0.23954 0.63055
 C928 C 1.07698 0.24189 0.64102
 C929 C 1.05812 0.26469 0.67592
 C930 C 1.03438 0.26166 0.66482
 N931 N 1.03231 0.24949 0.64239
 H932 H 0.98098 0.21439 0.65972
 H933 H 0.96224 0.28949 0.63792
 H934 H 0.92091 0.28676 0.65896
 H935 H 0.94022 0.21027 0.68177
 H936 H 1.05095 0.23045 0.61241
 H937 H 1.09261 0.23307 0.63105
 H938 H 1.05905 0.27560 0.69311
 H939 H 1.01772 0.27002 0.67352
 C940 C 0.99012 0.17295 0.58361
 C941 C 1.00223 0.32650 0.57821
 C942 C 1.08020 0.25525 0.66381
 C943 C 0.92692 0.24798 0.67151
 C944 C 0.48651 0.79101 0.09309
 H945 H 0.46988 0.77940 0.09267
 C946 C 0.48625 0.81452 0.08066
 H947 H 0.46953 0.82077 0.07045
 C948 C 0.52784 0.79828 0.10827
 H949 H 0.54374 0.79284 0.11984
 C950 C 0.52869 0.82133 0.09548
 H951 H 0.54530 0.83295 0.09718
 N952 N 0.50695 0.78356 0.10710
 C953 C 0.51884 0.70332 0.11895
 H954 H 0.53028 0.70560 0.13563
 C955 C 0.51800 0.67963 0.10761
 H956 H 0.52969 0.66444 0.11524
 C957 C 0.48930 0.72013 0.08958
 H958 H 0.47778 0.73586 0.08294
 C959 C 0.48771 0.69653 0.07770
 H960 H 0.47484 0.69450 0.06201
 Zn961 Zn 0.50613 0.75398 0.12830
 N962 N 0.50496 0.72318 0.10968
 C963 C 0.47190 0.73321 0.16251
 N964 N 0.47719 0.75476 0.14951
 C965 C 0.46083 0.77491 0.14953
 C966 C 0.43728 0.77309 0.16136
 C967 C 0.44866 0.73067 0.17480
 C968 C 0.55792 0.74830 0.13472
 C969 C 0.58113 0.74809 0.14700
 C970 C 0.55936 0.75765 0.18611
 C971 C 0.53641 0.75773 0.17298
 N972 N 0.53617 0.75313 0.14772
 H973 H 0.48526 0.71749 0.16227
 H974 H 0.46558 0.79211 0.13965
 H975 H 0.42415 0.78902 0.16047
 H976 H 0.44431 0.71293 0.18401
 H977 H 0.55717 0.74498 0.11458
 H978 H 0.59815 0.74473 0.13604
 H979 H 0.55932 0.76115 0.20626
 H980 H 0.51886 0.76165 0.18287
 C981 C 0.50229 0.67582 0.08667
 C982 C 0.50754 0.82996 0.08200
 C983 C 0.58210 0.75264 0.17307
 C984 C 0.43064 0.75044 0.17349
 O985 O 0.04754 0.99784 1.05751
 O986 O 0.05518 0.95818 1.03707
 O987 O 0.05305 1.05061 0.99649
 O988 O 0.03492 1.05643 0.95869
 O989 O -0.00922 1.05671 1.04845
 O990 O -0.04690 1.03400 1.05493
 O991 O -0.01211 0.98442 0.92975
 O992 O 0.02955 0.99832 0.92941
 O993 O -0.01277 0.92843 0.98867
 O994 O -0.00209 0.92764 1.03231
 O995 O -0.07123 0.98477 0.98590
 O996 O -0.07346 1.02980 0.99618
 O997 O -0.04920 1.00013 0.94546
 O998 O -0.05651 1.04247 0.96509
 O999 O -0.05435 0.95030 1.00576
 O1000 O -0.03167 0.94593 1.04714
 O1001 O 0.00471 0.94454 0.95289
 O1002 O 0.04534 0.96485 0.94797
 O1003 O 0.01153 1.01637 1.07268
 O1004 O -0.03146 1.00238 1.07281
 O1005 O 0.00944 1.07260 1.01318
 O1006 O -0.00247 1.07098 0.96945
 O1007 O 0.07001 1.01605 1.01627
 O1008 O 0.07246 0.97238 1.00463
 Zr1009 Zr 0.03984 0.99085 1.01923
 O1010 O 0.01926 0.96578 0.99677
 Zr1011 Zr 0.01519 1.04096 0.98980
 O1012 O -0.00622 1.01804 0.96571
 Zr1013 Zr -0.01273 1.01789 1.04113
 O1014 O -0.03566 0.99429 1.01933
 Zr1015 Zr 0.01164 0.98256 0.96147
 O1016 O 0.03485 1.00664 0.98294
 Zr1017 Zr -0.01651 0.95979 1.01280
 O1018 O 0.00540 0.98237 1.03711
 Zr1019 Zr -0.04097 1.00989 0.98307
 O1020 O -0.02065 1.03519 1.00605
 O1021 O 0.02230 1.02580 1.02543
 O1022 O -0.02381 0.97465 0.97687
 C1023 C 0.03414 1.00747 1.07545
 C1024 C 0.07162 1.03836 1.00675
 C1025 C -0.00094 1.07511 1.03500
 C1026 C -0.03536 0.99137 0.92741
 C1027 C -0.00412 0.92623 0.96608
 C1028 C -0.07294 0.96262 0.99571
 H1029 H 0.02895 0.94973 0.99518
 H1030 H -0.05184 0.99199 1.02839
 H1031 H 0.03232 1.03722 1.03615
 H1032 H -0.00840 1.02665 0.94923
 H1033 H 0.04346 1.00891 0.93569
 H1034 H 0.02866 1.04810 0.94327
 H1035 H -0.04687 0.95629 1.05127
 H1036 H -0.02339 0.98567 1.07616
 H1037 H 0.05069 0.95165 0.96022
 H1038 H 0.07470 0.97879 0.98717
 H1039 H -0.07823 1.02241 1.01268
 H1040 H -0.05379 1.04486 1.04121
 H1041 H 0.04206 0.95204 1.04888
 H1042 H 0.01564 0.92495 1.02684
 H1043 H -0.01971 1.07317 0.97653
 H1044 H -0.04580 1.04649 0.95031
 O1045 O 0.42880 0.48199 0.48791
 O1046 O 0.42624 0.52584 0.49866
 O1047 O 0.48875 0.48166 0.43234
 O1048 O 0.52915 0.49110 0.43051
 O1049 O 0.48827 0.42512 0.49315
 O1050 O 0.49862 0.42673 0.53679
 O1051 O 0.55248 0.54844 0.50053
 O1052 O 0.53466 0.55026 0.45918
 O1053 O 0.49178 0.55493 0.55045
 O1054 O 0.45147 0.53152 0.55610
 O1055 O 0.54680 0.49768 0.56031
 O1056 O 0.55490 0.45589 0.54045
 O1057 O 0.56910 0.51422 0.52105
 O1058 O 0.57222 0.46913 0.50965
 O1059 O 0.51062 0.51641 0.57472
 O1060 O 0.46705 0.50286 0.57557
 O1061 O 0.51158 0.56999 0.51547
 O1062 O 0.49990 0.56975 0.47195
 O1063 O 0.44510 0.44780 0.50880
 O1064 O 0.46526 0.44438 0.54930
 O1065 O 0.50787 0.44029 0.45806
 O1066 O 0.54748 0.46320 0.45427
 O1067 O 0.45198 0.49903 0.44714
 O1068 O 0.44447 0.53943 0.46640
 Zr1069 Zr 0.45916 0.50700 0.48518
 O1070 O 0.47925 0.53245 0.50766
 Zr1071 Zr 0.51198 0.47926 0.46462
 O1072 O 0.53450 0.50372 0.48606
 Zr1073 Zr 0.48296 0.45735 0.51591
 O1074 O 0.50436 0.48061 0.53968
 Zr1075 Zr 0.51525 0.53822 0.49197
 O1076 O 0.49397 0.51504 0.46769
 Zr1077 Zr 0.48642 0.51621 0.54323
 O1078 O 0.46343 0.49186 0.52179
 Zr1079 Zr 0.53928 0.48846 0.52253
 O1080 O 0.51909 0.46258 0.50013
 O1081 O 0.47662 0.47186 0.47989
 O1082 O 0.52198 0.52376 0.52811
 C1083 C 0.42681 0.45994 0.49796
 C1084 C 0.46592 0.48989 0.42937
 C1085 C 0.49896 0.42217 0.47151
 C1086 C 0.57070 0.53663 0.51179
 C1087 C 0.50157 0.57289 0.53741
 C1088 C 0.53341 0.50823 0.57773
 H1089 H 0.46930 0.54838 0.50906
 H1090 H 0.50656 0.47213 0.55622
 H1091 H 0.46668 0.46040 0.46915
 H1092 H 0.55081 0.50637 0.47735
 H1093 H 0.52541 0.54347 0.44450
 H1094 H 0.54057 0.50510 0.43470
 H1095 H 0.47472 0.48633 0.58035
 H1096 H 0.45284 0.45769 0.55428
 H1097 H 0.48249 0.57295 0.47814
 H1098 H 0.45775 0.54505 0.45451
 H1099 H 0.54371 0.45138 0.55472
 H1100 H 0.51642 0.42481 0.53117
 H1101 H 0.42335 0.51952 0.51605
 H1102 H 0.44651 0.54553 0.54458
 H1103 H 0.55212 0.45069 0.46752
 H1104 H 0.57760 0.47722 0.49368
 O1105 O 0.44363 -0.04943 0.49396
 O1106 O 0.46375 -0.05541 0.45368
 O1107 O 0.50668 -0.05597 0.54464
 O1108 O 0.54353 -0.03668 0.55035
 O1109 O 0.45197 0.00476 0.55317
 O1110 O 0.44445 0.04390 0.53127
 O1111 O 0.56877 0.01391 0.47690
 O1112 O 0.57143 -0.02830 0.49237
 O1113 O 0.50985 0.01461 0.42382
 O1114 O 0.46594 0.00213 0.42424
 O1115 O 0.51067 0.07111 0.48073
 O1116 O 0.50114 0.07128 0.52617
 O1117 O 0.55261 0.04932 0.49553
 O1118 O 0.53346 0.05530 0.53734
 O1119 O 0.49116 0.05482 0.44641
 O1120 O 0.45104 0.03175 0.44222
 O1121 O 0.54541 -0.00524 0.43835
 O1122 O 0.55348 -0.04410 0.45901
 O1123 O 0.42782 -0.01431 0.51344
 O1124 O 0.42585 0.02888 0.50020
 O1125 O 0.48784 -0.01442 0.56789
 O1126 O 0.53101 0.00001 0.56563
 O1127 O 0.48571 -0.07198 0.51098
 O1128 O 0.49678 -0.07295 0.46713
 Zr1129 Zr 0.48163 -0.04100 0.48616
 O1130 O 0.50307 -0.01920 0.46093
 Zr1131 Zr 0.51126 -0.01745 0.53578
 O1132 O 0.53413 0.00533 0.51259
 Zr1133 Zr 0.45862 0.01032 0.51439
 O1134 O 0.47909 0.03438 0.49044
 Zr1135 Zr 0.53839 -0.01130 0.47690
 O1136 O 0.51811 -0.03582 0.50108
 Zr1137 Zr 0.48581 0.01650 0.45561
 O1138 O 0.46257 -0.00652 0.47858
 Zr1139 Zr 0.51535 0.04000 0.50533
 O1140 O 0.49369 0.01831 0.53097
 O1141 O 0.47561 -0.02471 0.52136
 O1142 O 0.52170 0.02414 0.46976
 C1143 C 0.42554 -0.03669 0.50444
 C1144 C 0.49628 -0.07424 0.53272
 C1145 C 0.46562 -0.00472 0.57103
 C1146 C 0.57071 0.03667 0.48506
 C1147 C 0.53200 0.00472 0.42061
 C1148 C 0.50040 0.07332 0.45885
 H1149 H 0.50475 -0.02851 0.44485
 H1150 H 0.46936 0.05041 0.48856
 H1151 H 0.46546 -0.03547 0.53277
 H1152 H 0.55074 0.00766 0.52071
 H1153 H 0.56592 -0.04284 0.50277
 H1154 H 0.55859 -0.02931 0.54222
 H1155 H 0.44593 0.04579 0.45354
 H1156 H 0.42271 0.02168 0.48328
 H1157 H 0.54008 -0.05133 0.44838
 H1158 H 0.51407 -0.07580 0.47383
 H1159 H 0.48445 0.07608 0.51904
 H1160 H 0.45784 0.04994 0.54271
 H1161 H 0.45152 -0.04220 0.44797
 H1162 H 0.47317 -0.01478 0.42030
 H1163 H 0.52265 0.01664 0.56862
 H1164 H 0.54761 0.04376 0.54205
 O1165 O 0.00633 0.44237 1.04497
 O1166 O 0.04450 0.46329 1.05299
 O1167 O -0.04859 0.50259 1.05398
 O1168 O -0.05600 0.54081 1.03687
 O1169 O -0.05432 0.45231 0.99086
 O1170 O -0.03227 0.44787 0.95219
 O1171 O 0.01560 0.57231 0.98964
 O1172 O 0.00311 0.57151 1.03116
 O1173 O 0.07252 0.51378 0.98482
 O1174 O 0.07358 0.46876 0.99514
 O1175 O 0.01616 0.51921 0.92882
 O1176 O -0.02839 0.50802 0.92678
 O1177 O -0.00011 0.55803 0.95246
 O1178 O -0.04241 0.53792 0.94578
 O1179 O 0.05089 0.49855 0.94412
 O1180 O 0.05636 0.45621 0.96442
 O1181 O 0.05593 0.54922 1.00312
 O1182 O 0.03568 0.55073 1.04635
 O1183 O -0.01230 0.42795 1.00925
 O1184 O 0.00010 0.42983 0.96561
 O1185 O -0.07067 0.48673 1.01113
 O1186 O -0.06994 0.53138 0.99959
 O1187 O -0.01373 0.48205 1.06934
 O1188 O 0.02958 0.49514 1.07103
 Zr1189 Zr 0.01142 0.48106 1.03856
 O1190 O 0.03602 0.50429 1.01802
 Zr1191 Zr -0.03958 0.51060 1.01610
 O1192 O -0.01720 0.53579 0.99507
 Zr1193 Zr -0.01575 0.46049 0.98613
 O1194 O 0.00719 0.48344 0.96325
 Zr1195 Zr 0.01839 0.53967 1.01204
 O1196 O -0.00533 0.51729 1.03505
 Zr1197 Zr 0.04168 0.48945 0.98168
 O1198 O 0.01978 0.46430 1.00343
 Zr1199 Zr -0.00911 0.51988 0.95955
 O1200 O -0.03379 0.49576 0.97967
 O1201 O -0.02351 0.47487 1.02180
 O1202 O 0.02606 0.52554 0.97603
 C1203 C -0.00258 0.42461 1.03131
 C1204 C -0.03617 0.49143 1.07181
 C1205 C -0.07289 0.46511 1.00039
 C1206 C 0.00863 0.57550 0.96666
 C1207 C 0.07427 0.53647 0.99312
 C1208 C 0.03859 0.50988 0.92636
 H1209 H 0.05215 0.50570 1.02724
 H1210 H 0.00959 0.47514 0.94669
 H1211 H -0.03440 0.46351 1.03184
 H1212 H -0.02614 0.55232 0.99368
 H1213 H -0.00816 0.56495 1.04456
 H1214 H -0.04731 0.55642 1.03167
 H1215 H 0.04575 0.45255 0.94955
 H1216 H 0.01717 0.42659 0.97268
 H1217 H 0.05174 0.54110 1.04843
 H1218 H 0.02236 0.51226 1.07407
 H1219 H -0.02092 0.49154 0.92162
 H1220 H -0.04313 0.46198 0.94595
 H1221 H 0.05173 0.45301 1.03906
 H1222 H 0.07817 0.47570 1.01181
 H1223 H -0.07270 0.52416 0.98260
 H1224 H -0.04630 0.55258 0.95677
 O1225 O 0.01397 0.42983 0.51505
 O1226 O 0.00112 0.42795 0.47182
 O1227 O 0.06835 0.48980 0.51317
 O1228 O 0.06936 0.53036 0.50530
 O1229 O 0.00906 0.48694 0.57142
 O1230 O -0.03427 0.49915 0.57132
 O1231 O -0.00128 0.55561 0.44908
 O1232 O 0.03928 0.53661 0.44551
 O1233 O -0.05193 0.49494 0.44368
 O1234 O -0.05769 0.45532 0.46626
 O1235 O -0.06039 0.54956 0.50080
 O1236 O -0.04012 0.55651 0.54179
 O1237 O -0.02133 0.57161 0.48364
 O1238 O -0.00882 0.57295 0.52880
 O1239 O -0.07499 0.51404 0.48216
 O1240 O -0.07463 0.46905 0.49707
 O1241 O -0.01837 0.51636 0.42805
 O1242 O 0.02606 0.50221 0.42697
 O1243 O -0.00911 0.44513 0.54814
 O1244 O -0.04819 0.46730 0.55397
 O1245 O 0.04364 0.50650 0.55554
 O1246 O 0.04584 0.54765 0.53325
 O1247 O 0.05420 0.45421 0.49428
 O1248 O 0.03206 0.44580 0.45649
 Zr1249 Zr 0.01508 0.46064 0.48958
 O1250 O -0.00840 0.48168 0.46485
 Zr1251 Zr 0.03572 0.51265 0.51706
 O1252 O 0.01364 0.53602 0.49312
 Zr1253 Zr -0.01479 0.48375 0.53987
 O1254 O -0.03927 0.50619 0.51741
 Zr1255 Zr 0.00683 0.51771 0.45873
 O1256 O 0.03185 0.49564 0.48132
 Zr1257 Zr -0.04358 0.48901 0.48203
 O1258 O -0.02126 0.46511 0.50552
 Zr1259 Zr -0.02242 0.54107 0.50927
 O1260 O 0.00063 0.51986 0.53457
 O1261 O 0.02107 0.47711 0.52461
 O1262 O -0.02889 0.52461 0.47419
 C1263 C 0.00252 0.42721 0.53634
 C1264 C 0.07194 0.46797 0.50309
 C1265 C 0.03089 0.49695 0.57386
 C1266 C -0.01224 0.57375 0.46122
 C1267 C -0.04010 0.50614 0.42572
 C1268 C -0.07790 0.53679 0.49028
 H1269 H -0.01029 0.47218 0.44896
 H1270 H -0.05565 0.50842 0.52622
 H1271 H 0.03232 0.46657 0.53545
 H1272 H 0.02234 0.55224 0.49037
 H1273 H 0.05416 0.52726 0.45236
 H1274 H 0.06501 0.54114 0.49058
 H1275 H -0.08126 0.47861 0.51176
 H1276 H -0.05437 0.45593 0.54060
 H1277 H 0.01742 0.48660 0.42181
 H1278 H 0.04202 0.45965 0.44900
 H1279 H -0.05333 0.54465 0.54734
 H1280 H -0.02847 0.51678 0.57310
 H1281 H -0.01599 0.42518 0.47884
 H1282 H -0.04498 0.44887 0.45405
 H1283 H 0.03347 0.55138 0.54687
 H1284 H 0.00681 0.57845 0.52023
 O1285 O 0.50593 1.05791 -0.05092
 O1286 O 0.54527 1.03572 -0.05570
 O1287 O 0.45300 0.99702 -0.05736
 O1288 O 0.44609 0.96019 -0.03789
 O1289 O 0.44348 1.05173 0.00213
 O1290 O 0.46469 1.05936 0.04073
 O1291 O 0.51731 0.93245 0.01583
 O1292 O 0.50357 0.92992 -0.02672
 O1293 O 0.57121 0.98951 0.01744
 O1294 O 0.57222 1.03357 0.00252
 O1295 O 0.51324 0.98951 0.07078
 O1296 O 0.46842 1.00199 0.07067
 O1297 O 0.49597 0.94889 0.04942
 O1298 O 0.45506 0.97144 0.05399
 O1299 O 0.54752 1.00991 0.05536
 O1300 O 0.55371 1.04923 0.03137
 O1301 O 0.55661 0.95391 -0.00106
 O1302 O 0.53786 0.94717 -0.04197
 O1303 O 0.48372 1.07432 -0.01777
 O1304 O 0.49688 1.07639 0.02573
 O1305 O 0.42872 1.01609 -0.01619
 O1306 O 0.42985 0.97262 -0.00211
 O1307 O 0.48793 1.01614 -0.07308
 O1308 O 0.53143 1.00317 -0.07248
 Zr1309 Zr 0.51179 1.01948 -0.04158
 O1310 O 0.53588 0.99735 -0.01847
 Zr1311 Zr 0.46062 0.99184 -0.01869
 O1312 O 0.48251 0.96824 0.00521
 Zr1313 Zr 0.48209 1.04399 0.00810
 O1314 O 0.50466 1.02276 0.03339
 Zr1315 Zr 0.51882 0.96266 -0.01010
 O1316 O 0.49587 0.98359 -0.03578
 Zr1317 Zr 0.54002 1.01485 0.01674
 O1318 O 0.51842 1.03866 -0.00754
 Zr1319 Zr 0.48883 0.98697 0.03954
 O1320 O 0.46451 1.00951 0.01662
 O1321 O 0.47603 1.02692 -0.02657
 O1322 O 0.52483 0.97949 0.02494
 C1323 C 0.49454 1.07626 -0.03944
 C1324 C 0.46586 1.00665 -0.07558
 C1325 C 0.42558 1.03834 -0.00686
 C1326 C 0.50719 0.93056 0.03782
 C1327 C 0.57408 0.96667 0.00955
 C1328 C 0.53487 0.99988 0.07343
 H1329 H 0.55237 0.99498 -0.02700
 H1330 H 0.50624 1.03244 0.04922
 H1331 H 0.46509 1.03740 -0.03778
 H1332 H 0.47383 0.95197 0.00761
 H1333 H 0.49398 0.93562 -0.04182
 H1334 H 0.45417 0.94486 -0.03050
 H1335 H 0.54152 1.05531 0.04428
 H1336 H 0.51365 1.07931 0.01800
 H1337 H 0.55050 0.95946 -0.04787
 H1338 H 0.52491 0.98582 -0.07440
 H1339 H 0.47601 1.01835 0.07516
 H1340 H 0.45381 1.04596 0.04776
 H1341 H 0.55143 1.04718 -0.04238
 H1342 H 0.57775 1.02482 -0.01307
 H1343 H 0.42606 0.98107 0.01415
 H1344 H 0.45056 0.95697 0.04318
 O1345 O 0.48655 0.57342 0.01998
 O1346 O 0.49461 0.57490 -0.02367
 O1347 O 0.42968 0.51483 0.02354
 O1348 O 0.42699 0.47458 0.01291
 O1349 O 0.49128 0.51465 0.07721
 O1350 O 0.53439 0.50275 0.07508
 O1351 O 0.49641 0.44845 -0.04635
 O1352 O 0.45532 0.46687 -0.04731
 O1353 O 0.54662 0.50787 -0.05317
 O1354 O 0.55386 0.54734 -0.03022
 O1355 O 0.55676 0.45241 0.00363
 O1356 O 0.53739 0.44519 0.04532
 O1357 O 0.51705 0.43139 -0.01260
 O1358 O 0.50573 0.42916 0.03298
 O1359 O 0.57114 0.48783 -0.01571
 O1360 O 0.57232 0.53226 -0.00096
 O1361 O 0.51124 0.48910 -0.06784
 O1362 O 0.46741 0.50187 -0.06621
 O1363 O 0.50764 0.55689 0.05376
 O1364 O 0.54769 0.53484 0.05663
 O1365 O 0.45643 0.49429 0.06335
 O1366 O 0.45102 0.45524 0.03973
 O1367 O 0.44402 0.55069 0.00488
 O1368 O 0.46265 0.55665 -0.03633
 Zr1369 Zr 0.48200 0.54242 -0.00421
 O1370 O 0.50426 0.52152 -0.02993
 Zr1371 Zr 0.46166 0.49048 0.02406
 O1372 O 0.48246 0.46715 -0.00105
 Zr1373 Zr 0.51360 0.51843 0.04458
 O1374 O 0.53680 0.49582 0.02104
 Zr1375 Zr 0.48813 0.48592 -0.03559
 O1376 O 0.46421 0.50791 -0.01178
 Zr1377 Zr 0.54005 0.51335 -0.01443
 O1378 O 0.51894 0.53733 0.01000
 Zr1379 Zr 0.51912 0.46133 0.01340
 O1380 O 0.49745 0.48259 0.03977
 O1381 O 0.47730 0.52563 0.03107
 O1382 O 0.52442 0.47819 -0.02187
 C1383 C 0.49750 0.57551 0.04147
 C1384 C 0.42647 0.53753 0.01511
 C1385 C 0.47010 0.50367 0.08092
 C1386 C 0.50763 0.42997 -0.03489
 C1387 C 0.53321 0.49864 -0.07100
 C1388 C 0.57408 0.46499 -0.00762
 H1389 H 0.50558 0.53135 -0.04578
 H1390 H 0.55345 0.49317 0.02916
 H1391 H 0.46704 0.53613 0.04283
 H1392 H 0.47352 0.45108 -0.00362
 H1393 H 0.44065 0.47622 -0.04006
 H1394 H 0.43071 0.46314 -0.00141
 H1395 H 0.57864 0.52302 0.01410
 H1396 H 0.55274 0.54686 0.04321
 H1397 H 0.47418 0.51883 -0.06986
 H1398 H 0.45016 0.54377 -0.04110
 H1399 H 0.55128 0.45648 0.05017
 H1400 H 0.52893 0.48500 0.07686
 H1401 H 0.51261 0.57688 -0.01908
 H1402 H 0.54161 0.55328 -0.04312
 H1403 H 0.46447 0.45002 0.05175
 H1404 H 0.49014 0.42359 0.02449
 O1405 O 0.04582 0.00858 0.44502
 O1406 O 0.05018 0.04736 0.46701
 O1407 O 0.05558 -0.04524 0.50663
 O1408 O 0.03630 -0.05512 0.54234
 O1409 O -0.00351 -0.05409 0.45131
 O1410 O -0.04455 -0.03474 0.44641
 O1411 O -0.01716 0.01579 0.57215
 O1412 O 0.02559 0.00313 0.57333
 O1413 O -0.02138 0.07184 0.51476
 O1414 O -0.00960 0.07347 0.47033
 O1415 O -0.07431 0.01241 0.51652
 O1416 O -0.07353 -0.03145 0.50448
 O1417 O -0.05140 -0.00388 0.55605
 O1418 O -0.05426 -0.04595 0.53396
 O1419 O -0.06001 0.04861 0.49857
 O1420 O -0.03887 0.05468 0.45636
 O1421 O -0.00315 0.05611 0.55048
 O1422 O 0.03966 0.03752 0.55516
 O1423 O 0.01159 -0.01127 0.42901
 O1424 O -0.03256 -0.00159 0.42897
 O1425 O 0.01618 -0.06960 0.48636
 O1426 O 0.00061 -0.07007 0.53033
 O1427 O 0.06986 -0.01010 0.48656
 O1428 O 0.06802 0.03325 0.49916
 Zr1429 Zr 0.03738 0.01342 0.48362
 O1430 O 0.01416 0.03677 0.50635
 Zr1431 Zr 0.01665 -0.03876 0.51140
 O1432 O -0.00701 -0.01764 0.53582
 Zr1433 Zr -0.01233 -0.01621 0.46035
 O1434 O -0.03771 0.00555 0.48237
 Zr1435 Zr 0.00745 0.01873 0.54113
 O1436 O 0.03302 -0.00356 0.51943
 Zr1437 Zr -0.02181 0.04087 0.48998
 O1438 O 0.00245 0.02016 0.46552
 Zr1439 Zr -0.04210 -0.01135 0.51810
 O1440 O -0.01929 -0.03492 0.49474
 O1441 O 0.02317 -0.02223 0.47631
 O1442 O -0.02825 0.02461 0.52532
 C1443 C 0.03321 -0.00076 0.42662
 C1444 C 0.07327 -0.03204 0.49675
 C1445 C 0.00732 -0.07206 0.46393
 C1446 C -0.03937 0.00651 0.57425
 C1447 C -0.01373 0.07404 0.53763
 C1448 C -0.07749 0.03523 0.50858
 H1449 H 0.02230 0.05332 0.50845
 H1450 H -0.05401 0.00729 0.47338
 H1451 H 0.03475 -0.03235 0.46545
 H1452 H -0.00868 -0.02671 0.55210
 H1453 H 0.04041 -0.00677 0.56715
 H1454 H 0.03010 -0.04654 0.55778
 H1455 H -0.05363 0.04405 0.45265
 H1456 H -0.02735 0.01621 0.42691
 H1457 H 0.04320 0.05213 0.54404
 H1458 H 0.07034 0.02670 0.51657
 H1459 H -0.07730 -0.02509 0.48728
 H1460 H -0.04965 -0.04700 0.45959
 H1461 H 0.03642 0.05358 0.45583
 H1462 H 0.00672 0.07852 0.47772
 H1463 H -0.01489 -0.07452 0.52100
 H1464 H -0.04377 -0.04962 0.54903
 O1465 O 0.67488 0.23668 0.26417
 O1466 O 0.67438 0.24819 0.22041
 O1467 O 0.73330 0.17905 0.26620
 O1468 O 0.77656 0.17793 0.25259
 O1469 O 0.73315 0.23790 0.32196
 O1470 O 0.74402 0.28147 0.32131
 O1471 O 0.80148 0.24710 0.20046
 O1472 O 0.78033 0.20474 0.19629
 O1473 O 0.74373 0.29929 0.19410
 O1474 O 0.70121 0.30463 0.21500
 O1475 O 0.79475 0.30540 0.25197
 O1476 O 0.80064 0.28410 0.29375
 O1477 O 0.81707 0.26612 0.23537
 O1478 O 0.81853 0.25346 0.27996
 O1479 O 0.75877 0.32185 0.23458
 O1480 O 0.71425 0.32248 0.24529
 O1481 O 0.76149 0.26321 0.17840
 O1482 O 0.75009 0.21911 0.17806
 O1483 O 0.69078 0.25597 0.29885
 O1484 O 0.71151 0.29522 0.30400
 O1485 O 0.75320 0.20279 0.30659
 O1486 O 0.79146 0.19551 0.28408
 O1487 O 0.69783 0.19495 0.24729
 O1488 O 0.69242 0.21522 0.20693
 Zr1489 Zr 0.70617 0.23304 0.23973
 O1490 O 0.72772 0.25549 0.21500
 Zr1491 Zr 0.75775 0.21008 0.26777
 O1492 O 0.78165 0.23163 0.24452
 Zr1493 Zr 0.72905 0.26176 0.29019
 O1494 O 0.75140 0.28560 0.26781
 Zr1495 Zr 0.76373 0.23885 0.20982
 O1496 O 0.74096 0.21468 0.23200
 Zr1497 Zr 0.73486 0.29053 0.23199
 O1498 O 0.71074 0.26916 0.25559
 Zr1499 Zr 0.78634 0.26761 0.26042
 O1500 O 0.76507 0.24490 0.28529
 O1501 O 0.72242 0.22636 0.27495
 O1502 O 0.77046 0.27449 0.22497
 C1503 C 0.67251 0.24644 0.28627
 C1504 C 0.71077 0.17680 0.25746
 C1505 C 0.74380 0.21602 0.32477
 C1506 C 0.81934 0.25769 0.21278
 C1507 C 0.75360 0.28620 0.17604
 C1508 C 0.78149 0.32378 0.24277
 H1509 H 0.71863 0.25754 0.19881
 H1510 H 0.75334 0.30184 0.27674
 H1511 H 0.71191 0.21587 0.28627
 H1512 H 0.79798 0.22254 0.24233
 H1513 H 0.79565 0.20103 0.20644
 H1514 H 0.76956 0.17544 0.23546
 H1515 H 0.72100 0.32673 0.26214
 H1516 H 0.69962 0.30117 0.29074
 H1517 H 0.73290 0.22578 0.17434
 H1518 H 0.70578 0.20310 0.20140
 H1519 H 0.78984 0.29898 0.29790
 H1520 H 0.76155 0.27503 0.32363
 H1521 H 0.67211 0.26581 0.22638
 H1522 H 0.69766 0.29417 0.20000
 H1523 H 0.79829 0.20919 0.29467
 H1524 H 0.82393 0.23742 0.27186
 O1525 O 0.75621 0.70122 0.69809
 O1526 O 0.79471 0.69427 0.71990
 O1527 O 0.70285 0.69205 0.76054
 O1528 O 0.69174 0.71186 0.79526
 O1529 O 0.69427 0.75393 0.70543
 O1530 O 0.71443 0.79354 0.70066
 O1531 O 0.76562 0.76132 0.82585
 O1532 O 0.75123 0.71945 0.82709
 O1533 O 0.82041 0.76336 0.76847
 O1534 O 0.82168 0.75360 0.72408
 O1535 O 0.76120 0.81956 0.77134
 O1536 O 0.71734 0.82072 0.75980
 O1537 O 0.74536 0.79637 0.81055
 O1538 O 0.70297 0.80118 0.78890
 O1539 O 0.79747 0.80400 0.75382
 O1540 O 0.80294 0.78392 0.71082
 O1541 O 0.80532 0.74325 0.80325
 O1542 O 0.78455 0.70296 0.80842
 O1543 O 0.73655 0.73661 0.68268
 O1544 O 0.74736 0.78029 0.68338
 O1545 O 0.67871 0.73248 0.73925
 O1546 O 0.67843 0.74848 0.78378
 O1547 O 0.73721 0.67698 0.73917
 O1548 O 0.78068 0.67657 0.75175
 Zr1549 Zr 0.76111 0.70846 0.73678
 O1550 O 0.78474 0.73012 0.75974
 Zr1551 Zr 0.70929 0.73085 0.76482
 O1552 O 0.73083 0.75288 0.78972
 Zr1553 Zr 0.73226 0.76011 0.71437
 O1554 O 0.75417 0.78404 0.73685
 Zr1555 Zr 0.76706 0.73674 0.79473
 O1556 O 0.74430 0.71272 0.77268
 Zr1557 Zr 0.78926 0.76641 0.74412
 O1558 O 0.76836 0.74352 0.71930
 Zr1559 Zr 0.73740 0.78815 0.77263
 O1560 O 0.71360 0.76703 0.74881
 O1561 O 0.72570 0.72445 0.72964
 O1562 O 0.77328 0.77263 0.77963
 C1563 C 0.74693 0.71464 0.67994
 C1564 C 0.71570 0.67407 0.75009
 C1565 C 0.67637 0.74284 0.71733
 C1566 C 0.75636 0.78381 0.82833
 C1567 C 0.82325 0.75329 0.79039
 C1568 C 0.78411 0.82190 0.76378
 H1569 H 0.80110 0.72098 0.76149
 H1570 H 0.75601 0.80051 0.72818
 H1571 H 0.71549 0.71350 0.71861
 H1572 H 0.72194 0.75457 0.80610
 H1573 H 0.74051 0.70557 0.82096
 H1574 H 0.70094 0.71647 0.81077
 H1575 H 0.79275 0.79950 0.70777
 H1576 H 0.76497 0.77403 0.68115
 H1577 H 0.79789 0.69776 0.79631
 H1578 H 0.77339 0.67335 0.76869
 H1579 H 0.72375 0.82486 0.74273
 H1580 H 0.70255 0.79931 0.71401
 H1581 H 0.80119 0.70798 0.70897
 H1582 H 0.82609 0.73646 0.73043
 H1583 H 0.67360 0.76374 0.77387
 H1584 H 0.69957 0.79073 0.80404
 O1585 O 0.29963 0.19332 0.74303
 O1586 O 0.30670 0.21454 0.70377
 O1587 O 0.30598 0.25394 0.79615
 O1588 O 0.28695 0.29086 0.80377
 O1589 O 0.24491 0.20104 0.80177
 O1590 O 0.20578 0.19687 0.78010
 O1591 O 0.23859 0.32203 0.73031
 O1592 O 0.28034 0.32216 0.74494
 O1593 O 0.23830 0.26390 0.67467
 O1594 O 0.24826 0.21981 0.67398
 O1595 O 0.18070 0.26826 0.73121
 O1596 O 0.17814 0.25595 0.77507
 O1597 O 0.20323 0.30707 0.74925
 O1598 O 0.19653 0.28472 0.79028
 O1599 O 0.19701 0.24939 0.69617
 O1600 O 0.21831 0.20617 0.69207
 O1601 O 0.25618 0.29923 0.69061
 O1602 O 0.29662 0.30357 0.71181
 O1603 O 0.26325 0.17785 0.75967
 O1604 O 0.21980 0.17914 0.74811
 O1605 O 0.26450 0.23535 0.81795
 O1606 O 0.24980 0.27994 0.81719
 O1607 O 0.32237 0.23361 0.76193
 O1608 O 0.32396 0.24664 0.71840
 Zr1609 Zr 0.29172 0.23189 0.73660
 O1610 O 0.27048 0.25505 0.71185
 Zr1611 Zr 0.26777 0.26037 0.78707
 O1612 O 0.24602 0.28539 0.76448
 Zr1613 Zr 0.23951 0.20999 0.76341
 O1614 O 0.21604 0.23273 0.74029
 Zr1615 Zr 0.26300 0.29024 0.72888
 O1616 O 0.28672 0.26796 0.75280
 Zr1617 Zr 0.23456 0.23974 0.70594
 O1618 O 0.25709 0.21469 0.72803
 Zr1619 Zr 0.21114 0.26867 0.75657
 O1620 O 0.23189 0.24471 0.78142
 O1621 O 0.27473 0.22499 0.77130
 O1622 O 0.22746 0.27549 0.72130
 C1623 C 0.28594 0.17517 0.75126
 C1624 C 0.32435 0.24322 0.78411
 C1625 C 0.25470 0.21335 0.82012
 C1626 C 0.21619 0.32495 0.73941
 C1627 C 0.24718 0.28623 0.67231
 C1628 C 0.17881 0.26003 0.70853
 H1629 H 0.27994 0.25670 0.69583
 H1630 H 0.19974 0.22422 0.73779
 H1631 H 0.28525 0.21377 0.78219
 H1632 H 0.24399 0.30173 0.77334
 H1633 H 0.29420 0.31566 0.75586
 H1634 H 0.28121 0.30652 0.79507
 H1635 H 0.20226 0.20343 0.70126
 H1636 H 0.22627 0.17677 0.73070
 H1637 H 0.30217 0.29123 0.69886
 H1638 H 0.32662 0.26364 0.72562
 H1639 H 0.17425 0.23904 0.76831
 H1640 H 0.19965 0.21043 0.79155
 H1641 H 0.29355 0.20302 0.69748
 H1642 H 0.26590 0.22505 0.67107
 H1643 H 0.23392 0.27098 0.82099
 H1644 H 0.20738 0.29904 0.79493
 O1645 O 0.26951 0.67732 0.23862
 O1646 O 0.22590 0.67710 0.24827
 O1647 O 0.27008 0.73566 0.17965
 O1648 O 0.25911 0.77640 0.17684
 O1649 O 0.32713 0.73424 0.23774
 O1650 O 0.32728 0.74745 0.28085
 O1651 O 0.20431 0.80404 0.24865
 O1652 O 0.20145 0.78565 0.20760
 O1653 O 0.19935 0.74413 0.29970
 O1654 O 0.22346 0.70399 0.30635
 O1655 O 0.25680 0.79860 0.30611
 O1656 O 0.29811 0.80437 0.28471
 O1657 O 0.23954 0.82027 0.26640
 O1658 O 0.28424 0.82121 0.25366
 O1659 O 0.23775 0.76369 0.32188
 O1660 O 0.25249 0.71944 0.32398
 O1661 O 0.18311 0.76344 0.26476
 O1662 O 0.18233 0.75168 0.22163
 O1663 O 0.30456 0.69319 0.25721
 O1664 O 0.31008 0.71535 0.29592
 O1665 O 0.31110 0.75382 0.20282
 O1666 O 0.28865 0.79448 0.19887
 O1667 O 0.25273 0.70002 0.19592
 O1668 O 0.21238 0.69513 0.21619
 Zr1669 Zr 0.24520 0.70885 0.23394
 O1670 O 0.22061 0.73047 0.25677
 Zr1671 Zr 0.27252 0.76001 0.21091
 O1672 O 0.24876 0.78406 0.23255
 Zr1673 Zr 0.29582 0.73186 0.26228
 O1674 O 0.27336 0.75476 0.28624
 Zr1675 Zr 0.21436 0.76629 0.24030
 O1676 O 0.23677 0.74350 0.21575
 Zr1677 Zr 0.23792 0.73813 0.29152
 O1678 O 0.26145 0.71373 0.26987
 Zr1679 Zr 0.26508 0.78944 0.26828
 O1680 O 0.29025 0.76770 0.24555
 O1681 O 0.28021 0.72477 0.22708
 O1682 O 0.22993 0.77356 0.27564
 C1683 C 0.29157 0.67481 0.24851
 C1684 C 0.26196 0.71295 0.17755
 C1685 C 0.32946 0.74385 0.21551
 C1686 C 0.21669 0.82230 0.25843
 C1687 C 0.18088 0.75363 0.28689
 C1688 C 0.24601 0.78631 0.32404
 H1689 H 0.20480 0.72099 0.25898
 H1690 H 0.28224 0.75717 0.30243
 H1691 H 0.29129 0.71375 0.21657
 H1692 H 0.24588 0.80023 0.22344
 H1693 H 0.20787 0.77596 0.19288
 H1694 H 0.24610 0.78927 0.18135
 H1695 H 0.26820 0.72797 0.32899
 H1696 H 0.29658 0.70440 0.30260
 H1697 H 0.17996 0.73412 0.22759
 H1698 H 0.20704 0.70810 0.20365
 H1699 H 0.30324 0.79310 0.29883
 H1700 H 0.32926 0.76474 0.27394
 H1701 H 0.23164 0.67471 0.26592
 H1702 H 0.20920 0.69890 0.29552
 H1703 H 0.30168 0.79888 0.21143
 H1704 H 0.27598 0.82617 0.23759
 O1705 O 0.23962 0.67719 0.76360
 O1706 O 0.28322 0.67722 0.75332
 O1707 O 0.23825 0.73634 0.82191
 O1708 O 0.24395 0.77750 0.82403
 O1709 O 0.17981 0.73430 0.76231
 O1710 O 0.18001 0.74658 0.71917
 O1711 O 0.29905 0.80496 0.75513
 O1712 O 0.30313 0.78504 0.79494
 O1713 O 0.30735 0.74732 0.70174
 O1714 O 0.28727 0.70472 0.69655
 O1715 O 0.24960 0.79870 0.69479
 O1716 O 0.20664 0.80362 0.71516
 O1717 O 0.26407 0.82075 0.73535
 O1718 O 0.21946 0.82135 0.74595
 O1719 O 0.26717 0.76250 0.67901
 O1720 O 0.25694 0.71821 0.67840
 O1721 O 0.32216 0.76669 0.73683
 O1722 O 0.32362 0.75187 0.78048
 O1723 O 0.20390 0.69341 0.74531
 O1724 O 0.19906 0.71452 0.70513
 O1725 O 0.19493 0.75155 0.79840
 O1726 O 0.21436 0.79377 0.80132
 O1727 O 0.25700 0.70065 0.80625
 O1728 O 0.29640 0.69494 0.78520
 Zr1729 Zr 0.26299 0.70884 0.76778
 O1730 O 0.28704 0.73088 0.74524
 Zr1731 Zr 0.23292 0.75979 0.79010
 O1732 O 0.25587 0.78409 0.76865
 Zr1733 Zr 0.21175 0.73164 0.73874
 O1734 O 0.23355 0.75464 0.71486
 Zr1735 Zr 0.29117 0.76671 0.76169
 O1736 O 0.26942 0.74362 0.78584
 Zr1737 Zr 0.26972 0.73826 0.71033
 O1738 O 0.24687 0.71365 0.73171
 Zr1739 Zr 0.24010 0.78949 0.73249
 O1740 O 0.21547 0.76753 0.75515
 O1741 O 0.22722 0.72446 0.77424
 O1742 O 0.27591 0.77381 0.72600
 C1743 C 0.21731 0.67503 0.75433
 C1744 C 0.24813 0.71408 0.82455
 C1745 C 0.17707 0.74227 0.78504
 C1746 C 0.28616 0.82315 0.74501
 C1747 C 0.32483 0.75830 0.71424
 C1748 C 0.25937 0.78549 0.67676
 H1749 H 0.30345 0.72194 0.74309
 H1750 H 0.22472 0.75677 0.69854
 H1751 H 0.21682 0.71337 0.78507
 H1752 H 0.25771 0.80020 0.77785
 H1753 H 0.29647 0.77519 0.80939
 H1754 H 0.25761 0.78934 0.81973
 H1755 H 0.23992 0.72494 0.67406
 H1756 H 0.21235 0.70214 0.70002
 H1757 H 0.32910 0.73610 0.77193
 H1758 H 0.30253 0.70871 0.79611
 H1759 H 0.20336 0.79325 0.70004
 H1760 H 0.17761 0.76421 0.72509
 H1761 H 0.27791 0.67541 0.73550
 H1762 H 0.30264 0.70127 0.70671
 H1763 H 0.20071 0.79721 0.78893
 H1764 H 0.22569 0.82506 0.76313
 O1765 O 0.25361 0.20034 0.19221
 O1766 O 0.29175 0.19411 0.21468
 O1767 O 0.19917 0.19216 0.25396
 O1768 O 0.19250 0.21101 0.29133
 O1769 O 0.18904 0.25072 0.19950
 O1770 O 0.20800 0.29119 0.19327
 O1771 O 0.26236 0.26450 0.31796
 O1772 O 0.24908 0.22169 0.32017
 O1773 O 0.31627 0.26706 0.26008
 O1774 O 0.31733 0.25316 0.21568
 O1775 O 0.25701 0.32095 0.26080
 O1776 O 0.21223 0.32038 0.24996
 O1777 O 0.24184 0.29899 0.30180
 O1778 O 0.19981 0.30318 0.28115
 O1779 O 0.29211 0.30565 0.24089
 O1780 O 0.29863 0.28247 0.20102
 O1781 O 0.30191 0.24809 0.29582
 O1782 O 0.28422 0.20729 0.30263
 O1783 O 0.23191 0.23427 0.17622
 O1784 O 0.24046 0.27818 0.17505
 O1785 O 0.17454 0.23294 0.23580
 O1786 O 0.17526 0.24716 0.27909
 O1787 O 0.23401 0.17694 0.23340
 O1788 O 0.27737 0.17707 0.24690
 Zr1789 Zr 0.25787 0.20846 0.23082
 O1790 O 0.28156 0.23139 0.25259
 Zr1791 Zr 0.20637 0.23077 0.25946
 O1792 O 0.22782 0.25451 0.28278
 Zr1793 Zr 0.22720 0.25865 0.20728
 O1794 O 0.24946 0.28371 0.22817
 Zr1795 Zr 0.26432 0.23910 0.28757
 O1796 O 0.24185 0.21359 0.26694
 Zr1797 Zr 0.28509 0.26703 0.23537
 O1798 O 0.26383 0.24304 0.21193
 Zr1799 Zr 0.23356 0.28924 0.26422
 O1800 O 0.20954 0.26650 0.24209
 O1801 O 0.22195 0.22353 0.22401
 O1802 O 0.26975 0.27453 0.27096
 C1803 C 0.24361 0.21289 0.17382
 C1804 C 0.21199 0.17422 0.24335
 C1805 C 0.17137 0.24131 0.21320
 C1806 C 0.25291 0.28695 0.31992
 C1807 C 0.31922 0.25886 0.28279
 C1808 C 0.27892 0.32374 0.25071
 H1809 H 0.29820 0.22286 0.25458
 H1810 H 0.25077 0.29973 0.21859
 H1811 H 0.21162 0.21239 0.21328
 H1812 H 0.21919 0.25670 0.29924
 H1813 H 0.24013 0.20642 0.31443
 H1814 H 0.20001 0.21869 0.30651
 H1815 H 0.28683 0.29626 0.19584
 H1816 H 0.25820 0.27248 0.17243
 H1817 H 0.29558 0.20050 0.28935
 H1818 H 0.27000 0.17439 0.26390
 H1819 H 0.21884 0.32436 0.23293
 H1820 H 0.19603 0.29672 0.20665
 H1821 H 0.29850 0.20782 0.20393
 H1822 H 0.32362 0.23779 0.22455
 H1823 H 0.17144 0.26365 0.27088
 H1824 H 0.19603 0.29234 0.29593
 O1825 O 0.74464 0.82225 0.23718
 O1826 O 0.78748 0.82099 0.24997
 O1827 O 0.74368 0.76252 0.18154
 O1828 O 0.75052 0.72175 0.17974
 O1829 O 0.68443 0.76809 0.23912
 O1830 O 0.68265 0.75739 0.28225
 O1831 O 0.80325 0.69278 0.25298
 O1832 O 0.80875 0.71080 0.21222
 O1833 O 0.80981 0.75242 0.30382
 O1834 O 0.78926 0.79318 0.30968
 O1835 O 0.74808 0.70229 0.30957
 O1836 O 0.70878 0.69715 0.28704
 O1837 O 0.76698 0.67882 0.27092
 O1838 O 0.72229 0.68023 0.25632
 O1839 O 0.76971 0.73558 0.32516
 O1840 O 0.75670 0.78175 0.32487
 O1841 O 0.82583 0.73124 0.26999
 O1842 O 0.82879 0.74406 0.22623
 O1843 O 0.70939 0.80909 0.25773
 O1844 O 0.70158 0.78771 0.29673
 O1845 O 0.70008 0.74664 0.20523
 O1846 O 0.72175 0.70524 0.20208
 O1847 O 0.76295 0.79739 0.19684
 O1848 O 0.80229 0.80125 0.21912
 Zr1849 Zr 0.76788 0.78963 0.23559
 O1850 O 0.79068 0.76720 0.25975
 Zr1851 Zr 0.73844 0.73953 0.21350
 O1852 O 0.76054 0.71477 0.23597
 Zr1853 Zr 0.71555 0.77005 0.26362
 O1854 O 0.73592 0.74611 0.28840
 Zr1855 Zr 0.79557 0.73093 0.24424
 O1856 O 0.77492 0.75422 0.21864
 Zr1857 Zr 0.77207 0.76083 0.29426
 O1858 O 0.75070 0.78628 0.27140
 Zr1859 Zr 0.74279 0.71082 0.27128
 O1860 O 0.71941 0.73366 0.24787
 O1861 O 0.73214 0.77549 0.22837
 O1862 O 0.77853 0.72486 0.27928
 C1863 C 0.72297 0.82632 0.24753
 C1864 C 0.75384 0.78425 0.17870
 C1865 C 0.68186 0.75702 0.21775
 C1866 C 0.78974 0.67540 0.26296
 C1867 C 0.82787 0.74086 0.29212
 C1868 C 0.75905 0.71401 0.32753
 H1869 H 0.80696 0.77573 0.26230
 H1870 H 0.72633 0.74446 0.30435
 H1871 H 0.72186 0.78660 0.21713
 H1872 H 0.76286 0.69841 0.22718
 H1873 H 0.80325 0.72061 0.19716
 H1874 H 0.76481 0.71031 0.18422
 H1875 H 0.74166 0.77278 0.33117
 H1876 H 0.71531 0.79845 0.30313
 H1877 H 0.83322 0.76050 0.23373
 H1878 H 0.80788 0.78747 0.20767
 H1879 H 0.70263 0.70976 0.29948
 H1880 H 0.67989 0.73986 0.27644
 H1881 H 0.78096 0.82385 0.26730
 H1882 H 0.80214 0.79897 0.29746
 H1883 H 0.70784 0.70174 0.21409
 H1884 H 0.73174 0.67355 0.24156
 O1885 O 0.75520 0.29854 0.80569
 O1886 O 0.79528 0.30319 0.78501
 O1887 O 0.70332 0.30582 0.74383
 O1888 O 0.69450 0.28628 0.70844
 O1889 O 0.69589 0.24353 0.79842
 O1890 O 0.71887 0.20518 0.80520
 O1891 O 0.76650 0.23646 0.67838
 O1892 O 0.75301 0.27914 0.67806
 O1893 O 0.82331 0.23351 0.73578
 O1894 O 0.82412 0.24583 0.78039
 O1895 O 0.76698 0.17856 0.73374
 O1896 O 0.72286 0.17703 0.74649
 O1897 O 0.74817 0.20123 0.69435
 O1898 O 0.70762 0.19535 0.71729
 O1899 O 0.80165 0.19372 0.75345
 O1900 O 0.80720 0.21529 0.79430
 O1901 O 0.80725 0.25247 0.70059
 O1902 O 0.78726 0.29320 0.69514
 O1903 O 0.73628 0.26358 0.82162
 O1904 O 0.75071 0.22010 0.82237
 O1905 O 0.68029 0.26427 0.76399
 O1906 O 0.68100 0.25008 0.72017
 O1907 O 0.73783 0.32133 0.76365
 O1908 O 0.78141 0.32130 0.75265
 Zr1909 Zr 0.76223 0.28974 0.76751
 O1910 O 0.78665 0.26781 0.74461
 Zr1911 Zr 0.71142 0.26706 0.73939
 O1912 O 0.73364 0.24447 0.71507
 Zr1913 Zr 0.73472 0.23869 0.79060
 O1914 O 0.75776 0.21445 0.76849
 Zr1915 Zr 0.76929 0.26060 0.70975
 O1916 O 0.74591 0.28503 0.73158
 Zr1917 Zr 0.79238 0.23187 0.76086
 O1918 O 0.77043 0.25498 0.78552
 Zr1919 Zr 0.74148 0.20948 0.73268
 O1920 O 0.71682 0.23114 0.75602
 O1921 O 0.72709 0.27400 0.77456
 O1922 O 0.77682 0.22491 0.72535
 C1923 C 0.74513 0.28600 0.82390
 C1924 C 0.71602 0.32403 0.75325
 C1925 C 0.67763 0.25352 0.78562
 C1926 C 0.75729 0.21424 0.67600
 C1927 C 0.82551 0.24231 0.71321
 C1928 C 0.78937 0.17591 0.74280
 H1929 H 0.80278 0.27675 0.74252
 H1930 H 0.76015 0.19816 0.77748
 H1931 H 0.71592 0.28494 0.78505
 H1932 H 0.72454 0.24264 0.69890
 H1933 H 0.74285 0.29363 0.68458
 H1934 H 0.70361 0.28078 0.69303
 H1935 H 0.79563 0.20177 0.79968
 H1936 H 0.76754 0.22758 0.82504
 H1937 H 0.80004 0.29870 0.70747
 H1938 H 0.77529 0.32364 0.73511
 H1939 H 0.73046 0.17246 0.76297
 H1940 H 0.70820 0.19825 0.79161
 H1941 H 0.80115 0.28971 0.79677
 H1942 H 0.82844 0.26236 0.77281
 H1943 H 0.67738 0.23401 0.72905
 H1944 H 0.70269 0.20638 0.70291
 C1945 C 0.08126 0.99864 1.12815
 C1946 C 0.06864 1.00560 1.15029
 C1947 C 0.04345 1.01477 1.14711
 C1948 C 0.03206 1.01595 1.12275
 C1949 C 0.04563 1.00817 1.10087
 C1950 C 0.07047 1.00006 1.10492
 C1951 C 0.09347 0.99034 1.09166
 C1952 C 0.10584 0.98882 1.11793
 H1953 H 0.03233 1.02042 1.16340
 H1954 H 0.01262 1.02253 1.12120
 H1955 H 0.10190 1.00482 1.07904
 H1956 H 0.09047 0.97152 1.08293
 H1957 H 0.12140 1.00246 1.12050
 H1958 H 0.11021 0.96907 1.12399
 C1959 C 0.58084 0.50262 0.63035
 C1960 C 0.56777 0.50898 0.65239
 C1961 C 0.54238 0.51744 0.64909
 C1962 C 0.53108 0.51806 0.62469
 C1963 C 0.54497 0.51042 0.60297
 C1964 C 0.57013 0.50352 0.60708
 C1965 C 0.59326 0.49374 0.59408
 C1966 C 0.60554 0.49281 0.62041
 H1967 H 0.53099 0.52270 0.66532
 H1968 H 0.51140 0.52382 0.62302
 H1969 H 0.60160 0.50807 0.58124
 H1970 H 0.59047 0.47473 0.58571
 H1971 H 0.62097 0.50663 0.62279
 H1972 H 0.61006 0.47320 0.62679
 C1973 C 0.41958 0.00531 0.62474
 C1974 C 0.43278 -0.00340 0.64607
 C1975 C 0.45849 -0.01034 0.64270
 C1976 C 0.46947 -0.01066 0.61835
 C1977 C 0.45499 -0.00401 0.59685
 C1978 C 0.43035 0.00506 0.60089
 C1979 C 0.40620 -0.00245 0.58866
 C1980 C 0.39436 -0.00219 0.61485
 H1981 H 0.47006 -0.01582 0.65872
 H1982 H 0.48907 -0.01661 0.61637
 H1983 H 0.40736 -0.02165 0.58013
 H1984 H 0.39849 0.01265 0.57602
 H1985 H 0.38865 -0.02123 0.62158
 H1986 H 0.37982 0.01306 0.61725
 C1987 C -0.08473 0.49750 1.12390
 C1988 C -0.07194 0.48825 1.14527
 C1989 C -0.04833 0.47601 1.14121
 C1990 C -0.03691 0.47614 1.11709
 C1991 C -0.04885 0.48855 1.09652
 C1992 C -0.07353 0.49768 1.10025
 C1993 C -0.08545 0.52260 1.09347
 C1994 C -0.09777 0.52240 1.11945
 H1995 H -0.03829 0.46700 1.15671
 H1996 H -0.01832 0.46751 1.11490
 H1997 H -0.09926 0.52090 1.07779
 H1998 H -0.07137 0.53783 1.09108
 H1999 H -0.11867 0.52063 1.11867
 H2000 H -0.09084 0.53750 1.13214
 C2001 C -0.08127 0.48799 0.37089
 C2002 C -0.07358 0.50391 0.35094
 C2003 C -0.05649 0.52333 0.35756
 C2004 C -0.04602 0.52468 0.38202
 C2005 C -0.05250 0.50697 0.40078
 C2006 C -0.07120 0.48965 0.39499
 C2007 C -0.07092 0.46171 0.39892
 C2008 C -0.08171 0.45964 0.37253
 H2009 H -0.05073 0.53759 0.34419
 H2010 H -0.03240 0.53921 0.38602
 H2011 H -0.08437 0.45588 0.41395
 H2012 H -0.05146 0.45359 0.40069
 H2013 H -0.10122 0.45212 0.37260
 H2014 H -0.06851 0.45037 0.35889
 C2015 C 0.41852 0.99829 -0.12804
 C2016 C 0.43163 1.00572 -0.14981
 C2017 C 0.45541 1.01698 -0.14630
 C2018 C 0.46646 1.01796 -0.12207
 C2019 C 0.45400 1.00767 -0.10082
 C2020 C 0.42935 0.99921 -0.10431
 C2021 C 0.41727 0.97516 -0.09614
 C2022 C 0.40536 0.97416 -0.12222
 H2023 H 0.46574 1.02456 -0.16222
 H2024 H 0.48509 1.02594 -0.12020
 H2025 H 0.40322 0.97831 -0.08076
 H2026 H 0.43129 0.95963 -0.09263
 H2027 H 0.38445 0.97669 -0.12180
 H2028 H 0.41246 0.95805 -0.13386
 C2029 C 0.54150 0.48962 -0.14160
 C2030 C 0.56507 0.50046 -0.14623
 C2031 C 0.57617 0.51410 -0.12640
 C2032 C 0.56554 0.51394 -0.10207
 C2033 C 0.54348 0.50014 -0.09692
 C2034 C 0.53098 0.48943 -0.11750
 C2035 C 0.52101 0.46338 -0.12075
 C2036 C 0.53255 0.46358 -0.14711
 H2037 H 0.59360 0.52417 -0.12944
 H2038 H 0.57517 0.52389 -0.08716
 H2039 H 0.49999 0.46326 -0.12089
 H2040 H 0.53010 0.44933 -0.10780
 H2041 H 0.51816 0.46354 -0.16239
 H2042 H 0.54839 0.44967 -0.14948
 C2043 C 0.04270 -0.00898 0.35610
 C2044 C 0.06638 0.00173 0.35184
 C2045 C 0.07730 0.01511 0.37200
 C2046 C 0.06629 0.01483 0.39623
 C2047 C 0.04405 0.00115 0.40091
 C2048 C 0.03186 -0.00931 0.38002
 C2049 C 0.02170 -0.03525 0.37637
 C2050 C 0.03359 -0.03487 0.35017
 H2051 H 0.09485 0.02506 0.36932
 H2052 H 0.07574 0.02453 0.41142
 H2053 H 0.00068 -0.03520 0.37596
 H2054 H 0.03052 -0.04951 0.38928
 H2055 H 0.01940 -0.03461 0.33470
 H2056 H 0.04933 -0.04890 0.34786
 C2057 C 0.12249 1.08740 0.99979
 C2058 C 0.14456 1.07419 1.00682
 C2059 C 0.14171 1.04998 1.01774
 C2060 C 0.11781 1.03856 1.01862
 C2061 C 0.09627 1.05103 1.00842
 C2062 C 0.09903 1.07612 1.00044
 C2063 C 0.09073 1.08902 0.97664
 C2064 C 0.11645 1.10145 0.97597
 H2065 H 0.15797 1.03956 1.02493
 H2066 H 0.11651 1.01957 1.02623
 H2067 H 0.07486 1.10268 0.97995
 H2068 H 0.08783 1.07554 0.96086
 H2069 H 0.11538 1.12225 0.97895
 H2070 H 0.12847 1.09522 0.95981
 C2071 C 0.62156 0.58545 0.50397
 C2072 C 0.64331 0.57311 0.51322
 C2073 C 0.63989 0.54993 0.52610
 C2074 C 0.61602 0.53838 0.52662
 C2075 C 0.59503 0.54976 0.51431
 C2076 C 0.59813 0.57412 0.50444
 C2077 C 0.59096 0.58491 0.47929
 C2078 C 0.61666 0.59738 0.47878
 H2079 H 0.65571 0.54028 0.53508
 H2080 H 0.61438 0.52003 0.53560
 H2081 H 0.57494 0.59873 0.48071
 H2082 H 0.58883 0.57013 0.46458
 H2083 H 0.61540 0.61836 0.47990
 H2084 H 0.62946 0.58984 0.46379
 C2085 C 0.64416 0.45417 -0.02015
 C2086 C 0.64836 0.42957 -0.01091
 C2087 C 0.62680 0.41508 -0.00546
 C2088 C 0.60242 0.42622 -0.00572
 C2089 C 0.59894 0.45217 -0.01145
 C2090 C 0.62009 0.46522 -0.02032
 C2091 C 0.62995 0.49049 -0.01309
 C2092 C 0.65627 0.47840 -0.01295
 H2093 H 0.62881 0.39542 0.00017
 H2094 H 0.58654 0.41480 -0.00007
 H2095 H 0.62339 0.49663 0.00593
 H2096 H 0.62728 0.50477 -0.02838
 H2097 H 0.66498 0.47754 0.00615
 H2098 H 0.66872 0.48571 -0.02818
 C2099 C 0.12694 -0.07859 0.50798
 C2100 C 0.14835 -0.06619 0.49891
 C2101 C 0.14509 -0.04067 0.49123
 C2102 C 0.12074 -0.02920 0.49061
 C2103 C 0.09916 -0.04299 0.49768
 C2104 C 0.10314 -0.06736 0.50742
 C2105 C 0.09073 -0.09161 0.50069
 C2106 C 0.11688 -0.10395 0.50130
 H2107 H 0.16117 -0.02966 0.48538
 H2108 H 0.11881 -0.00980 0.48411
 H2109 H 0.08214 -0.09110 0.48152
 H2110 H 0.07808 -0.09841 0.51600
 H2111 H 0.12353 -0.11062 0.48248
 H2112 H 0.11924 -0.11790 0.51694
 C2113 C 0.37356 -0.08431 0.49761
 C2114 C 0.35201 -0.07143 0.50660
 C2115 C 0.35577 -0.04798 0.51864
 C2116 C 0.37987 -0.03687 0.51881
 C2117 C 0.40073 -0.04895 0.50688
 C2118 C 0.39718 -0.07341 0.49770
 C2119 C 0.40419 -0.08479 0.47283
 C2120 C 0.37826 -0.09679 0.47274
 H2121 H 0.34007 -0.03790 0.52736
 H2122 H 0.38188 -0.01843 0.52737
 H2123 H 0.41997 -0.09886 0.47457
 H2124 H 0.40661 -0.07033 0.45772
 H2125 H 0.37914 -0.11777 0.47443
 H2126 H 0.36562 -0.08931 0.45759
 C2127 C -0.14356 0.45635 1.00858
 C2128 C -0.14764 0.43268 0.99761
 C2129 C -0.12723 0.42147 0.98422
 C2130 C -0.10303 0.43221 0.98465
 C2131 C -0.09856 0.45447 0.99848
 C2132 C -0.11966 0.46692 1.00905
 C2133 C -0.12358 0.47716 1.03504
 C2134 C -0.14973 0.46559 1.03451
 H2135 H -0.12971 0.40394 0.97406
 H2136 H -0.08769 0.42255 0.97487
 H2137 H -0.12413 0.49820 1.03523
 H2138 H -0.11070 0.46819 1.04919
 H2139 H -0.16531 0.47998 1.03439
 H2140 H -0.15205 0.44988 1.04834
 C2141 C -0.14844 0.54641 0.48138
 C2142 C -0.15244 0.57106 0.49032
 C2143 C -0.13089 0.58601 0.49404
 C2144 C -0.10644 0.57523 0.49259
 C2145 C -0.10296 0.54923 0.48736
 C2146 C -0.12430 0.53572 0.48003
 C2147 C -0.13334 0.51041 0.48844
 C2148 C -0.15978 0.52212 0.48987
 H2149 H -0.13292 0.60572 0.49929
 H2150 H -0.09045 0.58695 0.49702
 H2151 H -0.12566 0.50467 0.50719
 H2152 H -0.13130 0.49593 0.47336
 H2153 H -0.16745 0.52316 0.50943
 H2154 H -0.17293 0.51441 0.47558
 C2155 C 0.35402 1.04369 -0.00843
 C2156 C 0.34950 1.06951 -0.00439
 C2157 C 0.37032 1.08456 0.00191
 C2158 C 0.39507 1.07440 0.00145
 C2159 C 0.39961 1.04901 -0.00566
 C2160 C 0.37850 1.03373 -0.00925
 C2161 C 0.37231 1.01637 -0.03046
 C2162 C 0.34551 1.02725 -0.02952
 H2163 H 0.36754 1.10438 0.00648
 H2164 H 0.41063 1.08673 0.00572
 H2165 H 0.37354 0.99614 -0.02468
 H2166 H 0.38257 1.02109 -0.04820
 H2167 H 0.33133 1.01328 -0.02315
 H2168 H 0.34019 1.03825 -0.04672
 C2169 C -0.01457 1.12858 1.08020
 C2170 C -0.00943 1.15034 1.06596
 C2171 C -0.00433 1.14701 1.03996
 C2172 C -0.00168 1.12255 1.02968
 C2173 C -0.00425 1.10089 1.04512
 C2174 C -0.01220 1.10457 1.07004
 C2175 C -0.00167 1.09371 1.09396
 C2176 C -0.00424 1.12008 1.10513
 H2177 H -0.00172 1.16316 1.02765
 H2178 H 0.00296 1.12065 1.00983
 H2179 H 0.01829 1.08704 1.09192
 H2180 H -0.01462 1.07984 1.10278
 H2181 H 0.01422 1.12878 1.10958
 H2182 H -0.01864 1.12133 1.12043
 C2183 C 0.48875 0.62717 0.58221
 C2184 C 0.49872 0.64817 0.56962
 C2185 C 0.50733 0.64447 0.54461
 C2186 C 0.50813 0.62005 0.53391
 C2187 C 0.50035 0.59875 0.54797
 C2188 C 0.48953 0.60318 0.57170
 C2189 C 0.49504 0.59083 0.59655
 C2190 C 0.49418 0.61714 0.60808
 H2191 H 0.51387 0.66027 0.53342
 H2192 H 0.51542 0.61785 0.51490
 H2193 H 0.51413 0.58168 0.59719
 H2194 H 0.47929 0.57869 0.60299
 H2195 H 0.51277 0.62331 0.61543
 H2196 H 0.47794 0.62010 0.62117
 C2197 C -0.02158 0.64435 0.45126
 C2198 C -0.01012 0.64842 0.42775
 C2199 C -0.00419 0.62679 0.41313
 C2200 C -0.00624 0.60228 0.42344
 C2201 C -0.01429 0.59879 0.44865
 C2202 C -0.02349 0.62021 0.46149
 C2203 C -0.01819 0.62937 0.48757
 C2204 C -0.01616 0.65581 0.47634
 H2205 H 0.00309 0.62877 0.39410
 H2206 H -0.00015 0.58626 0.41213
 H2207 H 0.00003 0.62183 0.49517
 H2208 H -0.03476 0.62726 0.50033
 H2209 H 0.00321 0.66361 0.47746
 H2210 H -0.03159 0.66889 0.48261
 C2211 C 0.51362 1.13185 -0.07971
 C2212 C 0.49554 1.15077 -0.07395
 C2213 C 0.47465 1.14324 -0.05904
 C2214 C 0.47388 1.11882 -0.04811
 C2215 C 0.49362 1.10107 -0.05233
 C2216 C 0.51254 1.10769 -0.06944
 C2217 C 0.54056 1.10563 -0.06664
 C2218 C 0.54183 1.13213 -0.07775
 H2219 H 0.45905 1.15613 -0.05522
 H2220 H 0.45815 1.11406 -0.03595
 H2221 H 0.54895 1.09087 -0.07916
 H2222 H 0.54664 1.10453 -0.04655
 H2223 H 0.55121 1.13251 -0.09656
 H2224 H 0.54858 1.14647 -0.06412
 C2225 C 0.49956 0.37934 -0.08442
 C2226 C 0.50876 0.35729 -0.07256
 C2227 C 0.52169 0.36037 -0.04945
 C2228 C 0.52229 0.38421 -0.03751
 C2229 C 0.50998 0.40554 -0.04839
 C2230 C 0.50010 0.40273 -0.07270
 C2231 C 0.47498 0.41053 -0.08325
 C2232 C 0.47440 0.38489 -0.09614
 H2233 H 0.53070 0.34433 -0.04016
 H2234 H 0.53140 0.38560 -0.01928
 H2235 H 0.47649 0.42660 -0.09676
 H2236 H 0.46023 0.41292 -0.06839
 H2237 H 0.47557 0.38625 -0.11707
 H2238 H 0.45932 0.37239 -0.08879
 C2239 C 0.00257 -0.12422 0.41565
 C2240 C 0.01092 -0.14587 0.42878
 C2241 C 0.02215 -0.14210 0.45265
 C2242 C 0.02194 -0.11789 0.46387
 C2243 C 0.01043 -0.09693 0.45150
 C2244 C 0.00228 -0.10050 0.42667
 C2245 C -0.02199 -0.09303 0.41412
 C2246 C -0.02168 -0.11908 0.40201
 H2247 H 0.03044 -0.15786 0.46300
 H2248 H 0.02976 -0.11591 0.48263
 H2249 H -0.01946 -0.07739 0.40027
 H2250 H -0.03777 -0.09018 0.42780
 H2251 H -0.01900 -0.11838 0.38118
 H2252 H -0.03726 -0.13135 0.40865
 C2253 C 0.50822 -0.12679 0.58011
 C2254 C 0.49784 -0.14811 0.56867
 C2255 C 0.48378 -0.14401 0.54632
 C2256 C 0.48273 -0.11989 0.53475
 C2257 C 0.49568 -0.09928 0.54529
 C2258 C 0.50719 -0.10311 0.56878
 C2259 C 0.53318 -0.09682 0.57745
 C2260 C 0.53431 -0.12280 0.58989
 H2261 H 0.47393 -0.15942 0.53749
 H2262 H 0.47241 -0.11764 0.51722
 H2263 H 0.53299 -0.08102 0.59127
 H2264 H 0.54676 -0.09476 0.56153
 H2265 H 0.53479 -0.12192 0.61086
 H2266 H 0.54854 -0.13584 0.58120
 C2267 C 0.01034 0.37109 1.07708
 C2268 C 0.00227 0.34932 1.06441
 C2269 C -0.00515 0.35273 1.03879
 C2270 C -0.00660 0.37708 1.02772
 C2271 C -0.00079 0.39872 1.04186
 C2272 C 0.00884 0.39492 1.06615
 C2273 C 0.00122 0.40739 1.09028
 C2274 C 0.00269 0.38135 1.10239
 H2275 H -0.00990 0.33688 1.02700
 H2276 H -0.01277 0.37892 1.00829
 H2277 H -0.01830 0.41555 1.08965
 H2278 H 0.01591 0.42042 1.09727
 H2279 H -0.01598 0.37432 1.10880
 H2280 H 0.01810 0.37964 1.11658
 C2281 C 0.75207 0.33575 0.12395
 C2282 C 0.75694 0.32189 0.10161
 C2283 C 0.76435 0.29609 0.10528
 C2284 C 0.76425 0.28475 0.12948
 C2285 C 0.75636 0.29849 0.15095
 C2286 C 0.75162 0.32436 0.14768
 C2287 C 0.72987 0.34024 0.15659
 C2288 C 0.73007 0.35273 0.13074
 H2289 H 0.77052 0.28426 0.08980
 H2290 H 0.76940 0.26489 0.13111
 H2291 H 0.73533 0.35319 0.17208
 H2292 H 0.71260 0.32904 0.16023
 H2293 H 0.73532 0.37300 0.13161
 H2294 H 0.71291 0.34882 0.11938
 C2295 C 0.25848 0.79383 0.60599
 C2296 C 0.26105 0.82003 0.60264
 C2297 C 0.26763 0.83411 0.62437
 C2298 C 0.26756 0.82292 0.64859
 C2299 C 0.26184 0.79719 0.65162
 C2300 C 0.25915 0.78270 0.62978
 C2301 C 0.23916 0.76427 0.62322
 C2302 C 0.23829 0.77649 0.59719
 H2303 H 0.27203 0.85397 0.62308
 H2304 H 0.27132 0.83451 0.66495
 H2305 H 0.22149 0.76723 0.63434
 H2306 H 0.24659 0.74446 0.62298
 H2307 H 0.22013 0.78663 0.59317
 H2308 H 0.24506 0.76357 0.58200
 C2309 C 0.73704 0.70588 0.60976
 C2310 C 0.74923 0.68265 0.60501
 C2311 C 0.76409 0.67201 0.62460
 C2312 C 0.76382 0.68268 0.64888
 C2313 C 0.74876 0.70431 0.65413
 C2314 C 0.73681 0.71644 0.63372
 C2315 C 0.71010 0.72566 0.63101
 C2316 C 0.71037 0.71408 0.60475
 H2317 H 0.77524 0.65493 0.62146
 H2318 H 0.77470 0.67343 0.66369
 H2319 H 0.70866 0.74667 0.63074
 H2320 H 0.69697 0.71616 0.64434
 H2321 H 0.70908 0.72844 0.58938
 H2322 H 0.69740 0.69784 0.60280
 C2323 C 0.23529 0.20253 0.10349
 C2324 C 0.25043 0.18086 0.09830
 C2325 C 0.26610 0.17231 0.11862
 C2326 C 0.26403 0.18280 0.14295
 C2327 C 0.24654 0.20245 0.14807
 C2328 C 0.23361 0.21302 0.12752
 C2329 C 0.20626 0.21948 0.12495
 C2330 C 0.20769 0.20776 0.09887
 H2331 H 0.28028 0.15758 0.11637
 H2332 H 0.27592 0.17511 0.15785
 H2333 H 0.20295 0.24029 0.12442
 H2334 H 0.19418 0.20887 0.13842
 H2335 H 0.20437 0.22193 0.08360
 H2336 H 0.19660 0.19014 0.09718
 C2337 C 0.23877 0.16931 0.87390
 C2338 C 0.25178 0.17933 0.89453
 C2339 C 0.26905 0.19885 0.88931
 C2340 C 0.27062 0.20965 0.86494
 C2341 C 0.25521 0.20097 0.84516
 C2342 C 0.24050 0.17975 0.84993
 C2343 C 0.21320 0.17548 0.84454
 C2344 C 0.21127 0.16406 0.87086
 H2345 H 0.28101 0.20621 0.90401
 H2346 H 0.28334 0.22522 0.86184
 H2347 H 0.21056 0.16142 0.82925
 H2348 H 0.20218 0.19346 0.84230
 H2349 H 0.20743 0.14344 0.87065
 H2350 H 0.19915 0.17540 0.88393
 C2351 C 0.73639 0.67578 0.38290
 C2352 C 0.75438 0.67996 0.40182
 C2353 C 0.77626 0.69341 0.39454
 C2354 C 0.77821 0.70445 0.37027
 C2355 C 0.75871 0.70168 0.35249
 C2356 C 0.73865 0.68607 0.35893
 C2357 C 0.71091 0.69121 0.35678
 C2358 C 0.70835 0.68012 0.38314
 H2359 H 0.79179 0.69594 0.40746
 H2360 H 0.79472 0.71541 0.36558
 H2361 H 0.70206 0.67945 0.34197
 H2362 H 0.70616 0.71178 0.35576
 H2363 H 0.69772 0.66215 0.38336
 H2364 H 0.70221 0.69425 0.39752
 C2365 C 0.23347 0.79711 0.39377
 C2366 C 0.24270 0.82147 0.39769
 C2367 C 0.24853 0.83591 0.37596
 C2368 C 0.24856 0.82487 0.35178
 C2369 C 0.24267 0.79911 0.34869
 C2370 C 0.23353 0.78620 0.36993
 C2371 C 0.24055 0.76070 0.38025
 C2372 C 0.24046 0.77266 0.40635
 H2373 H 0.25410 0.85545 0.37768
 H2374 H 0.25439 0.83620 0.33576
 H2375 H 0.25964 0.75412 0.37400
 H2376 H 0.22521 0.74681 0.37764
 H2377 H 0.25948 0.77302 0.41525
 H2378 H 0.22505 0.76566 0.41873
 C2379 C 0.73448 0.29661 0.89411
 C2380 C 0.74426 0.32078 0.89798
 C2381 C 0.75015 0.33511 0.87620
 C2382 C 0.74950 0.32416 0.85198
 C2383 C 0.74291 0.29857 0.84884
 C2384 C 0.73392 0.28578 0.87022
 C2385 C 0.74063 0.26013 0.88033
 C2386 C 0.74123 0.27199 0.90647
 H2387 H 0.75615 0.35452 0.87788
 H2388 H 0.75526 0.33547 0.83591
 H2389 H 0.75947 0.25321 0.87371
 H2390 H 0.72497 0.24656 0.87795
 H2391 H 0.76042 0.27195 0.91503
 H2392 H 0.72591 0.26524 0.91911
 C2393 C 0.83073 0.37433 0.24174
 C2394 C 0.81675 0.39701 0.24437
 C2395 C 0.79037 0.39483 0.24832
 C2396 C 0.77866 0.37107 0.24723
 C2397 C 0.79305 0.34888 0.24273
 C2398 C 0.81927 0.35095 0.24131
 C2399 C 0.83694 0.34095 0.22159
 C2400 C 0.84947 0.36660 0.22190
 H2401 H 0.77859 0.41128 0.25217
 H2402 H 0.75839 0.37007 0.25000
 H2403 H 0.82727 0.33678 0.20347
 H2404 H 0.84932 0.32542 0.22897
 H2405 H 0.84700 0.37745 0.20399
 H2406 H 0.86914 0.36566 0.22923
 C2407 C 0.33200 0.87570 0.75708
 C2408 C 0.31956 0.89739 0.74776
 C2409 C 0.29441 0.89467 0.73937
 C2410 C 0.28333 0.87056 0.73836
 C2411 C 0.29717 0.84865 0.74570
 C2412 C 0.32114 0.85207 0.75610
 C2413 C 0.34575 0.83929 0.74980
 C2414 C 0.35767 0.86524 0.75091
 H2415 H 0.28338 0.91101 0.73328
 H2416 H 0.26416 0.86909 0.73143
 H2417 H 0.34591 0.83093 0.73054
 H2418 H 0.35230 0.82634 0.76513
 H2419 H 0.36480 0.87196 0.73231
 H2420 H 0.37109 0.86720 0.76690
 C2421 C 0.16635 0.87408 0.25501
 C2422 C 0.17962 0.89650 0.26004
 C2423 C 0.20503 0.89302 0.26835
 C2424 C 0.21673 0.86885 0.26893
 C2425 C 0.20377 0.84726 0.26083
 C2426 C 0.17813 0.85037 0.25517
 C2427 C 0.16375 0.84146 0.23282
 C2428 C 0.15077 0.86725 0.23246
 H2429 H 0.21624 0.90866 0.27470
 H2430 H 0.23633 0.86734 0.27472
 H2431 H 0.15077 0.82586 0.23769
 H2432 H 0.17603 0.83799 0.21606
 H2433 H 0.13026 0.86625 0.23695
 H2434 H 0.15543 0.87872 0.21545
 C2435 C 0.70601 0.39461 0.76191
 C2436 C 0.68235 0.39909 0.75079
 C2437 C 0.67162 0.37909 0.73709
 C2438 C 0.68279 0.35476 0.73744
 C2439 C 0.70501 0.34984 0.75145
 C2440 C 0.71704 0.37057 0.76227
 C2441 C 0.72695 0.37394 0.78841
 C2442 C 0.71488 0.40027 0.78800
 H2443 H 0.65412 0.38197 0.72682
 H2444 H 0.67348 0.33968 0.72747
 H2445 H 0.74796 0.37419 0.78884
 H2446 H 0.71811 0.36094 0.80232
 H2447 H 0.72895 0.41567 0.78818
 H2448 H 0.69902 0.40258 0.80168
 C2449 C 0.67144 0.62074 0.76535
 C2450 C 0.68279 0.59953 0.75399
 C2451 C 0.70711 0.60263 0.74338
 C2452 C 0.71817 0.62678 0.74220
 C2453 C 0.70510 0.64836 0.75151
 C2454 C 0.68223 0.64440 0.76413
 C2455 C 0.65716 0.65744 0.76097
 C2456 C 0.64531 0.63146 0.76237
 H2457 H 0.71740 0.58660 0.73558
 H2458 H 0.73657 0.62861 0.73342
 H2459 H 0.65506 0.66667 0.74216
 H2460 H 0.65226 0.66965 0.77738
 H2461 H 0.63627 0.62563 0.74440
 H2462 H 0.63362 0.62872 0.77962
 C2463 C 0.20304 0.10383 0.23322
 C2464 C 0.17896 0.09975 0.24339
 C2465 C 0.16419 0.12140 0.24950
 C2466 C 0.17462 0.14573 0.24869
 C2467 C 0.20011 0.14909 0.24167
 C2468 C 0.21337 0.12786 0.23244
 C2469 C 0.23917 0.11791 0.23878
 C2470 C 0.22787 0.09162 0.23962
 H2471 H 0.14481 0.11953 0.25578
 H2472 H 0.16298 0.16170 0.25459
 H2473 H 0.24588 0.12453 0.25749
 H2474 H 0.25274 0.12048 0.22294
 H2475 H 0.22801 0.08297 0.25881
 H2476 H 0.23493 0.07908 0.22425
 C2477 C 0.33438 0.12231 0.75381
 C2478 C 0.32015 0.10028 0.75087
 C2479 C 0.29408 0.10375 0.74549
 C2480 C 0.28274 0.12810 0.74577
 C2481 C 0.29725 0.14961 0.75077
 C2482 C 0.32331 0.14626 0.75341
 C2483 C 0.34018 0.15578 0.77368
 C2484 C 0.35226 0.12952 0.77434
 H2485 H 0.28220 0.08788 0.74128
 H2486 H 0.26264 0.13007 0.74219
 H2487 H 0.32972 0.16074 0.79129
 H2488 H 0.35312 0.17061 0.76659
 H2489 H 0.34877 0.11913 0.79230
 H2490 H 0.37229 0.12942 0.76790
 C2491 C 0.83668 0.62103 0.25819
 C2492 C 0.82131 0.59967 0.25909
 C2493 C 0.79599 0.60357 0.26687
 C2494 C 0.78586 0.62831 0.26968
 C2495 C 0.80096 0.64968 0.26504
 C2496 C 0.82684 0.64519 0.26131
 C2497 C 0.84589 0.65666 0.24410
 C2498 C 0.85671 0.63004 0.24044
 H2499 H 0.78361 0.58760 0.26926
 H2500 H 0.76588 0.63060 0.27381
 H2501 H 0.85890 0.66930 0.25435
 H2502 H 0.83734 0.66480 0.22663
 H2503 H 0.87604 0.62750 0.24836
 H2504 H 0.85434 0.62355 0.22069
 C2505 C 0.87108 0.25466 0.16343
 C2506 C 0.89271 0.26158 0.17682
 C2507 C 0.88907 0.27125 0.20139
 C2508 C 0.86500 0.27089 0.21289
 C2509 C 0.84404 0.26075 0.20010
 C2510 C 0.84745 0.25419 0.17475
 C2511 C 0.84016 0.23090 0.16082
 C2512 C 0.86609 0.23143 0.14838
 H2513 H 0.90488 0.27833 0.21206
 H2514 H 0.86315 0.27742 0.23218
 H2515 H 0.82440 0.23465 0.14738
 H2516 H 0.83758 0.21433 0.17354
 H2517 H 0.86523 0.23547 0.12777
 H2518 H 0.87857 0.21518 0.15386
 C2519 C 0.37699 0.75354 0.66569
 C2520 C 0.39814 0.76277 0.67837
 C2521 C 0.39382 0.77460 0.70192
 C2522 C 0.36970 0.77412 0.71338
 C2523 C 0.34943 0.76176 0.70154
 C2524 C 0.35337 0.75303 0.67693
 C2525 C 0.34730 0.72817 0.66527
 C2526 C 0.37325 0.72875 0.65290
 H2527 H 0.40913 0.78347 0.71189
 H2528 H 0.36731 0.78237 0.73195
 H2529 H 0.33151 0.72986 0.65150
 H2530 H 0.34540 0.71275 0.67949
 H2531 H 0.37235 0.73075 0.63201
 H2532 H 0.38641 0.71368 0.65993
 C2533 C 0.39457 0.23290 0.79569
 C2534 C 0.39817 0.24433 0.81923
 C2535 C 0.37623 0.25100 0.83312
 C2536 C 0.35207 0.24959 0.82214
 C2537 C 0.34917 0.24141 0.79696
 C2538 C 0.37073 0.23155 0.78482
 C2539 C 0.38086 0.23643 0.75894
 C2540 C 0.40696 0.23790 0.77085
 H2541 H 0.37772 0.25823 0.85216
 H2542 H 0.33586 0.25608 0.83301
 H2543 H 0.37400 0.25477 0.75090
 H2544 H 0.37876 0.21980 0.74636
 H2545 H 0.41525 0.25708 0.76973
 H2546 H 0.41986 0.22211 0.76510
 C2547 C 0.89758 0.72781 0.30459
 C2548 C 0.90232 0.74217 0.32646
 C2549 C 0.88054 0.75181 0.33927
 C2550 C 0.85623 0.74998 0.32885
 C2551 C 0.85261 0.73881 0.30507
 C2552 C 0.87351 0.72654 0.29406
 C2553 C 0.88331 0.72795 0.26768
 C2554 C 0.90960 0.72929 0.27897
 H2555 H 0.88179 0.76079 0.35752
 H2556 H 0.84047 0.75855 0.33896
 H2557 H 0.87733 0.74565 0.25777
 H2558 H 0.88014 0.71022 0.25703
 H2559 H 0.91892 0.74771 0.27549
 H2560 H 0.92148 0.71229 0.27467
 C2561 C 0.10994 0.76067 0.29586
 C2562 C 0.10588 0.74955 0.31957
 C2563 C 0.12659 0.73671 0.33088
 C2564 C 0.15093 0.73789 0.32022
 C2565 C 0.15522 0.75185 0.29786
 C2566 C 0.13396 0.76174 0.28527
 C2567 C 0.12912 0.78760 0.27470
 C2568 C 0.10284 0.78644 0.28636
 H2569 H 0.12422 0.72632 0.34838
 H2570 H 0.16645 0.72843 0.32992
 H2571 H 0.12885 0.78756 0.25370
 H2572 H 0.14129 0.80217 0.28336
 H2573 H 0.08751 0.78587 0.27205
 H2574 H 0.09974 0.80029 0.30187
 C2575 C 0.60686 0.26286 0.79376
 C2576 C 0.60203 0.25131 0.81709
 C2577 C 0.62204 0.23726 0.82831
 C2578 C 0.64659 0.23762 0.81796
 C2579 C 0.65174 0.25201 0.79610
 C2580 C 0.63107 0.26321 0.78356
 C2581 C 0.62752 0.28957 0.77376
 C2582 C 0.60100 0.28916 0.78494
 H2583 H 0.61898 0.22661 0.84554
 H2584 H 0.66161 0.22730 0.82759
 H2585 H 0.62765 0.29031 0.75276
 H2586 H 0.64013 0.30330 0.78314
 H2587 H 0.58589 0.28966 0.77037
 H2588 H 0.59819 0.30264 0.80082
 C2589 C 0.62240 0.75974 0.67392
 C2590 C 0.60337 0.74269 0.68050
 C2591 C 0.61017 0.72312 0.69772
 C2592 C 0.63400 0.72279 0.70972
 C2593 C 0.65180 0.74164 0.70436
 C2594 C 0.64593 0.75906 0.68528
 C2595 C 0.64772 0.78720 0.68550
 C2596 C 0.62183 0.78805 0.67316
 H2597 H 0.59713 0.70828 0.70244
 H2598 H 0.63827 0.70812 0.72347
 H2599 H 0.66304 0.79403 0.67291
 H2600 H 0.64779 0.79512 0.70494
 H2601 H 0.62236 0.79565 0.65356
 H2602 H 0.60680 0.79638 0.68544
 C2603 C 0.11816 0.24074 0.16549
 C2604 C 0.09656 0.23865 0.18060
 C2605 C 0.09998 0.23418 0.20662
 C2606 C 0.12443 0.23415 0.21723
 C2607 C 0.14586 0.23919 0.20208
 C2608 C 0.14216 0.24134 0.17599
 C2609 C 0.15051 0.26134 0.15792
 C2610 C 0.12430 0.26048 0.14631
 H2611 H 0.08376 0.23136 0.21879
 H2612 H 0.12637 0.23140 0.23742
 H2613 H 0.16559 0.25438 0.14499
 H2614 H 0.15448 0.27960 0.16739
 H2615 H 0.12433 0.25280 0.12678
 H2616 H 0.11308 0.27828 0.14891
 C2617 C -0.04419 0.99713 0.85708
 C2618 C -0.06913 0.98996 0.85233
 C2619 C -0.08313 0.98266 0.87419
 C2620 C -0.07231 0.98312 0.89871
 C2621 C -0.04682 0.98983 0.90221
 C2622 C -0.03354 0.99621 0.88049
 C2623 C -0.00825 1.00419 0.87153
 C2624 C -0.01996 1.00494 0.84493
 H2625 H -0.10284 0.97771 0.87280
 H2626 H -0.08386 0.97812 0.91485
 H2627 H 0.00638 0.98903 0.87401
 H2628 H -0.00315 1.02313 0.87883
 H2629 H -0.01212 0.99014 0.83211
 H2630 H -0.02099 1.02438 0.83685
 C2631 C 0.41693 0.48977 0.37787
 C2632 C 0.43104 0.48787 0.35548
 C2633 C 0.45769 0.48883 0.35777
 C2634 C 0.46932 0.48924 0.38176
 C2635 C 0.45458 0.48916 0.40399
 C2636 C 0.42833 0.49061 0.40136
 C2637 C 0.40854 0.47466 0.41330
 C2638 C 0.39604 0.47361 0.38752
 H2639 H 0.46970 0.48916 0.34122
 H2640 H 0.48976 0.48953 0.38289
 H2641 H 0.39715 0.48536 0.42747
 H2642 H 0.41608 0.45601 0.41993
 H2643 H 0.37737 0.48358 0.38700
 H2644 H 0.39637 0.45436 0.37909
 C2645 C 0.57150 -0.01631 0.36472
 C2646 C 0.56361 -0.00029 0.34490
 C2647 C 0.54259 0.01603 0.35005
 C2648 C 0.53194 0.01757 0.37450
 C2649 C 0.54229 0.00332 0.39466
 C2650 C 0.56133 -0.01437 0.38881
 C2651 C 0.58623 -0.01923 0.40126
 C2652 C 0.59750 -0.02134 0.37495
 H2653 H 0.53411 0.02767 0.33540
 H2654 H 0.51620 0.03054 0.37775
 H2655 H 0.58665 -0.03745 0.41186
 H2656 H 0.59304 -0.00260 0.41194
 H2657 H 0.60456 -0.04078 0.37058
 H2658 H 0.61088 -0.00595 0.37034
 C2659 C 0.04951 0.52313 0.85670
 C2660 C 0.07161 0.50898 0.85144
 C2661 C 0.08472 0.49846 0.87236
 C2662 C 0.07470 0.49999 0.89692
 C2663 C 0.05109 0.51193 0.90142
 C2664 C 0.03966 0.52467 0.88105
 C2665 C 0.01299 0.52475 0.87207
 C2666 C 0.02357 0.52263 0.84544
 H2667 H 0.10223 0.48790 0.86968
 H2668 H 0.08485 0.49051 0.91209
 H2669 H 0.00314 0.54312 0.87570
 H2670 H 0.00256 0.50768 0.87824
 H2671 H 0.01942 0.53961 0.83360
 H2672 H 0.01905 0.50419 0.83663
 C2673 C 0.07741 0.50918 0.62615
 C2674 C 0.06537 0.50016 0.64792
 C2675 C 0.04014 0.49215 0.64534
 C2676 C 0.02864 0.49113 0.62131
 C2677 C 0.04212 0.49808 0.59935
 C2678 C 0.06614 0.50822 0.60262
 C2679 C 0.09054 0.50164 0.58979
 C2680 C 0.10292 0.50270 0.61563
 H2681 H 0.02938 0.48635 0.66172
 H2682 H 0.00946 0.48441 0.61993
 H2683 H 0.09678 0.51692 0.57680
 H2684 H 0.09064 0.48234 0.58147
 H2685 H 0.11632 0.51857 0.61748
 H2686 H 0.11023 0.48400 0.62237
 C2687 C 0.54776 0.98706 0.14266
 C2688 C 0.56835 1.00262 0.14772
 C2689 C 0.57517 1.02019 0.12882
 C2690 C 0.56400 1.01955 0.10478
 C2691 C 0.54549 1.00153 0.09909
 C2692 C 0.53652 0.98660 0.11897
 C2693 C 0.53279 0.95868 0.12021
 C2694 C 0.54510 0.95917 0.14614
 H2695 H 0.58972 1.03393 0.13224
 H2696 H 0.57040 1.03270 0.09047
 H2697 H 0.54418 0.94821 0.10585
 H2698 H 0.51243 0.95379 0.12088
 H2699 H 0.56367 0.94899 0.14687
 H2700 H 0.53182 0.95453 0.16173
 C2701 C 0.43752 0.47781 0.13891
 C2702 C 0.44217 0.49608 0.15727
 C2703 C 0.45923 0.51544 0.15112
 C2704 C 0.46901 0.51763 0.12641
 C2705 C 0.46130 0.50096 0.10724
 C2706 C 0.44663 0.48032 0.11447
 C2707 C 0.42301 0.47013 0.10327
 C2708 C 0.41305 0.46731 0.13009
 H2709 H 0.46412 0.52945 0.16508
 H2710 H 0.48140 0.53318 0.12201
 H2711 H 0.42640 0.45169 0.09370
 H2712 H 0.41234 0.48450 0.09194
 H2713 H 0.41078 0.44725 0.13598
 H2714 H 0.39661 0.48001 0.13432
 C2715 C -0.08776 -0.00242 0.62611
 C2716 C -0.07483 0.00422 0.64832
 C2717 C -0.05099 0.01571 0.64484
 C2718 C -0.03984 0.01758 0.62066
 C2719 C -0.05201 0.00784 0.59919
 C2720 C -0.07664 -0.00078 0.60242
 C2721 C -0.08844 -0.02454 0.59344
 C2722 C -0.10062 -0.02652 0.61934
 H2723 H -0.04057 0.02319 0.66059
 H2724 H -0.02120 0.02563 0.61905
 H2725 H -0.07430 -0.03989 0.58965
 H2726 H -0.10230 -0.02090 0.57803
 H2727 H -0.09357 -0.04301 0.63057
 H2728 H -0.12154 -0.02426 0.61865
 C2729 C -0.12492 0.91583 1.00837
 C2730 C -0.14657 0.92763 0.99801
 C2731 C -0.14392 0.95263 0.98890
 C2732 C -0.12006 0.96414 0.98811
 C2733 C -0.09820 0.95106 0.99668
 C2734 C -0.10158 0.92744 1.00808
 C2735 C -0.08735 0.90319 1.00440
 C2736 C -0.11281 0.89034 1.00411
 H2737 H -0.16011 0.96301 0.98148
 H2738 H -0.11874 0.98303 0.98026
 H2739 H -0.07568 0.89803 1.02115
 H2740 H -0.07723 0.90237 0.98597
 H2741 H -0.11558 0.87730 1.02038
 H2742 H -0.11698 0.88226 0.98524
 C2743 C 0.35707 0.44992 0.48607
 C2744 C 0.35236 0.42689 0.49836
 C2745 C 0.37362 0.41301 0.50737
 C2746 C 0.39805 0.42323 0.50647
 C2747 C 0.40195 0.44761 0.49640
 C2748 C 0.38121 0.45983 0.48495
 C2749 C 0.37171 0.48644 0.48722
 C2750 C 0.34528 0.47571 0.48887
 H2751 H 0.37127 0.39461 0.51608
 H2752 H 0.41362 0.41243 0.51462
 H2753 H 0.37497 0.49758 0.46970
 H2754 H 0.37789 0.49563 0.50499
 H2755 H 0.33318 0.48100 0.47246
 H2756 H 0.33655 0.47893 0.50773
 C2757 C 0.35558 0.54630 0.02377
 C2758 C 0.35119 0.57074 0.01421
 C2759 C 0.37257 0.58586 0.00991
 C2760 C 0.39718 0.57544 0.01156
 C2761 C 0.40110 0.54961 0.01759
 C2762 C 0.37990 0.53596 0.02531
 C2763 C 0.37120 0.51038 0.01765
 C2764 C 0.34460 0.52170 0.01600
 H2765 H 0.37030 0.60545 0.00417
 H2766 H 0.41299 0.58731 0.00673
 H2767 H 0.37342 0.49623 0.03313
 H2768 H 0.37898 0.50436 -0.00096
 H2769 H 0.33155 0.51407 0.03055
 H2770 H 0.33695 0.52225 -0.00355
 C2771 C -0.14853 0.04279 0.51413
 C2772 C -0.15256 0.06842 0.50823
 C2773 C -0.13106 0.08398 0.50768
 C2774 C -0.10652 0.07336 0.50898
 C2775 C -0.10288 0.04696 0.51121
 C2776 C -0.12431 0.03233 0.51559
 C2777 C -0.13227 0.00822 0.50360
 C2778 C -0.15880 0.01969 0.50199
 H2779 H -0.13305 0.10426 0.50518
 H2780 H -0.09049 0.08572 0.50703
 H2781 H -0.13087 -0.00809 0.51689
 H2782 H -0.12329 0.00507 0.48483
 H2783 H -0.17265 0.00995 0.51433
 H2784 H -0.16523 0.02323 0.48227
 C2785 C 0.64135 0.04574 0.47986
 C2786 C 0.64424 0.07073 0.48801
 C2787 C 0.62206 0.08593 0.48970
 C2788 C 0.59798 0.07522 0.48718
 C2789 C 0.59548 0.04908 0.48266
 C2790 C 0.61762 0.03518 0.47728
 C2791 C 0.62661 0.01011 0.48717
 C2792 C 0.65260 0.02167 0.48998
 H2793 H 0.62315 0.10588 0.49407
 H2794 H 0.58141 0.08716 0.49018
 H2795 H 0.62601 -0.00487 0.47250
 H2796 H 0.61771 0.00506 0.50554
 H2797 H 0.66694 0.01332 0.47693
 H2798 H 0.65879 0.02335 0.50996
 C2799 C 0.14497 0.54568 0.99249
 C2800 C 0.14751 0.57222 0.99243
 C2801 C 0.12483 0.58652 0.98812
 C2802 C 0.10105 0.57492 0.98767
 C2803 C 0.09905 0.54862 0.99080
 C2804 C 0.12146 0.53429 0.99149
 C2805 C 0.12903 0.51372 1.00938
 C2806 C 0.15468 0.52608 1.01078
 H2807 H 0.12483 0.60675 0.98536
 H2808 H 0.08418 0.58664 0.98551
 H2809 H 0.12966 0.49488 1.00010
 H2810 H 0.11830 0.51450 1.02747
 H2811 H 0.17003 0.51402 1.00259
 H2812 H 0.15888 0.53411 1.02967
 C2813 C 0.12844 0.42843 0.48239
 C2814 C 0.14876 0.43868 0.49565
 C2815 C 0.14380 0.46122 0.50926
 C2816 C 0.11888 0.47102 0.51160
 C2817 C 0.09831 0.45850 0.50048
 C2818 C 0.10405 0.43807 0.48465
 C2819 C 0.09274 0.41243 0.48319
 C2820 C 0.11953 0.40181 0.48080
 H2821 H 0.15893 0.47097 0.51865
 H2822 H 0.11570 0.48786 0.52284
 H2823 H 0.08132 0.41004 0.46579
 H2824 H 0.08324 0.40685 0.50102
 H2825 H 0.12344 0.39324 0.46202
 H2826 H 0.12555 0.39009 0.49729
 C2827 C 0.64421 0.95622 0.02144
 C2828 C 0.64855 0.93181 0.01195
 C2829 C 0.62710 0.91728 0.00642
 C2830 C 0.60269 0.92826 0.00683
 C2831 C 0.59905 0.95404 0.01293
 C2832 C 0.62009 0.96709 0.02183
 C2833 C 0.62977 0.99255 0.01475
 C2834 C 0.65616 0.98064 0.01437
 H2835 H 0.62922 0.89772 0.00064
 H2836 H 0.58694 0.91688 0.00098
 H2837 H 0.62702 1.00656 0.03017
 H2838 H 0.62314 0.99896 -0.00419
 H2839 H 0.66858 0.98778 0.02959
 H2840 H 0.66486 0.98015 -0.00478
 C2841 C -0.00128 0.87443 0.91727
 C2842 C -0.00209 0.85185 0.93154
 C2843 C -0.00158 0.85467 0.95825
 C2844 C -0.00237 0.87877 0.96954
 C2845 C -0.00341 0.90087 0.95465
 C2846 C -0.00168 0.89814 0.92852
 C2847 C -0.01835 0.90950 0.90870
 C2848 C -0.01824 0.88365 0.89637
 H2849 H -0.00040 0.83862 0.97088
 H2850 H -0.00228 0.88005 0.98996
 H2851 H -0.00847 0.92408 0.89734
 H2852 H -0.03722 0.91546 0.91614
 H2853 H -0.00864 0.88369 0.87767
 H2854 H -0.03704 0.87450 0.89667
 C2855 C 0.48847 0.35230 0.46032
 C2856 C 0.50273 0.34757 0.43845
 C2857 C 0.51933 0.36665 0.43037
 C2858 C 0.51870 0.39070 0.44166
 C2859 C 0.50159 0.39622 0.46144
 C2860 C 0.48794 0.37604 0.47157
 C2861 C 0.46044 0.37437 0.47768
 C2862 C 0.46102 0.34840 0.46536
 H2863 H 0.53195 0.36345 0.41453
 H2864 H 0.53085 0.40522 0.43414
 H2865 H 0.44873 0.38861 0.46722
 H2866 H 0.45694 0.37360 0.49838
 H2867 H 0.44966 0.34754 0.44773
 H2868 H 0.45785 0.33269 0.47898
 C2869 C 0.02471 0.36364 0.56169
 C2870 C 0.00212 0.35168 0.56868
 C2871 C -0.02024 0.36690 0.56768
 C2872 C -0.01988 0.39182 0.55801
 C2873 C 0.00259 0.40202 0.54832
 C2874 C 0.02487 0.38791 0.55158
 C2875 C 0.04566 0.38171 0.53353
 C2876 C 0.04546 0.35500 0.54431
 H2877 H -0.03811 0.35997 0.57458
 H2878 H -0.03741 0.40267 0.55707
 H2879 H 0.06319 0.39201 0.53816
 H2880 H 0.03959 0.38281 0.51345
 H2881 H 0.06313 0.34994 0.55463
 H2882 H 0.03909 0.34060 0.53055
 C2883 C 0.52739 0.86375 0.05583
 C2884 C 0.50750 0.85578 0.07123
 C2885 C 0.48931 0.87408 0.07867
 C2886 C 0.48984 0.89886 0.06869
 C2887 C 0.50826 0.90567 0.05063
 C2888 C 0.52752 0.88791 0.04543
 C2889 C 0.53791 0.87855 0.02088
 C2890 C 0.53782 0.85209 0.03231
 H2891 H 0.47449 0.86910 0.09186
 H2892 H 0.47506 0.91222 0.07410
 H2893 H 0.55727 0.88555 0.01720
 H2894 H 0.52437 0.88103 0.00498
 H2895 H 0.55712 0.84395 0.03521
 H2896 H 0.52424 0.83925 0.02305
 C2897 C 0.50820 0.62840 0.08804
 C2898 C 0.50165 0.65042 0.07444
 C2899 C 0.49610 0.64744 0.04853
 C2900 C 0.49475 0.62313 0.03772
 C2901 C 0.49914 0.60113 0.05245
 C2902 C 0.50712 0.60450 0.07734
 C2903 C 0.49746 0.59288 0.10115
 C2904 C 0.49859 0.61905 0.11288
 H2905 H 0.49249 0.66375 0.03657
 H2906 H 0.48992 0.62160 0.01792
 H2907 H 0.51129 0.57917 0.10949
 H2908 H 0.47788 0.58575 0.09922
 H2909 H 0.51303 0.62032 0.12804
 H2910 H 0.47967 0.62716 0.11776
 C2911 C -0.01956 0.14482 0.54656
 C2912 C -0.01524 0.14773 0.57250
 C2913 C -0.01586 0.12555 0.58756
 C2914 C -0.01661 0.10143 0.57637
 C2915 C -0.01724 0.09891 0.54988
 C2916 C -0.02062 0.12105 0.53556
 C2917 C -0.00712 0.12967 0.51235
 C2918 C -0.00594 0.15570 0.52440
 H2919 H -0.01457 0.12662 0.60792
 H2920 H -0.01545 0.08481 0.58839
 H2921 H -0.01944 0.12925 0.49537
 H2922 H 0.01176 0.12036 0.51002
 H2923 H -0.01755 0.17024 0.51430
 H2924 H 0.01362 0.16150 0.52910
 C2925 C 0.48626 0.12635 0.41250
 C2926 C 0.49322 0.14806 0.42567
 C2927 C 0.49964 0.14524 0.45134
 C2928 C 0.50205 0.12093 0.46230
 C2929 C 0.49770 0.09899 0.44784
 C2930 C 0.48817 0.10253 0.42341
 C2931 C 0.49559 0.09038 0.39904
 C2932 C 0.49353 0.11656 0.38702
 H2933 H 0.50405 0.16170 0.46254
 H2934 H 0.50793 0.11935 0.48184
 H2935 H 0.48100 0.07716 0.39218
 H2936 H 0.51523 0.08250 0.39935
 H2937 H 0.47776 0.11836 0.37324
 H2938 H 0.51203 0.12357 0.38021
 C2939 C 0.02339 0.62919 0.92217
 C2940 C 0.01170 0.65032 0.93377
 C2941 C 0.00227 0.64663 0.95857
 C2942 C 0.00229 0.62237 0.96974
 C2943 C 0.01086 0.60108 0.95611
 C2944 C 0.02261 0.60522 0.93289
 C2945 C 0.01924 0.59251 0.90809
 C2946 C 0.02004 0.61870 0.89616
 H2947 H -0.00527 0.66229 0.96949
 H2948 H -0.00571 0.62009 0.98846
 H2949 H 0.00051 0.58342 0.90628
 H2950 H 0.03579 0.58030 0.90301
 H2951 H 0.00181 0.62477 0.88741
 H2952 H 0.03701 0.62145 0.88409
 C2953 C 0.24011 0.70574 0.89533
 C2954 C 0.25152 0.68206 0.89998
 C2955 C 0.26506 0.67068 0.87987
 C2956 C 0.26435 0.68125 0.85542
 C2957 C 0.25010 0.70352 0.85043
 C2958 C 0.23939 0.71617 0.87118
 C2959 C 0.21316 0.72638 0.87487
 C2960 C 0.21398 0.71502 0.90131
 H2961 H 0.27556 0.65315 0.88279
 H2962 H 0.27428 0.67148 0.84034
 H2963 H 0.19921 0.71725 0.86229
 H2964 H 0.21248 0.74742 0.87480
 H2965 H 0.20047 0.69933 0.90410
 H2966 H 0.21384 0.72953 0.91645
 C2967 C 0.73526 0.20684 0.39542
 C2968 C 0.74753 0.18356 0.39995
 C2969 C 0.76195 0.17307 0.37998
 C2970 C 0.76118 0.18389 0.35566
 C2971 C 0.74601 0.20556 0.35066
 C2972 C 0.73452 0.21755 0.37139
 C2973 C 0.70790 0.22679 0.37481
 C2974 C 0.70873 0.21507 0.40111
 H2975 H 0.77312 0.15594 0.38286
 H2976 H 0.77175 0.17470 0.34064
 H2977 H 0.69446 0.21739 0.36187
 H2978 H 0.70650 0.24781 0.37505
 H2979 H 0.69578 0.19885 0.40346
 H2980 H 0.70782 0.22935 0.41646
 C2981 C 0.26504 0.29838 0.38953
 C2982 C 0.25292 0.32178 0.39392
 C2983 C 0.24414 0.33534 0.37249
 C2984 C 0.24504 0.32451 0.34823
 C2985 C 0.25489 0.29982 0.34462
 C2986 C 0.26619 0.28787 0.36552
 C2987 C 0.26380 0.26153 0.37531
 C2988 C 0.26210 0.27292 0.40159
 H2989 H 0.23548 0.35393 0.37457
 H2990 H 0.23696 0.33511 0.33257
 H2991 H 0.28134 0.25007 0.37222
 H2992 H 0.24601 0.25247 0.36917
 H2993 H 0.27846 0.26766 0.41379
 H2994 H 0.24318 0.27022 0.41027
 C2995 C 0.75025 0.83304 0.87954
 C2996 C 0.75760 0.82003 0.90149
 C2997 C 0.76857 0.79566 0.89839
 C2998 C 0.76917 0.78398 0.87442
 C2999 C 0.75868 0.79640 0.85309
 C3000 C 0.75067 0.82158 0.85611
 C3001 C 0.72682 0.83477 0.84802
 C3002 C 0.72637 0.84739 0.87378
 H3003 H 0.77606 0.78531 0.91448
 H3004 H 0.77678 0.76489 0.87288
 H3005 H 0.71095 0.82153 0.84518
 H3006 H 0.73006 0.84827 0.83221
 H3007 H 0.71028 0.84147 0.88588
 H3008 H 0.72936 0.86815 0.87276
 C3009 C 0.76051 0.83066 0.12463
 C3010 C 0.75427 0.81623 0.10351
 C3011 C 0.75171 0.78996 0.10688
 C3012 C 0.75204 0.77930 0.13135
 C3013 C 0.75541 0.79470 0.15283
 C3014 C 0.76126 0.82012 0.14864
 C3015 C 0.75067 0.84360 0.16051
 C3016 C 0.74983 0.85517 0.13414
 H3017 H 0.74817 0.77794 0.09078
 H3018 H 0.74882 0.75921 0.13347
 H3019 H 0.76456 0.85274 0.17313
 H3020 H 0.73163 0.84077 0.16894
 H3021 H 0.76323 0.87099 0.13162
 H3022 H 0.73026 0.85915 0.12743
 C3023 C 0.25020 0.33360 0.61862
 C3024 C 0.24635 0.31862 0.59725
 C3025 C 0.24638 0.29218 0.60057
 C3026 C 0.24687 0.28155 0.62503
 C3027 C 0.24796 0.29716 0.64661
 C3028 C 0.25124 0.32310 0.64268
 C3029 C 0.23777 0.34525 0.65421
 C3030 C 0.23654 0.35677 0.62783
 H3031 H 0.24493 0.27984 0.58437
 H3032 H 0.24581 0.26118 0.62701
 H3033 H 0.25011 0.35584 0.66729
 H3034 H 0.21893 0.34031 0.66202
 H3035 H 0.24812 0.37403 0.62578
 H3036 H 0.21691 0.35856 0.62051
 C3037 C 0.74602 0.16789 0.62308
 C3038 C 0.75203 0.18162 0.60128
 C3039 C 0.75714 0.20755 0.60408
 C3040 C 0.75913 0.21831 0.62838
 C3041 C 0.75560 0.20340 0.65032
 C3042 C 0.74749 0.17856 0.64687
 C3043 C 0.75649 0.15435 0.65865
 C3044 C 0.75493 0.14259 0.63250
 H3045 H 0.76064 0.21919 0.58758
 H3046 H 0.76387 0.23810 0.62993
 H3047 H 0.74246 0.14662 0.67220
 H3048 H 0.77613 0.15547 0.66600
 H3049 H 0.74005 0.12807 0.63105
 H3050 H 0.77375 0.13680 0.62492
 C3051 C 0.27056 0.70292 0.10710
 C3052 C 0.26111 0.67858 0.10355
 C3053 C 0.25646 0.66396 0.12541
 C3054 C 0.25782 0.67478 0.14961
 C3055 C 0.26389 0.70052 0.15258
 C3056 C 0.27183 0.71364 0.13098
 C3057 C 0.26418 0.73920 0.12125
 C3058 C 0.26283 0.72745 0.09511
 H3059 H 0.25076 0.64444 0.12383
 H3060 H 0.25289 0.66328 0.16581
 H3061 H 0.27962 0.75310 0.12308
 H3062 H 0.24546 0.74568 0.12861
 H3063 H 0.27750 0.73457 0.08192
 H3064 H 0.24333 0.72711 0.08729
 C3065 C 0.16852 0.62420 0.75591
 C3066 C 0.18248 0.60167 0.75213
 C3067 C 0.20864 0.60413 0.74695
 C3068 C 0.22028 0.62793 0.74808
 C3069 C 0.20597 0.64988 0.75375
 C3070 C 0.17987 0.64762 0.75632
 C3071 C 0.16312 0.65716 0.77702
 C3072 C 0.15071 0.63145 0.77678
 H3073 H 0.22035 0.58788 0.74219
 H3074 H 0.24040 0.62917 0.74449
 H3075 H 0.15037 0.67281 0.77053
 H3076 H 0.17362 0.66099 0.79474
 H3077 H 0.13070 0.63249 0.77043
 H3078 H 0.15406 0.62026 0.79433
 C3079 C 0.70190 0.10612 0.26455
 C3080 C 0.67628 0.10287 0.25826
 C3081 C 0.66131 0.12539 0.25633
 C3082 C 0.67234 0.14944 0.25703
 C3083 C 0.69862 0.15192 0.25994
 C3084 C 0.71270 0.12994 0.26535
 C3085 C 0.73700 0.12072 0.25411
 C3086 C 0.72533 0.09468 0.25306
 H3087 H 0.64104 0.12489 0.25399
 H3088 H 0.66030 0.16603 0.25439
 H3089 H 0.75295 0.12183 0.26769
 H3090 H 0.74070 0.12903 0.23514
 H3091 H 0.73484 0.08082 0.26590
 H3092 H 0.72224 0.08784 0.23348
 C3093 C 0.79863 0.10531 0.73396
 C3094 C 0.82239 0.10049 0.74481
 C3095 C 0.83726 0.12175 0.75042
 C3096 C 0.82704 0.14651 0.74860
 C3097 C 0.80174 0.15065 0.74098
 C3098 C 0.78857 0.12967 0.73216
 C3099 C 0.76246 0.12100 0.73800
 C3100 C 0.77349 0.09430 0.73996
 H3101 H 0.85649 0.11934 0.75705
 H3102 H 0.83857 0.16221 0.75436
 H3103 H 0.74948 0.12365 0.72167
 H3104 H 0.75518 0.12842 0.75630
 H3105 H 0.76682 0.08161 0.72475
 H3106 H 0.77262 0.08624 0.75938
 C3107 C 0.33866 0.62085 0.25680
 C3108 C 0.32407 0.59917 0.25342
 C3109 C 0.29762 0.60291 0.25136
 C3110 C 0.28697 0.62749 0.24983
 C3111 C 0.30242 0.64899 0.25068
 C3112 C 0.32812 0.64505 0.25566
 C3113 C 0.35063 0.65545 0.24239
 C3114 C 0.36219 0.62894 0.24355
 H3115 H 0.28507 0.58698 0.25046
 H3116 H 0.26669 0.62960 0.24756
 H3117 H 0.36081 0.66930 0.25422
 H3118 H 0.34628 0.66198 0.22285
 H3119 H 0.37909 0.62762 0.25596
 H3120 H 0.36451 0.62000 0.22468
 C3121 C 0.32119 0.37812 0.23293
 C3122 C 0.31101 0.39867 0.24636
 C3123 C 0.28787 0.39492 0.25914
 C3124 C 0.27704 0.37067 0.26037
 C3125 C 0.28927 0.34958 0.24910
 C3126 C 0.31070 0.35429 0.23434
 C3127 C 0.33605 0.34138 0.23414
 C3128 C 0.34754 0.36754 0.23255
 H3129 H 0.27850 0.41050 0.26878
 H3130 H 0.25966 0.36834 0.27092
 H3131 H 0.33913 0.32998 0.21677
 H3132 H 0.34032 0.33130 0.25216
 H3133 H 0.35721 0.37117 0.21425
 H3134 H 0.35850 0.37266 0.24964
 C3135 C 0.79189 0.89275 0.76740
 C3136 C 0.81791 0.89558 0.76344
 C3137 C 0.83325 0.87344 0.76513
 C3138 C 0.82235 0.84935 0.76648
 C3139 C 0.79587 0.84683 0.76668
 C3140 C 0.78115 0.86898 0.76905
 C3141 C 0.75813 0.87741 0.75485
 C3142 C 0.76990 0.90343 0.75302
 H3143 H 0.85365 0.87452 0.76426
 H3144 H 0.83462 0.83274 0.76613
 H3145 H 0.74086 0.87714 0.76686
 H3146 H 0.75635 0.86783 0.73628
 H3147 H 0.75935 0.91812 0.76394
 H3148 H 0.77499 0.90897 0.73338
 C3149 C 0.68819 0.88539 0.26930
 C3150 C 0.69310 0.90286 0.25008
 C3151 C 0.71079 0.89582 0.23129
 C3152 C 0.72119 0.87106 0.23072
 C3153 C 0.71342 0.85270 0.24845
 C3154 C 0.69788 0.86087 0.26836
 C3155 C 0.67408 0.85001 0.27870
 C3156 C 0.66351 0.87693 0.27981
 H3157 H 0.71580 0.90911 0.21655
 H3158 H 0.73417 0.86595 0.21565
 H3159 H 0.67694 0.84133 0.29767
 H3160 H 0.66419 0.83793 0.26482
 H3161 H 0.66036 0.88377 0.29942
 H3162 H 0.64747 0.88045 0.26662
 C3163 C 0.17062 0.37869 0.75357
 C3164 C 0.18240 0.40006 0.74358
 C3165 C 0.20700 0.39665 0.73353
 C3166 C 0.21815 0.37223 0.73182
 C3167 C 0.20489 0.35070 0.74004
 C3168 C 0.18151 0.35477 0.75186
 C3169 C 0.15665 0.34269 0.74707
 C3170 C 0.14468 0.36897 0.74897
 H3171 H 0.21756 0.41271 0.72678
 H3172 H 0.23691 0.37024 0.72375
 H3173 H 0.15106 0.32988 0.76276
 H3174 H 0.15541 0.33436 0.72785
 H3175 H 0.13220 0.37127 0.76576
 H3176 H 0.13647 0.37595 0.73085
 C3177 C 0.10613 0.73871 0.79300
 C3178 C 0.10276 0.74263 0.81897
 C3179 C 0.12469 0.74132 0.83424
 C3180 C 0.14895 0.74026 0.82329
 C3181 C 0.15191 0.73995 0.79684
 C3182 C 0.13009 0.73730 0.78222
 C3183 C 0.12172 0.75143 0.75916
 C3184 C 0.09549 0.75300 0.77097
 H3185 H 0.12330 0.74213 0.85461
 H3186 H 0.16533 0.74077 0.83552
 H3187 H 0.12255 0.73940 0.74199
 H3188 H 0.13089 0.77014 0.75723
 H3189 H 0.08124 0.74190 0.76054
 H3190 H 0.08943 0.77262 0.77594
 C3191 C 0.60244 0.23631 0.29739
 C3192 C 0.59729 0.25115 0.31881
 C3193 C 0.61824 0.26188 0.33112
 C3194 C 0.64281 0.25946 0.32114
 C3195 C 0.64726 0.24645 0.29833
 C3196 C 0.62678 0.23399 0.28752
 C3197 C 0.61772 0.23388 0.26091
 C3198 C 0.59113 0.23684 0.27148
 H3199 H 0.61564 0.27304 0.34805
 H3200 H 0.65807 0.26883 0.33076
 H3201 H 0.62123 0.21529 0.25165
 H3202 H 0.62401 0.25064 0.24993
 H3203 H 0.57915 0.22014 0.26791
 H3204 H 0.58233 0.25546 0.26651
 C3205 C 0.61165 0.76745 0.20706
 C3206 C 0.60672 0.75170 0.18646
 C3207 C 0.62633 0.73503 0.17864
 C3208 C 0.65073 0.73675 0.18886
 C3209 C 0.65612 0.75499 0.20737
 C3210 C 0.63573 0.76895 0.21735
 C3211 C 0.63300 0.79678 0.22160
 C3212 C 0.60665 0.79513 0.21032
 H3213 H 0.62313 0.72121 0.16400
 H3214 H 0.66547 0.72417 0.18178
 H3215 H 0.64628 0.80796 0.20986
 H3216 H 0.63283 0.80157 0.24204
 H3217 H 0.60461 0.80532 0.19199
 H3218 H 0.59133 0.79898 0.22427
 C3219 C 0.10820 0.26758 0.69894
 C3220 C 0.10470 0.25970 0.67381
 C3221 C 0.12703 0.25712 0.65896
 C3222 C 0.15122 0.25853 0.66989
 C3223 C 0.15399 0.26283 0.69594
 C3224 C 0.13212 0.26904 0.70963
 C3225 C 0.12336 0.25939 0.73461
 C3226 C 0.09720 0.25764 0.72306
 H3227 H 0.12630 0.25362 0.63889
 H3228 H 0.16767 0.25511 0.65809
 H3229 H 0.12455 0.27401 0.74959
 H3230 H 0.13188 0.24064 0.73955
 H3231 H 0.08336 0.27112 0.73170
 H3232 H 0.09053 0.23787 0.72130
 C3233 C 0.89569 0.23014 0.70262
 C3234 C 0.90071 0.24439 0.68086
 C3235 C 0.87969 0.25406 0.66730
 C3236 C 0.85501 0.25222 0.67714
 C3237 C 0.85071 0.24083 0.70092
 C3238 C 0.87140 0.22862 0.71252
 C3239 C 0.88075 0.22969 0.73908
 C3240 C 0.90735 0.23131 0.72823
 H3241 H 0.88236 0.26377 0.64946
 H3242 H 0.83956 0.26098 0.66672
 H3243 H 0.87740 0.21175 0.74953
 H3244 H 0.87447 0.24720 0.74902
 H3245 H 0.91928 0.21429 0.73241
 H3246 H 0.91649 0.24974 0.73189
 C3247 C 0.39972 0.73253 0.20484
 C3248 C 0.40453 0.74672 0.18299
 C3249 C 0.38339 0.75625 0.16953
 C3250 C 0.35880 0.75436 0.17954
 C3251 C 0.35471 0.74298 0.20337
 C3252 C 0.37550 0.73089 0.21488
 C3253 C 0.38498 0.73216 0.24138
 C3254 C 0.41150 0.73391 0.23038
 H3255 H 0.38589 0.76589 0.15162
 H3256 H 0.34324 0.76294 0.16915
 H3257 H 0.38182 0.71426 0.25194
 H3258 H 0.37862 0.74968 0.25126
 H3259 H 0.42357 0.71698 0.23458
 H3260 H 0.42054 0.75242 0.23390
 C3261 C 0.38967 0.26699 0.29139
 C3262 C 0.39319 0.26093 0.31694
 C3263 C 0.37138 0.25881 0.33213
 C3264 C 0.34712 0.25913 0.32122
 C3265 C 0.34411 0.26209 0.29487
 C3266 C 0.36572 0.26776 0.28070
 C3267 C 0.37509 0.25724 0.25624
 C3268 C 0.40135 0.25626 0.26796
 H3269 H 0.37316 0.25560 0.35228
 H3270 H 0.33089 0.25600 0.33328
 H3271 H 0.37331 0.27123 0.24056
 H3272 H 0.36740 0.23823 0.25216
 H3273 H 0.41470 0.26960 0.25892
 H3274 H 0.40872 0.23660 0.27044
 C3275 C 0.87859 0.73747 0.83313
 C3276 C 0.89919 0.74833 0.82067
 C3277 C 0.89476 0.75884 0.79651
 C3278 C 0.87008 0.76056 0.78664
 C3279 C 0.84918 0.75188 0.80071
 C3280 C 0.85427 0.73918 0.82343
 C3281 C 0.84283 0.74290 0.84898
 C3282 C 0.86948 0.74098 0.85962
 H3283 H 0.91023 0.76618 0.78540
 H3284 H 0.86740 0.76921 0.76824
 H3285 H 0.83077 0.72678 0.85463
 H3286 H 0.83389 0.76196 0.85128
 H3287 H 0.87275 0.72376 0.87138
 H3288 H 0.87605 0.75893 0.86812
   
