data_POSCAR
  _audit_creation_date              2014-09-24
  _audit_creation_method            'ToBaCCo'
  _symmetry_space_group_name_H-M    'P1'
  _symmetry_Int_Tables_number       1
  _symmetry_cell_setting            triclinic
  loop_
  _symmetry_equiv_pos_as_xyz
 x,y,z
_cell_length_a 98.2881
_cell_length_b 92.0234
_cell_length_c 97.5758
_cell_angle_alpha 90.037300
_cell_angle_beta 89.906200
_cell_angle_gamma 89.983300
loop_
  _atom_site_label
  _atom_site_type_symbol
  _atom_site_fract_x
  _atom_site_fract_y
  _atom_site_fract_z
C1 C 0.35030 0.34570 0.33089
 C2 C 0.36194 0.33990 0.32460
 C3 C 0.36836 0.32746 0.32995
 C4 C 0.36305 0.32101 0.34190
 C5 C 0.35152 0.32681 0.34841
 C6 C 0.34509 0.33918 0.34286
 C7 C 0.34371 0.35784 0.32528
 C8 C 0.33199 0.36367 0.33152
 C9 C 0.32699 0.35718 0.34358
 C10 C 0.33339 0.34495 0.34921
 C11 C 0.32815 0.33830 0.36102
 C12 C 0.33447 0.32595 0.36667
 C13 C 0.34622 0.32033 0.36029
 H14 H 0.36603 0.34517 0.31557
 H15 H 0.36770 0.31127 0.34601
 H16 H 0.34756 0.36252 0.31585
 H17 H 0.31813 0.36169 0.34865
 H18 H 0.31894 0.34257 0.36563
 H19 H 0.35131 0.31097 0.36463
 C20 C 0.35027 0.85045 -0.16698
 C21 C 0.36265 0.84512 -0.17214
 C22 C 0.36943 0.83330 -0.16585
 C23 C 0.36349 0.82725 -0.15392
 C24 C 0.35107 0.83240 -0.14875
 C25 C 0.34441 0.84400 -0.15534
 C26 C 0.34362 0.86208 -0.17345
 C27 C 0.33100 0.86743 -0.16857
 C28 C 0.32524 0.86061 -0.15693
 C29 C 0.33184 0.84908 -0.15031
 C30 C 0.32593 0.84240 -0.13883
 C31 C 0.33252 0.83085 -0.13213
 C32 C 0.34518 0.82602 -0.13712
 H33 H 0.36650 0.84982 -0.18153
 H34 H 0.36859 0.81872 -0.14831
 H35 H 0.34872 0.86724 -0.18200
 H36 H 0.31531 0.86378 -0.15318
 H37 H 0.31607 0.84607 -0.13524
 H38 H 0.35047 0.81727 -0.13194
 C39 C 0.85001 0.34685 -0.16461
 C40 C 0.86221 0.34124 -0.16992
 C41 C 0.86889 0.32935 -0.16366
 C42 C 0.86303 0.32346 -0.15162
 C43 C 0.85081 0.32894 -0.14625
 C44 C 0.84425 0.34063 -0.15280
 C45 C 0.84345 0.35852 -0.17108
 C46 C 0.83099 0.36415 -0.16606
 C47 C 0.82533 0.35760 -0.15423
 C48 C 0.83187 0.34602 -0.14760
 C49 C 0.82606 0.33962 -0.13593
 C50 C 0.83257 0.32803 -0.12922
 C51 C 0.84502 0.32283 -0.13442
 H52 H 0.86597 0.34579 -0.17941
 H53 H 0.86807 0.31482 -0.14608
 H54 H 0.84849 0.36349 -0.17975
 H55 H 0.81553 0.36101 -0.15034
 H56 H 0.81634 0.34355 -0.13221
 H57 H 0.85023 0.31403 -0.12925
 C58 C 0.85086 0.84203 0.33508
 C59 C 0.86267 0.83613 0.32919
 C60 C 0.86973 0.82473 0.33565
 C61 C 0.86478 0.81928 0.34818
 C62 C 0.85285 0.82489 0.35405
 C63 C 0.84587 0.83632 0.34748
 C64 C 0.84389 0.85342 0.32860
 C65 C 0.83191 0.85945 0.33434
 C66 C 0.82704 0.85344 0.34677
 C67 C 0.83385 0.84196 0.35326
 C68 C 0.82873 0.83596 0.36544
 C69 C 0.83551 0.82444 0.37201
 C70 C 0.84769 0.81911 0.36630
 H71 H 0.86622 0.84026 0.31942
 H72 H 0.87022 0.81065 0.35338
 H73 H 0.84767 0.85709 0.31878
 H74 H 0.81822 0.85797 0.35186
 H75 H 0.81923 0.84003 0.36959
 H76 H 0.85316 0.81042 0.37137
 C77 C 0.65032 0.65467 0.33269
 C78 C 0.63863 0.66076 0.32679
 C79 C 0.63152 0.67204 0.33342
 C80 C 0.63632 0.67720 0.34611
 C81 C 0.64813 0.67139 0.35202
 C82 C 0.65513 0.66004 0.34532
 C83 C 0.65734 0.64340 0.32608
 C84 C 0.66904 0.63721 0.33198
 C85 C 0.67380 0.64270 0.34457
 C86 C 0.66700 0.65413 0.35120
 C87 C 0.67198 0.65984 0.36354
 C88 C 0.66521 0.67134 0.37020
 C89 C 0.65314 0.67687 0.36444
 H90 H 0.63521 0.65685 0.31690
 H91 H 0.63086 0.68575 0.35142
 H92 H 0.65374 0.63954 0.31623
 H93 H 0.68270 0.63796 0.34933
 H94 H 0.68137 0.65559 0.36774
 H95 H 0.64766 0.68552 0.36960
 C96 C 0.64916 0.15431 -0.16735
 C97 C 0.63743 0.16039 -0.17319
 C98 C 0.63116 0.17267 -0.16732
 C99 C 0.63666 0.17862 -0.15525
 C100 C 0.64827 0.17252 -0.14917
 C101 C 0.65459 0.16038 -0.15531
 C102 C 0.65563 0.14240 -0.17356
 C103 C 0.66761 0.13628 -0.16794
 C104 C 0.67274 0.14244 -0.15570
 C105 C 0.66640 0.15439 -0.14946
 C106 C 0.67181 0.16051 -0.13749
 C107 C 0.66556 0.17256 -0.13120
 C108 C 0.65374 0.17847 -0.13713
 H109 H 0.63316 0.15546 -0.18231
 H110 H 0.63212 0.18822 -0.15071
 H111 H 0.65157 0.13850 -0.18317
 H112 H 0.68146 0.13775 -0.15060
 H113 H 0.68109 0.15607 -0.13324
 H114 H 0.64872 0.18764 -0.13233
 C115 C 0.14971 0.65256 -0.17054
 C116 C 0.13751 0.65816 -0.17581
 C117 C 0.13066 0.66960 -0.16912
 C118 C 0.13611 0.67521 -0.15689
 C119 C 0.14838 0.66985 -0.15160
 C120 C 0.15523 0.65851 -0.15848
 C121 C 0.15647 0.64114 -0.17722
 C122 C 0.16891 0.63551 -0.17218
 C123 C 0.17439 0.64190 -0.16019
 C124 C 0.16765 0.65321 -0.15334
 C125 C 0.17326 0.65944 -0.14149
 C126 C 0.16651 0.67075 -0.13454
 C127 C 0.15398 0.67578 -0.13963
 H128 H 0.13354 0.65386 -0.18533
 H129 H 0.13082 0.68381 -0.15146
 H130 H 0.15159 0.63635 -0.18606
 H131 H 0.18420 0.63855 -0.15630
 H132 H 0.18302 0.65561 -0.13781
 H133 H 0.14855 0.68433 -0.13427
 C134 C 0.14971 0.15043 0.32943
 C135 C 0.13756 0.15587 0.32390
 C136 C 0.13115 0.16835 0.32942
 C137 C 0.13714 0.17490 0.34108
 C138 C 0.14918 0.16942 0.34682
 C139 C 0.15555 0.15723 0.34088
 C140 C 0.15605 0.13823 0.32360
 C141 C 0.16847 0.13275 0.32881
 C142 C 0.17418 0.13983 0.34033
 C143 C 0.16780 0.15188 0.34638
 C144 C 0.17362 0.15876 0.35779
 C145 C 0.16725 0.17081 0.36395
 C146 C 0.15503 0.17608 0.35834
 H147 H 0.13302 0.14998 0.31547
 H148 H 0.13294 0.18474 0.34545
 H149 H 0.15093 0.13283 0.31522
 H150 H 0.18392 0.13648 0.34439
 H151 H 0.18319 0.15478 0.36181
 H152 H 0.14993 0.18526 0.36306
 C153 C 0.65065 0.34764 0.66665
 C154 C 0.63851 0.34181 0.67186
 C155 C 0.63192 0.33027 0.66511
 C156 C 0.63752 0.32482 0.65285
 C157 C 0.64976 0.33040 0.64764
 C158 C 0.65641 0.34178 0.65461
 C159 C 0.65723 0.35911 0.67342
 C160 C 0.66961 0.36462 0.66843
 C161 C 0.67543 0.35855 0.65658
 C162 C 0.66887 0.34722 0.64959
 C163 C 0.67464 0.34118 0.63772
 C164 C 0.66806 0.32984 0.63067
 C165 C 0.65554 0.32461 0.63567
 H166 H 0.63443 0.34601 0.68139
 H167 H 0.63240 0.31616 0.64738
 H168 H 0.65283 0.36363 0.68269
 H169 H 0.68497 0.36281 0.65269
 H170 H 0.68439 0.34515 0.63412
 H171 H 0.65027 0.31603 0.63024
 C172 C 0.64711 0.84712 1.16677
 C173 C 0.63530 0.84103 1.17245
 C174 C 0.62821 0.82968 1.16575
 C175 C 0.63337 0.82471 1.15303
 C176 C 0.64526 0.83062 1.14732
 C177 C 0.65214 0.84188 1.15420
 C178 C 0.65410 0.85823 1.17366
 C179 C 0.66600 0.86434 1.16805
 C180 C 0.67091 0.85904 1.15545
 C181 C 0.66414 0.84779 1.14857
 C182 C 0.66932 0.84222 1.13624
 C183 C 0.66263 0.83085 1.12935
 C184 C 0.65046 0.82529 1.13489
 H185 H 0.63213 0.84481 1.18246
 H186 H 0.62803 0.81650 1.14722
 H187 H 0.65037 0.86197 1.18350
 H188 H 0.67996 0.86375 1.15090
 H189 H 0.67881 0.84647 1.13225
 H190 H 0.64506 0.81672 1.12956
 C191 C 0.14917 0.34894 1.16782
 C192 C 0.13688 0.34364 1.17313
 C193 C 0.13046 0.33124 1.16749
 C194 C 0.13656 0.32471 1.15585
 C195 C 0.14877 0.33005 1.15032
 C196 C 0.15520 0.34208 1.15644
 C197 C 0.15557 0.36099 1.17383
 C198 C 0.16815 0.36606 1.16887
 C199 C 0.17414 0.35906 1.15753
 C200 C 0.16769 0.34722 1.15123
 C201 C 0.17362 0.34036 1.13986
 C202 C 0.16717 0.32850 1.13348
 C203 C 0.15475 0.32340 1.13884
 H204 H 0.13225 0.34955 1.18151
 H205 H 0.13234 0.31496 1.15136
 H206 H 0.15071 0.36642 1.18239
 H207 H 0.18393 0.36268 1.15372
 H208 H 0.18334 0.34419 1.13605
 H209 H 0.14961 0.31436 1.13396
 C210 C 0.14874 0.84964 0.66884
 C211 C 0.13647 0.84418 0.67408
 C212 C 0.13018 0.83173 0.66834
 C213 C 0.13644 0.82528 0.65675
 C214 C 0.14863 0.83075 0.65131
 C215 C 0.15490 0.84284 0.65748
 C216 C 0.15501 0.86175 0.67488
 C217 C 0.16754 0.86691 0.66992
 C218 C 0.17367 0.86001 0.65865
 C219 C 0.16739 0.84808 0.65233
 C220 C 0.17344 0.84129 0.64100
 C221 C 0.16714 0.82936 0.63459
 C222 C 0.15473 0.82415 0.63987
 H223 H 0.13175 0.85001 0.68246
 H224 H 0.13234 0.81549 0.65222
 H225 H 0.15034 0.86696 0.68368
 H226 H 0.18328 0.86405 0.65471
 H227 H 0.18315 0.84522 0.63726
 H228 H 0.14970 0.81506 0.63496
 C229 C 0.35078 0.65405 0.66842
 C230 C 0.36180 0.66066 0.67510
 C231 C 0.36752 0.67363 0.67005
 C232 C 0.36196 0.67997 0.65818
 C233 C 0.35110 0.67337 0.65127
 C234 C 0.34554 0.66030 0.65635
 C235 C 0.34481 0.64140 0.67374
 C236 C 0.33372 0.63477 0.66708
 C237 C 0.32892 0.64080 0.65474
 C238 C 0.33465 0.65356 0.64942
 C239 C 0.32948 0.65985 0.63742
 C240 C 0.33482 0.67299 0.63245
 C241 C 0.34562 0.67970 0.63943
 H242 H 0.36602 0.65556 0.68415
 H243 H 0.36600 0.69015 0.65436
 H244 H 0.34854 0.63699 0.68332
 H245 H 0.32062 0.63563 0.64930
 H246 H 0.32103 0.65476 0.63214
 H247 H 0.34980 0.68979 0.63555
 C248 C 0.35092 0.15124 1.16680
 C249 C 0.36313 0.15653 1.17231
 C250 C 0.36957 0.16905 1.16693
 C251 C 0.36359 0.17573 1.15534
 C252 C 0.35149 0.17039 1.14960
 C253 C 0.34506 0.15820 1.15545
 C254 C 0.34451 0.13907 1.17257
 C255 C 0.33200 0.13378 1.16742
 C256 C 0.32628 0.14099 1.15598
 C257 C 0.33273 0.15302 1.14998
 C258 C 0.32690 0.16006 1.13868
 C259 C 0.33332 0.17213 1.13261
 C260 C 0.34563 0.17722 1.13818
 H261 H 0.36767 0.15052 1.18066
 H262 H 0.36782 0.18558 1.15106
 H263 H 0.34963 0.13355 1.18088
 H264 H 0.31649 0.13777 1.15195
 H265 H 0.31727 0.15623 1.13469
 H266 H 0.35075 0.18641 1.13353
 C267 C 0.85083 0.65421 1.16551
 C268 C 0.86283 0.66011 1.17091
 C269 C 0.86847 0.67293 1.16547
 C270 C 0.86222 0.67944 1.15404
 C271 C 0.85037 0.67347 1.14833
 C272 C 0.84456 0.66091 1.15421
 C273 C 0.84496 0.64179 1.17139
 C274 C 0.83259 0.63598 1.16641
 C275 C 0.82651 0.64286 1.15498
 C276 C 0.83242 0.65514 1.14887
 C277 C 0.82619 0.66188 1.13762
 C278 C 0.83201 0.67424 1.13148
 C279 C 0.84412 0.67998 1.13696
 H280 H 0.86771 0.65476 1.17948
 H281 H 0.86633 0.68940 1.14980
 H282 H 0.85037 0.63656 1.17967
 H283 H 0.81680 0.63922 1.15108
 H284 H 0.81668 0.65758 1.13375
 H285 H 0.84879 0.68942 1.13228
 C286 C 0.85060 0.15784 0.66614
 C287 C 0.86272 0.16338 0.67164
 C288 C 0.86953 0.17504 0.66529
 C289 C 0.86415 0.18092 0.65314
 C290 C 0.85196 0.17561 0.64761
 C291 C 0.84511 0.16409 0.65418
 C292 C 0.84383 0.14623 0.67250
 C293 C 0.83147 0.14091 0.66722
 C294 C 0.82594 0.14743 0.65542
 C295 C 0.83272 0.15889 0.64883
 C296 C 0.82722 0.16529 0.63704
 C297 C 0.83403 0.17673 0.63034
 C298 C 0.84646 0.18175 0.63569
 H299 H 0.86664 0.15884 0.68109
 H300 H 0.86944 0.18969 0.64797
 H301 H 0.84831 0.14123 0.68147
 H302 H 0.81628 0.14370 0.65142
 H303 H 0.81751 0.16149 0.63319
 H304 H 0.85191 0.19041 0.63054
 C305 C 0.34905 0.34334 0.66564
 C306 C 0.34235 0.35513 0.67176
 C307 C 0.33008 0.36040 0.66631
 C308 C 0.32450 0.35374 0.65464
 C309 C 0.33121 0.34208 0.64827
 C310 C 0.34356 0.33687 0.65375
 C311 C 0.36108 0.33782 0.67129
 C312 C 0.36781 0.32601 0.66517
 C313 C 0.36251 0.31986 0.65311
 C314 C 0.35037 0.32515 0.64741
 C315 C 0.34486 0.31881 0.63558
 C316 C 0.33250 0.32387 0.63007
 C317 C 0.32574 0.33551 0.63654
 H318 H 0.34656 0.36010 0.68089
 H319 H 0.31506 0.35782 0.65040
 H320 H 0.36525 0.34272 0.68048
 H321 H 0.36764 0.31070 0.64840
 H322 H 0.35025 0.30999 0.63061
 H323 H 0.31610 0.33934 0.63257
 C324 C 0.35098 0.84480 0.16431
 C325 C 0.34492 0.85737 0.16969
 C326 C 0.33380 0.86395 0.16306
 C327 C 0.32905 0.85796 0.15068
 C328 C 0.33490 0.84528 0.14528
 C329 C 0.34582 0.83858 0.15218
 C330 C 0.36201 0.83823 0.17099
 C331 C 0.36781 0.82531 0.16590
 C332 C 0.36237 0.81900 0.15396
 C333 C 0.35148 0.82558 0.14704
 C334 C 0.34607 0.81928 0.13513
 C335 C 0.33525 0.82596 0.12817
 C336 C 0.32980 0.83902 0.13323
 H337 H 0.34859 0.86173 0.17931
 H338 H 0.32071 0.86309 0.14527
 H339 H 0.36616 0.84332 0.18008
 H340 H 0.36649 0.80887 0.15010
 H341 H 0.35033 0.80923 0.13120
 H342 H 0.32132 0.84408 0.12797
 C343 C 0.85057 0.34789 0.16713
 C344 C 0.84459 0.36067 0.17218
 C345 C 0.83239 0.36592 0.16656
 C346 C 0.82645 0.35858 0.15545
 C347 C 0.83240 0.34590 0.15019
 C348 C 0.84439 0.34040 0.15616
 C349 C 0.86245 0.34231 0.17307
 C350 C 0.86813 0.32914 0.16844
 C351 C 0.86187 0.32174 0.15749
 C352 C 0.85011 0.32733 0.15127
 C353 C 0.84387 0.31992 0.14039
 C354 C 0.83202 0.32546 0.13420
 C355 C 0.82641 0.33852 0.13917
 H356 H 0.84915 0.36626 0.18081
 H357 H 0.81713 0.36271 0.15099
 H358 H 0.86726 0.34825 0.18134
 H359 H 0.86597 0.31147 0.15397
 H360 H 0.84814 0.30972 0.13687
 H361 H 0.81740 0.34305 0.13442
 C362 C 0.84951 0.84734 0.66797
 C363 C 0.84263 0.85908 0.67397
 C364 C 0.83092 0.86497 0.66780
 C365 C 0.82604 0.85873 0.65558
 C366 C 0.83271 0.84684 0.64956
 C367 C 0.84458 0.84122 0.65568
 C368 C 0.86120 0.84154 0.67411
 C369 C 0.86815 0.82985 0.66804
 C370 C 0.86329 0.82391 0.65572
 C371 C 0.85148 0.82942 0.64957
 C372 C 0.84633 0.82319 0.63752
 C373 C 0.83427 0.82844 0.63155
 C374 C 0.82761 0.84039 0.63760
 H375 H 0.84632 0.86352 0.68355
 H376 H 0.81712 0.86322 0.65063
 H377 H 0.86499 0.84623 0.68356
 H378 H 0.86854 0.81477 0.65110
 H379 H 0.85173 0.81420 0.63282
 H380 H 0.81822 0.84444 0.63323
 C381 C 0.64819 0.65325 0.67056
 C382 C 0.65515 0.64195 0.67717
 C383 C 0.66692 0.63589 0.67131
 C384 C 0.67185 0.64139 0.65882
 C385 C 0.66511 0.65283 0.65219
 C386 C 0.65315 0.65868 0.65799
 C387 C 0.63642 0.65930 0.67639
 C388 C 0.62942 0.67064 0.66977
 C389 C 0.63435 0.67583 0.65714
 C390 C 0.64623 0.67005 0.65130
 C391 C 0.65140 0.67564 0.63898
 C392 C 0.66358 0.67021 0.63333
 C393 C 0.67028 0.65867 0.63997
 H394 H 0.65131 0.63769 0.68679
 H395 H 0.68106 0.63688 0.65440
 H396 H 0.63289 0.65536 0.68623
 H397 H 0.62896 0.68441 0.65182
 H398 H 0.64598 0.68431 0.63383
 H399 H 0.67974 0.65448 0.63585
 C400 C 0.65021 0.14814 0.16888
 C401 C 0.65634 0.13609 0.17514
 C402 C 0.66839 0.13003 0.16978
 C403 C 0.67407 0.13606 0.15781
 C404 C 0.66797 0.14801 0.15136
 C405 C 0.65603 0.15413 0.15695
 C406 C 0.63847 0.15443 0.17452
 C407 C 0.63237 0.16664 0.16837
 C408 C 0.63819 0.17243 0.15636
 C409 C 0.65002 0.16634 0.15069
 C410 C 0.65604 0.17244 0.13898
 C411 C 0.66798 0.16644 0.13334
 C412 C 0.67377 0.15410 0.13955
 H413 H 0.65170 0.13141 0.18420
 H414 H 0.68348 0.13172 0.15370
 H415 H 0.63429 0.15003 0.18392
 H416 H 0.63351 0.18168 0.15138
 H417 H 0.65160 0.18211 0.13450
 H418 H 0.68280 0.14916 0.13519
 C419 C 0.14949 0.65287 0.16645
 C420 C 0.15612 0.64154 0.17336
 C421 C 0.16864 0.63607 0.16857
 C422 C 0.17446 0.64216 0.15670
 C423 C 0.16784 0.65333 0.14956
 C424 C 0.15529 0.65868 0.15442
 C425 C 0.13724 0.65861 0.17149
 C426 C 0.13060 0.67003 0.16462
 C427 C 0.13626 0.67543 0.15238
 C428 C 0.14859 0.66993 0.14732
 C429 C 0.15443 0.67567 0.13537
 C430 C 0.16705 0.67056 0.13054
 C431 C 0.17368 0.65936 0.13773
 H432 H 0.15142 0.63687 0.18239
 H433 H 0.18425 0.63833 0.15307
 H434 H 0.13310 0.65445 0.18102
 H435 H 0.13111 0.68400 0.14682
 H436 H 0.14912 0.68415 0.12983
 H437 H 0.18352 0.65548 0.13428
 C438 C 0.14949 0.15825 0.66838
 C439 C 0.15609 0.14691 0.67532
 C440 C 0.16788 0.14044 0.66984
 C441 C 0.17311 0.14564 0.65733
 C442 C 0.16676 0.15714 0.65042
 C443 C 0.15483 0.16339 0.65587
 C444 C 0.13773 0.16465 0.67386
 C445 C 0.13106 0.17601 0.66692
 C446 C 0.13641 0.18099 0.65438
 C447 C 0.14829 0.17484 0.64887
 C448 C 0.15385 0.18009 0.63657
 C449 C 0.16596 0.17417 0.63129
 C450 C 0.17225 0.16258 0.63819
 H451 H 0.15210 0.14325 0.68508
 H452 H 0.18208 0.14066 0.65287
 H453 H 0.13389 0.16090 0.68365
 H454 H 0.13130 0.18961 0.64885
 H455 H 0.14900 0.18908 0.63132
 H456 H 0.18148 0.15784 0.63403
 C457 C 0.35091 0.65278 0.33573
 C458 C 0.34439 0.64071 0.32989
 C459 C 0.33261 0.63481 0.33593
 C460 C 0.32750 0.64110 0.34805
 C461 C 0.33383 0.65327 0.35390
 C462 C 0.34557 0.65914 0.34773
 C463 C 0.36255 0.65871 0.32959
 C464 C 0.36884 0.67116 0.33510
 C465 C 0.36343 0.67743 0.34710
 C466 C 0.35189 0.67148 0.35346
 C467 C 0.34646 0.67782 0.36536
 C468 C 0.33466 0.67210 0.37154
 C469 C 0.32845 0.65978 0.36572
 H470 H 0.34831 0.63618 0.32043
 H471 H 0.31859 0.63652 0.35297
 H472 H 0.36673 0.65357 0.32052
 H473 H 0.36799 0.68717 0.35133
 H474 H 0.35146 0.68717 0.36983
 H475 H 0.31920 0.65545 0.37017
 C476 C 0.35055 0.15713 0.83223
 C477 C 0.34353 0.14577 0.82577
 C478 C 0.33184 0.13974 0.83180
 C479 C 0.32704 0.14533 0.84431
 C480 C 0.33383 0.15683 0.85080
 C481 C 0.34572 0.16266 0.84482
 C482 C 0.36226 0.16311 0.82625
 C483 C 0.36935 0.17449 0.83274
 C484 C 0.36452 0.17982 0.84537
 C485 C 0.35270 0.17409 0.85137
 C486 C 0.34767 0.17975 0.86373
 C487 C 0.33559 0.17432 0.86957
 C488 C 0.32882 0.16274 0.86306
 H489 H 0.34728 0.14144 0.81613
 H490 H 0.31790 0.14084 0.84887
 H491 H 0.36571 0.15907 0.81641
 H492 H 0.36997 0.18844 0.85057
 H493 H 0.35315 0.18846 0.86878
 H494 H 0.31942 0.15856 0.86732
 C495 C 0.84981 0.65464 0.83344
 C496 C 0.84321 0.64265 0.82757
 C497 C 0.83209 0.63604 0.83421
 C498 C 0.82764 0.64163 0.84688
 C499 C 0.83399 0.65378 0.85275
 C500 C 0.84514 0.66030 0.84602
 C501 C 0.86092 0.66117 0.82682
 C502 C 0.86757 0.67322 0.83267
 C503 C 0.86275 0.67885 0.84519
 C504 C 0.85152 0.67258 0.85181
 C505 C 0.84650 0.67847 0.86408
 C506 C 0.83527 0.67215 0.87072
 C507 C 0.82922 0.65966 0.86512
 H508 H 0.84660 0.63864 0.81770
 H509 H 0.81923 0.63653 0.85222
 H510 H 0.86430 0.65694 0.81703
 H511 H 0.86782 0.68803 0.84989
 H512 H 0.85127 0.68803 0.86846
 H513 H 0.82049 0.65483 0.87018
 C514 C 0.85037 0.15216 0.33121
 C515 C 0.84408 0.13976 0.32574
 C516 C 0.83223 0.13400 0.33177
 C517 C 0.82681 0.14079 0.34351
 C518 C 0.83288 0.15331 0.34896
 C519 C 0.84472 0.15902 0.34282
 C520 C 0.86211 0.15792 0.32511
 C521 C 0.86820 0.17063 0.33028
 C522 C 0.86247 0.17741 0.34187
 C523 C 0.85083 0.17166 0.34821
 C524 C 0.84505 0.17850 0.35969
 C525 C 0.83316 0.17294 0.36574
 C526 C 0.82718 0.16031 0.36036
 H527 H 0.84824 0.13484 0.31656
 H528 H 0.81785 0.13635 0.34844
 H529 H 0.86653 0.15242 0.31635
 H530 H 0.86688 0.18736 0.34582
 H531 H 0.84962 0.18832 0.36376
 H532 H 0.81806 0.15594 0.36508
 C533 C 0.64908 0.34775 0.33025
 C534 C 0.65545 0.35971 0.32408
 C535 C 0.66731 0.36570 0.32979
 C536 C 0.67277 0.35965 0.34180
 C537 C 0.66660 0.34758 0.34800
 C538 C 0.65471 0.34159 0.34222
 C539 C 0.63726 0.34173 0.32456
 C540 C 0.63113 0.32948 0.33053
 C541 C 0.63681 0.32335 0.34240
 C542 C 0.64852 0.32936 0.34832
 C543 C 0.65420 0.32328 0.36018
 C544 C 0.66614 0.32909 0.36596
 C545 C 0.67225 0.34127 0.35977
 H546 H 0.65118 0.36442 0.31486
 H547 H 0.68199 0.36418 0.34614
 H548 H 0.63297 0.34637 0.31531
 H549 H 0.63205 0.31393 0.34703
 H550 H 0.64926 0.31404 0.36495
 H551 H 0.68159 0.34569 0.36393
 C552 C 0.65189 0.84849 0.82958
 C553 C 0.65804 0.86043 0.82314
 C554 C 0.66926 0.86739 0.82917
 C555 C 0.67433 0.86232 0.84173
 C556 C 0.66848 0.85018 0.84813
 C557 C 0.65719 0.84326 0.84207
 C558 C 0.64058 0.84165 0.82369
 C559 C 0.63436 0.82969 0.83014
 C560 C 0.63986 0.82441 0.84249
 C561 C 0.65128 0.83103 0.84842
 C562 C 0.65698 0.82551 0.86052
 C563 C 0.66843 0.83215 0.86651
 C564 C 0.67391 0.84470 0.86036
 H565 H 0.65406 0.86441 0.81349
 H566 H 0.68308 0.86759 0.84631
 H567 H 0.63669 0.84559 0.81399
 H568 H 0.63513 0.81527 0.84762
 H569 H 0.65271 0.81576 0.86503
 H570 H 0.68250 0.85017 0.86502
 C571 C 0.15004 0.34654 0.83275
 C572 C 0.15662 0.35799 0.82597
 C573 C 0.16911 0.36336 0.83079
 C574 C 0.17505 0.35713 0.84249
 C575 C 0.16849 0.34581 0.84950
 C576 C 0.15592 0.34052 0.84465
 C577 C 0.13778 0.34088 0.82771
 C578 C 0.13117 0.32936 0.83448
 C579 C 0.13691 0.32373 0.84658
 C580 C 0.14927 0.32913 0.85162
 C581 C 0.15516 0.32320 0.86345
 C582 C 0.16777 0.32829 0.86830
 C583 C 0.17436 0.33962 0.86123
 H584 H 0.15213 0.36262 0.81682
 H585 H 0.18467 0.36128 0.84625
 H586 H 0.13360 0.34521 0.81830
 H587 H 0.13179 0.31507 0.85206
 H588 H 0.14989 0.31463 0.86889
 H589 H 0.18418 0.34349 0.86470
 C590 C 0.15145 0.84296 0.33121
 C591 C 0.15834 0.85421 0.32443
 C592 C 0.17004 0.86047 0.33019
 C593 C 0.17497 0.85524 0.34276
 C594 C 0.16830 0.84386 0.34958
 C595 C 0.15641 0.83780 0.34386
 C596 C 0.13972 0.83676 0.32551
 C597 C 0.13275 0.82551 0.33233
 C598 C 0.13771 0.82054 0.34501
 C599 C 0.14954 0.82650 0.35074
 C600 C 0.15469 0.82121 0.36318
 C601 C 0.16678 0.82688 0.36876
 C602 C 0.17344 0.83832 0.36192
 H603 H 0.15448 0.85827 0.31475
 H604 H 0.18412 0.85991 0.34713
 H605 H 0.13616 0.84053 0.31562
 H606 H 0.13235 0.81203 0.35046
 H607 H 0.14929 0.81262 0.36848
 H608 H 0.18285 0.84267 0.36599
 O609 O 0.24887 1.01071 0.26532
 O610 O 0.26810 0.98353 0.24540
 O611 O 0.26737 1.01176 0.24624
 O612 O 0.24965 0.98236 0.26454
 O613 O 0.23320 0.98292 0.24920
 O614 O 0.25166 1.01130 0.23012
 O615 O 0.25165 0.98300 0.23005
 O616 O 0.23316 1.01123 0.24921
 Cu617 Cu 0.26010 0.99709 0.25697
 Cu618 Cu 0.24080 0.99711 0.23807
 C619 C 0.23781 1.01577 0.26058
 C620 C 0.26309 0.97852 0.23437
 C621 C 0.26262 1.01649 0.23500
 C622 C 0.23836 0.97766 0.26004
 O623 O 0.26702 0.48400 0.74598
 O624 O 0.24881 0.51321 0.76420
 O625 O 0.24824 0.48498 0.76472
 O626 O 0.26786 0.51234 0.74554
 O627 O 0.25190 0.51292 0.72968
 O628 O 0.23283 0.48466 0.74830
 O629 O 0.23297 0.51310 0.74821
 O630 O 0.25166 0.48462 0.72952
 Cu631 Cu 0.25957 0.49864 0.75672
 Cu632 Cu 0.24075 0.49883 0.73732
 C633 C 0.26247 0.47934 0.73461
 C634 C 0.23774 0.51813 0.75933
 C635 C 0.23727 0.48001 0.75972
 C636 C 0.26317 0.51742 0.73441
 O637 O 0.74949 -0.01867 0.23614
 O638 O 0.76815 0.00971 0.25493
 O639 O 0.76791 -0.01853 0.25520
 O640 O 0.74956 0.00965 0.23582
 O641 O 0.73374 0.01031 0.25188
 O642 O 0.75161 -0.01852 0.27077
 O643 O 0.75213 0.00992 0.27080
 O644 O 0.73314 -0.01792 0.25165
 Cu645 Cu 0.76039 -0.00448 0.24393
 Cu646 Cu 0.74106 -0.00405 0.26288
 C647 C 0.73810 -0.02311 0.24065
 C648 C 0.76332 0.01468 0.26606
 C649 C 0.76284 -0.02344 0.26624
 C650 C 0.73856 0.01488 0.24059
 O651 O 0.73229 0.51399 0.75099
 O652 O 0.75141 0.48618 0.77007
 O653 O 0.75088 0.51451 0.76995
 O654 O 0.73285 0.48567 0.75114
 O655 O 0.74840 0.48655 0.73483
 O656 O 0.76727 0.51413 0.75448
 O657 O 0.76699 0.48584 0.75377
 O658 O 0.74869 0.51488 0.73554
 Cu659 Cu 0.74025 0.50007 0.76213
 Cu660 Cu 0.75944 0.50038 0.74306
 C661 C 0.73731 0.51934 0.74009
 C662 C 0.76238 0.48110 0.76509
 C663 C 0.76221 0.51918 0.76549
 C664 C 0.73750 0.48123 0.73973
 O665 O 0.24853 0.48711 0.23455
 O666 O 0.26719 0.51492 0.25411
 O667 O 0.26705 0.48671 0.25368
 O668 O 0.24863 0.51535 0.23500
 O669 O 0.23263 0.51528 0.25090
 O670 O 0.25090 0.48644 0.26942
 O671 O 0.25106 0.51482 0.26987
 O672 O 0.23250 0.48689 0.25042
 Cu673 Cu 0.25946 0.50104 0.24275
 Cu674 Cu 0.24016 0.50084 0.26174
 C675 C 0.23735 0.48220 0.23917
 C676 C 0.26229 0.51965 0.26531
 C677 C 0.26210 0.48164 0.26472
 C678 C 0.23751 0.52026 0.23979
 O679 O 0.74902 1.01706 0.76511
 O680 O 0.76770 0.98944 0.74526
 O681 O 0.76737 1.01776 0.74602
 O682 O 0.74940 0.98869 0.76452
 O683 O 0.73288 0.98933 0.74924
 O684 O 0.75152 1.01750 0.73003
 O685 O 0.75117 0.98907 0.72999
 O686 O 0.73303 1.01749 0.74928
 Cu687 Cu 0.76000 1.00321 0.75679
 Cu688 Cu 0.74055 1.00339 0.73803
 C689 C 0.73787 1.02207 0.76054
 C690 C 0.76253 0.98438 0.73433
 C691 C 0.76254 1.02259 0.73485
 C692 C 0.73803 0.98410 0.76010
 O693 O 0.74966 0.51569 0.26666
 O694 O 0.76780 0.48711 0.24758
 O695 O 0.76810 0.51543 0.24761
 O696 O 0.74921 0.48726 0.26652
 O697 O 0.73318 0.48764 0.25072
 O698 O 0.75208 0.51570 0.23179
 O699 O 0.75188 0.48752 0.23166
 O700 O 0.73355 0.51587 0.25093
 Cu701 Cu 0.76028 0.50134 0.25870
 Cu702 Cu 0.74106 0.50170 0.23970
 C703 C 0.73852 0.52069 0.26205
 C704 C 0.76298 0.48247 0.23633
 C705 C 0.76332 0.52037 0.23645
 C706 C 0.73797 0.48262 0.26183
 O707 O 0.25055 -0.01044 0.76868
 O708 O 0.23139 0.01759 0.74988
 O709 O 0.23166 -0.01073 0.75005
 O710 O 0.25023 0.01792 0.76856
 O711 O 0.26639 0.01737 0.75284
 O712 O 0.24698 -0.01005 0.73352
 O713 O 0.24758 0.01828 0.73420
 O714 O 0.26588 -0.01092 0.75215
 Cu715 Cu 0.23938 0.00357 0.76092
 Cu716 Cu 0.25828 0.00367 0.74156
 C717 C 0.26141 -0.01561 0.76354
 C718 C 0.23632 0.02289 0.73893
 C719 C 0.23609 -0.01523 0.73857
 C720 C 0.26152 0.02250 0.76390
 O721 O 0.25477 0.23341 0.98774
 O722 O 0.23337 0.25041 1.01429
 O723 O 0.23374 0.25058 0.98742
 O724 O 0.25444 0.23335 1.01431
 O725 O 0.26790 0.25254 1.01469
 O726 O 0.24723 0.26973 0.98776
 O727 O 0.24683 0.26960 1.01438
 O728 O 0.26826 0.25257 0.98787
 Cu729 Cu 0.24269 0.24005 1.00091
 Cu730 Cu 0.25893 0.26301 1.00119
 C731 C 0.26517 0.24009 0.98324
 C732 C 0.23649 0.26287 1.01895
 C733 C 0.23698 0.26307 0.98293
 C734 C 0.26468 0.24002 1.01915
 O735 O 0.23242 0.75071 0.51537
 O736 O 0.25336 0.73306 0.48882
 O737 O 0.25308 0.73329 0.51547
 O738 O 0.23252 0.75054 0.48854
 O739 O 0.24612 0.76961 0.48879
 O740 O 0.26726 0.75186 0.51509
 O741 O 0.26691 0.75217 0.48836
 O742 O 0.24643 0.76945 0.51545
 Cu743 Cu 0.24143 0.74003 0.50203
 Cu744 Cu 0.25808 0.76266 0.50193
 C745 C 0.23594 0.76303 0.52007
 C746 C 0.26367 0.73964 0.48398
 C747 C 0.26370 0.73960 0.51987
 C748 C 0.23579 0.76302 0.48406
 O749 O 0.25259 0.76634 0.01143
 O750 O 0.23202 0.74901 -0.01550
 O751 O 0.23219 0.74855 0.01130
 O752 O 0.25246 0.76697 -0.01523
 O753 O 0.26639 0.74819 -0.01609
 O754 O 0.24654 0.73011 0.01102
 O755 O 0.24600 0.73024 -0.01563
 O756 O 0.26709 0.74805 0.01062
 Cu757 Cu 0.24087 0.75956 -0.00197
 Cu758 Cu 0.25793 0.73729 -0.00255
 C759 C 0.26338 0.76018 0.01561
 C760 C 0.23548 0.73665 -0.02017
 C761 C 0.23598 0.73625 0.01582
 C762 C 0.26284 0.76070 -0.02027
 O763 O 0.23259 0.24875 0.48353
 O764 O 0.25344 0.26527 0.51072
 O765 O 0.25385 0.26557 0.48413
 O766 O 0.23220 0.24842 0.51040
 O767 O 0.24549 0.22910 0.51024
 O768 O 0.26708 0.24620 0.48395
 O769 O 0.26673 0.24595 0.51078
 O770 O 0.24583 0.22940 0.48364
 Cu771 Cu 0.24165 0.25892 0.49720
 Cu772 Cu 0.25764 0.23575 0.49715
 C773 C 0.23568 0.23627 0.47889
 C774 C 0.26363 0.25843 0.51543
 C775 C 0.26414 0.25878 0.47951
 C776 C 0.23519 0.23585 0.51486
 O777 O 0.74708 0.77071 0.98552
 O778 O 0.76575 0.75332 1.01369
 O779 O 0.76717 0.75237 0.98705
 O780 O 0.74548 0.77137 1.01221
 O781 O 0.73151 0.75261 1.01247
 O782 O 0.75220 0.73455 0.98606
 O783 O 0.75183 0.73454 1.01279
 O784 O 0.73205 0.75290 0.98577
 Cu785 Cu 0.75782 0.76379 0.99964
 Cu786 Cu 0.74045 0.74181 0.99923
 C787 C 0.73632 0.76486 0.98089
 C788 C 0.76206 0.74091 1.01801
 C789 C 0.76328 0.74029 0.98211
 C790 C 0.73490 0.76510 1.01682
 O791 O 0.74716 0.27101 0.48421
 O792 O 0.76850 0.25415 0.51080
 O793 O 0.76817 0.25379 0.48395
 O794 O 0.74753 0.27136 0.51082
 O795 O 0.73395 0.25229 0.51129
 O796 O 0.75464 0.23467 0.48459
 O797 O 0.75489 0.23508 0.51114
 O798 O 0.73365 0.25187 0.48446
 Cu799 Cu 0.75923 0.26447 0.49740
 Cu800 Cu 0.74289 0.24159 0.49790
 C801 C 0.73679 0.26429 0.47974
 C802 C 0.76530 0.24176 0.51558
 C803 C 0.76491 0.24122 0.47966
 C804 C 0.73724 0.26479 0.51570
 O805 O 0.76667 0.24744 -0.01203
 O806 O 0.74715 0.22895 0.01496
 O807 O 0.74630 0.22940 -0.01177
 O808 O 0.76731 0.24712 0.01470
 O809 O 0.75235 0.26496 0.01596
 O810 O 0.73242 0.24824 -0.01171
 O811 O 0.73216 0.24682 0.01497
 O812 O 0.75278 0.26622 -0.01080
 Cu813 Cu 0.75830 0.23638 0.00138
 Cu814 Cu 0.74099 0.25842 0.00216
 C815 C 0.76313 0.26002 -0.01600
 C816 C 0.73631 0.23469 0.01957
 C817 C 0.73588 0.23592 -0.01642
 C818 C 0.76323 0.25894 0.02006
 O819 O 0.73205 0.74854 0.48901
 O820 O 0.75304 0.76567 0.51571
 O821 O 0.75324 0.76546 0.48916
 O822 O 0.73190 0.74861 0.51584
 O823 O 0.74527 0.72935 0.51584
 O824 O 0.76662 0.74620 0.48920
 O825 O 0.76641 0.74641 0.51601
 O826 O 0.74542 0.72928 0.48924
 Cu827 Cu 0.74118 0.75897 0.50242
 Cu828 Cu 0.75730 0.73590 0.50259
 C829 C 0.73517 0.73601 0.48451
 C830 C 0.76332 0.75899 0.52042
 C831 C 0.76357 0.75870 0.48460
 C832 C 0.73495 0.73610 0.52041
 O833 O 1.01369 0.26798 0.24718
 O834 O 0.98732 0.24813 0.26645
 O835 O 1.01372 0.24821 0.26628
 O836 O 0.98705 0.26794 0.24752
 O837 O 0.98715 0.25104 0.23147
 O838 O 1.01371 0.23116 0.25037
 O839 O 0.98704 0.23124 0.25039
 O840 O 1.01353 0.25093 0.23127
 Cu841 Cu 1.00048 0.25980 0.25843
 Cu842 Cu 1.00037 0.23935 0.23931
 C843 C 1.01813 0.26284 0.23594
 C844 C 0.98258 0.23635 0.26163
 C845 C 1.01828 0.23631 0.26154
 C846 C 0.98248 0.26284 0.23633
 O847 O 0.48748 0.25065 0.73078
 O848 O 0.51431 0.23303 0.75109
 O849 O 0.48777 0.23281 0.75145
 O850 O 0.51408 0.25093 0.73064
 O851 O 0.51418 0.26936 0.74512
 O852 O 0.48736 0.25163 0.76546
 O853 O 0.51391 0.25129 0.76576
 O854 O 0.48775 0.26944 0.74483
 Cu855 Cu 0.50090 0.24000 0.73955
 Cu856 Cu 0.50081 0.26228 0.75675
 C857 C 0.48304 0.26308 0.73430
 C858 C 0.51869 0.23912 0.76190
 C859 C 0.48295 0.23921 0.76193
 C860 C 0.51870 0.26320 0.73438
 O861 O 0.01269 0.25204 0.76846
 O862 O -0.01365 0.23435 0.74755
 O863 O 0.01274 0.23468 0.74744
 O864 O -0.01394 0.25193 0.76849
 O865 O -0.01398 0.27082 0.75458
 O866 O 0.01270 0.25365 0.73363
 O867 O -0.01392 0.25326 0.73366
 O868 O 0.01243 0.27101 0.75465
 Cu869 Cu -0.00054 0.24138 0.75940
 Cu870 Cu -0.00072 0.26406 0.74272
 C871 C 0.01712 0.26451 0.76511
 C872 C -0.01831 0.24077 0.73703
 C873 C 0.01734 0.24126 0.73697
 C874 C -0.01854 0.26433 0.76511
 O875 O 0.51368 0.25011 0.26562
 O876 O 0.48734 0.23056 0.24620
 O877 O 0.51391 0.23046 0.24631
 O878 O 0.48728 0.25010 0.26542
 O879 O 0.48709 0.26710 0.24948
 O880 O 0.51435 0.24799 0.23089
 O881 O 0.48783 0.24755 0.23026
 O882 O 0.51373 0.26746 0.25002
 Cu883 Cu 0.50056 0.23856 0.25744
 Cu884 Cu 0.50075 0.25927 0.23860
 C885 C 0.51821 0.26213 0.26114
 C886 C 0.48305 0.23572 0.23494
 C887 C 0.51880 0.23596 0.23542
 C888 C 0.48253 0.26188 0.26063
 O889 O 1.01346 0.76884 0.74756
 O890 O 0.98635 0.75086 0.76723
 O891 O 1.01298 0.75005 0.76736
 O892 O 0.98701 0.76948 0.74726
 O893 O 0.98639 0.75128 0.73254
 O894 O 1.01278 0.73219 0.75227
 O895 O 0.98632 0.73267 0.75249
 O896 O 1.01295 0.75113 0.73231
 Cu897 Cu 0.99999 0.76159 0.75887
 Cu898 Cu 0.99962 0.74002 0.74089
 C899 C 1.01782 0.76312 0.73654
 C900 C 0.98166 0.73873 0.76322
 C901 C 1.01738 0.73784 0.76320
 C902 C 0.98216 0.76362 0.73653
 O903 O 0.51218 0.76777 0.24718
 O904 O 0.48670 0.74857 0.26819
 O905 O 0.51320 0.74944 0.26742
 O906 O 0.48562 0.76692 0.24803
 O907 O 0.48630 0.74919 0.23280
 O908 O 0.51279 0.73085 0.25314
 O909 O 0.48621 0.73084 0.25297
 O910 O 0.51278 0.74923 0.23286
 Cu911 Cu 0.49943 0.76001 0.25918
 Cu912 Cu 0.49955 0.73819 0.24148
 C913 C 0.51698 0.76169 0.23652
 C914 C 0.48191 0.73654 0.26401
 C915 C 0.51767 0.73712 0.26365
 C916 C 0.48126 0.76107 0.23709
 O917 O -0.01260 0.76718 0.25293
 O918 O 0.01376 0.74952 0.23181
 O919 O -0.01279 0.74974 0.23185
 O920 O 0.01387 0.76705 0.25271
 O921 O 0.01414 0.74798 0.26640
 O922 O -0.01321 0.73116 0.24613
 O923 O 0.01328 0.73043 0.24547
 O924 O -0.01245 0.74843 0.26701
 Cu925 Cu 0.00056 0.76026 0.24092
 Cu926 Cu 0.00046 0.73762 0.25766
 C927 C -0.01706 0.76080 0.26358
 C928 C 0.01801 0.73694 0.23502
 C929 C -0.01769 0.73757 0.23553
 C930 C 0.01866 0.76042 0.26305
 O931 O 0.51319 0.75171 0.76962
 O932 O 0.48525 0.73433 0.75068
 O933 O 0.51177 0.73307 0.74967
 O934 O 0.48662 0.75312 0.77042
 O935 O 0.48672 0.77085 0.75522
 O936 O 0.51246 0.75128 0.73499
 O937 O 0.48590 0.75191 0.73533
 O938 O 0.51314 0.76992 0.75492
 Cu939 Cu 0.49918 0.74126 0.76161
 Cu940 Cu 0.49957 0.76277 0.74359
 C941 C 0.51795 0.76379 0.76553
 C942 C 0.48080 0.74013 0.73977
 C943 C 0.51658 0.73887 0.73888
 C944 C 0.48228 0.76537 0.76630
 C945 C 0.40332 0.30883 0.30947
 C946 C 0.39275 0.31531 0.30192
 C947 C 0.38143 0.32124 0.30855
 C948 C 0.38045 0.32110 0.32293
 C949 C 0.39108 0.31478 0.33050
 C950 C 0.40231 0.30863 0.32386
 C951 C 0.41525 0.30224 0.30236
 C952 C 0.42832 0.30281 0.30823
 C953 C 0.43946 0.29650 0.30158
 C954 C 0.43783 0.28971 0.28881
 C955 C 0.42486 0.28921 0.28286
 C956 C 0.41368 0.29529 0.28960
 C957 C 0.44959 0.28300 0.28174
 C958 C 0.45213 0.28599 0.26786
 C959 C 0.46304 0.27938 0.26108
 C960 C 0.47144 0.26944 0.26799
 C961 C 0.46891 0.26651 0.28190
 C962 C 0.45816 0.27334 0.28874
 H963 H 0.39324 0.31590 0.29086
 H964 H 0.37337 0.32579 0.30234
 H965 H 0.39079 0.31464 0.34159
 H966 H 0.41013 0.30357 0.33003
 H967 H 0.43000 0.30830 0.31790
 H968 H 0.44941 0.29712 0.30630
 H969 H 0.42334 0.28385 0.27309
 H970 H 0.40376 0.29433 0.28488
 H971 H 0.44570 0.29348 0.26228
 H972 H 0.46472 0.28180 0.25035
 H973 H 0.47525 0.25894 0.28749
 H974 H 0.45634 0.27081 0.29943
 C975 C 0.40541 0.81536 0.81631
 C976 C 0.39719 0.80696 0.82496
 C977 C 0.38549 0.81285 0.83091
 C978 C 0.38165 0.82745 0.82848
 C979 C 0.39023 0.83588 0.81996
 C980 C 0.40187 0.82989 0.81394
 C981 C 0.41742 0.80881 0.80946
 C982 C 0.41983 0.81129 0.79547
 C983 C 0.43077 0.80460 0.78882
 C984 C 0.43963 0.79537 0.79605
 C985 C 0.43733 0.79310 0.81012
 C986 C 0.42632 0.79971 0.81673
 C987 C 0.45099 0.78788 0.78883
 C988 C 0.45447 0.77348 0.79215
 C989 C 0.46480 0.76626 0.78501
 C990 C 0.47181 0.77323 0.77432
 C991 C 0.46847 0.78768 0.77111
 C992 C 0.45823 0.79494 0.77832
 H993 H 0.39956 0.79562 0.82676
 H994 H 0.37919 0.80554 0.83682
 H995 H 0.38834 0.84729 0.81816
 H996 H 0.40820 0.83670 0.80751
 H997 H 0.41302 0.81809 0.78957
 H998 H 0.43206 0.80638 0.77793
 H999 H 0.44408 0.78628 0.81605
 H1000 H 0.42479 0.79775 0.82757
 H1001 H 0.44898 0.76764 0.80004
 H1002 H 0.46709 0.75510 0.78768
 H1003 H 0.47376 0.79339 0.76300
 H1004 H 0.45599 0.80611 0.77567
 C1005 C -0.09582 0.31083 0.81764
 C1006 C -0.10398 0.30252 0.82644
 C1007 C -0.11541 0.30862 0.83276
 C1008 C -0.11906 0.32331 0.83050
 C1009 C -0.11048 0.33165 0.82191
 C1010 C -0.09911 0.32549 0.81556
 C1011 C -0.08415 0.30415 0.81031
 C1012 C -0.08200 0.30708 0.79635
 C1013 C -0.07118 0.30066 0.78932
 C1014 C -0.06216 0.29123 0.79609
 C1015 C -0.06431 0.28832 0.81009
 C1016 C -0.07521 0.29468 0.81711
 C1017 C -0.05065 0.28442 0.78852
 C1018 C -0.04681 0.26995 0.79110
 C1019 C -0.03626 0.26347 0.78365
 C1020 C -0.02937 0.27128 0.77340
 C1021 C -0.03310 0.28579 0.77093
 C1022 C -0.04357 0.29229 0.77844
 H1023 H -0.10179 0.29112 0.82808
 H1024 H -0.12171 0.30142 0.83878
 H1025 H -0.11218 0.34312 0.82028
 H1026 H -0.09279 0.33225 0.80908
 H1027 H -0.08887 0.31414 0.79079
 H1028 H -0.07001 0.30291 0.77849
 H1029 H -0.05745 0.28127 0.81566
 H1030 H -0.07656 0.29234 0.82790
 H1031 H -0.05216 0.26352 0.79867
 H1032 H -0.03365 0.25226 0.78576
 H1033 H -0.02792 0.29215 0.76318
 H1034 H -0.04607 0.30354 0.77637
 C1035 C -0.09496 0.80595 0.31602
 C1036 C -0.09732 0.82101 0.31548
 C1037 C -0.10862 0.82712 0.32202
 C1038 C -0.11793 0.81832 0.32915
 C1039 C -0.11551 0.80327 0.32978
 C1040 C -0.10414 0.79718 0.32337
 C1041 C -0.08313 0.79936 0.30875
 C1042 C -0.08433 0.78569 0.30240
 C1043 C -0.07329 0.77952 0.29550
 C1044 C -0.06084 0.78693 0.29463
 C1045 C -0.05960 0.80061 0.30089
 C1046 C -0.07060 0.80672 0.30795
 C1047 C -0.04926 0.78044 0.28707
 C1048 C -0.04180 0.78873 0.27760
 C1049 C -0.03126 0.78240 0.27002
 C1050 C -0.02787 0.76769 0.27191
 C1051 C -0.03515 0.75950 0.28161
 C1052 C -0.04579 0.76578 0.28904
 H1053 H -0.09057 0.82809 0.30979
 H1054 H -0.11004 0.83877 0.32148
 H1055 H -0.12255 0.79612 0.33502
 H1056 H -0.10254 0.78558 0.32420
 H1057 H -0.09388 0.77984 0.30253
 H1058 H -0.07456 0.76905 0.29058
 H1059 H -0.05006 0.80647 0.30048
 H1060 H -0.06922 0.81714 0.31291
 H1061 H -0.04434 0.80003 0.27583
 H1062 H -0.02582 0.78899 0.26265
 H1063 H -0.03279 0.74814 0.28328
 H1064 H -0.05132 0.75920 0.29637
 C1065 C 0.59634 0.69115 0.31401
 C1066 C 0.59871 0.67610 0.31322
 C1067 C 0.60998 0.66989 0.31967
 C1068 C 0.61925 0.67857 0.32696
 C1069 C 0.61683 0.69360 0.32783
 C1070 C 0.60549 0.69980 0.32150
 C1071 C 0.58450 0.69784 0.30688
 C1072 C 0.58569 0.71160 0.30073
 C1073 C 0.57462 0.71789 0.29400
 C1074 C 0.56216 0.71050 0.29313
 C1075 C 0.56095 0.69672 0.29918
 C1076 C 0.57197 0.69049 0.30606
 C1077 C 0.55051 0.71715 0.28585
 C1078 C 0.54287 0.70903 0.27641
 C1079 C 0.53216 0.71548 0.26921
 C1080 C 0.52878 0.73013 0.27146
 C1081 C 0.53629 0.73817 0.28109
 C1082 C 0.54709 0.73177 0.28814
 H1083 H 0.59198 0.66912 0.30742
 H1084 H 0.61141 0.65824 0.31896
 H1085 H 0.62383 0.70066 0.33321
 H1086 H 0.60388 0.71139 0.32252
 H1087 H 0.59524 0.71745 0.30090
 H1088 H 0.57587 0.72844 0.28925
 H1089 H 0.55140 0.69087 0.29877
 H1090 H 0.57061 0.68000 0.31087
 H1091 H 0.54537 0.69777 0.27439
 H1092 H 0.52655 0.70901 0.26188
 H1093 H 0.53394 0.74949 0.28304
 H1094 H 0.55275 0.73823 0.29546
 C1095 C 0.59607 0.19204 0.81334
 C1096 C 0.59730 0.19210 0.82767
 C1097 C 0.60859 0.18572 0.83396
 C1098 C 0.61902 0.17938 0.82605
 C1099 C 0.61779 0.17955 0.81167
 C1100 C 0.60639 0.18567 0.80541
 C1101 C 0.58410 0.19862 0.80661
 C1102 C 0.57680 0.19076 0.79674
 C1103 C 0.56577 0.19710 0.78999
 C1104 C 0.56196 0.21156 0.79274
 C1105 C 0.56925 0.21934 0.80277
 C1106 C 0.58012 0.21289 0.80971
 C1107 C 0.55069 0.21856 0.78495
 C1108 C 0.54217 0.22897 0.79116
 C1109 C 0.53180 0.23571 0.78368
 C1110 C 0.52958 0.23202 0.76990
 C1111 C 0.53796 0.22155 0.76372
 C1112 C 0.54846 0.21500 0.77110
 H1113 H 0.58940 0.19687 0.83398
 H1114 H 0.60904 0.18558 0.84505
 H1115 H 0.62573 0.17513 0.80520
 H1116 H 0.60572 0.18568 0.79433
 H1117 H 0.57959 0.17966 0.79431
 H1118 H 0.56023 0.19061 0.78262
 H1119 H 0.56679 0.23056 0.80503
 H1120 H 0.58570 0.21918 0.81721
 H1121 H 0.54340 0.23182 0.80185
 H1122 H 0.52543 0.24369 0.78873
 H1123 H 0.53658 0.21860 0.75307
 H1124 H 0.55498 0.20732 0.76584
 C1125 C 1.09470 0.68833 0.81271
 C1126 C 1.10409 0.69712 0.81967
 C1127 C 1.11569 0.69104 0.82560
 C1128 C 1.11808 0.67598 0.82487
 C1129 C 1.10853 0.66716 0.81807
 C1130 C 1.09701 0.67329 0.81198
 C1131 C 1.08272 0.69492 0.80593
 C1132 C 1.07943 0.69121 0.79239
 C1133 C 1.06851 0.69791 0.78576
 C1134 C 1.06052 0.70836 0.79259
 C1135 C 1.06370 0.71183 0.80626
 C1136 C 1.07473 0.70526 0.81282
 C1137 C 1.04912 0.71579 0.78539
 C1138 C 1.04628 0.73054 0.78790
 C1139 C 1.03582 0.73763 0.78088
 C1140 C 1.02808 0.73019 0.77104
 C1141 C 1.03083 0.71544 0.76856
 C1142 C 1.04116 0.70830 0.77571
 H1143 H 1.10263 0.70877 0.82021
 H1144 H 1.12294 0.69821 0.83049
 H1145 H 1.10991 0.65551 0.81751
 H1146 H 1.08984 0.66627 0.80678
 H1147 H 1.08554 0.68341 0.78680
 H1148 H 1.06655 0.69515 0.77516
 H1149 H 1.05762 0.71959 0.81195
 H1150 H 1.07698 0.70818 0.82333
 H1151 H 1.05233 0.73674 0.79508
 H1152 H 1.03401 0.74903 0.78294
 H1153 H 1.02494 0.70938 0.76112
 H1154 H 1.04286 0.69687 0.77370
 C1155 C 1.09585 0.18674 0.31070
 C1156 C 1.09865 0.18931 0.32457
 C1157 C 1.11008 0.18313 0.33078
 C1158 C 1.11921 0.17428 0.32326
 C1159 C 1.11615 0.17173 0.30929
 C1160 C 1.10464 0.17780 0.30317
 C1161 C 1.08395 0.19362 0.30400
 C1162 C 1.07552 0.18555 0.29523
 C1163 C 1.06452 0.19215 0.28864
 C1164 C 1.06180 0.20703 0.29055
 C1165 C 1.07025 0.21507 0.29938
 C1166 C 1.08115 0.20842 0.30608
 C1167 C 1.05033 0.21421 0.28324
 C1168 C 1.04275 0.22527 0.28963
 C1169 C 1.03232 0.23238 0.28261
 C1170 C 1.02910 0.22848 0.26907
 C1171 C 1.03648 0.21725 0.26274
 C1172 C 1.04702 0.21025 0.26972
 H1173 H 1.09187 0.19597 0.33068
 H1174 H 1.11135 0.18503 0.34164
 H1175 H 1.12291 0.16565 0.30269
 H1176 H 1.10285 0.17587 0.29237
 H1177 H 1.07738 0.17408 0.29358
 H1178 H 1.05809 0.18557 0.28213
 H1179 H 1.06863 0.22659 0.30090
 H1180 H 1.08761 0.21494 0.31263
 H1181 H 1.04482 0.22841 0.30012
 H1182 H 1.02673 0.24090 0.28781
 H1183 H 1.03429 0.21407 0.25229
 H1184 H 1.05277 0.20194 0.26439
 C1185 C 0.59645 0.31051 0.68354
 C1186 C 0.60604 0.30204 0.67641
 C1187 C 0.61743 0.30846 0.67036
 C1188 C 0.61947 0.32356 0.67112
 C1189 C 0.60974 0.33209 0.67799
 C1190 C 0.59841 0.32564 0.68418
 C1191 C 0.58465 0.30354 0.69052
 C1192 C 0.57192 0.31053 0.69111
 C1193 C 0.56095 0.30406 0.69792
 C1194 C 0.56242 0.29040 0.70413
 C1195 C 0.57506 0.28334 0.70345
 C1196 C 0.58607 0.28987 0.69681
 C1197 C 0.55089 0.28358 0.71150
 C1198 C 0.54773 0.26886 0.70938
 C1199 C 0.53711 0.26231 0.71663
 C1200 C 0.52956 0.27029 0.72629
 C1201 C 0.53268 0.28504 0.72834
 C1202 C 0.54318 0.29164 0.72094
 H1203 H 0.60476 0.29039 0.67548
 H1204 H 0.62479 0.30150 0.66533
 H1205 H 0.61086 0.34377 0.67861
 H1206 H 0.59133 0.33250 0.68971
 H1207 H 0.57037 0.32094 0.68619
 H1208 H 0.55126 0.30966 0.69819
 H1209 H 0.57650 0.27288 0.70833
 H1210 H 0.59577 0.28430 0.69684
 H1211 H 0.55347 0.26245 0.70207
 H1212 H 0.53496 0.25092 0.71484
 H1213 H 0.52701 0.29148 0.73569
 H1214 H 0.54548 0.30298 0.72283
 C1215 C 0.59347 0.81015 0.18461
 C1216 C 0.59708 0.82454 0.18762
 C1217 C 0.60831 0.83103 0.18131
 C1218 C 0.61642 0.82329 0.17178
 C1219 C 0.61251 0.80887 0.16866
 C1220 C 0.60124 0.80245 0.17496
 C1221 C 0.58183 0.80309 0.19173
 C1222 C 0.58268 0.78848 0.19586
 C1223 C 0.57187 0.78188 0.20277
 C1224 C 0.55999 0.78974 0.20578
 C1225 C 0.55910 0.80433 0.20165
 C1226 C 0.56989 0.81092 0.19466
 C1227 C 0.54865 0.78276 0.21337
 C1228 C 0.54201 0.79015 0.22407
 C1229 C 0.53165 0.78336 0.23153
 C1230 C 0.52766 0.76908 0.22838
 C1231 C 0.53417 0.76178 0.21754
 C1232 C 0.54457 0.76854 0.21014
 H1233 H 0.59133 0.83079 0.19504
 H1234 H 0.61028 0.84229 0.18374
 H1235 H 0.61844 0.80210 0.16185
 H1236 H 0.59866 0.79137 0.17230
 H1237 H 0.59182 0.78221 0.19400
 H1238 H 0.57292 0.77068 0.20602
 H1239 H 0.54999 0.81060 0.20369
 H1240 H 0.56881 0.82212 0.19144
 H1241 H 0.54503 0.80107 0.22686
 H1242 H 0.52683 0.78927 0.23982
 H1243 H 0.53132 0.75078 0.21484
 H1244 H 0.54941 0.76265 0.20185
 C1245 C 1.09498 0.31286 0.18594
 C1246 C 1.10373 0.32176 0.19355
 C1247 C 1.11528 0.32784 0.18750
 C1248 C 1.11844 0.32535 0.17353
 C1249 C 1.10936 0.31655 0.16593
 C1250 C 1.09788 0.31035 0.17208
 C1251 C 1.08308 0.30593 0.19260
 C1252 C 1.08035 0.29113 0.19052
 C1253 C 1.06952 0.28440 0.19730
 C1254 C 1.06108 0.29238 0.20622
 C1255 C 1.06370 0.30728 0.20809
 C1256 C 1.07462 0.31396 0.20141
 C1257 C 1.04977 0.28511 0.21372
 C1258 C 1.04661 0.28905 0.22729
 C1259 C 1.03622 0.28197 0.23445
 C1260 C 1.02883 0.27069 0.22824
 C1261 C 1.03190 0.26680 0.21466
 C1262 C 1.04219 0.27398 0.20746
 H1263 H 1.10186 0.32364 0.20435
 H1264 H 1.12199 0.33387 0.19416
 H1265 H 1.11072 0.31469 0.15508
 H1266 H 1.09115 0.30372 0.16592
 H1267 H 1.08683 0.28465 0.18392
 H1268 H 1.06797 0.27287 0.19580
 H1269 H 1.05726 0.31381 0.21467
 H1270 H 1.07641 0.32544 0.20307
 H1271 H 1.05237 0.29739 0.23252
 H1272 H 1.03414 0.28515 0.24493
 H1273 H 1.02630 0.25823 0.20955
 H1274 H 1.04415 0.27084 0.19694
 C1275 C 1.09468 0.81287 0.68631
 C1276 C 1.09777 0.81043 0.67248
 C1277 C 1.10924 0.81682 0.66649
 C1278 C 1.11813 0.82571 0.67423
 C1279 C 1.11477 0.82813 0.68816
 C1280 C 1.10321 0.82187 0.69404
 C1281 C 1.08275 0.80580 0.69278
 C1282 C 1.07403 0.81379 0.70135
 C1283 C 1.06312 0.80700 0.70794
 C1284 C 1.06077 0.79202 0.70625
 C1285 C 1.06941 0.78409 0.69749
 C1286 C 1.08024 0.79093 0.69078
 C1287 C 1.04961 0.78466 0.71388
 C1288 C 1.04219 0.77322 0.70790
 C1289 C 1.03188 0.76617 0.71525
 C1290 C 1.02869 0.77050 0.72868
 C1291 C 1.03604 0.78196 0.73463
 C1292 C 1.04641 0.78889 0.72736
 H1293 H 1.09119 0.80373 0.66622
 H1294 H 1.11073 0.81502 0.65565
 H1295 H 1.12132 0.83425 0.69491
 H1296 H 1.10118 0.82371 0.70482
 H1297 H 1.07563 0.82531 0.70291
 H1298 H 1.05650 0.81352 0.71435
 H1299 H 1.06806 0.77251 0.69610
 H1300 H 1.08691 0.78450 0.68434
 H1301 H 1.04423 0.76981 0.69748
 H1302 H 1.02634 0.75743 0.71036
 H1303 H 1.03390 0.78547 0.74501
 H1304 H 1.05209 0.79743 0.73241
 C1305 C 0.40164 0.69372 0.69058
 C1306 C 0.39141 0.68662 0.69813
 C1307 C 0.38032 0.68022 0.69150
 C1308 C 0.37926 0.68056 0.67714
 C1309 C 0.38955 0.68756 0.66959
 C1310 C 0.40053 0.69414 0.67622
 C1311 C 0.41339 0.70066 0.69766
 C1312 C 0.42642 0.70069 0.69162
 C1313 C 0.43742 0.70723 0.69827
 C1314 C 0.43571 0.71365 0.71120
 C1315 C 0.42276 0.71362 0.71729
 C1316 C 0.41171 0.70730 0.71055
 C1317 C 0.44740 0.72029 0.71839
 C1318 C 0.45001 0.71682 0.73214
 C1319 C 0.46100 0.72310 0.73900
 C1320 C 0.46945 0.73318 0.73231
 C1321 C 0.46680 0.73669 0.71856
 C1322 C 0.45594 0.73020 0.71162
 H1323 H 0.39199 0.68585 0.70918
 H1324 H 0.37252 0.67513 0.69769
 H1325 H 0.38921 0.68785 0.65850
 H1326 H 0.40808 0.69969 0.67006
 H1327 H 0.42819 0.69545 0.68184
 H1328 H 0.44735 0.70700 0.69344
 H1329 H 0.42117 0.71867 0.72719
 H1330 H 0.40181 0.70780 0.71540
 H1331 H 0.44361 0.70913 0.73754
 H1332 H 0.46276 0.72023 0.74961
 H1333 H 0.47317 0.74440 0.71314
 H1334 H 0.45407 0.73309 0.70103
 C1335 C 0.40473 0.18738 0.18606
 C1336 C 0.39589 0.17828 0.19340
 C1337 C 0.38447 0.17222 0.18714
 C1338 C 0.38149 0.17490 0.17318
 C1339 C 0.39064 0.18385 0.16582
 C1340 C 0.40201 0.19000 0.17217
 C1341 C 0.41658 0.19427 0.19299
 C1342 C 0.42902 0.19616 0.18605
 C1343 C 0.44009 0.20268 0.19263
 C1344 C 0.43900 0.20729 0.20630
 C1345 C 0.42660 0.20541 0.21324
 C1346 C 0.41550 0.19906 0.20664
 C1347 C 0.45068 0.21415 0.21337
 C1348 C 0.45412 0.20998 0.22677
 C1349 C 0.46481 0.21679 0.23365
 C1350 C 0.47221 0.22802 0.22734
 C1351 C 0.46887 0.23207 0.21387
 C1352 C 0.45826 0.22514 0.20692
 H1353 H 0.39775 0.17585 0.20409
 H1354 H 0.37773 0.16598 0.19362
 H1355 H 0.38939 0.18591 0.15499
 H1356 H 0.40858 0.19701 0.16619
 H1357 H 0.43028 0.19241 0.17561
 H1358 H 0.44958 0.20390 0.18710
 H1359 H 0.42542 0.20910 0.22372
 H1360 H 0.40601 0.19809 0.21220
 H1361 H 0.44852 0.20144 0.23191
 H1362 H 0.46713 0.21342 0.24402
 H1363 H 0.47439 0.24067 0.20872
 H1364 H 0.45575 0.22861 0.19662
 C1365 C -0.09684 0.69311 0.18494
 C1366 C -0.09834 0.69357 0.17060
 C1367 C -0.10947 0.68691 0.16425
 C1368 C -0.11946 0.67976 0.17208
 C1369 C -0.11796 0.67935 0.18640
 C1370 C -0.10676 0.68580 0.19272
 C1371 C -0.08506 0.70019 0.19182
 C1372 C -0.08663 0.70662 0.20483
 C1373 C -0.07550 0.71267 0.21162
 C1374 C -0.06259 0.71270 0.20548
 C1375 C -0.06101 0.70669 0.19236
 C1376 C -0.07210 0.70039 0.18563
 C1377 C -0.05080 0.71878 0.21293
 C1378 C -0.04223 0.72904 0.20669
 C1379 C -0.03143 0.73517 0.21401
 C1380 C -0.02886 0.73090 0.22760
 C1381 C -0.03728 0.72040 0.23371
 C1382 C -0.04821 0.71450 0.22648
 H1383 H -0.09101 0.69923 0.16427
 H1384 H -0.11019 0.68730 0.15319
 H1385 H -0.12554 0.67420 0.19282
 H1386 H -0.10586 0.68495 0.20374
 H1387 H -0.09648 0.70705 0.20977
 H1388 H -0.07699 0.71745 0.22166
 H1389 H -0.05110 0.70652 0.18747
 H1390 H -0.07044 0.69538 0.17573
 H1391 H -0.04409 0.73254 0.19627
 H1392 H -0.02507 0.74321 0.20905
 H1393 H -0.03558 0.71694 0.24417
 H1394 H -0.05464 0.70652 0.23146
 C1395 C -0.09494 0.19357 0.68446
 C1396 C -0.09706 0.17848 0.68462
 C1397 C -0.10842 0.17243 0.67818
 C1398 C -0.11801 0.18135 0.67158
 C1399 C -0.11578 0.19646 0.67135
 C1400 C -0.10434 0.20248 0.67765
 C1401 C -0.08318 0.20005 0.69170
 C1402 C -0.07525 0.21085 0.68541
 C1403 C -0.06437 0.21722 0.69240
 C1404 C -0.06128 0.21305 0.70592
 C1405 C -0.06924 0.20220 0.71217
 C1406 C -0.08001 0.19572 0.70511
 C1407 C -0.04995 0.22009 0.71356
 C1408 C -0.04200 0.21205 0.72283
 C1409 C -0.03171 0.21876 0.73039
 C1410 C -0.02898 0.23364 0.72875
 C1411 C -0.03671 0.24165 0.71930
 C1412 C -0.04712 0.23498 0.71185
 H1413 H -0.08987 0.17136 0.68967
 H1414 H -0.10967 0.16074 0.67834
 H1415 H -0.12306 0.20370 0.66661
 H1416 H -0.10303 0.21417 0.67754
 H1417 H -0.07740 0.21427 0.67502
 H1418 H -0.05831 0.22533 0.68717
 H1419 H -0.06736 0.19891 0.72265
 H1420 H -0.08609 0.18757 0.71026
 H1421 H -0.04368 0.20052 0.72421
 H1422 H -0.02584 0.21226 0.73750
 H1423 H -0.03489 0.25316 0.71787
 H1424 H -0.05316 0.24157 0.70498
 C1425 C 0.31114 0.39995 0.31283
 C1426 C 0.30381 0.38893 0.31955
 C1427 C 0.31056 0.37722 0.32560
 C1428 C 0.32484 0.37630 0.32528
 C1429 C 0.33218 0.38745 0.31875
 C1430 C 0.32542 0.39906 0.31253
 C1431 C 0.30390 0.41220 0.30601
 C1432 C 0.30957 0.42625 0.30580
 C1433 C 0.30286 0.43766 0.29921
 C1434 C 0.29024 0.43534 0.29287
 C1435 C 0.28449 0.42139 0.29316
 C1436 C 0.29128 0.40993 0.29956
 C1437 C 0.28312 0.44739 0.28587
 C1438 C 0.26926 0.44999 0.28841
 C1439 C 0.26248 0.46127 0.28169
 C1440 C 0.26938 0.46999 0.27211
 C1441 C 0.28324 0.46736 0.26956
 C1442 C 0.29007 0.45624 0.27647
 H1443 H 0.29282 0.38934 0.32021
 H1444 H 0.30453 0.36876 0.33035
 H1445 H 0.34319 0.38724 0.31847
 H1446 H 0.33142 0.40722 0.30730
 H1447 H 0.31913 0.42850 0.31088
 H1448 H 0.30743 0.44837 0.29923
 H1449 H 0.27484 0.41931 0.28818
 H1450 H 0.28673 0.39923 0.29923
 H1451 H 0.26372 0.44336 0.29569
 H1452 H 0.25179 0.46302 0.28383
 H1453 H 0.28881 0.47394 0.26227
 H1454 H 0.30074 0.45437 0.27429
 C1455 C 0.31078 -0.09723 0.81169
 C1456 C 0.30823 -0.10038 0.82550
 C1457 C 0.31489 -0.11188 0.83200
 C1458 C 0.32429 -0.12075 0.82484
 C1459 C 0.32674 -0.11742 0.81089
 C1460 C 0.32014 -0.10583 0.80447
 C1461 C 0.30366 -0.08505 0.80481
 C1462 C 0.31081 -0.07549 0.79621
 C1463 C 0.30409 -0.06403 0.78971
 C1464 C 0.29003 -0.06194 0.79157
 C1465 C 0.28289 -0.07154 0.80019
 C1466 C 0.28964 -0.08293 0.80677
 C1467 C 0.28281 -0.04990 0.78447
 C1468 C 0.27223 -0.04229 0.79104
 C1469 C 0.26530 -0.03115 0.78427
 C1470 C 0.26885 -0.02727 0.77080
 C1471 C 0.27950 -0.03477 0.76427
 C1472 C 0.28636 -0.04598 0.77100
 H1473 H 0.30126 -0.09373 0.83139
 H1474 H 0.31296 -0.11328 0.84282
 H1475 H 0.33331 -0.12406 0.80457
 H1476 H 0.32211 -0.10381 0.79371
 H1477 H 0.32166 -0.07676 0.79467
 H1478 H 0.30995 -0.05670 0.78335
 H1479 H 0.27202 -0.07043 0.80166
 H1480 H 0.28385 -0.09026 0.81321
 H1481 H 0.26938 -0.04485 0.80149
 H1482 H 0.25719 -0.02552 0.78961
 H1483 H 0.28243 -0.03211 0.75387
 H1484 H 0.29430 -0.05176 0.76555
 C1485 C 0.81106 0.39955 0.81401
 C1486 C 0.80863 0.39665 0.82789
 C1487 C 0.81519 0.38512 0.83445
 C1488 C 0.82435 0.37598 0.82729
 C1489 C 0.82665 0.37904 0.81326
 C1490 C 0.82016 0.39066 0.80678
 C1491 C 0.80407 0.41176 0.80706
 C1492 C 0.81131 0.42111 0.79833
 C1493 C 0.80470 0.43258 0.79173
 C1494 C 0.79067 0.43488 0.79361
 C1495 C 0.78345 0.42549 0.80236
 C1496 C 0.79009 0.41410 0.80906
 C1497 C 0.78357 0.44693 0.78638
 C1498 C 0.77304 0.45469 0.79287
 C1499 C 0.76619 0.46580 0.78597
 C1500 C 0.76978 0.46950 0.77247
 C1501 C 0.78039 0.46186 0.76603
 C1502 C 0.78716 0.45067 0.77288
 H1503 H 0.80183 0.40351 0.83378
 H1504 H 0.81337 0.38390 0.84532
 H1505 H 0.83301 0.37219 0.80694
 H1506 H 0.82202 0.39250 0.79597
 H1507 H 0.82214 0.41967 0.79676
 H1508 H 0.81063 0.43976 0.78527
 H1509 H 0.77260 0.42676 0.80385
 H1510 H 0.78423 0.40694 0.81560
 H1511 H 0.77016 0.45228 0.80333
 H1512 H 0.75811 0.47155 0.79125
 H1513 H 0.78333 0.46439 0.75560
 H1514 H 0.79506 0.44477 0.76748
 C1515 C 0.81124 -0.10528 0.31487
 C1516 C 0.82512 -0.10776 0.31245
 C1517 C 0.83190 -0.11926 0.31883
 C1518 C 0.82500 -0.12881 0.32782
 C1519 C 0.81099 -0.12621 0.33012
 C1520 C 0.80427 -0.11464 0.32380
 C1521 C 0.80406 -0.09301 0.30807
 C1522 C 0.79056 -0.09459 0.30353
 C1523 C 0.78385 -0.08309 0.29708
 C1524 C 0.79052 -0.06980 0.29490
 C1525 C 0.80399 -0.06818 0.29943
 C1526 C 0.81066 -0.07962 0.30600
 C1527 C 0.78351 -0.05773 0.28777
 C1528 C 0.79017 -0.04994 0.27737
 C1529 C 0.78347 -0.03878 0.27040
 C1530 C 0.77001 -0.03508 0.27380
 C1531 C 0.76340 -0.04275 0.28434
 C1532 C 0.77006 -0.05402 0.29120
 H1533 H 0.83081 -0.10084 0.30554
 H1534 H 0.84271 -0.12015 0.31697
 H1535 H 0.80488 -0.13335 0.33640
 H1536 H 0.79358 -0.11300 0.32598
 H1537 H 0.78525 -0.10481 0.30472
 H1538 H 0.77353 -0.08468 0.29352
 H1539 H 0.80930 -0.05797 0.29803
 H1540 H 0.82095 -0.07791 0.30960
 H1541 H 0.80050 -0.05267 0.27445
 H1542 H 0.78884 -0.03307 0.26234
 H1543 H 0.75302 -0.04016 0.28718
 H1544 H 0.76474 -0.05978 0.29926
 C1545 C 0.31337 0.59825 0.68598
 C1546 C 0.30599 0.60871 0.67858
 C1547 C 0.31260 0.62044 0.67241
 C1548 C 0.32681 0.62194 0.67327
 C1549 C 0.33424 0.61131 0.68043
 C1550 C 0.32760 0.59966 0.68677
 C1551 C 0.30619 0.58609 0.69302
 C1552 C 0.31213 0.57220 0.69392
 C1553 C 0.30534 0.56085 0.70057
 C1554 C 0.29239 0.56309 0.70629
 C1555 C 0.28643 0.57691 0.70540
 C1556 C 0.29328 0.58830 0.69894
 C1557 C 0.28507 0.55108 0.71321
 C1558 C 0.27133 0.54839 0.71023
 C1559 C 0.26429 0.53730 0.71695
 C1560 C 0.27080 0.52880 0.72695
 C1561 C 0.28457 0.53147 0.72990
 C1562 C 0.29167 0.54243 0.72301
 H1563 H 0.29506 0.60787 0.67752
 H1564 H 0.30649 0.62850 0.66718
 H1565 H 0.34521 0.61198 0.68116
 H1566 H 0.33362 0.59192 0.69250
 H1567 H 0.32194 0.57001 0.68931
 H1568 H 0.31009 0.55024 0.70104
 H1569 H 0.27654 0.57896 0.70992
 H1570 H 0.28851 0.59890 0.69876
 H1571 H 0.26605 0.55485 0.70263
 H1572 H 0.25369 0.53552 0.71447
 H1573 H 0.28987 0.52507 0.73753
 H1574 H 0.30224 0.54436 0.72554
 C1575 C 0.31181 1.09783 0.18620
 C1576 C 0.32107 1.10628 0.19364
 C1577 C 0.32767 1.11805 0.18752
 C1578 C 0.32531 1.12171 0.17364
 C1579 C 0.31600 1.11301 0.16624
 C1580 C 0.30933 1.10131 0.17245
 C1581 C 0.30470 1.08549 0.19284
 C1582 C 0.29066 1.08347 0.19099
 C1583 C 0.28388 1.07211 0.19762
 C1584 C 0.29102 1.06245 0.20615
 C1585 C 0.30512 1.06436 0.20780
 C1586 C 0.31186 1.07579 0.20126
 C1587 C 0.28377 1.05056 0.21347
 C1588 C 0.28752 1.04671 0.22689
 C1589 C 0.28071 1.03560 0.23382
 C1590 C 0.26990 1.02815 0.22756
 C1591 C 0.26610 1.03201 0.21417
 C1592 C 0.27299 1.04305 0.20719
 H1593 H 0.32296 1.10401 0.20436
 H1594 H 0.33413 1.12456 0.19403
 H1595 H 0.31412 1.11472 0.15545
 H1596 H 0.30240 1.09480 0.16640
 H1597 H 0.28486 1.09090 0.18467
 H1598 H 0.27298 1.07111 0.19629
 H1599 H 0.31099 1.05696 0.21406
 H1600 H 0.32273 1.07698 0.20270
 H1601 H 0.29560 1.05243 0.23215
 H1602 H 0.28382 1.03295 0.24417
 H1603 H 0.25786 1.02642 0.20903
 H1604 H 0.26997 1.04558 0.19679
 C1605 C 0.81326 0.59997 0.18597
 C1606 C 0.82252 0.60867 0.19316
 C1607 C 0.82891 0.62040 0.18676
 C1608 C 0.82633 0.62378 0.17285
 C1609 C 0.81713 0.61473 0.16567
 C1610 C 0.81067 0.60308 0.17216
 C1611 C 0.80614 0.58787 0.19295
 C1612 C 0.79208 0.58594 0.19126
 C1613 C 0.78526 0.57482 0.19817
 C1614 C 0.79238 0.56528 0.20685
 C1615 C 0.80650 0.56713 0.20839
 C1616 C 0.81329 0.57834 0.20157
 C1617 C 0.78507 0.55358 0.21436
 C1618 C 0.78882 0.54987 0.22782
 C1619 C 0.78184 0.53901 0.23495
 C1620 C 0.77087 0.53169 0.22883
 C1621 C 0.76713 0.53536 0.21538
 C1622 C 0.77419 0.54613 0.20821
 H1623 H 0.82451 0.60666 0.20391
 H1624 H 0.83533 0.62715 0.19309
 H1625 H 0.81514 0.61617 0.15487
 H1626 H 0.80376 0.59634 0.16631
 H1627 H 0.78629 0.59326 0.18482
 H1628 H 0.77435 0.57389 0.19694
 H1629 H 0.81235 0.55982 0.21477
 H1630 H 0.82418 0.57949 0.20292
 H1631 H 0.79700 0.55555 0.23297
 H1632 H 0.78491 0.53649 0.24533
 H1633 H 0.75879 0.52984 0.21035
 H1634 H 0.77118 0.54851 0.19778
 C1635 C 0.81096 1.10497 0.68678
 C1636 C 0.81795 1.11533 0.69465
 C1637 C 0.82448 1.12704 0.68833
 C1638 C 0.82435 1.12853 0.67398
 C1639 C 0.81739 1.11807 0.66613
 C1640 C 0.81068 1.10649 0.67248
 C1641 C 0.80400 1.09261 0.69350
 C1642 C 0.79053 1.08908 0.69007
 C1643 C 0.78388 1.07759 0.69662
 C1644 C 0.79061 1.06924 0.70661
 C1645 C 0.80419 1.07269 0.70984
 C1646 C 0.81076 1.08432 0.70344
 C1647 C 0.78347 1.05712 0.71376
 C1648 C 0.78617 1.05414 0.72764
 C1649 C 0.77949 1.04283 0.73439
 C1650 C 0.76978 1.03434 0.72752
 C1651 C 0.76699 1.03731 0.71370
 C1652 C 0.77383 1.04850 0.70686
 H1653 H 0.81816 1.11448 0.70572
 H1654 H 0.82948 1.13502 0.69473
 H1655 H 0.81729 1.11868 0.65506
 H1656 H 0.80548 1.09854 0.66619
 H1657 H 0.78507 1.09543 0.68252
 H1658 H 0.77336 1.07546 0.69403
 H1659 H 0.80982 1.06632 0.71723
 H1660 H 0.82121 1.08672 0.70612
 H1661 H 0.79329 1.06071 0.73339
 H1662 H 0.78176 1.04089 0.74510
 H1663 H 0.75962 1.03088 0.70812
 H1664 H 0.77165 1.05028 0.69612
 C1665 C 0.68998 0.60189 0.31170
 C1666 C 0.67571 0.60297 0.31122
 C1667 C 0.66895 0.61433 0.31786
 C1668 C 0.67627 0.62504 0.32501
 C1669 C 0.69054 0.62401 0.32544
 C1670 C 0.69729 0.61254 0.31895
 C1671 C 0.69718 0.58976 0.30462
 C1672 C 0.70994 0.59202 0.29843
 C1673 C 0.71669 0.58064 0.29178
 C1674 C 0.71074 0.56681 0.29100
 C1675 C 0.69798 0.56450 0.29711
 C1676 C 0.69132 0.57581 0.30393
 C1677 C 0.71779 0.55484 0.28375
 C1678 C 0.71081 0.54634 0.27410
 C1679 C 0.71755 0.53525 0.26702
 C1680 C 0.73134 0.53231 0.26964
 C1681 C 0.73825 0.54069 0.27945
 C1682 C 0.73157 0.55193 0.28636
 H1683 H 0.66973 0.59512 0.30557
 H1684 H 0.65794 0.61462 0.31748
 H1685 H 0.69654 0.63215 0.33068
 H1686 H 0.70826 0.61197 0.31973
 H1687 H 0.71465 0.60265 0.29849
 H1688 H 0.72645 0.58272 0.28701
 H1689 H 0.69327 0.55387 0.29677
 H1690 H 0.68166 0.57356 0.30881
 H1691 H 0.70021 0.54845 0.27186
 H1692 H 0.71196 0.52895 0.25953
 H1693 H 0.74888 0.53870 0.28165
 H1694 H 0.73712 0.55829 0.29383
 C1695 C 0.68818 1.10130 0.81190
 C1696 C 0.69517 1.11051 0.82093
 C1697 C 0.68846 1.12191 0.82755
 C1698 C 0.67441 1.12447 0.82549
 C1699 C 0.66744 1.11495 0.81652
 C1700 C 0.67423 1.10364 0.80982
 C1701 C 0.69546 1.08941 0.80458
 C1702 C 0.68907 1.07598 0.80213
 C1703 C 0.69588 1.06491 0.79510
 C1704 C 0.70929 1.06696 0.79051
 C1705 C 0.71573 1.08031 0.79301
 C1706 C 0.70888 1.09143 0.79990
 C1707 C 0.71652 1.05527 0.78301
 C1708 C 0.73002 1.05173 0.78633
 C1709 C 0.73691 1.04083 0.77914
 C1710 C 0.73048 1.03338 0.76837
 C1711 C 0.71697 1.03693 0.76506
 C1712 C 0.71003 1.04770 0.77236
 H1713 H 0.70590 1.10894 0.82290
 H1714 H 0.69462 1.12901 0.83381
 H1715 H 0.65660 1.11580 0.81486
 H1716 H 0.66851 1.09680 0.80288
 H1717 H 0.67884 1.07394 0.80580
 H1718 H 0.69075 1.05465 0.79343
 H1719 H 0.72600 1.08223 0.78940
 H1720 H 0.71402 1.10172 0.80134
 H1721 H 0.73521 1.05732 0.79457
 H1722 H 0.74731 1.03835 0.78192
 H1723 H 0.71174 1.03136 0.75683
 H1724 H 0.69967 1.05032 0.76953
 C1725 C 0.18916 0.60037 0.80768
 C1726 C 0.19148 0.60318 0.82159
 C1727 C 0.18483 0.61464 0.82821
 C1728 C 0.17570 0.62380 0.82107
 C1729 C 0.17353 0.62084 0.80700
 C1730 C 0.18010 0.60928 0.80047
 C1731 C 0.19619 0.58816 0.80071
 C1732 C 0.18897 0.57877 0.79200
 C1733 C 0.19559 0.56724 0.78547
 C1734 C 0.20961 0.56491 0.78738
 C1735 C 0.21681 0.57437 0.79607
 C1736 C 0.21016 0.58581 0.80271
 C1737 C 0.21671 0.55276 0.78026
 C1738 C 0.22723 0.54507 0.78679
 C1739 C 0.23405 0.53382 0.78001
 C1740 C 0.23042 0.52990 0.76659
 C1741 C 0.21982 0.53747 0.76010
 C1742 C 0.21309 0.54880 0.76683
 H1743 H 0.19824 0.59629 0.82746
 H1744 H 0.18655 0.61576 0.83909
 H1745 H 0.16719 0.62771 0.80071
 H1746 H 0.17832 0.60750 0.78964
 H1747 H 0.17815 0.58023 0.79042
 H1748 H 0.18966 0.56003 0.77905
 H1749 H 0.22765 0.57309 0.79758
 H1750 H 0.21599 0.59301 0.80924
 H1751 H 0.23013 0.54763 0.79722
 H1752 H 0.24212 0.52814 0.78532
 H1753 H 0.21684 0.53478 0.74972
 H1754 H 0.20520 0.55463 0.76139
 C1755 C 0.18837 1.09655 0.31006
 C1756 C 0.17923 1.10512 0.30258
 C1757 C 0.17272 1.11696 0.30869
 C1758 C 0.17505 1.12060 0.32259
 C1759 C 0.18424 1.11176 0.33002
 C1760 C 0.19082 1.09999 0.32382
 C1761 C 0.19543 1.08416 0.30342
 C1762 C 0.20945 1.08205 0.30531
 C1763 C 0.21620 1.07067 0.29866
 C1764 C 0.20905 1.06108 0.29006
 C1765 C 0.19495 1.06307 0.28839
 C1766 C 0.18824 1.07452 0.29495
 C1767 C 0.21628 1.04923 0.28264
 C1768 C 0.21255 1.04551 0.26918
 C1769 C 0.21944 1.03455 0.26210
 C1770 C 0.23032 1.02712 0.26825
 C1771 C 0.23407 1.03080 0.28171
 C1772 C 0.22709 1.04169 0.28884
 H1773 H 0.17737 1.10287 0.29185
 H1774 H 0.16636 1.12356 0.30216
 H1775 H 0.18608 1.11343 0.34082
 H1776 H 0.19765 1.09339 0.32989
 H1777 H 0.21527 1.08943 0.31167
 H1778 H 0.22709 1.06962 0.30000
 H1779 H 0.18907 1.05572 0.28208
 H1780 H 0.17738 1.07578 0.29348
 H1781 H 0.20445 1.05126 0.26399
 H1782 H 0.21636 1.03205 0.25171
 H1783 H 0.24236 1.02521 0.28676
 H1784 H 0.23010 1.04411 0.29926
 C1785 C 0.68958 0.39993 0.68928
 C1786 C 0.67565 0.40072 0.68607
 C1787 C 0.66915 0.38921 0.67940
 C1788 C 0.67648 0.37674 0.67562
 C1789 C 0.69040 0.37593 0.67872
 C1790 C 0.69686 0.38735 0.68555
 C1791 C 0.69648 0.41214 0.69651
 C1792 C 0.71006 0.41575 0.69346
 C1793 C 0.71658 0.42708 0.70037
 C1794 C 0.70967 0.43522 0.71041
 C1795 C 0.69605 0.43170 0.71335
 C1796 C 0.68957 0.42026 0.70656
 C1797 C 0.71666 0.44721 0.71786
 C1798 C 0.71387 0.44985 0.73179
 C1799 C 0.72050 0.46102 0.73882
 C1800 C 0.73022 0.46969 0.73215
 C1801 C 0.73305 0.46708 0.71825
 C1802 C 0.72628 0.45604 0.71116
 H1803 H 0.66977 0.41032 0.68852
 H1804 H 0.65844 0.39015 0.67697
 H1805 H 0.69622 0.36634 0.67604
 H1806 H 0.70752 0.38621 0.68810
 H1807 H 0.71565 0.40990 0.68565
 H1808 H 0.72713 0.42932 0.69795
 H1809 H 0.69032 0.43784 0.72086
 H1810 H 0.67918 0.41768 0.70933
 H1811 H 0.70673 0.44312 0.73736
 H1812 H 0.71818 0.46269 0.74956
 H1813 H 0.74042 0.47367 0.71282
 H1814 H 0.72851 0.45453 0.70039
 C1815 C 0.68727 -0.10150 0.18944
 C1816 C 0.69452 -0.11207 0.18207
 C1817 C 0.68764 -0.12318 0.17521
 C1818 C 0.67334 -0.12385 0.17540
 C1819 C 0.66611 -0.11314 0.18272
 C1820 C 0.67301 -0.10216 0.18974
 C1821 C 0.69458 -0.08985 0.19685
 C1822 C 0.69125 -0.08657 0.21050
 C1823 C 0.69829 -0.07572 0.21757
 C1824 C 0.70870 -0.06777 0.21108
 C1825 C 0.71190 -0.07100 0.19735
 C1826 C 0.70498 -0.08199 0.19035
 C1827 C 0.71622 -0.05622 0.21862
 C1828 C 0.73017 -0.05391 0.21620
 C1829 C 0.73723 -0.04307 0.22326
 C1830 C 0.73057 -0.03443 0.23305
 C1831 C 0.71666 -0.03674 0.23555
 C1832 C 0.70955 -0.04744 0.22835
 H1833 H 0.70554 -0.11188 0.18183
 H1834 H 0.69356 -0.13138 0.16993
 H1835 H 0.65510 -0.11313 0.18288
 H1836 H 0.66719 -0.09402 0.19524
 H1837 H 0.68336 -0.09260 0.21577
 H1838 H 0.69572 -0.07375 0.22820
 H1839 H 0.71964 -0.06493 0.19192
 H1840 H 0.70761 -0.08422 0.17977
 H1841 H 0.73572 -0.06063 0.20900
 H1842 H 0.74798 -0.04162 0.22120
 H1843 H 0.71123 -0.03016 0.24296
 H1844 H 0.69877 -0.04870 0.23030
 C1845 C 0.18832 0.40203 0.18867
 C1846 C 0.18088 0.39191 0.19639
 C1847 C 0.17443 0.38022 0.18999
 C1848 C 0.17510 0.37850 0.17567
 C1849 C 0.18252 0.38872 0.16795
 C1850 C 0.18914 0.40030 0.17440
 C1851 C 0.19528 0.41428 0.19555
 C1852 C 0.20894 0.41745 0.19257
 C1853 C 0.21565 0.42868 0.19945
 C1854 C 0.20879 0.43711 0.20933
 C1855 C 0.19502 0.43406 0.21207
 C1856 C 0.18838 0.42270 0.20533
 C1857 C 0.21601 0.44885 0.21690
 C1858 C 0.21300 0.45161 0.23077
 C1859 C 0.21982 0.46255 0.23793
 C1860 C 0.22994 0.47086 0.23147
 C1861 C 0.23301 0.46811 0.21764
 C1862 C 0.22606 0.45730 0.21042
 H1863 H 0.18027 0.39291 0.20744
 H1864 H 0.16910 0.37241 0.19630
 H1865 H 0.18307 0.38789 0.15690
 H1866 H 0.19472 0.40805 0.16822
 H1867 H 0.21451 0.41100 0.18516
 H1868 H 0.22630 0.43052 0.19724
 H1869 H 0.18932 0.44050 0.21937
 H1870 H 0.17779 0.42057 0.20766
 H1871 H 0.20554 0.44515 0.23620
 H1872 H 0.21732 0.46433 0.24861
 H1873 H 0.24070 0.47442 0.21237
 H1874 H 0.22848 0.45568 0.19970
 C1875 C 0.18737 -0.09687 0.68949
 C1876 C 0.17349 -0.09614 0.68602
 C1877 C 0.16703 -0.10792 0.67973
 C1878 C 0.17433 -0.12061 0.67662
 C1879 C 0.18819 -0.12135 0.68000
 C1880 C 0.19462 -0.10966 0.68644
 C1881 C 0.19425 -0.08442 0.69634
 C1882 C 0.20789 -0.08106 0.69334
 C1883 C 0.21447 -0.06961 0.70001
 C1884 C 0.20755 -0.06110 0.70975
 C1885 C 0.19384 -0.06432 0.71261
 C1886 C 0.18731 -0.07587 0.70604
 C1887 C 0.21465 -0.04907 0.71704
 C1888 C 0.21182 -0.04614 0.73091
 C1889 C 0.21864 -0.03502 0.73783
 C1890 C 0.22858 -0.02669 0.73110
 C1891 C 0.23142 -0.02956 0.71725
 C1892 C 0.22447 -0.04056 0.71028
 H1893 H 0.16764 -0.08639 0.68798
 H1894 H 0.15636 -0.10703 0.67709
 H1895 H 0.19400 -0.13111 0.67787
 H1896 H 0.20522 -0.11076 0.68922
 H1897 H 0.21351 -0.08724 0.68577
 H1898 H 0.22507 -0.06760 0.69767
 H1899 H 0.18812 -0.05788 0.71989
 H1900 H 0.17685 -0.07823 0.70875
 H1901 H 0.20451 -0.05262 0.73653
 H1902 H 0.21631 -0.03314 0.74853
 H1903 H 0.23895 -0.02324 0.71176
 H1904 H 0.22674 -0.04231 0.69954
 C1905 C 0.31655 0.30516 0.40206
 C1906 C 0.32278 0.29686 0.39169
 C1907 C 0.32867 0.30358 0.38030
 C1908 C 0.32863 0.31880 0.37903
 C1909 C 0.32266 0.32712 0.38954
 C1910 C 0.31663 0.32039 0.40085
 C1911 C 0.30970 0.29799 0.41388
 C1912 C 0.30989 0.30439 0.42699
 C1913 C 0.30296 0.29795 0.43794
 C1914 C 0.29585 0.28488 0.43608
 C1915 C 0.29585 0.27831 0.42309
 C1916 C 0.30262 0.28483 0.41210
 C1917 C 0.28814 0.27827 0.44754
 C1918 C 0.28921 0.26334 0.45030
 C1919 C 0.28161 0.25705 0.46087
 C1920 C 0.27264 0.26554 0.46874
 C1921 C 0.27163 0.28050 0.46602
 C1922 C 0.27939 0.28682 0.45559
 H1923 H 0.32311 0.28512 0.39236
 H1924 H 0.33302 0.29681 0.37235
 H1925 H 0.32263 0.33887 0.38903
 H1926 H 0.31179 0.32716 0.40852
 H1927 H 0.31545 0.31435 0.42883
 H1928 H 0.30323 0.30314 0.44790
 H1929 H 0.29029 0.26831 0.42136
 H1930 H 0.30200 0.27973 0.40212
 H1931 H 0.29597 0.25655 0.44429
 H1932 H 0.28258 0.24549 0.46271
 H1933 H 0.26483 0.28732 0.47193
 H1934 H 0.27830 0.29834 0.45359
 C1935 C 0.31331 0.80985 -0.09757
 C1936 C 0.32079 0.80173 -0.10719
 C1937 C 0.32703 0.80853 -0.11835
 C1938 C 0.32608 0.82366 -0.12011
 C1939 C 0.31876 0.83181 -0.11039
 C1940 C 0.31240 0.82499 -0.09930
 C1941 C 0.30634 0.80254 -0.08592
 C1942 C 0.30553 0.80927 -0.07299
 C1943 C 0.29873 0.80251 -0.06214
 C1944 C 0.29272 0.78880 -0.06393
 C1945 C 0.29362 0.78199 -0.07677
 C1946 C 0.30029 0.78881 -0.08766
 C1947 C 0.28535 0.78169 -0.05250
 C1948 C 0.28744 0.76691 -0.04962
 C1949 C 0.28028 0.76014 -0.03901
 C1950 C 0.27076 0.76798 -0.03119
 C1951 C 0.26870 0.78278 -0.03407
 C1952 C 0.27599 0.78959 -0.04456
 H1953 H 0.32189 0.79008 -0.10609
 H1954 H 0.33243 0.80187 -0.12572
 H1955 H 0.31796 0.84351 -0.11131
 H1956 H 0.30659 0.83158 -0.09220
 H1957 H 0.31027 0.81971 -0.07119
 H1958 H 0.29830 0.80791 -0.05228
 H1959 H 0.28891 0.77150 -0.07847
 H1960 H 0.30046 0.78343 -0.09753
 H1961 H 0.29469 0.76061 -0.05553
 H1962 H 0.28208 0.74871 -0.03706
 H1963 H 0.26145 0.78911 -0.02821
 H1964 H 0.27411 0.80097 -0.04666
 C1965 C 0.81338 0.30807 -0.09409
 C1966 C 0.82063 0.29962 -0.10365
 C1967 C 0.82689 0.30608 -0.11496
 C1968 C 0.82621 0.32119 -0.11695
 C1969 C 0.81919 0.32968 -0.10726
 C1970 C 0.81280 0.32320 -0.09601
 C1971 C 0.80629 0.30111 -0.08230
 C1972 C 0.80565 0.30804 -0.06945
 C1973 C 0.79880 0.30155 -0.05848
 C1974 C 0.79260 0.28791 -0.06006
 C1975 C 0.79329 0.28093 -0.07284
 C1976 C 0.79998 0.28748 -0.08385
 C1977 C 0.78538 0.28095 -0.04845
 C1978 C 0.78749 0.26619 -0.04552
 C1979 C 0.78044 0.25948 -0.03482
 C1980 C 0.77100 0.26735 -0.02692
 C1981 C 0.76896 0.28216 -0.02980
 C1982 C 0.77615 0.28892 -0.04041
 H1983 H 0.82149 0.28797 -0.10238
 H1984 H 0.83207 0.29917 -0.12229
 H1985 H 0.81863 0.34137 -0.10834
 H1986 H 0.80719 0.33005 -0.08896
 H1987 H 0.81058 0.31841 -0.06782
 H1988 H 0.79854 0.30708 -0.04868
 H1989 H 0.78841 0.27051 -0.07437
 H1990 H 0.80000 0.28196 -0.09365
 H1991 H 0.79464 0.25984 -0.05149
 H1992 H 0.78223 0.24805 -0.03288
 H1993 H 0.76177 0.28852 -0.02388
 H1994 H 0.77428 0.30029 -0.04253
 C1995 C 0.81709 0.80453 0.40757
 C1996 C 0.82416 0.79607 0.39788
 C1997 C 0.83026 0.80254 0.38648
 C1998 C 0.82959 0.81766 0.38452
 C1999 C 0.82283 0.82616 0.39438
 C2000 C 0.81660 0.81968 0.40572
 C2001 C 0.80995 0.79755 0.41931
 C2002 C 0.80930 0.80444 0.43218
 C2003 C 0.80215 0.79811 0.44303
 C2004 C 0.79563 0.78466 0.44132
 C2005 C 0.79643 0.77764 0.42857
 C2006 C 0.80343 0.78404 0.41767
 C2007 C 0.78775 0.77809 0.45269
 C2008 C 0.78916 0.76327 0.45583
 C2009 C 0.78146 0.75701 0.46634
 C2010 C 0.77206 0.76541 0.47379
 C2011 C 0.77070 0.78025 0.47067
 C2012 C 0.77853 0.78654 0.46029
 H2013 H 0.82495 0.78441 0.39908
 H2014 H 0.83524 0.79561 0.37902
 H2015 H 0.82229 0.83786 0.39333
 H2016 H 0.81112 0.82653 0.41287
 H2017 H 0.81440 0.81471 0.43390
 H2018 H 0.80181 0.80365 0.45282
 H2019 H 0.79133 0.76735 0.42694
 H2020 H 0.80346 0.77855 0.40786
 H2021 H 0.79627 0.75655 0.45019
 H2022 H 0.78272 0.74555 0.46849
 H2023 H 0.76357 0.78701 0.47626
 H2024 H 0.77717 0.79797 0.45799
 C2025 C 0.68695 0.31054 0.59503
 C2026 C 0.68773 0.32561 0.59732
 C2027 C 0.68148 0.33189 0.60876
 C2028 C 0.67439 0.32324 0.61827
 C2029 C 0.67356 0.30819 0.61594
 C2030 C 0.67970 0.30194 0.60443
 C2031 C 0.69384 0.30380 0.58301
 C2032 C 0.70005 0.29007 0.58416
 C2033 C 0.70662 0.28376 0.57293
 C2034 C 0.70727 0.29108 0.56033
 C2035 C 0.70111 0.30479 0.55913
 C2036 C 0.69440 0.31105 0.57032
 C2037 C 0.71455 0.28450 0.54856
 C2038 C 0.72373 0.29278 0.54077
 C2039 C 0.73104 0.28642 0.53003
 C2040 C 0.72917 0.27167 0.52675
 C2041 C 0.71978 0.26347 0.53438
 C2042 C 0.71260 0.26979 0.54522
 H2043 H 0.69336 0.33256 0.59039
 H2044 H 0.68216 0.34354 0.61013
 H2045 H 0.66835 0.30116 0.62312
 H2046 H 0.67871 0.29033 0.60290
 H2047 H 0.70008 0.28430 0.59382
 H2048 H 0.71146 0.27327 0.57418
 H2049 H 0.70135 0.31058 0.54948
 H2050 H 0.68954 0.32150 0.56898
 H2051 H 0.72550 0.30411 0.54321
 H2052 H 0.73819 0.29303 0.52433
 H2053 H 0.71813 0.25208 0.53211
 H2054 H 0.70549 0.26321 0.55100
 C2055 C 0.68165 0.81179 1.09367
 C2056 C 0.67439 0.80312 1.10303
 C2057 C 0.66807 0.80932 1.11445
 C2058 C 0.66868 0.82439 1.11674
 C2059 C 0.67559 0.83312 1.10716
 C2060 C 0.68205 0.82689 1.09582
 C2061 C 0.68907 0.80503 1.08197
 C2062 C 0.69000 0.81212 1.06923
 C2063 C 0.69723 0.80584 1.05838
 C2064 C 0.70354 0.79225 1.05999
 C2065 C 0.70256 0.78512 1.07266
 C2066 C 0.69549 0.79147 1.08354
 C2067 C 0.71120 0.78551 1.04855
 C2068 C 0.70930 0.77078 1.04536
 C2069 C 0.71683 0.76424 1.03488
 C2070 C 0.72654 0.77226 1.02749
 C2071 C 0.72837 0.78705 1.03061
 C2072 C 0.72069 0.79364 1.04099
 H2073 H 0.67363 0.79148 1.10158
 H2074 H 0.66300 0.80222 1.12167
 H2075 H 0.67609 0.84479 1.10847
 H2076 H 0.68764 0.83391 1.08891
 H2077 H 0.68502 0.82246 1.06757
 H2078 H 0.69774 0.81149 1.04865
 H2079 H 0.70751 0.77473 1.07422
 H2080 H 0.69528 0.78584 1.09328
 H2081 H 0.70196 0.76432 1.05097
 H2082 H 0.71519 0.75283 1.03273
 H2083 H 0.73575 0.79351 1.02507
 H2084 H 0.72240 0.80500 1.04332
 C2085 C 0.18558 0.30822 1.09805
 C2086 C 0.18622 0.32336 1.09990
 C2087 C 0.18015 0.32991 1.11129
 C2088 C 0.17341 0.32149 1.12123
 C2089 C 0.17275 0.30635 1.11937
 C2090 C 0.17871 0.29981 1.10790
 C2091 C 0.19223 0.30124 1.08600
 C2092 C 0.19868 0.28765 1.08726
 C2093 C 0.20523 0.28129 1.07604
 C2094 C 0.20563 0.28844 1.06334
 C2095 C 0.19913 0.30195 1.06200
 C2096 C 0.19243 0.30824 1.07317
 C2097 C 0.21311 0.28199 1.05163
 C2098 C 0.22211 0.29051 1.04385
 C2099 C 0.22963 0.28433 1.03317
 C2100 C 0.22815 0.26953 1.02992
 C2101 C 0.21894 0.26107 1.03753
 C2102 C 0.21156 0.26722 1.04834
 H2103 H 0.19158 0.33017 1.09265
 H2104 H 0.18068 0.34162 1.11226
 H2105 H 0.16779 0.29951 1.12689
 H2106 H 0.17785 0.28815 1.10673
 H2107 H 0.19896 0.28207 1.09701
 H2108 H 0.21032 0.27095 1.07738
 H2109 H 0.19915 0.30760 1.05226
 H2110 H 0.18734 0.31856 1.07173
 H2111 H 0.22358 0.30190 1.04626
 H2112 H 0.23663 0.29113 1.02748
 H2113 H 0.21761 0.24963 1.03529
 H2114 H 0.20460 0.26045 1.05412
 C2115 C 0.18591 0.80912 0.59935
 C2116 C 0.18648 0.82426 0.60119
 C2117 C 0.18031 0.83081 0.61252
 C2118 C 0.17353 0.82237 0.62241
 C2119 C 0.17295 0.80723 0.62058
 C2120 C 0.17900 0.80069 0.60916
 C2121 C 0.19262 0.80215 0.58733
 C2122 C 0.19903 0.78854 0.58863
 C2123 C 0.20553 0.78212 0.57741
 C2124 C 0.20593 0.78923 0.56469
 C2125 C 0.19953 0.80278 0.56334
 C2126 C 0.19287 0.80913 0.57450
 C2127 C 0.21325 0.78263 0.55296
 C2128 C 0.22234 0.79097 0.54511
 C2129 C 0.22965 0.78463 0.53437
 C2130 C 0.22788 0.76986 0.53114
 C2131 C 0.21858 0.76160 0.53883
 C2132 C 0.21141 0.76790 0.54970
 H2133 H 0.19187 0.83109 0.59396
 H2134 H 0.18079 0.84252 0.61348
 H2135 H 0.16797 0.80037 0.62807
 H2136 H 0.17818 0.78903 0.60800
 H2137 H 0.19928 0.78296 0.59839
 H2138 H 0.21055 0.77174 0.57876
 H2139 H 0.19956 0.80840 0.55359
 H2140 H 0.18782 0.81947 0.57304
 H2141 H 0.22401 0.80233 0.54749
 H2142 H 0.23672 0.79128 0.52861
 H2143 H 0.21702 0.75019 0.53661
 H2144 H 0.20438 0.76127 0.55554
 C2145 C 0.31650 0.69284 0.59705
 C2146 C 0.32063 0.67819 0.59673
 C2147 C 0.32664 0.67176 0.60819
 C2148 C 0.32886 0.67989 0.62015
 C2149 C 0.32503 0.69458 0.62043
 C2150 C 0.31883 0.70096 0.60905
 C2151 C 0.30945 0.69951 0.58510
 C2152 C 0.31142 0.71424 0.58179
 C2153 C 0.30431 0.72064 0.57096
 C2154 C 0.29517 0.71243 0.56303
 C2155 C 0.29346 0.69762 0.56613
 C2156 C 0.30042 0.69128 0.57707
 C2157 C 0.28722 0.71933 0.55179
 C2158 C 0.27375 0.71496 0.54919
 C2159 C 0.26621 0.72144 0.53873
 C2160 C 0.27186 0.73261 0.53075
 C2161 C 0.28527 0.73707 0.53335
 C2162 C 0.29290 0.73044 0.54369
 H2163 H 0.31927 0.67168 0.58759
 H2164 H 0.32964 0.66045 0.60770
 H2165 H 0.32651 0.70101 0.62961
 H2166 H 0.31556 0.71216 0.60981
 H2167 H 0.31845 0.72088 0.58759
 H2168 H 0.30579 0.73211 0.56900
 H2169 H 0.28671 0.69087 0.56011
 H2170 H 0.29849 0.67996 0.57938
 H2171 H 0.26891 0.70670 0.55539
 H2172 H 0.25585 0.71787 0.53706
 H2173 H 0.28992 0.74559 0.52729
 H2174 H 0.30331 0.73392 0.54524
 C2175 C 0.31503 0.19315 1.09759
 C2176 C 0.31451 0.17796 1.09907
 C2177 C 0.32055 0.17116 1.11032
 C2178 C 0.32714 0.17938 1.12049
 C2179 C 0.32768 0.19457 1.11901
 C2180 C 0.32176 0.20136 1.10768
 C2181 C 0.30840 0.20037 1.08569
 C2182 C 0.30183 0.21386 1.08727
 C2183 C 0.29531 0.22046 1.07618
 C2184 C 0.29507 0.21365 1.06331
 C2185 C 0.30169 0.20025 1.06166
 C2186 C 0.30836 0.19372 1.07270
 C2187 C 0.28764 0.22035 1.05172
 C2188 C 0.27875 0.21196 1.04371
 C2189 C 0.27134 0.21834 1.03309
 C2190 C 0.27281 0.23321 1.03015
 C2191 C 0.28188 0.24155 1.03802
 C2192 C 0.28915 0.23519 1.04877
 H2193 H 0.30926 0.17129 1.09163
 H2194 H 0.32011 0.15943 1.11100
 H2195 H 0.33252 0.20127 1.12672
 H2196 H 0.32253 0.21306 1.10680
 H2197 H 0.30144 0.21919 1.09716
 H2198 H 0.29013 0.23072 1.07775
 H2199 H 0.30179 0.19486 1.05179
 H2200 H 0.31355 0.18350 1.07102
 H2201 H 0.27732 0.20051 1.04586
 H2202 H 0.26445 0.21163 1.02719
 H2203 H 0.28320 0.25303 1.03602
 H2204 H 0.29602 0.24186 1.05475
 C2205 C 0.81223 0.69427 1.09677
 C2206 C 0.81240 0.67908 1.09826
 C2207 C 0.81895 0.67261 1.10939
 C2208 C 0.82537 0.68116 1.11943
 C2209 C 0.82525 0.69635 1.11793
 C2210 C 0.81883 0.70282 1.10670
 C2211 C 0.80508 0.70116 1.08500
 C2212 C 0.79813 0.71442 1.08668
 C2213 C 0.79135 0.72085 1.07566
 C2214 C 0.79122 0.71409 1.06276
 C2215 C 0.79808 0.70084 1.06104
 C2216 C 0.80502 0.69449 1.07201
 C2217 C 0.78391 0.72086 1.05115
 C2218 C 0.77512 0.71258 1.04292
 C2219 C 0.76799 0.71908 1.03216
 C2220 C 0.76967 0.73394 1.02929
 C2221 C 0.77861 0.74216 1.03743
 C2222 C 0.78558 0.73571 1.04830
 H2223 H 0.80729 0.67214 1.09094
 H2224 H 0.81902 0.66087 1.11009
 H2225 H 0.82994 0.70330 1.12553
 H2226 H 0.81910 0.71454 1.10579
 H2227 H 0.79771 0.71973 1.09657
 H2228 H 0.78598 0.73099 1.07728
 H2229 H 0.79826 0.69551 1.05115
 H2230 H 0.81047 0.68444 1.07025
 H2231 H 0.77359 0.70113 1.04498
 H2232 H 0.76119 0.71247 1.02605
 H2233 H 0.78010 0.75364 1.03549
 H2234 H 0.79238 0.74229 1.05444
 C2235 C 0.81613 0.19657 0.59454
 C2236 C 0.82319 0.20503 0.60420
 C2237 C 0.82902 0.19861 0.61576
 C2238 C 0.82805 0.18353 0.61789
 C2239 C 0.82117 0.17504 0.60813
 C2240 C 0.81523 0.18149 0.59664
 C2241 C 0.80950 0.20348 0.58248
 C2242 C 0.80911 0.19631 0.56974
 C2243 C 0.80244 0.20257 0.55856
 C2244 C 0.79616 0.21621 0.55983
 C2245 C 0.79674 0.22352 0.57245
 C2246 C 0.80326 0.21719 0.58367
 C2247 C 0.78869 0.22265 0.54814
 C2248 C 0.79040 0.23736 0.54472
 C2249 C 0.78301 0.24351 0.53395
 C2250 C 0.77363 0.23511 0.52652
 C2251 C 0.77200 0.22037 0.52989
 C2252 C 0.77952 0.21418 0.54053
 H2253 H 0.82426 0.21665 0.60282
 H2254 H 0.83409 0.20551 0.62314
 H2255 H 0.82040 0.16338 0.60933
 H2256 H 0.80972 0.17465 0.58953
 H2257 H 0.81402 0.18588 0.56836
 H2258 H 0.80227 0.19680 0.54889
 H2259 H 0.79182 0.23396 0.57373
 H2260 H 0.80313 0.22291 0.59336
 H2261 H 0.79749 0.24409 0.55037
 H2262 H 0.78446 0.25491 0.53161
 H2263 H 0.76487 0.21361 0.52434
 H2264 H 0.77793 0.20284 0.54304
 C2265 C 0.68327 0.69066 0.40621
 C2266 C 0.68372 0.67553 0.40416
 C2267 C 0.67761 0.66923 0.39268
 C2268 C 0.67101 0.67790 0.38286
 C2269 C 0.67040 0.69300 0.38501
 C2270 C 0.67637 0.69928 0.39656
 C2271 C 0.69026 0.69745 0.41813
 C2272 C 0.69681 0.71097 0.41674
 C2273 C 0.70360 0.71726 0.42782
 C2274 C 0.70413 0.71012 0.44051
 C2275 C 0.69760 0.69664 0.44196
 C2276 C 0.69067 0.69041 0.43092
 C2277 C 0.71171 0.71663 0.45211
 C2278 C 0.72078 0.70817 0.45984
 C2279 C 0.72836 0.71445 0.47041
 C2280 C 0.72689 0.72927 0.47357
 C2281 C 0.71762 0.73766 0.46599
 C2282 C 0.71017 0.73142 0.45531
 H2283 H 0.68906 0.66856 0.41128
 H2284 H 0.67812 0.65755 0.39147
 H2285 H 0.66556 0.70005 0.37760
 H2286 H 0.67561 0.71093 0.39790
 H2287 H 0.69697 0.71657 0.40699
 H2288 H 0.70872 0.72757 0.42638
 H2289 H 0.69774 0.69099 0.45170
 H2290 H 0.68554 0.68013 0.43245
 H2291 H 0.72223 0.69677 0.45750
 H2292 H 0.73540 0.70770 0.47608
 H2293 H 0.71627 0.74911 0.46817
 H2294 H 0.70316 0.73815 0.44956
 C2295 C 0.68416 0.19160 -0.09534
 C2296 C 0.68401 0.17645 -0.09720
 C2297 C 0.67773 0.17028 -0.10864
 C2298 C 0.67158 0.17911 -0.11864
 C2299 C 0.67158 0.19425 -0.11670
 C2300 C 0.67771 0.20040 -0.10516
 C2301 C 0.69128 0.19819 -0.08339
 C2302 C 0.69829 0.21145 -0.08478
 C2303 C 0.70516 0.21754 -0.07366
 C2304 C 0.70536 0.21044 -0.06094
 C2305 C 0.69842 0.19720 -0.05949
 C2306 C 0.69137 0.19120 -0.07056
 C2307 C 0.71288 0.21682 -0.04927
 C2308 C 0.72183 0.20826 -0.04148
 C2309 C 0.72930 0.21444 -0.03077
 C2310 C 0.72780 0.22924 -0.02753
 C2311 C 0.71866 0.23771 -0.03519
 C2312 C 0.71136 0.23159 -0.04601
 H2313 H 0.68899 0.16931 -0.08996
 H2314 H 0.67773 0.15857 -0.10966
 H2315 H 0.66708 0.20140 -0.12424
 H2316 H 0.67740 0.21209 -0.10396
 H2317 H 0.69871 0.21700 -0.09455
 H2318 H 0.71059 0.22767 -0.07508
 H2319 H 0.69830 0.19161 -0.04973
 H2320 H 0.68589 0.18113 -0.06902
 H2321 H 0.72324 0.19686 -0.04386
 H2322 H 0.73625 0.20764 -0.02503
 H2323 H 0.71731 0.24915 -0.03295
 H2324 H 0.70444 0.23837 -0.05181
 C2325 C 0.18498 0.69046 -0.09894
 C2326 C 0.17765 0.69893 -0.10838
 C2327 C 0.17165 0.69254 -0.11987
 C2328 C 0.17267 0.67749 -0.12214
 C2329 C 0.17981 0.66898 -0.11258
 C2330 C 0.18594 0.67539 -0.10117
 C2331 C 0.19178 0.69735 -0.08696
 C2332 C 0.19247 0.69013 -0.07427
 C2333 C 0.19917 0.69647 -0.06314
 C2334 C 0.20519 0.71024 -0.06441
 C2335 C 0.20438 0.71755 -0.07700
 C2336 C 0.19782 0.71115 -0.08817
 C2337 C 0.21255 0.71686 -0.05273
 C2338 C 0.21050 0.73153 -0.04931
 C2339 C 0.21776 0.73789 -0.03856
 C2340 C 0.22734 0.72975 -0.03113
 C2341 C 0.22930 0.71504 -0.03449
 C2342 C 0.22192 0.70864 -0.04513
 H2343 H 0.17652 0.71052 -0.10690
 H2344 H 0.16638 0.69946 -0.12709
 H2345 H 0.18065 0.65733 -0.11390
 H2346 H 0.19164 0.66855 -0.09422
 H2347 H 0.18773 0.67962 -0.07288
 H2348 H 0.19954 0.69068 -0.05349
 H2349 H 0.20911 0.72810 -0.07829
 H2350 H 0.19774 0.71692 -0.09783
 H2351 H 0.20326 0.73807 -0.05495
 H2352 H 0.21604 0.74925 -0.03622
 H2353 H 0.23659 0.70848 -0.02894
 H2354 H 0.22376 0.69735 -0.04764
 C2355 C 0.18538 0.19118 0.39942
 C2356 C 0.18581 0.17601 0.39774
 C2357 C 0.17982 0.16943 0.38634
 C2358 C 0.17338 0.17785 0.37622
 C2359 C 0.17293 0.19302 0.37791
 C2360 C 0.17880 0.19960 0.38939
 C2361 C 0.19196 0.19818 0.41149
 C2362 C 0.19863 0.21163 0.41017
 C2363 C 0.20512 0.21800 0.42140
 C2364 C 0.20523 0.21098 0.43417
 C2365 C 0.19849 0.19761 0.43557
 C2366 C 0.19186 0.19133 0.42438
 C2367 C 0.21266 0.21740 0.44591
 C2368 C 0.22140 0.20877 0.45386
 C2369 C 0.22882 0.21489 0.46461
 C2370 C 0.22751 0.22973 0.46776
 C2371 C 0.21858 0.23831 0.45996
 C2372 C 0.21130 0.23222 0.44907
 H2373 H 0.19095 0.16919 0.40513
 H2374 H 0.18019 0.15771 0.38550
 H2375 H 0.16820 0.19987 0.37026
 H2376 H 0.17811 0.21128 0.39043
 H2377 H 0.19914 0.21711 0.40036
 H2378 H 0.21039 0.22823 0.42003
 H2379 H 0.19828 0.19207 0.44535
 H2380 H 0.18659 0.18112 0.42586
 H2381 H 0.22271 0.19734 0.45155
 H2382 H 0.23560 0.20800 0.47045
 H2383 H 0.21738 0.24979 0.46212
 H2384 H 0.20455 0.23908 0.44315
 C2385 C 0.30999 0.39653 0.68580
 C2386 C 0.30268 0.38391 0.68232
 C2387 C 0.30916 0.37225 0.67584
 C2388 C 0.32312 0.37287 0.67286
 C2389 C 0.33045 0.38543 0.67631
 C2390 C 0.32395 0.39717 0.68262
 C2391 C 0.30313 0.40892 0.69281
 C2392 C 0.31005 0.41718 0.70274
 C2393 C 0.30363 0.42880 0.70933
 C2394 C 0.29005 0.43237 0.70631
 C2395 C 0.28311 0.42409 0.69642
 C2396 C 0.28959 0.41258 0.68971
 C2397 C 0.28314 0.44460 0.71351
 C2398 C 0.27363 0.45338 0.70662
 C2399 C 0.26693 0.46465 0.71346
 C2400 C 0.26972 0.46756 0.72731
 C2401 C 0.27934 0.45895 0.73417
 C2402 C 0.28590 0.44755 0.72739
 H2403 H 0.29199 0.38290 0.68483
 H2404 H 0.30333 0.36260 0.67340
 H2405 H 0.34120 0.38623 0.67396
 H2406 H 0.32985 0.40681 0.68487
 H2407 H 0.32042 0.41457 0.70556
 H2408 H 0.30938 0.43504 0.71673
 H2409 H 0.27259 0.42637 0.69396
 H2410 H 0.28399 0.40662 0.68200
 H2411 H 0.27143 0.45164 0.69588
 H2412 H 0.25964 0.47118 0.70787
 H2413 H 0.28161 0.46085 0.74488
 H2414 H 0.29296 0.44087 0.73311
 C2415 C 0.31311 0.89986 0.18261
 C2416 C 0.30581 0.88945 0.17506
 C2417 C 0.31253 0.87794 0.16862
 C2418 C 0.32677 0.87664 0.16938
 C2419 C 0.33411 0.88726 0.17663
 C2420 C 0.32737 0.89868 0.18322
 C2421 C 0.30584 0.91170 0.19004
 C2422 C 0.31158 0.92566 0.19121
 C2423 C 0.30477 0.93666 0.19835
 C2424 C 0.29201 0.93400 0.20432
 C2425 C 0.28623 0.92012 0.20313
 C2426 C 0.29310 0.90907 0.19616
 C2427 C 0.28471 0.94562 0.21182
 C2428 C 0.27086 0.94819 0.20931
 C2429 C 0.26388 0.95900 0.21652
 C2430 C 0.27058 0.96732 0.22653
 C2431 C 0.28446 0.96474 0.22904
 C2432 C 0.29148 0.95407 0.22167
 H2433 H 0.29486 0.89014 0.17414
 H2434 H 0.30650 0.86988 0.16331
 H2435 H 0.34510 0.88674 0.17726
 H2436 H 0.33333 0.90640 0.18905
 H2437 H 0.32125 0.92816 0.18645
 H2438 H 0.30937 0.94733 0.19903
 H2439 H 0.27648 0.91775 0.20782
 H2440 H 0.28850 0.89839 0.19577
 H2441 H 0.26545 0.94189 0.20169
 H2442 H 0.25320 0.96072 0.21438
 H2443 H 0.28989 0.97101 0.23667
 H2444 H 0.30214 0.95221 0.22385
 C2445 C 0.81226 0.40247 0.18529
 C2446 C 0.80504 0.38969 0.18217
 C2447 C 0.81156 0.37796 0.17589
 C2448 C 0.82548 0.37865 0.17272
 C2449 C 0.83274 0.39136 0.17580
 C2450 C 0.82618 0.40319 0.18193
 C2451 C 0.80531 0.41484 0.19224
 C2452 C 0.81217 0.42325 0.20209
 C2453 C 0.80550 0.43454 0.20893
 C2454 C 0.79174 0.43762 0.20623
 C2455 C 0.78492 0.42930 0.19630
 C2456 C 0.79164 0.41812 0.18933
 C2457 C 0.78447 0.44929 0.21389
 C2458 C 0.77446 0.45780 0.20744
 C2459 C 0.76743 0.46851 0.21474
 C2460 C 0.77037 0.47110 0.22861
 C2461 C 0.78045 0.46273 0.23504
 C2462 C 0.78735 0.45189 0.22780
 H2463 H 0.79441 0.38858 0.18487
 H2464 H 0.80579 0.36818 0.17381
 H2465 H 0.84346 0.39218 0.17335
 H2466 H 0.83201 0.41294 0.18395
 H2467 H 0.82264 0.42094 0.20472
 H2468 H 0.81115 0.44087 0.21634
 H2469 H 0.77429 0.43121 0.19405
 H2470 H 0.78608 0.41205 0.18166
 H2471 H 0.77214 0.45631 0.19669
 H2472 H 0.75979 0.47489 0.20948
 H2473 H 0.78287 0.46441 0.24575
 H2474 H 0.79479 0.44538 0.23320
 C2475 C 0.81033 0.90154 0.68642
 C2476 C 0.80291 0.89056 0.67974
 C2477 C 0.80955 0.87871 0.67377
 C2478 C 0.82382 0.87761 0.67414
 C2479 C 0.83125 0.88867 0.68069
 C2480 C 0.82460 0.90042 0.68682
 C2481 C 0.80324 0.91403 0.69304
 C2482 C 0.80915 0.92797 0.69310
 C2483 C 0.80262 0.93961 0.69957
 C2484 C 0.78994 0.93763 0.70593
 C2485 C 0.78393 0.92380 0.70575
 C2486 C 0.79054 0.91211 0.69948
 C2487 C 0.78304 0.94990 0.71287
 C2488 C 0.76921 0.95271 0.71045
 C2489 C 0.76262 0.96411 0.71721
 C2490 C 0.76969 0.97276 0.72670
 C2491 C 0.78354 0.96997 0.72908
 C2492 C 0.79018 0.95872 0.72214
 H2493 H 0.79193 0.89115 0.67903
 H2494 H 0.80346 0.87032 0.66899
 H2495 H 0.84225 0.88832 0.68100
 H2496 H 0.83066 0.90852 0.69203
 H2497 H 0.81877 0.92996 0.68803
 H2498 H 0.80738 0.95022 0.69945
 H2499 H 0.77423 0.92197 0.71075
 H2500 H 0.78580 0.90151 0.69990
 H2501 H 0.76353 0.94611 0.70326
 H2502 H 0.75193 0.96597 0.71520
 H2503 H 0.78925 0.97648 0.73632
 H2504 H 0.80084 0.95670 0.72424
 C2505 C 0.68769 0.60070 0.69152
 C2506 C 0.68393 0.61328 0.69883
 C2507 C 0.67712 0.62466 0.69228
 C2508 C 0.67409 0.62381 0.67825
 C2509 C 0.67791 0.61135 0.67090
 C2510 C 0.68455 0.59988 0.67747
 C2511 C 0.69485 0.58853 0.69852
 C2512 C 0.70488 0.58042 0.69163
 C2513 C 0.71159 0.56900 0.69820
 C2514 C 0.70857 0.56547 0.71189
 C2515 C 0.69856 0.57360 0.71879
 C2516 C 0.69174 0.58491 0.71217
 C2517 C 0.71589 0.55346 0.71897
 C2518 C 0.70914 0.54462 0.72858
 C2519 C 0.71609 0.53355 0.73544
 C2520 C 0.72990 0.53092 0.73272
 C2521 C 0.73663 0.53960 0.72300
 C2522 C 0.72974 0.55079 0.71628
 H2523 H 0.68640 0.61445 0.70957
 H2524 H 0.67442 0.63424 0.69813
 H2525 H 0.67554 0.61038 0.66010
 H2526 H 0.68703 0.59027 0.67157
 H2527 H 0.70769 0.58300 0.68118
 H2528 H 0.71909 0.56286 0.69248
 H2529 H 0.69609 0.57136 0.72940
 H2530 H 0.68393 0.59075 0.71776
 H2531 H 0.69842 0.54615 0.73073
 H2532 H 0.71060 0.52697 0.74280
 H2533 H 0.74731 0.53790 0.72077
 H2534 H 0.73535 0.55752 0.70915
 C2535 C 0.68897 0.09480 0.19044
 C2536 C 0.68204 0.10557 0.19794
 C2537 C 0.67536 0.11692 0.19126
 C2538 C 0.67524 0.11771 0.17686
 C2539 C 0.68195 0.10680 0.16935
 C2540 C 0.68880 0.09555 0.17604
 C2541 C 0.69643 0.08294 0.19762
 C2542 C 0.69700 0.06883 0.19206
 C2543 C 0.70402 0.05775 0.19884
 C2544 C 0.71043 0.06048 0.21142
 C2545 C 0.70988 0.07451 0.21701
 C2546 C 0.70305 0.08565 0.21015
 C2547 C 0.71757 0.04870 0.21880
 C2548 C 0.71504 0.04635 0.23279
 C2549 C 0.72176 0.03526 0.23981
 C2550 C 0.73133 0.02645 0.23304
 C2551 C 0.73392 0.02885 0.21905
 C2552 C 0.72700 0.03980 0.21197
 H2553 H 0.68172 0.10523 0.20903
 H2554 H 0.67048 0.12521 0.19741
 H2555 H 0.68191 0.10692 0.15825
 H2556 H 0.69414 0.08757 0.16991
 H2557 H 0.69184 0.06626 0.18258
 H2558 H 0.70420 0.04696 0.19441
 H2559 H 0.71490 0.07691 0.22662
 H2560 H 0.70313 0.09642 0.21460
 H2561 H 0.70774 0.05302 0.23824
 H2562 H 0.71959 0.03370 0.25060
 H2563 H 0.74121 0.02219 0.21357
 H2564 H 0.72917 0.04147 0.20120
 C2565 C 0.18896 0.60113 0.18994
 C2566 C 0.18169 0.61181 0.19722
 C2567 C 0.17519 0.62316 0.19032
 C2568 C 0.17563 0.62404 0.17594
 C2569 C 0.18282 0.61330 0.16865
 C2570 C 0.18947 0.60206 0.17556
 C2571 C 0.19600 0.58911 0.19729
 C2572 C 0.19676 0.57511 0.19151
 C2573 C 0.20350 0.56388 0.19835
 C2574 C 0.20944 0.56633 0.21120
 C2575 C 0.20862 0.58022 0.21707
 C2576 C 0.20206 0.59152 0.21015
 C2577 C 0.21653 0.55443 0.21848
 C2578 C 0.21372 0.55164 0.23234
 C2579 C 0.22042 0.54041 0.23922
 C2580 C 0.23022 0.53192 0.23242
 C2581 C 0.23306 0.53476 0.21856
 C2582 C 0.22619 0.54583 0.21162
 H2583 H 0.18089 0.61136 0.20828
 H2584 H 0.16993 0.63133 0.19631
 H2585 H 0.18322 0.61348 0.15757
 H2586 H 0.19512 0.59419 0.16959
 H2587 H 0.19199 0.57274 0.18177
 H2588 H 0.20388 0.55320 0.19369
 H2589 H 0.21327 0.58241 0.22692
 H2590 H 0.20195 0.60219 0.21481
 H2591 H 0.20624 0.55807 0.23781
 H2592 H 0.21805 0.53850 0.24991
 H2593 H 0.24054 0.52837 0.21305
 H2594 H 0.22858 0.54785 0.20095
 C2595 C 0.18791 0.10515 0.69097
 C2596 C 0.19551 0.11567 0.68384
 C2597 C 0.18904 0.12715 0.67713
 C2598 C 0.17478 0.12831 0.67718
 C2599 C 0.16716 0.11777 0.68425
 C2600 C 0.17365 0.10638 0.69112
 C2601 C 0.19484 0.09293 0.69815
 C2602 C 0.18891 0.07902 0.69862
 C2603 C 0.19547 0.06756 0.70530
 C2604 C 0.20820 0.06970 0.71148
 C2605 C 0.21417 0.08355 0.71102
 C2606 C 0.20752 0.09506 0.70453
 C2607 C 0.21530 0.05753 0.71833
 C2608 C 0.22908 0.05478 0.71556
 C2609 C 0.23584 0.04338 0.72210
 C2610 C 0.22901 0.03464 0.73170
 C2611 C 0.21521 0.03740 0.73447
 C2612 C 0.20839 0.04867 0.72776
 H2613 H 0.20649 0.11498 0.68330
 H2614 H 0.19526 0.13517 0.67198
 H2615 H 0.15616 0.11819 0.68437
 H2616 H 0.16745 0.09863 0.69666
 H2617 H 0.17929 0.07688 0.69362
 H2618 H 0.19074 0.05693 0.70541
 H2619 H 0.22390 0.08550 0.71588
 H2620 H 0.21228 0.10566 0.70466
 H2621 H 0.23459 0.06141 0.70825
 H2622 H 0.24649 0.04154 0.71978
 H2623 H 0.20967 0.03082 0.74180
 H2624 H 0.19777 0.05064 0.73011
 C2625 C 0.31172 0.59919 0.31616
 C2626 C 0.30440 0.61007 0.32312
 C2627 C 0.31116 0.62155 0.32954
 C2628 C 0.32545 0.62235 0.32938
 C2629 C 0.33279 0.61132 0.32266
 C2630 C 0.32602 0.59995 0.31606
 C2631 C 0.30447 0.58724 0.30890
 C2632 C 0.31002 0.57315 0.30833
 C2633 C 0.30327 0.56203 0.30133
 C2634 C 0.29075 0.56470 0.29493
 C2635 C 0.28512 0.57869 0.29555
 C2636 C 0.29195 0.58987 0.30236
 C2637 C 0.28355 0.55295 0.28755
 C2638 C 0.26967 0.55043 0.28996
 C2639 C 0.26281 0.53946 0.28287
 C2640 C 0.26966 0.53097 0.27307
 C2641 C 0.28356 0.53351 0.27066
 C2642 C 0.29047 0.54432 0.27792
 H2643 H 0.29340 0.60974 0.32364
 H2644 H 0.30514 0.62993 0.33443
 H2645 H 0.34380 0.61144 0.32249
 H2646 H 0.33201 0.59189 0.31068
 H2647 H 0.31949 0.57063 0.31345
 H2648 H 0.30773 0.55126 0.30109
 H2649 H 0.27555 0.58105 0.29054
 H2650 H 0.28750 0.60063 0.30229
 H2651 H 0.26415 0.55689 0.29740
 H2652 H 0.25209 0.53777 0.28492
 H2653 H 0.28910 0.52710 0.26319
 H2654 H 0.30116 0.54614 0.27585
 C2655 C 0.31108 0.10425 0.81203
 C2656 C 0.31465 0.11681 0.80462
 C2657 C 0.32143 0.12829 0.81103
 C2658 C 0.32463 0.12758 0.82502
 C2659 C 0.32098 0.11514 0.83249
 C2660 C 0.31437 0.10356 0.82605
 C2661 C 0.30398 0.09194 0.80516
 C2662 C 0.29411 0.08375 0.81219
 C2663 C 0.28744 0.07222 0.80573
 C2664 C 0.29034 0.06867 0.79201
 C2665 C 0.30019 0.07687 0.78498
 C2666 C 0.30698 0.08829 0.79149
 C2667 C 0.28303 0.05657 0.78502
 C2668 C 0.28973 0.04780 0.77530
 C2669 C 0.28276 0.03672 0.76847
 C2670 C 0.26898 0.03401 0.77134
 C2671 C 0.26233 0.04259 0.78119
 C2672 C 0.26924 0.05380 0.78789
 H2673 H 0.31204 0.11788 0.79390
 H2674 H 0.32400 0.13785 0.80509
 H2675 H 0.32349 0.11428 0.84326
 H2676 H 0.31203 0.09398 0.83203
 H2677 H 0.29139 0.08635 0.82266
 H2678 H 0.28007 0.06603 0.81155
 H2679 H 0.30257 0.07461 0.77435
 H2680 H 0.31466 0.09418 0.78580
 H2681 H 0.30040 0.04941 0.77302
 H2682 H 0.28818 0.03021 0.76100
 H2683 H 0.25168 0.04083 0.78353
 H2684 H 0.26367 0.06047 0.79511
 C2685 C 0.81130 0.60002 0.81497
 C2686 C 0.80403 0.61045 0.82256
 C2687 C 0.81075 0.62207 0.82880
 C2688 C 0.82497 0.62349 0.82777
 C2689 C 0.83227 0.61293 0.82036
 C2690 C 0.82552 0.60140 0.81398
 C2691 C 0.80407 0.58787 0.80798
 C2692 C 0.81006 0.57402 0.80695
 C2693 C 0.80334 0.56271 0.80019
 C2694 C 0.79041 0.56495 0.79448
 C2695 C 0.78435 0.57871 0.79559
 C2696 C 0.79113 0.59007 0.80218
 C2697 C 0.78328 0.55301 0.78727
 C2698 C 0.76952 0.55012 0.79002
 C2699 C 0.76273 0.53899 0.78309
 C2700 C 0.76952 0.53067 0.77311
 C2701 C 0.78330 0.53357 0.77037
 C2702 C 0.79014 0.54456 0.77746
 H2703 H 0.79311 0.60963 0.82375
 H2704 H 0.80476 0.63008 0.83425
 H2705 H 0.84324 0.61354 0.81951
 H2706 H 0.83146 0.59371 0.80808
 H2707 H 0.81988 0.57183 0.81150
 H2708 H 0.80816 0.55214 0.79958
 H2709 H 0.77446 0.58075 0.79111
 H2710 H 0.78632 0.60064 0.80250
 H2711 H 0.76404 0.55642 0.79762
 H2712 H 0.75211 0.53703 0.78540
 H2713 H 0.78880 0.52732 0.76276
 H2714 H 0.80073 0.54665 0.77509
 C2715 C 0.81200 0.09716 0.31331
 C2716 C 0.82628 0.09812 0.31333
 C2717 C 0.83285 0.10991 0.31948
 C2718 C 0.82530 0.12116 0.32562
 C2719 C 0.81102 0.12018 0.32562
 C2720 C 0.80447 0.10829 0.31967
 C2721 C 0.80495 0.08473 0.30658
 C2722 C 0.79242 0.08681 0.29989
 C2723 C 0.78573 0.07517 0.29367
 C2724 C 0.79150 0.06123 0.29377
 C2725 C 0.80406 0.05910 0.30029
 C2726 C 0.81067 0.07070 0.30672
 C2727 C 0.78443 0.04899 0.28702
 C2728 C 0.79139 0.04002 0.27771
 C2729 C 0.78454 0.02882 0.27091
 C2730 C 0.77067 0.02625 0.27349
 C2731 C 0.76380 0.03507 0.28302
 C2732 C 0.77059 0.04641 0.28962
 H2733 H 0.83244 0.08988 0.30839
 H2734 H 0.84386 0.11017 0.31945
 H2735 H 0.80484 0.12872 0.33005
 H2736 H 0.79348 0.10783 0.32010
 H2737 H 0.78785 0.09749 0.29926
 H2738 H 0.77613 0.07710 0.28854
 H2739 H 0.80864 0.04840 0.30059
 H2740 H 0.82016 0.06860 0.31197
 H2741 H 0.80205 0.04187 0.27549
 H2742 H 0.79009 0.02217 0.26365
 H2743 H 0.75311 0.03337 0.28517
 H2744 H 0.76505 0.05315 0.29683
 C2745 C 0.68756 0.40158 0.31012
 C2746 C 0.68366 0.38923 0.30257
 C2747 C 0.67695 0.37767 0.30894
 C2748 C 0.67416 0.37810 0.32304
 C2749 C 0.67808 0.39034 0.33065
 C2750 C 0.68462 0.40200 0.32425
 C2751 C 0.69471 0.41388 0.30331
 C2752 C 0.70486 0.42175 0.31023
 C2753 C 0.71167 0.43319 0.30377
 C2754 C 0.70864 0.43696 0.29015
 C2755 C 0.69848 0.42909 0.28323
 C2756 C 0.69155 0.41778 0.28975
 C2757 C 0.71610 0.44892 0.28312
 C2758 C 0.70946 0.45789 0.27356
 C2759 C 0.71657 0.46882 0.26666
 C2760 C 0.73042 0.47120 0.26930
 C2761 C 0.73704 0.46245 0.27901
 C2762 C 0.72999 0.45137 0.28577
 H2763 H 0.68600 0.38834 0.29176
 H2764 H 0.67418 0.36825 0.30290
 H2765 H 0.67591 0.39096 0.34152
 H2766 H 0.68721 0.41142 0.33035
 H2767 H 0.70772 0.41896 0.32061
 H2768 H 0.71927 0.43913 0.30951
 H2769 H 0.69599 0.43151 0.27267
 H2770 H 0.68366 0.41215 0.28415
 H2771 H 0.69872 0.45656 0.27146
 H2772 H 0.71117 0.47550 0.25932
 H2773 H 0.74775 0.46397 0.28118
 H2774 H 0.73552 0.44453 0.29286
 C2775 C 0.68915 0.90298 0.80889
 C2776 C 0.68508 0.90427 0.82264
 C2777 C 0.67863 0.89269 0.82926
 C2778 C 0.67591 0.87974 0.82215
 C2779 C 0.67979 0.87854 0.80834
 C2780 C 0.68646 0.89001 0.80180
 C2781 C 0.69631 0.91506 0.80197
 C2782 C 0.70844 0.91246 0.79475
 C2783 C 0.71526 0.92386 0.78826
 C2784 C 0.70994 0.93801 0.78866
 C2785 C 0.69776 0.94061 0.79579
 C2786 C 0.69106 0.92925 0.80251
 C2787 C 0.71707 0.95001 0.78157
 C2788 C 0.70995 0.95925 0.77265
 C2789 C 0.71677 0.97031 0.76564
 C2790 C 0.73078 0.97251 0.76761
 C2791 C 0.73784 0.96340 0.77671
 C2792 C 0.73107 0.95217 0.78352
 H2793 H 0.68712 0.91415 0.82832
 H2794 H 0.67568 0.89386 0.83990
 H2795 H 0.67787 0.86861 0.80269
 H2796 H 0.68944 0.88881 0.79117
 H2797 H 0.71270 0.90161 0.79427
 H2798 H 0.72460 0.92159 0.78274
 H2799 H 0.69351 0.95146 0.79629
 H2800 H 0.68169 0.93149 0.80796
 H2801 H 0.69916 0.95772 0.77093
 H2802 H 0.71107 0.97720 0.75872
 H2803 H 0.74865 0.96481 0.77840
 H2804 H 0.73674 0.94522 0.79041
 C2805 C 0.18900 0.39863 0.80976
 C2806 C 0.17510 0.39947 0.81317
 C2807 C 0.16864 0.38798 0.81991
 C2808 C 0.17596 0.37548 0.82356
 C2809 C 0.18984 0.37462 0.82027
 C2810 C 0.19627 0.38602 0.81336
 C2811 C 0.19588 0.41083 0.80250
 C2812 C 0.20947 0.41440 0.80543
 C2813 C 0.21597 0.42576 0.79854
 C2814 C 0.20900 0.43400 0.78865
 C2815 C 0.19537 0.43051 0.78579
 C2816 C 0.18892 0.41903 0.79256
 C2817 C 0.21596 0.44609 0.78130
 C2818 C 0.21317 0.44892 0.76742
 C2819 C 0.21990 0.46010 0.76047
 C2820 C 0.22971 0.46859 0.76720
 C2821 C 0.23246 0.46585 0.78108
 C2822 C 0.22561 0.45481 0.78807
 H2823 H 0.16923 0.40910 0.81081
 H2824 H 0.15796 0.38897 0.82249
 H2825 H 0.19566 0.36501 0.82284
 H2826 H 0.20690 0.38484 0.81068
 H2827 H 0.21511 0.40849 0.81315
 H2828 H 0.22653 0.42797 0.80089
 H2829 H 0.18961 0.43671 0.77837
 H2830 H 0.17850 0.41649 0.78988
 H2831 H 0.20599 0.44230 0.76180
 H2832 H 0.21763 0.46189 0.74975
 H2833 H 0.23989 0.47230 0.78657
 H2834 H 0.22782 0.45318 0.79882
 C2835 C 0.19036 0.89566 0.30949
 C2836 C 0.18677 0.88293 0.30235
 C2837 C 0.18013 0.87154 0.30906
 C2838 C 0.17709 0.87253 0.32309
 C2839 C 0.18076 0.88515 0.33028
 C2840 C 0.18724 0.89662 0.32354
 C2841 C 0.19732 0.90787 0.30231
 C2842 C 0.20723 0.91624 0.30906
 C2843 C 0.21373 0.92772 0.30233
 C2844 C 0.21061 0.93103 0.28862
 C2845 C 0.20073 0.92263 0.28186
 C2846 C 0.19412 0.91126 0.28864
 C2847 C 0.21769 0.94312 0.28138
 C2848 C 0.21074 0.95173 0.27175
 C2849 C 0.21745 0.96292 0.26480
 C2850 C 0.23121 0.96589 0.26745
 C2851 C 0.23814 0.95741 0.27717
 C2852 C 0.23148 0.94610 0.28398
 H2853 H 0.18925 0.88166 0.29161
 H2854 H 0.17754 0.86185 0.30333
 H2855 H 0.17837 0.88623 0.34107
 H2856 H 0.18959 0.90635 0.32932
 H2857 H 0.21011 0.91385 0.31952
 H2858 H 0.22113 0.93407 0.30795
 H2859 H 0.19819 0.92471 0.27125
 H2860 H 0.18640 0.90522 0.28317
 H2861 H 0.20006 0.94995 0.26967
 H2862 H 0.21182 0.96934 0.25744
 H2863 H 0.24878 0.95937 0.27935
 H2864 H 0.23724 0.93955 0.29112
 C2865 C 0.40362 0.30825 0.68429
 C2866 C 0.39185 0.31124 0.69202
 C2867 C 0.38029 0.31705 0.68579
 C2868 C 0.38014 0.31985 0.67166
 C2869 C 0.39179 0.31671 0.66384
 C2870 C 0.40344 0.31105 0.67010
 C2871 C 0.41595 0.30218 0.69103
 C2872 C 0.42412 0.29182 0.68434
 C2873 C 0.43547 0.28585 0.69088
 C2874 C 0.43888 0.29001 0.70432
 C2875 C 0.43078 0.30047 0.71095
 C2876 C 0.41952 0.30654 0.70437
 C2877 C 0.45063 0.28325 0.71154
 C2878 C 0.45860 0.29143 0.72070
 C2879 C 0.46918 0.28491 0.72800
 C2880 C 0.47216 0.27010 0.72620
 C2881 C 0.46443 0.26199 0.71683
 C2882 C 0.45373 0.26846 0.70965
 H2883 H 0.39149 0.30891 0.70289
 H2884 H 0.37136 0.31915 0.69200
 H2885 H 0.39195 0.31889 0.65294
 H2886 H 0.41236 0.30907 0.66386
 H2887 H 0.42161 0.28809 0.67413
 H2888 H 0.44159 0.27799 0.68538
 H2889 H 0.43296 0.30381 0.72135
 H2890 H 0.41362 0.31467 0.70976
 H2891 H 0.45670 0.30290 0.72221
 H2892 H 0.47505 0.29147 0.73506
 H2893 H 0.46643 0.25053 0.71529
 H2894 H 0.44769 0.26176 0.70287
 C2895 C 0.40197 0.80567 0.18674
 C2896 C 0.39156 0.81261 0.19419
 C2897 C 0.38044 0.81879 0.18746
 C2898 C 0.37952 0.81842 0.17308
 C2899 C 0.38995 0.81153 0.16563
 C2900 C 0.40097 0.80515 0.17237
 C2901 C 0.41381 0.79906 0.19395
 C2902 C 0.42688 0.79930 0.18802
 C2903 C 0.43798 0.79316 0.19483
 C2904 C 0.43631 0.78686 0.20781
 C2905 C 0.42332 0.78662 0.21379
 C2906 C 0.41218 0.79254 0.20689
 C2907 C 0.44806 0.78056 0.21515
 C2908 C 0.45053 0.78424 0.22888
 C2909 C 0.46150 0.77813 0.23592
 C2910 C 0.47007 0.76802 0.22941
 C2911 C 0.46760 0.76436 0.21565
 C2912 C 0.45677 0.77068 0.20855
 H2913 H 0.39205 0.81344 0.20524
 H2914 H 0.37252 0.82378 0.19357
 H2915 H 0.38970 0.81119 0.15454
 H2916 H 0.40866 0.79971 0.16629
 H2917 H 0.42861 0.80446 0.17820
 H2918 H 0.44794 0.79357 0.19008
 H2919 H 0.42176 0.78164 0.22372
 H2920 H 0.40225 0.79183 0.21167
 H2921 H 0.44400 0.79192 0.23415
 H2922 H 0.46312 0.78112 0.24653
 H2923 H 0.47406 0.75661 0.21038
 H2924 H 0.45501 0.76762 0.19797
 C2925 C 0.90342 0.31075 0.18833
 C2926 C 0.89354 0.31834 0.19593
 C2927 C 0.88214 0.32427 0.18949
 C2928 C 0.88039 0.32296 0.17524
 C2929 C 0.89037 0.31554 0.16760
 C2930 C 0.90169 0.30945 0.17408
 C2931 C 0.91537 0.30408 0.19529
 C2932 C 0.92818 0.30361 0.18882
 C2933 C 0.93933 0.29719 0.19534
 C2934 C 0.93797 0.29131 0.20854
 C2935 C 0.92525 0.29185 0.21507
 C2936 C 0.91406 0.29806 0.20849
 C2937 C 0.94972 0.28445 0.21547
 C2938 C 0.95274 0.28785 0.22916
 C2939 C 0.96357 0.28107 0.23584
 C2940 C 0.97147 0.27057 0.22903
 C2941 C 0.96851 0.26725 0.21529
 C2942 C 0.95779 0.27421 0.20854
 H2943 H 0.89461 0.31979 0.20688
 H2944 H 0.87459 0.32970 0.19574
 H2945 H 0.88947 0.31449 0.15659
 H2946 H 0.90898 0.30352 0.16790
 H2947 H 0.92966 0.30835 0.17879
 H2948 H 0.94908 0.29701 0.19016
 H2949 H 0.92390 0.28719 0.22517
 H2950 H 0.90432 0.29792 0.21368
 H2951 H 0.94671 0.29580 0.23468
 H2952 H 0.96560 0.28382 0.24644
 H2953 H 0.97444 0.25924 0.20977
 H2954 H 0.95561 0.27135 0.19801
 C2955 C 0.90357 0.81168 0.68755
 C2956 C 0.89167 0.81452 0.69513
 C2957 C 0.88023 0.82052 0.68880
 C2958 C 0.88037 0.82367 0.67473
 C2959 C 0.89219 0.82079 0.66711
 C2960 C 0.90370 0.81495 0.67346
 C2961 C 0.91571 0.80521 0.69430
 C2962 C 0.92389 0.79504 0.68736
 C2963 C 0.93510 0.78871 0.69383
 C2964 C 0.93834 0.79227 0.70746
 C2965 C 0.93023 0.80253 0.71436
 C2966 C 0.91911 0.80897 0.70784
 C2967 C 0.94994 0.78509 0.71456
 C2968 C 0.95791 0.79278 0.72408
 C2969 C 0.96843 0.78584 0.73115
 C2970 C 0.97133 0.77112 0.72874
 C2971 C 0.96356 0.76349 0.71904
 C2972 C 0.95294 0.77037 0.71209
 H2973 H 0.89108 0.81187 0.70592
 H2974 H 0.87117 0.82246 0.69487
 H2975 H 0.89258 0.82327 0.65626
 H2976 H 0.91274 0.81315 0.66734
 H2977 H 0.92151 0.79175 0.67699
 H2978 H 0.94123 0.78103 0.68812
 H2979 H 0.93229 0.80540 0.72491
 H2980 H 0.91319 0.81692 0.71344
 H2981 H 0.95607 0.80419 0.72605
 H2982 H 0.97431 0.79203 0.73849
 H2983 H 0.96549 0.75210 0.71703
 H2984 H 0.94688 0.76403 0.70503
 C2985 C 0.59599 0.31029 0.31145
 C2986 C 0.60730 0.30171 0.31503
 C2987 C 0.61861 0.30792 0.32141
 C2988 C 0.61897 0.32288 0.32416
 C2989 C 0.60775 0.33150 0.32058
 C2990 C 0.59633 0.32527 0.31440
 C2991 C 0.58400 0.30367 0.30452
 C2992 C 0.57668 0.31144 0.29454
 C2993 C 0.56560 0.30511 0.28785
 C2994 C 0.56164 0.29076 0.29081
 C2995 C 0.56892 0.28302 0.30083
 C2996 C 0.57987 0.28942 0.30766
 C2997 C 0.55015 0.28380 0.28332
 C2998 C 0.54160 0.27372 0.28993
 C2999 C 0.53120 0.26674 0.28274
 C3000 C 0.52894 0.26985 0.26885
 C3001 C 0.53724 0.28013 0.26229
 C3002 C 0.54780 0.28694 0.26941
 H3003 H 0.60756 0.29022 0.31267
 H3004 H 0.62722 0.30109 0.32393
 H3005 H 0.60777 0.34305 0.32273
 H3006 H 0.58774 0.33218 0.31206
 H3007 H 0.57964 0.32235 0.29169
 H3008 H 0.56013 0.31151 0.28036
 H3009 H 0.56633 0.27188 0.30326
 H3010 H 0.58508 0.28317 0.31544
 H3011 H 0.54289 0.27125 0.30069
 H3012 H 0.52487 0.25895 0.28809
 H3013 H 0.53580 0.28265 0.25155
 H3014 H 0.55430 0.29441 0.26389
 C3015 C 0.59879 0.80969 0.81222
 C3016 C 0.60072 0.82482 0.81155
 C3017 C 0.61217 0.83128 0.81743
 C3018 C 0.62210 0.82277 0.82399
 C3019 C 0.62021 0.80764 0.82463
 C3020 C 0.60867 0.80120 0.81889
 C3021 C 0.58660 0.80282 0.80589
 C3022 C 0.58756 0.78914 0.79952
 C3023 C 0.57616 0.78277 0.79344
 C3024 C 0.56359 0.79002 0.79343
 C3025 C 0.56258 0.80367 0.79977
 C3026 C 0.57393 0.80996 0.80602
 C3027 C 0.55163 0.78343 0.78663
 C3028 C 0.54364 0.79167 0.77759
 C3029 C 0.53264 0.78531 0.77078
 C3030 C 0.52931 0.77065 0.77304
 C3031 C 0.53717 0.76250 0.78228
 C3032 C 0.54829 0.76880 0.78893
 H3033 H 0.59345 0.83170 0.80633
 H3034 H 0.61317 0.84298 0.81691
 H3035 H 0.62771 0.80072 0.82944
 H3036 H 0.60745 0.78955 0.81978
 H3037 H 0.59718 0.78344 0.79898
 H3038 H 0.57723 0.77231 0.78845
 H3039 H 0.55295 0.80939 0.80003
 H3040 H 0.57273 0.82036 0.81106
 H3041 H 0.54608 0.80294 0.77558
 H3042 H 0.52676 0.79187 0.76374
 H3043 H 0.53488 0.75117 0.78419
 H3044 H 0.55425 0.76227 0.79593
 C3045 C 0.09529 0.31025 0.81636
 C3046 C 0.09738 0.32536 0.81592
 C3047 C 0.10883 0.33160 0.82204
 C3048 C 0.11857 0.32287 0.82863
 C3049 C 0.11639 0.30778 0.82922
 C3050 C 0.10487 0.30157 0.82324
 C3051 C 0.08339 0.30351 0.80939
 C3052 C 0.08468 0.28996 0.80281
 C3053 C 0.07360 0.28367 0.79613
 C3054 C 0.06100 0.29084 0.79570
 C3055 C 0.05966 0.30438 0.80220
 C3056 C 0.07071 0.31061 0.80905
 C3057 C 0.04939 0.28427 0.78829
 C3058 C 0.04165 0.29259 0.77911
 C3059 C 0.03110 0.28621 0.77163
 C3060 C 0.02798 0.27141 0.77334
 C3061 C 0.03555 0.26317 0.78275
 C3062 C 0.04621 0.26951 0.79008
 H3063 H 0.09031 0.33238 0.81059
 H3064 H 0.11006 0.34328 0.82156
 H3065 H 0.12374 0.30068 0.83404
 H3066 H 0.10350 0.28993 0.82400
 H3067 H 0.09434 0.28432 0.80258
 H3068 H 0.07495 0.27331 0.79102
 H3069 H 0.05001 0.31006 0.80213
 H3070 H 0.06927 0.32093 0.81418
 H3071 H 0.04397 0.30397 0.77748
 H3072 H 0.02542 0.29284 0.76448
 H3073 H 0.03340 0.25174 0.78427
 H3074 H 0.05196 0.26289 0.79719
 C3075 C 0.09738 0.80595 0.31364
 C3076 C 0.09966 0.82101 0.31268
 C3077 C 0.11100 0.82737 0.31887
 C3078 C 0.12044 0.81882 0.32608
 C3079 C 0.11814 0.80378 0.32711
 C3080 C 0.10672 0.79744 0.32103
 C3081 C 0.08546 0.79913 0.30680
 C3082 C 0.08660 0.78534 0.30067
 C3083 C 0.07547 0.77902 0.29406
 C3084 C 0.06299 0.78639 0.29330
 C3085 C 0.06180 0.80014 0.29943
 C3086 C 0.07288 0.80641 0.30617
 C3087 C 0.05135 0.77985 0.28591
 C3088 C 0.04373 0.78817 0.27662
 C3089 C 0.03306 0.78188 0.26925
 C3090 C 0.02970 0.76717 0.27113
 C3091 C 0.03718 0.75891 0.28061
 C3092 C 0.04795 0.76517 0.28786
 H3093 H 0.09278 0.82788 0.30694
 H3094 H 0.11235 0.83901 0.31803
 H3095 H 0.12527 0.79683 0.33243
 H3096 H 0.10521 0.78585 0.32216
 H3097 H 0.09618 0.77954 0.30071
 H3098 H 0.07672 0.76849 0.28925
 H3099 H 0.05223 0.80597 0.29913
 H3100 H 0.07155 0.81691 0.31100
 H3101 H 0.04621 0.79948 0.27484
 H3102 H 0.02748 0.78853 0.26204
 H3103 H 0.03484 0.74755 0.28228
 H3104 H 0.05360 0.75855 0.29505
 C3105 C 0.59434 0.69023 0.68913
 C3106 C 0.60361 0.69872 0.68160
 C3107 C 0.61492 0.69237 0.67532
 C3108 C 0.61718 0.67731 0.67623
 C3109 C 0.60780 0.66877 0.68355
 C3110 C 0.59656 0.67515 0.68997
 C3111 C 0.58256 0.69712 0.69621
 C3112 C 0.56993 0.68998 0.69707
 C3113 C 0.55893 0.69650 0.70380
 C3114 C 0.56027 0.71037 0.70964
 C3115 C 0.57285 0.71752 0.70878
 C3116 C 0.58389 0.71095 0.70222
 C3117 C 0.54865 0.71740 0.71668
 C3118 C 0.54550 0.73201 0.71405
 C3119 C 0.53487 0.73886 0.72103
 C3120 C 0.52727 0.73129 0.73093
 C3121 C 0.53033 0.71661 0.73346
 C3122 C 0.54086 0.70970 0.72633
 H3123 H 0.60213 0.71032 0.68053
 H3124 H 0.62201 0.69933 0.66994
 H3125 H 0.60911 0.65712 0.68430
 H3126 H 0.58973 0.66829 0.69579
 H3127 H 0.56847 0.67943 0.69238
 H3128 H 0.54929 0.69082 0.70423
 H3129 H 0.57421 0.72813 0.71340
 H3130 H 0.59353 0.71664 0.70205
 H3131 H 0.55128 0.73814 0.70656
 H3132 H 0.53279 0.75019 0.71887
 H3133 H 0.52464 0.71049 0.74102
 H3134 H 0.54315 0.69844 0.72860
 C3135 C 0.59738 0.18680 0.18740
 C3136 C 0.59894 0.17161 0.18750
 C3137 C 0.61013 0.16506 0.18116
 C3138 C 0.62017 0.17354 0.17469
 C3139 C 0.61857 0.18873 0.17453
 C3140 C 0.60729 0.19525 0.18071
 C3141 C 0.58559 0.19384 0.19437
 C3142 C 0.58714 0.20733 0.20099
 C3143 C 0.57609 0.21403 0.20742
 C3144 C 0.56329 0.20730 0.20759
 C3145 C 0.56170 0.19376 0.20116
 C3146 C 0.57271 0.18714 0.19453
 C3147 C 0.55163 0.21446 0.21444
 C3148 C 0.54342 0.20674 0.22371
 C3149 C 0.53272 0.21370 0.23053
 C3150 C 0.52990 0.22844 0.22803
 C3151 C 0.53798 0.23606 0.21856
 C3152 C 0.54880 0.22917 0.21191
 H3153 H 0.59162 0.16474 0.19268
 H3154 H 0.61090 0.15333 0.18131
 H3155 H 0.62616 0.19564 0.16983
 H3156 H 0.60634 0.20696 0.18019
 H3157 H 0.59695 0.21267 0.20137
 H3158 H 0.57760 0.22438 0.21248
 H3159 H 0.55188 0.18843 0.20105
 H3160 H 0.57106 0.17689 0.18936
 H3161 H 0.54547 0.19541 0.22587
 H3162 H 0.52664 0.20755 0.23776
 H3163 H 0.53608 0.24743 0.21644
 H3164 H 0.55493 0.23531 0.20473
 C3165 C 0.09506 0.68978 0.18293
 C3166 C 0.10464 0.69825 0.17579
 C3167 C 0.11604 0.69182 0.16976
 C3168 C 0.11810 0.67672 0.17053
 C3169 C 0.10835 0.66819 0.17737
 C3170 C 0.09701 0.67465 0.18354
 C3171 C 0.08331 0.69676 0.18998
 C3172 C 0.07055 0.68983 0.19055
 C3173 C 0.05965 0.69629 0.19748
 C3174 C 0.06121 0.70988 0.20385
 C3175 C 0.07388 0.71687 0.20318
 C3176 C 0.08482 0.71036 0.19640
 C3177 C 0.04977 0.71666 0.21140
 C3178 C 0.04676 0.73146 0.20964
 C3179 C 0.03627 0.73799 0.21712
 C3180 C 0.02869 0.72988 0.22664
 C3181 C 0.03164 0.71503 0.22832
 C3182 C 0.04201 0.70847 0.22071
 H3183 H 0.10336 0.70989 0.17490
 H3184 H 0.12341 0.69877 0.16474
 H3185 H 0.10950 0.65651 0.17800
 H3186 H 0.08993 0.66779 0.18906
 H3187 H 0.06894 0.67948 0.18554
 H3188 H 0.04993 0.69075 0.19774
 H3189 H 0.07541 0.72725 0.20818
 H3190 H 0.09455 0.71587 0.19644
 H3191 H 0.05253 0.73798 0.20244
 H3192 H 0.03426 0.74944 0.21561
 H3193 H 0.02595 0.70849 0.23556
 H3194 H 0.04421 0.69707 0.22233
 C3195 C 0.09551 0.19578 0.68520
 C3196 C 0.10501 0.20425 0.67795
 C3197 C 0.11646 0.19785 0.67195
 C3198 C 0.11865 0.18278 0.67292
 C3199 C 0.10901 0.17427 0.67993
 C3200 C 0.09763 0.18069 0.68605
 C3201 C 0.08361 0.20266 0.69209
 C3202 C 0.07099 0.19547 0.69273
 C3203 C 0.05998 0.20173 0.69964
 C3204 C 0.06129 0.21539 0.70593
 C3205 C 0.07380 0.22269 0.70513
 C3206 C 0.08486 0.21637 0.69836
 C3207 C 0.04973 0.22189 0.71353
 C3208 C 0.04634 0.23659 0.71172
 C3209 C 0.03566 0.24282 0.71916
 C3210 C 0.02828 0.23452 0.72870
 C3211 C 0.03164 0.21979 0.73045
 C3212 C 0.04220 0.21352 0.72288
 H3213 H 0.10361 0.21586 0.67690
 H3214 H 0.12374 0.20476 0.66677
 H3215 H 0.11024 0.16261 0.68070
 H3216 H 0.09064 0.17383 0.69167
 H3217 H 0.06957 0.18504 0.68781
 H3218 H 0.05038 0.19596 0.69998
 H3219 H 0.07512 0.23315 0.71005
 H3220 H 0.09447 0.22210 0.69832
 H3221 H 0.05192 0.24325 0.70449
 H3222 H 0.03333 0.25420 0.71759
 H3223 H 0.02612 0.21311 0.73771
 H3224 H 0.04469 0.20219 0.72455
 C3225 C 0.40349 0.69055 0.31475
 C3226 C 0.40251 0.69061 0.32914
 C3227 C 0.39139 0.68421 0.33574
 C3228 C 0.38085 0.67775 0.32814
 C3229 C 0.38181 0.67775 0.31375
 C3230 C 0.39302 0.68393 0.30717
 C3231 C 0.41529 0.69738 0.30764
 C3232 C 0.41356 0.70429 0.29489
 C3233 C 0.42465 0.71036 0.28801
 C3234 C 0.43769 0.70991 0.29382
 C3235 C 0.43946 0.70330 0.30664
 C3236 C 0.42840 0.69698 0.31343
 C3237 C 0.44938 0.71631 0.28642
 C3238 C 0.45806 0.72622 0.29297
 C3239 C 0.46871 0.73276 0.28572
 C3240 C 0.47102 0.72927 0.27189
 C3241 C 0.46251 0.71907 0.26546
 C3242 C 0.45172 0.71275 0.27263
 H3243 H 0.41026 0.69576 0.33533
 H3244 H 0.39111 0.68425 0.34683
 H3245 H 0.37382 0.67312 0.30752
 H3246 H 0.39350 0.68341 0.29610
 H3247 H 0.40360 0.70516 0.29025
 H3248 H 0.42302 0.71560 0.27821
 H3249 H 0.44946 0.70274 0.31125
 H3250 H 0.43020 0.69155 0.32310
 H3251 H 0.45639 0.72917 0.30359
 H3252 H 0.47513 0.74057 0.29093
 H3253 H 0.46401 0.71621 0.25480
 H3254 H 0.44520 0.70505 0.26741
 C3255 C 0.40453 0.19347 0.81308
 C3256 C 0.40219 0.17841 0.81243
 C3257 C 0.39091 0.17223 0.81894
 C3258 C 0.38161 0.18097 0.82617
 C3259 C 0.38399 0.19602 0.82690
 C3260 C 0.39533 0.20217 0.82050
 C3261 C 0.41637 0.20012 0.80590
 C3262 C 0.41517 0.21383 0.79965
 C3263 C 0.42625 0.22009 0.79288
 C3264 C 0.43873 0.21272 0.79205
 C3265 C 0.43995 0.19900 0.79820
 C3266 C 0.42892 0.19279 0.80512
 C3267 C 0.45037 0.21933 0.78468
 C3268 C 0.45802 0.21113 0.77529
 C3269 C 0.46867 0.21754 0.76794
 C3270 C 0.47198 0.23224 0.76999
 C3271 C 0.46448 0.24036 0.77959
 C3272 C 0.45373 0.23399 0.78680
 H3273 H 0.40895 0.17138 0.80668
 H3274 H 0.38951 0.16058 0.81833
 H3275 H 0.37696 0.20312 0.83222
 H3276 H 0.39691 0.21377 0.82142
 H3277 H 0.40561 0.21966 0.79977
 H3278 H 0.42498 0.23059 0.78805
 H3279 H 0.44952 0.19316 0.79783
 H3280 H 0.43029 0.18234 0.81001
 H3281 H 0.45556 0.19983 0.77340
 H3282 H 0.47427 0.21101 0.76063
 H3283 H 0.46677 0.25171 0.78139
 H3284 H 0.44807 0.24051 0.79408
 C3285 C 0.90225 0.69263 0.81247
 C3286 C 0.89275 0.70131 0.81951
 C3287 C 0.88148 0.69504 0.82597
 C3288 C 0.87951 0.67991 0.82570
 C3289 C 0.88906 0.67122 0.81875
 C3290 C 0.90023 0.67750 0.81215
 C3291 C 0.91417 0.69933 0.80547
 C3292 C 0.92683 0.69217 0.80511
 C3293 C 0.93797 0.69843 0.79843
 C3294 C 0.93676 0.71207 0.79212
 C3295 C 0.92419 0.71929 0.79252
 C3296 C 0.91300 0.71296 0.79904
 C3297 C 0.94854 0.71874 0.78504
 C3298 C 0.95188 0.73337 0.78736
 C3299 C 0.96281 0.73977 0.78048
 C3300 C 0.97051 0.73172 0.77098
 C3301 C 0.96720 0.71706 0.76871
 C3302 C 0.95638 0.71060 0.77576
 H3303 H 0.89405 0.71297 0.82016
 H3304 H 0.87425 0.70210 0.83105
 H3305 H 0.88798 0.65952 0.81849
 H3306 H 0.90721 0.67048 0.80668
 H3307 H 0.92820 0.68181 0.81016
 H3308 H 0.94761 0.69272 0.79837
 H3309 H 0.92296 0.72974 0.78757
 H3310 H 0.90337 0.71866 0.79884
 H3311 H 0.94605 0.73983 0.79456
 H3312 H 0.96509 0.75110 0.78242
 H3313 H 0.97296 0.71058 0.76147
 H3314 H 0.95395 0.69932 0.77374
 C3315 C 0.90337 0.18922 0.31019
 C3316 C 0.90204 0.18980 0.32454
 C3317 C 0.89074 0.18366 0.33106
 C3318 C 0.88038 0.17695 0.32340
 C3319 C 0.88171 0.17641 0.30905
 C3320 C 0.89309 0.18235 0.30256
 C3321 C 0.91535 0.19583 0.30319
 C3322 C 0.91391 0.20247 0.29028
 C3323 C 0.92513 0.20856 0.28363
 C3324 C 0.93801 0.20836 0.28981
 C3325 C 0.93949 0.20190 0.30274
 C3326 C 0.92831 0.19559 0.30932
 C3327 C 0.94980 0.21504 0.28279
 C3328 C 0.95823 0.22489 0.28975
 C3329 C 0.96896 0.23175 0.28291
 C3330 C 0.97160 0.22868 0.26905
 C3331 C 0.96336 0.21855 0.26219
 C3332 C 0.95249 0.21189 0.26897
 H3333 H 0.90964 0.19516 0.33077
 H3334 H 0.89017 0.18412 0.34213
 H3335 H 0.87387 0.17155 0.30277
 H3336 H 0.89384 0.18146 0.29152
 H3337 H 0.90407 0.20318 0.28537
 H3338 H 0.92371 0.21368 0.27374
 H3339 H 0.94936 0.20152 0.30765
 H3340 H 0.92987 0.19036 0.31912
 H3341 H 0.95630 0.22755 0.30040
 H3342 H 0.97517 0.23948 0.28846
 H3343 H 0.96512 0.21600 0.25149
 H3344 H 0.94618 0.20425 0.26342
 C3345 C 0.31457 0.30369 0.59441
 C3346 C 0.32148 0.29529 0.60422
 C3347 C 0.32734 0.30182 0.61572
 C3348 C 0.32655 0.31694 0.61766
 C3349 C 0.31983 0.32536 0.60774
 C3350 C 0.31386 0.31882 0.59630
 C3351 C 0.30790 0.29671 0.58239
 C3352 C 0.30765 0.30369 0.56957
 C3353 C 0.30091 0.29739 0.55845
 C3354 C 0.29442 0.28388 0.55984
 C3355 C 0.29488 0.27674 0.57254
 C3356 C 0.30147 0.28311 0.58371
 C3357 C 0.28689 0.27743 0.54819
 C3358 C 0.28838 0.26264 0.54492
 C3359 C 0.28101 0.25651 0.53412
 C3360 C 0.27185 0.26500 0.52651
 C3361 C 0.27040 0.27981 0.52976
 C3362 C 0.27791 0.28597 0.54044
 H3363 H 0.32241 0.28364 0.60300
 H3364 H 0.33229 0.29496 0.62322
 H3365 H 0.31919 0.33706 0.60878
 H3366 H 0.30848 0.32563 0.58908
 H3367 H 0.31271 0.31402 0.56809
 H3368 H 0.30085 0.30303 0.54871
 H3369 H 0.28980 0.26640 0.57393
 H3370 H 0.30124 0.27753 0.59347
 H3371 H 0.29532 0.25585 0.55069
 H3372 H 0.28232 0.24507 0.53188
 H3373 H 0.26344 0.28664 0.52407
 H3374 H 0.27648 0.29736 0.54283
 C3375 C 0.31678 0.80633 0.09273
 C3376 C 0.31929 0.79810 0.10461
 C3377 C 0.32558 0.80439 0.11600
 C3378 C 0.32932 0.81910 0.11583
 C3379 C 0.32697 0.82733 0.10396
 C3380 C 0.32087 0.82099 0.09250
 C3381 C 0.30959 0.79977 0.08080
 C3382 C 0.30040 0.80806 0.07301
 C3383 C 0.29332 0.80183 0.06209
 C3384 C 0.29507 0.78707 0.05877
 C3385 C 0.30435 0.77880 0.06648
 C3386 C 0.31157 0.78509 0.07730
 C3387 C 0.28705 0.78029 0.04752
 C3388 C 0.29275 0.76936 0.03920
 C3389 C 0.28507 0.76280 0.02885
 C3390 C 0.27158 0.76716 0.02646
 C3391 C 0.26592 0.77817 0.03464
 C3392 C 0.27352 0.78458 0.04511
 H3393 H 0.31607 0.78687 0.10529
 H3394 H 0.32716 0.79788 0.12510
 H3395 H 0.32991 0.83866 0.10356
 H3396 H 0.31938 0.82759 0.08345
 H3397 H 0.29845 0.81934 0.07550
 H3398 H 0.28646 0.80862 0.05625
 H3399 H 0.30586 0.76737 0.06435
 H3400 H 0.31871 0.77842 0.08291
 H3401 H 0.30320 0.76595 0.04058
 H3402 H 0.28973 0.75441 0.02263
 H3403 H 0.25551 0.78166 0.03313
 H3404 H 0.26868 0.79272 0.05147
 C3405 C 0.81278 0.30335 0.10027
 C3406 C 0.82703 0.30337 0.10161
 C3407 C 0.83328 0.31049 0.11260
 C3408 C 0.82543 0.31764 0.12261
 C3409 C 0.81118 0.31741 0.12137
 C3410 C 0.80496 0.31048 0.11031
 C3411 C 0.80607 0.29615 0.08839
 C3412 C 0.79333 0.28936 0.08997
 C3413 C 0.78667 0.28327 0.07871
 C3414 C 0.79268 0.28359 0.06567
 C3415 C 0.80555 0.28997 0.06408
 C3416 C 0.81214 0.29629 0.07530
 C3417 C 0.78536 0.27754 0.05373
 C3418 C 0.79179 0.26774 0.04479
 C3419 C 0.78464 0.26170 0.03378
 C3420 C 0.77101 0.26559 0.03139
 C3421 C 0.76470 0.27564 0.04019
 C3422 C 0.77177 0.28146 0.05131
 H3423 H 0.83340 0.29783 0.09420
 H3424 H 0.84428 0.31056 0.11312
 H3425 H 0.80478 0.32256 0.12899
 H3426 H 0.79398 0.31093 0.10954
 H3427 H 0.78848 0.28870 0.09991
 H3428 H 0.77683 0.27821 0.08021
 H3429 H 0.81033 0.29043 0.05408
 H3430 H 0.82182 0.30160 0.07363
 H3431 H 0.80225 0.26453 0.04650
 H3432 H 0.78975 0.25400 0.02715
 H3433 H 0.75420 0.27880 0.03864
 H3434 H 0.76665 0.28910 0.05802
 C3435 C 0.81605 0.80715 0.59662
 C3436 C 0.82289 0.79906 0.60671
 C3437 C 0.82890 0.80596 0.61792
 C3438 C 0.82837 0.82117 0.61928
 C3439 C 0.82180 0.82929 0.60904
 C3440 C 0.81567 0.82237 0.59789
 C3441 C 0.80907 0.79973 0.58503
 C3442 C 0.80870 0.80610 0.57192
 C3443 C 0.80168 0.79938 0.56120
 C3444 C 0.79503 0.78606 0.56328
 C3445 C 0.79558 0.77954 0.57627
 C3446 C 0.80245 0.78634 0.58704
 C3447 C 0.78722 0.77916 0.55206
 C3448 C 0.78855 0.76423 0.54936
 C3449 C 0.78093 0.75769 0.53895
 C3450 C 0.77170 0.76593 0.53117
 C3451 C 0.77041 0.78087 0.53388
 C3452 C 0.77815 0.78743 0.54415
 H3453 H 0.82359 0.78734 0.60596
 H3454 H 0.83370 0.79933 0.62569
 H3455 H 0.82137 0.84103 0.60964
 H3456 H 0.81037 0.82896 0.59043
 H3457 H 0.81389 0.81625 0.56991
 H3458 H 0.80153 0.80454 0.55123
 H3459 H 0.79038 0.76937 0.57819
 H3460 H 0.80228 0.78124 0.59703
 H3461 H 0.79554 0.75764 0.55526
 H3462 H 0.78213 0.74615 0.53711
 H3463 H 0.76341 0.78751 0.52804
 H3464 H 0.77686 0.79893 0.54612
 C3465 C 0.31602 0.69267 0.40669
 C3466 C 0.32242 0.70104 0.39649
 C3467 C 0.32856 0.69439 0.38518
 C3468 C 0.32860 0.67917 0.38385
 C3469 C 0.32248 0.67079 0.39421
 C3470 C 0.31620 0.67744 0.40543
 C3471 C 0.30890 0.69978 0.41840
 C3472 C 0.30888 0.69337 0.43149
 C3473 C 0.30181 0.69982 0.44235
 C3474 C 0.29477 0.71293 0.44040
 C3475 C 0.29493 0.71947 0.42742
 C3476 C 0.30183 0.71293 0.41652
 C3477 C 0.28710 0.71968 0.45182
 C3478 C 0.28838 0.73460 0.45454
 C3479 C 0.28093 0.74104 0.46513
 C3480 C 0.27188 0.73272 0.47308
 C3481 C 0.27063 0.71778 0.47036
 C3482 C 0.27824 0.71130 0.45989
 H3483 H 0.32269 0.71278 0.39721
 H3484 H 0.33302 0.70121 0.37734
 H3485 H 0.32251 0.65904 0.39365
 H3486 H 0.31125 0.67063 0.41297
 H3487 H 0.31442 0.68340 0.43340
 H3488 H 0.30196 0.69466 0.45232
 H3489 H 0.28943 0.72949 0.42562
 H3490 H 0.30137 0.71804 0.40654
 H3491 H 0.29522 0.74126 0.44851
 H3492 H 0.28209 0.75258 0.46697
 H3493 H 0.26377 0.71108 0.47633
 H3494 H 0.27701 0.69980 0.45792
 C3495 C 0.31758 0.19413 0.90544
 C3496 C 0.32450 0.20261 0.89568
 C3497 C 0.33045 0.19618 0.88417
 C3498 C 0.32978 0.18106 0.88217
 C3499 C 0.32315 0.17253 0.89209
 C3500 C 0.31707 0.17898 0.90354
 C3501 C 0.31062 0.20108 0.91733
 C3502 C 0.31016 0.19415 0.93018
 C3503 C 0.30323 0.20050 0.94118
 C3504 C 0.29674 0.21400 0.93963
 C3505 C 0.29735 0.22104 0.92690
 C3506 C 0.30414 0.21463 0.91585
 C3507 C 0.28906 0.22057 0.95115
 C3508 C 0.29058 0.23538 0.95432
 C3509 C 0.28300 0.24167 0.96492
 C3510 C 0.27362 0.23332 0.97242
 C3511 C 0.27218 0.21849 0.96929
 C3512 C 0.27989 0.21216 0.95883
 H3513 H 0.32531 0.21427 0.89691
 H3514 H 0.33531 0.20313 0.87667
 H3515 H 0.32261 0.16083 0.89101
 H3516 H 0.31170 0.17211 0.91074
 H3517 H 0.31524 0.18385 0.93177
 H3518 H 0.30302 0.19492 0.95095
 H3519 H 0.29226 0.23136 0.92539
 H3520 H 0.30402 0.22015 0.90606
 H3521 H 0.29766 0.24207 0.94861
 H3522 H 0.28433 0.25313 0.96708
 H3523 H 0.26506 0.21177 0.97492
 H3524 H 0.27845 0.20075 0.95651
 C3525 C 0.81710 0.69189 0.90634
 C3526 C 0.82028 0.70025 0.89469
 C3527 C 0.82648 0.69388 0.88328
 C3528 C 0.82946 0.67897 0.88316
 C3529 C 0.82641 0.67059 0.89477
 C3530 C 0.82040 0.67700 0.90628
 C3531 C 0.80998 0.69860 0.91827
 C3532 C 0.80023 0.69071 0.92575
 C3533 C 0.79313 0.69718 0.93656
 C3534 C 0.79543 0.71180 0.94008
 C3535 C 0.80531 0.71964 0.93273
 C3536 C 0.81256 0.71310 0.92204
 C3537 C 0.78731 0.71893 0.95111
 C3538 C 0.79312 0.72962 0.95960
 C3539 C 0.78533 0.73659 0.96966
 C3540 C 0.77161 0.73287 0.97159
 C3541 C 0.76582 0.72207 0.96326
 C3542 C 0.77354 0.71527 0.95308
 H3543 H 0.81766 0.71166 0.89421
 H3544 H 0.82858 0.70053 0.87437
 H3545 H 0.82873 0.65909 0.89494
 H3546 H 0.81836 0.67027 0.91514
 H3547 H 0.79782 0.67959 0.92307
 H3548 H 0.78579 0.69070 0.94214
 H3549 H 0.80728 0.73096 0.93501
 H3550 H 0.82015 0.71947 0.91669
 H3551 H 0.80374 0.73254 0.95857
 H3552 H 0.79009 0.74480 0.97600
 H3553 H 0.75523 0.71907 0.96444
 H3554 H 0.76860 0.70734 0.94658
 C3555 C 0.81426 0.19408 0.40026
 C3556 C 0.80656 0.19004 0.38873
 C3557 C 0.81273 0.18322 0.37755
 C3558 C 0.82677 0.18045 0.37753
 C3559 C 0.83456 0.18474 0.38888
 C3560 C 0.82836 0.19141 0.40016
 C3561 C 0.80753 0.20087 0.41235
 C3562 C 0.81406 0.21183 0.41994
 C3563 C 0.80763 0.21822 0.43124
 C3564 C 0.79446 0.21389 0.43516
 C3565 C 0.78795 0.20293 0.42756
 C3566 C 0.79443 0.19645 0.41637
 C3567 C 0.78742 0.22082 0.44700
 C3568 C 0.77882 0.21261 0.45554
 C3569 C 0.77163 0.21922 0.46620
 C3570 C 0.77300 0.23417 0.46872
 C3571 C 0.78186 0.24235 0.46046
 C3572 C 0.78894 0.23577 0.44967
 H3573 H 0.79575 0.19223 0.38828
 H3574 H 0.80653 0.18022 0.36882
 H3575 H 0.84540 0.18262 0.38914
 H3576 H 0.83458 0.19419 0.40893
 H3577 H 0.82409 0.21562 0.41706
 H3578 H 0.81301 0.22650 0.43695
 H3579 H 0.77774 0.19945 0.43012
 H3580 H 0.78917 0.18788 0.41093
 H3581 H 0.77764 0.20103 0.45400
 H3582 H 0.76498 0.21261 0.47249
 H3583 H 0.78306 0.25392 0.46212
 H3584 H 0.79531 0.24248 0.44320
 C3585 C 0.68487 0.30934 0.40140
 C3586 C 0.67841 0.30074 0.39142
 C3587 C 0.67232 0.30713 0.37999
 C3588 C 0.67236 0.32231 0.37830
 C3589 C 0.67861 0.33092 0.38840
 C3590 C 0.68485 0.32452 0.39975
 C3591 C 0.69182 0.30250 0.41332
 C3592 C 0.69179 0.30930 0.42625
 C3593 C 0.69869 0.30308 0.43730
 C3594 C 0.70560 0.28983 0.43574
 C3595 C 0.70548 0.28290 0.42292
 C3596 C 0.69874 0.28920 0.41182
 C3597 C 0.71319 0.28339 0.44734
 C3598 C 0.71187 0.26855 0.45044
 C3599 C 0.71933 0.26240 0.46115
 C3600 C 0.72842 0.27092 0.46882
 C3601 C 0.72968 0.28578 0.46575
 C3602 C 0.72206 0.29197 0.45518
 H3603 H 0.67803 0.28904 0.39244
 H3604 H 0.66777 0.30013 0.37234
 H3605 H 0.67866 0.34265 0.38757
 H3606 H 0.68986 0.33150 0.40712
 H3607 H 0.68636 0.31939 0.42787
 H3608 H 0.69852 0.30855 0.44713
 H3609 H 0.71089 0.27277 0.42141
 H3610 H 0.69923 0.28379 0.40198
 H3611 H 0.70502 0.26174 0.44460
 H3612 H 0.71817 0.25091 0.46326
 H3613 H 0.73658 0.29263 0.47150
 H3614 H 0.72333 0.30341 0.45291
 C3615 C 0.68772 0.81250 0.90173
 C3616 C 0.67348 0.81228 0.90034
 C3617 C 0.66719 0.81887 0.88909
 C3618 C 0.67499 0.82569 0.87885
 C3619 C 0.68922 0.82596 0.88029
 C3620 C 0.69548 0.81958 0.89162
 C3621 C 0.69452 0.80526 0.91354
 C3622 C 0.70726 0.79849 0.91184
 C3623 C 0.71384 0.79202 0.92293
 C3624 C 0.70775 0.79191 0.93594
 C3625 C 0.69493 0.79837 0.93767
 C3626 C 0.68842 0.80508 0.92661
 C3627 C 0.71489 0.78520 0.94767
 C3628 C 0.70824 0.77508 0.95611
 C3629 C 0.71520 0.76841 0.96691
 C3630 C 0.72884 0.77197 0.96961
 C3631 C 0.73539 0.78230 0.96129
 C3632 C 0.72851 0.78875 0.95036
 H3633 H 0.66716 0.80680 0.90782
 H3634 H 0.65620 0.81862 0.88845
 H3635 H 0.69561 0.83089 0.87254
 H3636 H 0.70644 0.82025 0.89244
 H3637 H 0.71213 0.79805 0.90189
 H3638 H 0.72365 0.78691 0.92133
 H3639 H 0.69009 0.79851 0.94765
 H3640 H 0.67873 0.81036 0.92838
 H3641 H 0.69775 0.77213 0.95417
 H3642 H 0.70990 0.76052 0.97318
 H3643 H 0.74591 0.78522 0.96310
 H3644 H 0.73381 0.79660 0.94404
 C3645 C 0.18672 0.30875 0.90372
 C3646 C 0.17939 0.30022 0.89432
 C3647 C 0.17326 0.30654 0.88288
 C3648 C 0.17417 0.32160 0.88059
 C3649 C 0.18137 0.33016 0.89007
 C3650 C 0.18761 0.32381 0.90145
 C3651 C 0.19356 0.30194 0.91572
 C3652 C 0.19416 0.30919 0.92840
 C3653 C 0.20083 0.30290 0.93957
 C3654 C 0.20692 0.28915 0.93835
 C3655 C 0.20620 0.28181 0.92575
 C3656 C 0.19966 0.28816 0.91455
 C3657 C 0.21423 0.28259 0.95009
 C3658 C 0.21233 0.26788 0.95344
 C3659 C 0.21952 0.26160 0.96428
 C3660 C 0.22889 0.26986 0.97187
 C3661 C 0.23072 0.28460 0.96856
 C3662 C 0.22341 0.29091 0.95783
 H3663 H 0.17832 0.28862 0.89583
 H3664 H 0.16796 0.29958 0.87571
 H3665 H 0.18213 0.34181 0.88873
 H3666 H 0.19331 0.33070 0.90836
 H3667 H 0.18936 0.31969 0.92976
 H3668 H 0.20111 0.30872 0.94922
 H3669 H 0.21098 0.27129 0.92449
 H3670 H 0.19964 0.28238 0.90489
 H3671 H 0.20523 0.26126 0.94770
 H3672 H 0.21791 0.25022 0.96657
 H3673 H 0.23785 0.29125 0.97422
 H3674 H 0.22515 0.30224 0.95538
 C3675 C 0.18500 0.80812 0.40494
 C3676 C 0.18547 0.82321 0.40269
 C3677 C 0.17934 0.82933 0.39113
 C3678 C 0.17270 0.82051 0.38145
 C3679 C 0.17211 0.80545 0.38379
 C3680 C 0.17809 0.79935 0.39541
 C3681 C 0.19193 0.80150 0.41698
 C3682 C 0.19840 0.78791 0.41580
 C3683 C 0.20501 0.78171 0.42702
 C3684 C 0.20547 0.78902 0.43965
 C3685 C 0.19907 0.80260 0.44087
 C3686 C 0.19230 0.80874 0.42969
 C3687 C 0.21280 0.78253 0.45140
 C3688 C 0.22191 0.79092 0.45917
 C3689 C 0.22931 0.78461 0.46984
 C3690 C 0.22761 0.76984 0.47309
 C3691 C 0.21827 0.76154 0.46550
 C3692 C 0.21101 0.76781 0.45471
 H3693 H 0.19081 0.83030 0.40972
 H3694 H 0.17983 0.84100 0.38978
 H3695 H 0.16725 0.79828 0.37648
 H3696 H 0.17731 0.78773 0.39691
 H3697 H 0.19860 0.78216 0.40613
 H3698 H 0.21005 0.77132 0.42576
 H3699 H 0.19917 0.80838 0.45054
 H3700 H 0.18724 0.81909 0.43105
 H3701 H 0.22354 0.80227 0.45675
 H3702 H 0.23641 0.79129 0.47552
 H3703 H 0.21675 0.75013 0.46774
 H3704 H 0.20396 0.76114 0.44895
 C3705 C 0.68205 0.69003 0.59775
 C3706 C 0.68255 0.67489 0.59963
 C3707 C 0.67633 0.66842 0.61098
 C3708 C 0.66956 0.67694 0.62083
 C3709 C 0.66892 0.69206 0.61886
 C3710 C 0.67501 0.69851 0.60744
 C3711 C 0.68913 0.69700 0.58596
 C3712 C 0.69561 0.71054 0.58755
 C3713 C 0.70248 0.71698 0.57659
 C3714 C 0.70319 0.70998 0.56383
 C3715 C 0.69672 0.69649 0.56217
 C3716 C 0.68969 0.69011 0.57309
 C3717 C 0.71096 0.71658 0.55240
 C3718 C 0.72015 0.70817 0.54473
 C3719 C 0.72790 0.71451 0.53432
 C3720 C 0.72650 0.72935 0.53123
 C3721 C 0.71711 0.73771 0.53874
 C3722 C 0.70948 0.73140 0.54928
 H3723 H 0.68801 0.66802 0.59248
 H3724 H 0.67687 0.65673 0.61206
 H3725 H 0.66396 0.69901 0.62631
 H3726 H 0.67421 0.71017 0.60622
 H3727 H 0.69564 0.71603 0.59736
 H3728 H 0.70756 0.72729 0.57819
 H3729 H 0.69700 0.69095 0.55238
 H3730 H 0.68462 0.67982 0.57141
 H3731 H 0.72156 0.69675 0.54701
 H3732 H 0.73503 0.70778 0.52869
 H3733 H 0.71581 0.74917 0.53661
 H3734 H 0.70239 0.73809 0.55499
 C3735 C 0.68738 0.18675 0.09844
 C3736 C 0.69516 0.18010 0.10877
 C3737 C 0.68888 0.17359 0.12004
 C3738 C 0.67462 0.17328 0.12120
 C3739 C 0.66682 0.17972 0.11076
 C3740 C 0.67311 0.18646 0.09958
 C3741 C 0.69416 0.19400 0.08660
 C3742 C 0.68826 0.19376 0.07345
 C3743 C 0.69476 0.20045 0.06236
 C3744 C 0.70740 0.20728 0.06413
 C3745 C 0.71329 0.20759 0.07721
 C3746 C 0.70670 0.20115 0.08834
 C3747 C 0.71456 0.21394 0.05238
 C3748 C 0.72823 0.21047 0.04978
 C3749 C 0.73517 0.21698 0.03891
 C3750 C 0.72866 0.22729 0.03058
 C3751 C 0.71495 0.23073 0.03315
 C3752 C 0.70792 0.22398 0.04388
 H3753 H 0.70615 0.17984 0.10815
 H3754 H 0.69526 0.16898 0.12795
 H3755 H 0.65581 0.17952 0.11118
 H3756 H 0.66676 0.19160 0.09194
 H3757 H 0.67874 0.18818 0.07165
 H3758 H 0.69009 0.20000 0.05233
 H3759 H 0.72296 0.21298 0.07883
 H3760 H 0.71141 0.20192 0.09833
 H3761 H 0.73351 0.20268 0.05617
 H3762 H 0.74574 0.21417 0.03721
 H3763 H 0.70968 0.23862 0.02687
 H3764 H 0.69739 0.22685 0.04575
 C3765 C 0.18622 0.68977 0.09504
 C3766 C 0.18714 0.67473 0.09744
 C3767 C 0.18079 0.66848 0.10883
 C3768 C 0.17346 0.67711 0.11817
 C3769 C 0.17249 0.69213 0.11572
 C3770 C 0.17872 0.69836 0.10427
 C3771 C 0.19321 0.69651 0.08308
 C3772 C 0.19919 0.71034 0.08423
 C3773 C 0.20577 0.71670 0.07304
 C3774 C 0.20667 0.70931 0.06049
 C3775 C 0.20079 0.69546 0.05930
 C3776 C 0.19407 0.68916 0.07045
 C3777 C 0.21383 0.71602 0.04872
 C3778 C 0.22330 0.70799 0.04103
 C3779 C 0.23045 0.71453 0.03028
 C3780 C 0.22813 0.72917 0.02690
 C3781 C 0.21845 0.73710 0.03444
 C3782 C 0.21143 0.73062 0.04529
 H3783 H 0.19296 0.66780 0.09065
 H3784 H 0.18159 0.65685 0.11028
 H3785 H 0.16709 0.69916 0.12278
 H3786 H 0.17761 0.70994 0.10264
 H3787 H 0.19900 0.71619 0.09386
 H3788 H 0.21039 0.72730 0.07428
 H3789 H 0.20123 0.68961 0.04968
 H3790 H 0.18939 0.67860 0.06911
 H3791 H 0.22539 0.69675 0.04354
 H3792 H 0.23783 0.70813 0.02464
 H3793 H 0.21645 0.74840 0.03210
 H3794 H 0.20409 0.73700 0.05099
 C3795 C 0.18480 0.19199 0.59511
 C3796 C 0.19249 0.18912 0.60695
 C3797 C 0.18635 0.18331 0.61863
 C3798 C 0.17234 0.18036 0.61882
 C3799 C 0.16457 0.18339 0.60711
 C3800 C 0.17074 0.18909 0.59534
 C3801 C 0.19149 0.19794 0.58262
 C3802 C 0.18489 0.20829 0.57438
 C3803 C 0.19139 0.21412 0.56286
 C3804 C 0.20468 0.20981 0.55936
 C3805 C 0.21122 0.19937 0.56756
 C3806 C 0.20469 0.19347 0.57897
 C3807 C 0.21187 0.21634 0.54741
 C3808 C 0.22077 0.20791 0.53937
 C3809 C 0.22820 0.21422 0.52870
 C3810 C 0.22678 0.22907 0.52570
 C3811 C 0.21759 0.23742 0.53344
 C3812 C 0.21027 0.23115 0.54422
 H3813 H 0.20327 0.19154 0.60727
 H3814 H 0.19253 0.18132 0.62761
 H3815 H 0.15376 0.18111 0.60697
 H3816 H 0.16454 0.19098 0.58636
 H3817 H 0.17478 0.21210 0.57695
 H3818 H 0.18599 0.22200 0.55669
 H3819 H 0.22152 0.19593 0.56531
 H3820 H 0.21000 0.18534 0.58494
 H3821 H 0.22204 0.19642 0.54133
 H3822 H 0.23509 0.20746 0.52283
 H3823 H 0.21633 0.24891 0.53140
 H3824 H 0.20366 0.23802 0.55030
   
