data_POSCAR
  _audit_creation_date              2014-09-24
  _audit_creation_method            'ToBaCCo'
  _symmetry_space_group_name_H-M    'P1'
  _symmetry_Int_Tables_number       1
  _symmetry_cell_setting            triclinic
  loop_
  _symmetry_equiv_pos_as_xyz
 x,y,z
_cell_length_a 45.8655
_cell_length_b 45.8831
_cell_length_c 45.9599
_cell_angle_alpha 90.033900
_cell_angle_beta 90.023900
_cell_angle_gamma 90.014400
loop_
  _atom_site_label
  _atom_site_type_symbol
  _atom_site_fract_x
  _atom_site_fract_y
  _atom_site_fract_z
C1 C 0.36736 0.33105 0.33233
 N2 N 0.35530 0.35513 0.32016
 C3 C 0.33121 0.36739 0.33215
 N4 N 0.31905 0.35539 0.35624
 C5 C 0.33107 0.33130 0.36847
 N6 N 0.35516 0.31909 0.35642
 C7 C 0.36928 0.83186 -0.16751
 N8 N 0.35717 0.85589 -0.17979
 C9 C 0.33302 0.86816 -0.16791
 N10 N 0.32085 0.85620 -0.14380
 C11 C 0.33287 0.83220 -0.13145
 N12 N 0.35701 0.81998 -0.14339
 C13 C 0.86799 0.33253 -0.16842
 N14 N 0.85557 0.32068 -0.14440
 C15 C 0.83149 0.33303 -0.13252
 N16 N 0.81967 0.35716 -0.14485
 C17 C 0.83203 0.36909 -0.16890
 N18 N 0.85614 0.35665 -0.18071
 C19 C 0.86824 0.83138 0.33131
 N20 N 0.85607 0.85532 0.31893
 C21 C 0.83196 0.86762 0.33084
 N22 N 0.81988 0.85583 0.35507
 C23 C 0.83199 0.83191 0.36752
 N24 N 0.85609 0.81965 0.35555
 C25 C 0.63238 0.66798 0.33255
 N26 N 0.64475 0.67981 0.35664
 C27 C 0.66894 0.66757 0.36844
 N28 N 0.68091 0.64358 0.35596
 C29 C 0.66859 0.63170 0.33186
 N30 N 0.64439 0.64400 0.32012
 C31 C 0.63221 0.16758 -0.16998
 N32 N 0.64487 0.14371 -0.18205
 C33 C 0.66911 0.13193 -0.16986
 N34 N 0.68082 0.14422 -0.14565
 C35 C 0.66824 0.16807 -0.13353
 N36 N 0.64401 0.17979 -0.14579
 C37 C 0.13336 0.66713 -0.16814
 N38 N 0.14542 0.67921 -0.14401
 C39 C 0.16955 0.66717 -0.13188
 N40 N 0.18174 0.64314 -0.14405
 C41 C 0.16973 0.63098 -0.16817
 N42 N 0.14560 0.64309 -0.18024
 C43 C 0.13089 0.16757 0.33198
 N44 N 0.14314 0.14354 0.31982
 C45 C 0.16730 0.13142 0.33186
 N46 N 0.17931 0.14352 0.35602
 C47 C 0.16712 0.16751 0.36824
 N48 N 0.14300 0.17959 0.35612
 C49 C 0.63185 0.33214 0.66830
 N50 N 0.64406 0.35618 0.68045
 C51 C 0.66803 0.36848 0.66827
 N52 N 0.67995 0.35652 0.64401
 C53 C 0.66779 0.33246 0.63182
 N54 N 0.64381 0.32023 0.64407
 C55 C 0.63037 0.83115 1.16874
 N56 N 0.64248 0.81923 1.14456
 C57 C 0.66642 0.83156 1.13233
 N58 N 0.67841 0.85572 1.14447
 C59 C 0.66639 0.86770 1.16866
 N60 N 0.64243 0.85532 1.18081
 C61 C 0.13031 0.33043 1.16932
 N62 N 0.14235 0.31843 1.14514
 C63 C 0.16626 0.33071 1.13281
 N64 N 0.17828 0.35492 1.14483
 C65 C 0.16631 0.36698 1.16900
 N66 N 0.14242 0.35464 1.18127
 C67 C 0.13259 0.83197 0.66961
 N68 N 0.14502 0.85595 0.68174
 C69 C 0.16912 0.86803 0.66957
 N70 N 0.18090 0.85595 0.64532
 C71 C 0.16855 0.83202 0.63311
 N72 N 0.14447 0.81998 0.64534
 C73 C 0.36872 0.66893 0.66828
 N74 N 0.35643 0.68084 0.64420
 C75 C 0.33241 0.66850 0.63213
 N76 N 0.32054 0.64433 0.64433
 C77 C 0.33277 0.63236 0.66840
 N78 N 0.35680 0.64475 0.68043
 C79 C 0.36754 0.16792 1.16913
 N80 N 0.35525 0.14393 1.18132
 C81 C 0.33109 0.13178 1.16931
 N82 N 0.31907 0.14384 1.14516
 C83 C 0.33127 0.16783 1.13292
 N84 N 0.35543 0.17990 1.14498
 C85 C 0.86750 0.66801 1.16766
 N86 N 0.85513 0.68000 1.14366
 C87 C 0.83104 0.66773 1.13167
 N88 N 0.81917 0.64355 1.14386
 C89 C 0.83148 0.63149 1.16787
 N90 N 0.85559 0.64385 1.17980
 C91 C 0.86874 0.16955 0.66753
 N92 N 0.85660 0.14537 0.67948
 C93 C 0.83249 0.13321 0.66735
 N94 N 0.82043 0.14543 0.64330
 C95 C 0.83251 0.16958 0.63127
 N96 N 0.85657 0.18168 0.64348
 C97 C 0.33220 0.36762 0.66834
 N98 N 0.35624 0.35538 0.68044
 C99 C 0.36829 0.33122 0.66841
 N100 N 0.35609 0.31913 0.64435
 C101 C 0.33202 0.33130 0.63221
 N102 N 0.32004 0.35548 0.64430
 C103 C 0.33185 0.86893 0.16868
 N104 N 0.35588 0.85678 0.18095
 C105 C 0.36806 0.83265 0.16898
 N106 N 0.35604 0.82052 0.14487
 C107 C 0.33204 0.83261 0.13255
 N108 N 0.31989 0.85676 0.14455
 C109 C 0.83264 0.36758 0.16734
 N110 N 0.85656 0.35518 0.17955
 C111 C 0.86847 0.33091 0.16757
 N112 N 0.85626 0.31891 0.14348
 C113 C 0.83236 0.33126 0.13122
 N114 N 0.82049 0.35552 0.14324
 C115 C 0.83383 0.86935 0.66738
 N116 N 0.85785 0.85726 0.67969
 C117 C 0.86999 0.83301 0.66789
 N118 N 0.85790 0.82071 0.64389
 C119 C 0.83387 0.83273 0.63155
 N120 N 0.82179 0.85698 0.64339
 C121 C 0.66890 0.63271 0.66861
 N122 N 0.64486 0.64474 0.68092
 C123 C 0.63255 0.66886 0.66905
 N124 N 0.64447 0.68107 0.64494
 C125 C 0.66851 0.66909 0.63258
 N126 N 0.68076 0.64498 0.64451
 C127 C 0.66709 0.13101 0.16617
 N128 N 0.67911 0.14336 0.14219
 C129 C 0.66694 0.16753 0.13029
 N130 N 0.64285 0.17949 0.14257
 C131 C 0.63079 0.16719 0.16656
 N132 N 0.64300 0.14302 0.17840
 C133 C 0.16760 0.63188 0.16779
 N134 N 0.14351 0.64398 0.17996
 C135 C 0.13140 0.66818 0.16805
 N136 N 0.14355 0.68039 0.14406
 C137 C 0.16761 0.66834 0.13184
 N138 N 0.17969 0.64415 0.14380
 C139 C 0.16809 0.13023 0.66908
 N140 N 0.14398 0.14249 0.68101
 C141 C 0.13187 0.16649 0.66873
 N142 N 0.14407 0.17839 0.64460
 C143 C 0.16820 0.16619 0.63263
 N144 N 0.18026 0.14218 0.64497
 C145 C 0.33123 0.63147 0.33233
 N146 N 0.35539 0.64348 0.32024
 C147 C 0.36769 0.66753 0.33232
 N148 N 0.35563 0.67969 0.35640
 C149 C 0.33146 0.66773 0.36852
 N150 N 0.31922 0.64370 0.35639
 C151 C 0.33252 0.13098 0.83320
 N152 N 0.32022 0.14311 0.85716
 C153 C 0.33213 0.16731 0.86932
 N154 N 0.35624 0.17952 0.85730
 C155 C 0.36858 0.16741 0.83334
 N156 N 0.35662 0.14322 0.82125
 C157 C 0.83264 0.63269 0.83253
 N158 N 0.82051 0.64505 0.85648
 C159 C 0.83260 0.66924 0.86845
 N160 N 0.85673 0.68122 0.85628
 C161 C 0.86893 0.66893 0.83235
 N162 N 0.85680 0.64472 0.82043
 C163 C 0.83035 0.13078 0.33153
 N164 N 0.85463 0.14267 0.31956
 C165 C 0.86698 0.16665 0.33168
 N166 N 0.85487 0.17889 0.35569
 C167 C 0.83057 0.16706 0.36770
 N168 N 0.81827 0.14307 0.35552
 C169 C 0.66783 0.36833 0.33042
 N170 N 0.67986 0.35637 0.35459
 C171 C 0.66770 0.33238 0.36687
 N172 N 0.64360 0.32020 0.35477
 C173 C 0.63153 0.33212 0.33057
 N174 N 0.64375 0.35611 0.31836
 C175 C 0.66955 0.87039 0.83144
 N176 N 0.68149 0.85826 0.85558
 C177 C 0.66912 0.83435 0.86781
 N178 N 0.64490 0.82244 0.85571
 C179 C 0.63292 0.83450 0.83156
 N180 N 0.64533 0.85842 0.81938
 C181 C 0.16826 0.36819 0.83212
 N182 N 0.18024 0.35605 0.85623
 C183 C 0.16803 0.33199 0.86834
 N184 N 0.14393 0.31993 0.85612
 C185 C 0.13192 0.33201 0.83198
 N186 N 0.14418 0.35608 0.81995
 C187 C 0.16736 0.86894 0.33244
 N188 N 0.17960 0.85687 0.35647
 C189 C 0.16761 0.83277 0.36868
 N190 N 0.14349 0.82058 0.35666
 C191 C 0.13121 0.83259 0.33263
 N192 N 0.14323 0.85671 0.32047
 O193 O 0.25143 1.02958 0.21252
 O194 O 0.21143 0.97257 0.25226
 O195 O 0.21128 1.02951 0.25224
 O196 O 0.25146 0.97263 0.21246
 O197 O 0.28545 0.97270 0.24658
 O198 O 0.24529 1.02955 0.28636
 O199 O 0.24544 0.97266 0.28637
 O200 O 0.28542 1.02961 0.24665
 Cu201 Cu 0.22797 1.00107 0.22892
 Cu202 Cu 0.26883 1.00114 0.26993
 C203 C 0.27504 1.03946 0.22303
 C204 C 0.22184 0.96275 0.27589
 C205 C 0.22164 1.03936 0.27589
 C206 C 0.27509 0.96281 0.22296
 O207 O 0.28680 0.47160 0.74644
 O208 O 0.24708 0.52858 0.78644
 O209 O 0.24692 0.47168 0.78636
 O210 O 0.28701 0.52852 0.74657
 O211 O 0.25289 0.52865 0.71257
 O212 O 0.21279 0.47181 0.75237
 O213 O 0.21295 0.52873 0.75244
 O214 O 0.25266 0.47172 0.71245
 Cu215 Cu 0.27040 0.50008 0.76988
 Cu216 Cu 0.22938 0.50024 0.72902
 C217 C 0.27628 0.46178 0.72286
 C218 C 0.22346 0.53852 0.77605
 C219 C 0.22324 0.46190 0.77594
 C220 C 0.27657 0.53844 0.72300
 O221 O 0.75155 -0.02948 0.28571
 O222 O 0.71153 0.02728 0.24574
 O223 O 0.71159 -0.02965 0.24581
 O224 O 0.75157 0.02740 0.28554
 O225 O 0.78562 0.02733 0.25150
 O226 O 0.74565 -0.02973 0.21177
 O227 O 0.74557 0.02721 0.21169
 O228 O 0.78561 -0.02956 0.25168
 Cu229 Cu 0.72812 -0.00111 0.26913
 Cu230 Cu 0.76904 -0.00120 0.22821
 C231 C 0.77521 -0.03932 0.27532
 C232 C 0.72195 0.03709 0.22213
 C233 C 0.72202 -0.03957 0.22224
 C234 C 0.77521 0.03722 0.27509
 O235 O 0.71374 0.52877 0.74763
 O236 O 0.75364 0.47179 0.78734
 O237 O 0.75406 0.52874 0.78715
 O238 O 0.71401 0.47186 0.74712
 O239 O 0.74808 0.47195 0.71310
 O240 O 0.78811 0.52872 0.75312
 O241 O 0.78773 0.47177 0.75334
 O242 O 0.74779 0.52887 0.71359
 Cu243 Cu 0.73043 0.50028 0.77075
 Cu244 Cu 0.77137 0.50033 0.72986
 C245 C 0.72415 0.53870 0.72408
 C246 C 0.77724 0.46189 0.77691
 C247 C 0.77770 0.53859 0.77671
 C248 C 0.72444 0.46207 0.72348
 O249 O 0.25167 0.47110 0.28726
 O250 O 0.21189 0.52798 0.24725
 O251 O 0.21203 0.47104 0.24706
 O252 O 0.25217 0.52801 0.28683
 O253 O 0.28623 0.52779 0.25280
 O254 O 0.24611 0.47091 0.21305
 O255 O 0.24595 0.52786 0.21323
 O256 O 0.28576 0.47088 0.25326
 Cu257 Cu 0.22849 0.49956 0.27052
 Cu258 Cu 0.26945 0.49934 0.22965
 C259 C 0.27527 0.46114 0.27689
 C260 C 0.22234 0.53779 0.22366
 C261 C 0.22247 0.46110 0.22349
 C262 C 0.27584 0.53775 0.27637
 O263 O 0.74826 1.03054 0.78551
 O264 O 0.78895 0.97367 0.74626
 O265 O 0.78879 1.03065 0.74619
 O266 O 0.74855 0.97366 0.78568
 O267 O 0.71485 0.97343 0.75127
 O268 O 0.75511 1.03041 0.71176
 O269 O 0.75525 0.97344 0.71185
 O270 O 0.71458 1.03031 0.75107
 Cu271 Cu 0.77205 1.00216 0.76937
 Cu272 Cu 0.73157 1.00188 0.72800
 C273 C 0.72468 1.04024 0.77480
 C274 C 0.77879 0.96368 0.72259
 C275 C 0.77858 1.04041 0.72246
 C276 C 0.72505 0.96371 0.77502
 O277 O 0.78765 0.47172 0.24540
 O278 O 0.74821 0.52855 0.28585
 O279 O 0.74804 0.47167 0.28559
 O280 O 0.78753 0.52867 0.24537
 O281 O 0.75304 0.52872 0.21174
 O282 O 0.71358 0.47175 0.25193
 O283 O 0.71372 0.52863 0.25223
 O284 O 0.75319 0.47176 0.21173
 Cu285 Cu 0.77135 0.50015 0.26893
 Cu286 Cu 0.72991 0.50022 0.22850
 C287 C 0.77693 0.46187 0.22192
 C288 C 0.72444 0.53841 0.27575
 C289 C 0.72426 0.46186 0.27539
 C290 C 0.77678 0.53858 0.22193
 O291 O 0.25341 -0.02985 0.78838
 O292 O 0.21356 0.02699 0.74823
 O293 O 0.21324 -0.02991 0.74869
 O294 O 0.25307 0.02707 0.78857
 O295 O 0.28727 0.02704 0.75468
 O296 O 0.24740 -0.03001 0.71476
 O297 O 0.24778 0.02688 0.71435
 O298 O 0.28758 -0.02986 0.75446
 Cu299 Cu 0.22987 -0.00142 0.77189
 Cu300 Cu 0.27096 -0.00150 0.73114
 C301 C 0.27710 -0.03969 0.77802
 C302 C 0.22411 0.03676 0.72464
 C303 C 0.22371 -0.03981 0.72514
 C304 C 0.27673 0.03693 0.77823
 O305 O 0.25297 0.21298 0.97238
 O306 O 0.21254 0.25267 1.02908
 O307 O 0.21253 0.25244 0.97222
 O308 O 0.25282 0.21307 1.02920
 O309 O 0.28660 0.24746 1.02920
 O310 O 0.24629 0.28685 0.97223
 O311 O 0.24631 0.28705 1.02908
 O312 O 0.28673 0.24738 0.97238
 Cu313 Cu 0.22930 0.22932 1.00072
 Cu314 Cu 0.26988 0.27066 1.00071
 C315 C 0.27653 0.22362 0.96257
 C316 C 0.22277 0.27640 1.03892
 C317 C 0.22277 0.27615 0.96235
 C318 C 0.27636 0.22375 1.03906
 O319 O 0.24644 0.78743 0.47205
 O320 O 0.28698 0.74793 0.52872
 O321 O 0.28678 0.74787 0.47192
 O322 O 0.24644 0.78723 0.52889
 O323 O 0.21274 0.75277 0.52888
 O324 O 0.25307 0.71341 0.47195
 O325 O 0.25328 0.71346 0.52875
 O326 O 0.21272 0.75297 0.47204
 Cu327 Cu 0.27005 0.77110 0.50039
 Cu328 Cu 0.22955 0.72967 0.50039
 C329 C 0.22290 0.77673 0.46222
 C330 C 0.27683 0.72418 0.53856
 C331 C 0.27658 0.72411 0.46210
 C332 C 0.22296 0.77648 0.53877
 O333 O 0.21349 0.74725 -0.02830
 O334 O 0.25295 0.78752 0.02861
 O335 O 0.25369 0.78695 -0.02821
 O336 O 0.21349 0.74708 0.02852
 O337 O 0.24768 0.71312 0.02877
 O338 O 0.28786 0.75297 -0.02783
 O339 O 0.28715 0.75356 0.02898
 O340 O 0.24767 0.71327 -0.02804
 Cu341 Cu 0.22996 0.77063 0.00012
 Cu342 Cu 0.27104 0.72980 0.00051
 C343 C 0.22404 0.72362 -0.03803
 C344 C 0.27655 0.77721 0.03866
 C345 C 0.27743 0.77652 -0.03784
 C346 C 0.22397 0.72350 0.03846
 O347 O 0.21292 0.24560 0.47216
 O348 O 0.25311 0.28544 0.52897
 O349 O 0.25283 0.28557 0.47216
 O350 O 0.21285 0.24576 0.52901
 O351 O 0.24682 0.21157 0.52897
 O352 O 0.28683 0.25141 0.47209
 O353 O 0.28708 0.25125 0.52892
 O354 O 0.24691 0.21144 0.47212
 Cu355 Cu 0.22950 0.26903 0.50059
 Cu356 Cu 0.27033 0.22796 0.50053
 C357 C 0.22331 0.22195 0.46228
 C358 C 0.27674 0.27492 0.53877
 C359 C 0.27642 0.27507 0.46227
 C360 C 0.22322 0.22210 0.53884
 O361 O 0.74674 0.78805 0.97173
 O362 O 0.78643 0.74787 1.02855
 O363 O 0.78653 0.74795 0.97174
 O364 O 0.74651 0.78785 1.02858
 O365 O 0.71236 0.75383 1.02836
 O366 O 0.75235 0.71396 0.97154
 O367 O 0.75228 0.71385 1.02834
 O368 O 0.71256 0.75407 0.97151
 Cu369 Cu 0.76999 0.77137 1.00017
 Cu370 Cu 0.72893 0.73050 0.99991
 C371 C 0.72311 0.77769 0.96176
 C372 C 0.77593 0.72422 1.03827
 C373 C 0.77605 0.72436 0.96181
 C374 C 0.72283 0.77740 1.03833
 O375 O 0.74629 0.28744 0.47070
 O376 O 0.78650 0.24782 0.52761
 O377 O 0.78647 0.24772 0.47080
 O378 O 0.74686 0.28806 0.52756
 O379 O 0.71273 0.25403 0.52792
 O380 O 0.75235 0.21368 0.47110
 O381 O 0.75236 0.21379 0.52791
 O382 O 0.71217 0.25338 0.47106
 Cu383 Cu 0.76997 0.27120 0.49913
 Cu384 Cu 0.72895 0.23029 0.49953
 C385 C 0.72259 0.27692 0.46101
 C386 C 0.77606 0.22425 0.53760
 C387 C 0.77597 0.22404 0.46113
 C388 C 0.72328 0.27770 0.53760
 O389 O 0.78687 0.25315 -0.02927
 O390 O 0.74702 0.21280 0.02730
 O391 O 0.74722 0.21293 -0.02951
 O392 O 0.78667 0.25305 0.02754
 O393 O 0.75238 0.28691 0.02750
 O394 O 0.71288 0.24675 -0.02956
 O395 O 0.71271 0.24664 0.02727
 O396 O 0.75256 0.28699 -0.02933
 Cu397 Cu 0.77041 0.22957 -0.00097
 Cu398 Cu 0.72916 0.27024 -0.00103
 C399 C 0.77630 0.27672 -0.03910
 C400 C 0.72327 0.22306 0.03708
 C401 C 0.72354 0.22322 -0.03942
 C402 C 0.77606 0.27660 0.03739
 O403 O 0.75376 0.78752 0.52847
 O404 O 0.71370 0.74727 0.47192
 O405 O 0.71392 0.74743 0.52875
 O406 O 0.75378 0.78706 0.47165
 O407 O 0.78786 0.75299 0.47178
 O408 O 0.74801 0.71336 0.52882
 O409 O 0.74778 0.71319 0.47199
 O410 O 0.78785 0.75345 0.52861
 Cu411 Cu 0.73035 0.77076 0.50020
 Cu412 Cu 0.77131 0.72981 0.50032
 C413 C 0.77742 0.77715 0.53833
 C414 C 0.72413 0.72361 0.46214
 C415 C 0.72439 0.72384 0.53866
 C416 C 0.77740 0.77655 0.46182
 O417 O 1.02855 0.28513 0.24735
 O418 O 0.97151 0.24564 0.28748
 O419 O 1.02847 0.24520 0.28722
 O420 O 0.97165 0.28555 0.24761
 O421 O 0.97127 0.25147 0.21358
 O422 O 1.02813 0.21112 0.25319
 O423 O 0.97114 0.21153 0.25348
 O424 O 1.02818 0.25104 0.21332
 Cu425 Cu 1.00009 0.26881 0.27086
 Cu426 Cu 0.99963 0.22783 0.22997
 C427 C 1.03822 0.27463 0.22370
 C428 C 0.96142 0.22208 0.27709
 C429 C 1.03817 0.22152 0.27674
 C430 C 0.96165 0.27519 0.22403
 O431 O 0.47210 0.24580 0.78707
 O432 O 0.52875 0.28571 0.74687
 O433 O 0.47186 0.28543 0.74690
 O434 O 0.52906 0.24587 0.78679
 O435 O 0.52905 0.21165 0.75290
 O436 O 0.47185 0.25120 0.71302
 O437 O 0.52877 0.25150 0.71296
 O438 O 0.47207 0.21156 0.75320
 Cu439 Cu 0.50044 0.26915 0.77034
 Cu440 Cu 0.50043 0.22801 0.72961
 C441 C 0.46227 0.22210 0.77677
 C442 C 0.53856 0.27522 0.72328
 C443 C 0.46198 0.27487 0.72336
 C444 C 0.53898 0.22224 0.77640
 O445 O 0.02817 0.25238 0.78695
 O446 O -0.02885 0.21276 0.74686
 O447 O 0.02811 0.21274 0.74673
 O448 O -0.02875 0.25302 0.78645
 O449 O -0.02840 0.28706 0.75242
 O450 O 0.02838 0.24683 0.71274
 O451 O -0.02857 0.24681 0.71284
 O452 O 0.02851 0.28646 0.75296
 Cu453 Cu -0.00036 0.22928 0.77018
 Cu454 Cu 0.00001 0.27022 0.72931
 C455 C 0.03820 0.27596 0.77661
 C456 C -0.03860 0.22323 0.72325
 C457 C 0.03809 0.22315 0.72317
 C458 C -0.03841 0.27671 0.77598
 O459 O 0.47076 0.28672 0.25227
 O460 O 0.52741 0.24695 0.21189
 O461 O 0.47045 0.24694 0.21223
 O462 O 0.52770 0.28648 0.25221
 O463 O 0.52775 0.25219 0.28599
 O464 O 0.47055 0.21266 0.24602
 O465 O 0.52750 0.21265 0.24566
 O466 O 0.47082 0.25244 0.28607
 Cu467 Cu 0.49908 0.27023 0.22874
 Cu468 Cu 0.49917 0.22902 0.26934
 C469 C 0.46097 0.27616 0.27583
 C470 C 0.53726 0.22323 0.22210
 C471 C 0.46058 0.22327 0.22256
 C472 C 0.53761 0.27588 0.27571
 O473 O 0.97325 0.75286 0.71288
 O474 O 1.02999 0.71297 0.75311
 O475 O 0.97303 0.71289 0.75271
 O476 O 1.03019 0.75272 0.71304
 O477 O 1.03010 0.78686 0.74701
 O478 O 0.97290 0.74704 0.78666
 O479 O 1.02986 0.74712 0.78708
 O480 O 0.97317 0.78703 0.74683
 Cu481 Cu 1.00163 0.72941 0.72951
 Cu482 Cu 1.00149 0.77046 0.77032
 C483 C 0.96339 0.77655 0.72321
 C484 C 1.03974 0.72346 0.77674
 C485 C 0.96307 0.72339 0.77623
 C486 C 1.04003 0.77637 0.72346
 O487 O 0.52828 0.71324 0.25374
 O488 O 0.47132 0.75376 0.21453
 O489 O 0.52822 0.75346 0.21418
 O490 O 0.47134 0.71348 0.25405
 O491 O 0.47166 0.74732 0.28831
 O492 O 0.52861 0.78729 0.24847
 O493 O 0.47168 0.78761 0.24880
 O494 O 0.52862 0.74705 0.28804
 Cu495 Cu 0.49975 0.73007 0.23067
 Cu496 Cu 0.50018 0.77073 0.27188
 C497 C 0.53832 0.72346 0.27736
 C498 C 0.46165 0.77738 0.22517
 C499 C 0.53826 0.77698 0.22472
 C500 C 0.46164 0.72381 0.27775
 O501 O 0.02770 0.75363 0.28720
 O502 O -0.02913 0.71322 0.24757
 O503 O 0.02779 0.71315 0.24782
 O504 O -0.02923 0.75353 0.28710
 O505 O -0.02921 0.78723 0.25273
 O506 O 0.02788 0.74688 0.21348
 O507 O -0.02904 0.74693 0.21321
 O508 O 0.02774 0.78736 0.25286
 Cu509 Cu -0.00073 0.72998 0.27090
 Cu510 Cu -0.00064 0.77051 0.22961
 C511 C 0.03755 0.77717 0.27658
 C512 C -0.03891 0.72341 0.22383
 C513 C 0.03770 0.72334 0.22415
 C514 C -0.03910 0.77703 0.27641
 O515 O 0.47183 0.78838 0.75364
 O516 O 0.52886 0.74856 0.71377
 O517 O 0.47194 0.74821 0.71394
 O518 O 0.52881 0.78854 0.75364
 O519 O 0.52901 0.75455 0.78772
 O520 O 0.47213 0.71425 0.74806
 O521 O 0.52906 0.71457 0.74785
 O522 O 0.47204 0.75442 0.78775
 Cu523 Cu 0.50033 0.77186 0.73031
 Cu524 Cu 0.50058 0.73103 0.77129
 C525 C 0.46205 0.77797 0.77727
 C526 C 0.53883 0.72499 0.72421
 C527 C 0.46220 0.72456 0.72444
 C528 C 0.53877 0.77818 0.77722
 C529 C 0.43782 0.30271 0.32274
 C530 C 0.42259 0.33113 0.31261
 C531 C 0.39282 0.31673 0.31808
 C532 C 0.40769 0.28853 0.32842
 C533 C 0.39186 0.30533 0.28663
 C534 C 0.42192 0.31954 0.28095
 C535 C 0.43678 0.29134 0.29129
 C536 C 0.40700 0.27699 0.29678
 H537 H 0.45702 0.30148 0.33740
 H538 H 0.42872 0.35356 0.31931
 H539 H 0.40163 0.27585 0.34808
 H540 H 0.37270 0.30653 0.27192
 H541 H 0.42797 0.33221 0.26129
 H542 H 0.40084 0.25457 0.29006
 C543 C 0.40802 0.77855 0.79808
 C544 C 0.40856 0.79028 0.82966
 C545 C 0.39350 0.81830 0.81908
 C546 C 0.39265 0.80671 0.78771
 C547 C 0.42314 0.83294 0.81360
 C548 C 0.43858 0.80469 0.82393
 C549 C 0.43770 0.79311 0.79255
 C550 C 0.42262 0.82113 0.78200
 H551 H 0.40206 0.75605 0.79147
 H552 H 0.40262 0.77763 0.84938
 H553 H 0.37352 0.80764 0.77293
 H554 H 0.42909 0.85545 0.82016
 H555 H 0.45777 0.80372 0.83863
 H556 H 0.42861 0.83371 0.76227
 C557 C -0.09253 0.27805 0.79652
 C558 C -0.09197 0.28975 0.82811
 C559 C -0.10656 0.31801 0.81751
 C560 C -0.10739 0.30645 0.78612
 C561 C -0.07665 0.33216 0.81219
 C562 C -0.06170 0.30368 0.82257
 C563 C -0.06260 0.29215 0.79118
 C564 C -0.07718 0.32041 0.78058
 H565 H -0.09881 0.25565 0.78987
 H566 H -0.09826 0.27722 0.84779
 H567 H -0.12644 0.30772 0.77127
 H568 H -0.07041 0.35458 0.81881
 H569 H -0.04261 0.30239 0.83736
 H570 H -0.07091 0.33292 0.76089
 C571 C -0.09311 0.77786 0.29717
 C572 C -0.09253 0.78980 0.32867
 C573 C -0.10757 0.81776 0.31792
 C574 C -0.10846 0.80597 0.28662
 C575 C -0.07793 0.83233 0.31232
 C576 C -0.06250 0.80414 0.32283
 C577 C -0.06342 0.79236 0.29152
 C578 C -0.07848 0.82031 0.28079
 H579 H -0.09910 0.75532 0.29072
 H580 H -0.09846 0.77728 0.34847
 H581 H -0.12761 0.80681 0.27186
 H582 H -0.07195 0.85489 0.31872
 H583 H -0.04330 0.80324 0.33750
 H584 H -0.07249 0.83275 0.26097
 C585 C 0.56185 0.69637 0.32374
 C586 C 0.57697 0.66804 0.31320
 C587 C 0.60680 0.68237 0.31858
 C588 C 0.59204 0.71048 0.32934
 C589 C 0.60750 0.69406 0.28725
 C590 C 0.57738 0.67993 0.28165
 C591 C 0.56262 0.70804 0.29241
 C592 C 0.59246 0.72232 0.29782
 H593 H 0.54278 0.69747 0.33856
 H594 H 0.57089 0.64555 0.31970
 H595 H 0.59827 0.72297 0.34908
 H596 H 0.62653 0.69300 0.27238
 H597 H 0.57115 0.66746 0.26190
 H598 H 0.59859 0.74479 0.29128
 C599 C 0.59318 0.20194 0.77696
 C600 C 0.60842 0.21232 0.80517
 C601 C 0.60787 0.18082 0.81651
 C602 C 0.59295 0.17023 0.78845
 C603 C 0.57817 0.18593 0.83112
 C604 C 0.57838 0.21766 0.81955
 C605 C 0.56344 0.20710 0.79149
 C606 C 0.56286 0.17559 0.80283
 H607 H 0.59910 0.20874 0.75455
 H608 H 0.62741 0.22730 0.80622
 H609 H 0.59910 0.15061 0.77570
 H610 H 0.57226 0.17918 0.85354
 H611 H 0.57219 0.23729 0.83224
 H612 H 0.54381 0.16070 0.80172
 C613 C 1.09376 0.70268 0.77787
 C614 C 1.10881 0.71293 0.80621
 C615 C 1.10788 0.68145 0.81760
 C616 C 1.09311 0.67101 0.78940
 C617 C 1.07807 0.68688 0.83187
 C618 C 1.07869 0.71858 0.82028
 C619 C 1.06393 0.70814 0.79209
 C620 C 1.06294 0.67666 0.80346
 H621 H 1.09998 0.70938 0.75551
 H622 H 1.12794 0.72771 0.80745
 H623 H 1.09924 0.65131 0.77677
 H624 H 1.07190 0.68021 0.85425
 H625 H 1.07256 0.73829 0.83289
 H626 H 1.04377 0.66193 0.80218
 C627 C 1.06164 0.19477 0.32333
 C628 C 1.07699 0.16645 0.31304
 C629 C 1.10667 0.18103 0.31846
 C630 C 1.09170 0.20912 0.32899
 C631 C 1.10749 0.19251 0.28706
 C632 C 1.07747 0.17816 0.28141
 C633 C 1.06248 0.20624 0.29193
 C634 C 1.09222 0.22074 0.29739
 H635 H 1.04248 0.19584 0.33804
 H636 H 1.07099 0.14397 0.31965
 H637 H 1.09770 0.22183 0.34867
 H638 H 1.12660 0.19149 0.27227
 H639 H 1.07140 0.16553 0.26171
 H640 H 1.09823 0.24321 0.29074
 C641 C 0.59250 0.29623 0.72222
 C642 C 0.60757 0.28614 0.69385
 C643 C 0.60649 0.31766 0.68256
 C644 C 0.59168 0.32793 0.71079
 C645 C 0.57670 0.31210 0.66826
 C646 C 0.57748 0.28037 0.67975
 C647 C 0.56268 0.29065 0.70797
 C648 C 0.56153 0.32216 0.69670
 H649 H 0.59875 0.28948 0.74456
 H650 H 0.62678 0.27147 0.69257
 H651 H 0.59773 0.34762 0.72347
 H652 H 0.57048 0.31882 0.64590
 H653 H 0.57143 0.26066 0.66708
 H654 H 0.54229 0.33677 0.69801
 C655 C 0.56126 0.80375 0.17795
 C656 C 0.57670 0.83206 0.18814
 C657 C 0.60634 0.81752 0.18240
 C658 C 0.59128 0.78944 0.17195
 C659 C 0.60750 0.80598 0.21377
 C660 C 0.57754 0.82029 0.21974
 C661 C 0.56246 0.79221 0.20932
 C662 C 0.59213 0.77775 0.20353
 H663 H 0.54194 0.80269 0.16343
 H664 H 0.57062 0.85455 0.18164
 H665 H 0.59707 0.77678 0.15218
 H666 H 0.62677 0.80699 0.22837
 H667 H 0.57168 0.83287 0.23953
 H668 H 0.59822 0.75527 0.21008
 C669 C 1.09223 0.29548 0.22264
 C670 C 1.10735 0.28526 0.19433
 C671 C 1.10630 0.31673 0.18293
 C672 C 1.09149 0.32716 0.21110
 C673 C 1.07653 0.31120 0.16858
 C674 C 1.07724 0.27950 0.18020
 C675 C 1.06242 0.28991 0.20837
 C676 C 1.06135 0.32139 0.19698
 H677 H 1.09843 0.28881 0.24502
 H678 H 1.12651 0.27053 0.19314
 H679 H 1.09748 0.34688 0.22379
 H680 H 1.07034 0.31783 0.14619
 H681 H 1.07117 0.25976 0.16761
 H682 H 1.04213 0.33603 0.19821
 C683 C 1.07925 0.78132 0.68018
 C684 C 1.07870 0.81306 0.66865
 C685 C 1.10843 0.81843 0.68314
 C686 C 1.10931 0.78692 0.69445
 C687 C 1.09355 0.82884 0.71128
 C688 C 1.06344 0.82322 0.69702
 C689 C 1.06434 0.79170 0.70832
 C690 C 1.09411 0.79712 0.72273
 H691 H 1.07316 0.76164 0.66750
 H692 H 1.07263 0.81978 0.64626
 H693 H 1.12842 0.77211 0.69330
 H694 H 1.09958 0.84849 0.72404
 H695 H 1.04427 0.83794 0.69822
 H696 H 1.10020 0.79035 0.74511
 C697 C 0.40815 0.72329 0.70366
 C698 C 0.40883 0.71164 0.67206
 C699 C 0.39413 0.68339 0.68253
 C700 C 0.39318 0.69490 0.71394
 C701 C 0.42398 0.66918 0.68801
 C702 C 0.43904 0.69765 0.67775
 C703 C 0.43802 0.70914 0.70916
 C704 C 0.42333 0.68089 0.71963
 H705 H 0.40188 0.74570 0.71031
 H706 H 0.40267 0.72421 0.65236
 H707 H 0.37405 0.69366 0.72868
 H708 H 0.43021 0.64677 0.68140
 H709 H 0.45820 0.69892 0.66306
 H710 H 0.42949 0.66834 0.73934
 C711 C 0.42106 0.21852 0.17944
 C712 C 0.42145 0.18680 0.16781
 C713 C 0.39182 0.18146 0.18249
 C714 C 0.39109 0.21295 0.19389
 C715 C 0.40691 0.17097 0.21050
 C716 C 0.43691 0.17656 0.19604
 C717 C 0.43616 0.20806 0.20744
 C718 C 0.40649 0.20267 0.22204
 H719 H 0.42709 0.23821 0.16677
 H720 H 0.42734 0.18010 0.14535
 H721 H 0.37200 0.22779 0.19292
 H722 H 0.40094 0.15131 0.22324
 H723 H 0.45606 0.16181 0.19706
 H724 H 0.40059 0.20941 0.24448
 C725 C -0.07792 0.67984 0.21903
 C726 C -0.10800 0.69396 0.21327
 C727 C -0.10705 0.68241 0.18188
 C728 C -0.07726 0.66809 0.18743
 C729 C -0.09222 0.71058 0.17139
 C730 C -0.09291 0.72228 0.20297
 C731 C -0.06310 0.70801 0.20854
 C732 C -0.06208 0.69648 0.17716
 H733 H -0.07184 0.66730 0.23877
 H734 H -0.12716 0.69281 0.22798
 H735 H -0.07111 0.64564 0.18085
 H736 H -0.09831 0.72314 0.15167
 H737 H -0.09910 0.74472 0.20959
 H738 H -0.04288 0.69766 0.16250
 C739 C -0.07798 0.18002 0.71825
 C740 C -0.10797 0.19442 0.71257
 C741 C -0.10707 0.18300 0.68114
 C742 C -0.07743 0.16839 0.68659
 C743 C -0.09203 0.21111 0.67074
 C744 C -0.09261 0.22266 0.70238
 C745 C -0.06292 0.20812 0.70788
 C746 C -0.06200 0.19671 0.67644
 H747 H -0.07199 0.16734 0.73793
 H748 H -0.12711 0.19338 0.72731
 H749 H -0.07144 0.14591 0.67992
 H750 H -0.09796 0.22386 0.65109
 H751 H -0.09861 0.24513 0.70909
 H752 H -0.04280 0.19780 0.66178
 C753 C 0.29589 0.40703 0.27802
 C754 C 0.32755 0.40757 0.28964
 C755 C 0.31700 0.39288 0.31782
 C756 C 0.28552 0.39206 0.30633
 C757 C 0.31165 0.42272 0.33207
 C758 C 0.32199 0.43777 0.30368
 C759 C 0.29052 0.43690 0.29221
 C760 C 0.27996 0.42221 0.32038
 H761 H 0.28920 0.40082 0.25563
 H762 H 0.34726 0.40136 0.27708
 H763 H 0.27066 0.37300 0.30754
 H764 H 0.31830 0.42889 0.35446
 H765 H 0.33680 0.45687 0.30244
 H766 H 0.26024 0.42842 0.33293
 C767 C 0.32400 -0.06277 0.80466
 C768 C 0.31384 -0.07810 0.83298
 C769 C 0.31943 -0.10777 0.81848
 C770 C 0.32984 -0.09282 0.79039
 C771 C 0.28795 -0.10885 0.80706
 C772 C 0.28213 -0.07884 0.82133
 C773 C 0.29250 -0.06387 0.79325
 C774 C 0.29814 -0.09358 0.77883
 H775 H 0.33860 -0.04351 0.80353
 H776 H 0.32048 -0.07200 0.85540
 H777 H 0.34957 -0.09872 0.77771
 H778 H 0.27325 -0.12805 0.80813
 H779 H 0.26237 -0.07289 0.83395
 H780 H 0.29146 -0.09969 0.75642
 C781 C 0.82391 0.43828 0.80365
 C782 C 0.81344 0.42305 0.83192
 C783 C 0.81874 0.39331 0.81745
 C784 C 0.82946 0.40815 0.78941
 C785 C 0.78731 0.39261 0.80587
 C786 C 0.78178 0.42268 0.82012
 C787 C 0.79246 0.43754 0.79208
 C788 C 0.79781 0.40776 0.77769
 H789 H 0.83875 0.45735 0.80258
 H790 H 0.82003 0.42908 0.85437
 H791 H 0.84918 0.40202 0.77682
 H792 H 0.77237 0.37359 0.80689
 H793 H 0.76204 0.42886 0.83265
 H794 H 0.79117 0.40173 0.75525
 C795 C 0.82218 -0.06222 0.30201
 C796 C 0.81205 -0.07723 0.33049
 C797 C 0.81759 -0.10709 0.31635
 C798 C 0.82793 -0.09244 0.28808
 C799 C 0.78608 -0.10820 0.30499
 C800 C 0.78033 -0.07805 0.31893
 C801 C 0.79067 -0.06340 0.29067
 C802 C 0.79623 -0.09328 0.27657
 H803 H 0.83683 -0.04301 0.30063
 H804 H 0.81875 -0.07091 0.35283
 H805 H 0.84764 -0.09857 0.27548
 H806 H 0.77138 -0.12737 0.30633
 H807 H 0.76061 -0.07193 0.33153
 H808 H 0.78950 -0.09963 0.25424
 C809 C 0.28149 0.57760 0.67977
 C810 C 0.28711 0.60763 0.69404
 C811 C 0.31861 0.60681 0.68264
 C812 C 0.31320 0.57708 0.66818
 C813 C 0.32907 0.59192 0.71074
 C814 C 0.29738 0.59245 0.72228
 C815 C 0.29195 0.56270 0.70787
 C816 C 0.32344 0.56181 0.69649
 H817 H 0.26178 0.57151 0.66712
 H818 H 0.27231 0.62673 0.69291
 H819 H 0.31989 0.57104 0.64576
 H820 H 0.34877 0.59801 0.72339
 H821 H 0.29066 0.59853 0.74468
 H822 H 0.33819 0.54267 0.69765
 C823 C 0.28015 1.07870 0.17980
 C824 C 0.28589 1.10870 0.19412
 C825 C 0.31741 1.10770 0.18281
 C826 C 0.31189 1.07803 0.16827
 C827 C 0.32775 1.09272 0.21092
 C828 C 0.29602 1.09342 0.22237
 C829 C 0.29046 1.06371 0.20790
 C830 C 0.32198 1.06268 0.19660
 H831 H 0.26044 1.07273 0.16710
 H832 H 0.27117 1.12788 0.19301
 H833 H 0.31860 1.07196 0.14586
 H834 H 0.34744 1.09864 0.22369
 H835 H 0.28927 1.09949 0.24477
 H836 H 0.33662 1.04344 0.19777
 C837 C 0.82328 0.56220 0.19500
 C838 C 0.81272 0.57756 0.16682
 C839 C 0.81815 0.60723 0.18139
 C840 C 0.82895 0.59226 0.20934
 C841 C 0.78676 0.60794 0.19308
 C842 C 0.78111 0.57793 0.17874
 C843 C 0.79189 0.56294 0.20667
 C844 C 0.79736 0.59266 0.22116
 H845 H 0.83808 0.54309 0.19593
 H846 H 0.81920 0.57162 0.14432
 H847 H 0.84874 0.59829 0.22189
 H848 H 0.77187 0.62699 0.19220
 H849 H 0.76130 0.57183 0.16626
 H850 H 0.79083 0.59861 0.24365
 C851 C 0.82183 1.07986 0.71791
 C852 C 0.83369 1.07936 0.68633
 C853 C 0.81903 1.10897 0.68081
 C854 C 0.80740 1.10981 0.71217
 C855 C 0.79102 1.09388 0.67018
 C856 C 0.80545 1.06389 0.67593
 C857 C 0.79383 1.06476 0.70729
 C858 C 0.77925 1.09441 0.70174
 H859 H 0.83440 1.07389 0.73767
 H860 H 0.85622 1.07344 0.67982
 H861 H 0.80830 1.12894 0.72695
 H862 H 0.77837 1.09978 0.65044
 H863 H 0.80450 1.04471 0.66124
 H864 H 0.75673 1.10035 0.70829
 C865 C 0.67787 0.56147 0.30299
 C866 C 0.68839 0.57649 0.33136
 C867 C 0.68276 0.60634 0.31728
 C868 C 0.67203 0.59168 0.28913
 C869 C 0.71413 0.60735 0.30554
 C870 C 0.71997 0.57720 0.31942
 C871 C 0.70923 0.56254 0.29128
 C872 C 0.70358 0.59242 0.27725
 H873 H 0.66315 0.54230 0.30179
 H874 H 0.68196 0.57022 0.35378
 H875 H 0.65217 0.59784 0.27675
 H876 H 0.72890 0.62648 0.30671
 H877 H 0.73983 0.57105 0.33179
 H878 H 0.71004 0.59872 0.25484
 C879 C 0.72315 1.09420 0.79575
 C880 C 0.69479 1.10917 0.78530
 C881 C 0.68306 1.10800 0.81660
 C882 C 0.71128 1.09335 0.82726
 C883 C 0.66892 1.07818 0.81089
 C884 C 0.68087 1.07901 0.77936
 C885 C 0.70908 1.06433 0.78999
 C886 C 0.69736 1.06315 0.82130
 H887 H 0.74560 1.10054 0.78931
 H888 H 0.69363 1.12834 0.77061
 H889 H 0.72376 1.09939 0.84708
 H890 H 0.64645 1.07185 0.81729
 H891 H 0.66847 1.07290 0.75952
 H892 H 0.69857 1.04392 0.83590
 C893 C 0.22290 0.59246 0.79701
 C894 C 0.19466 0.60781 0.78683
 C895 C 0.18324 0.60685 0.81824
 C896 C 0.21134 0.59180 0.82865
 C897 C 0.16860 0.57722 0.81271
 C898 C 0.18024 0.57785 0.78106
 C899 C 0.20834 0.56279 0.79143
 C900 C 0.19693 0.56179 0.82286
 H901 H 0.24538 0.59846 0.79034
 H902 H 0.19363 0.62699 0.77214
 H903 H 0.22409 0.59769 0.84833
 H904 H 0.14612 0.57122 0.81934
 H905 H 0.16756 0.57191 0.76135
 H906 H 0.19801 0.54256 0.83746
 C907 C 0.22069 1.09326 0.29697
 C908 C 0.19239 1.10850 0.28677
 C909 C 0.18090 1.10738 0.31816
 C910 C 0.20907 1.09244 0.32857
 C911 C 0.16644 1.07769 0.31249
 C912 C 0.17815 1.07848 0.28087
 C913 C 0.20631 1.06353 0.29126
 C914 C 0.19483 1.06238 0.32265
 H915 H 0.24315 1.09942 0.29037
 H916 H 0.19128 1.12772 0.27214
 H917 H 0.22175 1.09832 0.34830
 H918 H 0.14397 1.07154 0.31906
 H919 H 0.16555 1.07253 0.26112
 H920 H 0.19598 1.04311 0.33720
 C921 C 0.67756 0.43881 0.69684
 C922 C 0.68773 0.42378 0.66836
 C923 C 0.68240 0.39392 0.68256
 C924 C 0.67201 0.40860 0.71082
 C925 C 0.71392 0.39305 0.69389
 C926 C 0.71948 0.42320 0.67989
 C927 C 0.70909 0.43787 0.70815
 C928 C 0.70373 0.40799 0.72229
 H929 H 0.66279 0.45792 0.69819
 H930 H 0.68098 0.42999 0.64601
 H931 H 0.65235 0.40240 0.72347
 H932 H 0.72874 0.37397 0.69256
 H933 H 0.73915 0.42941 0.66726
 H934 H 0.71051 0.40174 0.74463
 C935 C 0.70131 -0.09361 0.22163
 C936 C 0.66955 -0.09312 0.21022
 C937 C 0.67993 -0.10808 0.18210
 C938 C 0.71147 -0.10889 0.19338
 C939 C 0.68524 -0.07841 0.16753
 C940 C 0.67512 -0.06306 0.19588
 C941 C 0.70667 -0.06390 0.20714
 C942 C 0.71701 -0.07888 0.17903
 H943 H 0.70813 -0.09961 0.24402
 H944 H 0.64992 -0.09912 0.22301
 H945 H 0.72630 -0.12798 0.19226
 H946 H 0.67846 -0.07242 0.14513
 H947 H 0.66038 -0.04391 0.19704
 H948 H 0.73667 -0.07282 0.16631
 C949 C 0.17560 0.43756 0.19704
 C950 C 0.18580 0.42234 0.16867
 C951 C 0.18056 0.39258 0.18310
 C952 C 0.17015 0.40743 0.21126
 C953 C 0.21210 0.39188 0.19442
 C954 C 0.21755 0.42194 0.18018
 C955 C 0.20714 0.43679 0.20833
 C956 C 0.20187 0.40701 0.22271
 H957 H 0.16078 0.45664 0.19827
 H958 H 0.17901 0.42836 0.14628
 H959 H 0.15052 0.40126 0.22396
 H960 H 0.22697 0.37283 0.19322
 H961 H 0.23719 0.42811 0.16749
 H962 H 0.20869 0.40094 0.24508
 C963 C 0.19684 -0.06297 0.67844
 C964 C 0.21100 -0.09308 0.67260
 C965 C 0.18283 -0.10793 0.68314
 C966 C 0.16845 -0.07820 0.68873
 C967 C 0.19443 -0.10896 0.71451
 C968 C 0.22273 -0.09379 0.70418
 C969 C 0.20842 -0.06403 0.70981
 C970 C 0.18026 -0.07890 0.72032
 H971 H 0.19798 -0.04376 0.66382
 H972 H 0.22360 -0.09906 0.65287
 H973 H 0.14597 -0.07206 0.68220
 H974 H 0.19333 -0.12811 0.72921
 H975 H 0.24520 -0.09994 0.71075
 H976 H 0.16773 -0.07286 0.74008
 C977 C 0.31972 0.27994 0.42307
 C978 C 0.30538 0.28560 0.39313
 C979 C 0.31684 0.31708 0.39397
 C980 C 0.33138 0.31163 0.42362
 C981 C 0.28872 0.32754 0.40892
 C982 C 0.27712 0.29587 0.40835
 C983 C 0.29161 0.29039 0.43802
 C984 C 0.30305 0.32187 0.43893
 H985 H 0.33238 0.26022 0.42909
 H986 H 0.30645 0.27082 0.37403
 H987 H 0.35386 0.31830 0.42962
 H988 H 0.27605 0.34724 0.40290
 H989 H 0.25465 0.28917 0.40231
 H990 H 0.30195 0.33660 0.45808
 C991 C 0.32108 0.78117 -0.07660
 C992 C 0.30704 0.78661 -0.10673
 C993 C 0.31851 0.81808 -0.10599
 C994 C 0.33274 0.81286 -0.07616
 C995 C 0.29023 0.82865 -0.09140
 C996 C 0.27863 0.79698 -0.09187
 C997 C 0.29281 0.79173 -0.06202
 C998 C 0.30425 0.82321 -0.06121
 H999 H 0.33367 0.76149 -0.07032
 H1000 H 0.30831 0.77169 -0.12572
 H1001 H 0.35516 0.81956 -0.06999
 H1002 H 0.27763 0.84831 -0.09769
 H1003 H 0.25622 0.79025 -0.09809
 H1004 H 0.30295 0.83807 -0.04219
 C1005 C 0.81975 0.28176 -0.07800
 C1006 C 0.80561 0.28740 -0.10803
 C1007 C 0.81703 0.31889 -0.10711
 C1008 C 0.83136 0.31346 -0.07736
 C1009 C 0.78879 0.32931 -0.09237
 C1010 C 0.77723 0.29762 -0.09301
 C1011 C 0.79152 0.29218 -0.06324
 C1012 C 0.80291 0.32367 -0.06225
 H1013 H 0.83240 0.26207 -0.07190
 H1014 H 0.80683 0.27262 -0.12712
 H1015 H 0.85379 0.32016 -0.07121
 H1016 H 0.77614 0.34901 -0.09849
 H1017 H 0.75481 0.29089 -0.09920
 H1018 H 0.80165 0.33839 -0.04312
 C1019 C 0.82070 0.78111 0.42265
 C1020 C 0.80638 0.78643 0.39263
 C1021 C 0.81781 0.81793 0.39316
 C1022 C 0.83232 0.81282 0.42288
 C1023 C 0.78965 0.82851 0.40796
 C1024 C 0.77809 0.79682 0.40772
 C1025 C 0.79256 0.79169 0.43746
 C1026 C 0.80395 0.82319 0.43805
 H1027 H 0.83338 0.76148 0.42889
 H1028 H 0.80750 0.77145 0.37369
 H1029 H 0.85478 0.81958 0.42882
 H1030 H 0.77696 0.84813 0.40172
 H1031 H 0.75564 0.79002 0.40173
 H1032 H 0.80281 0.83811 0.45703
 C1033 C 0.71879 0.32117 0.57670
 C1034 C 0.68707 0.33281 0.57645
 C1035 C 0.68192 0.31837 0.60618
 C1036 C 0.71342 0.30693 0.60674
 C1037 C 0.67133 0.29020 0.59138
 C1038 C 0.67669 0.30443 0.56129
 C1039 C 0.70818 0.29301 0.56192
 C1040 C 0.70301 0.27863 0.59168
 H1041 H 0.73845 0.33381 0.57046
 H1042 H 0.68035 0.35526 0.57047
 H1043 H 0.72839 0.30807 0.62569
 H1044 H 0.65168 0.27753 0.59761
 H1045 H 0.66177 0.30325 0.54231
 H1046 H 0.70976 0.25619 0.59770
 C1047 C 0.70211 0.77796 1.09225
 C1048 C 0.71227 0.80624 1.10753
 C1049 C 0.68072 0.81754 1.10676
 C1050 C 0.67038 0.78939 1.09175
 C1051 C 0.68607 0.83214 1.07714
 C1052 C 0.71783 0.82065 1.07761
 C1053 C 0.70748 0.79251 1.06261
 C1054 C 0.67593 0.80379 1.06177
 H1055 H 0.70892 0.75553 1.09823
 H1056 H 0.72707 0.80736 1.12662
 H1057 H 0.65073 0.77662 1.09777
 H1058 H 0.67928 0.85459 1.07121
 H1059 H 0.73748 0.83341 1.07160
 H1060 H 0.66118 0.80264 1.04265
 C1061 C 0.20208 0.27705 1.09289
 C1062 C 0.21213 0.30545 1.10802
 C1063 C 0.18053 0.31659 1.10726
 C1064 C 0.17029 0.28833 1.09241
 C1065 C 0.18574 0.33108 1.07756
 C1066 C 0.21755 0.31975 1.07802
 C1067 C 0.20731 0.29149 1.06317
 C1068 C 0.17571 0.30260 1.06235
 H1069 H 0.20901 0.25468 1.09895
 H1070 H 0.22698 0.30673 1.12706
 H1071 H 0.15072 0.27548 1.09853
 H1072 H 0.17884 0.35346 1.07154
 H1073 H 0.23713 0.33258 1.07191
 H1074 H 0.16093 0.30129 1.04326
 C1075 C 0.22224 0.79684 0.59280
 C1076 C 0.21057 0.82847 0.59250
 C1077 C 0.18251 0.81784 0.60745
 C1078 C 0.19405 0.78639 0.60802
 C1079 C 0.16791 0.81256 0.57780
 C1080 C 0.19618 0.82299 0.56250
 C1081 C 0.20770 0.79155 0.56313
 C1082 C 0.17964 0.78090 0.57806
 H1083 H 0.24474 0.79017 0.59873
 H1084 H 0.22322 0.84817 0.59865
 H1085 H 0.19305 0.77148 0.62700
 H1086 H 0.14539 0.81921 0.57192
 H1087 H 0.19720 0.83785 0.54347
 H1088 H 0.16702 0.76119 0.57190
 C1089 C 0.27801 0.70344 0.59247
 C1090 C 0.28990 0.67189 0.59187
 C1091 C 0.31801 0.68263 0.60668
 C1092 C 0.30626 0.71400 0.60756
 C1093 C 0.33233 0.68819 0.57696
 C1094 C 0.30401 0.67765 0.56179
 C1095 C 0.29228 0.70902 0.56273
 C1096 C 0.32039 0.71976 0.57754
 H1097 H 0.25552 0.70993 0.59861
 H1098 H 0.27745 0.65207 0.59797
 H1099 H 0.30730 0.72880 0.62664
 H1100 H 0.35484 0.68173 0.57087
 H1101 H 0.30294 0.66290 0.54267
 H1102 H 0.33282 0.73960 0.57144
 C1103 C 0.30318 0.17712 1.06247
 C1104 C 0.33153 0.18746 1.07770
 C1105 C 0.31708 0.18206 1.10739
 C1106 C 0.28894 0.17151 1.09251
 C1107 C 0.30557 0.21352 1.10818
 C1108 C 0.31982 0.21913 1.07819
 C1109 C 0.29168 0.20857 1.06332
 C1110 C 0.27728 0.20315 1.09303
 H1111 H 0.30205 0.16234 1.04337
 H1112 H 0.35401 0.18083 1.07169
 H1113 H 0.27631 0.15179 1.09860
 H1114 H 0.30667 0.22834 1.12724
 H1115 H 0.33243 0.23886 1.07209
 H1116 H 0.25482 0.20981 1.09909
 C1117 C 0.80260 0.67731 1.06136
 C1118 C 0.83100 0.68754 1.07659
 C1119 C 0.81662 0.68197 1.10628
 C1120 C 0.78844 0.67152 1.09142
 C1121 C 0.80512 0.71343 1.10728
 C1122 C 0.81931 0.71921 1.07730
 C1123 C 0.79113 0.70876 1.06243
 C1124 C 0.77679 0.70317 1.09214
 H1125 H 0.80142 0.66264 1.04218
 H1126 H 0.85346 0.68094 1.07047
 H1127 H 0.77583 0.65177 1.09743
 H1128 H 0.80627 0.72815 1.12643
 H1129 H 0.83192 0.73896 1.07130
 H1130 H 0.75435 0.70981 1.09829
 C1131 C 0.79695 0.22353 0.59153
 C1132 C 0.78671 0.19523 0.60669
 C1133 C 0.81820 0.18380 0.60582
 C1134 C 0.82864 0.21196 0.59094
 C1135 C 0.81274 0.16933 0.57614
 C1136 C 0.78103 0.18095 0.57671
 C1137 C 0.79147 0.20911 0.56183
 C1138 C 0.82296 0.19770 0.56089
 H1139 H 0.79024 0.24597 0.59762
 H1140 H 0.77194 0.19410 0.62579
 H1141 H 0.84835 0.22463 0.59699
 H1142 H 0.81941 0.14688 0.57009
 H1143 H 0.76131 0.16829 0.57066
 H1144 H 0.83767 0.19886 0.54176
 C1145 C 0.68063 0.71870 0.42321
 C1146 C 0.69477 0.71316 0.39316
 C1147 C 0.68335 0.68167 0.39393
 C1148 C 0.66902 0.68700 0.42369
 C1149 C 0.71159 0.67119 0.40866
 C1150 C 0.72315 0.70288 0.40816
 C1151 C 0.70887 0.70823 0.43794
 C1152 C 0.69747 0.67674 0.43878
 H1153 H 0.66799 0.73838 0.42939
 H1154 H 0.69355 0.72801 0.37413
 H1155 H 0.64659 0.68028 0.42980
 H1156 H 0.72424 0.65152 0.40246
 H1157 H 0.74557 0.70963 0.40202
 H1158 H 0.69873 0.66195 0.45785
 C1159 C 0.71924 0.17995 -0.07866
 C1160 C 0.68767 0.16795 -0.07829
 C1161 C 0.68219 0.18242 -0.10794
 C1162 C 0.71355 0.19423 -0.10862
 C1163 C 0.67135 0.21041 -0.09302
 C1164 C 0.67705 0.19616 -0.06300
 C1165 C 0.70841 0.20794 -0.06374
 C1166 C 0.70290 0.22236 -0.09342
 H1167 H 0.73908 0.16751 -0.07256
 H1168 H 0.68122 0.14540 -0.07235
 H1169 H 0.72842 0.19332 -0.12765
 H1170 H 0.65152 0.22286 -0.09914
 H1171 H 0.66223 0.19710 -0.04393
 H1172 H 0.70938 0.24489 -0.09940
 C1173 C 0.19758 0.67670 -0.06142
 C1174 C 0.16919 0.68688 -0.07670
 C1175 C 0.18370 0.68148 -0.10636
 C1176 C 0.21187 0.67109 -0.09145
 C1177 C 0.19509 0.71299 -0.10717
 C1178 C 0.18077 0.71859 -0.07721
 C1179 C 0.20894 0.70820 -0.06230
 C1180 C 0.22340 0.70279 -0.09198
 H1181 H 0.19875 0.66197 -0.04231
 H1182 H 0.14674 0.68015 -0.07070
 H1183 H 0.22458 0.65142 -0.09751
 H1184 H 0.19394 0.72777 -0.12625
 H1185 H 0.16807 0.73827 -0.07116
 H1186 H 0.24584 0.70955 -0.09802
 C1187 C 0.21844 0.17872 0.42301
 C1188 C 0.18673 0.16708 0.42345
 C1189 C 0.18135 0.18164 0.39381
 C1190 C 0.21285 0.19309 0.39308
 C1191 C 0.17087 0.20974 0.40879
 C1192 C 0.17647 0.19539 0.43879
 C1193 C 0.20796 0.20682 0.43799
 C1194 C 0.20256 0.22133 0.40833
 H1195 H 0.23815 0.16605 0.42906
 H1196 H 0.18005 0.14460 0.42938
 H1197 H 0.22767 0.19202 0.37402
 H1198 H 0.15118 0.22242 0.40273
 H1199 H 0.16170 0.19648 0.45789
 H1200 H 0.20927 0.24379 0.40235
 C1201 C 0.28098 0.42254 0.67958
 C1202 C 0.31269 0.42294 0.66798
 C1203 C 0.31800 0.39322 0.68246
 C1204 C 0.28651 0.39251 0.69387
 C1205 C 0.32852 0.40814 0.71055
 C1206 C 0.32300 0.43823 0.69629
 C1207 C 0.29150 0.43745 0.70767
 C1208 C 0.29683 0.40771 0.72210
 H1209 H 0.26129 0.42866 0.66694
 H1210 H 0.31940 0.42892 0.64556
 H1211 H 0.27165 0.37344 0.69276
 H1212 H 0.34820 0.40201 0.72321
 H1213 H 0.33780 0.45733 0.69743
 H1214 H 0.29010 0.40169 0.74451
 C1215 C 0.28025 0.92358 0.17968
 C1216 C 0.31202 0.92417 0.16825
 C1217 C 0.31743 0.89447 0.18274
 C1218 C 0.28588 0.89358 0.19398
 C1219 C 0.32770 0.90944 0.21090
 C1220 C 0.32208 0.93950 0.19662
 C1221 C 0.29052 0.93854 0.20783
 C1222 C 0.29596 0.90882 0.22227
 H1223 H 0.26059 0.92959 0.16693
 H1224 H 0.31882 0.93020 0.14587
 H1225 H 0.27113 0.87443 0.19278
 H1226 H 0.34735 0.90343 0.22367
 H1227 H 0.33677 0.95869 0.19785
 H1228 H 0.28914 0.90275 0.24464
 C1229 C 0.78150 0.42261 0.17857
 C1230 C 0.81321 0.42296 0.16694
 C1231 C 0.81850 0.39324 0.18143
 C1232 C 0.78701 0.39258 0.19287
 C1233 C 0.82906 0.40817 0.20951
 C1234 C 0.82356 0.43826 0.19523
 C1235 C 0.79207 0.43753 0.20664
 C1236 C 0.79739 0.40778 0.22108
 H1237 H 0.76181 0.42875 0.16595
 H1238 H 0.81990 0.42892 0.14451
 H1239 H 0.77213 0.37353 0.19179
 H1240 H 0.84875 0.40204 0.22216
 H1241 H 0.83839 0.45734 0.19634
 H1242 H 0.79066 0.40178 0.24349
 C1243 C 0.82224 0.92446 0.71829
 C1244 C 0.80797 0.89441 0.71275
 C1245 C 0.81961 0.89501 0.68140
 C1246 C 0.83408 0.92477 0.68672
 C1247 C 0.79153 0.90988 0.67068
 C1248 C 0.77975 0.90954 0.70222
 C1249 C 0.79417 0.93932 0.70757
 C1250 C 0.80579 0.94000 0.67621
 H1251 H 0.83477 0.93067 0.73802
 H1252 H 0.80897 0.87539 0.72765
 H1253 H 0.85659 0.93074 0.68017
 H1254 H 0.77897 0.90368 0.65097
 H1255 H 0.75725 0.90352 0.70880
 H1256 H 0.80475 0.95905 0.66138
 C1257 C 0.68073 0.57779 0.71956
 C1258 C 0.69490 0.60789 0.71402
 C1259 C 0.68327 0.60716 0.68265
 C1260 C 0.66892 0.57736 0.68798
 C1261 C 0.71142 0.59238 0.67199
 C1262 C 0.72318 0.59283 0.70355
 C1263 C 0.70887 0.56301 0.70890
 C1264 C 0.69727 0.56222 0.67753
 H1265 H 0.66820 0.57159 0.73927
 H1266 H 0.69380 0.62693 0.72889
 H1267 H 0.64643 0.57129 0.68141
 H1268 H 0.72396 0.59858 0.65229
 H1269 H 0.74566 0.59894 0.71016
 H1270 H 0.69840 0.54314 0.66271
 C1271 C 0.67857 0.07622 0.21729
 C1272 C 0.69283 0.10626 0.21172
 C1273 C 0.68137 0.10546 0.18029
 C1274 C 0.66692 0.07571 0.18565
 C1275 C 0.70953 0.09059 0.16982
 C1276 C 0.72113 0.09112 0.20144
 C1277 C 0.70673 0.06135 0.20683
 C1278 C 0.69529 0.06047 0.17540
 H1279 H 0.66593 0.07012 0.23696
 H1280 H 0.69171 0.12536 0.22652
 H1281 H 0.64445 0.06966 0.17898
 H1282 H 0.72218 0.09670 0.15016
 H1283 H 0.74358 0.09721 0.20814
 H1284 H 0.69645 0.04134 0.16066
 C1285 C 0.17902 0.57699 0.21889
 C1286 C 0.19330 0.60703 0.21336
 C1287 C 0.18181 0.60629 0.18194
 C1288 C 0.16734 0.57655 0.18726
 C1289 C 0.20996 0.59140 0.17143
 C1290 C 0.22158 0.59187 0.20304
 C1291 C 0.20716 0.56210 0.20838
 C1292 C 0.19569 0.56129 0.17696
 H1293 H 0.16638 0.57087 0.23855
 H1294 H 0.19220 0.62610 0.22819
 H1295 H 0.14486 0.57053 0.18059
 H1296 H 0.22261 0.59753 0.15177
 H1297 H 0.24404 0.59793 0.20973
 H1298 H 0.19682 0.54218 0.16218
 C1299 C 0.21944 0.07559 0.68108
 C1300 C 0.18778 0.07497 0.66932
 C1301 C 0.18233 0.10483 0.68350
 C1302 C 0.21377 0.10574 0.69507
 C1303 C 0.17173 0.09017 0.71168
 C1304 C 0.17740 0.05995 0.69771
 C1305 C 0.20884 0.06093 0.70926
 C1306 C 0.20337 0.09081 0.72338
 H1307 H 0.23920 0.06939 0.66860
 H1308 H 0.18120 0.06875 0.64692
 H1309 H 0.22859 0.12484 0.69385
 H1310 H 0.15198 0.09637 0.72418
 H1311 H 0.16263 0.04082 0.69895
 H1312 H 0.20998 0.09707 0.74577
 C1313 C 0.31945 0.57669 0.28110
 C1314 C 0.30537 0.60683 0.28668
 C1315 C 0.31687 0.60601 0.31809
 C1316 C 0.33113 0.57617 0.31273
 C1317 C 0.28862 0.59130 0.32859
 C1318 C 0.27699 0.59185 0.29699
 C1319 C 0.29121 0.56199 0.29160
 C1320 C 0.30268 0.56110 0.32302
 H1321 H 0.33203 0.57049 0.26142
 H1322 H 0.30660 0.62590 0.27187
 H1323 H 0.35357 0.57001 0.31938
 H1324 H 0.27602 0.59751 0.34826
 H1325 H 0.25457 0.59805 0.29031
 H1326 H 0.30142 0.54200 0.33777
 C1327 C 0.29741 0.09100 0.77914
 C1328 C 0.28696 0.10615 0.80734
 C1329 C 0.31839 0.10540 0.81895
 C1330 C 0.32903 0.09052 0.79089
 C1331 C 0.31296 0.07565 0.83333
 C1332 C 0.28132 0.07610 0.82153
 C1333 C 0.29197 0.06123 0.79348
 C1334 C 0.32340 0.06041 0.80506
 H1335 H 0.29081 0.09707 0.75671
 H1336 H 0.27211 0.12522 0.80840
 H1337 H 0.34879 0.09665 0.77836
 H1338 H 0.31953 0.06962 0.85578
 H1339 H 0.26155 0.06997 0.83404
 H1340 H 0.33819 0.04130 0.80397
 C1341 C 0.82115 0.57769 0.78147
 C1342 C 0.80695 0.60778 0.78695
 C1343 C 0.81840 0.60709 0.81839
 C1344 C 0.83280 0.57730 0.81312
 C1345 C 0.79020 0.59229 0.82889
 C1346 C 0.77861 0.59271 0.79726
 C1347 C 0.79296 0.56290 0.79197
 C1348 C 0.80438 0.56214 0.82341
 H1349 H 0.83380 0.57149 0.76184
 H1350 H 0.80812 0.62681 0.77210
 H1351 H 0.85525 0.57125 0.81982
 H1352 H 0.77754 0.59850 0.84852
 H1353 H 0.75618 0.59881 0.79053
 H1354 H 0.80318 0.54307 0.83821
 C1355 C 0.81878 0.07619 0.28010
 C1356 C 0.80466 0.10630 0.28572
 C1357 C 0.81600 0.10537 0.31719
 C1358 C 0.83031 0.07556 0.31178
 C1359 C 0.78772 0.09061 0.32751
 C1360 C 0.77623 0.09126 0.29585
 C1361 C 0.79050 0.06144 0.29042
 C1362 C 0.80182 0.06045 0.32189
 H1363 H 0.83145 0.07006 0.26046
 H1364 H 0.80594 0.12542 0.27099
 H1365 H 0.85272 0.06939 0.31852
 H1366 H 0.77503 0.09674 0.34714
 H1367 H 0.75384 0.09747 0.28908
 H1368 H 0.80051 0.04129 0.33657
 C1369 C 0.71946 0.42281 0.31883
 C1370 C 0.68777 0.42349 0.33050
 C1371 C 0.68220 0.39374 0.31614
 C1372 C 0.71367 0.39275 0.30467
 C1373 C 0.67173 0.40859 0.28802
 C1374 C 0.67752 0.43870 0.30216
 C1375 C 0.70898 0.43766 0.29071
 C1376 C 0.70339 0.40788 0.27640
 H1377 H 0.73922 0.42887 0.33139
 H1378 H 0.68117 0.42963 0.35291
 H1379 H 0.72839 0.37359 0.30581
 H1380 H 0.65197 0.40254 0.27543
 H1381 H 0.66285 0.45791 0.30099
 H1382 H 0.71003 0.40171 0.25400
 C1383 C 0.68148 0.92468 0.77981
 C1384 C 0.69559 0.89463 0.78572
 C1385 C 0.68398 0.89573 0.81707
 C1386 C 0.66968 0.92549 0.81139
 C1387 C 0.71216 0.91059 0.82758
 C1388 C 0.72391 0.90977 0.79603
 C1389 C 0.70965 0.93954 0.79032
 C1390 C 0.69807 0.94070 0.82168
 H1391 H 0.66896 0.93067 0.76003
 H1392 H 0.69445 0.87542 0.77107
 H1393 H 0.64721 0.93168 0.81788
 H1394 H 0.72469 0.90460 0.84735
 H1395 H 0.74636 0.90354 0.78950
 H1396 H 0.69923 0.95995 0.83627
 C1397 C 0.17978 0.42280 0.78079
 C1398 C 0.19400 0.39276 0.78645
 C1399 C 0.18255 0.39366 0.81787
 C1400 C 0.16814 0.42341 0.81242
 C1401 C 0.21073 0.40853 0.82832
 C1402 C 0.22233 0.40791 0.79671
 C1403 C 0.20797 0.43767 0.79124
 C1404 C 0.19654 0.43864 0.82266
 H1405 H 0.16715 0.42887 0.76110
 H1406 H 0.19284 0.37362 0.77171
 H1407 H 0.14568 0.42950 0.81906
 H1408 H 0.22338 0.40246 0.84800
 H1409 H 0.24477 0.40178 0.79004
 H1410 H 0.19773 0.45782 0.83735
 C1411 C 0.17849 0.92349 0.28087
 C1412 C 0.19283 0.89351 0.28659
 C1413 C 0.18145 0.89445 0.31804
 C1414 C 0.16691 0.92412 0.31254
 C1415 C 0.20961 0.90947 0.32837
 C1416 C 0.22113 0.90880 0.29673
 C1417 C 0.20664 0.93849 0.29122
 C1418 C 0.19528 0.93950 0.32266
 H1419 H 0.16578 0.92946 0.26120
 H1420 H 0.19171 0.87433 0.27190
 H1421 H 0.14445 0.93014 0.31923
 H1422 H 0.22234 0.90350 0.34803
 H1423 H 0.24357 0.90274 0.29002
 H1424 H 0.19643 0.95872 0.33730
 C1425 C 0.42282 0.27962 0.67999
 C1426 C 0.39278 0.28541 0.69416
 C1427 C 0.39374 0.31684 0.68263
 C1428 C 0.42349 0.31127 0.66827
 C1429 C 0.40865 0.32736 0.71074
 C1430 C 0.40796 0.29574 0.72240
 C1431 C 0.43773 0.29014 0.70808
 C1432 C 0.43875 0.32157 0.69658
 H1433 H 0.42885 0.25984 0.66744
 H1434 H 0.37360 0.27068 0.69304
 H1435 H 0.42959 0.31784 0.64584
 H1436 H 0.40263 0.34712 0.72330
 H1437 H 0.40182 0.28914 0.74482
 H1438 H 0.45796 0.33625 0.69773
 C1439 C 0.42265 0.82102 0.22053
 C1440 C 0.42329 0.83274 0.18892
 C1441 C 0.39349 0.81842 0.18340
 C1442 C 0.39254 0.80690 0.21479
 C1443 C 0.40830 0.79023 0.17290
 C1444 C 0.43845 0.80434 0.17863
 C1445 C 0.43744 0.79283 0.21002
 C1446 C 0.40762 0.77857 0.20448
 H1447 H 0.42877 0.83358 0.24026
 H1448 H 0.42945 0.85519 0.18234
 H1449 H 0.37340 0.80808 0.22951
 H1450 H 0.40220 0.77764 0.15319
 H1451 H 0.45763 0.80313 0.16396
 H1452 H 0.40142 0.75614 0.21108
 C1453 C 0.92293 0.31898 0.21911
 C1454 C 0.92368 0.33058 0.18746
 C1455 C 0.89378 0.31646 0.18197
 C1456 C 0.89273 0.30506 0.21340
 C1457 C 0.90839 0.28812 0.17159
 C1458 C 0.93864 0.30203 0.17729
 C1459 C 0.93753 0.29065 0.20872
 C1460 C 0.90761 0.27658 0.20321
 H1461 H 0.92911 0.33158 0.23879
 H1462 H 0.93001 0.35295 0.18080
 H1463 H 0.87359 0.30643 0.22811
 H1464 H 0.90221 0.27550 0.15191
 H1465 H 0.95782 0.30063 0.16263
 H1466 H 0.90124 0.25421 0.20989
 C1467 C 0.92439 0.78142 0.67975
 C1468 C 0.89433 0.78730 0.69384
 C1469 C 0.89539 0.81872 0.68229
 C1470 C 0.92516 0.81306 0.66801
 C1471 C 0.91025 0.82922 0.71042
 C1472 C 0.90946 0.79761 0.72211
 C1473 C 0.93925 0.79192 0.70787
 C1474 C 0.94038 0.82335 0.69635
 H1475 H 0.93040 0.76162 0.66722
 H1476 H 0.87512 0.77261 0.69269
 H1477 H 0.93133 0.81960 0.64559
 H1478 H 0.90424 0.84902 0.72296
 H1479 H 0.90325 0.79104 0.74451
 H1480 H 0.95962 0.83798 0.69753
 C1481 C 0.56103 0.32260 0.30240
 C1482 C 0.57623 0.31235 0.33076
 C1483 C 0.60601 0.31775 0.31640
 C1484 C 0.59116 0.32821 0.28825
 C1485 C 0.60684 0.28627 0.30496
 C1486 C 0.57676 0.28065 0.31912
 C1487 C 0.56192 0.29112 0.29098
 C1488 C 0.59172 0.29654 0.27668
 H1489 H 0.54189 0.33735 0.30121
 H1490 H 0.57014 0.31903 0.35316
 H1491 H 0.59728 0.34790 0.27563
 H1492 H 0.62595 0.27146 0.30613
 H1493 H 0.57063 0.26095 0.33172
 H1494 H 0.59785 0.28983 0.25429
 C1495 C 0.57800 0.78327 0.82045
 C1496 C 0.60804 0.78875 0.80616
 C1497 C 0.60731 0.82030 0.81742
 C1498 C 0.57756 0.81503 0.83190
 C1499 C 0.59239 0.83063 0.78927
 C1500 C 0.59285 0.79889 0.77787
 C1501 C 0.56309 0.79360 0.79230
 C1502 C 0.56228 0.82514 0.80354
 H1503 H 0.57189 0.76365 0.83318
 H1504 H 0.62712 0.77392 0.80734
 H1505 H 0.57155 0.82185 0.85429
 H1506 H 0.59852 0.85024 0.77652
 H1507 H 0.59890 0.79204 0.75550
 H1508 H 0.54316 0.83992 0.80232
 C1509 C 0.07711 0.28069 0.82020
 C1510 C 0.10728 0.28626 0.80620
 C1511 C 0.10645 0.31773 0.81765
 C1512 C 0.07658 0.31238 0.83184
 C1513 C 0.09177 0.32823 0.78943
 C1514 C 0.09234 0.29657 0.77784
 C1515 C 0.06245 0.29120 0.79198
 C1516 C 0.06155 0.32267 0.80341
 H1517 H 0.07089 0.26099 0.83276
 H1518 H 0.12635 0.27142 0.80747
 H1519 H 0.07038 0.31906 0.85422
 H1520 H 0.09799 0.34792 0.77685
 H1521 H 0.09857 0.28985 0.75548
 H1522 H 0.04244 0.33746 0.80212
 C1523 C 0.07657 0.82074 0.28127
 C1524 C 0.07594 0.83255 0.31286
 C1525 C 0.10573 0.81823 0.31840
 C1526 C 0.10666 0.80662 0.28703
 C1527 C 0.09091 0.79008 0.32895
 C1528 C 0.06076 0.80418 0.32319
 C1529 C 0.06175 0.79259 0.29183
 C1530 C 0.09156 0.77832 0.29739
 H1531 H 0.07047 0.83325 0.26152
 H1532 H 0.06980 0.85501 0.31940
 H1533 H 0.12580 0.80774 0.27230
 H1534 H 0.09700 0.77755 0.34869
 H1535 H 0.04158 0.80302 0.33787
 H1536 H 0.09774 0.75587 0.29082
 C1537 C 0.59293 0.70428 0.72319
 C1538 C 0.59235 0.67260 0.71162
 C1539 C 0.60709 0.68307 0.68344
 C1540 C 0.60795 0.71456 0.69486
 C1541 C 0.57725 0.68844 0.66916
 C1542 C 0.56215 0.67819 0.69756
 C1543 C 0.56308 0.70968 0.70895
 C1544 C 0.57782 0.72014 0.68077
 H1545 H 0.59914 0.71101 0.74556
 H1546 H 0.59853 0.65292 0.72423
 H1547 H 0.62704 0.72938 0.69364
 H1548 H 0.57109 0.68174 0.64678
 H1549 H 0.54302 0.66342 0.69881
 H1550 H 0.57165 0.73983 0.66818
 C1551 C 0.59126 0.20236 0.22087
 C1552 C 0.59056 0.17077 0.20906
 C1553 C 0.60534 0.18140 0.18096
 C1554 C 0.60631 0.21280 0.19262
 C1555 C 0.57553 0.18698 0.16672
 C1556 C 0.56039 0.17656 0.19504
 C1557 C 0.56142 0.20796 0.20667
 C1558 C 0.57620 0.21859 0.17858
 H1559 H 0.59748 0.20889 0.24329
 H1560 H 0.59667 0.15097 0.22152
 H1561 H 0.62545 0.22756 0.19151
 H1562 H 0.56935 0.18047 0.14428
 H1563 H 0.54120 0.16186 0.19618
 H1564 H 0.57009 0.23840 0.16613
 C1565 C 0.06096 0.69643 0.17759
 C1566 C 0.09111 0.71056 0.17193
 C1567 C 0.10593 0.68238 0.18241
 C1568 C 0.07614 0.66804 0.18787
 C1569 C 0.10684 0.69391 0.21381
 C1570 C 0.09175 0.72223 0.20351
 C1571 C 0.06194 0.70794 0.20899
 C1572 C 0.07674 0.67976 0.21949
 H1573 H 0.04179 0.69762 0.16289
 H1574 H 0.09721 0.72316 0.15223
 H1575 H 0.07000 0.64559 0.18125
 H1576 H 0.12597 0.69275 0.22857
 H1577 H 0.09793 0.74466 0.21016
 H1578 H 0.07063 0.66720 0.23920
 C1579 C 0.07724 0.21808 0.67990
 C1580 C 0.10728 0.21242 0.69416
 C1581 C 0.10636 0.18092 0.68279
 C1582 C 0.07662 0.18636 0.66834
 C1583 C 0.09143 0.17057 0.71093
 C1584 C 0.09208 0.20226 0.72242
 C1585 C 0.06232 0.20773 0.70802
 C1586 C 0.06134 0.17622 0.69668
 H1587 H 0.07120 0.23777 0.66723
 H1588 H 0.12643 0.22717 0.69300
 H1589 H 0.07056 0.17964 0.64594
 H1590 H 0.09747 0.15089 0.72361
 H1591 H 0.09818 0.20901 0.74481
 H1592 H 0.04214 0.16153 0.69787
 C1593 C 0.40754 0.70315 0.27856
 C1594 C 0.40806 0.67142 0.28995
 C1595 C 0.39324 0.68177 0.31814
 C1596 C 0.39245 0.71331 0.30689
 C1597 C 0.42303 0.68706 0.33255
 C1598 C 0.43821 0.67692 0.30414
 C1599 C 0.43736 0.70846 0.29292
 C1600 C 0.42254 0.71881 0.32111
 H1601 H 0.40142 0.70998 0.25621
 H1602 H 0.40190 0.65180 0.27721
 H1603 H 0.37337 0.72813 0.30814
 H1604 H 0.42912 0.68025 0.35491
 H1605 H 0.45733 0.66215 0.30287
 H1606 H 0.42870 0.73844 0.33383
 C1607 C 0.43906 0.19572 0.82372
 C1608 C 0.40894 0.20993 0.82932
 C1609 C 0.39407 0.18168 0.81908
 C1610 C 0.42383 0.16725 0.81369
 C1611 C 0.39314 0.19291 0.78758
 C1612 C 0.40828 0.22130 0.79764
 C1613 C 0.43807 0.20692 0.79222
 C1614 C 0.42319 0.17867 0.78198
 H1615 H 0.45826 0.19701 0.83838
 H1616 H 0.40287 0.22270 0.84893
 H1617 H 0.42994 0.14486 0.82048
 H1618 H 0.37398 0.19165 0.77286
 H1619 H 0.40214 0.24369 0.79081
 H1620 H 0.42925 0.16591 0.76237
 C1621 C 0.93952 0.69696 0.82295
 C1622 C 0.90940 0.71123 0.82840
 C1623 C 0.89451 0.68301 0.81804
 C1624 C 0.92428 0.66853 0.81280
 C1625 C 0.89377 0.69429 0.78656
 C1626 C 0.90893 0.72264 0.79673
 C1627 C 0.93871 0.70822 0.79146
 C1628 C 0.92384 0.68001 0.78110
 H1629 H 0.95863 0.69820 0.83772
 H1630 H 0.90326 0.72400 0.84798
 H1631 H 0.93030 0.64612 0.81959
 H1632 H 0.87470 0.69308 0.77173
 H1633 H 0.90286 0.74505 0.78992
 H1634 H 0.92998 0.66726 0.76150
 C1635 C 0.90722 0.20177 0.27791
 C1636 C 0.90750 0.17011 0.28948
 C1637 C 0.89267 0.18072 0.31757
 C1638 C 0.89212 0.21219 0.30614
 C1639 C 0.92246 0.18590 0.33203
 C1640 C 0.93765 0.17550 0.30372
 C1641 C 0.93703 0.20697 0.29231
 C1642 C 0.92221 0.21759 0.32040
 H1643 H 0.90120 0.20851 0.25550
 H1644 H 0.90126 0.15046 0.27683
 H1645 H 0.87313 0.22715 0.30725
 H1646 H 0.92844 0.17919 0.35445
 H1647 H 0.95668 0.16060 0.30258
 H1648 H 0.92846 0.23725 0.33303
 C1649 C 0.30366 0.32169 0.56190
 C1650 C 0.28953 0.32748 0.59197
 C1651 C 0.31771 0.31697 0.60680
 C1652 C 0.33205 0.31139 0.57708
 C1653 C 0.30614 0.28553 0.60776
 C1654 C 0.27782 0.29585 0.59266
 C1655 C 0.29211 0.29025 0.56293
 C1656 C 0.32028 0.27974 0.57775
 H1657 H 0.30249 0.33636 0.54274
 H1658 H 0.27696 0.34724 0.59801
 H1659 H 0.35451 0.31796 0.57096
 H1660 H 0.30727 0.27081 0.62688
 H1661 H 0.25537 0.28925 0.59882
 H1662 H 0.33283 0.25996 0.57170
 C1663 C 0.32312 0.80412 0.06222
 C1664 C 0.31268 0.83256 0.07722
 C1665 C 0.31790 0.81830 0.10703
 C1666 C 0.32855 0.79008 0.09239
 C1667 C 0.28643 0.80677 0.10767
 C1668 C 0.28100 0.82083 0.07756
 C1669 C 0.29165 0.79261 0.06293
 C1670 C 0.29689 0.77841 0.09276
 H1671 H 0.33801 0.80288 0.04324
 H1672 H 0.31934 0.85499 0.07111
 H1673 H 0.34824 0.77751 0.09869
 H1674 H 0.27149 0.80799 0.12662
 H1675 H 0.26130 0.83338 0.07125
 H1676 H 0.29020 0.75599 0.09891
 C1677 C 0.82283 0.30317 0.06082
 C1678 C 0.81267 0.33160 0.07602
 C1679 C 0.81799 0.31715 0.10572
 C1680 C 0.82836 0.28894 0.09088
 C1681 C 0.78645 0.30583 0.10650
 C1682 C 0.78091 0.32008 0.07649
 C1683 C 0.79129 0.29187 0.06166
 C1684 C 0.79663 0.27748 0.09138
 H1685 H 0.83760 0.30194 0.04173
 H1686 H 0.81946 0.35402 0.06999
 H1687 H 0.84800 0.27620 0.09699
 H1688 H 0.77163 0.30704 0.12555
 H1689 H 0.76126 0.33279 0.07036
 H1690 H 0.78982 0.25507 0.09746
 C1691 C 0.82433 0.80392 0.56140
 C1692 C 0.81414 0.83245 0.57638
 C1693 C 0.81957 0.81828 0.60619
 C1694 C 0.82997 0.78996 0.59157
 C1695 C 0.78806 0.80688 0.60715
 C1696 C 0.78242 0.82086 0.57704
 C1697 C 0.79282 0.79255 0.56242
 C1698 C 0.79827 0.77843 0.59225
 H1699 H 0.83905 0.80255 0.54228
 H1700 H 0.82085 0.85483 0.57013
 H1701 H 0.84966 0.77733 0.59775
 H1702 H 0.77328 0.80822 0.62623
 H1703 H 0.76272 0.83348 0.57087
 H1704 H 0.79153 0.75606 0.59854
 C1705 C 0.27752 0.70332 0.40820
 C1706 C 0.30582 0.71359 0.39304
 C1707 C 0.31731 0.68214 0.39396
 C1708 C 0.28916 0.67167 0.40885
 C1709 C 0.33176 0.68767 0.42364
 C1710 C 0.32007 0.71935 0.42302
 C1711 C 0.29192 0.70888 0.43790
 C1712 C 0.30340 0.67742 0.43888
 H1713 H 0.25507 0.70996 0.40209
 H1714 H 0.30693 0.72832 0.37392
 H1715 H 0.27652 0.65193 0.40282
 H1716 H 0.35424 0.68106 0.42970
 H1717 H 0.33268 0.73910 0.42906
 H1718 H 0.30226 0.66274 0.45804
 C1719 C 0.27774 0.20263 0.90870
 C1720 C 0.30604 0.21302 0.89364
 C1721 C 0.31770 0.18163 0.89467
 C1722 C 0.28954 0.17105 0.90945
 C1723 C 0.33199 0.18730 0.92440
 C1724 C 0.32013 0.21891 0.92368
 C1725 C 0.29197 0.20832 0.93845
 C1726 C 0.30361 0.17693 0.93954
 H1727 H 0.25527 0.20915 0.90248
 H1728 H 0.30716 0.22773 0.87451
 H1729 H 0.27703 0.15123 0.90341
 H1730 H 0.35447 0.18081 0.93058
 H1731 H 0.33262 0.23873 0.92973
 H1732 H 0.30246 0.16227 0.95872
 C1733 C 0.82293 0.69765 0.93871
 C1734 C 0.81270 0.66925 0.92351
 C1735 C 0.81825 0.68360 0.89381
 C1736 C 0.82870 0.71179 0.90865
 C1737 C 0.78678 0.69507 0.89281
 C1738 C 0.78101 0.68091 0.92281
 C1739 C 0.79146 0.70910 0.93765
 C1740 C 0.79703 0.72341 0.90793
 H1741 H 0.83760 0.69886 0.95789
 H1742 H 0.81933 0.64681 0.92963
 H1743 H 0.84845 0.72441 0.90262
 H1744 H 0.77206 0.69389 0.87367
 H1745 H 0.76126 0.66830 0.92883
 H1746 H 0.79038 0.74584 0.90177
 C1747 C 0.77674 0.20304 0.40724
 C1748 C 0.80514 0.21308 0.39212
 C1749 C 0.81640 0.18154 0.39310
 C1750 C 0.78814 0.17131 0.40795
 C1751 C 0.83083 0.18700 0.42280
 C1752 C 0.81938 0.21876 0.42212
 C1753 C 0.79113 0.20853 0.43696
 C1754 C 0.80236 0.17699 0.43800
 H1755 H 0.75435 0.20985 0.40109
 H1756 H 0.80640 0.22778 0.37299
 H1757 H 0.77537 0.15165 0.40192
 H1758 H 0.85324 0.18023 0.42891
 H1759 H 0.83214 0.23842 0.42815
 H1760 H 0.80108 0.16234 0.45717
 C1761 C 0.69589 0.32352 0.43733
 C1762 C 0.71008 0.32886 0.40722
 C1763 C 0.68188 0.31827 0.39247
 C1764 C 0.66747 0.31314 0.42223
 C1765 C 0.69331 0.28679 0.39190
 C1766 C 0.72165 0.29719 0.40691
 C1767 C 0.70730 0.29203 0.43669
 C1768 C 0.67910 0.28144 0.42195
 H1769 H 0.69709 0.33844 0.45632
 H1770 H 0.72275 0.34850 0.40096
 H1771 H 0.64502 0.31987 0.42824
 H1772 H 0.69213 0.27181 0.37295
 H1773 H 0.74408 0.29043 0.40086
 H1774 H 0.66645 0.26179 0.42822
 C1775 C 0.72264 0.79845 0.90785
 C1776 C 0.69431 0.78842 0.89257
 C1777 C 0.68313 0.81999 0.89337
 C1778 C 0.71133 0.83022 0.90837
 C1779 C 0.66851 0.81469 0.92299
 C1780 C 0.67988 0.78290 0.92249
 C1781 C 0.70807 0.79312 0.93749
 C1782 C 0.69692 0.82470 0.93835
 H1783 H 0.74506 0.79156 0.90186
 H1784 H 0.69313 0.77364 0.87347
 H1785 H 0.72419 0.84981 0.90237
 H1786 H 0.64608 0.82156 0.92893
 H1787 H 0.66703 0.76330 0.92849
 H1788 H 0.69812 0.83943 0.95749
 C1789 C 0.22192 0.29669 0.90836
 C1790 C 0.19368 0.28628 0.89316
 C1791 C 0.18213 0.31773 0.89389
 C1792 C 0.21023 0.32832 0.90883
 C1793 C 0.16762 0.31233 0.92355
 C1794 C 0.17937 0.28067 0.92312
 C1795 C 0.20746 0.29128 0.93805
 C1796 C 0.19593 0.32272 0.93885
 H1797 H 0.24440 0.29005 0.90236
 H1798 H 0.19264 0.27144 0.87410
 H1799 H 0.22286 0.34804 0.90276
 H1800 H 0.14512 0.31894 0.92952
 H1801 H 0.16677 0.26094 0.92920
 H1802 H 0.19700 0.33751 0.95794
 C1803 C 0.22182 0.79751 0.40833
 C1804 C 0.19354 0.78711 0.39320
 C1805 C 0.18194 0.81854 0.39411
 C1806 C 0.21009 0.82912 0.40897
 C1807 C 0.16756 0.81300 0.42381
 C1808 C 0.17936 0.78136 0.42320
 C1809 C 0.20749 0.79195 0.43805
 C1810 C 0.19592 0.82337 0.43902
 H1811 H 0.24429 0.79092 0.40220
 H1812 H 0.19244 0.77234 0.37409
 H1813 H 0.22264 0.84889 0.40291
 H1814 H 0.14508 0.81956 0.42990
 H1815 H 0.16682 0.76158 0.42926
 H1816 H 0.19704 0.83808 0.45817
 C1817 C 0.70377 0.72312 0.59268
 C1818 C 0.67209 0.71153 0.59223
 C1819 C 0.68261 0.68338 0.60706
 C1820 C 0.71411 0.69483 0.60779
 C1821 C 0.68792 0.66891 0.57735
 C1822 C 0.67761 0.69727 0.56216
 C1823 C 0.70910 0.70870 0.56295
 C1824 C 0.71962 0.68056 0.57779
 H1825 H 0.71051 0.74556 0.59874
 H1826 H 0.65240 0.72418 0.59838
 H1827 H 0.72898 0.69371 0.62682
 H1828 H 0.68122 0.64646 0.57134
 H1829 H 0.66279 0.69842 0.54309
 H1830 H 0.73932 0.66791 0.57165
 C1831 C 0.70235 0.22186 0.09095
 C1832 C 0.67070 0.21017 0.09021
 C1833 C 0.68121 0.18196 0.10494
 C1834 C 0.71267 0.19351 0.10595
 C1835 C 0.68677 0.16771 0.07517
 C1836 C 0.67647 0.19613 0.06009
 C1837 C 0.70793 0.20765 0.06117
 C1838 C 0.71844 0.17945 0.07589
 H1839 H 0.70897 0.24429 0.09720
 H1840 H 0.65094 0.22273 0.09630
 H1841 H 0.72742 0.19232 0.12507
 H1842 H 0.68018 0.14527 0.06897
 H1843 H 0.66178 0.19736 0.04093
 H1844 H 0.73821 0.16691 0.06980
 C1845 C 0.20307 0.72251 0.09235
 C1846 C 0.17141 0.71086 0.09168
 C1847 C 0.18191 0.68267 0.10645
 C1848 C 0.21337 0.69418 0.10740
 C1849 C 0.18739 0.66834 0.07672
 C1850 C 0.17711 0.69674 0.06158
 C1851 C 0.20858 0.70823 0.06260
 C1852 C 0.21907 0.68004 0.07737
 H1853 H 0.20972 0.74495 0.09854
 H1854 H 0.15166 0.72345 0.09778
 H1855 H 0.22814 0.69301 0.12650
 H1856 H 0.18077 0.64589 0.07057
 H1857 H 0.16239 0.69795 0.04244
 H1858 H 0.23882 0.66746 0.07128
 C1859 C 0.19648 0.17537 0.56224
 C1860 C 0.21067 0.16980 0.59233
 C1861 C 0.18250 0.18034 0.60712
 C1862 C 0.16809 0.18570 0.57739
 C1863 C 0.19400 0.21181 0.60790
 C1864 C 0.22231 0.20146 0.59283
 C1865 C 0.20796 0.20683 0.56308
 C1866 C 0.17979 0.21738 0.57788
 H1867 H 0.19764 0.16057 0.54316
 H1868 H 0.22330 0.15010 0.59847
 H1869 H 0.14563 0.17904 0.57133
 H1870 H 0.19286 0.22666 0.62695
 H1871 H 0.24476 0.20815 0.59894
 H1872 H 0.16718 0.23708 0.57174
   
