data_POSCAR
  _audit_creation_date              2014-09-24
  _audit_creation_method            'ToBaCCo'
  _symmetry_space_group_name_H-M    'P1'
  _symmetry_Int_Tables_number       1
  _symmetry_cell_setting            triclinic
  loop_
  _symmetry_equiv_pos_as_xyz
 x,y,z
_cell_length_a 55.5507
_cell_length_b 55.3668
_cell_length_c 55.1734
_cell_angle_alpha 90.112100
_cell_angle_beta 90.167700
_cell_angle_gamma 90.138000
loop_
  _atom_site_label
  _atom_site_type_symbol
  _atom_site_fract_x
  _atom_site_fract_y
  _atom_site_fract_z
C1 C 0.30608 0.44325 0.91448
 N2 N 0.32613 0.45342 0.92429
 C3 C 0.33654 0.44397 0.94446
 N4 N 0.32651 0.42410 0.95487
 C5 C 0.30642 0.41375 0.94528
 N6 N 0.29627 0.42347 0.92511
 C7 C 0.44866 0.83259 0.44702
 N8 N 0.45774 0.82258 0.42645
 C9 C 0.44619 0.80392 0.41534
 N10 N 0.42540 0.79527 0.42493
 C11 C 0.41627 0.80483 0.44561
 N12 N 0.42796 0.82349 0.45649
 C13 C 0.94550 0.91681 0.80299
 N14 N 0.92517 0.92690 0.79384
 C15 C 0.91538 0.94678 0.80436
 N16 N 0.92618 0.95659 0.82420
 C17 C 0.94656 0.94672 0.83360
 N18 N 0.95611 0.92686 0.82281
 C19 C 0.44679 -0.08484 0.30202
 N20 N 0.45693 -0.07476 0.32209
 C21 C 0.44663 -0.05545 0.33314
 N22 N 0.42591 -0.04613 0.32393
 C23 C 0.41558 -0.05592 0.30381
 N24 N 0.42612 -0.07525 0.29301
 C25 C 0.80483 0.30426 0.33409
 N26 N 0.79390 0.32330 0.32315
 C27 C 0.80336 0.33319 0.30274
 N28 N 0.82401 0.32397 0.29343
 C29 C 0.83516 0.30501 0.30423
 N30 N 0.82550 0.29533 0.32458
 C31 C -0.19535 0.83624 0.80550
 N32 N -0.20486 0.82565 0.82551
 C33 C -0.19501 0.80531 0.83501
 N34 N -0.17519 0.79568 0.82433
 C35 C -0.16544 0.80601 0.80430
 N36 N -0.17561 0.82628 0.79504
 C37 C 0.94514 0.33159 0.44600
 N38 N 0.92608 0.32088 0.45707
 C39 C 0.91653 0.30009 0.44810
 N40 N 0.92602 0.29020 0.42770
 C41 C 0.94509 0.30069 0.41651
 N42 N 0.95456 0.32136 0.42575
 C43 C 0.44379 0.44372 0.83508
 N44 N 0.42339 0.45336 0.82553
 C45 C 0.41278 0.44338 0.80570
 N46 N 0.42273 0.42353 0.79533
 C47 C 0.44312 0.41366 0.80459
 N48 N 0.45360 0.42390 0.82440
 C49 C 0.80387 0.91612 0.94770
 N50 N 0.79404 0.92620 0.92751
 C51 C 0.80490 0.94520 0.91641
 N52 N 0.82583 0.95413 0.92565
 C53 C 0.83589 0.94431 0.94584
 N54 N 0.82474 0.92536 0.95670
 C55 C 0.30332 0.83423 0.30214
 N56 N 0.29415 0.82448 0.32274
 C57 C 0.30551 0.80594 0.33405
 N58 N 0.32634 0.79722 0.32466
 C59 C 0.33569 0.80667 0.30404
 N60 N 0.32411 0.82518 0.29293
 C61 C 0.80246 0.41551 0.44743
 N62 N 0.79315 0.42388 0.42630
 C63 C 0.80273 0.44356 0.41531
 N64 N 0.82191 0.45495 0.42558
 C65 C 0.83153 0.44666 0.44666
 N66 N 0.82167 0.42696 0.45750
 C67 C 0.94733 0.83320 -0.05305
 N68 N 0.92786 0.82250 -0.04264
 C69 C 0.91659 0.80360 -0.05365
 N70 N 0.92482 0.79557 -0.07536
 C71 C 0.94418 0.80605 -0.08609
 N72 N 0.95540 0.82476 -0.07472
 C73 C 0.30489 0.33551 0.80545
 N74 N 0.32431 0.32509 0.79482
 C75 C 0.33454 0.30504 0.80451
 N76 N 0.32513 0.29539 0.82505
 C77 C 0.30568 0.30559 0.83587
 N78 N 0.29561 0.32560 0.82592
 C79 C 0.16270 0.55570 0.55458
 N80 N 0.17308 0.57548 0.54447
 C81 C 0.19344 0.58521 0.55403
 N82 N 0.20342 0.57499 0.57398
 C83 C 0.19341 0.55510 0.58426
 N84 N 0.17286 0.54566 0.57462
 C85 C 0.58515 0.69619 0.05369
 N86 N 0.57348 0.70786 0.07185
 C87 C 0.55249 0.69911 0.08079
 N88 N 0.54314 0.67844 0.07139
 C89 C 0.55451 0.66654 0.05320
 N90 N 0.57564 0.67541 0.04452
 C91 C 0.69482 0.19566 0.66626
 N92 N 0.70575 0.17657 0.67708
 C93 C 0.69590 0.16598 0.69690
 N94 N 0.67492 0.17472 0.70592
 C95 C 0.66375 0.19378 0.69532
 N96 N 0.67378 0.20413 0.67543
 C97 C 1.08475 0.05085 0.19718
 N98 N 1.07481 0.07111 0.20690
 C99 C 1.05637 0.08257 0.19553
 N100 N 1.04795 0.07367 0.17421
 C101 C 1.05739 0.05335 0.16428
 N102 N 1.07582 0.04203 0.17589
 C103 C 0.05663 0.16175 1.05618
 N104 N 0.07726 0.17129 1.04702
 C105 C 0.08731 0.19139 1.05701
 N106 N 0.07649 0.20207 1.07631
 C107 C 0.05579 0.19288 1.08567
 N108 N 0.04601 0.17273 1.07544
 C109 C 0.16427 0.69504 0.69659
 N110 N 0.17546 0.67609 0.70749
 C111 C 0.19492 0.66552 0.69702
 N112 N 0.20300 0.67399 0.67543
 C113 C 0.19198 0.69282 0.66428
 N114 N 0.17262 0.70330 0.67498
 C115 C 1.19530 0.16466 0.19531
 N116 N 1.20556 0.17506 0.17557
 C117 C 1.19614 0.19553 0.16577
 N118 N 1.17609 0.20540 0.17587
 C119 C 1.16557 0.19504 0.19548
 N120 N 1.17528 0.17471 0.20501
 C121 C 0.66475 1.05385 0.55454
 N122 N 0.67559 1.04346 0.57405
 C123 C 0.69505 1.05402 0.58470
 N124 N 0.70366 1.07515 0.57571
 C125 C 0.69303 1.08584 0.55631
 N126 N 0.67361 1.07503 0.54586
 C127 C 0.54961 0.55019 0.16751
 N128 N 0.57021 0.54119 0.17718
 C129 C 0.58127 0.55256 0.19601
 N130 N 0.57168 0.57328 0.20496
 C131 C 0.55109 0.58251 0.19544
 N132 N 0.54021 0.57089 0.17668
 C133 C 0.66582 0.69659 0.19596
 N134 N 0.67653 0.70697 0.17648
 C135 C 0.69587 0.69647 0.16577
 N136 N 0.70447 0.67529 0.17470
 C137 C 0.69394 0.66469 0.19420
 N138 N 0.67463 0.67545 0.20470
 C139 C 0.16414 0.05431 1.05480
 N140 N 0.17478 0.07396 1.04464
 C141 C 0.19422 0.08455 1.05527
 N142 N 0.20308 0.07528 1.07621
 C143 C 0.19283 0.05555 1.08659
 N144 N 0.17334 0.04520 1.07577
 C145 C 0.58475 0.19287 0.55375
 N146 N 0.57327 0.17407 0.54286
 C147 C 0.55253 0.16502 0.55223
 N148 N 0.54333 0.17492 0.57275
 C149 C 0.55458 0.19383 0.58374
 N150 N 0.57532 0.20259 0.57421
 C151 C 0.08352 0.55496 0.69516
 N152 N 0.07431 0.54575 0.67421
 C153 C 0.05437 0.55566 0.66391
 N154 N 0.04400 0.57521 0.67450
 C155 C 0.05301 0.58456 0.69542
 N156 N 0.07278 0.57436 0.70557
 C157 C 0.66573 0.55367 0.05204
 N158 N 0.67405 0.57543 0.04441
 C159 C 0.69294 0.58635 0.05570
 N160 N 0.70363 0.57519 0.07486
 C161 C 0.69556 0.55329 0.08261
 N162 N 0.67658 0.54275 0.07113
 C163 C 0.05464 0.69573 0.58289
 N164 N 0.04477 0.67538 0.57332
 C165 C 0.05476 0.66454 0.55365
 N166 N 0.07514 0.67401 0.54383
 C167 C 0.08517 0.69439 0.55326
 N168 N 0.07483 0.70505 0.57278
 C169 C 0.55241 1.05124 0.66652
 N170 N 0.57277 1.04204 0.67668
 C171 C 0.58306 1.05279 0.69630
 N172 N 0.57285 1.07293 0.70571
 C173 C 0.55255 1.08239 0.69589
 N174 N 0.54246 1.07153 0.67621
 C175 C 0.44343 0.33545 0.94455
 N176 N 0.45233 0.32524 0.92407
 C177 C 0.44322 0.30417 0.91537
 N178 N 0.42476 0.29331 0.92725
 C179 C 0.41559 0.30328 0.94776
 N180 N 0.42501 0.32434 0.95630
 C181 C 0.94363 0.44361 0.33354
 N182 N 0.92321 0.45329 0.32391
 C183 C 0.91234 0.44291 0.30433
 N184 N 0.92213 0.42281 0.29429
 C185 C 0.94245 0.41292 0.30365
 N186 N 0.95307 0.42342 0.32323
 C187 C 0.30438 0.94551 0.41706
 N188 N 0.29336 0.92676 0.42838
 C189 C 0.30333 0.91658 0.44839
 N190 N 0.32454 0.92528 0.45703
 C191 C 0.33582 0.94408 0.44602
 N192 N 0.32559 0.95412 0.42600
 O193 O 0.24846 0.56440 0.72019
 O194 O 0.29126 0.55421 0.72083
 O195 O 0.21820 0.50193 0.68602
 O196 O 0.21798 0.46191 0.69235
 O197 O 0.18570 0.53228 0.74917
 O198 O 0.19319 0.52788 0.79080
 O199 O 0.27985 0.43639 0.75182
 O200 O 0.27585 0.44364 0.70974
 O201 O 0.31216 0.49762 0.78224
 O202 O 0.30660 0.53823 0.77786
 O203 O 0.25093 0.46813 0.81359
 O204 O 0.20771 0.46998 0.80531
 O205 O 0.25105 0.43641 0.78099
 O206 O 0.20648 0.44569 0.77783
 O207 O 0.28065 0.49640 0.81348
 O208 O 0.27330 0.54045 0.80609
 O209 O 0.31170 0.46858 0.75295
 O210 O 0.30408 0.47166 0.70888
 O211 O 0.21983 0.56462 0.74957
 O212 O 0.22475 0.55436 0.79315
 O213 O 0.18529 0.50327 0.71983
 O214 O 0.19357 0.45936 0.72384
 O215 O 0.24711 0.53112 0.68638
 O216 O 0.28984 0.52757 0.69463
 Zr217 Zr 0.26252 0.52909 0.72119
 O218 O 0.28523 0.50764 0.74266
 Zr219 Zr 0.21963 0.48720 0.72110
 O220 O 0.24093 0.46350 0.74195
 Zr221 Zr 0.22050 0.52947 0.76413
 O222 O 0.24130 0.50739 0.78703
 Zr223 Zr 0.27757 0.47101 0.73647
 O224 O 0.25634 0.49241 0.71288
 Zr225 Zr 0.27784 0.51312 0.77949
 O226 O 0.25721 0.53724 0.75814
 Zr227 Zr 0.23525 0.47083 0.77890
 O228 O 0.21204 0.49285 0.75799
 O229 O 0.22620 0.52355 0.72745
 O230 O 0.27178 0.47650 0.77326
 C231 C 0.23191 0.57488 0.73259
 C232 C 0.22989 0.51937 0.67608
 C233 C 0.17545 0.52064 0.73173
 C234 C 0.26825 0.42632 0.76922
 C235 C 0.32192 0.48019 0.77041
 C236 C 0.26870 0.47930 0.82357
 H237 H 0.30217 0.51180 0.73912
 H238 H 0.23765 0.51121 0.80414
 H239 H 0.21616 0.53419 0.71722
 H240 H 0.23715 0.44655 0.73772
 H241 H 0.26784 0.45082 0.69542
 H242 H 0.22749 0.44767 0.69731
 H243 H 0.28701 0.53939 0.81759
 H244 H 0.21214 0.56695 0.79174
 H245 H 0.31426 0.48614 0.71131
 H246 H 0.28813 0.51175 0.68638
 H247 H 0.20881 0.48511 0.81481
 H248 H 0.18591 0.51158 0.78973
 H249 H 0.28955 0.56443 0.73544
 H250 H 0.29951 0.55396 0.77332
 H251 H 0.18418 0.46253 0.73873
 H252 H 0.20954 0.43428 0.76438
 O253 O 0.18530 0.02895 0.25008
 O254 O 0.19588 0.02818 0.29333
 O255 O 0.24796 0.06314 0.22021
 O256 O 0.28787 0.05666 0.22061
 O257 O 0.21702 0.00120 0.18673
 O258 O 0.22185 -0.04071 0.19344
 O259 O 0.31300 -0.00367 0.28166
 O260 O 0.30605 0.03858 0.27787
 O261 O 0.25179 -0.03337 0.31386
 O262 O 0.21161 -0.02887 0.30828
 O263 O 0.28004 -0.06476 0.25117
 O264 O 0.27882 -0.05557 0.20793
 O265 O 0.31268 -0.03233 0.25213
 O266 O 0.30357 -0.02902 0.20764
 O267 O 0.25199 -0.06487 0.28108
 O268 O 0.20835 -0.05620 0.27412
 O269 O 0.28073 -0.00417 0.31382
 O270 O 0.27869 0.03915 0.30670
 O271 O 0.18513 -0.00002 0.22081
 O272 O 0.19508 -0.04331 0.22483
 O273 O 0.24656 0.02984 0.18674
 O274 O 0.29013 0.02553 0.19517
 O275 O 0.21871 0.06267 0.24900
 O276 O 0.22231 0.05436 0.29194
 Zr277 Zr 0.22066 0.02791 0.26430
 O278 O 0.24203 0.00621 0.28692
 Zr279 Zr 0.26248 0.02812 0.22139
 O280 O 0.28597 0.00690 0.24254
 Zr281 Zr 0.22008 -0.01448 0.22139
 O282 O 0.24184 -0.03760 0.24221
 Zr283 Zr 0.27862 0.01208 0.27946
 O284 O 0.25732 0.03596 0.25843
 Zr285 Zr 0.23629 -0.03043 0.27915
 O286 O 0.21239 -0.00885 0.25845
 Zr287 Zr 0.27831 -0.02980 0.23630
 O288 O 0.25659 -0.00851 0.21313
 O289 O 0.22619 0.02196 0.22772
 O290 O 0.27289 -0.02457 0.27321
 C291 C 0.17487 0.01672 0.23317
 C292 C 0.23051 0.07299 0.23185
 C293 C 0.22885 0.01855 0.17672
 C294 C 0.32286 -0.02097 0.26972
 C295 C 0.26903 -0.02146 0.32400
 C296 C 0.26856 -0.07506 0.26855
 H297 H 0.23796 0.00968 0.30400
 H298 H 0.23777 -0.05454 0.23819
 H299 H 0.21557 0.03228 0.21775
 H300 H 0.30289 0.01099 0.23885
 H301 H 0.29881 0.05306 0.27029
 H302 H 0.30227 0.05124 0.22965
 H303 H 0.20921 -0.06792 0.28767
 H304 H 0.18277 -0.04183 0.21184
 H305 H 0.26336 0.03800 0.31569
 H306 H 0.23806 0.06258 0.29028
 H307 H 0.26344 -0.06459 0.20850
 H308 H 0.23770 -0.03881 0.18551
 H309 H 0.18535 0.01389 0.29126
 H310 H 0.19602 -0.02365 0.30137
 H311 H 0.28706 0.01062 0.18572
 H312 H 0.31459 -0.01524 0.21051
 O313 O 0.56362 0.71980 0.24688
 O314 O 0.55431 0.72060 0.28920
 O315 O 0.50088 0.68698 0.21611
 O316 O 0.46122 0.69364 0.21612
 O317 O 0.53135 0.75039 0.18367
 O318 O 0.52845 0.79159 0.19228
 O319 O 0.43718 0.75388 0.27964
 O320 O 0.44276 0.71161 0.27431
 O321 O 0.49814 0.78171 0.31186
 O322 O 0.53845 0.78151 0.30609
 O323 O 0.46935 0.81443 0.24939
 O324 O 0.47113 0.80563 0.20585
 O325 O 0.43741 0.78282 0.25051
 O326 O 0.44571 0.77933 0.20560
 O327 O 0.49781 0.81412 0.27900
 O328 O 0.54403 0.80219 0.27274
 O329 O 0.46877 0.75299 0.31097
 O330 O 0.47126 0.70921 0.30257
 O331 O 0.56425 0.74902 0.21798
 O332 O 0.55521 0.79245 0.22364
 O333 O 0.50162 0.72198 0.18298
 O334 O 0.45844 0.72517 0.19225
 O335 O 0.52986 0.68647 0.24532
 O336 O 0.52663 0.69471 0.28855
 Zr337 Zr 0.52849 0.72113 0.26099
 O338 O 0.50762 0.74272 0.28419
 Zr339 Zr 0.48663 0.72211 0.21799
 O340 O 0.46340 0.74309 0.23963
 Zr341 Zr 0.52953 0.76432 0.21915
 O342 O 0.50795 0.78746 0.24029
 Zr343 Zr 0.47098 0.73725 0.27642
 O344 O 0.49178 0.71352 0.25485
 Zr345 Zr 0.51354 0.77951 0.27706
 O346 O 0.53703 0.75784 0.25608
 Zr347 Zr 0.47137 0.77979 0.23407
 O348 O 0.49293 0.75880 0.21064
 O349 O 0.52302 0.72775 0.22440
 O350 O 0.47701 0.77393 0.27084
 C351 C 0.57425 0.73202 0.23023
 C352 C 0.51789 0.67653 0.22797
 C353 C 0.51868 0.73406 0.17290
 C354 C 0.42754 0.77169 0.26832
 C355 C 0.48049 0.77010 0.32147
 C356 C 0.48095 0.82446 0.26686
 H357 H 0.51162 0.73884 0.30120
 H358 H 0.51217 0.80444 0.23664
 H359 H 0.53329 0.71756 0.21395
 H360 H 0.44639 0.73921 0.23594
 H361 H 0.44954 0.69703 0.26647
 H362 H 0.44724 0.69847 0.22604
 H363 H 0.54022 0.81825 0.27965
 H364 H 0.56756 0.79100 0.21075
 H365 H 0.48563 0.71132 0.31298
 H366 H 0.51096 0.68638 0.28656
 H367 H 0.48584 0.81560 0.20757
 H368 H 0.51221 0.79097 0.18487
 H369 H 0.56289 0.73628 0.28858
 H370 H 0.54236 0.76472 0.31067
 H371 H 0.46104 0.74050 0.18344
 H372 H 0.43393 0.76635 0.20900
 O373 O 0.06309 0.72039 0.74887
 O374 O 0.05307 0.72167 0.79196
 O375 O 0.00096 0.68691 0.71842
 O376 O -0.03886 0.69345 0.71784
 O377 O 0.03191 0.74937 0.68552
 O378 O 0.02808 0.79098 0.69288
 O379 O -0.06391 0.75382 0.77994
 O380 O -0.05757 0.71171 0.77590
 O381 O -0.00423 0.78431 0.81179
 O382 O 0.03643 0.77894 0.80772
 O383 O -0.03167 0.81461 0.74967
 O384 O -0.02983 0.80562 0.70636
 O385 O -0.06360 0.78255 0.75058
 O386 O -0.05442 0.77844 0.70557
 O387 O -0.00324 0.81493 0.77939
 O388 O 0.04071 0.80593 0.77357
 O389 O -0.03274 0.75471 0.81169
 O390 O -0.02923 0.71034 0.80432
 O391 O 0.06399 0.74939 0.71973
 O392 O 0.05435 0.79295 0.72494
 O393 O 0.00258 0.72053 0.68495
 O394 O -0.04115 0.72473 0.69318
 O395 O 0.02940 0.68699 0.74819
 O396 O 0.02612 0.69605 0.79108
 Zr397 Zr 0.02795 0.72200 0.76308
 O398 O 0.00666 0.74385 0.78563
 Zr399 Zr -0.01348 0.72196 0.71951
 O400 O -0.03707 0.74307 0.74063
 Zr401 Zr 0.02914 0.76441 0.72043
 O402 O 0.00712 0.78760 0.74090
 Zr403 Zr -0.02980 0.73785 0.77761
 O404 O -0.00862 0.71400 0.75658
 Zr405 Zr 0.01245 0.78045 0.77786
 O406 O 0.03648 0.75871 0.75754
 Zr407 Zr -0.02937 0.77975 0.73455
 O408 O -0.00736 0.75858 0.71160
 O409 O 0.02276 0.72796 0.72640
 O410 O -0.02396 0.77441 0.77138
 C411 C 0.07382 0.73235 0.73207
 C412 C 0.01783 0.67676 0.73072
 C413 C 0.02009 0.73220 0.67512
 C414 C -0.07360 0.77138 0.76831
 C415 C -0.02183 0.77275 0.82155
 C416 C -0.02018 0.82494 0.76711
 H417 H 0.01057 0.74050 0.80279
 H418 H 0.01119 0.80455 0.73700
 H419 H 0.03323 0.71753 0.71641
 H420 H -0.05400 0.73899 0.73681
 H421 H -0.05060 0.69722 0.76808
 H422 H -0.05300 0.69848 0.72743
 H423 H 0.03948 0.81786 0.78693
 H424 H 0.06690 0.79146 0.71227
 H425 H -0.01564 0.71355 0.81549
 H426 H 0.01029 0.68795 0.78946
 H427 H -0.01468 0.81500 0.70746
 H428 H 0.01197 0.78994 0.68525
 H429 H 0.06347 0.73606 0.78999
 H430 H 0.05199 0.77314 0.80134
 H431 H -0.03788 0.73950 0.68365
 H432 H -0.06626 0.76557 0.70912
 O433 O -0.06273 -0.00414 -0.03145
 O434 O -0.05473 0.03854 -0.02888
 O435 O -0.00034 -0.03210 -0.06507
 O436 O 0.03936 -0.03246 -0.05847
 O437 O -0.02938 -0.06611 -0.00085
 O438 O -0.02586 -0.05759 0.04054
 O439 O 0.06439 0.03017 0.00077
 O440 O 0.05683 0.02636 -0.04112
 O441 O 0.00271 0.06193 0.03095
 O442 O -0.03850 0.05453 0.03039
 O443 O 0.03382 0.00109 0.06250
 O444 O 0.03150 -0.04265 0.05455
 O445 O 0.06478 0.00105 0.02973
 O446 O 0.05584 -0.04353 0.02735
 O447 O 0.00518 0.03029 0.06244
 O448 O -0.04071 0.02181 0.05348
 O449 O 0.03221 0.06165 0.00242
 O450 O 0.02837 0.05406 -0.04200
 O451 O -0.06248 -0.03292 -0.00207
 O452 O -0.05314 -0.02677 0.04162
 O453 O -0.00083 -0.06599 -0.03040
 O454 O 0.04256 -0.05636 -0.02724
 O455 O -0.02921 -0.00305 -0.06487
 O456 O -0.02763 0.03951 -0.05543
 Zr457 Zr -0.02809 0.01133 -0.02963
 O458 O -0.00692 0.03462 -0.00825
 Zr459 Zr 0.01423 -0.03095 -0.02978
 O460 O 0.03760 -0.00916 -0.00888
 Zr461 Zr -0.02773 -0.03080 0.01325
 O462 O -0.00594 -0.00951 0.03634
 Zr463 Zr 0.02970 0.02751 -0.01434
 O464 O 0.00852 0.00583 -0.03789
 Zr465 Zr -0.01212 0.02704 0.02863
 O466 O -0.03587 0.00588 0.00723
 Zr467 Zr 0.03051 -0.01503 0.02808
 O468 O 0.00883 -0.03864 0.00712
 O469 O -0.02202 -0.02511 -0.02352
 O470 O 0.02441 0.02153 0.02245
 C471 C -0.07273 -0.02132 -0.01943
 C472 C -0.01719 -0.01988 -0.07534
 C473 C -0.01739 -0.07643 -0.01789
 C474 C 0.07465 0.01846 0.01800
 C475 C 0.02034 0.07184 0.01960
 C476 C 0.02278 0.01895 0.07232
 H477 H -0.01111 0.05154 -0.01198
 H478 H -0.00966 -0.01314 0.05347
 H479 H -0.03214 -0.03557 -0.03396
 H480 H 0.05451 -0.01272 -0.01313
 H481 H 0.04968 0.01831 -0.05548
 H482 H 0.05308 -0.02198 -0.05390
 H483 H -0.03705 0.03107 0.06844
 H484 H -0.06531 -0.03986 0.04021
 H485 H 0.01478 0.06505 -0.03864
 H486 H -0.01169 0.03888 -0.06336
 H487 H 0.01725 -0.04071 0.06507
 H488 H -0.00936 -0.06427 0.04006
 H489 H -0.06330 0.03683 -0.01326
 H490 H -0.04113 0.06041 0.01370
 H491 H 0.03997 -0.06563 -0.01214
 H492 H 0.06685 -0.04063 0.01360
 O493 O -0.03328 0.43571 0.49606
 O494 O -0.03135 0.44462 0.53942
 O495 O -0.06584 0.49865 0.46724
 O496 O -0.05876 0.53806 0.46566
 O497 O -0.00247 0.46744 0.43401
 O498 O 0.03872 0.47122 0.44236
 O499 O 0.00024 0.56278 0.52991
 O500 O -0.04172 0.55608 0.52546
 O501 O 0.03008 0.50219 0.56157
 O502 O 0.02480 0.46110 0.55595
 O503 O 0.06094 0.53135 0.50050
 O504 O 0.05294 0.52934 0.45670
 O505 O 0.02926 0.56278 0.50094
 O506 O 0.02582 0.55399 0.45579
 O507 O 0.06059 0.50335 0.53057
 O508 O 0.05334 0.45901 0.52267
 O509 O 0.00132 0.53142 0.56113
 O510 O -0.04319 0.52724 0.55343
 O511 O -0.00373 0.43527 0.46762
 O512 O 0.03980 0.44460 0.47416
 O513 O -0.03109 0.49682 0.43343
 O514 O -0.02740 0.54087 0.44276
 O515 O -0.06607 0.46997 0.49670
 O516 O -0.05689 0.47155 0.53940
 Zr517 Zr -0.03108 0.47056 0.51133
 O518 O -0.00966 0.49182 0.53455
 Zr519 Zr -0.03059 0.51258 0.46834
 O520 O -0.00993 0.53613 0.49017
 Zr521 Zr 0.01166 0.47000 0.46930
 O522 O 0.03455 0.49201 0.49041
 Zr523 Zr -0.01555 0.52845 0.52699
 O524 O -0.03895 0.50729 0.50526
 Zr525 Zr 0.02691 0.48623 0.52716
 O526 O 0.00555 0.46220 0.50616
 Zr527 Zr 0.02669 0.52859 0.48442
 O528 O 0.00597 0.50665 0.46084
 O529 O -0.02482 0.47621 0.47475
 O530 O 0.02085 0.52275 0.52106
 C531 C -0.02123 0.42535 0.47911
 C532 C -0.07630 0.48209 0.47971
 C533 C -0.01915 0.47958 0.42339
 C534 C 0.01793 0.57262 0.51867
 C535 C 0.01893 0.52013 0.57119
 C536 C 0.07053 0.52067 0.51877
 H537 H -0.01322 0.48769 0.55160
 H538 H 0.05155 0.48816 0.48680
 H539 H -0.03532 0.46605 0.46440
 H540 H -0.01397 0.55312 0.48653
 H541 H -0.05610 0.54900 0.51749
 H542 H -0.05482 0.55138 0.47697
 H543 H 0.06462 0.46016 0.53659
 H544 H 0.03842 0.43206 0.46135
 H545 H -0.03939 0.51425 0.56510
 H546 H -0.06455 0.48766 0.53862
 H547 H 0.06276 0.51455 0.45824
 H548 H 0.03816 0.48758 0.43518
 H549 H -0.01713 0.43418 0.53701
 H550 H 0.02015 0.44543 0.54866
 H551 H -0.01269 0.53767 0.43320
 H552 H 0.01306 0.56589 0.45940
 O553 O 0.56439 0.02985 0.50186
 O554 O 0.55510 0.02824 0.45848
 O555 O 0.50096 0.06222 0.53053
 O556 O 0.46161 0.05459 0.53118
 O557 O 0.53244 -0.00065 0.56436
 O558 O 0.52939 -0.04203 0.55626
 O559 O 0.43788 -0.00527 0.46823
 O560 O 0.44414 0.03672 0.47223
 O561 O 0.49964 -0.03401 0.43626
 O562 O 0.53977 -0.02865 0.44218
 O563 O 0.47126 -0.06615 0.49815
 O564 O 0.47199 -0.05736 0.54158
 O565 O 0.43825 -0.03424 0.49732
 O566 O 0.44699 -0.03125 0.54198
 O567 O 0.49966 -0.06570 0.46859
 O568 O 0.54311 -0.05628 0.47598
 O569 O 0.47039 -0.00528 0.43641
 O570 O 0.47230 0.03846 0.44429
 O571 O 0.56510 0.00056 0.53065
 O572 O 0.55626 -0.04304 0.52493
 O573 O 0.50274 0.02764 0.56443
 O574 O 0.45938 0.02334 0.55509
 O575 O 0.52991 0.06257 0.50148
 O576 O 0.52821 0.05361 0.45889
 Zr577 Zr 0.52954 0.02754 0.48681
 O578 O 0.50874 0.00563 0.46369
 Zr579 Zr 0.48746 0.02666 0.52942
 O580 O 0.46445 0.00528 0.50770
 Zr581 Zr 0.53053 -0.01507 0.52910
 O582 O 0.50914 -0.03844 0.50790
 Zr583 Zr 0.47206 0.01086 0.47091
 O584 O 0.49276 0.03487 0.49249
 Zr585 Zr 0.51489 -0.03097 0.47109
 O586 O 0.53836 -0.00906 0.49220
 Zr587 Zr 0.47249 -0.03134 0.51353
 O588 O 0.49383 -0.00993 0.53711
 O589 O 0.52389 0.02141 0.52340
 O590 O 0.47818 -0.02574 0.47675
 C591 C 0.57498 0.01782 0.51870
 C592 C 0.51758 0.07279 0.51827
 C593 C 0.51990 0.01588 0.57476
 C594 C 0.42808 -0.02280 0.47984
 C595 C 0.48232 -0.02233 0.42615
 C596 C 0.48301 -0.07619 0.48080
 H597 H 0.51294 0.00932 0.44669
 H598 H 0.51338 -0.05535 0.51176
 H599 H 0.53395 0.03203 0.53375
 H600 H 0.44745 0.00908 0.51129
 H601 H 0.45089 0.05121 0.48034
 H602 H 0.44792 0.04970 0.52077
 H603 H 0.54253 -0.06786 0.46226
 H604 H 0.56855 -0.04145 0.53793
 H605 H 0.48680 0.03642 0.43416
 H606 H 0.51211 0.06119 0.45977
 H607 H 0.48716 -0.06663 0.54061
 H608 H 0.51312 -0.04143 0.56351
 H609 H 0.56586 0.01423 0.46087
 H610 H 0.55519 -0.02307 0.44927
 H611 H 0.46239 0.00831 0.56430
 H612 H 0.43568 -0.01778 0.53907
 O613 O 0.53047 0.50022 0.06327
 O614 O 0.53066 0.45783 0.05316
 O615 O 0.56418 0.52996 -0.00064
 O616 O 0.55679 0.53164 -0.04022
 O617 O 0.50176 0.56329 0.03134
 O618 O 0.46051 0.55610 0.02685
 O619 O 0.49813 0.46845 -0.06510
 O620 O 0.53977 0.47202 -0.05794
 O621 O 0.46769 0.43673 -0.00390
 O622 O 0.47306 0.44178 0.03686
 O623 O 0.43685 0.49773 -0.03276
 O624 O 0.44498 0.54085 -0.03139
 O625 O 0.46912 0.49731 -0.06496
 O626 O 0.47229 0.54218 -0.05560
 O627 O 0.43689 0.46856 -0.00384
 O628 O 0.44562 0.47569 0.04023
 O629 O 0.49647 0.43687 -0.03320
 O630 O 0.54089 0.44424 -0.02928
 O631 O 0.50121 0.52887 0.06356
 O632 O 0.45804 0.52455 0.05328
 O633 O 0.53032 0.56375 0.00182
 O634 O 0.52561 0.55503 -0.04241
 O635 O 0.56435 0.50131 0.02885
 O636 O 0.55538 0.45847 0.02586
 Zr637 Zr 0.52944 0.48629 0.02768
 O638 O 0.50771 0.46335 0.00644
 Zr639 Zr 0.52888 0.52919 -0.01435
 O640 O 0.50800 0.50756 -0.03794
 Zr641 Zr 0.48679 0.52848 0.02832
 O642 O 0.46375 0.50757 0.00634
 Zr643 Zr 0.51345 0.47082 -0.03035
 O644 O 0.53710 0.49236 -0.00920
 Zr645 Zr 0.47120 0.47092 0.01214
 O646 O 0.49281 0.49167 0.03608
 Zr647 Zr 0.47139 0.51338 -0.03042
 O648 O 0.49234 0.53682 -0.00846
 O649 O 0.52326 0.52278 0.02224
 O650 O 0.47698 0.47679 -0.02465
 C651 C 0.51791 0.51657 0.07390
 C652 C 0.57460 0.51799 0.01633
 C653 C 0.51875 0.57366 0.01941
 C654 C 0.48077 0.48003 -0.07514
 C655 C 0.47888 0.42696 -0.02176
 C656 C 0.42678 0.48038 -0.02108
 H657 H 0.51116 0.44634 0.01057
 H658 H 0.44682 0.51136 0.01032
 H659 H 0.53370 0.53277 0.03284
 H660 H 0.51207 0.51125 -0.05497
 H661 H 0.55406 0.48019 -0.05089
 H662 H 0.55253 0.52061 -0.05369
 H663 H 0.43400 0.46210 0.03932
 H664 H 0.45955 0.53724 0.06593
 H665 H 0.53735 0.43292 -0.01590
 H666 H 0.56332 0.45996 0.00989
 H667 H 0.43623 0.54038 -0.01582
 H668 H 0.46141 0.56330 0.01047
 H669 H 0.51563 0.45870 0.06267
 H670 H 0.47798 0.44867 0.05267
 H671 H 0.51115 0.56482 -0.03883
 H672 H 0.48541 0.53893 -0.06724
 O673 O 0.81418 0.24980 0.47075
 O674 O 0.80445 0.20732 0.47034
 O675 O 0.75222 0.28019 0.43621
 O676 O 0.71242 0.27991 0.44190
 O677 O 0.78153 0.31300 0.50002
 O678 O 0.77768 0.30511 0.54124
 O679 O 0.68685 0.21714 0.50109
 O680 O 0.69408 0.22127 0.45924
 O681 O 0.74635 0.18630 0.53296
 O682 O 0.78716 0.19092 0.52813
 O683 O 0.71810 0.24763 0.56349
 O684 O 0.71914 0.29078 0.55454
 O685 O 0.68682 0.24533 0.53108
 O686 O 0.69474 0.29070 0.52699
 O687 O 0.74671 0.21835 0.56398
 O688 O 0.79065 0.22491 0.55567
 O689 O 0.71823 0.18610 0.50285
 O690 O 0.72303 0.19358 0.45825
 O691 O 0.81427 0.27900 0.49978
 O692 O 0.80394 0.27348 0.54332
 O693 O 0.75217 0.31330 0.47113
 O694 O 0.70874 0.30367 0.47345
 O695 O 0.78102 0.25106 0.43644
 O696 O 0.77749 0.20788 0.44494
 Zr697 Zr 0.77901 0.23567 0.47126
 O698 O 0.75776 0.21266 0.49268
 Zr699 Zr 0.73715 0.27834 0.47107
 O700 O 0.71348 0.25671 0.49158
 Zr701 Zr 0.77918 0.27786 0.51429
 O702 O 0.75698 0.25698 0.53700
 Zr703 Zr 0.72133 0.22004 0.48606
 O704 O 0.74254 0.24158 0.46270
 Zr705 Zr 0.76287 0.22029 0.52959
 O706 O 0.78695 0.24104 0.50829
 Zr707 Zr 0.72053 0.26264 0.52858
 O708 O 0.74263 0.28601 0.50799
 O709 O 0.77342 0.27216 0.47753
 O710 O 0.72651 0.22611 0.52291
 C711 C 0.82459 0.26658 0.48307
 C712 C 0.76942 0.26835 0.42618
 C713 C 0.76918 0.32349 0.48334
 C714 C 0.67703 0.22790 0.51915
 C715 C 0.72890 0.17644 0.52112
 C716 C 0.72960 0.23039 0.57391
 H717 H 0.76194 0.19565 0.48924
 H718 H 0.76073 0.26089 0.55410
 H719 H 0.78395 0.28251 0.46748
 H720 H 0.69657 0.26023 0.48723
 H721 H 0.70127 0.22912 0.44485
 H722 H 0.69861 0.26949 0.44621
 H723 H 0.78947 0.21144 0.56743
 H724 H 0.81654 0.28614 0.54208
 H725 H 0.73620 0.18222 0.46212
 H726 H 0.76201 0.20978 0.43623
 H727 H 0.73405 0.28992 0.56433
 H728 H 0.76133 0.31212 0.54049
 H729 H 0.81380 0.20832 0.48558
 H730 H 0.80285 0.19760 0.52297
 H731 H 0.71109 0.31274 0.48875
 H732 H 0.68262 0.28635 0.51455
 O733 O 0.75330 0.78212 -0.06372
 O734 O 0.71073 0.77999 -0.05561
 O735 O 0.78163 0.81516 -0.00039
 O736 O 0.78228 0.80820 0.03952
 O737 O 0.81481 0.75120 -0.03051
 O738 O 0.80618 0.70994 -0.02711
 O739 O 0.71973 0.74956 0.06395
 O740 O 0.72362 0.79153 0.05677
 O741 O 0.68753 0.71975 0.00204
 O742 O 0.69420 0.72153 -0.04001
 O743 O 0.74633 0.68866 0.03312
 O744 O 0.79100 0.69530 0.02960
 O745 O 0.74876 0.72071 0.06433
 O746 O 0.79257 0.72196 0.05495
 O747 O 0.71839 0.68851 0.00301
 O748 O 0.72668 0.69808 -0.04277
 O749 O 0.68802 0.74846 0.03163
 O750 O 0.69582 0.79270 0.02834
 O751 O 0.78159 0.75247 -0.06376
 O752 O 0.77535 0.70903 -0.05464
 O753 O 0.81526 0.78042 -0.00138
 O754 O 0.80599 0.77697 0.04216
 O755 O 0.75259 0.81546 -0.02953
 O756 O 0.71027 0.80644 -0.02823
 Zr757 Zr 0.73803 0.78042 -0.02884
 O758 O 0.71470 0.75924 -0.00773
 Zr759 Zr 0.78040 0.77988 0.01379
 O760 O 0.75864 0.75908 0.03709
 Zr761 Zr 0.77961 0.73724 -0.02887
 O762 O 0.75820 0.71428 -0.00727
 Zr763 Zr 0.72211 0.76497 0.02920
 O764 O 0.74381 0.78835 0.00813
 Zr765 Zr 0.72187 0.72248 -0.01351
 O766 O 0.74311 0.74370 -0.03710
 Zr767 Zr 0.76396 0.72220 0.02954
 O768 O 0.78762 0.74305 0.00801
 O769 O 0.77432 0.77393 -0.02278
 O770 O 0.72763 0.72835 0.02335
 C771 C 0.77016 0.76991 -0.07393
 C772 C 0.76943 0.82567 -0.01719
 C773 C 0.82535 0.76804 -0.01830
 C774 C 0.73152 0.73246 0.07431
 C775 C 0.67792 0.73101 0.01996
 C776 C 0.72880 0.67889 0.02138
 H777 H 0.69783 0.76316 -0.01180
 H778 H 0.76156 0.69719 -0.01121
 H779 H 0.78474 0.78432 -0.03289
 H780 H 0.76237 0.76317 0.05414
 H781 H 0.73180 0.80578 0.04972
 H782 H 0.77194 0.80356 0.05332
 H783 H 0.71693 0.68340 -0.03962
 H784 H 0.78839 0.71034 -0.06683
 H785 H 0.68472 0.78954 0.01465
 H786 H 0.71075 0.81396 -0.01194
 H787 H 0.78750 0.68388 0.01623
 H788 H 0.81250 0.70999 -0.01032
 H789 H 0.71204 0.76430 -0.06415
 H790 H 0.68772 0.73806 -0.04154
 H791 H 0.81502 0.76182 0.03940
 H792 H 0.79066 0.73624 0.06557
 O793 O 1.06328 0.21816 0.24805
 O794 O 1.05422 0.22060 0.29089
 O795 O 1.00215 0.18414 0.21806
 O796 O 0.96178 0.18974 0.21896
 O797 O 1.03061 0.24733 0.18489
 O798 O 1.02696 0.28907 0.19312
 O799 O 0.93633 0.25119 0.28040
 O800 O 0.94245 0.20864 0.27530
 O801 O 0.99672 0.27972 0.31269
 O802 O 1.03736 0.28016 0.30664
 O803 O 0.96738 0.31140 0.24975
 O804 O 0.97020 0.30201 0.20590
 O805 O 0.93616 0.27939 0.25054
 O806 O 0.94473 0.27568 0.20604
 O807 O 0.99549 0.31175 0.27971
 O808 O 1.04176 0.30148 0.27330
 O809 O 0.96778 0.25055 0.31193
 O810 O 0.97056 0.20705 0.30406
 O811 O 1.06335 0.24680 0.21853
 O812 O 1.05423 0.29020 0.22430
 O813 O 1.00177 0.21799 0.18463
 O814 O 0.95875 0.22072 0.19330
 O815 O 1.03041 0.18460 0.24800
 O816 O 1.02724 0.19368 0.29085
 Zr817 Zr 1.02833 0.21955 0.26274
 O818 O 1.00680 0.24090 0.28545
 Zr819 Zr 0.98657 0.21881 0.21955
 O820 O 0.96286 0.23989 0.24058
 Zr821 Zr 1.02862 0.26197 0.22012
 O822 O 1.00666 0.28504 0.24095
 Zr823 Zr 0.97029 0.23469 0.27749
 O824 O 0.99180 0.21101 0.25657
 Zr825 Zr 1.01219 0.27765 0.27787
 O826 O 1.03621 0.25628 0.25719
 Zr827 Zr 0.97029 0.27667 0.23457
 O828 O 0.99219 0.25555 0.21157
 O829 O 1.02272 0.22545 0.22608
 O830 O 0.97581 0.27136 0.27146
 C831 C 1.07345 0.22978 0.23067
 C832 C 1.01924 0.17428 0.23036
 C833 C 1.01866 0.23024 0.17446
 C834 C 0.92648 0.26862 0.26865
 C835 C 0.97929 0.26784 0.32237
 C836 C 0.97848 0.32166 0.26744
 H837 H 1.01075 0.23724 0.30252
 H838 H 1.01060 0.30206 0.23717
 H839 H 1.03309 0.21523 0.21577
 H840 H 0.94594 0.23573 0.23685
 H841 H 0.94957 0.19402 0.26788
 H842 H 0.94704 0.19519 0.22734
 H843 H 1.03776 0.31712 0.28107
 H844 H 1.06633 0.28886 0.21117
 H845 H 0.98517 0.20908 0.31414
 H846 H 1.01164 0.18514 0.28927
 H847 H 0.98428 0.31277 0.20814
 H848 H 1.01097 0.28766 0.18528
 H849 H 1.06299 0.23610 0.28921
 H850 H 1.04101 0.26348 0.31180
 H851 H 0.96081 0.23623 0.18464
 H852 H 0.93360 0.26207 0.20909
 O853 O 0.74867 1.06437 0.71976
 O854 O 0.79081 1.05542 0.72160
 O855 O 0.71967 1.00080 0.68596
 O856 O 0.71893 0.96112 0.69320
 O857 O 0.68612 1.03195 0.74897
 O858 O 0.69358 1.02794 0.79077
 O859 O 0.78133 0.93733 0.75374
 O860 O 0.77706 0.94342 0.71142
 O861 O 0.81303 0.99923 0.78244
 O862 O 0.80609 1.04017 0.78200
 O863 O 0.75110 0.96914 0.81454
 O864 O 0.70787 0.97096 0.80550
 O865 O 0.75195 0.93721 0.78232
 O866 O 0.70754 0.94584 0.77874
 O867 O 0.78083 0.99736 0.81411
 O868 O 0.77318 1.04348 0.80400
 O869 O 0.81290 0.96985 0.75356
 O870 O 0.80489 0.97176 0.70970
 O871 O 0.71992 1.06455 0.74903
 O872 O 0.72444 1.05518 0.79261
 O873 O 0.68603 1.00274 0.71983
 O874 O 0.69466 0.95896 0.72451
 O875 O 0.74819 1.03037 0.68632
 O876 O 0.79090 1.02785 0.69535
 Zr877 Zr 0.76306 1.02922 0.72137
 O878 O 0.78593 1.00826 0.74316
 Zr879 Zr 0.72053 0.98695 0.72147
 O880 O 0.74193 0.96372 0.74278
 Zr881 Zr 0.72086 1.02965 0.76406
 O882 O 0.74176 1.00810 0.78750
 Zr883 Zr 0.77854 0.97147 0.73745
 O884 O 0.75727 0.99238 0.71348
 Zr885 Zr 0.77829 1.01401 0.77996
 O886 O 0.75753 1.03755 0.75815
 Zr887 Zr 0.73592 0.97143 0.77962
 O888 O 0.71269 0.99294 0.75825
 O889 O 0.72674 1.02343 0.72741
 O890 O 0.77250 0.97730 0.77419
 C891 C 0.73197 1.07477 0.73201
 C892 C 0.73153 1.01799 0.67582
 C893 C 0.67598 1.02005 0.73165
 C894 C 0.76968 0.92738 0.77118
 C895 C 0.82310 0.98191 0.77071
 C896 C 0.76883 0.98041 0.82442
 H897 H 0.80282 1.01240 0.73942
 H898 H 0.73801 1.01217 0.80454
 H899 H 0.71670 1.03378 0.71688
 H900 H 0.73837 0.94667 0.73876
 H901 H 0.76893 0.95017 0.69694
 H902 H 0.72870 0.94711 0.69831
 H903 H 0.78148 1.03980 0.81948
 H904 H 0.71151 1.06741 0.79098
 H905 H 0.81485 0.98645 0.71167
 H906 H 0.78939 1.01205 0.68705
 H907 H 0.70919 0.98592 0.81524
 H908 H 0.68611 1.01174 0.78950
 H909 H 0.78972 1.06397 0.73734
 H910 H 0.81206 1.04272 0.76535
 H911 H 0.68516 0.96227 0.73930
 H912 H 0.71061 0.93455 0.76519
 O913 O 0.68432 0.52932 0.24728
 O914 O 0.69366 0.52768 0.29057
 O915 O 0.74624 0.56217 0.21766
 O916 O 0.78627 0.55611 0.21912
 O917 O 0.71690 0.49917 0.18413
 O918 O 0.71932 0.45797 0.19210
 O919 O 0.81080 0.49532 0.28033
 O920 O 0.80418 0.53744 0.27726
 O921 O 0.74989 0.46491 0.31131
 O922 O 0.70932 0.47039 0.30601
 O923 O 0.77878 0.43470 0.25016
 O924 O 0.77714 0.44355 0.20634
 O925 O 0.81100 0.46685 0.25062
 O926 O 0.80206 0.47007 0.20621
 O927 O 0.74974 0.43420 0.27908
 O928 O 0.70607 0.44311 0.27172
 O929 O 0.77828 0.49465 0.31241
 O930 O 0.77608 0.53825 0.30526
 O931 O 0.68398 0.50085 0.21750
 O932 O 0.69260 0.45692 0.22357
 O933 O 0.74657 0.52764 0.18434
 O934 O 0.78970 0.52503 0.19430
 O935 O 0.71757 0.56217 0.24702
 O936 O 0.72092 0.55338 0.29017
 Zr937 Zr 0.71914 0.52731 0.26215
 O938 O 0.73990 0.50530 0.28504
 Zr939 Zr 0.76122 0.52728 0.21963
 O940 O 0.78433 0.50602 0.24116
 Zr941 Zr 0.71841 0.48491 0.21937
 O942 O 0.74004 0.46157 0.24015
 Zr943 Zr 0.77654 0.51113 0.27804
 O944 O 0.75582 0.53519 0.25664
 Zr945 Zr 0.73410 0.46871 0.27697
 O946 O 0.71048 0.49063 0.25629
 Zr947 Zr 0.77664 0.46934 0.23472
 O948 O 0.75511 0.49066 0.21145
 O949 O 0.72492 0.52131 0.22553
 O950 O 0.77074 0.47457 0.27151
 C951 C 0.67408 0.51797 0.22970
 C952 C 0.72905 0.57227 0.22952
 C953 C 0.72956 0.51570 0.17385
 C954 C 0.82096 0.47829 0.26827
 C955 C 0.76694 0.47670 0.32183
 C956 C 0.76702 0.42431 0.26727
 H957 H 0.73564 0.50866 0.30210
 H958 H 0.73599 0.44463 0.23611
 H959 H 0.71482 0.53160 0.21500
 H960 H 0.80129 0.51013 0.23765
 H961 H 0.79728 0.55197 0.26948
 H962 H 0.80028 0.55109 0.22899
 H963 H 0.70682 0.43135 0.28524
 H964 H 0.68016 0.45865 0.21075
 H965 H 0.76116 0.53636 0.31479
 H966 H 0.73658 0.56177 0.28844
 H967 H 0.76265 0.43327 0.20801
 H968 H 0.73584 0.45806 0.18541
 H969 H 0.68318 0.51339 0.28827
 H970 H 0.69385 0.47588 0.29906
 H971 H 0.78728 0.50990 0.18501
 H972 H 0.81325 0.48367 0.20928
 O973 O 0.56167 0.21749 0.74868
 O974 O 0.55181 0.21976 0.79229
 O975 O 0.49971 0.18453 0.71867
 O976 O 0.45981 0.19117 0.71811
 O977 O 0.53054 0.24747 0.68598
 O978 O 0.52683 0.28925 0.69396
 O979 O 0.43430 0.25090 0.77930
 O980 O 0.44143 0.20868 0.77578
 O981 O 0.49486 0.28084 0.81271
 O982 O 0.53523 0.27624 0.80817
 O983 O 0.46690 0.31210 0.75063
 O984 O 0.46938 0.30351 0.70701
 O985 O 0.43480 0.27985 0.75019
 O986 O 0.44459 0.27676 0.70585
 O987 O 0.49519 0.31224 0.78046
 O988 O 0.53915 0.30353 0.77444
 O989 O 0.46611 0.25146 0.81230
 O990 O 0.46851 0.20809 0.80485
 O991 O 0.56229 0.24641 0.71946
 O992 O 0.55354 0.29017 0.72593
 O993 O 0.50152 0.21830 0.68531
 O994 O 0.45779 0.22242 0.69323
 O995 O 0.52830 0.18473 0.74831
 O996 O 0.52501 0.19342 0.79118
 Zr997 Zr 0.52670 0.21959 0.76339
 O998 O 0.50522 0.24118 0.78593
 Zr999 Zr 0.48524 0.21964 0.71979
 O1000 O 0.46166 0.24073 0.74087
 Zr1001 Zr 0.52783 0.26217 0.72100
 O1002 O 0.50584 0.28526 0.74160
 Zr1003 Zr 0.46873 0.23530 0.77785
 O1004 O 0.49011 0.21156 0.75686
 Zr1005 Zr 0.51105 0.27783 0.77850
 O1006 O 0.53521 0.25632 0.75806
 Zr1007 Zr 0.46940 0.27747 0.73505
 O1008 O 0.49136 0.25632 0.71205
 O1009 O 0.52136 0.22573 0.72679
 O1010 O 0.47454 0.27196 0.77197
 C1011 C 0.57202 0.22898 0.73132
 C1012 C 0.51680 0.17452 0.73079
 C1013 C 0.51901 0.23011 0.67559
 C1014 C 0.42443 0.26816 0.76733
 C1015 C 0.47746 0.26903 0.82252
 C1016 C 0.47828 0.32232 0.76821
 H1017 H 0.50914 0.23766 0.80305
 H1018 H 0.50995 0.30224 0.73787
 H1019 H 0.53166 0.21527 0.71667
 H1020 H 0.44478 0.23664 0.73686
 H1021 H 0.44872 0.19432 0.76800
 H1022 H 0.44550 0.19635 0.72736
 H1023 H 0.53785 0.31536 0.78788
 H1024 H 0.56592 0.28873 0.71309
 H1025 H 0.48344 0.20967 0.81454
 H1026 H 0.50921 0.18527 0.78951
 H1027 H 0.48420 0.31331 0.70873
 H1028 H 0.51084 0.28814 0.68608
 H1029 H 0.56289 0.23349 0.78951
 H1030 H 0.55068 0.27023 0.80170
 H1031 H 0.46108 0.23727 0.68382
 H1032 H 0.43347 0.26303 0.70844
 O1033 O 0.28046 0.81475 0.50046
 O1034 O 0.27981 0.80418 0.54344
 O1035 O 0.31441 0.75264 0.46974
 O1036 O 0.30828 0.71240 0.47020
 O1037 O 0.25272 0.78300 0.43656
 O1038 O 0.21117 0.77829 0.44313
 O1039 O 0.24744 0.68689 0.53120
 O1040 O 0.28967 0.69349 0.52760
 O1041 O 0.21685 0.74668 0.56246
 O1042 O 0.22290 0.78786 0.55823
 O1043 O 0.18772 0.71811 0.50145
 O1044 O 0.19607 0.72121 0.45728
 O1045 O 0.21939 0.68693 0.50113
 O1046 O 0.22292 0.69622 0.45657
 O1047 O 0.18713 0.74725 0.53053
 O1048 O 0.19553 0.79139 0.52379
 O1049 O 0.24624 0.71810 0.56276
 O1050 O 0.29071 0.72195 0.55611
 O1051 O 0.25164 0.81502 0.47108
 O1052 O 0.20841 0.80478 0.47484
 O1053 O 0.28114 0.75339 0.43639
 O1054 O 0.27733 0.70964 0.44479
 O1055 O 0.31420 0.78145 0.49921
 O1056 O 0.30558 0.77747 0.54217
 Zr1057 Zr 0.27943 0.77928 0.51432
 O1058 O 0.25762 0.75781 0.53681
 Zr1059 Zr 0.27968 0.73754 0.47101
 O1060 O 0.25852 0.71381 0.49196
 Zr1061 Zr 0.23720 0.77990 0.47122
 O1062 O 0.21401 0.75788 0.49171
 Zr1063 Zr 0.26357 0.72120 0.52898
 O1064 O 0.28745 0.74259 0.50811
 Zr1065 Zr 0.22121 0.76349 0.52864
 O1066 O 0.24284 0.78756 0.50832
 Zr1067 Zr 0.22198 0.72137 0.48550
 O1068 O 0.24322 0.74333 0.46263
 O1069 O 0.27352 0.77389 0.47764
 O1070 O 0.22728 0.72701 0.52230
 C1071 C 0.26828 0.82528 0.48367
 C1072 C 0.32436 0.76995 0.48172
 C1073 C 0.26985 0.77108 0.42643
 C1074 C 0.23015 0.67704 0.51917
 C1075 C 0.22805 0.72887 0.57228
 C1076 C 0.17759 0.72946 0.51902
 H1077 H 0.26086 0.76177 0.55399
 H1078 H 0.19708 0.76178 0.48778
 H1079 H 0.28376 0.78461 0.46772
 H1080 H 0.26261 0.69685 0.48820
 H1081 H 0.30421 0.70062 0.52010
 H1082 H 0.30303 0.69803 0.47941
 H1083 H 0.18386 0.79035 0.53732
 H1084 H 0.20999 0.81732 0.46211
 H1085 H 0.28737 0.73557 0.56721
 H1086 H 0.31350 0.76155 0.54060
 H1087 H 0.18572 0.73556 0.45941
 H1088 H 0.21217 0.76194 0.43591
 H1089 H 0.26527 0.81431 0.54172
 H1090 H 0.22767 0.80371 0.55154
 H1091 H 0.26249 0.71255 0.43526
 H1092 H 0.23642 0.68499 0.45962
 O1093 O 0.31485 0.25069 0.97142
 O1094 O 0.30593 0.20858 0.97256
 O1095 O 0.25194 0.28004 0.93674
 O1096 O 0.21217 0.27988 0.94324
 O1097 O 0.28195 0.31342 1.00036
 O1098 O 0.27738 0.30563 1.04205
 O1099 O 0.18723 0.21766 1.00216
 O1100 O 0.19515 0.22240 0.95975
 O1101 O 0.24808 0.18595 1.03222
 O1102 O 0.28996 0.19295 1.03204
 O1103 O 0.21906 0.24754 1.06454
 O1104 O 0.22023 0.29083 1.05582
 O1105 O 0.18743 0.24606 1.03195
 O1106 O 0.19564 0.29094 1.02887
 O1107 O 0.24794 0.21855 1.06466
 O1108 O 0.29343 0.22233 1.05424
 O1109 O 0.21905 0.18611 1.00310
 O1110 O 0.22353 0.19130 0.96223
 O1111 O 0.31443 0.27992 1.00045
 O1112 O 0.30473 0.27457 1.04375
 O1113 O 0.25283 0.31338 0.97120
 O1114 O 0.20925 0.30399 0.97436
 O1115 O 0.28180 0.25202 0.93736
 O1116 O 0.27965 0.20794 0.94613
 Zr1117 Zr 0.27975 0.23622 0.97200
 O1118 O 0.25839 0.21305 0.99315
 Zr1119 Zr 0.23750 0.27851 0.97189
 O1120 O 0.21407 0.25696 0.99277
 Zr1121 Zr 0.27952 0.27846 1.01506
 O1122 O 0.25785 0.25721 1.03796
 Zr1123 Zr 0.22183 0.22034 0.98713
 O1124 O 0.24311 0.24169 0.96347
 Zr1125 Zr 0.26375 0.22054 1.03012
 O1126 O 0.28747 0.24175 1.00897
 Zr1127 Zr 0.22136 0.26279 1.02973
 O1128 O 0.24297 0.28634 1.00881
 O1129 O 0.27380 0.27261 0.97832
 O1130 O 0.22720 0.22614 1.02405
 C1131 C 0.32493 0.26771 0.98371
 C1132 C 0.26949 0.26864 0.92684
 C1133 C 0.26994 0.32363 0.98324
 C1134 C 0.17738 0.22884 1.01996
 C1135 C 0.23071 0.17595 1.02042
 C1136 C 0.23075 0.23033 1.07475
 H1137 H 0.26216 0.19608 0.98907
 H1138 H 0.26161 0.26119 1.05503
 H1139 H 0.28423 0.28293 0.96815
 H1140 H 0.19715 0.26053 0.98854
 H1141 H 0.20330 0.22809 0.94488
 H1142 H 0.19883 0.26888 0.94756
 H1143 H 0.28944 0.23406 1.06716
 H1144 H 0.31674 0.28782 1.04266
 H1145 H 0.23245 0.19727 0.94799
 H1146 H 0.26710 0.21171 0.93395
 H1147 H 0.23517 0.28990 1.06556
 H1148 H 0.26127 0.31310 1.04054
 H1149 H 0.31345 0.20908 0.98885
 H1150 H 0.29108 0.18557 1.01574
 H1151 H 0.21183 0.31318 0.98956
 H1152 H 0.18430 0.28759 1.01542
 C1153 C 0.27514 0.36947 0.80645
 C1154 C 0.29355 0.35705 0.79449
 C1155 C 0.30073 0.36584 0.77160
 C1156 C 0.29166 0.38785 0.76265
 C1157 C 0.27522 0.40158 0.77639
 C1158 C 0.26626 0.39117 0.79766
 C1159 C 0.26408 0.40165 0.82252
 C1160 C 0.27375 0.37787 0.83216
 H1161 H 0.31419 0.35638 0.76111
 H1162 H 0.29850 0.39466 0.74562
 H1163 H 0.24504 0.40501 0.82761
 H1164 H 0.27654 0.41712 0.82556
 H1165 H 0.26024 0.36750 0.84275
 H1166 H 0.29175 0.37959 0.84087
 C1167 C 0.30262 -0.13405 0.27131
 C1168 C 0.29213 -0.14586 0.29115
 C1169 C 0.27045 -0.13606 0.30027
 C1170 C 0.26191 -0.11358 0.29201
 C1171 C 0.27479 -0.10034 0.27445
 C1172 C 0.29419 -0.11188 0.26326
 C1173 C 0.31896 -0.10270 0.25842
 C1174 C 0.32825 -0.12698 0.26697
 H1175 H 0.26083 -0.14488 0.31483
 H1176 H 0.24607 -0.10597 0.30048
 H1177 H 0.32393 -0.08763 0.27079
 H1178 H 0.32212 -0.09935 0.23883
 H1179 H 0.33901 -0.12580 0.28397
 H1180 H 0.33658 -0.13778 0.25223
 C1181 C 0.80619 0.87015 0.77735
 C1182 C 0.79569 0.85840 0.79719
 C1183 C 0.77710 0.87074 0.80953
 C1184 C 0.76848 0.89306 0.80103
 C1185 C 0.77801 0.90360 0.77985
 C1186 C 0.79754 0.89207 0.76891
 C1187 C 0.80117 0.88507 0.74305
 C1188 C 0.81076 0.86110 0.75226
 H1189 H 0.76896 0.86315 0.82562
 H1190 H 0.75415 0.90185 0.81093
 H1191 H 0.81513 0.89629 0.73408
 H1192 H 0.78393 0.88336 0.73289
 H1193 H 0.83028 0.85862 0.74869
 H1194 H 0.79916 0.84542 0.74736
 C1195 C 0.47773 0.88376 0.30095
 C1196 C 0.45730 0.89488 0.29101
 C1197 C 0.44753 0.88440 0.26972
 C1198 C 0.45604 0.86206 0.26101
 C1199 C 0.47449 0.84957 0.27336
 C1200 C 0.48603 0.86174 0.29238
 C1201 C 0.49259 0.85323 0.31714
 C1202 C 0.48352 0.87731 0.32661
 H1203 H 0.43243 0.89266 0.26047
 H1204 H 0.44715 0.85398 0.24549
 H1205 H 0.48146 0.83761 0.32310
 H1206 H 0.51236 0.85098 0.31926
 H1207 H 0.49807 0.88886 0.33428
 H1208 H 0.46720 0.87562 0.33812
 C1209 C -0.02348 0.88409 0.80133
 C1210 C -0.04384 0.89522 0.79143
 C1211 C -0.05381 0.88485 0.77023
 C1212 C -0.04539 0.86248 0.76142
 C1213 C -0.02683 0.85000 0.77362
 C1214 C -0.01522 0.86210 0.79267
 C1215 C -0.00879 0.85353 0.81748
 C1216 C -0.01778 0.87763 0.82698
 H1217 H -0.06895 0.89326 0.76122
 H1218 H -0.05437 0.85440 0.74595
 H1219 H 0.01094 0.85110 0.81975
 H1220 H -0.02005 0.83800 0.82330
 H1221 H -0.00319 0.88911 0.83467
 H1222 H -0.03413 0.87600 0.83845
 C1223 C -0.05098 -0.13601 -0.02108
 C1224 C -0.04135 -0.14692 -0.04188
 C1225 C -0.02021 -0.13645 -0.05158
 C1226 C -0.01138 -0.11423 -0.04273
 C1227 C -0.02350 -0.10178 -0.02406
 C1228 C -0.04237 -0.11399 -0.01253
 C1229 C -0.06697 -0.10543 -0.00602
 C1230 C -0.07642 -0.12953 -0.01522
 H1231 H -0.01119 -0.14459 -0.06692
 H1232 H 0.00397 -0.10613 -0.05165
 H1233 H -0.07281 -0.08990 -0.01731
 H1234 H -0.06916 -0.10300 0.01385
 H1235 H -0.08796 -0.12786 -0.03165
 H1236 H -0.08396 -0.14106 -0.00062
 C1237 C -0.05751 0.36772 0.47324
 C1238 C -0.04599 0.35534 0.45442
 C1239 C -0.02709 0.36736 0.44236
 C1240 C -0.01881 0.39000 0.45051
 C1241 C -0.02920 0.40120 0.47095
 C1242 C -0.04934 0.39005 0.48127
 C1243 C -0.05440 0.38408 0.50712
 C1244 C -0.06341 0.35963 0.49832
 H1245 H -0.01832 0.35915 0.42691
 H1246 H -0.00404 0.39849 0.44097
 H1247 H -0.06889 0.39555 0.51482
 H1248 H -0.03776 0.38298 0.51831
 H1249 H -0.08309 0.35709 0.50090
 H1250 H -0.05203 0.34430 0.50443
 C1251 C 0.44950 -0.13564 0.47787
 C1252 C 0.45981 -0.14727 0.45781
 C1253 C 0.48122 -0.13707 0.44838
 C1254 C 0.48965 -0.11446 0.45667
 C1255 C 0.47694 -0.10150 0.47458
 C1256 C 0.45783 -0.11339 0.48596
 C1257 C 0.43306 -0.10462 0.49138
 C1258 C 0.42388 -0.12899 0.48274
 H1259 H 0.49068 -0.14571 0.43359
 H1260 H 0.50525 -0.10655 0.44801
 H1261 H 0.42766 -0.08953 0.47931
 H1262 H 0.43024 -0.10147 0.51107
 H1263 H 0.41282 -0.12787 0.46595
 H1264 H 0.41593 -0.14001 0.49752
 C1265 C 0.44292 0.36902 -0.02661
 C1266 C 0.45205 0.35798 -0.04755
 C1267 C 0.46921 0.37116 -0.06110
 C1268 C 0.47802 0.39354 -0.05276
 C1269 C 0.47010 0.40331 -0.03055
 C1270 C 0.45176 0.39103 -0.01837
 C1271 C 0.45038 0.38356 0.00753
 C1272 C 0.44078 0.35941 -0.00141
 H1273 H 0.47621 0.36414 -0.07800
 H1274 H 0.49130 0.40295 -0.06356
 H1275 H 0.43684 0.39420 0.01777
 H1276 H 0.46840 0.38230 0.01627
 H1277 H 0.42177 0.35618 0.00386
 H1278 H 0.45321 0.34410 0.00213
 C1279 C 0.77200 0.38217 0.44877
 C1280 C 0.79178 0.39404 0.45916
 C1281 C 0.80120 0.38441 0.48089
 C1282 C 0.79301 0.36196 0.48976
 C1283 C 0.77518 0.34875 0.47710
 C1284 C 0.76392 0.36018 0.45752
 C1285 C 0.75832 0.35097 0.43268
 C1286 C 0.76718 0.37508 0.42306
 H1287 H 0.81586 0.39341 0.49025
 H1288 H 0.80166 0.35438 0.50562
 H1289 H 0.73869 0.34811 0.42991
 H1290 H 0.76994 0.33553 0.42736
 H1291 H 0.75265 0.38608 0.41474
 H1292 H 0.78390 0.37357 0.41212
 C1293 C 0.77258 0.88488 -0.05118
 C1294 C 0.79294 0.89614 -0.04111
 C1295 C 0.80239 0.88598 -0.01956
 C1296 C 0.79376 0.86371 -0.01074
 C1297 C 0.77552 0.85099 -0.02325
 C1298 C 0.76418 0.86291 -0.04252
 C1299 C 0.75787 0.85412 -0.06733
 C1300 C 0.76704 0.87815 -0.07685
 H1301 H 0.81740 0.89439 -0.01020
 H1302 H 0.80249 0.85581 0.00491
 H1303 H 0.73813 0.85170 -0.06971
 H1304 H 0.76904 0.83850 -0.07309
 H1305 H 0.75257 0.88956 -0.08474
 H1306 H 0.78347 0.87641 -0.08819
 C1307 C 0.77670 0.30599 0.36948
 C1308 C 0.79562 0.29464 0.35726
 C1309 C 0.80682 0.27490 0.36882
 C1310 C 0.79793 0.26586 0.39087
 C1311 C 0.77772 0.27643 0.40208
 C1312 C 0.76800 0.29712 0.39130
 C1313 C 0.74254 0.30248 0.38450
 C1314 C 0.75209 0.31229 0.36068
 H1315 H 0.82216 0.26606 0.36066
 H1316 H 0.80678 0.25044 0.39895
 H1317 H 0.73449 0.31663 0.39622
 H1318 H 0.73146 0.28585 0.38232
 H1319 H 0.74967 0.33213 0.35880
 H1320 H 0.74647 0.30144 0.34464
 C1321 C 0.77750 0.80736 -0.13063
 C1322 C 0.79622 0.79585 -0.14314
 C1323 C 0.80700 0.77568 -0.13182
 C1324 C 0.79811 0.76673 -0.10971
 C1325 C 0.77832 0.77775 -0.09816
 C1326 C 0.76889 0.79861 -0.10875
 C1327 C 0.74345 0.80442 -0.11521
 C1328 C 0.75287 0.81411 -0.13912
 H1329 H 0.82210 0.76652 -0.14009
 H1330 H 0.80669 0.75108 -0.10178
 H1331 H 0.73579 0.81870 -0.10336
 H1332 H 0.73205 0.78800 -0.11728
 H1333 H 0.75076 0.83399 -0.14091
 H1334 H 0.74688 0.80339 -0.15511
 C1335 C 0.30610 0.47297 0.88045
 C1336 C 0.29477 0.45409 0.89283
 C1337 C 0.27223 0.44612 0.88396
 C1338 C 0.26298 0.45507 0.86191
 C1339 C 0.27614 0.47207 0.84823
 C1340 C 0.29707 0.48166 0.85873
 C1341 C 0.32165 0.48470 0.84824
 C1342 C 0.33156 0.47525 0.87208
 H1343 H 0.26224 0.43224 0.89341
 H1344 H 0.24620 0.44775 0.85504
 H1345 H 0.32616 0.50398 0.84493
 H1346 H 0.32496 0.47235 0.83268
 H1347 H 0.34173 0.48912 0.88254
 H1348 H 0.34071 0.45749 0.87032
 C1349 C 0.30579 -0.02628 0.38158
 C1350 C 0.29356 -0.04387 0.39497
 C1351 C 0.27077 -0.05139 0.38625
 C1352 C 0.26215 -0.04350 0.36353
 C1353 C 0.27608 -0.02784 0.34907
 C1354 C 0.29724 -0.01846 0.35929
 C1355 C 0.32192 -0.01715 0.34880
 C1356 C 0.33133 -0.02573 0.37314
 H1357 H 0.26012 -0.06429 0.39635
 H1358 H 0.24516 -0.05052 0.35688
 H1359 H 0.32722 0.00172 0.34454
 H1360 H 0.32466 -0.03045 0.33395
 H1361 H 0.34218 -0.01178 0.38268
 H1362 H 0.33962 -0.04398 0.37241
 C1363 C -0.05238 -0.02304 -0.13402
 C1364 C -0.04231 -0.04299 -0.14592
 C1365 C -0.02060 -0.05230 -0.13624
 C1366 C -0.01147 -0.04387 -0.11388
 C1367 C -0.02378 -0.02593 -0.10065
 C1368 C -0.04338 -0.01479 -0.11203
 C1369 C -0.06791 -0.00918 -0.10260
 C1370 C -0.07781 -0.01819 -0.12667
 H1371 H -0.01129 -0.06700 -0.14514
 H1372 H 0.00437 -0.05245 -0.10637
 H1373 H -0.07056 0.01052 -0.09979
 H1374 H -0.07302 -0.02079 -0.08702
 H1375 H -0.08617 -0.00366 -0.13770
 H1376 H -0.08873 -0.03496 -0.12499
 C1377 C -0.05368 0.47567 0.36434
 C1378 C -0.04487 0.45447 0.35360
 C1379 C -0.02373 0.44454 0.36398
 C1380 C -0.01431 0.45356 0.38601
 C1381 C -0.02572 0.47278 0.39825
 C1382 C -0.04448 0.48440 0.38604
 C1383 C -0.06855 0.49251 0.39471
 C1384 C -0.07863 0.48327 0.37080
 H1385 H -0.01518 0.42889 0.35598
 H1386 H 0.00093 0.44445 0.39413
 H1387 H -0.06958 0.51247 0.39660
 H1388 H -0.07498 0.48208 0.41065
 H1389 H -0.08495 0.49816 0.35895
 H1390 H -0.09122 0.46777 0.37287
 C1391 C 0.44621 -0.02651 0.36810
 C1392 C 0.45773 -0.04490 0.35517
 C1393 C 0.48006 -0.05316 0.36424
 C1394 C 0.48880 -0.04519 0.38693
 C1395 C 0.47542 -0.02872 0.40101
 C1396 C 0.45486 -0.01865 0.39037
 C1397 C 0.43013 -0.01596 0.40047
 C1398 C 0.42062 -0.02459 0.37613
 H1399 H 0.49021 -0.06669 0.35446
 H1400 H 0.50536 -0.05281 0.39390
 H1401 H 0.42575 0.00322 0.40436
 H1402 H 0.42652 -0.02883 0.41547
 H1403 H 0.41066 -0.01034 0.36621
 H1404 H 0.41138 -0.04240 0.37703
 C1405 C 0.44421 0.47421 -0.13279
 C1406 C 0.45474 0.45439 -0.14456
 C1407 C 0.47677 0.44579 -0.13500
 C1408 C 0.48604 0.45495 -0.11301
 C1409 C 0.47352 0.47291 -0.09997
 C1410 C 0.45332 0.48314 -0.11111
 C1411 C 0.42879 0.48779 -0.10118
 C1412 C 0.41877 0.47809 -0.12493
 H1413 H 0.48636 0.43120 -0.14379
 H1414 H 0.50228 0.44702 -0.10564
 H1415 H 0.42531 0.50738 -0.09849
 H1416 H 0.42453 0.47613 -0.08536
 H1417 H 0.40957 0.49211 -0.13595
 H1418 H 0.40859 0.46090 -0.12283
 C1419 C 0.47780 0.80004 0.38300
 C1420 C 0.45524 0.79406 0.39222
 C1421 C 0.44103 0.77849 0.37757
 C1422 C 0.44945 0.77025 0.35477
 C1423 C 0.47238 0.77721 0.34591
 C1424 C 0.48596 0.79198 0.36119
 C1425 C 0.50952 0.80465 0.36370
 C1426 C 0.50017 0.81399 0.38825
 H1427 H 0.42324 0.77304 0.38339
 H1428 H 0.43772 0.75887 0.34394
 H1429 H 0.51203 0.81907 0.35003
 H1430 H 0.52476 0.79179 0.36541
 H1431 H 0.49693 0.83380 0.38855
 H1432 H 0.51016 0.80670 0.40409
 C1433 C -0.02833 0.80904 0.87945
 C1434 C -0.04824 0.79841 0.89087
 C1435 C -0.06093 0.78048 0.87769
 C1436 C -0.05247 0.77222 0.85512
 C1437 C -0.03098 0.78146 0.84514
 C1438 C -0.01994 0.80074 0.85728
 C1439 C 0.00575 0.80428 0.86442
 C1440 C -0.00339 0.81346 0.88868
 H1441 H -0.07712 0.77234 0.88494
 H1442 H -0.06251 0.75818 0.84584
 H1443 H 0.01473 0.81851 0.85350
 H1444 H 0.01576 0.78696 0.86577
 H1445 H 0.00026 0.83300 0.89162
 H1446 H 0.00140 0.80154 0.90415
 C1447 C 0.37220 0.78034 0.30721
 C1448 C 0.35932 0.79835 0.29504
 C1449 C 0.37054 0.80937 0.27496
 C1450 C 0.39272 0.80076 0.26618
 C1451 C 0.40419 0.78085 0.27721
 C1452 C 0.39401 0.77184 0.29855
 C1453 C 0.38838 0.74649 0.30575
 C1454 C 0.36447 0.75581 0.31527
 H1455 H 0.36197 0.82422 0.26560
 H1456 H 0.40051 0.80935 0.25043
 H1457 H 0.40056 0.73991 0.32031
 H1458 H 0.38645 0.73418 0.28990
 H1459 H 0.36294 0.75461 0.33532
 H1460 H 0.34864 0.74891 0.30498
 C1461 C -0.12934 0.77919 0.80669
 C1462 C -0.14229 0.79718 0.79460
 C1463 C -0.13114 0.80831 0.77453
 C1464 C -0.10887 0.79991 0.76576
 C1465 C -0.09723 0.78014 0.77683
 C1466 C -0.10745 0.77092 0.79806
 C1467 C -0.11289 0.74548 0.80509
 C1468 C -0.13691 0.75455 0.81456
 H1469 H -0.13976 0.82320 0.76527
 H1470 H -0.10106 0.80863 0.75009
 H1471 H -0.10070 0.73894 0.81967
 H1472 H -0.11465 0.73325 0.78917
 H1473 H -0.13852 0.75321 0.83459
 H1474 H -0.15264 0.74759 0.80415
 C1475 C 0.88327 0.26947 0.44872
 C1476 C 0.89533 0.28884 0.45973
 C1477 C 0.88583 0.29775 0.48171
 C1478 C 0.86335 0.28956 0.49029
 C1479 C 0.84991 0.27230 0.47705
 C1480 C 0.86114 0.26147 0.45713
 C1481 C 0.85186 0.25714 0.43207
 C1482 C 0.87612 0.26578 0.42285
 H1483 H 0.89497 0.31206 0.49151
 H1484 H 0.85591 0.29784 0.50640
 H1485 H 0.83683 0.26948 0.42727
 H1486 H 0.84843 0.23768 0.42844
 H1487 H 0.87508 0.28298 0.41252
 H1488 H 0.88674 0.25125 0.41402
 C1489 C 0.88292 0.77334 -0.05428
 C1490 C 0.89537 0.79196 -0.04238
 C1491 C 0.88654 0.79937 -0.01957
 C1492 C 0.86433 0.79056 -0.01086
 C1493 C 0.85051 0.77410 -0.02473
 C1494 C 0.86110 0.76467 -0.04569
 C1495 C 0.85099 0.76201 -0.07064
 C1496 C 0.87489 0.77138 -0.08008
 H1497 H 0.89598 0.81300 -0.00911
 H1498 H 0.85740 0.79774 0.00599
 H1499 H 0.83577 0.77457 -0.07405
 H1500 H 0.84749 0.74282 -0.07547
 H1501 H 0.87346 0.78923 -0.08917
 H1502 H 0.88522 0.75751 -0.09024
 C1503 C -0.12977 -0.02805 -0.05656
 C1504 C -0.14187 -0.04727 -0.04534
 C1505 C -0.13014 -0.05861 -0.02563
 C1506 C -0.10799 -0.04988 -0.01680
 C1507 C -0.09681 -0.02961 -0.02740
 C1508 C -0.10783 -0.01951 -0.04783
 C1509 C -0.11450 0.00617 -0.05233
 C1510 C -0.13846 -0.00308 -0.06185
 H1511 H -0.13813 -0.07405 -0.01668
 H1512 H -0.09982 -0.05886 -0.00144
 H1513 H -0.10317 0.01459 -0.06658
 H1514 H -0.11610 0.01685 -0.03531
 H1515 H -0.14084 0.00014 -0.08155
 H1516 H -0.15403 0.00223 -0.05040
 C1517 C -0.13557 0.44858 0.47772
 C1518 C -0.14711 0.45852 0.45749
 C1519 C -0.13701 0.47967 0.44745
 C1520 C -0.11449 0.48837 0.45555
 C1521 C -0.10161 0.47608 0.47385
 C1522 C -0.11343 0.45710 0.48565
 C1523 C -0.10480 0.43234 0.49185
 C1524 C -0.12907 0.42298 0.48318
 H1525 H -0.14571 0.48867 0.43239
 H1526 H -0.10657 0.50375 0.44643
 H1527 H -0.10196 0.43006 0.51166
 H1528 H -0.08956 0.42639 0.48026
 H1529 H -0.14020 0.41531 0.49801
 H1530 H -0.12787 0.41157 0.46661
 C1531 C 0.37028 -0.02840 0.44356
 C1532 C 0.35835 -0.04789 0.45450
 C1533 C 0.37039 -0.05974 0.47370
 C1534 C 0.39279 -0.05138 0.48226
 C1535 C 0.40396 -0.03103 0.47185
 C1536 C 0.39245 -0.02019 0.45208
 C1537 C 0.38560 0.00565 0.44889
 C1538 C 0.36147 -0.00324 0.43951
 H1539 H 0.36245 -0.07530 0.48250
 H1540 H 0.40110 -0.06065 0.49736
 H1541 H 0.39654 0.01481 0.43481
 H1542 H 0.38434 0.01554 0.46641
 H1543 H 0.35868 0.00078 0.42002
 H1544 H 0.34615 0.00158 0.45149
 C1545 C 0.36860 0.44489 -0.02507
 C1546 C 0.35706 0.45488 -0.04534
 C1547 C 0.36698 0.47642 -0.05490
 C1548 C 0.38907 0.48559 -0.04620
 C1549 C 0.40192 0.47339 -0.02787
 C1550 C 0.39041 0.45386 -0.01665
 C1551 C 0.39965 0.42925 -0.01091
 C1552 C 0.37576 0.41938 -0.02004
 H1553 H 0.35837 0.48567 -0.06986
 H1554 H 0.39666 0.50143 -0.05479
 H1555 H 0.40242 0.42659 0.00886
 H1556 H 0.41511 0.42413 -0.02255
 H1557 H 0.36469 0.41111 -0.00549
 H1558 H 0.37746 0.40833 -0.03680
 C1559 C 0.37846 0.44288 0.77624
 C1560 C 0.39104 0.45442 0.79499
 C1561 C 0.38238 0.47703 0.80294
 C1562 C 0.36036 0.48614 0.79417
 C1563 C 0.34651 0.47280 0.77732
 C1564 C 0.35675 0.45180 0.76768
 C1565 C 0.34625 0.42709 0.76492
 C1566 C 0.37006 0.41730 0.77424
 H1567 H 0.39199 0.48720 0.81669
 H1568 H 0.35368 0.50299 0.80149
 H1569 H 0.34267 0.42242 0.74564
 H1570 H 0.33097 0.42379 0.77748
 H1571 H 0.38023 0.40704 0.76030
 H1572 H 0.36857 0.40826 0.79216
 C1573 C 0.38077 -0.02712 0.30574
 C1574 C 0.39223 -0.04677 0.29468
 C1575 C 0.38004 -0.05844 0.27547
 C1576 C 0.35788 -0.04965 0.26687
 C1577 C 0.34703 -0.02921 0.27746
 C1578 C 0.35873 -0.01855 0.29730
 C1579 C 0.36621 0.00717 0.30050
 C1580 C 0.39017 -0.00214 0.30980
 H1581 H 0.38776 -0.07412 0.26673
 H1582 H 0.34945 -0.05876 0.25168
 H1583 H 0.35553 0.01657 0.31462
 H1584 H 0.36765 0.01698 0.28299
 H1585 H 0.39311 0.00187 0.32930
 H1586 H 0.40557 0.00237 0.29778
 C1587 C 0.12099 0.53009 0.69171
 C1588 C 0.10667 0.54607 0.70498
 C1589 C 0.11646 0.55543 0.72675
 C1590 C 0.13869 0.54706 0.73577
 C1591 C 0.15165 0.52906 0.72328
 C1592 C 0.14276 0.52179 0.70064
 C1593 C 0.13900 0.49716 0.69028
 C1594 C 0.11513 0.50630 0.68035
 H1595 H 0.10678 0.56888 0.73712
 H1596 H 0.14544 0.55437 0.75270
 H1597 H 0.13694 0.48309 0.70449
 H1598 H 0.15228 0.49291 0.67587
 H1599 H 0.09917 0.49746 0.68866
 H1600 H 0.11489 0.50740 0.66025
 C1601 C 0.11696 0.02071 0.19724
 C1602 C 0.10466 0.03982 0.20841
 C1603 C 0.11386 0.04810 0.23093
 C1604 C 0.13609 0.03961 0.23996
 C1605 C 0.14966 0.02264 0.22673
 C1606 C 0.13884 0.01243 0.20616
 C1607 C 0.14890 0.00881 0.18137
 C1608 C 0.12505 0.01785 0.17155
 H1609 H 0.10471 0.06215 0.24098
 H1610 H 0.14324 0.04745 0.25647
 H1611 H 0.15223 -0.01056 0.17731
 H1612 H 0.16420 0.02117 0.17749
 H1613 H 0.11482 0.00361 0.16177
 H1614 H 0.12657 0.03536 0.16182
 C1615 C 0.63235 0.69675 0.22644
 C1616 C 0.64455 0.70797 0.20732
 C1617 C 0.63534 0.73023 0.19899
 C1618 C 0.61302 0.73893 0.20740
 C1619 C 0.59943 0.72560 0.22437
 C1620 C 0.61043 0.70535 0.23474
 C1621 C 0.60086 0.68047 0.23878
 C1622 C 0.62486 0.67103 0.22967
 H1623 H 0.64457 0.74022 0.18495
 H1624 H 0.60582 0.75530 0.19952
 H1625 H 0.58551 0.67600 0.22658
 H1626 H 0.59780 0.67674 0.25831
 H1627 H 0.62340 0.66107 0.21220
 H1628 H 0.63554 0.66181 0.24396
 C1629 C 0.13030 0.69480 0.72649
 C1630 C 0.14313 0.70653 0.70811
 C1631 C 0.13483 0.72947 0.70075
 C1632 C 0.11292 0.73878 0.70960
 C1633 C 0.09877 0.72530 0.72596
 C1634 C 0.10864 0.70392 0.73507
 C1635 C 0.09755 0.67942 0.73676
 C1636 C 0.12118 0.66940 0.72748
 H1637 H 0.14462 0.73973 0.68728
 H1638 H 0.10645 0.75582 0.70255
 H1639 H 0.08234 0.67690 0.72383
 H1640 H 0.09365 0.67423 0.75580
 H1641 H 0.11970 0.66087 0.70927
 H1642 H 0.13068 0.65850 0.74133
 C1643 C 0.62132 0.21910 0.55733
 C1644 C 0.60840 0.20123 0.54484
 C1645 C 0.61969 0.19031 0.52474
 C1646 C 0.64201 0.19893 0.51625
 C1647 C 0.65353 0.21872 0.52763
 C1648 C 0.64326 0.22757 0.54898
 C1649 C 0.63788 0.25288 0.55653
 C1650 C 0.61378 0.24359 0.56569
 H1651 H 0.61108 0.17553 0.51517
 H1652 H 0.64989 0.19042 0.50048
 H1653 H 0.63623 0.26538 0.54086
 H1654 H 0.65002 0.25918 0.57131
 H1655 H 0.59812 0.25070 0.55536
 H1656 H 0.61208 0.24459 0.58574
 C1657 C 0.62338 0.69127 0.03001
 C1658 C 0.60898 0.70497 0.04560
 C1659 C 0.61889 0.72670 0.05474
 C1660 C 0.64123 0.73533 0.04637
 C1661 C 0.65427 0.72246 0.02865
 C1662 C 0.64534 0.69981 0.02173
 C1663 C 0.64168 0.68908 -0.00283
 C1664 C 0.61767 0.67954 0.00630
 H1665 H 0.60911 0.73746 0.06781
 H1666 H 0.64794 0.75236 0.05334
 H1667 H 0.65487 0.67454 -0.00675
 H1668 H 0.63983 0.70300 -0.01721
 H1669 H 0.61729 0.65954 0.00780
 H1670 H 0.60185 0.68775 -0.00289
 C1671 C 0.13142 0.02475 0.05535
 C1672 C 0.14385 0.04362 0.04391
 C1673 C 0.13486 0.05151 0.02123
 C1674 C 0.11292 0.04249 0.01196
 C1675 C 0.09937 0.02545 0.02517
 C1676 C 0.10978 0.01599 0.04621
 C1677 C 0.09907 0.01350 0.07083
 C1678 C 0.12265 0.02303 0.08091
 H1679 H 0.14411 0.06542 0.01107
 H1680 H 0.10600 0.04982 -0.00484
 H1681 H 0.09552 -0.00567 0.07563
 H1682 H 0.08375 0.02604 0.07369
 H1683 H 0.13255 0.00928 0.09157
 H1684 H 0.12093 0.04096 0.08985
 C1685 C 0.12529 0.53052 0.55854
 C1686 C 0.13915 0.54707 0.54542
 C1687 C 0.12870 0.55697 0.52428
 C1688 C 0.10639 0.54848 0.51552
 C1689 C 0.09399 0.52979 0.52761
 C1690 C 0.10339 0.52209 0.54984
 C1691 C 0.10765 0.49727 0.55936
 C1692 C 0.13161 0.50655 0.56906
 H1693 H 0.13800 0.57083 0.51410
 H1694 H 0.09923 0.55614 0.49896
 H1695 H 0.10958 0.48362 0.54468
 H1696 H 0.09472 0.49242 0.57389
 H1697 H 0.14749 0.49817 0.56020
 H1698 H 0.13222 0.50716 0.58918
 C1699 C 0.63380 0.02225 0.55330
 C1700 C 0.64460 0.04298 0.54352
 C1701 C 0.63408 0.05261 0.52223
 C1702 C 0.61209 0.04354 0.51321
 C1703 C 0.59992 0.02471 0.52529
 C1704 C 0.61203 0.01347 0.54450
 C1705 C 0.60338 0.00689 0.56923
 C1706 C 0.62721 0.01648 0.57890
 H1707 H 0.64210 0.06795 0.51313
 H1708 H 0.60400 0.05229 0.49767
 H1709 H 0.58762 0.01778 0.57506
 H1710 H 0.60132 -0.01295 0.57145
 H1711 H 0.63885 0.00214 0.58670
 H1712 H 0.62523 0.03290 0.59036
 C1713 C 0.63238 0.55386 0.02121
 C1714 C 0.64475 0.54221 0.03998
 C1715 C 0.63588 0.51949 0.04746
 C1716 C 0.61362 0.51070 0.03872
 C1717 C 0.59982 0.52439 0.02222
 C1718 C 0.61055 0.54516 0.01254
 C1719 C 0.60064 0.56999 0.00934
 C1720 C 0.62454 0.57954 0.01885
 H1721 H 0.64526 0.50918 0.06119
 H1722 H 0.60662 0.49398 0.04603
 H1723 H 0.58528 0.57374 0.02164
 H1724 H 0.59745 0.57436 -0.01005
 H1725 H 0.62299 0.58888 0.03664
 H1726 H 0.63506 0.58945 0.00492
 C1727 C 0.05806 0.02390 0.13105
 C1728 C 0.04921 0.04519 0.14157
 C1729 C 0.03260 0.05882 0.12776
 C1730 C 0.02406 0.05035 0.10528
 C1731 C 0.03162 0.02789 0.09599
 C1732 C 0.04942 0.01549 0.10889
 C1733 C 0.04971 -0.01018 0.11695
 C1734 C 0.05903 -0.00110 0.14121
 H1735 H 0.02583 0.07593 0.13434
 H1736 H 0.01120 0.06127 0.09542
 H1737 H 0.06314 -0.02107 0.10682
 H1738 H 0.03138 -0.01823 0.11792
 H1739 H 0.07771 -0.00705 0.14503
 H1740 H 0.04611 -0.00386 0.15633
 C1741 C 0.05521 0.52627 0.62918
 C1742 C 0.04550 0.54690 0.64013
 C1743 C 0.02814 0.56000 0.62686
 C1744 C 0.01943 0.55133 0.60449
 C1745 C 0.02778 0.52929 0.59480
 C1746 C 0.04657 0.51771 0.60708
 C1747 C 0.04843 0.49201 0.61491
 C1748 C 0.05788 0.50133 0.63905
 H1749 H 0.02088 0.57672 0.63391
 H1750 H 0.00585 0.56173 0.59505
 H1751 H 0.06214 0.48191 0.60436
 H1752 H 0.03058 0.48299 0.61627
 H1753 H 0.07699 0.49648 0.64228
 H1754 H 0.04556 0.49769 0.65447
 C1755 C 0.52289 0.05102 0.63349
 C1756 C 0.54227 0.04037 0.64582
 C1757 C 0.55146 0.01857 0.63611
 C1758 C 0.54335 0.00972 0.61354
 C1759 C 0.52590 0.02244 0.60006
 C1760 C 0.51501 0.04232 0.61122
 C1761 C 0.51060 0.06707 0.60154
 C1762 C 0.51923 0.07667 0.62584
 H1763 H 0.56576 0.00891 0.64525
 H1764 H 0.55174 -0.00628 0.60610
 H1765 H 0.49117 0.07046 0.59812
 H1766 H 0.52277 0.07179 0.58628
 H1767 H 0.50471 0.08565 0.63625
 H1768 H 0.53637 0.08702 0.62469
 C1769 C 0.51937 0.54964 0.13378
 C1770 C 0.53845 0.53858 0.14609
 C1771 C 0.54757 0.51689 0.13625
 C1772 C 0.53999 0.50874 0.11322
 C1773 C 0.52314 0.52213 0.09960
 C1774 C 0.51195 0.54162 0.11115
 C1775 C 0.50763 0.56671 0.10230
 C1776 C 0.51565 0.57552 0.12712
 H1777 H 0.56169 0.50707 0.14552
 H1778 H 0.54845 0.49288 0.10553
 H1779 H 0.48828 0.57016 0.09851
 H1780 H 0.52021 0.57193 0.08757
 H1781 H 0.50087 0.58394 0.13769
 H1782 H 0.53273 0.58604 0.12669
 C1783 C 0.19309 0.52545 0.61859
 C1784 C 0.20326 0.54565 0.60727
 C1785 C 0.22178 0.55803 0.61974
 C1786 C 0.23082 0.54926 0.64185
 C1787 C 0.22164 0.52782 0.65209
 C1788 C 0.20205 0.51679 0.64046
 C1789 C 0.19908 0.49111 0.63280
 C1790 C 0.18934 0.50052 0.60890
 H1791 H 0.22952 0.57440 0.61237
 H1792 H 0.24509 0.55926 0.65079
 H1793 H 0.18531 0.48153 0.64378
 H1794 H 0.21657 0.48153 0.63101
 H1795 H 0.17001 0.49619 0.60620
 H1796 H 0.20112 0.49642 0.59316
 C1797 C 0.19183 0.02589 0.11946
 C1798 C 0.20162 0.04668 0.10873
 C1799 C 0.21994 0.05894 0.12170
 C1800 C 0.22901 0.04965 0.14358
 C1801 C 0.22024 0.02770 0.15309
 C1802 C 0.20090 0.01671 0.14108
 C1803 C 0.19844 -0.00879 0.13273
 C1804 C 0.18865 0.00112 0.10906
 H1805 H 0.22759 0.07561 0.11491
 H1806 H 0.24309 0.05962 0.15287
 H1807 H 0.18478 -0.01890 0.14337
 H1808 H 0.21610 -0.01801 0.13077
 H1809 H 0.16946 -0.00359 0.10609
 H1810 H 0.20062 -0.00230 0.09331
 C1811 C 0.72582 0.19669 0.63338
 C1812 C 0.70564 0.20688 0.64454
 C1813 C 0.69591 0.22794 0.63399
 C1814 C 0.70439 0.23641 0.61148
 C1815 C 0.72278 0.22399 0.59901
 C1816 C 0.73413 0.20500 0.61122
 C1817 C 0.74004 0.18011 0.60271
 C1818 C 0.73100 0.17099 0.62700
 H1819 H 0.68092 0.23715 0.64242
 H1820 H 0.69562 0.25184 0.60331
 H1821 H 0.75971 0.17753 0.60018
 H1822 H 0.72858 0.17432 0.58721
 H1823 H 0.74550 0.16322 0.63850
 H1824 H 0.71443 0.15977 0.62551
 C1825 C 0.69622 0.72742 0.13267
 C1826 C 0.70717 0.70789 0.14441
 C1827 C 0.72905 0.69932 0.13474
 C1828 C 0.73777 0.70818 0.11249
 C1829 C 0.72479 0.72577 0.09936
 C1830 C 0.70476 0.73607 0.11071
 C1831 C 0.67995 0.74023 0.10116
 C1832 C 0.67059 0.73086 0.12523
 H1833 H 0.73878 0.68491 0.14365
 H1834 H 0.75392 0.70024 0.10500
 H1835 H 0.67550 0.72821 0.08561
 H1836 H 0.67617 0.75971 0.09823
 H1837 H 0.66056 0.71352 0.12358
 H1838 H 0.66150 0.74499 0.13622
 C1839 C 0.52140 0.70006 0.11359
 C1840 C 0.54077 0.71100 0.10166
 C1841 C 0.54965 0.73291 0.11140
 C1842 C 0.54152 0.74142 0.13405
 C1843 C 0.52435 0.72818 0.14740
 C1844 C 0.51343 0.70843 0.13585
 C1845 C 0.50883 0.68347 0.14498
 C1846 C 0.51749 0.67429 0.12057
 H1847 H 0.56399 0.74263 0.10240
 H1848 H 0.54981 0.75743 0.14172
 H1849 H 0.48938 0.68002 0.14817
 H1850 H 0.52097 0.67849 0.16023
 H1851 H 0.50298 0.66562 0.10968
 H1852 H 0.53454 0.66386 0.12172
 C1853 C 0.02688 0.69429 0.61849
 C1854 C 0.04547 0.70579 0.60590
 C1855 C 0.05692 0.72557 0.61736
 C1856 C 0.04850 0.73451 0.63967
 C1857 C 0.02837 0.72394 0.65108
 C1858 C 0.01856 0.70312 0.64046
 C1859 C -0.00697 0.69728 0.63429
 C1860 C 0.00215 0.68756 0.61024
 H1861 H 0.07220 0.73438 0.60900
 H1862 H 0.05761 0.74984 0.64779
 H1863 H -0.01834 0.71368 0.63241
 H1864 H -0.01449 0.68300 0.64623
 H1865 H -0.00393 0.69829 0.59435
 H1866 H -0.00009 0.66769 0.60837
 C1867 C 0.55371 0.61878 0.22245
 C1868 C 0.54212 0.60626 0.20368
 C1869 C 0.52304 0.61809 0.19165
 C1870 C 0.51480 0.64076 0.19970
 C1871 C 0.52543 0.65220 0.21998
 C1872 C 0.54554 0.64108 0.23042
 C1873 C 0.55044 0.63506 0.25632
 C1874 C 0.55953 0.61070 0.24758
 H1875 H 0.51418 0.60973 0.17627
 H1876 H 0.49991 0.64912 0.19021
 H1877 H 0.53372 0.63381 0.26729
 H1878 H 0.56485 0.64657 0.26428
 H1879 H 0.54817 0.59527 0.25356
 H1880 H 0.57921 0.60829 0.25034
 C1881 C 0.02618 0.62069 0.69246
 C1882 C 0.04343 0.60743 0.70529
 C1883 C 0.05328 0.61809 0.72638
 C1884 C 0.04457 0.64032 0.73510
 C1885 C 0.02584 0.65253 0.72293
 C1886 C 0.01765 0.64263 0.70103
 C1887 C -0.00742 0.63725 0.69281
 C1888 C 0.00194 0.61323 0.68340
 H1889 H 0.06752 0.60919 0.73635
 H1890 H 0.05243 0.64779 0.75146
 H1891 H -0.01338 0.64960 0.67814
 H1892 H -0.02022 0.63535 0.70816
 H1893 H 0.00138 0.61181 0.66331
 H1894 H -0.00543 0.59736 0.69326
 C1895 C 0.05727 0.12907 0.02621
 C1896 C 0.04611 0.14118 0.04550
 C1897 C 0.02375 0.13185 0.05349
 C1898 C 0.01467 0.10986 0.04428
 C1899 C 0.02767 0.09655 0.02687
 C1900 C 0.04834 0.10738 0.01722
 C1901 C 0.07295 0.09725 0.01361
 C1902 C 0.08278 0.12098 0.02339
 H1903 H 0.01369 0.14088 0.06762
 H1904 H -0.00191 0.10275 0.05173
 H1905 H 0.07711 0.09429 -0.00587
 H1906 H 0.07670 0.08160 0.02564
 H1907 H 0.09258 0.13170 0.00954
 H1908 H 0.09230 0.11906 0.04105
 C1909 C 0.05486 0.62985 0.52442
 C1910 C 0.04511 0.64121 0.54483
 C1911 C 0.02723 0.62860 0.55785
 C1912 C 0.01819 0.60638 0.54934
 C1913 C 0.02676 0.59623 0.52754
 C1914 C 0.04592 0.60792 0.51603
 C1915 C 0.04829 0.61526 0.49015
 C1916 C 0.05798 0.63929 0.49928
 H1917 H 0.01991 0.63600 0.57444
 H1918 H 0.00429 0.59737 0.55968
 H1919 H 0.03060 0.61677 0.48079
 H1920 H 0.06198 0.60433 0.48043
 H1921 H 0.04595 0.65480 0.49525
 H1922 H 0.07719 0.64213 0.49461
 C1923 C 0.55159 0.13184 0.52131
 C1924 C 0.54084 0.14379 0.54086
 C1925 C 0.51913 0.13403 0.54991
 C1926 C 0.51057 0.11144 0.54166
 C1927 C 0.52353 0.09818 0.52416
 C1928 C 0.54317 0.10966 0.51321
 C1929 C 0.56801 0.10057 0.50843
 C1930 C 0.57724 0.12488 0.51727
 H1931 H 0.50957 0.14302 0.56441
 H1932 H 0.49473 0.10377 0.55009
 H1933 H 0.57126 0.09744 0.48881
 H1934 H 0.57312 0.08533 0.52049
 H1935 H 0.58579 0.13576 0.50272
 H1936 H 0.58775 0.12372 0.53442
 C1937 C 0.55570 0.63094 0.02505
 C1938 C 0.54505 0.64305 0.04455
 C1939 C 0.52605 0.63123 0.05672
 C1940 C 0.51708 0.60893 0.04834
 C1941 C 0.52689 0.59779 0.02761
 C1942 C 0.54679 0.60893 0.01678
 C1943 C 0.55040 0.61566 -0.00912
 C1944 C 0.56020 0.63967 -0.00012
 H1945 H 0.51783 0.63932 0.07253
 H1946 H 0.50226 0.60063 0.05795
 H1947 H 0.53315 0.61732 -0.01926
 H1948 H 0.56424 0.60428 -0.01806
 H1949 H 0.54873 0.65535 -0.00510
 H1950 H 0.57967 0.64197 -0.00392
 C1951 C 0.72175 0.11934 0.55803
 C1952 C 0.70132 0.10827 0.54789
 C1953 C 0.68884 0.12119 0.52968
 C1954 C 0.69776 0.14331 0.52093
 C1955 C 0.71953 0.15306 0.52991
 C1956 C 0.73059 0.14110 0.54924
 C1957 C 0.75614 0.13339 0.55203
 C1958 C 0.74657 0.10954 0.56158
 H1959 H 0.67236 0.11413 0.52184
 H1960 H 0.68778 0.15252 0.50683
 H1961 H 0.76582 0.14419 0.56601
 H1962 H 0.76559 0.13170 0.53437
 H1963 H 0.75096 0.10663 0.58098
 H1964 H 0.75046 0.09395 0.54948
 C1965 C 0.71695 0.62470 0.06140
 C1966 C 0.70092 0.61061 0.04767
 C1967 C 0.69168 0.62105 0.02623
 C1968 C 0.70057 0.64331 0.01766
 C1969 C 0.71898 0.65572 0.03029
 C1970 C 0.72574 0.64654 0.05288
 C1971 C 0.75000 0.64261 0.06372
 C1972 C 0.74034 0.61877 0.07333
 H1973 H 0.67828 0.61163 0.01547
 H1974 H 0.69361 0.65027 0.00072
 H1975 H 0.75413 0.65594 0.07826
 H1976 H 0.76427 0.64039 0.04980
 H1977 H 0.73873 0.61885 0.09337
 H1978 H 0.74921 0.60265 0.06533
 C1979 C 0.19804 0.63401 0.72975
 C1980 C 0.20717 0.64482 0.70875
 C1981 C 0.22824 0.63464 0.69873
 C1982 C 0.23743 0.61257 0.70748
 C1983 C 0.22572 0.60013 0.72640
 C1984 C 0.20696 0.61220 0.73819
 C1985 C 0.18261 0.60351 0.74554
 C1986 C 0.17287 0.62750 0.73656
 H1987 H 0.23680 0.64284 0.68317
 H1988 H 0.25265 0.60455 0.69829
 H1989 H 0.18108 0.60125 0.76549
 H1990 H 0.17633 0.58783 0.73458
 H1991 H 0.16614 0.63907 0.75153
 H1992 H 0.16069 0.62573 0.72063
 C1993 C 0.22489 0.13046 0.19521
 C1994 C 0.20440 0.14149 0.20491
 C1995 C 0.19164 0.12878 0.22295
 C1996 C 0.20034 0.10678 0.23211
 C1997 C 0.22208 0.09688 0.22351
 C1998 C 0.23345 0.10867 0.20424
 C1999 C 0.25906 0.11652 0.20203
 C2000 C 0.24974 0.14036 0.19226
 H2001 H 0.17506 0.13593 0.23030
 H2002 H 0.19008 0.09767 0.24603
 H2003 H 0.26896 0.10574 0.18829
 H2004 H 0.26823 0.11823 0.21990
 H2005 H 0.25446 0.14329 0.17296
 H2006 H 0.25342 0.15595 0.20446
 C2007 C 0.69676 1.13289 0.72780
 C2008 C 0.70758 1.14486 0.70831
 C2009 C 0.72956 1.13547 0.69963
 C2010 C 0.73844 1.11322 0.70824
 C2011 C 0.72554 1.09991 0.72574
 C2012 C 0.70549 1.11103 0.73625
 C2013 C 0.68077 1.10133 0.74055
 C2014 C 0.67119 1.12531 0.73137
 H2015 H 0.73917 1.14450 0.68519
 H2016 H 0.75456 1.10584 0.70013
 H2017 H 0.67716 1.09826 0.76011
 H2018 H 0.67631 1.08588 0.72842
 H2019 H 0.66214 1.13610 0.74569
 H2020 H 0.66104 1.12370 0.71403
 C2021 C 0.72181 0.62909 0.19201
 C2022 C 0.70251 0.64099 0.20308
 C2023 C 0.69070 0.62885 0.22214
 C2024 C 0.69951 0.60672 0.23103
 C2025 C 0.72042 0.59614 0.22115
 C2026 C 0.73051 0.60728 0.20079
 C2027 C 0.75600 0.61420 0.19585
 C2028 C 0.74648 0.63803 0.18614
 H2029 H 0.67497 0.63663 0.23062
 H2030 H 0.69007 0.59814 0.24586
 H2031 H 0.76426 0.60270 0.18162
 H2032 H 0.76686 0.61621 0.21271
 H2033 H 0.74916 0.64015 0.16630
 H2034 H 0.75186 0.65391 0.19731
 C2035 C 0.52253 0.11627 0.69516
 C2036 C 0.54312 0.10558 0.70516
 C2037 C 0.55585 0.11878 0.72298
 C2038 C 0.54707 0.14092 0.73165
 C2039 C 0.52527 0.15054 0.72278
 C2040 C 0.51389 0.13826 0.70371
 C2041 C 0.48831 0.13023 0.70170
 C2042 C 0.49770 0.10618 0.69249
 H2043 H 0.57250 0.11192 0.73051
 H2044 H 0.55735 0.15040 0.74542
 H2045 H 0.47829 0.14059 0.68770
 H2046 H 0.47926 0.12896 0.71960
 H2047 H 0.49283 0.10271 0.67328
 H2048 H 0.49417 0.09091 0.70506
 C2049 C 1.02943 0.11856 0.19205
 C2050 C 1.04698 0.10572 0.20494
 C2051 C 1.05666 0.11675 0.22589
 C2052 C 1.04739 0.13882 0.23449
 C2053 C 1.02814 0.15039 0.22242
 C2054 C 1.02031 0.14028 0.20051
 C2055 C 0.99546 0.13439 0.19201
 C2056 C 1.00544 0.11058 0.18271
 H2057 H 1.07109 0.10820 0.23589
 H2058 H 1.05512 0.14660 0.25078
 H2059 H 0.98943 0.14664 0.17726
 H2060 H 0.98253 0.13222 0.20721
 H2061 H 1.00513 0.10915 0.16262
 H2062 H 0.99831 0.09455 0.19249
 C2063 C 0.22114 0.62085 0.55700
 C2064 C 0.20285 0.60838 0.54469
 C2065 C 0.19206 0.62000 0.52469
 C2066 C 0.20104 0.64221 0.51619
 C2067 C 0.22104 0.65338 0.52746
 C2068 C 0.22995 0.64275 0.54865
 C2069 C 0.25517 0.63666 0.55566
 C2070 C 0.24552 0.61263 0.56481
 H2071 H 0.17699 0.61178 0.51527
 H2072 H 0.19251 0.65037 0.50055
 H2073 H 0.26203 0.64855 0.57041
 H2074 H 0.26727 0.63485 0.53974
 H2075 H 0.24688 0.61070 0.58481
 H2076 H 0.25201 0.59684 0.55420
 C2077 C 0.19422 0.11843 1.02525
 C2078 C 0.20549 0.10608 1.04425
 C2079 C 0.22772 0.11526 1.05273
 C2080 C 0.23665 0.13753 1.04424
 C2081 C 0.22351 0.15114 1.02715
 C2082 C 0.20297 0.14040 1.01698
 C2083 C 0.17823 0.15039 1.01363
 C2084 C 0.16864 0.12631 1.02263
 H2085 H 0.23765 0.10590 1.06675
 H2086 H 0.25316 0.14460 1.05200
 H2087 H 0.17397 0.15386 0.99426
 H2088 H 0.17439 0.16567 1.02615
 H2089 H 0.15891 0.11588 1.00842
 H2090 H 0.15917 0.12764 1.04032
 C2091 C 0.18892 0.71979 0.62776
 C2092 C 0.20043 0.70103 0.64021
 C2093 C 0.21982 0.68956 0.62839
 C2094 C 0.22878 0.69849 0.60627
 C2095 C 0.21863 0.71918 0.59539
 C2096 C 0.19773 0.72857 0.60595
 C2097 C 0.19128 0.75397 0.61221
 C2098 C 0.18165 0.74436 0.63612
 H2099 H 0.22866 0.67417 0.63655
 H2100 H 0.24406 0.68953 0.59812
 H2101 H 0.17696 0.76118 0.60014
 H2102 H 0.20736 0.76580 0.61436
 H2103 H 0.16179 0.74608 0.63780
 H2104 H 0.19213 0.75060 0.65216
 C2105 C 0.22542 0.19440 1.13273
 C2106 C 0.20663 0.20595 1.14511
 C2107 C 0.19854 0.22825 1.13563
 C2108 C 0.20725 0.23697 1.11331
 C2109 C 0.22406 0.22352 1.09976
 C2110 C 0.23379 0.20292 1.11064
 C2111 C 0.23668 0.17809 1.10053
 C2112 C 0.22752 0.16868 1.12462
 H2113 H 0.18475 0.23855 1.14483
 H2114 H 0.19984 0.25356 1.10614
 H2115 H 0.25586 0.17357 1.09710
 H2116 H 0.22422 0.17436 1.08514
 H2117 H 0.24146 0.15867 1.13494
 H2118 H 0.20978 0.15942 1.12320
 C2119 C 0.72747 0.55036 0.11501
 C2120 C 0.70695 0.54101 0.10352
 C2121 C 0.69714 0.51947 0.11312
 C2122 C 0.70543 0.51012 0.13538
 C2123 C 0.72379 0.52206 0.14849
 C2124 C 0.73555 0.54119 0.13692
 C2125 C 0.74263 0.56553 0.14616
 C2126 C 0.73408 0.57557 0.12205
 H2127 H 0.68197 0.51071 0.10439
 H2128 H 0.69635 0.49458 0.14300
 H2129 H 0.76240 0.56718 0.14888
 H2130 H 0.73144 0.57146 0.16174
 H2131 H 0.74918 0.58254 0.11091
 H2132 H 0.71823 0.58769 0.12368
 C2133 C 0.72429 1.05548 0.61926
 C2134 C 0.70671 1.04289 0.60606
 C2135 C 0.70043 1.01953 0.61418
 C2136 C 0.70951 1.01059 0.63632
 C2137 C 0.72511 1.02479 0.65074
 C2138 C 0.73324 1.04666 0.64100
 C2139 C 0.73397 1.07120 0.65228
 C2140 C 0.72412 1.08088 0.62854
 H2141 H 0.68757 1.00868 0.60414
 H2142 H 0.70327 0.99320 0.64271
 H2143 H 0.75268 1.07727 0.65616
 H2144 H 0.72121 1.07310 0.66767
 H2145 H 0.73717 1.09262 0.61891
 H2146 H 0.70564 1.08839 0.63012
 C2147 C 0.52664 0.19208 0.61921
 C2148 C 0.54564 0.20336 0.60704
 C2149 C 0.55722 0.22285 0.61886
 C2150 C 0.54840 0.23189 0.64097
 C2151 C 0.52776 0.22169 0.65180
 C2152 C 0.51800 0.20095 0.64101
 C2153 C 0.49255 0.19511 0.63447
 C2154 C 0.50203 0.18539 0.61054
 H2155 H 0.57277 0.23149 0.61085
 H2156 H 0.55758 0.24705 0.64934
 H2157 H 0.48122 0.21152 0.63242
 H2158 H 0.48488 0.18083 0.64632
 H2159 H 0.49622 0.19614 0.59457
 H2160 H 0.49979 0.16552 0.60863
 C2161 C 1.05400 0.22513 0.11622
 C2162 C 1.04438 0.20428 0.10533
 C2163 C 1.02262 0.19528 0.11514
 C2164 C 1.01322 0.20477 0.13686
 C2165 C 1.02528 0.22352 0.14937
 C2166 C 1.04476 0.23440 0.13763
 C2167 C 1.06904 0.24127 0.14696
 C2168 C 1.07921 0.23134 0.12346
 H2169 H 1.01352 0.17997 0.10695
 H2170 H 0.99743 0.19629 0.14460
 H2171 H 1.07440 0.23062 0.16315
 H2172 H 1.07117 0.26116 0.14878
 H2173 H 1.09071 0.21513 0.12608
 H2174 H 1.08690 0.24567 0.11172
 C2175 C 0.62750 0.22052 0.69264
 C2176 C 0.64022 0.20222 0.70451
 C2177 C 0.62902 0.19123 0.72464
 C2178 C 0.60702 0.20006 0.73368
 C2179 C 0.59568 0.22016 0.72288
 C2180 C 0.60585 0.22919 0.70153
 C2181 C 0.61167 0.25453 0.69443
 C2182 C 0.63542 0.24502 0.68467
 H2183 H 0.63748 0.17619 0.73381
 H2184 H 0.59916 0.19137 0.74936
 H2185 H 0.61383 0.26672 0.71033
 H2186 H 0.59944 0.26128 0.67999
 H2187 H 0.65139 0.25169 0.69490
 H2188 H 0.63683 0.24633 0.66462
 C2189 C 1.13044 0.22338 0.19374
 C2190 C 1.14243 0.20418 0.20494
 C2191 C 1.13048 0.19235 0.22413
 C2192 C 1.10831 0.20092 0.23286
 C2193 C 1.09749 0.22160 0.22272
 C2194 C 1.10859 0.23187 0.20243
 C2195 C 1.11529 0.25753 0.19761
 C2196 C 1.13916 0.24823 0.18802
 H2197 H 1.13835 0.17665 0.23268
 H2198 H 1.09982 0.19140 0.24770
 H2199 H 1.11711 0.26837 0.21452
 H2200 H 1.10382 0.26578 0.18334
 H2201 H 1.15489 0.25371 0.19929
 H2202 H 1.14135 0.25102 0.16820
 C2203 C 0.12230 0.69034 0.52765
 C2204 C 0.10866 0.70338 0.54447
 C2205 C 0.11931 0.72423 0.55471
 C2206 C 0.14166 0.73278 0.54642
 C2207 C 0.15395 0.72079 0.52757
 C2208 C 0.14430 0.69886 0.51938
 C2209 C 0.13974 0.69002 0.49424
 C2210 C 0.11569 0.68053 0.50331
 H2211 H 0.11021 0.73434 0.56876
 H2212 H 0.14898 0.74910 0.55444
 H2213 H 0.15242 0.67544 0.48895
 H2214 H 0.13797 0.70498 0.48094
 H2215 H 0.11478 0.66048 0.50336
 H2216 H 0.09989 0.68980 0.49516
 C2217 C 0.12249 0.21965 1.05909
 C2218 C 0.10920 0.20222 1.04636
 C2219 C 0.11703 0.19606 1.02282
 C2220 C 0.13872 0.20550 1.01353
 C2221 C 0.15305 0.22126 1.02761
 C2222 C 0.14389 0.22884 1.04995
 C2223 C 0.15583 0.22866 1.07421
 C2224 C 0.13252 0.21857 1.08425
 H2225 H 0.10687 0.18335 1.01188
 H2226 H 0.14473 0.19960 0.99584
 H2227 H 0.15994 0.24721 1.08079
 H2228 H 0.17109 0.21572 1.07521
 H2229 H 0.12354 0.23138 1.09673
 H2230 H 0.13420 0.19979 1.09115
 C2231 C 0.61660 0.52471 0.19345
 C2232 C 0.60480 0.54387 0.20495
 C2233 C 0.61718 0.55585 0.22384
 C2234 C 0.63957 0.54730 0.23215
 C2235 C 0.65016 0.52656 0.22178
 C2236 C 0.63870 0.51634 0.20159
 C2237 C 0.63215 0.49066 0.19654
 C2238 C 0.60792 0.49983 0.18763
 H2239 H 0.60942 0.57152 0.23257
 H2240 H 0.64837 0.55679 0.24691
 H2241 H 0.63092 0.47962 0.21331
 H2242 H 0.64333 0.48274 0.18188
 H2243 H 0.59259 0.49412 0.19921
 H2244 H 0.60517 0.49716 0.16784
 C2245 C 0.61970 1.02668 0.69348
 C2246 C 0.60646 1.04431 0.70578
 C2247 C 0.61740 1.05535 0.72613
 C2248 C 0.63980 1.04727 0.73488
 C2249 C 0.65193 1.02802 0.72344
 C2250 C 0.64182 1.01880 0.70205
 C2251 C 0.63681 0.99329 0.69479
 C2252 C 0.61256 1.00194 0.68540
 H2253 H 0.60848 1.06990 0.73566
 H2254 H 0.64739 1.05589 0.75081
 H2255 H 0.63538 0.98095 0.71060
 H2256 H 0.64903 0.98705 0.68014
 H2257 H 0.59702 0.99463 0.69575
 H2258 H 0.61084 1.00067 0.66535
 C2259 C 0.87813 0.47247 0.30512
 C2260 C 0.89046 0.45374 0.29351
 C2261 C 0.88135 0.44579 0.27090
 C2262 C 0.85924 0.45453 0.26191
 C2263 C 0.84572 0.47142 0.27533
 C2264 C 0.85637 0.48104 0.29623
 C2265 C 0.84607 0.48405 0.32092
 C2266 C 0.86969 0.47448 0.33074
 H2267 H 0.89071 0.43205 0.26063
 H2268 H 0.85224 0.44714 0.24512
 H2269 H 0.83049 0.47189 0.32437
 H2270 H 0.84315 0.50341 0.32524
 H2271 H 0.86799 0.45665 0.33984
 H2272 H 0.87968 0.48842 0.34110
 C2273 C 0.88154 0.94719 0.77428
 C2274 C 0.89344 0.95784 0.79399
 C2275 C 0.88368 0.97945 0.80338
 C2276 C 0.86127 0.98812 0.79506
 C2277 C 0.84809 0.97532 0.77726
 C2278 C 0.85949 0.95568 0.76617
 C2279 C 0.85036 0.93080 0.76115
 C2280 C 0.87452 0.92147 0.77000
 H2281 H 0.89269 0.98903 0.81794
 H2282 H 0.85377 1.00408 0.80350
 H2283 H 0.84728 0.92765 0.74149
 H2284 H 0.83515 0.92573 0.77316
 H2285 H 0.88537 0.91296 0.75541
 H2286 H 0.87327 0.91088 0.78705
 C2287 C 0.36592 0.27256 0.80187
 C2288 C 0.35539 0.29352 0.79249
 C2289 C 0.36563 0.30328 0.77123
 C2290 C 0.38749 0.29419 0.76202
 C2291 C 0.39958 0.27515 0.77388
 C2292 C 0.38746 0.26372 0.79288
 C2293 C 0.39623 0.25681 0.81746
 C2294 C 0.37252 0.26616 0.82729
 H2295 H 0.35763 0.31882 0.76251
 H2296 H 0.39557 0.30310 0.74659
 H2297 H 0.41193 0.26786 0.82326
 H2298 H 0.39837 0.23696 0.81944
 H2299 H 0.37461 0.28226 0.83921
 H2300 H 0.36086 0.25153 0.83449
 C2301 C 0.87130 0.27822 0.30750
 C2302 C 0.85860 0.29627 0.29518
 C2303 C 0.86986 0.30689 0.27492
 C2304 C 0.89186 0.29787 0.26615
 C2305 C 0.90315 0.27795 0.27738
 C2306 C 0.89297 0.26934 0.29888
 C2307 C 0.88707 0.24414 0.30640
 C2308 C 0.86331 0.25387 0.31589
 H2309 H 0.86144 0.32176 0.26544
 H2310 H 0.89971 0.30620 0.25028
 H2311 H 0.89922 0.23760 0.32101
 H2312 H 0.88494 0.23168 0.29071
 H2313 H 0.86184 0.25294 0.33596
 H2314 H 0.84736 0.24704 0.30574
 C2315 C 0.37949 0.77873 0.44265
 C2316 C 0.39286 0.79631 0.45507
 C2317 C 0.38228 0.80670 0.47586
 C2318 C 0.36018 0.79798 0.48487
 C2319 C 0.34815 0.77858 0.47337
 C2320 C 0.35778 0.77016 0.45151
 C2321 C 0.36287 0.74500 0.44328
 C2322 C 0.38670 0.75440 0.43355
 H2323 H 0.39126 0.82119 0.48552
 H2324 H 0.35279 0.80619 0.50104
 H2325 H 0.35027 0.73902 0.42876
 H2326 H 0.36497 0.73218 0.45863
 H2327 H 0.38779 0.75382 0.41345
 H2328 H 0.40265 0.74705 0.44325
 C2329 C 0.38185 0.30455 0.97777
 C2330 C 0.39475 0.29203 0.95997
 C2331 C 0.38634 0.26884 0.95334
 C2332 C 0.36417 0.26010 0.96211
 C2333 C 0.34998 0.27435 0.97774
 C2334 C 0.36003 0.29592 0.98641
 C2335 C 0.34934 0.32062 0.98746
 C2336 C 0.37318 0.33010 0.97798
 H2337 H 0.39611 0.25805 0.94029
 H2338 H 0.35755 0.24288 0.95552
 H2339 H 0.34550 0.32640 1.00636
 H2340 H 0.33417 0.32299 0.97447
 H2341 H 0.38295 0.34140 0.99145
 H2342 H 0.37185 0.33800 0.95951
 C2343 C 0.79726 0.47492 0.38301
 C2344 C 0.79283 0.45187 0.39197
 C2345 C 0.77840 0.43668 0.37713
 C2346 C 0.76950 0.44483 0.35443
 C2347 C 0.77460 0.46847 0.34603
 C2348 C 0.78844 0.48285 0.36145
 C2349 C 0.79836 0.50765 0.36478
 C2350 C 0.80859 0.49857 0.38910
 H2351 H 0.77429 0.41841 0.38277
 H2352 H 0.75903 0.43247 0.34338
 H2353 H 0.78391 0.52134 0.36692
 H2354 H 0.81234 0.51226 0.35129
 H2355 H 0.80018 0.50720 0.40517
 H2356 H 0.82857 0.49752 0.38948
 C2357 C 0.80680 0.97329 0.88091
 C2358 C 0.79415 0.95606 0.89441
 C2359 C 0.77092 0.94954 0.88617
 C2360 C 0.76205 0.95814 0.86381
 C2361 C 0.77620 0.97352 0.84924
 C2362 C 0.79803 0.98179 0.85895
 C2363 C 0.82247 0.98208 0.84777
 C2364 C 0.83208 0.97272 0.87174
 H2365 H 0.76001 0.93697 0.89641
 H2366 H 0.74464 0.95190 0.85750
 H2367 H 0.82860 1.00073 0.84358
 H2368 H 0.82424 0.96890 0.83264
 H2369 H 0.84388 0.98596 0.88114
 H2370 H 0.83944 0.95408 0.87055
 C2371 C 0.27694 0.80778 0.36909
 C2372 C 0.29657 0.79690 0.35755
 C2373 C 0.30866 0.77836 0.37013
 C2374 C 0.29983 0.76974 0.39237
 C2375 C 0.27865 0.77940 0.40262
 C2376 C 0.26826 0.79929 0.39104
 C2377 C 0.24272 0.80359 0.38385
 C2378 C 0.25222 0.81294 0.35981
 H2379 H 0.32465 0.77012 0.36263
 H2380 H 0.30946 0.75527 0.40130
 H2381 H 0.23414 0.81785 0.39505
 H2382 H 0.23219 0.78656 0.38211
 H2383 H 0.24915 0.83261 0.35724
 H2384 H 0.24719 0.80139 0.34408
 C2385 C 0.30778 0.27709 0.87104
 C2386 C 0.29509 0.29446 0.85775
 C2387 C 0.27175 0.30053 0.86576
 C2388 C 0.26268 0.29123 0.88769
 C2389 C 0.27677 0.27565 0.90209
 C2390 C 0.29886 0.26802 0.89268
 C2391 C 0.32309 0.26816 0.90445
 C2392 C 0.33288 0.27809 0.88084
 H2393 H 0.26085 0.31319 0.85562
 H2394 H 0.24519 0.29717 0.89388
 H2395 H 0.32954 0.24963 0.90856
 H2396 H 0.32437 0.28118 0.91979
 H2397 H 0.34504 0.26518 0.87163
 H2398 H 0.33993 0.29685 0.88243
 C2399 C 0.47056 0.30619 0.87961
 C2400 C 0.45195 0.29451 0.89204
 C2401 C 0.44086 0.27455 0.88064
 C2402 C 0.44945 0.26580 0.85831
 C2403 C 0.46917 0.27694 0.84670
 C2404 C 0.47901 0.29755 0.85760
 C2405 C 0.50458 0.30276 0.86427
 C2406 C 0.49530 0.31245 0.88823
 H2407 H 0.42582 0.26541 0.88909
 H2408 H 0.44084 0.25010 0.85037
 H2409 H 0.51274 0.31693 0.85269
 H2410 H 0.51552 0.28607 0.86621
 H2411 H 0.49783 0.33227 0.89027
 H2412 H 0.50101 0.30153 0.90413
 C2413 C 0.97648 0.29745 0.38401
 C2414 C 0.95420 0.29082 0.39346
 C2415 C 0.94023 0.27493 0.37897
 C2416 C 0.94858 0.26704 0.35601
 C2417 C 0.97122 0.27468 0.34689
 C2418 C 0.98461 0.28968 0.36210
 C2419 C 1.00792 0.30281 0.36448
 C2420 C 0.99858 0.31186 0.38914
 H2421 H 0.92263 0.26907 0.38498
 H2422 H 0.93702 0.25542 0.34526
 H2423 H 1.01006 0.31734 0.35088
 H2424 H 1.02344 0.29026 0.36603
 H2425 H 0.99493 0.33159 0.38953
 H2426 H 1.00885 0.30473 0.40487
 C2427 C 0.47462 0.38136 0.80265
 C2428 C 0.45404 0.39225 0.79294
 C2429 C 0.44409 0.38184 0.77176
 C2430 C 0.45272 0.35962 0.76281
 C2431 C 0.47148 0.34730 0.77486
 C2432 C 0.48309 0.35951 0.79386
 C2433 C 0.48985 0.35098 0.81858
 C2434 C 0.48062 0.37493 0.82823
 H2435 H 0.42880 0.39009 0.76284
 H2436 H 0.44373 0.35150 0.74736
 H2437 H 0.50964 0.34884 0.82063
 H2438 H 0.47886 0.33528 0.82444
 H2439 H 0.49510 0.38660 0.83583
 H2440 H 0.46438 0.37304 0.83983
 C2441 C 0.97391 0.38056 0.30207
 C2442 C 0.95331 0.39132 0.29225
 C2443 C 0.94351 0.38079 0.27105
 C2444 C 0.95238 0.35864 0.26213
 C2445 C 0.97126 0.34651 0.27420
 C2446 C 0.98260 0.35878 0.29331
 C2447 C 0.98933 0.35029 0.31804
 C2448 C 0.97981 0.37414 0.32767
 H2449 H 0.92821 0.38894 0.26206
 H2450 H 0.94355 0.35045 0.24663
 H2451 H 1.00914 0.34842 0.32011
 H2452 H 0.97852 0.33442 0.32392
 H2453 H 0.99415 0.38592 0.33538
 H2454 H 0.96352 0.37209 0.33916
 C2455 C 0.27173 0.88423 0.44954
 C2456 C 0.29156 0.89575 0.46022
 C2457 C 0.30048 0.88600 0.48211
 C2458 C 0.29187 0.86368 0.49082
 C2459 C 0.27419 0.85064 0.47779
 C2460 C 0.26331 0.86226 0.45807
 C2461 C 0.25804 0.85320 0.43309
 C2462 C 0.26725 0.87729 0.42373
 H2463 H 0.31514 0.89476 0.49169
 H2464 H 0.30022 0.85597 0.50677
 H2465 H 0.23845 0.85050 0.42996
 H2466 H 0.26962 0.83770 0.42787
 H2467 H 0.25294 0.88846 0.41523
 H2468 H 0.28412 0.87571 0.41305
 C2469 C 0.27581 0.38052 0.94606
 C2470 C 0.29524 0.39251 0.95698
 C2471 C 0.30351 0.38359 0.97947
 C2472 C 0.29436 0.36178 0.98894
 C2473 C 0.27677 0.34843 0.97610
 C2474 C 0.26688 0.35905 0.95533
 C2475 C 0.26282 0.34868 0.93062
 C2476 C 0.27257 0.37223 0.92047
 H2477 H 0.31785 0.39274 0.98917
 H2478 H 0.30207 0.35476 1.00553
 H2479 H 0.24339 0.34583 0.92664
 H2480 H 0.27457 0.33289 0.92680
 H2481 H 0.25874 0.38296 0.91068
 H2482 H 0.28994 0.37009 0.91074
 C2483 C 0.80327 0.36682 0.27237
 C2484 C 0.79187 0.35438 0.29123
 C2485 C 0.76949 0.36336 0.29924
 C2486 C 0.76063 0.38561 0.29062
 C2487 C 0.77397 0.39937 0.27379
 C2488 C 0.79456 0.38871 0.26390
 C2489 C 0.81929 0.39882 0.26072
 C2490 C 0.82885 0.37483 0.26994
 H2491 H 0.75944 0.35394 0.31312
 H2492 H 0.74406 0.39259 0.29815
 H2493 H 0.82360 0.40219 0.24136
 H2494 H 0.82309 0.41418 0.27318
 H2495 H 0.83826 0.37632 0.28770
 H2496 H 0.83863 0.36439 0.25586
   
