data_POSCAR
  _audit_creation_date              2014-09-24
  _audit_creation_method            'ToBaCCo'
  _symmetry_space_group_name_H-M    'P1'
  _symmetry_Int_Tables_number       1
  _symmetry_cell_setting            triclinic
  loop_
  _symmetry_equiv_pos_as_xyz
 x,y,z
_cell_length_a 49.2160
_cell_length_b 47.7110
_cell_length_c 48.1001
_cell_angle_alpha 89.825400
_cell_angle_beta 90.111200
_cell_angle_gamma 90.432500
loop_
  _atom_site_label
  _atom_site_type_symbol
  _atom_site_fract_x
  _atom_site_fract_y
  _atom_site_fract_z
C1 C 0.34934 1.31990 0.30881
 C2 C 0.35345 1.31444 0.33724
 C3 C 0.33326 1.32058 0.35640
 C4 C 0.30910 1.33333 0.34747
 C5 C 0.30496 1.33812 0.31943
 C6 C 0.32474 1.33057 0.30003
 C7 C 0.36558 1.31748 0.28545
 N8 N 0.35077 1.32534 0.26286
 C9 C 0.32577 1.33316 0.27165
 C10 C 0.28170 1.35361 0.31676
 N11 N 0.27170 1.35880 0.34250
 C12 C 0.28798 1.34593 0.36149
 C13 C 0.34259 1.31240 0.38222
 N14 N 0.36778 1.30160 0.37906
 C15 C 0.37476 1.30302 0.35182
 H16 H 0.38635 1.31018 0.28490
 H17 H 0.30982 1.34137 0.25845
 H18 H 0.27373 1.36214 0.29753
 H19 H 0.28588 1.34741 0.38383
 H20 H 0.33187 1.31401 0.40178
 H21 H 0.39370 1.29558 0.34323
 C22 C 0.37133 0.84531 0.83257
 C23 C 0.36759 0.83323 0.85899
 C24 C 0.34543 0.84080 0.87495
 C25 C 0.32662 0.86016 0.86467
 C26 C 0.33038 0.87191 0.83865
 C27 C 0.35281 0.86454 0.82256
 C28 C 0.39068 0.84198 0.81222
 N29 N 0.38422 0.85872 0.79030
 C30 C 0.36107 0.87258 0.79642
 C31 C 0.30898 0.88945 0.83369
 N32 N 0.29219 0.88861 0.85603
 C33 C 0.30279 0.87074 0.87518
 C34 C 0.34659 0.82569 0.89926
 N35 N 0.36873 0.80896 0.89843
 C36 C 0.38176 0.81337 0.87391
 H37 H 0.40811 0.82830 0.81321
 H38 H 0.35092 0.88733 0.78285
 H39 H 0.30575 0.90177 0.81503
 H40 H 0.29384 0.86566 0.89512
 H41 H 0.33205 0.82636 0.91612
 H42 H 0.39999 0.80276 0.86730
 C43 C 0.87506 1.34773 0.83714
 C44 C 0.87261 1.33694 0.86410
 C45 C 0.85149 1.34537 0.88101
 C46 C 0.83242 1.36466 0.87100
 C47 C 0.83504 1.37542 0.84436
 C48 C 0.85647 1.36692 0.82730
 C49 C 0.89264 1.34200 0.81582
 N50 N 0.88521 1.35730 0.79324
 C51 C 0.86309 1.37271 0.80006
 C52 C 0.81322 1.39251 0.83965
 N53 N 0.79728 1.39231 0.86266
 C54 C 0.80884 1.37533 0.88202
 C55 C 0.85335 1.33021 0.90533
 N56 N 0.87494 1.31278 0.90336
 C57 C 0.88686 1.31678 0.87825
 H58 H 0.90936 1.32739 0.81655
 H59 H 0.85224 1.38659 0.78616
 H60 H 0.80894 1.40380 0.82058
 H61 H 0.80059 1.37071 0.90238
 H62 H 0.83944 1.33099 0.92271
 H63 H 0.90414 1.30530 0.87051
 C64 C 0.87120 0.83400 0.32772
 C65 C 0.86910 0.82304 0.35472
 C66 C 0.84604 0.82778 0.37043
 C67 C 0.82494 0.84405 0.35939
 C68 C 0.82713 0.85493 0.33272
 C69 C 0.85037 0.84984 0.31672
 C70 C 0.89138 0.83294 0.30804
 N71 N 0.88336 0.84775 0.28531
 C72 C 0.85828 0.85830 0.29046
 C73 C 0.80454 0.87096 0.32801
 N74 N 0.78880 0.87032 0.35114
 C75 C 0.80101 0.85384 0.37047
 C76 C 0.85004 0.81526 0.39602
 N77 N 0.87501 0.80343 0.39603
 C78 C 0.88686 0.80814 0.37103
 H79 H 0.91059 0.82220 0.31018
 H80 H 0.84663 0.87115 0.27626
 H81 H 0.80029 0.88304 0.30942
 H82 H 0.79350 0.84997 0.39127
 H83 H 0.83626 0.81539 0.41353
 H84 H 0.90707 0.80146 0.36532
 C85 C 0.62194 0.63529 0.33803
 C86 C 0.61974 0.66214 0.34953
 C87 C 0.64003 0.67237 0.36670
 C88 C 0.66280 0.65603 0.37247
 C89 C 0.66497 0.62938 0.36152
 C90 C 0.64418 0.61882 0.34441
 C91 C 0.60626 0.62071 0.31916
 N92 N 0.61829 0.59567 0.31431
 C93 C 0.64131 0.59424 0.32988
 C94 C 0.69001 0.61918 0.36941
 N95 N 0.70282 0.63920 0.38470
 C96 C 0.68629 0.66168 0.38675
 C97 C 0.63303 0.69908 0.37434
 N98 N 0.60888 0.70521 0.36230
 C99 C 0.60061 0.68284 0.34701
 H100 H 0.58775 0.62799 0.30943
 H101 H 0.65561 0.57709 0.32967
 H102 H 0.69852 0.59913 0.36383
 H103 H 0.69129 0.68104 0.39735
 H104 H 0.64469 0.71302 0.38757
 H105 H 0.58209 0.68178 0.33485
 C106 C 0.62154 0.13375 0.83463
 C107 C 0.62516 0.15809 0.85041
 C108 C 0.64818 0.16134 0.86681
 C109 C 0.66807 0.14023 0.86727
 C110 C 0.66441 0.11648 0.85111
 C111 C 0.64146 0.11355 0.83405
 C112 C 0.59989 0.12367 0.81955
 N113 N 0.60675 0.09850 0.80864
 C114 C 0.63231 0.09217 0.81705
 C115 C 0.68443 0.09797 0.85813
 N116 N 0.70072 0.10987 0.87770
 C117 C 0.69121 0.13598 0.88320
 C118 C 0.64461 0.18554 0.88196
 N119 N 0.62056 0.19720 0.87443
 C120 C 0.60847 0.18057 0.85526
 H121 H 0.58061 0.13405 0.81648
 H122 H 0.64273 0.07280 0.81254
 H123 H 0.68657 0.07694 0.85003
 H124 H 0.69938 0.15002 0.89881
 H125 H 0.65799 0.19356 0.89801
 H126 H 0.58834 0.18376 0.84674
 C127 C 1.12523 0.63542 0.83947
 C128 C 1.13269 0.66316 0.84621
 C129 C 1.15549 0.66825 0.86275
 C130 C 1.17061 0.64557 0.87356
 C131 C 1.16180 0.61856 0.86823
 C132 C 1.13950 0.61350 0.85105
 C133 C 1.10773 0.62374 0.81997
 N134 N 1.11145 0.59546 0.81980
 C135 C 1.13045 0.58915 0.83912
 C136 C 1.17999 0.60043 0.87971
 N137 N 1.20043 0.61527 0.89165
 C138 C 1.19502 0.64311 0.88813
 C139 C 1.15835 0.69700 0.86462
 N140 N 1.13760 0.70927 0.85051
 C141 C 1.12194 0.68884 0.83900
 H142 H 1.09486 0.63510 0.80564
 H143 H 1.13892 0.56852 0.84246
 H144 H 1.17905 0.57779 0.87816
 H145 H 1.20802 0.66016 0.89496
 H146 H 1.17404 0.70820 0.87594
 H147 H 1.10414 0.69243 0.82626
 C148 C 1.12738 0.13900 0.32839
 C149 C 1.12510 0.16551 0.34051
 C150 C 1.14573 0.17579 0.35719
 C151 C 1.16896 0.15975 0.36185
 C152 C 1.17115 0.13328 0.35045
 C153 C 1.14999 0.12273 0.33377
 C154 C 1.11106 0.12447 0.31011
 N155 N 1.12304 0.09957 0.30461
 C156 C 1.14668 0.09819 0.31922
 C157 C 1.19628 0.12302 0.35806
 N158 N 1.20918 0.14287 0.37357
 C159 C 1.19254 0.16528 0.37600
 C160 C 1.13804 0.20184 0.36632
 N161 N 1.11313 0.20740 0.35567
 C162 C 1.10511 0.18542 0.33973
 H163 H 1.09204 0.13160 0.30134
 H164 H 1.16099 0.08108 0.31840
 H165 H 1.20464 0.10293 0.35233
 H166 H 1.19733 0.18442 0.38710
 H167 H 1.14955 0.21552 0.37994
 H168 H 1.08598 0.18392 0.32866
 C169 C 0.63081 1.36641 0.67059
 C170 C 0.63079 1.33905 0.66032
 C171 C 0.64623 1.33229 0.63730
 C172 C 0.66230 1.35309 0.62444
 C173 C 0.66181 1.38035 0.63438
 C174 C 0.64606 1.38701 0.65766
 C175 C 0.61842 1.37831 0.69318
 N176 N 0.62595 1.40571 0.69441
 C177 C 0.64271 1.41131 0.67262
 C178 C 0.67917 1.39608 0.61824
 N179 N 0.69056 1.37904 0.59913
 C180 C 0.68055 1.35268 0.60267
 C181 C 0.64123 1.30435 0.63167
 N182 N 0.62327 1.29436 0.65080
 C183 C 0.61704 1.31536 0.66851
 H184 H 0.60538 1.36755 0.70790
 H185 H 0.65238 1.43134 0.66842
 H186 H 0.68386 1.41815 0.62073
 H187 H 0.68629 1.33464 0.59048
 H188 H 0.64959 1.29238 0.61467
 H189 H 0.60280 1.31372 0.68558
 C190 C 0.63465 0.86321 1.16886
 C191 C 0.62943 0.83656 1.15800
 C192 C 0.64542 0.82622 1.13686
 C193 C 0.66699 0.84246 1.12641
 C194 C 0.67232 0.86880 1.13728
 C195 C 0.65588 0.87933 1.15862
 C196 C 0.62275 0.87789 1.19001
 N197 N 0.63618 0.90267 1.19295
 C198 C 0.65644 0.90382 1.17378
 C199 C 0.69512 0.87911 1.12398
 N200 N 0.70353 0.85969 1.10534
 C201 C 0.68643 0.83729 1.10663
 C202 C 0.63615 0.79956 1.13108
 N203 N 0.61499 0.79365 1.14828
 C204 C 0.61074 0.81614 1.16480
 H205 H 0.60577 0.87078 1.20251
 H206 H 0.67087 0.92091 1.17141
 H207 H 0.70497 0.89909 1.12780
 H208 H 0.68834 0.81837 1.09444
 H209 H 0.64444 0.78543 1.11578
 H210 H 0.59535 0.81741 1.18080
 C211 C 1.12920 1.36645 1.16640
 C212 C 1.13107 1.33861 1.15748
 C213 C 1.14837 1.33144 1.13587
 C214 C 1.16447 1.35253 1.12306
 C215 C 1.16121 1.38018 1.13110
 C216 C 1.14395 1.38708 1.15304
 C217 C 1.11594 1.37896 1.18831
 N218 N 1.12274 1.40662 1.18859
 C219 C 1.13964 1.41180 1.16692
 C220 C 1.17834 1.39646 1.11548
 N221 N 1.19320 1.37964 1.09882
 C222 C 1.18508 1.35258 1.10328
 C223 C 1.14446 1.30300 1.13120
 N224 N 1.12545 1.29322 1.14946
 C225 C 1.11761 1.31478 1.16579
 H226 H 1.10337 1.36845 1.20362
 H227 H 1.14921 1.43181 1.16244
 H228 H 1.18090 1.41896 1.11729
 H229 H 1.19342 1.33444 1.09297
 H230 H 1.15413 1.29059 1.11528
 H231 H 1.10222 1.31348 1.18182
 C232 C 1.13214 0.86333 0.66441
 C233 C 1.12794 0.83615 0.65438
 C234 C 1.14556 0.82504 0.63503
 C235 C 1.16776 0.84108 0.62561
 C236 C 1.17195 0.86794 0.63566
 C237 C 1.15395 0.87920 0.65511
 C238 C 1.11895 0.87879 0.68417
 N239 N 1.13222 0.90364 0.68708
 C240 C 1.15360 0.90419 0.66933
 C241 C 1.19549 0.87812 0.62387
 N242 N 1.20559 0.85811 0.60687
 C243 C 1.18879 0.83543 0.60774
 C244 C 1.13689 0.79805 0.62971
 N245 N 1.11452 0.79268 0.64543
 C246 C 1.10893 0.81583 0.66059
 H247 H 1.10135 0.87213 0.69600
 H248 H 1.16829 0.92111 0.66759
 H249 H 1.20467 0.89846 0.62757
 H250 H 1.19188 0.81609 0.59650
 H251 H 1.14636 0.78335 0.61571
 H252 H 1.09235 0.81767 0.67522
 C253 C 0.37238 0.66166 0.66782
 C254 C 0.36752 0.67276 0.64126
 C255 C 0.34479 0.66437 0.62637
 C256 C 0.32646 0.64499 0.63794
 C257 C 0.33130 0.63401 0.66412
 C258 C 0.35443 0.64233 0.67913
 C259 C 0.39261 0.66617 0.68713
 N260 N 0.38737 0.64999 0.70979
 C261 C 0.36405 0.63534 0.70511
 C262 C 0.31006 0.61620 0.67028
 N263 N 0.29238 0.61621 0.64855
 C264 C 0.30225 0.63376 0.62862
 C265 C 0.34506 0.67877 0.60155
 N266 N 0.36728 0.69578 0.60115
 C267 C 0.38116 0.69227 0.62532
 H268 H 0.40988 0.68019 0.68491
 H269 H 0.35467 0.62079 0.71955
 H270 H 0.30752 0.60433 0.68935
 H271 H 0.29255 0.63823 0.60890
 H272 H 0.32996 0.67740 0.58520
 H273 H 0.39967 0.70324 0.63099
 C274 C 0.38219 0.14575 1.15212
 C275 C 0.37807 0.15561 1.12508
 C276 C 0.35471 0.14843 1.11063
 C277 C 0.33501 0.13120 1.12327
 C278 C 0.33924 0.12128 1.15001
 C279 C 0.36296 0.12864 1.16454
 C280 C 0.40221 0.15100 1.17140
 N281 N 0.39561 0.13742 1.19525
 C282 C 0.37165 0.12364 1.19131
 C283 C 0.31649 0.10625 1.15753
 N284 N 0.29846 0.10686 1.13613
 C285 C 0.30958 0.12212 1.11503
 C286 C 0.35541 0.16291 1.08580
 N287 N 0.37845 0.17873 1.08522
 C288 C 0.39246 0.17430 1.10908
 H289 H 0.42001 0.16415 1.16849
 H290 H 0.36101 0.11141 1.20690
 H291 H 0.31312 0.09604 1.17739
 H292 H 0.29985 0.12660 1.09533
 H293 H 0.33967 0.16311 1.07004
 H294 H 0.41121 0.18476 1.11490
 C295 C 0.87205 0.65777 1.16647
 C296 C 0.86754 0.66871 1.13973
 C297 C 0.84480 0.66045 1.12474
 C298 C 0.82617 0.64141 1.13634
 C299 C 0.83069 0.63066 1.16265
 C300 C 0.85373 0.63881 1.17775
 C301 C 0.89206 0.66216 1.18611
 N302 N 0.88620 0.64627 1.20883
 C303 C 0.86278 0.63194 1.20390
 C304 C 0.80923 0.61327 1.16895
 N305 N 0.79172 0.61329 1.14716
 C306 C 0.80185 0.63041 1.12704
 C307 C 0.84531 0.67466 1.09984
 N308 N 0.86766 0.69146 1.09942
 C309 C 0.88141 0.68800 1.12369
 H310 H 0.90953 0.67594 1.18408
 H311 H 0.85294 0.61768 1.21831
 H312 H 0.80636 0.60169 1.18813
 H313 H 0.79218 0.63473 1.10728
 H314 H 0.83024 0.67334 1.08346
 H315 H 0.89996 0.69890 1.12939
 C316 C 0.85254 0.18301 0.68598
 C317 C 0.85428 0.18789 0.65711
 C318 C 0.83188 0.18269 0.64019
 C319 C 0.80792 0.17156 0.65166
 C320 C 0.80610 0.16754 0.68003
 C321 C 0.82810 0.17410 0.69721
 C322 C 0.87117 0.18363 0.70767
 N323 N 0.85798 0.17634 0.73153
 C324 C 0.83166 0.17079 0.72521
 C325 C 0.78270 0.15266 0.68522
 N326 N 0.77036 0.14711 0.66065
 C327 C 0.78530 0.15904 0.63995
 C328 C 0.83907 0.18964 0.61337
 N329 N 0.86515 0.19886 0.61361
 C330 C 0.87481 0.19757 0.64005
 H331 H 0.89257 0.18884 0.70618
 H332 H 0.81649 0.16316 0.73973
 H333 H 0.77638 0.14429 0.70516
 H334 H 0.78142 0.15655 0.61794
 H335 H 0.82627 0.18837 0.59508
 H336 H 0.89501 0.20401 0.64646
 C337 C 1.36313 0.38353 0.65508
 C338 C 1.34044 0.37997 0.63792
 C339 C 1.33145 0.35342 0.63114
 C340 C 1.34587 0.33004 0.64064
 C341 C 1.36934 0.33338 0.65641
 C342 C 1.37745 0.36056 0.66474
 C343 C 1.37350 0.40694 0.66775
 N344 N 1.39323 0.39903 0.68572
 C345 C 1.39614 0.37071 0.68391
 C346 C 1.38001 0.30683 0.66038
 N347 N 1.36294 0.28785 0.64826
 C348 C 1.34185 0.30191 0.63672
 C349 C 1.30840 0.35644 0.61498
 N350 N 1.30359 0.38426 0.61177
 C351 C 1.32300 0.39875 0.62582
 H352 H 1.36569 0.42801 0.66572
 H353 H 1.40958 0.35831 0.69676
 H354 H 1.39858 0.30174 0.67131
 H355 H 1.32547 0.29243 0.62486
 H356 H 1.29625 0.33975 0.60602
 H357 H 1.32422 0.42137 0.62727
 C358 C 1.33568 0.85960 1.17432
 C359 C 1.31174 0.85050 1.16126
 C360 C 1.30696 0.82225 1.15812
 C361 C 1.32602 0.80283 1.16722
 C362 C 1.35049 0.81146 1.17873
 C363 C 1.35489 0.84043 1.18353
 C364 C 1.34439 0.88581 1.18181
 N365 N 1.36773 0.88344 1.19666
 C366 C 1.37466 0.85580 1.19755
 C367 C 1.36622 0.78743 1.18131
 N368 N 1.35106 0.76500 1.17261
 C369 C 1.32639 0.77441 1.16461
 C370 C 1.28352 0.81907 1.14301
 N371 N 1.27378 0.84481 1.13686
 C372 C 1.29066 0.86434 1.14822
 H373 H 1.33339 0.90511 1.17838
 H374 H 1.39206 0.84737 1.20843
 H375 H 1.38708 0.78644 1.18841
 H376 H 1.31047 0.76169 1.15533
 H377 H 1.27489 0.79946 1.13578
 H378 H 1.28869 0.88679 1.14573
 C379 C 0.84804 0.36770 1.17672
 C380 C 0.82473 0.35696 1.16318
 C381 C 0.82647 0.33183 1.14896
 C382 C 0.85095 0.31733 1.14762
 C383 C 0.87391 0.32786 1.16041
 C384 C 0.87255 0.35358 1.17436
 C385 C 0.85344 0.39219 1.19121
 N386 N 0.88064 0.39362 1.19618
 C387 C 0.89239 0.37034 1.18562
 C388 C 0.89522 0.31048 1.15345
 N389 N 0.88546 0.29007 1.13646
 C390 C 0.85859 0.29450 1.13232
 C391 C 0.80244 0.32751 1.13532
 N392 N 0.78597 0.34954 1.14011
 C393 C 0.79925 0.36780 1.15723
 H394 H 0.83901 0.40838 1.19634
 H395 H 0.91390 0.36571 1.18645
 H396 H 0.91646 0.31376 1.15849
 H397 H 0.84579 0.28265 1.11819
 H398 H 0.79791 0.31034 1.12134
 H399 H 0.79160 0.38799 1.16360
 C400 C 0.85373 0.88301 0.65864
 C401 C 0.83035 0.87126 0.64606
 C402 C 0.83127 0.84409 0.63580
 C403 C 0.85519 0.82841 0.63762
 C404 C 0.87803 0.84019 0.64951
 C405 C 0.87738 0.86745 0.65982
 C406 C 0.85942 0.90827 0.67171
 N407 N 0.88586 0.90799 0.68004
 C408 C 0.89689 0.88324 0.67277
 C409 C 0.89807 0.82041 0.64935
 N410 N 0.88799 0.79674 0.63760
 C411 C 0.86175 0.80136 0.63017
 C412 C 0.80636 0.83803 0.62451
 N413 N 0.79022 0.86077 0.62712
 C414 C 0.80457 0.88127 0.64039
 H415 H 0.84547 0.92535 0.67509
 H416 H 0.91751 0.87691 0.67736
 H417 H 0.91841 0.82286 0.65766
 H418 H 0.84832 0.78606 0.62069
 H419 H 0.80060 0.81864 0.61437
 H420 H 0.79703 0.90197 0.64506
 C421 C 0.64753 0.64663 0.68025
 C422 C 0.67011 0.63996 0.66391
 C423 C 0.67247 0.65035 0.63706
 C424 C 0.65202 0.66769 0.62617
 C425 C 0.62964 0.67402 0.64236
 C426 C 0.62746 0.66357 0.66948
 C427 C 0.63969 0.63904 0.70676
 N428 N 0.61541 0.65117 0.71219
 C429 C 0.60778 0.66616 0.68951
 C430 C 0.61239 0.68984 0.62643
 N431 N 0.62377 0.69351 0.60108
 C432 C 0.64802 0.68017 0.60052
 C433 C 0.69587 0.63925 0.62594
 N434 N 0.70750 0.62247 0.64544
 C435 C 0.69193 0.62288 0.66866
 H436 H 0.65080 0.62571 0.72097
 H437 H 0.58918 0.67800 0.68769
 H438 H 0.59277 0.69781 0.63262
 H439 H 0.66129 0.67904 0.58264
 H440 H 0.70346 0.64254 0.60507
 H441 H 0.69587 0.61103 0.68746
 C442 C 0.68296 1.16309 1.19821
 C443 C 0.69373 1.15103 1.17406
 C444 C 0.69587 1.16663 1.14966
 C445 C 0.68657 1.19456 1.14911
 C446 C 0.67784 1.20665 1.17358
 C447 C 0.67584 1.19095 1.19795
 C448 C 0.67399 1.15204 1.22323
 N449 N 0.66133 1.17274 1.23760
 C450 C 0.66295 1.19665 1.22246
 C451 C 0.66756 1.23237 1.16747
 N452 N 0.66816 1.23618 1.13959
 C453 C 0.68011 1.21332 1.12794
 C454 C 0.70779 1.14946 1.13010
 N455 N 0.71278 1.12417 1.14215
 C456 C 0.70367 1.12478 1.16873
 H457 H 0.67480 1.13023 1.22943
 H458 H 0.65328 1.21624 1.22775
 H459 H 0.65753 1.24603 1.18213
 H460 H 0.68219 1.20973 1.10584
 H461 H 0.71316 1.15517 1.10901
 H462 H 0.70549 1.10778 1.18357
 C463 C 0.14890 0.63925 1.17855
 C464 C 0.16987 0.62992 1.16129
 C465 C 0.17294 0.64103 1.13488
 C466 C 0.15495 0.66153 1.12531
 C467 C 0.13439 0.67104 1.14236
 C468 C 0.13135 0.65977 1.16920
 C469 C 0.14127 0.63225 1.20524
 N470 N 0.11950 0.64807 1.21229
 C471 C 0.11337 0.66499 1.19039
 C472 C 0.12066 0.69150 1.12783
 N473 N 0.13239 0.69438 1.10238
 C474 C 0.15329 0.67605 1.10069
 C475 C 0.19537 0.62870 1.12316
 N476 N 0.20585 0.61038 1.14187
 C477 C 0.19036 0.61090 1.16518
 H478 H 0.15092 0.61685 1.21847
 H479 H 0.09695 0.67997 1.18986
 H480 H 0.10355 0.70341 1.13531
 H481 H 0.16665 0.67377 1.08298
 H482 H 0.20353 0.63289 1.10267
 H483 H 0.19399 0.59861 1.18376
 C484 C 0.17341 1.16826 0.69394
 C485 C 0.19257 1.15886 0.67477
 C486 C 0.18794 1.16204 0.64670
 C487 C 0.16423 1.17502 0.63745
 C488 C 0.14505 1.18445 0.65626
 C489 C 0.14923 1.18002 0.68500
 C490 C 0.17288 1.16705 0.72234
 N491 N 0.14844 1.17633 0.73122
 C492 C 0.13363 1.18428 0.70860
 C493 C 0.12590 1.19901 0.64095
 N494 N 0.13325 1.19833 0.61363
 C495 C 0.15621 1.18301 0.61139
 C496 C 0.20937 1.15006 0.63291
 N497 N 0.22656 1.13919 0.65212
 C498 C 0.21656 1.14460 0.67778
 H499 H 0.18858 1.15831 0.73553
 H500 H 0.11316 1.19240 0.70926
 H501 H 0.10885 1.21046 0.64926
 H502 H 0.16757 1.17986 0.59240
 H503 H 0.21164 1.14831 0.61060
 H504 H 0.22561 1.13779 0.69717
 C505 C 1.34468 0.62389 0.33640
 C506 C 1.32815 0.63422 0.35764
 C507 C 1.33315 0.66054 0.36861
 C508 C 1.35469 0.67696 0.35836
 C509 C 1.37089 0.66684 0.33723
 C510 C 1.36585 0.64011 0.32618
 C511 C 1.34426 0.59923 0.32166
 N512 N 1.36457 0.60015 0.30261
 C513 C 1.37791 0.62509 0.30523
 C514 C 1.38978 0.68737 0.33109
 N515 N 1.38545 0.70966 0.34801
 C516 C 1.36398 0.70347 0.36477
 C517 C 1.31361 0.66526 0.38843
 N518 N 1.29687 0.64254 0.38955
 C519 C 1.30560 0.62341 0.37083
 H520 H 1.32997 0.58207 0.32434
 H521 H 1.39500 0.63198 0.29276
 H522 H 1.40549 0.68618 0.31541
 H523 H 1.35559 0.71718 0.38039
 H524 H 1.31144 0.68402 0.40082
 H525 H 1.29613 0.60326 0.36690
 C526 C 1.34319 1.12652 0.83153
 C527 C 1.33344 1.12359 0.85884
 C528 C 1.34505 1.13927 0.87993
 C529 C 1.36576 1.15862 0.87402
 C530 C 1.37395 1.16324 0.84690
 C531 C 1.36296 1.14658 0.82553
 C532 C 1.33722 1.11271 0.80709
 N533 N 1.35280 1.12397 0.78663
 C534 C 1.36827 1.14489 0.79750
 C535 C 1.39203 1.18564 0.84734
 N536 N 1.39547 1.19377 0.87422
 C537 C 1.37968 1.17715 0.89058
 C538 C 1.33014 1.13454 0.90360
 N539 N 1.30929 1.11693 0.89737
 C540 C 1.31128 1.10972 0.87011
 H541 H 1.32306 1.09545 0.80445
 H542 H 1.38310 1.15716 0.78603
 H543 H 1.40192 1.19518 0.82956
 H544 H 1.37736 1.17935 0.91286
 H545 H 1.33291 1.14503 0.92336
 H546 H 1.29671 1.09694 0.85890
 C547 C 0.84632 0.61783 0.84122
 C548 C 0.82882 0.62905 0.86131
 C549 C 0.83385 0.65560 0.87184
 C550 C 0.85614 0.67135 0.86231
 C551 C 0.87317 0.66031 0.84244
 C552 C 0.86829 0.63348 0.83194
 C553 C 0.84619 0.59315 0.82637
 N554 N 0.86745 0.59379 0.80838
 C555 C 0.88106 0.61834 0.81171
 C556 C 0.89234 0.68038 0.83611
 N557 N 0.88737 0.70338 0.85170
 C558 C 0.86529 0.69811 0.86785
 C559 C 0.81344 0.66146 0.89031
 N560 N 0.79607 0.63926 0.89119
 C561 C 0.80524 0.61930 0.87352
 H562 H 0.83134 0.57636 0.82793
 H563 H 0.89867 0.62500 0.79990
 H564 H 0.90851 0.67856 0.82101
 H565 H 0.85626 0.71278 0.88218
 H566 H 0.81114 0.68066 0.90199
 H567 H 0.79542 0.59929 0.86970
 C568 C 0.85367 1.11607 0.34104
 C569 C 0.83789 1.12452 0.36377
 C570 C 0.84350 1.14980 0.37668
 C571 C 0.86446 1.16712 0.36688
 C572 C 0.87982 1.15893 0.34436
 C573 C 0.87447 1.13322 0.33142
 C574 C 0.85266 1.09300 0.32393
 N575 N 0.87223 1.09590 0.30425
 C576 C 0.88563 1.12044 0.30862
 C577 C 0.89762 1.18050 0.33845
 N578 N 0.89327 1.20151 0.35682
 C579 C 0.87307 1.19350 0.37435
 C580 C 0.82464 1.15329 0.39732
 N581 N 0.80751 1.13093 0.39713
 C582 C 0.81535 1.11314 0.37671
 H583 H 0.83847 1.07560 0.32539
 H584 H 0.90214 1.12854 0.29603
 H585 H 0.91218 1.18118 0.32161
 H586 H 0.86476 1.20619 0.39085
 H587 H 0.82300 1.17120 0.41097
 H588 H 0.80520 1.09367 0.37140
 C589 C 0.64150 0.35640 0.32492
 C590 C 0.66556 0.36231 0.33952
 C591 C 0.66853 0.35358 0.36686
 C592 C 0.64723 0.33901 0.38006
 C593 C 0.62336 0.33366 0.36565
 C594 C 0.62062 0.34206 0.33793
 C595 C 0.63310 0.36194 0.29813
 N596 N 0.60772 0.35097 0.29466
 C597 C 0.59995 0.33880 0.31894
 C598 C 0.60608 0.31971 0.38327
 N599 N 0.61890 0.31617 0.40792
 C600 C 0.64415 0.32764 0.40631
 C601 C 0.69369 0.36276 0.37580
 N602 N 0.70583 0.37688 0.35456
 C603 C 0.68884 0.37659 0.33232
 H604 H 0.64475 0.37287 0.28236
 H605 H 0.58067 0.32833 0.32254
 H606 H 0.58586 0.31204 0.37839
 H607 H 0.65907 0.32755 0.42288
 H608 H 0.70222 0.35996 0.39637
 H609 H 0.69293 0.38655 0.31249
 C610 C 0.64728 0.86069 0.82101
 C611 C 0.67056 0.86880 0.83585
 C612 C 0.67546 0.85785 0.86205
 C613 C 0.65696 0.83870 0.87379
 C614 C 0.63403 0.83057 0.85905
 C615 C 0.62917 0.84164 0.83248
 C616 C 0.63766 0.86770 0.79506
 N617 N 0.61415 0.85335 0.79053
 C618 C 0.60879 0.83733 0.81326
 C619 C 0.62020 0.81131 0.87511
 N620 N 0.63413 0.80766 0.89922
 C621 C 0.65659 0.82434 0.89866
 C622 C 0.69987 0.86892 0.87111
 N623 N 0.70970 0.88628 0.85102
 C624 C 0.69189 0.88637 0.82945
 H625 H 0.64715 0.88209 0.78053
 H626 H 0.59137 0.82354 0.81561
 H627 H 0.60150 0.80061 0.86955
 H628 H 0.67176 0.82556 0.91495
 H629 H 0.70977 0.86453 0.89074
 H630 H 0.69446 0.89814 0.81034
 C631 C 0.14058 0.36645 0.82785
 C632 C 0.16394 0.37434 0.84272
 C633 C 0.16795 0.36454 0.86954
 C634 C 0.14851 0.34685 0.88187
 C635 C 0.12554 0.33905 0.86710
 C636 C 0.12157 0.34884 0.83997
 C637 C 0.13201 0.37162 0.80108
 N638 N 0.10828 0.35747 0.79676
 C639 C 0.10178 0.34346 0.82046
 C640 C 0.11132 0.32019 0.88311
 N641 N 0.12509 0.31633 0.90724
 C642 C 0.14779 0.33264 0.90682
 C643 C 0.19298 0.37422 0.87824
 N644 N 0.20409 0.38968 0.85737
 C645 C 0.18649 0.38991 0.83562
 H646 H 0.14255 0.38440 0.78585
 H647 H 0.08410 0.33008 0.82321
 H648 H 0.09283 0.30931 0.87718
 H649 H 0.16326 0.33306 0.92285
 H650 H 0.20252 0.37000 0.89809
 H651 H 0.19010 0.40021 0.81586
 C652 C 0.14501 0.85766 0.31906
 C653 C 0.16795 0.86611 0.33425
 C654 C 0.17253 0.85538 0.36058
 C655 C 0.15407 0.83610 0.37211
 C656 C 0.13150 0.82757 0.35702
 C657 C 0.12693 0.83844 0.33031
 C658 C 0.13568 0.86454 0.29296
 N659 N 0.11235 0.84991 0.28809
 C660 C 0.10687 0.83386 0.31082
 C661 C 0.11769 0.80820 0.37298
 N662 N 0.13130 0.80494 0.39734
 C663 C 0.15351 0.82194 0.39705
 C664 C 0.19661 0.86679 0.37007
 N665 N 0.20659 0.88416 0.35008
 C666 C 0.18919 0.88392 0.32817
 H667 H 0.14529 0.87906 0.27864
 H668 H 0.08956 0.81989 0.31304
 H669 H 0.09924 0.79716 0.36720
 H670 H 0.16843 0.82347 0.41355
 H671 H 0.20618 0.86265 0.38992
 H672 H 0.19196 0.89566 0.30907
 O673 O 0.98365 0.92245 0.83881
 O674 O 0.98445 0.89651 0.80096
 C675 C 0.97526 0.91731 0.81432
 C676 C 0.95446 0.93563 0.80146
 C677 C 0.94736 0.93265 0.77331
 H678 H 0.95751 0.91732 0.76049
 O679 O 1.03104 1.13103 0.87934
 O680 O 1.03149 1.17055 0.85546
 C681 C 1.04090 1.14625 0.86007
 C682 C 1.06418 1.13559 0.84381
 C683 C 1.07789 1.15260 0.82421
 H684 H 1.07100 1.17367 0.81987
 O685 O 0.87543 0.99043 0.88351
 O686 O 0.84543 0.99561 0.84979
 C687 C 0.85391 0.98247 0.87107
 C688 C 0.83863 0.95759 0.88113
 C689 C 0.81369 0.95028 0.86886
 H690 H 0.80542 0.96332 0.85248
 O691 O 1.13679 1.04978 0.90488
 O692 O 1.16991 1.05557 0.87450
 C693 C 1.15985 1.06000 0.89834
 C694 C 1.17504 1.07713 0.91877
 C695 C 1.20285 1.08291 0.91513
 H696 H 1.21329 1.07441 0.89731
 O697 O 0.90661 0.86774 0.93991
 O698 O 0.87522 0.83543 0.93223
 C699 C 0.89789 0.84682 0.92619
 C700 C 0.91424 0.83569 0.90293
 C701 C 0.90822 0.80929 0.89160
 H702 H 0.89171 0.79715 0.90036
 O703 O 1.10047 1.14125 0.99907
 O704 O 1.13252 1.17319 1.00529
 C705 C 1.11023 1.16543 0.99416
 C706 C 1.09567 1.18466 0.97517
 C707 C 1.10489 1.21233 0.97175
 H708 H 1.12242 1.21965 0.98334
 O709 O 0.91284 1.05261 0.85776
 O710 O 0.88223 1.05791 0.82468
 C711 C 0.90341 1.06641 0.83731
 C712 C 0.91601 1.09355 0.82919
 C713 C 0.90285 1.11095 0.80996
 H714 H 0.88446 1.10381 0.79968
 O715 O 1.10018 1.00438 0.85560
 O716 O 1.13268 1.01120 0.82475
 C717 C 1.11064 0.99930 0.83203
 C718 C 1.09784 0.97823 0.81354
 C719 C 1.10827 0.97348 0.78683
 H720 H 1.12484 0.98637 0.77914
 O721 O 1.03565 0.87690 0.86975
 O722 O 1.03684 0.85078 0.83209
 C723 C 1.04544 0.85631 0.85636
 C724 C 1.06757 0.83960 0.86932
 C725 C 1.07947 0.81621 0.85609
 H726 H 1.07203 0.80916 0.83608
 O727 O 0.97561 1.15653 0.92321
 O728 O 0.97576 1.19634 0.89981
 C729 C 0.96578 1.18065 0.91867
 C730 C 0.94195 1.19007 0.93489
 C731 C 0.93201 1.21748 0.93174
 H732 H 0.94247 1.23216 0.91823
 O733 O 0.86176 1.09695 0.98122
 O734 O 0.82885 1.12775 0.98538
 C735 C 0.83975 1.10756 0.97243
 C736 C 0.82768 1.09644 0.94637
 C737 C 0.79992 1.09983 0.93954
 H738 H 0.78640 1.11048 0.95368
 O739 O 1.13620 0.90861 0.95340
 O740 O 1.16943 0.87825 0.94882
 C741 C 1.15883 0.90176 0.94289
 C742 C 1.17230 0.92091 0.92275
 C743 C 1.19655 0.91307 0.90942
 H744 H 1.20598 0.89329 0.91454
 O745 O 0.97851 1.12871 0.87735
 O746 O 0.97833 1.16832 0.85361
 C747 C 0.96957 1.14346 0.85736
 C748 C 0.94798 1.13177 0.83919
 C749 C 0.93421 1.14898 0.82000
 H750 H 0.93989 1.17082 0.81757
 O751 O 1.03602 0.92420 0.84282
 O752 O 1.03711 0.89865 0.80471
 C753 C 1.04552 0.91956 0.81882
 C754 C 1.06661 0.93865 0.80742
 C755 C 1.07718 0.93435 0.78074
 H756 H 1.06905 0.91746 0.76825
 O757 O 1.13474 0.99644 0.89509
 O758 O 1.16726 1.00267 0.86413
 C759 C 1.15696 0.98884 0.88420
 C760 C 1.17090 0.96334 0.89415
 C761 C 1.19500 0.95513 0.88126
 H762 H 1.20373 0.96808 0.86500
 O763 O 0.87415 1.04378 0.89353
 O764 O 0.84364 1.04839 0.86018
 C765 C 0.85172 1.05345 0.88476
 C766 C 0.83439 1.07016 0.90340
 C767 C 0.80693 1.07360 0.89703
 H768 H 0.79865 1.06429 0.87829
 O769 O 0.89848 1.13538 0.98966
 O770 O 0.86577 1.16651 0.99332
 C771 C 0.88883 1.15937 0.98400
 C772 C 0.90439 1.17938 0.96652
 C773 C 0.89512 1.20692 0.96337
 H774 H 0.87687 1.21346 0.97401
 O775 O 1.10216 0.86760 0.94503
 O776 O 1.13547 0.83719 0.94123
 C777 C 1.11324 0.84721 0.93251
 C778 C 1.10068 0.83557 0.90706
 C779 C 1.11226 0.81255 0.89368
 H780 H 1.12991 0.80241 0.90257
 O781 O 1.10008 1.05852 0.86664
 O782 O 1.13326 1.06494 0.83651
 C783 C 1.11096 1.07268 0.84715
 C784 C 1.09830 1.09912 0.83762
 C785 C 1.11160 1.11629 0.81821
 H786 H 1.13052 1.10956 0.80898
 O787 O 0.91411 0.99817 0.84773
 O788 O 0.88404 1.00388 0.81418
 C789 C 0.90558 0.99268 0.82338
 C790 C 0.92040 0.97246 0.80589
 C791 C 0.91303 0.96849 0.77792
 H792 H 0.89695 0.98077 0.76862
 O793 O 1.02889 1.15769 0.92603
 O794 O 1.02921 1.19738 0.90243
 C795 C 1.03814 1.18232 0.92227
 C796 C 1.06022 1.19312 0.94046
 C797 C 1.06984 1.22074 0.93738
 H798 H 1.05998 1.23458 0.92272
 O799 O 0.98264 0.87907 0.87149
 O800 O 0.98338 0.85272 0.83391
 C801 C 0.97358 0.85843 0.85771
 C802 C 0.95123 0.84126 0.86950
 C803 C 0.94490 0.81485 0.85843
 H804 H 0.95680 0.80684 0.84133
 O805 O 1.13825 1.10420 0.99306
 O806 O 1.17070 1.13563 0.99977
 C807 C 1.16092 1.11508 0.98621
 C808 C 1.17568 1.10381 0.96197
 C809 C 1.20349 1.10934 0.95812
 H810 H 1.21442 1.12179 0.97332
 O811 O 0.86905 0.90521 0.94463
 O812 O 0.83742 0.87329 0.93649
 C813 C 0.84765 0.89739 0.93194
 C814 C 0.83516 0.91624 0.91105
 C815 C 0.81014 0.90931 0.89851
 H816 H 0.79955 0.89038 0.90476
 Cu817 Cu 1.00943 0.90304 0.85952
 Cu818 Cu 1.01054 0.87200 0.81418
 Cu819 Cu 1.00353 1.13959 0.90389
 Cu820 Cu 1.00370 1.18722 0.87556
 Cu821 Cu 0.89741 1.02077 0.87381
 Cu822 Cu 0.86100 1.02706 0.83368
 Cu823 Cu 1.11445 1.02691 0.88349
 Cu824 Cu 1.15393 1.03433 0.84676
 C825 C 0.94116 0.95596 0.81746
 H826 H 0.94648 0.95845 0.83918
 C827 C 0.92667 0.94895 0.76157
 C828 C 1.07437 1.10876 0.84995
 H829 H 1.06431 1.09576 0.86536
 C830 C 1.10175 1.14299 0.81159
 C831 C 0.84908 0.94060 0.90241
 H832 H 0.86851 0.94593 0.91170
 C833 C 0.79922 0.92631 0.87737
 C834 C 1.16173 1.08748 0.94231
 H835 H 1.14024 1.08325 0.94509
 C836 C 1.21736 1.09881 0.93485
 C837 C 0.93594 0.85141 0.89193
 H838 H 0.94058 0.87188 0.90049
 C839 C 0.92363 0.79850 0.86952
 C840 C 1.07315 1.17527 0.95963
 H841 H 1.06620 1.15379 0.96184
 C842 C 1.09236 1.23042 0.95273
 C843 C 0.93890 1.10398 0.84333
 H844 H 0.94880 1.09088 0.85868
 C845 C 0.91151 1.13864 0.80562
 C846 C 1.07687 0.96084 0.82356
 H847 H 1.06911 0.96404 0.84436
 C848 C 1.09829 0.95142 0.77037
 C849 C 1.07819 0.84863 0.89497
 H850 H 1.06957 0.86670 0.90517
 C851 C 1.10191 0.80266 0.86839
 C852 C 0.92803 1.17118 0.95248
 H853 H 0.93518 1.14987 0.95468
 C854 C 0.90857 1.22600 0.94594
 C855 C 0.84459 1.08147 0.92813
 H856 H 0.86589 1.07873 0.93311
 C857 C 0.78944 1.08774 0.91502
 C858 C 1.15973 0.94624 0.91507
 H859 H 1.14081 0.95227 0.92477
 C860 C 1.20783 0.93007 0.88843
 O861 O 1.02353 0.87336 1.11237
 O862 O 1.02296 0.83527 1.13850
 C863 C 1.03180 0.85985 1.13350
 C864 C 1.05191 0.87294 1.15233
 C865 C 1.05730 0.86132 1.17860
 H866 H 1.04647 0.84262 1.18521
 O867 O 0.96921 1.07668 1.14603
 O868 O 0.96675 1.10340 1.18322
 C869 C 0.95852 1.08229 1.16936
 C870 C 0.93607 1.06431 1.18021
 C871 C 0.92522 1.06901 1.20683
 H872 H 0.93386 1.08535 1.21969
 O873 O 0.86065 1.00449 1.09569
 O874 O 0.82870 0.99739 1.12706
 C875 C 0.83811 1.01124 1.10660
 C876 C 0.82327 1.03594 1.09578
 C877 C 0.79824 1.04398 1.10719
 H878 H 0.78917 1.03135 1.12349
 O879 O 1.13035 0.95544 1.09374
 O880 O 1.16006 0.94885 1.12749
 C881 C 1.15174 0.94391 1.10294
 C882 C 1.16650 0.92379 1.08530
 C883 C 1.18849 0.90862 1.09625
 H884 H 1.19529 0.91234 1.11735
 O885 O 1.09898 0.85936 0.99847
 O886 O 1.13228 0.82896 0.99451
 C887 C 1.10937 0.83585 1.00451
 C888 C 1.09517 0.81678 1.02414
 C889 C 1.10643 0.79076 1.03100
 H890 H 1.12498 0.78419 1.02095
 O891 O 0.89742 1.12492 1.04233
 O892 O 0.86580 1.15726 1.04602
 C893 C 0.88806 1.14648 1.05419
 C894 C 0.90373 1.15982 1.07696
 C895 C 0.90011 1.18823 1.08262
 H896 H 0.88537 1.20005 1.07073
 O897 O 0.89942 0.94535 1.12428
 O898 O 0.86793 0.93848 1.15619
 C899 C 0.89027 0.93166 1.14504
 C900 C 0.90571 0.90733 1.15578
 C901 C 0.90063 0.89605 1.18243
 H902 H 0.88559 0.90567 1.19564
 O903 O 1.09089 1.00237 1.13846
 O904 O 1.12103 0.99629 1.17188
 C905 C 1.09945 1.00766 1.16279
 C906 C 1.08492 1.02790 1.18056
 C907 C 1.09397 1.03259 1.20769
 H908 H 1.11065 1.02030 1.21572
 O909 O 0.97256 0.84213 1.06592
 O910 O 0.97175 0.80397 1.09187
 C911 C 0.96291 0.81797 1.07129
 C912 C 0.94037 0.80671 1.05410
 C913 C 0.92837 0.78068 1.06048
 H914 H 0.93687 0.76804 1.07699
 O915 O 1.02402 1.12209 1.11868
 O916 O 1.02200 1.14882 1.15591
 C917 C 1.03280 1.14285 1.13270
 C918 C 1.05627 1.15956 1.12211
 C919 C 1.06500 1.18424 1.13548
 H920 H 1.05391 1.19175 1.15336
 O921 O 0.86635 0.89485 0.99821
 O922 O 0.83454 0.86309 0.99016
 C923 C 0.84387 0.88328 1.00459
 C924 C 0.82900 0.89270 1.02965
 C925 C 0.80378 0.88074 1.03669
 H926 H 0.79452 0.86543 1.02298
 O927 O 1.13689 1.09417 1.04638
 O928 O 1.16890 1.12600 1.05328
 C929 C 1.15876 1.10193 1.05822
 C930 C 1.17185 1.08286 1.07849
 C931 C 1.19703 1.08957 1.09085
 H932 H 1.20757 1.10867 1.08497
 O933 O 1.02196 1.07742 1.14918
 O934 O 1.02011 1.10369 1.18674
 C935 C 1.03005 1.08300 1.17364
 C936 C 1.05165 1.06533 1.18622
 C937 C 1.06159 1.07020 1.21337
 H938 H 1.05295 1.08674 1.22580
 O939 O 0.97107 0.87301 1.11005
 O940 O 0.97068 0.83503 1.13634
 C941 C 0.96175 0.85933 1.13066
 C942 C 0.94054 0.87191 1.14837
 C943 C 0.93534 0.86106 1.17494
 H944 H 0.94694 0.84334 1.18236
 O945 O 1.13152 1.00884 1.10470
 O946 O 1.16164 1.00228 1.13806
 C947 C 1.15332 1.01599 1.11711
 C948 C 1.16882 1.04082 1.10744
 C949 C 1.19377 1.04792 1.11972
 H950 H 1.20216 1.03461 1.13581
 O951 O 0.86388 0.95127 1.08476
 O952 O 0.83199 0.94399 1.11614
 C953 C 0.84192 0.93937 1.09219
 C954 C 0.82817 0.91972 1.07278
 C955 C 0.80291 0.90752 1.07945
 H956 H 0.79328 0.91280 1.09891
 O957 O 1.10024 1.13240 1.05220
 O958 O 1.13204 1.16456 1.05863
 C959 C 1.10952 1.15336 1.06551
 C960 C 1.09394 1.16455 1.08931
 C961 C 1.10226 1.18926 1.10281
 H962 H 1.12016 1.20034 1.09558
 O963 O 0.90319 0.85691 0.99279
 O964 O 0.87140 0.82501 0.98515
 C965 C 0.89303 0.83279 0.99746
 C966 C 0.90606 0.81405 1.01807
 C967 C 0.89435 0.78795 1.02473
 H968 H 0.87618 0.78102 1.01396
 O969 O 1.09233 0.94818 1.13040
 O970 O 1.12202 0.94235 1.16432
 C971 C 1.10056 0.93478 1.15167
 C972 C 1.08532 0.90980 1.16138
 C973 C 1.09054 0.89792 1.18761
 H974 H 1.10522 0.90790 1.20116
 O975 O 0.89965 0.99978 1.13159
 O976 O 0.86780 0.99308 1.16314
 C977 C 0.88960 1.00521 1.15521
 C978 C 0.90286 1.02641 1.17334
 C979 C 0.89255 1.03140 1.20000
 H980 H 0.87552 1.01905 1.20752
 O981 O 0.97082 1.12093 1.11473
 O982 O 0.96863 1.14841 1.15143
 C983 C 0.96073 1.14190 1.12705
 C984 C 0.93933 1.15821 1.11259
 C985 C 0.93505 1.18683 1.11831
 H986 H 0.94741 1.19752 1.13369
 O987 O 1.02585 0.84297 1.06795
 O988 O 1.02542 0.80476 1.09384
 C989 C 1.03548 0.81908 1.07399
 C990 C 1.05921 0.80847 1.05832
 C991 C 1.07105 0.78256 1.06513
 H992 H 1.06198 0.76953 1.08110
 O993 O 1.13509 0.89793 1.00709
 O994 O 1.16841 0.86768 1.00243
 C995 C 1.15714 0.88728 1.01580
 C996 C 1.16911 0.89642 1.04256
 C997 C 1.19085 0.88142 1.05400
 H998 H 1.19982 0.86436 1.04248
 O999 O 0.85919 1.08793 1.03515
 O1000 O 0.82720 1.11966 1.03966
 C1001 C 0.83687 1.09585 1.04572
 C1002 C 0.82263 1.07747 1.06596
 C1003 C 0.79766 1.08533 1.07771
 H1004 H 0.78801 1.10444 1.07085
 Cu1005 Cu 0.99834 0.86155 1.08628
 Cu1006 Cu 0.99760 0.81572 1.11752
 Cu1007 Cu 0.99672 1.09677 1.12844
 Cu1008 Cu 0.99403 1.12876 1.17304
 Cu1009 Cu 0.88937 0.88448 0.96965
 Cu1010 Cu 0.85138 0.84611 0.96011
 Cu1011 Cu 1.11485 0.88654 0.97631
 Cu1012 Cu 1.15482 0.85010 0.97135
 Cu1013 Cu 0.88215 1.10785 1.01159
 Cu1014 Cu 0.84354 1.14581 1.01658
 Cu1015 Cu 1.11587 1.11471 1.02205
 Cu1016 Cu 1.15430 1.15306 1.02979
 Cu1017 Cu 0.88407 0.97583 1.10598
 Cu1018 Cu 0.84602 0.96744 1.14385
 Cu1019 Cu 1.10825 0.97929 1.11345
 Cu1020 Cu 1.14416 0.97186 1.15383
 C1021 C 1.06585 0.89728 1.14402
 H1022 H 1.06193 0.90620 1.12367
 C1023 C 1.07649 0.87370 1.19651
 C1024 C 0.92479 1.04282 1.16367
 H1025 H 0.93268 1.03930 1.14297
 C1026 C 0.90336 1.05269 1.21685
 C1027 C 0.83505 1.05266 1.07496
 H1028 H 0.85450 1.04679 1.06633
 C1029 C 0.78529 1.06875 1.09846
 C1030 C 1.15714 0.91775 1.05828
 H1031 H 1.13984 0.92888 1.04991
 C1032 C 1.20039 0.88708 1.08084
 C1033 C 1.07137 0.82530 1.03766
 H1034 H 1.06277 0.84555 1.03272
 C1035 C 1.09478 0.77363 1.05161
 C1036 C 0.92362 1.14501 1.09178
 H1037 H 0.92680 1.12305 1.08716
 C1038 C 0.91591 1.20206 1.10270
 C1039 C 0.92582 0.89519 1.13907
 H1040 H 0.92976 0.90361 1.11851
 C1041 C 0.91573 0.87308 1.19234
 C1042 C 1.06351 1.04404 1.17010
 H1043 H 1.05663 1.04053 1.14898
 C1044 C 1.08295 1.05382 1.22418
 C1045 C 0.92921 0.82309 1.03269
 H1046 H 0.93805 0.84342 1.02802
 C1047 C 0.90513 0.77126 1.04614
 C1048 C 1.07082 1.15009 1.09894
 H1049 H 1.06448 1.13092 1.08871
 C1050 C 1.08786 1.19943 1.12585
 C1051 C 0.84087 0.91237 1.04770
 H1052 H 0.86050 0.92139 1.04260
 C1053 C 0.79050 0.88799 1.06148
 C1054 C 1.15816 1.05825 1.08670
 H1055 H 1.13866 1.05307 1.07751
 C1056 C 1.20810 1.07211 1.11155
 O1057 O 1.09319 0.50119 0.64670
 O1058 O 1.12313 0.49467 0.68023
 C1059 C 1.10153 0.50604 0.67126
 C1060 C 1.08624 0.52569 0.68911
 C1061 C 1.09399 0.53062 0.71683
 H1062 H 1.11082 0.51921 0.72582
 O1063 O 0.89535 0.44405 0.62752
 O1064 O 0.86354 0.43732 0.65915
 C1065 C 0.88600 0.43048 0.64819
 C1066 C 0.90163 0.40662 0.65941
 C1067 C 0.89677 0.39606 0.68634
 H1068 H 0.88128 0.40558 0.69902
 O1069 O 1.02130 0.61524 0.62508
 O1070 O 1.01990 0.64206 0.66234
 C1071 C 1.02993 0.63628 0.63870
 C1072 C 1.05199 0.65393 0.62693
 C1073 C 1.05793 0.68046 0.63808
 H1074 H 1.04600 0.68821 0.65528
 O1075 O 0.97110 0.34253 0.57233
 O1076 O 0.97082 0.30480 0.59895
 C1077 C 0.96187 0.31828 0.57808
 C1078 C 0.93963 0.30599 0.56124
 C1079 C 0.93045 0.27877 0.56693
 H1080 H 0.94066 0.26615 0.58247
 O1081 O 1.13608 0.59286 0.55187
 O1082 O 1.16686 0.62583 0.55926
 C1083 C 1.15745 0.60149 0.56416
 C1084 C 1.17069 0.58317 0.58500
 C1085 C 1.19501 0.59122 0.59834
 H1086 H 1.20481 0.61079 0.59272
 O1087 O 0.86034 0.39152 0.50626
 O1088 O 0.82895 0.35920 0.49860
 C1089 C 0.83774 0.38014 0.51234
 C1090 C 0.82211 0.39160 0.53588
 C1091 C 0.79414 0.38627 0.53901
 H1092 H 0.78331 0.37350 0.52399
 O1093 O 0.96736 0.57023 0.65391
 O1094 O 0.96559 0.59676 0.69130
 C1095 C 0.95701 0.57585 0.67737
 C1096 C 0.93436 0.55822 0.68810
 C1097 C 0.92369 0.56266 0.71481
 H1098 H 0.93287 0.57838 0.72806
 O1099 O 1.02176 0.37450 0.61906
 O1100 O 1.02097 0.33685 0.64585
 C1101 C 1.02996 0.36126 0.64044
 C1102 C 1.05037 0.37430 0.65896
 C1103 C 1.05519 0.36346 0.68571
 H1104 H 1.04352 0.34559 0.69303
 O1105 O 1.13183 0.45524 0.60028
 O1106 O 1.16235 0.44911 0.63337
 C1107 C 1.15385 0.44449 0.60881
 C1108 C 1.16985 0.42670 0.58984
 C1109 C 1.19763 0.42269 0.59448
 H1110 H 1.20759 0.43268 0.61200
 O1111 O 0.85882 0.50484 0.59963
 O1112 O 0.82696 0.49844 0.63124
 C1113 C 0.83693 0.51251 0.61117
 C1114 C 0.82356 0.53871 0.60201
 C1115 C 0.80045 0.54829 0.61591
 H1116 H 0.79158 0.53568 0.63235
 O1117 O 0.89846 0.62911 0.54994
 O1118 O 0.86772 0.66218 0.55465
 C1119 C 0.88952 0.65047 0.56254
 C1120 C 0.90477 0.66149 0.58665
 C1121 C 0.90096 0.68905 0.59614
 H1122 H 0.88677 0.70260 0.58550
 O1123 O 1.10021 0.35913 0.50798
 O1124 O 1.13188 0.32703 0.50346
 C1125 C 1.10955 0.33505 0.51382
 C1126 C 1.09462 0.31643 0.53333
 C1127 C 1.10477 0.28983 0.54007
 H1128 H 1.12323 0.28252 0.53035
 O1129 O 0.89546 0.49750 0.63730
 O1130 O 0.86360 0.49072 0.66887
 C1131 C 0.88573 0.50227 0.66125
 C1132 C 0.89979 0.52204 0.68016
 C1133 C 0.88960 0.52664 0.70694
 H1134 H 0.87199 0.51493 0.71404
 O1135 O 1.09286 0.44784 0.63579
 O1136 O 1.12295 0.44128 0.66921
 C1137 C 1.10118 0.43418 0.65678
 C1138 C 1.08534 0.40982 0.66677
 C1139 C 1.08995 0.39880 0.69340
 H1140 H 1.10487 0.40880 0.70664
 O1141 O 1.02436 0.34369 0.57498
 O1142 O 1.02396 0.30606 0.60173
 C1143 C 1.03402 0.32000 0.58166
 C1144 C 1.05776 0.30904 0.56655
 C1145 C 1.06853 0.28271 0.57341
 H1146 H 1.05879 0.26978 0.58907
 O1147 O 0.96853 0.61514 0.62338
 O1148 O 0.96731 0.64200 0.66063
 C1149 C 0.95925 0.63621 0.63622
 C1150 C 0.93903 0.65429 0.62255
 C1151 C 0.93520 0.68180 0.63168
 H1152 H 0.94719 0.68973 0.64889
 O1153 O 0.86035 0.59204 0.54310
 O1154 O 0.82926 0.62456 0.54864
 C1155 C 0.83843 0.60034 0.55417
 C1156 C 0.82414 0.58183 0.57433
 C1157 C 0.80084 0.59103 0.58852
 H1158 H 0.79264 0.61154 0.58408
 O1159 O 1.13719 0.39746 0.51473
 O1160 O 1.16925 0.36586 0.50966
 C1161 C 1.15930 0.38655 0.52272
 C1162 C 1.17288 0.39817 0.54774
 C1163 C 1.20072 0.39401 0.55298
 H1164 H 1.21295 0.38212 0.53857
 O1165 O 0.96908 0.37390 0.61595
 O1166 O 0.96869 0.33623 0.64273
 C1167 C 0.95953 0.36026 0.63646
 C1168 C 0.93770 0.37247 0.65339
 C1169 C 0.93261 0.36212 0.68012
 H1170 H 0.94484 0.34511 0.68810
 O1171 O 1.02037 0.57151 0.65678
 O1172 O 1.01875 0.59802 0.69421
 C1173 C 1.02876 0.57755 0.68103
 C1174 C 1.05082 0.56099 0.69370
 C1175 C 1.05924 0.56611 0.72112
 H1176 H 1.04900 0.58169 0.73353
 O1177 O 0.85832 0.45094 0.58956
 O1178 O 0.82606 0.44461 0.62079
 C1179 C 0.83591 0.43982 0.59690
 C1180 C 0.82140 0.42108 0.57736
 C1181 C 0.79352 0.41562 0.58021
 H1182 H 0.78214 0.42530 0.59684
 O1183 O 1.13192 0.50862 0.61108
 O1184 O 1.16198 0.50236 0.64457
 C1185 C 1.15348 0.51609 0.62368
 C1186 C 1.16841 0.54135 0.61427
 C1187 C 1.19256 0.54967 0.62743
 H1188 H 1.20086 0.53689 0.64400
 O1189 O 0.89766 0.35390 0.50194
 O1190 O 0.86681 0.32092 0.49501
 C1191 C 0.88828 0.32953 0.50711
 C1192 C 0.90263 0.31146 0.52759
 C1193 C 0.89310 0.28430 0.53446
 H1194 H 0.87493 0.27588 0.52476
 O1195 O 1.09675 0.62831 0.55654
 O1196 O 1.12729 0.66165 0.56349
 C1197 C 1.10503 0.64961 0.56995
 C1198 C 1.08868 0.66036 0.59334
 C1199 C 1.09433 0.68682 0.60473
 H1200 H 1.11054 0.69931 0.59587
 Cu1201 Cu 1.10941 0.47884 0.62013
 Cu1202 Cu 1.14564 0.47104 0.66019
 Cu1203 Cu 0.88012 0.47481 0.61024
 Cu1204 Cu 0.84173 0.46698 0.64807
 Cu1205 Cu 0.99448 0.59028 0.63610
 Cu1206 Cu 0.99266 0.62229 0.68097
 Cu1207 Cu 0.99670 0.36239 0.59277
 Cu1208 Cu 0.99600 0.31704 0.62481
 C1209 C 1.06436 0.54073 0.67792
 H1210 H 1.05828 0.53718 0.65655
 C1211 C 1.08066 0.55092 0.73286
 C1212 C 0.92228 0.39480 0.64322
 H1213 H 0.92618 0.40280 0.62249
 C1214 C 0.91255 0.37395 0.69703
 C1215 C 1.06734 0.64417 0.60442
 H1216 H 1.06300 0.62366 0.59581
 C1217 C 1.07891 0.69726 0.62696
 C1218 C 0.92594 0.32201 0.54120
 H1219 H 0.93303 0.34311 0.53680
 C1220 C 0.90725 0.26788 0.55398
 C1221 C 1.15782 0.55804 0.59290
 H1222 H 1.13893 0.55188 0.58299
 C1223 C 1.20609 0.57447 0.61965
 C1224 C 0.83545 0.40906 0.55513
 H1225 H 0.85702 0.41319 0.55293
 C1226 C 0.77983 0.39854 0.56099
 C1227 C 0.92236 0.53770 0.67101
 H1228 H 0.93007 0.53449 0.65020
 C1229 C 0.90113 0.54705 0.72432
 C1230 C 1.06540 0.39760 0.64977
 H1231 H 1.06191 0.40595 0.62911
 C1232 C 1.07485 0.37570 0.70319
 C1233 C 1.15769 0.41458 0.56632
 H1234 H 1.13622 0.41781 0.56257
 C1235 C 1.21314 0.40673 0.57608
 C1236 C 0.83511 0.55549 0.58105
 H1237 H 0.85330 0.54845 0.57062
 C1238 C 0.78904 0.57440 0.60954
 C1239 C 0.92393 0.64436 0.59991
 H1240 H 0.92690 0.62307 0.59279
 C1241 C 0.91653 0.69948 0.61843
 C1242 C 1.07088 0.32569 0.54642
 H1243 H 1.06304 0.34628 0.54150
 C1244 C 1.09203 0.27301 0.56028
 O1245 O 1.10277 0.49904 0.36350
 O1246 O 1.13447 0.50563 0.33174
 C1247 C 1.11223 0.49433 0.33944
 C1248 C 1.09747 0.47490 0.32068
 C1249 C 1.10638 0.47043 0.29334
 H1250 H 1.12376 0.48199 0.28545
 O1251 O 0.90264 0.54918 0.36925
 O1252 O 0.87276 0.55532 0.33559
 C1253 C 0.89450 0.56267 0.34807
 C1254 C 0.91051 0.58718 0.33815
 C1255 C 0.90561 0.59908 0.31184
 H1256 H 0.89021 0.58984 0.29862
 O1257 O 0.97510 0.65197 0.42951
 O1258 O 0.97597 0.69009 0.40345
 C1259 C 0.96612 0.67618 0.42366
 C1260 C 0.94342 0.68804 0.43981
 C1261 C 0.93545 0.71582 0.43538
 H1262 H 0.94669 0.72911 0.42109
 O1263 O 1.02888 0.38528 0.38212
 O1264 O 1.02974 0.35823 0.34499
 C1265 C 1.03811 0.36419 0.36928
 C1266 C 1.05848 0.34598 0.38259
 C1267 C 1.06257 0.31901 0.37226
 H1268 H 1.05064 0.31179 0.35471
 O1269 O 1.13842 0.40598 0.46085
 O1270 O 1.16923 0.37317 0.45525
 C1271 C 1.15995 0.39722 0.44928
 C1272 C 1.17343 0.41444 0.42753
 C1273 C 1.19383 0.40272 0.41085
 H1274 H 1.20074 0.38160 0.41492
 O1275 O 0.86260 0.60029 0.48946
 O1276 O 0.83117 0.63255 0.49457
 C1277 C 0.84086 0.61184 0.48137
 C1278 C 0.82716 0.60193 0.45578
 C1279 C 0.80354 0.61517 0.44665
 H1280 H 0.79465 0.63157 0.45912
 O1281 O 1.02904 0.62164 0.38622
 O1282 O 1.02918 0.65961 0.35991
 C1283 C 1.03835 0.63549 0.36567
 C1284 C 1.06025 0.62364 0.34842
 C1285 C 1.06628 0.63537 0.32240
 H1286 H 1.05437 0.65283 0.31491
 O1287 O 0.97611 0.42824 0.34877
 O1288 O 0.97762 0.40121 0.31170
 C1289 C 0.96762 0.42186 0.32465
 C1290 C 0.94546 0.43802 0.31161
 C1291 C 0.93835 0.43309 0.28393
 H1292 H 0.94980 0.41814 0.27186
 O1293 O 1.13976 0.54479 0.41188
 O1294 O 1.17182 0.55169 0.38062
 C1295 C 1.16188 0.55644 0.40453
 C1296 C 1.17549 0.57635 0.42384
 C1297 C 1.20012 0.58967 0.41666
 H1298 H 1.20969 0.58470 0.39709
 O1299 O 0.86457 0.48792 0.39486
 O1300 O 0.83406 0.49397 0.36180
 C1301 C 0.84313 0.48002 0.38241
 C1302 C 0.82916 0.45383 0.39136
 C1303 C 0.80561 0.44468 0.37758
 H1304 H 0.79699 0.45740 0.36114
 O1305 O 1.09945 0.63887 0.50351
 O1306 O 1.13039 0.67181 0.51046
 C1307 C 1.10887 0.66323 0.49849
 C1308 C 1.09517 0.68143 0.47788
 C1309 C 1.10606 0.70791 0.47138
 H1310 H 1.12397 0.71540 0.48223
 O1311 O 0.90168 0.36527 0.44916
 O1312 O 0.87165 0.33158 0.44158
 C1313 C 0.89383 0.34405 0.43545
 C1314 C 0.91068 0.33427 0.41198
 C1315 C 0.90647 0.30763 0.40030
 H1316 H 0.89088 0.29412 0.40889
 O1317 O 0.90098 0.49612 0.35713
 O1318 O 0.87072 0.50195 0.32379
 C1319 C 0.89245 0.49086 0.33270
 C1320 C 0.90805 0.47120 0.31515
 C1321 C 0.90072 0.46545 0.28728
 H1322 H 0.88348 0.47573 0.27778
 O1323 O 1.10314 0.55223 0.37365
 O1324 O 1.13477 0.55898 0.34186
 C1325 C 1.11240 0.56588 0.35297
 C1326 C 1.09679 0.58999 0.34205
 C1327 C 1.10262 0.60201 0.31589
 H1328 H 1.11880 0.59340 0.30347
 O1329 O 0.97606 0.38345 0.37971
 O1330 O 0.97751 0.35654 0.34252
 C1331 C 0.96780 0.36209 0.36629
 C1332 C 0.94680 0.34335 0.37832
 C1333 C 0.94236 0.31667 0.36698
 H1334 H 0.95469 0.30985 0.34969
 O1335 O 1.02835 0.65221 0.43061
 O1336 O 1.02907 0.69015 0.40432
 C1337 C 1.03804 0.67631 0.42494
 C1338 C 1.06063 0.68787 0.44190
 C1339 C 1.07195 0.71428 0.43561
 H1340 H 1.06312 0.72680 0.41919
 O1341 O 0.86264 0.40091 0.45303
 O1342 O 0.83215 0.36785 0.44487
 C1343 C 0.84152 0.39235 0.44030
 C1344 C 0.82825 0.41093 0.41952
 C1345 C 0.80444 0.40233 0.40558
 H1346 H 0.79523 0.38225 0.41047
 O1347 O 1.13684 0.60147 0.49816
 O1348 O 1.16780 0.63431 0.50537
 C1349 C 1.15893 0.61356 0.49142
 C1350 C 1.17392 0.60410 0.46650
 C1351 C 1.19847 0.61708 0.45900
 H1352 H 1.20715 0.63307 0.47232
 O1353 O 1.02947 0.42843 0.34912
 O1354 O 1.03057 0.40140 0.31203
 C1355 C 1.03941 0.42239 0.32551
 C1356 C 1.06194 0.43952 0.31398
 C1357 C 1.07137 0.43502 0.28681
 H1358 H 1.06136 0.41965 0.27374
 O1359 O 0.97599 0.62091 0.38534
 O1360 O 0.97657 0.65895 0.35916
 C1361 C 0.96732 0.63458 0.36447
 C1362 C 0.94620 0.62212 0.34625
 C1363 C 0.94103 0.63369 0.31995
 H1364 H 0.95284 0.65160 0.31294
 O1365 O 0.86274 0.54192 0.40369
 O1366 O 0.83233 0.54860 0.37068
 C1367 C 0.84112 0.55349 0.39506
 C1368 C 0.82690 0.57357 0.41343
 C1369 C 0.80296 0.58712 0.40473
 H1370 H 0.79398 0.58223 0.38474
 O1371 O 1.13936 0.49098 0.40102
 O1372 O 1.17120 0.49728 0.36938
 C1373 C 1.16105 0.48305 0.38927
 C1374 C 1.17373 0.45627 0.39792
 C1375 C 1.19371 0.44389 0.38126
 H1376 H 1.20089 0.45463 0.36277
 O1377 O 1.10015 0.36927 0.45501
 O1378 O 1.13060 0.33598 0.45000
 C1379 C 1.10880 0.34792 0.44222
 C1380 C 1.09321 0.33754 0.41792
 C1381 C 1.09723 0.31048 0.40707
 H1382 H 1.11183 0.29667 0.41675
 O1383 O 0.89878 0.63912 0.49685
 O1384 O 0.86750 0.67165 0.50145
 C1385 C 0.88975 0.66336 0.49107
 C1386 C 0.90534 0.68176 0.47190
 C1387 C 0.89714 0.70948 0.46641
 H1388 H 0.87921 0.71793 0.47625
 Cu1389 Cu 1.11820 0.52123 0.39077
 Cu1390 Cu 1.15650 0.52917 0.35294
 Cu1391 Cu 0.88570 0.51822 0.38451
 Cu1392 Cu 0.84926 0.52571 0.34481
 Cu1393 Cu 1.11427 0.61199 0.52688
 Cu1394 Cu 1.15123 0.65166 0.53540
 Cu1395 Cu 1.11601 0.38626 0.48524
 Cu1396 Cu 1.15349 0.34733 0.47916
 Cu1397 Cu 0.88314 0.61188 0.51942
 Cu1398 Cu 0.84560 0.65086 0.52533
 Cu1399 Cu 0.88358 0.38113 0.47843
 Cu1400 Cu 0.84681 0.34154 0.46922
 Cu1401 Cu 1.00205 0.63290 0.41062
 Cu1402 Cu 1.00268 0.67858 0.37918
 Cu1403 Cu 1.00250 0.40923 0.36859
 Cu1404 Cu 1.00399 0.37675 0.32402
 C1405 C 1.07501 0.45960 0.33065
 H1406 H 1.06816 0.46273 0.35180
 C1407 C 1.09354 0.45042 0.27631
 C1408 C 0.93101 0.59874 0.35509
 H1409 H 0.93484 0.58983 0.37545
 C1410 C 0.92097 0.62227 0.30243
 C1411 C 0.92854 0.67129 0.45846
 H1412 H 0.93463 0.64979 0.46195
 C1413 C 0.91241 0.72657 0.44842
 C1414 C 1.07364 0.35504 0.40557
 H1415 H 1.07045 0.37597 0.41356
 C1416 C 1.08155 0.30099 0.38437
 C1417 C 1.16379 0.44139 0.42111
 H1418 H 1.14773 0.45034 0.43356
 C1419 C 1.20365 0.41707 0.38740
 C1420 C 0.83861 0.58094 0.43920
 H1421 H 0.85727 0.57107 0.44591
 C1422 C 0.79143 0.60815 0.42126
 C1423 C 1.07543 0.60087 0.35798
 H1424 H 1.07090 0.59189 0.37818
 C1425 C 1.08717 0.62465 0.30573
 C1426 C 0.93049 0.45737 0.32695
 H1427 H 0.93599 0.46112 0.34845
 C1428 C 0.91621 0.44660 0.27154
 C1429 C 1.16276 0.58352 0.44897
 H1430 H 1.14355 0.57378 0.45445
 C1431 C 1.21174 0.61015 0.43418
 C1432 C 0.84025 0.43688 0.41244
 H1433 H 0.85874 0.44354 0.42281
 C1434 C 0.79311 0.41908 0.38449
 C1435 C 1.07229 0.67169 0.46320
 H1436 H 1.06405 0.65108 0.46781
 C1437 C 1.09487 0.72434 0.45006
 C1438 C 0.93108 0.35188 0.40100
 H1439 H 0.93434 0.37254 0.40973
 C1440 C 0.92251 0.29849 0.37790
 O1441 O 0.47935 0.92855 0.33958
 O1442 O 0.48170 0.90086 0.30306
 C1443 C 0.47094 0.92131 0.31564
 C1444 C 0.44763 0.93620 0.30305
 C1445 C 0.43603 0.92720 0.27776
 H1446 H 0.44495 0.90998 0.26646
 O1447 O 0.53421 1.12502 0.37993
 O1448 O 0.53598 1.16284 0.35348
 C1449 C 0.54530 1.13909 0.36049
 C1450 C 0.56983 1.12828 0.34650
 C1451 C 0.58328 1.14463 0.32640
 H1452 H 0.57506 1.16473 0.32032
 O1453 O 0.36884 0.99201 0.38606
 O1454 O 0.33849 0.99836 0.35287
 C1455 C 0.34703 0.98476 0.37388
 C1456 C 0.33201 0.95973 0.38375
 C1457 C 0.30762 0.95160 0.37102
 H1458 H 0.29911 0.96451 0.35467
 O1459 O 0.64331 1.04494 0.41102
 O1460 O 0.67662 1.05083 0.38090
 C1461 C 0.66600 1.05589 0.40438
 C1462 C 0.67948 1.07550 0.42389
 C1463 C 0.70608 1.08537 0.41909
 H1464 H 0.71720 1.07760 0.40140
 O1465 O 0.40442 0.87150 0.44038
 O1466 O 0.37347 0.83854 0.43365
 C1467 C 0.39583 0.85028 0.42705
 C1468 C 0.41203 0.83940 0.40356
 C1469 C 0.40608 0.81314 0.39177
 H1470 H 0.38962 0.80078 0.40032
 O1471 O 0.59974 1.14456 0.49700
 O1472 O 0.63083 1.17744 0.50357
 C1473 C 0.60912 1.16890 0.49194
 C1474 C 0.59441 1.18734 0.47244
 C1475 C 0.60088 1.21601 0.47029
 H1476 H 0.61702 1.22507 0.48278
 O1477 O 0.40890 1.05126 0.35978
 O1478 O 0.37929 1.05740 0.32586
 C1479 C 0.40113 1.06440 0.33829
 C1480 C 0.41768 1.08806 0.32773
 C1481 C 0.41355 1.09846 0.30081
 H1482 H 0.39850 1.08845 0.28774
 O1483 O 0.60648 1.00002 0.36169
 O1484 O 0.63929 1.00636 0.33109
 C1485 C 0.61666 0.99535 0.33793
 C1486 C 0.60250 0.97620 0.31845
 C1487 C 0.61357 0.97080 0.29218
 H1488 H 0.63196 0.98158 0.28576
 O1489 O 0.53149 0.88761 0.37608
 O1490 O 0.53385 0.85991 0.33953
 C1491 C 0.54127 0.86633 0.36405
 C1492 C 0.56092 0.84827 0.37871
 C1493 C 0.56430 0.82069 0.36978
 H1494 H 0.55262 0.81311 0.35220
 O1495 O 0.47699 1.15518 0.41867
 O1496 O 0.47845 1.19247 0.39148
 C1497 C 0.46792 1.17904 0.41164
 C1498 C 0.44458 1.19117 0.42658
 C1499 C 0.43594 1.21836 0.42030
 H1500 H 0.44689 1.23085 0.40511
 O1501 O 0.36630 1.10497 0.48003
 O1502 O 0.33385 1.13632 0.48394
 C1503 C 0.34430 1.11567 0.47138
 C1504 C 0.33119 1.10522 0.44570
 C1505 C 0.30741 1.11798 0.43627
 H1506 H 0.29789 1.13399 0.44876
 O1507 O 0.64061 0.90669 0.45975
 O1508 O 0.67148 0.87378 0.45534
 C1509 C 0.66253 0.89783 0.44902
 C1510 C 0.67676 0.91523 0.42796
 C1511 C 0.69873 0.90449 0.41261
 H1512 H 0.70634 0.88374 0.41712
 O1513 O 0.48121 1.12337 0.37526
 O1514 O 0.48313 1.16054 0.34792
 C1515 C 0.47371 1.13629 0.35349
 C1516 C 0.45338 1.12308 0.33492
 C1517 C 0.44898 1.13330 0.30788
 H1518 H 0.46102 1.15078 0.30024
 O1519 O 0.53266 0.93057 0.34289
 O1520 O 0.53530 0.90322 0.30615
 C1521 C 0.54358 0.92440 0.31982
 C1522 C 0.56683 0.94143 0.30948
 C1523 C 0.57835 0.93617 0.28330
 H1524 H 0.56912 0.92057 0.26994
 O1525 O 0.64218 0.99131 0.40036
 O1526 O 0.67495 0.99736 0.36965
 C1527 C 0.66428 0.98342 0.38939
 C1528 C 0.67718 0.95716 0.39873
 C1529 C 0.69890 0.94612 0.38367
 H1530 H 0.70709 0.95768 0.36613
 O1531 O 0.36843 1.04586 0.39402
 O1532 O 0.33851 1.05260 0.36054
 C1533 C 0.34700 1.05755 0.38500
 C1534 C 0.33236 1.07751 0.40306
 C1535 C 0.30835 1.09075 0.39392
 H1536 H 0.29990 1.08599 0.37366
 O1537 O 0.40156 1.14484 0.48650
 O1538 O 0.36919 1.17639 0.48940
 C1539 C 0.39174 1.16840 0.47947
 C1540 C 0.40676 1.18614 0.45917
 C1541 C 0.39780 1.21322 0.45180
 H1542 H 0.37966 1.22180 0.46110
 O1543 O 0.60054 0.87219 0.45277
 O1544 O 0.63081 0.83859 0.44866
 C1545 C 0.60927 0.85069 0.44027
 C1546 C 0.59412 0.84009 0.41570
 C1547 C 0.59731 0.81235 0.40626
 H1548 H 0.61089 0.79837 0.41718
 O1549 O 0.60755 1.05339 0.37254
 O1550 O 0.64079 1.05961 0.34239
 C1551 C 0.61842 1.06730 0.35289
 C1552 C 0.60545 1.09319 0.34270
 C1553 C 0.61844 1.10973 0.32242
 H1554 H 0.63758 1.10305 0.31372
 O1555 O 0.40649 0.99779 0.34914
 O1556 O 0.37626 1.00381 0.31579
 C1557 C 0.39764 0.99218 0.32490
 C1558 C 0.41188 0.97117 0.30765
 C1559 C 0.40097 0.96239 0.28211
 H1560 H 0.38260 0.97200 0.27432
 O1561 O 0.52964 1.15619 0.42337
 O1562 O 0.53086 1.19411 0.39697
 C1563 C 0.53867 1.18068 0.41837
 C1564 C 0.55909 1.19321 0.43721
 C1565 C 0.56527 1.22189 0.43588
 H1566 H 0.55437 1.23541 0.42164
 O1567 O 0.47891 0.88523 0.37181
 O1568 O 0.48159 0.85746 0.33533
 C1569 C 0.47098 0.86363 0.35857
 C1570 C 0.44892 0.84587 0.37020
 C1571 C 0.44273 0.81956 0.35867
 H1572 H 0.45461 0.81197 0.34137
 O1573 O 0.63742 1.10675 0.49357
 O1574 O 0.66878 1.13934 0.50018
 C1575 C 0.66008 1.11791 0.48722
 C1576 C 0.67627 1.10605 0.46431
 C1577 C 0.70280 1.11561 0.45933
 H1578 H 0.71164 1.13128 0.47292
 O1579 O 0.36532 0.90750 0.44528
 O1580 O 0.33412 0.87488 0.43825
 C1581 C 0.34367 0.89915 0.43329
 C1582 C 0.33017 0.91769 0.41278
 C1583 C 0.30560 0.90981 0.39979
 H1584 H 0.29585 0.89021 0.40542
 Cu1585 Cu 0.50536 0.91097 0.36109
 Cu1586 Cu 0.50860 0.87777 0.31720
 Cu1587 Cu 0.50528 1.13610 0.40192
 Cu1588 Cu 0.50719 1.18122 0.36969
 Cu1589 Cu 0.39116 1.02120 0.37560
 Cu1590 Cu 0.35509 1.02881 0.33544
 Cu1591 Cu 0.62160 1.02180 0.38953
 Cu1592 Cu 0.66126 1.02913 0.35295
 C1593 C 0.43544 0.95823 0.31768
 H1594 H 0.44385 0.96479 0.33746
 C1595 C 0.41268 0.94025 0.26715
 C1596 C 0.58101 1.10248 0.35444
 H1597 H 0.57108 1.08997 0.37033
 C1598 C 0.60759 1.13555 0.31432
 C1599 C 0.34295 0.94285 0.40482
 H1600 H 0.36205 0.94886 0.41440
 C1601 C 0.29420 0.92675 0.37882
 C1602 C 0.66492 1.08574 0.44672
 H1603 H 0.64427 1.07858 0.45028
 C1604 C 0.71798 1.10546 0.43683
 C1605 C 0.43358 0.85546 0.39276
 H1606 H 0.43811 0.87582 0.40163
 C1607 C 0.42149 0.80285 0.36940
 C1608 C 0.57344 1.17618 0.45588
 H1609 H 0.56873 1.15399 0.45700
 C1610 C 0.58603 1.23331 0.45238
 C1611 C 0.43778 1.10031 0.34456
 H1612 H 0.44088 1.09246 0.36548
 C1613 C 0.42920 1.12098 0.29056
 C1614 C 0.57894 0.96169 0.32677
 H1615 H 0.57058 0.96543 0.34723
 C1616 C 0.60190 0.95064 0.27456
 C1617 C 0.57565 0.85780 0.40187
 H1618 H 0.57296 0.87916 0.40890
 C1619 C 0.58197 0.80242 0.38350
 C1620 C 0.43015 1.17540 0.44634
 H1621 H 0.43687 1.15439 0.45129
 C1622 C 0.41265 1.22946 0.43259
 C1623 C 0.34343 1.08477 0.42914
 H1624 H 0.36217 1.07526 0.43612
 C1625 C 0.29604 1.11129 0.41046
 C1626 C 0.66640 0.94173 0.42101
 H1627 H 0.64920 0.94995 0.43231
 C1628 C 0.70964 0.91979 0.39016
 O1629 O 0.52259 0.87904 0.61462
 O1630 O 0.52119 0.84133 0.64126
 C1631 C 0.53068 0.86558 0.63589
 C1632 C 0.55128 0.87832 0.65453
 C1633 C 0.55696 0.86632 0.68058
 H1634 H 0.54608 0.84763 0.68712
 O1635 O 0.46417 1.08316 0.64501
 O1636 O 0.46325 1.11011 0.68219
 C1637 C 0.45367 1.08979 0.66817
 C1638 C 0.42914 1.07490 0.67829
 C1639 C 0.41265 1.08768 0.69822
 H1640 H 0.41852 1.10769 0.70709
 O1641 O 0.36269 1.01141 0.59349
 O1642 O 0.32967 1.00509 0.62387
 C1643 C 0.34036 1.01904 0.60404
 C1644 C 0.32777 1.04563 0.59485
 C1645 C 0.30767 1.05770 0.61144
 H1646 H 0.30010 1.04659 0.62954
 O1647 O 0.63214 0.96056 0.59836
 O1648 O 0.66144 0.95519 0.63263
 C1649 C 0.65356 0.94944 0.60804
 C1650 C 0.66853 0.92877 0.59076
 C1651 C 0.69177 0.91508 0.60109
 H1652 H 0.69978 0.92038 0.62141
 O1653 O 0.60086 0.86036 0.50556
 O1654 O 0.63204 0.82764 0.50171
 C1655 C 0.60964 0.83602 0.51148
 C1656 C 0.59357 0.81752 0.53002
 C1657 C 0.60137 0.78962 0.53506
 H1658 H 0.61933 0.78114 0.52532
 O1659 O 0.40076 1.13710 0.54024
 O1660 O 0.36850 1.16879 0.54306
 C1661 C 0.39041 1.15825 0.55210
 C1662 C 0.40307 1.16991 0.57751
 C1663 C 0.39022 1.19139 0.59206
 H1664 H 0.37198 1.20076 0.58362
 O1665 O 0.39919 0.95279 0.62561
 O1666 O 0.36695 0.94671 0.65686
 C1667 C 0.38965 0.93972 0.64650
 C1668 C 0.40509 0.91571 0.65796
 C1669 C 0.40037 0.90510 0.68497
 H1670 H 0.38545 0.91501 0.69809
 O1671 O 0.59109 1.00705 0.64218
 O1672 O 0.61985 1.00210 0.67702
 C1673 C 0.59835 1.01279 0.66691
 C1674 C 0.58165 1.03253 0.68352
 C1675 C 0.58627 1.03669 0.71229
 H1676 H 0.60211 1.02527 0.72299
 O1677 O 0.47061 0.84817 0.56873
 O1678 O 0.46882 0.81065 0.59557
 C1679 C 0.46051 0.82429 0.57452
 C1680 C 0.43832 0.81265 0.55708
 C1681 C 0.42668 0.78642 0.56341
 H1682 H 0.43499 0.77415 0.58029
 O1683 O 0.52045 1.12597 0.61703
 O1684 O 0.51964 1.15244 0.65452
 C1685 C 0.52981 1.14639 0.63108
 C1686 C 0.55314 1.16287 0.62037
 C1687 C 0.56220 1.18696 0.63437
 H1688 H 0.55146 1.19403 0.65265
 O1689 O 0.36561 0.89946 0.49913
 O1690 O 0.33427 0.86691 0.49231
 C1691 C 0.34357 0.88752 0.50623
 C1692 C 0.32911 0.89684 0.53153
 C1693 C 0.30491 0.88342 0.53945
 H1694 H 0.29622 0.86731 0.52628
 O1695 O 0.63391 1.09849 0.54694
 O1696 O 0.66508 1.13125 0.55367
 C1697 C 0.65505 1.10729 0.55937
 C1698 C 0.66733 1.09018 0.58168
 C1699 C 0.68837 1.10142 0.59794
 H1700 H 0.69637 1.12205 0.59312
 O1701 O 0.51721 1.08045 0.64651
 O1702 O 0.51607 1.10676 0.68410
 C1703 C 0.52516 1.08564 0.67106
 C1704 C 0.54537 1.06741 0.68487
 C1705 C 0.54973 1.07042 0.71333
 H1706 H 0.53767 1.08532 0.72481
 O1707 O 0.46997 0.87995 0.61239
 O1708 O 0.46884 0.84247 0.63938
 C1709 C 0.46046 0.86684 0.63327
 C1710 C 0.43971 0.88009 0.65088
 C1711 C 0.43490 0.86987 0.67770
 H1712 H 0.44657 0.85225 0.68524
 O1713 O 0.63089 1.01452 0.60786
 O1714 O 0.65998 1.00973 0.64243
 C1715 C 0.65168 1.02302 0.62115
 C1716 C 0.66553 1.04925 0.61231
 C1717 C 0.68635 1.06113 0.62862
 H1718 H 0.69326 1.05045 0.64721
 O1719 O 0.36285 0.95718 0.58622
 O1720 O 0.33026 0.95023 0.61687
 C1721 C 0.34081 0.94512 0.59335
 C1722 C 0.32774 0.92454 0.57428
 C1723 C 0.30339 0.91077 0.58177
 H1724 H 0.29384 0.91555 0.60142
 O1725 O 0.59712 1.13640 0.55028
 O1726 O 0.62830 1.16922 0.55678
 C1727 C 0.60591 1.15766 0.56346
 C1728 C 0.59025 1.16854 0.58722
 C1729 C 0.59896 1.19270 0.60140
 H1730 H 0.61695 1.20379 0.59442
 O1731 O 0.40167 0.86097 0.49355
 O1732 O 0.37033 0.82840 0.48672
 C1733 C 0.39187 0.83679 0.49877
 C1734 C 0.40498 0.81870 0.51988
 C1735 C 0.39370 0.79240 0.52649
 H1736 H 0.37605 0.78487 0.51522
 O1737 O 0.59240 0.95323 0.63284
 O1738 O 0.62135 0.94814 0.66751
 C1739 C 0.60032 0.94006 0.65432
 C1740 C 0.58513 0.91485 0.66369
 C1741 C 0.59057 0.90256 0.68967
 H1742 H 0.60547 0.91224 0.70317
 O1743 O 0.39589 1.00708 0.63415
 O1744 O 0.36276 1.00111 0.66448
 C1745 C 0.38435 1.01367 0.65684
 C1746 C 0.39520 1.03753 0.67330
 C1747 C 0.37894 1.05077 0.69347
 H1748 H 0.35894 1.04256 0.69843
 O1749 O 0.46745 1.12822 0.61503
 O1750 O 0.46666 1.15489 0.65237
 C1751 C 0.45811 1.14918 0.62812
 C1752 C 0.43614 1.16589 0.61519
 C1753 C 0.42285 1.18760 0.62969
 H1754 H 0.42951 1.19361 0.65032
 O1755 O 0.52371 0.84755 0.57080
 O1756 O 0.52191 0.80973 0.59724
 C1757 C 0.53223 0.82327 0.57705
 C1758 C 0.55499 0.81111 0.56129
 C1759 C 0.56251 0.78311 0.56537
 H1760 H 0.55087 0.76972 0.57923
 O1761 O 0.63589 0.90053 0.51387
 O1762 O 0.66706 0.86784 0.51006
 C1763 C 0.65719 0.88880 0.52290
 C1764 C 0.66991 0.89900 0.54914
 C1765 C 0.69271 0.88548 0.56012
 H1766 H 0.70178 0.86834 0.54880
 O1767 O 0.36451 1.09777 0.53411
 O1768 O 0.33237 1.12945 0.53805
 C1769 C 0.34233 1.10585 0.54478
 C1770 C 0.32877 1.08825 0.56626
 C1771 C 0.30835 1.09974 0.58313
 H1772 H 0.30164 1.12102 0.57962
 Cu1773 Cu 0.49689 0.86738 0.58882
 Cu1774 Cu 0.49500 0.82215 0.62092
 Cu1775 Cu 0.49237 1.10191 0.62704
 Cu1776 Cu 0.49158 1.13361 0.67215
 Cu1777 Cu 0.38735 0.88817 0.47008
 Cu1778 Cu 0.34984 0.84902 0.46196
 Cu1779 Cu 0.61654 0.88822 0.48346
 Cu1780 Cu 0.65360 0.84890 0.47849
 Cu1781 Cu 0.38654 1.11801 0.50991
 Cu1782 Cu 0.34761 1.15577 0.51393
 Cu1783 Cu 0.61391 1.11828 0.52109
 Cu1784 Cu 0.65153 1.15756 0.52902
 Cu1785 Cu 0.38354 0.98237 0.60694
 Cu1786 Cu 0.34402 0.97480 0.64342
 Cu1787 Cu 0.60880 0.98436 0.61688
 Cu1788 Cu 0.64369 0.97826 0.65826
 C1789 C 0.56534 0.90267 0.64636
 H1790 H 0.56118 0.91193 0.62622
 C1791 C 0.57648 0.87831 0.69840
 C1792 C 0.42037 1.04973 0.66605
 H1793 H 0.43270 1.04022 0.65005
 C1794 C 0.38752 1.07606 0.70557
 C1795 C 0.33823 1.06103 0.57220
 H1796 H 0.35448 1.05228 0.55988
 C1797 C 0.29826 1.08477 0.60610
 C1798 C 0.65807 0.92079 0.56456
 H1799 H 0.64001 0.93087 0.55658
 C1800 C 0.70371 0.89322 0.58596
 C1801 C 0.57035 0.82800 0.54320
 H1802 H 0.56461 0.84964 0.53998
 C1803 C 0.58564 0.77234 0.55241
 C1804 C 0.42628 1.15770 0.58894
 H1805 H 0.43591 1.14069 0.57792
 C1806 C 0.39963 1.20018 0.61816
 C1807 C 0.42497 0.90313 0.64127
 H1808 H 0.42864 0.91095 0.62042
 C1809 C 0.41564 0.88227 0.69514
 C1810 C 0.56103 1.04805 0.67010
 H1811 H 0.55767 1.04568 0.64797
 C1812 C 0.56991 1.05543 0.72731
 C1813 C 0.42745 0.82854 0.53512
 H1814 H 0.43595 0.84903 0.53047
 C1815 C 0.40412 0.77626 0.54845
 C1816 C 0.56715 1.15396 0.59667
 H1817 H 0.56050 1.13515 0.58601
 C1818 C 0.58498 1.20213 0.62498
 C1819 C 0.34030 0.91754 0.54897
 H1820 H 0.35925 0.92765 0.54319
 C1821 C 0.29193 0.89007 0.56446
 C1822 C 0.65629 1.06389 0.58875
 H1823 H 0.63975 1.05532 0.57648
 C1824 C 0.69779 1.08725 0.62158
 O1825 O 0.48150 0.41514 0.85245
 O1826 O 0.48332 0.38844 0.81516
 C1827 C 0.47342 0.40928 0.82806
 C1828 C 0.45240 0.42703 0.81469
 C1829 C 0.44477 0.42246 0.78689
 H1830 H 0.45424 0.40596 0.77501
 O1831 O 0.52825 0.62769 0.88961
 O1832 O 0.52852 0.66566 0.86326
 C1833 C 0.53735 0.64132 0.86887
 C1834 C 0.55806 0.62849 0.85085
 C1835 C 0.56327 0.63955 0.82437
 H1836 H 0.55216 0.65775 0.81732
 O1837 O 0.37221 0.48789 0.89159
 O1838 O 0.34309 0.49372 0.85718
 C1839 C 0.35074 0.48051 0.87869
 C1840 C 0.33477 0.45600 0.88837
 C1841 C 0.31000 0.44911 0.87561
 H1842 H 0.30211 0.46240 0.85924
 O1843 O 0.63463 0.54825 0.91208
 O1844 O 0.66600 0.55545 0.88013
 C1845 C 0.65652 0.56008 0.90425
 C1846 C 0.67073 0.57964 0.92340
 C1847 C 0.69583 0.59199 0.91622
 H1848 H 0.70511 0.58694 0.89651
 O1849 O 0.40113 0.36497 0.94540
 O1850 O 0.36988 0.33224 0.93864
 C1851 C 0.39262 0.34341 0.93252
 C1852 C 0.41005 0.33034 0.91133
 C1853 C 0.40772 0.30162 0.90614
 H1854 H 0.39235 0.28932 0.91685
 O1855 O 0.59782 0.64222 1.00517
 O1856 O 0.62974 0.67404 1.01262
 C1857 C 0.60791 0.66640 1.00060
 C1858 C 0.59462 0.68544 0.98043
 C1859 C 0.60651 0.71142 0.97372
 H1860 H 0.62496 0.71802 0.98419
 O1861 O 0.41209 0.54820 0.86584
 O1862 O 0.38282 0.55366 0.83152
 C1863 C 0.40385 0.56167 0.84461
 C1864 C 0.41823 0.58749 0.83571
 C1865 C 0.41275 0.59976 0.80972
 H1866 H 0.39896 0.58927 0.79558
 O1867 O 0.59828 0.49917 0.86607
 O1868 O 0.62955 0.50615 0.83396
 C1869 C 0.60813 0.49366 0.84236
 C1870 C 0.59524 0.47183 0.82470
 C1871 C 0.60414 0.46804 0.79730
 H1872 H 0.61960 0.48186 0.78881
 O1873 O 0.53376 0.37154 0.88524
 O1874 O 0.53608 0.34417 0.84847
 C1875 C 0.54398 0.35066 0.87280
 C1876 C 0.56567 0.33469 0.88711
 C1877 C 0.57011 0.30578 0.88244
 H1878 H 0.55756 0.29433 0.86779
 O1879 O 0.47360 0.65756 0.93166
 O1880 O 0.47393 0.69580 0.90583
 C1881 C 0.46391 0.68141 0.92563
 C1882 C 0.44010 0.69182 0.94123
 C1883 C 0.42864 0.71805 0.93508
 H1884 H 0.43814 0.73152 0.91972
 O1885 O 0.36498 0.59944 0.98856
 O1886 O 0.33119 0.62917 0.99300
 C1887 C 0.34282 0.60964 0.97966
 C1888 C 0.33087 0.59877 0.95336
 C1889 C 0.30367 0.60436 0.94605
 H1890 H 0.29085 0.61631 0.95985
 O1891 O 0.64244 0.41006 0.96292
 O1892 O 0.67520 0.37937 0.95721
 C1893 C 0.66461 0.40293 0.95158
 C1894 C 0.67740 0.42196 0.93088
 C1895 C 0.70171 0.41470 0.91732
 H1896 H 0.71185 0.39536 0.92267
 O1897 O 0.47617 0.62680 0.88738
 O1898 O 0.47653 0.66487 0.86122
 C1899 C 0.46808 0.64009 0.86604
 C1900 C 0.44893 0.62635 0.84656
 C1901 C 0.44329 0.63831 0.82048
 H1902 H 0.45298 0.65790 0.81459
 O1903 O 0.53398 0.41684 0.85495
 O1904 O 0.53638 0.39025 0.81764
 C1905 C 0.54408 0.41177 0.83126
 C1906 C 0.56484 0.43124 0.81949
 C1907 C 0.57430 0.42775 0.79216
 H1908 H 0.56613 0.41092 0.77958
 O1909 O 0.63644 0.49479 0.90270
 O1910 O 0.66772 0.50201 0.87063
 C1911 C 0.65876 0.48820 0.89133
 C1912 C 0.67415 0.46372 0.90154
 C1913 C 0.69833 0.45618 0.88840
 H1914 H 0.70628 0.46913 0.87171
 O1915 O 0.37387 0.54139 0.90221
 O1916 O 0.34422 0.54684 0.86821
 C1917 C 0.35215 0.55216 0.89289
 C1918 C 0.33577 0.57076 0.91098
 C1919 C 0.30859 0.57635 0.90435
 H1920 H 0.29944 0.56694 0.88608
 O1921 O 0.39946 0.63932 0.99872
 O1922 O 0.36596 0.66943 1.00297
 C1923 C 0.38904 0.66298 0.99320
 C1924 C 0.40354 0.68270 0.97446
 C1925 C 0.39259 0.70906 0.96830
 H1926 H 0.37394 0.71549 0.97826
 O1927 O 0.60666 0.37026 0.95641
 O1928 O 0.63921 0.33893 0.95256
 C1929 C 0.61660 0.34887 0.94470
 C1930 C 0.60133 0.33470 0.92242
 C1931 C 0.60543 0.30623 0.91774
 H1932 H 0.62028 0.29500 0.93007
 O1933 O 0.59771 0.55383 0.87377
 O1934 O 0.62885 0.56059 0.84148
 C1935 C 0.60672 0.56750 0.85296
 C1936 C 0.59158 0.59209 0.84258
 C1937 C 0.59669 0.60349 0.81603
 H1938 H 0.61133 0.59357 0.80260
 O1939 O 0.41344 0.49325 0.85824
 O1940 O 0.38423 0.49896 0.82393
 C1941 C 0.40534 0.48729 0.83385
 C1942 C 0.42001 0.46585 0.81724
 C1943 C 0.41327 0.46126 0.78921
 H1944 H 0.39808 0.47419 0.77924
 O1945 O 0.52702 0.65841 0.93374
 O1946 O 0.52780 0.69654 0.90775
 C1947 C 0.53681 0.68248 0.92823
 C1948 C 0.55974 0.69348 0.94509
 C1949 C 0.57204 0.71937 0.93858
 H1950 H 0.56350 0.73219 0.92222
 O1951 O 0.48065 0.37051 0.88280
 O1952 O 0.48288 0.34307 0.84604
 C1953 C 0.47231 0.34928 0.86929
 C1954 C 0.44966 0.33241 0.88087
 C1955 C 0.44718 0.30335 0.87598
 H1956 H 0.46212 0.29262 0.86349
 O1957 O 0.63416 0.60394 0.99884
 O1958 O 0.66609 0.63567 1.00649
 C1959 C 0.65648 0.61558 0.99212
 C1960 C 0.67079 0.60636 0.96671
 C1961 C 0.69575 0.61849 0.95918
 H1962 H 0.70524 0.63375 0.97278
 O1963 O 0.36435 0.40324 0.95100
 O1964 O 0.33293 0.37109 0.94291
 C1965 C 0.34300 0.39530 0.93839
 C1966 C 0.33056 0.41432 0.91767
 C1967 C 0.30565 0.40775 0.90473
 H1968 H 0.29480 0.38882 0.91055
 Cu1969 Cu 0.50737 0.39593 0.87269
 Cu1970 Cu 0.50997 0.36382 0.82807
 Cu1971 Cu 0.50113 0.63900 0.91351
 Cu1972 Cu 0.50171 0.68483 0.88220
 Cu1973 Cu 0.39599 0.51711 0.88273
 Cu1974 Cu 0.36085 0.52398 0.84171
 Cu1975 Cu 0.61349 0.52350 0.89179
 Cu1976 Cu 0.65107 0.53182 0.85326
 C1977 C 0.43989 0.44878 0.82969
 H1978 H 0.44527 0.45211 0.85128
 C1979 C 0.42545 0.43962 0.77397
 C1980 C 0.57211 0.60464 0.85970
 H1981 H 0.56820 0.59609 0.88021
 C1982 C 0.58230 0.62712 0.80662
 C1983 C 0.34473 0.43869 0.90956
 H1984 H 0.36409 0.44375 0.91912
 C1985 C 0.29522 0.42518 0.88364
 C1986 C 0.65859 0.58676 0.94882
 H1987 H 0.63911 0.57763 0.95434
 C1988 C 0.70849 0.61149 0.93406
 C1989 C 0.43106 0.34559 0.89865
 H1990 H 0.43313 0.36780 0.90291
 C1991 C 0.42649 0.28785 0.88923
 C1992 C 0.57107 0.67682 0.96623
 H1993 H 0.56207 0.65658 0.97098
 C1994 C 0.59565 0.72837 0.95259
 C1995 C 0.43647 0.60083 0.85387
 H1996 H 0.44052 0.59160 0.87405
 C1997 C 0.42528 0.62516 0.80183
 C1998 C 0.57537 0.45349 0.83556
 H1999 H 0.56857 0.45614 0.85679
 C2000 C 0.59400 0.44604 0.78094
 C2001 C 0.58139 0.34876 0.90723
 H2002 H 0.57809 0.37084 0.91113
 C2003 C 0.58968 0.29141 0.89846
 C2004 C 0.42749 0.67446 0.96111
 H2005 H 0.43584 0.65397 0.96551
 C2006 C 0.40480 0.72679 0.94850
 C2007 C 0.34669 0.58195 0.93564
 H2008 H 0.36761 0.57754 0.94105
 C2009 C 0.29238 0.59273 0.92182
 C2010 C 0.66396 0.44670 0.92298
 H2011 H 0.64499 0.45223 0.93286
 C2012 C 0.71217 0.43174 0.89587
 O2013 O 0.52231 0.37052 1.11676
 O2014 O 0.52135 0.33228 1.14269
 C2015 C 0.53008 0.35704 1.13810
 C2016 C 0.54988 0.37029 1.15728
 C2017 C 0.55462 0.35915 1.18389
 H2018 H 0.54333 0.34084 1.19078
 O2019 O 0.46732 0.57111 1.15409
 O2020 O 0.46590 0.59664 1.19220
 C2021 C 0.45738 0.57597 1.17788
 C2022 C 0.43511 0.55793 1.18860
 C2023 C 0.42306 0.56391 1.21428
 H2024 H 0.43126 0.58077 1.22676
 O2025 O 0.36398 0.50117 1.09965
 O2026 O 0.33195 0.49446 1.13103
 C2027 C 0.34169 0.50832 1.11072
 C2028 C 0.32716 0.53345 1.10073
 C2029 C 0.30289 0.54123 1.11360
 H2030 H 0.29436 0.52802 1.12976
 O2031 O 0.63298 0.45352 1.10307
 O2032 O 0.66195 0.44787 1.13765
 C2033 C 0.65471 0.44300 1.11284
 C2034 C 0.67117 0.42423 1.09539
 C2035 C 0.69335 0.40957 1.10671
 H2036 H 0.69932 0.41282 1.12815
 O2037 O 0.60617 0.36145 1.00948
 O2038 O 0.63991 0.33143 1.00583
 C2039 C 0.61717 0.33839 1.01617
 C2040 C 0.60431 0.32043 1.03762
 C2041 C 0.62079 0.30292 1.05400
 H2042 H 0.64242 0.30172 1.05007
 O2043 O 0.39776 0.62759 1.05155
 O2044 O 0.36445 0.65786 1.05615
 C2045 C 0.38666 0.64742 1.06481
 C2046 C 0.39919 0.65767 1.09107
 C2047 C 0.38581 0.67752 1.10743
 H2048 H 0.36669 0.68622 1.10045
 O2049 O 0.40075 0.44029 1.12767
 O2050 O 0.36816 0.43358 1.15842
 C2051 C 0.39036 0.42607 1.14736
 C2052 C 0.40317 0.39965 1.15655
 C2053 C 0.39008 0.38279 1.17633
 H2054 H 0.37161 0.38994 1.18616
 O2055 O 0.59047 0.49881 1.14673
 O2056 O 0.61997 0.49311 1.18081
 C2057 C 0.59844 0.50407 1.17134
 C2058 C 0.58340 0.52391 1.18902
 C2059 C 0.59206 0.52848 1.21637
 H2060 H 0.60868 0.51627 1.22465
 O2061 O 0.47405 0.33870 1.06776
 O2062 O 0.47389 0.29959 1.09226
 C2063 C 0.46498 0.31410 1.07199
 C2064 C 0.44280 0.30307 1.05402
 C2065 C 0.43355 0.27524 1.05670
 H2066 H 0.44388 0.26117 1.07080
 O2067 O 0.52027 0.61753 1.12605
 O2068 O 0.51884 0.64373 1.16371
 C2069 C 0.52882 0.63835 1.13997
 C2070 C 0.55095 0.65602 1.12846
 C2071 C 0.55730 0.68222 1.14007
 H2072 H 0.54546 0.68989 1.15737
 O2073 O 0.36146 0.39148 1.00418
 O2074 O 0.32921 0.36010 0.99651
 C2075 C 0.33883 0.38025 1.01069
 C2076 C 0.32412 0.39075 1.03534
 C2077 C 0.29616 0.38539 1.03937
 H2078 H 0.28461 0.37376 1.02401
 O2079 O 0.63291 0.59359 1.05241
 O2080 O 0.66462 0.62550 1.06024
 C2081 C 0.65452 0.60135 1.06479
 C2082 C 0.66742 0.58238 1.08533
 C2083 C 0.69207 0.58978 1.09837
 H2084 H 0.70220 0.60918 1.09275
 O2085 O 0.51990 0.57336 1.15760
 O2086 O 0.51881 0.59919 1.19551
 C2087 C 0.52843 0.57872 1.18200
 C2088 C 0.55001 0.56109 1.19438
 C2089 C 0.55949 0.56582 1.22169
 H2090 H 0.55053 0.58218 1.23412
 O2091 O 0.46999 0.36652 1.11392
 O2092 O 0.46904 0.32740 1.13843
 C2093 C 0.45970 0.35158 1.13325
 C2094 C 0.43633 0.36246 1.14931
 C2095 C 0.42252 0.34560 1.16906
 H2096 H 0.42900 0.32434 1.17314
 O2097 O 0.62885 0.50703 1.11096
 O2098 O 0.65842 0.50156 1.14505
 C2099 C 0.65004 0.51498 1.12383
 C2100 C 0.66485 0.54031 1.11435
 C2101 C 0.68933 0.54810 1.12714
 H2102 H 0.69773 0.53500 1.14340
 O2103 O 0.36286 0.44734 1.09063
 O2104 O 0.33037 0.44119 1.12166
 C2105 C 0.34026 0.43643 1.09780
 C2106 C 0.32525 0.41820 1.07813
 C2107 C 0.29748 0.41268 1.08186
 H2108 H 0.28680 0.42192 1.09920
 O2109 O 0.59511 0.63067 1.05786
 O2110 O 0.62656 0.66297 1.06538
 C2111 C 0.60398 0.65148 1.07162
 C2112 C 0.58786 0.66225 1.09513
 C2113 C 0.59397 0.68838 1.10696
 H2114 H 0.61057 0.70058 1.09847
 O2115 O 0.40050 0.35598 0.99809
 O2116 O 0.36872 0.32381 0.99142
 C2117 C 0.39104 0.33159 1.00253
 C2118 C 0.40619 0.31205 1.02070
 C2119 C 0.39747 0.28419 1.02351
 H2120 H 0.37973 0.27698 1.01216
 O2121 O 0.59129 0.44509 1.13544
 O2122 O 0.62031 0.43976 1.17003
 C2123 C 0.59925 0.43179 1.15680
 C2124 C 0.58389 0.40675 1.16621
 C2125 C 0.58848 0.39527 1.19266
 H2126 H 0.60294 0.40533 1.20641
 O2127 O 0.39924 0.49428 1.13910
 O2128 O 0.36713 0.48716 1.17029
 C2129 C 0.38899 0.49927 1.16282
 C2130 C 0.40186 0.52032 1.18139
 C2131 C 0.38999 0.52679 1.20714
 H2132 H 0.37210 0.51539 1.21399
 O2133 O 0.46713 0.61728 1.12576
 O2134 O 0.46554 0.64300 1.16372
 C2135 C 0.45686 0.63732 1.13949
 C2136 C 0.43374 0.65317 1.12756
 C2137 C 0.42009 0.67344 1.14347
 H2138 H 0.42709 0.67867 1.16419
 O2139 O 0.52784 0.34100 1.07257
 O2140 O 0.52792 0.30265 1.09827
 C2141 C 0.53879 0.31802 1.07966
 C2142 C 0.56579 0.31036 1.06834
 C2143 C 0.58278 0.29317 1.08437
 H2144 H 0.57539 0.28427 1.10371
 O2145 O 0.64214 0.40015 1.01679
 O2146 O 0.67567 0.37026 1.01136
 C2147 C 0.66439 0.38962 1.02507
 C2148 C 0.67613 0.39849 1.05199
 C2149 C 0.69792 0.38376 1.06371
 H2150 H 0.70760 0.36726 1.05201
 O2151 O 0.36177 0.58886 1.04221
 O2152 O 0.32834 0.61897 1.04687
 C2153 C 0.33895 0.59546 1.05258
 C2154 C 0.32537 0.57602 1.07241
 C2155 C 0.30100 0.58354 1.08581
 H2156 H 0.29147 0.60329 1.08081
 Cu2157 Cu 0.49840 0.35785 1.09001
 Cu2158 Cu 0.49805 0.31130 1.12003
 Cu2159 Cu 0.49388 0.59237 1.13705
 Cu2160 Cu 0.49218 0.62326 1.18258
 Cu2161 Cu 0.38475 0.38240 0.97537
 Cu2162 Cu 0.34683 0.34371 0.96669
 Cu2163 Cu 0.62123 0.38882 0.98672
 Cu2164 Cu 0.66099 0.35210 0.98097
 Cu2165 Cu 0.38420 0.61071 1.01976
 Cu2166 Cu 0.34412 0.64684 1.02515
 Cu2167 Cu 0.61192 0.61431 1.02785
 Cu2168 Cu 0.65005 0.65263 1.03704
 Cu2169 Cu 0.38508 0.47134 1.11124
 Cu2170 Cu 0.34631 0.46340 1.14860
 Cu2171 Cu 0.60790 0.47646 1.12061
 Cu2172 Cu 0.64304 0.47004 1.16187
 C2173 C 0.56447 0.39422 1.14874
 H2174 H 0.56105 0.40285 1.12818
 C2175 C 0.57380 0.37160 1.20179
 C2176 C 0.42454 0.53592 1.17239
 H2177 H 0.43343 0.53152 1.15230
 C2178 C 0.40018 0.54881 1.22356
 C2179 C 0.33813 0.55077 1.07992
 H2180 H 0.35715 0.54505 1.07026
 C2181 C 0.28977 0.56623 1.10665
 C2182 C 0.66313 0.41895 1.06788
 H2183 H 0.64579 0.42983 1.05925
 C2184 C 0.70651 0.38899 1.09106
 C2185 C 0.57678 0.32401 1.04488
 H2186 H 0.56431 0.33845 1.03312
 C2187 C 0.61035 0.29019 1.07792
 C2188 C 0.42334 0.64583 1.10122
 H2189 H 0.43344 0.62993 1.08908
 C2190 C 0.39597 0.68533 1.13359
 C2191 C 0.42653 0.38952 1.14344
 H2192 H 0.43648 0.40234 1.12781
 C2193 C 0.39923 0.35578 1.18237
 C2194 C 0.56211 0.54000 1.17827
 H2195 H 0.55554 0.53668 1.15702
 C2196 C 0.58073 0.54958 1.23277
 C2197 C 0.42908 0.32123 1.03575
 H2198 H 0.43567 0.34287 1.03392
 C2199 C 0.41076 0.26570 1.04158
 C2200 C 0.56619 0.64635 1.10585
 H2201 H 0.56154 0.62605 1.09691
 C2202 C 0.57861 0.69878 1.12927
 C2203 C 0.33836 0.40717 1.05484
 H2204 H 0.35983 0.41139 1.05190
 C2205 C 0.28274 0.39671 1.06248
 C2206 C 0.65415 0.55742 1.09328
 H2207 H 0.63499 0.55171 1.08363
 C2208 C 0.70313 0.57267 1.11934
 N2209 N 1.11369 1.04253 1.26215
 N2210 N 1.12554 1.05448 1.28380
 C2211 C 1.11407 1.07982 1.28647
 C2212 C 1.09459 1.08307 1.26592
 N2213 N 1.09523 1.05926 1.25090
 H2214 H 1.08311 1.10167 1.26093
 N2215 N 1.09942 0.53664 0.77753
 N2216 N 1.10725 0.54783 0.80140
 C2217 C 1.10151 0.57540 0.79997
 C2218 C 1.08996 0.58090 0.77437
 N2219 N 1.08907 0.55607 0.76100
 H2220 H 1.08458 0.60104 0.76563
 N2221 N 0.55347 1.07081 0.77181
 N2222 N 0.56282 1.08423 0.79384
 C2223 C 0.59003 1.08247 0.79275
 C2224 C 0.59725 1.06735 0.76937
 N2225 N 0.57361 1.06092 0.75648
 H2226 H 0.61731 1.06539 0.76043
 N2227 N 0.61083 0.53862 1.27141
 N2228 N 0.62192 0.55067 1.29344
 C2229 C 0.61008 0.57586 1.29585
 C2230 C 0.59117 0.57892 1.27474
 N2231 N 0.59249 0.55515 1.25969
 H2232 H 0.57958 0.59738 1.26952
 N2233 N 0.93080 0.84639 1.23268
 N2234 N 0.92279 0.83918 1.25797
 C2235 C 0.89830 0.85096 1.26172
 C2236 C 0.89146 0.86577 1.23792
 N2237 N 0.91243 0.86231 1.22021
 H2238 H 0.87309 0.87738 1.23377
 N2239 N 0.92581 0.34495 0.73647
 N2240 N 0.91917 0.34001 0.76266
 C2241 C 0.89777 0.35647 0.76816
 C2242 C 0.89136 0.37169 0.74458
 N2243 N 0.90949 0.36384 0.72515
 H2244 H 0.87537 0.38689 0.74199
 N2245 N 0.42998 0.85377 0.73456
 N2246 N 0.42239 0.84688 0.76006
 C2247 C 0.39934 0.86096 0.76496
 C2248 C 0.39293 0.87679 0.74174
 N2249 N 0.41269 0.87164 0.72310
 H2250 H 0.37553 0.89014 0.73861
 N2251 N 0.35594 0.33481 1.19231
 N2252 N 0.34146 0.32788 1.21442
 C2253 C 0.35896 0.32658 1.23591
 C2254 C 0.38484 0.33277 1.22626
 N2255 N 0.38196 0.33800 1.19879
 H2256 H 0.40282 0.33728 1.23851
 N2257 N 0.86864 1.16158 0.80051
 N2258 N 0.85292 1.17108 0.78036
 C2259 C 0.86851 1.17282 0.75742
 C2260 C 0.89452 1.16419 0.76411
 N2261 N 0.89359 1.15724 0.79133
 H2262 H 0.91104 1.15964 0.75004
 N2263 N 0.93338 0.65300 0.26360
 N2264 N 0.92482 0.65999 0.23840
 C2265 C 0.90201 0.64496 0.23386
 C2266 C 0.89675 0.62855 0.25689
 N2267 N 0.91689 0.63414 0.27512
 H2268 H 0.87990 0.61424 0.26001
 N2269 N 0.44261 1.14821 0.24956
 N2270 N 0.43435 1.15305 0.22376
 C2271 C 0.41115 1.13828 0.22043
 C2272 C 0.40532 1.12434 0.24474
 N2273 N 0.42553 1.13099 0.26253
 H2274 H 0.38805 1.11086 0.24889
 N2275 N 0.43550 0.65754 0.76366
 N2276 N 0.42603 0.66476 0.73885
 C2277 C 0.40380 0.64876 0.73442
 C2278 C 0.39984 0.63152 0.75710
 N2279 N 0.42016 0.63759 0.77498
 H2280 H 0.38367 0.61638 0.76027
 N2281 N 1.12877 0.96203 0.73146
 N2282 N 1.13847 0.94986 0.70883
 C2283 C 1.12592 0.92475 0.70709
 C2284 C 1.10842 0.92175 0.72912
 N2285 N 1.11071 0.94552 0.74396
 H2286 H 1.09653 0.90340 0.73453
 N2287 N 1.11763 0.46412 0.23399
 N2288 N 1.12557 0.45317 0.21010
 C2289 C 1.11605 0.42661 0.20969
 C2290 C 1.10206 0.42150 0.23401
 N2291 N 1.10350 0.44552 0.24865
 H2292 H 1.09300 0.40197 0.24095
 N2293 N 0.63469 0.95934 0.23726
 N2294 N 0.64471 0.94676 0.21503
 C2295 C 0.63085 0.92246 0.21240
 C2296 C 0.61197 0.92052 0.23349
 N2297 N 0.61504 0.94399 0.24867
 H2298 H 0.59846 0.90316 0.23813
 N2299 N 0.61855 0.46128 0.73935
 N2300 N 0.62768 0.45096 0.71562
 C2301 C 0.61912 0.42409 0.71469
 C2302 C 0.60437 0.41822 0.73840
 N2303 N 0.60454 0.44203 0.75334
 H2304 H 0.59570 0.39833 0.74479
 N2305 N 1.23972 1.06980 1.15048
 N2306 N 1.26416 1.07885 1.15786
 C2307 C 1.27354 1.09439 1.13645
 C2308 C 1.25407 1.09479 1.11568
 N2309 N 1.23321 1.07910 1.12535
 H2310 H 1.25513 1.10486 1.09552
 N2311 N 1.23705 0.57280 0.65923
 N2312 N 1.26041 0.58370 0.66778
 C2313 C 1.26882 0.60121 0.64748
 C2314 C 1.24990 0.60087 0.62619
 N2315 N 1.23031 0.58279 0.63442
 H2316 H 1.25053 0.61217 0.60667
 N2317 N 0.71924 1.09541 0.66667
 N2318 N 0.73806 1.11175 0.67806
 C2319 C 0.74822 1.12774 0.65734
 C2320 C 0.73539 1.12068 0.63291
 N2321 N 0.71733 1.10042 0.63962
 H2322 H 0.73907 1.12914 0.61236
 N2323 N 0.73478 0.56978 1.15821
 N2324 N 0.75846 0.58014 1.16644
 C2325 C 0.76667 0.59787 1.14627
 C2326 C 0.74741 0.59825 1.12542
 N2327 N 0.72772 0.58034 1.13374
 H2328 H 0.74789 0.60993 1.10612
 N2329 N 1.23713 0.93184 0.84785
 N2330 N 1.25993 0.92105 0.83834
 C2331 C 1.26884 0.90336 0.85816
 C2332 C 1.25081 0.90343 0.88016
 N2333 N 1.23125 0.92164 0.87281
 H2334 H 1.25203 0.89199 0.89957
 N2335 N 1.22048 0.40777 0.34082
 N2336 N 1.23824 0.39171 0.32790
 C2337 C 1.25083 0.37656 0.34774
 C2338 C 1.24024 0.38373 0.37334
 N2339 N 1.22134 0.40339 0.36802
 H2340 H 1.24586 0.37589 0.39368
 N2341 N 0.73347 0.91619 0.34609
 N2342 N 0.75435 0.90322 0.33479
 C2343 C 0.76453 0.88633 0.35463
 C2344 C 0.74931 0.88923 0.37856
 N2345 N 0.73008 0.90822 0.37229
 H2346 H 0.75250 0.87949 0.39864
 N2347 N 0.74075 0.43363 0.85474
 N2348 N 0.76371 0.42337 0.84501
 C2349 C 0.77360 0.40651 0.86505
 C2350 C 0.75599 0.40655 0.88743
 N2351 N 0.73568 0.42387 0.88006
 H2352 H 0.75790 0.39557 0.90704
 N2353 N 0.75605 0.85124 1.05651
 N2354 N 0.73277 0.84293 1.06770
 C2355 C 0.72689 0.86167 1.08763
 C2356 C 0.74721 0.88172 1.08846
 N2357 N 0.76517 0.87441 1.06865
 H2358 H 0.74873 0.89960 1.10215
 N2359 N 0.73444 0.41669 0.55544
 N2360 N 0.70981 0.41223 0.56564
 C2361 C 0.71084 0.38777 0.57965
 C2362 C 0.73693 0.37754 0.57822
 N2363 N 0.75092 0.39607 0.56257
 H2364 H 0.74555 0.36028 0.58984
 N2365 N 0.26113 0.84989 0.56177
 N2366 N 0.23809 0.84052 0.57264
 C2367 C 0.23002 0.86014 0.59082
 C2368 C 0.24874 0.88183 0.59093
 N2369 N 0.26795 0.87457 0.57243
 H2370 H 0.24823 0.90098 0.60289
 N2371 N 0.23998 0.42041 1.06409
 N2372 N 0.21552 0.41678 1.07480
 C2373 C 0.21345 0.38957 1.08214
 C2374 C 0.23761 0.37641 1.07543
 N2375 N 0.25367 0.39664 1.06425
 H2376 H 0.24414 0.35566 1.08153
 N2377 N 0.74951 1.06328 0.89903
 N2378 N 0.72576 1.06864 0.88747
 C2379 C 0.72180 1.09638 0.89007
 C2380 C 0.74387 1.10804 0.90405
 N2381 N 0.76086 1.08645 0.90901
 H2382 H 0.74848 1.13000 0.90734
 N2383 N 0.76461 0.65052 0.41957
 N2384 N 0.74098 0.65961 0.41028
 C2385 C 0.72954 0.63809 0.39639
 C2386 C 0.74687 0.61544 0.39719
 N2387 N 0.76857 0.62418 0.41201
 H2388 H 0.74358 0.59456 0.38906
 N2389 N 0.26907 1.15349 0.40906
 N2390 N 0.24553 1.16270 0.39969
 C2391 C 0.23437 1.14153 0.38505
 C2392 C 0.25191 1.11895 0.38540
 N2393 N 0.27333 1.12740 0.40087
 H2394 H 0.24891 1.09826 0.37670
 N2395 N 0.24953 0.56935 0.91418
 N2396 N 0.22456 0.57466 0.90577
 C2397 C 0.22262 0.60273 0.90310
 C2398 C 0.24741 0.61472 0.91050
 N2399 N 0.26360 0.59288 0.91716
 H2400 H 0.25367 0.63647 0.90912
 N2401 N 1.08729 1.23230 1.16463
 N2402 N 1.09722 1.25710 1.17182
 C2403 C 1.11345 1.26566 1.15087
 C2404 C 1.11306 1.24539 1.13041
 N2405 N 1.09638 1.22479 1.13985
 H2406 H 1.12270 1.24634 1.11023
 N2407 N 1.06905 0.73663 0.65771
 N2408 N 1.07789 0.76232 0.66323
 C2409 C 1.09926 0.76697 0.64636
 C2410 C 1.10335 0.74352 0.63036
 N2411 N 1.08397 0.72490 0.63804
 H2412 H 1.11874 0.74064 0.61467
 N2413 N 0.58530 1.23332 0.66505
 N2414 N 0.59538 1.25786 0.67285
 C2415 C 0.61104 1.26704 0.65173
 C2416 C 0.61023 1.24758 0.63064
 N2417 N 0.59384 1.22674 0.63980
 H2418 H 0.61938 1.24923 0.61027
 N2419 N 0.57067 0.73699 1.16200
 N2420 N 0.57976 0.76255 1.16772
 C2421 C 0.59981 0.76793 1.14942
 C2422 C 0.60284 0.74510 1.13235
 N2423 N 0.58420 0.72607 1.14086
 H2424 H 0.61699 0.74293 1.11537
 N2425 N 0.88005 1.26542 0.95920
 N2426 N 0.87046 1.28894 0.94843
 C2427 C 0.88229 1.29189 0.92337
 C2428 C 0.89940 1.26961 0.91900
 N2429 N 0.89741 1.25349 0.94191
 H2430 H 0.91053 1.26459 0.90032
 N2431 N 0.92179 0.77617 0.44326
 N2432 N 0.91218 0.79774 0.42903
 C2433 C 0.88784 0.78966 0.41889
 C2434 C 0.88296 0.76230 0.42691
 N2435 N 0.90453 0.75476 0.44240
 H2436 H 0.86729 0.74827 0.41923
 N2437 N 0.42157 1.27789 0.42001
 N2438 N 0.41004 1.29809 0.40532
 C2439 C 0.38428 1.28976 0.40049
 C2440 C 0.38040 1.26361 0.41230
 N2441 N 0.40418 1.25702 0.42451
 H2442 H 0.36341 1.24942 0.40918
 N2443 N 0.37370 0.76532 0.95728
 N2444 N 0.36349 0.78752 0.94453
 C2445 C 0.37598 0.78925 0.91969
 C2446 C 0.39416 0.76752 0.91748
 N2447 N 0.39210 0.75297 0.94149
 H2448 H 0.40633 0.76194 0.89966
 N2449 N 1.14270 0.78277 0.84907
 N2450 N 1.15350 0.75776 0.84502
 C2451 C 1.13326 0.73894 0.84823
 C2452 C 1.10962 0.75317 0.85457
 N2453 N 1.11638 0.78065 0.85460
 H2454 H 1.09048 0.74435 0.86154
 N2455 N 1.06470 0.26096 0.35814
 N2456 N 1.07238 0.23585 0.34987
 C2457 C 1.09735 0.23194 0.36054
 C2458 C 1.10485 0.25527 0.37573
 N2459 N 1.08378 0.27301 0.37364
 H2460 H 1.12384 0.25926 0.38642
 N2461 N 0.56395 0.76193 0.35873
 N2462 N 0.57035 0.73583 0.35252
 C2463 C 0.59442 0.73097 0.36482
 C2464 C 0.60270 0.75477 0.37887
 N2465 N 0.58301 0.77372 0.37446
 H2466 H 0.62134 0.75819 0.39035
 N2467 N 0.59531 0.24667 0.92124
 N2468 N 0.60464 0.22134 0.91588
 C2469 C 0.60782 0.22012 0.88819
 C2470 C 0.60011 0.24540 0.87650
 N2471 N 0.59235 0.26146 0.89804
 H2472 H 0.60239 0.25225 0.85515
 N2473 N 0.87218 0.73330 1.03916
 N2474 N 0.86153 0.71172 1.05282
 C2475 C 0.87462 0.71049 1.07740
 C2476 C 0.89355 0.73184 1.07852
 N2477 N 0.89143 0.74569 1.05415
 H2478 H 0.90638 0.73755 1.09591
 N2479 N 0.91445 0.21904 0.56514
 N2480 N 0.90395 0.19983 0.58200
 C2481 C 0.87971 0.20967 0.59018
 C2482 C 0.87573 0.23560 0.57810
 N2483 N 0.89784 0.24062 0.56234
 H2484 H 0.86030 0.25077 0.58327
 N2485 N 0.37177 0.73783 0.54105
 N2486 N 0.36125 0.71608 0.55456
 C2487 C 0.37412 0.71498 0.57926
 C2488 C 0.39277 0.73658 0.58062
 N2489 N 0.39072 0.75046 0.55627
 H2490 H 0.40536 0.74240 0.59815
 N2491 N 0.38144 0.22605 1.02920
 N2492 N 0.37211 0.20242 1.04029
 C2493 C 0.38522 0.19935 1.06467
 C2494 C 0.40276 0.22165 1.06832
 N2495 N 0.39980 0.23795 1.04569
 H2496 H 0.41464 0.22664 1.08661
 N2497 N 1.14458 1.16502 0.80145
 N2498 N 1.15843 1.17342 0.77943
 C2499 C 1.14055 1.17515 0.75826
 C2500 C 1.11504 1.16762 0.76807
 N2501 N 1.11860 1.16122 0.79521
 H2502 H 1.09704 1.16291 0.75593
 N2503 N 1.07652 0.65703 0.26799
 N2504 N 1.08458 0.66391 0.24262
 C2505 C 1.10585 0.64737 0.23684
 C2506 C 1.11067 0.63007 0.25945
 N2507 N 1.09177 0.63680 0.27856
 H2508 H 1.12612 0.61421 0.26157
 N2509 N 0.61801 1.18076 0.29313
 N2510 N 0.63269 1.19159 0.27270
 C2511 C 0.64625 1.17014 0.26112
 C2512 C 0.63956 1.14574 0.27507
 N2513 N 0.62170 1.15333 0.29487
 H2514 H 0.64584 1.12459 0.27041
 N2515 N 0.56871 0.65606 0.76722
 N2516 N 0.57678 0.66297 0.74186
 C2517 C 0.60002 0.64903 0.73740
 C2518 C 0.60607 0.63328 0.76072
 N2519 N 0.58590 0.63829 0.77896
 H2520 H 0.62343 0.61992 0.76408
 N2521 N 0.93735 0.94597 0.71246
 N2522 N 0.92633 0.93587 0.68942
 C2523 C 0.90041 0.92881 0.69547
 C2524 C 0.89599 0.93449 0.72322
 N2525 N 0.91948 0.94531 0.73296
 H2526 H 0.87891 0.92785 0.73583
 N2527 N 0.93001 0.43520 0.22508
 N2528 N 0.92123 0.41939 0.20440
 C2529 C 0.89468 0.41447 0.20907
 C2530 C 0.88728 0.42793 0.23339
 N2531 N 0.91023 0.44033 0.24298
 H2532 H 0.86877 0.42487 0.24517
 N2533 N 0.38378 0.94689 0.22672
 N2534 N 0.37116 0.93205 0.20739
 C2535 C 0.37957 0.90537 0.21030
 C2536 C 0.39810 0.90429 0.23201
 N2537 N 0.39990 0.93078 0.24186
 H2538 H 0.40719 0.88593 0.24133
 N2539 N 0.41046 0.45599 0.72855
 N2540 N 0.40229 0.44585 0.70434
 C2541 C 0.40511 0.41779 0.70572
 C2542 C 0.41520 0.41091 0.73169
 N2543 N 0.41819 0.43546 0.74530
 H2544 H 0.41790 0.39024 0.74054
 N2545 N 1.06496 0.84288 1.23553
 N2546 N 1.07406 0.83595 1.26056
 C2547 C 1.09696 0.85106 1.26462
 C2548 C 1.10169 0.86746 1.24142
 N2549 N 1.08115 0.86178 1.22368
 H2550 H 1.11843 0.88179 1.23782
 N2551 N 1.06177 0.34773 0.74380
 N2552 N 1.07019 0.34243 0.76947
 C2553 C 1.09348 0.35706 0.77289
 C2554 C 1.09920 0.37139 0.74870
 N2555 N 1.07881 0.36511 0.73098
 H2556 H 1.11643 0.38491 0.74453
 N2557 N 0.56557 0.84666 0.73698
 N2558 N 0.57495 0.83941 0.76182
 C2559 C 0.59767 0.85473 0.76595
 C2560 C 0.60204 0.87157 0.74305
 N2561 N 0.58145 0.86596 0.72533
 H2562 H 0.61861 0.88617 0.73967
 N2563 N 0.55923 0.34547 1.24298
 N2564 N 0.56773 0.33969 1.26851
 C2565 C 0.59243 0.35182 1.27112
 C2566 C 0.59892 0.36514 1.24654
 N2567 N 0.57756 0.36077 1.22948
 H2568 H 0.61721 0.37682 1.24162
 N2569 N 0.87371 1.04072 1.25590
 N2570 N 0.86475 1.05159 1.27944
 C2571 C 0.87729 1.07660 1.28213
 C2572 C 0.89420 1.08084 1.25967
 N2573 N 0.89140 1.05787 1.24367
 H2574 H 0.90635 1.09923 1.25500
 N2575 N 0.87043 0.53625 0.76293
 N2576 N 0.86071 0.54815 0.78568
 C2577 C 0.87357 0.57303 0.78795
 C2578 C 0.89138 0.57614 0.76611
 N2579 N 0.88885 0.55267 0.75086
 H2580 H 0.90364 0.59432 0.76100
 N2581 N 0.36118 1.11754 0.71476
 N2582 N 0.35177 1.13152 0.73641
 C2583 C 0.35427 1.11440 0.75854
 C2584 C 0.36594 1.08965 0.74998
 N2585 N 0.36958 1.09232 0.72237
 H2586 H 0.37387 1.07297 0.76288
 N2587 N 0.36656 0.54179 1.26044
 N2588 N 0.35624 0.55529 1.28198
 C2589 C 0.37000 0.57975 1.28380
 C2590 C 0.38907 0.58088 1.26291
 N2591 N 0.38630 0.55672 1.24868
 H2592 H 0.40264 0.59808 1.25794
 N2593 N 1.12214 1.27004 0.96416
 N2594 N 1.13153 1.29342 0.95257
 C2595 C 1.11843 1.29601 0.92812
 C2596 C 1.10086 1.27371 0.92493
 N2597 N 1.10374 1.25787 0.94791
 H2598 H 1.08890 1.26847 0.90677
 N2599 N 1.12656 0.76327 0.45765
 N2600 N 1.13695 0.78507 0.44414
 C2601 C 1.12428 0.78591 0.41932
 C2602 C 1.10585 0.76410 0.41790
 N2603 N 1.10787 0.75036 0.44233
 H2604 H 1.09352 0.75796 0.40027
 N2605 N 0.57409 1.28240 0.45259
 N2606 N 0.58283 1.30592 0.44089
 C2607 C 0.60771 1.30065 0.43058
 C2608 C 0.61378 1.27302 0.43594
 N2609 N 0.59242 1.26244 0.44992
 H2610 H 0.62994 1.26083 0.42682
 N2611 N 0.62928 0.76573 0.95940
 N2612 N 0.64025 0.78712 0.94570
 C2613 C 0.62704 0.78865 0.92122
 C2614 C 0.60766 0.76768 0.92021
 N2615 N 0.60968 0.75375 0.94454
 H2616 H 0.59458 0.76225 0.90292
 N2617 N 0.90670 1.24809 1.08402
 N2618 N 0.89859 1.27291 1.09263
 C2619 C 0.90060 1.27287 1.12056
 C2620 C 0.90945 1.24663 1.12892
 N2621 N 0.91314 1.23187 1.10538
 H2622 H 0.90935 1.23800 1.14976
 N2623 N 0.93466 0.74140 0.64056
 N2624 N 0.92790 0.76761 0.64588
 C2625 C 0.90286 0.77117 0.63521
 C2626 C 0.89432 0.74642 0.62310
 N2627 N 0.91490 0.72829 0.62694
 H2628 H 0.87509 0.74195 0.61307
 N2629 N 0.35632 1.21814 0.63245
 N2630 N 0.34543 1.24221 0.63976
 C2631 C 0.36616 1.25968 0.64591
 C2632 C 0.39041 1.24543 0.64230
 N2633 N 0.38320 1.21952 0.63347
 H2634 H 0.41078 1.25414 0.64194
 N2635 N 0.35316 0.69552 1.15514
 N2636 N 0.34013 0.71705 1.16573
 C2637 C 0.35853 0.73786 1.16907
 C2638 C 0.38363 0.72829 1.16025
 N2639 N 0.37914 0.70175 1.15144
 H2640 H 0.40198 0.74044 1.15674
 N2641 N 0.93271 0.75922 0.83847
 N2642 N 0.92370 0.73356 0.83312
 C2643 C 0.90275 0.72894 0.85054
 C2644 C 0.89907 0.75234 0.86668
 N2645 N 0.91827 0.77092 0.85853
 H2646 H 0.88409 0.75520 0.88278
 N2647 N 0.93331 0.26165 0.34461
 N2648 N 0.92622 0.23559 0.33834
 C2649 C 0.90686 0.22814 0.35669
 C2650 C 0.90216 0.25024 0.37434
 N2651 N 0.91914 0.27092 0.36610
 H2652 H 0.88787 0.25101 0.39134
 N2653 N 0.43041 0.76448 0.33711
 N2654 N 0.42124 0.73909 0.33077
 C2655 C 0.40021 0.73389 0.34794
 C2656 C 0.39668 0.75679 0.36500
 N2657 N 0.41604 0.77555 0.35758
 H2658 H 0.38167 0.75931 0.38114
 N2659 N 0.42681 0.24416 0.91399
 N2660 N 0.41719 0.21842 0.91102
 C2661 C 0.41061 0.21557 0.88400
 C2662 C 0.41670 0.24043 0.87027
 N2663 N 0.42666 0.25783 0.88997
 H2664 H 0.41086 0.24650 0.84941
 N2665 N 1.12692 0.73583 1.04387
 N2666 N 1.13780 0.71432 1.05716
 C2667 C 1.12538 0.71282 1.08205
 C2668 C 1.10638 0.73393 1.08366
 N2669 N 1.10808 0.74794 1.05931
 H2670 H 1.09384 0.73949 1.10121
 N2671 N 1.12027 0.23231 0.55186
 N2672 N 1.13183 0.21168 0.56587
 C2673 C 1.12246 0.21317 0.59215
 C2674 C 1.10451 0.23521 0.59385
 N2675 N 1.10395 0.24677 0.56821
 H2676 H 1.09506 0.24368 0.61227
 N2677 N 0.57604 0.72256 0.55623
 N2678 N 0.58620 0.70030 0.56891
 C2679 C 0.61089 0.70785 0.57860
 C2680 C 0.61538 0.73565 0.57196
 N2681 N 0.59327 0.74394 0.55772
 H2682 H 0.63125 0.74932 0.57984
 N2683 N 0.62837 0.29301 1.12430
 N2684 N 0.64424 0.27910 1.14153
 C2685 C 0.65484 0.25766 1.12703
 C2686 C 0.64514 0.25892 1.09995
 N2687 N 0.62841 0.28124 1.09945
 H2688 H 0.64782 0.24399 1.08331
 N2689 N 1.26203 1.11315 0.95208
 N2690 N 1.28704 1.11774 0.94294
 C2691 C 1.28699 1.11108 0.91575
 C2692 C 1.26115 1.10247 0.90834
 N2693 N 1.24608 1.10409 0.93171
 H2694 H 1.25379 1.09729 0.88777
 N2695 N 1.24409 0.64895 0.43831
 N2696 N 1.26686 0.65841 0.42691
 C2697 C 1.27357 0.63977 0.40719
 C2698 C 1.25432 0.61862 0.40669
 N2699 N 1.23614 0.62516 0.42651
 H2700 H 1.25370 0.60043 0.39333
 N2701 N 0.75599 1.13678 0.44719
 N2702 N 0.78007 1.14419 0.43732
 C2703 C 0.78444 1.12792 0.41500
 C2704 C 0.76237 1.11034 0.41131
 N2705 N 0.74488 1.11660 0.43194
 H2706 H 0.75916 1.09536 0.39480
 N2707 N 0.74211 0.64907 0.93798
 N2708 N 0.76551 0.65726 0.92703
 C2709 C 0.77203 0.63789 0.90794
 C2710 C 0.75195 0.61754 0.90735
 N2711 N 0.73353 0.62536 0.92650
 H2712 H 0.75097 0.59900 0.89449
 N2713 N 1.22171 0.84175 1.08686
 N2714 N 1.24083 0.82954 1.10186
 C2715 C 1.25151 0.84959 1.11831
 C2716 C 1.23847 0.87456 1.11309
 N2717 N 1.21994 0.86867 1.09323
 H2718 H 1.24217 0.89482 1.12246
 N2719 N 1.25706 0.42940 0.57948
 N2720 N 1.28159 0.42431 0.58948
 C2721 C 1.28188 0.39696 0.59648
 C2722 C 1.25679 0.38526 0.59043
 N2723 N 1.24198 0.40630 0.57966
 H2724 H 1.24931 0.36450 0.59558
 N2725 N 0.72807 0.84971 0.59259
 N2726 N 0.75088 0.84020 0.60352
 C2727 C 0.76325 0.86220 0.61580
 C2728 C 0.74727 0.88571 0.61216
 N2729 N 0.72547 0.87687 0.59742
 H2730 H 0.75169 0.90712 0.61811
 N2731 N 0.72851 0.34411 1.09701
 N2732 N 0.74919 0.33268 1.11029
 C2733 C 0.76048 0.35300 1.12602
 C2734 C 0.74608 0.37749 1.12200
 N2735 N 0.72631 0.37092 1.10356
 H2736 H 0.75042 0.39815 1.13020
 N2737 N 0.74593 1.06075 1.12835
 N2738 N 0.72599 1.07480 1.14023
 C2739 C 0.72759 1.10124 1.13047
 C2740 C 0.74932 1.10312 1.11241
 N2741 N 0.76034 1.07726 1.11166
 H2742 H 0.75751 1.12189 1.10280
 N2743 N 0.76138 0.57482 0.65138
 N2744 N 0.73982 0.58734 0.66182
 C2745 C 0.73125 0.60557 0.64233
 C2746 C 0.74818 0.60397 0.61952
 N2747 N 0.76680 0.58440 0.62608
 H2748 H 0.74678 0.61534 0.60008
 N2749 N 0.28123 1.09226 0.65291
 N2750 N 0.26256 1.10690 0.66613
 C2751 C 0.24980 1.12225 0.64661
 C2752 C 0.26108 1.11671 0.62099
 N2753 N 0.28065 1.09778 0.62589
 H2754 H 0.25522 1.12484 0.60084
 N2755 N 0.25975 0.56274 1.14667
 N2756 N 0.23742 0.57397 1.15688
 C2757 C 0.22942 0.59336 1.13832
 C2758 C 0.24750 0.59386 1.11636
 N2759 N 0.26624 0.57429 1.12244
 H2760 H 0.24696 0.60692 1.09794
 N2761 N 0.76644 0.93009 0.83949
 N2762 N 0.74254 0.91990 0.83167
 C2763 C 0.73472 0.90185 0.85172
 C2764 C 0.75450 0.90112 0.87209
 N2765 N 0.77408 0.91913 0.86361
 H2766 H 0.75445 0.88900 0.89113
 N2767 N 0.76417 0.41843 0.34335
 N2768 N 0.74100 0.40738 0.33448
 C2769 C 0.73150 0.39125 0.35538
 C2770 C 0.74950 0.39261 0.37740
 N2771 N 0.76969 0.40988 0.36898
 H2772 H 0.74772 0.38282 0.39764
 N2773 N 0.26263 0.92914 0.33981
 N2774 N 0.23925 0.91825 0.33134
 C2775 C 0.23132 0.90015 0.35129
 C2776 C 0.25049 0.90009 0.37228
 N2777 N 0.26981 0.91858 0.36426
 H2778 H 0.25018 0.88822 0.39147
 N2779 N 0.26376 0.42865 0.84461
 N2780 N 0.23943 0.41963 0.83679
 C2781 C 0.23017 0.40322 0.85757
 C2782 C 0.24949 0.40226 0.87838
 N2783 N 0.27025 0.41849 0.86942
 H2784 H 0.24835 0.39140 0.89812
   
