data_POSCAR
  _audit_creation_date              2014-09-24
  _audit_creation_method            'ToBaCCo'
  _symmetry_space_group_name_H-M    'P1'
  _symmetry_Int_Tables_number       1
  _symmetry_cell_setting            triclinic
  loop_
  _symmetry_equiv_pos_as_xyz
 x,y,z
_cell_length_a 46.1094
_cell_length_b 46.1205
_cell_length_c 46.4158
_cell_angle_alpha 88.541600
_cell_angle_beta 91.244400
_cell_angle_gamma 90.001800
loop_
  _atom_site_label
  _atom_site_type_symbol
  _atom_site_fract_x
  _atom_site_fract_y
  _atom_site_fract_z
C1 C 0.13843 -0.02793 0.26500
 C2 C 0.12539 -0.00100 0.26908
 C3 C 0.11546 0.00601 0.29636
 C4 C 0.11747 -0.01420 0.31932
 C5 C 0.13091 -0.04111 0.31522
 C6 C 0.14213 -0.04814 0.28818
 C7 C 0.12365 0.02047 0.24500
 C8 C 0.10814 0.01431 0.21949
 C9 C 0.10562 0.03539 0.19695
 C10 C 0.11936 0.06236 0.20042
 C11 C 0.13667 0.06771 0.22487
 C12 C 0.13814 0.04696 0.24742
 H13 H 0.14685 -0.03184 0.24393
 H14 H 0.10565 0.02702 0.29955
 H15 H 0.09710 -0.00633 0.21815
 H16 H 0.15063 0.05133 0.26689
 H17 H 0.13318 -0.05627 0.33338
 H18 H 0.11788 0.07883 0.18333
 C19 C 0.35249 -0.03293 0.73516
 C20 C 0.36801 -0.00700 0.73298
 C21 C 0.38617 -0.00186 0.70968
 C22 C 0.38837 -0.02227 0.68800
 C23 C 0.37335 -0.04881 0.69072
 C24 C 0.35562 -0.05433 0.71460
 C25 C 0.36611 0.01426 0.75578
 C26 C 0.38851 0.01598 0.77653
 C27 C 0.38658 0.03550 0.79926
 C28 C 0.36202 0.05344 0.80028
 C29 C 0.34019 0.05281 0.77870
 C30 C 0.34194 0.03250 0.75694
 H31 H 0.33876 -0.03686 0.75354
 H32 H 0.39812 0.01835 0.70818
 H33 H 0.40654 0.00114 0.77516
 H34 H 0.32503 0.03149 0.74041
 H35 H 0.37548 -0.06504 0.67446
 H36 H 0.36000 0.06827 0.81788
 C37 C 0.86235 0.46685 0.23129
 C38 C 0.86870 0.49620 0.22589
 C39 C 0.88065 0.50487 0.19950
 C40 C 0.88777 0.48410 0.17926
 C41 C 0.88146 0.45472 0.18496
 C42 C 0.86810 0.44604 0.21056
 C43 C 0.86590 0.51718 0.24911
 C44 C 0.88392 0.51420 0.27369
 C45 C 0.88299 0.53451 0.29586
 C46 C 0.86352 0.55797 0.29264
 C47 C 0.84494 0.56091 0.26821
 C48 C 0.84628 0.54033 0.24653
 H49 H 0.85342 0.46025 0.25183
 H50 H 0.88591 0.52749 0.19544
 H51 H 0.89931 0.49653 0.27444
 H52 H 0.83229 0.54247 0.22752
 H53 H 0.88617 0.43867 0.16905
 H54 H 0.86218 0.57350 0.30969
 C55 C 0.64057 0.45231 0.76956
 C56 C 0.62426 0.47773 0.76571
 C57 C 0.60590 0.48652 0.78753
 C58 C 0.60447 0.47049 0.81356
 C59 C 0.62171 0.44546 0.81761
 C60 C 0.63935 0.43599 0.79546
 C61 C 0.62815 0.49614 0.73971
 C62 C 0.61829 0.48698 0.71265
 C63 C 0.62243 0.50452 0.68795
 C64 C 0.63787 0.53071 0.69039
 C65 C 0.64853 0.53973 0.71731
 C66 C 0.64322 0.52237 0.74197
 H67 H 0.65499 0.44586 0.75273
 H68 H 0.59307 0.50610 0.78439
 H69 H 0.60683 0.46655 0.71095
 H70 H 0.65185 0.52833 0.76286
 H71 H 0.62055 0.43269 0.83747
 H72 H 0.64192 0.54391 0.67124
 C73 C 0.24718 0.12604 1.05375
 C74 C 0.24145 0.11236 1.02763
 C75 C 0.21976 0.09119 1.02596
 C76 C 0.20368 0.08322 1.05051
 C77 C 0.21050 0.09648 1.07675
 C78 C 0.23167 0.11820 1.07846
 C79 C 0.26128 0.11686 1.00351
 C80 C 0.28596 0.09934 1.00254
 C81 C 0.30720 0.10442 0.98185
 C82 C 0.30278 0.12723 0.96131
 C83 C 0.27720 0.14385 0.96102
 C84 C 0.25653 0.13876 0.98242
 H85 H 0.26467 0.14167 1.05504
 H86 H 0.21679 0.08035 1.00574
 H87 H 0.28902 0.08224 1.01883
 H88 H 0.23722 0.15210 0.98302
 H89 H 0.19869 0.09047 1.09597
 H90 H 0.31824 0.13137 0.94450
 C91 C 0.75434 0.37199 1.03177
 C92 C 0.75745 0.38722 1.00544
 C93 C 0.78344 0.40163 0.99959
 C94 C 0.80695 0.39972 1.01901
 C95 C 0.80443 0.38300 1.04452
 C96 C 0.77799 0.36957 1.05159
 C97 C 0.73402 0.38778 0.98333
 C98 C 0.70790 0.40216 0.98823
 C99 C 0.68724 0.40645 0.96560
 C100 C 0.69316 0.39546 0.93832
 C101 C 0.71838 0.37943 0.93380
 C102 C 0.73900 0.37611 0.95629
 H103 H 0.73408 0.36089 1.03572
 H104 H 0.78545 0.41418 0.97965
 H105 H 0.70501 0.41158 1.00908
 H106 H 0.75931 0.36510 0.95266
 H107 H 0.82270 0.38170 1.05961
 H108 H 0.67760 0.39856 0.92063
 C109 C 0.25463 0.87776 0.53924
 C110 C 0.25787 0.88880 0.51121
 C111 C 0.28243 0.90506 0.50419
 C112 C 0.30470 0.90938 0.52471
 C113 C 0.30137 0.89789 0.55297
 C114 C 0.27641 0.88213 0.56032
 C115 C 0.23580 0.88308 0.48885
 C116 C 0.20974 0.89863 0.48801
 C117 C 0.18977 0.89517 0.46511
 C118 C 0.19610 0.87608 0.44312
 C119 C 0.22175 0.85961 0.44446
 C120 C 0.24148 0.86312 0.46744
 H121 H 0.23505 0.86597 0.54450
 H122 H 0.28448 0.91364 0.48234
 H123 H 0.20553 0.91411 0.50461
 H124 H 0.26161 0.85094 0.46827
 H125 H 0.31765 0.90164 0.56961
 H126 H 0.18066 0.87342 0.42544
 C127 C 0.74017 0.64344 0.53095
 C128 C 0.73595 0.62386 0.50867
 C129 C 0.71210 0.60501 0.50903
 C130 C 0.69278 0.60509 0.53203
 C131 C 0.69767 0.62419 0.55465
 C132 C 0.72119 0.64362 0.55413
 C133 C 0.75768 0.62127 0.48616
 C134 C 0.78362 0.60639 0.49245
 C135 C 0.80333 0.60064 0.47063
 C136 C 0.79703 0.61130 0.44238
 C137 C 0.77201 0.62789 0.43639
 C138 C 0.75202 0.63225 0.45824
 H139 H 0.75870 0.65791 0.53066
 H140 H 0.70935 0.58958 0.49197
 H141 H 0.78781 0.59826 0.51429
 H142 H 0.73205 0.64402 0.45356
 H143 H 0.68270 0.62436 0.57233
 H144 H 0.81223 0.60851 0.42523
 C145 C -0.03286 0.24701 0.14199
 C146 C -0.00825 0.25050 0.12508
 C147 C -0.00525 0.27523 0.10743
 C148 C -0.02714 0.29655 0.10588
 C149 C -0.05231 0.29219 0.12199
 C150 C -0.05514 0.26773 0.14043
 C151 C 0.01378 0.22758 0.12432
 C152 C 0.01060 0.20544 0.10446
 C153 C 0.03121 0.18310 0.10323
 C154 C 0.05573 0.18386 0.12213
 C155 C 0.05980 0.20697 0.14101
 C156 C 0.03849 0.22861 0.14222
 H157 H -0.03489 0.22789 0.15587
 H158 H 0.01368 0.27682 0.09411
 H159 H -0.00840 0.20548 0.09025
 H160 H 0.04097 0.24616 0.15717
 H161 H -0.06912 0.30864 0.12123
 H162 H 0.07257 0.16760 0.12137
 C163 C -0.03074 0.74466 0.36075
 C164 C -0.00583 0.74190 0.37846
 C165 C -0.00125 0.71637 0.39499
 C166 C -0.02095 0.69331 0.39320
 C167 C -0.04539 0.69596 0.37469
 C168 C -0.05062 0.72172 0.35877
 C169 C 0.01605 0.76520 0.37839
 C170 C 0.00819 0.79363 0.38482
 C171 C 0.02859 0.81626 0.38312
 C172 C 0.05648 0.81035 0.37306
 C173 C 0.06452 0.78182 0.36685
 C174 C 0.04447 0.75928 0.37025
 H175 H -0.03399 0.76426 0.34770
 H176 H 0.01782 0.71436 0.40899
 H177 H -0.01386 0.79800 0.39105
 H178 H 0.05058 0.73733 0.36515
 H179 H -0.06095 0.67840 0.37342
 H180 H 0.07222 0.82769 0.37101
 C181 C 0.45942 0.26723 0.86732
 C182 C 0.48619 0.25834 0.87924
 C183 C 0.48912 0.23046 0.89176
 C184 C 0.46478 0.21195 0.89390
 C185 C 0.43772 0.22197 0.88308
 C186 C 0.43521 0.24913 0.86885
 C187 C 0.51108 0.27832 0.87759
 C188 C 0.50911 0.30601 0.88926
 C189 C 0.53087 0.32696 0.88435
 C190 C 0.55406 0.31979 0.86673
 C191 C 0.55685 0.29176 0.85616
 C192 C 0.53541 0.27096 0.86184
 H193 H 0.45758 0.28821 0.85633
 H194 H 0.51005 0.22406 0.90079
 H195 H 0.48980 0.31126 0.90090
 H196 H 0.53669 0.24970 0.85251
 H197 H 0.41904 0.20772 0.88385
 H198 H 0.57066 0.33578 0.86198
 C199 C 0.45712 0.74203 0.61748
 C200 C 0.48517 0.75194 0.61115
 C201 C 0.48885 0.78026 0.60009
 C202 C 0.46472 0.79833 0.59484
 C203 C 0.43690 0.78801 0.60092
 C204 C 0.43303 0.76005 0.61281
 C205 C 0.51033 0.73230 0.61553
 C206 C 0.50780 0.70320 0.60795
 C207 C 0.53098 0.68384 0.61239
 C208 C 0.55663 0.69355 0.62570
 C209 C 0.55970 0.72286 0.63286
 C210 C 0.53671 0.74221 0.62733
 H211 H 0.45408 0.72056 0.62698
 H212 H 0.51029 0.78772 0.59435
 H213 H 0.48763 0.69562 0.59842
 H214 H 0.53903 0.76469 0.63323
 H215 H 0.41824 0.80190 0.59664
 H216 H 0.57457 0.67863 0.62940
 C217 C 0.86688 1.03019 0.75797
 C218 C 0.87784 1.00283 0.76643
 C219 C 0.88927 0.99845 0.79455
 C220 C 0.88961 1.02129 0.81435
 C221 C 0.87783 1.04830 0.80541
 C222 C 0.86696 1.05312 0.77716
 C223 C 0.87705 0.97892 0.74562
 C224 C 0.88771 0.98355 0.71775
 C225 C 0.88544 0.96187 0.69690
 C226 C 0.87207 0.93542 0.70470
 C227 C 0.86189 0.93012 0.73276
 C228 C 0.86439 0.95212 0.75302
 H229 H 0.85785 1.03354 0.73638
 H230 H 0.89737 0.97713 0.80060
 H231 H 0.89709 1.00446 0.71265
 H232 H 0.85590 0.94863 0.77442
 H233 H 0.87698 1.06561 0.82070
 H234 H 0.86922 0.91902 0.68859
 C235 C 0.35393 0.54486 0.25507
 C236 C 0.36589 0.51737 0.26134
 C237 C 0.37543 0.51047 0.28960
 C238 C 0.37353 0.53091 0.31147
 C239 C 0.36137 0.55831 0.30475
 C240 C 0.35181 0.56562 0.27645
 C241 C 0.36917 0.49617 0.23812
 C242 C 0.37975 0.50542 0.21136
 C243 C 0.38321 0.48592 0.18911
 C244 C 0.37622 0.45647 0.19395
 C245 C 0.36551 0.44663 0.22064
 C246 C 0.36227 0.46676 0.24271
 H247 H 0.34624 0.55017 0.23333
 H248 H 0.38436 0.48916 0.29426
 H249 H 0.38574 0.52796 0.20792
 H250 H 0.35453 0.45996 0.26360
 H251 H 0.35921 0.57377 0.32174
 H252 H 0.37955 0.44099 0.17720
 C253 C 0.62508 1.04983 0.22996
 C254 C 0.61478 1.02158 0.22603
 C255 C 0.60627 1.01289 0.19847
 C256 C 0.60678 1.03257 0.17491
 C257 C 0.61748 1.06071 0.17902
 C258 C 0.62704 1.06940 0.20638
 C259 C 0.61198 1.00128 0.25086
 C260 C 0.59680 1.00971 0.27505
 C261 C 0.59397 0.99084 0.29898
 C262 C 0.60613 0.96273 0.29791
 C263 C 0.62116 0.95387 0.27365
 C264 C 0.62380 0.97333 0.25006
 H265 H 0.63131 1.05649 0.25142
 H266 H 0.59885 0.99085 0.19571
 H267 H 0.58735 1.03125 0.27524
 H268 H 0.63465 0.96692 0.23080
 H269 H 0.61825 1.07595 0.16087
 H270 H 0.60340 0.94712 0.31541
 C271 C 0.12935 0.54454 0.72961
 C272 C 0.11771 0.51730 0.72279
 C273 C 0.10792 0.51239 0.69447
 C274 C 0.10918 0.53447 0.67311
 C275 C 0.12102 0.56141 0.68025
 C276 C 0.13127 0.56667 0.70833
 C277 C 0.11537 0.49398 0.74521
 C278 C 0.10485 0.50015 0.77252
 C279 C 0.10285 0.47830 0.79391
 C280 C 0.11065 0.44969 0.78750
 C281 C 0.12084 0.44301 0.76008
 C282 C 0.12341 0.46540 0.73925
 H283 H 0.13668 0.54844 0.75148
 H284 H 0.09930 0.49130 0.68925
 H285 H 0.09826 0.52207 0.77721
 H286 H 0.13200 0.46060 0.71835
 H287 H 0.12217 0.57849 0.66382
 H288 H 0.10899 0.43282 0.80396
 C289 C 0.75219 0.86548 -0.04673
 C290 C 0.74543 0.87536 -0.01927
 C291 C 0.71954 0.89063 -0.01560
 C292 C 0.70061 0.89647 -0.03910
 C293 C 0.70735 0.88603 -0.06623
 C294 C 0.73293 0.87037 -0.07033
 C295 C 0.76575 0.87074 0.00559
 C296 C 0.79521 0.87761 0.00287
 C297 C 0.81458 0.87517 0.02679
 C298 C 0.80380 0.86499 0.05330
 C299 C 0.77419 0.85862 0.05645
 C300 C 0.75544 0.86110 0.03240
 H301 H 0.77241 0.85409 -0.04945
 H302 H 0.71434 0.89801 0.00563
 H303 H 0.80247 0.88493 -0.01803
 H304 H 0.73266 0.85588 0.03465
 H305 H 0.69248 0.89010 -0.08430
 H306 H 0.81849 0.86238 0.07173
 C307 C 0.25000 0.35324 0.47225
 C308 C 0.24084 0.36492 0.49820
 C309 C 0.21197 0.37447 0.50036
 C310 C 0.19235 0.37214 0.47687
 C311 C 0.20190 0.36011 0.45131
 C312 C 0.23082 0.35110 0.44860
 C313 C 0.26136 0.36619 0.52322
 C314 C 0.28977 0.37650 0.51962
 C315 C 0.30972 0.37692 0.54304
 C316 C 0.30096 0.36587 0.57003
 C317 C 0.27283 0.35482 0.57386
 C318 C 0.25297 0.35577 0.55043
 H319 H 0.27208 0.34552 0.47050
 H320 H 0.20480 0.38320 0.52043
 H321 H 0.29612 0.38385 0.49838
 H322 H 0.23103 0.34794 0.55307
 H323 H 0.18656 0.35758 0.43354
 H324 H 0.31628 0.36547 0.58810
 C325 C 0.25176 0.64964 -0.03303
 C326 C 0.25791 0.63604 -0.00619
 C327 C 0.28524 0.62350 -0.00088
 C328 C 0.30648 0.62430 -0.02202
 C329 C 0.29996 0.63781 -0.04894
 C330 C 0.27252 0.65037 -0.05468
 C331 C 0.23539 0.63380 0.01595
 C332 C 0.20804 0.62245 0.00879
 C333 C 0.18658 0.61923 0.02979
 C334 C 0.19280 0.62874 0.05782
 C335 C 0.22007 0.64011 0.06539
 C336 C 0.24149 0.64214 0.04431
 H337 H 0.23062 0.65935 -0.03719
 H338 H 0.28979 0.61259 0.01970
 H339 H 0.20399 0.61626 -0.01322
 H340 H 0.26296 0.65011 0.04958
 H341 H 0.31604 0.63839 -0.06551
 H342 H 0.17639 0.62682 0.07417
 C343 C 0.75703 0.15656 0.47053
 C344 C 0.76395 0.13953 0.49505
 C345 C 0.79138 0.12631 0.49777
 C346 C 0.81203 0.12968 0.47577
 C347 C 0.80432 0.14693 0.45117
 C348 C 0.77694 0.16040 0.44850
 C349 C 0.74282 0.13715 0.51852
 C350 C 0.71416 0.12810 0.51285
 C351 C 0.69361 0.12763 0.53488
 C352 C 0.70192 0.13717 0.56229
 C353 C 0.73026 0.14676 0.56807
 C354 C 0.75083 0.14603 0.54623
 H355 H 0.73609 0.16724 0.46876
 H356 H 0.79606 0.11374 0.51725
 H357 H 0.70798 0.12192 0.49123
 H358 H 0.77293 0.15296 0.55041
 H359 H 0.81991 0.15038 0.43428
 H360 H 0.68609 0.13743 0.57922
 C361 C 1.04116 0.74566 0.85910
 C362 C 1.01590 0.75214 0.87382
 C363 C 1.01171 0.78013 0.88407
 C364 C 1.03284 0.80191 0.87992
 C365 C 1.05778 0.79504 0.86449
 C366 C 1.06233 0.76686 0.85455
 C367 C 0.99400 0.72939 0.87890
 C368 C 1.00210 0.70302 0.89246
 C369 C 0.98134 0.68115 0.89769
 C370 C 0.95254 0.68608 0.88816
 C371 C 0.94434 0.71219 0.87415
 C372 C 0.96513 0.73403 0.87010
 H373 H 1.04437 0.72396 0.85127
 H374 H 0.99186 0.78430 0.89517
 H375 H 1.02466 0.70005 0.89857
 H376 H 0.95908 0.75464 0.86001
 H377 H 1.07383 0.81172 0.86038
 H378 H 0.93625 0.66942 0.89154
 C379 C 0.54369 0.25037 0.36647
 C380 C 0.51714 0.25830 0.37803
 C381 C 0.51349 0.28620 0.38852
 C382 C 0.53646 0.30625 0.38799
 C383 C 0.56289 0.29820 0.37573
 C384 C 0.56673 0.27011 0.36501
 C385 C 0.49324 0.23715 0.37918
 C386 C 0.49745 0.21055 0.39369
 C387 C 0.47552 0.18962 0.39416
 C388 C 0.44863 0.19570 0.38012
 C389 C 0.44393 0.22288 0.36589
 C390 C 0.46654 0.24327 0.36547
 H391 H 0.54622 0.22878 0.35815
 H392 H 0.49260 0.29210 0.39682
 H393 H 0.51811 0.20603 0.40450
 H394 H 0.46346 0.26399 0.35425
 H395 H 0.58012 0.31407 0.37422
 H396 H 0.43169 0.17946 0.38037
 C397 C 1.03085 0.24141 0.63640
 C398 C 1.00354 0.23448 0.62509
 C399 C 0.99906 0.20779 0.61222
 C400 C 1.02177 0.18762 0.61028
 C401 C 1.04945 0.19486 0.62222
 C402 C 1.05402 0.22188 0.63543
 C403 C 0.97978 0.25565 0.62642
 C404 C 0.98302 0.28319 0.61362
 C405 C 0.96096 0.30425 0.61513
 C406 C 0.93585 0.29706 0.63062
 C407 C 0.93238 0.26923 0.64345
 C408 C 0.95450 0.24870 0.64112
 H409 H 1.03386 0.26220 0.64646
 H410 H 0.97767 0.20297 0.60337
 H411 H 1.00317 0.28759 0.60298
 H412 H 0.95230 0.22735 0.65116
 H413 H 1.06725 0.17984 0.62144
 H414 H 0.91919 0.31333 0.63290
 C415 C 0.54348 0.75694 0.13217
 C416 C 0.51467 0.75088 0.12349
 C417 C 0.50739 0.72251 0.11534
 C418 C 0.52850 0.70047 0.11599
 C419 C 0.55691 0.70695 0.12489
 C420 C 0.56470 0.73496 0.13303
 C421 C 0.49214 0.77406 0.12320
 C422 C 0.49828 0.80205 0.11196
 C423 C 0.47701 0.82395 0.11158
 C424 C 0.44963 0.81769 0.12258
 C425 C 0.44300 0.79006 0.13378
 C426 C 0.46436 0.76828 0.13410
 H427 H 0.54924 0.77872 0.13830
 H428 H 0.48532 0.71759 0.10869
 H429 H 0.51955 0.80671 0.10359
 H430 H 0.45937 0.74681 0.14258
 H431 H 0.57316 0.68992 0.12555
 H432 H 0.43317 0.83451 0.12221
 O433 O 0.00826 1.03998 1.06597
 O434 O -0.03853 1.01950 1.06783
 O435 O 0.06659 0.97025 1.06688
 O436 O 0.07654 0.93162 1.04118
 O437 O 0.07328 1.03702 0.99560
 O438 O 0.04645 1.05629 0.96139
 O439 O -0.01182 0.90299 0.98440
 O440 O 0.00683 0.89678 1.03032
 O441 O -0.07259 0.96929 0.98384
 O442 O -0.07537 1.01663 0.99997
 O443 O -0.00915 0.96924 0.92245
 O444 O 0.03829 0.98597 0.92015
 O445 O 0.01121 0.92313 0.94585
 O446 O 0.05921 0.94859 0.94126
 O447 O -0.04774 0.99292 0.94043
 O448 O -0.05143 1.03939 0.97030
 O449 O -0.05529 0.92743 1.00478
 O450 O -0.03121 0.92268 1.05318
 O451 O 0.02926 1.06197 1.02715
 O452 O 0.00612 1.06624 0.97555
 O453 O 0.09148 0.99778 1.02062
 O454 O 0.08969 0.94745 1.00105
 O455 O 0.02787 0.99279 1.08610
 O456 O -0.02305 0.97431 1.08405
 Zr457 Zr -0.00174 0.99858 1.05134
 O458 O -0.03060 0.97578 1.02444
 Zr459 Zr 0.05603 0.96871 1.02252
 O460 O 0.02944 0.94308 0.99600
 Zr461 Zr 0.02845 1.03024 0.99455
 O462 O 0.00251 1.00713 0.96500
 Zr463 Zr -0.01135 0.93630 1.01428
 O464 O 0.01693 0.95803 1.04311
 Zr465 Zr -0.03709 0.99774 0.98458
 O466 O -0.01188 1.02296 1.01340
 Zr467 Zr 0.02045 0.96619 0.95731
 O468 O 0.04890 0.99131 0.98294
 O469 O 0.03811 1.00808 1.03302
 O470 O -0.01985 0.95758 0.97483
 C471 C 0.02075 1.06157 1.05350
 C472 C 0.05317 0.98113 1.08805
 C473 C 0.09415 1.02265 1.00773
 C474 C -0.00144 0.90188 0.95901
 C475 C -0.07562 0.94300 0.99295
 C476 C -0.03438 0.98081 0.91985
 H477 H -0.04907 0.97262 1.03451
 H478 H 0.00004 1.01867 0.94685
 H479 H 0.05178 1.01868 1.04567
 H480 H 0.03922 0.92438 0.99290
 H481 H 0.01694 0.90118 1.04873
 H482 H 0.06263 0.91547 1.03909
 H483 H -0.04193 1.04406 0.95184
 H484 H -0.00823 1.07264 0.98964
 H485 H -0.04118 0.90399 1.04976
 H486 H -0.01990 0.98410 1.10265
 H487 H 0.05280 1.00013 0.92710
 H488 H 0.04565 1.04463 0.94381
 H489 H -0.04444 1.03482 1.05356
 H490 H -0.07585 1.01215 1.02089
 H491 H 0.09471 0.95993 0.98422
 H492 H 0.06345 0.93019 0.95194
 O493 O 0.55617 0.55641 0.48184
 O494 O 0.52999 0.55760 0.43900
 O495 O 0.49193 0.56302 0.54694
 O496 O 0.45055 0.53948 0.55833
 O497 O 0.55784 0.49873 0.55719
 O498 O 0.56560 0.45263 0.53610
 O499 O 0.41530 0.47518 0.48211
 O500 O 0.41136 0.52194 0.49670
 O501 O 0.47641 0.47353 0.41736
 O502 O 0.52730 0.49096 0.41320
 O503 O 0.48334 0.41325 0.48695
 O504 O 0.49925 0.41419 0.53564
 O505 O 0.43651 0.43810 0.50819
 O506 O 0.46727 0.43558 0.55404
 O507 O 0.50275 0.43024 0.44524
 O508 O 0.54565 0.45723 0.43364
 O509 O 0.43642 0.49490 0.43527
 O510 O 0.43392 0.54359 0.45539
 O511 O 0.57850 0.51946 0.50733
 O512 O 0.58172 0.46809 0.49659
 O513 O 0.51772 0.52045 0.57449
 O514 O 0.46871 0.49927 0.57850
 O515 O 0.50951 0.58008 0.50428
 O516 O 0.48762 0.57500 0.45559
 Zr517 Zr 0.51270 0.54321 0.47879
 O518 O 0.48677 0.51485 0.45479
 Zr519 Zr 0.48662 0.51829 0.54088
 O520 O 0.45891 0.48938 0.51920
 Zr521 Zr 0.54543 0.48841 0.51451
 O522 O 0.52024 0.45778 0.49208
 Zr523 Zr 0.44894 0.50539 0.47746
 O524 O 0.47353 0.53626 0.50050
 Zr525 Zr 0.50774 0.47486 0.45123
 O526 O 0.53550 0.50435 0.47253
 Zr527 Zr 0.48073 0.45016 0.51283
 O528 O 0.50777 0.47805 0.53752
 O529 O 0.52478 0.52771 0.51975
 O530 O 0.46882 0.46530 0.47152
 C531 C 0.57858 0.54422 0.49376
 C532 C 0.50115 0.58345 0.53016
 C533 C 0.54404 0.51160 0.57703
 C534 C 0.41444 0.45057 0.49564
 C535 C 0.45035 0.48335 0.41484
 C536 C 0.49332 0.40968 0.46162
 H537 H 0.48229 0.52420 0.43580
 H538 H 0.53170 0.43978 0.49066
 H539 H 0.53724 0.54161 0.53019
 H540 H 0.44113 0.48647 0.53042
 H541 H 0.41694 0.54077 0.50497
 H542 H 0.43287 0.53006 0.55060
 H543 H 0.55503 0.44469 0.44872
 H544 H 0.58345 0.47622 0.47676
 H545 H 0.41420 0.53978 0.44738
 H546 H 0.49799 0.59385 0.45607
 H547 H 0.51967 0.41273 0.52977
 H548 H 0.55176 0.44547 0.55066
 H549 H 0.54262 0.54187 0.43236
 H550 H 0.51571 0.50769 0.40576
 H551 H 0.48098 0.48232 0.58405
 H552 H 0.44999 0.44699 0.55900
 O553 O 0.45533 -0.06599 0.50710
 O554 O 0.48019 -0.07263 0.46377
 O555 O 0.52016 -0.05606 0.57174
 O556 O 0.55783 -0.02688 0.58104
 O557 O 0.44848 0.00350 0.56214
 O558 O 0.44038 0.04604 0.53152
 O559 O 0.59170 0.02094 0.49085
 O560 O 0.59727 -0.02133 0.51743
 O561 O 0.53234 0.00762 0.42473
 O562 O 0.48551 -0.01086 0.41932
 O563 O 0.51987 0.07961 0.47831
 O564 O 0.50464 0.08675 0.52536
 O565 O 0.56847 0.06146 0.50537
 O566 O 0.53784 0.07111 0.54927
 O567 O 0.50173 0.05432 0.44058
 O568 O 0.45991 0.01972 0.43502
 O569 O 0.57256 -0.00776 0.44997
 O570 O 0.57617 -0.05168 0.48105
 O571 O 0.43048 -0.02506 0.51780
 O572 O 0.42536 0.02321 0.49528
 O573 O 0.48946 -0.00983 0.58733
 O574 O 0.53787 0.01452 0.58834
 O575 O 0.50240 -0.08111 0.53359
 O576 O 0.52381 -0.08487 0.48547
 Zr577 Zr 0.49749 -0.05054 0.49974
 O578 O 0.52254 -0.02621 0.47078
 Zr579 Zr 0.52154 -0.01279 0.55579
 O580 O 0.54834 0.01253 0.52895
 Zr581 Zr 0.46207 0.00804 0.51926
 O582 O 0.48624 0.03499 0.49149
 Zr583 Zr 0.55944 -0.01081 0.49267
 O584 O 0.53591 -0.03761 0.52135
 Zr585 Zr 0.50016 0.01114 0.45632
 O586 O 0.47323 -0.01519 0.48266
 Zr587 Zr 0.52494 0.04838 0.51206
 O588 O 0.49860 0.02459 0.54145
 O589 O 0.48444 -0.02800 0.53531
 O590 O 0.53814 0.02625 0.47602
 C591 C 0.43212 -0.05253 0.51377
 C592 C 0.51141 -0.07948 0.55986
 C593 C 0.46223 -0.00394 0.58558
 C594 C 0.59119 0.04782 0.49720
 C595 C 0.55894 -0.00096 0.42647
 C596 C 0.50929 0.07804 0.45254
 H597 H 0.52781 -0.03872 0.45471
 H598 H 0.47376 0.05158 0.48547
 H599 H 0.47288 -0.04040 0.54842
 H600 H 0.56588 0.01845 0.53991
 H601 H 0.59248 -0.03864 0.52946
 H602 H 0.57533 -0.02061 0.57066
 H603 H 0.45151 0.03714 0.44364
 H604 H 0.42358 0.01097 0.47812
 H605 H 0.59593 -0.04865 0.47348
 H606 H 0.51402 -0.10357 0.48991
 H607 H 0.48391 0.08531 0.51967
 H608 H 0.45299 0.05531 0.54616
 H609 H 0.46517 -0.05988 0.45463
 H610 H 0.49144 -0.03138 0.42193
 H611 H 0.52444 0.03122 0.58915
 H612 H 0.55611 0.06235 0.55690
 O613 O 0.03128 0.42670 1.05617
 O614 O 0.07157 0.45626 1.05929
 O615 O -0.04021 0.48746 1.05820
 O616 O -0.05622 0.52591 1.03230
 O617 O -0.03998 0.41969 0.99571
 O618 O -0.01626 0.41469 0.95070
 O619 O 0.02192 0.56763 0.97241
 O620 O 0.00460 0.57011 1.01818
 O621 O 0.09256 0.51197 0.97407
 O622 O 0.10206 0.46275 0.99313
 O623 O 0.02640 0.49971 0.91222
 O624 O -0.02155 0.48006 0.91218
 O625 O 0.00124 0.54439 0.93444
 O626 O -0.04279 0.51209 0.93069
 O627 O 0.06950 0.48400 0.93147
 O628 O 0.08353 0.44079 0.96126
 O629 O 0.06967 0.55011 0.99380
 O630 O 0.04748 0.55049 1.04169
 O631 O 0.00979 0.40343 1.01855
 O632 O 0.02433 0.40133 0.96856
 O633 O -0.06355 0.45848 1.01347
 O634 O -0.07062 0.50815 0.99248
 O635 O 0.00246 0.47011 1.07729
 O636 O 0.04934 0.49708 1.07449
 Zr637 Zr 0.03083 0.47042 1.04233
 O638 O 0.05412 0.49823 1.01473
 Zr639 Zr -0.03261 0.49210 1.01375
 O640 O -0.01184 0.52152 0.98563
 Zr641 Zr 0.00158 0.43592 0.98682
 O642 O 0.02319 0.46272 0.95691
 Zr643 Zr 0.02825 0.53427 1.00336
 O644 O 0.00569 0.50790 1.03337
 Zr645 Zr 0.06193 0.47806 0.97567
 O646 O 0.04175 0.44866 1.00468
 Zr647 Zr -0.00131 0.50040 0.94767
 O648 O -0.02492 0.47152 0.97466
 O649 O -0.00825 0.45564 1.02503
 O650 O 0.03813 0.51519 0.96443
 C651 C 0.02157 0.40391 1.04391
 C652 C -0.02410 0.47803 1.07939
 C653 C -0.06249 0.43191 1.00576
 C654 C 0.01069 0.56725 0.94684
 C655 C 0.09189 0.53813 0.98289
 C656 C 0.05302 0.49201 0.91008
 H657 H 0.07226 0.50416 1.02469
 H658 H 0.02662 0.45150 0.93945
 H659 H -0.01850 0.44243 1.03850
 H660 H -0.02454 0.53850 0.98179
 H661 H -0.00360 0.56396 1.03691
 H662 H -0.04714 0.54431 1.02591
 H663 H 0.07106 0.43195 0.94627
 H664 H 0.04389 0.40096 0.97779
 H665 H 0.05381 0.57073 1.03771
 H666 H 0.04854 0.48661 1.09340
 H667 H -0.01238 0.46083 0.91043
 H668 H -0.03222 0.42718 0.94296
 H669 H 0.08078 0.44505 1.04406
 H670 H 0.10661 0.47385 1.01061
 H671 H -0.07416 0.49592 0.97553
 H672 H -0.04958 0.52913 0.94117
 O673 O 0.01661 0.40518 0.50992
 O674 O 0.00357 0.39806 0.46235
 O675 O 0.07851 0.47467 0.50634
 O676 O 0.07996 0.52040 0.48970
 O677 O 0.00901 0.47592 0.56694
 O678 O -0.04078 0.48871 0.56305
 O679 O 0.00062 0.54075 0.41815
 O680 O 0.04715 0.52101 0.41989
 O681 O -0.05698 0.46987 0.41807
 O682 O -0.06436 0.42749 0.44880
 O683 O -0.06874 0.53876 0.47572
 O684 O -0.04720 0.55230 0.52096
 O685 O -0.02296 0.56250 0.45444
 O686 O -0.00979 0.56927 0.50717
 O687 O -0.08374 0.49656 0.45593
 O688 O -0.08439 0.44666 0.48147
 O689 O -0.01936 0.49611 0.40019
 O690 O 0.03086 0.47409 0.40454
 O691 O -0.01031 0.42559 0.54471
 O692 O -0.05603 0.45029 0.54607
 O693 O 0.04855 0.49903 0.54901
 O694 O 0.05256 0.54307 0.51733
 O695 O 0.06330 0.43151 0.48881
 O696 O 0.04020 0.42294 0.44099
 Zr697 Zr 0.01904 0.43811 0.47790
 O698 O -0.00766 0.45866 0.44608
 Zr699 Zr 0.04120 0.50092 0.50402
 O700 O 0.01655 0.52419 0.47245
 Zr701 Zr -0.01734 0.46876 0.53029
 O702 O -0.04479 0.49150 0.50072
 Zr703 Zr 0.00994 0.49938 0.43552
 O704 O 0.03836 0.47774 0.46547
 Zr705 Zr -0.04848 0.46797 0.46268
 O706 O -0.02322 0.44389 0.49333
 Zr707 Zr -0.02526 0.53089 0.48803
 O708 O 0.00027 0.50995 0.52084
 O709 O 0.02418 0.46080 0.51585
 O710 O -0.03133 0.50800 0.45037
 C711 C 0.00314 0.40412 0.53389
 C712 C 0.08298 0.44840 0.49905
 C713 C 0.03353 0.48879 0.56996
 C714 C -0.01238 0.56237 0.42899
 C715 C -0.04394 0.48319 0.39755
 C716 C -0.08773 0.52302 0.46284
 H717 H -0.00919 0.44636 0.42896
 H718 H -0.06385 0.49465 0.50944
 H719 H 0.03647 0.45021 0.53037
 H720 H 0.02652 0.54260 0.46760
 H721 H 0.06411 0.50916 0.42633
 H722 H 0.07588 0.52792 0.46990
 H723 H -0.09404 0.46045 0.49415
 H724 H -0.06232 0.43565 0.53201
 H725 H 0.02947 0.48481 0.38577
 H726 H 0.05217 0.40576 0.44667
 H727 H -0.06057 0.53812 0.52992
 H728 H -0.03417 0.50912 0.56346
 H729 H -0.01687 0.39625 0.46825
 H730 H -0.04954 0.41911 0.43636
 H731 H 0.03807 0.54883 0.53154
 H732 H 0.00721 0.57608 0.49625
 O733 O 0.52036 0.92446 -0.00117
 O734 O 0.49770 0.92413 -0.04637
 O735 O 0.59165 0.98228 -0.01032
 O736 O 0.59951 1.02789 -0.02422
 O737 O 0.53329 0.99265 0.06093
 O738 O 0.48636 1.01040 0.06553
 O739 O 0.51692 1.06812 -0.08127
 O740 O 0.55747 1.04087 -0.08823
 O741 O 0.44653 1.01003 -0.07630
 O742 O 0.43614 0.96598 -0.04881
 O743 O 0.45736 1.07362 -0.01601
 O744 O 0.48698 1.07778 0.02883
 O745 O 0.50166 1.08987 -0.04075
 O746 O 0.52393 1.09034 0.00944
 O747 O 0.43075 1.03529 -0.03137
 O748 O 0.42529 0.98397 -0.01144
 O749 O 0.48645 1.02610 -0.09987
 O750 O 0.53233 0.99809 -0.10294
 O751 O 0.50473 0.94594 0.03938
 O752 O 0.46275 0.97671 0.04777
 O753 O 0.57375 1.00842 0.03815
 O754 O 0.58123 1.05288 0.00866
 O755 O 0.56610 0.94410 -0.02777
 O756 O 0.53501 0.94351 -0.07193
 Zr757 Zr 0.52306 0.95911 -0.03120
 O758 O 0.49651 0.98663 -0.05724
 Zr759 Zr 0.56030 1.01464 -0.00517
 O760 O 0.53620 1.04429 -0.03118
 Zr761 Zr 0.50144 0.99067 0.02810
 O762 O 0.47478 1.02040 0.00455
 Zr763 Zr 0.51991 1.02420 -0.06825
 O764 O 0.54758 0.99554 -0.04422
 Zr765 Zr 0.46110 1.00130 -0.03390
 O766 O 0.48550 0.97055 -0.00902
 Zr767 Zr 0.49917 1.05660 -0.00901
 O768 O 0.52471 1.02888 0.01827
 O769 O 0.53810 0.97729 0.00692
 O770 O 0.48351 1.03841 -0.04679
 C771 C 0.51223 0.92357 0.02514
 C772 C 0.58980 0.95635 -0.01969
 C773 C 0.55993 1.00082 0.06082
 C774 C 0.50903 1.09041 -0.06733
 C775 C 0.45944 1.01934 -0.09890
 C776 C 0.43359 1.06205 -0.02471
 H777 H 0.49023 0.97621 -0.07466
 H778 H 0.45821 1.02606 0.01633
 H779 H 0.55043 0.96397 0.01894
 H780 H 0.54859 1.06105 -0.03635
 H781 H 0.57307 1.02643 -0.08447
 H782 H 0.59413 1.03878 -0.04216
 H783 H 0.42172 0.99643 0.00515
 H784 H 0.45334 0.96292 0.03450
 H785 H 0.53052 1.00997 -0.12101
 H786 H 0.54388 0.92400 -0.06911
 H787 H 0.46957 1.06791 0.03637
 H788 H 0.49355 1.03062 0.06473
 H789 H 0.47870 0.92527 -0.03694
 H790 H 0.44728 0.95650 -0.06392
 H791 H 0.56991 1.06029 0.02479
 H792 H 0.54003 1.09500 -0.00363
 O793 O 0.46816 0.52809 0.08217
 O794 O 0.51347 0.51242 0.09385
 O795 O 0.48376 0.59391 0.01471
 O796 O 0.50397 0.59537 -0.02850
 O797 O 0.41503 0.53190 0.00493
 O798 O 0.41367 0.48285 -0.00956
 O799 O 0.56714 0.50963 -0.04211
 O800 O 0.56895 0.55577 -0.02243
 O801 O 0.55493 0.44942 0.02395
 O802 O 0.52220 0.44448 0.06417
 O803 O 0.50112 0.44709 -0.04885
 O804 O 0.45916 0.47443 -0.06691
 O805 O 0.53000 0.49029 -0.06844
 O806 O 0.48015 0.50987 -0.08183
 O807 O 0.51167 0.42765 -0.00433
 O808 O 0.48707 0.42979 0.04349
 O809 O 0.57931 0.48759 0.00408
 O810 O 0.57896 0.53691 0.02577
 O811 O 0.43159 0.50663 0.05671
 O812 O 0.42514 0.46393 0.02951
 O813 O 0.43945 0.57023 -0.01449
 O814 O 0.47386 0.57197 -0.05484
 O815 O 0.49557 0.57512 0.05923
 O816 O 0.54053 0.54712 0.07229
 Zr817 Zr 0.50217 0.53045 0.05272
 O818 O 0.53216 0.50157 0.03530
 Zr819 Zr 0.48334 0.55778 -0.01193
 O820 O 0.51348 0.53096 -0.03205
 Zr821 Zr 0.44774 0.50127 0.01508
 O822 O 0.47558 0.47186 -0.00450
 Zr823 Zr 0.54761 0.51974 -0.00329
 O824 O 0.51968 0.55006 0.01549
 Zr825 Zr 0.51136 0.46315 0.02319
 O826 O 0.48209 0.49046 0.04388
 Zr827 Zr 0.49361 0.49127 -0.04155
 O828 O 0.46243 0.51931 -0.02406
 O829 O 0.46655 0.54051 0.02604
 O830 O 0.52867 0.48047 -0.01452
 C831 C 0.44288 0.51646 0.08010
 C832 C 0.48933 0.59644 0.04175
 C833 C 0.41600 0.55729 -0.00702
 C834 C 0.55670 0.49789 -0.06486
 C835 C 0.57807 0.46168 0.01477
 C836 C 0.50735 0.42566 -0.03160
 H837 H 0.54827 0.49778 0.04930
 H838 H 0.46453 0.45411 -0.00896
 H839 H 0.45281 0.55353 0.03551
 H840 H 0.52094 0.54094 -0.04947
 H841 H 0.56364 0.57290 -0.01123
 H842 H 0.52310 0.58920 -0.03533
 H843 H 0.47214 0.42322 0.02948
 H844 H 0.43680 0.45525 0.04568
 H845 H 0.59832 0.53439 0.01729
 H846 H 0.53516 0.55941 0.08859
 H847 H 0.44808 0.46092 -0.05446
 H848 H 0.41562 0.49058 -0.02952
 H849 H 0.50768 0.49177 0.09358
 H850 H 0.53712 0.45685 0.07330
 H851 H 0.45870 0.55888 -0.06251
 H852 H 0.49345 0.52606 -0.08648
 O853 O -0.01927 -0.06572 0.44992
 O854 O -0.06272 -0.03783 0.44574
 O855 O 0.04905 -0.00565 0.44370
 O856 O 0.06226 0.03579 0.46482
 O857 O 0.04936 -0.06788 0.51506
 O858 O 0.02354 -0.07303 0.55805
 O859 O -0.01379 0.07918 0.52191
 O860 O 0.00158 0.07962 0.47546
 O861 O -0.08536 0.02191 0.52498
 O862 O -0.09513 -0.02582 0.51119
 O863 O -0.01992 0.01480 0.58745
 O864 O 0.02932 -0.00717 0.58906
 O865 O 0.00744 0.05723 0.56149
 O866 O 0.04913 0.02594 0.57002
 O867 O -0.06198 -0.00453 0.57026
 O868 O -0.07452 -0.04954 0.54226
 O869 O -0.06348 0.05990 0.50202
 O870 O -0.04101 0.05864 0.45436
 O871 O -0.00103 -0.08725 0.49125
 O872 O -0.01558 -0.08723 0.54103
 O873 O 0.07183 -0.03069 0.49132
 O874 O 0.07816 0.01968 0.50682
 O875 O 0.00627 -0.02295 0.42583
 O876 O -0.04114 0.00293 0.42586
 Zr877 Zr -0.02225 -0.02168 0.46067
 O878 O -0.04616 0.00711 0.48562
 Zr879 Zr 0.04030 0.00224 0.48730
 O880 O 0.01895 0.03236 0.51274
 Zr881 Zr 0.00667 -0.05308 0.51976
 O882 O -0.01549 -0.02535 0.54701
 Zr883 Zr -0.02135 0.04428 0.49401
 O884 O 0.00179 0.01678 0.46637
 Zr885 Zr -0.05417 -0.01139 0.52643
 O886 O -0.03343 -0.04174 0.50022
 Zr887 Zr 0.00853 0.01285 0.55261
 O888 O 0.03263 -0.01660 0.52831
 O889 O 0.01679 -0.03513 0.47982
 O890 O -0.03111 0.02658 0.53456
 C891 C -0.01061 -0.08800 0.46505
 C892 C 0.03308 -0.01594 0.42328
 C893 C 0.07156 -0.05609 0.50338
 C894 C -0.00132 0.07979 0.54702
 C895 C -0.08541 0.04779 0.51409
 C896 C -0.04607 0.00587 0.59057
 H897 H -0.06437 0.01234 0.47510
 H898 H -0.01897 -0.03584 0.56544
 H899 H 0.02770 -0.04880 0.46805
 H900 H 0.03165 0.04945 0.51500
 H901 H 0.01012 0.07252 0.45756
 H902 H 0.05409 0.05434 0.47112
 H903 H -0.06351 -0.05637 0.55966
 H904 H -0.03500 -0.08848 0.53163
 H905 H -0.04772 0.07889 0.45652
 H906 H -0.04066 -0.00883 0.40827
 H907 H 0.01697 -0.02342 0.59576
 H908 H 0.03747 -0.05909 0.56645
 H909 H -0.06998 -0.05114 0.46103
 H910 H -0.09662 -0.02063 0.49042
 H911 H 0.08165 0.00861 0.52512
 H912 H 0.05769 0.04005 0.55623
 O913 O 0.66994 0.23693 0.27307
 O914 O 0.65732 0.25700 0.22928
 O915 O 0.73440 0.17231 0.25171
 O916 O 0.77664 0.17213 0.22914
 O917 O 0.75063 0.22847 0.32273
 O918 O 0.76572 0.27788 0.32571
 O919 O 0.79290 0.26068 0.17155
 O920 O 0.77012 0.21602 0.16782
 O921 O 0.72784 0.32131 0.18808
 O922 O 0.68853 0.32358 0.22295
 O923 O 0.80301 0.31983 0.23892
 O924 O 0.82142 0.28970 0.27941
 O925 O 0.82117 0.27665 0.20875
 O926 O 0.83495 0.25608 0.25714
 O927 O 0.75838 0.33986 0.23105
 O928 O 0.71166 0.33674 0.25674
 O929 O 0.74664 0.28530 0.16160
 O930 O 0.72260 0.23676 0.16013
 O931 O 0.69767 0.25494 0.30970
 O932 O 0.72611 0.29671 0.31736
 O933 O 0.76744 0.19220 0.29534
 O934 O 0.80550 0.19216 0.25969
 O935 O 0.69010 0.19238 0.24189
 O936 O 0.67613 0.22378 0.19994
 Zr937 Zr 0.69815 0.23725 0.23798
 O938 O 0.71575 0.26792 0.20881
 Zr939 Zr 0.76273 0.20798 0.25276
 O940 O 0.78300 0.23701 0.22386
 Zr941 Zr 0.73905 0.26157 0.29223
 O942 O 0.75845 0.29310 0.26519
 Zr943 Zr 0.75351 0.25085 0.19132
 O944 O 0.73421 0.21879 0.21816
 Zr945 Zr 0.72983 0.30456 0.23086
 O946 O 0.70933 0.27536 0.25965
 Zr947 Zr 0.79455 0.27513 0.24517
 O948 O 0.77714 0.24461 0.27510
 O949 O 0.72586 0.22405 0.27189
 O950 O 0.76675 0.28862 0.21157
 C951 C 0.67335 0.24630 0.29879
 C952 C 0.70701 0.17052 0.24649
 C953 C 0.76218 0.20334 0.31968
 C954 C 0.81693 0.27014 0.18218
 C955 C 0.73621 0.31087 0.16423
 C956 C 0.78597 0.34163 0.23431
 H957 H 0.70127 0.27296 0.19346
 H958 H 0.76383 0.31003 0.27678
 H959 H 0.71658 0.21000 0.28530
 H960 H 0.79995 0.22731 0.21565
 H961 H 0.75812 0.19883 0.17266
 H962 H 0.78433 0.17994 0.21081
 H963 H 0.72603 0.34128 0.27210
 H964 H 0.71044 0.30689 0.30626
 H965 H 0.73074 0.24047 0.14078
 H966 H 0.65907 0.21186 0.20535
 H967 H 0.80990 0.30320 0.29078
 H968 H 0.78552 0.27049 0.32254
 H969 H 0.65842 0.27675 0.23709
 H970 H 0.67881 0.31298 0.20720
 H971 H 0.81476 0.20438 0.27450
 H972 H 0.83814 0.23959 0.24436
 O973 O 0.74959 0.67119 0.70291
 O974 O 0.79604 0.66685 0.72401
 O975 O 0.69300 0.67601 0.77394
 O976 O 0.68960 0.70781 0.81484
 O977 O 0.68434 0.73674 0.70318
 O978 O 0.70962 0.78011 0.68956
 O979 O 0.77697 0.75887 0.83440
 O980 O 0.75758 0.71504 0.84385
 O981 O 0.83472 0.75146 0.76688
 O982 O 0.83227 0.73129 0.71892
 O983 O 0.77286 0.81786 0.76290
 O984 O 0.72273 0.82161 0.75155
 O985 O 0.75448 0.79776 0.81248
 O986 O 0.70524 0.80388 0.78715
 O987 O 0.81023 0.79540 0.74145
 O988 O 0.81159 0.76404 0.69807
 O989 O 0.81855 0.73492 0.81021
 O990 O 0.79347 0.68777 0.81857
 O991 O 0.72951 0.71057 0.67935
 O992 O 0.74537 0.76034 0.67106
 O993 O 0.66825 0.72014 0.74661
 O994 O 0.67152 0.74301 0.79322
 O995 O 0.72957 0.65348 0.75106
 O996 O 0.78111 0.65353 0.76939
 Zr997 Zr 0.76038 0.68657 0.74383
 O998 O 0.79109 0.71331 0.76421
 Zr999 Zr 0.70530 0.72001 0.77381
 O1000 O 0.73380 0.74739 0.79620
 Zr1001 Zr 0.72916 0.74352 0.71033
 O1002 O 0.75807 0.77272 0.73014
 Zr1003 Zr 0.77415 0.72710 0.80307
 O1004 O 0.74427 0.69785 0.78419
 Zr1005 Zr 0.79757 0.75158 0.73972
 O1006 O 0.76959 0.72311 0.71727
 Zr1007 Zr 0.74271 0.78434 0.77060
 O1008 O 0.71165 0.75827 0.74891
 O1009 O 0.72075 0.70643 0.73478
 O1010 O 0.78288 0.76507 0.77933
 C1011 C 0.73799 0.68390 0.68060
 C1012 C 0.70478 0.65357 0.76326
 C1013 C 0.66434 0.72721 0.71988
 C1014 C 0.76735 0.78498 0.83422
 C1015 C 0.83864 0.74399 0.79351
 C1016 C 0.79780 0.81803 0.75110
 H1017 H 0.80928 0.70226 0.76760
 H1018 H 0.76062 0.78987 0.71724
 H1019 H 0.70712 0.69336 0.72471
 H1020 H 0.72499 0.75223 0.81471
 H1021 H 0.74723 0.69645 0.84141
 H1022 H 0.70247 0.69226 0.82271
 H1023 H 0.79992 0.78100 0.69135
 H1024 H 0.76415 0.75053 0.66817
 H1025 H 0.80434 0.69185 0.83669
 H1026 H 0.77689 0.63454 0.76062
 H1027 H 0.72637 0.82129 0.73065
 H1028 H 0.69758 0.78941 0.70413
 H1029 H 0.80284 0.68076 0.70903
 H1030 H 0.83678 0.71300 0.72967
 H1031 H 0.66797 0.76072 0.78115
 H1032 H 0.70119 0.79427 0.80593
 O1033 O 0.30045 0.20118 0.77382
 O1034 O 0.31011 0.22848 0.73243
 O1035 O 0.28015 0.26043 0.83821
 O1036 O 0.24702 0.30063 0.84004
 O1037 O 0.22434 0.18868 0.82450
 O1038 O 0.18799 0.17744 0.78945
 O1039 O 0.20654 0.33179 0.74927
 O1040 O 0.24808 0.34205 0.77286
 O1041 O 0.22962 0.27489 0.68497
 O1042 O 0.25214 0.22863 0.68341
 O1043 O 0.15434 0.25789 0.73242
 O1044 O 0.14399 0.23968 0.77936
 O1045 O 0.16638 0.30586 0.76105
 O1046 O 0.15480 0.27326 0.80329
 O1047 O 0.18394 0.24216 0.69756
 O1048 O 0.22071 0.20232 0.69600
 O1049 O 0.24158 0.31528 0.70961
 O1050 O 0.28088 0.32332 0.75054
 O1051 O 0.26063 0.17322 0.78250
 O1052 O 0.21495 0.16573 0.75652
 O1053 O 0.23511 0.22914 0.84970
 O1054 O 0.20922 0.27554 0.84847
 O1055 O 0.31041 0.24818 0.80238
 O1056 O 0.31718 0.27165 0.75459
 Zr1057 Zr 0.28331 0.24259 0.76583
 O1058 O 0.26025 0.26664 0.73385
 Zr1059 Zr 0.23906 0.26203 0.81756
 O1060 O 0.21475 0.28808 0.78795
 Zr1061 Zr 0.22529 0.20259 0.78089
 O1062 O 0.19944 0.22588 0.75036
 Zr1063 Zr 0.24045 0.30179 0.75331
 O1064 O 0.26587 0.27927 0.78514
 Zr1065 Zr 0.22559 0.24221 0.71716
 O1066 O 0.25116 0.21657 0.74644
 Zr1067 Zr 0.18191 0.26310 0.76871
 O1068 O 0.20450 0.23742 0.80058
 O1069 O 0.25844 0.22651 0.79943
 O1070 O 0.20629 0.27878 0.73424
 C1071 C 0.28812 0.17681 0.77933
 C1072 C 0.30537 0.25483 0.82855
 C1073 C 0.22911 0.20196 0.84815
 C1074 C 0.17936 0.32965 0.75400
 C1075 C 0.23693 0.30176 0.68612
 C1076 C 0.15882 0.24840 0.70712
 H1077 H 0.27390 0.27291 0.71879
 H1078 H 0.18420 0.21268 0.74313
 H1079 H 0.27000 0.21487 0.81371
 H1080 H 0.20689 0.30479 0.79819
 H1081 H 0.24244 0.33965 0.79321
 H1082 H 0.26271 0.31097 0.82979
 H1083 H 0.20310 0.19272 0.70343
 H1084 H 0.22850 0.16564 0.74027
 H1085 H 0.28969 0.31802 0.73215
 H1086 H 0.33602 0.26294 0.76090
 H1087 H 0.14615 0.21992 0.77193
 H1088 H 0.17516 0.18963 0.80096
 H1089 H 0.29866 0.21434 0.72123
 H1090 H 0.27100 0.23866 0.68548
 H1091 H 0.19233 0.26235 0.84711
 H1092 H 0.16279 0.29072 0.81251
 O1093 O 0.18679 0.76639 0.29804
 O1094 O 0.20935 0.72206 0.31020
 O1095 O 0.25430 0.82904 0.29872
 O1096 O 0.29700 0.83652 0.27780
 O1097 O 0.19446 0.82581 0.22624
 O1098 O 0.19007 0.79554 0.18574
 O1099 O 0.33527 0.74604 0.23748
 O1100 O 0.33483 0.76932 0.28045
 O1101 O 0.27097 0.68220 0.23976
 O1102 O 0.22127 0.67970 0.24977
 O1103 O 0.27495 0.74000 0.16827
 O1104 O 0.26118 0.78791 0.15748
 O1105 O 0.31876 0.76405 0.19405
 O1106 O 0.29111 0.81065 0.17957
 O1107 O 0.25112 0.70214 0.18930
 O1108 O 0.20278 0.69811 0.21435
 O1109 O 0.30961 0.70348 0.26197
 O1110 O 0.30770 0.73290 0.30585
 O1111 O 0.16970 0.78218 0.25390
 O1112 O 0.17133 0.75941 0.20660
 O1113 O 0.23217 0.84749 0.24975
 O1114 O 0.28423 0.84647 0.23340
 O1115 O 0.23226 0.79103 0.32161
 O1116 O 0.25121 0.74078 0.32921
 Zr1117 Zr 0.23096 0.75792 0.29096
 O1118 O 0.25826 0.72788 0.27152
 Zr1119 Zr 0.26263 0.81385 0.25761
 O1120 O 0.29227 0.78609 0.23824
 Zr1121 Zr 0.20595 0.78167 0.22687
 O1122 O 0.23316 0.75349 0.20487
 Zr1123 Zr 0.29822 0.74769 0.26298
 O1124 O 0.27182 0.77740 0.28472
 Zr1125 Zr 0.24160 0.71643 0.23091
 O1126 O 0.21206 0.74351 0.25204
 Zr1127 Zr 0.27418 0.77244 0.19906
 O1128 O 0.24534 0.80252 0.21712
 O1129 O 0.22281 0.79511 0.26606
 O1130 O 0.28226 0.73433 0.22301
 C1131 C 0.16644 0.77589 0.28082
 C1132 C 0.24205 0.81718 0.32056
 C1133 C 0.20702 0.84792 0.23720
 C1134 C 0.33899 0.75404 0.21109
 C1135 C 0.29598 0.68121 0.25252
 C1136 C 0.26405 0.71444 0.16796
 H1137 H 0.26076 0.71079 0.28464
 H1138 H 0.22363 0.74871 0.18631
 H1139 H 0.20982 0.80858 0.27585
 H1140 H 0.31087 0.79638 0.23562
 H1141 H 0.32765 0.78137 0.29615
 H1142 H 0.31470 0.82476 0.27570
 H1143 H 0.19844 0.70758 0.19538
 H1144 H 0.16701 0.74228 0.21906
 H1145 H 0.32710 0.72360 0.30622
 H1146 H 0.23909 0.74557 0.34584
 H1147 H 0.24071 0.78215 0.15443
 H1148 H 0.20531 0.80804 0.17729
 H1149 H 0.19707 0.71339 0.29493
 H1150 H 0.22523 0.68018 0.27077
 H1151 H 0.27261 0.84998 0.21546
 H1152 H 0.30862 0.81632 0.19076
 O1153 O 0.17155 0.73485 0.76684
 O1154 O 0.16548 0.74991 0.71960
 O1155 O 0.23772 0.66803 0.76266
 O1156 O 0.28348 0.66489 0.74895
 O1157 O 0.24417 0.73485 0.82743
 O1158 O 0.25930 0.78455 0.82518
 O1159 O 0.30783 0.74756 0.68138
 O1160 O 0.28816 0.70072 0.68186
 O1161 O 0.24352 0.80734 0.68031
 O1162 O 0.19796 0.81405 0.70799
 O1163 O 0.30947 0.81290 0.74033
 O1164 O 0.32035 0.78818 0.78815
 O1165 O 0.32991 0.76942 0.71949
 O1166 O 0.33803 0.75242 0.77069
 O1167 O 0.26702 0.83175 0.72247
 O1168 O 0.21714 0.83320 0.74203
 O1169 O 0.26087 0.76591 0.66134
 O1170 O 0.24034 0.71652 0.66555
 O1171 O 0.19442 0.75740 0.80404
 O1172 O 0.22048 0.80129 0.80859
 O1173 O 0.26338 0.69435 0.80847
 O1174 O 0.30727 0.68979 0.77973
 O1175 O 0.19532 0.68705 0.74476
 O1176 O 0.18741 0.71255 0.69804
 Zr1177 Zr 0.20442 0.73107 0.73630
 O1178 O 0.22660 0.75722 0.70616
 Zr1179 Zr 0.26602 0.70391 0.76411
 O1180 O 0.29078 0.72874 0.73485
 Zr1181 Zr 0.23749 0.76302 0.79138
 O1182 O 0.26096 0.79070 0.76357
 Zr1183 Zr 0.26635 0.73755 0.69702
 O1184 O 0.24283 0.70971 0.72485
 Zr1185 Zr 0.23779 0.79692 0.72438
 O1186 O 0.21282 0.77207 0.75358
 Zr1187 Zr 0.29922 0.76972 0.75205
 O1188 O 0.27743 0.74354 0.78281
 O1189 O 0.22695 0.72274 0.77499
 O1190 O 0.27668 0.77793 0.71347
 C1191 C 0.17176 0.74680 0.79159
 C1192 C 0.21120 0.66569 0.75388
 C1193 C 0.25498 0.70919 0.82980
 C1194 C 0.32931 0.76073 0.69347
 C1195 C 0.25236 0.79233 0.65921
 C1196 C 0.29412 0.83362 0.72890
 H1197 H 0.21440 0.75984 0.68850
 H1198 H 0.26496 0.80924 0.77311
 H1199 H 0.21569 0.71044 0.78851
 H1200 H 0.30885 0.71837 0.73043
 H1201 H 0.27634 0.68364 0.68745
 H1202 H 0.29419 0.66995 0.73130
 H1203 H 0.22920 0.83963 0.75855
 H1204 H 0.20668 0.80943 0.79388
 H1205 H 0.25093 0.71700 0.64717
 H1206 H 0.16938 0.70176 0.70259
 H1207 H 0.30904 0.80535 0.79359
 H1208 H 0.27927 0.77666 0.82623
 H1209 H 0.16574 0.77052 0.72504
 H1210 H 0.19144 0.80199 0.69176
 H1211 H 0.31428 0.70438 0.79352
 H1212 H 0.34322 0.73499 0.75994
 O1213 O 0.25729 0.19789 0.19183
 O1214 O 0.29927 0.18913 0.21939
 O1215 O 0.18902 0.19776 0.25293
 O1216 O 0.17667 0.22196 0.29157
 O1217 O 0.19526 0.26674 0.18818
 O1218 O 0.22459 0.30936 0.18464
 O1219 O 0.26253 0.26913 0.33580
 O1220 O 0.24059 0.22508 0.33619
 O1221 O 0.33231 0.26489 0.27954
 O1222 O 0.33892 0.25232 0.23082
 O1223 O 0.27292 0.33494 0.27218
 O1224 O 0.22619 0.34251 0.25247
 O1225 O 0.24532 0.31076 0.31431
 O1226 O 0.20154 0.32157 0.28138
 O1227 O 0.31319 0.31438 0.25403
 O1228 O 0.32248 0.28642 0.20936
 O1229 O 0.30811 0.24361 0.31664
 O1230 O 0.27910 0.19888 0.31477
 O1231 O 0.24342 0.24071 0.17010
 O1232 O 0.26220 0.28962 0.17065
 O1233 O 0.17096 0.24506 0.22504
 O1234 O 0.16737 0.26486 0.27495
 O1235 O 0.22911 0.17548 0.23619
 O1236 O 0.27768 0.17171 0.25988
 Zr1237 Zr 0.26130 0.20806 0.23568
 O1238 O 0.28838 0.23078 0.26433
 Zr1239 Zr 0.20218 0.24069 0.25870
 O1240 O 0.22684 0.26353 0.28926
 Zr1241 Zr 0.23836 0.26962 0.20410
 O1242 O 0.26386 0.29478 0.23216
 Zr1243 Zr 0.26500 0.24093 0.30102
 O1244 O 0.23825 0.21594 0.27346
 Zr1245 Zr 0.30061 0.27109 0.24637
 O1246 O 0.27644 0.24676 0.21598
 Zr1247 Zr 0.24129 0.30239 0.27006
 O1248 O 0.21408 0.28086 0.24002
 O1249 O 0.22432 0.23049 0.22189
 O1250 O 0.27905 0.28079 0.28396
 C1251 C 0.25058 0.21378 0.16947
 C1252 C 0.20248 0.17552 0.24397
 C1253 C 0.17223 0.25598 0.19934
 C1254 C 0.25348 0.29547 0.33659
 C1255 C 0.33142 0.25286 0.30482
 C1256 C 0.29926 0.33598 0.26399
 H1257 H 0.30535 0.21842 0.26939
 H1258 H 0.26910 0.31305 0.22197
 H1259 H 0.21237 0.21903 0.20836
 H1260 H 0.21485 0.26689 0.30626
 H1261 H 0.22936 0.20830 0.32911
 H1262 H 0.18707 0.22524 0.31003
 H1263 H 0.31256 0.30431 0.20223
 H1264 H 0.28091 0.27917 0.17000
 H1265 H 0.28652 0.19991 0.33494
 H1266 H 0.27437 0.15396 0.24861
 H1267 H 0.23388 0.34457 0.23280
 H1268 H 0.21025 0.31771 0.19766
 H1269 H 0.30897 0.20434 0.20765
 H1270 H 0.33915 0.23172 0.23727
 H1271 H 0.16463 0.28210 0.26202
 H1272 H 0.19417 0.31080 0.29841
 O1273 O 0.81419 0.71175 0.25822
 O1274 O 0.81873 0.73484 0.21323
 O1275 O 0.81149 0.77981 0.31808
 O1276 O 0.78453 0.81781 0.32761
 O1277 O 0.74759 0.71021 0.32029
 O1278 O 0.70474 0.70095 0.29323
 O1279 O 0.73126 0.85055 0.23707
 O1280 O 0.77587 0.85589 0.25811
 O1281 O 0.73687 0.78632 0.17559
 O1282 O 0.75237 0.73768 0.17459
 O1283 O 0.66985 0.78409 0.23667
 O1284 O 0.66506 0.76898 0.28438
 O1285 O 0.69207 0.83013 0.25863
 O1286 O 0.68588 0.80059 0.30615
 O1287 O 0.69037 0.76330 0.19820
 O1288 O 0.72004 0.71683 0.19476
 O1289 O 0.75553 0.82741 0.19470
 O1290 O 0.80209 0.83116 0.22199
 O1291 O 0.77394 0.68856 0.27476
 O1292 O 0.72359 0.68510 0.25620
 O1293 O 0.76431 0.75169 0.34033
 O1294 O 0.74371 0.80235 0.33789
 O1295 O 0.83318 0.75840 0.28051
 O1296 O 0.83342 0.77883 0.23025
 Zr1297 Zr 0.79974 0.75405 0.24927
 O1298 O 0.77376 0.77826 0.21973
 Zr1299 Zr 0.76746 0.78189 0.30558
 O1300 O 0.74165 0.80886 0.27832
 Zr1301 Zr 0.74187 0.72160 0.27642
 O1302 O 0.71321 0.74605 0.24928
 Zr1303 Zr 0.76187 0.81704 0.23882
 O1304 O 0.78986 0.79391 0.26794
 Zr1305 Zr 0.73432 0.75704 0.21094
 O1306 O 0.76231 0.73054 0.23722
 Zr1307 Zr 0.70371 0.78632 0.26732
 O1308 O 0.72853 0.75978 0.29662
 O1309 O 0.77976 0.74313 0.28775
 O1310 O 0.72285 0.79662 0.22811
 C1311 C 0.80084 0.68914 0.26759
 C1312 C 0.83366 0.76935 0.30571
 C1313 C 0.75609 0.72507 0.34194
 C1314 C 0.70543 0.85168 0.24670
 C1315 C 0.74644 0.81240 0.17336
 C1316 C 0.66864 0.77414 0.21117
 H1317 H 0.78502 0.78191 0.20211
 H1318 H 0.69539 0.73467 0.24567
 H1319 H 0.79245 0.73152 0.30108
 H1320 H 0.73764 0.82713 0.28820
 H1321 H 0.79380 0.85109 0.26934
 H1322 H 0.78335 0.83449 0.31386
 H1323 H 0.70197 0.71136 0.20466
 H1324 H 0.73439 0.68244 0.23826
 H1325 H 0.79899 0.85026 0.21211
 H1326 H 0.85216 0.76878 0.23427
 H1327 H 0.66521 0.74793 0.28086
 H1328 H 0.69529 0.71527 0.30550
 H1329 H 0.80452 0.72068 0.20568
 H1330 H 0.77270 0.74436 0.17346
 H1331 H 0.72737 0.78935 0.34284
 H1332 H 0.69439 0.81976 0.31034
 O1333 O 0.68103 0.29295 0.75665
 O1334 O 0.67669 0.26554 0.71432
 O1335 O 0.69207 0.22791 0.82455
 O1336 O 0.72476 0.18707 0.83082
 O1337 O 0.74902 0.30031 0.82126
 O1338 O 0.79031 0.31258 0.79264
 O1339 O 0.77639 0.16149 0.74988
 O1340 O 0.72727 0.15372 0.76997
 O1341 O 0.76075 0.22169 0.68205
 O1342 O 0.73605 0.26926 0.67812
 O1343 O 0.82943 0.23628 0.73969
 O1344 O 0.83345 0.25346 0.78912
 O1345 O 0.81491 0.18745 0.76647
 O1346 O 0.82229 0.21704 0.80953
 O1347 O 0.80326 0.25296 0.70069
 O1348 O 0.76914 0.29283 0.69269
 O1349 O 0.74797 0.17956 0.70487
 O1350 O 0.70693 0.16788 0.72995
 O1351 O 0.71897 0.31886 0.77496
 O1352 O 0.76658 0.32760 0.75599
 O1353 O 0.73798 0.25759 0.84409
 O1354 O 0.75970 0.21086 0.84690
 O1355 O 0.66680 0.24526 0.78513
 O1356 O 0.66364 0.22439 0.73741
 Zr1357 Zr 0.69783 0.25094 0.75303
 O1358 O 0.72428 0.22759 0.72554
 Zr1359 Zr 0.73542 0.22733 0.81096
 O1360 O 0.76374 0.20331 0.78582
 Zr1361 Zr 0.75377 0.28909 0.77789
 O1362 O 0.78265 0.26765 0.75106
 Zr1363 Zr 0.74207 0.19138 0.74768
 O1364 O 0.71252 0.21264 0.77435
 Zr1365 Zr 0.76027 0.25295 0.71429
 O1366 O 0.73217 0.27764 0.73944
 Zr1367 Zr 0.79824 0.22955 0.77186
 O1368 O 0.77179 0.25278 0.80019
 O1369 O 0.71857 0.26444 0.79060
 O1370 O 0.77781 0.21560 0.73416
 C1371 C 0.69260 0.31648 0.76557
 C1372 C 0.66850 0.23612 0.81149
 C1373 C 0.74330 0.28493 0.84393
 C1374 C 0.80295 0.16375 0.75825
 C1375 C 0.75498 0.19442 0.68236
 C1376 C 0.82728 0.24614 0.71357
 H1377 H 0.71260 0.22163 0.70857
 H1378 H 0.79849 0.28114 0.74601
 H1379 H 0.70568 0.27549 0.80309
 H1380 H 0.77063 0.18629 0.79738
 H1381 H 0.74025 0.15017 0.78693
 H1382 H 0.71019 0.17782 0.81806
 H1383 H 0.78398 0.30310 0.70427
 H1384 H 0.75579 0.32818 0.73731
 H1385 H 0.68909 0.17699 0.73696
 H1386 H 0.64485 0.23428 0.74038
 H1387 H 0.83377 0.27255 0.77893
 H1388 H 0.80096 0.29958 0.80648
 H1389 H 0.68878 0.28118 0.70589
 H1390 H 0.71985 0.25571 0.67438
 H1391 H 0.77834 0.22152 0.84709
 H1392 H 0.81292 0.19963 0.81803
 C1393 C 0.08964 1.03092 1.17125
 C1394 C 0.08173 1.00494 1.16137
 C1395 C 0.06514 1.00327 1.13402
 C1396 C 0.06830 0.98115 1.11628
 H1397 H 0.08874 0.98497 1.17210
 H1398 H 0.05140 1.02147 1.12744
 H1399 H 0.08468 1.04982 1.15759
 H1400 H 0.08393 0.96418 1.12155
 C1401 C 0.61055 0.49516 0.65982
 C1402 C 0.59623 0.51361 0.64198
 C1403 C 0.58226 0.50413 0.61493
 C1404 C 0.55930 0.51869 0.60411
 H1405 H 0.59325 0.53589 0.64826
 H1406 H 0.59013 0.48503 0.60443
 H1407 H 0.61130 0.47233 0.65488
 H1408 H 0.55066 0.53652 0.61611
 C1409 C 0.40688 -0.01522 0.66318
 C1410 C 0.40019 -0.02340 0.63637
 C1411 C 0.41728 -0.01513 0.61088
 C1412 C 0.44552 -0.00807 0.61202
 H1413 H 0.38038 -0.03539 0.63239
 H1414 H 0.40643 -0.01712 0.59008
 H1415 H 0.42504 -0.00080 0.66683
 H1416 H 0.45740 -0.00852 0.63239
 C1417 C -0.09805 0.49317 1.15229
 C1418 C -0.07580 0.47820 1.14224
 C1419 C -0.06248 0.48587 1.11458
 C1420 C -0.03700 0.47429 1.10793
 H1421 H -0.06727 0.45972 1.15463
 H1422 H -0.07387 0.50031 1.09941
 H1423 H -0.10530 0.51290 1.14116
 H1424 H -0.02539 0.46084 1.12383
 C1425 C -0.09896 0.53258 0.32082
 C1426 C -0.08326 0.50913 0.32901
 C1427 C -0.06542 0.50883 0.35572
 C1428 C -0.05863 0.48377 0.36926
 H1429 H -0.08458 0.48920 0.31732
 H1430 H -0.05924 0.52920 0.36531
 H1431 H -0.09858 0.55091 0.33504
 H1432 H -0.06704 0.46355 0.36109
 C1433 C 0.40742 1.03718 -0.17828
 C1434 C 0.43343 1.02402 -0.17762
 C1435 C 0.45240 1.02393 -0.15163
 C1436 C 0.44142 1.02213 -0.12519
 H1437 H 0.44174 1.01353 -0.19627
 H1438 H 0.47562 1.02271 -0.15442
 H1439 H 0.40204 1.05032 -0.16008
 H1440 H 0.41815 1.02061 -0.12264
 C1441 C 0.58388 0.47949 -0.16438
 C1442 C 0.59037 0.47802 -0.13619
 C1443 C 0.56894 0.48609 -0.11471
 C1444 C 0.57734 0.49194 -0.08775
 H1445 H 0.61180 0.47107 -0.12884
 H1446 H 0.54617 0.48713 -0.12100
 H1447 H 0.56320 0.48854 -0.17165
 H1448 H 0.60029 0.49219 -0.08212
 C1449 C 0.10630 -0.00643 0.34772
 C1450 C 0.08498 -0.02151 0.36013
 C1451 C 0.07258 -0.01273 0.38771
 C1452 C 0.04624 -0.02198 0.39530
 H1453 H 0.07582 -0.04004 0.34925
 H1454 H 0.08495 0.00140 0.40166
 H1455 H 0.11396 0.01343 0.35728
 H1456 H 0.03375 -0.03508 0.38044
 C1457 C 0.18103 1.06270 1.05008
 C1458 C 0.16864 1.05240 1.02608
 C1459 C 0.14236 1.03442 1.02760
 C1460 C 0.12283 1.03609 1.00606
 H1461 H 0.17547 1.05953 1.00494
 H1462 H 0.13767 1.02219 1.04721
 H1463 H 0.17152 1.05633 1.07048
 H1464 H 0.12676 1.05047 0.98769
 C1465 C 0.66790 0.58489 0.53342
 C1466 C 0.65248 0.57763 0.50999
 C1467 C 0.62659 0.55909 0.51225
 C1468 C 0.60594 0.56036 0.49165
 H1469 H 0.65791 0.58686 0.48908
 H1470 H 0.62363 0.54565 0.53148
 H1471 H 0.66082 0.57745 0.55447
 H1472 H 0.60819 0.57552 0.47359
 C1473 C 0.66154 0.42237 -0.03128
 C1474 C 0.65003 0.42899 -0.00601
 C1475 C 0.62372 0.44690 -0.00559
 C1476 C 0.60489 0.44454 0.01578
 H1477 H 0.65889 0.42051 0.01427
 H1478 H 0.61901 0.46139 -0.02388
 H1479 H 0.64960 0.42897 -0.05078
 H1480 H 0.60814 0.42834 0.03288
 C1481 C 0.16258 -0.08812 0.46352
 C1482 C 0.14614 -0.08531 0.48656
 C1483 C 0.11909 -0.06859 0.48474
 C1484 C 0.09846 -0.07306 0.50405
 H1485 H 0.15234 -0.09605 0.50683
 H1486 H 0.11585 -0.05285 0.46720
 H1487 H 0.15516 -0.07940 0.44273
 H1488 H 0.10106 -0.09013 0.52040
 C1489 C 0.32920 -0.07466 0.51629
 C1490 C 0.35518 -0.07681 0.52952
 C1491 C 0.37969 -0.05919 0.51954
 C1492 C 0.40637 -0.07034 0.51949
 H1493 H 0.35923 -0.09273 0.54669
 H1494 H 0.37580 -0.03695 0.51236
 H1495 H 0.32754 -0.06128 0.49673
 H1496 H 0.40961 -0.09315 0.52486
 C1497 C -0.16678 0.41686 1.01299
 C1498 C -0.14004 0.40664 1.01811
 C1499 C -0.11467 0.42512 1.01265
 C1500 C -0.08834 0.41369 1.00974
 H1501 H -0.13684 0.38452 1.02602
 H1502 H -0.11768 0.44842 1.01078
 H1503 H -0.16959 0.43823 1.00302
 H1504 H -0.08568 0.39033 1.01007
 C1505 C -0.17107 0.58533 0.47813
 C1506 C -0.15404 0.57239 0.45926
 C1507 C -0.12688 0.55819 0.46904
 C1508 C -0.11577 0.53629 0.45457
 H1509 H -0.16026 0.57115 0.43672
 H1510 H -0.11601 0.56560 0.48846
 H1511 H -0.16528 0.58284 0.50086
 H1512 H -0.12773 0.52762 0.43636
 C1513 C 0.33169 1.08617 -0.01747
 C1514 C 0.35660 1.09203 -0.03069
 C1515 C 0.38112 1.07168 -0.02768
 C1516 C 0.40835 1.08141 -0.02792
 H1517 H 0.36002 1.11250 -0.04200
 H1518 H 0.37684 1.04878 -0.02394
 H1519 H 0.33097 1.06664 -0.00393
 H1520 H 0.41232 1.10457 -0.02965
 C1521 C 0.02650 1.16132 1.08285
 C1522 C 0.03979 1.13551 1.08355
 C1523 C 0.03175 1.11316 1.06271
 C1524 C 0.02790 1.08595 1.07216
 H1525 H 0.05440 1.12925 1.10117
 H1526 H 0.02779 1.11914 1.04023
 H1527 H 0.00957 1.16486 1.06651
 H1528 H 0.02972 1.08115 1.09514
 C1529 C 0.52852 0.65363 0.60283
 C1530 C 0.51431 0.64738 0.57836
 C1531 C 0.51118 0.61756 0.56856
 C1532 C 0.50320 0.61277 0.54129
 H1533 H 0.50536 0.66475 0.56470
 H1534 H 0.51618 0.59955 0.58332
 H1535 H 0.53952 0.63657 0.61530
 H1536 H 0.50030 0.63089 0.52615
 C1537 C -0.01627 0.66711 0.41163
 C1538 C -0.02201 0.64053 0.40229
 C1539 C -0.01813 0.61490 0.42143
 C1540 C -0.01561 0.58855 0.41055
 H1541 H -0.02917 0.63755 0.38016
 H1542 H -0.01691 0.61767 0.44456
 H1543 H -0.00695 0.66971 0.43306
 H1544 H -0.01500 0.58616 0.38739
 C1545 C 0.46636 1.18393 -0.09343
 C1546 C 0.49083 1.16839 -0.09014
 C1547 C 0.49027 1.13959 -0.07584
 C1548 C 0.50878 1.11869 -0.08271
 H1549 H 0.51108 1.17600 -0.09895
 H1550 H 0.47401 1.13528 -0.05973
 H1551 H 0.44619 1.17352 -0.08737
 H1552 H 0.52353 1.12219 -0.10033
 C1553 C 0.52995 0.35496 -0.10430
 C1554 C 0.51393 0.36211 -0.08181
 C1555 C 0.51428 0.39177 -0.07094
 C1556 C 0.50872 0.39644 -0.04334
 H1557 H 0.50168 0.34590 -0.06999
 H1558 H 0.51956 0.40974 -0.08542
 H1559 H 0.54438 0.37136 -0.11312
 H1560 H 0.50543 0.37813 -0.02866
 C1561 C 0.02135 -0.15401 0.39207
 C1562 C 0.00359 -0.14918 0.41391
 C1563 C -0.00092 -0.11984 0.42482
 C1564 C -0.01031 -0.11644 0.45158
 H1565 H -0.00610 -0.16733 0.42545
 H1566 H 0.00553 -0.10110 0.41190
 H1567 H 0.03280 -0.13591 0.38223
 H1568 H -0.01435 -0.13540 0.46519
 C1569 C 0.46770 -0.17270 0.58120
 C1570 C 0.49016 -0.15514 0.58638
 C1571 C 0.49207 -0.12750 0.57024
 C1572 C 0.51045 -0.10636 0.57756
 H1573 H 0.50693 -0.16112 0.60214
 H1574 H 0.47756 -0.12431 0.55170
 H1575 H 0.45026 -0.16532 0.56675
 H1576 H 0.52389 -0.10845 0.59695
 C1577 C -0.02496 0.32175 1.08846
 C1578 C 0.00005 0.33216 1.07831
 C1579 C 0.00016 0.35860 1.06021
 C1580 C 0.02276 0.37663 1.06062
 H1581 H 0.02074 0.32259 1.08459
 H1582 H -0.01919 0.36422 1.04755
 H1583 H -0.04449 0.33445 1.08422
 H1584 H 0.04103 0.37251 1.07524
 C1585 C 0.77668 0.35351 0.07772
 C1586 C 0.75217 0.34580 0.09091
 C1587 C 0.75371 0.32765 0.11744
 C1588 C 0.73405 0.32953 0.13807
 H1589 H 0.73117 0.35343 0.08310
 H1590 H 0.77198 0.31299 0.12050
 H1591 H 0.79707 0.34798 0.08867
 H1592 H 0.71709 0.34578 0.13631
 C1593 C 0.27332 0.87079 0.59020
 C1594 C 0.26013 0.84559 0.59604
 C1595 C 0.25808 0.83395 0.62570
 C1596 C 0.25283 0.80578 0.63027
 H1597 H 0.25191 0.83253 0.57858
 H1598 H 0.26209 0.84803 0.64372
 H1599 H 0.28356 0.88257 0.60760
 H1600 H 0.25091 0.79159 0.61204
 C1601 C 0.72633 0.66410 0.57766
 C1602 C 0.72273 0.65617 0.60520
 C1603 C 0.72848 0.67622 0.62879
 C1604 C 0.73306 0.66564 0.65551
 H1605 H 0.71642 0.63408 0.61062
 H1606 H 0.72934 0.69938 0.62429
 H1607 H 0.73493 0.68541 0.57239
 H1608 H 0.73366 0.64232 0.65923
 C1609 C 0.23766 0.13144 0.10665
 C1610 C 0.24577 0.15908 0.10931
 C1611 C 0.24905 0.17169 0.13801
 C1612 C 0.25003 0.20040 0.14102
 H1613 H 0.24837 0.17293 0.09033
 H1614 H 0.24914 0.15738 0.15692
 H1615 H 0.23320 0.11858 0.12594
 H1616 H 0.24856 0.21459 0.12205
 C1617 C 0.27293 0.16663 0.93831
 C1618 C 0.24842 0.16894 0.92243
 C1619 C 0.24645 0.18936 0.89742
 C1620 C 0.22858 0.18422 0.87502
 H1621 H 0.23060 0.15416 0.92653
 H1622 H 0.26142 0.20747 0.89629
 H1623 H 0.29153 0.17969 0.93238
 H1624 H 0.21541 0.16475 0.87525
 C1625 C 0.76747 0.64091 0.40726
 C1626 C 0.75893 0.66845 0.40331
 C1627 C 0.75704 0.68193 0.37426
 C1628 C 0.75702 0.71079 0.37066
 H1629 H 0.75479 0.68164 0.42179
 H1630 H 0.75676 0.66813 0.35569
 H1631 H 0.77390 0.62856 0.38888
 H1632 H 0.75888 0.72438 0.38933
 C1633 C 0.22822 0.83880 0.42194
 C1634 C 0.22490 0.84612 0.39412
 C1635 C 0.23152 0.82573 0.37142
 C1636 C 0.23762 0.83591 0.34512
 H1637 H 0.21795 0.86791 0.38791
 H1638 H 0.23142 0.80259 0.37618
 H1639 H 0.23750 0.81793 0.42826
 H1640 H 0.23918 0.85915 0.34126
 C1641 C 0.72292 0.36683 0.90525
 C1642 C 0.73518 0.34082 0.90240
 C1643 C 0.73760 0.32776 0.87394
 C1644 C 0.74221 0.29929 0.87182
 H1645 H 0.74216 0.32830 0.92139
 H1646 H 0.73442 0.34127 0.85466
 H1647 H 0.71395 0.37817 0.88634
 H1648 H 0.74369 0.28575 0.89125
 C1649 C 0.86026 0.41520 0.21506
 C1650 C 0.83553 0.40743 0.22752
 C1651 C 0.82597 0.37699 0.22909
 C1652 C 0.79801 0.37111 0.23320
 H1653 H 0.82102 0.42401 0.23499
 H1654 H 0.84135 0.35967 0.22581
 H1655 H 0.87357 0.39878 0.20549
 H1656 H 0.78281 0.38891 0.23491
 C1657 C 0.33998 0.91800 0.71896
 C1658 C 0.35110 0.89226 0.71225
 C1659 C 0.33684 0.86437 0.71957
 C1660 C 0.30809 0.86161 0.72234
 H1661 H 0.37249 0.89124 0.70316
 H1662 H 0.35055 0.84531 0.72151
 H1663 H 0.32005 0.91879 0.73084
 H1664 H 0.29397 0.88003 0.71796
 C1665 C 0.15792 0.92579 0.28580
 C1666 C 0.16789 0.91544 0.26105
 C1667 C 0.18629 0.88933 0.26099
 C1668 C 0.19053 0.87510 0.23670
 H1669 H 0.16247 0.92551 0.24039
 H1670 H 0.19579 0.88111 0.28117
 H1671 H 0.16254 0.91323 0.30547
 H1672 H 0.17922 0.88180 0.21693
 C1673 C 0.65688 0.40936 0.79972
 C1674 C 0.65963 0.39048 0.77861
 C1675 C 0.67794 0.36449 0.78210
 C1676 C 0.67409 0.34238 0.76441
 H1677 H 0.64786 0.39405 0.75834
 H1678 H 0.69448 0.36342 0.79906
 H1679 H 0.66672 0.40471 0.82075
 H1680 H 0.65626 0.34298 0.74878
 C1681 C 0.66665 0.56627 0.71871
 C1682 C 0.66985 0.58198 0.74246
 C1683 C 0.68894 0.60758 0.74280
 C1684 C 0.68781 0.62658 0.76403
 H1685 H 0.65784 0.57652 0.76163
 H1686 H 0.70326 0.61156 0.72489
 H1687 H 0.67744 0.57340 0.69925
 H1688 H 0.67211 0.62359 0.78090
 C1689 C 0.15316 0.09504 0.22638
 C1690 C 0.18033 0.09588 0.23722
 C1691 C 0.19758 0.12276 0.23825
 C1692 C 0.18549 0.14869 0.24212
 H1693 H 0.19107 0.07593 0.24416
 H1694 H 0.22096 0.12075 0.23754
 H1695 H 0.14353 0.11433 0.21640
 H1696 H 0.16231 0.15032 0.24510
 C1697 C 0.31633 0.07423 0.77784
 C1698 C 0.32124 0.10157 0.78534
 C1699 C 0.29917 0.12441 0.78207
 C1700 C 0.30770 0.15199 0.78316
 H1701 H 0.34284 0.10790 0.79242
 H1702 H 0.27664 0.11889 0.77793
 H1703 H 0.29549 0.06831 0.76846
 H1704 H 0.33060 0.15682 0.78600
 C1705 C 0.82369 0.58501 0.26515
 C1706 C 0.82951 0.61156 0.27465
 C1707 C 0.80892 0.63589 0.27062
 C1708 C 0.81890 0.66302 0.27167
 H1709 H 0.85059 0.61596 0.28437
 H1710 H 0.78617 0.63175 0.26599
 H1711 H 0.80355 0.58129 0.25332
 H1712 H 0.84206 0.66647 0.27446
 C1713 C 0.91960 0.26419 0.15932
 C1714 C 0.89297 0.27344 0.15163
 C1715 C 0.86881 0.27070 0.17171
 C1716 C 0.84128 0.27340 0.16243
 H1717 H 0.88877 0.28274 0.13027
 H1718 H 0.87359 0.26579 0.19430
 H1719 H 0.92293 0.25302 0.17996
 H1720 H 0.83646 0.27648 0.13959
 C1721 C 0.40433 0.74994 0.62223
 C1722 C 0.38748 0.76727 0.63715
 C1723 C 0.36163 0.75651 0.65189
 C1724 C 0.35485 0.76838 0.67672
 H1725 H 0.39459 0.78923 0.64131
 H1726 H 0.34911 0.73869 0.64330
 H1727 H 0.39884 0.72718 0.62050
 H1728 H 0.36901 0.78489 0.68556
 C1729 C 0.40876 0.25756 0.85225
 C1730 C 0.38202 0.25076 0.86050
 C1731 C 0.35728 0.25588 0.84053
 C1732 C 0.32994 0.25438 0.84930
 H1733 H 0.37850 0.24046 0.88138
 H1734 H 0.36160 0.25986 0.81788
 H1735 H 0.41157 0.26952 0.83207
 H1736 H 0.32553 0.25176 0.87207
 C1737 C 0.92340 0.72388 0.33971
 C1738 C 0.90803 0.74834 0.33648
 C1739 C 0.88153 0.74927 0.31834
 C1740 C 0.86126 0.76941 0.32208
 H1741 H 0.91420 0.76739 0.34837
 H1742 H 0.87788 0.73240 0.30280
 H1743 H 0.91565 0.70433 0.32956
 H1744 H 0.86408 0.78498 0.33904
 C1745 C 0.09374 0.77506 0.35675
 C1746 C 0.10292 0.78532 0.33139
 C1747 C 0.13127 0.77673 0.32027
 C1748 C 0.13765 0.78178 0.29262
 H1749 H 0.08890 0.79950 0.31830
 H1750 H 0.14700 0.76634 0.33485
 H1751 H 0.10667 0.75922 0.36897
 H1752 H 0.12144 0.79164 0.27821
 C1753 C 0.58151 0.28534 0.83778
 C1754 C 0.59581 0.26015 0.83947
 C1755 C 0.62093 0.25589 0.82121
 C1756 C 0.64194 0.23693 0.82837
 H1757 H 0.58990 0.24346 0.85512
 H1758 H 0.62323 0.27018 0.80246
 H1759 H 0.58928 0.30263 0.82366
 H1760 H 0.64079 0.22406 0.84818
 C1761 C 0.58701 0.73362 0.64567
 C1762 C 0.59946 0.72021 0.66852
 C1763 C 0.62712 0.73032 0.68096
 C1764 C 0.63529 0.72173 0.70757
 H1765 H 0.58895 0.70148 0.67832
 H1766 H 0.64111 0.74409 0.66804
 H1767 H 0.59617 0.75362 0.63712
 H1768 H 0.62049 0.70888 0.72051
 C1769 C 0.08626 0.20810 0.15957
 C1770 C 0.10059 0.23289 0.16409
 C1771 C 0.12671 0.23360 0.18292
 C1772 C 0.14579 0.25539 0.18100
 H1773 H 0.09337 0.25281 0.15328
 H1774 H 0.13076 0.21565 0.19803
 H1775 H 0.09492 0.18788 0.16856
 H1776 H 0.14285 0.27220 0.16444
 C1777 C -0.09899 1.01857 0.84279
 C1778 C -0.08289 0.99634 0.85331
 C1779 C -0.07079 0.99686 0.88302
 C1780 C -0.04849 0.97980 0.89109
 H1781 H -0.07694 0.97852 0.83997
 H1782 H -0.07930 1.01227 0.89795
 H1783 H -0.10232 1.03657 0.85698
 H1784 H -0.03923 0.96548 0.87554
 C1785 C 0.38371 0.52440 0.34155
 C1786 C 0.40306 0.50363 0.34895
 C1787 C 0.41375 0.50014 0.37898
 C1788 C 0.43625 0.48277 0.38604
 H1789 H 0.41249 0.49023 0.33282
 H1790 H 0.40431 0.51354 0.39520
 H1791 H 0.37602 0.53838 0.35821
 H1792 H 0.44637 0.47028 0.36954
 C1793 C 0.57876 0.00069 0.32283
 C1794 C 0.58122 -0.01135 0.34924
 C1795 C 0.56493 -0.00039 0.37358
 C1796 C 0.57528 -0.00554 0.40023
 H1797 H 0.59657 -0.02869 0.35384
 H1798 H 0.54439 0.01064 0.36981
 H1799 H 0.56565 0.02016 0.32013
 H1800 H 0.59638 -0.01577 0.40308
 C1801 C 0.09190 0.48585 0.82252
 C1802 C 0.10115 0.47230 0.84690
 C1803 C 0.09024 0.47818 0.87586
 C1804 C 0.06483 0.49115 0.88086
 H1805 H 0.11822 0.45625 0.84605
 H1806 H 0.10290 0.46904 0.89381
 H1807 H 0.07695 0.50386 0.82340
 H1808 H 0.05109 0.49898 0.86315
 C1809 C 0.09885 0.53000 0.64309
 C1810 C 0.07790 0.51116 0.63617
 C1811 C 0.06793 0.50810 0.60606
 C1812 C 0.04500 0.49155 0.59962
 H1813 H 0.06725 0.49850 0.65282
 H1814 H 0.07906 0.51995 0.58913
 H1815 H 0.10792 0.54366 0.62620
 H1816 H 0.03360 0.48036 0.61681
 C1817 C 0.59602 1.02447 0.14595
 C1818 C 0.57574 1.00398 0.14195
 C1819 C 0.56245 0.99783 0.11365
 C1820 C 0.57566 1.00270 0.08858
 H1821 H 0.56600 0.99318 0.16029
 H1822 H 0.54056 0.98930 0.11377
 H1823 H 0.60334 1.03740 0.12772
 H1824 H 0.59798 1.00997 0.08829
 C1825 C 0.39569 0.49699 0.16180
 C1826 C 0.39059 0.48488 0.13625
 C1827 C 0.40409 0.49442 0.10893
 C1828 C 0.42654 0.51291 0.10691
 H1829 H 0.37573 0.46679 0.13484
 H1830 H 0.39646 0.48350 0.08982
 H1831 H 0.40869 0.51643 0.16304
 H1832 H 0.43553 0.52310 0.12581
 C1833 C -0.10461 -0.03447 0.66843
 C1834 C -0.08879 -0.01202 0.65846
 C1835 C -0.07912 -0.01108 0.62833
 C1836 C -0.05803 0.00692 0.61973
 H1837 H -0.08164 0.00518 0.67229
 H1838 H -0.08836 -0.02639 0.61334
 H1839 H -0.10946 -0.05164 0.65349
 H1840 H -0.04766 0.02103 0.63517
 C1841 C -0.15591 0.88310 1.02563
 C1842 C -0.14396 0.89820 1.00385
 C1843 C -0.11365 0.90800 1.00593
 C1844 C -0.10467 0.93035 0.98959
 H1845 H -0.15665 0.90565 0.98528
 H1846 H -0.09919 0.89817 1.02213
 H1847 H -0.14223 0.87824 1.04446
 H1848 H -0.11984 0.94111 0.97467
 C1849 C 0.34005 0.38765 0.53994
 C1850 C 0.34860 0.40542 0.51840
 C1851 C 0.37876 0.41620 0.51673
 C1852 C 0.38572 0.43648 0.49688
 H1853 H 0.33309 0.41326 0.50222
 H1854 H 0.39493 0.40847 0.53240
 H1855 H 0.35580 0.38142 0.55666
 H1856 H 0.36897 0.44475 0.48211
 C1857 C 0.33441 0.60926 -0.01569
 C1858 C 0.35891 0.61480 -0.02990
 C1859 C 0.38648 0.59917 -0.02406
 C1860 C 0.38818 0.57251 -0.01188
 H1861 H 0.35961 0.63236 -0.04575
 H1862 H 0.40601 0.60981 -0.03143
 H1863 H 0.33479 0.59360 0.00208
 H1864 H 0.36873 0.56101 -0.00574
 C1865 C -0.15997 0.11689 0.47722
 C1866 C -0.14988 0.09887 0.49842
 C1867 C -0.12059 0.08573 0.49740
 C1868 C -0.11295 0.06399 0.51572
 H1869 H -0.16317 0.09258 0.51637
 H1870 H -0.10581 0.09286 0.48081
 H1871 H -0.14557 0.12156 0.45951
 H1872 H -0.12854 0.05613 0.53123
 C1873 C 0.66315 0.11808 0.53023
 C1874 C 0.65504 0.09878 0.51060
 C1875 C 0.62516 0.08724 0.50972
 C1876 C 0.61908 0.06326 0.49522
 H1877 H 0.67093 0.08966 0.49656
 H1878 H 0.60870 0.09703 0.52269
 H1879 H 0.64713 0.12546 0.54517
 H1880 H 0.63619 0.05290 0.48354
 C1881 C 0.15925 0.60665 1.02420
 C1882 C 0.15207 0.59165 1.00068
 C1883 C 0.12354 0.57751 0.99860
 C1884 C 0.11886 0.55509 0.98138
 H1885 H 0.16744 0.58766 0.98399
 H1886 H 0.10679 0.58412 1.01312
 H1887 H 0.14327 0.60773 1.04098
 H1888 H 0.13617 0.54737 0.96812
 C1889 C 0.16152 0.38107 0.47826
 C1890 C 0.15221 0.40301 0.49397
 C1891 C 0.12155 0.41226 0.49194
 C1892 C 0.11289 0.43729 0.50291
 H1893 H 0.16739 0.41522 0.50702
 H1894 H 0.10615 0.39903 0.48015
 H1895 H 0.14612 0.37044 0.46403
 H1896 H 0.12862 0.45082 0.51390
 C1897 C 0.67324 0.91266 -0.03596
 C1898 C 0.66956 0.93254 -0.01577
 C1899 C 0.64247 0.94916 -0.01311
 C1900 C 0.61645 0.93910 -0.02147
 H1901 H 0.68750 0.93849 -0.00174
 H1902 H 0.64418 0.97008 -0.00311
 H1903 H 0.65622 0.90913 -0.05193
 H1904 H 0.61438 0.91751 -0.02991
 C1905 C 0.03052 0.83006 0.89089
 C1906 C 0.01039 0.83854 0.90936
 C1907 C 0.01148 0.86774 0.92145
 C1908 C -0.00404 0.87400 0.94447
 H1909 H -0.00600 0.82385 0.91732
 H1910 H 0.02623 0.88369 0.91242
 H1911 H 0.04714 0.84570 0.88510
 H1912 H -0.01782 0.85750 0.95407
 C1913 C 0.53303 0.33603 0.39891
 C1914 C 0.51399 0.34296 0.41911
 C1915 C 0.51139 0.37303 0.42880
 C1916 C 0.49473 0.37983 0.45098
 H1917 H 0.50063 0.32643 0.42914
 H1918 H 0.52387 0.38979 0.41792
 H1919 H 0.54732 0.35276 0.39053
 H1920 H 0.48310 0.36288 0.46249
 C1921 C -0.03694 0.33214 0.60196
 C1922 C -0.01563 0.34066 0.58433
 C1923 C -0.01547 0.36978 0.57059
 C1924 C 0.00333 0.37614 0.54978
 H1925 H 0.00154 0.32617 0.57858
 H1926 H -0.03136 0.38566 0.57676
 H1927 H -0.05418 0.34754 0.60564
 H1928 H 0.01835 0.35968 0.54302
 C1929 C 0.48239 0.85377 0.10026
 C1930 C 0.49909 0.85974 0.07768
 C1931 C 0.50063 0.88954 0.06536
 C1932 C 0.51209 0.89465 0.03952
 H1933 H 0.51016 0.84238 0.06708
 H1934 H 0.49112 0.90719 0.07693
 H1935 H 0.47002 0.87123 0.10928
 H1936 H 0.52075 0.87665 0.02781
 C1937 C 0.52179 0.67021 0.10834
 C1938 C 0.50307 0.66314 0.08728
 C1939 C 0.50055 0.63273 0.07842
 C1940 C 0.48856 0.62606 0.05297
 H1941 H 0.49130 0.67992 0.07516
 H1942 H 0.51047 0.61584 0.09200
 H1943 H 0.53480 0.65318 0.11873
 H1944 H 0.47984 0.64325 0.03894
 C1945 C 0.01528 0.16132 0.59646
 C1946 C 0.03353 0.13892 0.59396
 C1947 C 0.02512 0.11128 0.58051
 C1948 C 0.00436 0.10831 0.55991
 H1949 H 0.05500 0.13928 0.60364
 H1950 H 0.03807 0.09258 0.58720
 H1951 H -0.00658 0.15876 0.58784
 H1952 H -0.00718 0.12706 0.55110
 C1953 C 0.48174 0.16224 0.41043
 C1954 C 0.47541 0.13600 0.40028
 C1955 C 0.48412 0.10824 0.41503
 C1956 C 0.50420 0.10569 0.43647
 H1957 H 0.46314 0.13453 0.38021
 H1958 H 0.47303 0.08897 0.40773
 H1959 H 0.49415 0.16419 0.43030
 H1960 H 0.51574 0.12446 0.44413
 C1961 C -0.01193 0.65443 0.91164
 C1962 C 0.01346 0.64793 0.92511
 C1963 C 0.01864 0.61976 0.94007
 C1964 C 0.00747 0.59486 0.93058
 H1965 H 0.03028 0.66397 0.92779
 H1966 H 0.03264 0.61966 0.95912
 H1967 H -0.02901 0.63829 0.91251
 H1968 H -0.00481 0.59467 0.91042
 C1969 C 0.26507 0.66468 0.91713
 C1970 C 0.27668 0.65642 0.89239
 C1971 C 0.27050 0.67002 0.86372
 C1972 C 0.25798 0.69606 0.85907
 H1973 H 0.29107 0.63788 0.89254
 H1974 H 0.27829 0.65820 0.84556
 H1975 H 0.24864 0.68143 0.91685
 H1976 H 0.25098 0.70876 0.87691
 C1977 C 0.76868 0.17962 0.42363
 C1978 C 0.77656 0.17457 0.39671
 C1979 C 0.76643 0.19343 0.37236
 C1980 C 0.77046 0.18544 0.34530
 H1981 H 0.78974 0.15578 0.39240
 H1982 H 0.75565 0.21372 0.37658
 H1983 H 0.75391 0.19738 0.42734
 H1984 H 0.78092 0.16483 0.34161
 C1985 C 0.24110 0.33842 0.42165
 C1986 C 0.23060 0.34716 0.39572
 C1987 C 0.23847 0.33456 0.36802
 C1988 C 0.25110 0.30858 0.36513
 H1989 H 0.21535 0.36501 0.39424
 H1990 H 0.23103 0.34665 0.34896
 H1991 H 0.25832 0.32249 0.42335
 H1992 H 0.25761 0.29557 0.38388
 C1993 C 0.73835 0.85962 0.90041
 C1994 C 0.75587 0.83737 0.89507
 C1995 C 0.75664 0.82537 0.86599
 C1996 C 0.77048 0.80051 0.86142
 H1997 H 0.76795 0.82642 0.91237
 H1998 H 0.74399 0.83579 0.84869
 H1999 H 0.72557 0.86907 0.88265
 H2000 H 0.78247 0.78988 0.87907
 C2001 C 0.76248 0.84906 0.08460
 C2002 C 0.77296 0.85919 0.10959
 C2003 C 0.76406 0.84909 0.13857
 C2004 C 0.74866 0.82495 0.14396
 H2005 H 0.78947 0.87588 0.10917
 H2006 H 0.77328 0.86089 0.15646
 H2007 H 0.74426 0.83431 0.08434
 H2008 H 0.74026 0.81213 0.12648
 C2009 C 0.26485 0.34220 0.60241
 C2010 C 0.24520 0.32084 0.60532
 C2011 C 0.23851 0.30601 0.63303
 C2012 C 0.24152 0.31820 0.65885
 H2013 H 0.23520 0.31169 0.58632
 H2014 H 0.23029 0.28407 0.63175
 H2015 H 0.27710 0.34919 0.62114
 H2016 H 0.24844 0.34056 0.66025
 C2017 C 0.73731 0.15780 0.59703
 C2018 C 0.75739 0.17830 0.60178
 C2019 C 0.76139 0.19217 0.62990
 C2020 C 0.75521 0.17895 0.65506
 H2021 H 0.76917 0.18770 0.58394
 H2022 H 0.76931 0.21429 0.62956
 H2023 H 0.72344 0.15080 0.61439
 H2024 H 0.74887 0.15634 0.65568
 C2025 C 0.22508 0.64918 0.09560
 C2026 C 0.24640 0.66699 0.10400
 C2027 C 0.24781 0.67763 0.13369
 C2028 C 0.26579 0.69920 0.14059
 H2029 H 0.26174 0.67555 0.08869
 H2030 H 0.23249 0.66939 0.14929
 H2031 H 0.20937 0.64223 0.11141
 H2032 H 0.28015 0.70809 0.12441
 C2033 C 0.14268 0.59589 0.71469
 C2034 C 0.16299 0.60111 0.73498
 C2035 C 0.17416 0.63081 0.73836
 C2036 C 0.19839 0.63635 0.75369
 H2037 H 0.17236 0.58353 0.74799
 H2038 H 0.16309 0.64835 0.72666
 H2039 H 0.13514 0.61376 0.70084
 H2040 H 0.21016 0.61868 0.76442
 C2041 C 0.63801 0.09928 0.20992
 C2042 C 0.65868 0.10587 0.22935
 C2043 C 0.66967 0.13571 0.23149
 C2044 C 0.69443 0.14123 0.24582
 H2045 H 0.66848 0.08900 0.24300
 H2046 H 0.65801 0.15315 0.22021
 H2047 H 0.62996 0.11606 0.19503
 H2048 H 0.70680 0.12347 0.25571
 C2049 C 0.85385 0.08123 0.76760
 C2050 C 0.86103 0.10667 0.77931
 C2051 C 0.84609 0.13456 0.77256
 C2052 C 0.81991 0.13666 0.75951
 H2053 H 0.87867 0.10750 0.79501
 H2054 H 0.85606 0.15381 0.78129
 H2055 H 0.83813 0.08066 0.75000
 H2056 H 0.80896 0.11750 0.75193
 C2057 C 0.33882 0.59428 0.26837
 C2058 C 0.34494 0.61877 0.28231
 C2059 C 0.33257 0.64769 0.27448
 C2060 C 0.30917 0.65222 0.25717
 H2061 H 0.36067 0.61822 0.29995
 H2062 H 0.34257 0.66599 0.28497
 H2063 H 0.32501 0.59518 0.24925
 H2064 H 0.29793 0.63415 0.24761
 C2065 C 0.35827 0.41525 0.22445
 C2066 C 0.34239 0.40428 0.24600
 C2067 C 0.33351 0.37350 0.24701
 C2068 C 0.31346 0.36448 0.26562
 H2069 H 0.33403 0.41819 0.26225
 H2070 H 0.34153 0.35884 0.23112
 H2071 H 0.36514 0.40071 0.20791
 H2072 H 0.30445 0.37988 0.28028
 C2073 C 0.84718 0.90245 0.74095
 C2074 C 0.85287 0.87720 0.72839
 C2075 C 0.83814 0.84924 0.73473
 C2076 C 0.81269 0.84636 0.74807
 H2077 H 0.86997 0.87631 0.71284
 H2078 H 0.84828 0.83020 0.72617
 H2079 H 0.83201 0.90298 0.75839
 H2080 H 0.80165 0.86522 0.75584
 C2081 C 0.63309 0.92394 0.27347
 C2082 C 0.65503 0.91612 0.25690
 C2083 C 0.66695 0.88645 0.25847
 C2084 C 0.69082 0.88003 0.24408
 H2085 H 0.66533 0.93190 0.24285
 H2086 H 0.65687 0.87019 0.27223
 H2087 H 0.62431 0.90802 0.28851
 H2088 H 0.70112 0.89680 0.23108
 C2089 C 0.13113 0.41356 0.75308
 C2090 C 0.12314 0.38915 0.76725
 C2091 C 0.13664 0.36036 0.76321
 C2092 C 0.16301 0.35708 0.75215
 H2093 H 0.10625 0.38992 0.78300
 H2094 H 0.12581 0.34172 0.77271
 H2095 H 0.14591 0.41224 0.73538
 H2096 H 0.17489 0.37580 0.74438
 C2097 C 0.08885 0.75896 0.83918
 C2098 C 0.11460 0.77110 0.84510
 C2099 C 0.14186 0.76439 0.83060
 C2100 C 0.14396 0.74915 0.80644
 H2101 H 0.11639 0.78665 0.86213
 H2102 H 0.16113 0.77422 0.83986
 H2103 H 0.08714 0.74164 0.82397
 H2104 H 0.12497 0.73992 0.79615
 C2105 C 0.59355 0.26083 0.35062
 C2106 C 0.61971 0.27280 0.35516
 C2107 C 0.64638 0.26486 0.33982
 C2108 C 0.64709 0.24844 0.31628
 H2109 H 0.62221 0.28945 0.37103
 H2110 H 0.66616 0.27521 0.34724
 H2111 H 0.59141 0.24276 0.33635
 H2112 H 0.62747 0.23896 0.30754
 C2113 C 0.59526 0.74005 0.14217
 C2114 C 0.60321 0.75947 0.16172
 C2115 C 0.63340 0.76048 0.17292
 C2116 C 0.63992 0.77522 0.19660
 H2117 H 0.58707 0.77317 0.17117
 H2118 H 0.64990 0.74764 0.16290
 H2119 H 0.61157 0.72538 0.13443
 H2120 H 0.62291 0.78711 0.20695
 C2121 C 0.08176 0.23098 0.64961
 C2122 C 0.10691 0.21635 0.64971
 C2123 C 0.13333 0.22571 0.66592
 C2124 C 0.13293 0.24320 0.68869
 H2125 H 0.10890 0.19694 0.63738
 H2126 H 0.15359 0.21570 0.66018
 H2127 H 0.08119 0.25139 0.66055
 H2128 H 0.11262 0.25158 0.69618
 C2129 C 0.90660 0.26104 0.66038
 C2130 C 0.88044 0.27312 0.65580
 C2131 C 0.85426 0.26517 0.67204
 C2132 C 0.85430 0.25081 0.69763
 H2133 H 0.87730 0.28896 0.63842
 H2134 H 0.83394 0.27317 0.66277
 H2135 H 0.90917 0.24340 0.67603
 H2136 H 0.87442 0.24389 0.70805
 C2137 C 0.41308 0.78481 0.14365
 C2138 C 0.40616 0.76645 0.16522
 C2139 C 0.37589 0.76505 0.17490
 C2140 C 0.36872 0.75228 0.19997
 H2141 H 0.42280 0.75390 0.17668
 H2142 H 0.35935 0.77622 0.16189
 H2143 H 0.39611 0.79835 0.13391
 H2144 H 0.38540 0.74195 0.21347
 C2145 C 0.41644 0.23089 0.35031
 C2146 C 0.39024 0.22079 0.35761
 C2147 C 0.36237 0.22924 0.34286
 C2148 C 0.35942 0.24833 0.32051
 H2149 H 0.38866 0.20551 0.37558
 H2150 H 0.34327 0.21812 0.35063
 H2151 H 0.41818 0.24699 0.33314
 H2152 H 0.37804 0.25938 0.31180
 C2153 C 0.91386 0.71594 0.86423
 C2154 C 0.90614 0.73231 0.84113
 C2155 C 0.87577 0.73329 0.83092
 C2156 C 0.86844 0.74541 0.80533
 H2157 H 0.92235 0.74376 0.82871
 H2158 H 0.85942 0.72274 0.84396
 H2159 H 0.89743 0.70322 0.87514
 H2160 H 0.88503 0.75516 0.79201
   
