data_POSCAR
  _audit_creation_date              2014-09-24
  _audit_creation_method            'ToBaCCo'
  _symmetry_space_group_name_H-M    'P1'
  _symmetry_Int_Tables_number       1
  _symmetry_cell_setting            triclinic
  loop_
  _symmetry_equiv_pos_as_xyz
 x,y,z
_cell_length_a 64.7693
_cell_length_b 65.0938
_cell_length_c 64.5001
_cell_angle_alpha 89.710300
_cell_angle_beta 90.218400
_cell_angle_gamma 89.985600
loop_
  _atom_site_label
  _atom_site_type_symbol
  _atom_site_fract_x
  _atom_site_fract_y
  _atom_site_fract_z
N1 N 0.17657 0.22593 0.23211
 N2 N 0.18196 0.20948 0.24269
 C3 C 0.16953 0.20761 0.25929
 C4 C 0.15554 0.22377 0.25913
 C5 C 0.16057 0.23507 0.24158
 H6 H 0.17054 0.19532 0.27055
 H7 H 0.15307 0.24883 0.23590
 Cu8 Cu 0.20447 0.19197 0.23349
 Cu9 Cu 0.19045 0.23417 0.20666
 Cu10 Cu 0.23062 0.20324 0.18998
 N11 N 0.22705 0.17473 0.22394
 N12 N 0.23716 0.17924 0.20690
 C13 C 0.25193 0.16506 0.20385
 C14 C 0.25111 0.15078 0.21984
 C15 C 0.23507 0.15747 0.23231
 H16 H 0.26241 0.16516 0.19086
 H17 H 0.22977 0.15043 0.24653
 N18 N 0.22169 0.22817 0.17499
 N19 N 0.20639 0.23993 0.18131
 C20 C 0.20411 0.25570 0.16791
 C21 C 0.21869 0.25385 0.15238
 C22 C 0.22956 0.23618 0.15742
 H23 H 0.19281 0.26780 0.16951
 H24 H 0.24220 0.22955 0.14887
 H25 H 0.19988 0.20505 0.19829
 H26 H 0.21853 0.22071 0.21369
 N27 N 0.67448 0.72375 0.73359
 N28 N 0.67998 0.70695 0.74353
 C29 C 0.66698 0.70386 0.75951
 C30 C 0.65252 0.71958 0.75959
 C31 C 0.65785 0.73191 0.74287
 H32 H 0.66784 0.69098 0.77011
 H33 H 0.65026 0.74584 0.73776
 Cu34 Cu 0.70345 0.69067 0.73446
 Cu35 Cu 0.68900 0.73368 0.70918
 Cu36 Cu 0.73025 0.70454 0.69202
 N37 N 0.72633 0.67421 0.72429
 N38 N 0.73674 0.67973 0.70773
 C39 C 0.75167 0.66582 0.70419
 C40 C 0.75063 0.65066 0.71934
 C41 C 0.73429 0.65657 0.73182
 H42 H 0.76253 0.66681 0.69156
 H43 H 0.72856 0.64863 0.74537
 N44 N 0.72128 0.73013 0.67822
 N45 N 0.70557 0.74122 0.68477
 C46 C 0.70314 0.75753 0.67207
 C47 C 0.71802 0.75674 0.65674
 C48 C 0.72926 0.73912 0.66119
 H49 H 0.69139 0.76916 0.67390
 H50 H 0.74211 0.73310 0.65250
 H51 H 0.69932 0.70513 0.69976
 H52 H 0.71726 0.72056 0.71624
 N53 N 0.32170 0.77935 0.72985
 N54 N 0.31549 0.79547 0.74029
 C55 C 0.32820 0.79828 0.75661
 C56 C 0.34325 0.78310 0.75642
 C57 C 0.33853 0.77137 0.73914
 H58 H 0.32663 0.81053 0.76773
 H59 H 0.34672 0.75805 0.73359
 Cu60 Cu 0.29153 0.81130 0.73132
 Cu61 Cu 0.30765 0.76993 0.70490
 Cu62 Cu 0.26449 0.79744 0.68906
 N63 N 0.26705 0.82637 0.72245
 N64 N 0.25658 0.82087 0.70592
 C65 C 0.24064 0.83384 0.70312
 C66 C 0.24102 0.84844 0.71877
 C67 C 0.25810 0.84307 0.73076
 H68 H 0.22971 0.83267 0.69049
 H69 H 0.26375 0.85072 0.74447
 N70 N 0.27493 0.77329 0.67407
 N71 N 0.29136 0.76284 0.68008
 C72 C 0.29455 0.74734 0.66671
 C73 C 0.27939 0.74800 0.65150
 C74 C 0.26723 0.76471 0.65673
 H75 H 0.30707 0.73644 0.66795
 H76 H 0.25368 0.77018 0.64860
 H77 H 0.29560 0.79810 0.69624
 H78 H 0.27893 0.78130 0.71269
 N79 N 0.82246 0.27314 0.23162
 N80 N 0.81705 0.28924 0.24250
 C81 C 0.82977 0.29092 0.25897
 C82 C 0.84404 0.27496 0.25845
 C83 C 0.83877 0.26400 0.24076
 H84 H 0.82874 0.30301 0.27031
 H85 H 0.84625 0.25046 0.23475
 Cu86 Cu 0.79413 0.30670 0.23390
 Cu87 Cu 0.80824 0.26540 0.20622
 Cu88 Cu 0.76800 0.29668 0.18984
 N89 N 0.77191 0.32444 0.22412
 N90 N 0.76175 0.32045 0.20694
 C91 C 0.74725 0.33499 0.20391
 C92 C 0.74835 0.34893 0.22005
 C93 C 0.76423 0.34169 0.23257
 H94 H 0.73678 0.33537 0.19083
 H95 H 0.76967 0.34834 0.24690
 N96 N 0.77667 0.27192 0.17469
 N97 N 0.79202 0.26006 0.18093
 C98 C 0.79421 0.24449 0.16746
 C99 C 0.77951 0.24657 0.15194
 C100 C 0.76867 0.26417 0.15708
 H101 H 0.80552 0.23237 0.16899
 H102 H 0.75596 0.27092 0.14855
 H103 H 0.79872 0.29483 0.19843
 H104 H 0.78009 0.27860 0.21330
 N105 N 0.82907 0.72382 0.27266
 N106 N 0.82413 0.70691 0.26278
 C107 C 0.83789 0.70373 0.24754
 C108 C 0.85228 0.71950 0.24785
 C109 C 0.84613 0.73196 0.26406
 H110 H 0.83750 0.69084 0.23706
 H111 H 0.85334 0.74604 0.26914
 Cu112 Cu 0.80008 0.69086 0.27077
 Cu113 Cu 0.81300 0.73412 0.29585
 Cu114 Cu 0.77009 0.70570 0.31040
 N115 N 0.77596 0.67505 0.27904
 N116 N 0.76431 0.68093 0.29455
 C117 C 0.74874 0.66745 0.29693
 C118 C 0.75066 0.65224 0.28208
 C119 C 0.76817 0.65763 0.27101
 H120 H 0.73678 0.66879 0.30849
 H121 H 0.77481 0.64944 0.25813
 N122 N 0.77852 0.73121 0.32448
 N123 N 0.79483 0.74202 0.31892
 C124 C 0.79661 0.75835 0.33152
 C125 C 0.78066 0.75788 0.34578
 C126 C 0.76951 0.74040 0.34077
 H127 H 0.80874 0.76968 0.33042
 H128 H 0.75591 0.73465 0.34849
 H129 H 0.80154 0.70594 0.30527
 H130 H 0.78520 0.72120 0.28693
 N131 N 0.32689 0.22308 -0.22467
 N132 N 0.32054 0.20750 -0.23586
 C133 C 0.33372 0.20472 -0.25170
 C134 C 0.34928 0.21939 -0.25045
 C135 C 0.34430 0.23075 -0.23297
 H136 H 0.33197 0.19291 -0.26326
 H137 H 0.35257 0.24371 -0.22667
 Cu138 Cu 0.29554 0.19249 -0.22865
 Cu139 Cu 0.31206 0.23247 -0.20026
 Cu140 Cu 0.26741 0.20610 -0.18726
 N141 N 0.27049 0.17775 -0.22110
 N142 N 0.25956 0.18323 -0.20493
 C143 C 0.24323 0.17061 -0.20307
 C144 C 0.24388 0.15634 -0.21892
 C145 C 0.26145 0.16139 -0.23006
 H146 H 0.23190 0.17162 -0.19086
 H147 H 0.26722 0.15377 -0.24371
 N148 N 0.27788 0.22962 -0.17127
 N149 N 0.29490 0.23963 -0.17616
 C150 C 0.29789 0.25480 -0.16235
 C151 C 0.28198 0.25437 -0.14803
 C152 C 0.26960 0.23816 -0.15425
 H153 H 0.31076 0.26534 -0.16268
 H154 H 0.25548 0.23303 -0.14704
 H155 H 0.29875 0.20451 -0.19305
 H156 H 0.28331 0.22240 -0.20970
 N157 N 0.67126 0.27813 -0.22567
 N158 N 0.67668 0.29414 -0.23685
 C159 C 0.66311 0.29651 -0.25255
 C160 C 0.64829 0.28111 -0.25123
 C161 C 0.65410 0.26975 -0.23385
 H162 H 0.66405 0.30860 -0.26404
 H163 H 0.64653 0.25636 -0.22749
 Cu164 Cu 0.70099 0.31029 -0.22979
 Cu165 Cu 0.68680 0.26927 -0.20132
 Cu166 Cu 0.72960 0.29827 -0.18779
 N167 N 0.72481 0.32669 -0.22170
 N168 N 0.73589 0.32189 -0.20528
 C169 C 0.75134 0.33555 -0.20323
 C170 C 0.74994 0.34979 -0.21924
 C171 C 0.73285 0.34362 -0.23065
 H172 H 0.76279 0.33500 -0.19102
 H173 H 0.72665 0.35092 -0.24440
 N174 N 0.72074 0.27380 -0.17205
 N175 N 0.70446 0.26276 -0.17722
 C176 C 0.70250 0.24712 -0.16363
 C177 C 0.71830 0.24832 -0.14914
 C178 C 0.72955 0.26548 -0.15503
 H179 H 0.69053 0.23560 -0.16436
 H180 H 0.74311 0.27155 -0.14744
 H181 H 0.69829 0.29801 -0.19414
 H182 H 0.71497 0.28115 -0.21038
 N183 N 0.17302 0.77851 0.27462
 N184 N 0.17798 0.79512 0.26412
 C185 C 0.16469 0.79744 0.24817
 C186 C 0.15057 0.78143 0.24869
 C187 C 0.15640 0.76973 0.26576
 H188 H 0.16519 0.80993 0.23710
 H189 H 0.14926 0.75574 0.27126
 Cu190 Cu 0.20138 0.81209 0.27223
 Cu191 Cu 0.18849 0.76944 0.29893
 Cu192 Cu 0.23085 0.79873 0.31320
 N193 N 0.22556 0.82803 0.28016
 N194 N 0.23697 0.82272 0.29617
 C195 C 0.25264 0.83614 0.29816
 C196 C 0.25109 0.85080 0.28248
 C197 C 0.23360 0.84503 0.27137
 H198 H 0.26426 0.83511 0.31017
 H199 H 0.22716 0.85252 0.25784
 N200 N 0.22219 0.77393 0.32848
 N201 N 0.20607 0.76277 0.32306
 C202 C 0.20418 0.74696 0.33646
 C203 C 0.21987 0.74816 0.35107
 C204 C 0.23097 0.76550 0.34546
 H205 H 0.19231 0.73533 0.33552
 H206 H 0.24439 0.77165 0.35325
 H207 H 0.19946 0.79803 0.30731
 H208 H 0.21623 0.78238 0.28997
 N209 N 0.47134 0.41948 0.47427
 N210 N 0.45470 0.42455 0.48465
 C211 C 0.45194 0.41095 0.50020
 C212 C 0.46768 0.39652 0.49956
 C213 C 0.47970 0.40250 0.48283
 H214 H 0.43936 0.41153 0.51112
 H215 H 0.49361 0.39520 0.47733
 Cu216 Cu 0.43833 0.44851 0.47703
 Cu217 Cu 0.48098 0.43533 0.45051
 Cu218 Cu 0.45273 0.47864 0.43708
 N219 N 0.42307 0.47327 0.46964
 N220 N 0.42875 0.48492 0.45399
 C221 C 0.41569 0.50093 0.45230
 C222 C 0.40098 0.49930 0.46777
 C223 C 0.40621 0.48152 0.47848
 H224 H 0.41701 0.51297 0.44079
 H225 H 0.39827 0.47499 0.49166
 N226 N 0.47745 0.46978 0.42184
 N227 N 0.48823 0.45332 0.42696
 C228 C 0.50413 0.45141 0.41370
 C229 C 0.50336 0.46745 0.39949
 C230 C 0.48619 0.47877 0.40520
 H231 H 0.51547 0.43926 0.41444
 H232 H 0.48037 0.49250 0.39775
 H233 H 0.46867 0.46297 0.46012
 H234 H 0.45259 0.44722 0.44209
 N235 N -0.02535 -0.07523 0.97621
 N236 N -0.04264 -0.07100 0.98588
 C237 C -0.04583 -0.08528 1.00071
 C238 C -0.02968 -0.09926 1.00031
 C239 C -0.01699 -0.09233 0.98450
 H240 H -0.05896 -0.08548 1.01098
 H241 H -0.00257 -0.09902 0.97954
 Cu242 Cu -0.05921 -0.04714 0.97835
 Cu243 Cu -0.01483 -0.05815 0.95377
 Cu244 Cu -0.04327 -0.01487 0.94071
 N245 N -0.07461 -0.02241 0.97119
 N246 N -0.06832 -0.00989 0.95648
 C247 C -0.08168 0.00586 0.95476
 C248 C -0.09724 0.00316 0.96921
 C249 C -0.09218 -0.01499 0.97937
 H250 H -0.08001 0.01845 0.94391
 H251 H -0.10071 -0.02233 0.99171
 N252 N -0.01751 -0.02252 0.92654
 N253 N -0.00670 -0.03900 0.93150
 C254 C 0.00978 -0.04021 0.91890
 C255 C 0.00938 -0.02369 0.90527
 C256 C -0.00819 -0.01280 0.91064
 H257 H 0.02104 -0.05244 0.91941
 H258 H -0.01385 0.00114 0.90347
 H259 H -0.02835 -0.03123 0.96390
 H260 H -0.04300 -0.04644 0.94425
 N261 N 1.02729 0.57755 0.97334
 N262 N 1.04329 0.57185 0.98454
 C263 C 1.04588 0.58523 1.00018
 C264 C 1.03066 0.60015 0.99877
 C265 C 1.01913 0.59471 0.98149
 H266 H 1.05788 0.58410 1.01181
 H267 H 1.00590 0.60272 0.97515
 Cu268 Cu 1.05930 0.54756 0.97762
 Cu269 Cu 1.01832 0.56240 0.94897
 Cu270 Cu 1.04722 0.51975 0.93542
 N271 N 1.07564 0.52388 0.96942
 N272 N 1.07086 0.51312 0.95292
 C273 C 1.08460 0.49777 0.95081
 C274 C 1.09885 0.49891 0.96686
 C275 C 1.09261 0.51574 0.97836
 H276 H 1.08424 0.48669 0.93839
 H277 H 1.09980 0.52160 0.99226
 N278 N 1.02274 0.52889 0.91967
 N279 N 1.01171 0.54510 0.92484
 C280 C 0.99606 0.54730 0.91121
 C281 C 0.99724 0.53173 0.89668
 C282 C 1.01439 0.52037 0.90261
 H283 H 0.98461 0.55933 0.91191
 H284 H 1.02044 0.50689 0.89505
 H285 H 1.03000 0.53418 0.95800
 H286 H 1.04719 0.55084 0.94193
 N287 N 0.52636 0.07485 0.47811
 N288 N 0.54164 0.06849 0.48995
 C289 C 0.54417 0.08179 0.50568
 C290 C 0.52966 0.09735 0.50363
 C291 C 0.51864 0.09237 0.48589
 H292 H 0.55555 0.08012 0.51786
 H293 H 0.50597 0.10085 0.47904
 Cu294 Cu 0.55653 0.04330 0.48370
 Cu295 Cu 0.51739 0.05987 0.45362
 Cu296 Cu 0.54359 0.01488 0.44225
 N297 N 0.57117 0.01805 0.47710
 N298 N 0.56594 0.00699 0.46093
 C299 C 0.57850 -0.00943 0.45980
 C300 C 0.59243 -0.00868 0.47613
 C301 C 0.58727 0.00903 0.48679
 H302 H 0.57773 -0.02085 0.44772
 H303 H 0.59467 0.01492 0.50057
 N304 N 0.52055 0.02545 0.42522
 N305 N 0.51060 0.04258 0.42954
 C306 C 0.49573 0.04561 0.41521
 C307 C 0.49629 0.02962 0.40113
 C308 C 0.51227 0.01715 0.40801
 H309 H 0.48531 0.05857 0.41500
 H310 H 0.51734 0.00292 0.40114
 H311 H 0.52687 0.03121 0.46382
 H312 H 0.54550 0.04608 0.44761
 N313 N -0.02470 0.06862 0.51481
 N314 N -0.04071 0.06251 0.50392
 C315 C -0.04431 0.07620 0.48860
 C316 C -0.02975 0.09178 0.48992
 C317 C -0.01757 0.08636 0.50681
 H318 H -0.05660 0.07486 0.47732
 H319 H -0.00447 0.09465 0.51294
 Cu320 Cu -0.05529 0.03725 0.51082
 Cu321 Cu -0.01419 0.05315 0.53851
 Cu322 Cu -0.04029 0.00858 0.55178
 N323 N -0.07015 0.01253 0.51896
 N324 N -0.06418 0.00139 0.53492
 C325 C -0.07719 -0.01456 0.53727
 C326 C -0.09223 -0.01341 0.52196
 C327 C -0.08721 0.00404 0.51062
 H328 H -0.07576 -0.02608 0.54931
 H329 H -0.09551 0.01030 0.49748
 N330 N -0.01579 0.01841 0.56695
 N331 N -0.00590 0.03542 0.56195
 C332 C 0.00986 0.03815 0.57533
 C333 C 0.00995 0.02208 0.58951
 C334 C -0.00658 0.00987 0.58364
 H335 H 0.02035 0.05103 0.57487
 H336 H -0.01163 -0.00418 0.59101
 H337 H -0.02467 0.02471 0.52906
 H338 H -0.04215 0.03984 0.54618
 N339 N 0.47564 0.57445 0.02062
 N340 N 0.45888 0.56936 0.01035
 C341 C 0.45671 0.58200 -0.00610
 C342 C 0.47300 0.59583 -0.00619
 C343 C 0.48471 0.59049 0.01107
 H344 H 0.44408 0.58128 -0.01705
 H345 H 0.49871 0.59775 0.01646
 Cu346 Cu 0.44131 0.54693 0.01970
 Cu347 Cu 0.48428 0.56023 0.04583
 Cu348 Cu 0.45370 0.51969 0.06241
 N349 N 0.42458 0.52384 0.02895
 N350 N 0.42951 0.51328 0.04565
 C351 C 0.41555 0.49824 0.04851
 C352 C 0.40099 0.49936 0.03273
 C353 C 0.40728 0.51585 0.02060
 H354 H 0.41598 0.48737 0.06122
 H355 H 0.39995 0.52149 0.00662
 N356 N 0.47879 0.52852 0.07726
 N357 N 0.49042 0.54396 0.07097
 C358 C 0.50628 0.54622 0.08432
 C359 C 0.50461 0.53148 0.09980
 C360 C 0.48696 0.52055 0.09476
 H361 H 0.51827 0.55765 0.08277
 H362 H 0.48043 0.50781 0.10330
 H363 H 0.47068 0.53247 0.03850
 H364 H 0.45525 0.55051 0.05468
 N365 N 0.52313 -0.07149 0.01845
 N366 N 0.53946 -0.06617 0.00767
 C367 C 0.54101 -0.07858 -0.00890
 C368 C 0.52476 -0.09246 -0.00851
 C369 C 0.51375 -0.08742 0.00913
 H370 H 0.55312 -0.07761 -0.02034
 H371 H 0.50009 -0.09493 0.01501
 Cu372 Cu 0.55725 -0.04379 0.01667
 Cu373 Cu 0.51536 -0.05769 0.04395
 Cu374 Cu 0.54675 -0.01775 0.06029
 N375 N 0.57477 -0.02135 0.02603
 N376 N 0.57056 -0.01128 0.04310
 C377 C 0.58491 0.00338 0.04601
 C378 C 0.59897 0.00252 0.02989
 C379 C 0.59199 -0.01342 0.01750
 H380 H 0.58508 0.01380 0.05899
 H381 H 0.59880 -0.01873 0.00324
 N382 N 0.52195 -0.02663 0.07554
 N383 N 0.51005 -0.04186 0.06933
 C384 C 0.49445 -0.04419 0.08287
 C385 C 0.49656 -0.02971 0.09839
 C386 C 0.51420 -0.01884 0.09318
 H387 H 0.48229 -0.05544 0.08138
 H388 H 0.52099 -0.00626 0.10168
 H389 H 0.52878 -0.02974 0.03676
 H390 H 0.54480 -0.04831 0.05203
 N391 N 1.02895 0.42455 0.52000
 N392 N 1.04571 0.42979 0.50988
 C393 C 1.04819 0.41703 0.49371
 C394 C 1.03212 0.40294 0.49366
 C395 C 1.02021 0.40828 0.51064
 H396 H 1.06084 0.41789 0.48288
 H397 H 1.00624 0.40090 0.51593
 Cu398 Cu 1.06276 0.45269 0.51891
 Cu399 Cu 1.01978 0.43906 0.54464
 Cu400 Cu 1.04940 0.48046 0.56060
 N401 N 1.07896 0.47624 0.52781
 N402 N 1.07367 0.48701 0.54412
 C403 C 1.08734 0.50233 0.54680
 C404 C 1.10208 0.50119 0.53130
 C405 C 1.09619 0.48439 0.51954
 H406 H 1.08655 0.51343 0.55916
 H407 H 1.10376 0.47858 0.50588
 N408 N 1.02430 0.47145 0.57523
 N409 N 1.01305 0.45566 0.56919
 C410 C 0.99707 0.45337 0.58229
 C411 C 0.99825 0.46844 0.59734
 C412 C 1.01575 0.47961 0.59231
 H413 H 0.98532 0.44168 0.58085
 H414 H 1.02193 0.49264 0.60058
 H415 H 1.03294 0.46694 0.53676
 H416 H 1.04852 0.44949 0.55374
 C417 C 0.37338 -0.00034 0.24926
 C418 C 0.12582 0.00300 0.74882
 C419 C 0.62876 0.50141 0.25101
 C420 C 0.87298 0.49918 0.74631
 C421 C 0.24991 0.37754 0.00169
 C422 C 0.75095 0.12381 0.00091
 C423 C 0.25279 0.62387 0.50122
 C424 C 0.74809 0.87403 0.50087
 C425 C -0.00049 0.24953 0.37584
 C426 C 0.00160 0.74934 0.12285
 C427 C 0.49865 0.24788 0.62568
 C428 C 0.49746 0.75166 0.87595
 C429 C 0.10581 0.23487 0.30176
 C430 C 0.11833 0.21752 0.30419
 C431 C 0.13461 0.21399 0.29049
 C432 C 0.13859 0.22778 0.27407
 C433 C 0.12598 0.24531 0.27194
 C434 C 0.10971 0.24879 0.28567
 C435 C 0.08857 0.23808 0.31538
 C436 C 0.07390 0.24057 0.32654
 C437 C 0.05610 0.24327 0.33952
 C438 C 0.05235 0.22963 0.35587
 C439 C 0.03450 0.23157 0.36782
 C440 C 0.01960 0.24683 0.36318
 C441 C 0.02445 0.26131 0.34752
 C442 C 0.04229 0.25933 0.33560
 H443 H 0.11541 0.20661 0.31658
 H444 H 0.14387 0.20034 0.29273
 H445 H 0.12850 0.25636 0.25964
 H446 H 0.10008 0.26227 0.28362
 H447 H 0.06323 0.21744 0.35938
 H448 H 0.03266 0.22113 0.38076
 H449 H 0.01405 0.27395 0.34419
 H450 H 0.04523 0.27025 0.32322
 C451 C 0.60179 0.72804 0.80159
 C452 C 0.61677 0.71308 0.80578
 C453 C 0.63329 0.71031 0.79217
 C454 C 0.63505 0.72249 0.77415
 C455 C 0.61987 0.73750 0.77014
 C456 C 0.60339 0.74022 0.78376
 C457 C 0.58469 0.73093 0.81545
 C458 C 0.57017 0.73369 0.82673
 C459 C 0.55261 0.73740 0.83977
 C460 C 0.53395 0.72734 0.83590
 C461 C 0.51656 0.73183 0.84777
 C462 C 0.51721 0.74705 0.86333
 C463 C 0.53660 0.75597 0.86794
 C464 C 0.55399 0.75144 0.85603
 H465 H 0.61568 0.70357 0.81957
 H466 H 0.64468 0.69871 0.79589
 H467 H 0.62052 0.74709 0.75643
 H468 H 0.59185 0.75183 0.78035
 H469 H 0.53279 0.71615 0.82357
 H470 H 0.50232 0.72375 0.84449
 H471 H 0.53860 0.76634 0.88081
 H472 H 0.56852 0.75894 0.85950
 C473 C 0.39403 0.77479 0.79896
 C474 C 0.38020 0.79104 0.80169
 C475 C 0.36365 0.79374 0.78794
 C476 C 0.36070 0.78019 0.77121
 C477 C 0.37471 0.76384 0.76871
 C478 C 0.39123 0.76119 0.78247
 C479 C 0.41127 0.77207 0.81286
 C480 C 0.42593 0.76949 0.82415
 C481 C 0.44371 0.76599 0.83714
 C482 C 0.44137 0.76183 0.85828
 C483 C 0.45867 0.75750 0.87057
 C484 C 0.47864 0.75648 0.86184
 C485 C 0.48075 0.76214 0.84074
 C486 C 0.46345 0.76648 0.82851
 H487 H 0.38225 0.80168 0.81440
 H488 H 0.35329 0.80650 0.79046
 H489 H 0.37307 0.75305 0.75614
 H490 H 0.40186 0.74856 0.78020
 H491 H 0.42618 0.76182 0.86525
 H492 H 0.45645 0.75449 0.88694
 H493 H 0.49572 0.76349 0.83353
 H494 H 0.46548 0.77024 0.81226
 C495 C -0.10629 0.26364 0.29992
 C496 C -0.10965 0.25061 0.28309
 C497 C -0.12613 0.25421 0.26950
 C498 C -0.13959 0.27101 0.27245
 C499 C -0.13607 0.28388 0.28968
 C500 C -0.11957 0.28021 0.30323
 C501 C -0.08885 0.26035 0.31342
 C502 C -0.07401 0.25777 0.32446
 C503 C -0.05600 0.25496 0.33728
 C504 C -0.05664 0.25960 0.35839
 C505 C -0.03886 0.25761 0.37059
 C506 C -0.01983 0.25165 0.36178
 C507 C -0.01991 0.24573 0.34070
 C508 C -0.03770 0.24771 0.32856
 H509 H -0.09942 0.23774 0.28036
 H510 H -0.12805 0.24378 0.25665
 H511 H -0.14587 0.29693 0.29281
 H512 H -0.11707 0.29042 0.31622
 H513 H -0.07085 0.26483 0.36543
 H514 H -0.03982 0.26113 0.38695
 H515 H -0.00638 0.23929 0.33343
 H516 H -0.03719 0.24353 0.31233
 C517 C -0.09615 0.72854 0.20695
 C518 C -0.11103 0.71364 0.20244
 C519 C -0.12775 0.71063 0.21576
 C520 C -0.12983 0.72251 0.23381
 C521 C -0.11470 0.73741 0.23823
 C522 C -0.09799 0.74038 0.22488
 C523 C -0.07913 0.73184 0.19305
 C524 C -0.06500 0.73465 0.18127
 C525 C -0.04827 0.73807 0.16705
 C526 C -0.03988 0.72162 0.15609
 C527 C -0.02394 0.72495 0.14193
 C528 C -0.01646 0.74501 0.13792
 C529 C -0.02438 0.76120 0.15007
 C530 C -0.04032 0.75782 0.16420
 H531 H -0.10978 0.70442 0.18856
 H532 H -0.13910 0.69913 0.21171
 H533 H -0.11561 0.74674 0.25201
 H534 H -0.08654 0.75195 0.22853
 H535 H -0.04557 0.70616 0.15859
 H536 H -0.01736 0.71165 0.13448
 H537 H -0.01833 0.77662 0.14837
 H538 H -0.04643 0.77063 0.17292
 C539 C 0.39994 0.22803 0.70898
 C540 C 0.38579 0.21222 0.70540
 C541 C 0.36910 0.20930 0.71877
 C542 C 0.36621 0.22221 0.73606
 C543 C 0.38070 0.23807 0.73945
 C544 C 0.39736 0.24092 0.72603
 C545 C 0.41700 0.23114 0.69507
 C546 C 0.43123 0.23381 0.68337
 C547 C 0.44812 0.23708 0.66928
 C548 C 0.45672 0.22050 0.65868
 C549 C 0.47288 0.22367 0.64472
 C550 C 0.48038 0.24369 0.64055
 C551 C 0.47222 0.26003 0.65234
 C552 C 0.45607 0.25681 0.66628
 H553 H 0.38764 0.20214 0.69221
 H554 H 0.35856 0.19689 0.71536
 H555 H 0.37934 0.24844 0.75240
 H556 H 0.40823 0.25323 0.72894
 H557 H 0.45103 0.20506 0.66131
 H558 H 0.47959 0.21028 0.63758
 H559 H 0.47826 0.27544 0.65051
 H560 H 0.44982 0.26972 0.67473
 C561 C 0.59733 0.27072 0.70873
 C562 C 0.60079 0.25774 0.72571
 C563 C 0.61756 0.26116 0.73896
 C564 C 0.63125 0.27770 0.73547
 C565 C 0.62746 0.29069 0.71826
 C566 C 0.61067 0.28720 0.70505
 C567 C 0.58019 0.26702 0.69497
 C568 C 0.56592 0.26389 0.68336
 C569 C 0.54901 0.26014 0.66934
 C570 C 0.54116 0.24029 0.66702
 C571 C 0.52505 0.23660 0.65308
 C572 C 0.51685 0.25256 0.64057
 C573 C 0.52422 0.27272 0.64406
 C574 C 0.54033 0.27637 0.65804
 H575 H 0.59055 0.24491 0.72869
 H576 H 0.61962 0.25070 0.75186
 H577 H 0.63737 0.30360 0.71477
 H578 H 0.60813 0.29734 0.69192
 H579 H 0.54749 0.22765 0.67601
 H580 H 0.51909 0.22111 0.65179
 H581 H 0.51744 0.28587 0.63634
 H582 H 0.54593 0.29191 0.66012
 C583 C 0.10005 0.77046 0.20665
 C584 C 0.11492 0.78533 0.20192
 C585 C 0.13133 0.78891 0.21557
 C586 C 0.13313 0.77764 0.23418
 C587 C 0.11807 0.76270 0.23876
 C588 C 0.10166 0.75916 0.22508
 C589 C 0.08317 0.76682 0.19256
 C590 C 0.06907 0.76385 0.18069
 C591 C 0.05231 0.76040 0.16642
 C592 C 0.04370 0.77689 0.15546
 C593 C 0.02754 0.77361 0.14144
 C594 C 0.02005 0.75357 0.13757
 C595 C 0.02827 0.73730 0.14964
 C596 C 0.04442 0.74063 0.16364
 H597 H 0.11384 0.79414 0.18767
 H598 H 0.14264 0.80041 0.21138
 H599 H 0.11879 0.75381 0.25295
 H600 H 0.09022 0.74763 0.22891
 H601 H 0.04934 0.79237 0.15791
 H602 H 0.02078 0.78696 0.13406
 H603 H 0.02223 0.72188 0.14805
 H604 H 0.05069 0.72779 0.17236
 C605 C 0.29049 0.09826 0.22925
 C606 C 0.29517 0.11276 0.21391
 C607 C 0.28235 0.12978 0.21080
 C608 C 0.26461 0.13257 0.22302
 C609 C 0.26000 0.11781 0.23836
 C610 C 0.27286 0.10079 0.24144
 C611 C 0.30395 0.08095 0.23260
 C612 C 0.31545 0.06663 0.23534
 C613 C 0.32946 0.04974 0.23856
 C614 C 0.34020 0.04146 0.22181
 C615 C 0.35425 0.02544 0.22495
 C616 C 0.35839 0.01777 0.24511
 C617 C 0.34645 0.02558 0.26161
 C618 C 0.33242 0.04159 0.25842
 H619 H 0.30881 0.11097 0.20442
 H620 H 0.28655 0.14079 0.19894
 H621 H 0.24645 0.11928 0.24798
 H622 H 0.26908 0.08964 0.25336
 H623 H 0.33762 0.04732 0.20626
 H624 H 0.36154 0.01898 0.21142
 H625 H 0.34826 0.01939 0.27713
 H626 H 0.32389 0.04762 0.27147
 C627 C 0.79022 0.59797 0.72682
 C628 C 0.79221 0.61070 0.70942
 C629 C 0.77929 0.62775 0.70691
 C630 C 0.76417 0.63235 0.72182
 C631 C 0.76225 0.61933 0.73922
 C632 C 0.77519 0.60229 0.74168
 C633 C 0.80384 0.58070 0.72964
 C634 C 0.81537 0.56636 0.73216
 C635 C 0.82932 0.54942 0.73536
 C636 C 0.84005 0.54106 0.71865
 C637 C 0.85401 0.52496 0.72185
 C638 C 0.85803 0.51729 0.74203
 C639 C 0.84610 0.52519 0.75849
 C640 C 0.83217 0.54127 0.75524
 H641 H 0.80382 0.60750 0.69782
 H642 H 0.78125 0.63725 0.69326
 H643 H 0.75091 0.62229 0.75109
 H644 H 0.77354 0.59255 0.75525
 H645 H 0.83754 0.54692 0.70309
 H646 H 0.86131 0.51846 0.70835
 H647 H 0.84785 0.51903 0.77403
 H648 H 0.82365 0.54736 0.76826
 C649 C 0.79022 0.40112 0.76892
 C650 C 0.79244 0.38955 0.78712
 C651 C 0.77933 0.37293 0.79100
 C652 C 0.76377 0.36759 0.77670
 C653 C 0.76165 0.37940 0.75845
 C654 C 0.77479 0.39603 0.75462
 C655 C 0.80389 0.41811 0.76493
 C656 C 0.81550 0.43224 0.76173
 C657 C 0.82957 0.44897 0.75807
 C658 C 0.84063 0.45745 0.77458
 C659 C 0.85458 0.47346 0.77109
 C660 C 0.85827 0.48095 0.75080
 C661 C 0.84606 0.47290 0.73453
 C662 C 0.83213 0.45689 0.73808
 H663 H 0.80433 0.39337 0.79832
 H664 H 0.78146 0.36437 0.80526
 H665 H 0.74999 0.37581 0.74701
 H666 H 0.77295 0.40488 0.74046
 H667 H 0.83836 0.45178 0.79023
 H668 H 0.86207 0.48011 0.78446
 H669 H 0.84751 0.47895 0.71893
 H670 H 0.82334 0.45072 0.72521
 C671 C 0.29093 -0.09879 0.27104
 C672 C 0.27385 -0.10214 0.25820
 C673 C 0.26066 -0.11875 0.26194
 C674 C 0.26433 -0.13237 0.27868
 C675 C 0.28166 -0.12869 0.29150
 C676 C 0.29479 -0.11208 0.28768
 C677 C 0.30456 -0.08176 0.26716
 C678 C 0.31614 -0.06758 0.26407
 C679 C 0.33015 -0.05078 0.26055
 C680 C 0.33274 -0.04274 0.24061
 C681 C 0.34660 -0.02664 0.23721
 C682 C 0.35871 -0.01864 0.25358
 C683 C 0.35498 -0.02625 0.27381
 C684 C 0.34111 -0.04235 0.27715
 H685 H 0.27073 -0.09192 0.24525
 H686 H 0.24766 -0.12074 0.25160
 H687 H 0.28529 -0.13855 0.30454
 H688 H 0.30799 -0.10961 0.29774
 H689 H 0.32402 -0.04888 0.22768
 H690 H 0.34809 -0.02050 0.22166
 H691 H 0.36241 -0.01966 0.28724
 H692 H 0.33880 -0.04812 0.29276
 C693 C 0.20039 -0.10125 0.72712
 C694 C 0.19740 -0.11472 0.71058
 C695 C 0.21072 -0.13140 0.70785
 C696 C 0.22736 -0.13490 0.72165
 C697 C 0.23003 -0.12119 0.73835
 C698 C 0.21668 -0.10455 0.74100
 C699 C 0.18697 -0.08384 0.72974
 C700 C 0.17605 -0.06906 0.73216
 C701 C 0.16345 -0.05116 0.73538
 C702 C 0.14244 -0.05317 0.73978
 C703 C 0.13053 -0.03574 0.74380
 C704 C 0.13952 -0.01595 0.74426
 C705 C 0.16047 -0.01420 0.73833
 C706 C 0.17233 -0.03163 0.73431
 H707 H 0.18482 -0.11229 0.69972
 H708 H 0.20784 -0.14137 0.69481
 H709 H 0.24244 -0.12306 0.74944
 H710 H 0.21914 -0.09418 0.75387
 H711 H 0.13529 -0.06821 0.74023
 H712 H 0.11425 -0.03772 0.74702
 H713 H 0.16784 0.00058 0.73652
 H714 H 0.18847 -0.02986 0.73033
 C715 C 0.71006 0.40198 0.23014
 C716 C 0.70481 0.38777 0.21481
 C717 C 0.71729 0.37059 0.21143
 C718 C 0.73524 0.36736 0.22339
 C719 C 0.74044 0.38185 0.23869
 C720 C 0.72793 0.39902 0.24203
 C721 C 0.69693 0.41941 0.23388
 C722 C 0.68574 0.43385 0.23706
 C723 C 0.67209 0.45086 0.24089
 C724 C 0.66131 0.45196 0.25957
 C725 C 0.64752 0.46807 0.26309
 C726 C 0.64369 0.48313 0.24766
 C727 C 0.65575 0.48242 0.22945
 C728 C 0.66952 0.46628 0.22596
 H729 H 0.69097 0.38989 0.20555
 H730 H 0.71267 0.35978 0.19962
 H731 H 0.75419 0.38004 0.24809
 H732 H 0.73216 0.40993 0.25393
 H733 H 0.66360 0.44037 0.27148
 H734 H 0.64016 0.46870 0.27808
 H735 H 0.65420 0.49426 0.21770
 H736 H 0.67811 0.46581 0.21159
 C737 C 0.71070 0.60041 0.27195
 C738 C 0.70882 0.61208 0.28999
 C739 C 0.72182 0.62890 0.29333
 C740 C 0.73692 0.63430 0.27864
 C741 C 0.73869 0.62240 0.26055
 C742 C 0.72566 0.60560 0.25725
 C743 C 0.69713 0.58327 0.26838
 C744 C 0.68567 0.56901 0.26529
 C745 C 0.67183 0.55214 0.26150
 C746 C 0.66107 0.55099 0.24273
 C747 C 0.64730 0.53487 0.23912
 C748 C 0.64347 0.51983 0.25455
 C749 C 0.65544 0.52065 0.27291
 C750 C 0.66919 0.53679 0.27648
 H751 H 0.69727 0.60820 0.30148
 H752 H 0.72005 0.63754 0.30749
 H753 H 0.74996 0.62611 0.24880
 H754 H 0.72721 0.59670 0.24319
 H755 H 0.66342 0.56251 0.23079
 H756 H 0.64001 0.53417 0.22405
 H757 H 0.65389 0.50882 0.28467
 H758 H 0.67777 0.53729 0.29092
 C759 C 0.20165 0.10645 0.77035
 C760 C 0.19669 0.12184 0.78454
 C761 C 0.21035 0.13811 0.78795
 C762 C 0.22921 0.13923 0.77720
 C763 C 0.23396 0.12371 0.76286
 C764 C 0.22028 0.10745 0.75949
 C765 C 0.18779 0.08947 0.76714
 C766 C 0.17640 0.07508 0.76443
 C767 C 0.16314 0.05767 0.76111
 C768 C 0.14675 0.05893 0.74701
 C769 C 0.13446 0.04171 0.74310
 C770 C 0.13878 0.02261 0.75274
 C771 C 0.15452 0.02212 0.76799
 C772 C 0.16677 0.03933 0.77186
 H773 H 0.18230 0.12122 0.79302
 H774 H 0.20601 0.14980 0.79896
 H775 H 0.24833 0.12391 0.75439
 H776 H 0.22429 0.09558 0.74850
 H777 H 0.14345 0.07325 0.73902
 H778 H 0.12151 0.04362 0.73266
 H779 H 0.15765 0.00812 0.77659
 H780 H 0.17917 0.03828 0.78313
 C781 C 0.22864 0.29452 0.10060
 C782 C 0.24340 0.27963 0.10571
 C783 C 0.24016 0.26635 0.12249
 C784 C 0.22207 0.26781 0.13444
 C785 C 0.20730 0.28283 0.12911
 C786 C 0.21058 0.29607 0.11231
 C787 C 0.23212 0.30833 0.08349
 C788 C 0.23504 0.32001 0.06924
 C789 C 0.23853 0.33408 0.05235
 C790 C 0.25845 0.33698 0.04463
 C791 C 0.26187 0.35090 0.02846
 C792 C 0.24554 0.36278 0.02006
 C793 C 0.22535 0.35874 0.02734
 C794 C 0.22198 0.34479 0.04351
 H795 H 0.25747 0.27833 0.09677
 H796 H 0.25196 0.25515 0.12617
 H797 H 0.19313 0.28434 0.13778
 H798 H 0.19904 0.30754 0.10847
 H799 H 0.27134 0.32845 0.05108
 H800 H 0.27741 0.35263 0.02258
 H801 H 0.21197 0.36597 0.02041
 H802 H 0.20640 0.34225 0.04902
 C803 C 0.72648 0.79854 0.60558
 C804 C 0.70866 0.79969 0.61770
 C805 C 0.70594 0.78619 0.63440
 C806 C 0.72103 0.77130 0.63921
 C807 C 0.73894 0.77038 0.62695
 C808 C 0.74162 0.78390 0.61028
 C809 C 0.72913 0.81211 0.58811
 C810 C 0.73154 0.82317 0.57328
 C811 C 0.73474 0.83594 0.55530
 C812 C 0.73350 0.82737 0.53553
 C813 C 0.73749 0.83939 0.51801
 C814 C 0.74355 0.86018 0.51992
 C815 C 0.74325 0.86888 0.53996
 C816 C 0.73927 0.85681 0.55748
 H817 H 0.69681 0.81093 0.61416
 H818 H 0.69189 0.78733 0.64332
 H819 H 0.75098 0.75930 0.63022
 H820 H 0.75548 0.78288 0.60099
 H821 H 0.72942 0.81134 0.53364
 H822 H 0.73556 0.83225 0.50305
 H823 H 0.74658 0.88504 0.54206
 H824 H 0.73984 0.86373 0.57271
 C825 C 0.76961 0.79999 0.39583
 C826 C 0.75610 0.78360 0.39240
 C827 C 0.75958 0.77000 0.37607
 C828 C 0.77669 0.77258 0.36290
 C829 C 0.79009 0.78927 0.36643
 C830 C 0.78657 0.80284 0.38277
 C831 C 0.76631 0.81360 0.41301
 C832 C 0.76354 0.82474 0.42762
 C833 C 0.76019 0.83764 0.44534
 C834 C 0.74618 0.85395 0.44424
 C835 C 0.74230 0.86592 0.46174
 C836 C 0.75188 0.86134 0.48098
 C837 C 0.76700 0.84567 0.48131
 C838 C 0.77084 0.83375 0.46381
 H839 H 0.74292 0.78124 0.40244
 H840 H 0.74885 0.75747 0.37393
 H841 H 0.80341 0.79188 0.35673
 H842 H 0.79715 0.81547 0.38531
 H843 H 0.73826 0.85745 0.42982
 H844 H 0.73195 0.87882 0.45995
 H845 H 0.77554 0.84236 0.49540
 H846 H 0.78204 0.82141 0.46475
 C847 C 0.27230 0.29489 -0.09644
 C848 C 0.25999 0.27741 -0.09880
 C849 C 0.26318 0.26420 -0.11550
 C850 C 0.27875 0.26829 -0.13014
 C851 C 0.29111 0.28589 -0.12752
 C852 C 0.28789 0.29908 -0.11080
 C853 C 0.26878 0.30864 -0.07943
 C854 C 0.26573 0.32025 -0.06526
 C855 C 0.26203 0.33423 -0.04847
 C856 C 0.24208 0.33677 -0.04075
 C857 C 0.23843 0.35063 -0.02472
 C858 C 0.25455 0.36280 -0.01647
 C859 C 0.27480 0.35911 -0.02373
 C860 C 0.27840 0.34522 -0.03977
 H861 H 0.24788 0.27402 -0.08776
 H862 H 0.25343 0.25079 -0.11680
 H863 H 0.30317 0.28968 -0.13843
 H864 H 0.29749 0.31260 -0.10913
 H865 H 0.22933 0.32802 -0.04710
 H866 H 0.22286 0.35210 -0.01884
 H867 H 0.28806 0.36658 -0.01690
 H868 H 0.29402 0.34295 -0.04527
 C869 C 0.73005 0.20745 -0.09775
 C870 C 0.71167 0.20585 -0.10907
 C871 C 0.70782 0.21914 -0.12573
 C872 C 0.72234 0.23426 -0.13134
 C873 C 0.74077 0.23574 -0.11979
 C874 C 0.74458 0.22242 -0.10313
 C875 C 0.73402 0.19362 -0.08072
 C876 C 0.73723 0.18190 -0.06653
 C877 C 0.74093 0.16775 -0.04972
 C878 C 0.72586 0.16465 -0.03460
 C879 C 0.72926 0.15059 -0.01851
 C880 C 0.74757 0.13878 -0.01754
 C881 C 0.76309 0.14304 -0.03234
 C882 C 0.75964 0.15712 -0.04841
 H883 H 0.70031 0.19431 -0.10503
 H884 H 0.69341 0.21755 -0.13407
 H885 H 0.75239 0.24704 -0.12363
 H886 H 0.75889 0.22377 -0.09449
 H887 H 0.71145 0.17310 -0.03521
 H888 H 0.71742 0.14869 -0.00685
 H889 H 0.77811 0.13585 -0.03147
 H890 H 0.77165 0.15982 -0.05975
 C891 C 0.23156 0.70720 0.40237
 C892 C 0.21312 0.70572 0.39113
 C893 C 0.20930 0.71901 0.37446
 C894 C 0.22390 0.73403 0.36879
 C895 C 0.24241 0.73537 0.38024
 C896 C 0.24618 0.72204 0.39690
 C897 C 0.23549 0.69341 0.41944
 C898 C 0.23874 0.68176 0.43367
 C899 C 0.24253 0.66769 0.45054
 C900 C 0.22760 0.66477 0.46585
 C901 C 0.23109 0.65076 0.48196
 C902 C 0.24932 0.63883 0.48279
 C903 C 0.26472 0.64293 0.46781
 C904 C 0.26118 0.65696 0.45171
 H905 H 0.20168 0.69428 0.39524
 H906 H 0.19483 0.71755 0.36619
 H907 H 0.25410 0.74656 0.37632
 H908 H 0.26054 0.72329 0.40547
 H909 H 0.21325 0.67331 0.46534
 H910 H 0.21936 0.64899 0.49375
 H911 H 0.27969 0.63564 0.46855
 H912 H 0.27308 0.65952 0.44023
 C913 C 0.27132 0.70694 0.59998
 C914 C 0.25911 0.72458 0.60154
 C915 C 0.26176 0.73797 0.61822
 C916 C 0.27668 0.73389 0.63364
 C917 C 0.28892 0.71610 0.63185
 C918 C 0.28624 0.70274 0.61515
 C919 C 0.26834 0.69300 0.58299
 C920 C 0.26572 0.68122 0.56886
 C921 C 0.26241 0.66705 0.55213
 C922 C 0.27758 0.66427 0.53706
 C923 C 0.27436 0.65038 0.52092
 C924 C 0.25616 0.63842 0.51985
 C925 C 0.24060 0.64229 0.53467
 C926 C 0.24386 0.65620 0.55077
 H927 H 0.24750 0.72797 0.58988
 H928 H 0.25211 0.75149 0.61890
 H929 H 0.30049 0.71230 0.64338
 H930 H 0.29575 0.68909 0.61412
 H931 H 0.29186 0.67290 0.53771
 H932 H 0.28621 0.64879 0.50924
 H933 H 0.22565 0.63498 0.53375
 H934 H 0.23177 0.65865 0.56207
 C935 C 0.76949 0.20641 0.10008
 C936 C 0.75464 0.22113 0.10520
 C937 C 0.75791 0.23428 0.12198
 C938 C 0.77610 0.23284 0.13393
 C939 C 0.79097 0.21802 0.12856
 C940 C 0.78767 0.20492 0.11177
 C941 C 0.76605 0.19269 0.08300
 C942 C 0.76325 0.18104 0.06879
 C943 C 0.75999 0.16697 0.05195
 C944 C 0.74152 0.15598 0.05051
 C945 C 0.73842 0.14208 0.03435
 C946 C 0.75407 0.13838 0.01957
 C947 C 0.77216 0.15049 0.02073
 C948 C 0.77521 0.16436 0.03691
 H949 H 0.74049 0.22239 0.09628
 H950 H 0.74605 0.24535 0.12569
 H951 H 0.80524 0.21655 0.13720
 H952 H 0.79929 0.19361 0.10793
 H953 H 0.72940 0.15828 0.06180
 H954 H 0.72355 0.13464 0.03337
 H955 H 0.78407 0.14902 0.00910
 H956 H 0.78944 0.17309 0.03763
 C957 C 0.47748 0.34520 0.54081
 C958 C 0.46214 0.35967 0.54510
 C959 C 0.45891 0.37632 0.53169
 C960 C 0.47102 0.37875 0.51375
 C961 C 0.48638 0.36403 0.50958
 C962 C 0.48957 0.34740 0.52302
 C963 C 0.48092 0.32822 0.55479
 C964 C 0.48379 0.31412 0.56664
 C965 C 0.48723 0.29745 0.58098
 C966 C 0.47071 0.28905 0.59200
 C967 C 0.47407 0.27318 0.60630
 C968 C 0.49423 0.26579 0.61039
 C969 C 0.51051 0.27371 0.59818
 C970 C 0.50710 0.28957 0.58390
 H971 H 0.45271 0.35814 0.55886
 H972 H 0.44703 0.38729 0.53557
 H973 H 0.49594 0.36523 0.49592
 H974 H 0.50150 0.33627 0.51955
 H975 H 0.45516 0.29469 0.58945
 H976 H 0.46070 0.26662 0.61380
 H977 H 0.52602 0.26773 0.59996
 H978 H 0.51998 0.29568 0.57515
 C979 C -0.02014 0.84836 0.04018
 C980 C -0.03545 0.86276 0.04483
 C981 C -0.03864 0.87973 0.03184
 C982 C -0.02651 0.88256 0.01398
 C983 C -0.01121 0.86791 0.00941
 C984 C -0.00806 0.85095 0.02243
 C985 C -0.01665 0.83110 0.05378
 C986 C -0.01369 0.81676 0.06531
 C987 C -0.01014 0.79980 0.07927
 C988 C -0.02657 0.79124 0.09031
 C989 C -0.02309 0.77510 0.10426
 C990 C -0.00291 0.76758 0.10798
 C991 C 0.01326 0.77567 0.09574
 C992 C 0.00973 0.79182 0.08182
 H993 H -0.04486 0.86093 0.05857
 H994 H -0.05045 0.89069 0.03599
 H995 H -0.00168 0.86941 -0.00424
 H996 H 0.00383 0.83988 0.01867
 H997 H -0.04213 0.79696 0.08805
 H998 H -0.03639 0.76842 0.11177
 H999 H 0.02877 0.76961 0.09722
 H1000 H 0.02253 0.79806 0.07304
 C1001 C 0.02119 0.65152 0.03937
 C1002 C 0.00597 0.64614 0.02495
 C1003 C 0.00905 0.62949 0.01169
 C1004 C 0.02742 0.61795 0.01270
 C1005 C 0.04265 0.62357 0.02724
 C1006 C 0.03954 0.64022 0.04046
 C1007 C 0.01794 0.66849 0.05319
 C1008 C 0.01526 0.68261 0.06490
 C1009 C 0.01209 0.69934 0.07904
 C1010 C -0.00770 0.70733 0.08196
 C1011 C -0.01082 0.72330 0.09598
 C1012 C 0.00567 0.73123 0.10793
 C1013 C 0.02574 0.72369 0.10386
 C1014 C 0.02881 0.70771 0.08982
 H1015 H -0.00832 0.65475 0.02401
 H1016 H -0.00309 0.62559 0.00085
 H1017 H 0.05706 0.61524 0.02840
 H1018 H 0.05144 0.64428 0.05156
 H1019 H -0.02073 0.70123 0.07339
 H1020 H -0.02628 0.72938 0.09774
 H1021 H 0.03924 0.73024 0.11115
 H1022 H 0.04430 0.70198 0.08726
 C1023 C 0.52012 0.14893 0.54397
 C1024 C 0.53792 0.13690 0.54600
 C1025 C 0.54107 0.12017 0.53287
 C1026 C 0.52643 0.11522 0.51749
 C1027 C 0.50861 0.12749 0.51556
 C1028 C 0.50550 0.14420 0.52871
 C1029 C 0.51676 0.16601 0.55764
 C1030 C 0.51386 0.18025 0.56915
 C1031 C 0.51031 0.19715 0.58299
 C1032 C 0.52677 0.20584 0.59392
 C1033 C 0.52332 0.22204 0.60761
 C1034 C 0.50313 0.22951 0.61119
 C1035 C 0.48691 0.22124 0.59909
 C1036 C 0.49042 0.20504 0.58542
 H1037 H 0.54936 0.14043 0.55775
 H1038 H 0.55504 0.11124 0.53476
 H1039 H 0.49691 0.12414 0.50406
 H1040 H 0.49163 0.15339 0.52704
 H1041 H 0.54235 0.20019 0.59173
 H1042 H 0.53665 0.22884 0.61500
 H1043 H 0.47139 0.22724 0.60046
 H1044 H 0.47759 0.19871 0.57672
 C1045 C -0.02321 0.14476 0.45023
 C1046 C -0.03968 0.13119 0.44728
 C1047 C -0.04187 0.11399 0.46017
 C1048 C -0.02756 0.11010 0.47624
 C1049 C -0.01107 0.12393 0.47905
 C1050 C -0.00894 0.14110 0.46615
 C1051 C -0.02081 0.16245 0.43699
 C1052 C -0.01841 0.17739 0.42614
 C1053 C -0.01503 0.19536 0.41353
 C1054 C -0.01068 0.19343 0.39243
 C1055 C -0.00633 0.21087 0.38050
 C1056 C -0.00546 0.23058 0.38958
 C1057 C -0.01134 0.23230 0.41061
 C1058 C -0.01571 0.21484 0.42248
 H1059 H -0.05084 0.13390 0.43500
 H1060 H -0.05480 0.10383 0.45748
 H1061 H 0.00030 0.12156 0.49113
 H1062 H 0.00388 0.15151 0.46858
 H1063 H -0.01051 0.17844 0.38521
 H1064 H -0.00313 0.20895 0.36416
 H1065 H -0.01283 0.24706 0.41804
 H1066 H -0.01961 0.21655 0.43871
 C1067 C 0.48320 0.64600 0.95130
 C1068 C 0.46669 0.63252 0.94816
 C1069 C 0.46347 0.61611 0.96184
 C1070 C 0.47673 0.61295 0.97893
 C1071 C 0.49343 0.62652 0.98178
 C1072 C 0.49661 0.64291 0.96807
 C1073 C 0.48609 0.66329 0.93763
 C1074 C 0.48837 0.67797 0.92641
 C1075 C 0.49091 0.69575 0.91332
 C1076 C 0.47731 0.69931 0.89683
 C1077 C 0.47926 0.71700 0.88462
 C1078 C 0.49451 0.73191 0.88912
 C1079 C 0.50888 0.72731 0.90504
 C1080 C 0.50689 0.70963 0.91721
 H1081 H 0.45620 0.63479 0.93523
 H1082 H 0.45051 0.60605 0.95898
 H1083 H 0.50400 0.62470 0.99466
 H1084 H 0.50943 0.65329 0.97067
 H1085 H 0.46520 0.68837 0.89335
 H1086 H 0.46892 0.71867 0.87154
 H1087 H 0.52151 0.73773 0.90830
 H1088 H 0.51777 0.70684 0.92971
 C1089 C 0.51269 0.85771 0.94954
 C1090 C 0.49818 0.86291 0.96462
 C1091 C 0.50198 0.87923 0.97810
 C1092 C 0.52043 0.89060 0.97672
 C1093 C 0.53481 0.88537 0.96130
 C1094 C 0.53096 0.86903 0.94784
 C1095 C 0.50914 0.84032 0.93630
 C1096 C 0.50631 0.82549 0.92554
 C1097 C 0.50320 0.80746 0.91311
 C1098 C 0.49553 0.78952 0.92222
 C1099 C 0.49338 0.77165 0.91050
 C1100 C 0.49955 0.77114 0.88949
 C1101 C 0.50586 0.78985 0.88025
 C1102 C 0.50802 0.80769 0.89201
 H1103 H 0.48399 0.85422 0.96609
 H1104 H 0.49043 0.88281 0.98958
 H1105 H 0.54921 0.89363 0.95974
 H1106 H 0.54234 0.86509 0.93625
 H1107 H 0.49120 0.78932 0.93843
 H1108 H 0.48667 0.75839 0.91805
 H1109 H 0.50958 0.79048 0.86391
 H1110 H 0.51358 0.82163 0.88468
 C1111 C 0.02227 0.35290 0.45134
 C1112 C 0.03888 0.36631 0.44843
 C1113 C 0.04204 0.38263 0.46209
 C1114 C 0.02862 0.38578 0.47892
 C1115 C 0.01188 0.37221 0.48159
 C1116 C 0.00877 0.35592 0.46791
 C1117 C 0.01916 0.33589 0.43751
 C1118 C 0.01639 0.32147 0.42618
 C1119 C 0.01282 0.30406 0.41299
 C1120 C 0.02303 0.28553 0.41688
 C1121 C 0.01883 0.26833 0.40471
 C1122 C 0.00376 0.26905 0.38881
 C1123 C -0.00533 0.28833 0.38423
 C1124 C -0.00109 0.30552 0.39643
 H1125 H 0.04944 0.36411 0.43564
 H1126 H 0.05505 0.39268 0.45939
 H1127 H 0.00119 0.37401 0.49428
 H1128 H -0.00415 0.34561 0.47031
 H1129 H 0.03415 0.28432 0.42942
 H1130 H 0.02704 0.25419 0.40802
 H1131 H -0.01559 0.29040 0.37114
 H1132 H -0.00867 0.31997 0.39293
 C1133 C 0.35063 0.54061 0.47991
 C1134 C 0.35608 0.52562 0.49455
 C1135 C 0.37242 0.51215 0.49061
 C1136 C 0.38357 0.51352 0.47196
 C1137 C 0.37792 0.52867 0.45735
 C1138 C 0.36157 0.54210 0.46131
 C1139 C 0.33388 0.55453 0.48396
 C1140 C 0.31989 0.56628 0.48722
 C1141 C 0.30325 0.58043 0.49095
 C1142 C 0.28798 0.58347 0.47589
 C1143 C 0.27199 0.59741 0.47936
 C1144 C 0.27123 0.60916 0.49772
 C1145 C 0.28622 0.60503 0.51321
 C1146 C 0.30220 0.59105 0.50969
 H1147 H 0.34774 0.52436 0.50902
 H1148 H 0.37637 0.50084 0.50231
 H1149 H 0.38596 0.53013 0.44275
 H1150 H 0.35746 0.55364 0.44985
 H1151 H 0.28840 0.57503 0.46147
 H1152 H 0.26019 0.59922 0.46755
 H1153 H 0.28555 0.61219 0.52826
 H1154 H 0.31366 0.58840 0.52169
 C1155 C 0.85074 0.04267 -0.01964
 C1156 C 0.85565 0.02702 -0.00553
 C1157 C 0.87252 0.01413 -0.00916
 C1158 C 0.88475 0.01674 -0.02698
 C1159 C 0.87963 0.03253 -0.04109
 C1160 C 0.86275 0.04538 -0.03743
 C1161 C 0.83350 0.05606 -0.01582
 C1162 C 0.81914 0.06740 -0.01268
 C1163 C 0.80212 0.08110 -0.00900
 C1164 C 0.78691 0.08390 -0.02417
 C1165 C 0.77064 0.09755 -0.02078
 C1166 C 0.76955 0.10925 -0.00241
 C1167 C 0.78445 0.10529 0.01320
 C1168 C 0.80071 0.09161 0.00977
 H1169 H 0.84648 0.02482 0.00832
 H1170 H 0.87602 0.00229 0.00214
 H1171 H 0.88851 0.03494 -0.05505
 H1172 H 0.85907 0.05744 -0.04847
 H1173 H 0.78761 0.07553 -0.03862
 H1174 H 0.75893 0.09922 -0.03270
 H1175 H 0.78354 0.11240 0.02827
 H1176 H 0.81213 0.08914 0.02185
 C1177 C 0.65175 0.04147 0.01998
 C1178 C 0.63743 0.04622 0.03540
 C1179 C 0.62033 0.03354 0.03867
 C1180 C 0.61727 0.01587 0.02653
 C1181 C 0.63185 0.01120 0.01111
 C1182 C 0.64895 0.02392 0.00786
 C1183 C 0.66912 0.05480 0.01644
 C1184 C 0.68350 0.06620 0.01352
 C1185 C 0.70043 0.08010 0.01007
 C1186 C 0.70176 0.09106 -0.00856
 C1187 C 0.71782 0.10503 -0.01175
 C1188 C 0.73260 0.10887 0.00398
 C1189 C 0.73163 0.09672 0.02219
 C1190 C 0.71554 0.08277 0.02533
 H1191 H 0.63942 0.05981 0.04483
 H1192 H 0.60946 0.03779 0.05059
 H1193 H 0.63017 -0.00230 0.00154
 H1194 H 0.65995 0.02009 -0.00412
 H1195 H 0.69041 0.08872 -0.02071
 H1196 H 0.71868 0.11249 -0.02672
 H1197 H 0.74327 0.09830 0.03416
 H1198 H 0.71490 0.07407 0.03968
 C1199 C 0.15394 0.54137 0.52132
 C1200 C 0.13967 0.54568 0.53692
 C1201 C 0.12286 0.53262 0.54022
 C1202 C 0.12006 0.51500 0.52794
 C1203 C 0.13460 0.51079 0.51233
 C1204 C 0.15139 0.52389 0.50907
 C1205 C 0.17105 0.55500 0.51776
 C1206 C 0.18528 0.56655 0.51473
 C1207 C 0.20213 0.58050 0.51110
 C1208 C 0.20324 0.59145 0.49246
 C1209 C 0.21934 0.60533 0.48903
 C1210 C 0.23437 0.60906 0.50453
 C1211 C 0.23358 0.59693 0.52277
 C1212 C 0.21747 0.58307 0.52614
 H1213 H 0.14148 0.55920 0.54649
 H1214 H 0.11206 0.53649 0.55233
 H1215 H 0.13314 0.49739 0.50260
 H1216 H 0.16236 0.52040 0.49694
 H1217 H 0.19172 0.58916 0.48047
 H1218 H 0.22003 0.61278 0.47404
 H1219 H 0.24540 0.59844 0.53458
 H1220 H 0.21700 0.57436 0.54049
 C1221 C 0.15063 0.45899 -0.02145
 C1222 C 0.13633 0.45419 -0.03699
 C1223 C 0.11952 0.46715 -0.04081
 C1224 C 0.11675 0.48516 -0.02912
 C1225 C 0.13128 0.48982 -0.01353
 C1226 C 0.14807 0.47682 -0.00974
 C1227 C 0.16784 0.44554 -0.01750
 C1228 C 0.18218 0.43415 -0.01427
 C1229 C 0.19917 0.42036 -0.01051
 C1230 C 0.20794 0.40958 -0.02694
 C1231 C 0.22417 0.39586 -0.02332
 C1232 C 0.23157 0.39213 -0.00298
 C1233 C 0.22324 0.40409 0.01321
 C1234 C 0.20702 0.41779 0.00954
 H1235 H 0.13815 0.44039 -0.04613
 H1236 H 0.10869 0.46291 -0.05285
 H1237 H 0.12982 0.50354 -0.00426
 H1238 H 0.15906 0.48068 0.00233
 H1239 H 0.20232 0.41187 -0.04263
 H1240 H 0.23102 0.38855 -0.03663
 H1241 H 0.22920 0.40259 0.02885
 H1242 H 0.20061 0.42637 0.02235
 C1243 C 0.64254 0.94958 0.48857
 C1244 C 0.64153 0.96840 0.49889
 C1245 C 0.62513 0.98188 0.49505
 C1246 C 0.60951 0.97674 0.48075
 C1247 C 0.61057 0.95765 0.47064
 C1248 C 0.62698 0.94419 0.47453
 C1249 C 0.65990 0.93614 0.49184
 C1250 C 0.67469 0.92512 0.49428
 C1251 C 0.69265 0.91232 0.49682
 C1252 C 0.71113 0.92087 0.50390
 C1253 C 0.72891 0.90880 0.50546
 C1254 C 0.72876 0.88797 0.49926
 C1255 C 0.70955 0.87932 0.49353
 C1256 C 0.69180 0.89144 0.49196
 H1257 H 0.65355 0.97277 0.50973
 H1258 H 0.62497 0.99644 0.50304
 H1259 H 0.59877 0.95303 0.45972
 H1260 H 0.62761 0.92966 0.46644
 H1261 H 0.71183 0.93691 0.50824
 H1262 H 0.74260 0.91592 0.51177
 H1263 H 0.70843 0.86315 0.48983
 H1264 H 0.67744 0.88455 0.48685
 C1265 C 0.85589 0.94626 0.51293
 C1266 C 0.86831 0.94425 0.53060
 C1267 C 0.88523 0.95726 0.53350
 C1268 C 0.88998 0.97253 0.51873
 C1269 C 0.87743 0.97432 0.50093
 C1270 C 0.86051 0.96128 0.49808
 C1271 C 0.83817 0.93320 0.51026
 C1272 C 0.82318 0.92242 0.50823
 C1273 C 0.80507 0.90981 0.50604
 C1274 C 0.80157 0.89357 0.51984
 C1275 C 0.78356 0.88184 0.51829
 C1276 C 0.76828 0.88658 0.50328
 C1277 C 0.77281 0.90219 0.48866
 C1278 C 0.79081 0.91388 0.49025
 H1279 H 0.86482 0.93271 0.54224
 H1280 H 0.89437 0.95541 0.54744
 H1281 H 0.88061 0.98574 0.48913
 H1282 H 0.85098 0.96299 0.48434
 H1283 H 0.81280 0.88994 0.53180
 H1284 H 0.78193 0.86895 0.52878
 H1285 H 0.76208 0.90560 0.47620
 H1286 H 0.79355 0.92618 0.47921
 C1287 C 0.34859 0.45988 0.02303
 C1288 C 0.36343 0.45484 0.03801
 C1289 C 0.38042 0.46769 0.04122
 C1290 C 0.38283 0.48580 0.02945
 C1291 C 0.36774 0.49075 0.01446
 C1292 C 0.35076 0.47787 0.01129
 C1293 C 0.33130 0.44645 0.01956
 C1294 C 0.31696 0.43501 0.01666
 C1295 C 0.30003 0.42113 0.01320
 C1296 C 0.29146 0.41028 0.02981
 C1297 C 0.27540 0.39634 0.02642
 C1298 C 0.26800 0.39246 0.00615
 C1299 C 0.27607 0.40451 -0.01021
 C1300 C 0.29212 0.41843 -0.00678
 H1301 H 0.36193 0.44092 0.04716
 H1302 H 0.39171 0.46323 0.05280
 H1303 H 0.36891 0.50459 0.00520
 H1304 H 0.33934 0.48192 -0.00036
 H1305 H 0.29713 0.41266 0.04544
 H1306 H 0.26871 0.38896 0.03984
 H1307 H 0.27008 0.40288 -0.02582
 H1308 H 0.29837 0.42705 -0.01972
 C1309 C 0.54502 0.47953 0.34900
 C1310 C 0.54677 0.46134 0.36050
 C1311 C 0.53326 0.45738 0.37688
 C1312 C 0.51774 0.47161 0.38205
 C1313 C 0.51613 0.48988 0.37034
 C1314 C 0.52967 0.49378 0.35395
 C1315 C 0.55900 0.48359 0.33218
 C1316 C 0.57079 0.48692 0.31814
 C1317 C 0.58497 0.49079 0.30145
 C1318 C 0.58787 0.47606 0.28606
 C1319 C 0.60189 0.47965 0.27005
 C1320 C 0.61388 0.49780 0.26941
 C1321 C 0.60984 0.51298 0.28450
 C1322 C 0.59579 0.50933 0.30050
 H1323 H 0.55860 0.45018 0.35679
 H1324 H 0.53499 0.44312 0.38537
 H1325 H 0.50453 0.50128 0.37380
 H1326 H 0.52819 0.50794 0.34517
 H1327 H 0.57927 0.46179 0.28640
 H1328 H 0.60361 0.46809 0.25817
 H1329 H 0.61716 0.52788 0.28391
 H1330 H 0.59325 0.52108 0.31205
 C1331 C 0.05155 -0.01114 0.85536
 C1332 C 0.05611 -0.02646 0.86994
 C1333 C 0.04254 -0.03040 0.88628
 C1334 C 0.02413 -0.01908 0.88827
 C1335 C 0.01983 -0.00351 0.87362
 C1336 C 0.03344 0.00039 0.85729
 C1337 C 0.06512 -0.00771 0.83807
 C1338 C 0.07630 -0.00518 0.82337
 C1339 C 0.08937 -0.00258 0.80556
 C1340 C 0.10568 -0.01620 0.80216
 C1341 C 0.11768 -0.01446 0.78427
 C1342 C 0.11313 0.00057 0.76899
 C1343 C 0.09753 0.01506 0.77350
 C1344 C 0.08555 0.01327 0.79139
 H1345 H 0.07008 -0.03550 0.86858
 H1346 H 0.04654 -0.04237 0.89726
 H1347 H 0.00585 0.00550 0.87449
 H1348 H 0.02972 0.01226 0.84604
 H1349 H 0.10911 -0.02822 0.81333
 H1350 H 0.13057 -0.02486 0.78270
 H1351 H 0.09428 0.02752 0.76280
 H1352 H 0.07320 0.02416 0.79405
 C1353 C 0.05097 0.01339 0.64154
 C1354 C 0.03435 0.00001 0.63850
 C1355 C 0.02111 0.00272 0.62154
 C1356 C 0.02428 0.01892 0.60733
 C1357 C 0.04117 0.03219 0.61049
 C1358 C 0.05438 0.02944 0.62747
 C1359 C 0.06420 0.01095 0.65935
 C1360 C 0.07505 0.00905 0.67447
 C1361 C 0.08769 0.00698 0.69276
 C1362 C 0.07892 0.00012 0.71129
 C1363 C 0.09091 -0.00132 0.72928
 C1364 C 0.11189 0.00476 0.72931
 C1365 C 0.12073 0.01039 0.71009
 C1366 C 0.10869 0.01183 0.69211
 H1367 H 0.03153 -0.01244 0.64934
 H1368 H 0.00833 -0.00781 0.61977
 H1369 H 0.04426 0.04476 0.59994
 H1370 H 0.06718 0.03992 0.62969
 H1371 H 0.06278 -0.00422 0.71182
 H1372 H 0.08362 -0.00753 0.74298
 H1373 H 0.13701 0.01402 0.70910
 H1374 H 0.11576 0.01676 0.67773
 C1375 C 0.54548 0.52156 0.15163
 C1376 C 0.54684 0.53967 0.13994
 C1377 C 0.53354 0.54294 0.12312
 C1378 C 0.51865 0.52811 0.11774
 C1379 C 0.51739 0.50998 0.12967
 C1380 C 0.53072 0.50675 0.14647
 C1381 C 0.55936 0.51809 0.16876
 C1382 C 0.57109 0.51512 0.18302
 C1383 C 0.58522 0.51151 0.19991
 C1384 C 0.58786 0.52631 0.21530
 C1385 C 0.60181 0.52289 0.23152
 C1386 C 0.61397 0.50485 0.23239
 C1387 C 0.61019 0.48960 0.21728
 C1388 C 0.59622 0.49307 0.20107
 H1389 H 0.55820 0.55126 0.14381
 H1390 H 0.53489 0.55714 0.11447
 H1391 H 0.50629 0.49813 0.12596
 H1392 H 0.52957 0.49264 0.15539
 H1393 H 0.57910 0.54049 0.21479
 H1394 H 0.60333 0.53450 0.24340
 H1395 H 0.61764 0.47477 0.21801
 H1396 H 0.59387 0.48126 0.18952
 C1397 C 0.45636 -0.02008 0.15039
 C1398 C 0.47118 -0.00531 0.14523
 C1399 C 0.48433 -0.00846 0.12839
 C1400 C 0.48281 -0.02644 0.11645
 C1401 C 0.46789 -0.04123 0.12186
 C1402 C 0.45478 -0.03806 0.13871
 C1403 C 0.44261 -0.01674 0.16751
 C1404 C 0.43094 -0.01400 0.18175
 C1405 C 0.41683 -0.01079 0.19860
 C1406 C 0.41389 0.00889 0.20658
 C1407 C 0.39995 0.01203 0.22273
 C1408 C 0.38809 -0.00436 0.23084
 C1409 C 0.39214 -0.02433 0.22328
 C1410 C 0.40611 -0.02741 0.20714
 H1411 H 0.47250 0.00869 0.15415
 H1412 H 0.49548 0.00335 0.12465
 H1413 H 0.46635 -0.05534 0.11322
 H1414 H 0.44337 -0.04961 0.14259
 H1415 H 0.42241 0.02184 0.20036
 H1416 H 0.39821 0.02740 0.22883
 H1417 H 0.38492 -0.03775 0.22998
 H1418 H 0.40868 -0.04282 0.20142
 C1419 C 0.95660 0.47852 0.64812
 C1420 C 0.95560 0.46027 0.63681
 C1421 C 0.96913 0.45697 0.62032
 C1422 C 0.98391 0.47190 0.61490
 C1423 C 0.98480 0.49019 0.62644
 C1424 C 0.97123 0.49346 0.64291
 C1425 C 0.94254 0.48196 0.66498
 C1426 C 0.93069 0.48481 0.67905
 C1427 C 0.91645 0.48820 0.69576
 C1428 C 0.90557 0.47170 0.70432
 C1429 C 0.89158 0.47495 0.72042
 C1430 C 0.88767 0.49497 0.72791
 C1431 C 0.89965 0.51124 0.71974
 C1432 C 0.91363 0.50794 0.70365
 H1433 H 0.94434 0.44858 0.64073
 H1434 H 0.96805 0.44264 0.61198
 H1435 H 0.99581 0.50212 0.62268
 H1436 H 0.97212 0.50767 0.65153
 H1437 H 0.90804 0.45625 0.69867
 H1438 H 0.88425 0.46160 0.72714
 H1439 H 0.89802 0.52665 0.72578
 H1440 H 0.92228 0.52079 0.69743
 C1441 C 0.95647 0.52086 0.84497
 C1442 C 0.97216 0.50682 0.84969
 C1443 C 0.98543 0.51033 0.86646
 C1444 C 0.98320 0.52800 0.87878
 C1445 C 0.96736 0.54204 0.87382
 C1446 C 0.95412 0.53848 0.85706
 C1447 C 0.94270 0.51716 0.82784
 C1448 C 0.93102 0.51412 0.81358
 C1449 C 0.91690 0.51060 0.79669
 C1450 C 0.91417 0.49081 0.78885
 C1451 C 0.90014 0.48737 0.77274
 C1452 C 0.88796 0.50354 0.76454
 C1453 C 0.89186 0.52362 0.77191
 C1454 C 0.90592 0.52701 0.78801
 H1455 H 0.97411 0.49310 0.84045
 H1456 H 0.99731 0.49910 0.86972
 H1457 H 0.96512 0.55585 0.88278
 H1458 H 0.94201 0.54946 0.85354
 H1459 H 0.92291 0.47803 0.79518
 H1460 H 0.89853 0.47193 0.76677
 H1461 H 0.88440 0.53691 0.76512
 H1462 H 0.90833 0.54250 0.79361
 C1463 C 0.45644 0.02013 0.34852
 C1464 C 0.45148 0.03493 0.36333
 C1465 C 0.46446 0.03809 0.38038
 C1466 C 0.48262 0.02644 0.38288
 C1467 C 0.48750 0.01163 0.36783
 C1468 C 0.47449 0.00852 0.35078
 C1469 C 0.44286 0.01673 0.33116
 C1470 C 0.43130 0.01392 0.31676
 C1471 C 0.41726 0.01061 0.29977
 C1472 C 0.40626 0.02710 0.29126
 C1473 C 0.39221 0.02388 0.27511
 C1474 C 0.38835 0.00387 0.26753
 C1475 C 0.40053 -0.01237 0.27556
 C1476 C 0.41456 -0.00909 0.29171
 H1477 H 0.43751 0.04398 0.36176
 H1478 H 0.46006 0.04950 0.39166
 H1479 H 0.50140 0.00249 0.36908
 H1480 H 0.47849 -0.00297 0.33938
 H1481 H 0.40864 0.04253 0.29704
 H1482 H 0.38473 0.03722 0.26847
 H1483 H 0.39894 -0.02775 0.26943
 H1484 H 0.42330 -0.02194 0.29790
   
