data_POSCAR
  _audit_creation_date              2014-09-24
  _audit_creation_method            'ToBaCCo'
  _symmetry_space_group_name_H-M    'P1'
  _symmetry_Int_Tables_number       1
  _symmetry_cell_setting            triclinic
  loop_
  _symmetry_equiv_pos_as_xyz
 x,y,z
_cell_length_a 50.3561
_cell_length_b 50.4274
_cell_length_c 45.7776
_cell_angle_alpha 90.733000
_cell_angle_beta 89.361100
_cell_angle_gamma 90.661100
loop_
  _atom_site_label
  _atom_site_type_symbol
  _atom_site_fract_x
  _atom_site_fract_y
  _atom_site_fract_z
C1 C 0.38067 0.02360 0.29781
 C2 C 0.35945 0.04369 0.29021
 C3 C 0.34409 0.03651 0.26713
 C4 C 0.35130 0.00952 0.25348
 C5 C 0.36547 -0.00260 0.30191
 C6 C 0.35020 -0.01015 0.27886
 C7 C 0.39638 0.01939 0.26904
 C8 C 0.38103 0.01194 0.24590
 H9 H 0.35795 0.06285 0.30105
 H10 H 0.33869 0.00382 0.23466
 H11 H 0.36722 -0.01437 0.32140
 H12 H 0.41771 0.02058 0.26699
 C13 C 0.11402 -0.01844 0.77220
 C14 C 0.13051 -0.04117 0.75973
 C15 C 0.14592 -0.03450 0.73648
 C16 C 0.14332 -0.00545 0.72726
 C17 C 0.13412 0.00396 0.77839
 C18 C 0.14936 0.01107 0.75496
 C19 C 0.09886 -0.00899 0.74751
 C20 C 0.11485 -0.00170 0.72248
 H21 H 0.13038 -0.06087 0.76896
 H22 H 0.15657 -0.00102 0.70850
 H23 H 0.13509 0.01415 0.79933
 H24 H 0.07825 -0.00369 0.74926
 C25 C 0.61903 0.48706 0.27084
 C26 C 0.63218 0.46221 0.25844
 C27 C 0.64735 0.46630 0.23425
 C28 C 0.64783 0.49513 0.22396
 C29 C 0.64166 0.50718 0.27505
 C30 C 0.65679 0.51154 0.25079
 C31 C 0.60338 0.49817 0.24510
 C32 C 0.61820 0.50211 0.22019
 H33 H 0.63055 0.44306 0.26884
 H34 H 0.66072 0.49782 0.20444
 H35 H 0.64393 0.51870 0.29503
 H36 H 0.58293 0.50401 0.24687
 C37 C 0.88339 0.52258 0.79750
 C38 C 0.86555 0.54478 0.78731
 C39 C 0.85035 0.53830 0.76392
 C40 C 0.85401 0.50970 0.75273
 C41 C 0.86465 0.49895 0.80270
 C42 C 0.84952 0.49181 0.77937
 C43 C 0.89936 0.51442 0.76994
 C44 C 0.88401 0.50783 0.74648
 H45 H 0.86606 0.56453 0.79691
 H46 H 0.84143 0.50469 0.73366
 H47 H 0.86469 0.48788 0.82282
 H48 H 0.92068 0.51282 0.76890
 C49 C 0.27848 0.41173 1.00022
 C50 C 0.26919 0.39434 1.02582
 C51 C 0.24957 0.37661 1.01883
 C52 C 0.24105 0.37782 0.98681
 C53 C 0.28598 0.39230 0.97582
 C54 C 0.26671 0.37451 0.96870
 C55 C 0.25270 0.42469 0.99005
 C56 C 0.23281 0.40696 0.98349
 H57 H 0.27591 0.39738 1.04801
 H58 H 0.22534 0.36319 0.98088
 H59 H 0.30497 0.39325 0.96448
 H60 H 0.24903 0.44567 0.99306
 C61 C 0.76908 0.07754 0.98026
 C62 C 0.76105 0.09693 0.95639
 C63 C 0.74263 0.11496 0.96533
 C64 C 0.73371 0.11172 0.99735
 C65 C 0.77779 0.09510 1.00586
 C66 C 0.75941 0.11271 1.01531
 C67 C 0.74411 0.06543 0.98968
 C68 C 0.72415 0.08416 0.99873
 H69 H 0.76768 0.09536 0.93388
 H70 H 0.71945 0.12688 1.00502
 H71 H 0.79706 0.09330 1.01592
 H72 H 0.73972 0.04472 0.98530
 C73 C 0.27066 0.57819 0.48180
 C74 C 0.26226 0.59733 0.45793
 C75 C 0.24382 0.61529 0.46685
 C76 C 0.23518 0.61244 0.49894
 C77 C 0.27931 0.59591 0.50730
 C78 C 0.26092 0.61354 0.51672
 C79 C 0.24433 0.56542 0.49194
 C80 C 0.22558 0.58335 0.50065
 H81 H 0.26865 0.59558 0.43534
 H82 H 0.22017 0.62705 0.50635
 H83 H 0.29864 0.59425 0.51725
 H84 H 0.23990 0.54451 0.48897
 C85 C 0.77873 0.91571 0.50526
 C86 C 0.76985 0.89727 0.53008
 C87 C 0.75048 0.87948 0.52244
 C88 C 0.74187 0.88160 0.49049
 C89 C 0.78651 0.89730 0.48007
 C90 C 0.76750 0.87956 0.47202
 C91 C 0.75272 0.92857 0.49573
 C92 C 0.73315 0.91073 0.48841
 H93 H 0.77624 0.89990 0.55243
 H94 H 0.72631 0.86705 0.48385
 H95 H 0.80602 0.89804 0.46985
 H96 H 0.74882 0.94944 0.49925
 C97 C -0.01102 0.28360 0.39687
 C98 C 0.01410 0.28391 0.37755
 C99 C 0.01640 0.26261 0.35903
 C100 C -0.00699 0.24258 0.36182
 C101 C -0.03281 0.28044 0.37678
 C102 C -0.03105 0.25810 0.35722
 C103 C -0.00943 0.25699 0.41274
 C104 C -0.00732 0.23540 0.39462
 H105 H 0.02876 0.29976 0.37854
 H106 H -0.00467 0.22515 0.34710
 H107 H -0.05026 0.29271 0.37869
 H108 H -0.00675 0.25539 0.43603
 C109 C 0.01721 0.77249 0.10456
 C110 C -0.00637 0.77485 0.12572
 C111 C -0.00995 0.75397 0.14395
 C112 C 0.01122 0.73237 0.13977
 C113 C 0.04115 0.76760 0.12393
 C114 C 0.03817 0.74690 0.14242
 C115 C 0.01274 0.74569 0.08874
 C116 C 0.00963 0.72462 0.10705
 H117 H -0.01949 0.79172 0.12566
 H118 H 0.00904 0.71538 0.15480
 H119 H 0.05929 0.77933 0.12262
 H120 H 0.01244 0.74323 0.06530
 C121 C 0.51650 0.27363 0.60354
 C122 C 0.49248 0.27612 0.62409
 C123 C 0.48847 0.25532 0.64234
 C124 C 0.50971 0.23370 0.63888
 C125 C 0.54001 0.26883 0.62355
 C126 C 0.53663 0.24822 0.64209
 C127 C 0.51230 0.24674 0.58779
 C128 C 0.50876 0.22578 0.60618
 H129 H 0.47928 0.29290 0.62342
 H130 H 0.50721 0.21681 0.65398
 H131 H 0.55822 0.28045 0.62253
 H132 H 0.51225 0.24417 0.56436
 C133 C 0.49133 0.78365 0.89838
 C134 C 0.51524 0.78494 0.87727
 C135 C 0.51755 0.76347 0.85899
 C136 C 0.49563 0.74219 0.86408
 C137 C 0.46740 0.77887 0.87867
 C138 C 0.46946 0.75743 0.86049
 C139 C 0.49486 0.75892 0.91375
 C140 C 0.49706 0.73571 0.89531
 H141 H 0.52964 0.80105 0.87762
 H142 H 0.49685 0.72532 0.84850
 H143 H 0.45029 0.79171 0.87901
 H144 H 0.50080 0.75882 0.93632
 C145 C -0.23177 0.63095 0.95697
 C146 C -0.20790 0.61524 0.96700
 C147 C -0.21260 0.60010 0.99085
 C148 C -0.24118 0.60181 1.00271
 C149 C -0.25398 0.61035 0.95276
 C150 C -0.25910 0.59505 0.97645
 C151 C -0.24079 0.64677 0.98426
 C152 C -0.24524 0.63173 1.00854
 H153 H -0.18865 0.61644 0.95625
 H154 H -0.24460 0.58885 1.02175
 H155 H -0.26630 0.60982 0.93350
 H156 H -0.24488 0.66769 0.98411
 C157 C -0.26365 0.36610 0.47808
 C158 C -0.28855 0.37952 0.49008
 C159 C -0.28447 0.39470 0.51427
 C160 C -0.25563 0.39485 0.52480
 C161 C -0.24333 0.38863 0.47383
 C162 C -0.23899 0.40375 0.49815
 C163 C -0.25331 0.35123 0.50250
 C164 C -0.24901 0.36679 0.52878
 H165 H -0.30762 0.37814 0.47937
 H166 H -0.25330 0.40831 0.54380
 H167 H -0.23152 0.39063 0.45403
 H168 H -0.24541 0.33162 0.49963
 C169 C 0.23611 -0.13306 -0.02079
 C170 C 0.21112 -0.11998 -0.00857
 C171 C 0.21512 -0.10500 0.01578
 C172 C 0.24400 -0.10470 0.02625
 C173 C 0.25621 -0.11031 -0.02484
 C174 C 0.26048 -0.09539 -0.00036
 C175 C 0.24667 -0.14806 0.00338
 C176 C 0.25088 -0.13275 0.02984
 H177 H 0.19206 -0.12138 -0.01928
 H178 H 0.24628 -0.09142 0.04542
 H179 H 0.26797 -0.10802 -0.04464
 H180 H 0.25489 -0.16750 0.00019
 C181 C 0.27249 1.13260 0.45128
 C182 C 0.29470 1.11500 0.46192
 C183 C 0.28810 1.10008 0.48545
 C184 C 0.25938 1.10376 0.49628
 C185 C 0.24892 1.11374 0.44606
 C186 C 0.24167 1.09889 0.46952
 C187 C 0.26402 1.14884 0.47855
 C188 C 0.25731 1.13377 0.50213
 H189 H 0.31451 1.11537 0.45242
 H190 H 0.25428 1.09142 0.51546
 H191 H 0.23792 1.11357 0.42587
 H192 H 0.26204 1.17010 0.47919
 C193 C 0.16342 0.52819 0.24750
 C194 C 0.14464 0.51939 0.22288
 C195 C 0.12709 0.49986 0.23058
 C196 C 0.12972 0.49105 0.26238
 C197 C 0.14530 0.53566 0.27307
 C198 C 0.12780 0.51648 0.28117
 C199 C 0.17661 0.50222 0.25651
 C200 C 0.15898 0.48251 0.26389
 H201 H 0.14704 0.52580 0.20053
 H202 H 0.11533 0.47539 0.26907
 H203 H 0.14612 0.55503 0.28356
 H204 H 0.19748 0.49846 0.25256
 C205 C -0.17177 1.01968 0.26869
 C206 C -0.15226 1.01217 0.29271
 C207 C -0.13401 0.99388 0.28405
 C208 C -0.13712 0.98456 0.25215
 C209 C -0.15428 1.02827 0.24302
 C210 C -0.13644 1.01001 0.23384
 C211 C -0.18362 0.99450 0.25956
 C212 C -0.16462 0.97466 0.25088
 H213 H -0.15409 1.01877 0.31521
 H214 H -0.12176 0.97043 0.24469
 H215 H -0.15630 1.04735 0.23270
 H216 H -0.20432 0.98996 0.26395
 C217 C 0.32754 0.52000 -0.23440
 C218 C 0.34522 0.51123 -0.20926
 C219 C 0.36323 0.49243 -0.21704
 C220 C 0.36177 0.48377 -0.24923
 C221 C 0.34676 0.52815 -0.25878
 C222 C 0.36456 0.50942 -0.26676
 C223 C 0.31469 0.49394 -0.24531
 C224 C 0.33262 0.47478 -0.25278
 H225 H 0.34283 0.51817 -0.18694
 H226 H 0.37655 0.46855 -0.25559
 H227 H 0.34512 0.54682 -0.27007
 H228 H 0.29358 0.48991 -0.24349
 C229 C 0.66392 0.02951 -0.25262
 C230 C 0.64538 0.02053 -0.27738
 C231 C 0.62797 0.00082 -0.26982
 C232 C 0.63054 -0.00801 -0.23801
 C233 C 0.64557 0.03674 -0.22716
 C234 C 0.62823 0.01737 -0.21920
 C235 C 0.67735 0.00367 -0.24353
 C236 C 0.65988 -0.01622 -0.23629
 H237 H 0.64771 0.02713 -0.29967
 H238 H 0.61630 -0.02385 -0.23144
 H239 H 0.64611 0.05611 -0.21663
 H240 H 0.69830 0.00017 -0.24721
 C241 C 0.03194 0.23957 0.85133
 C242 C 0.03294 0.26460 0.87084
 C243 C 0.01148 0.26759 0.88905
 C244 C -0.00935 0.24500 0.88569
 C245 C 0.02780 0.21676 0.87262
 C246 C 0.00638 0.21936 0.89076
 C247 C 0.00695 0.24167 0.83596
 C248 C -0.01606 0.24475 0.85450
 H249 H 0.04937 0.27862 0.87025
 H250 H -0.02644 0.24673 0.90097
 H251 H 0.04071 0.19973 0.87293
 H252 H 0.00634 0.24649 0.81308
 C253 C 0.52214 0.26295 0.14263
 C254 C 0.52393 0.24084 0.11954
 C255 C 0.50302 0.23918 0.10102
 C256 C 0.48154 0.26013 0.10755
 C257 C 0.51745 0.28822 0.12539
 C258 C 0.49648 0.28692 0.10698
 C259 C 0.49542 0.25761 0.15827
 C260 C 0.47396 0.25643 0.14017
 H261 H 0.53996 0.22670 0.11911
 H262 H 0.46459 0.25938 0.09231
 H263 H 0.53007 0.30568 0.12743
 H264 H 0.49345 0.25454 0.18144
 C265 C 0.02344 0.76447 0.64316
 C266 C 0.02395 0.74023 0.62272
 C267 C 0.00316 0.73823 0.60405
 C268 C -0.01712 0.76078 0.60807
 C269 C 0.02044 0.78812 0.62295
 C270 C -0.00037 0.78628 0.60439
 C271 C -0.00356 0.76219 0.65903
 C272 C -0.02495 0.76042 0.64091
 H273 H 0.03947 0.72556 0.62351
 H274 H -0.03399 0.75957 0.59273
 H275 H 0.03397 0.80499 0.62328
 H276 H -0.00571 0.76054 0.68238
 C277 C 0.53504 0.73993 0.35356
 C278 C 0.53569 0.76514 0.37271
 C279 C 0.51410 0.76829 0.39064
 C280 C 0.49337 0.74567 0.38757
 C281 C 0.53054 0.71733 0.37507
 C282 C 0.50899 0.72013 0.39297
 C283 C 0.50870 0.74192 0.33710
 C284 C 0.48686 0.74492 0.35468
 H285 H 0.55217 0.77911 0.37221
 H286 H 0.47568 0.74789 0.40202
 H287 H 0.54329 0.70019 0.37561
 H288 H 0.50742 0.74387 0.31370
 B289 B -0.01732 0.01523 1.03356
 B290 B -0.03048 0.00795 1.00114
 B291 B -0.00775 0.03220 1.00406
 B292 B 0.01500 0.02343 1.02893
 B293 B 0.00570 -0.00733 1.04111
 B294 B -0.02291 -0.01668 1.02388
 B295 B 0.01591 -0.01126 0.98269
 B296 B 0.02917 -0.00400 1.01505
 B297 B 0.00635 -0.02807 1.01203
 B298 B -0.01631 -0.01936 0.98731
 B299 B -0.00701 0.01130 0.97505
 B300 B 0.02167 0.02065 0.99225
 B301 B 0.48365 0.51516 0.53291
 B302 B 0.47107 0.50839 0.50009
 B303 B 0.49337 0.53290 0.50408
 B304 B 0.51589 0.52394 0.52910
 B305 B 0.50688 0.49278 0.54027
 B306 B 0.47869 0.48338 0.52229
 B307 B 0.51803 0.49034 0.48196
 B308 B 0.53069 0.49705 0.51474
 B309 B 0.50829 0.47270 0.51065
 B310 B 0.48587 0.48161 0.48576
 B311 B 0.49485 0.51270 0.47453
 B312 B 0.52313 0.52210 0.49250
 B313 B 0.50971 0.96894 0.54839
 B314 B 0.52565 0.97627 0.51734
 B315 B 0.49984 0.95521 0.51692
 B316 B 0.47698 0.96542 0.54179
 B317 B 0.48940 0.99393 0.55754
 B318 B 0.51998 1.00034 0.54234
 B319 B 0.48341 1.00260 0.49939
 B320 B 0.46737 0.99528 0.53032
 B321 B 0.49323 1.01629 0.53076
 B322 B 0.51603 1.00606 0.50596
 B323 B 0.50359 0.97766 0.49018
 B324 B 0.47304 0.97121 0.50531
 B325 B 0.01066 0.46748 1.04816
 B326 B 0.02655 0.47470 1.01703
 B327 B 0.00041 0.45403 1.01669
 B328 B -0.02216 0.46451 1.04176
 B329 B -0.00921 0.49276 1.05756
 B330 B 0.02139 0.49876 1.04219
 B331 B -0.01537 0.50176 0.99951
 B332 B -0.03135 0.49457 1.03050
 B333 B -0.00517 0.51517 1.03087
 B334 B 0.01732 0.50469 1.00588
 B335 B 0.00436 0.47655 0.99004
 B336 B -0.02620 0.47051 1.00535
 B337 B -0.00109 0.52391 0.47396
 B338 B 0.01485 0.52053 0.50540
 B339 B -0.00954 0.54245 0.50295
 B340 B -0.03341 0.52987 0.48105
 B341 B -0.02313 0.49903 0.47013
 B342 B 0.00721 0.49350 0.48520
 B343 B -0.02876 0.49919 0.52943
 B344 B -0.04474 0.50267 0.49808
 B345 B -0.02034 0.48073 0.50042
 B346 B 0.00352 0.49330 0.52234
 B347 B -0.00678 0.52414 0.53331
 B348 B -0.03710 0.52968 0.51828
 B349 B 0.49844 0.02415 -0.02687
 B350 B 0.51445 0.02118 0.00458
 B351 B 0.49013 0.04314 0.00180
 B352 B 0.46616 0.03030 -0.01980
 B353 B 0.47632 -0.00072 -0.03020
 B354 B 0.50669 -0.00611 -0.01512
 B355 B 0.47084 0.00034 0.02913
 B356 B 0.45479 0.00338 -0.00225
 B357 B 0.47914 -0.01860 0.00041
 B358 B 0.50308 -0.00576 0.02205
 B359 B 0.49291 0.02527 0.03248
 B360 B 0.46257 0.03068 0.01743
 B361 B 0.49449 0.48888 -0.03904
 B362 B 0.47885 0.49736 -0.00808
 B363 B 0.50193 0.47394 -0.00806
 B364 B 0.52641 0.48216 -0.03188
 B365 B 0.51778 0.51187 -0.04666
 B366 B 0.48783 0.52097 -0.03186
 B367 B 0.52362 0.51913 0.01213
 B368 B 0.53929 0.51078 -0.01885
 B369 B 0.51607 0.53418 -0.01895
 B370 B 0.49170 0.52586 0.00493
 B371 B 0.50032 0.49618 0.01962
 B372 B 0.53021 0.48701 0.00487
 B373 B -0.00458 0.99059 0.46401
 B374 B -0.02055 0.99884 0.49487
 B375 B 0.00257 0.97546 0.49499
 B376 B 0.02729 0.98390 0.47154
 B377 B 0.01874 1.01365 0.45690
 B378 B -0.01137 1.02260 0.47138
 B379 B 0.02398 1.02059 0.51580
 B380 B 0.03997 1.01245 0.48496
 B381 B 0.01670 1.03580 0.48472
 B382 B -0.00787 1.02728 0.50824
 B383 B 0.00065 0.99752 0.52283
 B384 B 0.03070 0.98850 0.50837
 B385 B 0.76484 0.23255 0.21524
 B386 B 0.75788 0.21957 0.24778
 B387 B 0.78225 0.24212 0.24444
 B388 B 0.77327 0.26480 0.21964
 B389 B 0.74227 0.25562 0.20792
 B390 B 0.73298 0.22718 0.22536
 B391 B 0.73915 0.26610 0.26636
 B392 B 0.74605 0.27916 0.23385
 B393 B 0.72185 0.25650 0.23727
 B394 B 0.73078 0.23394 0.26195
 B395 B 0.76171 0.24309 0.27373
 B396 B 0.77100 0.27161 0.25631
 B397 B 0.71973 0.76104 0.70446
 B398 B 0.72668 0.77683 0.73574
 B399 B 0.70561 0.75104 0.73563
 B400 B 0.71616 0.72832 0.71077
 B401 B 0.74487 0.74083 0.69558
 B402 B 0.75107 0.77130 0.71110
 B403 B 0.75285 0.73457 0.75384
 B404 B 0.74593 0.71870 0.72265
 B405 B 0.76695 0.74456 0.72273
 B406 B 0.75638 0.76719 0.74754
 B407 B 0.72776 0.75468 0.76276
 B408 B 0.72151 0.72424 0.74729
 B409 B 0.27338 0.24827 0.77394
 B410 B 0.26968 0.26431 0.74264
 B411 B 0.29157 0.23982 0.74468
 B412 B 0.27911 0.21597 0.76659
 B413 B 0.24841 0.22637 0.77796
 B414 B 0.24282 0.25674 0.76315
 B415 B 0.24781 0.22094 0.71865
 B416 B 0.25159 0.20484 0.74984
 B417 B 0.22971 0.22934 0.74795
 B418 B 0.24215 0.25317 0.72601
 B419 B 0.27286 0.24277 0.71458
 B420 B 0.27844 0.21240 0.72935
 B421 B 0.24015 0.74436 0.28765
 B422 B 0.24795 0.72840 0.25666
 B423 B 0.22478 0.75174 0.25687
 B424 B 0.23371 0.77629 0.28034
 B425 B 0.26357 0.76738 0.29465
 B426 B 0.27208 0.73725 0.27995
 B427 B 0.26999 0.77266 0.23570
 B428 B 0.26232 0.78865 0.26668
 B429 B 0.28543 0.76517 0.26658
 B430 B 0.27644 0.74077 0.24306
 B431 B 0.24659 0.74963 0.22881
 B432 B 0.23801 0.77972 0.24347
 B433 B 0.26586 0.73490 0.71561
 B434 B 0.25852 0.72153 0.74785
 B435 B 0.28310 0.74391 0.74514
 B436 B 0.27455 0.76700 0.72062
 B437 B 0.24357 0.75828 0.70845
 B438 B 0.23388 0.72968 0.72534
 B439 B 0.24007 0.76798 0.76703
 B440 B 0.24736 0.78144 0.73481
 B441 B 0.22294 0.75895 0.73764
 B442 B 0.23145 0.73596 0.76202
 B443 B 0.26235 0.74466 0.77424
 B444 B 0.27204 0.77334 0.75738
 B445 B 0.21690 0.25949 0.20084
 B446 B 0.22442 0.27555 0.23179
 B447 B 0.20338 0.24974 0.23243
 B448 B 0.21350 0.22683 0.20757
 B449 B 0.24191 0.23922 0.19157
 B450 B 0.24837 0.26985 0.20664
 B451 B 0.25102 0.23354 0.24967
 B452 B 0.24351 0.21736 0.21886
 B453 B 0.26449 0.24322 0.21818
 B454 B 0.25437 0.26607 0.24298
 B455 B 0.22607 0.25366 0.25901
 B456 B 0.21958 0.22309 0.24401
 B457 B 0.77825 0.74821 0.28184
 B458 B 0.77471 0.76433 0.25057
 B459 B 0.79669 0.73995 0.25270
 B460 B 0.78419 0.71596 0.27441
 B461 B 0.75335 0.72616 0.28556
 B462 B 0.74774 0.75656 0.27081
 B463 B 0.75323 0.72096 0.22620
 B464 B 0.75685 0.70476 0.25737
 B465 B 0.73487 0.72916 0.25536
 B466 B 0.74737 0.75313 0.23365
 B467 B 0.77819 0.74291 0.22246
 B468 B 0.78381 0.71253 0.23715
 B469 B 0.73798 0.24705 0.78847
 B470 B 0.74600 0.23087 0.75768
 B471 B 0.72278 0.25415 0.75749
 B472 B 0.73152 0.27891 0.78080
 B473 B 0.76131 0.27019 0.79542
 B474 B 0.76996 0.23997 0.78107
 B475 B 0.76810 0.27500 0.73647
 B476 B 0.76020 0.29125 0.76723
 B477 B 0.78337 0.26779 0.76755
 B478 B 0.77454 0.24320 0.74419
 B479 B 0.74478 0.25188 0.72962
 B480 B 0.73605 0.28206 0.74392
 C481 C 0.43662 1.03882 0.35249
 C482 C 0.42202 1.04028 0.37859
 C483 C 0.39432 1.03887 0.37803
 C484 C 0.38132 1.03473 0.35159
 C485 C 0.39580 1.03162 0.32524
 C486 C 0.42367 1.03467 0.32595
 C487 C 0.43545 1.03878 0.40598
 C488 C 0.44661 1.03485 0.42857
 C489 C 0.45947 1.02714 0.45414
 C490 C 0.47024 1.01797 0.47495
 H491 H 0.45813 1.03967 0.35277
 H492 H 0.38282 1.03968 0.39817
 H493 H 0.35988 1.03274 0.35182
 H494 H 0.43591 1.03303 0.30658
 C495 C -0.10318 0.54000 0.87731
 C496 C -0.07548 0.53969 0.87831
 C497 C -0.06067 0.53634 0.85255
 C498 C -0.07348 0.53193 0.82600
 C499 C -0.10144 0.53043 0.82495
 C500 C -0.11604 0.53564 0.85082
 C501 C -0.06247 0.53837 0.90595
 C502 C -0.05159 0.53450 0.92871
 C503 C -0.03898 0.52674 0.95440
 C504 C -0.02838 0.51742 0.97522
 H505 H -0.11485 0.54237 0.89718
 H506 H -0.03917 0.53598 0.85317
 H507 H -0.06114 0.52911 0.80687
 H508 H -0.13756 0.53517 0.85069
 C509 C 0.05963 -0.03158 0.83046
 C510 C 0.07537 -0.03722 0.85455
 C511 C 0.10284 -0.03902 0.85119
 C512 C 0.11469 -0.03396 0.82416
 C513 C 0.09933 -0.02664 0.80001
 C514 C 0.07143 -0.02653 0.80327
 C515 C 0.06380 -0.03748 0.88330
 C516 C 0.05411 -0.03537 0.90732
 C517 C 0.04233 -0.03013 0.93472
 C518 C 0.03143 -0.02330 0.95699
 H519 H 0.03826 -0.03013 0.83294
 H520 H 0.11523 -0.04322 0.86974
 H521 H 0.13613 -0.03473 0.82232
 H522 H 0.05849 -0.02205 0.78544
 C523 C 0.60778 0.46851 0.35053
 C524 C 0.58041 0.47142 0.35406
 C525 C 0.56490 0.47838 0.33024
 C526 C 0.57679 0.48310 0.30303
 C527 C 0.60454 0.48120 0.29943
 C528 C 0.61970 0.47319 0.32344
 C529 C 0.56861 0.46992 0.38265
 C530 C 0.55846 0.47062 0.40653
 C531 C 0.54591 0.47406 0.43387
 C532 C 0.53431 0.47950 0.45617
 H533 H 0.61999 0.46327 0.36887
 H534 H 0.54364 0.48073 0.33286
 H535 H 0.56402 0.48831 0.28531
 H536 H 0.64102 0.47107 0.32128
 C537 C 0.56802 0.51829 0.16139
 C538 C 0.58431 0.52891 0.13948
 C539 C 0.61167 0.53113 0.14387
 C540 C 0.62270 0.52267 0.17005
 C541 C 0.60654 0.51186 0.19240
 C542 C 0.57896 0.50976 0.18750
 C543 C 0.57308 0.53446 0.11146
 C544 C 0.56281 0.53668 0.08798
 C545 C 0.54990 0.53576 0.06080
 C546 C 0.53837 0.53127 0.03834
 H547 H 0.54687 0.51583 0.15796
 H548 H 0.62457 0.53882 0.12680
 H549 H 0.64391 0.52445 0.17225
 H550 H 0.56566 0.50074 0.20327
 C551 C 0.06611 1.01501 0.66457
 C552 C 0.08223 1.02838 0.64444
 C553 C 0.10905 1.03278 0.65056
 C554 C 0.11983 1.02339 0.67647
 C555 C 0.10398 1.00910 0.69676
 C556 C 0.07675 1.00553 0.69041
 C557 C 0.07162 1.03470 0.61632
 C558 C 0.06184 1.03738 0.59264
 C559 C 0.04948 1.03684 0.56513
 C560 C 0.03836 1.03258 0.54235
 H561 H 0.04539 1.01106 0.65983
 H562 H 0.12177 1.04307 0.63507
 H563 H 0.14048 1.02798 0.68043
 H564 H 0.06361 0.99422 0.70446
 C565 C -0.10755 0.47562 0.67154
 C566 C -0.08388 0.48763 0.66191
 C567 C -0.07046 0.50558 0.68018
 C568 C -0.08073 0.51186 0.70778
 C569 C -0.10464 0.50020 0.71761
 C570 C -0.11787 0.48183 0.69931
 C571 C -0.07397 0.48346 0.63266
 C572 C -0.06475 0.48239 0.60830
 C573 C -0.05306 0.48425 0.58029
 C574 C -0.04253 0.48875 0.55712
 H575 H -0.11818 0.46180 0.65749
 H576 H -0.05230 0.51525 0.67280
 H577 H -0.07030 0.52644 0.72105
 H578 H -0.13612 0.47224 0.70642
 C579 C 0.39176 -0.02089 0.17169
 C580 C 0.41380 -0.00663 0.16119
 C581 C 0.42505 0.01364 0.17834
 C582 C 0.41438 0.01969 0.20584
 C583 C 0.39224 0.00553 0.21663
 C584 C 0.38104 -0.01486 0.19930
 C585 C 0.42446 -0.01155 0.13238
 C586 C 0.43415 -0.01354 0.10828
 C587 C 0.44624 -0.01289 0.08038
 C588 C 0.45699 -0.00934 0.05712
 H589 H 0.38283 -0.03655 0.15854
 H590 H 0.44194 0.02499 0.17028
 H591 H 0.42321 0.03576 0.21844
 H592 H 0.36424 -0.02640 0.20720
 C593 C 0.33027 0.46709 -0.00847
 C594 C 0.35077 0.45769 0.00883
 C595 C 0.34662 0.43518 0.02580
 C596 C 0.32249 0.42141 0.02459
 C597 C 0.30180 0.43018 0.00673
 C598 C 0.30599 0.45339 -0.00964
 C599 C 0.37707 0.46886 0.00649
 C600 C 0.39962 0.47672 0.00390
 C601 C 0.42637 0.48457 0.00028
 C602 C 0.44939 0.49050 -0.00318
 H603 H 0.33350 0.48422 -0.02216
 H604 H 0.36256 0.42742 0.03880
 H605 H 0.32073 0.40298 0.03633
 H606 H 0.29116 0.46011 -0.02468
 C607 C -0.15362 0.93980 0.53157
 C608 C -0.14914 0.96163 0.51365
 C609 C -0.16947 0.97071 0.49593
 C610 C -0.19385 0.95717 0.49510
 C611 C -0.19829 0.93445 0.51219
 C612 C -0.17785 0.92617 0.53069
 C613 C -0.12264 0.97214 0.51064
 C614 C -0.09996 0.97941 0.50748
 C615 C -0.07311 0.98659 0.50332
 C616 C -0.05003 0.99211 0.49960
 H617 H -0.13781 0.93230 0.54493
 H618 H -0.16600 0.98732 0.48154
 H619 H -0.20853 0.96348 0.47964
 H620 H -0.17972 0.90810 0.54304
 C621 C -0.17935 0.02425 0.99022
 C622 C -0.15892 0.03362 0.97207
 C623 C -0.16372 0.05406 0.95263
 C624 C -0.18824 0.06659 0.95291
 C625 C -0.20860 0.05859 0.97243
 C626 C -0.20402 0.03664 0.99044
 C627 C -0.13206 0.02582 0.97693
 C628 C -0.10926 0.02105 0.98197
 C629 C -0.08247 0.01672 0.98853
 C630 C -0.05957 0.01321 0.99424
 H631 H -0.17565 0.00870 1.00573
 H632 H -0.14783 0.06175 0.93887
 H633 H -0.19012 0.08400 0.93963
 H634 H -0.21867 0.03052 1.00655
 C635 C 0.32209 0.52462 0.49059
 C636 C 0.34245 0.53411 0.47240
 C637 C 0.33767 0.55494 0.45346
 C638 C 0.31325 0.56764 0.45424
 C639 C 0.29296 0.55940 0.47371
 C640 C 0.29749 0.53718 0.49128
 C641 C 0.36929 0.52604 0.47676
 C642 C 0.39215 0.52115 0.48138
 C643 C 0.41901 0.51681 0.48752
 C644 C 0.44197 0.51340 0.49305
 H645 H 0.32580 0.50879 0.50574
 H646 H 0.35350 0.56274 0.43971
 H647 H 0.31137 0.58531 0.44135
 H648 H 0.28288 0.53090 0.50735
 C649 C 0.16384 0.54379 0.52144
 C650 C 0.14385 0.56016 0.51108
 C651 C 0.15054 0.58450 0.49852
 C652 C 0.17712 0.59229 0.49581
 C653 C 0.19741 0.57580 0.50566
 C654 C 0.19051 0.55156 0.51875
 C655 C 0.11655 0.55155 0.51185
 C656 C 0.09363 0.54453 0.51154
 C657 C 0.06680 0.53642 0.51023
 C658 C 0.04392 0.52948 0.50847
 H659 H 0.15886 0.52487 0.53114
 H660 H 0.13522 0.59720 0.49020
 H661 H 0.18173 0.61076 0.48500
 H662 H 0.20572 0.53855 0.52668
 C663 C 0.66380 0.04232 0.01373
 C664 C 0.64356 0.06058 0.00973
 C665 C 0.64994 0.08692 0.00349
 C666 C 0.67645 0.09496 0.00058
 C667 C 0.69728 0.07666 0.00377
 C668 C 0.69039 0.05023 0.01084
 C669 C 0.61623 0.05209 0.01044
 C670 C 0.59328 0.04512 0.01017
 C671 C 0.56644 0.03704 0.00900
 C672 C 0.54355 0.03011 0.00741
 H673 H 0.65905 0.02185 0.01872
 H674 H 0.63437 0.10116 0.00005
 H675 H 0.68005 0.11521 -0.00587
 H676 H 0.70539 0.03552 0.01452
 C677 C 0.65876 0.91010 0.50143
 C678 C 0.65168 0.93495 0.49103
 C679 C 0.67096 0.95131 0.47799
 C680 C 0.69739 0.94309 0.47605
 C681 C 0.70482 0.91841 0.48721
 C682 C 0.68509 0.90187 0.49955
 C683 C 0.62492 0.94401 0.49532
 C684 C 0.60252 0.95130 0.49981
 C685 C 0.57636 0.95966 0.50571
 C686 C 0.55405 0.96685 0.51091
 H687 H 0.64404 0.89736 0.51174
 H688 H 0.66568 0.97062 0.46988
 H689 H 0.71209 0.95619 0.46630
 H690 H 0.69003 0.88303 0.50898
 C691 C 0.15870 0.40747 0.99842
 C692 C 0.15168 0.43223 0.98778
 C693 C 0.17085 0.44814 0.97387
 C694 C 0.19714 0.43955 0.97134
 C695 C 0.20453 0.41497 0.98278
 C696 C 0.18486 0.39889 0.99597
 C697 C 0.12513 0.44164 0.99274
 C698 C 0.10290 0.44911 0.99786
 C699 C 0.07692 0.45762 1.00448
 C700 C 0.05476 0.46496 1.01020
 H701 H 0.14407 0.39507 1.00939
 H702 H 0.16561 0.46738 0.96556
 H703 H 0.21176 0.45232 0.96094
 H704 H 0.18973 0.38015 1.00566
 C705 C -0.02559 0.33115 0.46194
 C706 C -0.02111 0.35580 0.44900
 C707 C -0.01360 0.35693 0.41954
 C708 C -0.01032 0.33364 0.40314
 C709 C -0.01405 0.30857 0.41595
 C710 C -0.02232 0.30772 0.44554
 C711 C -0.02397 0.38016 0.46554
 C712 C -0.02547 0.40149 0.47770
 C713 C -0.02585 0.42755 0.48943
 C714 C -0.02466 0.45062 0.49665
 H715 H -0.03177 0.33002 0.48463
 H716 H -0.01032 0.37590 0.40916
 H717 H -0.00493 0.33520 0.38026
 H718 H -0.02688 0.28921 0.45616
 C719 C 0.48658 -0.14289 -0.07976
 C720 C 0.47957 -0.14391 -0.05015
 C721 C 0.47603 -0.16856 -0.03687
 C722 C 0.47981 -0.19204 -0.05305
 C723 C 0.48776 -0.19127 -0.08277
 C724 C 0.49038 -0.16624 -0.09595
 C725 C 0.47633 -0.11945 -0.03378
 C726 C 0.47455 -0.09807 -0.02175
 C727 C 0.47386 -0.07193 -0.01013
 C728 C 0.47486 -0.04880 -0.00303
 H729 H 0.48909 -0.12395 -0.09044
 H730 H 0.47020 -0.16964 -0.01406
 H731 H 0.47599 -0.21062 -0.04219
 H732 H 0.49532 -0.16473 -0.11895
 C733 C 0.01585 -0.17730 1.04149
 C734 C 0.02269 -0.15385 1.05642
 C735 C 0.02870 -0.15466 1.08609
 C736 C 0.02747 -0.17861 1.10094
 C737 C 0.02042 -0.20245 1.08641
 C738 C 0.01469 -0.20146 1.05632
 C739 C 0.02148 -0.12849 1.04238
 C740 C 0.01968 -0.10655 1.03248
 C741 C 0.01652 -0.08024 1.02306
 C742 C 0.01281 -0.05742 1.01689
 H743 H 0.01074 -0.17683 1.01858
 H744 H 0.03366 -0.13660 1.09801
 H745 H 0.03143 -0.17845 1.12415
 H746 H 0.00844 -0.21886 1.04418
 C747 C 0.51746 0.32342 0.53995
 C748 C 0.52367 0.34699 0.55499
 C749 C 0.52849 0.34639 0.58496
 C750 C 0.52667 0.32254 0.59996
 C751 C 0.52021 0.29859 0.58531
 C752 C 0.51572 0.29936 0.55494
 C753 C 0.52302 0.37225 0.54069
 C754 C 0.52158 0.39417 0.53062
 C755 C 0.51869 0.42049 0.52112
 C756 C 0.51502 0.44334 0.51504
 H757 H 0.51330 0.32372 0.51679
 H758 H 0.53297 0.36453 0.59695
 H759 H 0.52976 0.32285 0.62334
 H760 H 0.51006 0.28187 0.54264
 C761 C 0.48415 1.15430 0.60042
 C762 C 0.49677 1.14564 0.57463
 C763 C 0.51338 1.16316 0.55931
 C764 C 0.51733 1.18913 0.56958
 C765 C 0.50470 1.19807 0.59542
 C766 C 0.48809 1.18033 0.61077
 C767 C 0.49347 1.11862 0.56427
 C768 C 0.49156 1.09592 0.55562
 C769 C 0.49046 1.06914 0.54592
 C770 C 0.49071 1.04608 0.53843
 H771 H 0.47129 1.14093 0.61256
 H772 H 0.52348 1.15668 0.53949
 H773 H 0.53063 1.20207 0.55749
 H774 H 0.47782 1.18665 0.63051
 C775 C -0.01402 0.65282 1.10136
 C776 C -0.00165 0.64444 1.07531
 C777 C 0.01446 0.66226 1.05977
 C778 C 0.01816 0.68825 1.07010
 C779 C 0.00578 0.69691 1.09620
 C780 C -0.01032 0.67886 1.11176
 C781 C -0.00471 0.61742 1.06485
 C782 C -0.00648 0.59475 1.05612
 C783 C -0.00752 0.56800 1.04630
 C784 C -0.00733 0.54496 1.03870
 H785 H -0.02648 0.63921 1.11366
 H786 H 0.02436 0.65600 1.03975
 H787 H 0.03110 0.70142 1.05784
 H788 H -0.02038 0.68496 1.13171
 C789 C 0.51604 0.66378 -0.09895
 C790 C 0.51284 0.65965 -0.06894
 C791 C 0.50378 0.68035 -0.05110
 C792 C 0.49829 0.70508 -0.06296
 C793 C 0.50191 0.71001 -0.09318
 C794 C 0.51056 0.68856 -0.11099
 C795 C 0.51749 0.63389 -0.05654
 C796 C 0.52030 0.61217 -0.04617
 C797 C 0.52187 0.58626 -0.03468
 C798 C 0.52115 0.56364 -0.02624
 H799 H 0.52275 0.64780 -0.11314
 H800 H 0.50060 0.67730 -0.02793
 H801 H 0.49045 0.71991 -0.04809
 H802 H 0.51383 0.69052 -0.13416
 C803 C -0.00807 1.17647 0.44537
 C804 C 0.01021 1.15956 0.43171
 C805 C 0.02181 1.16686 0.40494
 C806 C 0.01554 1.19118 0.39227
 C807 C -0.00237 1.20851 0.40627
 C808 C -0.01432 1.20069 0.43280
 C809 C 0.01615 1.13444 0.44491
 C810 C 0.01978 1.11318 0.45605
 C811 C 0.02203 1.08768 0.46838
 C812 C 0.02165 1.06523 0.47734
 H813 H -0.01747 1.17096 0.46585
 H814 H 0.03583 1.15387 0.39399
 H815 H 0.02532 1.19674 0.37204
 H816 H -0.02846 1.21340 0.44395
 C817 C 0.78167 0.68710 0.90225
 C818 C 0.78421 0.67256 0.87619
 C819 C 0.78328 0.64488 0.87665
 C820 C 0.77881 0.63181 0.90296
 C821 C 0.77466 0.64619 0.92921
 C822 C 0.77719 0.67407 0.92864
 C823 C 0.78419 0.68601 0.84875
 C824 C 0.78171 0.69725 0.82594
 C825 C 0.77563 0.71028 0.79992
 C826 C 0.76756 0.72123 0.77867
 H827 H 0.78240 0.70858 0.90208
 H828 H 0.78512 0.63342 0.85656
 H829 H 0.77784 0.61034 0.90273
 H830 H 0.77562 0.68612 0.94820
 C831 C 0.28713 0.18812 0.39624
 C832 C 0.28983 0.17327 0.37042
 C833 C 0.28962 0.14560 0.37136
 C834 C 0.28528 0.13283 0.39788
 C835 C 0.28053 0.14752 0.42379
 C836 C 0.28273 0.17541 0.42281
 C837 C 0.28827 0.18629 0.34285
 C838 C 0.28418 0.19721 0.32020
 C839 C 0.27616 0.20989 0.29467
 C840 C 0.26669 0.22053 0.27396
 H841 H 0.28724 0.20960 0.39568
 H842 H 0.29153 0.13390 0.35144
 H843 H 0.28440 0.11136 0.39798
 H844 H 0.28052 0.18776 0.44203
 C845 C 0.71860 0.35472 0.39810
 C846 C 0.72006 0.32723 0.39497
 C847 C 0.72572 0.31166 0.41917
 C848 C 0.73062 0.32362 0.44635
 C849 C 0.73038 0.35148 0.44951
 C850 C 0.72351 0.36671 0.42512
 C851 C 0.71844 0.31532 0.36641
 C852 C 0.71906 0.30532 0.34243
 C853 C 0.72248 0.29313 0.31488
 C854 C 0.72799 0.28190 0.29235
 H855 H 0.71430 0.36697 0.37949
 H856 H 0.72684 0.29029 0.41689
 H857 H 0.73456 0.31083 0.46448
 H858 H 0.72241 0.38811 0.42693
 C859 C 0.21855 0.85597 0.89911
 C860 C 0.22008 0.82849 0.89583
 C861 C 0.22566 0.81281 0.91995
 C862 C 0.23046 0.82464 0.94721
 C863 C 0.23021 0.85249 0.95052
 C864 C 0.22334 0.86783 0.92622
 C865 C 0.21865 0.81671 0.86720
 C866 C 0.21947 0.80680 0.84320
 C867 C 0.22312 0.79471 0.81563
 C868 C 0.22880 0.78359 0.79310
 H869 H 0.21429 0.86829 0.88056
 H870 H 0.22682 0.79145 0.91756
 H871 H 0.23433 0.81178 0.96530
 H872 H 0.22220 0.88922 0.92815
 C873 C 0.27265 0.81729 0.08463
 C874 C 0.27944 0.83350 0.10838
 C875 C 0.27751 0.86096 0.10607
 C876 C 0.26849 0.87222 0.08028
 C877 C 0.26109 0.85619 0.05595
 C878 C 0.26360 0.82838 0.05882
 C879 C 0.28499 0.82170 0.13609
 C880 C 0.28722 0.81123 0.15944
 C881 C 0.28635 0.79835 0.18661
 C882 C 0.28195 0.78701 0.20918
 H883 H 0.27346 0.79590 0.08639
 H884 H 0.28233 0.87373 0.12452
 H885 H 0.26745 0.89351 0.08023
 H886 H 0.25759 0.81460 0.04186
 C887 C 0.77713 0.36124 0.60529
 C888 C 0.77884 0.33380 0.60804
 C889 C 0.77211 0.31734 0.58448
 C890 C 0.76332 0.32817 0.55840
 C891 C 0.76100 0.35596 0.55510
 C892 C 0.76836 0.37223 0.57926
 C893 C 0.78407 0.32238 0.63603
 C894 C 0.78603 0.31232 0.65963
 C895 C 0.78487 0.29996 0.68708
 C896 C 0.78025 0.28903 0.70985
 H897 H 0.78191 0.37421 0.62359
 H898 H 0.77275 0.29598 0.58657
 H899 H 0.75737 0.31423 0.54158
 H900 H 0.76748 0.39352 0.57892
 C901 C 0.22412 0.14258 0.57646
 C902 C 0.23582 0.16640 0.58606
 C903 C 0.25377 0.17989 0.56788
 C904 C 0.26041 0.16948 0.54044
 C905 C 0.24913 0.14536 0.53069
 C906 C 0.23068 0.13213 0.54885
 C907 C 0.23152 0.17629 0.61529
 C908 C 0.23041 0.18543 0.63969
 C909 C 0.23234 0.19698 0.66778
 C910 C 0.23701 0.20736 0.69100
 H911 H 0.21032 0.13190 0.59044
 H912 H 0.26320 0.19817 0.57525
 H913 H 0.27501 0.17993 0.52726
 H914 H 0.22135 0.11374 0.54178
 C915 C 0.73124 0.63888 0.08779
 C916 C 0.73772 0.66539 0.09380
 C917 C 0.74914 0.68104 0.07196
 C918 C 0.75433 0.67024 0.04429
 C919 C 0.74803 0.64348 0.03781
 C920 C 0.73637 0.62800 0.06007
 C921 C 0.73524 0.67602 0.12297
 C922 C 0.73515 0.68547 0.14726
 C923 C 0.73774 0.69711 0.17523
 C924 C 0.74261 0.70746 0.19842
 H925 H 0.72277 0.62645 0.10471
 H926 H 0.75477 0.70147 0.07656
 H927 H 0.76416 0.68281 0.02846
 H928 H 0.73139 0.60740 0.05658
 C929 C 0.21865 0.57996 0.25594
 C930 C 0.20919 0.60032 0.23856
 C931 C 0.18688 0.59595 0.22124
 C932 C 0.17322 0.57178 0.22235
 C933 C 0.18193 0.55128 0.24046
 C934 C 0.20507 0.55563 0.25700
 C935 C 0.21995 0.62671 0.24130
 C936 C 0.22748 0.64930 0.24427
 C937 C 0.23502 0.67605 0.24828
 C938 C 0.24085 0.69903 0.25192
 H939 H 0.23563 0.58334 0.26987
 H940 H 0.17909 0.61179 0.20816
 H941 H 0.15484 0.56995 0.21045
 H942 H 0.21174 0.54091 0.27218
 C943 C 0.68658 0.09770 0.72169
 C944 C 0.70868 0.10234 0.73926
 C945 C 0.71833 0.08202 0.75658
 C946 C 0.70514 0.05748 0.75734
 C947 C 0.68220 0.05285 0.74056
 C948 C 0.67330 0.07330 0.72249
 C949 C 0.71902 0.12888 0.74225
 C950 C 0.72622 0.15157 0.74537
 C951 C 0.73343 0.17840 0.74946
 C952 C 0.73905 0.20144 0.75309
 H953 H 0.67864 0.11348 0.70863
 H954 H 0.73516 0.08560 0.77070
 H955 H 0.71192 0.04279 0.77249
 H956 H 0.65505 0.07126 0.71041
 C957 C 0.77464 0.07079 0.25783
 C958 C 0.78354 0.09123 0.27629
 C959 C 0.80372 0.08655 0.29615
 C960 C 0.81649 0.06219 0.29602
 C961 C 0.80899 0.04184 0.27621
 C962 C 0.78726 0.04626 0.25777
 C963 C 0.77561 0.11800 0.27144
 C964 C 0.77081 0.14079 0.26651
 C965 C 0.76650 0.16758 0.26015
 C966 C 0.76306 0.19049 0.25459
 H967 H 0.75929 0.07439 0.24201
 H968 H 0.81105 0.10244 0.31017
 H969 H 0.83372 0.06046 0.30968
 H970 H 0.78151 0.03159 0.24149
 C971 C 0.27496 0.57221 0.75448
 C972 C 0.28428 0.59255 0.77285
 C973 C 0.30475 0.58768 0.79228
 C974 C 0.31718 0.56316 0.79200
 C975 C 0.30899 0.54278 0.77258
 C976 C 0.28724 0.54749 0.75430
 C977 C 0.27621 0.61938 0.76860
 C978 C 0.27130 0.64227 0.76436
 C979 C 0.26691 0.66922 0.75890
 C980 C 0.26349 0.69228 0.75405
 H981 H 0.25941 0.57598 0.73894
 H982 H 0.31245 0.60349 0.80617
 H983 H 0.33458 0.56114 0.80536
 H984 H 0.28107 0.53283 0.73820
 C985 C 0.33277 0.39989 0.75068
 C986 C 0.30895 0.39323 0.73688
 C987 C 0.29320 0.41319 0.72537
 C988 C 0.30110 0.43980 0.72808
 C989 C 0.32486 0.44667 0.74234
 C990 C 0.34068 0.42639 0.75342
 C991 C 0.30026 0.36599 0.73601
 C992 C 0.29333 0.34306 0.73634
 C993 C 0.28540 0.31622 0.73773
 C994 C 0.27861 0.29334 0.73955
 H995 H 0.34497 0.38461 0.75990
 H996 H 0.27466 0.40822 0.71473
 H997 H 0.28860 0.45499 0.71923
 H998 H 0.35872 0.43094 0.76518
 C999 C 0.79427 0.91339 0.23803
 C1000 C 0.81286 0.89358 0.24267
 C1001 C 0.83918 0.90052 0.24857
 C1002 C 0.84687 0.92717 0.25051
 C1003 C 0.82823 0.94759 0.24669
 C1004 C 0.80184 0.94012 0.23997
 C1005 C 0.80476 0.86615 0.24288
 C1006 C 0.79810 0.84316 0.24382
 C1007 C 0.79033 0.81630 0.24563
 C1008 C 0.78359 0.79340 0.24759
 H1009 H 0.77382 0.90821 0.23328
 H1010 H 0.85369 0.88530 0.25248
 H1011 H 0.86713 0.93124 0.25676
 H1012 H 0.78687 0.95477 0.23583
 C1013 C 0.66014 0.90949 0.75075
 C1014 C 0.68510 0.90272 0.76120
 C1015 C 0.70136 0.92222 0.77407
 C1016 C 0.69287 0.94855 0.77586
 C1017 C 0.66802 0.95562 0.76476
 C1018 C 0.65165 0.93569 0.75249
 C1019 C 0.69432 0.87602 0.75719
 C1020 C 0.70166 0.85364 0.75292
 C1021 C 0.71003 0.82748 0.74723
 C1022 C 0.71721 0.80518 0.74214
 H1023 H 0.64748 0.89460 0.74056
 H1024 H 0.72076 0.91719 0.78219
 H1025 H 0.70586 0.96341 0.78554
 H1026 H 0.63270 0.94037 0.74307
 C1027 C 0.20006 0.42046 0.27258
 C1028 C 0.18349 0.40128 0.25963
 C1029 C 0.15840 0.40836 0.24985
 C1030 C 0.15010 0.43459 0.25225
 C1031 C 0.16682 0.45424 0.26451
 C1032 C 0.19178 0.44681 0.27504
 C1033 C 0.19252 0.37461 0.25486
 C1034 C 0.19972 0.35227 0.24999
 C1035 C 0.20794 0.32617 0.24372
 C1036 C 0.21503 0.30391 0.23830
 H1037 H 0.21956 0.41517 0.28021
 H1038 H 0.14548 0.39371 0.23963
 H1039 H 0.13104 0.43953 0.24329
 H1040 H 0.20503 0.46144 0.28472
 C1041 C 0.10552 0.23510 0.82966
 C1042 C 0.10457 0.22807 0.80004
 C1043 C 0.07995 0.22411 0.78674
 C1044 C 0.05638 0.22760 0.80286
 C1045 C 0.05705 0.23565 0.83257
 C1046 C 0.08208 0.23862 0.84580
 C1047 C 0.12908 0.22538 0.78364
 C1048 C 0.15045 0.22405 0.77148
 C1049 C 0.17651 0.22384 0.75959
 C1050 C 0.19955 0.22510 0.75213
 H1051 H 0.12446 0.23795 0.84035
 H1052 H 0.07894 0.21827 0.76392
 H1053 H 0.03787 0.22354 0.79191
 H1054 H 0.08351 0.24375 0.86877
 C1055 C 0.60891 0.73381 0.33435
 C1056 C 0.60870 0.72833 0.30433
 C1057 C 0.58443 0.72620 0.28986
 C1058 C 0.56050 0.72981 0.30526
 C1059 C 0.56047 0.73601 0.33547
 C1060 C 0.58510 0.73745 0.34977
 C1061 C 0.63358 0.72550 0.28870
 C1062 C 0.65522 0.72404 0.27719
 C1063 C 0.68152 0.72367 0.26601
 C1064 C 0.70469 0.72485 0.25908
 H1065 H 0.62755 0.73538 0.34589
 H1066 H 0.58399 0.72172 0.26666
 H1067 H 0.54232 0.72731 0.29326
 H1068 H 0.58590 0.74147 0.37304
 C1069 C 0.59561 0.27162 0.16063
 C1070 C 0.59606 0.26852 0.19089
 C1071 C 0.57227 0.26398 0.20623
 C1072 C 0.54811 0.26236 0.19130
 C1073 C 0.54747 0.26512 0.16065
 C1074 C 0.57165 0.26996 0.14570
 C1075 C 0.62129 0.26857 0.20548
 C1076 C 0.64316 0.26784 0.21591
 C1077 C 0.66949 0.26579 0.22593
 C1078 C 0.69238 0.26275 0.23245
 H1079 H 0.61389 0.27498 0.14844
 H1080 H 0.57241 0.26140 0.22969
 H1081 H 0.53036 0.25874 0.20406
 H1082 H 0.57196 0.27221 0.12220
 C1083 C 0.09717 0.77032 0.66078
 C1084 C 0.09733 0.77090 0.69128
 C1085 C 0.07327 0.76980 0.70687
 C1086 C 0.04912 0.76793 0.69195
 C1087 C 0.04877 0.76692 0.66110
 C1088 C 0.07323 0.76839 0.64588
 C1089 C 0.12247 0.77131 0.70600
 C1090 C 0.14434 0.77072 0.71643
 C1091 C 0.17067 0.76866 0.72636
 C1092 C 0.19355 0.76549 0.73280
 H1093 H 0.11565 0.77105 0.64843
 H1094 H 0.07318 0.77016 0.73053
 H1095 H 0.03111 0.76721 0.70487
 H1096 H 0.07376 0.76784 0.62221
 C1097 C 0.90179 0.74077 0.64734
 C1098 C 0.89524 0.75042 0.67529
 C1099 C 0.91446 0.76416 0.69153
 C1100 C 0.94014 0.76783 0.68016
 C1101 C 0.94720 0.75767 0.65230
 C1102 C 0.92749 0.74444 0.63591
 C1103 C 0.86868 0.74686 0.68704
 C1104 C 0.84632 0.74447 0.69665
 C1105 C 0.81980 0.74267 0.70723
 C1106 C 0.79683 0.74238 0.71515
 H1107 H 0.88704 0.73032 0.63438
 H1108 H 0.90959 0.77211 0.71300
 H1109 H 0.95434 0.77886 0.69321
 H1110 H 0.93186 0.73646 0.61446
 C1111 C 0.40018 0.23830 0.14446
 C1112 C 0.39362 0.24626 0.17302
 C1113 C 0.41316 0.25785 0.19068
 C1114 C 0.43910 0.26127 0.17999
 C1115 C 0.44611 0.25301 0.15137
 C1116 C 0.42615 0.24172 0.13370
 C1117 C 0.36670 0.24341 0.18390
 C1118 C 0.34407 0.24166 0.19282
 C1119 C 0.31733 0.24058 0.20274
 C1120 C 0.29428 0.24078 0.21036
 H1121 H 0.38520 0.22952 0.13042
 H1122 H 0.40829 0.26448 0.21268
 H1123 H 0.45346 0.27086 0.19412
 H1124 H 0.43041 0.23526 0.11163
 C1125 C 0.41791 0.77306 0.34368
 C1126 C 0.41068 0.76100 0.31711
 C1127 C 0.42796 0.74304 0.30351
 C1128 C 0.45242 0.73743 0.31606
 C1129 C 0.46008 0.74972 0.34251
 C1130 C 0.44244 0.76745 0.35631
 C1131 C 0.38517 0.76605 0.30422
 C1132 C 0.36357 0.76904 0.29355
 C1133 C 0.33771 0.77070 0.28187
 C1134 C 0.31504 0.77003 0.27347
 H1135 H 0.40463 0.78685 0.35456
 H1136 H 0.42251 0.73329 0.28319
 H1137 H 0.46533 0.72338 0.30507
 H1138 H 0.44785 0.77749 0.37646
 C1139 C 0.91369 0.26852 0.84752
 C1140 C 0.90858 0.26226 0.81821
 C1141 C 0.92806 0.24960 0.80139
 C1142 C 0.95257 0.24353 0.81352
 C1143 C 0.95841 0.25004 0.84295
 C1144 C 0.93827 0.26246 0.85983
 C1145 C 0.88301 0.26762 0.80556
 C1146 C 0.86142 0.27092 0.79494
 C1147 C 0.83560 0.27296 0.78320
 C1148 C 0.81296 0.27256 0.77466
 H1149 H 0.89870 0.27821 0.86089
 H1150 H 0.92423 0.24413 0.77885
 H1151 H 0.96657 0.23300 0.79970
 H1152 H 0.94147 0.26860 0.88221
 C1153 C 0.57088 0.96467 0.69327
 C1154 C 0.58180 0.95966 0.66548
 C1155 C 0.60823 0.96669 0.65955
 C1156 C 0.62339 0.97962 0.68082
 C1157 C 0.61225 0.98579 0.70834
 C1158 C 0.58615 0.97746 0.71473
 C1159 C 0.56503 0.95198 0.64157
 C1160 C 0.55138 0.94889 0.62035
 C1161 C 0.53604 0.94984 0.59488
 C1162 C 0.52367 0.95511 0.57344
 H1163 H 0.55028 0.95974 0.69793
 H1164 H 0.61680 0.96322 0.63804
 H1165 H 0.64372 0.98512 0.67558
 H1166 H 0.57720 0.98185 0.73581
 C1167 C 0.10803 0.46478 1.16031
 C1168 C 0.08146 0.45806 1.16592
 C1169 C 0.07019 0.46361 1.19343
 C1170 C 0.08527 0.47663 1.21490
 C1171 C 0.11151 0.48465 1.20878
 C1172 C 0.12298 0.47793 1.18158
 C1173 C 0.06496 0.45023 1.14183
 C1174 C 0.05158 0.44706 1.12042
 C1175 C 0.03656 0.44802 1.09473
 C1176 C 0.02442 0.45339 1.07315
 H1177 H 0.11686 0.46090 1.13901
 H1178 H 0.04949 0.45894 1.19783
 H1179 H 0.07609 0.48142 1.23577
 H1180 H 0.14343 0.48319 1.17659
 C1181 C -0.11480 0.03266 1.15860
 C1182 C -0.08868 0.02374 1.15709
 C1183 C -0.07815 0.00975 1.18049
 C1184 C -0.09370 0.00493 1.20548
 C1185 C -0.11989 0.01413 1.20727
 C1186 C -0.13031 0.02787 1.18344
 C1187 C -0.07339 0.02748 1.13072
 C1188 C -0.06095 0.02932 1.10820
 C1189 C -0.04642 0.02896 1.08173
 C1190 C -0.03375 0.02553 1.05959
 H1191 H -0.12330 0.04306 1.14044
 H1192 H -0.05801 0.00248 1.17936
 H1193 H -0.08512 -0.00559 1.22346
 H1194 H -0.15063 0.03466 1.18379
 C1195 C 0.40861 0.54254 0.67656
 C1196 C 0.41277 0.52161 0.65680
 C1197 C 0.40268 0.49627 0.66303
 C1198 C 0.38782 0.49201 0.68854
 C1199 C 0.38283 0.51311 0.70805
 C1200 C 0.39375 0.53833 0.70206
 C1201 C 0.42717 0.52592 0.62997
 C1202 C 0.43928 0.52807 0.60729
 C1203 C 0.45382 0.52799 0.58084
 C1204 C 0.46671 0.52484 0.55881
 H1205 H 0.41653 0.56215 0.67208
 H1206 H 0.40590 0.47990 0.64788
 H1207 H 0.37940 0.47249 0.69238
 H1208 H 0.39053 0.55488 0.71693
 C1209 C 0.38978 0.46690 -0.14610
 C1210 C 0.41677 0.46435 -0.15295
 C1211 C 0.42578 0.46842 -0.18163
 C1212 C 0.40800 0.47626 -0.20307
 C1213 C 0.38122 0.48051 -0.19578
 C1214 C 0.37209 0.47490 -0.16738
 C1215 C 0.43535 0.46237 -0.12956
 C1216 C 0.45015 0.46358 -0.10913
 C1217 C 0.46645 0.46843 -0.08484
 C1218 C 0.47947 0.47551 -0.06425
 H1219 H 0.38264 0.46406 -0.12393
 H1220 H 0.44671 0.46690 -0.18704
 H1221 H 0.41546 0.48051 -0.22481
 H1222 H 0.35140 0.47751 -0.16140
 C1223 C -0.07069 0.97176 0.31942
 C1224 C -0.07989 0.96624 0.34774
 C1225 C -0.10709 0.96699 0.35408
 C1226 C -0.12488 0.97473 0.33279
 C1227 C -0.11565 0.98187 0.30486
 C1228 C -0.08858 0.97931 0.29792
 C1229 C -0.06162 0.96451 0.37151
 C1230 C -0.04731 0.96578 0.39238
 C1231 C -0.03169 0.97052 0.41726
 C1232 C -0.01919 0.97743 0.43833
 H1233 H -0.04962 0.97160 0.31439
 H1234 H -0.11441 0.96300 0.37596
 H1235 H -0.14577 0.97607 0.33845
 H1236 H -0.08109 0.98472 0.27653
 C1237 C 0.09916 0.54056 0.35349
 C1238 C 0.07330 0.53030 0.35243
 C1239 C 0.06535 0.51480 0.32837
 C1240 C 0.08317 0.50985 0.30528
 C1241 C 0.10909 0.52041 0.30604
 C1242 C 0.11693 0.53565 0.33053
 C1243 C 0.05570 0.53421 0.37702
 C1244 C 0.04169 0.53630 0.39841
 C1245 C 0.02608 0.53637 0.42414
 C1246 C 0.01345 0.53343 0.44636
 H1247 H 0.10568 0.55215 0.37223
 H1248 H 0.04544 0.50646 0.32752
 H1249 H 0.07651 0.49822 0.28669
 H1250 H 0.13693 0.54360 0.33211
 C1251 C 0.56560 0.01485 -0.17234
 C1252 C 0.57325 0.03044 -0.14824
 C1253 C 0.59897 0.04103 -0.14702
 C1254 C 0.61691 0.03636 -0.16988
 C1255 C 0.60937 0.02103 -0.19443
 C1256 C 0.58359 0.01014 -0.19533
 C1257 C 0.55548 0.03416 -0.12376
 C1258 C 0.54135 0.03614 -0.10247
 C1259 C 0.52563 0.03618 -0.07682
 C1260 C 0.51296 0.03333 -0.05462
 H1261 H 0.54580 0.00627 -0.17331
 H1262 H 0.60526 0.05269 -0.12824
 H1263 H 0.63681 0.04456 -0.16818
 H1264 H 0.57716 -0.00156 -0.21396
 C1265 C 0.67721 0.56230 0.00272
 C1266 C 0.66833 0.54991 -0.02294
 C1267 C 0.68450 0.54993 -0.04798
 C1268 C 0.70896 0.56335 -0.04771
 C1269 C 0.71743 0.57705 -0.02241
 C1270 C 0.70162 0.57573 0.00300
 C1271 C 0.64170 0.53937 -0.02411
 C1272 C 0.61896 0.53174 -0.02456
 C1273 C 0.59201 0.52388 -0.02419
 C1274 C 0.56884 0.51782 -0.02278
 H1275 H 0.66477 0.56253 0.02219
 H1276 H 0.67782 0.54040 -0.06797
 H1277 H 0.72086 0.56372 -0.06755
 H1278 H 0.70725 0.58633 0.02258
 C1279 C 0.18888 1.04743 0.48909
 C1280 C 0.16699 1.05702 0.47399
 C1281 C 0.16969 1.07984 0.45722
 C1282 C 0.19401 1.09318 0.45558
 C1283 C 0.21622 1.08382 0.47060
 C1284 C 0.21341 1.06081 0.48743
 C1285 C 0.14126 1.04451 0.47631
 C1286 C 0.11902 1.03553 0.47779
 C1287 C 0.09246 1.02651 0.47945
 C1288 C 0.06948 1.01980 0.48128
 H1289 H 0.18693 1.02983 0.50229
 H1290 H 0.15281 1.08762 0.44575
 H1291 H 0.19512 1.11127 0.44315
 H1292 H 0.23013 1.05312 0.49919
 C1293 C 0.14642 -0.08434 1.03767
 C1294 C 0.14918 -0.05671 1.03757
 C1295 C 0.17447 -0.04504 1.03489
 C1296 C 0.19675 -0.06105 1.03047
 C1297 C 0.19365 -0.08870 1.02824
 C1298 C 0.16851 -0.10026 1.03295
 C1299 C 0.12562 -0.04106 1.03581
 C1300 C 0.10494 -0.02980 1.03248
 C1301 C 0.07992 -0.01879 1.02709
 C1302 C 0.05796 -0.01115 1.02186
 H1303 H 0.12694 -0.09357 1.03955
 H1304 H 0.17677 -0.02366 1.03452
 H1305 H 0.21596 -0.05182 1.02650
 H1306 H 0.16578 -0.12157 1.03124
 C1307 C 0.64706 0.41615 0.53626
 C1308 C 0.65025 0.44374 0.53669
 C1309 C 0.67569 0.45507 0.53413
 C1310 C 0.69771 0.43879 0.52936
 C1311 C 0.69420 0.41121 0.52666
 C1312 C 0.66890 0.39996 0.53119
 C1313 C 0.62692 0.45976 0.53533
 C1314 C 0.60637 0.47128 0.53226
 C1315 C 0.58141 0.48246 0.52704
 C1316 C 0.55946 0.49013 0.52180
 H1317 H 0.62745 0.40719 0.53805
 H1318 H 0.67831 0.47643 0.53415
 H1319 H 0.71706 0.44780 0.52556
 H1320 H 0.66585 0.37872 0.52918
 C1321 C -0.18714 0.45409 0.47446
 C1322 C -0.17057 0.45464 0.49877
 C1323 C -0.17785 0.44072 0.52391
 C1324 C -0.20102 0.42528 0.52429
 C1325 C -0.21710 0.42350 0.49947
 C1326 C -0.21035 0.43866 0.47482
 C1327 C -0.14489 0.46717 0.49707
 C1328 C -0.12279 0.47641 0.49595
 C1329 C -0.09648 0.48605 0.49534
 C1330 C -0.07377 0.49363 0.49573
 H1331 H -0.18164 0.46477 0.45488
 H1332 H -0.16502 0.44088 0.54276
 H1333 H -0.20539 0.41354 0.54334
 H1334 H -0.22256 0.43788 0.45550
 C1335 C 0.31194 -0.04462 -0.02386
 C1336 C 0.32882 -0.04441 0.00019
 C1337 C 0.32181 -0.05861 0.02522
 C1338 C 0.29862 -0.07404 0.02570
 C1339 C 0.28227 -0.07552 0.00108
 C1340 C 0.28873 -0.06003 -0.02340
 C1341 C 0.35453 -0.03195 -0.00178
 C1342 C 0.37665 -0.02277 -0.00322
 C1343 C 0.40298 -0.01318 -0.00428
 C1344 C 0.42571 -0.00563 -0.00426
 H1345 H 0.31723 -0.03370 -0.04336
 H1346 H 0.33487 -0.05871 0.04387
 H1347 H 0.29445 -0.08602 0.04462
 H1348 H 0.27630 -0.06058 -0.04256
 C1349 C 0.32392 1.04309 0.52011
 C1350 C 0.34919 1.05449 0.52405
 C1351 C 0.35355 1.08125 0.51776
 C1352 C 0.33323 1.09628 0.50629
 C1353 C 0.30819 1.08475 0.50097
 C1354 C 0.30335 1.05830 0.50884
 C1355 C 0.37175 1.03862 0.53093
 C1356 C 0.39208 1.02681 0.53448
 C1357 C 0.41705 1.01462 0.53600
 C1358 C 0.43899 1.00540 0.53505
 H1359 H 0.32043 1.02231 0.52467
 H1360 H 0.37302 1.09024 0.52059
 H1361 H 0.33726 1.11678 0.50083
 H1362 H 0.28416 1.04910 0.50488
 C1363 C -0.17456 0.54401 1.02451
 C1364 C -0.14901 0.55526 1.02584
 C1365 C -0.14486 0.58163 1.01778
 C1366 C -0.16583 0.59644 1.00734
 C1367 C -0.19131 0.58506 1.00480
 C1368 C -0.19573 0.55896 1.01423
 C1369 C -0.12628 0.53947 1.03225
 C1370 C -0.10600 0.52748 1.03546
 C1371 C -0.08124 0.51486 1.03666
 C1372 C -0.05950 0.50521 1.03548
 H1373 H -0.17792 0.52351 1.03046
 H1374 H -0.12517 0.59050 1.01861
 H1375 H -0.16202 0.61668 1.00070
 H1376 H -0.21521 0.54979 1.01238
 C1377 C -0.02443 0.68135 0.55793
 C1378 C -0.00106 0.67046 0.54625
 C1379 C 0.02330 0.68317 0.55138
 C1380 C 0.02445 0.70594 0.56907
 C1381 C 0.00124 0.71628 0.58214
 C1382 C -0.02330 0.70422 0.57561
 C1383 C -0.00167 0.64485 0.53185
 C1384 C -0.00216 0.62268 0.52159
 C1385 C -0.00321 0.59595 0.51192
 C1386 C -0.00505 0.57261 0.50605
 H1387 H -0.04341 0.67160 0.55428
 H1388 H 0.04153 0.67497 0.54253
 H1389 H 0.04364 0.71509 0.57308
 H1390 H -0.04146 0.71157 0.58527
 C1391 C 0.52317 0.18513 0.04702
 C1392 C 0.49899 0.17181 0.04269
 C1393 C 0.47566 0.18222 0.05497
 C1394 C 0.47668 0.20510 0.07262
 C1395 C 0.50109 0.21773 0.07848
 C1396 C 0.52421 0.20796 0.06467
 C1397 C 0.49855 0.14600 0.02867
 C1398 C 0.49803 0.12367 0.01884
 C1399 C 0.49680 0.09677 0.00972
 C1400 C 0.49478 0.07334 0.00433
 H1401 H 0.54138 0.17731 0.03771
 H1402 H 0.45683 0.17200 0.05197
 H1403 H 0.45861 0.21191 0.08292
 H1404 H 0.54329 0.21751 0.06824
 C1405 C -0.03172 0.16832 0.93577
 C1406 C -0.01088 0.15575 0.95006
 C1407 C 0.01505 0.16563 0.94680
 C1408 C 0.02036 0.18707 0.92853
 C1409 C -0.00019 0.19911 0.91311
 C1410 C -0.02643 0.19005 0.91755
 C1411 C -0.01508 0.13125 0.96571
 C1412 C -0.01656 0.10995 0.97757
 C1413 C -0.01608 0.08418 0.98967
 C1414 C -0.01377 0.06161 0.99789
 H1415 H -0.05187 0.16080 0.93791
 H1416 H 0.03139 0.15614 0.95760
 H1417 H 0.04072 0.19385 0.92589
 H1418 H -0.04259 0.19887 0.90583
 C1419 C 0.46996 0.66950 0.43747
 C1420 C 0.49051 0.65683 0.45212
 C1421 C 0.51654 0.66653 0.44930
 C1422 C 0.52225 0.68789 0.43107
 C1423 C 0.50200 0.70000 0.41527
 C1424 C 0.47565 0.69115 0.41929
 C1425 C 0.48597 0.63229 0.46754
 C1426 C 0.48428 0.61090 0.47914
 C1427 C 0.48466 0.58500 0.49082
 C1428 C 0.48703 0.56233 0.49859
 H1429 H 0.44974 0.66209 0.43926
 H1430 H 0.53266 0.65694 0.46038
 H1431 H 0.54269 0.69453 0.42873
 H1432 H 0.45971 0.70004 0.40726
 C1433 C 0.49719 0.81098 0.45742
 C1434 C 0.50793 0.83561 0.44927
 C1435 C 0.51995 0.83827 0.42174
 C1436 C 0.52157 0.81652 0.40263
 C1437 C 0.51122 0.79157 0.41069
 C1438 C 0.49879 0.78908 0.43823
 C1439 C 0.50639 0.85856 0.46845
 C1440 C 0.50540 0.87878 0.48289
 C1441 C 0.50422 0.90361 0.49769
 C1442 C 0.50279 0.92572 0.50806
 H1443 H 0.48771 0.80866 0.47861
 H1444 H 0.52807 0.85724 0.41499
 H1445 H 0.53077 0.81934 0.38140
 H1446 H 0.49084 0.77013 0.44520
 C1447 C -0.00459 0.30992 0.95640
 C1448 C 0.00608 0.33460 0.94825
 C1449 C 0.01767 0.33739 0.92053
 C1450 C 0.01899 0.31575 0.90124
 C1451 C 0.00876 0.29076 0.90930
 C1452 C -0.00331 0.28813 0.93701
 C1453 C 0.00498 0.35744 0.96764
 C1454 C 0.00443 0.37761 0.98223
 C1455 C 0.00378 0.40241 0.99716
 C1456 C 0.00281 0.42451 1.00765
 H1457 H -0.01375 0.30749 0.97773
 H1458 H 0.02574 0.35639 0.91378
 H1459 H 0.02789 0.31869 0.87988
 H1460 H -0.01117 0.26914 0.94398
 C1461 C 0.48808 0.35744 0.08224
 C1462 C 0.48414 0.35395 0.05224
 C1463 C 0.48170 0.32821 0.04047
 C1464 C 0.48421 0.30611 0.05858
 C1465 C 0.48955 0.30965 0.08847
 C1466 C 0.49078 0.33552 0.10020
 C1467 C 0.48489 0.37704 0.03391
 C1468 C 0.48692 0.39754 0.02065
 C1469 C 0.49074 0.42263 0.00766
 C1470 C 0.49504 0.44479 -0.00105
 H1471 H 0.48998 0.37719 0.09165
 H1472 H 0.47875 0.32523 0.01725
 H1473 H 0.48335 0.28637 0.04903
 H1474 H 0.49456 0.33880 0.12322
 C1475 C 0.01408 0.83911 0.54859
 C1476 C -0.01071 0.85102 0.54599
 C1477 C -0.03291 0.83999 0.56038
 C1478 C -0.03001 0.81776 0.57822
 C1479 C -0.00481 0.80677 0.58214
 C1480 C 0.01702 0.81720 0.56650
 C1481 C -0.01213 0.87609 0.53125
 C1482 C -0.01127 0.89773 0.52022
 C1483 C -0.00824 0.92366 0.50910
 C1484 C -0.00427 0.94619 0.50142
 H1485 H 0.03142 0.84744 0.53770
 H1486 H -0.05218 0.84915 0.55872
 H1487 H -0.04707 0.81011 0.59016
 H1488 H 0.03660 0.80886 0.56887
 C1489 C 0.21341 0.31999 0.05624
 C1490 C 0.20835 0.33114 0.08390
 C1491 C 0.21564 0.35751 0.08972
 C1492 C 0.22873 0.37242 0.06840
 C1493 C 0.23480 0.36108 0.04096
 C1494 C 0.22638 0.33498 0.03475
 C1495 C 0.20032 0.31461 0.10782
 C1496 C 0.19694 0.30106 0.12900
 C1497 C 0.19768 0.28573 0.15444
 C1498 C 0.20290 0.27336 0.17587
 H1499 H 0.20834 0.29942 0.05169
 H1500 H 0.21217 0.36624 0.11117
 H1501 H 0.23434 0.39273 0.07351
 H1502 H 0.23078 0.32586 0.01373
 C1503 C 0.71642 0.85956 0.59296
 C1504 C 0.71001 0.83298 0.58717
 C1505 C 0.71534 0.82199 0.55948
 C1506 C 0.72787 0.83736 0.53799
 C1507 C 0.73561 0.86365 0.54425
 C1508 C 0.72908 0.87482 0.57165
 C1509 C 0.70262 0.81622 0.61115
 C1510 C 0.69973 0.80262 0.63238
 C1511 C 0.70081 0.78735 0.65785
 C1512 C 0.70608 0.77502 0.67930
 H1513 H 0.71269 0.86819 0.61440
 H1514 H 0.71088 0.80129 0.55492
 H1515 H 0.73254 0.82838 0.51700
 H1516 H 0.73413 0.89528 0.57679
 C1517 C 0.28467 0.63673 0.59112
 C1518 C 0.27465 0.66241 0.59270
 C1519 C 0.25972 0.67213 0.56959
 C1520 C 0.25498 0.65623 0.54485
 C1521 C 0.26522 0.63047 0.54299
 C1522 C 0.27998 0.62086 0.56651
 C1523 C 0.27823 0.67802 0.61888
 C1524 C 0.27991 0.69077 0.64121
 C1525 C 0.27940 0.70562 0.66747
 C1526 C 0.27595 0.71845 0.68949
 H1527 H 0.29583 0.62883 0.60908
 H1528 H 0.25160 0.69192 0.57078
 H1529 H 0.24365 0.66420 0.52712
 H1530 H 0.28758 0.60086 0.56616
 C1531 C 0.78268 0.13472 0.09028
 C1532 C 0.77321 0.16061 0.09199
 C1533 C 0.75873 0.17085 0.06881
 C1534 C 0.75392 0.15526 0.04384
 C1535 C 0.76364 0.12931 0.04184
 C1536 C 0.77792 0.11917 0.06545
 C1537 C 0.77690 0.17594 0.11834
 C1538 C 0.77867 0.18849 0.14080
 C1539 C 0.77827 0.20318 0.16716
 C1540 C 0.77488 0.21597 0.18921
 H1541 H 0.79349 0.12644 0.10829
 H1542 H 0.75103 0.19081 0.07010
 H1543 H 0.74298 0.16364 0.02605
 H1544 H 0.78512 0.09902 0.06495
 C1545 C 0.71952 0.17863 0.93168
 C1546 C 0.71435 0.17004 0.90304
 C1547 C 0.71576 0.14307 0.89582
 C1548 C 0.72375 0.12494 0.91660
 C1549 C 0.73049 0.13358 0.94490
 C1550 C 0.72733 0.16038 0.95265
 C1551 C 0.71232 0.18885 0.87988
 C1552 C 0.71338 0.20364 0.85946
 C1553 C 0.71796 0.21976 0.83499
 C1554 C 0.72480 0.23251 0.81413
 H1555 H 0.71886 0.19953 0.93739
 H1556 H 0.71205 0.13623 0.87368
 H1557 H 0.72554 0.10426 0.91028
 H1558 H 0.73243 0.16745 0.97430
 C1559 C 0.21603 0.64206 0.39722
 C1560 C 0.21533 0.66922 0.40362
 C1561 C 0.22107 0.67841 0.43191
 C1562 C 0.22884 0.66055 0.45329
 C1563 C 0.23139 0.63353 0.44627
 C1564 C 0.22399 0.62430 0.41840
 C1565 C 0.21364 0.68747 0.37991
 C1566 C 0.21501 0.70179 0.35911
 C1567 C 0.21993 0.71741 0.33432
 C1568 C 0.22696 0.72987 0.31332
 H1569 H 0.21189 0.63475 0.37535
 H1570 H 0.22096 0.69945 0.43697
 H1571 H 0.23447 0.66804 0.47462
 H1572 H 0.22534 0.60344 0.41268
 C1573 C 0.79291 0.84976 0.40081
 C1574 C 0.78293 0.82385 0.40230
 C1575 C 0.76708 0.81626 0.42620
 C1576 C 0.76155 0.83449 0.44875
 C1577 C 0.77186 0.86046 0.44760
 C1578 C 0.78742 0.86793 0.42323
 C1579 C 0.78744 0.80581 0.37821
 C1580 C 0.78998 0.79147 0.35715
 C1581 C 0.79049 0.77552 0.33165
 C1582 C 0.78778 0.76271 0.30950
 H1583 H 0.80475 0.85600 0.38217
 H1584 H 0.75893 0.79632 0.42736
 H1585 H 0.74967 0.82810 0.46724
 H1586 H 0.79519 0.88795 0.42133
 C1587 C 0.29985 0.32590 0.91645
 C1588 C 0.27909 0.31984 0.89741
 C1589 C 0.25386 0.33048 0.90263
 C1590 C 0.24954 0.34765 0.92640
 C1591 C 0.27049 0.35448 0.94513
 C1592 C 0.29558 0.34306 0.94019
 C1593 C 0.28363 0.30345 0.87194
 C1594 C 0.28603 0.29014 0.85006
 C1595 C 0.28623 0.27504 0.82394
 C1596 C 0.28323 0.26266 0.80154
 H1597 H 0.31940 0.31769 0.91271
 H1598 H 0.23764 0.32590 0.88798
 H1599 H 0.23012 0.35632 0.92945
 H1600 H 0.31200 0.34757 0.95457
 C1601 C 0.83014 0.42005 0.79189
 C1602 C 0.80683 0.41758 0.77581
 C1603 C 0.79714 0.43951 0.76090
 C1604 C 0.81086 0.46386 0.76215
 C1605 C 0.83430 0.46646 0.77839
 C1606 C 0.84381 0.44420 0.79312
 C1607 C 0.79383 0.39206 0.77409
 C1608 C 0.78445 0.36998 0.77313
 C1609 C 0.77498 0.34356 0.77204
 C1610 C 0.76791 0.32069 0.77061
 H1611 H 0.83800 0.40315 0.80320
 H1612 H 0.77916 0.43774 0.74823
 H1613 H 0.80306 0.48063 0.75061
 H1614 H 0.86221 0.44515 0.80509
 C1615 C 0.29840 0.93664 0.26235
 C1616 C 0.30959 0.91460 0.27565
 C1617 C 0.33394 0.91718 0.28979
 C1618 C 0.34709 0.94164 0.29078
 C1619 C 0.33601 0.96399 0.27768
 C1620 C 0.31158 0.96125 0.26332
 C1621 C 0.29680 0.88900 0.27431
 C1622 C 0.28732 0.86699 0.27338
 C1623 C 0.27756 0.84072 0.27209
 C1624 C 0.27022 0.81796 0.27040
 H1625 H 0.27959 0.93480 0.25122
 H1626 H 0.34290 0.90019 0.29987
 H1627 H 0.36617 0.94289 0.30139
 H1628 H 0.30251 0.97814 0.25321
 C1629 C 0.17011 0.90036 0.70772
 C1630 C 0.19730 0.90272 0.71329
 C1631 C 0.20818 0.92735 0.72164
 C1632 C 0.19153 0.94910 0.72633
 C1633 C 0.16398 0.94608 0.72308
 C1634 C 0.15350 0.92191 0.71270
 C1635 C 0.21256 0.87891 0.71517
 C1636 C 0.22330 0.85796 0.71841
 C1637 C 0.23362 0.83261 0.72353
 C1638 C 0.24072 0.81041 0.72844
 H1639 H 0.16145 0.88136 0.70153
 H1640 H 0.22915 0.92929 0.72634
 H1641 H 0.19981 0.96751 0.73485
 H1642 H 0.13225 0.91922 0.71042
 C1643 C 0.70685 0.42491 0.21523
 C1644 C 0.69476 0.39988 0.21197
 C1645 C 0.66706 0.39763 0.21141
 C1646 C 0.65146 0.41992 0.21627
 C1647 C 0.66341 0.44477 0.22157
 C1648 C 0.69116 0.44740 0.21979
 C1649 C 0.71000 0.37605 0.21358
 C1650 C 0.72092 0.35518 0.21677
 C1651 C 0.73159 0.33000 0.22198
 C1652 C 0.73902 0.30796 0.22709
 H1653 H 0.72828 0.42682 0.21595
 H1654 H 0.65750 0.37836 0.20908
 H1655 H 0.63007 0.41755 0.21765
 H1656 H 0.70069 0.46637 0.22422
 C1657 C 0.70810 0.56179 0.27620
 C1658 C 0.70872 0.57914 0.25262
 C1659 C 0.69471 0.57276 0.22721
 C1660 C 0.67903 0.54978 0.22592
 C1661 C 0.67708 0.53298 0.25007
 C1662 C 0.69243 0.53877 0.27491
 C1663 C 0.72132 0.60471 0.25542
 C1664 C 0.73057 0.62674 0.25744
 C1665 C 0.74022 0.65301 0.25900
 C1666 C 0.74780 0.67571 0.25925
 H1667 H 0.71886 0.56656 0.29598
 H1668 H 0.69493 0.58618 0.20891
 H1669 H 0.66720 0.54617 0.20678
 H1670 H 0.69155 0.52599 0.29374
 C1671 C 0.17437 0.08049 0.77181
 C1672 C 0.19744 0.08180 0.75468
 C1673 C 0.20522 0.05979 0.73782
 C1674 C 0.18977 0.03650 0.73807
 C1675 C 0.16648 0.03511 0.75523
 C1676 C 0.15897 0.05740 0.77206
 C1677 C 0.21204 0.10638 0.75369
 C1678 C 0.22277 0.12780 0.75332
 C1679 C 0.23379 0.15356 0.75294
 C1680 C 0.24217 0.17596 0.75218
 H1681 H 0.16801 0.09753 0.78463
 H1682 H 0.22301 0.06070 0.72433
 H1683 H 0.19609 0.01965 0.72499
 H1684 H 0.14077 0.05735 0.78486
 C1685 C 0.29331 0.09052 0.26297
 C1686 C 0.29379 0.09598 0.23309
 C1687 C 0.30857 0.07997 0.21384
 C1688 C 0.32378 0.05928 0.22472
 C1689 C 0.32455 0.05480 0.25494
 C1690 C 0.30859 0.07009 0.27385
 C1691 C 0.28156 0.11987 0.22338
 C1692 C 0.27207 0.14100 0.21786
 C1693 C 0.26172 0.16661 0.21456
 C1694 C 0.25340 0.18888 0.21452
 H1695 H 0.28203 0.10284 0.27808
 H1696 H 0.30925 0.08419 0.19070
 H1697 H 0.33614 0.04790 0.20978
 H1698 H 0.30871 0.06684 0.29719
 C1699 C 0.79296 0.57500 0.73111
 C1700 C 0.80468 0.60005 0.72686
 C1701 C 0.83173 0.60390 0.73216
 C1702 C 0.84677 0.58332 0.74303
 C1703 C 0.83496 0.55852 0.74871
 C1704 C 0.80817 0.55416 0.74177
 C1705 C 0.78895 0.62288 0.72068
 C1706 C 0.77729 0.64336 0.71765
 C1707 C 0.76525 0.66842 0.71660
 C1708 C 0.75610 0.69036 0.71781
 H1709 H 0.77195 0.57188 0.72730
 H1710 H 0.84099 0.62319 0.72909
 H1711 H 0.86752 0.58698 0.74783
 H1712 H 0.79875 0.53516 0.74603
 C1713 C 0.91979 0.76136 0.17321
 C1714 C 0.92128 0.74960 0.20060
 C1715 C 0.94528 0.73853 0.20944
 C1716 C 0.96776 0.73958 0.19098
 C1717 C 0.96641 0.75181 0.16357
 C1718 C 0.94203 0.76240 0.15486
 C1719 C 0.89748 0.74825 0.21841
 C1720 C 0.87622 0.74744 0.23085
 C1721 C 0.85004 0.74624 0.24234
 C1722 C 0.82688 0.74439 0.24919
 H1723 H 0.90127 0.76960 0.16587
 H1724 H 0.94662 0.72911 0.23050
 H1725 H 0.98619 0.73125 0.19831
 H1726 H 0.93995 0.77124 0.13360
 C1727 C 0.44139 0.23944 0.70575
 C1728 C 0.41761 0.25015 0.69572
 C1729 C 0.41706 0.26189 0.66827
 C1730 C 0.44000 0.26324 0.65100
 C1731 C 0.46414 0.25300 0.66091
 C1732 C 0.46456 0.24081 0.68838
 C1733 C 0.39316 0.24852 0.71243
 C1734 C 0.37151 0.24750 0.72403
 C1735 C 0.34505 0.24612 0.73471
 C1736 C 0.32179 0.24420 0.74115
 H1737 H 0.44202 0.23007 0.72688
 H1738 H 0.39875 0.26987 0.66003
 H1739 H 0.43864 0.27204 0.62964
 H1740 H 0.48281 0.23275 0.69661
 C1741 C 0.41507 0.76624 0.80506
 C1742 C 0.40583 0.74022 0.80088
 C1743 C 0.41876 0.71936 0.81470
 C1744 C 0.44031 0.72470 0.83324
 C1745 C 0.44881 0.75098 0.83847
 C1746 C 0.43632 0.77159 0.82363
 C1747 C 0.38164 0.73586 0.78464
 C1748 C 0.36054 0.73436 0.77228
 C1749 C 0.33493 0.73495 0.75972
 C1750 C 0.31245 0.73746 0.75126
 H1751 H 0.40529 0.78258 0.79461
 H1752 H 0.41171 0.69913 0.81185
 H1753 H 0.44952 0.70848 0.84445
 H1754 H 0.44273 0.79199 0.82678
 C1755 C 0.91007 0.26665 0.30925
 C1756 C 0.90533 0.24084 0.29912
 C1757 C 0.92283 0.22068 0.30669
 C1758 C 0.94454 0.22631 0.32499
 C1759 C 0.94874 0.25216 0.33655
 C1760 C 0.93138 0.27228 0.32758
 C1761 C 0.88134 0.23558 0.28277
 C1762 C 0.86018 0.23356 0.27058
 C1763 C 0.83439 0.23375 0.25839
 C1764 C 0.81175 0.23598 0.25028
 H1765 H 0.89690 0.28253 0.30338
 H1766 H 0.91934 0.20052 0.29912
 H1767 H 0.95685 0.20996 0.33125
 H1768 H 0.93425 0.29274 0.33425
 C1769 C 0.08669 0.26679 0.32846
 C1770 C 0.08365 0.25613 0.30033
 C1771 C 0.05865 0.24656 0.29163
 C1772 C 0.03676 0.24809 0.31089
 C1773 C 0.03964 0.25933 0.33899
 C1774 C 0.06496 0.26836 0.34761
 C1775 C 0.10656 0.25497 0.28103
 C1776 C 0.12681 0.25436 0.26657
 C1777 C 0.15170 0.25361 0.25180
 C1778 C 0.17386 0.25250 0.24143
 H1779 H 0.10593 0.27400 0.33563
 H1780 H 0.05602 0.23812 0.26997
 H1781 H 0.01752 0.24113 0.30353
 H1782 H 0.06807 0.27659 0.36928
 C1783 C 0.57297 0.73516 0.81125
 C1784 C 0.58330 0.75811 0.79816
 C1785 C 0.57121 0.78251 0.80382
 C1786 C 0.54940 0.78410 0.82295
 C1787 C 0.53934 0.76128 0.83688
 C1788 C 0.55108 0.73671 0.83038
 C1789 C 0.60743 0.75702 0.78079
 C1790 C 0.62830 0.75629 0.76750
 C1791 C 0.65361 0.75527 0.75370
 C1792 C 0.67597 0.75394 0.74396
 H1793 H 0.58225 0.71616 0.80726
 H1794 H 0.57898 0.80044 0.79392
 H1795 H 0.54056 0.80328 0.82703
 H1796 H 0.54406 0.71886 0.84090
 C1797 C 0.60571 0.23483 0.66842
 C1798 C 0.60200 0.23491 0.69875
 C1799 C 0.57617 0.23626 0.71052
 C1800 C 0.55432 0.23872 0.69193
 C1801 C 0.55829 0.24025 0.66157
 C1802 C 0.58407 0.23754 0.64999
 C1803 C 0.62518 0.23633 0.71704
 C1804 C 0.64582 0.23880 0.73006
 C1805 C 0.67112 0.24295 0.74263
 C1806 C 0.69344 0.24738 0.75095
 H1807 H 0.62552 0.23386 0.65901
 H1808 H 0.57303 0.23649 0.73396
 H1809 H 0.53462 0.24102 0.70129
 H1810 H 0.58757 0.23857 0.62663
 C1811 C 0.10760 0.73413 0.16814
 C1812 C 0.10393 0.73324 0.19845
 C1813 C 0.07812 0.73386 0.21031
 C1814 C 0.05620 0.73652 0.19188
 C1815 C 0.06008 0.73898 0.16159
 C1816 C 0.08588 0.73703 0.14987
 C1817 C 0.12711 0.73439 0.21671
 C1818 C 0.14776 0.73670 0.22973
 C1819 C 0.17308 0.74071 0.24226
 C1820 C 0.19542 0.74505 0.25050
 H1821 H 0.12741 0.73372 0.15867
 H1822 H 0.07502 0.73334 0.23375
 H1823 H 0.03649 0.73822 0.20136
 H1824 H 0.08932 0.73873 0.12656
   
