data_POSCAR
  _audit_creation_date              2014-09-24
  _audit_creation_method            'ToBaCCo'
  _symmetry_space_group_name_H-M    'P1'
  _symmetry_Int_Tables_number       1
  _symmetry_cell_setting            triclinic
  loop_
  _symmetry_equiv_pos_as_xyz
 x,y,z
_cell_length_a 55.6106
_cell_length_b 55.7564
_cell_length_c 55.4879
_cell_angle_alpha 90.413700
_cell_angle_beta 90.236700
_cell_angle_gamma 91.008400
loop_
  _atom_site_label
  _atom_site_type_symbol
  _atom_site_fract_x
  _atom_site_fract_y
  _atom_site_fract_z
C1 C 0.11640 0.00054 0.22793
 C2 C 0.13635 0.01952 0.22934
 C3 C 0.14944 0.01918 0.24997
 C4 C 0.14163 -0.00066 0.26760
 C5 C 0.12885 -0.02319 0.23197
 C6 C 0.14207 -0.02403 0.25259
 C7 C 0.10140 0.00427 0.25077
 C8 C 0.11454 0.00340 0.27163
 H9 H 0.13851 0.03350 0.21599
 H10 H 0.15258 -0.00120 0.28436
 H11 H 0.12658 -0.03842 0.21987
 H12 H 0.08204 0.00592 0.25052
 C13 C 0.38662 -0.00251 0.72980
 C14 C 0.36593 -0.02070 0.73155
 C15 C 0.35232 -0.01835 0.75163
 C16 C 0.36056 0.00258 0.76829
 C17 C 0.37481 0.02184 0.73175
 C18 C 0.36122 0.02486 0.75180
 C19 C 0.40022 -0.00486 0.75208
 C20 C 0.38595 -0.00188 0.77342
 H21 H 0.36368 -0.03563 0.71906
 H22 H 0.34904 0.00477 0.78444
 H23 H 0.37785 0.03590 0.71865
 H24 H 0.41944 -0.00759 0.75258
 C25 C 0.88309 0.49720 0.22567
 C26 C 0.86225 0.47937 0.22806
 C27 C 0.84918 0.48193 0.24844
 C28 C 0.85797 0.50281 0.26483
 C29 C 0.87186 0.52175 0.22798
 C30 C 0.85881 0.52504 0.24833
 C31 C 0.89789 0.49455 0.24890
 C32 C 0.88479 0.49763 0.26949
 H33 H 0.85963 0.46430 0.21579
 H34 H 0.84707 0.50521 0.28137
 H35 H 0.87487 0.53575 0.21482
 H36 H 0.91706 0.49151 0.24902
 C37 C 0.61728 0.49907 0.72990
 C38 C 0.63731 0.51795 0.73138
 C39 C 0.65030 0.51764 0.75207
 C40 C 0.64234 0.49783 0.76970
 C41 C 0.62962 0.47528 0.73402
 C42 C 0.64276 0.47440 0.75471
 C43 C 0.60222 0.50289 0.75268
 C44 C 0.61523 0.50202 0.77361
 H45 H 0.63956 0.53190 0.71801
 H46 H 0.65320 0.49728 0.78652
 H47 H 0.62736 0.46005 0.72191
 H48 H 0.58287 0.50473 0.75233
 C49 C 0.22884 0.11480 1.00187
 C50 C 0.22991 0.13495 1.02050
 C51 C 0.25050 0.14829 1.02016
 C52 C 0.26844 0.14052 1.00067
 C53 C 0.23328 0.12700 0.97780
 C54 C 0.25385 0.14051 0.97698
 C55 C 0.25158 0.10024 1.00629
 C56 C 0.27240 0.11361 1.00542
 H57 H 0.21632 0.13712 1.03427
 H58 H 0.28517 0.15166 1.00013
 H59 H 0.22136 0.12457 0.96243
 H60 H 0.25130 0.08095 1.00840
 C61 C 0.72260 0.38493 0.99592
 C62 C 0.72229 0.36490 0.97918
 C63 C 0.74308 0.35028 0.98026
 C64 C 0.76026 0.35809 0.99913
 C65 C 0.72564 0.37442 1.01941
 C66 C 0.74615 0.35942 1.02161
 C67 C 0.74514 0.39799 0.99146
 C68 C 0.76614 0.38331 0.99361
 H69 H 0.70889 0.36301 0.96498
 H70 H 0.77612 0.34632 1.00055
 H71 H 0.71358 0.37812 1.03426
 H72 H 0.74622 0.41717 0.98857
 C73 C 0.22811 0.88771 0.49573
 C74 C 0.23055 0.86713 0.47779
 C75 C 0.25085 0.85431 0.48041
 C76 C 0.26713 0.86306 0.50136
 C77 C 0.23035 0.87626 0.52041
 C78 C 0.25064 0.86346 0.52370
 C79 C 0.25135 0.90280 0.49308
 C80 C 0.27187 0.88991 0.49617
 H81 H 0.21821 0.86432 0.46281
 H82 H 0.28360 0.85233 0.50376
 H83 H 0.21721 0.87897 0.53450
 H84 H 0.25152 0.92196 0.49005
 C85 C 0.73132 0.61610 0.49883
 C86 C 0.73292 0.63571 0.51799
 C87 C 0.75375 0.64865 0.51788
 C88 C 0.77142 0.64105 0.49807
 C89 C 0.73586 0.62886 0.47506
 C90 C 0.75670 0.64198 0.47449
 C91 C 0.75377 0.60096 0.50268
 C92 C 0.77485 0.61391 0.50204
 H93 H 0.71940 0.63786 0.53184
 H94 H 0.78838 0.65186 0.49773
 H95 H 0.72388 0.62702 0.45968
 H96 H 0.75310 0.58162 0.50426
 C97 C 0.00137 0.22568 0.11435
 C98 C 0.02029 0.22731 0.13419
 C99 C 0.02015 0.24801 0.14711
 C100 C 0.00049 0.26549 0.13926
 C101 C -0.02247 0.22989 0.12699
 C102 C -0.02316 0.25062 0.14004
 C103 C 0.00544 0.24822 0.09909
 C104 C 0.00471 0.26915 0.11202
 H105 H 0.03401 0.21392 0.13650
 H106 H 0.00011 0.28233 0.15006
 H107 H -0.03790 0.21789 0.12487
 H108 H 0.00705 0.24773 0.07965
 C109 C -0.00395 0.72524 0.38550
 C110 C -0.02068 0.72509 0.36562
 C111 C -0.02045 0.74645 0.35173
 C112 C -0.00227 0.76409 0.35977
 C113 C 0.02053 0.73016 0.37429
 C114 C 0.02175 0.75039 0.36080
 C115 C -0.00906 0.74815 0.40011
 C116 C -0.00781 0.76868 0.38669
 H117 H -0.03427 0.71104 0.36333
 H118 H -0.00131 0.78053 0.34860
 H119 H 0.03589 0.71890 0.37755
 H120 H -0.01126 0.74830 0.41949
 C121 C 0.49328 0.22747 0.88709
 C122 C 0.47541 0.23028 0.86649
 C123 C 0.47890 0.25035 0.85323
 C124 C 0.50048 0.26603 0.86161
 C125 C 0.51792 0.22889 0.87536
 C126 C 0.52201 0.24891 0.86210
 C127 C 0.49169 0.25080 0.90185
 C128 C 0.49556 0.27107 0.88853
 H129 H 0.45996 0.21838 0.86393
 H130 H 0.50353 0.28232 0.85055
 H131 H 0.53135 0.21530 0.87809
 H132 H 0.48853 0.25119 0.92109
 C133 C 0.49984 0.73085 0.61496
 C134 C 0.51842 0.73168 0.63517
 C135 C 0.51862 0.75218 0.64840
 C136 C 0.49959 0.77029 0.64051
 C137 C 0.47591 0.73551 0.62722
 C138 C 0.47556 0.75601 0.64062
 C139 C 0.50482 0.75354 0.60014
 C140 C 0.50446 0.77429 0.61344
 H141 H 0.53193 0.71805 0.63729
 H142 H 0.49944 0.78695 0.65160
 H143 H 0.46024 0.72389 0.62475
 H144 H 0.50693 0.75330 0.58075
 C145 C 0.88492 1.00036 0.77223
 C146 C 0.87308 1.02296 0.76935
 C147 C 0.85869 1.02461 0.74803
 C148 C 0.85904 1.00282 0.73309
 C149 C 0.86500 0.98131 0.77057
 C150 C 0.85152 0.98228 0.75019
 C151 C 0.89955 0.99717 0.74910
 C152 C 0.88613 0.99862 0.72845
 H153 H 0.87533 1.03756 0.78223
 H154 H 0.84791 1.00365 0.71646
 H155 H 0.86309 0.96692 0.78352
 H156 H 0.91885 0.99493 0.74906
 C157 C 0.38592 0.50355 0.27412
 C158 C 0.37329 0.52697 0.26883
 C159 C 0.35967 0.52645 0.24840
 C160 C 0.36003 0.50221 0.23483
 C161 C 0.36601 0.48449 0.27421
 C162 C 0.35260 0.48347 0.25378
 C163 C 0.40051 0.49848 0.25131
 C164 C 0.38709 0.49804 0.23063
 H165 H 0.37556 0.54289 0.28000
 H166 H 0.34883 0.50168 0.21821
 H167 H 0.36412 0.47139 0.28846
 H168 H 0.41990 0.49703 0.25136
 C169 C 0.61392 1.00122 0.27401
 C170 C 0.62464 0.97689 0.26853
 C171 C 0.63827 0.97630 0.24823
 C172 C 0.63976 1.00072 0.23499
 C173 C 0.63410 1.01776 0.27459
 C174 C 0.64805 1.01821 0.25315
 C175 C 0.59959 1.00720 0.25112
 C176 C 0.61303 1.00655 0.23049
 H177 H 0.62128 0.96129 0.27966
 H178 H 0.65096 1.00029 0.21847
 H179 H 0.63656 1.03085 0.28899
 H180 H 0.58031 1.00955 0.25102
 C181 C 0.11328 0.50335 0.77175
 C182 C 0.12460 0.47880 0.76955
 C183 C 0.13788 0.47557 0.74933
 C184 C 0.13879 0.49778 0.73285
 C185 C 0.13413 0.52124 0.76957
 C186 C 0.14740 0.51864 0.74931
 C187 C 0.09873 0.50597 0.74837
 C188 C 0.11203 0.50291 0.72793
 H189 H 0.12157 0.46481 0.78272
 H190 H 0.14985 0.49542 0.71641
 H191 H 0.13677 0.53619 0.78196
 H192 H 0.07955 0.50899 0.74805
 C193 C 0.76963 0.88677 0.00096
 C194 C 0.76349 0.87428 0.02452
 C195 C 0.74264 0.86118 0.02381
 C196 C 0.72955 0.86184 -0.00071
 C197 C 0.76933 0.86694 -0.01802
 C198 C 0.74850 0.85401 -0.01919
 C199 C 0.74751 0.90186 -0.00460
 C200 C 0.72641 0.88893 -0.00516
 H201 H 0.77436 0.87632 0.04068
 H202 H 0.71259 0.85102 -0.00136
 H203 H 0.78376 0.86465 -0.03088
 H204 H 0.74827 0.92121 -0.00602
 C205 C 0.27208 0.38778 0.50345
 C206 C 0.26613 0.37527 0.52705
 C207 C 0.24562 0.36163 0.52630
 C208 C 0.23264 0.36185 0.50169
 C209 C 0.27238 0.36785 0.48458
 C210 C 0.25187 0.35442 0.48334
 C211 C 0.24960 0.40226 0.49768
 C212 C 0.22884 0.38879 0.49702
 H213 H 0.27694 0.37759 0.54323
 H214 H 0.21595 0.35061 0.50100
 H215 H 0.28685 0.36600 0.47169
 H216 H 0.24989 0.42159 0.49595
 C217 C 0.27051 0.60965 0.00356
 C218 C 0.26852 0.62177 -0.02081
 C219 C 0.24853 0.63510 -0.02377
 C220 C 0.23202 0.63526 -0.00144
 C221 C 0.26849 0.62983 0.02201
 C222 C 0.24850 0.64316 0.01969
 C223 C 0.24698 0.59498 0.00582
 C224 C 0.22673 0.60835 0.00305
 H225 H 0.28164 0.61919 -0.03495
 H226 H 0.21578 0.64637 -0.00357
 H227 H 0.28099 0.63215 0.03693
 H228 H 0.24644 0.57574 0.00829
 C229 C 0.77616 0.11213 0.50182
 C230 C 0.77341 0.12301 0.47848
 C231 C 0.75314 0.13835 0.47637
 C232 C 0.73888 0.13951 0.49877
 C233 C 0.77663 0.13189 0.51884
 C234 C 0.75606 0.14682 0.51785
 C235 C 0.75346 0.09929 0.50594
 C236 C 0.73265 0.11425 0.50385
 H237 H 0.78555 0.11938 0.46368
 H238 H 0.72317 0.15149 0.49743
 H239 H 0.79000 0.13342 0.53311
 H240 H 0.75214 0.08007 0.50850
 C241 C 1.00075 0.76870 0.88729
 C242 C 1.02414 0.76379 0.87411
 C243 C 1.02361 0.74353 0.86032
 C244 C 0.99935 0.72971 0.86102
 C245 C 0.98150 0.76862 0.86774
 C246 C 0.98047 0.74839 0.85411
 C247 C 0.99583 0.74585 0.90186
 C248 C 0.99538 0.72532 0.88821
 H249 H 1.04013 0.77501 0.87628
 H250 H 0.99879 0.71324 0.84964
 H251 H 0.96842 0.78273 0.86610
 H252 H 0.99458 0.74580 0.92132
 C253 C 0.50223 0.27405 0.38785
 C254 C 0.52544 0.26944 0.37420
 C255 C 0.52502 0.24897 0.36068
 C256 C 0.50105 0.23471 0.36210
 C257 C 0.48256 0.27334 0.36872
 C258 C 0.48165 0.25292 0.35535
 C259 C 0.49810 0.25131 0.40278
 C260 C 0.49778 0.23060 0.38942
 H261 H 0.54126 0.28096 0.37595
 H262 H 0.50056 0.21808 0.35096
 H263 H 0.46927 0.28725 0.36707
 H264 H 0.49731 0.25147 0.42227
 C265 C 1.00370 0.27116 0.61101
 C266 C 0.97895 0.26824 0.62225
 C267 C 0.97595 0.24816 0.63568
 C268 C 0.99857 0.23252 0.63680
 C269 C 1.02132 0.26977 0.63200
 C270 C 1.01894 0.24966 0.64542
 C271 C 1.00713 0.24789 0.59656
 C272 C 1.00429 0.22757 0.61002
 H273 H 0.96468 0.28087 0.61914
 H274 H 0.99637 0.21619 0.64798
 H275 H 1.03595 0.28264 0.63464
 H276 H 1.01042 0.24752 0.57735
 C277 C 0.50250 0.77387 0.11323
 C278 C 0.47794 0.77050 0.12482
 C279 C 0.47545 0.75027 0.13813
 C280 C 0.49833 0.73497 0.13880
 C281 C 0.52044 0.77258 0.13395
 C282 C 0.51859 0.75235 0.14725
 C283 C 0.50604 0.75074 0.09856
 C284 C 0.50367 0.73028 0.11189
 H285 H 0.46339 0.78284 0.12189
 H286 H 0.49653 0.71854 0.14989
 H287 H 0.53491 0.78566 0.13648
 H288 H 0.50889 0.75055 0.07927
 O289 O -0.01288 0.98353 0.93166
 O290 O 0.02636 0.99687 0.93030
 O291 O -0.01202 0.92929 0.98727
 O292 O -0.00384 0.92703 1.02619
 O293 O -0.06762 0.98405 0.98730
 O294 O -0.06798 1.02482 0.99855
 O295 O 0.04940 0.99479 1.05144
 O296 O 0.05230 0.95754 1.03380
 O297 O 0.05287 1.04562 0.99701
 O298 O 0.03224 1.05154 0.95866
 O299 O -0.00174 1.04948 1.04786
 O300 O -0.03986 1.02840 1.05441
 O301 O 0.01606 1.01182 1.06744
 O302 O -0.02702 0.99862 1.06884
 O303 O 0.01503 1.06545 1.01417
 O304 O 0.00194 1.06558 0.97113
 O305 O 0.06854 1.01259 1.01456
 O306 O 0.06799 0.97198 0.99620
 O307 O -0.04600 1.00115 0.94754
 O308 O -0.05101 1.03896 0.96844
 O309 O -0.05224 0.95071 1.00452
 O310 O -0.03030 0.94748 1.04343
 O311 O 0.00442 0.94498 0.95322
 O312 O 0.04373 0.96653 0.95066
 Zr313 Zr 0.01054 0.98148 0.96135
 O314 O 0.03354 1.00394 0.98196
 Zr315 Zr -0.01564 0.95909 1.01025
 O316 O 0.00693 0.97995 1.03285
 Zr317 Zr -0.03779 1.00733 0.98412
 O318 O -0.01688 1.03042 1.00616
 Zr319 Zr 0.03952 0.98803 1.01554
 O320 O 0.01827 0.96428 0.99412
 Zr321 Zr 0.01672 1.03639 0.98996
 O322 O -0.00520 1.01520 0.96668
 Zr323 Zr -0.00881 1.01340 1.03882
 O324 O -0.03270 0.99158 1.01807
 O325 O -0.02275 0.97420 0.97697
 O326 O 0.02439 1.02120 1.02325
 C327 C -0.03405 0.99224 0.92992
 C328 C -0.00373 0.92739 0.96579
 C329 C -0.06970 0.96289 0.99605
 C330 C 0.03758 1.00393 1.06899
 C331 C 0.07027 1.03401 1.00638
 C332 C 0.00718 1.06704 1.03581
 H333 H 0.04881 1.00644 0.97319
 H334 H -0.02566 1.04548 1.00870
 H335 H -0.03316 0.96370 0.96673
 H336 H 0.00974 0.97118 1.04800
 H337 H 0.04851 0.94349 1.02335
 H338 H 0.01143 0.93100 1.03458
 H339 H -0.01275 1.07048 0.97972
 H340 H -0.03886 1.04437 0.95658
 H341 H 0.08269 0.97294 1.00636
 H342 H 0.04118 0.95716 0.93556
 H343 H -0.04574 1.04087 1.04336
 H344 H -0.06954 1.01932 1.01540
 H345 H 0.02107 1.01371 0.92971
 H346 H 0.04486 1.04061 0.95294
 H347 H -0.04338 0.95859 1.04754
 H348 H -0.01838 0.98410 1.07382
 O349 O 0.48738 0.48879 0.43376
 O350 O 0.52663 0.50213 0.43214
 O351 O 0.48897 0.43403 0.48886
 O352 O 0.49750 0.43151 0.52774
 O353 O 0.43317 0.48853 0.48979
 O354 O 0.43287 0.52925 0.50171
 O355 O 0.55083 0.49892 0.55301
 O356 O 0.55362 0.46199 0.53498
 O357 O 0.55384 0.55026 0.49862
 O358 O 0.53255 0.55637 0.46059
 O359 O 0.49944 0.55398 0.55013
 O360 O 0.46172 0.53274 0.55717
 O361 O 0.51769 0.51595 0.56944
 O362 O 0.47462 0.50286 0.57115
 O363 O 0.51606 0.57006 0.51641
 O364 O 0.50267 0.57053 0.47369
 O365 O 0.56964 0.51716 0.51590
 O366 O 0.56889 0.47669 0.49735
 O367 O 0.45446 0.50644 0.45001
 O368 O 0.44932 0.54375 0.47150
 O369 O 0.44886 0.45519 0.50669
 O370 O 0.47109 0.45175 0.54534
 O371 O 0.50486 0.45005 0.45472
 O372 O 0.54412 0.47151 0.45199
 Zr373 Zr 0.51107 0.48644 0.46317
 O374 O 0.53429 0.50873 0.48370
 Zr375 Zr 0.48546 0.46365 0.51214
 O376 O 0.50821 0.48440 0.53466
 Zr377 Zr 0.46291 0.51202 0.48665
 O378 O 0.48410 0.53499 0.50857
 Zr379 Zr 0.54062 0.49262 0.51711
 O380 O 0.51919 0.46901 0.49572
 Zr381 Zr 0.51755 0.54111 0.49209
 O382 O 0.49534 0.52008 0.46894
 Zr383 Zr 0.49254 0.51783 0.54106
 O384 O 0.46846 0.49607 0.52042
 O385 O 0.47795 0.47899 0.47905
 O386 O 0.52561 0.52577 0.52522
 C387 C 0.46628 0.49771 0.43222
 C388 C 0.49696 0.43233 0.46725
 C389 C 0.43126 0.46730 0.49842
 C390 C 0.53916 0.50786 0.57077
 C391 C 0.57134 0.53855 0.50766
 C392 C 0.50818 0.57161 0.53804
 H393 H 0.54945 0.51128 0.47476
 H394 H 0.47532 0.55002 0.51129
 H395 H 0.46746 0.46858 0.46880
 H396 H 0.51115 0.47552 0.54972
 H397 H 0.54970 0.44801 0.52448
 H398 H 0.51277 0.43549 0.53614
 H399 H 0.48793 0.57523 0.48232
 H400 H 0.46143 0.54951 0.45976
 H401 H 0.58370 0.47758 0.50736
 H402 H 0.54142 0.46236 0.43678
 H403 H 0.45539 0.54489 0.54602
 H404 H 0.43135 0.52331 0.51841
 H405 H 0.52118 0.51892 0.43162
 H406 H 0.54526 0.54560 0.45477
 H407 H 0.45809 0.46286 0.54970
 H408 H 0.48323 0.48824 0.57587
 O409 O 0.45176 -0.04722 0.49867
 O410 O 0.47093 -0.05128 0.46205
 O411 O 0.50952 -0.04784 0.55074
 O412 O 0.54342 -0.02697 0.55794
 O413 O 0.45494 0.00555 0.55480
 O414 O 0.44842 0.04229 0.53436
 O415 O 0.57019 0.01918 0.48873
 O416 O 0.57278 -0.01885 0.50290
 O417 O 0.51543 0.01656 0.43471
 O418 O 0.47405 0.00278 0.43328
 O419 O 0.51410 0.07121 0.48787
 O420 O 0.50311 0.07311 0.52972
 O421 O 0.55351 0.05258 0.50504
 O422 O 0.53180 0.05790 0.54438
 O423 O 0.49736 0.05400 0.45440
 O424 O 0.45862 0.03045 0.44997
 O425 O 0.54987 0.00203 0.45082
 O426 O 0.55188 -0.03790 0.47016
 O427 O 0.43488 -0.01360 0.51433
 O428 O 0.43299 0.02788 0.50334
 O429 O 0.48921 -0.00931 0.57097
 O430 O 0.53053 0.00704 0.57063
 O431 O 0.49199 -0.06499 0.51756
 O432 O 0.50696 -0.06422 0.47563
 Zr433 Zr 0.48785 -0.03650 0.49318
 O434 O 0.50852 -0.01484 0.46992
 Zr435 Zr 0.51303 -0.01132 0.54179
 O436 O 0.53524 0.01081 0.52045
 Zr437 Zr 0.46350 0.01148 0.51843
 O438 O 0.48355 0.03514 0.49655
 Zr439 Zr 0.54119 -0.00541 0.48684
 O440 O 0.52156 -0.02908 0.50940
 Zr441 Zr 0.49157 0.01791 0.46388
 O442 O 0.46937 -0.00491 0.48482
 Zr443 Zr 0.51735 0.04264 0.51229
 O444 O 0.49587 0.02151 0.53587
 O445 O 0.48011 -0.02063 0.52620
 O446 O 0.52492 0.02711 0.47899
 C447 C 0.43365 -0.03528 0.50624
 C448 C 0.50117 -0.06603 0.53883
 C449 C 0.46745 -0.00220 0.57253
 C450 C 0.57143 0.04095 0.49652
 C451 C 0.53730 0.00979 0.43315
 C452 C 0.50585 0.07213 0.46623
 H453 H 0.51127 -0.02376 0.45474
 H454 H 0.47424 0.04987 0.49406
 H455 H 0.47017 -0.03130 0.53646
 H456 H 0.55058 0.01393 0.52907
 H457 H 0.56805 -0.03394 0.51105
 H458 H 0.55761 -0.02172 0.54856
 H459 H 0.45424 0.04494 0.45924
 H460 H 0.43097 0.02111 0.48690
 H461 H 0.56770 -0.03503 0.46241
 H462 H 0.49831 -0.07973 0.47814
 H463 H 0.48643 0.07492 0.52385
 H464 H 0.46081 0.04913 0.54541
 H465 H 0.46041 -0.03874 0.45549
 H466 H 0.48146 -0.01287 0.42989
 H467 H 0.52143 0.02186 0.57367
 H468 H 0.54623 0.04877 0.54882
 O469 O 0.00207 0.44509 1.04617
 O470 O 0.03844 0.46596 1.04988
 O471 O -0.05146 0.49865 1.04933
 O472 O -0.06090 0.53214 1.03017
 O473 O -0.05446 0.44512 0.99289
 O474 O -0.03338 0.44024 0.95617
 O475 O 0.00810 0.56424 0.98389
 O476 O -0.00628 0.56567 1.02229
 O477 O 0.06346 0.51274 0.98452
 O478 O 0.06592 0.47089 0.99576
 O479 O 0.00937 0.51010 0.92970
 O480 O -0.03120 0.49652 0.92731
 O481 O -0.00874 0.54725 0.95024
 O482 O -0.04774 0.52302 0.94514
 O483 O 0.04367 0.49537 0.94585
 O484 O 0.05018 0.45628 0.96672
 O485 O 0.04659 0.54612 1.00047
 O486 O 0.02700 0.54609 1.04074
 O487 O -0.01344 0.42751 1.01216
 O488 O -0.00161 0.42691 0.97019
 O489 O -0.07158 0.47833 1.00894
 O490 O -0.07241 0.52056 0.99564
 O491 O -0.01750 0.48312 1.06551
 O492 O 0.02326 0.50079 1.06506
 Zr493 Zr 0.00646 0.48121 1.03645
 O494 O 0.02880 0.50348 1.01546
 Zr495 Zr -0.04320 0.50366 1.01277
 O496 O -0.02283 0.52763 0.99157
 Zr497 Zr -0.01832 0.45597 0.98769
 O498 O 0.00246 0.47786 0.96459
 Zr499 Zr 0.01076 0.53524 1.00761
 O500 O -0.01103 0.51391 1.03060
 Zr501 Zr 0.03496 0.48752 0.98178
 O502 O 0.01515 0.46369 1.00395
 Zr503 Zr -0.01458 0.51074 0.95880
 O504 O -0.03701 0.48737 0.97912
 O505 O -0.02640 0.47169 1.02060
 O506 O 0.01860 0.51995 0.97420
 C507 C -0.00525 0.42673 1.03390
 C508 C -0.03907 0.49074 1.06708
 C509 C -0.07267 0.45675 1.00064
 C510 C -0.00017 0.56532 0.96226
 C511 C 0.06460 0.53451 0.99223
 C512 C 0.03136 0.50371 0.92829
 H513 H 0.04391 0.50681 1.02443
 H514 H 0.00515 0.46917 0.94928
 H515 H -0.03640 0.46106 1.03085
 H516 H -0.03199 0.54247 0.98924
 H517 H -0.01405 0.56041 1.03742
 H518 H -0.05113 0.54679 1.02721
 H519 H 0.04053 0.45152 0.95239
 H520 H 0.01477 0.42591 0.97714
 H521 H 0.03417 0.56234 1.03857
 H522 H 0.02176 0.49140 1.08013
 H523 H -0.02531 0.48003 0.92505
 H524 H -0.04463 0.45208 0.94951
 H525 H 0.04463 0.45530 1.03707
 H526 H 0.06935 0.47811 1.01177
 H527 H -0.07580 0.51152 0.98055
 H528 H -0.05178 0.53789 0.95397
 O529 O 0.06867 0.48421 0.50797
 O530 O 0.07033 0.52349 0.49550
 O531 O 0.01581 0.48635 0.56554
 O532 O -0.02306 0.49287 0.56990
 O533 O 0.01250 0.42988 0.50936
 O534 O -0.00143 0.42938 0.46916
 O535 O -0.04958 0.54718 0.50476
 O536 O -0.03006 0.54941 0.54137
 O537 O 0.00190 0.55004 0.45089
 O538 O 0.03913 0.52966 0.44216
 O539 O -0.05039 0.49559 0.44809
 O540 O -0.05752 0.45871 0.46810
 O541 O -0.06736 0.51398 0.48782
 O542 O -0.06845 0.47006 0.50052
 O543 O -0.01695 0.51188 0.43084
 O544 O 0.02578 0.49916 0.42836
 O545 O -0.01341 0.56574 0.48541
 O546 O 0.00706 0.56515 0.52505
 O547 O 0.05135 0.45106 0.49040
 O548 O 0.02821 0.44662 0.45327
 O549 O -0.00231 0.44546 0.54415
 O550 O -0.04121 0.46688 0.54943
 O551 O 0.04985 0.50163 0.54847
 O552 O 0.05213 0.54084 0.52758
 Zr553 Zr 0.03986 0.50776 0.51234
 O554 O 0.01869 0.53071 0.49144
 Zr555 Zr -0.00844 0.48178 0.53663
 O556 O -0.03152 0.50439 0.51752
 Zr557 Zr 0.01472 0.45956 0.48639
 O558 O -0.00805 0.48049 0.46499
 Zr559 Zr -0.01381 0.53682 0.50934
 O560 O 0.00821 0.51556 0.53147
 Zr561 Zr 0.00860 0.51396 0.45888
 O562 O 0.03242 0.49210 0.47837
 Zr563 Zr -0.03964 0.48879 0.48383
 O564 O -0.01830 0.46481 0.50397
 O565 O 0.02384 0.47464 0.51962
 O566 O -0.02360 0.52182 0.47603
 C567 C 0.06961 0.46302 0.49874
 C568 C 0.03767 0.49415 0.56665
 C569 C 0.00536 0.42801 0.53123
 C570 C -0.06790 0.53555 0.49626
 C571 C -0.00641 0.56742 0.46350
 C572 C -0.03883 0.50414 0.42999
 H573 H 0.02767 0.54593 0.48880
 H574 H -0.01157 0.47172 0.44980
 H575 H 0.03441 0.46441 0.52942
 H576 H -0.04607 0.50725 0.52723
 H577 H -0.01890 0.54572 0.55474
 H578 H -0.03022 0.50871 0.56711
 H579 H 0.01668 0.48449 0.42353
 H580 H 0.04045 0.45847 0.44782
 H581 H -0.00281 0.57979 0.52518
 H582 H 0.06763 0.53826 0.53603
 H583 H -0.04612 0.45115 0.45686
 H584 H -0.01780 0.42766 0.47596
 H585 H 0.06993 0.51815 0.47845
 H586 H 0.04601 0.54187 0.45336
 H587 H -0.04563 0.45335 0.53853
 H588 H -0.07341 0.47949 0.51477
 O589 O 0.56820 0.98779 0.01053
 O590 O 0.56957 1.02705 -0.00213
 O591 O 0.51588 0.99017 0.06870
 O592 O 0.47703 0.99657 0.07339
 O593 O 0.51197 0.93337 0.01269
 O594 O 0.49771 0.93285 -0.02746
 O595 O 0.44949 1.05028 0.00845
 O596 O 0.46955 1.05274 0.04485
 O597 O 0.49990 1.05327 -0.04617
 O598 O 0.53780 1.03349 -0.05483
 O599 O 0.44862 0.99864 -0.04834
 O600 O 0.44208 0.96144 -0.02781
 O601 O 0.43185 1.01699 -0.00845
 O602 O 0.43071 0.97344 0.00409
 O603 O 0.48200 1.01468 -0.06592
 O604 O 0.52482 1.00278 -0.06851
 O605 O 0.48525 1.06904 -0.01140
 O606 O 0.50630 1.06874 0.02795
 O607 O 0.55062 0.95457 -0.00663
 O608 O 0.52737 0.94987 -0.04346
 O609 O 0.49756 0.94900 0.04762
 O610 O 0.45881 0.97029 0.05330
 O611 O 0.54970 1.00551 0.05124
 O612 O 0.55171 1.04452 0.03011
 Zr613 Zr 0.53934 1.01135 0.01516
 O614 O 0.51782 1.03423 -0.00553
 Zr615 Zr 0.49135 0.98531 0.04004
 O616 O 0.46798 1.00769 0.02100
 Zr617 Zr 0.51402 0.96301 -0.01036
 O618 O 0.49111 0.98383 -0.03169
 Zr619 Zr 0.48543 1.04020 0.01262
 O620 O 0.50782 1.01911 0.03456
 Zr621 Zr 0.50754 1.01739 -0.03797
 O622 O 0.53157 0.99557 -0.01867
 Zr623 Zr 0.45964 0.99198 -0.01261
 O624 O 0.48119 0.96820 0.00753
 O625 O 0.52348 0.97820 0.02274
 O626 O 0.47544 1.02507 -0.02057
 C627 C 0.56898 0.96653 0.00140
 C628 C 0.53770 0.99813 0.06959
 C629 C 0.50502 0.93151 0.03461
 C630 C 0.43119 1.03850 0.00006
 C631 C 0.49158 1.07062 -0.03353
 C632 C 0.46014 1.00691 -0.06661
 H633 H 0.52664 1.04952 -0.00830
 H634 H 0.48757 0.97497 -0.04682
 H635 H 0.53415 0.96803 0.03249
 H636 H 0.45350 1.01049 0.03083
 H637 H 0.48094 1.04920 0.05807
 H638 H 0.46950 1.01222 0.07051
 H639 H 0.51605 0.98784 -0.07311
 H640 H 0.53946 0.96177 -0.04912
 H641 H 0.49630 1.08329 0.02819
 H642 H 0.56735 1.04203 0.03834
 H643 H 0.45304 0.95452 -0.03989
 H644 H 0.48143 0.93109 -0.02048
 H645 H 0.56878 1.02189 -0.01922
 H646 H 0.54428 1.04614 -0.04390
 H647 H 0.45413 0.95695 0.04227
 H648 H 0.42635 0.98249 0.01879
 O649 O 0.48435 0.51102 0.06960
 O650 O 0.52366 0.49885 0.07117
 O651 O 0.48725 0.56772 0.01606
 O652 O 0.49411 0.57156 -0.02297
 O653 O 0.43032 0.51132 0.01339
 O654 O 0.42982 0.47115 0.00002
 O655 O 0.54844 0.50662 -0.04931
 O656 O 0.55077 0.54330 -0.03005
 O657 O 0.55055 0.45362 0.00264
 O658 O 0.52996 0.44547 0.04038
 O659 O 0.49638 0.44992 -0.04913
 O660 O 0.45947 0.46975 -0.05623
 O661 O 0.51517 0.48936 -0.06671
 O662 O 0.47136 0.50169 -0.06780
 O663 O 0.51228 0.43328 -0.01550
 O664 O 0.49936 0.43141 0.02743
 O665 O 0.56678 0.48785 -0.01294
 O666 O 0.56617 0.52759 0.00723
 O667 O 0.45115 0.49323 0.05252
 O668 O 0.44676 0.45593 0.02983
 O669 O 0.44617 0.54591 -0.00176
 O670 O 0.46812 0.55083 -0.04085
 O671 O 0.50226 0.55121 0.05022
 O672 O 0.54139 0.53062 0.05253
 Zr673 Zr 0.50825 0.51514 0.04054
 O674 O 0.53135 0.49419 0.01940
 Zr675 Zr 0.48269 0.53858 -0.00795
 O676 O 0.50547 0.51935 -0.03099
 Zr677 Zr 0.46000 0.48876 0.01584
 O678 O 0.48105 0.46726 -0.00684
 Zr679 Zr 0.53785 0.51157 -0.01340
 O680 O 0.51643 0.53378 0.00857
 Zr681 Zr 0.51445 0.46158 0.00972
 O682 O 0.49243 0.48117 0.03351
 Zr683 Zr 0.48971 0.48564 -0.03873
 O684 O 0.46561 0.50586 -0.01744
 O685 O 0.47518 0.52203 0.02460
 O686 O 0.52267 0.47824 -0.02278
 C687 C 0.46303 0.50176 0.07070
 C688 C 0.49496 0.56913 0.03790
 C689 C 0.42853 0.53296 0.00603
 C690 C 0.53683 0.49787 -0.06751
 C691 C 0.56817 0.46606 -0.00590
 C692 C 0.50468 0.43209 -0.03736
 H693 H 0.54653 0.49174 0.02833
 H694 H 0.47219 0.45206 -0.01015
 H695 H 0.46487 0.53187 0.03513
 H696 H 0.50850 0.52884 -0.04569
 H697 H 0.54704 0.55673 -0.01898
 H698 H 0.51007 0.56878 -0.03013
 H699 H 0.48463 0.42643 0.01853
 H700 H 0.45849 0.45076 0.04212
 H701 H 0.58093 0.52766 -0.00275
 H702 H 0.53874 0.53920 0.06800
 H703 H 0.45200 0.45834 -0.04482
 H704 H 0.42831 0.47758 -0.01649
 H705 H 0.51834 0.48182 0.07087
 H706 H 0.54236 0.45669 0.04694
 H707 H 0.45458 0.53982 -0.04515
 H708 H 0.48080 0.51601 -0.07276
 O709 O -0.01439 0.00831 0.56831
 O710 O 0.02487 -0.00455 0.56988
 O711 O -0.01106 0.06481 0.51497
 O712 O -0.00396 0.06881 0.47606
 O713 O -0.06828 0.00883 0.51203
 O714 O -0.06885 -0.03151 0.49866
 O715 O 0.04967 0.00388 0.44932
 O716 O 0.05226 0.04038 0.46886
 O717 O 0.05186 -0.04952 0.50101
 O718 O 0.03141 -0.05777 0.53868
 O719 O -0.00280 -0.05277 0.44946
 O720 O -0.03937 -0.03272 0.44241
 O721 O 0.01635 -0.01332 0.43196
 O722 O -0.02742 -0.00081 0.43101
 O723 O 0.01303 -0.06970 0.48298
 O724 O 0.00051 -0.07148 0.52606
 O725 O 0.06798 -0.01519 0.48556
 O726 O 0.06769 0.02433 0.50594
 O727 O -0.04771 -0.00916 0.55116
 O728 O -0.05206 -0.04662 0.52871
 O729 O -0.05206 0.04327 0.49692
 O730 O -0.03012 0.04836 0.45802
 O731 O 0.00402 0.04821 0.54906
 O732 O 0.04292 0.02724 0.55147
 Zr733 Zr 0.00969 0.01208 0.53932
 O734 O 0.03269 -0.00889 0.51805
 Zr735 Zr -0.01565 0.03582 0.49086
 O736 O 0.00691 0.01655 0.46773
 Zr737 Zr -0.03870 -0.01392 0.51456
 O738 O -0.01773 -0.03547 0.49182
 Zr739 Zr 0.03922 0.00859 0.48531
 O740 O 0.01800 0.03080 0.50741
 Zr741 Zr 0.01571 -0.04142 0.50825
 O742 O -0.00627 -0.02180 0.53214
 Zr743 Zr -0.00906 -0.01705 0.45996
 O744 O -0.03300 0.00325 0.48132
 O745 O -0.02329 0.01924 0.52335
 O746 O 0.02392 -0.02467 0.47579
 C747 C -0.03588 -0.00058 0.56934
 C748 C -0.00330 0.06616 0.53679
 C749 C -0.06983 0.03049 0.50462
 C750 C 0.03797 -0.00474 0.43112
 C751 C 0.06945 -0.03699 0.49248
 C752 C 0.00523 -0.07075 0.46118
 H753 H 0.04788 -0.01143 0.52693
 H754 H -0.02672 -0.05059 0.48850
 H755 H -0.03355 0.02917 0.53384
 H756 H 0.00995 0.02608 0.45306
 H757 H 0.04866 0.05375 0.48005
 H758 H 0.01182 0.06589 0.46858
 H759 H -0.01440 -0.07622 0.51734
 H760 H -0.04035 -0.05176 0.54105
 H761 H 0.08241 0.02445 0.49591
 H762 H 0.04029 0.03571 0.56700
 H763 H -0.04702 -0.04399 0.45386
 H764 H -0.07052 -0.02484 0.48226
 H765 H 0.01918 -0.02147 0.56961
 H766 H 0.04345 -0.04637 0.54556
 H767 H -0.04365 0.03740 0.45359
 H768 H -0.01789 0.01343 0.42600
 O769 O 0.74261 0.17968 0.26094
 O770 O 0.78261 0.18275 0.25148
 O771 O 0.73369 0.23458 0.31608
 O772 O 0.73989 0.27402 0.31909
 O773 O 0.68263 0.22718 0.25788
 O774 O 0.68281 0.24036 0.21720
 O775 O 0.79286 0.30553 0.25770
 O776 O 0.79662 0.28688 0.29359
 O777 O 0.80466 0.25165 0.20445
 O778 O 0.78774 0.21062 0.19746
 O779 O 0.74672 0.29578 0.19656
 O780 O 0.70824 0.29947 0.21306
 O781 O 0.75968 0.31744 0.23706
 O782 O 0.71491 0.31250 0.24633
 O783 O 0.76774 0.26436 0.18184
 O784 O 0.75799 0.22085 0.18009
 O785 O 0.81705 0.27147 0.23837
 O786 O 0.81655 0.25219 0.27875
 O787 O 0.71013 0.19106 0.23883
 O788 O 0.70300 0.21307 0.20262
 O789 O 0.69495 0.24684 0.29192
 O790 O 0.71221 0.28816 0.29663
 O791 O 0.75465 0.20292 0.30167
 O792 O 0.79567 0.20484 0.28341
 Zr793 Zr 0.76270 0.21167 0.26551
 O794 O 0.78489 0.23453 0.24480
 Zr795 Zr 0.73086 0.25704 0.28602
 O796 O 0.75232 0.28182 0.26702
 Zr797 Zr 0.71365 0.22875 0.23588
 O798 O 0.73382 0.25291 0.21452
 Zr799 Zr 0.78695 0.26844 0.26139
 O800 O 0.76643 0.24492 0.28348
 Zr801 Zr 0.76910 0.24059 0.21104
 O802 O 0.74833 0.21528 0.23048
 Zr803 Zr 0.73806 0.28618 0.23224
 O804 O 0.71491 0.26302 0.25215
 O805 O 0.72771 0.22330 0.27009
 O806 O 0.77296 0.27443 0.22701
 C807 C 0.72315 0.17513 0.24904
 C808 C 0.74361 0.21414 0.31859
 C809 C 0.67900 0.23562 0.27918
 C810 C 0.77986 0.32165 0.24791
 C811 C 0.82046 0.26339 0.21692
 C812 C 0.75817 0.28499 0.17967
 H813 H 0.80104 0.22752 0.24331
 H814 H 0.72584 0.25461 0.19869
 H815 H 0.71790 0.21171 0.27947
 H816 H 0.75289 0.29702 0.27630
 H817 H 0.79283 0.27587 0.30704
 H818 H 0.75409 0.28443 0.31603
 H819 H 0.74316 0.22815 0.17380
 H820 H 0.71686 0.20381 0.19679
 H821 H 0.83025 0.26382 0.27881
 H822 H 0.79385 0.18982 0.29278
 H823 H 0.70102 0.28582 0.20395
 H824 H 0.67891 0.25630 0.22396
 H825 H 0.77887 0.18178 0.23404
 H826 H 0.80148 0.20761 0.20834
 H827 H 0.69892 0.29023 0.28494
 H828 H 0.72265 0.31942 0.26095
 O829 O 0.75604 0.70540 0.69502
 O830 O 0.79187 0.70121 0.71338
 O831 O 0.70648 0.69491 0.75636
 O832 O 0.69583 0.71408 0.78897
 O833 O 0.69578 0.75540 0.70467
 O834 O 0.71615 0.79165 0.69832
 O835 O 0.76622 0.76172 0.81808
 O836 O 0.75346 0.72328 0.81859
 O837 O 0.81786 0.76735 0.76248
 O838 O 0.81880 0.75771 0.72034
 O839 O 0.76189 0.81812 0.76610
 O840 O 0.72042 0.81822 0.75667
 O841 O 0.74577 0.79405 0.80459
 O842 O 0.70659 0.79903 0.78296
 O843 O 0.79466 0.80546 0.74561
 O844 O 0.80032 0.78415 0.70672
 O845 O 0.80419 0.74697 0.79518
 O846 O 0.78520 0.70692 0.79502
 O847 O 0.73601 0.73791 0.68134
 O848 O 0.74648 0.77981 0.68192
 O849 O 0.68218 0.73411 0.73676
 O850 O 0.68361 0.74715 0.77965
 O851 O 0.73825 0.68217 0.73435
 O852 O 0.78040 0.68490 0.74861
 Zr853 Zr 0.76087 0.71273 0.73192
 O854 O 0.78380 0.73424 0.75359
 Zr855 Zr 0.71221 0.73215 0.75983
 O856 O 0.73330 0.75368 0.78321
 Zr857 Zr 0.73270 0.76056 0.71168
 O858 O 0.75407 0.78394 0.73305
 Zr859 Zr 0.76781 0.73964 0.78733
 O860 O 0.74561 0.71623 0.76646
 Zr861 Zr 0.78783 0.76874 0.73921
 O862 O 0.76719 0.74633 0.71580
 Zr863 Zr 0.73926 0.78748 0.76766
 O864 O 0.71605 0.76666 0.74508
 O865 O 0.72676 0.72652 0.72585
 O866 O 0.77363 0.77412 0.77357
 C867 C 0.74670 0.71788 0.67813
 C868 C 0.71867 0.67843 0.74603
 C869 C 0.67895 0.74525 0.71688
 C870 C 0.75585 0.78190 0.82133
 C871 C 0.82097 0.75717 0.78294
 C872 C 0.78222 0.82183 0.75575
 H873 H 0.79937 0.72608 0.75514
 H874 H 0.75536 0.79949 0.72468
 H875 H 0.71651 0.71600 0.71546
 H876 H 0.72497 0.75469 0.79888
 H877 H 0.74550 0.70813 0.81324
 H878 H 0.70736 0.71512 0.80255
 H879 H 0.78930 0.79719 0.70240
 H880 H 0.76270 0.77354 0.67868
 H881 H 0.79330 0.70855 0.81093
 H882 H 0.77816 0.66984 0.73916
 H883 H 0.72552 0.82199 0.74005
 H884 H 0.70650 0.79820 0.71172
 H885 H 0.79864 0.71542 0.70505
 H886 H 0.82318 0.74172 0.72637
 H887 H 0.67873 0.76182 0.77110
 H888 H 0.70272 0.78837 0.79664
 O889 O 0.29705 0.19929 0.74589
 O890 O 0.29769 0.21491 0.70725
 O891 O 0.30535 0.26229 0.79133
 O892 O 0.28476 0.29454 0.80120
 O893 O 0.25021 0.20652 0.80521
 O894 O 0.21107 0.19894 0.78849
 O895 O 0.23385 0.31640 0.73225
 O896 O 0.27352 0.31963 0.74361
 O897 O 0.22739 0.25909 0.68313
 O898 O 0.24015 0.21882 0.68166
 O899 O 0.17979 0.26101 0.74133
 O900 O 0.18197 0.25333 0.78360
 O901 O 0.20181 0.30116 0.75290
 O902 O 0.19995 0.28282 0.79466
 O903 O 0.19233 0.24011 0.70849
 O904 O 0.21648 0.20220 0.70351
 O905 O 0.24513 0.29401 0.69592
 O906 O 0.28793 0.29634 0.71029
 O907 O 0.26498 0.18399 0.76651
 O908 O 0.22254 0.18110 0.75738
 O909 O 0.26904 0.24094 0.81780
 O910 O 0.25237 0.28242 0.81615
 O911 O 0.31812 0.24074 0.75897
 O912 O 0.31320 0.25191 0.71619
 Zr913 Zr 0.28690 0.23466 0.73799
 O914 O 0.26356 0.25372 0.71539
 Zr915 Zr 0.26773 0.26326 0.78714
 O916 O 0.24428 0.28405 0.76633
 Zr917 Zr 0.24095 0.21258 0.76918
 O918 O 0.21576 0.23110 0.74832
 Zr919 Zr 0.25712 0.28733 0.73102
 O920 O 0.28229 0.26930 0.75263
 Zr921 Zr 0.22964 0.23669 0.71360
 O922 O 0.25393 0.21588 0.73381
 Zr923 Zr 0.21110 0.26583 0.76244
 O924 O 0.23382 0.24591 0.78541
 O925 O 0.27435 0.22955 0.77285
 O926 O 0.22328 0.27083 0.72743
 C927 C 0.28584 0.18218 0.75687
 C928 C 0.32190 0.25266 0.77857
 C929 C 0.26098 0.21948 0.82127
 C930 C 0.21284 0.31812 0.74151
 C931 C 0.23425 0.28099 0.67998
 C932 C 0.17594 0.24994 0.72125
 H933 H 0.27078 0.25550 0.69923
 H934 H 0.20058 0.22160 0.74806
 H935 H 0.28598 0.22065 0.78279
 H936 H 0.24261 0.30000 0.77398
 H937 H 0.28944 0.31533 0.75020
 H938 H 0.28175 0.30746 0.78954
 H939 H 0.20300 0.19805 0.71439
 H940 H 0.22894 0.17712 0.74124
 H941 H 0.28469 0.31154 0.70179
 H942 H 0.32866 0.24343 0.71789
 H943 H 0.17913 0.23626 0.77937
 H944 H 0.20611 0.21183 0.79969
 H945 H 0.28404 0.20413 0.70276
 H946 H 0.25680 0.22407 0.67803
 H947 H 0.23833 0.27284 0.82172
 H948 H 0.20967 0.29772 0.79677
 O949 O 0.19711 0.74671 0.29835
 O950 O 0.21212 0.70805 0.29964
 O951 O 0.26085 0.79168 0.30576
 O952 O 0.29350 0.80099 0.28489
 O953 O 0.20579 0.80433 0.25013
 O954 O 0.19864 0.78678 0.21116
 O955 O 0.31535 0.73133 0.23538
 O956 O 0.31807 0.74348 0.27493
 O957 O 0.25747 0.68221 0.22982
 O958 O 0.21704 0.68095 0.24256
 O959 O 0.26046 0.73905 0.18088
 O960 O 0.25326 0.78131 0.18241
 O961 O 0.30060 0.75087 0.20274
 O962 O 0.28297 0.79234 0.19988
 O963 O 0.23908 0.70663 0.19412
 O964 O 0.20068 0.70229 0.21857
 O965 O 0.29231 0.69536 0.24743
 O966 O 0.29417 0.71066 0.28998
 O967 O 0.18245 0.76605 0.26552
 O968 O 0.18010 0.75627 0.22326
 O969 O 0.24017 0.81721 0.26885
 O970 O 0.28190 0.81516 0.25215
 O971 O 0.23871 0.75980 0.31921
 O972 O 0.24912 0.71706 0.31512
 Zr973 Zr 0.23259 0.73829 0.28831
 O974 O 0.25183 0.71522 0.26541
 Zr975 Zr 0.26218 0.78665 0.26812
 O976 O 0.28308 0.76539 0.24504
 Zr977 Zr 0.21156 0.76824 0.24156
 O978 O 0.23020 0.74681 0.21678
 Zr979 Zr 0.28581 0.73057 0.25866
 O980 O 0.26759 0.75266 0.28343
 Zr981 Zr 0.23526 0.71259 0.23143
 O982 O 0.21426 0.73334 0.25530
 Zr983 Zr 0.26523 0.76073 0.21186
 O984 O 0.24527 0.78417 0.23415
 O985 O 0.22810 0.77268 0.27500
 O986 O 0.26972 0.72618 0.22481
 C987 C 0.18023 0.75722 0.28672
 C988 C 0.25090 0.77934 0.32261
 C989 C 0.21882 0.82052 0.26065
 C990 C 0.31739 0.73993 0.21408
 C991 C 0.27929 0.67925 0.23681
 C992 C 0.24921 0.71898 0.17742
 H993 H 0.25333 0.69931 0.27299
 H994 H 0.22086 0.74620 0.20159
 H995 H 0.21916 0.78286 0.28644
 H996 H 0.29919 0.77294 0.24322
 H997 H 0.31358 0.75041 0.29073
 H998 H 0.30640 0.78936 0.28199
 H999 H 0.19687 0.71267 0.20473
 H1000 H 0.17590 0.74027 0.22978
 H1001 H 0.30939 0.70215 0.28695
 H1002 H 0.24039 0.71913 0.33055
 H1003 H 0.23622 0.77684 0.17943
 H1004 H 0.21173 0.79788 0.20610
 H1005 H 0.20129 0.70348 0.28611
 H1006 H 0.22152 0.67815 0.25955
 H1007 H 0.27259 0.82030 0.23789
 H1008 H 0.29764 0.79480 0.20980
 O1009 O 0.18178 0.72810 0.75826
 O1010 O 0.18149 0.74367 0.71983
 O1011 O 0.24186 0.68051 0.75887
 O1012 O 0.28139 0.68226 0.75429
 O1013 O 0.23229 0.73359 0.81673
 O1014 O 0.24089 0.77525 0.81961
 O1015 O 0.30360 0.75345 0.70515
 O1016 O 0.28980 0.71422 0.70005
 O1017 O 0.24637 0.79855 0.69933
 O1018 O 0.20681 0.80115 0.71643
 O1019 O 0.29170 0.80648 0.76006
 O1020 O 0.29857 0.78448 0.79607
 O1021 O 0.31615 0.77172 0.73996
 O1022 O 0.31593 0.75629 0.78277
 O1023 O 0.25867 0.81921 0.73989
 O1024 O 0.21453 0.81436 0.74928
 O1025 O 0.26762 0.76751 0.68402
 O1026 O 0.25231 0.72556 0.68166
 O1027 O 0.19400 0.74699 0.79287
 O1028 O 0.21081 0.78705 0.80042
 O1029 O 0.25352 0.70245 0.80160
 O1030 O 0.29449 0.70372 0.78304
 O1031 O 0.20841 0.69294 0.73908
 O1032 O 0.20534 0.71627 0.70166
 Zr1033 Zr 0.21287 0.73049 0.73655
 O1034 O 0.23311 0.75529 0.71609
 Zr1035 Zr 0.26172 0.71229 0.76584
 O1036 O 0.28395 0.73564 0.74580
 Zr1037 Zr 0.23011 0.75725 0.78758
 O1038 O 0.25152 0.78269 0.76934
 Zr1039 Zr 0.26818 0.74271 0.71226
 O1040 O 0.24751 0.71671 0.73089
 Zr1041 Zr 0.23731 0.78800 0.73466
 O1042 O 0.21439 0.76425 0.75392
 Zr1043 Zr 0.28609 0.76918 0.76323
 O1044 O 0.26558 0.74502 0.78467
 O1045 O 0.22688 0.72397 0.77067
 O1046 O 0.27215 0.77615 0.72914
 C1047 C 0.17813 0.73597 0.77978
 C1048 C 0.22179 0.67654 0.74784
 C1049 C 0.24226 0.71313 0.81870
 C1050 C 0.31947 0.76453 0.71813
 C1051 C 0.25812 0.78821 0.68235
 C1052 C 0.27889 0.82296 0.75066
 H1053 H 0.22536 0.75736 0.70019
 H1054 H 0.25200 0.79762 0.77906
 H1055 H 0.21700 0.71211 0.77962
 H1056 H 0.29995 0.72847 0.74370
 H1057 H 0.28025 0.69926 0.70233
 H1058 H 0.29043 0.68731 0.73984
 H1059 H 0.22179 0.82007 0.76463
 H1060 H 0.19890 0.79097 0.78780
 H1061 H 0.26348 0.72751 0.66789
 H1062 H 0.19091 0.70558 0.70254
 H1063 H 0.28529 0.79393 0.80285
 H1064 H 0.25754 0.77024 0.82304
 H1065 H 0.17904 0.76003 0.72634
 H1066 H 0.20151 0.78877 0.70463
 H1067 H 0.29647 0.71487 0.79690
 H1068 H 0.32320 0.74326 0.77321
 O1069 O 0.20597 0.19608 0.25626
 O1070 O 0.20081 0.21376 0.29237
 O1071 O 0.19595 0.25774 0.20760
 O1072 O 0.21517 0.29083 0.19783
 O1073 O 0.25685 0.20745 0.19627
 O1074 O 0.29304 0.20155 0.21649
 O1075 O 0.26143 0.31929 0.26907
 O1076 O 0.22304 0.31933 0.25617
 O1077 O 0.26694 0.26322 0.31953
 O1078 O 0.25702 0.22109 0.31974
 O1079 O 0.31838 0.26867 0.26407
 O1080 O 0.31951 0.26004 0.22245
 O1081 O 0.29427 0.30680 0.24839
 O1082 O 0.30009 0.28582 0.20868
 O1083 O 0.30523 0.24723 0.29624
 O1084 O 0.28388 0.20813 0.30101
 O1085 O 0.24636 0.29560 0.30656
 O1086 O 0.20639 0.29509 0.28754
 O1087 O 0.23896 0.18337 0.23596
 O1088 O 0.28085 0.18449 0.24662
 O1089 O 0.23561 0.23930 0.18318
 O1090 O 0.24860 0.28218 0.18545
 O1091 O 0.18272 0.23500 0.23886
 O1092 O 0.18457 0.24876 0.28144
 Zr1093 Zr 0.21292 0.23286 0.26175
 O1094 O 0.23398 0.25435 0.28527
 Zr1095 Zr 0.23314 0.26179 0.21366
 O1096 O 0.25422 0.28504 0.23537
 Zr1097 Zr 0.26154 0.21398 0.23334
 O1098 O 0.28449 0.23524 0.25526
 Zr1099 Zr 0.23947 0.28828 0.26996
 O1100 O 0.21651 0.26755 0.24718
 Zr1101 Zr 0.26857 0.24049 0.28910
 O1102 O 0.24658 0.21722 0.26789
 Zr1103 Zr 0.28811 0.27001 0.24117
 O1104 O 0.26778 0.24760 0.21736
 O1105 O 0.22744 0.22764 0.22756
 O1106 O 0.27402 0.27503 0.27562
 C1107 C 0.21873 0.17965 0.24656
 C1108 C 0.17929 0.24682 0.21941
 C1109 C 0.24678 0.21965 0.17963
 C1110 C 0.28180 0.32306 0.25880
 C1111 C 0.25667 0.28340 0.32305
 C1112 C 0.32179 0.25798 0.28419
 H1113 H 0.22556 0.25552 0.30089
 H1114 H 0.30012 0.22715 0.25645
 H1115 H 0.21713 0.21729 0.21706
 H1116 H 0.25527 0.30079 0.22733
 H1117 H 0.20800 0.31386 0.24808
 H1118 H 0.21598 0.30414 0.20968
 H1119 H 0.29723 0.20425 0.29000
 H1120 H 0.27420 0.18077 0.26272
 H1121 H 0.20784 0.31079 0.29599
 H1122 H 0.16953 0.23923 0.27883
 H1123 H 0.32306 0.24333 0.22695
 H1124 H 0.29964 0.21517 0.20711
 H1125 H 0.21502 0.20583 0.29927
 H1126 H 0.24103 0.22705 0.32439
 H1127 H 0.26337 0.27390 0.18038
 H1128 H 0.28949 0.29941 0.20510
 O1129 O 0.79757 0.70062 0.24351
 O1130 O 0.79785 0.71606 0.20479
 O1131 O 0.80792 0.76441 0.28807
 O1132 O 0.78774 0.79680 0.29832
 O1133 O 0.75225 0.70926 0.30380
 O1134 O 0.71265 0.70217 0.28812
 O1135 O 0.73606 0.81869 0.23013
 O1136 O 0.77597 0.82132 0.24043
 O1137 O 0.72758 0.76073 0.18171
 O1138 O 0.73995 0.72018 0.18047
 O1139 O 0.68121 0.76385 0.24073
 O1140 O 0.68430 0.75689 0.28318
 O1141 O 0.70389 0.80390 0.25090
 O1142 O 0.70276 0.78650 0.29321
 O1143 O 0.69291 0.74248 0.20788
 O1144 O 0.71638 0.70425 0.20287
 O1145 O 0.74594 0.79561 0.19371
 O1146 O 0.78917 0.79746 0.20704
 O1147 O 0.76578 0.68606 0.26505
 O1148 O 0.72311 0.68377 0.25696
 O1149 O 0.77180 0.74354 0.31571
 O1150 O 0.75556 0.78530 0.31385
 O1151 O 0.81947 0.74156 0.25612
 O1152 O 0.81408 0.75287 0.21333
 Zr1153 Zr 0.78787 0.73612 0.23561
 O1154 O 0.76439 0.75526 0.21324
 Zr1155 Zr 0.77015 0.76559 0.28480
 O1156 O 0.74655 0.78646 0.26419
 Zr1157 Zr 0.74228 0.71509 0.26795
 O1158 O 0.71694 0.73370 0.24738
 Zr1159 Zr 0.75874 0.78915 0.22859
 O1160 O 0.78408 0.77101 0.24992
 Zr1161 Zr 0.73024 0.73865 0.21233
 O1162 O 0.75460 0.71774 0.23230
 Zr1163 Zr 0.71304 0.76869 0.26112
 O1164 O 0.73596 0.74874 0.28390
 O1165 O 0.77597 0.73160 0.27078
 O1166 O 0.72464 0.77306 0.22585
 C1167 C 0.78635 0.68380 0.25490
 C1168 C 0.82394 0.75389 0.27533
 C1169 C 0.76354 0.72220 0.31952
 C1170 C 0.71506 0.82066 0.23932
 C1171 C 0.73453 0.78253 0.17819
 C1172 C 0.67686 0.75261 0.22083
 H1173 H 0.77131 0.75676 0.19692
 H1174 H 0.70165 0.72440 0.24754
 H1175 H 0.78765 0.72260 0.28056
 H1176 H 0.74525 0.80253 0.27166
 H1177 H 0.79192 0.81680 0.24678
 H1178 H 0.78495 0.80956 0.28642
 H1179 H 0.70311 0.70039 0.21410
 H1180 H 0.72908 0.67947 0.24074
 H1181 H 0.78591 0.81257 0.19839
 H1182 H 0.82943 0.74418 0.21486
 H1183 H 0.68108 0.73982 0.27919
 H1184 H 0.70816 0.71527 0.29927
 H1185 H 0.78393 0.70554 0.20054
 H1186 H 0.75640 0.72557 0.17614
 H1187 H 0.74148 0.77598 0.31975
 H1188 H 0.71259 0.80139 0.29474
 O1189 O 0.70604 0.30270 0.75174
 O1190 O 0.70116 0.28811 0.71195
 O1191 O 0.69740 0.24254 0.79648
 O1192 O 0.71475 0.20363 0.79767
 O1193 O 0.76008 0.28830 0.80734
 O1194 O 0.79585 0.29566 0.78518
 O1195 O 0.75893 0.18187 0.72631
 O1196 O 0.71980 0.17898 0.73771
 O1197 O 0.76194 0.24071 0.68001
 O1198 O 0.75332 0.28395 0.68431
 O1199 O 0.81590 0.23120 0.73338
 O1200 O 0.81836 0.23968 0.77661
 O1201 O 0.79279 0.19415 0.74627
 O1202 O 0.79992 0.21070 0.78759
 O1203 O 0.80155 0.25258 0.70190
 O1204 O 0.78424 0.29299 0.70034
 O1205 O 0.73981 0.20806 0.69138
 O1206 O 0.70120 0.20315 0.71753
 O1207 O 0.74050 0.31508 0.77085
 O1208 O 0.78144 0.31546 0.75729
 O1209 O 0.73863 0.25523 0.81899
 O1210 O 0.74714 0.21323 0.81444
 O1211 O 0.68311 0.26443 0.76525
 O1212 O 0.68185 0.25305 0.72277
 Zr1213 Zr 0.71238 0.26713 0.74152
 O1214 O 0.73134 0.24693 0.71588
 Zr1215 Zr 0.73325 0.23523 0.78700
 O1216 O 0.75293 0.21343 0.76334
 Zr1217 Zr 0.76273 0.28457 0.76953
 O1218 O 0.78391 0.26486 0.74522
 Zr1219 Zr 0.73656 0.21213 0.72910
 O1220 O 0.71515 0.23159 0.75379
 Zr1221 Zr 0.76622 0.26133 0.71179
 O1222 O 0.74623 0.28340 0.73534
 Zr1223 Zr 0.78682 0.22946 0.75733
 O1224 O 0.76817 0.24992 0.78318
 O1225 O 0.72865 0.27009 0.77531
 O1226 O 0.77103 0.22623 0.72319
 C1227 C 0.71910 0.31860 0.76274
 C1228 C 0.68067 0.25399 0.78565
 C1229 C 0.75020 0.27495 0.82347
 C1230 C 0.78025 0.17841 0.73457
 C1231 C 0.75043 0.22100 0.67542
 C1232 C 0.81813 0.24087 0.71261
 H1233 H 0.72204 0.24693 0.70066
 H1234 H 0.79985 0.27279 0.74365
 H1235 H 0.71951 0.27970 0.78708
 H1236 H 0.75421 0.19721 0.77024
 H1237 H 0.72132 0.17705 0.75535
 H1238 H 0.70293 0.19979 0.78476
 H1239 H 0.79738 0.29658 0.71194
 H1240 H 0.77481 0.31907 0.74116
 H1241 H 0.69763 0.21313 0.70333
 H1242 H 0.66811 0.26389 0.72534
 H1243 H 0.82423 0.25517 0.77010
 H1244 H 0.80205 0.28161 0.79390
 H1245 H 0.71462 0.29925 0.70805
 H1246 H 0.73742 0.27756 0.67907
 H1247 H 0.76389 0.21882 0.81742
 H1248 H 0.78904 0.19679 0.79043
 C1249 C 0.08177 1.00344 1.16047
 N1250 N 0.06926 1.00818 1.18089
 N1251 N 0.07994 1.00710 1.20241
 C1252 C 0.10347 1.00120 1.20418
 N1253 N 0.11589 0.99654 1.18372
 N1254 N 0.10523 0.99756 1.16229
 C1255 C 0.07031 1.00432 1.13673
 N1256 N 0.08272 0.99770 1.11683
 N1257 N 0.07237 0.99791 1.09518
 C1258 C 0.04927 1.00488 1.09265
 N1259 N 0.03688 1.01168 1.11253
 N1260 N 0.04722 1.01140 1.13422
 C1261 C 0.58296 0.50365 0.66236
 N1262 N 0.57055 0.50849 0.68281
 N1263 N 0.58109 0.50670 0.70434
 C1264 C 0.60437 0.49994 0.70611
 N1265 N 0.61669 0.49512 0.68563
 N1266 N 0.60617 0.49685 0.66417
 C1267 C 0.57167 0.50556 0.63858
 N1268 N 0.58398 0.49920 0.61853
 N1269 N 0.57375 0.50037 0.59686
 C1270 C 0.55088 0.50810 0.59445
 N1271 N 0.53861 0.51465 0.61449
 N1272 N 0.54884 0.51342 0.63620
 C1273 C 0.42248 -0.00613 0.66323
 N1274 N 0.39844 -0.00290 0.66440
 N1275 N 0.38737 -0.00230 0.68554
 C1276 C 0.39988 -0.00484 0.70639
 N1277 N 0.42399 -0.00829 0.70528
 N1278 N 0.43510 -0.00896 0.68402
 C1279 C 0.43437 -0.00563 0.63977
 N1280 N 0.45813 -0.01027 0.63760
 N1281 N 0.46871 -0.00928 0.61612
 C1282 C 0.45591 -0.00348 0.59614
 N1283 N 0.43218 0.00116 0.59836
 N1284 N 0.42160 0.00007 0.61978
 C1285 C -0.08265 0.49114 1.15850
 N1286 N -0.10641 0.49581 1.16006
 N1287 N -0.11700 0.49738 1.18140
 C1288 C -0.10425 0.49444 1.20204
 N1289 N -0.08044 0.48962 1.20055
 N1290 N -0.06982 0.48798 1.17910
 C1291 C -0.07124 0.49035 1.13483
 N1292 N -0.04779 0.48449 1.13241
 N1293 N -0.03756 0.48439 1.11074
 C1294 C -0.05040 0.49022 1.09081
 N1295 N -0.07384 0.49602 1.09326
 N1296 N -0.08407 0.49603 1.11488
 C1297 C -0.08377 0.50080 0.33832
 N1298 N -0.06992 0.50107 0.31824
 N1299 N -0.07992 0.49971 0.29641
 C1300 C -0.10418 0.49813 0.29377
 N1301 N -0.11806 0.49788 0.31386
 N1302 N -0.10804 0.49907 0.33574
 C1303 C -0.07249 0.50239 0.36234
 N1304 N -0.08542 0.49803 0.38262
 N1305 N -0.07485 0.49890 0.40425
 C1306 C -0.05102 0.50439 0.40640
 N1307 N -0.03820 0.50895 0.38612
 N1308 N -0.04872 0.50792 0.36452
 C1309 C 0.41589 1.00167 -0.15852
 N1310 N 0.42994 0.99914 -0.17829
 N1311 N 0.42019 0.99758 -0.20022
 C1312 C 0.39599 0.99871 -0.20334
 N1313 N 0.38193 1.00117 -0.18350
 N1314 N 0.39167 1.00250 -0.16150
 C1315 C 0.42695 1.00370 -0.13444
 N1316 N 0.41365 1.00089 -0.11412
 N1317 N 0.42405 1.00220 -0.09242
 C1318 C 0.44807 1.00667 -0.09026
 N1319 N 0.46126 1.00970 -0.11059
 N1320 N 0.45092 1.00817 -0.13224
 C1321 C 0.58257 0.50086 -0.15839
 N1322 N 0.60685 0.50312 -0.16034
 N1323 N 0.61727 0.50374 -0.18195
 C1324 C 0.60379 0.50235 -0.20240
 N1325 N 0.57951 0.50027 -0.20038
 N1326 N 0.56911 0.49949 -0.17882
 C1327 C 0.57091 0.49973 -0.13465
 N1328 N 0.54717 0.49389 -0.13294
 N1329 N 0.53642 0.49299 -0.11154
 C1330 C 0.54898 0.49800 -0.09103
 N1331 N 0.57274 0.50385 -0.09273
 N1332 N 0.58353 0.50460 -0.11414
 C1333 C 0.08256 0.00061 0.33986
 N1334 N 0.10678 0.00327 0.33770
 N1335 N 0.11696 0.00448 0.31601
 C1336 C 0.10328 0.00331 0.29569
 N1337 N 0.07905 0.00084 0.29791
 N1338 N 0.06889 -0.00052 0.31956
 C1339 C 0.07122 -0.00123 0.36368
 N1340 N 0.04759 -0.00744 0.36556
 N1341 N 0.03713 -0.00895 0.38707
 C1342 C 0.04989 -0.00421 0.40752
 N1343 N 0.07355 0.00198 0.40565
 N1344 N 0.08405 0.00334 0.38413
 C1345 C 0.16159 1.07923 1.00514
 N1346 N 0.16341 1.10255 0.99857
 N1347 N 0.18478 1.11350 0.99738
 C1348 C 0.20517 1.10153 1.00256
 N1349 N 0.20340 1.07814 1.00913
 N1350 N 0.18194 1.06717 1.01038
 C1351 C 0.13790 1.06748 1.00625
 N1352 N 0.13536 1.04450 1.01383
 N1353 N 0.11370 1.03390 1.01431
 C1354 C 0.09389 1.04594 1.00722
 N1355 N 0.09647 1.06894 0.99976
 N1356 N 0.11807 1.07954 0.99935
 C1357 C 0.66340 0.58198 0.50315
 N1358 N 0.66562 0.60516 0.49620
 N1359 N 0.68720 0.61561 0.49450
 C1360 C 0.70741 0.60325 0.49948
 N1361 N 0.70522 0.57999 0.50638
 N1362 N 0.68357 0.56952 0.50814
 C1363 C 0.63950 0.57079 0.50514
 N1364 N 0.63673 0.54800 0.51321
 N1365 N 0.61490 0.53787 0.51453
 C1366 C 0.59513 0.55019 0.50786
 N1367 N 0.59793 0.57301 0.49992
 N1368 N 0.61972 0.58315 0.49866
 C1369 C 0.65811 0.42104 -0.00767
 N1370 N 0.65879 0.39750 -0.00199
 N1371 N 0.67958 0.38623 -0.00097
 C1372 C 0.70067 0.39801 -0.00550
 N1373 N 0.70002 0.42167 -0.01130
 N1374 N 0.67908 0.43299 -0.01235
 C1375 C 0.63488 0.43300 -0.00806
 N1376 N 0.63301 0.45643 -0.01418
 N1377 N 0.61168 0.46699 -0.01384
 C1378 C 0.59155 0.45448 -0.00734
 N1379 N 0.59348 0.43107 -0.00134
 N1380 N 0.61473 0.42054 -0.00174
 C1381 C 0.16077 -0.07932 0.49013
 N1382 N 0.18125 -0.06604 0.48701
 N1383 N 0.20275 -0.07623 0.48845
 C1384 C 0.20442 -0.10005 0.49302
 N1385 N 0.18389 -0.11324 0.49589
 N1386 N 0.16251 -0.10309 0.49452
 C1387 C 0.13702 -0.06834 0.48975
 N1388 N 0.11720 -0.08158 0.49562
 N1389 N 0.09561 -0.07168 0.49623
 C1390 C 0.09304 -0.04817 0.49087
 N1391 N 0.11284 -0.03496 0.48479
 N1392 N 0.13447 -0.04485 0.48428
 C1393 C 0.34099 -0.07877 0.49983
 N1394 N 0.32117 -0.06489 0.49982
 N1395 N 0.29923 -0.07480 0.49824
 C1396 C 0.29623 -0.09900 0.49670
 N1397 N 0.31607 -0.11287 0.49669
 N1398 N 0.33804 -0.10295 0.49811
 C1399 C 0.36519 -0.06772 0.50188
 N1400 N 0.38521 -0.08087 0.49827
 N1401 N 0.40705 -0.07067 0.49987
 C1402 C 0.40968 -0.04698 0.50537
 N1403 N 0.38965 -0.03390 0.50913
 N1404 N 0.36784 -0.04405 0.50738
 C1405 C -0.16523 0.41275 0.99507
 N1406 N -0.18473 0.42680 0.99247
 N1407 N -0.20680 0.41716 0.99149
 C1408 C -0.21038 0.39307 0.99326
 N1409 N -0.19080 0.37898 0.99573
 N1410 N -0.16865 0.38861 0.99650
 C1411 C -0.14098 0.42381 0.99680
 N1412 N -0.12087 0.41051 0.99434
 N1413 N -0.09906 0.42087 0.99568
 C1414 C -0.09657 0.44485 0.99982
 N1415 N -0.11669 0.45805 1.00244
 N1416 N -0.13844 0.44775 1.00088
 C1417 C -0.15789 0.58113 0.50026
 N1418 N -0.17849 0.56778 0.49901
 N1419 N -0.19982 0.57821 0.50001
 C1420 C -0.20142 0.60241 0.50222
 N1421 N -0.18079 0.61578 0.50350
 N1422 N -0.15942 0.60533 0.50265
 C1423 C -0.13441 0.56947 0.49887
 N1424 N -0.11373 0.58202 0.50348
 N1425 N -0.09253 0.57126 0.50247
 C1426 C -0.09121 0.54761 0.49663
 N1427 N -0.11188 0.53512 0.49186
 N1428 N -0.13308 0.54584 0.49302
 C1429 C 0.34040 1.08237 0.00442
 N1430 N 0.32010 1.06855 0.00340
 N1431 N 0.29852 1.07849 0.00420
 C1432 C 0.29637 1.10266 0.00597
 N1433 N 0.31670 1.11651 0.00705
 N1434 N 0.33832 1.10655 0.00640
 C1435 C 0.36411 1.07122 0.00306
 N1436 N 0.38458 1.08418 0.00751
 N1437 N 0.40599 1.07383 0.00642
 C1438 C 0.40772 1.05020 0.00063
 N1439 N 0.38725 1.03732 -0.00396
 N1440 N 0.36586 1.04761 -0.00272
 C1441 C 0.00481 1.15836 1.07980
 N1442 N -0.00166 1.16022 1.10325
 N1443 N -0.00297 1.18160 1.11388
 C1444 C 0.00197 1.20195 1.10144
 N1445 N 0.00841 1.20012 1.07792
 N1446 N 0.00978 1.17867 1.06727
 C1447 C 0.00619 1.13468 1.06839
 N1448 N 0.01365 1.13221 1.04526
 N1449 N 0.01442 1.11058 1.03496
 C1450 C 0.00776 1.09069 1.04745
 N1451 N 0.00042 1.09319 1.07059
 N1452 N -0.00028 1.11478 1.08089
 C1453 C 0.50355 0.66343 0.58071
 N1454 N 0.49594 0.66549 0.60379
 N1455 N 0.49436 0.68693 0.61421
 C1456 C 0.50015 0.70717 0.60194
 N1457 N 0.50768 0.70517 0.57876
 N1458 N 0.50930 0.68364 0.56831
 C1459 C 0.50553 0.63962 0.56967
 N1460 N 0.51381 0.63692 0.54686
 N1461 N 0.51517 0.61516 0.53692
 C1462 C 0.50836 0.59537 0.54948
 N1463 N 0.50022 0.59809 0.57232
 N1464 N 0.49890 0.61981 0.58225
 C1465 C -0.00653 0.65844 0.42030
 N1466 N 0.00031 0.66032 0.39700
 N1467 N 0.00122 0.68155 0.38635
 C1468 C -0.00458 0.70178 0.39859
 N1469 N -0.01144 0.69998 0.42199
 N1470 N -0.01237 0.67863 0.43269
 C1471 C -0.00727 0.63485 0.43161
 N1472 N -0.01431 0.63213 0.45483
 N1473 N -0.01441 0.61052 0.46494
 C1474 C -0.00750 0.59096 0.45216
 N1475 N -0.00059 0.59371 0.42894
 N1476 N -0.00052 0.61526 0.41884
 C1477 C 0.48675 1.16091 -0.07807
 N1478 N 0.48984 1.16225 -0.10222
 N1479 N 0.49128 1.18341 -0.11300
 C1480 C 0.48975 1.20408 -0.10008
 N1481 N 0.48640 1.20281 -0.07588
 N1482 N 0.48489 1.18154 -0.06506
 C1483 C 0.48683 1.13743 -0.06643
 N1484 N 0.48272 1.13520 -0.04246
 N1485 N 0.48388 1.11381 -0.03200
 C1486 C 0.48934 1.09398 -0.04513
 N1487 N 0.49335 1.09623 -0.06909
 N1488 N 0.49207 1.11757 -0.07955
 C1489 C 0.50023 0.34005 -0.08094
 N1490 N 0.50015 0.32030 -0.06677
 N1491 N 0.49835 0.29841 -0.07646
 C1492 C 0.49668 0.29538 -0.10072
 N1493 N 0.49679 0.31515 -0.11490
 N1494 N 0.49841 0.33708 -0.10520
 C1495 C 0.50218 0.36415 -0.07003
 N1496 N 0.49812 0.38411 -0.08326
 N1497 N 0.49925 0.40583 -0.07302
 C1498 C 0.50474 0.40840 -0.04924
 N1499 N 0.50901 0.38844 -0.03613
 N1500 N 0.50771 0.36675 -0.04630
 C1501 C -0.00311 -0.16256 0.41761
 N1502 N -0.00312 -0.18239 0.43167
 N1503 N -0.00528 -0.20421 0.42188
 C1504 C -0.00746 -0.20708 0.39763
 N1505 N -0.00756 -0.18723 0.38358
 N1506 N -0.00556 -0.16537 0.39339
 C1507 C -0.00021 -0.13856 0.42856
 N1508 N -0.00380 -0.11845 0.41543
 N1509 N -0.00163 -0.09679 0.42565
 C1510 C 0.00449 -0.09443 0.44929
 N1511 N 0.00829 -0.11455 0.46232
 N1512 N 0.00596 -0.13618 0.45216
 C1513 C 0.50526 -0.15750 0.58206
 N1514 N 0.50728 -0.15990 0.60632
 N1515 N 0.50738 -0.18159 0.61630
 C1516 C 0.50569 -0.20170 0.60238
 N1517 N 0.50390 -0.19925 0.57810
 N1518 N 0.50364 -0.17759 0.56814
 C1519 C 0.50430 -0.13365 0.57096
 N1520 N 0.49831 -0.13147 0.54734
 N1521 N 0.49716 -0.10993 0.53720
 C1522 C 0.50206 -0.08973 0.55027
 N1523 N 0.50812 -0.09189 0.57389
 N1524 N 0.50911 -0.11345 0.58408
 C1525 C 0.00161 0.33640 1.07894
 N1526 N 0.00110 0.31596 1.06553
 N1527 N 0.00259 0.29463 1.07604
 C1528 C 0.00459 0.29289 1.10038
 N1529 N 0.00518 0.31337 1.11379
 N1530 N 0.00382 0.33473 1.10326
 C1531 C -0.00045 0.35989 1.06729
 N1532 N 0.00312 0.38047 1.08012
 N1533 N 0.00141 0.40173 1.06949
 C1534 C -0.00413 0.40323 1.04568
 N1535 N -0.00783 0.38264 1.03288
 N1536 N -0.00598 0.36137 1.04348
 C1537 C 0.75825 0.32879 0.08801
 N1538 N 0.77222 0.32253 0.06890
 N1539 N 0.76888 0.33250 0.04724
 C1540 C 0.75122 0.34880 0.04396
 N1541 N 0.73755 0.35485 0.06321
 N1542 N 0.74100 0.34521 0.08467
 C1543 C 0.76042 0.31796 0.11206
 N1544 N 0.74818 0.32776 0.13072
 N1545 N 0.74798 0.31753 0.15230
 C1546 C 0.75992 0.29693 0.15612
 N1547 N 0.77243 0.28714 0.13753
 N1548 N 0.77271 0.29748 0.11587
 C1549 C 0.26188 0.83402 0.59196
 N1550 N 0.27295 0.82442 0.57238
 N1551 N 0.27020 0.83407 0.55056
 C1552 C 0.25612 0.85353 0.54765
 N1553 N 0.24550 0.86321 0.56734
 N1554 N 0.24834 0.85372 0.58901
 C1555 C 0.26277 0.82273 0.61580
 N1556 N 0.25123 0.83303 0.63464
 N1557 N 0.25016 0.82228 0.65596
 C1558 C 0.26054 0.80072 0.65923
 N1559 N 0.27233 0.79049 0.64046
 N1560 N 0.27342 0.80128 0.61911
 C1561 C 0.75906 0.68625 0.58216
 N1562 N 0.74303 0.69280 0.56506
 N1563 N 0.74284 0.68222 0.54348
 C1564 C 0.75900 0.66508 0.53798
 N1565 N 0.77558 0.65908 0.55480
 N1566 N 0.77564 0.66952 0.57650
 C1567 C 0.75659 0.69508 0.60700
 N1568 N 0.76816 0.68420 0.62540
 N1569 N 0.76457 0.69113 0.64812
 C1570 C 0.74919 0.70909 0.65328
 N1571 N 0.73771 0.72003 0.63485
 N1572 N 0.74116 0.71300 0.61216
 C1573 C 0.25662 0.18736 0.08360
 N1574 N 0.27396 0.17163 0.07735
 N1575 N 0.27340 0.16072 0.05589
 C1576 C 0.25550 0.16520 0.03993
 N1577 N 0.23854 0.18136 0.04599
 N1578 N 0.23923 0.19243 0.06731
 C1579 C 0.25491 0.19656 0.10836
 N1580 N 0.23892 0.21384 0.11395
 N1581 N 0.23611 0.22105 0.13669
 C1582 C 0.24885 0.21088 0.15474
 N1583 N 0.26482 0.19357 0.14916
 N1584 N 0.26776 0.18650 0.12639
 C1585 C 0.26807 0.17401 0.91145
 N1586 N 0.25936 0.15119 0.91232
 N1587 N 0.25595 0.14037 0.93327
 C1588 C 0.26130 0.15180 0.95430
 N1589 N 0.27071 0.17446 0.95358
 N1590 N 0.27398 0.18544 0.93247
 C1591 C 0.26858 0.18614 0.88805
 N1592 N 0.27438 0.20983 0.88584
 N1593 N 0.27247 0.22064 0.86451
 C1594 C 0.26450 0.20815 0.84480
 N1595 N 0.25900 0.18451 0.84710
 N1596 N 0.26099 0.17376 0.86826
 C1597 C 0.77127 0.67626 0.40944
 N1598 N 0.76297 0.65328 0.41001
 N1599 N 0.75949 0.64222 0.43083
 C1600 C 0.76438 0.65355 0.45201
 N1601 N 0.77338 0.67638 0.45160
 N1602 N 0.77671 0.68760 0.43062
 C1603 C 0.77176 0.68860 0.38612
 N1604 N 0.77715 0.71241 0.38409
 N1605 N 0.77511 0.72334 0.36281
 C1606 C 0.76743 0.71083 0.34300
 N1607 N 0.76238 0.68709 0.34514
 N1608 N 0.76450 0.67622 0.36622
 C1609 C 0.26016 0.81386 0.41840
 N1610 N 0.24294 0.80767 0.43456
 N1611 N 0.24137 0.81926 0.45554
 C1612 C 0.25726 0.83713 0.46144
 N1613 N 0.27497 0.84284 0.44560
 N1614 N 0.27643 0.83138 0.42448
 C1615 C 0.25920 0.80379 0.39380
 N1616 N 0.27199 0.81411 0.37570
 N1617 N 0.26934 0.80637 0.35303
 C1618 C 0.25377 0.78805 0.34760
 N1619 N 0.24118 0.77758 0.36573
 N1620 N 0.24371 0.78542 0.38836
 C1621 C 0.75220 0.30847 0.91985
 N1622 N 0.73010 0.31217 0.92908
 N1623 N 0.72752 0.32468 0.94932
 C1624 C 0.74688 0.33363 0.96163
 N1625 N 0.76922 0.32896 0.95305
 N1626 N 0.77182 0.31684 0.93232
 C1627 C 0.75393 0.29764 0.89564
 N1628 N 0.73651 0.28196 0.88798
 N1629 N 0.73567 0.27445 0.86515
 C1630 C 0.75186 0.28279 0.84887
 N1631 N 0.76939 0.29843 0.85650
 N1632 N 0.77042 0.30570 0.87948
 C1633 C 0.81094 0.41844 0.25735
 N1634 N 0.82835 0.42505 0.27345
 N1635 N 0.83894 0.44667 0.27231
 C1636 C 0.83242 0.46251 0.25510
 N1637 N 0.81459 0.45608 0.23943
 N1638 N 0.80387 0.43458 0.24069
 C1639 C 0.80200 0.39346 0.25594
 N1640 N 0.78365 0.38729 0.24076
 N1641 N 0.77669 0.36443 0.23808
 C1642 C 0.78810 0.34680 0.25014
 N1643 N 0.80646 0.35297 0.26531
 N1644 N 0.81331 0.37586 0.26812
 C1645 C 0.31240 0.91896 0.75989
 N1646 N 0.30641 0.93497 0.74268
 N1647 N 0.31776 0.95615 0.74144
 C1648 C 0.33514 0.96239 0.75768
 N1649 N 0.34061 0.94669 0.77538
 N1650 N 0.32941 0.92537 0.77650
 C1651 C 0.30273 0.89425 0.75866
 N1652 N 0.31337 0.87643 0.77115
 N1653 N 0.30592 0.85371 0.76844
 C1654 C 0.28759 0.84794 0.75308
 N1655 N 0.27682 0.86578 0.74075
 N1656 N 0.28439 0.88847 0.74333
 C1657 C 0.17449 0.91061 0.26675
 N1658 N 0.15187 0.91156 0.25773
 N1659 N 0.14139 0.93246 0.25431
 C1660 C 0.15299 0.95334 0.25996
 N1661 N 0.17545 0.95254 0.26967
 N1662 N 0.18608 0.93147 0.27295
 C1663 C 0.18629 0.88726 0.26737
 N1664 N 0.20981 0.88495 0.27359
 N1665 N 0.22036 0.86364 0.27190
 C1666 C 0.20775 0.84406 0.26375
 N1667 N 0.18427 0.84646 0.25780
 N1668 N 0.17378 0.86760 0.25957
 C1669 C 0.67500 0.40888 0.76908
 N1670 N 0.68661 0.42974 0.77529
 N1671 N 0.67605 0.45084 0.77193
 C1672 C 0.65363 0.45171 0.76211
 N1673 N 0.64202 0.43084 0.75643
 N1674 N 0.65243 0.40990 0.75993
 C1675 C 0.68671 0.38545 0.76987
 N1676 N 0.67408 0.36577 0.76230
 N1677 N 0.68449 0.34459 0.76056
 C1678 C 0.70802 0.34211 0.76630
 N1679 N 0.72075 0.36171 0.77426
 N1680 N 0.71028 0.38307 0.77594
 C1681 C 0.68773 0.58214 0.75779
 N1682 N 0.69428 0.56544 0.74131
 N1683 N 0.68381 0.54380 0.74097
 C1684 C 0.66676 0.53781 0.75741
 N1685 N 0.66076 0.55423 0.77443
 N1686 N 0.67111 0.57600 0.77465
 C1687 C 0.69643 0.60707 0.75553
 N1688 N 0.68571 0.62504 0.76786
 N1689 N 0.69248 0.64782 0.76447
 C1690 C 0.71013 0.65348 0.74853
 N1691 N 0.72092 0.63548 0.73628
 N1692 N 0.71405 0.61273 0.73957
 C1693 C 0.18719 0.08343 0.25642
 N1694 N 0.19344 0.06705 0.23950
 N1695 N 0.18281 0.04548 0.23883
 C1696 C 0.16593 0.03928 0.25535
 N1697 N 0.16024 0.05537 0.27279
 N1698 N 0.17072 0.07707 0.27334
 C1699 C 0.19603 0.10831 0.25461
 N1700 N 0.18512 0.12616 0.26695
 N1701 N 0.19202 0.14895 0.26397
 C1702 C 0.21001 0.15474 0.24846
 N1703 N 0.22100 0.13687 0.23621
 N1704 N 0.21397 0.11410 0.23906
 C1705 C 0.33089 0.09234 0.76170
 N1706 N 0.35166 0.08970 0.74944
 N1707 N 0.36144 0.06827 0.74715
 C1708 C 0.35099 0.04854 0.75709
 N1709 N 0.33044 0.05114 0.76994
 N1710 N 0.32051 0.07272 0.77214
 C1711 C 0.31948 0.11590 0.76191
 N1712 N 0.29745 0.11906 0.77174
 N1713 N 0.28681 0.14026 0.77031
 C1714 C 0.29777 0.15899 0.75894
 N1715 N 0.31985 0.15584 0.74929
 N1716 N 0.33046 0.13468 0.75072
 C1717 C 0.82988 0.59310 0.25881
 N1718 N 0.85029 0.59007 0.24604
 N1719 N 0.85964 0.56846 0.24356
 C1720 C 0.84911 0.54892 0.25380
 N1721 N 0.82893 0.55192 0.26714
 N1722 N 0.81943 0.57367 0.26954
 C1723 C 0.81890 0.61688 0.25928
 N1724 N 0.79719 0.62047 0.26966
 N1725 N 0.78691 0.64187 0.26847
 C1726 C 0.79792 0.66039 0.25679
 N1727 N 0.81967 0.65680 0.24658
 N1728 N 0.82992 0.63545 0.24778
 C1729 C 0.91118 0.26734 0.17192
 N1730 N 0.91217 0.25678 0.14990
 N1731 N 0.93315 0.25232 0.13964
 C1732 C 0.95411 0.25841 0.15085
 N1733 N 0.95329 0.26959 0.17269
 N1734 N 0.93214 0.27389 0.18313
 C1735 C 0.88761 0.26931 0.18364
 N1736 N 0.86771 0.26214 0.17118
 N1737 N 0.84636 0.26106 0.18179
 C1738 C 0.84396 0.26713 0.20534
 N1739 N 0.86378 0.27479 0.21785
 N1740 N 0.88528 0.27582 0.20718
 C1741 C 0.41005 0.77171 0.67312
 N1742 N 0.43101 0.77695 0.68494
 N1743 N 0.45217 0.77319 0.67429
 C1744 C 0.45297 0.76391 0.65158
 N1745 N 0.43202 0.75921 0.63976
 N1746 N 0.41104 0.76312 0.65025
 C1747 C 0.38650 0.77269 0.68500
 N1748 N 0.36662 0.76603 0.67223
 N1749 N 0.34532 0.76411 0.68285
 C1750 C 0.34296 0.76878 0.70672
 N1751 N 0.36275 0.77591 0.71956
 N1752 N 0.38421 0.77776 0.70889
 C1753 C 0.41774 0.26103 0.81227
 N1754 N 0.42421 0.27706 0.82979
 N1755 N 0.44514 0.27514 0.84140
 C1756 C 0.46036 0.25717 0.83585
 N1757 N 0.45410 0.24151 0.81796
 N1758 N 0.43332 0.24355 0.80622
 C1759 C 0.39322 0.26048 0.80223
 N1760 N 0.38739 0.24526 0.78383
 N1761 N 0.36472 0.24294 0.77618
 C1762 C 0.34694 0.25549 0.78689
 N1763 N 0.35277 0.27082 0.80522
 N1764 N 0.37548 0.27326 0.81277
 C1765 C 0.91956 0.75571 0.30966
 N1766 N 0.92843 0.73363 0.31352
 N1767 N 0.94846 0.73097 0.32623
 C1768 C 0.96086 0.75025 0.33524
 N1769 N 0.95262 0.77256 0.33046
 N1770 N 0.93212 0.77522 0.31812
 C1771 C 0.89565 0.75752 0.29854
 N1772 N 0.87980 0.77419 0.30615
 N1773 N 0.85694 0.77324 0.29865
 C1774 C 0.84919 0.75563 0.28326
 N1775 N 0.86517 0.73928 0.27537
 N1776 N 0.88787 0.74005 0.28308
 C1777 C 0.08934 0.76410 0.33112
 N1778 N 0.08698 0.75598 0.35393
 N1779 N 0.06535 0.75307 0.36363
 C1780 C 0.04515 0.75827 0.35104
 N1781 N 0.04742 0.76717 0.32843
 N1782 N 0.06920 0.77003 0.31862
 C1783 C 0.11320 0.76396 0.31983
 N1784 N 0.11640 0.77094 0.29667
 N1785 N 0.13783 0.76899 0.28623
 C1786 C 0.15677 0.75980 0.29846
 N1787 N 0.15358 0.75295 0.32164
 N1788 N 0.13220 0.75498 0.33209
 C1789 C 0.59008 0.25757 0.83108
 N1790 N 0.58670 0.24388 0.85085
 N1791 N 0.56512 0.24182 0.86081
 C1792 C 0.54596 0.25341 0.85156
 N1793 N 0.54933 0.26760 0.83200
 N1794 N 0.57104 0.26958 0.82187
 C1795 C 0.61380 0.25794 0.81953
 N1796 N 0.61758 0.26908 0.79817
 N1797 N 0.63896 0.26797 0.78743
 C1798 C 0.65724 0.25564 0.79761
 N1799 N 0.65345 0.24467 0.81901
 N1800 N 0.63213 0.24577 0.82972
 C1801 C 0.58309 0.75680 0.68563
 N1802 N 0.56607 0.74031 0.69188
 N1803 N 0.54446 0.74025 0.68148
 C1804 C 0.53884 0.75699 0.66483
 N1805 N 0.55558 0.77401 0.65916
 N1806 N 0.57731 0.77395 0.66941
 C1807 C 0.60792 0.75438 0.69426
 N1808 N 0.62623 0.76666 0.68358
 N1809 N 0.64892 0.76328 0.69039
 C1810 C 0.65416 0.74740 0.70802
 N1811 N 0.63584 0.73518 0.71874
 N1812 N 0.61317 0.73844 0.71182
 C1813 C 0.08363 0.25504 0.18605
 N1814 N 0.06731 0.23757 0.19146
 N1815 N 0.04604 0.23658 0.18041
 C1816 C 0.04002 0.25331 0.16388
 N1817 N 0.05602 0.27127 0.15900
 N1818 N 0.07745 0.27214 0.16992
 C1819 C 0.10831 0.25377 0.19549
 N1820 N 0.12633 0.26712 0.18561
 N1821 N 0.14899 0.26462 0.19298
 C1822 C 0.15448 0.24862 0.21043
 N1823 N 0.13643 0.23538 0.22040
 N1824 N 0.11380 0.23776 0.21292
 C1825 C -0.07902 0.99537 0.83887
 N1826 N -0.06685 0.99162 0.81804
 N1827 N -0.07799 0.99333 0.79681
 C1828 C -0.10167 0.99888 0.79573
 N1829 N -0.11375 1.00251 0.81660
 N1830 N -0.10263 1.00087 0.83774
 C1831 C -0.06715 0.99390 0.86237
 N1832 N -0.07936 0.99991 0.88257
 N1833 N -0.06881 0.99911 0.90408
 C1834 C -0.04567 0.99212 0.90621
 N1835 N -0.03343 0.98594 0.88602
 N1836 N -0.04399 0.98684 0.86444
 C1837 C 0.42199 0.50223 0.34089
 N1838 N 0.39887 0.50938 0.33931
 N1839 N 0.38781 0.51021 0.31806
 C1840 C 0.39948 0.50409 0.29756
 N1841 N 0.42269 0.49703 0.29910
 N1842 N 0.43377 0.49614 0.32041
 C1843 C 0.43367 0.50079 0.36450
 N1844 N 0.45630 0.49233 0.36679
 N1845 N 0.46667 0.49104 0.38842
 C1846 C 0.45473 0.49813 0.40848
 N1847 N 0.43211 0.50654 0.40615
 N1848 N 0.42175 0.50779 0.38456
 C1849 C 0.57934 0.00503 0.34118
 N1850 N 0.56743 0.01159 0.32091
 N1851 N 0.57794 0.00993 0.29941
 C1852 C 0.60064 0.00151 0.29751
 N1853 N 0.61236 -0.00517 0.31782
 N1854 N 0.60190 -0.00350 0.33922
 C1855 C 0.56840 0.00715 0.36501
 N1856 N 0.58103 0.00077 0.38485
 N1857 N 0.57126 0.00216 0.40663
 C1858 C 0.54852 0.01008 0.40937
 N1859 N 0.53590 0.01665 0.38954
 N1860 N 0.54570 0.01527 0.36771
 C1861 C 0.07747 0.50838 0.83821
 N1862 N 0.06500 0.51125 0.81734
 N1863 N 0.07617 0.51009 0.79614
 C1864 C 0.10016 0.50603 0.79516
 N1865 N 0.11255 0.50343 0.81606
 N1866 N 0.10143 0.50455 0.83717
 C1867 C 0.06540 0.50823 0.86159
 N1868 N 0.07795 0.50258 0.88173
 N1869 N 0.06709 0.50137 0.90300
 C1870 C 0.04329 0.50584 0.90493
 N1871 N 0.03073 0.51169 0.88482
 N1872 N 0.04159 0.51281 0.86348
 C1873 C 0.08120 0.49954 0.65888
 N1874 N 0.10546 0.50099 0.66167
 N1875 N 0.11528 0.50227 0.68362
 C1876 C 0.10122 0.50238 0.70358
 N1877 N 0.07696 0.50110 0.70073
 N1878 N 0.06715 0.49965 0.67882
 C1879 C 0.07017 0.49771 0.63479
 N1880 N 0.04634 0.49255 0.63240
 N1881 N 0.03613 0.49106 0.61067
 C1882 C 0.04934 0.49479 0.59049
 N1883 N 0.07321 0.49996 0.59284
 N1884 N 0.08346 0.50128 0.61460
 C1885 C 0.58178 1.00498 0.16156
 N1886 N 0.60606 1.00651 0.16422
 N1887 N 0.61602 1.00751 0.18613
 C1888 C 0.60208 1.00726 0.20619
 N1889 N 0.57781 1.00600 0.20345
 N1890 N 0.56786 1.00485 0.18159
 C1891 C 0.57060 1.00297 0.13753
 N1892 N 0.54680 0.99751 0.13534
 N1893 N 0.53648 0.99562 0.11369
 C1894 C 0.54953 0.99919 0.09337
 N1895 N 0.57336 1.00466 0.09553
 N1896 N 0.58373 1.00640 0.11721
 C1897 C 0.41878 0.49769 0.16221
 N1898 N 0.43251 0.49946 0.18242
 N1899 N 0.42241 0.49906 0.20413
 C1900 C 0.39817 0.49696 0.20651
 N1901 N 0.38441 0.49511 0.18628
 N1902 N 0.39453 0.49536 0.16452
 C1903 C 0.43011 0.49876 0.13834
 N1904 N 0.41724 0.49378 0.11800
 N1905 N 0.42770 0.49477 0.09644
 C1906 C 0.45134 0.50099 0.09441
 N1907 N 0.46414 0.50607 0.11474
 N1908 N 0.45374 0.50492 0.13629
 C1909 C -0.08168 -0.00154 0.66022
 N1910 N -0.06813 0.00004 0.68056
 N1911 N -0.07844 -0.00017 0.70215
 C1912 C -0.10273 -0.00184 0.70432
 N1913 N -0.11634 -0.00337 0.68396
 N1914 N -0.10599 -0.00332 0.66230
 C1915 C -0.06999 -0.00116 0.63648
 N1916 N -0.08261 -0.00635 0.61604
 N1917 N -0.07175 -0.00619 0.59466
 C1918 C -0.04792 -0.00067 0.59290
 N1919 N -0.03536 0.00463 0.61333
 N1920 N -0.04617 0.00431 0.63470
 C1921 C -0.16239 0.92094 1.00037
 N1922 N -0.18222 0.93328 0.99396
 N1923 N -0.20393 0.92281 0.99461
 C1924 C -0.20651 0.89966 1.00175
 N1925 N -0.18664 0.88743 1.00823
 N1926 N -0.16500 0.89789 1.00763
 C1927 C -0.13839 0.93196 0.99910
 N1928 N -0.11890 0.91950 1.00621
 N1929 N -0.09696 0.92930 1.00502
 C1930 C -0.09374 0.95187 0.99653
 N1931 N -0.11323 0.96433 0.98933
 N1932 N -0.13520 0.95453 0.99057
 C1933 C 0.33925 0.42369 0.50292
 N1934 N 0.31911 0.43550 0.49641
 N1935 N 0.29765 0.42448 0.49705
 C1936 C 0.29563 0.40131 0.50429
 N1937 N 0.31580 0.38962 0.51086
 N1938 N 0.33718 0.40062 0.51027
 C1939 C 0.36303 0.43524 0.50163
 N1940 N 0.38277 0.42314 0.50867
 N1941 N 0.40453 0.43334 0.50743
 C1942 C 0.40734 0.45597 0.49899
 N1943 N 0.38759 0.46810 0.49188
 N1944 N 0.36579 0.45789 0.49315
 C1945 C 0.33722 0.57532 0.00781
 N1946 N 0.31653 0.56228 0.01062
 N1947 N 0.29521 0.57289 0.00964
 C1948 C 0.29395 0.59689 0.00588
 N1949 N 0.31467 0.60981 0.00331
 N1950 N 0.33586 0.59925 0.00423
 C1951 C 0.36082 0.56406 0.00785
 N1952 N 0.38070 0.57732 0.00230
 N1953 N 0.40227 0.56739 0.00177
 C1954 C 0.40476 0.54383 0.00687
 N1955 N 0.38488 0.53053 0.01254
 N1956 N 0.36325 0.54046 0.01296
 C1957 C -0.15983 0.07527 0.50495
 N1958 N -0.18091 0.06345 0.50944
 N1959 N -0.20172 0.07501 0.50855
 C1960 C -0.20210 0.09878 0.50314
 N1961 N -0.18090 0.11040 0.49880
 N1962 N -0.16024 0.09890 0.49965
 C1963 C -0.13671 0.06317 0.50531
 N1964 N -0.11652 0.07563 0.49915
 N1965 N -0.09526 0.06514 0.49905
 C1966 C -0.09337 0.04177 0.50517
 N1967 N -0.11354 0.02922 0.51143
 N1968 N -0.13490 0.03975 0.51148
 C1969 C 0.66393 0.08510 0.50105
 N1970 N 0.66744 0.10926 0.50006
 N1971 N 0.68962 0.11883 0.50124
 C1972 C 0.70911 0.10463 0.50372
 N1973 N 0.70543 0.08051 0.50503
 N1974 N 0.68336 0.07095 0.50363
 C1975 C 0.63968 0.07410 0.49910
 N1976 N 0.63713 0.05020 0.49472
 N1977 N 0.61539 0.03986 0.49336
 C1978 C 0.59528 0.05297 0.49648
 N1979 N 0.59778 0.07692 0.50084
 N1980 N 0.61958 0.08732 0.50198
 C1981 C 0.15726 0.57798 0.99806
 N1982 N 0.16047 0.60209 1.00043
 N1983 N 0.18254 0.61173 1.00225
 C1984 C 0.20223 0.59763 1.00201
 N1985 N 0.19896 0.57352 0.99981
 N1986 N 0.17693 0.56390 0.99783
 C1987 C 0.13300 0.56713 0.99575
 N1988 N 0.13027 0.54360 0.98974
 N1989 N 0.10846 0.53347 0.98808
 C1990 C 0.08847 0.54643 0.99244
 N1991 N 0.09115 0.57002 0.99840
 N1992 N 0.11301 0.58021 0.99990
 C1993 C 0.16079 0.41986 0.49505
 N1994 N 0.18100 0.43373 0.49691
 N1995 N 0.20261 0.42384 0.49697
 C1996 C 0.20489 0.39968 0.49528
 N1997 N 0.18465 0.38578 0.49332
 N1998 N 0.16299 0.39570 0.49311
 C1999 C 0.13700 0.43093 0.49581
 N2000 N 0.11669 0.41789 0.49092
 N2001 N 0.09519 0.42808 0.49183
 C2002 C 0.09323 0.45163 0.49785
 N2003 N 0.11354 0.46462 0.50281
 N2004 N 0.13502 0.45448 0.50175
 C2005 C 0.65925 0.92184 -0.00470
 N2006 N 0.66077 0.89765 -0.00709
 N2007 N 0.68214 0.88717 -0.00769
 C2008 C 0.70276 0.90050 -0.00615
 N2009 N 0.70117 0.92471 -0.00401
 N2010 N 0.67985 0.93518 -0.00326
 C2011 C 0.63577 0.93343 -0.00315
 N2012 N 0.63435 0.95699 0.00300
 N2013 N 0.61308 0.96751 0.00466
 C2014 C 0.59245 0.95488 0.00013
 N2015 N 0.59388 0.93133 -0.00607
 N2016 N 0.61514 0.92077 -0.00758
 C2017 C 0.00009 0.83555 0.92299
 N2018 N -0.00596 0.81527 0.93516
 N2019 N -0.00531 0.79390 0.92423
 C2020 C 0.00145 0.79213 0.90079
 N2021 N 0.00753 0.81243 0.88875
 N2022 N 0.00694 0.83371 0.89965
 C2023 C -0.00107 0.85925 0.93440
 N2024 N 0.00569 0.87902 0.92185
 N2025 N 0.00463 0.90073 0.93184
 C2026 C -0.00336 0.90348 0.95473
 N2027 N -0.01020 0.88371 0.96732
 N2028 N -0.00910 0.86195 0.95732
 C2029 C 0.50095 0.34089 0.42356
 N2030 N 0.49567 0.32049 0.43584
 N2031 N 0.49650 0.29917 0.42486
 C2032 C 0.50269 0.29754 0.40124
 N2033 N 0.50800 0.31797 0.38908
 N2034 N 0.50722 0.33922 0.40004
 C2035 C 0.49966 0.36451 0.43514
 N2036 N 0.50587 0.38447 0.42261
 N2037 N 0.50476 0.40606 0.43283
 C2038 C 0.49729 0.40852 0.45594
 N2039 N 0.49098 0.38857 0.46850
 N2040 N 0.49213 0.36692 0.45826
 C2041 C 0.00791 0.33750 0.57550
 N2042 N 0.01143 0.31689 0.56286
 N2043 N 0.01049 0.29571 0.57390
 C2044 C 0.00604 0.29451 0.59792
 N2045 N 0.00276 0.31516 0.61046
 N2046 N 0.00365 0.33623 0.59947
 C2047 C 0.00783 0.36088 0.56373
 N2048 N 0.00194 0.38067 0.57664
 N2049 N 0.00121 0.40204 0.56623
 C2050 C 0.00640 0.40442 0.54251
 N2051 N 0.01240 0.38465 0.52956
 N2052 N 0.01305 0.36321 0.53998
 C2053 C 0.50636 0.84056 0.07823
 N2054 N 0.50174 0.83905 0.10212
 N2055 N 0.50081 0.81789 0.11292
 C2056 C 0.50441 0.79735 0.10028
 N2057 N 0.50916 0.79878 0.07632
 N2058 N 0.51014 0.82006 0.06548
 C2059 C 0.50659 0.86407 0.06667
 N2060 N 0.51207 0.86655 0.04299
 N2061 N 0.51176 0.88809 0.03274
 C2062 C 0.50588 0.90784 0.04580
 N2063 N 0.50045 0.90531 0.06945
 N2064 N 0.50083 0.88383 0.07969
 C2065 C 0.50084 0.66141 0.08096
 N2066 N 0.50233 0.66429 0.10525
 N2067 N 0.50353 0.68618 0.11508
 C2068 C 0.50352 0.70601 0.10099
 N2069 N 0.50223 0.70307 0.07670
 N2070 N 0.50087 0.68121 0.06688
 C2071 C 0.49896 0.63732 0.06999
 N2072 N 0.49381 0.63471 0.04617
 N2073 N 0.49218 0.61298 0.03608
 C2074 C 0.49574 0.59301 0.04941
 N2075 N 0.50090 0.59561 0.07325
 N2076 N 0.50237 0.61736 0.08338
 C2077 C 0.00204 0.15850 0.57961
 N2078 N 0.00316 0.16154 0.60390
 N2079 N 0.00414 0.18351 0.61358
 C2080 C 0.00428 0.20323 0.59934
 N2081 N 0.00335 0.20013 0.57505
 N2082 N 0.00220 0.17820 0.56538
 C2083 C 0.00037 0.13438 0.56875
 N2084 N -0.00461 0.13169 0.54491
 N2085 N -0.00608 0.10994 0.53488
 C2086 C -0.00253 0.09003 0.54828
 N2087 N 0.00248 0.09269 0.57215
 N2088 N 0.00379 0.11447 0.58222
 C2089 C 0.50074 0.16279 0.42148
 N2090 N 0.50206 0.18308 0.43511
 N2091 N 0.50063 0.20456 0.42492
 C2092 C 0.49787 0.20665 0.40069
 N2093 N 0.49650 0.18634 0.38704
 N2094 N 0.49779 0.16481 0.39726
 C2095 C 0.50262 0.13914 0.43288
 N2096 N 0.49808 0.11869 0.42011
 N2097 N 0.49940 0.09734 0.43066
 C2098 C 0.50551 0.09563 0.45432
 N2099 N 0.51023 0.11608 0.46703
 N2100 N 0.50877 0.13743 0.45652
 C2101 C -0.00387 0.65684 0.91902
 N2102 N -0.00642 0.65938 0.89481
 N2103 N -0.00704 0.68114 0.88501
 C2104 C -0.00535 0.70117 0.89905
 N2105 N -0.00301 0.69856 0.92326
 N2106 N -0.00225 0.67684 0.93305
 C2107 C -0.00255 0.63293 0.93000
 N2108 N 0.00348 0.63072 0.95361
 N2109 N 0.00459 0.60917 0.96374
 C2110 C -0.00036 0.58899 0.95068
 N2111 N -0.00639 0.59118 0.92704
 N2112 N -0.00736 0.61274 0.91686
 C2113 C 0.23856 0.66674 0.90883
 N2114 N 0.25140 0.64651 0.91128
 N2115 N 0.25380 0.63634 0.93268
 C2116 C 0.24340 0.64583 0.95258
 N2117 N 0.23001 0.66584 0.95016
 N2118 N 0.22770 0.67618 0.92861
 C2119 C 0.23805 0.67855 0.88524
 N2120 N 0.22769 0.70019 0.88219
 N2121 N 0.22882 0.71115 0.86091
 C2122 C 0.24040 0.70091 0.84201
 N2123 N 0.25057 0.67922 0.84507
 N2124 N 0.24944 0.66830 0.86628
 C2125 C 0.74277 0.17043 0.41037
 N2126 N 0.75968 0.15369 0.41373
 N2127 N 0.76255 0.14359 0.43505
 C2128 C 0.74860 0.14948 0.45415
 N2129 N 0.73127 0.16613 0.45085
 N2130 N 0.72851 0.17655 0.42932
 C2131 C 0.74116 0.18155 0.38640
 N2132 N 0.72886 0.20200 0.38244
 N2133 N 0.72940 0.21234 0.36078
 C2134 C 0.74219 0.20260 0.34237
 N2135 N 0.75420 0.18207 0.34636
 N2136 N 0.75374 0.17184 0.36792
 C2137 C 0.24801 0.31625 0.41902
 N2138 N 0.26584 0.31209 0.43511
 N2139 N 0.26601 0.32293 0.45655
 C2140 C 0.24811 0.33792 0.46294
 N2141 N 0.22983 0.34149 0.44717
 N2142 N 0.22979 0.33084 0.42557
 C2143 C 0.24983 0.30716 0.39423
 N2144 N 0.23658 0.31693 0.37634
 N2145 N 0.23927 0.30974 0.35358
 C2146 C 0.25534 0.29257 0.34785
 N2147 N 0.26852 0.28271 0.36576
 N2148 N 0.26599 0.29007 0.38851
 C2149 C 0.74497 0.81526 0.91690
 N2150 N 0.72720 0.83067 0.92272
 N2151 N 0.72697 0.84152 0.94421
 C2152 C 0.74451 0.83730 0.96063
 N2153 N 0.76192 0.82146 0.95498
 N2154 N 0.76202 0.81046 0.93363
 C2155 C 0.74731 0.80600 0.89221
 N2156 N 0.76330 0.78857 0.88704
 N2157 N 0.76639 0.78109 0.86440
 C2158 C 0.75396 0.79115 0.84607
 N2159 N 0.73807 0.80865 0.85126
 N2160 N 0.73483 0.81597 0.87389
 C2161 C 0.72479 0.82779 0.08836
 N2162 N 0.72197 0.81560 0.06717
 N2163 N 0.72615 0.82653 0.04620
 C2164 C 0.73340 0.84993 0.04581
 N2165 N 0.73560 0.86212 0.06694
 N2166 N 0.73128 0.85132 0.08775
 C2167 C 0.72413 0.81571 0.11178
 N2168 N 0.72978 0.82863 0.13187
 N2169 N 0.73239 0.81794 0.15300
 C2170 C 0.72943 0.79386 0.15497
 N2171 N 0.72325 0.78083 0.13499
 N2172 N 0.72076 0.79158 0.11370
 C2173 C 0.22739 0.32733 0.59039
 N2174 N 0.23476 0.35062 0.59022
 N2175 N 0.23939 0.36169 0.56961
 C2176 C 0.23663 0.35001 0.54825
 N2177 N 0.22854 0.32686 0.54821
 N2178 N 0.22407 0.31565 0.56899
 C2179 C 0.22600 0.31495 0.61364
 N2180 N 0.22226 0.29083 0.61522
 N2181 N 0.22403 0.27982 0.63646
 C2182 C 0.22978 0.29257 0.65674
 N2183 N 0.23308 0.31664 0.65509
 N2184 N 0.23121 0.32758 0.63401
 C2185 C 0.74799 0.18818 0.57873
 N2186 N 0.72816 0.18017 0.56637
 N2187 N 0.73040 0.16825 0.54547
 C2188 C 0.75259 0.16343 0.53660
 N2189 N 0.77217 0.17207 0.54879
 N2190 N 0.76995 0.18437 0.56920
 C2191 C 0.74665 0.19870 0.60311
 N2192 N 0.76451 0.21377 0.61098
 N2193 N 0.76549 0.22107 0.63389
 C2194 C 0.74900 0.21307 0.65003
 N2195 N 0.73105 0.19801 0.64220
 N2196 N 0.72988 0.19096 0.61916
 C2197 C 0.24065 0.68384 0.08180
 N2198 N 0.25808 0.68944 0.06566
 N2199 N 0.25925 0.67781 0.04467
 C2200 C 0.24275 0.66050 0.03874
 N2201 N 0.22486 0.65538 0.05457
 N2202 N 0.22380 0.66688 0.07570
 C2203 C 0.24182 0.69392 0.10638
 N2204 N 0.22882 0.68381 0.12443
 N2205 N 0.23135 0.69166 0.14706
 C2206 C 0.24702 0.70989 0.15252
 N2207 N 0.25988 0.72013 0.13444
 N2208 N 0.25747 0.71216 0.11183
 C2209 C 0.18829 0.58053 0.73937
 N2210 N 0.17117 0.57394 0.72295
 N2211 N 0.15960 0.55286 0.72469
 C2212 C 0.16476 0.53761 0.74288
 N2213 N 0.18224 0.54402 0.75894
 N2214 N 0.19397 0.56494 0.75707
 C2215 C 0.19828 0.60513 0.73999
 N2216 N 0.21676 0.61100 0.75511
 N2217 N 0.22439 0.63369 0.75744
 C2218 C 0.21356 0.65144 0.74503
 N2219 N 0.19514 0.64557 0.72983
 N2220 N 0.18763 0.62285 0.72736
 C2221 C 0.68994 0.07896 0.24539
 N2222 N 0.68132 0.06717 0.22548
 N2223 N 0.66913 0.04639 0.22760
 C2224 C 0.66464 0.03707 0.24975
 N2225 N 0.67387 0.04868 0.26941
 N2226 N 0.68644 0.06900 0.26727
 C2227 C 0.70064 0.10320 0.24425
 N2228 N 0.71585 0.11083 0.26202
 N2229 N 0.72326 0.13364 0.26327
 C2230 C 0.71526 0.14987 0.24715
 N2231 N 0.70010 0.14226 0.22927
 N2232 N 0.69292 0.11932 0.22783
 C2233 C 0.82423 0.08805 0.73460
 N2234 N 0.84014 0.08598 0.75293
 N2235 N 0.85094 0.06540 0.75702
 C2236 C 0.84666 0.04590 0.74281
 N2237 N 0.83076 0.04787 0.72418
 N2238 N 0.81958 0.06859 0.72024
 C2239 C 0.81305 0.11150 0.73121
 N2240 N 0.82433 0.13100 0.74097
 N2241 N 0.81395 0.15222 0.74107
 C2242 C 0.79169 0.15495 0.73158
 N2243 N 0.78035 0.13554 0.72134
 N2244 N 0.79089 0.11412 0.72113
 C2245 C 0.32548 0.59017 0.23115
 N2246 N 0.34854 0.59018 0.23914
 N2247 N 0.35955 0.56974 0.24356
 C2248 C 0.34808 0.54836 0.23995
 N2249 N 0.32516 0.54816 0.23128
 N2250 N 0.31399 0.56877 0.22703
 C2251 C 0.31314 0.61322 0.22965
 N2252 N 0.28910 0.61466 0.22537
 N2253 N 0.27813 0.63577 0.22685
 C2254 C 0.29084 0.65605 0.23283
 N2255 N 0.31483 0.65451 0.23669
 N2256 N 0.32574 0.63358 0.23513
 C2257 C 0.31445 0.41905 0.24984
 N2258 N 0.30981 0.43516 0.26755
 N2259 N 0.32060 0.45666 0.26768
 C2260 C 0.33604 0.46305 0.24986
 N2261 N 0.34009 0.44723 0.23169
 N2262 N 0.32947 0.42560 0.23168
 C2263 C 0.30540 0.39424 0.25175
 N2264 N 0.31552 0.37648 0.23861
 N2265 N 0.30838 0.35375 0.24138
 C2266 C 0.29090 0.34789 0.25743
 N2267 N 0.28070 0.36566 0.27052
 N2268 N 0.28801 0.38839 0.26791
 C2269 C 0.81388 0.91798 0.74468
 N2270 N 0.80707 0.93493 0.76078
 N2271 N 0.81757 0.95658 0.76094
 C2272 C 0.83488 0.96231 0.74468
 N2273 N 0.84113 0.94562 0.72804
 N2274 N 0.83076 0.92386 0.72799
 C2275 C 0.80515 0.89308 0.74710
 N2276 N 0.81627 0.87501 0.73529
 N2277 N 0.80935 0.85228 0.73860
 C2278 C 0.79116 0.84672 0.75396
 N2279 N 0.78000 0.86480 0.76573
 N2280 N 0.78703 0.88753 0.76255
 C2281 C 0.66916 0.91009 0.23350
 N2282 N 0.64662 0.91154 0.24244
 N2283 N 0.63655 0.93271 0.24577
 C2284 C 0.64846 0.95337 0.24020
 N2285 N 0.67080 0.95202 0.23051
 N2286 N 0.68100 0.93070 0.22723
 C2287 C 0.68088 0.88664 0.23311
 N2288 N 0.70388 0.88419 0.22547
 N2289 N 0.71468 0.86307 0.22710
 C2290 C 0.70296 0.84373 0.23660
 N2291 N 0.67995 0.84619 0.24404
 N2292 N 0.66914 0.86722 0.24233
 C2293 C 0.16770 0.40798 0.73819
 N2294 N 0.17755 0.42757 0.72722
 N2295 N 0.16779 0.44916 0.72996
 C2296 C 0.14799 0.45185 0.74392
 N2297 N 0.13808 0.43217 0.75447
 N2298 N 0.14767 0.41071 0.75163
 C2299 C 0.17897 0.38435 0.73724
 N2300 N 0.16822 0.36547 0.74847
 N2301 N 0.17883 0.34430 0.74944
 C2302 C 0.20069 0.34119 0.73928
 N2303 N 0.21140 0.36000 0.72782
 N2304 N 0.20075 0.38123 0.72682
 C2305 C 0.08799 0.72808 0.82567
 N2306 N 0.08759 0.73498 0.84912
 N2307 N 0.06691 0.73865 0.86027
 C2308 C 0.04568 0.73538 0.84854
 N2309 N 0.04587 0.72777 0.82520
 N2310 N 0.06673 0.72423 0.81391
 C2311 C 0.11131 0.72757 0.81331
 N2312 N 0.11328 0.72319 0.78925
 N2313 N 0.13462 0.72524 0.77835
 C2314 C 0.15459 0.73196 0.79115
 N2315 N 0.15252 0.73601 0.81515
 N2316 N 0.13136 0.73385 0.82598
 C2317 C 0.58902 0.23198 0.32578
 N2318 N 0.58900 0.24091 0.34855
 N2319 N 0.56850 0.24535 0.35975
 C2320 C 0.54707 0.24085 0.34877
 N2321 N 0.54689 0.23128 0.32615
 N2322 N 0.56757 0.22700 0.31477
 C2323 C 0.61221 0.23014 0.31329
 N2324 N 0.61391 0.22470 0.28941
 N2325 N 0.63523 0.22567 0.27833
 C2326 C 0.65545 0.23228 0.29078
 N2327 N 0.65363 0.23732 0.31461
 N2328 N 0.63251 0.23626 0.32562
 C2329 C 0.58065 0.74468 0.18790
 N2330 N 0.56539 0.76280 0.19263
 N2331 N 0.54445 0.76408 0.18103
 C2332 C 0.53771 0.74703 0.16463
 N2333 N 0.55261 0.72844 0.16047
 N2334 N 0.57371 0.72729 0.17191
 C2335 C 0.60530 0.74560 0.19766
 N2336 N 0.62272 0.73206 0.18765
 N2337 N 0.64550 0.73444 0.19497
 C2338 C 0.65173 0.75045 0.21257
 N2339 N 0.63427 0.76384 0.22277
 N2340 N 0.61152 0.76160 0.21530
 C2341 C 0.08029 0.24168 0.68694
 N2342 N 0.06487 0.25966 0.69170
 N2343 N 0.04410 0.26100 0.67980
 C2344 C 0.03770 0.24414 0.66308
 N2345 N 0.05276 0.22569 0.65888
 N2346 N 0.07368 0.22448 0.67062
 C2347 C 0.10479 0.24263 0.69702
 N2348 N 0.12245 0.22937 0.68705
 N2349 N 0.14512 0.23184 0.69469
 C2350 C 0.15098 0.24768 0.71257
 N2351 N 0.13328 0.26077 0.72272
 N2352 N 0.11064 0.25844 0.71493
 C2353 C 0.90820 0.23659 0.66635
 N2354 N 0.92793 0.22667 0.67660
 N2355 N 0.94960 0.22940 0.66652
 C2356 C 0.95219 0.24228 0.64596
 N2357 N 0.93235 0.25169 0.63563
 N2358 N 0.91083 0.24887 0.64555
 C2359 C 0.88453 0.23595 0.67801
 N2360 N 0.86575 0.24692 0.66727
 N2361 N 0.84454 0.24819 0.67817
 C2362 C 0.84132 0.23858 0.70031
 N2363 N 0.86003 0.22736 0.71102
 N2364 N 0.88130 0.22611 0.70009
 C2365 C 0.40783 0.73672 0.16839
 N2366 N 0.42784 0.72774 0.17901
 N2367 N 0.44950 0.73109 0.16907
 C2368 C 0.45181 0.74369 0.14830
 N2369 N 0.43171 0.75217 0.13762
 N2370 N 0.41020 0.74872 0.14740
 C2371 C 0.38407 0.73549 0.17988
 N2372 N 0.36495 0.74532 0.16860
 N2373 N 0.34365 0.74630 0.17935
 C2374 C 0.34063 0.73752 0.20187
 N2375 N 0.35968 0.72741 0.21312
 N2376 N 0.38106 0.72644 0.20234
 C2377 C 0.41739 0.24880 0.31735
 N2378 N 0.43406 0.26603 0.31220
 N2379 N 0.45550 0.26613 0.32295
 C2380 C 0.46132 0.24874 0.33885
 N2381 N 0.44493 0.23106 0.34344
 N2382 N 0.42335 0.23108 0.33285
 C2383 C 0.39266 0.25080 0.30822
 N2384 N 0.37449 0.23784 0.31829
 N2385 N 0.35186 0.24065 0.31101
 C2386 C 0.34652 0.25657 0.29345
 N2387 N 0.36472 0.26949 0.28330
 N2388 N 0.38734 0.26682 0.29073
 C2389 C 0.91627 0.74596 0.81607
 N2390 N 0.92172 0.72810 0.83161
 N2391 N 0.94330 0.72747 0.84216
 C2392 C 0.96018 0.74465 0.83748
 N2393 N 0.95486 0.76217 0.82154
 N2394 N 0.93342 0.76267 0.81083
 C2395 C 0.89159 0.74866 0.80706
 N2396 N 0.88667 0.76458 0.78936
 N2397 N 0.86411 0.76777 0.78195
 C2398 C 0.84561 0.75553 0.79236
 N2399 N 0.85055 0.73975 0.81016
 N2400 N 0.87310 0.73640 0.81741
   
