data_POSCAR
  _audit_creation_date              2014-09-24
  _audit_creation_method            'ToBaCCo'
  _symmetry_space_group_name_H-M    'P1'
  _symmetry_Int_Tables_number       1
  _symmetry_cell_setting            triclinic
  loop_
  _symmetry_equiv_pos_as_xyz
 x,y,z
_cell_length_a 62.3261
_cell_length_b 62.0784
_cell_length_c 62.2347
_cell_angle_alpha 90.026200
_cell_angle_beta 89.981100
_cell_angle_gamma 90.077400
loop_
  _atom_site_label
  _atom_site_type_symbol
  _atom_site_fract_x
  _atom_site_fract_y
  _atom_site_fract_z
C1 C 0.31333 0.31228 -0.00956
 C2 C 0.31392 0.31206 0.01235
 C3 C 0.29909 0.32546 0.02543
 C4 C 0.32987 0.29897 0.02432
 C5 C 0.32690 0.29761 -0.02265
 C6 C 0.29958 0.32767 -0.02152
 C7 C 0.30745 0.33972 0.04082
 C8 C 0.29378 0.35302 0.05266
 C9 C 0.27158 0.35208 0.04936
 C10 C 0.26307 0.33755 0.03440
 C11 C 0.27674 0.32420 0.02256
 C12 C 0.35196 0.30124 0.02032
 C13 C 0.36681 0.28881 0.03166
 C14 C 0.35976 0.27417 0.04725
 C15 C 0.33781 0.27208 0.05155
 C16 C 0.32293 0.28449 0.04020
 C17 C 0.32646 0.27520 -0.01937
 C18 C 0.33986 0.26169 -0.03134
 C19 C 0.35367 0.27042 -0.04687
 C20 C 0.35378 0.29270 -0.05053
 C21 C 0.34042 0.30619 -0.03854
 C22 C 0.28495 0.32000 -0.03689
 C23 C 0.27184 0.33435 -0.04814
 C24 C 0.27336 0.35651 -0.04425
 C25 C 0.28815 0.36430 -0.02920
 C26 C 0.30128 0.34997 -0.01797
 H27 H 0.32461 0.34088 0.04334
 H28 H 0.30053 0.36419 0.06422
 H29 H 0.24591 0.33664 0.03179
 H30 H 0.26995 0.31304 0.01104
 H31 H 0.35766 0.31265 0.00846
 H32 H 0.38378 0.29065 0.02831
 H33 H 0.30599 0.28264 0.04363
 H34 H 0.31586 0.26823 -0.00746
 H35 H 0.33949 0.24448 -0.02836
 H36 H 0.36433 0.29974 -0.06249
 H37 H 0.34093 0.32340 -0.04137
 H38 H 0.28354 0.30288 -0.03997
 H39 H 0.26051 0.32817 -0.05982
 H40 H 0.28955 0.38143 -0.02617
 H41 H 0.31277 0.35624 -0.00650
 H42 H 0.33219 0.26086 0.06364
 C43 C 0.68678 0.68807 -0.01207
 C44 C 0.68656 0.68812 0.00985
 C45 C 0.70144 0.67446 0.02257
 C46 C 0.67098 0.70136 0.02218
 C47 C 0.67322 0.70307 -0.02477
 C48 C 0.70007 0.67254 -0.02442
 C49 C 0.69316 0.66030 0.03810
 C50 C 0.70688 0.64683 0.04968
 C51 C 0.72902 0.64747 0.04598
 C52 C 0.73745 0.66189 0.03086
 C53 C 0.72374 0.67541 0.01928
 C54 C 0.64880 0.69939 0.01854
 C55 C 0.63431 0.71205 0.03010
 C56 C 0.64180 0.72662 0.04556
 C57 C 0.66384 0.72838 0.04953
 C58 C 0.67836 0.71574 0.03796
 C59 C 0.67409 0.72544 -0.02129
 C60 C 0.66058 0.73925 -0.03276
 C61 C 0.64626 0.73087 -0.04796
 C62 C 0.64573 0.70867 -0.05188
 C63 C 0.65919 0.69485 -0.04041
 C64 C 0.71446 0.68009 -0.04007
 C65 C 0.72711 0.66561 -0.05171
 C66 C 0.72536 0.64345 -0.04793
 C67 C 0.71079 0.63580 -0.03259
 C68 C 0.69812 0.65025 -0.02096
 H69 H 0.67604 0.65938 0.04095
 H70 H 0.70019 0.63576 0.06136
 H71 H 0.75457 0.66258 0.02793
 H72 H 0.73048 0.68649 0.00765
 H73 H 0.64276 0.68806 0.00676
 H74 H 0.61727 0.71047 0.02699
 H75 H 0.69538 0.71735 0.04110
 H76 H 0.68507 0.73214 -0.00957
 H77 H 0.66118 0.75642 -0.02965
 H78 H 0.63473 0.70202 -0.06361
 H79 H 0.65834 0.67768 -0.04340
 H80 H 0.71606 0.69720 -0.04308
 H81 H 0.73827 0.67170 -0.06360
 H82 H 0.70921 0.61867 -0.02963
 H83 H 0.68680 0.64408 -0.00928
 H84 H 0.66980 0.73955 0.06150
 C85 C 0.69100 0.31146 1.00988
 C86 C 0.69011 0.31128 0.98799
 C87 C 0.70447 0.32502 0.97474
 C88 C 0.67419 0.29794 0.97621
 C89 C 0.67779 0.29655 1.02308
 C90 C 0.70460 0.32712 1.02176
 C91 C 0.69558 0.33898 0.95940
 C92 C 0.70880 0.35247 0.94725
 C93 C 0.73105 0.35204 0.95018
 C94 C 0.74009 0.33785 0.96513
 C95 C 0.72687 0.32430 0.97728
 C96 C 0.65212 0.29991 0.98042
 C97 C 0.63727 0.28743 0.96908
 C98 C 0.64431 0.27301 0.95328
 C99 C 0.66625 0.27117 0.94881
 C100 C 0.68111 0.28364 0.96016
 C101 C 0.67852 0.27416 1.01977
 C102 C 0.66538 0.26044 1.03181
 C103 C 0.65159 0.26897 1.04741
 C104 C 0.65120 0.29120 1.05113
 C105 C 0.66428 0.30491 1.03909
 C106 C 0.71932 0.31973 1.03714
 C107 C 0.73201 0.33433 1.04859
 C108 C 0.72997 0.35650 1.04490
 C109 C 0.71513 0.36399 1.02975
 C110 C 0.70242 0.34938 1.01832
 H111 H 0.67836 0.33972 0.95713
 H112 H 0.70165 0.36338 0.93572
 H113 H 0.75731 0.33734 0.96746
 H114 H 0.73407 0.31338 0.98876
 H115 H 0.64642 0.31119 0.99241
 H116 H 0.62032 0.28908 0.97256
 H117 H 0.69804 0.28203 0.95656
 H118 H 0.68911 0.26736 1.00775
 H119 H 0.66585 0.24325 1.02886
 H120 H 0.64060 0.29795 1.06317
 H121 H 0.66355 0.32211 1.04195
 H122 H 0.72108 0.30263 1.04014
 H123 H 0.74336 0.32831 1.06033
 H124 H 0.71328 0.38110 1.02683
 H125 H 0.69082 0.35543 1.00686
 H126 H 0.67185 0.26014 0.93655
 C127 C 0.31213 0.68696 1.01285
 C128 C 0.31236 0.68710 0.99093
 C129 C 0.29751 0.67341 0.97814
 C130 C 0.32785 0.70055 0.97865
 C131 C 0.32560 0.70206 1.02560
 C132 C 0.29888 0.67131 1.02516
 C133 C 0.30579 0.65941 0.96248
 C134 C 0.29210 0.64594 0.95083
 C135 C 0.26996 0.64644 0.95456
 C136 C 0.26151 0.66070 0.96980
 C137 C 0.27520 0.67422 0.98146
 C138 C 0.35004 0.69882 0.98228
 C139 C 0.36444 0.71172 0.97080
 C140 C 0.35684 0.72630 0.95544
 C141 C 0.33478 0.72781 0.95147
 C142 C 0.32036 0.71494 0.96296
 C143 C 0.32453 0.72443 1.02222
 C144 C 0.33798 0.73835 1.03369
 C145 C 0.35245 0.73008 1.04880
 C146 C 0.35315 0.70785 1.05263
 C147 C 0.33975 0.69394 1.04116
 C148 C 0.28456 0.67873 1.04093
 C149 C 0.27195 0.66416 1.05253
 C150 C 0.27366 0.64200 1.04861
 C151 C 0.28817 0.63448 1.03314
 C152 C 0.30080 0.64904 1.02156
 H153 H 0.32291 0.65861 0.95960
 H154 H 0.29880 0.63498 0.93905
 H155 H 0.24440 0.66128 0.97276
 H156 H 0.26845 0.68519 0.99318
 H157 H 0.35618 0.68751 0.99400
 H158 H 0.38148 0.71032 0.97391
 H159 H 0.30333 0.71638 0.95982
 H160 H 0.31346 0.73104 1.01057
 H161 H 0.33719 0.75552 1.03061
 H162 H 0.36424 0.70122 1.06429
 H163 H 0.34074 0.67676 1.04406
 H164 H 0.28297 0.69582 1.04405
 H165 H 0.26084 0.67022 1.06450
 H166 H 0.28977 0.61738 1.03002
 H167 H 0.31208 0.64296 1.00979
 H168 H 0.32873 0.73898 0.93956
 C169 C -0.01460 0.31258 0.31252
 C170 C 0.00729 0.31260 0.31268
 C171 C 0.01968 0.29917 0.32803
 C172 C 0.01995 0.32650 0.29791
 C173 C -0.02699 0.32822 0.29938
 C174 C -0.02720 0.29734 0.32597
 C175 C 0.01616 0.30079 0.35029
 C176 C 0.02788 0.28803 0.36457
 C177 C 0.04337 0.27369 0.35679
 C178 C 0.04719 0.27226 0.33467
 C179 C 0.03547 0.28499 0.32036
 C180 C 0.03550 0.34056 0.30633
 C181 C 0.04717 0.35409 0.29272
 C182 C 0.04356 0.35362 0.27053
 C183 C 0.02838 0.33935 0.26196
 C184 C 0.01670 0.32577 0.27557
 C185 C -0.04258 0.32078 0.28487
 C186 C -0.05409 0.33534 0.27222
 C187 C -0.05027 0.35751 0.27408
 C188 C -0.03501 0.36505 0.28883
 C189 C -0.02352 0.35050 0.30149
 C190 C -0.02366 0.27501 0.32480
 C191 C -0.03486 0.26096 0.33834
 C192 C -0.04988 0.26907 0.35301
 C193 C -0.05390 0.29126 0.35380
 C194 C -0.04269 0.30530 0.34029
 H195 H 0.00438 0.31195 0.35656
 H196 H 0.02489 0.28936 0.38167
 H197 H 0.05920 0.26128 0.32848
 H198 H 0.03853 0.28364 0.30328
 H199 H 0.03832 0.34130 0.32349
 H200 H 0.05890 0.36504 0.29952
 H201 H 0.00506 0.31477 0.26871
 H202 H -0.04559 0.30368 0.28314
 H203 H -0.06589 0.32927 0.26094
 H204 H -0.03197 0.38216 0.29054
 H205 H -0.01188 0.35658 0.31291
 H206 H -0.01204 0.26851 0.31360
 H207 H -0.03163 0.24383 0.33748
 H208 H -0.06550 0.29778 0.36504
 H209 H -0.04572 0.32244 0.34137
 H210 H 0.02553 0.33879 0.24480
 C211 C -0.00914 0.68900 0.68935
 C212 C 0.01272 0.68869 0.68879
 C213 C 0.02502 0.70160 0.67290
 C214 C 0.02539 0.67475 0.70346
 C215 C -0.02156 0.67371 0.70287
 C216 C -0.02181 0.70403 0.67580
 C217 C 0.02103 0.69951 0.65077
 C218 C 0.03265 0.71178 0.63596
 C219 C 0.04852 0.72607 0.64309
 C220 C 0.05283 0.72795 0.66510
 C221 C 0.04119 0.71571 0.67993
 C222 C 0.04040 0.66025 0.69488
 C223 C 0.05178 0.64640 0.70837
 C224 C 0.04841 0.64700 0.73060
 C225 C 0.03385 0.66177 0.73934
 C226 C 0.02247 0.67567 0.72584
 C227 C -0.03692 0.68155 0.71740
 C228 C -0.04893 0.66729 0.72995
 C229 C -0.04582 0.64503 0.72797
 C230 C -0.03067 0.63710 0.71333
 C231 C -0.01867 0.65136 0.70077
 C232 C -0.01805 0.72636 0.67635
 C233 C -0.02973 0.74018 0.66303
 C234 C -0.04541 0.73183 0.64919
 C235 C -0.04952 0.70965 0.64893
 C236 C -0.03785 0.69584 0.66220
 H237 H 0.00894 0.68838 0.64500
 H238 H 0.02929 0.71010 0.61896
 H239 H 0.06513 0.73890 0.67078
 H240 H 0.04462 0.71739 0.69691
 H241 H 0.04295 0.65934 0.67768
 H242 H 0.06303 0.63505 0.70145
 H243 H 0.01123 0.68699 0.73281
 H244 H -0.03948 0.69872 0.71909
 H245 H -0.06066 0.67365 0.74114
 H246 H -0.02820 0.61992 0.71153
 H247 H -0.00724 0.64499 0.68931
 H248 H -0.00601 0.73303 0.68700
 H249 H -0.02643 0.75733 0.66346
 H250 H -0.06162 0.70296 0.63834
 H251 H -0.04104 0.67870 0.66160
 H252 H 0.03118 0.66241 0.75653
 C253 C 1.01139 0.68761 0.31164
 C254 C 0.98953 0.68799 0.31241
 C255 C 0.97776 0.70134 0.32836
 C256 C 0.97627 0.67456 0.29776
 C257 C 1.02317 0.67199 0.29791
 C258 C 1.02463 0.70234 0.32500
 C259 C 0.98186 0.69930 0.35048
 C260 C 0.97056 0.71183 0.36533
 C261 C 0.95493 0.72636 0.35824
 C262 C 0.95058 0.72826 0.33626
 C263 C 0.96188 0.71576 0.32139
 C264 C 0.96080 0.66054 0.30636
 C265 C 0.94872 0.64728 0.29284
 C266 C 0.95186 0.64800 0.27059
 C267 C 0.96691 0.66229 0.26185
 C268 C 0.97900 0.67561 0.27536
 C269 C 1.03867 0.67942 0.28329
 C270 C 1.04995 0.66488 0.27039
 C271 C 1.04597 0.64272 0.27210
 C272 C 1.03072 0.63519 0.28685
 C273 C 1.01946 0.64973 0.29977
 C274 C 1.02154 0.72476 0.32433
 C275 C 1.03364 0.73833 0.33757
 C276 C 1.04908 0.72964 0.35143
 C277 C 1.05258 0.70736 0.35176
 C278 C 1.04048 0.69379 0.33856
 H279 H 0.99371 0.68794 0.35622
 H280 H 0.97395 0.71012 0.38231
 H281 H 0.93845 0.73938 0.33061
 H282 H 0.95837 0.71744 0.30443
 H283 H 0.95839 0.65957 0.32357
 H284 H 0.93709 0.63630 0.29976
 H285 H 0.99058 0.68659 0.26839
 H286 H 1.04188 0.69651 0.28176
 H287 H 1.06176 0.67094 0.25912
 H288 H 1.02757 0.61809 0.28846
 H289 H 1.00790 0.64365 0.31127
 H290 H 1.00966 0.73168 0.31369
 H291 H 1.03082 0.75555 0.33709
 H292 H 1.06449 0.70041 0.36237
 H293 H 1.04317 0.67657 0.33924
 H294 H 0.96941 0.66303 0.24464
 C295 C 1.01207 0.31201 0.68673
 C296 C 0.99019 0.31217 0.68646
 C297 C 0.97768 0.29723 0.67257
 C298 C 0.97770 0.32779 0.69950
 C299 C 1.02457 0.32565 0.70189
 C300 C 1.02460 0.29871 0.67138
 C301 C 0.96239 0.30554 0.65823
 C302 C 0.95106 0.29179 0.64454
 C303 C 0.95475 0.26956 0.64513
 C304 C 0.96961 0.26109 0.65972
 C305 C 0.98095 0.27484 0.67346
 C306 C 0.98134 0.35006 0.69758
 C307 C 0.96963 0.36461 0.71006
 C308 C 0.95401 0.35707 0.72439
 C309 C 0.95004 0.33493 0.72608
 C310 C 0.96176 0.32036 0.71363
 C311 C 1.02079 0.32482 0.72416
 C312 C 1.03218 0.33831 0.73811
 C313 C 1.04760 0.35258 0.72997
 C314 C 1.05176 0.35311 0.70788
 C315 C 1.04038 0.33967 0.69392
 C316 C 1.04000 0.28414 0.67907
 C317 C 1.05168 0.27137 0.66474
 C318 C 1.04820 0.27319 0.64257
 C319 C 1.03313 0.28799 0.63479
 C320 C 1.02148 0.30076 0.64911
 H321 H 0.95956 0.32273 0.65735
 H322 H 0.93957 0.29851 0.63334
 H323 H 0.97254 0.24391 0.66038
 H324 H 0.99239 0.26807 0.68467
 H325 H 0.99325 0.35613 0.68645
 H326 H 0.97273 0.38171 0.70853
 H327 H 0.95862 0.30327 0.71519
 H328 H 1.00894 0.31385 0.73067
 H329 H 1.02888 0.33771 0.75519
 H330 H 1.06367 0.36407 0.70141
 H331 H 1.04360 0.34051 0.67684
 H332 H 1.04274 0.28247 0.69617
 H333 H 1.06334 0.26005 0.67098
 H334 H 1.03036 0.28966 0.61768
 H335 H 1.00999 0.31223 0.64286
 H336 H 0.93793 0.32894 0.73706
 C337 C 0.31256 -0.00917 0.31044
 C338 C 0.31245 0.01279 0.31041
 C339 C 0.32800 0.02540 0.29741
 C340 C 0.29735 0.02531 0.32403
 C341 C 0.29937 -0.02175 0.32587
 C342 C 0.32645 -0.02170 0.29559
 C343 C 0.35020 0.02213 0.29967
 C344 C 0.36470 0.03410 0.28739
 C345 C 0.35718 0.04961 0.27292
 C346 C 0.33511 0.05319 0.27084
 C347 C 0.32058 0.04120 0.28310
 C348 C 0.30537 0.04098 0.33819
 C349 C 0.29146 0.05239 0.35160
 C350 C 0.26937 0.04838 0.35090
 C351 C 0.26118 0.03311 0.33648
 C352 C 0.27509 0.02170 0.32302
 C353 C 0.28524 -0.03766 0.31828
 C354 C 0.27274 -0.04955 0.33268
 C355 C 0.27439 -0.04577 0.35480
 C356 C 0.28870 -0.03016 0.36249
 C357 C 0.30122 -0.01828 0.34811
 C358 C 0.32578 -0.01823 0.27328
 C359 C 0.33949 -0.02964 0.25960
 C360 C 0.35384 -0.04478 0.26808
 C361 C 0.35421 -0.04864 0.29025
 C362 C 0.34055 -0.03722 0.30391
 H363 H 0.35625 0.01034 0.31096
 H364 H 0.38176 0.03131 0.28921
 H365 H 0.32914 0.06521 0.25974
 H366 H 0.30354 0.04407 0.28128
 H367 H 0.32245 0.04407 0.33916
 H368 H 0.29795 0.06419 0.36268
 H369 H 0.26855 0.00995 0.31193
 H370 H 0.28374 -0.04068 0.30121
 H371 H 0.26178 -0.06165 0.32658
 H372 H 0.29019 -0.02721 0.37958
 H373 H 0.31236 -0.00641 0.35430
 H374 H 0.31476 -0.00660 0.26650
 H375 H 0.33896 -0.02655 0.24247
 H376 H 0.36519 -0.06033 0.29703
 H377 H 0.34125 -0.04020 0.32104
 H378 H 0.24410 0.02995 0.33575
 C379 C 0.68545 -0.01040 0.68773
 C380 C 0.68585 0.01158 0.68759
 C381 C 0.67050 0.02447 0.70055
 C382 C 0.70119 0.02382 0.67394
 C383 C 0.69861 -0.02324 0.67250
 C384 C 0.67136 -0.02266 0.70266
 C385 C 0.64825 0.02141 0.69844
 C386 C 0.63396 0.03354 0.71080
 C387 C 0.64174 0.04901 0.72521
 C388 C 0.66387 0.05240 0.72712
 C389 C 0.67818 0.04025 0.71478
 C390 C 0.69345 0.03943 0.65959
 C391 C 0.70758 0.05055 0.64613
 C392 C 0.72962 0.04631 0.64697
 C393 C 0.73752 0.03111 0.66158
 C394 C 0.72339 0.01999 0.67509
 C395 C 0.71261 -0.03910 0.68032
 C396 C 0.72528 -0.05106 0.66613
 C397 C 0.72394 -0.04740 0.64398
 C398 C 0.70971 -0.03189 0.63604
 C399 C 0.69702 -0.01994 0.65021
 C400 C 0.67203 -0.01900 0.72495
 C401 C 0.65811 -0.03011 0.73869
 C402 C 0.64355 -0.04515 0.73031
 C403 C 0.64319 -0.04922 0.70817
 C404 C 0.65707 -0.03810 0.69444
 H405 H 0.64198 0.00963 0.68722
 H406 H 0.61686 0.03088 0.70910
 H407 H 0.67006 0.06438 0.73817
 H408 H 0.69527 0.04297 0.71650
 H409 H 0.67642 0.04270 0.65852
 H410 H 0.70130 0.06231 0.63492
 H411 H 0.72972 0.00829 0.68631
 H412 H 0.71394 -0.04199 0.69744
 H413 H 0.73618 -0.06308 0.67244
 H414 H 0.70845 -0.02901 0.61892
 H415 H 0.68600 -0.00809 0.64382
 H416 H 0.68320 -0.00744 0.73165
 H417 H 0.65865 -0.02685 0.75579
 H418 H 0.63205 -0.06083 0.70145
 H419 H 0.65637 -0.04123 0.67733
 H420 H 0.75455 0.02777 0.66243
 C421 C 0.31183 1.01091 0.68663
 C422 C 0.31168 0.98895 0.68698
 C423 C 0.32519 0.97652 0.70226
 C424 C 0.29865 0.97623 0.67154
 C425 C 0.29724 1.02340 0.67244
 C426 C 0.32714 1.02356 0.69988
 C427 C 0.33933 0.96077 0.69440
 C428 C 0.35265 0.94946 0.70845
 C429 C 0.35189 0.95362 0.73054
 C430 C 0.33750 0.96895 0.73858
 C431 C 0.32412 0.98027 0.72452
 C432 C 0.30097 0.97922 0.64928
 C433 C 0.28864 0.96715 0.63490
 C434 C 0.27405 0.95183 0.64261
 C435 C 0.27191 0.94853 0.66476
 C436 C 0.28422 0.96061 0.67916
 C437 C 0.27491 1.02010 0.67292
 C438 C 0.26149 1.03160 0.65905
 C439 C 0.27023 1.04664 0.64472
 C440 C 0.29239 1.05029 0.64448
 C441 C 0.30581 1.03880 0.65830
 C442 C 0.31946 1.03950 0.71391
 C443 C 0.33374 1.05140 0.72654
 C444 C 0.35583 1.04760 0.72512
 C445 C 0.36362 1.03197 0.71090
 C446 C 0.34936 1.02008 0.69825
 H447 H 0.34034 0.95757 0.67732
 H448 H 0.36371 0.93762 0.70207
 H449 H 0.33673 0.97225 0.75565
 H450 H 0.31306 0.99207 0.73095
 H451 H 0.31235 0.99087 0.64308
 H452 H 0.29051 0.96973 0.61778
 H453 H 0.28236 0.95796 0.69626
 H454 H 0.26793 1.00857 0.68396
 H455 H 0.24435 1.02872 0.65943
 H456 H 0.29932 1.06191 0.63349
 H457 H 0.32295 1.04165 0.65773
 H458 H 0.30240 1.04252 0.71525
 H459 H 0.32756 1.06351 0.73744
 H460 H 0.38069 1.02900 0.70959
 H461 H 0.35563 1.00817 0.68719
 H462 H 0.26072 0.93665 0.67088
 C463 C 0.68778 1.00806 0.31451
 C464 C 0.68758 0.98609 0.31423
 C465 C 0.67377 0.97377 0.29908
 C466 C 0.70058 0.97327 0.32958
 C467 C 0.70278 1.02040 0.32846
 C468 C 0.67255 1.02085 0.30135
 C469 C 0.65949 0.95820 0.30707
 C470 C 0.64593 0.94697 0.29312
 C471 C 0.64660 0.95105 0.27101
 C472 C 0.66113 0.96622 0.26286
 C473 C 0.67474 0.97745 0.27680
 C474 C 0.69859 0.97642 0.35185
 C475 C 0.71097 0.96433 0.36614
 C476 C 0.72529 0.94883 0.35833
 C477 C 0.72707 0.94535 0.33617
 C478 C 0.71471 0.95745 0.32186
 C479 C 0.72503 1.01677 0.32767
 C480 C 0.73885 1.02812 0.34132
 C481 C 0.73059 1.04337 0.35572
 C482 C 0.70848 1.04736 0.35623
 C483 C 0.69467 1.03600 0.34263
 C484 C 0.68036 1.03663 0.28720
 C485 C 0.66617 1.04863 0.27461
 C486 C 0.64404 1.04507 0.27618
 C487 C 0.63613 1.02962 0.29053
 C488 C 0.65030 1.01763 0.30314
 H489 H 0.65855 0.95505 0.32416
 H490 H 0.63478 0.93524 0.29960
 H491 H 0.66184 0.96944 0.24577
 H492 H 0.68591 0.98912 0.27027
 H493 H 0.68745 0.98823 0.35814
 H494 H 0.70938 0.96706 0.38327
 H495 H 0.71632 0.95467 0.30476
 H496 H 0.73165 1.00509 0.31658
 H497 H 0.75593 1.02493 0.34066
 H498 H 0.70185 1.05913 0.36725
 H499 H 0.67760 1.03911 0.34342
 H500 H 0.69746 1.03945 0.28574
 H501 H 0.67245 1.06060 0.26362
 H502 H 0.61902 1.02683 0.29195
 H503 H 0.64394 1.00585 0.31428
 H504 H 0.73804 0.93334 0.32997
 O505 O 0.84013 0.86952 0.52282
 O506 O 0.87083 0.83952 0.48199
 O507 O 0.84012 0.86807 0.48111
 O508 O 0.87093 0.84118 0.52383
 O509 O 0.84685 0.81501 0.52481
 O510 O 0.81603 0.84189 0.48210
 O511 O 0.84672 0.81336 0.48300
 O512 O 0.81607 0.84332 0.52379
 Cu513 Cu 0.85796 0.85719 0.50232
 Cu514 Cu 0.82901 0.82573 0.50351
 C515 C 0.82286 0.86152 0.53012
 C516 C 0.86397 0.82135 0.47564
 C517 C 0.82279 0.85961 0.47452
 C518 C 0.86408 0.82356 0.53153
 O519 O 0.12727 0.15834 0.47822
 O520 O 0.15711 0.12806 0.51944
 O521 O 0.12799 0.15819 0.51994
 O522 O 0.15641 0.12822 0.47751
 O523 O 0.18185 0.15309 0.47720
 O524 O 0.15346 0.18303 0.51959
 O525 O 0.18255 0.15293 0.51909
 O526 O 0.15274 0.18318 0.47790
 Cu527 Cu 0.13966 0.14066 0.49881
 Cu528 Cu 0.17025 0.17053 0.49841
 C529 C 0.13491 0.17594 0.47121
 C530 C 0.17486 0.13542 0.52625
 C531 C 0.13586 0.17574 0.52682
 C532 C 0.17393 0.13562 0.47018
 O533 O 0.13121 0.83901 0.51855
 O534 O 0.16114 0.86949 0.47753
 O535 O 0.13120 0.84019 0.47671
 O536 O 0.16113 0.86845 0.51925
 O537 O 0.18592 0.84301 0.51857
 O538 O 0.15600 0.81475 0.47604
 O539 O 0.18593 0.84403 0.47687
 O540 O 0.15602 0.81358 0.51786
 Cu541 Cu 0.14364 0.85684 0.49810
 Cu542 Cu 0.17345 0.82625 0.49728
 C543 C 0.13855 0.82113 0.52509
 C544 C 0.17863 0.86194 0.47035
 C545 C 0.13857 0.82271 0.46919
 C546 C 0.17865 0.86058 0.52598
 O547 O 0.87487 0.15382 0.52051
 O548 O 0.84494 0.12364 0.47919
 O549 O 0.87441 0.15350 0.47864
 O550 O 0.84530 0.12404 0.52108
 O551 O 0.82018 0.14916 0.52109
 O552 O 0.84923 0.17857 0.47873
 O553 O 0.81981 0.14875 0.47925
 O554 O 0.84971 0.17891 0.52055
 Cu555 Cu 0.86241 0.13621 0.49986
 Cu556 Cu 0.83220 0.16637 0.49992
 C557 C 0.86735 0.17148 0.52748
 C558 C 0.82732 0.13111 0.47225
 C559 C 0.86673 0.17103 0.47155
 C560 C 0.82781 0.13164 0.52823
 O561 O 0.47734 0.87422 0.84497
 O562 O 0.52006 0.84508 0.87370
 O563 O 0.51916 0.87512 0.84446
 O564 O 0.47833 0.84398 0.87410
 O565 O 0.47864 0.81918 0.84857
 O566 O 0.51941 0.85028 0.81899
 O567 O 0.52034 0.82027 0.84819
 O568 O 0.47763 0.84940 0.81947
 Cu569 Cu 0.49868 0.86212 0.86187
 Cu570 Cu 0.49902 0.83230 0.83122
 C571 C 0.47030 0.86675 0.82735
 C572 C 0.52737 0.82773 0.86582
 C573 C 0.52619 0.86793 0.82672
 C574 C 0.47168 0.82626 0.86638
 O575 O 0.52495 0.15865 0.13047
 O576 O 0.48192 0.13121 0.16040
 O577 O 0.48318 0.16031 0.13018
 O578 O 0.52356 0.12975 0.16077
 O579 O 0.52431 0.15549 0.18534
 O580 O 0.48398 0.18601 0.15478
 O581 O 0.48270 0.15693 0.18499
 O582 O 0.52572 0.18438 0.15505
 Cu583 Cu 0.50331 0.14240 0.14295
 Cu584 Cu 0.50424 0.17333 0.17250
 C585 C 0.53260 0.17615 0.13772
 C586 C 0.47516 0.13936 0.17782
 C587 C 0.47680 0.17834 0.13731
 C588 C 0.53067 0.13743 0.17827
 O589 O 0.47742 0.16016 0.87021
 O590 O 0.51953 0.13196 0.83965
 O591 O 0.51922 0.16099 0.87001
 O592 O 0.47787 0.13121 0.83986
 O593 O 0.47733 0.15699 0.81535
 O594 O 0.51865 0.18675 0.84548
 O595 O 0.51897 0.15774 0.81514
 O596 O 0.47688 0.18592 0.84569
 Cu597 Cu 0.49858 0.14350 0.85743
 Cu598 Cu 0.49791 0.17448 0.82797
 C599 C 0.47004 0.17780 0.86310
 C600 C 0.52624 0.14001 0.82216
 C601 C 0.52588 0.17892 0.86285
 C602 C 0.47070 0.13903 0.82246
 O603 O 0.47786 0.84414 0.12668
 O604 O 0.52047 0.87310 0.15598
 O605 O 0.51959 0.84299 0.12670
 O606 O 0.47863 0.87419 0.15590
 O607 O 0.47792 0.84932 0.18132
 O608 O 0.51884 0.81814 0.15214
 O609 O 0.51972 0.84822 0.18139
 O610 O 0.47716 0.81930 0.15213
 Cu611 Cu 0.49923 0.86113 0.13876
 Cu612 Cu 0.49836 0.83126 0.16933
 C613 C 0.47035 0.82681 0.13445
 C614 C 0.52727 0.86554 0.17364
 C615 C 0.52605 0.82525 0.13445
 C616 C 0.47133 0.86698 0.17352
 O617 O 0.86987 0.52217 0.83896
 O618 O 0.84129 0.47923 0.86810
 O619 O 0.87067 0.48032 0.83834
 O620 O 0.84028 0.52116 0.86865
 O621 O 0.81514 0.52091 0.84358
 O622 O 0.84549 0.48011 0.81331
 O623 O 0.81613 0.47900 0.84304
 O624 O 0.84470 0.52193 0.81391
 Cu625 Cu 0.85806 0.50077 0.85606
 Cu626 Cu 0.82781 0.50049 0.82595
 C627 C 0.86218 0.52920 0.82144
 C628 C 0.82388 0.47187 0.86048
 C629 C 0.86322 0.47337 0.82068
 C630 C 0.82254 0.52786 0.86126
 O631 O 0.15776 0.47789 0.12898
 O632 O 0.12824 0.52011 0.15830
 O633 O 0.15853 0.51984 0.12922
 O634 O 0.12756 0.47819 0.15790
 O635 O 0.15209 0.47765 0.18356
 O636 O 0.18305 0.51926 0.15489
 O637 O 0.15279 0.51953 0.18394
 O638 O 0.18227 0.47736 0.15466
 Cu639 Cu 0.14055 0.49911 0.14101
 Cu640 Cu 0.17003 0.49843 0.17184
 C641 C 0.17499 0.47049 0.13690
 C642 C 0.13547 0.52684 0.17615
 C643 C 0.17608 0.52649 0.13715
 C644 C 0.13460 0.47090 0.17557
 O645 O 0.87074 0.48025 0.15846
 O646 O 0.84204 0.52196 0.12769
 O647 O 0.87101 0.52218 0.15779
 O648 O 0.84175 0.48003 0.12815
 O649 O 0.81617 0.48050 0.15278
 O650 O 0.84541 0.52264 0.18242
 O651 O 0.81647 0.52239 0.15233
 O652 O 0.84513 0.48073 0.18306
 Cu653 Cu 0.85897 0.50102 0.14054
 Cu654 Cu 0.82822 0.50158 0.17013
 C655 C 0.86283 0.47354 0.17602
 C656 C 0.82441 0.52923 0.13484
 C657 C 0.86313 0.52953 0.17510
 C658 C 0.82397 0.47323 0.13540
 O659 O 0.12699 0.47813 0.84493
 O660 O 0.15613 0.52069 0.87421
 O661 O 0.12664 0.52013 0.84455
 O662 O 0.15664 0.47878 0.87454
 O663 O 0.18172 0.47887 0.84939
 O664 O 0.15178 0.52015 0.81946
 O665 O 0.18123 0.52074 0.84908
 O666 O 0.15210 0.47820 0.81982
 Cu667 Cu 0.13905 0.49941 0.86208
 Cu668 Cu 0.16922 0.49948 0.83189
 C669 C 0.13460 0.47101 0.82741
 C670 C 0.17362 0.52787 0.86660
 C671 C 0.13418 0.52713 0.82695
 C672 C 0.17431 0.47194 0.86706
 C673 C 0.25768 0.36640 0.06105
 C674 C 0.24637 0.37873 0.07083
 C675 C 0.23324 0.39378 0.08249
 C676 C 0.23847 0.39922 0.10371
 C677 C 0.22623 0.41445 0.11482
 C678 C 0.20870 0.42433 0.10476
 C679 C 0.20336 0.41877 0.08360
 C680 C 0.21561 0.40353 0.07248
 C681 C 0.19654 0.44047 0.11602
 C682 C 0.18658 0.45412 0.12552
 H683 H 0.25211 0.39183 0.11157
 H684 H 0.23053 0.41865 0.13116
 H685 H 0.18987 0.42634 0.07566
 H686 H 0.21147 0.39950 0.05606
 C687 C 0.74295 0.63303 0.05746
 C688 C 0.75428 0.62063 0.06710
 C689 C 0.76742 0.60552 0.07865
 C690 C 0.76876 0.60662 0.10110
 C691 C 0.78084 0.59141 0.11240
 C692 C 0.79164 0.57503 0.10131
 C693 C 0.79046 0.57405 0.07885
 C694 C 0.77837 0.58926 0.06754
 C695 C 0.80347 0.55898 0.11302
 C696 C 0.81315 0.54543 0.12292
 H697 H 0.76030 0.61908 0.10985
 H698 H 0.78160 0.59230 0.12977
 H699 H 0.79870 0.56142 0.07011
 H700 H 0.77739 0.58822 0.05019
 C701 C 0.74445 0.36652 0.93811
 C702 C 0.75527 0.37899 0.92796
 C703 C 0.76773 0.39425 0.91584
 C704 C 0.75907 0.40359 0.89728
 C705 C 0.77080 0.41899 0.88585
 C706 C 0.79125 0.42514 0.89293
 C707 C 0.79999 0.41569 0.91140
 C708 C 0.78825 0.40027 0.92284
 C709 C 0.80301 0.44144 0.88147
 C710 C 0.81265 0.45526 0.87188
 H711 H 0.74319 0.39910 0.89177
 H712 H 0.76388 0.42623 0.87162
 H713 H 0.81577 0.42036 0.91703
 H714 H 0.79506 0.39320 0.93721
 C715 C 0.25605 0.63197 0.94303
 C716 C 0.24469 0.61954 0.93340
 C717 C 0.23147 0.60437 0.92194
 C718 C 0.22163 0.58734 0.93298
 C719 C 0.20943 0.57213 0.92175
 C720 C 0.20700 0.57387 0.89944
 C721 C 0.21669 0.59100 0.88842
 C722 C 0.22891 0.60621 0.89965
 C723 C 0.19500 0.55783 0.88782
 C724 C 0.18514 0.54423 0.87811
 H725 H 0.22357 0.58572 0.95020
 H726 H 0.20205 0.55893 0.93043
 H727 H 0.21496 0.59248 0.87116
 H728 H 0.23650 0.61927 0.89095
 C729 C 0.05538 0.26052 0.37151
 C730 C 0.06542 0.24951 0.38389
 C731 C 0.07736 0.23645 0.39877
 C732 C 0.07325 0.23795 0.42085
 C733 C 0.08493 0.22539 0.43536
 C734 C 0.10077 0.21127 0.42785
 C735 C 0.10486 0.20973 0.40576
 C736 C 0.09317 0.22230 0.39125
 C737 C 0.11291 0.19854 0.44287
 C738 C 0.12300 0.18809 0.45567
 H739 H 0.06107 0.24885 0.42684
 H740 H 0.08165 0.22672 0.45241
 H741 H 0.11709 0.19888 0.39979
 H742 H 0.09649 0.22102 0.37420
 C743 C 0.06039 0.73876 0.62783
 C744 C 0.07029 0.74937 0.61499
 C745 C 0.08204 0.76199 0.59957
 C746 C 0.09917 0.77500 0.60628
 C747 C 0.11063 0.78720 0.59125
 C748 C 0.10500 0.78644 0.56947
 C749 C 0.08785 0.77345 0.56278
 C750 C 0.07640 0.76126 0.57780
 C751 C 0.11687 0.79883 0.55396
 C752 C 0.12678 0.80909 0.54085
 H753 H 0.10367 0.77568 0.62308
 H754 H 0.12387 0.79717 0.59660
 H755 H 0.08337 0.77273 0.54597
 H756 H 0.06318 0.75125 0.57244
 C757 C 0.94319 0.73916 0.37353
 C758 C 0.93327 0.74986 0.38629
 C759 C 0.92133 0.76255 0.40151
 C760 C 0.89890 0.76117 0.40212
 C761 C 0.88728 0.77337 0.41700
 C762 C 0.89804 0.78703 0.43134
 C763 C 0.92047 0.78846 0.43071
 C764 C 0.93209 0.77625 0.41582
 C765 C 0.88607 0.79934 0.44686
 C766 C 0.87600 0.80949 0.45994
 H767 H 0.89041 0.75062 0.39114
 H768 H 0.86994 0.77211 0.41737
 H769 H 0.92896 0.79894 0.44174
 H770 H 0.94944 0.77745 0.41550
 C771 C 0.94353 0.25558 0.63046
 C772 C 0.93416 0.24418 0.61787
 C773 C 0.92299 0.23090 0.60253
 C774 C 0.90535 0.21845 0.60896
 C775 C 0.89421 0.20601 0.59388
 C776 C 0.90065 0.20597 0.57230
 C777 C 0.91836 0.21832 0.56590
 C778 C 0.92950 0.23076 0.58097
 C779 C 0.88892 0.19357 0.55665
 C780 C 0.87908 0.18338 0.54340
 H781 H 0.90015 0.21848 0.62557
 H782 H 0.88052 0.19654 0.59900
 H783 H 0.92347 0.21845 0.54926
 H784 H 0.94308 0.24036 0.57580
 C785 C 0.37215 0.06186 0.26026
 C786 C 0.38482 0.07203 0.24971
 C787 C 0.40013 0.08404 0.23722
 C788 C 0.42174 0.08440 0.24338
 C789 C 0.43671 0.09590 0.23120
 C790 C 0.43013 0.10709 0.21280
 C791 C 0.40851 0.10677 0.20665
 C792 C 0.39353 0.09526 0.21885
 C793 C 0.44566 0.11871 0.20022
 C794 C 0.45896 0.12826 0.18987
 H795 H 0.42701 0.07576 0.25755
 H796 H 0.45339 0.09603 0.23608
 H797 H 0.40327 0.11535 0.19245
 H798 H 0.37685 0.09506 0.21395
 C799 C 0.62701 0.06137 0.73805
 C800 C 0.61457 0.07163 0.74878
 C801 C 0.59958 0.08375 0.76154
 C802 C 0.57774 0.08361 0.75624
 C803 C 0.56310 0.09525 0.76869
 C804 C 0.57023 0.10709 0.78648
 C805 C 0.59209 0.10727 0.79177
 C806 C 0.60674 0.09562 0.77932
 C807 C 0.55506 0.11891 0.79931
 C808 C 0.54207 0.12865 0.80987
 H809 H 0.57203 0.07448 0.74254
 H810 H 0.54624 0.09499 0.76446
 H811 H 0.59777 0.11635 0.80550
 H812 H 0.62359 0.09582 0.78356
 C813 C 0.36625 0.94244 0.74480
 C814 C 0.37863 0.93306 0.75636
 C815 C 0.39379 0.92186 0.76974
 C816 C 0.39022 0.90029 0.77537
 C817 C 0.40543 0.88917 0.78761
 C818 C 0.42426 0.89957 0.79426
 C819 C 0.42773 0.92119 0.78880
 C820 C 0.41253 0.93230 0.77656
 C821 C 0.44029 0.88794 0.80620
 C822 C 0.45390 0.87824 0.81597
 H823 H 0.37583 0.89203 0.77011
 H824 H 0.40261 0.87244 0.79170
 H825 H 0.44226 0.92937 0.79380
 H826 H 0.41549 0.94895 0.77223
 C827 C 0.63209 0.93988 0.25686
 C828 C 0.61964 0.93048 0.24535
 C829 C 0.60445 0.91920 0.23202
 C830 C 0.59161 0.93059 0.21747
 C831 C 0.57627 0.91971 0.20512
 C832 C 0.57371 0.89738 0.20730
 C833 C 0.58667 0.88597 0.22172
 C834 C 0.60200 0.89685 0.23406
 C835 C 0.55747 0.88624 0.19513
 C836 C 0.54374 0.87683 0.18519
 H837 H 0.59331 0.94788 0.21581
 H838 H 0.56630 0.92870 0.19406
 H839 H 0.58479 0.86872 0.22358
 H840 H 0.61178 0.88789 0.24532
 C841 C 0.36669 0.25797 0.94233
 C842 C 0.37897 0.24677 0.93236
 C843 C 0.39396 0.23381 0.92045
 C844 C 0.41054 0.22306 0.93120
 C845 C 0.42565 0.21119 0.91956
 C846 C 0.42425 0.21000 0.89712
 C847 C 0.40755 0.22058 0.88639
 C848 C 0.39244 0.23247 0.89803
 C849 C 0.44022 0.19840 0.88510
 C850 C 0.45377 0.18889 0.87505
 H851 H 0.41192 0.22406 0.94853
 H852 H 0.43853 0.20311 0.92802
 H853 H 0.40634 0.21982 0.86904
 H854 H 0.37972 0.24077 0.88955
 C855 C 0.63169 0.74487 0.94083
 C856 C 0.61913 0.75628 0.93150
 C857 C 0.60374 0.76951 0.92045
 C858 C 0.58307 0.77203 0.92892
 C859 C 0.56783 0.78430 0.91791
 C860 C 0.57319 0.79412 0.89836
 C861 C 0.59392 0.79174 0.88995
 C862 C 0.60917 0.77945 0.90097
 C863 C 0.55728 0.80624 0.88680
 C864 C 0.54373 0.81617 0.87718
 H865 H 0.57868 0.76436 0.94393
 H866 H 0.55185 0.78599 0.92454
 H867 H 0.59822 0.79923 0.87483
 H868 H 0.62509 0.77757 0.89425
 C869 C 0.36616 0.74347 0.05942
 C870 C 0.37860 0.75505 0.06876
 C871 C 0.39381 0.76852 0.07985
 C872 C 0.41239 0.77554 0.06927
 C873 C 0.42761 0.78793 0.08025
 C874 C 0.42432 0.79336 0.10185
 C875 C 0.40564 0.78650 0.11238
 C876 C 0.39042 0.77411 0.10140
 C877 C 0.44036 0.80546 0.11333
 C878 C 0.45397 0.81534 0.12297
 H879 H 0.41521 0.77126 0.05263
 H880 H 0.44202 0.79310 0.07197
 H881 H 0.40296 0.79056 0.12910
 H882 H 0.37614 0.76871 0.10975
 C883 C 0.63743 0.25509 0.05931
 C884 C 0.62518 0.24387 0.06928
 C885 C 0.61015 0.23096 0.08119
 C886 C 0.59535 0.21792 0.07031
 C887 C 0.58002 0.20622 0.08185
 C888 C 0.57942 0.20753 0.10432
 C889 C 0.59436 0.22038 0.11522
 C890 C 0.60970 0.23209 0.10367
 C891 C 0.56309 0.19619 0.11613
 C892 C 0.54924 0.18694 0.12600
 H893 H 0.59550 0.21701 0.05292
 H894 H 0.56849 0.19636 0.07327
 H895 H 0.59400 0.22155 0.13258
 H896 H 0.62100 0.24220 0.11224
 C897 C 0.25661 0.05820 0.63004
 C898 C 0.24558 0.06799 0.61748
 C899 C 0.23285 0.07980 0.60222
 C900 C 0.24059 0.09924 0.59376
 C901 C 0.22853 0.11053 0.57854
 C902 C 0.20869 0.10245 0.57169
 C903 C 0.20089 0.08306 0.58021
 C904 C 0.21295 0.07176 0.59544
 C905 C 0.19651 0.11395 0.55574
 C906 C 0.18652 0.12370 0.54231
 H907 H 0.25597 0.10558 0.59885
 H908 H 0.23473 0.12549 0.57205
 H909 H 0.18557 0.07665 0.57500
 H910 H 0.20684 0.05672 0.60183
 C911 C 0.74389 0.05414 0.36940
 C912 C 0.75536 0.06374 0.38174
 C913 C 0.76869 0.07527 0.39675
 C914 C 0.78001 0.06406 0.41265
 C915 C 0.79234 0.07534 0.42772
 C916 C 0.79340 0.09788 0.42695
 C917 C 0.78222 0.10907 0.41094
 C918 C 0.76989 0.09780 0.39588
 C919 C 0.80558 0.10953 0.44283
 C920 C 0.81559 0.11935 0.45622
 H921 H 0.77914 0.04665 0.41352
 H922 H 0.80088 0.06652 0.44005
 H923 H 0.78289 0.12650 0.41022
 H924 H 0.76115 0.10664 0.38370
 C925 C 0.73720 0.94052 0.62938
 C926 C 0.74832 0.93050 0.61708
 C927 C 0.76155 0.91864 0.60229
 C928 C 0.77331 0.90079 0.60940
 C929 C 0.78608 0.88922 0.59495
 C930 C 0.78714 0.89547 0.57334
 C931 C 0.77542 0.91335 0.56626
 C932 C 0.76266 0.92491 0.58069
 C933 C 0.80000 0.88343 0.55835
 C934 C 0.81058 0.87340 0.54559
 H935 H 0.77257 0.89580 0.62606
 H936 H 0.79505 0.87540 0.60059
 H937 H 0.77610 0.91830 0.54958
 H938 H 0.75363 0.93869 0.57502
 C939 C 0.26145 0.94209 0.36963
 C940 C 0.25066 0.93197 0.38213
 C941 C 0.23785 0.91995 0.39717
 C942 C 0.22577 0.90223 0.39018
 C943 C 0.21346 0.89047 0.40487
 C944 C 0.21319 0.89639 0.42659
 C945 C 0.22523 0.91414 0.43356
 C946 C 0.23753 0.92590 0.41888
 C947 C 0.20077 0.88417 0.44180
 C948 C 0.19055 0.87399 0.45473
 H949 H 0.22591 0.89750 0.37342
 H950 H 0.20422 0.87675 0.39932
 H951 H 0.22515 0.91884 0.45033
 H952 H 0.24682 0.93956 0.42445
 C953 C 0.05888 0.36702 0.74414
 C954 C 0.06832 0.37943 0.75568
 C955 C 0.07959 0.39459 0.76909
 C956 C 0.06889 0.41271 0.77716
 C957 C 0.08001 0.42790 0.78950
 C958 C 0.10188 0.42505 0.79382
 C959 C 0.11255 0.40683 0.78590
 C960 C 0.10143 0.39164 0.77356
 C961 C 0.11346 0.44106 0.80592
 C962 C 0.12313 0.45465 0.81584
 H963 H 0.05203 0.41519 0.77374
 H964 H 0.07161 0.44194 0.79549
 H965 H 0.12947 0.40449 0.78910
 H966 H 0.10988 0.37773 0.76734
 C967 C 0.05701 0.62854 0.25958
 C968 C 0.06680 0.61595 0.24856
 C969 C 0.07850 0.60083 0.23552
 C970 C 0.09628 0.60768 0.22353
 C971 C 0.10780 0.59290 0.21109
 C972 C 0.10159 0.57120 0.21060
 C973 C 0.08377 0.56437 0.22253
 C974 C 0.07225 0.57915 0.23496
 C975 C 0.11363 0.55585 0.19814
 C976 C 0.12365 0.54275 0.18795
 H977 H 0.10126 0.62440 0.22386
 H978 H 0.12158 0.59835 0.20196
 H979 H 0.07884 0.54763 0.22230
 H980 H 0.05855 0.57366 0.24418
 C981 C 0.93873 0.37170 0.26155
 C982 C 0.92909 0.38433 0.25045
 C983 C 0.91768 0.39951 0.23724
 C984 C 0.89901 0.39320 0.22637
 C985 C 0.88790 0.40802 0.21363
 C986 C 0.89541 0.42922 0.21171
 C987 C 0.91410 0.43552 0.22255
 C988 C 0.92521 0.42070 0.23528
 C989 C 0.88385 0.44461 0.19887
 C990 C 0.87422 0.45770 0.18831
 H991 H 0.89305 0.37686 0.22778
 H992 H 0.87345 0.40299 0.20535
 H993 H 0.92003 0.45187 0.22121
 H994 H 0.93962 0.42576 0.24361
 C995 C 0.94235 0.63112 0.74006
 C996 C 0.93186 0.61874 0.75066
 C997 C 0.91934 0.60384 0.76316
 C998 C 0.92204 0.60275 0.78549
 C999 C 0.91009 0.58800 0.79756
 C1000 C 0.89540 0.57430 0.78735
 C1001 C 0.89262 0.57548 0.76505
 C1002 C 0.90457 0.59022 0.75298
 C1003 C 0.88351 0.55871 0.79964
 C1004 C 0.87368 0.54539 0.80973
 H1005 H 0.93344 0.61320 0.79351
 H1006 H 0.91240 0.58718 0.81480
 H1007 H 0.88134 0.56492 0.75699
 H1008 H 0.90237 0.59092 0.73572
 C1009 C 0.73846 0.62856 0.94019
 C1010 C 0.74942 0.61603 0.93028
 C1011 C 0.76245 0.60100 0.91847
 C1012 C 0.77374 0.60778 0.90021
 C1013 C 0.78624 0.59309 0.88865
 C1014 C 0.78751 0.57158 0.89532
 C1015 C 0.77626 0.56482 0.91362
 C1016 C 0.76376 0.57950 0.92517
 C1017 C 0.80010 0.55636 0.88328
 C1018 C 0.81046 0.54344 0.87321
 H1019 H 0.77282 0.62437 0.89489
 H1020 H 0.79485 0.59848 0.87451
 H1021 H 0.77711 0.54821 0.91890
 H1022 H 0.75509 0.57408 0.93926
 C1023 C 0.25978 0.37128 0.94427
 C1024 C 0.24846 0.38372 0.93469
 C1025 C 0.23504 0.39868 0.92327
 C1026 C 0.23334 0.42003 0.93037
 C1027 C 0.22056 0.43467 0.91911
 C1028 C 0.20942 0.42804 0.90070
 C1029 C 0.21104 0.40666 0.89365
 C1030 C 0.22382 0.39201 0.90492
 C1031 C 0.19670 0.44328 0.88886
 C1032 C 0.18631 0.45625 0.87892
 H1033 H 0.24196 0.42536 0.94453
 H1034 H 0.21946 0.45118 0.92467
 H1035 H 0.20253 0.40137 0.87941
 H1036 H 0.22504 0.37554 0.89928
 C1037 C 0.26125 0.62781 0.05981
 C1038 C 0.25027 0.61521 0.06966
 C1039 C 0.23720 0.60009 0.08136
 C1040 C 0.22584 0.60675 0.09962
 C1041 C 0.21320 0.59201 0.11101
 C1042 C 0.21188 0.57053 0.10417
 C1043 C 0.22322 0.56389 0.08589
 C1044 C 0.23585 0.57863 0.07452
 C1045 C 0.19905 0.55525 0.11594
 C1046 C 0.18846 0.54225 0.12569
 H1047 H 0.22677 0.62331 0.10506
 H1048 H 0.20452 0.59732 0.12513
 H1049 H 0.22233 0.54732 0.08047
 H1050 H 0.24457 0.57329 0.06042
 C1051 C 0.74225 0.37073 0.05615
 C1052 C 0.75304 0.38338 0.06613
 C1053 C 0.76582 0.39855 0.07804
 C1054 C 0.77174 0.39406 0.09929
 C1055 C 0.78389 0.40898 0.11097
 C1056 C 0.79016 0.42843 0.10143
 C1057 C 0.78432 0.43288 0.08016
 C1058 C 0.77218 0.41797 0.06848
 C1059 C 0.80230 0.44399 0.11354
 C1060 C 0.81229 0.45723 0.12358
 H1061 H 0.76689 0.37910 0.10684
 H1062 H 0.78829 0.40540 0.12742
 H1063 H 0.78906 0.44789 0.07264
 H1064 H 0.76767 0.42161 0.05207
 C1065 C 0.94355 0.74507 0.63573
 C1066 C 0.93368 0.75637 0.62349
 C1067 C 0.92181 0.76933 0.60850
 C1068 C 0.93244 0.77951 0.59145
 C1069 C 0.92075 0.79116 0.57621
 C1070 C 0.89839 0.79267 0.57796
 C1071 C 0.88779 0.78270 0.59515
 C1072 C 0.89948 0.77105 0.61038
 C1073 C 0.88629 0.80386 0.56177
 C1074 C 0.87614 0.81297 0.54804
 H1075 H 0.94969 0.77820 0.58979
 H1076 H 0.92910 0.79876 0.56295
 H1077 H 0.87050 0.78371 0.59661
 H1078 H 0.89109 0.76315 0.62345
 C1079 C 0.93981 0.25557 0.36685
 C1080 C 0.93077 0.24387 0.37941
 C1081 C 0.92004 0.23025 0.39475
 C1082 C 0.93058 0.22413 0.41368
 C1083 C 0.91994 0.21155 0.42898
 C1084 C 0.89870 0.20502 0.42543
 C1085 C 0.88822 0.21098 0.40643
 C1086 C 0.89887 0.22357 0.39112
 C1087 C 0.88751 0.19271 0.44154
 C1088 C 0.87807 0.18267 0.45517
 H1089 H 0.94693 0.22926 0.41668
 H1090 H 0.92818 0.20708 0.44364
 H1091 H 0.87178 0.20606 0.40354
 H1092 H 0.89054 0.22826 0.37658
 C1093 C 0.05935 0.26057 0.62860
 C1094 C 0.06911 0.24943 0.61611
 C1095 C 0.08060 0.23621 0.60103
 C1096 C 0.10021 0.22685 0.60684
 C1097 C 0.11145 0.21419 0.59204
 C1098 C 0.10311 0.21085 0.57140
 C1099 C 0.08347 0.22014 0.56563
 C1100 C 0.07224 0.23279 0.58042
 C1101 C 0.11480 0.19818 0.55599
 C1102 C 0.12448 0.18779 0.54282
 H1103 H 0.10682 0.22941 0.62273
 H1104 H 0.12665 0.20711 0.59664
 H1105 H 0.07690 0.21769 0.54970
 H1106 H 0.05710 0.23996 0.57577
 C1107 C 0.06040 0.74266 0.36490
 C1108 C 0.07041 0.75386 0.37716
 C1109 C 0.08235 0.76678 0.39216
 C1110 C 0.07166 0.78145 0.40550
 C1111 C 0.08315 0.79331 0.42077
 C1112 C 0.10537 0.79052 0.42275
 C1113 C 0.11608 0.77601 0.40926
 C1114 C 0.10459 0.76415 0.39400
 C1115 C 0.11708 0.80212 0.43897
 C1116 C 0.12689 0.81162 0.45270
 H1117 H 0.05445 0.78354 0.40426
 H1118 H 0.07471 0.80445 0.43115
 H1119 H 0.13325 0.77369 0.41070
 H1120 H 0.11299 0.75278 0.38382
 C1121 C 0.62951 0.94444 0.74351
 C1122 C 0.61683 0.93521 0.75491
 C1123 C 0.60139 0.92415 0.76814
 C1124 C 0.60791 0.90733 0.78164
 C1125 C 0.59275 0.89620 0.79399
 C1126 C 0.57101 0.90184 0.79288
 C1127 C 0.56452 0.91876 0.77949
 C1128 C 0.57967 0.92988 0.76715
 C1129 C 0.55530 0.89001 0.80509
 C1130 C 0.54205 0.87999 0.81509
 H1131 H 0.62465 0.90272 0.78249
 H1132 H 0.59795 0.88312 0.80426
 H1133 H 0.54776 0.92323 0.77846
 H1134 H 0.57444 0.94282 0.75672
 C1135 C 0.36765 0.94448 0.25494
 C1136 C 0.38013 0.93492 0.24363
 C1137 C 0.39532 0.92344 0.23052
 C1138 C 0.39300 0.90122 0.22732
 C1139 C 0.40822 0.88991 0.21528
 C1140 C 0.42585 0.90077 0.20641
 C1141 C 0.42808 0.92302 0.20947
 C1142 C 0.41285 0.93434 0.22150
 C1143 C 0.44185 0.88899 0.19459
 C1144 C 0.45530 0.87901 0.18488
 H1145 H 0.37955 0.89263 0.23428
 H1146 H 0.40636 0.87270 0.21305
 H1147 H 0.44167 0.93156 0.20271
 H1148 H 0.41484 0.95150 0.22395
 C1149 C 0.62945 0.05724 0.26305
 C1150 C 0.61717 0.06738 0.25206
 C1151 C 0.60242 0.07941 0.23897
 C1152 C 0.60975 0.09684 0.22669
 C1153 C 0.59535 0.10860 0.21407
 C1154 C 0.57358 0.10294 0.21369
 C1155 C 0.56627 0.08548 0.22594
 C1156 C 0.58066 0.07373 0.23855
 C1157 C 0.55868 0.11516 0.20096
 C1158 C 0.54600 0.12535 0.19047
 H1159 H 0.62654 0.10137 0.22691
 H1160 H 0.60116 0.12209 0.20469
 H1161 H 0.54947 0.08099 0.22578
 H1162 H 0.57483 0.06028 0.24798
 C1163 C 0.37051 0.05970 0.73825
 C1164 C 0.38290 0.06977 0.74923
 C1165 C 0.39782 0.08169 0.76226
 C1166 C 0.41940 0.07548 0.76304
 C1167 C 0.43398 0.08713 0.77557
 C1168 C 0.42703 0.10503 0.78738
 C1169 C 0.40543 0.11122 0.78665
 C1170 C 0.39085 0.09956 0.77411
 C1171 C 0.44215 0.11713 0.80001
 C1172 C 0.45505 0.12719 0.81039
 H1173 H 0.42496 0.06169 0.75394
 H1174 H 0.45065 0.08223 0.77600
 H1175 H 0.39990 0.12505 0.79570
 H1176 H 0.37419 0.10450 0.77361
 C1177 C 0.62686 0.73979 0.05731
 C1178 C 0.61430 0.75081 0.06709
 C1179 C 0.59922 0.76394 0.07870
 C1180 C 0.60603 0.77614 0.09638
 C1181 C 0.59132 0.78883 0.10769
 C1182 C 0.56975 0.78936 0.10136
 C1183 C 0.56296 0.77718 0.08366
 C1184 C 0.57766 0.76450 0.07235
 C1185 C 0.55454 0.80222 0.11309
 C1186 C 0.54163 0.81284 0.12287
 H1187 H 0.62266 0.77582 0.10142
 H1188 H 0.59673 0.79817 0.12137
 H1189 H 0.54632 0.77745 0.07864
 H1190 H 0.57223 0.75512 0.05870
 C1191 C 0.37505 0.26135 0.05890
 C1192 C 0.38785 0.25061 0.06867
 C1193 C 0.40315 0.23784 0.08036
 C1194 C 0.42517 0.24065 0.07677
 C1195 C 0.44005 0.22834 0.08824
 C1196 C 0.43298 0.21317 0.10333
 C1197 C 0.41095 0.21033 0.10689
 C1198 C 0.39607 0.22263 0.09542
 C1199 C 0.44832 0.20070 0.11529
 C1200 C 0.46127 0.19040 0.12533
 H1201 H 0.43082 0.25237 0.06517
 H1202 H 0.45704 0.23069 0.08538
 H1203 H 0.40531 0.19866 0.11854
 H1204 H 0.37908 0.22034 0.09832
 C1205 C 0.62901 0.26027 0.94150
 C1206 C 0.61620 0.24965 0.93158
 C1207 C 0.60087 0.23706 0.91968
 C1208 C 0.59951 0.23919 0.89731
 C1209 C 0.58447 0.22713 0.88575
 C1210 C 0.57073 0.21287 0.89651
 C1211 C 0.57213 0.21069 0.91887
 C1212 C 0.58717 0.22276 0.93044
 C1213 C 0.55504 0.20072 0.88464
 C1214 C 0.54179 0.19067 0.87469
 H1215 H 0.61002 0.25022 0.88884
 H1216 H 0.58350 0.22896 0.86847
 H1217 H 0.56156 0.19974 0.92736
 H1218 H 0.58808 0.22100 0.94773
 C1219 C 0.37167 0.73970 0.94376
 C1220 C 0.38413 0.75093 0.93403
 C1221 C 0.39909 0.76429 0.92245
 C1222 C 0.39176 0.77834 0.90645
 C1223 C 0.40633 0.79122 0.89514
 C1224 C 0.42830 0.79010 0.89979
 C1225 C 0.43562 0.77609 0.91583
 C1226 C 0.42105 0.76321 0.92713
 C1227 C 0.44338 0.80312 0.88799
 C1228 C 0.45619 0.81382 0.87812
 H1229 H 0.37481 0.77930 0.90270
 H1230 H 0.40050 0.80198 0.88275
 H1231 H 0.45257 0.77507 0.91954
 H1232 H 0.42690 0.75241 0.93947
 C1233 C 0.73815 0.93654 0.37306
 C1234 C 0.74891 0.92635 0.38552
 C1235 C 0.76169 0.91433 0.40055
 C1236 C 0.78067 0.90432 0.39380
 C1237 C 0.79319 0.89287 0.40853
 C1238 C 0.78676 0.89140 0.43006
 C1239 C 0.76775 0.90136 0.43678
 C1240 C 0.75524 0.91280 0.42206
 C1241 C 0.79971 0.87992 0.44536
 C1242 C 0.81037 0.87051 0.45849
 H1243 H 0.78580 0.90543 0.37720
 H1244 H 0.80787 0.88525 0.40318
 H1245 H 0.76265 0.90035 0.45339
 H1246 H 0.74060 0.92051 0.42745
 C1247 C 0.26133 0.93947 0.62777
 C1248 C 0.25072 0.92920 0.61523
 C1249 C 0.23816 0.91706 0.60009
 C1250 C 0.22049 0.90496 0.60710
 C1251 C 0.20825 0.89327 0.59229
 C1252 C 0.21364 0.89363 0.57044
 C1253 C 0.23132 0.90570 0.56345
 C1254 C 0.24355 0.91739 0.57824
 C1255 C 0.20105 0.88175 0.55511
 C1256 C 0.19069 0.87198 0.54198
 H1257 H 0.21619 0.90461 0.62396
 H1258 H 0.19460 0.88399 0.59786
 H1259 H 0.23562 0.90610 0.54658
 H1260 H 0.25717 0.92669 0.57266
 C1261 C 0.25526 0.05970 0.36529
 C1262 C 0.24383 0.06922 0.37769
 C1263 C 0.23064 0.08065 0.39284
 C1264 C 0.23117 0.10321 0.39353
 C1265 C 0.21910 0.11431 0.40889
 C1266 C 0.20645 0.10291 0.42363
 C1267 C 0.20576 0.08037 0.42282
 C1268 C 0.21783 0.06926 0.40746
 C1269 C 0.19468 0.11434 0.43993
 C1270 C 0.18508 0.12401 0.45370
 H1271 H 0.24109 0.11217 0.38236
 H1272 H 0.21980 0.13175 0.40941
 H1273 H 0.19607 0.07139 0.43418
 H1274 H 0.21737 0.05181 0.40712
 C1275 C 0.74397 0.05734 0.63255
 C1276 C 0.75565 0.06662 0.62017
 C1277 C 0.76919 0.07777 0.60507
 C1278 C 0.78189 0.06611 0.59058
 C1279 C 0.79436 0.07695 0.57533
 C1280 C 0.79418 0.09951 0.57450
 C1281 C 0.78164 0.11117 0.58911
 C1282 C 0.76917 0.10033 0.60436
 C1283 C 0.80638 0.11069 0.55831
 C1284 C 0.81632 0.12018 0.54463
 H1285 H 0.78197 0.04866 0.59094
 H1286 H 0.80395 0.06777 0.56407
 H1287 H 0.78133 0.12861 0.58858
 H1288 H 0.75935 0.10951 0.61543
 C1289 C 0.93993 0.63371 0.25687
 C1290 C 0.92997 0.62139 0.24570
 C1291 C 0.91812 0.60632 0.23275
 C1292 C 0.89686 0.60124 0.23805
 C1293 C 0.88558 0.58597 0.22599
 C1294 C 0.89551 0.57572 0.20857
 C1295 C 0.91671 0.58093 0.20315
 C1296 C 0.92800 0.59621 0.21522
 C1297 C 0.88409 0.55957 0.19657
 C1298 C 0.87452 0.54590 0.18669
 H1299 H 0.88910 0.60891 0.25162
 H1300 H 0.86920 0.58203 0.23034
 H1301 H 0.92455 0.57307 0.18974
 H1302 H 0.94446 0.59997 0.21103
 C1303 C 0.94208 0.37205 0.73734
 C1304 C 0.93213 0.38464 0.74819
 C1305 C 0.92029 0.39973 0.76111
 C1306 C 0.93032 0.41845 0.76873
 C1307 C 0.91877 0.43322 0.78113
 C1308 C 0.89715 0.42934 0.78595
 C1309 C 0.88714 0.41059 0.77838
 C1310 C 0.89869 0.39581 0.76599
 C1311 C 0.88518 0.44472 0.79840
 C1312 C 0.87515 0.45773 0.80868
 H1313 H 0.94702 0.42163 0.76504
 H1314 H 0.92665 0.44768 0.78687
 H1315 H 0.87042 0.40745 0.78199
 H1316 H 0.89079 0.38140 0.76016
 C1317 C 0.05957 0.63207 0.74426
 C1318 C 0.06893 0.61920 0.75531
 C1319 C 0.08012 0.60347 0.76802
 C1320 C 0.08989 0.58585 0.75794
 C1321 C 0.10071 0.57042 0.77017
 C1322 C 0.10180 0.57254 0.79255
 C1323 C 0.09203 0.59016 0.80266
 C1324 C 0.08120 0.60561 0.79041
 C1325 C 0.11304 0.55664 0.80503
 C1326 C 0.12260 0.54321 0.81519
 H1327 H 0.08913 0.58403 0.74064
 H1328 H 0.10821 0.55687 0.76219
 H1329 H 0.09280 0.59196 0.81996
 H1330 H 0.07368 0.61916 0.79837
 C1331 C 0.05526 0.36802 0.25670
 C1332 C 0.06511 0.38036 0.24544
 C1333 C 0.07692 0.39539 0.23237
 C1334 C 0.09890 0.39234 0.22878
 C1335 C 0.11054 0.40739 0.21676
 C1336 C 0.10025 0.42555 0.20829
 C1337 C 0.07823 0.42850 0.21173
 C1338 C 0.06659 0.41345 0.22375
 C1339 C 0.11235 0.44139 0.19651
 C1340 C 0.12251 0.45480 0.18685
 H1341 H 0.10707 0.37846 0.23544
 H1342 H 0.12757 0.40497 0.21424
 H1343 H 0.07012 0.44251 0.20529
 H1344 H 0.04962 0.41601 0.22648
   
