data_POSCAR
  _audit_creation_date              2014-09-24
  _audit_creation_method            'ToBaCCo'
  _symmetry_space_group_name_H-M    'P1'
  _symmetry_Int_Tables_number       1
  _symmetry_cell_setting            triclinic
  loop_
  _symmetry_equiv_pos_as_xyz
 x,y,z
_cell_length_a 72.5979
_cell_length_b 72.3130
_cell_length_c 73.2357
_cell_angle_alpha 89.951000
_cell_angle_beta 90.038900
_cell_angle_gamma 90.018900
loop_
  _atom_site_label
  _atom_site_type_symbol
  _atom_site_fract_x
  _atom_site_fract_y
  _atom_site_fract_z
C1 C 0.37475 0.29557 -0.00858
 C2 C 0.37441 0.29522 0.01013
 C3 C 0.35714 0.30140 0.01528
 N4 N 0.34682 0.30537 0.00039
 C5 C 0.35752 0.30162 -0.01425
 C6 C 0.35073 0.30222 0.03344
 C7 C 0.33493 0.31238 0.03842
 C8 C 0.32589 0.31102 0.05504
 C9 C 0.31245 0.32444 0.05507
 C10 C 0.31370 0.33358 0.03846
 N11 N 0.32738 0.32610 0.02839
 C12 C 0.30349 0.34940 0.03352
 C13 C 0.30257 0.35588 0.01537
 C14 C 0.29632 0.37321 0.01025
 C15 C 0.29661 0.37360 -0.00846
 C16 C 0.30271 0.35635 -0.01416
 N17 N 0.30654 0.34559 0.00046
 C18 C 0.30384 0.35035 -0.03255
 C19 C 0.31440 0.33457 -0.03737
 C20 C 0.31185 0.32413 -0.05305
 C21 C 0.32525 0.31075 -0.05308
 C22 C 0.33570 0.31332 -0.03741
 N23 N 0.32881 0.32771 -0.02773
 C24 C 0.35149 0.30279 -0.03263
 H25 H 0.38639 0.29181 -0.01702
 H26 H 0.38564 0.29103 0.01894
 H27 H 0.33471 0.33363 -0.01615
 H28 H 0.32888 0.30157 0.06612
 H29 H 0.30305 0.32736 0.06617
 H30 H 0.29212 0.38443 0.01908
 H31 H 0.29279 0.38529 -0.01687
 H32 H 0.32699 0.30019 -0.06340
 H33 H 0.33273 0.33154 0.01634
 H34 H 0.30128 0.32584 -0.06335
 C35 C 0.71936 0.63997 -0.00885
 C36 C 0.71903 0.63986 0.00985
 C37 C 0.70210 0.64697 0.01495
 N38 N 0.69198 0.65129 0.00003
 C39 C 0.70246 0.64684 -0.01459
 C40 C 0.69577 0.64820 0.03312
 C41 C 0.68045 0.65904 0.03817
 C42 C 0.67140 0.65798 0.05481
 C43 C 0.65828 0.67170 0.05480
 C44 C 0.65969 0.68074 0.03814
 N45 N 0.67326 0.67295 0.02812
 C46 C 0.64928 0.69639 0.03299
 C47 C 0.64815 0.70269 0.01478
 C48 C 0.64017 0.71921 0.00934
 C49 C 0.64042 0.71930 -0.00938
 C50 C 0.64854 0.70283 -0.01473
 N51 N 0.65326 0.69270 0.00004
 C52 C 0.64993 0.69659 -0.03292
 C53 C 0.66037 0.68093 -0.03794
 C54 C 0.65835 0.67141 -0.05422
 C55 C 0.67141 0.65768 -0.05424
 C56 C 0.68130 0.65934 -0.03808
 N57 N 0.67435 0.67349 -0.02813
 C58 C 0.69659 0.64818 -0.03303
 H59 H 0.73078 0.63552 -0.01724
 H60 H 0.73003 0.63518 0.01870
 H61 H 0.68000 0.67893 -0.01622
 H62 H 0.67408 0.64842 0.06588
 H63 H 0.64886 0.67474 0.06584
 H64 H 0.63454 0.72996 0.01796
 H65 H 0.63500 0.73013 -0.01807
 H66 H 0.67329 0.64753 -0.06494
 H67 H 0.67870 0.67811 0.01600
 H68 H 0.64838 0.67400 -0.06492
 C69 C 0.63899 0.28094 0.99012
 C70 C 0.63934 0.28082 1.00885
 C71 C 0.64752 0.29727 1.01420
 N72 N 0.65219 0.30742 0.99942
 C73 C 0.64699 0.29746 0.98469
 C74 C 0.64902 0.30347 1.03239
 C75 C 0.65950 0.31913 1.03740
 C76 C 0.65757 0.32862 1.05370
 C77 C 0.67065 0.34234 1.05371
 C78 C 0.68047 0.34069 1.03752
 N79 N 0.67346 0.32657 1.02757
 C80 C 0.69577 0.35183 1.03246
 C81 C 0.70157 0.35319 1.01400
 C82 C 0.71847 0.36003 1.00823
 C83 C 0.71808 0.36013 0.98952
 C84 C 0.70112 0.35306 0.98445
 N85 N 0.69103 0.34876 0.99940
 C86 C 0.69473 0.35183 0.96629
 C87 C 0.67935 0.34104 0.96126
 C88 C 0.67027 0.34213 0.94463
 C89 C 0.65710 0.32844 0.94466
 C90 C 0.65852 0.31940 0.96131
 N91 N 0.67214 0.32715 0.97133
 C92 C 0.64806 0.30378 0.96648
 H93 H 0.63331 0.27021 0.98151
 H94 H 0.63395 0.26998 1.01754
 H95 H 0.67759 0.32198 0.98343
 H96 H 0.64764 0.32602 1.06442
 H97 H 0.67259 0.35246 1.06442
 H98 H 0.72994 0.36445 1.01660
 H99 H 0.72907 0.36479 0.98066
 H100 H 0.64764 0.32543 0.93363
 H101 H 0.67905 0.32114 1.01563
 H102 H 0.67296 0.35168 0.93356
 C103 C 0.29608 0.62557 1.00943
 C104 C 0.29584 0.62567 0.99072
 C105 C 0.30402 0.64208 0.98529
 N106 N 0.30929 0.65196 1.00006
 C107 C 0.30461 0.64186 1.01489
 C108 C 0.30518 0.64832 0.96705
 C109 C 0.31539 0.66409 0.96180
 C110 C 0.31406 0.67279 0.94496
 C111 C 0.32704 0.68664 0.94482
 C112 C 0.33591 0.68601 0.96157
 N113 N 0.32874 0.67224 0.97184
 C114 C 0.35118 0.69698 0.96652
 C115 C 0.35731 0.69866 0.98472
 C116 C 0.37425 0.70576 0.98985
 C117 C 0.37449 0.70583 1.00855
 C118 C 0.35753 0.69907 1.01427
 N119 N 0.34709 0.69455 0.99963
 C120 C 0.35171 0.69762 1.03271
 C121 C 0.33633 0.68658 1.03776
 C122 C 0.32693 0.68790 1.05420
 C123 C 0.31411 0.67395 1.05440
 C124 C 0.31554 0.66471 1.03785
 N125 N 0.32917 0.67253 1.02780
 C126 C 0.30587 0.64832 1.03313
 H127 H 0.29007 0.61493 1.01793
 H128 H 0.28994 0.61504 0.98211
 H129 H 0.33482 0.66716 1.01588
 H130 H 0.30482 0.66938 0.93385
 H131 H 0.32979 0.69597 0.93358
 H132 H 0.38536 0.71022 0.98103
 H133 H 0.38594 0.71022 1.01695
 H134 H 0.30504 0.67091 1.06571
 H135 H 0.33417 0.66733 0.98406
 H136 H 0.32923 0.69773 1.06510
 C137 C -0.00879 0.35905 0.28111
 C138 C 0.01008 0.35947 0.28138
 C139 C 0.01537 0.35329 0.29849
 N140 N 0.00042 0.34924 0.30876
 C141 C -0.01441 0.35298 0.29822
 C142 C 0.03369 0.35274 0.30487
 C143 C 0.03886 0.34264 0.32054
 C144 C 0.05554 0.34432 0.32962
 C145 C 0.05565 0.33103 0.34309
 C146 C 0.03903 0.32166 0.34182
 N147 N 0.02889 0.32883 0.32806
 C148 C 0.03409 0.30602 0.35223
 C149 C 0.01583 0.29942 0.35312
 C150 C 0.01075 0.28222 0.35972
 C151 C -0.00812 0.28178 0.35950
 C152 C -0.01395 0.29889 0.35310
 N153 N 0.00075 0.30959 0.34899
 C154 C -0.03250 0.30490 0.35211
 C155 C -0.03750 0.32049 0.34140
 C156 C -0.05322 0.33107 0.34399
 C157 C -0.05333 0.34431 0.33056
 C158 C -0.03767 0.34153 0.32006
 N159 N -0.02793 0.32713 0.32693
 C160 C -0.03290 0.35199 0.30434
 H161 H -0.01739 0.36289 0.26964
 H162 H 0.01890 0.36377 0.27026
 H163 H -0.01631 0.32111 0.32105
 H164 H 0.06658 0.35394 0.32670
 H165 H 0.06679 0.32841 0.35258
 H166 H 0.01971 0.27115 0.36419
 H167 H -0.01658 0.27020 0.36367
 H168 H -0.06366 0.35497 0.32890
 H169 H 0.01680 0.32322 0.32277
 H170 H -0.06345 0.32960 0.35464
 C171 C -0.00828 0.62645 0.70611
 C172 C 0.01059 0.62672 0.70622
 C173 C 0.01581 0.64373 0.69926
 N174 N 0.00079 0.65397 0.69505
 C175 C -0.01401 0.64347 0.69939
 C176 C 0.03419 0.64992 0.69784
 C177 C 0.03933 0.66527 0.68707
 C178 C 0.05628 0.67407 0.68780
 C179 C 0.05631 0.68712 0.67411
 C180 C 0.03937 0.68590 0.66542
 N181 N 0.02911 0.67255 0.67341
 C182 C 0.03422 0.69613 0.64980
 C183 C 0.01582 0.69744 0.64368
 C184 C 0.01036 0.70510 0.62719
 C185 C -0.00853 0.70495 0.62714
 C186 C -0.01395 0.69721 0.64360
 N187 N 0.00094 0.69264 0.65370
 C188 C -0.03232 0.69581 0.64972
 C189 C -0.03738 0.68556 0.66535
 C190 C -0.05390 0.68755 0.67459
 C191 C -0.05397 0.67453 0.68826
 C192 C -0.03759 0.66470 0.68684
 N193 N -0.02747 0.67166 0.67291
 C194 C -0.03261 0.64933 0.69787
 H195 H -0.01678 0.61494 0.71037
 H196 H 0.01945 0.61558 0.71072
 H197 H -0.01543 0.66597 0.66764
 H198 H 0.06755 0.67123 0.69707
 H199 H 0.06760 0.69631 0.67080
 H200 H 0.01907 0.71037 0.61638
 H201 H -0.01727 0.71011 0.61629
 H202 H -0.06487 0.67257 0.69815
 H203 H 0.01678 0.66719 0.66848
 H204 H -0.06475 0.69742 0.67181
 C205 C 1.01021 0.70287 0.37476
 C206 C 0.99134 0.70311 0.37476
 C207 C 0.98578 0.69513 0.35849
 N208 N 1.00062 0.68997 0.34858
 C209 C 1.01563 0.69454 0.35854
 C210 C 0.96734 0.69406 0.35240
 C211 C 0.96194 0.68402 0.33675
 C212 C 0.94490 0.68545 0.32828
 C213 C 0.94468 0.67261 0.31443
 C214 C 0.96159 0.66372 0.31484
 N215 N 0.97202 0.67074 0.32847
 C216 C 0.96652 0.64857 0.30376
 C217 C 0.98489 0.64248 0.30189
 C218 C 0.99003 0.62561 0.29458
 C219 C 1.00889 0.62542 0.29436
 C220 C 1.01469 0.64233 0.30126
 N221 N 0.99995 0.65270 0.30600
 C222 C 1.03331 0.64819 0.30265
 C223 C 1.03847 0.66344 0.31378
 C224 C 1.05503 0.67292 0.31252
 C225 C 1.05532 0.68556 0.32649
 C226 C 1.03867 0.68393 0.33570
 N227 N 1.02850 0.67037 0.32783
 C228 C 1.03400 0.69338 0.35205
 H229 H 1.01885 0.70876 0.38530
 H230 H 0.98272 0.70890 0.38537
 H231 H 1.01650 0.66460 0.33311
 H232 H 0.93371 0.69465 0.33182
 H233 H 0.93329 0.66996 0.30526
 H234 H 0.98112 0.61452 0.29006
 H235 H 1.01735 0.61401 0.28979
 H236 H 1.06674 0.69463 0.32957
 H237 H 0.98439 0.66524 0.33315
 H238 H 1.06597 0.67081 0.30271
 C239 C 1.01038 0.36156 0.71847
 C240 C 0.99151 0.36169 0.71838
 C241 C 0.98605 0.35280 0.70254
 N242 N 1.00096 0.34718 0.69300
 C243 C 1.01594 0.35236 0.70275
 C244 C 0.96761 0.35139 0.69648
 C245 C 0.96215 0.34077 0.68120
 C246 C 0.94508 0.34201 0.67276
 C247 C 0.94486 0.32898 0.65910
 C248 C 0.96181 0.32016 0.65956
 N249 N 0.97222 0.32734 0.67315
 C250 C 0.96690 0.30529 0.64812
 C251 C 0.98528 0.29931 0.64600
 C252 C 0.99060 0.28343 0.63684
 C253 C 1.00949 0.28337 0.63671
 C254 C 1.01507 0.29923 0.64580
 N255 N 1.00025 0.30897 0.65143
 C256 C 1.03355 0.30502 0.64772
 C257 C 1.03905 0.31989 0.65901
 C258 C 1.05640 0.32786 0.65881
 C259 C 1.05672 0.34074 0.67257
 C260 C 1.03943 0.34056 0.68074
 N261 N 1.02884 0.32762 0.67245
 C262 C 1.03443 0.35078 0.69657
 H263 H 1.01889 0.36808 0.72872
 H264 H 0.98282 0.36803 0.72862
 H265 H 1.01625 0.32271 0.67709
 H266 H 0.93391 0.35132 0.67609
 H267 H 0.93351 0.32632 0.64989
 H268 H 0.98180 0.27302 0.63078
 H269 H 1.01811 0.27290 0.63053
 H270 H 1.06862 0.34888 0.67633
 H271 H 0.98465 0.32206 0.67788
 H272 H 1.06781 0.32447 0.64993
 C273 C 0.37259 0.00894 0.29281
 C274 C 0.37238 -0.01001 0.29268
 C275 C 0.35630 -0.01539 0.30141
 N276 N 0.34666 -0.00038 0.30679
 C277 C 0.35663 0.01451 0.30161
 C278 C 0.35033 -0.03388 0.30339
 C279 C 0.33528 -0.03918 0.31448
 C280 C 0.32725 -0.05655 0.31436
 C281 C 0.31434 -0.05670 0.32807
 C282 C 0.31458 -0.03929 0.33612
 N283 N 0.32754 -0.02878 0.32777
 C284 C 0.30455 -0.03414 0.35200
 C285 C 0.30306 -0.01554 0.35807
 C286 C 0.29406 -0.00984 0.37383
 C287 C 0.29417 0.00911 0.37374
 C288 C 0.30300 0.01448 0.35784
 N289 N 0.30831 -0.00057 0.34825
 C290 C 0.30481 0.03298 0.35187
 C291 C 0.31545 0.03830 0.33658
 C292 C 0.31467 0.05554 0.32828
 C293 C 0.32773 0.05558 0.31469
 C294 C 0.33611 0.03836 0.31505
 N295 N 0.32861 0.02794 0.32847
 C296 C 0.35101 0.03307 0.30380
 H297 H 0.38326 0.01762 0.28706
 H298 H 0.38287 -0.01882 0.28681
 H299 H 0.33361 0.01535 0.33317
 H300 H 0.33066 -0.06811 0.30562
 H301 H 0.30619 -0.06859 0.33190
 H302 H 0.28757 -0.01831 0.38415
 H303 H 0.28810 0.01790 0.38406
 H304 H 0.33076 0.06702 0.30564
 H305 H 0.33253 -0.01617 0.33239
 H306 H 0.30569 0.06696 0.33173
 C307 C 0.71689 -0.00838 0.63619
 C308 C 0.71679 0.01058 0.63631
 C309 C 0.70087 0.01588 0.64534
 N310 N 0.69123 0.00083 0.65068
 C311 C 0.70102 -0.01402 0.64513
 C312 C 0.69487 0.03434 0.64741
 C313 C 0.67997 0.03943 0.65874
 C314 C 0.67119 0.05645 0.65825
 C315 C 0.65809 0.05620 0.67179
 C316 C 0.65922 0.03905 0.68020
 N317 N 0.67268 0.02895 0.67224
 C318 C 0.64848 0.03352 0.69535
 C319 C 0.64704 0.01499 0.70139
 C320 C 0.63803 0.00948 0.71713
 C321 C 0.63820 -0.00946 0.71722
 C322 C 0.64755 -0.01502 0.70160
 N323 N 0.65277 0.00003 0.69190
 C324 C 0.64923 -0.03358 0.69545
 C325 C 0.65958 -0.03858 0.67971
 C326 C 0.65954 -0.05595 0.67156
 C327 C 0.67251 -0.05560 0.65792
 C328 C 0.68038 -0.03816 0.65818
 N329 N 0.67252 -0.02792 0.67153
 C330 C 0.69529 -0.03259 0.64701
 H331 H 0.72739 -0.01702 0.63010
 H332 H 0.72719 0.01943 0.63035
 H333 H 0.67732 -0.01526 0.67620
 H334 H 0.67394 0.06787 0.64909
 H335 H 0.64879 0.06742 0.67507
 H336 H 0.63159 0.01819 0.72731
 H337 H 0.63161 -0.01802 0.72740
 H338 H 0.67600 -0.06706 0.64908
 H339 H 0.67788 0.01645 0.67698
 H340 H 0.65143 -0.06792 0.67526
 C341 C 0.29483 0.98924 0.62609
 C342 C 0.29490 1.00818 0.62578
 C343 C 0.30135 1.01397 0.64269
 N344 N 0.30556 0.99914 0.65318
 C345 C 0.30154 0.98404 0.64302
 C346 C 0.30272 1.03266 0.64847
 C347 C 0.31357 1.03772 0.66383
 C348 C 0.31192 1.05418 0.67346
 C349 C 0.32548 1.05416 0.68655
 C350 C 0.33486 1.03758 0.68481
 N351 N 0.32750 1.02759 0.67098
 C352 C 0.35044 1.03254 0.69523
 C353 C 0.35660 1.01411 0.69680
 C354 C 0.37305 1.00870 0.70479
 C355 C 0.37300 0.98973 0.70501
 C356 C 0.35652 0.98422 0.69714
 N357 N 0.34651 0.99914 0.69215
 C358 C 0.35039 0.96574 0.69580
 C359 C 0.33486 0.96052 0.68539
 C360 C 0.32610 0.94350 0.68647
 C361 C 0.31256 0.94348 0.67331
 C362 C 0.31345 0.96048 0.66458
 N363 N 0.32706 0.97077 0.67202
 C364 C 0.30288 0.96560 0.64921
 H365 H 0.29051 0.98031 0.61503
 H366 H 0.29078 1.01669 0.61432
 H367 H 0.33212 0.98315 0.66679
 H368 H 0.30196 1.06510 0.67131
 H369 H 0.32808 1.06508 0.69632
 H370 H 0.38388 1.01749 0.71006
 H371 H 0.38380 0.98101 0.71047
 H372 H 0.30328 0.93216 0.67035
 H373 H 0.33295 1.01550 0.66549
 H374 H 0.32926 0.93220 0.69564
 C375 C 0.64053 1.00971 0.28180
 C376 C 0.64029 0.99076 0.28191
 C377 C 0.64860 0.98528 0.29806
 N378 N 0.65397 1.00023 0.30776
 C379 C 0.64917 1.01525 0.29783
 C380 C 0.64958 0.96682 0.30433
 C381 C 0.65984 0.96146 0.31985
 C382 C 0.65831 0.94450 0.32859
 C383 C 0.67124 0.94435 0.34233
 C384 C 0.68028 0.96123 0.34159
 N385 N 0.67330 0.97155 0.32783
 C386 C 0.69539 0.96627 0.35262
 C387 C 0.70161 0.98469 0.35415
 C388 C 0.71842 0.98986 0.36146
 C389 C 0.71868 1.00880 0.36151
 C390 C 0.70185 1.01460 0.35452
 N391 N 0.69149 0.99979 0.34986
 C392 C 0.69599 1.03327 0.35316
 C393 C 0.68076 1.03844 0.34208
 C394 C 0.67125 1.05502 0.34343
 C395 C 0.65847 1.05522 0.32962
 C396 C 0.66004 1.03851 0.32042
 N397 N 0.67373 1.02839 0.32810
 C398 C 0.65028 1.03370 0.30428
 H399 H 0.63440 1.01831 0.27135
 H400 H 0.63425 0.98204 0.27151
 H401 H 0.67942 1.01633 0.32280
 H402 H 0.64893 0.93334 0.32535
 H403 H 0.67378 0.93306 0.35170
 H404 H 0.72940 0.98091 0.36616
 H405 H 0.73002 1.01731 0.36612
 H406 H 0.64931 1.06662 0.32667
 H407 H 0.67880 0.98388 0.32295
 H408 H 0.67337 1.06599 0.35325
 O409 O 0.84555 0.81868 0.48277
 O410 O 0.82001 0.84434 0.51792
 O411 O 0.84549 0.81899 0.51823
 O412 O 0.82001 0.84398 0.48247
 O413 O 0.79861 0.82232 0.48263
 O414 O 0.82416 0.79727 0.51845
 O415 O 0.79860 0.82270 0.51813
 O416 O 0.82423 0.79695 0.48291
 Cu417 Cu 0.83490 0.83366 0.50033
 Cu418 Cu 0.80926 0.80763 0.50055
 C419 C 0.83934 0.80338 0.47688
 C420 C 0.80487 0.83800 0.52397
 C421 C 0.83925 0.80381 0.52441
 C422 C 0.80489 0.83751 0.47650
 O423 O 0.15629 0.18128 0.48197
 O424 O 0.18127 0.15570 0.51763
 O425 O 0.15601 0.18123 0.51741
 O426 O 0.18149 0.15569 0.48216
 O427 O 0.20312 0.17712 0.48228
 O428 O 0.17755 0.20275 0.51761
 O429 O 0.20289 0.17713 0.51782
 O430 O 0.17783 0.20280 0.48210
 Cu431 Cu 0.16661 0.16633 0.49978
 Cu432 Cu 0.19252 0.19210 0.49997
 C433 C 0.16270 0.19647 0.47599
 C434 C 0.19639 0.16197 0.52379
 C435 C 0.16233 0.19641 0.52348
 C436 C 0.19671 0.16196 0.47623
 O437 O 0.18041 0.84391 0.48119
 O438 O 0.15510 0.81854 0.51675
 O439 O 0.18043 0.84400 0.51664
 O440 O 0.15506 0.81838 0.48128
 O441 O 0.17653 0.79681 0.48134
 O442 O 0.20197 0.82249 0.51678
 O443 O 0.17656 0.79695 0.51687
 O444 O 0.20195 0.82241 0.48125
 Cu445 Cu 0.16560 0.83336 0.49894
 Cu446 Cu 0.19141 0.80750 0.49905
 C447 C 0.19557 0.83759 0.47520
 C448 C 0.16144 0.80337 0.52287
 C449 C 0.19557 0.83769 0.52273
 C450 C 0.16137 0.80316 0.47533
 O451 O 0.81837 0.15752 0.48191
 O452 O 0.84359 0.18300 0.51742
 O453 O 0.81816 0.15760 0.51735
 O454 O 0.84376 0.18295 0.48197
 O455 O 0.82236 0.20459 0.48173
 O456 O 0.79669 0.17917 0.51721
 O457 O 0.82221 0.20466 0.51727
 O458 O 0.79688 0.17907 0.48169
 Cu459 Cu 0.83311 0.16811 0.49968
 Cu460 Cu 0.80738 0.19404 0.49946
 C461 C 0.80326 0.16384 0.47579
 C462 C 0.83731 0.19824 0.52336
 C463 C 0.80299 0.16397 0.52328
 C464 C 0.83752 0.19815 0.47585
 O465 O 0.48300 0.84509 0.81919
 O466 O 0.51892 0.81995 0.84447
 O467 O 0.51877 0.84525 0.81913
 O468 O 0.48315 0.81987 0.84457
 O469 O 0.48311 0.79809 0.82351
 O470 O 0.51880 0.82355 0.79798
 O471 O 0.51895 0.79818 0.82340
 O472 O 0.48296 0.82338 0.79805
 Cu473 Cu 0.50097 0.83471 0.83395
 Cu474 Cu 0.50097 0.80862 0.80862
 C475 C 0.47688 0.83861 0.80425
 C476 C 0.52502 0.80471 0.83835
 C477 C 0.52482 0.83883 0.80415
 C478 C 0.47708 0.80460 0.83847
 O479 O 0.51903 0.17936 0.15519
 O480 O 0.48316 0.15411 0.18042
 O481 O 0.48326 0.17936 0.15506
 O482 O 0.51893 0.15404 0.18051
 O483 O 0.51894 0.17572 0.20168
 O484 O 0.48320 0.20112 0.17614
 O485 O 0.48310 0.17580 0.20157
 O486 O 0.51903 0.20112 0.17627
 Cu487 Cu 0.50110 0.16455 0.16569
 Cu488 Cu 0.50107 0.19062 0.19104
 C489 C 0.52509 0.19462 0.16133
 C490 C 0.47703 0.16057 0.19535
 C491 C 0.47717 0.19461 0.16117
 C492 C 0.52498 0.16046 0.19550
 O493 O 0.51676 0.15499 0.81883
 O494 O 0.48103 0.18018 0.84424
 O495 O 0.48100 0.15495 0.81889
 O496 O 0.51679 0.18021 0.84421
 O497 O 0.51677 0.20203 0.82315
 O498 O 0.48090 0.17669 0.79774
 O499 O 0.48093 0.20200 0.82317
 O500 O 0.51674 0.17673 0.79768
 Cu501 Cu 0.49890 0.16541 0.83365
 Cu502 Cu 0.49883 0.19155 0.80832
 C503 C 0.52280 0.16147 0.80385
 C504 C 0.47492 0.19545 0.83814
 C505 C 0.47488 0.16142 0.80393
 C506 C 0.52284 0.19549 0.83810
 O507 O 0.48262 0.81999 0.15500
 O508 O 0.51830 0.84514 0.18057
 O509 O 0.51838 0.81996 0.15517
 O510 O 0.48253 0.84515 0.18038
 O511 O 0.48238 0.82338 0.20149
 O512 O 0.51830 0.79812 0.17620
 O513 O 0.51822 0.82338 0.20169
 O514 O 0.48247 0.79814 0.17603
 Cu515 Cu 0.50048 0.83474 0.16568
 Cu516 Cu 0.50034 0.80856 0.19097
 C517 C 0.47648 0.80473 0.16106
 C518 C 0.52430 0.83865 0.19556
 C519 C 0.52441 0.80467 0.16128
 C520 C 0.47636 0.83865 0.19529
 O521 O 0.84454 0.51829 0.81934
 O522 O 0.81916 0.48223 0.84427
 O523 O 0.84461 0.48238 0.81921
 O524 O 0.81915 0.51812 0.84440
 O525 O 0.79767 0.51823 0.82309
 O526 O 0.82322 0.48242 0.79781
 O527 O 0.79769 0.48227 0.82295
 O528 O 0.82315 0.51840 0.79794
 Cu529 Cu 0.83401 0.50024 0.83394
 Cu530 Cu 0.80828 0.50033 0.80830
 C531 C 0.83826 0.52447 0.80434
 C532 C 0.80402 0.47615 0.83797
 C533 C 0.83836 0.47635 0.80415
 C534 C 0.80401 0.52424 0.83814
 O535 O 0.18089 0.48247 0.15431
 O536 O 0.15574 0.51862 0.17925
 O537 O 0.18103 0.51838 0.15403
 O538 O 0.15564 0.48272 0.17955
 O539 O 0.17718 0.48278 0.20080
 O540 O 0.20262 0.51851 0.17523
 O541 O 0.17725 0.51874 0.20053
 O542 O 0.20250 0.48253 0.17549
 Cu543 Cu 0.16617 0.50054 0.16466
 Cu544 Cu 0.19206 0.50065 0.19014
 C545 C 0.19605 0.47636 0.16055
 C546 C 0.16209 0.52480 0.19422
 C547 C 0.19622 0.52448 0.16018
 C548 C 0.16199 0.47671 0.19460
 O549 O 0.84368 0.48098 0.18153
 O550 O 0.81873 0.51699 0.15609
 O551 O 0.84391 0.51689 0.18143
 O552 O 0.81857 0.48110 0.15611
 O553 O 0.79686 0.48119 0.17715
 O554 O 0.82229 0.51706 0.20258
 O555 O 0.79704 0.51716 0.17715
 O556 O 0.82205 0.48107 0.20266
 Cu557 Cu 0.83339 0.49898 0.16669
 Cu558 Cu 0.80738 0.49913 0.19201
 C559 C 0.83722 0.47493 0.19650
 C560 C 0.80356 0.52317 0.16218
 C561 C 0.83752 0.52305 0.19638
 C562 C 0.80332 0.47509 0.16220
 O563 O 0.15553 0.48120 0.82038
 O564 O 0.18092 0.51691 0.84575
 O565 O 0.15562 0.51710 0.82053
 O566 O 0.18088 0.48100 0.84556
 O567 O 0.20244 0.48105 0.82436
 O568 O 0.17710 0.51722 0.79925
 O569 O 0.20248 0.51703 0.82455
 O570 O 0.17700 0.48124 0.79910
 Cu571 Cu 0.16609 0.49904 0.83518
 Cu572 Cu 0.19192 0.49915 0.80968
 C573 C 0.16184 0.47517 0.80535
 C574 C 0.19609 0.52303 0.83957
 C575 C 0.16196 0.52329 0.80556
 C576 C 0.19603 0.47490 0.83932
 C577 C 0.26444 0.37193 0.05961
 C578 C 0.27394 0.38033 0.07404
 C579 C 0.29306 0.37816 0.07554
 C580 C 0.30267 0.36783 0.06252
 C581 C 0.29323 0.35960 0.04787
 C582 C 0.27403 0.36160 0.04660
 C583 C 0.26411 0.39173 0.08685
 C584 C 0.25572 0.40155 0.09721
 C585 C 0.24571 0.41334 0.10892
 C586 C 0.23702 0.42366 0.11853
 C587 C 0.22647 0.43629 0.12955
 C588 C 0.23354 0.44287 0.14610
 C589 C 0.22354 0.45573 0.15636
 C590 C 0.20635 0.46218 0.15015
 C591 C 0.19928 0.45528 0.13360
 C592 C 0.20929 0.44244 0.12339
 H593 H 0.24967 0.37356 0.05829
 H594 H 0.30055 0.38465 0.08661
 H595 H 0.31748 0.36648 0.06366
 H596 H 0.26653 0.35533 0.03541
 H597 H 0.24685 0.43823 0.15097
 H598 H 0.22937 0.46077 0.16903
 H599 H 0.18609 0.45994 0.12843
 H600 H 0.20370 0.43745 0.11058
 C601 C 0.72362 0.63568 0.07521
 C602 C 0.72442 0.61639 0.07370
 C603 C 0.71557 0.60752 0.05914
 C604 C 0.70609 0.61788 0.04606
 C605 C 0.70539 0.63723 0.04739
 C606 C 0.71414 0.64607 0.06211
 C607 C 0.73466 0.60563 0.08676
 C608 C 0.74334 0.59629 0.09735
 C609 C 0.75360 0.58499 0.10932
 C610 C 0.76245 0.57502 0.11918
 C611 C 0.77311 0.56274 0.13049
 C612 C 0.76603 0.55637 0.14712
 C613 C 0.77606 0.54371 0.15762
 C614 C 0.79329 0.53725 0.15158
 C615 C 0.80039 0.54396 0.13497
 C616 C 0.79035 0.55660 0.12451
 H617 H 0.73046 0.64268 0.08639
 H618 H 0.71612 0.59260 0.05783
 H619 H 0.69939 0.61084 0.03482
 H620 H 0.71377 0.66100 0.06330
 H621 H 0.75267 0.56099 0.15185
 H622 H 0.77021 0.53881 0.17033
 H623 H 0.81361 0.53927 0.12992
 H624 H 0.79594 0.56141 0.11164
 C625 C 0.71472 0.39238 0.94021
 C626 C 0.72354 0.38345 0.92569
 C627 C 0.72263 0.36415 0.92422
 C628 C 0.71308 0.35383 0.93731
 C629 C 0.70438 0.36274 0.95200
 C630 C 0.70517 0.38209 0.95329
 C631 C 0.73389 0.39412 0.91267
 C632 C 0.74269 0.40339 0.90212
 C633 C 0.75311 0.41462 0.89021
 C634 C 0.76212 0.42452 0.88043
 C635 C 0.77298 0.43672 0.86923
 C636 C 0.76609 0.44320 0.85256
 C637 C 0.77632 0.45580 0.84218
 C638 C 0.79356 0.46210 0.84841
 C639 C 0.80047 0.45527 0.86506
 C640 C 0.79023 0.44268 0.87539
 H641 H 0.71535 0.40730 0.94149
 H642 H 0.72945 0.35710 0.91306
 H643 H 0.71264 0.33891 0.93615
 H644 H 0.69850 0.38918 0.96450
 H645 H 0.75273 0.43870 0.84769
 H646 H 0.77061 0.46079 0.82944
 H647 H 0.81368 0.45983 0.87025
 H648 H 0.79567 0.43779 0.88830
 C649 C 0.26564 0.62746 0.94030
 C650 C 0.27507 0.61772 0.92668
 C651 C 0.29434 0.61841 0.92597
 C652 C 0.30415 0.62860 0.93896
 C653 C 0.29476 0.63814 0.95280
 C654 C 0.27543 0.63765 0.95328
 C655 C 0.26499 0.60649 0.91391
 C656 C 0.25642 0.59683 0.90354
 C657 C 0.24624 0.58522 0.89178
 C658 C 0.23743 0.57505 0.88210
 C659 C 0.22678 0.56261 0.87097
 C660 C 0.23375 0.55622 0.85432
 C661 C 0.22367 0.54352 0.84393
 C662 C 0.20648 0.53704 0.85012
 C663 C 0.19951 0.54375 0.86677
 C664 C 0.20961 0.55643 0.87711
 H665 H 0.25074 0.62699 0.94100
 H666 H 0.30178 0.61089 0.91552
 H667 H 0.31906 0.62885 0.93842
 H668 H 0.26798 0.64499 0.96384
 H669 H 0.24706 0.56088 0.84946
 H670 H 0.22942 0.53863 0.83118
 H671 H 0.18633 0.53905 0.87192
 H672 H 0.20410 0.56126 0.89000
 C673 C 0.07681 0.27855 0.36470
 C674 C 0.07495 0.27723 0.38370
 C675 C 0.05997 0.28564 0.39239
 C676 C 0.04681 0.29519 0.38215
 C677 C 0.04848 0.29639 0.36309
 C678 C 0.06363 0.28810 0.35443
 C679 C 0.08805 0.26686 0.39432
 C680 C 0.09863 0.25804 0.40355
 C681 C 0.11055 0.24758 0.41474
 C682 C 0.12032 0.23855 0.42462
 C683 C 0.13149 0.22765 0.43678
 C684 C 0.14829 0.23453 0.44327
 C685 C 0.15864 0.22426 0.45582
 C686 C 0.15227 0.20699 0.46205
 C687 C 0.13550 0.20009 0.45522
 C688 C 0.12520 0.21037 0.44269
 H689 H 0.08832 0.27204 0.35784
 H690 H 0.05839 0.28469 0.40707
 H691 H 0.03524 0.30154 0.38905
 H692 H 0.06508 0.28886 0.33973
 H693 H 0.15326 0.24792 0.43883
 H694 H 0.17148 0.22997 0.46081
 H695 H 0.13020 0.18685 0.45973
 H696 H 0.11219 0.20493 0.43779
 C697 C 0.06119 0.73527 0.62816
 C698 C 0.07499 0.72556 0.61889
 C699 C 0.07583 0.70625 0.62021
 C700 C 0.06274 0.69667 0.63055
 C701 C 0.04868 0.70633 0.63960
 C702 C 0.04811 0.72571 0.63849
 C703 C 0.08779 0.73539 0.60744
 C704 C 0.09813 0.74378 0.59758
 C705 C 0.10979 0.75377 0.58574
 C706 C 0.11937 0.76244 0.57538
 C707 C 0.13035 0.77295 0.56273
 C708 C 0.14709 0.76592 0.55629
 C709 C 0.15736 0.77590 0.54347
 C710 C 0.15097 0.79305 0.53691
 C711 C 0.13422 0.80007 0.54363
 C712 C 0.12400 0.79007 0.55644
 H713 H 0.06039 0.75020 0.62720
 H714 H 0.08643 0.69861 0.61305
 H715 H 0.06335 0.68172 0.63125
 H716 H 0.03737 0.73336 0.64544
 H717 H 0.15212 0.75266 0.56104
 H718 H 0.17019 0.77012 0.53857
 H719 H 0.12890 0.81321 0.53888
 H720 H 0.11104 0.79562 0.56130
 C721 C 0.94059 0.73362 0.37350
 C722 C 0.92686 0.72409 0.38310
 C723 C 0.92606 0.70475 0.38224
 C724 C 0.93909 0.69497 0.37203
 C725 C 0.95304 0.70446 0.36262
 C726 C 0.95361 0.72386 0.36329
 C727 C 0.91405 0.73415 0.39431
 C728 C 0.90364 0.74272 0.40394
 C729 C 0.89185 0.75291 0.41548
 C730 C 0.88213 0.76174 0.42556
 C731 C 0.87095 0.77244 0.43787
 C732 C 0.87712 0.78974 0.44384
 C733 C 0.86672 0.79991 0.45634
 C734 C 0.84996 0.79289 0.46308
 C735 C 0.84375 0.77557 0.45683
 C736 C 0.85420 0.76541 0.44432
 H737 H 0.94136 0.74857 0.37409
 H738 H 0.91553 0.69724 0.38965
 H739 H 0.93848 0.68001 0.37165
 H740 H 0.96426 0.73137 0.35606
 H741 H 0.89008 0.79529 0.43896
 H742 H 0.87190 0.81319 0.46086
 H743 H 0.83093 0.76977 0.46176
 H744 H 0.84932 0.75201 0.43982
 C745 C 0.92504 0.27670 0.63537
 C746 C 0.92563 0.27762 0.61627
 C747 C 0.93943 0.28793 0.60763
 C748 C 0.95272 0.29713 0.61801
 C749 C 0.95236 0.29604 0.63715
 C750 C 0.93835 0.28590 0.64578
 C751 C 0.91248 0.26753 0.60544
 C752 C 0.90185 0.25894 0.59607
 C753 C 0.88986 0.24873 0.58475
 C754 C 0.88002 0.23986 0.57479
 C755 C 0.86878 0.22912 0.56256
 C756 C 0.85207 0.23616 0.55604
 C757 C 0.84163 0.22601 0.54349
 C758 C 0.84784 0.20868 0.53728
 C759 C 0.86454 0.20163 0.54412
 C760 C 0.87492 0.21179 0.55666
 H761 H 0.91444 0.26872 0.64218
 H762 H 0.94003 0.28871 0.59287
 H763 H 0.96341 0.30495 0.61116
 H764 H 0.93790 0.28494 0.66053
 H765 H 0.84721 0.24959 0.56048
 H766 H 0.82885 0.23183 0.53847
 H767 H 0.86971 0.18834 0.53964
 H768 H 0.88786 0.20623 0.56159
 C769 C 0.37090 0.06080 0.26457
 C770 C 0.38135 0.07405 0.27391
 C771 C 0.38136 0.07429 0.29303
 C772 C 0.37120 0.06116 0.30278
 C773 C 0.36098 0.04763 0.29347
 C774 C 0.36074 0.04766 0.27430
 C775 C 0.39266 0.08683 0.26385
 C776 C 0.40242 0.09717 0.25530
 C777 C 0.41417 0.10885 0.24516
 C778 C 0.42446 0.11845 0.23640
 C779 C 0.43707 0.12947 0.22582
 C780 C 0.44355 0.14636 0.23258
 C781 C 0.45638 0.15664 0.22257
 C782 C 0.46291 0.15011 0.20567
 C783 C 0.45613 0.13322 0.19891
 C784 C 0.44331 0.12298 0.20893
 H785 H 0.37083 0.06045 0.24978
 H786 H 0.38944 0.08445 0.30039
 H787 H 0.37155 0.06129 0.31757
 H788 H 0.35288 0.03735 0.26692
 H789 H 0.43884 0.15148 0.24566
 H790 H 0.46133 0.16958 0.22816
 H791 H 0.46086 0.12780 0.18595
 H792 H 0.43841 0.10991 0.20358
 C793 C 0.63551 0.07473 0.72461
 C794 C 0.61624 0.07400 0.72384
 C795 C 0.60755 0.06030 0.71342
 C796 C 0.61806 0.04727 0.70397
 C797 C 0.63737 0.04778 0.70490
 C798 C 0.64605 0.06169 0.71515
 C799 C 0.60529 0.08690 0.73413
 C800 C 0.59583 0.09736 0.74286
 C801 C 0.58443 0.10918 0.75320
 C802 C 0.57442 0.11891 0.76214
 C803 C 0.56213 0.13008 0.77291
 C804 C 0.55570 0.14702 0.76621
 C805 C 0.54311 0.15742 0.77639
 C806 C 0.53677 0.15095 0.79340
 C807 C 0.54352 0.13402 0.80011
 C808 C 0.55610 0.12367 0.78992
 H809 H 0.64236 0.08525 0.73266
 H810 H 0.59266 0.05959 0.71274
 H811 H 0.61118 0.03666 0.69606
 H812 H 0.66093 0.06226 0.71599
 H813 H 0.56024 0.15210 0.75304
 H814 H 0.53817 0.17039 0.77084
 H815 H 0.53893 0.12864 0.81314
 H816 H 0.56096 0.11055 0.79522
 C817 C 0.38005 0.92403 0.70664
 C818 C 0.38098 0.92496 0.72572
 C819 C 0.37140 0.93885 0.73504
 C820 C 0.36117 0.95193 0.72532
 C821 C 0.36047 0.95127 0.70617
 C822 C 0.36982 0.93712 0.69689
 C823 C 0.39234 0.91217 0.73573
 C824 C 0.40214 0.90184 0.74425
 C825 C 0.41392 0.89018 0.75437
 C826 C 0.42424 0.88060 0.76314
 C827 C 0.43687 0.86961 0.77373
 C828 C 0.44337 0.85273 0.76698
 C829 C 0.45622 0.84248 0.77701
 C830 C 0.46274 0.84903 0.79391
 C831 C 0.45594 0.86591 0.80066
 C832 C 0.44310 0.87612 0.79062
 H833 H 0.38745 0.91336 0.69929
 H834 H 0.37206 0.93972 0.74979
 H835 H 0.35399 0.96274 0.73267
 H836 H 0.36943 0.93644 0.68212
 H837 H 0.43867 0.84759 0.75389
 H838 H 0.46119 0.82955 0.77143
 H839 H 0.46066 0.87135 0.81362
 H840 H 0.43818 0.88918 0.79596
 C841 C 0.63680 0.92504 0.27575
 C842 C 0.61754 0.92624 0.27570
 C843 C 0.60878 0.94047 0.28532
 C844 C 0.61922 0.95356 0.29479
 C845 C 0.63854 0.95256 0.29469
 C846 C 0.64727 0.93814 0.28524
 C847 C 0.60668 0.91325 0.26542
 C848 C 0.59728 0.90274 0.25669
 C849 C 0.58592 0.89087 0.24634
 C850 C 0.57593 0.88112 0.23739
 C851 C 0.56365 0.86996 0.22659
 C852 C 0.55717 0.85303 0.23328
 C853 C 0.54457 0.84266 0.22307
 C854 C 0.53827 0.84914 0.20605
 C855 C 0.54508 0.86605 0.19935
 C856 C 0.55767 0.87638 0.20957
 H857 H 0.64371 0.91410 0.26833
 H858 H 0.59390 0.94155 0.28536
 H859 H 0.61229 0.96456 0.30209
 H860 H 0.66216 0.93719 0.28505
 H861 H 0.56168 0.84796 0.24647
 H862 H 0.53958 0.82970 0.22862
 H863 H 0.54052 0.87144 0.18630
 H864 H 0.56257 0.88948 0.20428
 C865 C 0.37684 0.26487 0.94335
 C866 C 0.38099 0.27333 0.92669
 C867 C 0.37493 0.29136 0.92325
 C868 C 0.36498 0.30100 0.93653
 C869 C 0.36103 0.29280 0.95359
 C870 C 0.36693 0.27446 0.95666
 C871 C 0.39197 0.26361 0.91344
 C872 C 0.40148 0.25527 0.90277
 C873 C 0.41295 0.24527 0.89077
 C874 C 0.42304 0.23655 0.88093
 C875 C 0.43541 0.22596 0.86970
 C876 C 0.44184 0.23313 0.85313
 C877 C 0.45450 0.22310 0.84268
 C878 C 0.46091 0.20577 0.84872
 C879 C 0.45417 0.19860 0.86529
 C880 C 0.44152 0.20864 0.87569
 H881 H 0.38136 0.25087 0.94612
 H882 H 0.37813 0.29807 0.91040
 H883 H 0.36094 0.31514 0.93370
 H884 H 0.36364 0.26739 0.96929
 H885 H 0.43724 0.24655 0.84839
 H886 H 0.45943 0.22901 0.83000
 H887 H 0.45880 0.18531 0.87033
 H888 H 0.43666 0.20297 0.88851
 C889 C 0.63738 0.72458 0.92506
 C890 C 0.61814 0.72512 0.92643
 C891 C 0.60931 0.71600 0.94085
 C892 C 0.61965 0.70656 0.95396
 C893 C 0.63895 0.70619 0.95282
 C894 C 0.64775 0.71513 0.93819
 C895 C 0.60739 0.73538 0.91338
 C896 C 0.59806 0.74409 0.90282
 C897 C 0.58675 0.75441 0.89089
 C898 C 0.57679 0.76331 0.88109
 C899 C 0.56452 0.77404 0.86984
 C900 C 0.55846 0.79135 0.87587
 C901 C 0.54583 0.80146 0.86548
 C902 C 0.53906 0.79436 0.84889
 C903 C 0.54545 0.77706 0.84280
 C904 C 0.55809 0.76696 0.85324
 H905 H 0.64435 0.73161 0.91397
 H906 H 0.59443 0.71633 0.94204
 H907 H 0.61264 0.69964 0.96509
 H908 H 0.66263 0.71495 0.93711
 H909 H 0.56331 0.79694 0.88872
 H910 H 0.54121 0.81473 0.87056
 H911 H 0.54051 0.77121 0.83010
 H912 H 0.56265 0.75355 0.84847
 C913 C 0.37630 0.73597 0.05682
 C914 C 0.38169 0.72718 0.07297
 C915 C 0.37672 0.70875 0.07605
 C916 C 0.36660 0.69905 0.06292
 C917 C 0.36136 0.70763 0.04639
 C918 C 0.36622 0.72633 0.04366
 C919 C 0.39285 0.73695 0.08603
 C920 C 0.40249 0.74531 0.09659
 C921 C 0.41411 0.75527 0.10850
 C922 C 0.42431 0.76392 0.11828
 C923 C 0.43680 0.77442 0.12948
 C924 C 0.44321 0.76721 0.14604
 C925 C 0.45595 0.77716 0.15649
 C926 C 0.46245 0.79446 0.15045
 C927 C 0.45573 0.80167 0.13388
 C928 C 0.44301 0.79171 0.12349
 H929 H 0.38002 0.75026 0.05433
 H930 H 0.38091 0.70177 0.08848
 H931 H 0.36343 0.68463 0.06541
 H932 H 0.36203 0.73358 0.03139
 H933 H 0.43853 0.75382 0.15079
 H934 H 0.46085 0.77122 0.16917
 H935 H 0.46044 0.81494 0.12884
 H936 H 0.43816 0.79740 0.11066
 C937 C 0.60859 0.28394 0.05879
 C938 C 0.61753 0.27478 0.07313
 C939 C 0.63678 0.27534 0.07439
 C940 C 0.64706 0.28486 0.06124
 C941 C 0.63815 0.29383 0.04669
 C942 C 0.61884 0.29344 0.04565
 C943 C 0.60689 0.26445 0.08620
 C944 C 0.59765 0.25567 0.09678
 C945 C 0.58645 0.24527 0.10872
 C946 C 0.57657 0.23630 0.11855
 C947 C 0.56440 0.22549 0.12981
 C948 C 0.55840 0.20815 0.12379
 C949 C 0.54585 0.19797 0.13419
 C950 C 0.53909 0.20502 0.15079
 C951 C 0.54542 0.22235 0.15688
 C952 C 0.55798 0.23252 0.14643
 H953 H 0.59371 0.28359 0.05769
 H954 H 0.64383 0.26829 0.08542
 H955 H 0.66194 0.28505 0.06224
 H956 H 0.61175 0.30039 0.03458
 H957 H 0.56325 0.20259 0.11092
 H958 H 0.54126 0.18468 0.12911
 H959 H 0.54048 0.22818 0.16958
 H960 H 0.56250 0.24596 0.15120
 C961 C 0.26473 0.05699 0.62366
 C962 C 0.27341 0.07348 0.61865
 C963 C 0.29163 0.07674 0.62397
 C964 C 0.30124 0.06342 0.63404
 C965 C 0.29278 0.04653 0.63887
 C966 C 0.27428 0.04365 0.63369
 C967 C 0.26374 0.08671 0.60751
 C968 C 0.25547 0.09737 0.59787
 C969 C 0.24557 0.10935 0.58624
 C970 C 0.23697 0.11917 0.57603
 C971 C 0.22652 0.13039 0.56352
 C972 C 0.23364 0.14717 0.55712
 C973 C 0.22374 0.15762 0.54436
 C974 C 0.20660 0.15136 0.53783
 C975 C 0.19948 0.13457 0.54453
 C976 C 0.20939 0.12418 0.55727
 H977 H 0.25059 0.05437 0.61968
 H978 H 0.29852 0.08944 0.62008
 H979 H 0.31551 0.06606 0.63749
 H980 H 0.26709 0.03112 0.63759
 H981 H 0.24691 0.15209 0.56184
 H982 H 0.22960 0.17047 0.53947
 H983 H 0.18634 0.12936 0.53979
 H984 H 0.20377 0.11118 0.56211
 C985 C 0.71991 0.07733 0.36581
 C986 C 0.72416 0.07397 0.38415
 C987 C 0.71887 0.05730 0.39228
 C988 C 0.70950 0.04395 0.38212
 C989 C 0.70526 0.04700 0.36355
 C990 C 0.71051 0.06399 0.35559
 C991 C 0.73421 0.08741 0.39467
 C992 C 0.74279 0.09827 0.40382
 C993 C 0.75299 0.11050 0.41491
 C994 C 0.76184 0.12051 0.42471
 C995 C 0.77256 0.13194 0.43679
 C996 C 0.78980 0.12581 0.44281
 C997 C 0.79991 0.13634 0.45527
 C998 C 0.79290 0.15318 0.46191
 C999 C 0.77566 0.15938 0.45556
 C1000 C 0.76556 0.14880 0.44310
 H1001 H 0.72402 0.09017 0.35937
 H1002 H 0.72201 0.05460 0.40650
 H1003 H 0.70528 0.03131 0.38889
 H1004 H 0.70780 0.06674 0.34130
 H1005 H 0.79533 0.11276 0.43805
 H1006 H 0.81313 0.13117 0.45986
 H1007 H 0.76987 0.17226 0.46042
 H1008 H 0.75219 0.15364 0.43856
 C1009 C 0.72529 0.92639 0.63460
 C1010 C 0.72431 0.92677 0.61550
 C1011 C 0.71355 0.94018 0.60675
 C1012 C 0.70394 0.95327 0.61703
 C1013 C 0.70504 0.95309 0.63617
 C1014 C 0.71568 0.93950 0.64491
 C1015 C 0.73471 0.91376 0.60478
 C1016 C 0.74351 0.90319 0.59553
 C1017 C 0.75393 0.89121 0.58438
 C1018 C 0.76292 0.88133 0.57458
 C1019 C 0.77376 0.86998 0.56255
 C1020 C 0.79095 0.87624 0.55652
 C1021 C 0.80120 0.86570 0.54419
 C1022 C 0.79437 0.84872 0.53769
 C1023 C 0.77718 0.84240 0.54403
 C1024 C 0.76694 0.85299 0.55638
 H1025 H 0.73361 0.91610 0.64150
 H1026 H 0.71272 0.94062 0.59198
 H1027 H 0.69576 0.96366 0.61009
 H1028 H 0.71667 0.93920 0.65966
 H1029 H 0.79634 0.88939 0.56119
 H1030 H 0.81437 0.87097 0.53959
 H1031 H 0.77153 0.82940 0.53929
 H1032 H 0.75363 0.84803 0.56092
 C1033 C 0.29108 0.93456 0.39009
 C1034 C 0.27581 0.92557 0.38252
 C1035 C 0.27034 0.92962 0.36462
 C1036 C 0.28000 0.94276 0.35438
 C1037 C 0.29526 0.95200 0.36195
 C1038 C 0.30075 0.94770 0.37989
 C1039 C 0.26539 0.91269 0.39338
 C1040 C 0.25659 0.90222 0.40275
 C1041 C 0.24619 0.89034 0.41405
 C1042 C 0.23723 0.88054 0.42397
 C1043 C 0.22645 0.86926 0.43615
 C1044 C 0.23337 0.85239 0.44255
 C1045 C 0.22321 0.84190 0.45504
 C1046 C 0.20599 0.84819 0.46132
 C1047 C 0.19906 0.86505 0.45459
 C1048 C 0.20924 0.87550 0.44211
 H1049 H 0.29539 0.93156 0.40394
 H1050 H 0.25847 0.92282 0.35867
 H1051 H 0.27533 0.94603 0.34070
 H1052 H 0.31248 0.95460 0.38600
 H1053 H 0.24671 0.84746 0.43805
 H1054 H 0.22893 0.82900 0.45996
 H1055 H 0.18587 0.87029 0.45914
 H1056 H 0.20377 0.88856 0.43727
 C1057 C 0.06596 0.36585 0.73383
 C1058 C 0.07450 0.38113 0.72569
 C1059 C 0.07009 0.38603 0.70772
 C1060 C 0.05703 0.37582 0.69797
 C1061 C 0.04824 0.36054 0.70609
 C1062 C 0.05290 0.35561 0.72410
 C1063 C 0.08725 0.39223 0.73601
 C1064 C 0.09762 0.40179 0.74473
 C1065 C 0.10939 0.41329 0.75503
 C1066 C 0.11912 0.42337 0.76391
 C1067 C 0.13030 0.43573 0.77460
 C1068 C 0.14714 0.44218 0.76780
 C1069 C 0.15757 0.45482 0.77791
 C1070 C 0.15126 0.46118 0.79495
 C1071 C 0.13443 0.45441 0.80176
 C1072 C 0.12404 0.44178 0.79164
 H1073 H 0.06923 0.36198 0.74775
 H1074 H 0.07653 0.39791 0.70135
 H1075 H 0.05348 0.38007 0.68421
 H1076 H 0.04633 0.34389 0.73063
 H1077 H 0.15209 0.43761 0.75460
 H1078 H 0.17046 0.45977 0.77229
 H1079 H 0.12918 0.45902 0.81482
 H1080 H 0.11101 0.43690 0.79701
 C1081 C 0.07699 0.62342 0.29088
 C1082 C 0.07375 0.61876 0.27262
 C1083 C 0.05737 0.62427 0.26417
 C1084 C 0.04415 0.63417 0.27398
 C1085 C 0.04704 0.63871 0.29249
 C1086 C 0.06380 0.63335 0.30073
 C1087 C 0.08688 0.60779 0.26266
 C1088 C 0.09750 0.59831 0.25417
 C1089 C 0.10949 0.58687 0.24405
 C1090 C 0.11933 0.57681 0.23528
 C1091 C 0.13058 0.56446 0.22467
 C1092 C 0.12437 0.55835 0.20762
 C1093 C 0.13477 0.54568 0.19759
 C1094 C 0.15156 0.53890 0.20449
 C1095 C 0.15784 0.54534 0.22153
 C1096 C 0.14739 0.55802 0.23156
 H1097 H 0.08959 0.61913 0.29758
 H1098 H 0.05474 0.62080 0.25002
 H1099 H 0.03170 0.63846 0.26700
 H1100 H 0.06642 0.63627 0.31500
 H1101 H 0.11136 0.56322 0.20217
 H1102 H 0.12953 0.54102 0.18452
 H1103 H 0.17069 0.54038 0.22723
 H1104 H 0.15230 0.56263 0.24476
 C1105 C 0.94319 0.39078 0.28020
 C1106 C 0.92610 0.38279 0.27634
 C1107 C 0.92240 0.36469 0.28203
 C1108 C 0.93583 0.35456 0.29140
 C1109 C 0.95328 0.36234 0.29513
 C1110 C 0.95663 0.38071 0.28952
 C1111 C 0.91258 0.39319 0.26626
 C1112 C 0.90174 0.40230 0.25763
 C1113 C 0.88960 0.41341 0.24732
 C1114 C 0.87970 0.42326 0.23837
 C1115 C 0.86846 0.43543 0.22751
 C1116 C 0.87474 0.44133 0.21042
 C1117 C 0.86442 0.45394 0.20019
 C1118 C 0.84765 0.46086 0.20695
 C1119 C 0.84128 0.45461 0.22404
 C1120 C 0.85165 0.44200 0.23425
 H1121 H 0.94614 0.40484 0.27597
 H1122 H 0.90921 0.35835 0.27906
 H1123 H 0.93277 0.34042 0.29524
 H1124 H 0.96957 0.38747 0.29266
 H1125 H 0.88776 0.43638 0.20509
 H1126 H 0.86971 0.45844 0.18710
 H1127 H 0.82844 0.45968 0.22963
 H1128 H 0.84669 0.43756 0.24750
 C1129 C 0.92341 0.62479 0.70908
 C1130 C 0.92658 0.61968 0.72724
 C1131 C 0.94298 0.62487 0.73584
 C1132 C 0.95631 0.63485 0.72626
 C1133 C 0.95352 0.63980 0.70782
 C1134 C 0.93672 0.63481 0.69946
 C1135 C 0.91336 0.60856 0.73694
 C1136 C 0.90271 0.59892 0.74524
 C1137 C 0.89073 0.58729 0.75515
 C1138 C 0.88091 0.57705 0.76376
 C1139 C 0.86972 0.56450 0.77422
 C1140 C 0.87590 0.55829 0.79125
 C1141 C 0.86554 0.54547 0.80116
 C1142 C 0.84881 0.53864 0.79415
 C1143 C 0.84257 0.54516 0.77711
 C1144 C 0.85299 0.55800 0.76721
 H1145 H 0.91078 0.62076 0.70227
 H1146 H 0.94554 0.62106 0.74993
 H1147 H 0.96877 0.63889 0.73337
 H1148 H 0.93415 0.63807 0.68524
 H1149 H 0.88885 0.56320 0.79679
 H1150 H 0.87073 0.54075 0.81422
 H1151 H 0.82977 0.54018 0.77133
 H1152 H 0.84810 0.56268 0.75402
 C1153 C 0.71971 0.60869 0.94330
 C1154 C 0.72463 0.61683 0.92669
 C1155 C 0.72004 0.63530 0.92325
 C1156 C 0.71067 0.64563 0.93645
 C1157 C 0.70581 0.63767 0.95338
 C1158 C 0.71038 0.61896 0.95651
 C1159 C 0.73468 0.60621 0.91341
 C1160 C 0.74326 0.59696 0.90270
 C1161 C 0.75348 0.58574 0.89065
 C1162 C 0.76236 0.57582 0.88079
 C1163 C 0.77312 0.56361 0.86956
 C1164 C 0.76617 0.55718 0.85290
 C1165 C 0.77633 0.54459 0.84248
 C1166 C 0.79357 0.53823 0.84865
 C1167 C 0.80054 0.54500 0.86529
 C1168 C 0.79037 0.55758 0.87566
 H1169 H 0.72311 0.59437 0.94607
 H1170 H 0.72386 0.64176 0.91045
 H1171 H 0.70770 0.66003 0.93361
 H1172 H 0.70642 0.61214 0.96909
 H1173 H 0.75280 0.56172 0.84807
 H1174 H 0.77058 0.53964 0.82975
 H1175 H 0.81376 0.54040 0.87043
 H1176 H 0.79587 0.56243 0.88855
 C1177 C 0.29218 0.37400 0.92341
 C1178 C 0.27420 0.37999 0.92691
 C1179 C 0.26585 0.37569 0.94357
 C1180 C 0.27549 0.36572 0.95683
 C1181 C 0.29379 0.35992 0.95371
 C1182 C 0.30188 0.36399 0.93665
 C1183 C 0.26444 0.39106 0.91374
 C1184 C 0.25605 0.40066 0.90315
 C1185 C 0.24601 0.41226 0.89125
 C1186 C 0.23726 0.42245 0.88152
 C1187 C 0.22663 0.43496 0.87043
 C1188 C 0.20943 0.44106 0.87657
 C1189 C 0.19936 0.45385 0.86631
 C1190 C 0.20638 0.46075 0.84975
 C1191 C 0.22358 0.45435 0.84355
 C1192 C 0.23364 0.44155 0.85386
 H1193 H 0.29880 0.37732 0.91057
 H1194 H 0.25189 0.38014 0.94638
 H1195 H 0.26851 0.36233 0.96946
 H1196 H 0.31597 0.36003 0.93377
 H1197 H 0.20388 0.43608 0.88940
 H1198 H 0.18617 0.45848 0.87147
 H1199 H 0.22938 0.45939 0.83087
 H1200 H 0.24697 0.43695 0.84900
 C1201 C 0.27090 0.63553 0.06812
 C1202 C 0.27682 0.61775 0.07290
 C1203 C 0.29265 0.61036 0.06482
 C1204 C 0.30244 0.62061 0.05187
 C1205 C 0.29652 0.63843 0.04688
 C1206 C 0.28067 0.64582 0.05517
 C1207 C 0.26630 0.60679 0.08557
 C1208 C 0.25743 0.59733 0.09589
 C1209 C 0.24696 0.58595 0.10762
 C1210 C 0.23797 0.57596 0.11733
 C1211 C 0.22717 0.56370 0.12854
 C1212 C 0.20997 0.55757 0.12239
 C1213 C 0.19978 0.54502 0.13282
 C1214 C 0.20667 0.53841 0.14956
 C1215 C 0.22387 0.54486 0.15575
 C1216 C 0.23406 0.55741 0.14528
 H1217 H 0.25859 0.64133 0.07419
 H1218 H 0.29731 0.59658 0.06836
 H1219 H 0.31458 0.61461 0.04564
 H1220 H 0.27564 0.65938 0.05130
 H1221 H 0.20453 0.56232 0.10943
 H1222 H 0.18659 0.54035 0.12766
 H1223 H 0.22958 0.54003 0.16856
 H1224 H 0.24738 0.56204 0.15015
 C1225 C 0.71911 0.39122 0.05618
 C1226 C 0.72402 0.38304 0.07278
 C1227 C 0.71938 0.36458 0.07618
 C1228 C 0.70996 0.35429 0.06297
 C1229 C 0.70509 0.36229 0.04605
 C1230 C 0.70972 0.38099 0.04295
 C1231 C 0.73409 0.39362 0.08611
 C1232 C 0.74266 0.40281 0.09689
 C1233 C 0.75288 0.41396 0.10905
 C1234 C 0.76174 0.42380 0.11902
 C1235 C 0.77249 0.43593 0.13041
 C1236 C 0.76538 0.44243 0.14697
 C1237 C 0.77553 0.45494 0.15752
 C1238 C 0.79291 0.46114 0.15158
 C1239 C 0.80003 0.45429 0.13505
 C1240 C 0.78987 0.44179 0.12455
 H1241 H 0.72254 0.40554 0.05344
 H1242 H 0.72319 0.35808 0.08897
 H1243 H 0.70695 0.33989 0.06578
 H1244 H 0.70577 0.38785 0.03039
 H1245 H 0.75191 0.43802 0.15160
 H1246 H 0.76966 0.45995 0.17016
 H1247 H 0.81336 0.45876 0.13009
 H1248 H 0.79549 0.43688 0.11173
 C1249 C 0.92561 0.70645 0.62088
 C1250 C 0.92672 0.72573 0.61943
 C1251 C 0.94088 0.73528 0.62838
 C1252 C 0.95403 0.72557 0.63850
 C1253 C 0.95319 0.70620 0.63971
 C1254 C 0.93877 0.69672 0.63101
 C1255 C 0.91383 0.73570 0.60819
 C1256 C 0.90340 0.74419 0.59849
 C1257 C 0.89160 0.75427 0.58683
 C1258 C 0.88189 0.76299 0.57661
 C1259 C 0.87074 0.77352 0.56411
 C1260 C 0.85398 0.76642 0.55776
 C1261 C 0.84357 0.77638 0.54503
 C1262 C 0.84983 0.79357 0.53845
 C1263 C 0.86659 0.80067 0.54510
 C1264 C 0.87696 0.79070 0.55783
 H1265 H 0.91474 0.69893 0.61398
 H1266 H 0.94189 0.75019 0.62733
 H1267 H 0.96501 0.73310 0.64521
 H1268 H 0.93793 0.68178 0.63181
 H1269 H 0.84906 0.75312 0.56250
 H1270 H 0.83074 0.77052 0.54018
 H1271 H 0.87181 0.81384 0.54034
 H1272 H 0.88993 0.79630 0.56262
 C1273 C 0.94406 0.28127 0.39121
 C1274 C 0.92692 0.27707 0.38355
 C1275 C 0.92305 0.28234 0.36557
 C1276 C 0.93635 0.29164 0.35522
 C1277 C 0.95383 0.29572 0.36267
 C1278 C 0.95736 0.29052 0.38092
 C1279 C 0.91352 0.26710 0.39418
 C1280 C 0.90273 0.25857 0.40344
 C1281 C 0.89059 0.24841 0.41467
 C1282 C 0.88066 0.23958 0.42457
 C1283 C 0.86932 0.22887 0.43675
 C1284 C 0.87544 0.21160 0.44285
 C1285 C 0.86496 0.20148 0.45536
 C1286 C 0.84818 0.20853 0.46197
 C1287 C 0.84200 0.22581 0.45556
 C1288 C 0.85253 0.23592 0.44304
 H1289 H 0.94715 0.27738 0.40517
 H1290 H 0.90983 0.27911 0.35949
 H1291 H 0.93314 0.29514 0.34119
 H1292 H 0.97033 0.29395 0.38741
 H1293 H 0.88844 0.20603 0.43810
 H1294 H 0.87011 0.18824 0.46000
 H1295 H 0.82915 0.23163 0.46039
 H1296 H 0.84768 0.24931 0.43845
 C1297 C 0.07449 0.27518 0.63499
 C1298 C 0.07411 0.27637 0.61590
 C1299 C 0.06071 0.28722 0.60727
 C1300 C 0.04763 0.29670 0.61765
 C1301 C 0.04782 0.29539 0.63677
 C1302 C 0.06140 0.28467 0.64540
 C1303 C 0.08709 0.26610 0.60508
 C1304 C 0.09763 0.25739 0.59573
 C1305 C 0.10956 0.24707 0.58445
 C1306 C 0.11938 0.23815 0.57454
 C1307 C 0.13064 0.22738 0.56238
 C1308 C 0.12440 0.21014 0.55631
 C1309 C 0.13485 0.19995 0.54386
 C1310 C 0.15170 0.20688 0.53728
 C1311 C 0.15799 0.22412 0.54367
 C1312 C 0.14750 0.23431 0.55613
 H1313 H 0.08478 0.26679 0.64180
 H1314 H 0.06027 0.28821 0.59251
 H1315 H 0.03726 0.30495 0.61080
 H1316 H 0.06171 0.28351 0.66014
 H1317 H 0.11135 0.20467 0.56103
 H1318 H 0.12961 0.18673 0.53923
 H1319 H 0.17090 0.22985 0.53887
 H1320 H 0.15243 0.24766 0.56071
 C1321 C 0.06611 0.70620 0.38957
 C1322 C 0.07417 0.72225 0.38246
 C1323 C 0.06926 0.72842 0.36499
 C1324 C 0.05620 0.71870 0.35475
 C1325 C 0.04792 0.70264 0.36186
 C1326 C 0.05305 0.69646 0.37936
 C1327 C 0.08690 0.73274 0.39340
 C1328 C 0.09724 0.74162 0.40284
 C1329 C 0.10899 0.75210 0.41419
 C1330 C 0.11869 0.76113 0.42415
 C1331 C 0.12986 0.77198 0.43636
 C1332 C 0.12357 0.78922 0.44235
 C1333 C 0.13395 0.79949 0.45482
 C1334 C 0.15080 0.79262 0.46150
 C1335 C 0.15714 0.77537 0.45520
 C1336 C 0.14671 0.76512 0.44272
 H1337 H 0.06974 0.70134 0.40310
 H1338 H 0.07531 0.74091 0.35942
 H1339 H 0.05222 0.72394 0.34145
 H1340 H 0.04682 0.68416 0.38514
 H1341 H 0.11053 0.79465 0.43754
 H1342 H 0.12867 0.81270 0.45938
 H1343 H 0.17003 0.76969 0.46008
 H1344 H 0.15169 0.75177 0.43821
 C1345 C 0.61411 0.93053 0.70636
 C1346 C 0.61882 0.92618 0.72440
 C1347 C 0.63395 0.93481 0.73264
 C1348 C 0.64422 0.94791 0.72297
 C1349 C 0.63947 0.95252 0.70489
 C1350 C 0.62436 0.94363 0.69666
 C1351 C 0.60767 0.91341 0.73468
 C1352 C 0.59809 0.90304 0.74338
 C1353 C 0.58657 0.89126 0.75368
 C1354 C 0.57649 0.88154 0.76257
 C1355 C 0.56414 0.87037 0.77329
 C1356 C 0.55806 0.87674 0.79027
 C1357 C 0.54547 0.86636 0.80043
 C1358 C 0.53876 0.84941 0.79371
 C1359 C 0.54515 0.84298 0.77672
 C1360 C 0.55775 0.85342 0.76657
 H1361 H 0.60236 0.92402 0.69990
 H1362 H 0.63767 0.93158 0.74662
 H1363 H 0.65581 0.95455 0.72959
 H1364 H 0.62024 0.94714 0.68286
 H1365 H 0.56289 0.88986 0.79558
 H1366 H 0.54084 0.87170 0.81345
 H1367 H 0.54025 0.83001 0.77116
 H1368 H 0.56234 0.84837 0.75342
 C1369 C 0.38090 0.92507 0.29276
 C1370 C 0.38068 0.92514 0.27363
 C1371 C 0.37004 0.93822 0.26426
 C1372 C 0.35987 0.95136 0.27395
 C1373 C 0.36031 0.95154 0.29312
 C1374 C 0.37074 0.93821 0.30247
 C1375 C 0.39198 0.91236 0.26360
 C1376 C 0.40174 0.90201 0.25508
 C1377 C 0.41348 0.89033 0.24498
 C1378 C 0.42378 0.88072 0.23624
 C1379 C 0.43638 0.86971 0.22569
 C1380 C 0.44267 0.87623 0.20881
 C1381 C 0.45549 0.86600 0.19882
 C1382 C 0.46224 0.84909 0.20559
 C1383 C 0.45566 0.84253 0.22247
 C1384 C 0.44283 0.85280 0.23246
 H1385 H 0.38914 0.91505 0.30014
 H1386 H 0.36982 0.93844 0.24947
 H1387 H 0.35188 0.96155 0.26655
 H1388 H 0.37124 0.93821 0.31725
 H1389 H 0.43780 0.88932 0.20347
 H1390 H 0.46025 0.87144 0.18587
 H1391 H 0.46058 0.82957 0.22807
 H1392 H 0.43808 0.84765 0.24553
 C1393 C 0.61403 0.06827 0.29297
 C1394 C 0.61936 0.07354 0.27535
 C1395 C 0.63523 0.06593 0.26754
 C1396 C 0.64566 0.05296 0.27724
 C1397 C 0.64034 0.04749 0.29491
 C1398 C 0.62443 0.05530 0.30269
 C1399 C 0.60813 0.08620 0.26503
 C1400 C 0.59848 0.09650 0.25630
 C1401 C 0.58691 0.10820 0.24598
 C1402 C 0.57678 0.11788 0.23709
 C1403 C 0.56440 0.12902 0.22637
 C1404 C 0.55830 0.12262 0.20939
 C1405 C 0.54567 0.13298 0.19923
 C1406 C 0.53895 0.14991 0.20594
 C1407 C 0.54535 0.15635 0.22293
 C1408 C 0.55798 0.14595 0.23308
 H1409 H 0.60169 0.07396 0.29908
 H1410 H 0.63943 0.06984 0.25388
 H1411 H 0.65782 0.04709 0.27094
 H1412 H 0.61985 0.05105 0.31614
 H1413 H 0.56315 0.10952 0.20408
 H1414 H 0.54104 0.12762 0.18621
 H1415 H 0.54044 0.16932 0.22849
 H1416 H 0.56259 0.15101 0.24623
 C1417 C 0.37927 0.07485 0.70607
 C1418 C 0.38038 0.07381 0.72514
 C1419 C 0.37120 0.05963 0.73446
 C1420 C 0.36119 0.04637 0.72475
 C1421 C 0.36033 0.04714 0.70561
 C1422 C 0.36926 0.06159 0.69634
 C1423 C 0.39152 0.08680 0.73514
 C1424 C 0.40113 0.09730 0.74366
 C1425 C 0.41271 0.10916 0.75380
 C1426 C 0.42285 0.11889 0.76260
 C1427 C 0.43528 0.13004 0.77325
 C1428 C 0.44143 0.12364 0.79023
 C1429 C 0.45410 0.13398 0.80032
 C1430 C 0.46085 0.15089 0.79356
 C1431 C 0.45440 0.15735 0.77657
 C1432 C 0.44171 0.14696 0.76649
 H1433 H 0.38636 0.08574 0.69873
 H1434 H 0.37198 0.05868 0.74921
 H1435 H 0.35430 0.03537 0.73211
 H1436 H 0.36872 0.06238 0.68158
 H1437 H 0.43657 0.11054 0.79558
 H1438 H 0.45877 0.12861 0.81334
 H1439 H 0.45933 0.17030 0.77098
 H1440 H 0.43708 0.15202 0.75334
 C1441 C 0.63671 0.72475 0.07468
 C1442 C 0.61747 0.72514 0.07335
 C1443 C 0.60864 0.71586 0.05903
 C1444 C 0.61900 0.70636 0.04600
 C1445 C 0.63831 0.70609 0.04714
 C1446 C 0.64710 0.71524 0.06164
 C1447 C 0.60670 0.73541 0.08635
 C1448 C 0.59736 0.74411 0.09688
 C1449 C 0.58606 0.75441 0.10879
 C1450 C 0.57610 0.76329 0.11859
 C1451 C 0.56384 0.77400 0.12982
 C1452 C 0.55786 0.79136 0.12383
 C1453 C 0.54525 0.80147 0.13421
 C1454 C 0.53843 0.79432 0.15076
 C1455 C 0.54474 0.77696 0.15682
 C1456 C 0.55736 0.76687 0.14639
 H1457 H 0.64367 0.73190 0.08570
 H1458 H 0.59377 0.71609 0.05786
 H1459 H 0.61201 0.69931 0.03494
 H1460 H 0.66199 0.71515 0.06270
 H1461 H 0.56275 0.79700 0.11100
 H1462 H 0.54069 0.81478 0.12916
 H1463 H 0.53975 0.77107 0.16948
 H1464 H 0.56187 0.75341 0.15113
 C1465 C 0.37342 0.26308 0.05949
 C1466 C 0.38176 0.27262 0.07393
 C1467 C 0.37951 0.29179 0.07543
 C1468 C 0.36916 0.30143 0.06242
 C1469 C 0.36099 0.29194 0.04777
 C1470 C 0.36307 0.27268 0.04648
 C1471 C 0.39314 0.26277 0.08676
 C1472 C 0.40293 0.25437 0.09716
 C1473 C 0.41468 0.24436 0.10892
 C1474 C 0.42495 0.23567 0.11861
 C1475 C 0.43749 0.22512 0.12972
 C1476 C 0.44394 0.23224 0.14631
 C1477 C 0.45668 0.22222 0.15670
 C1478 C 0.46315 0.20496 0.15060
 C1479 C 0.45641 0.19784 0.13400
 C1480 C 0.44369 0.20787 0.12366
 H1481 H 0.37510 0.24825 0.05817
 H1482 H 0.38596 0.29932 0.08651
 H1483 H 0.36776 0.31629 0.06357
 H1484 H 0.35684 0.26515 0.03528
 H1485 H 0.43926 0.24560 0.15111
 H1486 H 0.46160 0.22809 0.16940
 H1487 H 0.46110 0.18460 0.12891
 H1488 H 0.43881 0.20224 0.11082
 C1489 C 0.63524 0.27546 0.92478
 C1490 C 0.61600 0.27508 0.92618
 C1491 C 0.60726 0.28436 0.94054
 C1492 C 0.61770 0.29385 0.95354
 C1493 C 0.63700 0.29410 0.95234
 C1494 C 0.64571 0.28496 0.93780
 C1495 C 0.60516 0.26482 0.91321
 C1496 C 0.59577 0.25613 0.90268
 C1497 C 0.58443 0.24584 0.89077
 C1498 C 0.57445 0.23696 0.88096
 C1499 C 0.56219 0.22624 0.86970
 C1500 C 0.55575 0.23334 0.85310
 C1501 C 0.54316 0.22323 0.84263
 C1502 C 0.53682 0.20588 0.84868
 C1503 C 0.54359 0.19876 0.86527
 C1504 C 0.55618 0.20888 0.87569
 H1505 H 0.64214 0.26831 0.91375
 H1506 H 0.59239 0.28414 0.94176
 H1507 H 0.61077 0.30090 0.96462
 H1508 H 0.66059 0.28503 0.93669
 H1509 H 0.56028 0.24679 0.84836
 H1510 H 0.53821 0.22910 0.82994
 H1511 H 0.53901 0.18545 0.87032
 H1512 H 0.56104 0.20327 0.88854
 C1513 C 0.38035 0.70725 0.92478
 C1514 C 0.38176 0.72654 0.92568
 C1515 C 0.37269 0.73620 0.93959
 C1516 C 0.36246 0.72660 0.95269
 C1517 C 0.36124 0.70723 0.95202
 C1518 C 0.37012 0.69762 0.93789
 C1519 C 0.39309 0.73641 0.91283
 C1520 C 0.40285 0.74483 0.90242
 C1521 C 0.41458 0.75484 0.89066
 C1522 C 0.42485 0.76354 0.88098
 C1523 C 0.43739 0.77409 0.86987
 C1524 C 0.44358 0.79135 0.87593
 C1525 C 0.45631 0.80137 0.86560
 C1526 C 0.46306 0.79425 0.84903
 C1527 C 0.45660 0.77697 0.84293
 C1528 C 0.44385 0.76695 0.85331
 H1529 H 0.38737 0.69963 0.91412
 H1530 H 0.37372 0.75112 0.94044
 H1531 H 0.35567 0.73423 0.96348
 H1532 H 0.36938 0.68268 0.93722
 H1533 H 0.43869 0.79699 0.88875
 H1534 H 0.46099 0.81462 0.87069
 H1535 H 0.46153 0.77109 0.83025
 H1536 H 0.43918 0.75358 0.84851
 C1537 C 0.72343 0.92380 0.36504
 C1538 C 0.72403 0.92522 0.38411
 C1539 C 0.71488 0.93976 0.39286
 C1540 C 0.70535 0.95296 0.38261
 C1541 C 0.70490 0.95176 0.36348
 C1542 C 0.71389 0.93701 0.35476
 C1543 C 0.73444 0.91215 0.39476
 C1544 C 0.74329 0.90160 0.40402
 C1545 C 0.75378 0.88970 0.41523
 C1546 C 0.76283 0.87994 0.42511
 C1547 C 0.77373 0.86876 0.43728
 C1548 C 0.76694 0.85187 0.44377
 C1549 C 0.77721 0.84151 0.45631
 C1550 C 0.79439 0.84796 0.46255
 C1551 C 0.80120 0.86482 0.45572
 C1552 C 0.79093 0.87514 0.44319
 H1553 H 0.73050 0.91263 0.35813
 H1554 H 0.71527 0.94101 0.40760
 H1555 H 0.69846 0.96422 0.38956
 H1556 H 0.71372 0.93592 0.34001
 H1557 H 0.75362 0.84683 0.43933
 H1558 H 0.77157 0.82860 0.46130
 H1559 H 0.81437 0.87018 0.46023
 H1560 H 0.79630 0.88821 0.43829
 C1561 C 0.26382 0.93883 0.62730
 C1562 C 0.27341 0.92468 0.61839
 C1563 C 0.29260 0.92352 0.62006
 C1564 C 0.30219 0.93664 0.63039
 C1565 C 0.29266 0.95104 0.63910
 C1566 C 0.27339 0.95194 0.63763
 C1567 C 0.26358 0.91185 0.60694
 C1568 C 0.25519 0.90148 0.59709
 C1569 C 0.24520 0.88977 0.58528
 C1570 C 0.23653 0.88014 0.57495
 C1571 C 0.22602 0.86908 0.56235
 C1572 C 0.23299 0.85225 0.55597
 C1573 C 0.22300 0.84189 0.54322
 C1574 C 0.20591 0.84828 0.53668
 C1575 C 0.19895 0.86513 0.54335
 C1576 C 0.20895 0.87545 0.55608
 H1577 H 0.24899 0.93988 0.62607
 H1578 H 0.30015 0.91266 0.61316
 H1579 H 0.31706 0.93579 0.63132
 H1580 H 0.26583 0.96294 0.64428
 H1581 H 0.24621 0.84721 0.56071
 H1582 H 0.22875 0.82898 0.53837
 H1583 H 0.18585 0.87045 0.53861
 H1584 H 0.20344 0.88848 0.56091
 C1585 C 0.29453 0.07418 0.38211
 C1586 C 0.27523 0.07415 0.38214
 C1587 C 0.26562 0.06101 0.37181
 C1588 C 0.27525 0.04778 0.36171
 C1589 C 0.29459 0.04756 0.36190
 C1590 C 0.30418 0.06095 0.37201
 C1591 C 0.26527 0.08709 0.39331
 C1592 C 0.25679 0.09758 0.40293
 C1593 C 0.24671 0.10944 0.41449
 C1594 C 0.23796 0.11920 0.42461
 C1595 C 0.22736 0.13038 0.43699
 C1596 C 0.21015 0.12417 0.44300
 C1597 C 0.20007 0.13456 0.45559
 C1598 C 0.20710 0.15135 0.46237
 C1599 C 0.22433 0.15761 0.45607
 C1600 C 0.23439 0.14716 0.44347
 H1601 H 0.30209 0.08425 0.39009
 H1602 H 0.25070 0.06083 0.37177
 H1603 H 0.26767 0.03757 0.35393
 H1604 H 0.31909 0.06094 0.37229
 H1605 H 0.20459 0.11118 0.43810
 H1606 H 0.18687 0.12935 0.46014
 H1607 H 0.23013 0.17046 0.46103
 H1608 H 0.24773 0.15208 0.43894
 C1609 C 0.72357 0.07627 0.63481
 C1610 C 0.72282 0.07565 0.61570
 C1611 C 0.71254 0.06183 0.60701
 C1612 C 0.70323 0.04855 0.61735
 C1613 C 0.70416 0.04893 0.63650
 C1614 C 0.71425 0.06297 0.64518
 C1615 C 0.73305 0.08876 0.60493
 C1616 C 0.74176 0.09936 0.59560
 C1617 C 0.75211 0.11132 0.58433
 C1618 C 0.76106 0.12115 0.57443
 C1619 C 0.77189 0.13240 0.56226
 C1620 C 0.78912 0.12613 0.55637
 C1621 C 0.79936 0.13654 0.54390
 C1622 C 0.79248 0.15339 0.53712
 C1623 C 0.77525 0.15972 0.54332
 C1624 C 0.76502 0.14927 0.55580
 H1625 H 0.73151 0.08688 0.64167
 H1626 H 0.71189 0.06121 0.59224
 H1627 H 0.69546 0.03784 0.61045
 H1628 H 0.71510 0.06344 0.65994
 H1629 H 0.79455 0.11307 0.56125
 H1630 H 0.81256 0.13126 0.53942
 H1631 H 0.76957 0.17263 0.53836
 H1632 H 0.75168 0.15423 0.56024
 C1633 C 0.93913 0.62753 0.26490
 C1634 C 0.92519 0.61822 0.27440
 C1635 C 0.92440 0.61933 0.29348
 C1636 C 0.93766 0.62949 0.30304
 C1637 C 0.95185 0.63860 0.29359
 C1638 C 0.95239 0.63769 0.27444
 C1639 C 0.91220 0.60694 0.26457
 C1640 C 0.90169 0.59722 0.25618
 C1641 C 0.88983 0.58553 0.24618
 C1642 C 0.88009 0.57530 0.23748
 C1643 C 0.86895 0.56278 0.22691
 C1644 C 0.85211 0.55636 0.23373
 C1645 C 0.84171 0.54361 0.22370
 C1646 C 0.84807 0.53711 0.20672
 C1647 C 0.86491 0.54383 0.19991
 C1648 C 0.87526 0.55656 0.20995
 H1649 H 0.93990 0.62673 0.25015
 H1650 H 0.91372 0.61212 0.30096
 H1651 H 0.93709 0.62999 0.31781
 H1652 H 0.96321 0.64466 0.26694
 H1653 H 0.84711 0.56105 0.24686
 H1654 H 0.82881 0.53870 0.22933
 H1655 H 0.87021 0.53912 0.18690
 H1656 H 0.88829 0.56142 0.20456
 C1657 C 0.94071 0.39221 0.71479
 C1658 C 0.92698 0.38334 0.72498
 C1659 C 0.92632 0.36399 0.72558
 C1660 C 0.93945 0.35355 0.71616
 C1661 C 0.95336 0.36240 0.70611
 C1662 C 0.95382 0.38180 0.70537
 C1663 C 0.91393 0.39418 0.73516
 C1664 C 0.90333 0.40356 0.74379
 C1665 C 0.89134 0.41487 0.75402
 C1666 C 0.88146 0.42483 0.76285
 C1667 C 0.87014 0.43706 0.77352
 C1668 C 0.87625 0.44303 0.79065
 C1669 C 0.86577 0.45560 0.80073
 C1670 C 0.84900 0.46238 0.79380
 C1671 C 0.84282 0.45608 0.77668
 C1672 C 0.85335 0.44351 0.76660
 H1673 H 0.94135 0.40717 0.71424
 H1674 H 0.91578 0.35699 0.73345
 H1675 H 0.93892 0.33859 0.71683
 H1676 H 0.96443 0.38882 0.69761
 H1677 H 0.88925 0.43816 0.79611
 H1678 H 0.87093 0.46015 0.81386
 H1679 H 0.82998 0.46105 0.77096
 H1680 H 0.84851 0.43901 0.75333
 C1681 C 0.07611 0.62056 0.70853
 C1682 C 0.07499 0.61922 0.72758
 C1683 C 0.06088 0.62840 0.73693
 C1684 C 0.04780 0.63867 0.72727
 C1685 C 0.04868 0.63983 0.70814
 C1686 C 0.06302 0.63083 0.69884
 C1687 C 0.08782 0.60784 0.73751
 C1688 C 0.09820 0.59804 0.74596
 C1689 C 0.10994 0.58626 0.75601
 C1690 C 0.11960 0.57594 0.76471
 C1691 C 0.13068 0.56333 0.77524
 C1692 C 0.12437 0.55706 0.79219
 C1693 C 0.13467 0.54423 0.80217
 C1694 C 0.15146 0.53745 0.79530
 C1695 C 0.15782 0.54401 0.77833
 C1696 C 0.14747 0.55686 0.76837
 H1697 H 0.08693 0.61346 0.70116
 H1698 H 0.05985 0.62741 0.75165
 H1699 H 0.03684 0.64553 0.73465
 H1700 H 0.06386 0.63152 0.68409
 H1701 H 0.11137 0.56195 0.79762
 H1702 H 0.12937 0.53947 0.81517
 H1703 H 0.17068 0.53907 0.77266
 H1704 H 0.15247 0.56159 0.75523
 C1705 C 0.05898 0.39317 0.28357
 C1706 C 0.07404 0.38433 0.27544
 C1707 C 0.07612 0.36515 0.27721
 C1708 C 0.06311 0.35484 0.28696
 C1709 C 0.04789 0.36364 0.29499
 C1710 C 0.04598 0.38290 0.29331
 C1711 C 0.08703 0.39498 0.26495
 C1712 C 0.09754 0.40424 0.25608
 C1713 C 0.10943 0.41545 0.24558
 C1714 C 0.11921 0.42534 0.23655
 C1715 C 0.13045 0.43751 0.22568
 C1716 C 0.14734 0.44392 0.23238
 C1717 C 0.15779 0.45646 0.22215
 C1718 C 0.15142 0.46277 0.20509
 C1719 C 0.13454 0.45602 0.19837
 C1720 C 0.12414 0.44349 0.20862
 H1721 H 0.05722 0.40799 0.28227
 H1722 H 0.08770 0.35817 0.27094
 H1723 H 0.06475 0.34000 0.28808
 H1724 H 0.03436 0.38991 0.29945
 H1725 H 0.15233 0.43942 0.24560
 H1726 H 0.17071 0.46139 0.22771
 H1727 H 0.12924 0.46059 0.18530
 H1728 H 0.11106 0.43865 0.20332
   
