data_POSCAR
  _audit_creation_date              2014-09-24
  _audit_creation_method            'ToBaCCo'
  _symmetry_space_group_name_H-M    'P1'
  _symmetry_Int_Tables_number       1
  _symmetry_cell_setting            triclinic
  loop_
  _symmetry_equiv_pos_as_xyz
 x,y,z
_cell_length_a 60.3567
_cell_length_b 60.5370
_cell_length_c 60.5304
_cell_angle_alpha 90.048300
_cell_angle_beta 90.004900
_cell_angle_gamma 89.973600
loop_
  _atom_site_label
  _atom_site_type_symbol
  _atom_site_fract_x
  _atom_site_fract_y
  _atom_site_fract_z
C1 C 0.26446 1.05854 0.00139
 C2 C 0.26694 1.04672 0.02121
 C3 C 0.26525 1.02355 0.02043
 C4 C 0.26033 1.01232 0.00054
 C5 C 0.25719 1.02498 -0.01886
 C6 C 0.26035 1.04805 -0.01895
 C7 C 0.25960 0.98746 -0.00020
 C8 C 0.26383 0.97597 -0.02014
 C9 C 0.26354 0.95283 -0.02095
 C10 C 0.25995 0.94093 -0.00151
 C11 C 0.25672 0.95169 0.01871
 C12 C 0.25563 0.97487 0.01912
 H13 H 0.26392 1.07637 0.00206
 H14 H 0.26902 1.01429 0.03519
 H15 H 0.25319 1.01674 -0.03411
 H16 H 0.26810 0.98469 -0.03510
 H17 H 0.25959 0.92304 -0.00212
 H18 H 0.25216 0.98287 0.03470
 C19 C 0.75975 0.56124 0.50520
 C20 C 0.76291 0.54917 0.52465
 C21 C 0.76350 0.52600 0.52362
 C22 C 0.76024 0.51472 0.50337
 C23 C 0.75654 0.52750 0.48413
 C24 C 0.75720 0.55066 0.48481
 C25 C 0.76156 0.48991 0.50210
 C26 C 0.76673 0.47925 0.48191
 C27 C 0.76788 0.45618 0.48045
 C28 C 0.76486 0.44353 0.49951
 C29 C 0.76075 0.45350 0.51998
 C30 C 0.75831 0.47657 0.52104
 H31 H 0.75916 0.57912 0.50596
 H32 H 0.76725 0.51710 0.53862
 H33 H 0.75361 0.51968 0.46837
 H34 H 0.77048 0.48864 0.46722
 H35 H 0.76546 0.42568 0.49837
 H36 H 0.75421 0.48391 0.53679
 C37 C 0.73612 1.00446 1.06311
 C38 C 0.73962 0.98405 1.05254
 C39 C 0.74240 0.98408 1.02941
 C40 C 0.73939 1.00352 1.01678
 C41 C 0.73493 1.02348 1.02813
 C42 C 0.73376 1.02433 1.05133
 C43 C 0.73986 1.00283 0.99186
 C44 C 0.74335 1.02229 0.97933
 C45 C 0.74181 1.02204 0.95619
 C46 C 0.73875 1.00189 0.94530
 C47 C 0.73580 0.98226 0.95708
 C48 C 0.73586 0.98289 0.98025
 H49 H 0.73703 1.00510 1.08093
 H50 H 0.74598 0.96874 1.02116
 H51 H 0.73112 1.03828 1.01899
 H52 H 0.74676 1.03788 0.98731
 H53 H 0.73874 1.00150 0.92740
 H54 H 0.73203 0.96777 0.98888
 C55 C 0.23962 0.49701 0.55882
 C56 C 0.23673 0.47759 0.54663
 C57 C 0.23721 0.47858 0.52347
 C58 C 0.24141 0.49869 0.51232
 C59 C 0.24471 0.51794 0.52522
 C60 C 0.24294 0.51733 0.54834
 C61 C 0.24157 0.49974 0.48745
 C62 C 0.23743 0.51986 0.47629
 C63 C 0.23732 0.52094 0.45314
 C64 C 0.24048 0.50157 0.44092
 C65 C 0.24370 0.48120 0.45139
 C66 C 0.24510 0.48053 0.47454
 H67 H 0.23946 0.49629 0.57670
 H68 H 0.23361 0.46361 0.51445
 H69 H 0.24824 0.53363 0.51753
 H70 H 0.23357 0.53478 0.48529
 H71 H 0.24057 0.50237 0.42304
 H72 H 0.24850 0.46483 0.48227
 C73 C 1.06187 0.24679 -0.00390
 C74 C 1.05199 0.25347 0.01613
 C75 C 1.02876 0.25629 0.01648
 C76 C 1.01554 0.25186 -0.00230
 C77 C 1.02612 0.24457 -0.02176
 C78 C 1.04920 0.24250 -0.02281
 C79 C 0.99089 0.25540 -0.00178
 C80 C 0.97905 0.26031 -0.02137
 C81 C 0.95594 0.26392 -0.02118
 C82 C 0.94500 0.26338 -0.00067
 C83 C 0.95634 0.25912 0.01903
 C84 C 0.97906 0.25442 0.01832
 H85 H 1.07957 0.24430 -0.00491
 H86 H 1.02114 0.26319 0.03107
 H87 H 1.01655 0.24022 -0.03622
 H88 H 0.98797 0.26247 -0.03667
 H89 H 0.92717 0.26504 0.00018
 H90 H 0.98738 0.25028 0.03358
 C91 C 0.55855 0.74814 0.49968
 C92 C 0.54694 0.75272 0.51919
 C93 C 0.52371 0.75292 0.51880
 C94 C 0.51194 0.74794 0.49929
 C95 C 0.52404 0.74318 0.47990
 C96 C 0.54732 0.74349 0.47993
 C97 C 0.48716 0.74775 0.49928
 C98 C 0.47512 0.75343 0.48011
 C99 C 0.45185 0.75343 0.48016
 C100 C 0.44056 0.74807 0.49966
 C101 C 0.45209 0.74254 0.51896
 C102 C 0.47532 0.74211 0.51858
 H103 H 0.57649 0.74820 0.49986
 H104 H 0.51491 0.75743 0.53371
 H105 H 0.51548 0.73874 0.46483
 H106 H 0.48370 0.75840 0.46523
 H107 H 0.42262 0.74827 0.49983
 H108 H 0.48405 0.73699 0.53333
 C109 C 0.00153 0.74157 -0.05973
 C110 C 0.02068 0.73707 -0.04758
 C111 C 0.01941 0.73593 -0.02456
 C112 C -0.00064 0.74032 -0.01335
 C113 C -0.01974 0.74508 -0.02608
 C114 C -0.01919 0.74465 -0.04944
 C115 C -0.00162 0.73905 0.01146
 C116 C -0.02167 0.73419 0.02261
 C117 C -0.02241 0.73189 0.04580
 C118 C -0.00245 0.73385 0.05763
 C119 C 0.01762 0.73834 0.04705
 C120 C 0.01780 0.74178 0.02420
 H121 H 0.00321 0.74343 -0.07742
 H122 H 0.03414 0.73104 -0.01569
 H123 H -0.03518 0.74823 -0.01777
 H124 H -0.03654 0.73089 0.01327
 H125 H -0.00242 0.73307 0.07549
 H126 H 0.03333 0.74616 0.01651
 C127 C 0.50374 0.25365 0.44049
 C128 C 0.52322 0.25797 0.45233
 C129 C 0.52273 0.25736 0.47549
 C130 C 0.50315 0.25183 0.48694
 C131 C 0.48386 0.24719 0.47458
 C132 C 0.48395 0.24839 0.45142
 C133 C 0.50283 0.25104 0.51164
 C134 C 0.48324 0.25581 0.52343
 C135 C 0.48277 0.25497 0.54658
 C136 C 0.50226 0.24993 0.55811
 C137 C 0.52205 0.24540 0.54686
 C138 C 0.52214 0.24565 0.52367
 H139 H 0.50398 0.25438 0.42261
 H140 H 0.53761 0.26170 0.48447
 H141 H 0.46877 0.24219 0.48283
 H142 H 0.46835 0.26069 0.51475
 H143 H 0.50203 0.24956 0.57599
 H144 H 0.53724 0.24122 0.51512
 C145 C 1.05581 -0.00086 0.23365
 C146 C 1.04601 0.01960 0.23895
 C147 C 1.02308 0.01980 0.24378
 C148 C 1.00990 0.00057 0.24150
 C149 C 1.02035 -0.01920 0.23485
 C150 C 1.04328 -0.02018 0.23171
 C151 C 0.98538 0.00094 0.24605
 C152 C 0.97405 -0.01864 0.25203
 C153 C 0.95099 -0.01888 0.25582
 C154 C 0.93958 0.00138 0.25484
 C155 C 0.95046 0.02118 0.24982
 C156 C 0.97310 0.02074 0.24469
 H157 H 1.07363 -0.00225 0.23232
 H158 H 1.01539 0.03506 0.24873
 H159 H 1.01085 -0.03405 0.23197
 H160 H 0.98333 -0.03363 0.25478
 H161 H 0.92177 0.00191 0.25676
 H162 H 0.98094 0.03601 0.23984
 C163 C 0.55881 0.49620 0.74121
 C164 C 0.54807 0.51617 0.74587
 C165 C 0.52511 0.51610 0.74956
 C166 C 0.51248 0.49655 0.74711
 C167 C 0.52379 0.47687 0.74144
 C168 C 0.54692 0.47648 0.73905
 C169 C 0.48772 0.49668 0.75033
 C170 C 0.47616 0.47697 0.75533
 C171 C 0.45303 0.47684 0.75783
 C172 C 0.44142 0.49680 0.75652
 C173 C 0.45243 0.51675 0.75256
 C174 C 0.47535 0.51649 0.74866
 H175 H 0.57670 0.49595 0.73971
 H176 H 0.51732 0.53148 0.75415
 H177 H 0.51484 0.46171 0.73845
 H178 H 0.48491 0.46160 0.75773
 H179 H 0.42355 0.49681 0.75816
 H180 H 0.48329 0.53192 0.74458
 C181 C 1.00267 1.05535 0.76694
 C182 C 0.98167 1.04527 0.76754
 C183 C 0.98067 1.02211 0.76491
 C184 C 0.99986 1.00941 0.76046
 C185 C 1.02043 1.02041 0.75916
 C186 C 1.02198 1.04312 0.76321
 C187 C 0.99847 0.98477 0.75754
 C188 C 1.01703 0.97111 0.76162
 C189 C 1.01610 0.94796 0.75877
 C190 C 0.99557 0.93857 0.75283
 C191 C 0.97679 0.95167 0.74918
 C192 C 0.97849 0.97467 0.75096
 H193 H 1.00427 1.07311 0.76808
 H194 H 0.96501 1.01389 0.76738
 H195 H 1.03544 1.01149 0.75527
 H196 H 1.03199 0.97833 0.76819
 H197 H 0.99402 0.92096 0.75041
 H198 H 0.96410 0.98449 0.74689
 C199 C 0.49748 0.56075 0.24994
 C200 C 0.47745 0.54916 0.24968
 C201 C 0.47775 0.52602 0.25110
 C202 C 0.49801 0.51419 0.25101
 C203 C 0.51795 0.52649 0.25023
 C204 C 0.51775 0.54964 0.25067
 C205 C 0.49843 0.48930 0.25179
 C206 C 0.51779 0.47784 0.25828
 C207 C 0.51874 0.45471 0.25808
 C208 C 0.49966 0.44268 0.25281
 C209 C 0.47994 0.45345 0.24705
 C210 C 0.47961 0.47663 0.24597
 H211 H 0.49728 0.57866 0.24963
 H212 H 0.46205 0.51755 0.25205
 H213 H 0.53386 0.51840 0.24959
 H214 H 0.53232 0.48658 0.26389
 H215 H 0.50018 0.42480 0.25315
 H216 H 0.46463 0.48444 0.24016
 O217 O 0.25223 0.19042 0.22041
 O218 O 0.27411 0.18351 0.25262
 O219 O 0.19300 0.21840 0.24983
 O220 O 0.18647 0.24514 0.27322
 O221 O 0.22171 0.24772 0.19210
 O222 O 0.25046 0.27181 0.18592
 O223 O 0.25257 0.27924 0.30739
 O224 O 0.22655 0.25109 0.31364
 O225 O 0.30879 0.24926 0.28015
 O226 O 0.31520 0.22427 0.25363
 O227 O 0.28137 0.30588 0.25018
 O228 O 0.25250 0.31399 0.22738
 O229 O 0.25196 0.30530 0.28046
 O230 O 0.22315 0.30799 0.24716
 O231 O 0.30797 0.27926 0.25097
 O232 O 0.31204 0.24907 0.22284
 O233 O 0.28233 0.24940 0.30694
 O234 O 0.25077 0.22401 0.31374
 O235 O 0.25275 0.21662 0.19356
 O236 O 0.27909 0.24787 0.18922
 O237 O 0.19455 0.24889 0.21818
 O238 O 0.19030 0.27584 0.24869
 O239 O 0.21969 0.19184 0.25039
 O240 O 0.25021 0.18586 0.27621
 Zr241 Zr 0.25013 0.20882 0.24990
 O242 O 0.27101 0.22804 0.26997
 Zr243 Zr 0.21151 0.24784 0.24883
 O244 O 0.23045 0.26839 0.26995
 Zr245 Zr 0.25113 0.24693 0.21051
 O246 O 0.27104 0.26814 0.22945
 Zr247 Zr 0.25191 0.24936 0.28962
 O248 O 0.23067 0.22866 0.27081
 Zr249 Zr 0.29065 0.24909 0.25068
 O250 O 0.27214 0.22744 0.23030
 Zr251 Zr 0.25164 0.28776 0.25046
 O252 O 0.23143 0.26860 0.22928
 O253 O 0.23010 0.22695 0.22884
 O254 O 0.27244 0.26989 0.27124
 C255 C 0.25349 0.19643 0.20008
 C256 C 0.19930 0.19809 0.25040
 C257 C 0.20127 0.24901 0.19796
 C258 C 0.25233 0.29942 0.30083
 C259 C 0.30268 0.24916 0.30050
 C260 C 0.30173 0.29958 0.25036
 H261 H 0.28045 0.21806 0.27885
 H262 H 0.28026 0.27721 0.21944
 H263 H 0.22082 0.21742 0.21929
 H264 H 0.22054 0.27771 0.27906
 H265 H 0.21442 0.24143 0.30835
 H266 H 0.18940 0.25662 0.28449
 H267 H 0.32713 0.25300 0.22800
 H268 H 0.27461 0.24261 0.17434
 H269 H 0.26284 0.21342 0.31058
 H270 H 0.23889 0.19092 0.28692
 H271 H 0.25959 0.30821 0.21383
 H272 H 0.24095 0.28386 0.19161
 H273 H 0.28631 0.18740 0.24244
 H274 H 0.31238 0.21343 0.24173
 H275 H 0.17514 0.27086 0.24479
 H276 H 0.22460 0.32074 0.25733
 O277 O 0.75060 0.80671 0.22002
 O278 O 0.72812 0.81417 0.25156
 O279 O 0.80929 0.77926 0.24975
 O280 O 0.81626 0.75252 0.27263
 O281 O 0.78035 0.74919 0.19172
 O282 O 0.75103 0.72522 0.18620
 O283 O 0.75145 0.71937 0.30746
 O284 O 0.77626 0.74824 0.31358
 O285 O 0.69367 0.74807 0.28071
 O286 O 0.68748 0.77375 0.25384
 O287 O 0.72104 0.69174 0.25111
 O288 O 0.75016 0.68388 0.22743
 O289 O 0.75006 0.69254 0.28126
 O290 O 0.77915 0.68930 0.24871
 O291 O 0.69453 0.71842 0.25265
 O292 O 0.68987 0.74769 0.22360
 O293 O 0.72065 0.74729 0.30696
 O294 O 0.75150 0.77457 0.31338
 O295 O 0.75043 0.78065 0.19298
 O296 O 0.72277 0.75008 0.18962
 O297 O 0.80734 0.74828 0.21797
 O298 O 0.81195 0.72174 0.24872
 O299 O 0.78254 0.80573 0.25121
 O300 O 0.75125 0.81220 0.27561
 Zr301 Zr 0.75212 0.78880 0.24967
 O302 O 0.73136 0.76987 0.27008
 Zr303 Zr 0.79080 0.74979 0.24866
 O304 O 0.77208 0.72950 0.27002
 Zr305 Zr 0.75106 0.75047 0.21045
 O306 O 0.73124 0.72938 0.22981
 Zr307 Zr 0.75085 0.74887 0.28954
 O308 O 0.77186 0.76929 0.27052
 Zr309 Zr 0.71171 0.74859 0.25106
 O310 O 0.73007 0.77002 0.23028
 Zr311 Zr 0.75077 0.70984 0.25090
 O312 O 0.77079 0.72887 0.22937
 O313 O 0.77218 0.77056 0.22867
 O314 O 0.73026 0.72811 0.27157
 C315 C 0.74990 0.80083 0.19963
 C316 C 0.80294 0.79950 0.25131
 C317 C 0.80073 0.74782 0.19774
 C318 C 0.75076 0.69904 0.30149
 C319 C 0.70019 0.74714 0.30092
 C320 C 0.70075 0.69811 0.25230
 H321 H 0.72193 0.77982 0.27902
 H322 H 0.72185 0.72024 0.22002
 H323 H 0.78165 0.78001 0.21923
 H324 H 0.78209 0.72033 0.27916
 H325 H 0.78828 0.75785 0.30797
 H326 H 0.81301 0.74167 0.28439
 H327 H 0.67485 0.74413 0.22921
 H328 H 0.72725 0.75494 0.17461
 H329 H 0.73811 0.78377 0.31143
 H330 H 0.76188 0.80703 0.28694
 H331 H 0.74169 0.68919 0.21450
 H332 H 0.76061 0.71322 0.19186
 H333 H 0.71606 0.81008 0.24130
 H334 H 0.68987 0.78395 0.24131
 H335 H 0.82705 0.72654 0.24436
 H336 H 0.77653 0.67588 0.25770
 O337 O 0.75270 0.19341 0.78254
 O338 O 0.73000 0.18480 0.75166
 O339 O 0.81101 0.22036 0.75203
 O340 O 0.81716 0.24587 0.72672
 O341 O 0.78234 0.25281 0.80775
 O342 O 0.75256 0.27645 0.81264
 O343 O 0.75128 0.27711 0.69130
 O344 O 0.77752 0.24889 0.68647
 O345 O 0.69544 0.24706 0.71942
 O346 O 0.68703 0.22604 0.75014
 O347 O 0.72142 0.30614 0.74588
 O348 O 0.75047 0.31547 0.77000
 O349 O 0.75016 0.30474 0.71667
 O350 O 0.77935 0.30984 0.74846
 O351 O 0.69520 0.27922 0.74722
 O352 O 0.69093 0.24703 0.77623
 O353 O 0.72194 0.24716 0.69275
 O354 O 0.75355 0.22169 0.68747
 O355 O 0.75266 0.22070 0.80838
 O356 O 0.72475 0.25094 0.81081
 O357 O 0.80925 0.25234 0.78138
 O358 O 0.81295 0.27785 0.74985
 O359 O 0.78496 0.19317 0.75232
 O360 O 0.75445 0.18524 0.72736
 Zr361 Zr 0.75430 0.20993 0.75209
 O362 O 0.73308 0.22754 0.73095
 Zr363 Zr 0.79219 0.24957 0.75106
 O364 O 0.77295 0.26866 0.72902
 Zr365 Zr 0.75274 0.25010 0.78960
 O366 O 0.73223 0.26991 0.76957
 Zr367 Zr 0.75201 0.24817 0.71039
 O368 O 0.77350 0.22882 0.73017
 Zr369 Zr 0.71312 0.24933 0.74922
 O370 O 0.73215 0.22929 0.77071
 Zr371 Zr 0.75138 0.28866 0.74749
 O372 O 0.77199 0.27102 0.76958
 O373 O 0.77399 0.22954 0.77214
 O374 O 0.73099 0.26927 0.72764
 C375 C 0.75211 0.20024 0.80264
 C376 C 0.80520 0.19990 0.75238
 C377 C 0.80274 0.25369 0.80160
 C378 C 0.75040 0.29763 0.69668
 C379 C 0.70162 0.24654 0.69911
 C380 C 0.70118 0.29957 0.74577
 H381 H 0.72400 0.21692 0.72247
 H382 H 0.72282 0.27938 0.77901
 H383 H 0.78352 0.22074 0.78211
 H384 H 0.78270 0.27766 0.71946
 H385 H 0.78966 0.23952 0.69221
 H386 H 0.81425 0.25695 0.71506
 H387 H 0.68990 0.26180 0.78317
 H388 H 0.72955 0.24698 0.82598
 H389 H 0.74164 0.21109 0.69110
 H390 H 0.76528 0.19001 0.71604
 H391 H 0.74126 0.31097 0.78272
 H392 H 0.76163 0.28843 0.80617
 H393 H 0.71775 0.18997 0.76123
 H394 H 0.69269 0.21232 0.74330
 H395 H 0.82825 0.27325 0.75369
 H396 H 0.77617 0.32307 0.73935
 O397 O 0.25150 0.80693 0.78036
 O398 O 0.27388 0.81348 0.74876
 O399 O 0.19275 0.77819 0.75230
 O400 O 0.18592 0.75183 0.72856
 O401 O 0.22227 0.74922 0.80928
 O402 O 0.25161 0.72520 0.81460
 O403 O 0.25119 0.71809 0.69348
 O404 O 0.22500 0.74645 0.68768
 O405 O 0.30779 0.74823 0.71909
 O406 O 0.31660 0.77197 0.74795
 O407 O 0.28184 0.69221 0.74995
 O408 O 0.25267 0.68358 0.77349
 O409 O 0.25140 0.69198 0.72042
 O410 O 0.22521 0.68737 0.75458
 O411 O 0.30839 0.71879 0.74907
 O412 O 0.31300 0.75284 0.77573
 O413 O 0.28065 0.74700 0.69311
 O414 O 0.24951 0.77326 0.68687
 O415 O 0.25302 0.78070 0.80718
 O416 O 0.27975 0.75006 0.81118
 O417 O 0.19521 0.74728 0.78313
 O418 O 0.19062 0.72081 0.75262
 O419 O 0.21864 0.80548 0.75082
 O420 O 0.24883 0.81178 0.72472
 Zr421 Zr 0.24940 0.78862 0.75084
 O422 O 0.27026 0.76968 0.73024
 Zr423 Zr 0.21148 0.74905 0.75241
 O424 O 0.23012 0.72873 0.73107
 Zr425 Zr 0.25150 0.75034 0.79027
 O426 O 0.27158 0.72939 0.77101
 Zr427 Zr 0.25092 0.74803 0.71113
 O428 O 0.22987 0.76857 0.73021
 Zr429 Zr 0.29047 0.74874 0.74923
 O430 O 0.27183 0.77001 0.76995
 Zr431 Zr 0.25186 0.70969 0.75030
 O432 O 0.23175 0.72854 0.77173
 O433 O 0.23003 0.77010 0.77221
 O434 O 0.27209 0.72767 0.72910
 C435 C 0.25322 0.80090 0.80066
 C436 C 0.19841 0.79865 0.75154
 C437 C 0.20187 0.74731 0.80334
 C438 C 0.25127 0.69790 0.70004
 C439 C 0.30112 0.74707 0.69896
 C440 C 0.30215 0.69848 0.74950
 H441 H 0.27930 0.77963 0.72098
 H442 H 0.28097 0.72035 0.78088
 H443 H 0.22074 0.77944 0.78193
 H444 H 0.22007 0.71952 0.72203
 H445 H 0.21314 0.75638 0.69307
 H446 H 0.18872 0.74050 0.71711
 H447 H 0.31379 0.73868 0.78384
 H448 H 0.27522 0.75475 0.82623
 H449 H 0.26204 0.78349 0.68934
 H450 H 0.23792 0.80627 0.71382
 H451 H 0.26122 0.68885 0.78639
 H452 H 0.24215 0.71310 0.80894
 H453 H 0.28633 0.80857 0.75821
 H454 H 0.31083 0.78523 0.74035
 H455 H 0.17541 0.72558 0.75664
 H456 H 0.21677 0.68685 0.74057
 O457 O 0.24747 0.30355 0.71696
 O458 O 0.22547 0.31067 0.74824
 O459 O 0.30730 0.27796 0.74804
 O460 O 0.31486 0.25110 0.77078
 O461 O 0.28078 0.24827 0.68922
 O462 O 0.25310 0.22203 0.68322
 O463 O 0.25053 0.21611 0.80428
 O464 O 0.27443 0.24577 0.81085
 O465 O 0.19243 0.24304 0.77660
 O466 O 0.18583 0.26832 0.74926
 O467 O 0.22237 0.18749 0.74759
 O468 O 0.25187 0.18076 0.72421
 O469 O 0.25084 0.18929 0.77804
 O470 O 0.28052 0.18710 0.74604
 O471 O 0.19494 0.21325 0.74906
 O472 O 0.18974 0.24193 0.71941
 O473 O 0.21898 0.24298 0.80329
 O474 O 0.24878 0.27125 0.81035
 O475 O 0.24875 0.27737 0.69004
 O476 O 0.22335 0.24525 0.68585
 O477 O 0.30721 0.24874 0.71605
 O478 O 0.31201 0.22072 0.74589
 O479 O 0.27985 0.30377 0.74850
 O480 O 0.24775 0.30869 0.77296
 Zr481 Zr 0.24993 0.28574 0.74669
 O482 O 0.22949 0.26599 0.76666
 Zr483 Zr 0.28994 0.24803 0.74629
 O484 O 0.27162 0.22703 0.76728
 Zr485 Zr 0.25103 0.24728 0.70739
 O486 O 0.23156 0.22551 0.72636
 Zr487 Zr 0.24940 0.24564 0.78642
 O488 O 0.27000 0.26686 0.76783
 Zr489 Zr 0.21099 0.24401 0.74727
 O490 O 0.22899 0.26607 0.72688
 Zr491 Zr 0.25142 0.20666 0.74774
 O492 O 0.27121 0.22636 0.72657
 O493 O 0.27089 0.26822 0.72606
 O494 O 0.22993 0.22420 0.76805
 C495 C 0.24706 0.29751 0.69659
 C496 C 0.30041 0.29803 0.74910
 C497 C 0.30109 0.24879 0.69567
 C498 C 0.25074 0.19577 0.79829
 C499 C 0.19866 0.24221 0.79690
 C500 C 0.20188 0.19317 0.74888
 H501 H 0.21954 0.27556 0.77544
 H502 H 0.22268 0.21601 0.71643
 H503 H 0.27991 0.27830 0.71686
 H504 H 0.28178 0.21818 0.77656
 H505 H 0.28628 0.25565 0.80538
 H506 H 0.31193 0.23978 0.78218
 H507 H 0.17477 0.23786 0.72480
 H508 H 0.22794 0.25024 0.67093
 H509 H 0.23518 0.28008 0.80809
 H510 H 0.25891 0.30419 0.78407
 H511 H 0.24439 0.18628 0.71078
 H512 H 0.26375 0.21092 0.68882
 H513 H 0.21282 0.30539 0.73932
 H514 H 0.18789 0.27827 0.73646
 H515 H 0.32696 0.22617 0.74184
 H516 H 0.27808 0.17345 0.75473
 O517 O 0.74752 0.69497 0.72347
 O518 O 0.77138 0.68941 0.75434
 O519 O 0.68831 0.72052 0.75397
 O520 O 0.68093 0.74700 0.77745
 O521 O 0.71509 0.75175 0.69602
 O522 O 0.74298 0.77673 0.68980
 O523 O 0.74543 0.78322 0.81096
 O524 O 0.72109 0.75367 0.81729
 O525 O 0.80257 0.75585 0.78330
 O526 O 0.81215 0.73308 0.75480
 O527 O 0.77381 0.81097 0.75392
 O528 O 0.74334 0.81822 0.73111
 O529 O 0.74363 0.80954 0.78431
 O530 O 0.71681 0.81336 0.75085
 O531 O 0.80102 0.78509 0.75235
 O532 O 0.80642 0.75070 0.72667
 O533 O 0.77664 0.75507 0.81046
 O534 O 0.74661 0.72802 0.81722
 O535 O 0.74701 0.72136 0.69678
 O536 O 0.77222 0.75323 0.69218
 O537 O 0.68824 0.75130 0.72245
 O538 O 0.68358 0.77803 0.75300
 O539 O 0.71595 0.69491 0.75403
 O540 O 0.74697 0.68963 0.77898
 Zr541 Zr 0.74564 0.71307 0.75313
 O542 O 0.76606 0.73276 0.77327
 Zr543 Zr 0.70562 0.75068 0.75284
 O544 O 0.72407 0.77177 0.77377
 Zr545 Zr 0.74473 0.75154 0.71401
 O546 O 0.76429 0.77332 0.73275
 Zr547 Zr 0.74636 0.75343 0.79311
 O548 O 0.72574 0.73205 0.77443
 Zr549 Zr 0.78457 0.75460 0.75375
 O550 O 0.76654 0.73263 0.73343
 Zr551 Zr 0.74446 0.79208 0.75425
 O552 O 0.72455 0.77232 0.73329
 O553 O 0.72470 0.73068 0.73245
 O554 O 0.76612 0.77485 0.77471
 C555 C 0.74827 0.70114 0.70316
 C556 C 0.69536 0.70045 0.75431
 C557 C 0.69471 0.75215 0.70217
 C558 C 0.74413 0.80343 0.80463
 C559 C 0.79683 0.75588 0.80372
 C560 C 0.79428 0.80521 0.75260
 H561 H 0.77585 0.72315 0.78215
 H562 H 0.77294 0.78273 0.72257
 H563 H 0.71558 0.72093 0.72298
 H564 H 0.71386 0.78044 0.78315
 H565 H 0.70938 0.74354 0.81195
 H566 H 0.68352 0.75854 0.78873
 H567 H 0.80609 0.76454 0.71800
 H568 H 0.76746 0.74828 0.67728
 H569 H 0.75916 0.71803 0.81403
 H570 H 0.73619 0.69454 0.79029
 H571 H 0.75210 0.81355 0.71810
 H572 H 0.73351 0.78858 0.69597
 H573 H 0.78309 0.69471 0.74419
 H574 H 0.80695 0.71903 0.76129
 H575 H 0.66851 0.77259 0.74938
 H576 H 0.70829 0.81281 0.76480
 O577 O 0.24505 0.69563 0.28439
 O578 O 0.22239 0.68775 0.25344
 O579 O 0.30391 0.72191 0.25294
 O580 O 0.31103 0.74815 0.22947
 O581 O 0.27589 0.75405 0.31028
 O582 O 0.24681 0.77833 0.31537
 O583 O 0.24567 0.78014 0.19398
 O584 O 0.27132 0.75133 0.18903
 O585 O 0.18911 0.75102 0.22174
 O586 O 0.18034 0.72963 0.25241
 O587 O 0.21597 0.80923 0.24845
 O588 O 0.24489 0.81800 0.27286
 O589 O 0.24497 0.80766 0.21948
 O590 O 0.27396 0.81199 0.25171
 O591 O 0.18935 0.78269 0.24962
 O592 O 0.18439 0.75058 0.27849
 O593 O 0.21567 0.75130 0.19511
 O594 O 0.24658 0.72481 0.18963
 O595 O 0.24522 0.72266 0.31048
 O596 O 0.21829 0.75373 0.31318
 O597 O 0.30277 0.75316 0.28390
 O598 O 0.30682 0.77952 0.25282
 O599 O 0.27747 0.69511 0.25402
 O600 O 0.24682 0.68797 0.22918
 Zr601 Zr 0.24715 0.71243 0.25414
 O602 O 0.22631 0.73060 0.23311
 Zr603 Zr 0.28572 0.75146 0.25352
 O604 O 0.26690 0.77109 0.23162
 Zr605 Zr 0.24630 0.75226 0.29202
 O606 O 0.22618 0.77265 0.27213
 Zr607 Zr 0.24567 0.75109 0.21282
 O608 O 0.26670 0.73122 0.23245
 Zr609 Zr 0.20675 0.75256 0.25159
 O610 O 0.22535 0.73201 0.27292
 Zr611 Zr 0.24566 0.79129 0.25023
 O612 O 0.26590 0.77308 0.27222
 O613 O 0.26722 0.73145 0.27439
 O614 O 0.22501 0.77238 0.23023
 C615 C 0.24422 0.70227 0.30454
 C616 C 0.29778 0.70156 0.25310
 C617 C 0.29630 0.75445 0.30412
 C618 C 0.24519 0.80064 0.19944
 C619 C 0.19535 0.75095 0.20144
 C620 C 0.19565 0.80293 0.24813
 H621 H 0.21704 0.72027 0.22448
 H622 H 0.21690 0.78220 0.28162
 H623 H 0.27659 0.72225 0.28417
 H624 H 0.27685 0.78000 0.22217
 H625 H 0.28320 0.74163 0.19479
 H626 H 0.30793 0.75897 0.21762
 H627 H 0.18363 0.76533 0.28552
 H628 H 0.22290 0.74942 0.32831
 H629 H 0.23413 0.71470 0.19284
 H630 H 0.25747 0.69282 0.21774
 H631 H 0.23595 0.81335 0.28572
 H632 H 0.25599 0.79025 0.30893
 H633 H 0.21012 0.69317 0.26285
 H634 H 0.18555 0.71608 0.24488
 H635 H 0.32196 0.77480 0.25711
 H636 H 0.27117 0.82526 0.24253
 O637 O 0.75627 0.31442 0.27913
 O638 O 0.77755 0.32081 0.24626
 O639 O 0.69569 0.28825 0.25147
 O640 O 0.68748 0.26202 0.22784
 O641 O 0.72450 0.25880 0.30816
 O642 O 0.75237 0.23269 0.31309
 O643 O 0.75060 0.22615 0.19185
 O644 O 0.72615 0.25574 0.18622
 O645 O 0.80938 0.25352 0.21748
 O646 O 0.81685 0.27913 0.24403
 O647 O 0.78100 0.19869 0.24771
 O648 O 0.75217 0.19102 0.27149
 O649 O 0.74969 0.19994 0.21866
 O650 O 0.72417 0.19633 0.25345
 O651 O 0.80861 0.22413 0.24582
 O652 O 0.81414 0.25343 0.27462
 O653 O 0.78201 0.25485 0.19164
 O654 O 0.75141 0.28130 0.18547
 O655 O 0.75705 0.28802 0.30583
 O656 O 0.78199 0.25568 0.30943
 O657 O 0.69710 0.25875 0.28228
 O658 O 0.69125 0.23111 0.25249
 O659 O 0.72265 0.31451 0.25032
 O660 O 0.75261 0.31948 0.22333
 Zr661 Zr 0.75273 0.29641 0.24954
 O662 O 0.77249 0.27656 0.22882
 Zr663 Zr 0.71320 0.25848 0.25142
 O664 O 0.73068 0.23753 0.22975
 Zr665 Zr 0.75359 0.25787 0.28884
 O666 O 0.77240 0.23617 0.26919
 Zr667 Zr 0.75213 0.25599 0.20965
 O668 O 0.73212 0.27731 0.22905
 Zr669 Zr 0.79199 0.25469 0.24742
 O670 O 0.77463 0.27679 0.26844
 Zr671 Zr 0.75173 0.21741 0.24862
 O672 O 0.73268 0.23698 0.27046
 O673 O 0.73293 0.27865 0.27101
 O674 O 0.77247 0.23462 0.22729
 C675 C 0.75804 0.30823 0.29937
 C676 C 0.70218 0.30846 0.25124
 C677 C 0.70395 0.25901 0.30242
 C678 C 0.74942 0.20595 0.19830
 C679 C 0.80254 0.25389 0.19738
 C680 C 0.80154 0.20411 0.24647
 H681 H 0.78201 0.28621 0.21970
 H682 H 0.78162 0.22669 0.27882
 H683 H 0.72436 0.28854 0.28083
 H684 H 0.72009 0.22884 0.22082
 H685 H 0.71438 0.26546 0.19218
 H686 H 0.68951 0.25034 0.21658
 H687 H 0.82903 0.24958 0.26885
 H688 H 0.77797 0.26073 0.32451
 H689 H 0.76360 0.29173 0.18866
 H690 H 0.74075 0.31485 0.21302
 H691 H 0.75996 0.19640 0.28482
 H692 H 0.74187 0.22136 0.30766
 H693 H 0.78985 0.31642 0.25611
 H694 H 0.81509 0.28941 0.25662
 H695 H 0.67636 0.23659 0.25674
 H696 H 0.71537 0.19633 0.23966
 C697 C 0.27275 0.08466 0.08009
 C698 C 0.28255 0.09179 0.06034
 C699 C 0.28151 0.07887 0.04134
 C700 C 0.27060 0.05826 0.04134
 C701 C 0.26237 0.05031 0.06170
 C702 C 0.26325 0.06347 0.08078
 C703 C 0.27133 0.10005 0.09914
 N704 N 0.26172 0.09398 0.11853
 N705 N 0.25921 0.10856 0.13490
 C706 C 0.26610 0.12981 0.13247
 N707 N 0.27589 0.13573 0.11319
 N708 N 0.27845 0.12119 0.09693
 C709 C 0.26253 0.14656 0.15000
 C710 C 0.26532 0.16908 0.14512
 C711 C 0.26205 0.18513 0.16130
 C712 C 0.25608 0.17914 0.18292
 C713 C 0.25321 0.15661 0.18788
 C714 C 0.25628 0.14047 0.17153
 H715 H 0.29060 0.10774 0.05928
 H716 H 0.28944 0.08520 0.02661
 H717 H 0.25374 0.03468 0.06271
 H718 H 0.25570 0.05739 0.09581
 H719 H 0.26997 0.17440 0.12869
 H720 H 0.26449 0.20228 0.15688
 H721 H 0.24857 0.15144 0.20436
 H722 H 0.25398 0.12326 0.17580
 C723 C 0.76636 0.58826 0.58391
 C724 C 0.77942 0.59352 0.56542
 C725 C 0.77913 0.58015 0.54666
 C726 C 0.76574 0.56121 0.54584
 C727 C 0.75366 0.55515 0.56473
 C728 C 0.75396 0.56857 0.58361
 C729 C 0.76472 0.60407 0.60258
 N730 N 0.75393 0.59873 0.62156
 N731 N 0.75156 0.61355 0.63772
 C732 C 0.75973 0.63435 0.63549
 N733 N 0.77061 0.63959 0.61658
 N734 N 0.77306 0.62479 0.60052
 C735 C 0.75652 0.65126 0.65294
 C736 C 0.76024 0.67368 0.64821
 C737 C 0.75726 0.68980 0.66443
 C738 C 0.75072 0.68391 0.68591
 C739 C 0.74697 0.66148 0.69071
 C740 C 0.74971 0.64533 0.67434
 H741 H 0.78944 0.60834 0.56516
 H742 H 0.78895 0.58498 0.53248
 H743 H 0.74316 0.54065 0.56450
 H744 H 0.74379 0.56399 0.59761
 H745 H 0.76536 0.67886 0.63187
 H746 H 0.76037 0.70689 0.66018
 H747 H 0.74185 0.65641 0.70708
 H748 H 0.74671 0.62820 0.67852
 C749 C 0.74103 0.92568 0.09208
 C750 C 0.72862 0.94420 0.09840
 C751 C 0.72801 0.96301 0.08526
 C752 C 0.73996 0.96423 0.06522
 C753 C 0.75182 0.94520 0.05851
 C754 C 0.75239 0.92623 0.07183
 C755 C 0.74229 0.90639 0.10712
 N756 N 0.75163 0.88695 0.10073
 N757 N 0.75282 0.86994 0.11473
 C758 C 0.74482 0.87177 0.13567
 N759 N 0.73550 0.89118 0.14193
 N760 N 0.73424 0.90806 0.12798
 C761 C 0.74634 0.85331 0.15168
 C762 C 0.74206 0.85729 0.17416
 C763 C 0.74330 0.84025 0.18955
 C764 C 0.74868 0.81867 0.18292
 C765 C 0.75290 0.81455 0.16042
 C766 C 0.75187 0.83176 0.14495
 H767 H 0.71921 0.94425 0.11363
 H768 H 0.71743 0.97637 0.09074
 H769 H 0.76165 0.94510 0.04358
 H770 H 0.76215 0.91219 0.06649
 H771 H 0.73785 0.87368 0.17998
 H772 H 0.73986 0.84403 0.20670
 H773 H 0.75717 0.79811 0.15481
 H774 H 0.75522 0.82816 0.12775
 C775 C 0.23151 0.41814 0.58511
 C776 C 0.21860 0.43677 0.59027
 C777 C 0.21948 0.45564 0.57710
 C778 C 0.23334 0.45640 0.55848
 C779 C 0.24532 0.43740 0.55255
 C780 C 0.24441 0.41842 0.56575
 C781 C 0.23250 0.39927 0.60070
 N782 N 0.24336 0.38031 0.59540
 N783 N 0.24522 0.36396 0.61004
 C784 C 0.23645 0.36597 0.63063
 N785 N 0.22548 0.38485 0.63583
 N786 N 0.22354 0.40112 0.62119
 C787 C 0.23919 0.34829 0.64734
 C788 C 0.23456 0.35259 0.66970
 C789 C 0.23734 0.33617 0.68563
 C790 C 0.24458 0.31495 0.67960
 C791 C 0.24914 0.31058 0.65723
 C792 C 0.24660 0.32712 0.64128
 H793 H 0.20821 0.43704 0.60485
 H794 H 0.20972 0.46990 0.58182
 H795 H 0.25619 0.43757 0.53832
 H796 H 0.25449 0.40432 0.56125
 H797 H 0.22893 0.36874 0.67497
 H798 H 0.23357 0.34008 0.70269
 H799 H 0.25481 0.29440 0.65205
 H800 H 0.25029 0.32327 0.62420
 C801 C 0.74288 0.08051 0.91565
 C802 C 0.72699 0.06389 0.91237
 C803 C 0.72649 0.04535 0.92592
 C804 C 0.74194 0.04276 0.94307
 C805 C 0.75738 0.05970 0.94699
 C806 C 0.75785 0.07846 0.93337
 C807 C 0.74410 0.09920 0.89988
 N808 N 0.75637 0.11754 0.90419
 N809 N 0.75761 0.13391 0.88947
 C810 C 0.74676 0.13248 0.86983
 N811 N 0.73450 0.11418 0.86563
 N812 N 0.73317 0.09794 0.88033
 C813 C 0.74842 0.15010 0.85294
 C814 C 0.74251 0.14547 0.83097
 C815 C 0.74386 0.16176 0.81478
 C816 C 0.75090 0.18321 0.82014
 C817 C 0.75673 0.18797 0.84214
 C818 C 0.75567 0.17149 0.85838
 H819 H 0.71498 0.06505 0.89914
 H820 H 0.71401 0.03286 0.92286
 H821 H 0.76948 0.05814 0.96011
 H822 H 0.77027 0.09101 0.93633
 H823 H 0.73697 0.12915 0.82617
 H824 H 0.73915 0.15754 0.79803
 H825 H 0.76230 0.20434 0.84675
 H826 H 0.76028 0.17555 0.87518
 C827 C 0.23123 0.58091 0.41546
 C828 C 0.24414 0.58052 0.43482
 C829 C 0.24542 0.56132 0.44767
 C830 C 0.23384 0.54217 0.44138
 C831 C 0.22007 0.54297 0.42271
 C832 C 0.21879 0.56207 0.40991
 C833 C 0.23169 0.60013 0.40027
 N834 N 0.22225 0.59860 0.37998
 N835 N 0.22373 0.61514 0.36561
 C836 C 0.23468 0.63400 0.37087
 N837 N 0.24391 0.63572 0.39129
 N838 N 0.24250 0.61909 0.40568
 C839 C 0.23708 0.65180 0.35424
 C840 C 0.24420 0.67311 0.36021
 C841 C 0.24645 0.68966 0.34417
 C842 C 0.24194 0.68509 0.32182
 C843 C 0.23494 0.66375 0.31594
 C844 C 0.23244 0.64739 0.33193
 H845 H 0.25388 0.59475 0.43961
 H846 H 0.25621 0.56112 0.46197
 H847 H 0.21062 0.52861 0.41772
 H848 H 0.20842 0.56184 0.39531
 H849 H 0.24789 0.67704 0.37727
 H850 H 0.25190 0.70595 0.34921
 H851 H 0.23118 0.65967 0.29893
 H852 H 0.22703 0.63115 0.32669
 C853 C 0.26904 0.91390 0.91988
 C854 C 0.25650 0.93350 0.91986
 C855 C 0.25550 0.94681 0.93877
 C856 C 0.26700 0.94073 0.95801
 C857 C 0.28050 0.92184 0.95758
 C858 C 0.28150 0.90859 0.93876
 C859 C 0.26808 0.89822 0.90107
 N860 N 0.27697 0.87771 0.90308
 N861 N 0.27497 0.86294 0.88693
 C862 C 0.26403 0.86800 0.86802
 N863 N 0.25535 0.88861 0.86583
 N864 N 0.25728 0.90340 0.88206
 C865 C 0.26114 0.85106 0.85057
 C866 C 0.25382 0.85680 0.82928
 C867 C 0.25121 0.84056 0.81299
 C868 C 0.25560 0.81825 0.81777
 C869 C 0.26272 0.81256 0.83912
 C870 C 0.26556 0.82876 0.85526
 H871 H 0.24677 0.93812 0.90556
 H872 H 0.24493 0.96127 0.93870
 H873 H 0.28988 0.91701 0.97205
 H874 H 0.29160 0.89381 0.93928
 H875 H 0.25029 0.87384 0.82516
 H876 H 0.24566 0.84547 0.79670
 H877 H 0.26635 0.79557 0.84336
 H878 H 0.27109 0.82372 0.87151
 C879 C 0.77479 0.41927 0.42013
 C880 C 0.76149 0.43836 0.42072
 C881 C 0.76005 0.45107 0.44001
 C882 C 0.77187 0.44490 0.45904
 C883 C 0.78614 0.42660 0.45799
 C884 C 0.78757 0.41393 0.43879
 C885 C 0.77420 0.40405 0.40094
 N886 N 0.78368 0.38376 0.40237
 N887 N 0.78188 0.36929 0.38591
 C888 C 0.77054 0.37447 0.36726
 N889 N 0.76129 0.39488 0.36564
 N890 N 0.76302 0.40935 0.38218
 C891 C 0.76764 0.35779 0.34957
 C892 C 0.75977 0.36378 0.32855
 C893 C 0.75678 0.34776 0.31212
 C894 C 0.76131 0.32539 0.31650
 C895 C 0.76912 0.31946 0.33754
 C896 C 0.77236 0.33546 0.35381
 H897 H 0.75150 0.44299 0.40661
 H898 H 0.74888 0.46506 0.44039
 H899 H 0.79577 0.42173 0.47228
 H900 H 0.79823 0.39954 0.43884
 H901 H 0.75600 0.38085 0.32476
 H902 H 0.75069 0.35284 0.29608
 H903 H 0.77289 0.30241 0.34144
 H904 H 0.77834 0.33023 0.36985
 C905 C 0.09302 0.25978 0.07318
 C906 C 0.07042 0.25469 0.07541
 C907 C 0.05666 0.25345 0.05679
 C908 C 0.06520 0.25696 0.03531
 C909 C 0.08769 0.26314 0.03349
 C910 C 0.10130 0.26450 0.05205
 C911 C 0.10829 0.25936 0.09243
 N912 N 0.13029 0.26290 0.08945
 N913 N 0.14437 0.26158 0.10630
 C914 C 0.13713 0.25664 0.12694
 N915 N 0.11507 0.25325 0.13004
 N916 N 0.10095 0.25455 0.11312
 C917 C 0.15322 0.25460 0.14539
 C918 C 0.14617 0.25159 0.16734
 C919 C 0.16167 0.24972 0.18451
 C920 C 0.18454 0.25066 0.18004
 C921 C 0.19148 0.25355 0.15806
 C922 C 0.17607 0.25554 0.14103
 H923 H 0.06347 0.25105 0.09149
 H924 H 0.03967 0.24833 0.05932
 H925 H 0.09497 0.26744 0.01774
 H926 H 0.11850 0.26898 0.04969
 H927 H 0.12869 0.25079 0.17129
 H928 H 0.15575 0.24750 0.20125
 H929 H 0.20891 0.25444 0.15393
 H930 H 0.18216 0.25775 0.12435
 C931 C 0.58553 0.76059 0.57850
 C932 C 0.56561 0.74855 0.57891
 C933 C 0.55262 0.74665 0.55985
 C934 C 0.55927 0.75675 0.54003
 C935 C 0.57863 0.76960 0.53992
 C936 C 0.59161 0.77149 0.55891
 C937 C 0.60061 0.76082 0.59784
 N938 N 0.62126 0.76949 0.59599
 N939 N 0.63543 0.76862 0.61279
 C940 C 0.62961 0.75906 0.63222
 N941 N 0.60885 0.75061 0.63422
 N942 N 0.59466 0.75142 0.61735
 C943 C 0.64594 0.75734 0.65042
 C944 C 0.63951 0.75108 0.67186
 C945 C 0.65526 0.74941 0.68880
 C946 C 0.67775 0.75370 0.68453
 C947 C 0.68410 0.75985 0.66306
 C948 C 0.66841 0.76174 0.64628
 H949 H 0.56042 0.73999 0.59372
 H950 H 0.53783 0.73653 0.56038
 H951 H 0.58395 0.77794 0.52501
 H952 H 0.60669 0.78113 0.55805
 H953 H 0.62232 0.74759 0.67558
 H954 H 0.64985 0.74462 0.70517
 H955 H 0.70124 0.76343 0.65919
 H956 H 0.67399 0.76650 0.62997
 C957 C 0.08078 0.73158 0.91464
 C958 C 0.08056 0.74366 0.93451
 C959 C 0.06132 0.74467 0.94743
 C960 C 0.04197 0.73368 0.94065
 C961 C 0.04259 0.72070 0.92144
 C962 C 0.06173 0.71965 0.90860
 C963 C 0.10001 0.73248 0.89940
 N964 N 0.09845 0.72351 0.87891
 N965 N 0.11495 0.72545 0.86448
 C966 C 0.13379 0.73642 0.86988
 N967 N 0.13555 0.74517 0.89050
 N968 N 0.11896 0.74329 0.90495
 C969 C 0.15151 0.73933 0.85319
 C970 C 0.17281 0.74667 0.85913
 C971 C 0.18931 0.74929 0.84303
 C972 C 0.18469 0.74491 0.82067
 C973 C 0.16333 0.73776 0.81482
 C974 C 0.14703 0.73492 0.83085
 H975 H 0.09497 0.75297 0.93969
 H976 H 0.06125 0.75484 0.96216
 H977 H 0.02801 0.71176 0.91604
 H978 H 0.06135 0.70994 0.89358
 H979 H 0.17678 0.75020 0.87622
 H980 H 0.20560 0.75484 0.84806
 H981 H 0.15918 0.73412 0.79780
 H982 H 0.13079 0.72938 0.82563
 C983 C 0.58258 0.26728 0.41407
 C984 C 0.58305 0.25447 0.43345
 C985 C 0.56399 0.25215 0.44642
 C986 C 0.54411 0.26257 0.44026
 C987 C 0.54397 0.27622 0.42152
 C988 C 0.56296 0.27855 0.40858
 C989 C 0.60181 0.26782 0.39883
 N990 N 0.59985 0.27741 0.37867
 N991 N 0.61644 0.27668 0.36422
 C992 C 0.63575 0.26637 0.36928
 N993 N 0.63790 0.25703 0.38958
 N994 N 0.62123 0.25769 0.40404
 C995 C 0.65358 0.26464 0.35253
 C996 C 0.67506 0.25763 0.35824
 C997 C 0.69159 0.25582 0.34205
 C998 C 0.68681 0.26067 0.31984
 C999 C 0.66532 0.26764 0.31424
 C1000 C 0.64898 0.26970 0.33036
 H1001 H 0.59789 0.24561 0.43819
 H1002 H 0.56454 0.24144 0.46073
 H1003 H 0.52901 0.28480 0.41662
 H1004 H 0.56205 0.28877 0.39394
 H1005 H 0.67913 0.25365 0.37519
 H1006 H 0.70800 0.25045 0.34688
 H1007 H 0.66110 0.27173 0.29734
 H1008 H 0.63263 0.27507 0.32533
 C1009 C 0.91893 0.72664 0.08419
 C1010 C 0.91817 0.73645 0.06316
 C1011 C 0.93714 0.73705 0.04976
 C1012 C 0.95744 0.72823 0.05733
 C1013 C 0.95741 0.71689 0.07769
 C1014 C 0.93853 0.71613 0.09085
 C1015 C 0.90020 0.72853 0.09994
 N1016 N 0.90274 0.72156 0.12110
 N1017 N 0.88680 0.72455 0.13595
 C1018 C 0.86755 0.73468 0.13035
 N1019 N 0.86480 0.74144 0.10910
 N1020 N 0.88084 0.73850 0.09421
 C1021 C 0.85034 0.73862 0.14736
 C1022 C 0.82873 0.74503 0.14154
 C1023 C 0.81260 0.74826 0.15786
 C1024 C 0.81783 0.74537 0.18034
 C1025 C 0.83956 0.73936 0.18609
 C1026 C 0.85555 0.73593 0.16983
 H1027 H 0.90323 0.74452 0.05742
 H1028 H 0.93615 0.74599 0.03432
 H1029 H 0.97205 0.70846 0.08368
 H1030 H 0.93958 0.70779 0.10663
 H1031 H 0.82421 0.74726 0.12438
 H1032 H 0.79602 0.75294 0.15287
 H1033 H 0.84419 0.73692 0.20320
 H1034 H 0.87207 0.73118 0.17495
 C1035 C 0.42359 0.26172 0.58560
 C1036 C 0.44320 0.27266 0.59173
 C1037 C 0.46211 0.27125 0.57856
 C1038 C 0.46191 0.25882 0.55897
 C1039 C 0.44204 0.24879 0.55222
 C1040 C 0.42305 0.25022 0.56541
 C1041 C 0.40445 0.26122 0.60093
 N1042 N 0.38490 0.25178 0.59498
 N1043 N 0.36825 0.25024 0.60937
 C1044 C 0.37052 0.25796 0.63034
 N1045 N 0.38998 0.26755 0.63618
 N1046 N 0.40656 0.26916 0.62180
 C1047 C 0.35254 0.25545 0.64681
 C1048 C 0.35694 0.25914 0.66930
 C1049 C 0.34029 0.25665 0.68506
 C1050 C 0.31873 0.25057 0.67876
 C1051 C 0.31424 0.24692 0.65625
 C1052 C 0.33103 0.24920 0.64044
 H1053 H 0.44415 0.28192 0.60702
 H1054 H 0.47707 0.27952 0.58395
 H1055 H 0.44144 0.23902 0.53723
 H1056 H 0.40821 0.24165 0.56017
 H1057 H 0.37332 0.26387 0.67483
 H1058 H 0.34433 0.25977 0.70222
 H1059 H 0.29779 0.24225 0.65086
 H1060 H 0.32711 0.24626 0.62323
 C1061 C 0.91585 0.26950 0.92121
 C1062 C 0.90985 0.28020 0.94087
 C1063 C 0.92349 0.27923 0.95941
 C1064 C 0.94366 0.26737 0.95905
 C1065 C 0.95038 0.25802 0.93872
 C1066 C 0.93657 0.25896 0.92011
 C1067 C 0.89989 0.26842 0.90259
 N1068 N 0.90552 0.25916 0.88290
 N1069 N 0.89061 0.25722 0.86674
 C1070 C 0.86944 0.26433 0.86965
 N1071 N 0.86390 0.27369 0.88927
 N1072 N 0.87878 0.27569 0.90535
 C1073 C 0.85251 0.26157 0.85210
 C1074 C 0.82998 0.26511 0.85685
 C1075 C 0.81386 0.26237 0.84052
 C1076 C 0.81988 0.25621 0.81896
 C1077 C 0.84242 0.25270 0.81416
 C1078 C 0.85855 0.25524 0.83058
 H1079 H 0.89430 0.28904 0.94217
 H1080 H 0.91809 0.28805 0.97400
 H1081 H 0.96553 0.24855 0.93738
 H1082 H 0.94178 0.25066 0.90513
 H1083 H 0.82470 0.26990 0.87327
 H1084 H 0.79668 0.26528 0.84478
 H1085 H 0.84762 0.24786 0.79773
 H1086 H 0.87575 0.25239 0.82637
 C1087 C 0.41078 0.76317 0.42297
 C1088 C 0.40584 0.77386 0.44300
 C1089 C 0.41980 0.77159 0.46122
 C1090 C 0.43899 0.75851 0.45991
 C1091 C 0.44463 0.74882 0.43957
 C1092 C 0.43065 0.75113 0.42126
 C1093 C 0.39455 0.76348 0.40459
 N1094 N 0.39959 0.75467 0.38456
 N1095 N 0.38446 0.75384 0.36854
 C1096 C 0.36362 0.76166 0.37192
 N1097 N 0.35866 0.77060 0.39189
 N1098 N 0.37379 0.77150 0.40786
 C1099 C 0.34648 0.75999 0.35448
 C1100 C 0.32409 0.76404 0.35947
 C1101 C 0.30781 0.76209 0.34318
 C1102 C 0.31355 0.75624 0.32146
 C1103 C 0.33595 0.75229 0.31642
 C1104 C 0.35222 0.75405 0.33277
 H1105 H 0.39086 0.78353 0.44482
 H1106 H 0.41529 0.77963 0.47656
 H1107 H 0.45927 0.73858 0.43812
 H1108 H 0.43499 0.74276 0.40605
 H1109 H 0.31907 0.76856 0.37604
 H1110 H 0.29073 0.76533 0.34761
 H1111 H 0.34095 0.74770 0.29986
 H1112 H 0.36931 0.75083 0.32836
 C1113 C 0.08750 0.07668 0.24145
 C1114 C 0.06778 0.07607 0.25375
 C1115 C 0.05379 0.05757 0.25277
 C1116 C 0.05924 0.03910 0.23947
 C1117 C 0.07866 0.04050 0.22650
 C1118 C 0.09252 0.05883 0.22758
 C1119 C 0.10335 0.09531 0.24327
 N1120 N 0.12427 0.09298 0.23537
 N1121 N 0.13888 0.10931 0.23706
 C1122 C 0.13326 0.12877 0.24666
 N1123 N 0.11229 0.13123 0.25453
 N1124 N 0.09763 0.11478 0.25293
 C1125 C 0.14990 0.14669 0.24842
 C1126 C 0.14368 0.16858 0.25315
 C1127 C 0.15966 0.18538 0.25391
 C1128 C 0.18217 0.18053 0.25024
 C1129 C 0.18831 0.15856 0.24589
 C1130 C 0.17241 0.14192 0.24491
 H1131 H 0.06346 0.08961 0.26463
 H1132 H 0.03943 0.05752 0.26342
 H1133 H 0.08312 0.02769 0.21485
 H1134 H 0.10728 0.05894 0.21741
 H1135 H 0.12647 0.17279 0.25589
 H1136 H 0.15439 0.20214 0.25734
 H1137 H 0.20545 0.15419 0.24289
 H1138 H 0.17783 0.12523 0.24135
 C1139 C 0.58787 0.57530 0.74759
 C1140 C 0.57068 0.57239 0.76300
 C1141 C 0.55744 0.55336 0.76240
 C1142 C 0.56111 0.53700 0.74628
 C1143 C 0.57780 0.54039 0.73047
 C1144 C 0.59106 0.55920 0.73118
 C1145 C 0.60305 0.59448 0.74882
 N1146 N 0.62269 0.59393 0.73792
 N1147 N 0.63677 0.61077 0.73916
 C1148 C 0.63181 0.62897 0.75128
 N1149 N 0.61209 0.62965 0.76212
 N1150 N 0.59801 0.61269 0.76098
 C1151 C 0.64786 0.64741 0.75268
 C1152 C 0.64130 0.66865 0.75946
 C1153 C 0.65666 0.68601 0.76004
 C1154 C 0.67891 0.68232 0.75419
 C1155 C 0.68543 0.66099 0.74772
 C1156 C 0.67010 0.64381 0.74686
 H1157 H 0.56784 0.58450 0.77587
 H1158 H 0.54479 0.55118 0.77488
 H1159 H 0.58068 0.52839 0.71750
 H1160 H 0.60393 0.56105 0.71885
 H1161 H 0.62426 0.67193 0.76399
 H1162 H 0.65115 0.70226 0.76511
 H1163 H 0.70239 0.65758 0.74296
 H1164 H 0.67574 0.62764 0.74167
 C1165 C 0.92501 0.08719 0.77000
 C1166 C 0.92347 0.06601 0.76065
 C1167 C 0.94175 0.05173 0.76072
 C1168 C 0.96221 0.05835 0.76998
 C1169 C 0.96301 0.07913 0.78060
 C1170 C 0.94479 0.09329 0.78052
 C1171 C 0.90666 0.10338 0.76796
 N1172 N 0.90986 0.12482 0.77377
 N1173 N 0.89390 0.13973 0.77106
 C1174 C 0.87399 0.13389 0.76242
 N1175 N 0.87068 0.11241 0.75673
 N1176 N 0.88671 0.09748 0.75938
 C1177 C 0.85642 0.15072 0.75918
 C1178 C 0.83468 0.14448 0.75370
 C1179 C 0.81809 0.16044 0.75118
 C1180 C 0.82293 0.18301 0.75390
 C1181 C 0.84477 0.18924 0.75901
 C1182 C 0.86127 0.17330 0.76169
 H1183 H 0.90840 0.06073 0.75250
 H1184 H 0.94007 0.03617 0.75208
 H1185 H 0.97766 0.08463 0.78930
 H1186 H 0.94639 0.10925 0.78846
 H1187 H 0.83038 0.12724 0.75164
 H1188 H 0.80145 0.15506 0.74723
 H1189 H 0.84907 0.20646 0.76133
 H1190 H 0.87787 0.17872 0.76580
 C1191 C 0.41851 0.58898 0.24628
 C1192 C 0.43633 0.59262 0.23182
 C1193 C 0.45499 0.57912 0.23247
 C1194 C 0.45642 0.56168 0.24768
 C1195 C 0.43825 0.55730 0.26150
 C1196 C 0.41942 0.57085 0.26081
 C1197 C 0.39981 0.60483 0.24680
 N1198 N 0.38089 0.60039 0.25812
 N1199 N 0.36455 0.61521 0.25906
 C1200 C 0.36657 0.63511 0.24886
 N1201 N 0.38546 0.63946 0.23752
 N1202 N 0.40169 0.62464 0.23649
 C1203 C 0.34885 0.65197 0.25023
 C1204 C 0.35341 0.67401 0.24457
 C1205 C 0.33688 0.69008 0.24573
 C1206 C 0.31530 0.68446 0.25234
 C1207 C 0.31069 0.66240 0.25800
 C1208 C 0.32735 0.64634 0.25710
 H1209 H 0.43607 0.60620 0.22019
 H1210 H 0.46857 0.58257 0.22129
 H1211 H 0.43895 0.54398 0.27341
 H1212 H 0.40593 0.56759 0.27213
 H1213 H 0.36983 0.67894 0.23933
 H1214 H 0.34098 0.70689 0.24119
 H1215 H 0.29424 0.65757 0.26325
 H1216 H 0.32332 0.62949 0.26155
 C1217 C 0.07303 0.90631 0.76273
 C1218 C 0.07533 0.92887 0.75788
 C1219 C 0.05677 0.94278 0.75733
 C1220 C 0.03525 0.93446 0.76140
 C1221 C 0.03336 0.91195 0.76724
 C1222 C 0.05188 0.89817 0.76786
 C1223 C 0.09224 0.89101 0.76172
 N1224 N 0.08920 0.86899 0.76465
 N1225 N 0.10608 0.85496 0.76296
 C1226 C 0.12681 0.86228 0.75825
 N1227 N 0.12995 0.88434 0.75545
 N1228 N 0.11301 0.89841 0.75711
 C1229 C 0.14536 0.84631 0.75604
 C1230 C 0.16738 0.85343 0.75336
 C1231 C 0.18469 0.83806 0.75163
 C1232 C 0.18029 0.81524 0.75243
 C1233 C 0.15822 0.80823 0.75484
 C1234 C 0.14104 0.82351 0.75666
 H1235 H 0.09141 0.93572 0.75389
 H1236 H 0.05938 0.95973 0.75233
 H1237 H 0.01764 0.90477 0.77188
 H1238 H 0.04949 0.88098 0.77216
 H1239 H 0.17129 0.87088 0.75280
 H1240 H 0.20149 0.84404 0.74982
 H1241 H 0.15412 0.79083 0.75558
 H1242 H 0.12431 0.81736 0.75860
 C1243 C 0.57897 0.41748 0.26586
 C1244 C 0.57900 0.43753 0.25415
 C1245 C 0.55965 0.45014 0.25244
 C1246 C 0.53989 0.44295 0.26240
 C1247 C 0.54016 0.42352 0.27503
 C1248 C 0.55946 0.41093 0.27675
 C1249 C 0.59853 0.40266 0.26550
 N1250 N 0.59713 0.38204 0.27414
 N1251 N 0.61397 0.36797 0.27245
 C1252 C 0.63299 0.37386 0.26205
 N1253 N 0.63459 0.39462 0.25367
 N1254 N 0.61767 0.40871 0.25531
 C1255 C 0.65105 0.35752 0.25918
 C1256 C 0.67231 0.36385 0.25205
 C1257 C 0.68907 0.34801 0.24933
 C1258 C 0.68473 0.32555 0.25338
 C1259 C 0.66341 0.31935 0.26037
 C1260 C 0.64687 0.33509 0.26332
 H1261 H 0.59374 0.44310 0.24561
 H1262 H 0.55989 0.46498 0.24248
 H1263 H 0.52527 0.41779 0.28321
 H1264 H 0.55888 0.39573 0.28613
 H1265 H 0.67604 0.38102 0.24874
 H1266 H 0.70535 0.35331 0.24400
 H1267 H 0.65949 0.30225 0.26388
 H1268 H 0.63069 0.32957 0.26872
 C1269 C 0.91293 0.92231 0.26327
 C1270 C 0.90621 0.94211 0.27331
 C1271 C 0.91912 0.96113 0.27164
 C1272 C 0.93928 0.96110 0.25979
 C1273 C 0.94667 0.94073 0.25100
 C1274 C 0.93360 0.92167 0.25261
 C1275 C 0.89776 0.90302 0.26299
 N1276 N 0.90385 0.88347 0.25370
 N1277 N 0.88954 0.86672 0.25238
 C1278 C 0.86853 0.86888 0.26019
 N1279 N 0.86257 0.88834 0.26963
 N1280 N 0.87685 0.90501 0.27100
 C1281 C 0.85207 0.85082 0.25794
 C1282 C 0.82956 0.85507 0.26210
 C1283 C 0.81377 0.83844 0.25976
 C1284 C 0.82001 0.81700 0.25337
 C1285 C 0.84254 0.81263 0.24929
 C1286 C 0.85840 0.82941 0.25144
 H1287 H 0.89066 0.94313 0.28216
 H1288 H 0.91319 0.97579 0.27999
 H1289 H 0.96179 0.93962 0.24147
 H1290 H 0.93934 0.90664 0.24478
 H1291 H 0.82403 0.87136 0.26704
 H1292 H 0.79660 0.84241 0.26317
 H1293 H 0.84790 0.79629 0.24432
 H1294 H 0.87561 0.82560 0.24811
 C1295 C 0.41294 0.41829 0.76272
 C1296 C 0.40866 0.43667 0.77625
 C1297 C 0.42237 0.45521 0.77550
 C1298 C 0.44061 0.45591 0.76109
 C1299 C 0.44560 0.43710 0.74840
 C1300 C 0.43192 0.41845 0.74923
 C1301 C 0.39693 0.39974 0.76176
 N1302 N 0.40191 0.38071 0.75093
 N1303 N 0.38701 0.36456 0.74919
 C1304 C 0.36645 0.36683 0.75807
 N1305 N 0.36153 0.38581 0.76898
 N1306 N 0.37645 0.40190 0.77080
 C1307 C 0.34959 0.34921 0.75562
 C1308 C 0.32720 0.35351 0.76043
 C1309 C 0.31122 0.33699 0.75804
 C1310 C 0.31727 0.31570 0.75101
 C1311 C 0.33965 0.31138 0.74619
 C1312 C 0.35561 0.32798 0.74835
 H1313 H 0.39439 0.43698 0.78709
 H1314 H 0.41837 0.46927 0.78584
 H1315 H 0.45945 0.43719 0.73704
 H1316 H 0.43572 0.40454 0.73864
 H1317 H 0.32197 0.36971 0.76595
 H1318 H 0.29414 0.34084 0.76197
 H1319 H 0.34485 0.29517 0.74065
 H1320 H 0.37270 0.32412 0.74451
 C1321 C 0.08654 0.23149 0.91767
 C1322 C 0.09155 0.21970 0.93704
 C1323 C 0.07867 0.22232 0.95602
 C1324 C 0.06052 0.23686 0.95613
 C1325 C 0.05468 0.24763 0.93641
 C1326 C 0.06755 0.24496 0.91736
 C1327 C 0.10200 0.23097 0.89862
 N1328 N 0.09678 0.24095 0.87920
 N1329 N 0.11142 0.24180 0.86272
 C1330 C 0.13194 0.23283 0.86504
 N1331 N 0.13704 0.22267 0.88437
 N1332 N 0.12240 0.22174 0.90078
 C1333 C 0.14878 0.23484 0.84733
 C1334 C 0.17118 0.23043 0.85189
 C1335 C 0.18729 0.23299 0.83556
 C1336 C 0.18141 0.23981 0.81416
 C1337 C 0.15897 0.24394 0.80945
 C1338 C 0.14284 0.24162 0.82591
 H1339 H 0.10585 0.20892 0.93779
 H1340 H 0.08330 0.21344 0.97085
 H1341 H 0.04084 0.25902 0.93604
 H1342 H 0.06317 0.25422 0.90270
 H1343 H 0.17637 0.22524 0.86820
 H1344 H 0.20439 0.22946 0.83970
 H1345 H 0.15389 0.24916 0.79311
 H1346 H 0.12571 0.24510 0.82185
 C1347 C 0.58796 0.73637 0.42188
 C1348 C 0.59343 0.72533 0.44156
 C1349 C 0.57971 0.72683 0.46005
 C1350 C 0.56020 0.73949 0.45939
 C1351 C 0.55411 0.74965 0.43942
 C1352 C 0.56785 0.74810 0.42083
 C1353 C 0.60380 0.73661 0.40313
 N1354 N 0.59823 0.74567 0.38335
 N1355 N 0.61299 0.74684 0.36699
 C1356 C 0.63395 0.73912 0.36978
 N1357 N 0.63944 0.72994 0.38949
 N1358 N 0.62469 0.72870 0.40579
 C1359 C 0.65074 0.74112 0.35199
 C1360 C 0.67324 0.73727 0.35659
 C1361 C 0.68923 0.73945 0.34007
 C1362 C 0.68313 0.74536 0.31845
 C1363 C 0.66060 0.74908 0.31378
 C1364 C 0.64460 0.74710 0.33040
 H1365 H 0.60861 0.71589 0.44288
 H1366 H 0.58461 0.71844 0.47507
 H1367 H 0.53923 0.75960 0.43845
 H1368 H 0.56309 0.75674 0.40592
 H1369 H 0.67859 0.73270 0.37303
 H1370 H 0.70640 0.73629 0.34423
 H1371 H 0.65533 0.75361 0.29729
 H1372 H 0.62740 0.75014 0.32630
 C1373 C 0.92301 0.75035 0.91022
 C1374 C 0.92307 0.75926 0.93165
 C1375 C 0.94192 0.75744 0.94512
 C1376 C 0.96126 0.74661 0.93746
 C1377 C 0.96053 0.73718 0.91610
 C1378 C 0.94190 0.73916 0.90277
 C1379 C 0.90375 0.75268 0.89523
 N1380 N 0.90635 0.74880 0.87331
 N1381 N 0.88932 0.75037 0.85951
 C1382 C 0.86885 0.75583 0.86697
 N1383 N 0.86615 0.75980 0.88893
 N1384 N 0.88330 0.75831 0.90280
 C1385 C 0.85008 0.75697 0.85121
 C1386 C 0.82796 0.75801 0.85844
 C1387 C 0.81051 0.75784 0.84311
 C1388 C 0.81492 0.75675 0.82030
 C1389 C 0.83708 0.75621 0.81320
 C1390 C 0.85437 0.75628 0.82841
 H1391 H 0.90872 0.76806 0.93783
 H1392 H 0.94140 0.76543 0.96108
 H1393 H 0.97404 0.72737 0.90964
 H1394 H 0.94227 0.73158 0.88656
 H1395 H 0.82412 0.75855 0.87590
 H1396 H 0.79363 0.75839 0.84913
 H1397 H 0.84119 0.75547 0.79580
 H1398 H 0.87118 0.75565 0.82219
 C1399 C 0.42557 0.24165 0.41101
 C1400 C 0.42447 0.25274 0.43141
 C1401 C 0.44321 0.25424 0.44498
 C1402 C 0.46340 0.24467 0.43843
 C1403 C 0.46418 0.23274 0.41853
 C1404 C 0.44553 0.23128 0.40498
 C1405 C 0.40655 0.24179 0.39548
 N1406 N 0.40910 0.23422 0.37452
 N1407 N 0.39252 0.23526 0.36008
 C1408 C 0.37260 0.24388 0.36593
 N1409 N 0.36991 0.25128 0.38697
 N1410 N 0.38657 0.25031 0.40143
 C1411 C 0.35450 0.24552 0.34944
 C1412 C 0.33269 0.25074 0.35577
 C1413 C 0.31577 0.25201 0.33994
 C1414 C 0.32039 0.24833 0.31746
 C1415 C 0.34226 0.24337 0.31120
 C1416 C 0.35904 0.24189 0.32696
 H1417 H 0.40936 0.26088 0.43659
 H1418 H 0.44215 0.26365 0.46017
 H1419 H 0.47937 0.22481 0.41324
 H1420 H 0.44692 0.22235 0.38954
 H1421 H 0.32864 0.25364 0.37295
 H1422 H 0.29911 0.25593 0.34531
 H1423 H 0.34645 0.24034 0.29406
 H1424 H 0.37565 0.23796 0.32144
 C1425 C 0.07570 0.74063 0.08824
 C1426 C 0.06003 0.72365 0.09050
 C1427 C 0.04167 0.72267 0.07664
 C1428 C 0.03834 0.73875 0.06026
 C1429 C 0.05440 0.75530 0.05734
 C1430 C 0.07299 0.75621 0.07121
 C1431 C 0.09406 0.74236 0.10434
 N1432 N 0.11209 0.75521 0.10037
 N1433 N 0.12825 0.75688 0.11531
 C1434 C 0.12691 0.74591 0.13486
 N1435 N 0.10889 0.73312 0.13876
 N1436 N 0.09285 0.73135 0.12382
 C1437 C 0.14447 0.74782 0.15178
 C1438 C 0.13999 0.74182 0.17375
 C1439 C 0.15645 0.74313 0.18984
 C1440 C 0.17790 0.75020 0.18432
 C1441 C 0.18244 0.75629 0.16236
 C1442 C 0.16581 0.75527 0.14626
 H1443 H 0.06179 0.71118 0.10320
 H1444 H 0.02985 0.70940 0.07891
 H1445 H 0.05223 0.76793 0.04487
 H1446 H 0.08481 0.76948 0.06907
 H1447 H 0.12368 0.73615 0.17857
 H1448 H 0.15243 0.73827 0.20659
 H1449 H 0.19879 0.76192 0.15765
 H1450 H 0.16976 0.75997 0.12946
 C1451 C 0.58031 0.23741 0.58712
 C1452 C 0.56054 0.22635 0.59245
 C1453 C 0.54196 0.22815 0.57884
 C1454 C 0.54263 0.24111 0.55961
 C1455 C 0.56269 0.25130 0.55368
 C1456 C 0.58135 0.24946 0.56729
 C1457 C 0.59914 0.23736 0.60287
 N1458 N 0.61898 0.24647 0.59742
 N1459 N 0.63542 0.24741 0.61212
 C1460 C 0.63264 0.23941 0.63291
 N1461 N 0.61287 0.23018 0.63826
 N1462 N 0.59650 0.22916 0.62357
 C1463 C 0.65049 0.24117 0.64966
 C1464 C 0.64584 0.23710 0.67204
 C1465 C 0.66240 0.23902 0.68801
 C1466 C 0.68411 0.24486 0.68202
 C1467 C 0.68884 0.24885 0.65962
 C1468 C 0.67217 0.24714 0.64362
 H1469 H 0.55922 0.21667 0.60742
 H1470 H 0.52687 0.21973 0.58361
 H1471 H 0.56366 0.26150 0.53902
 H1472 H 0.59633 0.25813 0.56266
 H1473 H 0.62932 0.23257 0.67731
 H1474 H 0.65818 0.23573 0.70509
 H1475 H 0.70539 0.25345 0.65446
 H1476 H 0.67630 0.25039 0.62652
 C1477 C 0.91609 0.25923 0.07767
 C1478 C 0.91459 0.27639 0.06216
 C1479 C 0.92838 0.27672 0.04373
 C1480 C 0.94390 0.25980 0.04018
 C1481 C 0.94624 0.24316 0.05619
 C1482 C 0.93244 0.24290 0.07484
 C1483 C 0.89979 0.25804 0.09592
 N1484 N 0.90318 0.24491 0.11380
 N1485 N 0.88805 0.24371 0.12983
 C1486 C 0.86886 0.25542 0.12848
 N1487 N 0.86553 0.26849 0.11059
 N1488 N 0.88067 0.26979 0.09469
 C1489 C 0.85184 0.25416 0.14603
 C1490 C 0.83006 0.26119 0.14172
 C1491 C 0.81400 0.26069 0.15829
 C1492 C 0.81939 0.25344 0.17965
 C1493 C 0.84112 0.24620 0.18395
 C1494 C 0.85715 0.24640 0.16724
 H1495 H 0.90245 0.28944 0.06403
 H1496 H 0.92656 0.29003 0.03191
 H1497 H 0.95804 0.22989 0.05384
 H1498 H 0.93402 0.22949 0.08656
 H1499 H 0.82539 0.26712 0.12550
 H1500 H 0.79743 0.26641 0.15446
 H1501 H 0.84574 0.24037 0.20022
 H1502 H 0.87378 0.24089 0.17106
 C1503 C 0.41235 0.73463 0.57740
 C1504 C 0.43261 0.74607 0.57840
 C1505 C 0.44609 0.74779 0.55967
 C1506 C 0.43958 0.73809 0.53959
 C1507 C 0.41996 0.72564 0.53895
 C1508 C 0.40649 0.72395 0.55761
 C1509 C 0.39671 0.73495 0.59628
 N1510 N 0.37576 0.72717 0.59381
 N1511 N 0.36113 0.72866 0.61020
 C1512 C 0.36681 0.73798 0.62980
 N1513 N 0.38784 0.74556 0.63240
 N1514 N 0.40247 0.74413 0.61596
 C1515 C 0.35015 0.74034 0.64764
 C1516 C 0.35644 0.74680 0.66907
 C1517 C 0.34055 0.74909 0.68576
 C1518 C 0.31802 0.74520 0.68131
 C1519 C 0.31176 0.73886 0.65985
 C1520 C 0.32763 0.73638 0.64327
 H1521 H 0.43766 0.75443 0.59340
 H1522 H 0.46107 0.75759 0.56061
 H1523 H 0.41474 0.71762 0.52382
 H1524 H 0.39118 0.71474 0.55632
 H1525 H 0.37365 0.74995 0.67299
 H1526 H 0.34593 0.75395 0.70212
 H1527 H 0.29458 0.73555 0.65588
 H1528 H 0.32217 0.73146 0.62695
 C1529 C 0.25821 0.08768 0.92274
 C1530 C 0.24671 0.06752 0.92345
 C1531 C 0.24751 0.05417 0.94240
 C1532 C 0.25979 0.06074 0.96122
 C1533 C 0.27193 0.08064 0.95978
 C1534 C 0.27105 0.09384 0.94102
 C1535 C 0.25666 0.10282 0.90356
 N1536 N 0.26399 0.12391 0.90553
 N1537 N 0.26260 0.13792 0.88872
 C1538 C 0.25387 0.13152 0.86909
 N1539 N 0.24656 0.11036 0.86698
 N1540 N 0.24786 0.09629 0.88392
 C1541 C 0.25240 0.14759 0.85069
 C1542 C 0.24836 0.14083 0.82882
 C1543 C 0.24781 0.15638 0.81164
 C1544 C 0.25108 0.17897 0.81610
 C1545 C 0.25478 0.18562 0.83804
 C1546 C 0.25551 0.17017 0.85504
 H1547 H 0.23662 0.06232 0.90960
 H1548 H 0.23753 0.03935 0.94247
 H1549 H 0.28284 0.08599 0.97292
 H1550 H 0.28060 0.10897 0.94089
 H1551 H 0.24592 0.12354 0.82494
 H1552 H 0.24481 0.15073 0.79493
 H1553 H 0.25735 0.20285 0.84215
 H1554 H 0.25851 0.17603 0.87168
 C1555 C 0.75574 0.59105 0.42613
 C1556 C 0.77059 0.59548 0.44344
 C1557 C 0.77112 0.58215 0.46215
 C1558 C 0.75669 0.56408 0.46425
 C1559 C 0.74214 0.55922 0.44675
 C1560 C 0.74169 0.57258 0.42782
 C1561 C 0.75479 0.60619 0.40691
 N1562 N 0.74377 0.60075 0.38807
 N1563 N 0.74295 0.61480 0.37109
 C1564 C 0.75301 0.63487 0.37236
 N1565 N 0.76398 0.64020 0.39118
 N1566 N 0.76488 0.62618 0.40804
 C1567 C 0.75197 0.65096 0.35395
 C1568 C 0.75762 0.67312 0.35786
 C1569 C 0.75706 0.68856 0.34083
 C1570 C 0.75104 0.68227 0.31931
 C1571 C 0.74536 0.66009 0.31527
 C1572 C 0.74568 0.64458 0.33249
 H1573 H 0.78188 0.60935 0.44260
 H1574 H 0.78295 0.58600 0.47504
 H1575 H 0.73080 0.54542 0.44791
 H1576 H 0.73005 0.56874 0.41477
 H1577 H 0.76241 0.67866 0.37419
 H1578 H 0.76159 0.70546 0.34457
 H1579 H 0.74054 0.65476 0.29888
 H1580 H 0.74127 0.62761 0.32896
 C1581 C 0.72973 0.08354 0.08911
 C1582 C 0.73867 0.08396 0.06767
 C1583 C 0.73901 0.06478 0.05464
 C1584 C 0.73076 0.04456 0.06292
 C1585 C 0.72047 0.04482 0.08387
 C1586 C 0.72000 0.06392 0.09668
 C1587 C 0.73155 0.10278 0.10422
 N1588 N 0.72516 0.10079 0.12562
 N1589 N 0.72791 0.11733 0.13982
 C1590 C 0.73719 0.13666 0.13330
 N1591 N 0.74339 0.13884 0.11181
 N1592 N 0.74069 0.12220 0.09756
 C1593 C 0.74081 0.15459 0.14962
 C1594 C 0.74662 0.17608 0.14300
 C1595 C 0.74961 0.19284 0.15873
 C1596 C 0.74705 0.18835 0.18140
 C1597 C 0.74157 0.16676 0.18794
 C1598 C 0.73841 0.15017 0.17228
 H1599 H 0.74616 0.09888 0.06124
 H1600 H 0.74722 0.06560 0.03877
 H1601 H 0.71254 0.03025 0.09053
 H1602 H 0.71238 0.06308 0.11286
 H1603 H 0.74862 0.18002 0.12566
 H1604 H 0.75386 0.20928 0.15315
 H1605 H 0.73939 0.16267 0.20521
 H1606 H 0.73410 0.13379 0.17803
 C1607 C 0.24479 0.57539 0.58962
 C1608 C 0.25940 0.57350 0.57160
 C1609 C 0.25873 0.55484 0.55784
 C1610 C 0.24339 0.53784 0.56186
 C1611 C 0.22832 0.54023 0.57938
 C1612 C 0.22907 0.55866 0.59312
 C1613 C 0.24609 0.59415 0.60531
 N1614 N 0.23582 0.59277 0.62520
 N1615 N 0.23704 0.60924 0.63969
 C1616 C 0.24851 0.62790 0.63492
 N1617 N 0.25875 0.62940 0.61496
 N1618 N 0.25763 0.61281 0.60046
 C1619 C 0.24978 0.64597 0.65138
 C1620 C 0.25632 0.66742 0.64534
 C1621 C 0.25677 0.68441 0.66107
 C1622 C 0.25098 0.68017 0.68318
 C1623 C 0.24477 0.65864 0.68920
 C1624 C 0.24406 0.64181 0.67349
 H1625 H 0.27170 0.58614 0.56848
 H1626 H 0.27058 0.55345 0.54448
 H1627 H 0.21590 0.52771 0.58256
 H1628 H 0.21733 0.55971 0.60660
 H1629 H 0.26080 0.67113 0.62843
 H1630 H 0.26175 0.70082 0.65597
 H1631 H 0.24015 0.65481 0.70605
 H1632 H 0.23907 0.62546 0.67876
 C1633 C 0.73109 0.92339 0.91748
 C1634 C 0.71824 0.94211 0.91250
 C1635 C 0.71897 0.96078 0.92599
 C1636 C 0.73261 0.96126 0.94478
 C1637 C 0.74454 0.94217 0.95052
 C1638 C 0.74379 0.92339 0.93698
 C1639 C 0.73215 0.90472 0.90163
 N1640 N 0.74285 0.88562 0.90673
 N1641 N 0.74465 0.86941 0.89188
 C1642 C 0.73596 0.87171 0.87129
 N1643 N 0.72518 0.89074 0.86628
 N1644 N 0.72331 0.90686 0.88111
 C1645 C 0.73845 0.85414 0.85438
 C1646 C 0.73375 0.85870 0.83210
 C1647 C 0.73593 0.84233 0.81601
 C1648 C 0.74267 0.82088 0.82178
 C1649 C 0.74746 0.81627 0.84405
 C1650 C 0.74550 0.83277 0.86017
 H1651 H 0.70800 0.94260 0.89782
 H1652 H 0.70924 0.97510 0.92141
 H1653 H 0.75524 0.94213 0.96488
 H1654 H 0.75382 0.90922 0.94135
 H1655 H 0.72842 0.87501 0.82702
 H1656 H 0.73202 0.84645 0.79904
 H1657 H 0.75276 0.79992 0.84904
 H1658 H 0.74926 0.82872 0.87718
 C1659 C 0.24605 0.42297 0.41026
 C1660 C 0.23062 0.43988 0.40631
 C1661 C 0.22973 0.45839 0.41995
 C1662 C 0.24439 0.46070 0.43783
 C1663 C 0.25948 0.44354 0.44225
 C1664 C 0.26028 0.42481 0.42859
 C1665 C 0.24744 0.40406 0.39475
 N1666 N 0.25858 0.38524 0.39999
 N1667 N 0.25972 0.36849 0.38567
 C1668 C 0.24991 0.36998 0.36549
 N1669 N 0.23884 0.38879 0.36033
 N1670 N 0.23759 0.40541 0.37464
 C1671 C 0.25119 0.35174 0.34919
 C1672 C 0.24592 0.35584 0.32696
 C1673 C 0.24655 0.33889 0.31139
 C1674 C 0.25224 0.31726 0.31762
 C1675 C 0.25761 0.31308 0.33985
 C1676 C 0.25723 0.33020 0.35547
 H1677 H 0.21917 0.43889 0.39257
 H1678 H 0.21748 0.47099 0.41644
 H1679 H 0.27102 0.44486 0.45588
 H1680 H 0.27236 0.41205 0.43206
 H1681 H 0.24133 0.37224 0.32149
 H1682 H 0.24228 0.34274 0.29445
 H1683 H 0.26218 0.29661 0.34515
 H1684 H 0.26135 0.32652 0.37249
 C1685 C 0.25308 0.91044 0.07662
 C1686 C 0.23900 0.92888 0.07467
 C1687 C 0.24031 0.94271 0.05610
 C1688 C 0.25577 0.93833 0.03927
 C1689 C 0.27037 0.92043 0.04181
 C1690 C 0.26897 0.90663 0.06012
 C1691 C 0.25107 0.89465 0.09520
 N1692 N 0.26047 0.87434 0.09360
 N1693 N 0.25877 0.85983 0.10998
 C1694 C 0.24765 0.86497 0.12876
 N1695 N 0.23823 0.88532 0.13046
 N1696 N 0.23983 0.89985 0.11396
 C1697 C 0.24612 0.84861 0.14689
 C1698 C 0.24012 0.85497 0.16841
 C1699 C 0.23974 0.83943 0.18554
 C1700 C 0.24508 0.81717 0.18140
 C1701 C 0.25061 0.81080 0.15978
 C1702 C 0.25124 0.82633 0.14278
 H1703 H 0.22660 0.93226 0.08715
 H1704 H 0.22884 0.95638 0.05460
 H1705 H 0.28289 0.91697 0.02945
 H1706 H 0.28035 0.89284 0.06126
 H1707 H 0.23610 0.87201 0.17210
 H1708 H 0.23526 0.84484 0.20200
 H1709 H 0.25481 0.79382 0.15599
 H1710 H 0.25578 0.82082 0.12637
 C1711 C 0.75698 0.41005 0.57625
 C1712 C 0.74234 0.42808 0.57454
 C1713 C 0.74372 0.44263 0.55656
 C1714 C 0.75983 0.43943 0.54008
 C1715 C 0.77497 0.42195 0.54240
 C1716 C 0.77349 0.40740 0.56014
 C1717 C 0.75494 0.39358 0.59422
 N1718 N 0.76491 0.37357 0.59223
 N1719 N 0.76325 0.35853 0.60815
 C1720 C 0.75160 0.36285 0.62683
 N1721 N 0.74160 0.38289 0.62889
 N1722 N 0.74316 0.39793 0.61286
 C1723 C 0.75027 0.34608 0.64459
 C1724 C 0.74373 0.35195 0.66608
 C1725 C 0.74363 0.33620 0.68299
 C1726 C 0.74981 0.31420 0.67869
 C1727 C 0.75582 0.30825 0.65707
 C1728 C 0.75617 0.32403 0.64026
 H1729 H 0.72945 0.43057 0.58674
 H1730 H 0.73179 0.45592 0.55519
 H1731 H 0.78796 0.41937 0.53032
 H1732 H 0.78528 0.39395 0.56113
 H1733 H 0.73910 0.36880 0.66995
 H1734 H 0.73876 0.34128 0.69945
 H1735 H 0.76066 0.29146 0.65319
 H1736 H 0.76116 0.31892 0.62385
 C1737 C 0.08280 0.08008 0.76328
 C1738 C 0.06726 0.08251 0.78039
 C1739 C 0.04799 0.06988 0.78065
 C1740 C 0.04370 0.05454 0.76380
 C1741 C 0.05967 0.05123 0.74723
 C1742 C 0.07909 0.06391 0.74697
 C1743 C 0.10183 0.09544 0.76193
 N1744 N 0.11878 0.09203 0.74753
 N1745 N 0.13516 0.10671 0.74573
 C1746 C 0.13512 0.12544 0.75814
 N1747 N 0.11827 0.12871 0.77260
 N1748 N 0.10202 0.11402 0.77448
 C1749 C 0.15247 0.14248 0.75555
 C1750 C 0.14833 0.16417 0.76273
 C1751 C 0.16433 0.18055 0.76027
 C1752 C 0.18501 0.17561 0.75085
 C1753 C 0.18931 0.15389 0.74381
 C1754 C 0.17308 0.13749 0.74595
 H1755 H 0.06971 0.09455 0.79340
 H1756 H 0.03617 0.07242 0.79388
 H1757 H 0.05672 0.03951 0.73402
 H1758 H 0.09077 0.06163 0.73358
 H1759 H 0.13259 0.16859 0.77010
 H1760 H 0.16058 0.19707 0.76606
 H1761 H 0.20512 0.14964 0.73649
 H1762 H 0.17673 0.12090 0.74033
 C1763 C 0.57696 0.58903 0.25545
 C1764 C 0.55840 0.59355 0.26871
 C1765 C 0.53949 0.58045 0.26735
 C1766 C 0.53856 0.56253 0.25266
 C1767 C 0.55731 0.55749 0.23983
 C1768 C 0.57636 0.57065 0.24121
 C1769 C 0.59631 0.60407 0.25603
 N1770 N 0.61535 0.59923 0.24505
 N1771 N 0.63229 0.61337 0.24508
 C1772 C 0.63083 0.63294 0.25601
 N1773 N 0.61185 0.63766 0.26707
 N1774 N 0.59499 0.62354 0.26710
 C1775 C 0.64909 0.64925 0.25541
 C1776 C 0.64524 0.67109 0.26230
 C1777 C 0.66204 0.68683 0.26126
 C1778 C 0.68322 0.68110 0.25353
 C1779 C 0.68726 0.65918 0.24697
 C1780 C 0.67030 0.64343 0.24775
 H1781 H 0.55833 0.60739 0.28005
 H1782 H 0.52547 0.58443 0.27780
 H1783 H 0.55701 0.54380 0.22832
 H1784 H 0.59039 0.56672 0.23078
 H1785 H 0.62910 0.67617 0.26825
 H1786 H 0.65842 0.70352 0.26664
 H1787 H 0.70343 0.65429 0.24093
 H1788 H 0.67380 0.62671 0.24241
 C1789 C 0.08148 0.92019 0.22642
 C1790 C 0.08598 0.93826 0.21257
 C1791 C 0.07272 0.95713 0.21328
 C1792 C 0.05472 0.95842 0.22794
 C1793 C 0.04932 0.93982 0.24073
 C1794 C 0.06255 0.92087 0.23995
 C1795 C 0.09744 0.90166 0.22801
 N1796 N 0.09253 0.88317 0.23975
 N1797 N 0.10760 0.86731 0.24251
 C1798 C 0.12824 0.86936 0.23380
 N1799 N 0.13305 0.88774 0.22190
 N1800 N 0.11797 0.90353 0.21906
 C1801 C 0.14540 0.85231 0.23768
 C1802 C 0.16779 0.85693 0.23328
 C1803 C 0.18410 0.84105 0.23712
 C1804 C 0.17840 0.82006 0.24521
 C1805 C 0.15601 0.81540 0.24961
 C1806 C 0.13969 0.83141 0.24602
 H1807 H 0.10022 0.93816 0.20169
 H1808 H 0.07701 0.97106 0.20292
 H1809 H 0.03562 0.94038 0.25227
 H1810 H 0.05856 0.90719 0.25076
 H1811 H 0.17278 0.87290 0.22696
 H1812 H 0.20117 0.84511 0.23337
 H1813 H 0.15108 0.79937 0.25584
 H1814 H 0.12259 0.82734 0.24956
 C1815 C 0.58641 0.41769 0.73212
 C1816 C 0.59069 0.43638 0.71904
 C1817 C 0.57716 0.45503 0.72045
 C1818 C 0.55906 0.45551 0.73504
 C1819 C 0.55400 0.43641 0.74721
 C1820 C 0.56753 0.41767 0.74576
 C1821 C 0.60242 0.39910 0.73258
 N1822 N 0.59781 0.38010 0.74361
 N1823 N 0.61287 0.36405 0.74510
 C1824 C 0.63321 0.36639 0.73575
 N1825 N 0.63771 0.38530 0.72459
 N1826 N 0.62265 0.40129 0.72303
 C1827 C 0.65043 0.34909 0.73821
 C1828 C 0.67263 0.35381 0.73306
 C1829 C 0.68906 0.33780 0.73576
 C1830 C 0.68368 0.31657 0.74344
 C1831 C 0.66145 0.31175 0.74843
 C1832 C 0.64501 0.32789 0.74598
 H1833 H 0.60488 0.43688 0.70811
 H1834 H 0.58121 0.46935 0.71053
 H1835 H 0.54022 0.43633 0.75868
 H1836 H 0.56371 0.40352 0.75600
 H1837 H 0.67742 0.36999 0.72712
 H1838 H 0.70599 0.34202 0.73159
 H1839 H 0.65676 0.29554 0.75437
 H1840 H 0.62805 0.32371 0.75005
 C1841 C 0.91079 0.08036 0.24990
 C1842 C 0.90882 0.06465 0.26684
 C1843 C 0.92219 0.04590 0.26704
 C1844 C 0.93775 0.04220 0.25018
 C1845 C 0.94034 0.05825 0.23360
 C1846 C 0.92699 0.07721 0.23349
 C1847 C 0.89526 0.09928 0.24911
 N1848 N 0.89928 0.11721 0.23622
 N1849 N 0.88487 0.13391 0.23543
 C1850 C 0.86579 0.13323 0.24736
 N1851 N 0.86183 0.11530 0.26021
 N1852 N 0.87626 0.09873 0.26109
 C1853 C 0.84944 0.15142 0.24645
 C1854 C 0.82760 0.14778 0.25361
 C1855 C 0.81207 0.16482 0.25329
 C1856 C 0.81804 0.18604 0.24605
 C1857 C 0.83986 0.18973 0.23877
 C1858 C 0.85537 0.17252 0.23881
 H1859 H 0.89675 0.06671 0.27992
 H1860 H 0.92018 0.03410 0.28033
 H1861 H 0.95212 0.05581 0.22034
 H1862 H 0.92889 0.08903 0.22021
 H1863 H 0.82244 0.13168 0.25945
 H1864 H 0.79543 0.16143 0.25906
 H1865 H 0.84491 0.20589 0.23299
 H1866 H 0.87209 0.17583 0.23321
 C1867 C 0.41298 0.57609 0.75365
 C1868 C 0.42965 0.57347 0.73760
 C1869 C 0.44289 0.55443 0.73736
 C1870 C 0.43970 0.53774 0.75320
 C1871 C 0.42362 0.54086 0.76968
 C1872 C 0.41040 0.55971 0.76986
 C1873 C 0.39756 0.59514 0.75320
 N1874 N 0.37859 0.59449 0.76521
 N1875 N 0.36416 0.61106 0.76452
 C1876 C 0.36807 0.62911 0.75184
 N1877 N 0.38714 0.62994 0.73991
 N1878 N 0.40157 0.61323 0.74051
 C1879 C 0.35148 0.64711 0.75088
 C1880 C 0.35704 0.66830 0.74319
 C1881 C 0.34112 0.68517 0.74283
 C1882 C 0.31929 0.68100 0.74981
 C1883 C 0.31377 0.65973 0.75724
 C1884 C 0.32967 0.64307 0.75790
 H1885 H 0.43203 0.58581 0.72488
 H1886 H 0.45511 0.55244 0.72443
 H1887 H 0.42113 0.52856 0.78243
 H1888 H 0.39797 0.56131 0.78266
 H1889 H 0.37373 0.67191 0.73771
 H1890 H 0.34582 0.70139 0.73692
 H1891 H 0.29715 0.65598 0.76283
 H1892 H 0.32478 0.62691 0.76380
 C1893 C 0.91575 0.91625 0.74013
 C1894 C 0.91649 0.93494 0.75392
 C1895 C 0.93605 0.94720 0.75600
 C1896 C 0.95520 0.94098 0.74434
 C1897 C 0.95404 0.92314 0.72956
 C1898 C 0.93455 0.91092 0.72748
 C1899 C 0.89627 0.90133 0.74014
 N1900 N 0.89741 0.88142 0.72988
 N1901 N 0.88079 0.86708 0.73128
 C1902 C 0.86224 0.87199 0.74298
 N1903 N 0.86087 0.89205 0.75297
 N1904 N 0.87758 0.90641 0.75164
 C1905 C 0.84450 0.85527 0.74548
 C1906 C 0.82332 0.86098 0.75336
 C1907 C 0.80685 0.84482 0.75571
 C1908 C 0.81141 0.82261 0.75056
 C1909 C 0.83264 0.81699 0.74286
 C1910 C 0.84890 0.83309 0.74025
 H1911 H 0.90230 0.93957 0.76383
 H1912 H 0.93652 0.96084 0.76758
 H1913 H 0.96843 0.91825 0.72005
 H1914 H 0.93450 0.89683 0.71645
 H1915 H 0.81944 0.87794 0.75753
 H1916 H 0.79065 0.84965 0.76168
 H1917 H 0.83670 0.80009 0.73858
 H1918 H 0.86504 0.82805 0.73429
 C1919 C 0.42236 0.41214 0.23991
 C1920 C 0.42078 0.43266 0.25070
 C1921 C 0.43924 0.44658 0.25218
 C1922 C 0.45962 0.44027 0.24286
 C1923 C 0.46083 0.42031 0.23107
 C1924 C 0.44245 0.40639 0.22965
 C1925 C 0.40373 0.39618 0.24040
 N1926 N 0.40686 0.37501 0.23364
 N1927 N 0.39064 0.36022 0.23515
 C1928 C 0.37054 0.36591 0.24348
 N1929 N 0.36729 0.38714 0.25005
 N1930 N 0.38358 0.40195 0.24861
 C1931 C 0.35281 0.34911 0.24565
 C1932 C 0.33084 0.35525 0.25038
 C1933 C 0.31421 0.33921 0.25209
 C1934 C 0.31926 0.31669 0.24933
 C1935 C 0.34130 0.31060 0.24492
 C1936 C 0.35782 0.32659 0.24301
 H1937 H 0.40554 0.43762 0.25873
 H1938 H 0.43784 0.46180 0.26148
 H1939 H 0.47618 0.41521 0.22333
 H1940 H 0.44419 0.39087 0.22092
 H1941 H 0.32644 0.37246 0.25252
 H1942 H 0.29741 0.34446 0.25554
 H1943 H 0.34581 0.29343 0.24263
 H1944 H 0.37458 0.32124 0.23950
   
