data_POSCAR
  _audit_creation_date              2014-09-24
  _audit_creation_method            'ToBaCCo'
  _symmetry_space_group_name_H-M    'P1'
  _symmetry_Int_Tables_number       1
  _symmetry_cell_setting            triclinic
  loop_
  _symmetry_equiv_pos_as_xyz
 x,y,z
_cell_length_a 66.8034
_cell_length_b 66.9402
_cell_length_c 65.2701
_cell_angle_alpha 90.054500
_cell_angle_beta 90.132500
_cell_angle_gamma 90.078800
loop_
  _atom_site_label
  _atom_site_type_symbol
  _atom_site_fract_x
  _atom_site_fract_y
  _atom_site_fract_z
N1 N 0.32033 0.43273 0.93790
 N2 N 0.43301 0.82443 0.43221
 N3 N 0.92762 0.92713 0.81439
 N4 N 0.43715 -0.04726 0.30463
 N5 N 0.81736 0.31556 0.31387
 N6 N -0.18580 0.80088 0.80566
 N7 N 0.93210 0.30798 0.44665
 N8 N 0.43796 0.43100 0.82171
 N9 N 0.80559 0.92968 0.92918
 N10 N 0.32731 0.82295 0.31647
 N11 N 0.81383 0.43002 0.45367
 N12 N 0.93981 0.82282 -0.06003
 N13 N 0.32947 0.31875 0.81806
 N14 N 0.19166 0.55650 0.55504
 N15 N 0.57052 0.69053 0.05962
 N16 N 0.68742 0.17261 0.68380
 N17 N 1.05668 0.06339 0.18233
 N18 N 0.05636 0.19904 1.05999
 N19 N 0.19072 0.68080 0.68418
 N20 N 1.17680 0.17651 0.17774
 N21 N 0.67096 1.05426 0.55143
 N22 N 0.57235 0.58107 0.19088
 N23 N 0.69694 0.68759 0.19445
 N24 N 0.17664 0.06667 1.05296
 N25 N 0.55667 0.19520 0.56343
 N26 N 0.06790 0.56214 0.69871
 N27 N 0.68535 0.56777 0.07450
 N28 N 0.06872 0.68262 0.56429
 N29 N 0.55570 1.05983 0.69222
 N30 N 0.43424 0.32222 0.94471
 N31 N 0.93549 0.43409 0.31832
 N32 N 0.30174 0.93537 0.42383
 O33 O 0.25770 0.55149 0.71909
 O34 O 0.29128 0.54094 0.71366
 O35 O 0.22526 0.49861 0.69869
 O36 O 0.21871 0.46821 0.70906
 O37 O 0.21008 0.53039 0.75672
 O38 O 0.22459 0.52909 0.78997
 O39 O 0.27863 0.44430 0.74452
 O40 O 0.27048 0.45039 0.71045
 O41 O 0.31583 0.49268 0.76219
 O42 O 0.31228 0.52952 0.75962
 O43 O 0.27006 0.47517 0.80067
 O44 O 0.23438 0.47904 0.80185
 O45 O 0.26279 0.44778 0.77513
 O46 O 0.22620 0.45898 0.77987
 O47 O 0.29626 0.49574 0.79362
 O48 O 0.29552 0.53270 0.78543
 O49 O 0.30757 0.46705 0.74100
 O50 O 0.29476 0.47164 0.70429
 O51 O 0.24128 0.55513 0.74940
 O52 O 0.24874 0.54786 0.78473
 O53 O 0.20273 0.50681 0.73270
 O54 O 0.20730 0.46960 0.73859
 O55 O 0.24909 0.52223 0.69278
 O56 O 0.28483 0.51772 0.69294
 Zr57 Zr 0.26701 0.52146 0.71938
 O58 O 0.28807 0.50260 0.73372
 Zr59 Zr 0.22943 0.49039 0.72938
 O60 O 0.24886 0.46985 0.74351
 Zr61 Zr 0.24088 0.52634 0.76238
 O62 O 0.26042 0.50728 0.77855
 Zr63 Zr 0.27794 0.47297 0.73182
 O64 O 0.25791 0.49152 0.71558
 Zr65 Zr 0.28900 0.50875 0.76526
 O66 O 0.26996 0.52946 0.75047
 Zr67 Zr 0.25154 0.47732 0.77470
 O68 O 0.23035 0.49673 0.76093
 O69 O 0.23821 0.52013 0.73125
 O70 O 0.28036 0.47895 0.76298
 C71 C 0.24835 0.56199 0.73249
 C72 C 0.23407 0.51146 0.68723
 C73 C 0.19793 0.52152 0.74439
 C74 C 0.27262 0.43753 0.76183
 C75 C 0.31979 0.47616 0.75306
 C76 C 0.28715 0.48297 0.80493
 H77 H 0.30136 0.50428 0.72735
 H78 H 0.26067 0.51116 0.79316
 H79 H 0.22910 0.52925 0.72379
 H80 H 0.24371 0.45614 0.74139
 H81 H 0.26165 0.45664 0.70007
 H82 H 0.22911 0.45774 0.70847
 H83 H 0.28702 0.53118 0.79773
 H84 H 0.26223 0.55280 0.78105
 H85 H 0.30722 0.47944 0.70612
 H86 H 0.28196 0.50414 0.68768
 H87 H 0.23687 0.49231 0.80802
 H88 H 0.21706 0.51645 0.79166
 H89 H 0.29470 0.54723 0.72695
 H90 H 0.31798 0.52651 0.74599
 H91 H 0.20162 0.47454 0.75164
 H92 H 0.22622 0.44824 0.76944
 O93 O 0.19572 0.01926 0.22240
 O94 O 0.20421 0.02266 0.25869
 O95 O 0.24885 0.03811 0.19248
 O96 O 0.28180 0.03014 0.19359
 O97 O 0.21933 -0.01544 0.17445
 O98 O 0.22009 -0.04926 0.18803
 O99 O 0.30074 -0.00990 0.25208
 O100 O 0.29622 0.02416 0.24405
 O101 O 0.24880 -0.02611 0.28522
 O102 O 0.21177 -0.02085 0.27808
 O103 O 0.26986 -0.06165 0.24101
 O104 O 0.26496 -0.06243 0.20156
 O105 O 0.29811 -0.03765 0.23203
 O106 O 0.28897 -0.04432 0.19701
 O107 O 0.24505 -0.05570 0.26400
 O108 O 0.20947 -0.04633 0.26112
 O109 O 0.27673 -0.00762 0.27900
 O110 O 0.27320 0.02953 0.26836
 O111 O 0.19342 -0.00898 0.20307
 O112 O 0.19822 -0.04383 0.21087
 O113 O 0.24585 0.00538 0.16948
 O114 O 0.28137 0.00161 0.17706
 O115 O 0.22648 0.04447 0.21792
 O116 O 0.22731 0.04334 0.25388
 Zr117 Zr 0.22502 0.01791 0.23482
 O118 O 0.24208 0.00296 0.25727
 Zr119 Zr 0.25890 0.00886 0.19865
 O120 O 0.27730 -0.00675 0.21939
 Zr121 Zr 0.22137 -0.02287 0.20580
 O122 O 0.23790 -0.03983 0.22710
 Zr123 Zr 0.27255 0.00381 0.24931
 O124 O 0.25580 0.02111 0.22824
 Zr125 Zr 0.23444 -0.02738 0.25647
 O126 O 0.21579 -0.01212 0.23560
 Zr127 Zr 0.26858 -0.03702 0.22059
 O128 O 0.25183 -0.02181 0.19776
 O129 O 0.22859 0.00731 0.20513
 O130 O 0.26495 -0.02623 0.25009
 C131 C 0.18624 0.00740 0.21019
 C132 C 0.23633 0.04949 0.20185
 C133 C 0.23039 -0.00426 0.16313
 C134 C 0.30787 -0.02594 0.24410
 C135 C 0.26604 -0.01915 0.29025
 C136 C 0.25967 -0.06606 0.25715
 H137 H 0.23969 0.00885 0.27092
 H138 H 0.23349 -0.05391 0.22667
 H139 H 0.22049 0.01497 0.19517
 H140 H 0.29141 -0.00511 0.21517
 H141 H 0.29052 0.03541 0.23611
 H142 H 0.29312 0.02664 0.20269
 H143 H 0.21005 -0.05711 0.25076
 H144 H 0.19203 -0.04026 0.22414
 H145 H 0.26594 0.02654 0.28119
 H146 H 0.24166 0.04702 0.25414
 H147 H 0.25501 -0.07138 0.20801
 H148 H 0.23318 -0.05044 0.18107
 H149 H 0.19608 0.01032 0.25973
 H150 H 0.21602 -0.00902 0.28607
 H151 H 0.27835 -0.01200 0.17196
 H152 H 0.29700 -0.03220 0.19421
 O153 O 0.56369 0.74042 0.24816
 O154 O 0.55231 0.73809 0.28196
 O155 O 0.50958 0.72168 0.21542
 O156 O 0.47619 0.73422 0.21463
 O157 O 0.54371 0.77087 0.19288
 O158 O 0.54741 0.80466 0.20292
 O159 O 0.46087 0.78014 0.26751
 O160 O 0.46225 0.74446 0.26495
 O161 O 0.51341 0.79419 0.30072
 O162 O 0.54956 0.78784 0.29516
 O163 O 0.49588 0.82721 0.25034
 O164 O 0.50069 0.82330 0.21253
 O165 O 0.46642 0.80520 0.24476
 O166 O 0.47698 0.80497 0.20826
 O167 O 0.51878 0.82272 0.27574
 O168 O 0.55376 0.81032 0.27555
 O169 O 0.48558 0.77491 0.29739
 O170 O 0.48286 0.73855 0.28663
 O171 O 0.56928 0.76443 0.22412
 O172 O 0.56684 0.80034 0.22783
 O173 O 0.51691 0.75005 0.18955
 O174 O 0.48160 0.75813 0.19422
 O175 O 0.53200 0.71607 0.24101
 O176 O 0.52684 0.72102 0.27776
 Zr177 Zr 0.53359 0.74385 0.25650
 O178 O 0.51772 0.76305 0.27616
 Zr179 Zr 0.50222 0.75193 0.21800
 O180 O 0.48447 0.77092 0.23608
 Zr181 Zr 0.54228 0.78083 0.22347
 O182 O 0.52625 0.80150 0.24145
 Zr183 Zr 0.48749 0.76347 0.26725
 O184 O 0.50303 0.74257 0.24879
 Zr185 Zr 0.52762 0.79266 0.27224
 O186 O 0.54536 0.77307 0.25457
 Zr187 Zr 0.49565 0.80017 0.23404
 O188 O 0.51211 0.78149 0.21403
 O189 O 0.53242 0.75151 0.22572
 O190 O 0.49720 0.79297 0.26506
 C191 C 0.57493 0.74972 0.23541
 C192 C 0.52175 0.71041 0.22528
 C193 C 0.53271 0.75866 0.18259
 C194 C 0.45548 0.79596 0.25786
 C195 C 0.49727 0.78643 0.30775
 C196 C 0.50569 0.83321 0.26612
 H197 H 0.51947 0.75844 0.29043
 H198 H 0.53176 0.81507 0.23948
 H199 H 0.54054 0.74242 0.21714
 H200 H 0.47043 0.76999 0.23139
 H201 H 0.45649 0.74622 0.25110
 H202 H 0.47453 0.72685 0.22766
 H203 H 0.55407 0.82006 0.26417
 H204 H 0.57213 0.79761 0.24172
 H205 H 0.49352 0.73861 0.29718
 H206 H 0.51328 0.71605 0.27429
 H207 H 0.51299 0.83052 0.21661
 H208 H 0.53430 0.80777 0.19661
 H209 H 0.55985 0.75058 0.28460
 H210 H 0.54522 0.77632 0.30353
 H211 H 0.48588 0.77088 0.18793
 H212 H 0.46667 0.79435 0.20816
 O213 O 0.01328 0.77598 0.80958
 O214 O 0.04763 0.76874 0.80108
 O215 O -0.00706 0.80800 0.75688
 O216 O -0.00380 0.80261 0.72245
 O217 O -0.04382 0.76239 0.77970
 O218 O -0.04272 0.72685 0.78042
 O219 O 0.03359 0.74272 0.70158
 O220 O 0.03758 0.77853 0.70786
 O221 O 0.05518 0.71556 0.75536
 O222 O 0.04788 0.71927 0.79214
 O223 O 0.00013 0.69868 0.73008
 O224 O -0.03431 0.71307 0.73187
 O225 O 0.00475 0.72470 0.70227
 O226 O -0.03031 0.73326 0.70982
 O227 O 0.02452 0.69482 0.75409
 O228 O 0.02263 0.70255 0.79189
 O229 O 0.06016 0.73789 0.72969
 O230 O 0.06239 0.77175 0.73017
 O231 O -0.01596 0.75854 0.80975
 O232 O -0.02101 0.72364 0.80331
 O233 O -0.03904 0.78452 0.75368
 O234 O -0.02986 0.78222 0.71851
 O235 O 0.01649 0.80349 0.78163
 O236 O 0.05041 0.79092 0.77873
 Zr237 Zr 0.02427 0.77308 0.77964
 O238 O 0.03959 0.75153 0.76218
 Zr239 Zr -0.00975 0.77933 0.74347
 O240 O 0.00391 0.75793 0.72430
 Zr241 Zr -0.01717 0.74551 0.78031
 O242 O -0.00375 0.72275 0.76281
 Zr243 Zr 0.03469 0.75638 0.73077
 O244 O 0.02149 0.77976 0.74824
 Zr245 Zr 0.02731 0.72315 0.76775
 O246 O 0.01362 0.74440 0.78718
 Zr247 Zr -0.00707 0.72929 0.73155
 O248 O -0.02243 0.75095 0.74899
 O249 O -0.00646 0.77399 0.77463
 O250 O 0.02371 0.72780 0.73639
 C251 C -0.00266 0.76964 0.81844
 C252 C 0.00357 0.81428 0.77208
 C253 C -0.04985 0.77628 0.76756
 C254 C 0.02055 0.73107 0.69327
 C255 C 0.06545 0.72274 0.74052
 C256 C 0.01324 0.68817 0.73964
 H257 H 0.05401 0.75209 0.76558
 H258 H -0.00971 0.70969 0.76635
 H259 H -0.01376 0.78370 0.78325
 H260 H 0.00152 0.76152 0.70981
 H261 H 0.03618 0.79165 0.71474
 H262 H 0.00278 0.79651 0.71041
 H263 H 0.01003 0.69525 0.78911
 H264 H -0.00765 0.72144 0.80948
 H265 H 0.06450 0.77730 0.74402
 H266 H 0.04954 0.79918 0.76618
 H267 H -0.03391 0.70371 0.74359
 H268 H -0.04857 0.72762 0.76649
 H269 H 0.04456 0.75616 0.80839
 H270 H 0.05877 0.72914 0.79036
 H271 H -0.03899 0.77058 0.71905
 H272 H -0.02614 0.74396 0.70028
 O273 O 0.03222 0.04701 -0.00223
 O274 O 0.02633 0.04901 -0.03625
 O275 O -0.02112 0.06848 0.02557
 O276 O -0.05313 0.06002 0.02757
 O277 O 0.00681 0.01314 0.04820
 O278 O 0.00960 -0.01966 0.03537
 O279 O -0.07277 0.01790 -0.02947
 O280 O -0.06741 0.05198 -0.02458
 O281 O -0.02196 -0.00272 -0.06178
 O282 O 0.01292 0.00289 -0.05725
 O283 O -0.04217 -0.03521 -0.01245
 O284 O -0.04014 -0.03189 0.02498
 O285 O -0.06981 -0.01028 -0.01024
 O286 O -0.06198 -0.01109 0.02816
 O287 O -0.02009 -0.03056 -0.03851
 O288 O 0.01683 -0.02254 -0.03514
 O289 O -0.04861 0.01784 -0.05699
 O290 O -0.04406 0.05532 -0.04847
 O291 O 0.03498 0.02046 0.01940
 O292 O 0.02995 -0.01497 0.01186
 O293 O -0.01704 0.03722 0.05145
 O294 O -0.05318 0.03231 0.04397
 O295 O 0.00278 0.07226 0.00110
 O296 O -0.00086 0.06815 -0.03607
 Zr297 Zr 0.00322 0.04483 -0.01456
 O298 O -0.01390 0.02828 -0.03590
 Zr299 Zr -0.03048 0.03861 0.02231
 O300 O -0.04941 0.02234 0.00259
 Zr301 Zr 0.00682 0.00602 0.01677
 O302 O -0.01078 -0.01209 -0.00269
 Zr303 Zr -0.04424 0.03074 -0.02794
 O304 O -0.02734 0.04904 -0.00793
 Zr305 Zr -0.00747 -0.00225 -0.03308
 O306 O 0.01187 0.01458 -0.01386
 Zr307 Zr -0.04135 -0.00802 0.00377
 O308 O -0.02359 0.00802 0.02509
 O309 O -0.00020 0.03625 0.01585
 O310 O -0.03776 0.00046 -0.02652
 C311 C 0.04182 0.03648 0.01101
 C312 C -0.00779 0.07879 0.01609
 C313 C -0.00337 0.02577 0.05874
 C314 C -0.07953 0.00131 -0.02245
 C315 C -0.03872 0.00493 -0.06745
 C316 C -0.03342 -0.04079 -0.02898
 H317 H -0.01132 0.03287 -0.05004
 H318 H -0.00682 -0.02621 -0.00103
 H319 H 0.00786 0.04435 0.02552
 H320 H -0.06351 0.02459 0.00649
 H321 H -0.06168 0.06336 -0.01682
 H322 H -0.06364 0.05770 0.01715
 H323 H 0.01447 -0.03362 -0.02543
 H324 H 0.03617 -0.01154 -0.00143
 H325 H -0.03650 0.05154 -0.06089
 H326 H -0.01398 0.07435 -0.03306
 H327 H -0.02778 -0.03954 0.02223
 H328 H -0.00379 -0.02207 0.04134
 H329 H 0.02200 0.04244 -0.04910
 H330 H 0.02494 0.00913 -0.05105
 H331 H -0.04977 0.01934 0.05035
 H332 H -0.07259 -0.00096 0.02631
 O333 O 0.00901 0.54772 0.53334
 O334 O -0.02585 0.54161 0.54022
 O335 O 0.03498 0.49333 0.55841
 O336 O 0.03577 0.46099 0.55119
 O337 O 0.05281 0.51727 0.49776
 O338 O 0.03748 0.51484 0.46471
 O339 O -0.02647 0.44222 0.51657
 O340 O -0.01558 0.44954 0.55029
 O341 O -0.05680 0.49276 0.49586
 O342 O -0.04900 0.52945 0.49677
 O343 O -0.01463 0.46844 0.45828
 O344 O 0.02330 0.46826 0.45837
 O345 O -0.01028 0.44141 0.48598
 O346 O 0.02447 0.44555 0.47872
 O347 O -0.03637 0.49406 0.46323
 O348 O -0.03298 0.52960 0.47094
 O349 O -0.05230 0.46988 0.52114
 O350 O -0.03787 0.47279 0.55541
 O351 O 0.02603 0.54609 0.50323
 O352 O 0.01686 0.53768 0.46892
 O353 O 0.05754 0.49523 0.52382
 O354 O 0.04874 0.45905 0.52148
 O355 O 0.01430 0.52003 0.56232
 O356 O -0.02134 0.52004 0.56318
 Zr357 Zr -0.00406 0.51910 0.53611
 O358 O -0.02756 0.50188 0.52367
 Zr359 Zr 0.02890 0.48266 0.52869
 O360 O 0.00676 0.46385 0.51591
 Zr361 Zr 0.02176 0.51682 0.49273
 O362 O -0.00059 0.49974 0.47833
 Zr363 Zr -0.02148 0.47133 0.52763
 O364 O 0.00093 0.48859 0.54233
 Zr365 Zr -0.02845 0.50586 0.49182
 O366 O -0.00639 0.52490 0.50451
 Zr367 Zr 0.00428 0.46927 0.48424
 O368 O 0.02823 0.48633 0.49666
 O369 O 0.02408 0.51298 0.52426
 O370 O -0.02400 0.47530 0.49603
 C371 C 0.01992 0.55547 0.51919
 C372 C 0.02808 0.50819 0.56871
 C373 C 0.06392 0.50824 0.51087
 C374 C -0.02122 0.43341 0.49992
 C375 C -0.06321 0.47902 0.50791
 C376 C -0.02920 0.47969 0.45256
 H377 H -0.04036 0.50574 0.53007
 H378 H -0.00037 0.50287 0.46354
 H379 H 0.03443 0.52145 0.53083
 H380 H 0.01007 0.44976 0.51887
 H381 H -0.00621 0.45569 0.56026
 H382 H 0.02548 0.45040 0.55021
 H383 H -0.02306 0.52812 0.45981
 H384 H 0.00461 0.54518 0.47255
 H385 H -0.04589 0.48518 0.55539
 H386 H -0.02037 0.50660 0.56942
 H387 H 0.01953 0.47943 0.44923
 H388 H 0.04391 0.50153 0.46445
 H389 H -0.02853 0.54728 0.52649
 H390 H -0.05575 0.52716 0.51004
 H391 H 0.05372 0.46150 0.50742
 H392 H 0.02842 0.44002 0.49216
 O393 O 0.42012 0.01454 0.47709
 O394 O 0.42607 0.04990 0.48248
 O395 O 0.47378 -0.00392 0.44672
 O396 O 0.50680 -0.00361 0.45324
 O397 O 0.44886 -0.03762 0.49655
 O398 O 0.45229 -0.03394 0.53354
 O399 O 0.52413 0.04394 0.50953
 O400 O 0.51970 0.04229 0.47271
 O401 O 0.47272 0.06625 0.53409
 O402 O 0.43674 0.05761 0.53166
 O403 O 0.49910 0.01475 0.55724
 O404 O 0.49732 -0.02196 0.54636
 O405 O 0.52591 0.01657 0.53010
 O406 O 0.52012 -0.01853 0.52614
 O407 O 0.47352 0.03704 0.55926
 O408 O 0.43727 0.03465 0.55122
 O409 O 0.49721 0.06881 0.51013
 O410 O 0.49573 0.06515 0.47293
 O411 O 0.42068 -0.01004 0.50121
 O412 O 0.42903 -0.01325 0.53635
 O413 O 0.47258 -0.03406 0.47180
 O414 O 0.50851 -0.02695 0.47741
 O415 O 0.44883 0.01912 0.44868
 O416 O 0.44791 0.05289 0.45975
 Zr417 Zr 0.44868 0.02801 0.47965
 O418 O 0.46562 0.04625 0.49944
 Zr419 Zr 0.48511 -0.00564 0.47675
 O420 O 0.50372 0.01110 0.49652
 Zr421 Zr 0.45008 -0.01010 0.51244
 O422 O 0.46685 0.00664 0.53375
 Zr423 Zr 0.49633 0.04147 0.49450
 O424 O 0.47939 0.02509 0.47276
 Zr425 Zr 0.46091 0.03726 0.52982
 O426 O 0.44220 0.02032 0.51022
 Zr427 Zr 0.49745 0.00348 0.52710
 O428 O 0.48068 -0.01515 0.50713
 O429 O 0.45465 -0.00224 0.48198
 O430 O 0.49153 0.03396 0.52501
 C431 C 0.41189 0.00028 0.48730
 C432 C 0.45968 0.00658 0.43873
 C433 C 0.45847 -0.04378 0.48071
 C434 C 0.53307 0.03283 0.52274
 C435 C 0.48698 0.07575 0.52514
 C436 C 0.48845 0.02762 0.56696
 H437 H 0.46182 0.06036 0.49730
 H438 H 0.46364 0.00210 0.54776
 H439 H 0.44619 -0.00983 0.47223
 H440 H 0.51795 0.00889 0.49310
 H441 H 0.51415 0.03671 0.45983
 H442 H 0.51863 0.00335 0.45895
 H443 H 0.43969 0.02254 0.55953
 H444 H 0.42247 -0.00008 0.53791
 H445 H 0.48329 0.07286 0.47506
 H446 H 0.46147 0.05403 0.45375
 H447 H 0.48664 -0.02017 0.55666
 H448 H 0.46546 -0.04031 0.53124
 H449 H 0.41928 0.04735 0.49568
 H450 H 0.43791 0.06702 0.52006
 H451 H 0.50585 -0.03600 0.48908
 H452 H 0.52673 -0.01750 0.51264
 O453 O 0.44287 0.49394 -0.00430
 O454 O 0.44527 0.52986 -0.00212
 O455 O 0.49198 0.47835 -0.04220
 O456 O 0.52546 0.48498 -0.04218
 O457 O 0.48311 0.44615 0.01390
 O458 O 0.48738 0.45354 0.04932
 O459 O 0.54626 0.53632 0.00743
 O460 O 0.53560 0.53274 -0.02703
 O461 O 0.49702 0.55416 0.04111
 O462 O 0.46201 0.54164 0.04443
 O463 O 0.53177 0.50681 0.06215
 O464 O 0.53427 0.47050 0.05209
 O465 O 0.55358 0.51242 0.03093
 O466 O 0.55268 0.47598 0.02835
 O467 O 0.50399 0.52576 0.06736
 O468 O 0.46819 0.52047 0.06488
 O469 O 0.51741 0.55802 0.01351
 O470 O 0.50906 0.55229 -0.02319
 O471 O 0.45065 0.46900 0.01795
 O472 O 0.46245 0.47180 0.05294
 O473 O 0.50110 0.45046 -0.01537
 O474 O 0.53508 0.46336 -0.01769
 O475 O 0.46493 0.49823 -0.03649
 O476 O 0.46350 0.53342 -0.02839
 Zr477 Zr 0.46958 0.51032 -0.00722
 O478 O 0.48680 0.53162 0.00868
 Zr479 Zr 0.50893 0.48098 -0.01486
 O480 O 0.52802 0.50104 0.00088
 Zr481 Zr 0.48049 0.47491 0.02655
 O482 O 0.49816 0.49459 0.04395
 Zr483 Zr 0.51664 0.53015 -0.00126
 O484 O 0.49886 0.51052 -0.01919
 Zr485 Zr 0.48790 0.52399 0.03981
 O486 O 0.46860 0.50394 0.02431
 Zr487 Zr 0.52756 0.49479 0.03250
 O488 O 0.51034 0.47321 0.01646
 O489 O 0.47962 0.48107 -0.00453
 O490 O 0.51758 0.52413 0.03007
 C491 C 0.43852 0.47799 0.00572
 C492 C 0.47493 0.48580 -0.04743
 C493 C 0.49139 0.43959 -0.00254
 C494 C 0.55800 0.52809 0.02053
 C495 C 0.50881 0.56453 0.02977
 C496 C 0.52062 0.51808 0.07325
 H497 H 0.48100 0.54504 0.00665
 H498 H 0.49760 0.49033 0.05844
 H499 H 0.47127 0.47130 -0.01207
 H500 H 0.54170 0.50037 -0.00481
 H501 H 0.52874 0.52590 -0.03853
 H502 H 0.53724 0.49334 -0.03883
 H503 H 0.47145 0.50762 0.07155
 H504 H 0.45320 0.48334 0.05307
 H505 H 0.49703 0.55948 -0.01838
 H506 H 0.47555 0.53475 -0.03707
 H507 H 0.52466 0.47081 0.06360
 H508 H 0.50137 0.44934 0.04687
 H509 H 0.44108 0.52784 0.01227
 H510 H 0.46080 0.55100 0.03279
 H511 H 0.53676 0.45614 -0.00457
 H512 H 0.55815 0.47859 0.01454
 O513 O 0.80132 0.23379 0.47112
 O514 O 0.78994 0.20017 0.46754
 O515 O 0.75180 0.26416 0.43951
 O516 O 0.72037 0.27212 0.44509
 O517 O 0.77821 0.28602 0.49730
 O518 O 0.77126 0.27668 0.53271
 O519 O 0.69127 0.21689 0.48640
 O520 O 0.70056 0.22331 0.45193
 O521 O 0.73719 0.18223 0.51146
 O522 O 0.77404 0.18616 0.51440
 O523 O 0.71614 0.23320 0.54345
 O524 O 0.72113 0.26847 0.54041
 O525 O 0.69207 0.23730 0.51428
 O526 O 0.70359 0.27411 0.51535
 O527 O 0.73553 0.20539 0.54100
 O528 O 0.77331 0.20503 0.53867
 O529 O 0.71518 0.18753 0.48542
 O530 O 0.72075 0.19748 0.45015
 O531 O 0.80193 0.25536 0.49807
 O532 O 0.79096 0.25177 0.53286
 O533 O 0.75627 0.29124 0.47111
 O534 O 0.71881 0.28761 0.47313
 O535 O 0.77582 0.24002 0.44000
 O536 O 0.76985 0.20492 0.44352
 Zr537 Zr 0.77103 0.22547 0.46811
 O538 O 0.75004 0.20678 0.48246
 Zr539 Zr 0.73987 0.26428 0.46934
 O540 O 0.71741 0.24709 0.48363
 Zr541 Zr 0.77189 0.25681 0.50752
 O542 O 0.75082 0.23948 0.52379
 Zr543 Zr 0.72094 0.21688 0.47587
 O544 O 0.74186 0.23430 0.45956
 Zr545 Zr 0.75270 0.20951 0.51439
 O546 O 0.77552 0.22641 0.50001
 Zr547 Zr 0.72167 0.24815 0.51558
 O548 O 0.74285 0.26729 0.50133
 O549 O 0.76903 0.25545 0.47582
 O550 O 0.72351 0.21808 0.50764
 C551 C 0.81050 0.24556 0.48360
 C552 C 0.76597 0.25405 0.43116
 C553 C 0.77080 0.29672 0.48278
 C554 C 0.68303 0.22537 0.50188
 C555 C 0.72303 0.17655 0.49941
 C556 C 0.72217 0.21609 0.54988
 H557 H 0.75226 0.19289 0.47787
 H558 H 0.75310 0.24095 0.53867
 H559 H 0.77921 0.26329 0.46829
 H560 H 0.70404 0.25198 0.47951
 H561 H 0.70827 0.23017 0.44107
 H562 H 0.70860 0.26320 0.44602
 H563 H 0.77038 0.21489 0.54954
 H564 H 0.79501 0.23757 0.53209
 H565 H 0.73209 0.18809 0.45153
 H566 H 0.75734 0.20778 0.43590
 H567 H 0.73402 0.26718 0.54775
 H568 H 0.75954 0.28550 0.53065
 H569 H 0.79519 0.19852 0.48163
 H570 H 0.77274 0.17891 0.50124
 H571 H 0.72222 0.29459 0.48606
 H572 H 0.69369 0.27271 0.50415
 O573 O 0.78453 0.79386 0.00368
 O574 O 0.77990 0.78643 0.03881
 O575 O 0.81969 0.74266 -0.01538
 O576 O 0.81617 0.70975 -0.01632
 O577 O 0.77039 0.76308 -0.05316
 O578 O 0.73507 0.76046 -0.05054
 O579 O 0.76184 0.68700 0.02876
 O580 O 0.79548 0.69546 0.03192
 O581 O 0.72971 0.73693 0.05056
 O582 O 0.73060 0.77298 0.04261
 O583 O 0.71284 0.71016 -0.00427
 O584 O 0.72485 0.71100 -0.03948
 O585 O 0.74188 0.68498 0.00052
 O586 O 0.74800 0.69245 -0.03657
 O587 O 0.70793 0.73427 0.01976
 O588 O 0.71327 0.77147 0.01714
 O589 O 0.75332 0.71265 0.05358
 O590 O 0.79107 0.72038 0.05415
 O591 O 0.76569 0.79189 -0.02535
 O592 O 0.73071 0.78257 -0.02823
 O593 O 0.79523 0.74024 -0.04890
 O594 O 0.79411 0.70485 -0.03951
 O595 O 0.81448 0.76832 0.00692
 O596 O 0.80272 0.76513 0.04210
 Zr597 Zr 0.78434 0.76477 0.01568
 O598 O 0.76481 0.74666 0.03295
 Zr599 Zr 0.79142 0.72925 -0.01901
 O600 O 0.77270 0.70934 -0.00311
 Zr601 Zr 0.75478 0.76230 -0.02523
 O602 O 0.73421 0.74362 -0.01002
 Zr603 Zr 0.77221 0.71655 0.02820
 O604 O 0.79324 0.73473 0.01271
 Zr605 Zr 0.73550 0.74937 0.02161
 O606 O 0.75460 0.76959 0.00615
 Zr607 Zr 0.74300 0.71358 -0.01297
 O608 O 0.76210 0.73212 -0.03048
 O609 O 0.78428 0.75925 -0.01570
 O610 O 0.74269 0.71926 0.01832
 C611 C 0.77666 0.80154 -0.01247
 C612 C 0.82563 0.75794 -0.00507
 C613 C 0.78539 0.75292 -0.05969
 C614 C 0.75008 0.67748 0.01661
 C615 C 0.73766 0.72196 0.05971
 C616 C 0.70193 0.71943 0.00884
 H617 H 0.76558 0.75038 0.04758
 H618 H 0.72065 0.74587 -0.01563
 H619 H 0.79340 0.76811 -0.02346
 H620 H 0.77745 0.69553 -0.00533
 H621 H 0.80796 0.70201 0.02724
 H622 H 0.81228 0.69915 -0.00658
 H623 H 0.70585 0.76816 0.00445
 H624 H 0.72950 0.78955 -0.01491
 H625 H 0.78401 0.72862 0.06443
 H626 H 0.81026 0.75242 0.04209
 H627 H 0.71613 0.72292 -0.04009
 H628 H 0.73663 0.74685 -0.05627
 H629 H 0.76607 0.79144 0.03701
 H630 H 0.74096 0.77211 0.05342
 H631 H 0.78280 0.70577 -0.04928
 H632 H 0.75945 0.68402 -0.03241
 O633 O 1.04226 0.24908 0.21054
 O634 O 1.04467 0.28337 0.22194
 O635 O 1.05169 0.21549 0.26459
 O636 O 1.03875 0.21455 0.29668
 O637 O 1.00506 0.20146 0.22421
 O638 O 0.97091 0.21381 0.22069
 O639 O 0.99541 0.27341 0.31197
 O640 O 1.02910 0.26222 0.31451
 O641 O 0.98885 0.30660 0.26064
 O642 O 0.99789 0.30281 0.22383
 O643 O 0.94893 0.25988 0.27104
 O644 O 0.94974 0.22440 0.26775
 O645 O 0.96795 0.25529 0.30286
 O646 O 0.96755 0.21751 0.29265
 O647 O 0.95925 0.28624 0.25186
 O648 O 0.97396 0.28573 0.21620
 O649 O 1.00773 0.30059 0.28907
 O650 O 1.04108 0.28616 0.29434
 O651 O 1.01414 0.23193 0.20115
 O652 O 0.97852 0.23844 0.20171
 O653 O 1.02171 0.19455 0.25393
 O654 O 1.00943 0.19915 0.28982
 O655 O 1.06170 0.24086 0.24375
 O656 O 1.06065 0.27695 0.24943
 Zr657 Zr 1.03607 0.25899 0.24051
 O658 O 1.01823 0.27967 0.25635
 Zr659 Zr 1.02140 0.22159 0.27050
 O660 O 1.00330 0.24085 0.28812
 Zr661 Zr 0.99621 0.23159 0.22765
 O662 O 0.97666 0.25089 0.24331
 Zr663 Zr 1.01470 0.27006 0.28678
 O664 O 1.03444 0.25033 0.27152
 Zr665 Zr 0.98911 0.27971 0.24404
 O666 O 1.00771 0.26089 0.22631
 Zr667 Zr 0.97492 0.24251 0.27427
 O668 O 0.99234 0.22144 0.25790
 O669 O 1.02466 0.23030 0.24019
 O670 O 0.98594 0.27157 0.27454
 C671 C 1.03181 0.23880 0.19773
 C672 C 1.06467 0.22418 0.25309
 C673 C 1.01556 0.19000 0.23584
 C674 C 0.97747 0.26713 0.31498
 C675 C 0.99694 0.31191 0.27767
 C676 C 0.94606 0.27695 0.26257
 H677 H 1.02453 0.29300 0.25553
 H678 H 0.96337 0.25068 0.23662
 H679 H 1.03355 0.22146 0.23225
 H680 H 1.00245 0.23619 0.30246
 H681 H 1.04061 0.25366 0.31078
 H682 H 1.03243 0.22109 0.30861
 H683 H 0.96225 0.27671 0.21534
 H684 H 0.98263 0.25196 0.19723
 H685 H 1.04405 0.29543 0.28296
 H686 H 1.06442 0.27270 0.26343
 H687 H 0.94716 0.22546 0.25287
 H688 H 0.96859 0.20512 0.23273
 H689 H 1.03334 0.28589 0.21249
 H690 H 1.01040 0.30875 0.22923
 H691 H 0.99742 0.19370 0.28287
 H692 H 0.97375 0.21941 0.30629
 O693 O 0.69269 1.00941 0.72952
 O694 O 0.69947 1.00830 0.76581
 O695 O 0.74954 1.03174 0.70715
 O696 O 0.78146 1.02195 0.70740
 O697 O 0.71888 0.98284 0.67768
 O698 O 0.71817 0.94747 0.68475
 O699 O 0.79462 0.97177 0.76076
 O700 O 0.79207 1.00731 0.75725
 O701 O 0.73910 0.95457 0.78685
 O702 O 0.70382 0.95994 0.77767
 O703 O 0.76286 0.92440 0.73735
 O704 O 0.76215 0.93075 0.69890
 O705 O 0.79212 0.94751 0.73652
 O706 O 0.78642 0.94881 0.69971
 O707 O 0.73717 0.92723 0.75996
 O708 O 0.70204 0.93881 0.75611
 O709 O 0.76670 0.97445 0.78762
 O710 O 0.76933 1.00975 0.78136
 O711 O 0.69061 0.98413 0.70626
 O712 O 0.69517 0.94911 0.70625
 O713 O 0.74627 1.00311 0.67796
 O714 O 0.78123 0.99621 0.68734
 O715 O 0.72372 1.03458 0.72960
 O716 O 0.72382 1.02815 0.76554
 Zr717 Zr 0.72141 1.00592 0.74263
 O718 O 0.73620 0.98670 0.76320
 Zr719 Zr 0.75750 1.00129 0.70816
 O720 O 0.77396 0.98189 0.72732
 Zr721 Zr 0.71866 0.97028 0.70717
 O722 O 0.73319 0.94950 0.72620
 Zr723 Zr 0.76734 0.98756 0.75822
 O724 O 0.75268 1.00876 0.73918
 Zr725 Zr 0.72798 0.95703 0.75693
 O726 O 0.71141 0.97641 0.73789
 Zr727 Zr 0.76427 0.95232 0.72256
 O728 O 0.74960 0.97152 0.70157
 O729 O 0.72665 0.99997 0.71191
 O730 O 0.75902 0.95794 0.75346
 C731 C 0.68316 0.99894 0.71612
 C732 C 0.73590 1.04191 0.71635
 C733 C 0.73102 0.99511 0.66908
 C734 C 0.80142 0.95641 0.75114
 C735 C 0.75432 0.96219 0.79599
 C736 C 0.75141 0.91745 0.75147
 H737 H 0.73271 0.99050 0.77737
 H738 H 0.72844 0.93587 0.72296
 H739 H 0.71921 1.00933 0.70297
 H740 H 0.78843 0.98353 0.72461
 H741 H 0.78728 1.01985 0.75087
 H742 H 0.79187 1.01699 0.71690
 H743 H 0.70364 0.92900 0.74490
 H744 H 0.68858 0.94961 0.71981
 H745 H 0.75591 1.01145 0.78743
 H746 H 0.73785 1.03294 0.76525
 H747 H 0.75019 0.92241 0.70151
 H748 H 0.73170 0.94707 0.67863
 H749 H 0.69124 0.99602 0.76499
 H750 H 0.70642 0.97177 0.78637
 H751 H 0.77793 0.98387 0.67967
 H752 H 0.79561 0.96037 0.70069
 O753 O 0.80200 0.48967 0.28405
 O754 O 0.80282 0.52517 0.28043
 O755 O 0.75134 0.47942 0.32200
 O756 O 0.71872 0.48627 0.32143
 O757 O 0.76146 0.44467 0.26820
 O758 O 0.75395 0.44991 0.23268
 O759 O 0.70261 0.53940 0.26945
 O760 O 0.71220 0.53621 0.30451
 O761 O 0.75384 0.55209 0.23666
 O762 O 0.78591 0.53643 0.23150
 O763 O 0.71277 0.50760 0.21832
 O764 O 0.70853 0.47164 0.22738
 O765 O 0.69250 0.51404 0.24869
 O766 O 0.69219 0.47682 0.25314
 O767 O 0.74090 0.52573 0.21196
 O768 O 0.77735 0.51389 0.21288
 O769 O 0.73350 0.55863 0.26375
 O770 O 0.74063 0.55302 0.30080
 O771 O 0.79365 0.46661 0.25978
 O772 O 0.77938 0.46698 0.22598
 O773 O 0.74218 0.45105 0.29612
 O774 O 0.70799 0.46611 0.29703
 O775 O 0.77913 0.49848 0.31673
 O776 O 0.78498 0.53219 0.30542
 Zr777 Zr 0.77669 0.50822 0.28605
 O778 O 0.76111 0.52991 0.26909
 Zr779 Zr 0.73545 0.48174 0.29434
 O780 O 0.71777 0.50277 0.27846
 Zr781 Zr 0.76333 0.47245 0.25329
 O782 O 0.74656 0.49249 0.23526
 Zr783 Zr 0.73133 0.53110 0.27929
 O784 O 0.74748 0.51075 0.29783
 Zr785 Zr 0.75895 0.52119 0.23819
 O786 O 0.77699 0.50077 0.25463
 Zr787 Zr 0.71749 0.49501 0.24729
 O788 O 0.73348 0.47279 0.26353
 O789 O 0.76484 0.47967 0.28426
 O790 O 0.72961 0.52366 0.24844
 C791 C 0.80602 0.47467 0.27245
 C792 C 0.76788 0.48734 0.32792
 C793 C 0.75282 0.43935 0.28492
 C794 C 0.68994 0.53113 0.25726
 C795 C 0.74320 0.56391 0.24764
 C796 C 0.72318 0.51963 0.20735
 H797 H 0.76807 0.54287 0.27060
 H798 H 0.74638 0.48800 0.22084
 H799 H 0.77292 0.47016 0.29240
 H800 H 0.70413 0.50328 0.28428
 H801 H 0.71804 0.52888 0.31626
 H802 H 0.70872 0.49676 0.31848
 H803 H 0.76980 0.50471 0.20382
 H804 H 0.78832 0.47861 0.22396
 H805 H 0.75311 0.55923 0.29574
 H806 H 0.77321 0.53510 0.31410
 H807 H 0.71867 0.47049 0.21643
 H808 H 0.73978 0.44701 0.23596
 H809 H 0.80683 0.52228 0.26614
 H810 H 0.78986 0.54387 0.24397
 H811 H 0.70706 0.45688 0.28520
 H812 H 0.68586 0.48167 0.26589
 O813 O 0.56941 0.22614 0.76767
 O814 O 0.55823 0.22791 0.80283
 O815 O 0.52118 0.19830 0.73671
 O816 O 0.48850 0.20338 0.73169
 O817 O 0.54631 0.25362 0.71188
 O818 O 0.54552 0.28766 0.72237
 O819 O 0.46008 0.24821 0.78057
 O820 O 0.46865 0.21449 0.77969
 O821 O 0.50492 0.27597 0.81634
 O822 O 0.54352 0.27254 0.81480
 O823 O 0.49027 0.30307 0.76217
 O824 O 0.49484 0.29561 0.72547
 O825 O 0.46299 0.27558 0.76017
 O826 O 0.47369 0.27466 0.72348
 O827 O 0.51037 0.30274 0.79039
 O828 O 0.54537 0.29616 0.79468
 O829 O 0.48102 0.25235 0.81091
 O830 O 0.48880 0.21525 0.80639
 O831 O 0.57155 0.24987 0.74279
 O832 O 0.56459 0.28540 0.74772
 O833 O 0.52457 0.22767 0.70845
 O834 O 0.48832 0.22928 0.71167
 O835 O 0.54117 0.19797 0.76500
 O836 O 0.53672 0.20530 0.80030
 Zr837 Zr 0.53914 0.22703 0.77696
 O838 O 0.51852 0.24345 0.79473
 Zr839 Zr 0.50884 0.22721 0.73634
 O840 O 0.48696 0.24357 0.75224
 Zr841 Zr 0.54283 0.26300 0.74240
 O842 O 0.52240 0.28109 0.75847
 Zr843 Zr 0.48947 0.23801 0.78375
 O844 O 0.50978 0.21971 0.76767
 Zr845 Zr 0.52316 0.27409 0.78992
 O846 O 0.54548 0.25768 0.77406
 Zr847 Zr 0.49288 0.27433 0.74935
 O848 O 0.51359 0.25795 0.73139
 O849 O 0.53803 0.23251 0.74559
 O850 O 0.49383 0.26866 0.78057
 C851 C 0.57903 0.23568 0.75367
 C852 C 0.53312 0.18954 0.74932
 C853 C 0.53800 0.23959 0.70144
 C854 C 0.45281 0.26366 0.77165
 C855 C 0.48855 0.26696 0.82107
 C856 C 0.49817 0.31135 0.77802
 H857 H 0.51987 0.23996 0.80936
 H858 H 0.52591 0.29521 0.75587
 H859 H 0.54733 0.22414 0.73751
 H860 H 0.47355 0.23990 0.74702
 H861 H 0.47610 0.20312 0.77370
 H862 H 0.47617 0.20664 0.73934
 H863 H 0.54787 0.30259 0.78129
 H864 H 0.57046 0.28273 0.76139
 H865 H 0.49526 0.22031 0.81903
 H866 H 0.52310 0.19958 0.79909
 H867 H 0.50637 0.30442 0.72853
 H868 H 0.53316 0.28790 0.71399
 H869 H 0.56438 0.24137 0.80307
 H870 H 0.53811 0.26308 0.82503
 H871 H 0.49012 0.24268 0.70554
 H872 H 0.46495 0.26275 0.72419
 O873 O 0.20014 0.71849 0.49604
 O874 O 0.21096 0.71409 0.46062
 O875 O 0.25309 0.69728 0.52806
 O876 O 0.28466 0.70705 0.53338
 O877 O 0.22099 0.75195 0.54466
 O878 O 0.22515 0.78629 0.53159
 O879 O 0.30798 0.74343 0.47505
 O880 O 0.30151 0.70985 0.48331
 O881 O 0.26128 0.76229 0.43744
 O882 O 0.22291 0.75563 0.44023
 O883 O 0.27496 0.79890 0.48444
 O884 O 0.27069 0.79639 0.52348
 O885 O 0.30380 0.77358 0.49057
 O886 O 0.29644 0.77936 0.52491
 O887 O 0.25306 0.79227 0.45860
 O888 O 0.21889 0.78169 0.45573
 O889 O 0.28582 0.74013 0.44537
 O890 O 0.28110 0.70448 0.45731
 O891 O 0.19735 0.74792 0.51327
 O892 O 0.20448 0.78201 0.50793
 O893 O 0.24553 0.72957 0.55207
 O894 O 0.28198 0.73512 0.54846
 O895 O 0.22946 0.69220 0.50337
 O896 O 0.23320 0.69279 0.46744
 Zr897 Zr 0.23030 0.71856 0.48590
 O898 O 0.24958 0.73254 0.46467
 Zr899 Zr 0.26193 0.72730 0.52458
 O900 O 0.28219 0.74214 0.50514
 Zr901 Zr 0.22622 0.75982 0.51389
 O902 O 0.24448 0.77584 0.49355
 Zr903 Zr 0.27924 0.73088 0.47527
 O904 O 0.26040 0.71459 0.49507
 Zr905 Zr 0.24319 0.76315 0.46404
 O906 O 0.22253 0.74895 0.48379
 Zr907 Zr 0.27454 0.77257 0.50253
 O908 O 0.25592 0.75818 0.52442
 O909 O 0.23218 0.72940 0.51559
 O910 O 0.27303 0.76130 0.47296
 C911 C 0.19007 0.73162 0.50614
 C912 C 0.24009 0.68638 0.51867
 C913 C 0.22975 0.73955 0.55674
 C914 C 0.31437 0.76063 0.48084
 C915 C 0.27769 0.75302 0.43344
 C916 C 0.26513 0.80388 0.46822
 H917 H 0.24803 0.72648 0.45096
 H918 H 0.24000 0.78991 0.49377
 H919 H 0.22299 0.72174 0.52450
 H920 H 0.29597 0.74045 0.51042
 H921 H 0.29482 0.69929 0.49143
 H922 H 0.29630 0.70948 0.52440
 H923 H 0.21708 0.79150 0.46691
 H924 H 0.19929 0.77938 0.49397
 H925 H 0.27301 0.70625 0.44473
 H926 H 0.24734 0.68853 0.46868
 H927 H 0.25940 0.80459 0.51846
 H928 H 0.23642 0.78566 0.54145
 H929 H 0.20387 0.72688 0.45838
 H930 H 0.22951 0.74597 0.43096
 H931 H 0.27760 0.74822 0.55389
 H932 H 0.29916 0.76685 0.53243
 O933 O 0.24577 0.20559 1.03252
 O934 O 0.28021 0.21706 1.03577
 O935 O 0.21174 0.25596 1.05085
 O936 O 0.20824 0.28785 1.04126
 O937 O 0.19673 0.22431 0.99435
 O938 O 0.21174 0.22376 0.96093
 O939 O 0.26285 0.31200 1.00144
 O940 O 0.25576 0.30701 1.03614
 O941 O 0.30221 0.26372 0.98647
 O942 O 0.29842 0.22598 0.99113
 O943 O 0.25657 0.27972 0.94799
 O944 O 0.21946 0.27092 0.94686
 O945 O 0.24590 0.30653 0.97163
 O946 O 0.21148 0.29361 0.96619
 O947 O 0.28240 0.25883 0.95529
 O948 O 0.28360 0.22324 0.96396
 O949 O 0.29317 0.29029 1.00601
 O950 O 0.28152 0.28798 1.04245
 O951 O 0.22703 0.20009 1.00392
 O952 O 0.23585 0.20468 0.96837
 O953 O 0.18986 0.24875 1.01753
 O954 O 0.19286 0.28457 1.01176
 O955 O 0.23904 0.23680 1.05789
 O956 O 0.27380 0.23959 1.05626
 Zr957 Zr 0.25512 0.23557 1.03042
 O958 O 0.27510 0.25463 1.01507
 Zr959 Zr 0.21642 0.26513 1.02033
 O960 O 0.23458 0.28535 1.00418
 Zr961 Zr 0.22768 0.22793 0.98861
 O962 O 0.24673 0.24654 0.97107
 Zr963 Zr 0.26392 0.28395 1.01563
 O964 O 0.24529 0.26533 1.03333
 Zr965 Zr 0.27561 0.24678 0.98400
 O966 O 0.25726 0.22612 0.99980
 Zr967 Zr 0.23707 0.27635 0.97332
 O968 O 0.21670 0.25740 0.98900
 O969 O 0.22589 0.23565 1.01944
 O970 O 0.26608 0.27636 0.98485
 C971 C 0.23494 0.19433 1.02095
 C972 C 0.22265 0.24543 1.06296
 C973 C 0.18482 0.23370 1.00648
 C974 C 0.25554 0.31776 0.98423
 C975 C 0.30577 0.28077 0.99485
 C976 C 0.27389 0.27218 0.94422
 H977 H 0.28854 0.25368 1.02133
 H978 H 0.24699 0.24201 0.95667
 H979 H 0.21693 0.22691 1.02753
 H980 H 0.22886 0.29890 1.00556
 H981 H 0.24783 0.30071 1.04720
 H982 H 0.21549 0.30014 1.03732
 H983 H 0.27277 0.22173 0.95373
 H984 H 0.24952 0.20050 0.97238
 H985 H 0.29347 0.27932 1.04156
 H986 H 0.27296 0.25393 1.05986
 H987 H 0.22632 0.26071 0.93846
 H988 H 0.20455 0.23641 0.95829
 H989 H 0.28201 0.20882 1.02331
 H990 H 0.30549 0.23081 1.00352
 H991 H 0.18854 0.28059 0.99782
 H992 H 0.20917 0.30286 0.97777
 C993 C 0.30262 0.36537 0.80191
 C994 C 0.29942 0.36122 0.78152
 C995 C 0.30521 0.34337 0.77244
 C996 C 0.31482 0.32922 0.78482
 C997 C 0.31856 0.33310 0.80589
 C998 C 0.31213 0.35144 0.81456
 O999 O 0.29677 0.38363 0.80721
 C1000 C 0.28978 0.39116 0.78976
 C1001 C 0.29110 0.37801 0.77361
 C1002 C 0.28579 0.38308 0.75370
 C1003 C 0.27910 0.40261 0.75019
 C1004 C 0.27768 0.41657 0.76651
 C1005 C 0.28280 0.41063 0.78668
 H1006 H 0.30267 0.34054 0.75631
 H1007 H 0.31948 0.31526 0.77797
 H1008 H 0.31505 0.35499 0.83047
 H1009 H 0.28724 0.37253 0.74121
 H1010 H 0.27531 0.40697 0.73469
 H1011 H 0.28235 0.42111 0.79932
 C1012 C 0.29645 -0.13951 0.28812
 C1013 C 0.28792 -0.12944 0.30423
 C1014 C 0.29079 -0.13492 0.32456
 C1015 C 0.30334 -0.15124 0.32849
 C1016 C 0.31236 -0.16198 0.31217
 C1017 C 0.30835 -0.15624 0.29165
 O1018 O 0.29332 -0.13075 0.27012
 C1019 C 0.28253 -0.11481 0.27500
 C1020 C 0.27869 -0.11348 0.29567
 C1021 C 0.26835 -0.09768 0.30437
 C1022 C 0.26164 -0.08260 0.29125
 C1023 C 0.26568 -0.08329 0.26986
 C1024 C 0.27630 -0.09970 0.26162
 H1025 H 0.28433 -0.12639 0.33699
 H1026 H 0.30668 -0.15502 0.34425
 H1027 H 0.31532 -0.16389 0.27891
 H1028 H 0.26578 -0.09683 0.32072
 H1029 H 0.25386 -0.07001 0.29794
 H1030 H 0.27984 -0.10053 0.24547
 C1031 C 0.79296 0.84793 0.78378
 C1032 C 0.77278 0.84392 0.78465
 C1033 C 0.76524 0.82615 0.79257
 C1034 C 0.77909 0.81192 0.79962
 C1035 C 0.80000 0.81579 0.79890
 C1036 C 0.80688 0.83427 0.79111
 O1037 O 0.79717 0.86548 0.77547
 C1038 C 0.77927 0.87277 0.77101
 C1039 C 0.76378 0.86030 0.77643
 C1040 C 0.74377 0.86550 0.77367
 C1041 C 0.73966 0.88435 0.76513
 C1042 C 0.75550 0.89724 0.75919
 C1043 C 0.77553 0.89124 0.76212
 H1044 H 0.74930 0.82324 0.79305
 H1045 H 0.77359 0.79779 0.80541
 H1046 H 0.82267 0.83785 0.79059
 H1047 H 0.73179 0.85557 0.77822
 H1048 H 0.72424 0.88894 0.76314
 H1049 H 0.78783 0.90099 0.75830
 C1050 C 0.46065 0.90390 0.29020
 C1051 C 0.48060 0.90811 0.29327
 C1052 C 0.48722 0.92672 0.29999
 C1053 C 0.47271 0.94151 0.30360
 C1054 C 0.45199 0.93742 0.30077
 C1055 C 0.44600 0.91819 0.29411
 O1056 O 0.45741 0.88561 0.28317
 C1057 C 0.47569 0.87805 0.28179
 C1058 C 0.49047 0.89107 0.28794
 C1059 C 0.51069 0.88586 0.28787
 C1060 C 0.51579 0.86655 0.28103
 C1061 C 0.50073 0.85321 0.27407
 C1062 C 0.48045 0.85908 0.27465
 H1063 H 0.50300 0.92983 0.30211
 H1064 H 0.47756 0.95620 0.30850
 H1065 H 0.43036 0.91451 0.29193
 H1066 H 0.52211 0.89627 0.29289
 H1067 H 0.53137 0.86214 0.28073
 H1068 H 0.46867 0.84905 0.26984
 C1069 C -0.03763 0.88906 0.79102
 C1070 C -0.02764 0.88262 0.80819
 C1071 C -0.03149 0.89012 0.82763
 C1072 C -0.04630 0.90481 0.82949
 C1073 C -0.05653 0.91239 0.81198
 C1074 C -0.05167 0.90450 0.79236
 O1075 O -0.03352 0.87821 0.77446
 C1076 C -0.02058 0.86469 0.78137
 C1077 C -0.01624 0.86704 0.80184
 C1078 C -0.00382 0.85411 0.81254
 C1079 C 0.00402 0.83772 0.80191
 C1080 C -0.00107 0.83414 0.78104
 C1081 C -0.01323 0.84818 0.77052
 H1082 H -0.02400 0.88421 0.84103
 H1083 H -0.05011 0.90988 0.84473
 H1084 H -0.05921 0.90963 0.77865
 H1085 H -0.00080 0.85619 0.82870
 H1086 H 0.01302 0.82713 0.81042
 H1087 H -0.01776 0.84575 0.75478
 C1088 C -0.05651 -0.12418 -0.04230
 C1089 C -0.05632 -0.11454 -0.06091
 C1090 C -0.05908 -0.12443 -0.07942
 C1091 C -0.06160 -0.14519 -0.07878
 C1092 C -0.06114 -0.15567 -0.05988
 C1093 C -0.05905 -0.14491 -0.04131
 O1094 O -0.05252 -0.11208 -0.02665
 C1095 C -0.04961 -0.09450 -0.03563
 C1096 C -0.05166 -0.09527 -0.05660
 C1097 C -0.04783 -0.07899 -0.06922
 C1098 C -0.04164 -0.06116 -0.05986
 C1099 C -0.03964 -0.05988 -0.03826
 C1100 C -0.04390 -0.07674 -0.02594
 H1101 H -0.05870 -0.11653 -0.09388
 H1102 H -0.06316 -0.15329 -0.09306
 H1103 H -0.05817 -0.15261 -0.02676
 H1104 H -0.04923 -0.08007 -0.08571
 H1105 H -0.03858 -0.04829 -0.06941
 H1106 H -0.04223 -0.07620 -0.00945
 C1107 C -0.04733 0.35791 0.46283
 C1108 C -0.04646 0.35536 0.48371
 C1109 C -0.05148 0.33748 0.49319
 C1110 C -0.05795 0.32165 0.48069
 C1111 C -0.05974 0.32400 0.45910
 C1112 C -0.05398 0.34245 0.45011
 O1113 O -0.04187 0.37610 0.45690
 C1114 C -0.03757 0.38526 0.47444
 C1115 C -0.04028 0.37326 0.49131
 C1116 C -0.03735 0.38005 0.51124
 C1117 C -0.03130 0.39999 0.51390
 C1118 C -0.02802 0.41259 0.49675
 C1119 C -0.03117 0.40503 0.47671
 H1120 H -0.05050 0.33576 0.50965
 H1121 H -0.06178 0.30761 0.48789
 H1122 H -0.05510 0.34492 0.43377
 H1123 H -0.03978 0.37039 0.52429
 H1124 H -0.02891 0.40553 0.52931
 H1125 H -0.02903 0.41434 0.46333
 C1126 C 0.43756 -0.12579 0.45776
 C1127 C 0.43504 -0.11351 0.44106
 C1128 C 0.43076 -0.12063 0.42153
 C1129 C 0.42935 -0.14134 0.41898
 C1130 C 0.43219 -0.15439 0.43581
 C1131 C 0.43601 -0.14652 0.45557
 O1132 O 0.44276 -0.11592 0.47466
 C1133 C 0.44363 -0.09703 0.46844
 C1134 C 0.43904 -0.09486 0.44798
 C1135 C 0.44018 -0.07671 0.43779
 C1136 C 0.44645 -0.06009 0.44909
 C1137 C 0.45138 -0.06183 0.47015
 C1138 C 0.44964 -0.08049 0.48013
 H1139 H 0.42913 -0.11063 0.40862
 H1140 H 0.42654 -0.14736 0.40384
 H1141 H 0.43867 -0.15630 0.46849
 H1142 H 0.43671 -0.07545 0.42164
 H1143 H 0.44746 -0.04577 0.44149
 H1144 H 0.45354 -0.08218 0.49615
 C1145 C 0.46653 0.36586 -0.04242
 C1146 C 0.47114 0.36150 -0.02235
 C1147 C 0.46568 0.34364 -0.01302
 C1148 C 0.45456 0.32994 -0.02468
 C1149 C 0.44911 0.33433 -0.04519
 C1150 C 0.45567 0.35231 -0.05435
 O1151 O 0.47121 0.38444 -0.04767
 C1152 C 0.47880 0.39203 -0.03053
 C1153 C 0.47906 0.37861 -0.01456
 C1154 C 0.48421 0.38401 0.00534
 C1155 C 0.48903 0.40410 0.00901
 C1156 C 0.48879 0.41823 -0.00717
 C1157 C 0.48401 0.41200 -0.02731
 H1158 H 0.46903 0.34076 0.00294
 H1159 H 0.44925 0.31634 -0.01754
 H1160 H 0.45097 0.35630 -0.06969
 H1161 H 0.48375 0.37332 0.01777
 H1162 H 0.49248 0.40879 0.02451
 H1163 H 0.48299 0.42264 -0.03976
 C1164 C 0.79126 0.37912 0.46003
 C1165 C 0.80845 0.36786 0.46092
 C1166 C 0.82740 0.37581 0.45780
 C1167 C 0.82881 0.39635 0.45418
 C1168 C 0.81147 0.40859 0.45399
 C1169 C 0.79233 0.39975 0.45648
 O1170 O 0.77483 0.36854 0.46405
 C1171 C 0.78190 0.35029 0.46770
 C1172 C 0.80241 0.34923 0.46613
 C1173 C 0.81319 0.33200 0.47037
 C1174 C 0.80240 0.31507 0.47634
 C1175 C 0.78125 0.31549 0.47778
 C1176 C 0.77077 0.33335 0.47322
 H1177 H 0.84068 0.36660 0.45862
 H1178 H 0.84348 0.40296 0.45225
 H1179 H 0.77893 0.40881 0.45671
 H1180 H 0.82935 0.33163 0.46921
 H1181 H 0.81046 0.30140 0.47935
 H1182 H 0.75461 0.33407 0.47424
 C1183 C 0.79328 0.87803 -0.05243
 C1184 C 0.79437 0.88079 -0.03158
 C1185 C 0.79902 0.89910 -0.02270
 C1186 C 0.80264 0.91526 -0.03585
 C1187 C 0.80188 0.91282 -0.05747
 C1188 C 0.79714 0.89382 -0.06579
 O1189 O 0.78843 0.85947 -0.05770
 C1190 C 0.78648 0.85031 -0.03977
 C1191 C 0.79007 0.86269 -0.02332
 C1192 C 0.78933 0.85611 -0.00315
 C1193 C 0.78481 0.83591 0.00022
 C1194 C 0.78086 0.82284 -0.01646
 C1195 C 0.78159 0.83023 -0.03676
 H1196 H 0.79966 0.90092 -0.00623
 H1197 H 0.80590 0.92972 -0.02920
 H1198 H 0.79650 0.89144 -0.08219
 H1199 H 0.79232 0.86611 0.00953
 H1200 H 0.78429 0.83048 0.01583
 H1201 H 0.77892 0.82057 -0.04980
 C1202 C 0.80635 0.28189 0.35748
 C1203 C 0.78735 0.27580 0.35212
 C1204 C 0.77883 0.27997 0.33315
 C1205 C 0.79000 0.29162 0.31949
 C1206 C 0.80916 0.29895 0.32505
 C1207 C 0.81778 0.29336 0.34400
 O1208 O 0.81082 0.27814 0.37694
 C1209 C 0.79423 0.26972 0.38406
 C1210 C 0.77937 0.26808 0.36951
 C1211 C 0.75999 0.26198 0.37418
 C1212 C 0.75579 0.25732 0.39468
 C1213 C 0.77094 0.25859 0.40982
 C1214 C 0.79050 0.26463 0.40444
 H1215 H 0.76369 0.27541 0.32947
 H1216 H 0.78322 0.29625 0.30518
 H1217 H 0.83199 0.29955 0.34889
 H1218 H 0.74838 0.26142 0.36260
 H1219 H 0.74075 0.25280 0.39881
 H1220 H 0.80212 0.26621 0.41593
 C1221 C 0.79933 0.78585 -0.14133
 C1222 C 0.80521 0.76617 -0.14137
 C1223 C 0.81309 0.75679 -0.15855
 C1224 C 0.81532 0.76829 -0.17634
 C1225 C 0.81002 0.78883 -0.17652
 C1226 C 0.80164 0.79761 -0.15877
 O1227 O 0.79222 0.79186 -0.12339
 C1228 C 0.79376 0.77565 -0.11182
 C1229 C 0.80177 0.75957 -0.12205
 C1230 C 0.80536 0.74129 -0.11268
 C1231 C 0.80030 0.73945 -0.09194
 C1232 C 0.79159 0.75566 -0.08114
 C1233 C 0.78829 0.77404 -0.09128
 H1234 H 0.81750 0.74124 -0.15823
 H1235 H 0.82153 0.76137 -0.18991
 H1236 H 0.79762 0.81326 -0.15841
 H1237 H 0.81185 0.72892 -0.12102
 H1238 H 0.80279 0.72525 -0.08440
 H1239 H 0.78183 0.78672 -0.08338
 C1240 C 0.30323 0.45211 0.88699
 C1241 C 0.32127 0.45467 0.87723
 C1242 C 0.33946 0.44980 0.88631
 C1243 C 0.33903 0.44218 0.90633
 C1244 C 0.32062 0.43997 0.91703
 C1245 C 0.30248 0.44489 0.90698
 O1246 O 0.28764 0.45727 0.87556
 C1247 C 0.29601 0.46332 0.85824
 C1248 C 0.31657 0.46217 0.85850
 C1249 C 0.32834 0.46812 0.84204
 C1250 C 0.31849 0.47545 0.82458
 C1251 C 0.29726 0.47639 0.82382
 C1252 C 0.28591 0.47020 0.84094
 H1253 H 0.35347 0.45168 0.87823
 H1254 H 0.35303 0.43797 0.91348
 H1255 H 0.28818 0.44335 0.91458
 H1256 H 0.34451 0.46714 0.84260
 H1257 H 0.32735 0.47996 0.81149
 H1258 H 0.26971 0.47080 0.84081
 C1259 C 0.28586 -0.04195 0.37426
 C1260 C 0.29864 -0.05159 0.36105
 C1261 C 0.31282 -0.06542 0.36755
 C1262 C 0.31380 -0.06954 0.38859
 C1263 C 0.30100 -0.05959 0.40248
 C1264 C 0.28693 -0.04550 0.39529
 O1265 O 0.27292 -0.03003 0.36479
 C1266 C 0.27771 -0.03213 0.34517
 C1267 C 0.29347 -0.04504 0.34213
 C1268 C 0.30099 -0.04953 0.32286
 C1269 C 0.29192 -0.04030 0.30601
 C1270 C 0.27553 -0.02715 0.30869
 C1271 C 0.26818 -0.02304 0.32851
 H1272 H 0.32252 -0.07299 0.35680
 H1273 H 0.32443 -0.08046 0.39418
 H1274 H 0.27684 -0.03803 0.40574
 H1275 H 0.31332 -0.05982 0.32086
 H1276 H 0.29728 -0.04378 0.29076
 H1277 H 0.25554 -0.01319 0.33082
 C1278 C -0.05490 -0.03835 -0.14368
 C1279 C -0.07265 -0.03506 -0.13365
 C1280 C -0.09060 -0.04378 -0.13966
 C1281 C -0.09027 -0.05642 -0.15677
 C1282 C -0.07232 -0.05961 -0.16799
 C1283 C -0.05438 -0.05021 -0.16131
 O1284 O -0.03928 -0.02994 -0.13437
 C1285 C -0.04744 -0.02104 -0.11820
 C1286 C -0.06786 -0.02349 -0.11730
 C1287 C -0.07949 -0.01571 -0.10161
 C1288 C -0.06965 -0.00520 -0.08600
 C1289 C -0.04848 -0.00310 -0.08602
 C1290 C -0.03722 -0.01104 -0.10249
 H1291 H -0.10426 -0.04141 -0.13112
 H1292 H -0.10399 -0.06391 -0.16118
 H1293 H -0.04040 -0.05252 -0.16932
 H1294 H -0.09554 -0.01795 -0.10121
 H1295 H -0.07847 0.00040 -0.07334
 H1296 H -0.02105 -0.00995 -0.10275
 C1297 C -0.05057 0.44715 0.37228
 C1298 C -0.05521 0.46715 0.37252
 C1299 C -0.06236 0.47725 0.35542
 C1300 C -0.06499 0.46623 0.33733
 C1301 C -0.06089 0.44543 0.33682
 C1302 C -0.05351 0.43583 0.35463
 O1303 O -0.04326 0.44060 0.38997
 C1304 C -0.04338 0.45682 0.40167
 C1305 C -0.05076 0.47340 0.39175
 C1306 C -0.05237 0.49195 0.40110
 C1307 C -0.04586 0.49358 0.42144
 C1308 C -0.03760 0.47686 0.43186
 C1309 C -0.03647 0.45817 0.42182
 H1310 H -0.06562 0.49308 0.35592
 H1311 H -0.07032 0.47381 0.32374
 H1312 H -0.05026 0.41999 0.35473
 H1313 H -0.05828 0.50475 0.39298
 H1314 H -0.04667 0.50804 0.42884
 H1315 H -0.03026 0.44517 0.42937
 C1316 C 0.44864 -0.02950 0.35789
 C1317 C 0.44275 -0.00986 0.35662
 C1318 C 0.43534 -0.00150 0.33865
 C1319 C 0.43386 -0.01391 0.32133
 C1320 C 0.43929 -0.03442 0.32239
 C1321 C 0.44684 -0.04219 0.34105
 O1322 O 0.45555 -0.03450 0.37625
 C1323 C 0.45388 -0.01768 0.38687
 C1324 C 0.44595 -0.00219 0.37567
 C1325 C 0.44224 0.01654 0.38412
 C1326 C 0.44681 0.01934 0.40496
 C1327 C 0.45530 0.00365 0.41673
 C1328 C 0.45905 -0.01506 0.40740
 H1329 H 0.43097 0.01405 0.33793
 H1330 H 0.42843 -0.00762 0.30710
 H1331 H 0.45106 -0.05774 0.34246
 H1332 H 0.43581 0.02847 0.37508
 H1333 H 0.44386 0.03374 0.41189
 H1334 H 0.46542 -0.02736 0.41594
 C1335 C 0.45734 0.45150 -0.12840
 C1336 C 0.43962 0.45514 -0.11844
 C1337 C 0.42105 0.45068 -0.12690
 C1338 C 0.42067 0.44230 -0.14658
 C1339 C 0.43867 0.43893 -0.15764
 C1340 C 0.45731 0.44344 -0.14817
 O1341 O 0.47336 0.45661 -0.11741
 C1342 C 0.46553 0.46373 -0.10018
 C1343 C 0.44493 0.46326 -0.10017
 C1344 C 0.43353 0.47031 -0.08397
 C1345 C 0.44374 0.47811 -0.06700
 C1346 C 0.46502 0.47853 -0.06633
 C1347 C 0.47608 0.47113 -0.08321
 H1348 H 0.40732 0.45345 -0.11859
 H1349 H 0.40630 0.43844 -0.15318
 H1350 H 0.47132 0.44101 -0.15606
 H1351 H 0.41734 0.46981 -0.08436
 H1352 H 0.43500 0.48340 -0.05414
 H1353 H 0.49228 0.47122 -0.08315
 C1354 C 0.45444 0.80310 0.38413
 C1355 C 0.47432 0.80776 0.38689
 C1356 C 0.48159 0.81710 0.40445
 C1357 C 0.46773 0.82203 0.41973
 C1358 C 0.44716 0.81748 0.41724
 C1359 C 0.44044 0.80769 0.39926
 O1360 O 0.45055 0.79528 0.36582
 C1361 C 0.46837 0.79504 0.35683
 C1362 C 0.48338 0.80251 0.36913
 C1363 C 0.50300 0.80459 0.36256
 C1364 C 0.50737 0.79887 0.34243
 C1365 C 0.49219 0.79124 0.32925
 C1366 C 0.47241 0.78908 0.33672
 H1367 H 0.49726 0.82088 0.40611
 H1368 H 0.47285 0.82971 0.43338
 H1369 H 0.42470 0.80457 0.39685
 H1370 H 0.51449 0.81070 0.37248
 H1371 H 0.52262 0.80056 0.33709
 H1372 H 0.46044 0.78361 0.32701
 C1373 C -0.04073 0.79460 0.89489
 C1374 C -0.02077 0.79961 0.89591
 C1375 C -0.01278 0.81139 0.91148
 C1376 C -0.02596 0.81849 0.92650
 C1377 C -0.04660 0.81364 0.92570
 C1378 C -0.05404 0.80129 0.90983
 O1379 O -0.04550 0.78447 0.87807
 C1380 C -0.02818 0.78308 0.86823
 C1381 C -0.01259 0.79207 0.87854
 C1382 C 0.00659 0.79344 0.87050
 C1383 C 0.00982 0.78542 0.85094
 C1384 C -0.00606 0.77629 0.83978
 C1385 C -0.02528 0.77487 0.84879
 H1386 H 0.00291 0.81542 0.91174
 H1387 H -0.02031 0.82813 0.93852
 H1388 H -0.06985 0.79789 0.90868
 H1389 H 0.01855 0.80082 0.87879
 H1390 H 0.02463 0.78669 0.84437
 H1391 H -0.03782 0.76838 0.84059
 C1392 C 0.37488 0.80719 0.29051
 C1393 C 0.38201 0.82540 0.28406
 C1394 C 0.37217 0.84323 0.28797
 C1395 C 0.35422 0.84226 0.29898
 C1396 C 0.34602 0.82358 0.30522
 C1397 C 0.35656 0.80577 0.30063
 O1398 O 0.38741 0.79225 0.28674
 C1399 C 0.40269 0.80126 0.27759
 C1400 C 0.39995 0.82148 0.27526
 C1401 C 0.41402 0.83381 0.26600
 C1402 C 0.43184 0.82498 0.25921
 C1403 C 0.43559 0.80437 0.26257
 C1404 C 0.42058 0.79229 0.27159
 H1405 H 0.37839 0.85744 0.28326
 H1406 H 0.34679 0.85612 0.30281
 H1407 H 0.35089 0.79131 0.30525
 H1408 H 0.41141 0.84966 0.26413
 H1409 H 0.44291 0.83433 0.25187
 H1410 H 0.42288 0.77649 0.27421
 C1411 C -0.13124 0.79234 0.79568
 C1412 C -0.13066 0.79487 0.77480
 C1413 C -0.14761 0.79889 0.76314
 C1414 C -0.16593 0.80049 0.77347
 C1415 C -0.16689 0.79857 0.79513
 C1416 C -0.14916 0.79444 0.80631
 O1417 O -0.11360 0.78766 0.80375
 C1418 C -0.10158 0.78733 0.78760
 C1419 C -0.11126 0.79189 0.76956
 C1420 C -0.10156 0.79256 0.75079
 C1421 C -0.08107 0.78811 0.75055
 C1422 C -0.07087 0.78271 0.76883
 C1423 C -0.08129 0.78240 0.78766
 H1424 H -0.14682 0.80047 0.74666
 H1425 H -0.17938 0.80324 0.76464
 H1426 H -0.14932 0.79290 0.82282
 H1427 H -0.10949 0.79623 0.73682
 H1428 H -0.07331 0.78822 0.73600
 H1429 H -0.07387 0.77833 0.80182
 C1430 C 0.88742 0.28490 0.47173
 C1431 C 0.88924 0.26551 0.46496
 C1432 C 0.90559 0.25890 0.45374
 C1433 C 0.92046 0.27293 0.44892
 C1434 C 0.91860 0.29322 0.45502
 C1435 C 0.90195 0.29915 0.46693
 O1436 O 0.87009 0.28844 0.48095
 C1437 C 0.86070 0.27098 0.47978
 C1438 C 0.87169 0.25648 0.47000
 C1439 C 0.86387 0.23778 0.46518
 C1440 C 0.84381 0.23401 0.47032
 C1441 C 0.83216 0.24875 0.48039
 C1442 C 0.84101 0.26727 0.48571
 H1443 H 0.90658 0.24364 0.44832
 H1444 H 0.93305 0.26827 0.43966
 H1445 H 0.89976 0.31463 0.47117
 H1446 H 0.87264 0.22678 0.45701
 H1447 H 0.83725 0.21978 0.46610
 H1448 H 0.83252 0.27888 0.49321
 C1449 C 0.89493 0.80384 -0.03158
 C1450 C 0.90125 0.78484 -0.02686
 C1451 C 0.92030 0.77793 -0.03150
 C1452 C 0.93327 0.79100 -0.04173
 C1453 C 0.92700 0.81052 -0.04742
 C1454 C 0.90759 0.81710 -0.04184
 O1455 O 0.87585 0.80700 -0.02693
 C1456 C 0.86999 0.78959 -0.01923
 C1457 C 0.88496 0.77549 -0.01894
 C1458 C 0.88165 0.75571 -0.01334
 C1459 C 0.86205 0.75017 -0.00808
 C1460 C 0.84641 0.76445 -0.00818
 C1461 C 0.85051 0.78452 -0.01349
 H1462 H 0.92487 0.76285 -0.02779
 H1463 H 0.94809 0.78575 -0.04568
 H1464 H 0.90216 0.83169 -0.04627
 H1465 H 0.89356 0.74477 -0.01374
 H1466 H 0.85893 0.73472 -0.00432
 H1467 H 0.83865 0.79550 -0.01439
 C1468 C -0.14774 -0.04630 -0.05048
 C1469 C -0.15249 -0.02645 -0.05279
 C1470 C -0.17054 -0.02006 -0.06113
 C1471 C -0.18434 -0.03475 -0.06720
 C1472 C -0.17981 -0.05537 -0.06504
 C1473 C -0.16113 -0.06115 -0.05663
 O1474 O -0.12984 -0.04918 -0.04211
 C1475 C -0.12314 -0.03073 -0.03908
 C1476 C -0.13641 -0.01629 -0.04542
 C1477 C -0.13227 0.00402 -0.04408
 C1478 C -0.11360 0.00968 -0.03606
 C1479 C -0.09963 -0.00492 -0.02938
 C1480 C -0.10461 -0.02544 -0.03078
 H1481 H -0.17396 -0.00434 -0.06273
 H1482 H -0.19866 -0.03012 -0.07334
 H1483 H -0.15724 -0.07675 -0.05485
 H1484 H -0.14291 0.01511 -0.04926
 H1485 H -0.10999 0.02543 -0.03516
 H1486 H -0.09413 -0.03694 -0.02619
 C1487 C -0.14023 0.45631 0.47251
 C1488 C -0.14040 0.45086 0.49283
 C1489 C -0.15570 0.43948 0.50136
 C1490 C -0.17131 0.43331 0.48836
 C1491 C -0.17129 0.43847 0.46727
 C1492 C -0.15555 0.45030 0.45934
 O1493 O -0.12384 0.46621 0.46717
 C1494 C -0.11339 0.46697 0.48446
 C1495 C -0.12279 0.45775 0.50062
 C1496 C -0.11382 0.45563 0.51976
 C1497 C -0.09431 0.46315 0.52226
 C1498 C -0.08431 0.47271 0.50578
 C1499 C -0.09419 0.47485 0.48670
 H1500 H -0.15541 0.43514 0.51733
 H1501 H -0.18319 0.42408 0.49449
 H1502 H -0.15484 0.45392 0.44320
 H1503 H -0.12136 0.44801 0.53217
 H1504 H -0.08691 0.46129 0.53691
 H1505 H -0.08679 0.48157 0.47366
 C1506 C 0.34312 -0.03225 0.44412
 C1507 C 0.33894 -0.03257 0.46472
 C1508 C 0.32254 -0.04266 0.47278
 C1509 C 0.31001 -0.05293 0.45904
 C1510 C 0.31422 -0.05323 0.43770
 C1511 C 0.33093 -0.04237 0.43023
 O1512 O 0.36004 -0.02281 0.43968
 C1513 C 0.36678 -0.01711 0.45790
 C1514 C 0.35443 -0.02274 0.47375
 C1515 C 0.35944 -0.01983 0.49422
 C1516 C 0.37813 -0.01120 0.49851
 C1517 C 0.39120 -0.00550 0.48243
 C1518 C 0.38523 -0.00807 0.46183
 H1519 H 0.31964 -0.04283 0.48908
 H1520 H 0.29714 -0.06081 0.46503
 H1521 H 0.33483 -0.04232 0.41416
 H1522 H 0.34969 -0.02476 0.50643
 H1523 H 0.38272 -0.00950 0.51435
 H1524 H 0.39524 -0.00452 0.44931
 C1525 C 0.36339 0.45633 -0.03420
 C1526 C 0.36881 0.44095 -0.02137
 C1527 C 0.35911 0.42260 -0.02133
 C1528 C 0.34314 0.42000 -0.03503
 C1529 C 0.33706 0.43570 -0.04834
 C1530 C 0.34732 0.45420 -0.04770
 O1531 O 0.37534 0.47211 -0.03267
 C1532 C 0.38856 0.46655 -0.01858
 C1533 C 0.38513 0.44769 -0.01107
 C1534 C 0.39761 0.43861 0.00321
 C1535 C 0.41462 0.44923 0.00963
 C1536 C 0.41892 0.46848 0.00157
 C1537 C 0.40535 0.47737 -0.01244
 H1538 H 0.36387 0.41059 -0.01136
 H1539 H 0.33560 0.40568 -0.03544
 H1540 H 0.34302 0.46647 -0.05756
 H1541 H 0.39466 0.42367 0.00878
 H1542 H 0.42483 0.44207 0.02022
 H1543 H 0.40824 0.49187 -0.01917
 C1544 C 0.39448 0.45420 0.79401
 C1545 C 0.38803 0.43816 0.78257
 C1546 C 0.39695 0.41947 0.78363
 C1547 C 0.41329 0.41724 0.79691
 C1548 C 0.42058 0.43361 0.80869
 C1549 C 0.41098 0.45241 0.80709
 O1550 O 0.38323 0.47036 0.79146
 C1551 C 0.36943 0.46435 0.77810
 C1552 C 0.37182 0.44482 0.77207
 C1553 C 0.35878 0.43530 0.75863
 C1554 C 0.34228 0.44619 0.75145
 C1555 C 0.33901 0.46620 0.75793
 C1556 C 0.35310 0.47547 0.77119
 H1557 H 0.39138 0.40699 0.77473
 H1558 H 0.42027 0.40270 0.79809
 H1559 H 0.41618 0.46518 0.81580
 H1560 H 0.36093 0.41986 0.75422
 H1561 H 0.33164 0.43869 0.74153
 H1562 H 0.35099 0.49058 0.77671
 C1563 C 0.38491 -0.03793 0.28523
 C1564 C 0.38722 -0.04241 0.26481
 C1565 C 0.40549 -0.04801 0.25646
 C1566 C 0.42204 -0.04913 0.26971
 C1567 C 0.42003 -0.04523 0.29103
 C1568 C 0.40102 -0.03955 0.29879
 O1569 O 0.36643 -0.03224 0.28994
 C1570 C 0.35684 -0.03328 0.27212
 C1571 C 0.36882 -0.03969 0.25631
 C1572 C 0.36168 -0.04240 0.23646
 C1573 C 0.34139 -0.03824 0.23274
 C1574 C 0.32888 -0.03104 0.24864
 C1575 C 0.33677 -0.02848 0.26862
 H1576 H 0.40702 -0.05118 0.24028
 H1577 H 0.43646 -0.05311 0.26337
 H1578 H 0.39880 -0.03659 0.31492
 H1579 H 0.37135 -0.04761 0.22430
 H1580 H 0.33551 -0.04019 0.21738
 H1581 H 0.32754 -0.02308 0.28105
 C1582 C 0.12013 0.54657 0.71254
 C1583 C 0.12000 0.54952 0.73339
 C1584 C 0.10328 0.55663 0.74376
 C1585 C 0.08601 0.56076 0.73216
 C1586 C 0.08586 0.55815 0.71053
 C1587 C 0.10337 0.55109 0.70069
 O1588 O 0.13721 0.53906 0.70568
 C1589 C 0.14817 0.53727 0.72254
 C1590 C 0.13846 0.54365 0.73992
 C1591 C 0.14745 0.54339 0.75920
 C1592 C 0.16721 0.53626 0.76056
 C1593 C 0.17730 0.52918 0.74289
 C1594 C 0.16757 0.52971 0.72363
 H1595 H 0.10341 0.55860 0.76021
 H1596 H 0.07269 0.56579 0.74002
 H1597 H 0.10386 0.54897 0.68426
 H1598 H 0.13958 0.54858 0.77266
 H1599 H 0.17454 0.53596 0.77537
 H1600 H 0.17501 0.52464 0.70985
 C1601 C 0.10722 0.04406 0.19832
 C1602 C 0.11184 0.03264 0.18149
 C1603 C 0.09947 0.03104 0.16449
 C1604 C 0.08143 0.04156 0.16483
 C1605 C 0.07575 0.05306 0.18223
 C1606 C 0.08902 0.05437 0.19921
 O1607 O 0.12150 0.04382 0.21258
 C1608 C 0.13533 0.03188 0.20452
 C1609 C 0.12994 0.02457 0.18560
 C1610 C 0.14175 0.01150 0.17445
 C1611 C 0.15998 0.00570 0.18310
 C1612 C 0.16631 0.01328 0.20241
 C1613 C 0.15375 0.02663 0.21330
 H1614 H 0.10367 0.02217 0.15131
 H1615 H 0.07190 0.04076 0.15142
 H1616 H 0.08523 0.06307 0.21263
 H1617 H 0.13707 0.00590 0.15963
 H1618 H 0.16934 -0.00447 0.17449
 H1619 H 0.15811 0.03260 0.22807
 C1620 C 0.64993 0.71618 0.20563
 C1621 C 0.65126 0.71795 0.22656
 C1622 C 0.66743 0.71072 0.23775
 C1623 C 0.68280 0.70111 0.22692
 C1624 C 0.68156 0.69849 0.20533
 C1625 C 0.66486 0.70646 0.19462
 O1626 O 0.63311 0.72362 0.19794
 C1627 C 0.62351 0.73015 0.21440
 C1628 C 0.63393 0.72692 0.23233
 C1629 C 0.62611 0.73138 0.25150
 C1630 C 0.60669 0.73927 0.25223
 C1631 C 0.59573 0.74285 0.23396
 C1632 C 0.60437 0.73849 0.21475
 H1633 H 0.66815 0.71233 0.25424
 H1634 H 0.69556 0.69555 0.23540
 H1635 H 0.66318 0.70473 0.17823
 H1636 H 0.63444 0.72840 0.26541
 H1637 H 0.60008 0.74247 0.26701
 H1638 H 0.59608 0.74064 0.20064
 C1639 C 0.14413 0.70261 0.70702
 C1640 C 0.13716 0.68646 0.71787
 C1641 C 0.14722 0.66834 0.71870
 C1642 C 0.16510 0.66669 0.70764
 C1643 C 0.17269 0.68312 0.69624
 C1644 C 0.16217 0.70149 0.69638
 O1645 O 0.13176 0.71811 0.70740
 C1646 C 0.11666 0.71158 0.71879
 C1647 C 0.11935 0.69237 0.72570
 C1648 C 0.10539 0.68251 0.73775
 C1649 C 0.08789 0.69285 0.74286
 C1650 C 0.08446 0.71256 0.73555
 C1651 C 0.09918 0.72205 0.72337
 H1652 H 0.14128 0.65576 0.72715
 H1653 H 0.17282 0.65249 0.70760
 H1654 H 0.16761 0.71432 0.68798
 H1655 H 0.10787 0.66738 0.74301
 H1656 H 0.07690 0.68535 0.75229
 H1657 H 0.09709 0.73707 0.71761
 C1658 C 0.60779 0.20690 0.54314
 C1659 C 0.60423 0.20656 0.52238
 C1660 C 0.58543 0.20252 0.51413
 C1661 C 0.56967 0.19879 0.52785
 C1662 C 0.57302 0.19879 0.54936
 C1663 C 0.59250 0.20281 0.55698
 O1664 O 0.62655 0.21149 0.54792
 C1665 C 0.63508 0.21404 0.52979
 C1666 C 0.62215 0.21105 0.51363
 C1667 C 0.62818 0.21254 0.49329
 C1668 C 0.64835 0.21726 0.48950
 C1669 C 0.66183 0.22075 0.50595
 C1670 C 0.65503 0.21916 0.52638
 H1671 H 0.58291 0.20251 0.49775
 H1672 H 0.55482 0.19605 0.52179
 H1673 H 0.59562 0.20286 0.57326
 H1674 H 0.61779 0.20999 0.48081
 H1675 H 0.65342 0.21838 0.47380
 H1676 H 0.66507 0.22141 0.53924
 C1677 C 0.62348 0.70156 0.04412
 C1678 C 0.62285 0.69663 0.02367
 C1679 C 0.60554 0.68969 0.01412
 C1680 C 0.58821 0.68778 0.02614
 C1681 C 0.58853 0.69244 0.04740
 C1682 C 0.60659 0.69933 0.05643
 O1683 O 0.64116 0.70856 0.05009
 C1684 C 0.65195 0.70800 0.03305
 C1685 C 0.64153 0.70065 0.01647
 C1686 C 0.65010 0.69864 -0.00284
 C1687 C 0.67018 0.70453 -0.00515
 C1688 C 0.68108 0.71261 0.01162
 C1689 C 0.67177 0.71429 0.03101
 H1690 H 0.60530 0.68615 -0.00206
 H1691 H 0.57448 0.68284 0.01888
 H1692 H 0.60740 0.70301 0.07256
 H1693 H 0.64164 0.69276 -0.01566
 H1694 H 0.67711 0.70319 -0.02007
 H1695 H 0.67976 0.72021 0.04414
 C1696 C 0.12533 0.04956 0.03659
 C1697 C 0.11492 0.06717 0.03827
 C1698 C 0.12368 0.08489 0.04485
 C1699 C 0.14409 0.08453 0.04986
 C1700 C 0.15550 0.06673 0.04785
 C1701 C 0.14579 0.04893 0.04123
 O1702 O 0.11399 0.03440 0.03018
 C1703 C 0.09605 0.04269 0.02769
 C1704 C 0.09595 0.06275 0.03235
 C1705 C 0.07905 0.07461 0.03046
 C1706 C 0.06151 0.06550 0.02333
 C1707 C 0.06098 0.04487 0.01841
 C1708 C 0.07849 0.03316 0.02087
 H1709 H 0.11506 0.09850 0.04624
 H1710 H 0.15095 0.09814 0.05546
 H1711 H 0.15398 0.03508 0.03962
 H1712 H 0.07936 0.09036 0.03423
 H1713 H 0.04814 0.07444 0.02192
 H1714 H 0.07851 0.01739 0.01721
 C1715 C 0.14103 0.53621 0.54160
 C1716 C 0.14139 0.53766 0.52060
 C1717 C 0.15760 0.54564 0.51001
 C1718 C 0.17419 0.55211 0.52155
 C1719 C 0.17416 0.55077 0.54328
 C1720 C 0.15710 0.54293 0.55334
 O1721 O 0.12434 0.52808 0.54876
 C1722 C 0.11386 0.52433 0.53191
 C1723 C 0.12354 0.53000 0.51425
 C1724 C 0.11486 0.52809 0.49495
 C1725 C 0.09533 0.52032 0.49387
 C1726 C 0.08511 0.51433 0.51190
 C1727 C 0.09467 0.51614 0.53115
 H1728 H 0.15759 0.54659 0.49346
 H1729 H 0.18718 0.55784 0.51360
 H1730 H 0.15648 0.54186 0.56987
 H1731 H 0.12266 0.53282 0.48126
 H1732 H 0.08806 0.51918 0.47907
 H1733 H 0.08705 0.51216 0.54520
 C1734 C 0.61753 0.03885 0.54573
 C1735 C 0.60823 0.05661 0.55040
 C1736 C 0.61859 0.07342 0.55708
 C1737 C 0.63946 0.07203 0.55851
 C1738 C 0.64949 0.05411 0.55320
 C1739 C 0.63835 0.03712 0.54716
 O1740 O 0.60497 0.02511 0.53850
 C1741 C 0.58743 0.03447 0.53848
 C1742 C 0.58868 0.05382 0.54554
 C1743 C 0.57249 0.06683 0.54550
 C1744 C 0.55424 0.05963 0.53786
 C1745 C 0.55250 0.03975 0.53060
 C1746 C 0.56926 0.02688 0.53116
 H1747 H 0.61095 0.08729 0.56043
 H1748 H 0.64798 0.08510 0.56299
 H1749 H 0.64578 0.02349 0.54255
 H1750 H 0.57392 0.08207 0.55087
 H1751 H 0.54137 0.06941 0.53778
 H1752 H 0.56831 0.01170 0.52548
 C1753 C 0.63699 0.54742 0.05408
 C1754 C 0.63071 0.56326 0.04230
 C1755 C 0.64149 0.58094 0.04067
 C1756 C 0.65953 0.58232 0.05157
 C1757 C 0.66653 0.56610 0.06365
 C1758 C 0.65502 0.54838 0.06486
 O1759 O 0.62420 0.53223 0.05400
 C1760 C 0.60957 0.53863 0.04188
 C1761 C 0.61288 0.55748 0.03425
 C1762 C 0.59939 0.56714 0.02142
 C1763 C 0.58162 0.55705 0.01642
 C1764 C 0.57760 0.53772 0.02443
 C1765 C 0.59196 0.52837 0.03723
 H1766 H 0.63612 0.59328 0.03148
 H1767 H 0.66806 0.59606 0.05071
 H1768 H 0.66000 0.53581 0.07395
 H1769 H 0.60233 0.58201 0.01565
 H1770 H 0.57084 0.56453 0.00670
 H1771 H 0.58940 0.51370 0.04370
 C1772 C 0.02240 0.05583 0.13821
 C1773 C 0.01842 0.03575 0.14030
 C1774 C 0.02410 0.02486 0.15750
 C1775 C 0.03512 0.03486 0.17271
 C1776 C 0.04053 0.05522 0.17024
 C1777 C 0.03328 0.06603 0.15317
 O1778 O 0.01751 0.06296 0.11992
 C1779 C 0.01052 0.04703 0.11014
 C1780 C 0.01091 0.02994 0.12186
 C1781 C 0.00669 0.01112 0.11383
 C1782 C 0.00187 0.00990 0.09292
 C1783 C 0.00108 0.02736 0.08070
 C1784 C 0.00519 0.04621 0.08949
 H1785 H 0.02114 0.00900 0.15864
 H1786 H 0.04087 0.02646 0.18560
 H1787 H 0.03784 0.08134 0.15055
 H1788 H 0.00773 -0.00220 0.12316
 H1789 H -0.00116 -0.00459 0.08618
 H1790 H 0.00529 0.05965 0.08026
 C1791 C 0.05152 0.54529 0.64642
 C1792 C 0.05506 0.52511 0.64783
 C1793 C 0.06219 0.51614 0.66561
 C1794 C 0.06597 0.52851 0.68256
 C1795 C 0.06300 0.54950 0.68137
 C1796 C 0.05557 0.55792 0.66295
 O1797 O 0.04426 0.55075 0.62832
 C1798 C 0.04328 0.53364 0.61805
 C1799 C 0.04989 0.51753 0.62923
 C1800 C 0.05044 0.49824 0.62131
 C1801 C 0.04372 0.49541 0.60111
 C1802 C 0.03631 0.51170 0.58943
 C1803 C 0.03619 0.53111 0.59808
 H1804 H 0.06462 0.50018 0.66644
 H1805 H 0.07134 0.52180 0.69662
 H1806 H 0.05318 0.57385 0.66151
 H1807 H 0.05581 0.48581 0.63037
 H1808 H 0.04381 0.48046 0.59476
 H1809 H 0.03075 0.54386 0.58952
 C1810 C 0.53321 0.04513 0.64182
 C1811 C 0.51326 0.04839 0.64567
 C1812 C 0.50630 0.05544 0.66440
 C1813 C 0.52051 0.05918 0.67981
 C1814 C 0.54123 0.05607 0.67618
 C1815 C 0.54758 0.04902 0.65679
 O1816 O 0.53670 0.03840 0.62304
 C1817 C 0.51855 0.03742 0.61483
 C1818 C 0.50368 0.04346 0.62801
 C1819 C 0.48363 0.04419 0.62235
 C1820 C 0.47872 0.03864 0.60222
 C1821 C 0.49378 0.03228 0.58835
 C1822 C 0.51397 0.03150 0.59486
 H1823 H 0.49051 0.05784 0.66709
 H1824 H 0.51543 0.06437 0.69462
 H1825 H 0.56328 0.04665 0.65351
 H1826 H 0.47222 0.04913 0.63294
 H1827 H 0.46321 0.03933 0.59741
 H1828 H 0.52581 0.02705 0.58452
 C1829 C 0.56130 0.54835 0.14611
 C1830 C 0.54285 0.54106 0.15179
 C1831 C 0.53433 0.54492 0.17081
 C1832 C 0.54502 0.55723 0.18434
 C1833 C 0.56378 0.56533 0.17867
 C1834 C 0.57231 0.56040 0.15951
 O1835 O 0.56569 0.54466 0.12661
 C1836 C 0.54961 0.53498 0.11981
 C1837 C 0.53521 0.53245 0.13466
 C1838 C 0.51634 0.52470 0.13049
 C1839 C 0.51202 0.51952 0.11016
 C1840 C 0.52655 0.52198 0.09456
 C1841 C 0.54577 0.52946 0.09949
 H1842 H 0.51957 0.53943 0.17471
 H1843 H 0.53834 0.56134 0.19885
 H1844 H 0.58625 0.56712 0.15464
 H1845 H 0.50509 0.52336 0.14232
 H1846 H 0.49723 0.51391 0.10645
 H1847 H 0.55686 0.53203 0.08770
 C1848 C 0.20916 0.54327 0.60788
 C1849 C 0.20715 0.52283 0.60735
 C1850 C 0.20053 0.51256 0.59010
 C1851 C 0.19573 0.52385 0.57267
 C1852 C 0.19717 0.54502 0.57295
 C1853 C 0.20401 0.55480 0.59092
 O1854 O 0.21616 0.55006 0.62562
 C1855 C 0.21851 0.53354 0.63658
 C1856 C 0.21301 0.51650 0.62617
 C1857 C 0.21373 0.49760 0.63492
 C1858 C 0.22043 0.49621 0.65524
 C1859 C 0.22661 0.51351 0.66614
 C1860 C 0.22569 0.53245 0.65664
 H1861 H 0.19929 0.49644 0.58999
 H1862 H 0.19085 0.51615 0.55895
 H1863 H 0.20521 0.57091 0.59166
 H1864 H 0.20918 0.48444 0.62647
 H1865 H 0.22115 0.48163 0.66239
 H1866 H 0.23015 0.54589 0.66471
 C1867 C 0.18846 0.02904 0.09324
 C1868 C 0.20685 0.02252 0.08653
 C1869 C 0.21501 0.02845 0.06790
 C1870 C 0.20403 0.04206 0.05599
 C1871 C 0.18536 0.04950 0.06290
 C1872 C 0.17722 0.04241 0.08152
 O1873 O 0.18441 0.02346 0.11230
 C1874 C 0.20062 0.01333 0.11782
 C1875 C 0.21485 0.01235 0.10263
 C1876 C 0.23396 0.00472 0.10600
 C1877 C 0.23869 -0.00181 0.12588
 C1878 C 0.22428 -0.00088 0.14175
 C1879 C 0.20486 0.00641 0.13753
 H1880 H 0.22972 0.02357 0.06316
 H1881 H 0.21048 0.04772 0.04195
 H1882 H 0.16343 0.04853 0.08751
 H1883 H 0.24514 0.00473 0.09403
 H1884 H 0.25374 -0.00694 0.12914
 H1885 H 0.19398 0.00826 0.14964
 C1886 C 0.69558 0.19742 0.63316
 C1887 C 0.68977 0.18220 0.62025
 C1888 C 0.68170 0.16433 0.62727
 C1889 C 0.67995 0.16182 0.64850
 C1890 C 0.68626 0.17701 0.66221
 C1891 C 0.69383 0.19526 0.65443
 O1892 O 0.70411 0.21260 0.62332
 C1893 C 0.70377 0.20677 0.60383
 C1894 C 0.69520 0.18822 0.60120
 C1895 C 0.69469 0.17844 0.58242
 C1896 C 0.70347 0.18808 0.56564
 C1897 C 0.71231 0.20723 0.56784
 C1898 C 0.71223 0.21688 0.58714
 H1899 H 0.67754 0.15247 0.61681
 H1900 H 0.67438 0.14777 0.65441
 H1901 H 0.69927 0.20679 0.66466
 H1902 H 0.68823 0.16368 0.58084
 H1903 H 0.70351 0.18062 0.55091
 H1904 H 0.71928 0.23132 0.58924
 C1905 C 0.70906 0.70761 0.14266
 C1906 C 0.70455 0.69121 0.13077
 C1907 C 0.69698 0.67353 0.13882
 C1908 C 0.69410 0.67267 0.16006
 C1909 C 0.69871 0.68933 0.17261
 C1910 C 0.70606 0.70714 0.16380
 O1911 O 0.71728 0.72246 0.13212
 C1912 C 0.71800 0.71525 0.11318
 C1913 C 0.71034 0.69619 0.11157
 C1914 C 0.71050 0.68535 0.09340
 C1915 C 0.71915 0.69443 0.07625
 C1916 C 0.72746 0.71384 0.07764
 C1917 C 0.72659 0.72461 0.09621
 H1918 H 0.69385 0.66074 0.12918
 H1919 H 0.68857 0.65901 0.16688
 H1920 H 0.71001 0.71984 0.17326
 H1921 H 0.70449 0.67034 0.09256
 H1922 H 0.71949 0.68637 0.06187
 H1923 H 0.73308 0.73938 0.09757
 C1924 C 0.55380 0.71366 0.10909
 C1925 C 0.55822 0.73343 0.10554
 C1926 C 0.56649 0.74007 0.08723
 C1927 C 0.57033 0.72575 0.07198
 C1928 C 0.56627 0.70517 0.07539
 C1929 C 0.55793 0.69915 0.09436
 O1930 O 0.54571 0.71046 0.12734
 C1931 C 0.54508 0.72859 0.13555
 C1932 C 0.55272 0.74318 0.12294
 C1933 C 0.55414 0.76312 0.12888
 C1934 C 0.54747 0.76817 0.14864
 C1935 C 0.53919 0.75342 0.16171
 C1936 C 0.53792 0.73337 0.15498
 H1937 H 0.56971 0.75572 0.08470
 H1938 H 0.57643 0.73067 0.05748
 H1939 H 0.55477 0.68360 0.09754
 H1940 H 0.56040 0.77431 0.11880
 H1941 H 0.54862 0.78354 0.15372
 H1942 H 0.53204 0.72175 0.16482
 C1943 C 0.05471 0.70451 0.61517
 C1944 C 0.03421 0.70310 0.61405
 C1945 C 0.02420 0.69536 0.59712
 C1946 C 0.03581 0.68873 0.58063
 C1947 C 0.05704 0.68974 0.58139
 C1948 C 0.06659 0.69793 0.59891
 O1949 O 0.06115 0.71206 0.63285
 C1950 C 0.04431 0.71544 0.64310
 C1951 C 0.02746 0.71016 0.63221
 C1952 C 0.00826 0.71180 0.64008
 C1953 C 0.00630 0.71900 0.66011
 C1954 C 0.02339 0.72452 0.67184
 C1955 C 0.04271 0.72291 0.66307
 H1956 H 0.00803 0.69444 0.59664
 H1957 H 0.02829 0.68285 0.56721
 H1958 H 0.08274 0.69885 0.59990
 H1959 H -0.00475 0.70744 0.63122
 H1960 H -0.00860 0.72023 0.66649
 H1961 H 0.05603 0.72676 0.67170
 C1962 C 0.55014 0.62882 0.21077
 C1963 C 0.54095 0.63569 0.19330
 C1964 C 0.54125 0.62536 0.17485
 C1965 C 0.55168 0.60724 0.17429
 C1966 C 0.56135 0.59965 0.19207
 C1967 C 0.56003 0.61046 0.21074
 O1968 O 0.54918 0.64167 0.22628
 C1969 C 0.53913 0.65696 0.21838
 C1970 C 0.53359 0.65388 0.19832
 C1971 C 0.52339 0.66799 0.18681
 C1972 C 0.51890 0.68619 0.19626
 C1973 C 0.52495 0.69016 0.21679
 C1974 C 0.53508 0.67516 0.22807
 H1975 H 0.53417 0.63129 0.16122
 H1976 H 0.55253 0.59927 0.15989
 H1977 H 0.56696 0.60500 0.22465
 H1978 H 0.51930 0.66522 0.17100
 H1979 H 0.51127 0.69743 0.18725
 H1980 H 0.54003 0.67772 0.24366
 C1981 C 0.05020 0.61246 0.71644
 C1982 C 0.02986 0.61047 0.71384
 C1983 C 0.02110 0.59297 0.70659
 C1984 C 0.03382 0.57691 0.70186
 C1985 C 0.05493 0.57869 0.70404
 C1986 C 0.06313 0.59687 0.71141
 O1987 O 0.05554 0.63019 0.72374
 C1988 C 0.03820 0.63964 0.72572
 C1989 C 0.02201 0.62833 0.71972
 C1990 C 0.00251 0.63569 0.71992
 C1991 C -0.00036 0.65549 0.72653
 C1992 C 0.01611 0.66726 0.73315
 C1993 C 0.03563 0.65912 0.73278
 H1994 H 0.00504 0.59166 0.70479
 H1995 H 0.02724 0.56307 0.69651
 H1996 H 0.07913 0.59886 0.71309
 H1997 H -0.01000 0.62660 0.71493
 H1998 H -0.01535 0.66162 0.72664
 H1999 H 0.04851 0.66788 0.73732
 C2000 C 0.03398 0.15206 0.03875
 C2001 C 0.01440 0.15408 0.04486
 C2002 C 0.00755 0.17080 0.05535
 C2003 C 0.02146 0.18599 0.05969
 C2004 C 0.04188 0.18407 0.05392
 C2005 C 0.04814 0.16661 0.04352
 O2006 O 0.03750 0.13515 0.02885
 C2007 C 0.01979 0.12620 0.02885
 C2008 C 0.00517 0.13697 0.03869
 C2009 C -0.01418 0.12967 0.04144
 C2010 C -0.01849 0.11045 0.03388
 C2011 C -0.00366 0.09927 0.02337
 C2012 C 0.01561 0.10754 0.02056
 H2013 H -0.00794 0.17213 0.05997
 H2014 H 0.01630 0.19916 0.06766
 H2015 H 0.06368 0.16427 0.03953
 H2016 H -0.02539 0.13827 0.04949
 H2017 H -0.03332 0.10430 0.03616
 H2018 H 0.02723 0.09951 0.01255
 C2019 C 0.04816 0.63204 0.55149
 C2020 C 0.04843 0.63288 0.53045
 C2021 C 0.05531 0.64938 0.51966
 C2022 C 0.06212 0.66579 0.53105
 C2023 C 0.06213 0.66535 0.55282
 C2024 C 0.05505 0.64814 0.56313
 O2025 O 0.04105 0.61488 0.55866
 C2026 C 0.03676 0.60468 0.54174
 C2027 C 0.04105 0.61505 0.52410
 C2028 C 0.03823 0.60712 0.50466
 C2029 C 0.03090 0.58756 0.50330
 C2030 C 0.02639 0.57644 0.52124
 C2031 C 0.02916 0.58525 0.54076
 H2032 H 0.05531 0.64967 0.50309
 H2033 H 0.06717 0.67895 0.52293
 H2034 H 0.05490 0.64739 0.57970
 H2035 H 0.04181 0.61558 0.49102
 H2036 H 0.02881 0.58104 0.48825
 H2037 H 0.02612 0.57704 0.55471
 C2038 C 0.53230 0.14786 0.54523
 C2039 C 0.51309 0.15053 0.55226
 C2040 C 0.50710 0.16779 0.56239
 C2041 C 0.52153 0.18279 0.56551
 C2042 C 0.54167 0.18012 0.55900
 C2043 C 0.54697 0.16232 0.54862
 O2044 O 0.53493 0.13056 0.53574
 C2045 C 0.51704 0.12204 0.53692
 C2046 C 0.50316 0.13348 0.54707
 C2047 C 0.48368 0.12691 0.55067
 C2048 C 0.47838 0.10776 0.54354
 C2049 C 0.49239 0.09588 0.53268
 C2050 C 0.51194 0.10332 0.52923
 H2051 H 0.49186 0.16968 0.56763
 H2052 H 0.51709 0.19642 0.57317
 H2053 H 0.56216 0.15964 0.54361
 H2054 H 0.47304 0.13608 0.55888
 H2055 H 0.46336 0.10230 0.54629
 H2056 H 0.52301 0.09471 0.52101
 C2057 C 0.55024 0.63949 0.04745
 C2058 C 0.53008 0.64258 0.05026
 C2059 C 0.52225 0.66108 0.05564
 C2060 C 0.53574 0.67699 0.05831
 C2061 C 0.55673 0.67410 0.05611
 C2062 C 0.56395 0.65494 0.05058
 O2063 O 0.55458 0.62097 0.04173
 C2064 C 0.53679 0.61214 0.04101
 C2065 C 0.52130 0.62462 0.04632
 C2066 C 0.50146 0.61821 0.04707
 C2067 C 0.49745 0.59817 0.04202
 C2068 C 0.51314 0.58525 0.03589
 C2069 C 0.53308 0.59237 0.03543
 H2070 H 0.50631 0.66325 0.05750
 H2071 H 0.52986 0.69158 0.06214
 H2072 H 0.57981 0.65212 0.04884
 H2073 H 0.48953 0.62825 0.05146
 H2074 H 0.48216 0.59281 0.04242
 H2075 H 0.54534 0.58271 0.03105
 C2076 C 0.69806 0.09979 0.53355
 C2077 C 0.69147 0.10070 0.51358
 C2078 C 0.67908 0.08626 0.50493
 C2079 C 0.67301 0.07037 0.51746
 C2080 C 0.67941 0.06923 0.53815
 C2081 C 0.69228 0.08407 0.54623
 O2082 O 0.70885 0.11556 0.53910
 C2083 C 0.70902 0.12671 0.52231
 C2084 C 0.69858 0.11831 0.50627
 C2085 C 0.69589 0.12794 0.48762
 C2086 C 0.70425 0.14704 0.48542
 C2087 C 0.71510 0.15608 0.50174
 C2088 C 0.71765 0.14559 0.52039
 H2089 H 0.67385 0.08746 0.48927
 H2090 H 0.66292 0.05918 0.51133
 H2091 H 0.69683 0.08384 0.56216
 H2092 H 0.68739 0.12113 0.47532
 H2093 H 0.70217 0.15482 0.47104
 H2094 H 0.72555 0.15217 0.53324
 C2095 C 0.72219 0.60673 0.05956
 C2096 C 0.72511 0.60156 0.03936
 C2097 C 0.71769 0.58398 0.03091
 C2098 C 0.70607 0.57166 0.04353
 C2099 C 0.70175 0.57730 0.06401
 C2100 C 0.71064 0.59468 0.07237
 O2101 O 0.72877 0.62494 0.06401
 C2102 C 0.73569 0.63151 0.04620
 C2103 C 0.73363 0.61785 0.03057
 C2104 C 0.73727 0.62262 0.01016
 C2105 C 0.74309 0.64229 0.00569
 C2106 C 0.74548 0.65654 0.02159
 C2107 C 0.74223 0.65088 0.04218
 H2108 H 0.71985 0.58040 0.01489
 H2109 H 0.69915 0.55847 0.03700
 H2110 H 0.70695 0.59969 0.08767
 H2111 H 0.73487 0.61183 -0.00196
 H2112 H 0.74546 0.64652 -0.01014
 H2113 H 0.74359 0.66157 0.05455
 C2114 C 0.22253 0.63632 0.69415
 C2115 C 0.22899 0.64065 0.71371
 C2116 C 0.22540 0.65892 0.72316
 C2117 C 0.21407 0.67302 0.71231
 C2118 C 0.20650 0.66861 0.69251
 C2119 C 0.21138 0.65026 0.68302
 O2120 O 0.22578 0.61745 0.68881
 C2121 C 0.23429 0.60967 0.70539
 C2122 C 0.23649 0.62323 0.72110
 C2123 C 0.24288 0.61778 0.74061
 C2124 C 0.24710 0.59753 0.74410
 C2125 C 0.24511 0.58331 0.72811
 C2126 C 0.23892 0.58953 0.70838
 H2127 H 0.23023 0.66182 0.73871
 H2128 H 0.21003 0.68690 0.71975
 H2129 H 0.20505 0.64627 0.66829
 H2130 H 0.24392 0.62861 0.75289
 H2131 H 0.25170 0.59287 0.75928
 H2132 H 0.23667 0.57884 0.69612
 C2133 C 0.20405 0.12965 0.19192
 C2134 C 0.20957 0.12282 0.17286
 C2135 C 0.20482 0.13295 0.15492
 C2136 C 0.19389 0.15075 0.15673
 C2137 C 0.18797 0.15810 0.17624
 C2138 C 0.19356 0.14750 0.19409
 O2139 O 0.20892 0.11724 0.20694
 C2140 C 0.21769 0.10226 0.19716
 C2141 C 0.21866 0.10497 0.17630
 C2142 C 0.22667 0.09071 0.16313
 C2143 C 0.23355 0.07276 0.17179
 C2144 C 0.23200 0.06937 0.19320
 C2145 C 0.22426 0.08455 0.20603
 H2146 H 0.20906 0.12718 0.14006
 H2147 H 0.18977 0.15869 0.14292
 H2148 H 0.18954 0.15284 0.20919
 H2149 H 0.22714 0.09310 0.14674
 H2150 H 0.23921 0.06119 0.16176
 H2151 H 0.22273 0.08238 0.22239
 C2152 C 0.70361 1.12231 0.70273
 C2153 C 0.72305 1.12199 0.69581
 C2154 C 0.73184 1.13815 0.68591
 C2155 C 0.72005 1.15522 0.68279
 C2156 C 0.69988 1.15588 0.68952
 C2157 C 0.69162 1.13918 0.69980
 O2158 O 0.69792 1.10510 0.71104
 C2159 C 0.71409 1.09369 0.70928
 C2160 C 0.72985 1.10329 0.70000
 C2161 C 0.74790 1.09382 0.69577
 C2162 C 0.74980 1.07363 0.70132
 C2163 C 0.73381 1.06335 0.71102
 C2164 C 0.71572 1.07368 0.71513
 H2165 H 0.74710 1.13749 0.68042
 H2166 H 0.72641 1.16784 0.67471
 H2167 H 0.67611 1.13909 0.70457
 H2168 H 0.76002 1.10162 0.68824
 H2169 H 0.76373 1.06604 0.69803
 H2170 H 0.70310 1.06624 0.72221
 C2171 C 0.71249 0.64196 0.22338
 C2172 C 0.73245 0.64120 0.21828
 C2173 C 0.74178 0.65586 0.20663
 C2174 C 0.72997 0.67179 0.19968
 C2175 C 0.70924 0.67271 0.20429
 C2176 C 0.70046 0.65765 0.21655
 O2177 O 0.70631 0.62596 0.23357
 C2178 C 0.72269 0.61481 0.23482
 C2179 C 0.73907 0.62340 0.22561
 C2180 C 0.75730 0.61359 0.22364
 C2181 C 0.75865 0.59406 0.23135
 C2182 C 0.74198 0.58492 0.24102
 C2183 C 0.72387 0.59563 0.24303
 H2184 H 0.75744 0.65480 0.20259
 H2185 H 0.73677 0.68315 0.19014
 H2186 H 0.68456 0.65763 0.21972
 H2187 H 0.76987 0.62049 0.21595
 H2188 H 0.77258 0.58598 0.22962
 H2189 H 0.71081 0.58887 0.24986
 C2190 C 0.54543 0.11182 0.71045
 C2191 C 0.54991 0.10997 0.73093
 C2192 C 0.55606 0.09206 0.73967
 C2193 C 0.55771 0.07540 0.72673
 C2194 C 0.55348 0.07699 0.70545
 C2195 C 0.54721 0.09554 0.69728
 O2196 O 0.53966 0.13009 0.70525
 C2197 C 0.54057 0.14000 0.72283
 C2198 C 0.54686 0.12841 0.73899
 C2199 C 0.54919 0.13589 0.75873
 C2200 C 0.54480 0.15614 0.76194
 C2201 C 0.53801 0.16836 0.74555
 C2202 C 0.53588 0.16009 0.72571
 H2203 H 0.55938 0.09094 0.75587
 H2204 H 0.56227 0.06124 0.73322
 H2205 H 0.54397 0.09724 0.68112
 H2206 H 0.55424 0.12649 0.77119
 H2207 H 0.54644 0.16222 0.77723
 H2208 H 0.53091 0.16903 0.71286
 C2209 C 1.03609 0.11035 0.20527
 C2210 C 1.05186 0.12315 0.20199
 C2211 C 1.06964 0.11724 0.19280
 C2212 C 1.07123 0.09727 0.18661
 C2213 C 1.05522 0.08365 0.18977
 C2214 C 1.03737 0.09037 0.19924
 O2215 O 1.02050 0.11915 0.21414
 C2216 C 1.02660 0.13793 0.21647
 C2217 C 1.04570 0.14107 0.20921
 C2218 C 1.05517 0.15951 0.20991
 C2219 C 1.04457 0.17539 0.21857
 C2220 C 1.02499 0.17260 0.22634
 C2221 C 1.01571 0.15365 0.22525
 H2222 H 1.08177 0.12768 0.19030
 H2223 H 1.08476 0.09250 0.17896
 H2224 H 1.02489 0.08033 0.20168
 H2225 H 1.07018 0.16160 0.20407
 H2226 H 1.05166 0.18993 0.21937
 H2227 H 1.00078 0.15123 0.23115
 C2228 C 0.20635 0.60799 0.53810
 C2229 C 0.22667 0.60733 0.54151
 C2230 C 0.23643 0.59023 0.54822
 C2231 C 0.22474 0.57320 0.55190
 C2232 C 0.20361 0.57364 0.54929
 C2233 C 0.19438 0.59133 0.54202
 O2234 O 0.20009 0.62569 0.53151
 C2235 C 0.21680 0.63643 0.53088
 C2236 C 0.23345 0.62595 0.53705
 C2237 C 0.25240 0.63450 0.53823
 C2238 C 0.25431 0.65465 0.53264
 C2239 C 0.23748 0.66563 0.52567
 C2240 C 0.21844 0.65636 0.52481
 H2241 H 0.25247 0.59002 0.55060
 H2242 H 0.23207 0.55972 0.55713
 H2243 H 0.17832 0.59222 0.53999
 H2244 H 0.26524 0.62598 0.54333
 H2245 H 0.26897 0.66156 0.53326
 H2246 H 0.20531 0.66445 0.51972
 C2247 C 0.19886 0.11517 1.03438
 C2248 C 0.21178 0.11929 1.05025
 C2249 C 0.21382 0.10698 1.06723
 C2250 C 0.20206 0.08965 1.06793
 C2251 C 0.18865 0.08474 1.05171
 C2252 C 0.18718 0.09776 1.03460
 O2253 O 0.19871 0.12938 1.02011
 C2254 C 0.21185 0.14269 1.02718
 C2255 C 0.22031 0.13711 1.04551
 C2256 C 0.23412 0.14886 1.05592
 C2257 C 0.23928 0.16731 1.04727
 C2258 C 0.23054 0.17383 1.02855
 C2259 C 0.21674 0.16110 1.01825
 H2260 H 0.22390 0.11072 1.07966
 H2261 H 0.20323 0.08015 1.08128
 H2262 H 0.17712 0.09450 1.02201
 H2263 H 0.24052 0.14412 1.07037
 H2264 H 0.24983 0.17666 1.05549
 H2265 H 0.20961 0.16559 1.00408
 C2266 C 0.21104 0.70449 0.63640
 C2267 C 0.19349 0.70826 0.62607
 C2268 C 0.17494 0.70200 0.63311
 C2269 C 0.17434 0.69198 0.65191
 C2270 C 0.19203 0.68904 0.66372
 C2271 C 0.21074 0.69499 0.65548
 O2272 O 0.22715 0.71082 0.62638
 C2273 C 0.21952 0.71890 0.60948
 C2274 C 0.19897 0.71796 0.60876
 C2275 C 0.18779 0.72560 0.59260
 C2276 C 0.19825 0.73411 0.57620
 C2277 C 0.21950 0.73442 0.57602
 C2278 C 0.23029 0.72691 0.59307
 H2279 H 0.16141 0.70463 0.62438
 H2280 H 0.15998 0.68679 0.65742
 H2281 H 0.22455 0.69274 0.66387
 H2282 H 0.17161 0.72469 0.59245
 H2283 H 0.18977 0.73941 0.56313
 H2284 H 0.24650 0.72672 0.59324
 C2285 C 0.18429 0.21184 1.13449
 C2286 C 0.20173 0.22104 1.14070
 C2287 C 0.21080 0.21719 1.15949
 C2288 C 0.20173 0.20299 1.17224
 C2289 C 0.18400 0.19313 1.16600
 C2290 C 0.17484 0.19796 1.14713
 O2291 O 0.17953 0.21569 1.11513
 C2292 C 0.19434 0.22745 1.10892
 C2293 C 0.20828 0.23120 1.12404
 C2294 C 0.22625 0.24101 1.12031
 C2295 C 0.23025 0.24676 1.10010
 C2296 C 0.21629 0.24277 1.08424
 C2297 C 0.19783 0.23348 1.08876
 H2298 H 0.22483 0.22415 1.16377
 H2299 H 0.20884 0.19901 1.18659
 H2300 H 0.16169 0.18997 1.14188
 H2301 H 0.23724 0.24323 1.13231
 H2302 H 0.24456 0.25357 1.09661
 H2303 H 0.18738 0.22952 1.07670
 C2304 C 0.70545 0.55037 0.12522
 C2305 C 0.68833 0.55113 0.13683
 C2306 C 0.67013 0.55786 0.12922
 C2307 C 0.66944 0.56383 0.10867
 C2308 C 0.68669 0.56262 0.09600
 C2309 C 0.70505 0.55601 0.10460
 O2310 O 0.72117 0.54345 0.13553
 C2311 C 0.71373 0.53966 0.15400
 C2312 C 0.69365 0.54400 0.15548
 C2313 C 0.68257 0.54053 0.17310
 C2314 C 0.69257 0.53222 0.18991
 C2315 C 0.71333 0.52782 0.18897
 C2316 C 0.72413 0.53176 0.17077
 H2317 H 0.65691 0.55847 0.13875
 H2318 H 0.65539 0.56930 0.10262
 H2319 H 0.71846 0.55489 0.09540
 H2320 H 0.66675 0.54396 0.17382
 H2321 H 0.68418 0.52948 0.20382
 H2322 H 0.73995 0.52846 0.16963
 C2323 C 0.68942 1.02550 0.59701
 C2324 C 0.70931 1.02343 0.59207
 C2325 C 0.71716 1.02995 0.57356
 C2326 C 0.70408 1.03933 0.55976
 C2327 C 0.68360 1.04249 0.56481
 C2328 C 0.67618 1.03497 0.58363
 O2329 O 0.68511 1.01891 0.61565
 C2330 C 0.70268 1.01270 0.62268
 C2331 C 0.71804 1.01527 0.60892
 C2332 C 0.73793 1.01121 0.61378
 C2333 C 0.74214 1.00431 0.63365
 C2334 C 0.72650 1.00129 0.64796
 C2335 C 0.70647 1.00536 0.64228
 H2336 H 0.73287 1.02816 0.56998
 H2337 H 0.71003 1.04459 0.54533
 H2338 H 0.66077 1.03718 0.58818
 H2339 H 0.74982 1.01375 0.60285
 H2340 H 0.75753 1.00139 0.63795
 H2341 H 0.69432 1.00372 0.65312
 C2342 C 0.55002 0.20792 0.61892
 C2343 C 0.55495 0.22787 0.61876
 C2344 C 0.56022 0.23799 0.60098
 C2345 C 0.56047 0.22707 0.58262
 C2346 C 0.55582 0.20635 0.58240
 C2347 C 0.55059 0.19670 0.60094
 O2348 O 0.54468 0.20133 0.63727
 C2349 C 0.54633 0.21746 0.64899
 C2350 C 0.55276 0.23405 0.63845
 C2351 C 0.55551 0.25254 0.64777
 C2352 C 0.55123 0.25403 0.66876
 C2353 C 0.54402 0.23726 0.67984
 C2354 C 0.54170 0.21867 0.66977
 H2355 H 0.56379 0.25377 0.60119
 H2356 H 0.56426 0.23469 0.56853
 H2357 H 0.54706 0.18092 0.60132
 H2358 H 0.56060 0.26538 0.63916
 H2359 H 0.55297 0.26839 0.67621
 H2360 H 0.53627 0.20560 0.67780
 C2361 C 1.04620 0.22083 0.11167
 C2362 C 1.05982 0.21041 0.12334
 C2363 C 1.07245 0.19597 0.11513
 C2364 C 1.07098 0.19218 0.09404
 C2365 C 1.05756 0.20325 0.08159
 C2366 C 1.04510 0.21788 0.09053
 O2367 O 1.03452 0.23272 0.12268
 C2368 C 1.04101 0.22987 0.14170
 C2369 C 1.05671 0.21660 0.14288
 C2370 C 1.06574 0.21135 0.16133
 C2371 C 1.05806 0.21988 0.17931
 C2372 C 1.04134 0.23286 0.17850
 C2373 C 1.03276 0.23804 0.15945
 H2374 H 1.08271 0.18762 0.12469
 H2375 H 1.08034 0.18079 0.08722
 H2376 H 1.03466 0.22639 0.08133
 H2377 H 1.07807 0.20088 0.16189
 H2378 H 1.06454 0.21573 0.19393
 H2379 H 1.01982 0.24773 0.15857
 C2380 C 0.64615 0.20323 0.70730
 C2381 C 0.65056 0.20121 0.72777
 C2382 C 0.66719 0.19072 0.73471
 C2383 C 0.67965 0.18181 0.71999
 C2384 C 0.67517 0.18308 0.69869
 C2385 C 0.65820 0.19431 0.69240
 O2386 O 0.62932 0.21325 0.70391
 C2387 C 0.62291 0.21755 0.72265
 C2388 C 0.63528 0.21043 0.73783
 C2389 C 0.63058 0.21200 0.75856
 C2390 C 0.61227 0.22100 0.76381
 C2391 C 0.59931 0.22855 0.74841
 C2392 C 0.60493 0.22703 0.72755
 H2393 H 0.67040 0.18931 0.75091
 H2394 H 0.69268 0.17371 0.72527
 H2395 H 0.65409 0.19559 0.67641
 H2396 H 0.64035 0.20593 0.77024
 H2397 H 0.60800 0.22180 0.77978
 H2398 H 0.59503 0.23201 0.71542
 C2399 C 1.13708 0.19978 0.21067
 C2400 C 1.12798 0.18302 0.21844
 C2401 C 1.13352 0.16380 0.21278
 C2402 C 1.14938 0.16178 0.19888
 C2403 C 1.15984 0.17881 0.19138
 C2404 C 1.15322 0.19812 0.19729
 O2405 O 1.12848 0.21666 0.21665
 C2406 C 1.11369 0.21041 0.22858
 C2407 C 1.11291 0.18996 0.23040
 C2408 C 1.09829 0.18018 0.24170
 C2409 C 1.08344 0.19192 0.25090
 C2410 C 1.08314 0.21300 0.24819
 C2411 C 1.09890 0.22236 0.23733
 H2412 H 1.12563 0.15083 0.21852
 H2413 H 1.15337 0.14689 0.19393
 H2414 H 1.16034 0.21155 0.19164
 H2415 H 1.09792 0.16405 0.24282
 H2416 H 1.07141 0.18438 0.25887
 H2417 H 1.09902 0.23833 0.23468
 C2418 C 0.11731 0.69683 0.54001
 C2419 C 0.11431 0.71695 0.53723
 C2420 C 0.09728 0.72684 0.54405
 C2421 C 0.08249 0.71541 0.55377
 C2422 C 0.08498 0.69453 0.55643
 C2423 C 0.10278 0.68519 0.54963
 O2424 O 0.13477 0.69049 0.53280
 C2425 C 0.14296 0.70700 0.52524
 C2426 C 0.13096 0.72355 0.52751
 C2427 C 0.13669 0.74251 0.52125
 C2428 C 0.15586 0.74465 0.51292
 C2429 C 0.16885 0.72796 0.51098
 C2430 C 0.16210 0.70874 0.51677
 H2431 H 0.09536 0.74273 0.54178
 H2432 H 0.06882 0.72264 0.55866
 H2433 H 0.10500 0.66927 0.55148
 H2434 H 0.12700 0.75530 0.52326
 H2435 H 0.16088 0.75945 0.50864
 H2436 H 0.17186 0.69586 0.51595
 C2437 C 0.10662 0.21676 1.04162
 C2438 C 0.10548 0.21218 1.02112
 C2439 C 0.08797 0.20512 1.01208
 C2440 C 0.07132 0.20195 1.02486
 C2441 C 0.07261 0.20504 1.04645
 C2442 C 0.09044 0.21356 1.05455
 O2443 O 0.12442 0.22346 1.04734
 C2444 C 0.13486 0.22297 1.03014
 C2445 C 0.12412 0.21604 1.01358
 C2446 C 0.13267 0.21371 0.99425
 C2447 C 0.15298 0.21898 0.99193
 C2448 C 0.16404 0.22668 1.00876
 C2449 C 0.15477 0.22853 1.02811
 H2450 H 0.08718 0.20204 0.99582
 H2451 H 0.05761 0.19660 1.01793
 H2452 H 0.09216 0.21707 1.07061
 H2453 H 0.12405 0.20802 0.98145
 H2454 H 0.15994 0.21754 0.97703
 H2455 H 0.16289 0.23411 1.04132
 C2456 C 0.61612 0.55682 0.21706
 C2457 C 0.62636 0.57342 0.22373
 C2458 C 0.62061 0.59273 0.21879
 C2459 C 0.60324 0.59508 0.20698
 C2460 C 0.59138 0.57830 0.20119
 C2461 C 0.59836 0.55882 0.20596
 O2462 O 0.62486 0.53978 0.22239
 C2463 C 0.64084 0.54581 0.23285
 C2464 C 0.64221 0.56626 0.23440
 C2465 C 0.65743 0.57582 0.24511
 C2466 C 0.67222 0.56384 0.25407
 C2467 C 0.67201 0.54277 0.25149
 C2468 C 0.65577 0.53362 0.24108
 H2469 H 0.62935 0.60554 0.22360
 H2470 H 0.59898 0.61005 0.20257
 H2471 H 0.59009 0.54560 0.20150
 H2472 H 0.65798 0.59194 0.24641
 H2473 H 0.68425 0.57108 0.26232
 H2474 H 0.65509 0.51760 0.23887
 C2475 C 0.60720 1.04037 0.70298
 C2476 C 0.60415 1.02025 0.70011
 C2477 C 0.58563 1.01219 0.69496
 C2478 C 0.56956 1.02544 0.69262
 C2479 C 0.57234 1.04634 0.69509
 C2480 C 0.59152 1.05384 0.70036
 O2481 O 0.62592 1.04489 0.70808
 C2482 C 0.63490 1.02722 0.70837
 C2483 C 0.62223 1.01170 0.70344
 C2484 C 0.62853 0.99198 0.70230
 C2485 C 0.64873 0.98807 0.70639
 C2486 C 0.66208 1.00376 0.71179
 C2487 C 0.65501 1.02363 0.71289
 H2488 H 0.58359 0.99626 0.69295
 H2489 H 0.55493 1.01946 0.68889
 H2490 H 0.59415 1.06970 0.70225
 H2491 H 0.61829 0.98005 0.69827
 H2492 H 0.65393 0.97278 0.70559
 H2493 H 0.66491 1.03589 0.71678
 C2494 C 0.88278 0.44761 0.30451
 C2495 C 0.88328 0.44557 0.28355
 C2496 C 0.90041 0.43968 0.27309
 C2497 C 0.91772 0.43588 0.28473
 C2498 C 0.91750 0.43762 0.30644
 C2499 C 0.89955 0.44333 0.31636
 O2500 O 0.86546 0.45442 0.31146
 C2501 C 0.85472 0.45668 0.29454
 C2502 C 0.86480 0.45126 0.27703
 C2503 C 0.85620 0.45248 0.25762
 C2504 C 0.83650 0.45972 0.25625
 C2505 C 0.82614 0.46598 0.27408
 C2506 C 0.83538 0.46433 0.29348
 H2507 H 0.90058 0.43849 0.25656
 H2508 H 0.93137 0.43183 0.27685
 H2509 H 0.89874 0.44473 0.33286
 H2510 H 0.86438 0.44810 0.24405
 H2511 H 0.82951 0.46097 0.24131
 H2512 H 0.82774 0.46890 0.30733
 C2513 C 0.88137 0.94392 0.78645
 C2514 C 0.87440 0.92600 0.77906
 C2515 C 0.88435 0.90803 0.78225
 C2516 C 0.90211 0.90852 0.79377
 C2517 C 0.91009 0.92690 0.80113
 C2518 C 0.89956 0.94489 0.79697
 O2519 O 0.86875 0.95896 0.78333
 C2520 C 0.85352 0.95034 0.77361
 C2521 C 0.85644 0.93025 0.77033
 C2522 C 0.84257 0.91830 0.76025
 C2523 C 0.82491 0.92738 0.75336
 C2524 C 0.82096 0.94786 0.75740
 C2525 C 0.83563 0.95955 0.76758
 H2526 H 0.87820 0.89402 0.77683
 H2527 H 0.90929 0.89450 0.79745
 H2528 H 0.90495 0.95914 0.80261
 H2529 H 0.84530 0.90257 0.75764
 H2530 H 0.81419 0.91831 0.74512
 H2531 H 0.83321 0.97524 0.77072
 C2532 C 0.37701 0.30216 0.79304
 C2533 C 0.37443 0.28178 0.79370
 C2534 C 0.35729 0.27278 0.80150
 C2535 C 0.34223 0.28529 0.80912
 C2536 C 0.34449 0.30633 0.80868
 C2537 C 0.36203 0.31491 0.80029
 O2538 O 0.39500 0.30754 0.78626
 C2539 C 0.40394 0.29017 0.78258
 C2540 C 0.39192 0.27399 0.78686
 C2541 C 0.39851 0.25440 0.78531
 C2542 C 0.41841 0.25128 0.77944
 C2543 C 0.43133 0.26763 0.77522
 C2544 C 0.42384 0.28740 0.77646
 H2545 H 0.35578 0.25669 0.80216
 H2546 H 0.32889 0.27871 0.81566
 H2547 H 0.36420 0.33094 0.80026
 H2548 H 0.38883 0.24194 0.78901
 H2549 H 0.42390 0.23609 0.77860
 H2550 H 0.43346 0.30017 0.77383
 C2551 C 0.86568 0.29573 0.29248
 C2552 C 0.87460 0.31314 0.28612
 C2553 C 0.86598 0.33177 0.28907
 C2554 C 0.84726 0.33248 0.29873
 C2555 C 0.83712 0.31467 0.30467
 C2556 C 0.84678 0.29601 0.30156
 O2557 O 0.87695 0.27969 0.28928
 C2558 C 0.89327 0.28718 0.28058
 C2559 C 0.89246 0.30755 0.27807
 C2560 C 0.90787 0.31845 0.26916
 C2561 C 0.92500 0.30798 0.26297
 C2562 C 0.92669 0.28707 0.26629
 C2563 C 0.91036 0.27652 0.27496
 H2564 H 0.87356 0.34533 0.28444
 H2565 H 0.84085 0.34702 0.30164
 H2566 H 0.83984 0.28208 0.30606
 H2567 H 0.90682 0.33447 0.26721
 H2568 H 0.93719 0.31632 0.25620
 H2569 H 0.91109 0.26059 0.27773
 C2570 C 0.38602 0.80411 0.45557
 C2571 C 0.39073 0.78416 0.45670
 C2572 C 0.40922 0.77665 0.45079
 C2573 C 0.42336 0.79024 0.44320
 C2574 C 0.41877 0.81091 0.44141
 C2575 C 0.39981 0.81788 0.44800
 O2576 O 0.36742 0.80807 0.46139
 C2577 C 0.36021 0.79020 0.46622
 C2578 C 0.37386 0.77506 0.46354
 C2579 C 0.36916 0.75506 0.46668
 C2580 C 0.34955 0.75048 0.47271
 C2581 C 0.33520 0.76584 0.47566
 C2582 C 0.34073 0.78602 0.47253
 H2583 H 0.41256 0.76086 0.45178
 H2584 H 0.43782 0.78463 0.43849
 H2585 H 0.39564 0.83343 0.44666
 H2586 H 0.38009 0.74339 0.46422
 H2587 H 0.34552 0.73497 0.47498
 H2588 H 0.33000 0.79802 0.47422
 C2589 C 0.38588 0.30075 0.96414
 C2590 C 0.37797 0.31729 0.97361
 C2591 C 0.38761 0.33568 0.97406
 C2592 C 0.40622 0.33711 0.96434
 C2593 C 0.41492 0.32027 0.95453
 C2594 C 0.40456 0.30176 0.95458
 O2595 O 0.37390 0.28489 0.96504
 C2596 C 0.35814 0.29161 0.97536
 C2597 C 0.36000 0.31132 0.98101
 C2598 C 0.34530 0.32152 0.99173
 C2599 C 0.32781 0.31106 0.99671
 C2600 C 0.32520 0.29075 0.99081
 C2601 C 0.34076 0.28088 0.98006
 H2602 H 0.38095 0.34853 0.98145
 H2603 H 0.41382 0.35140 0.96428
 H2604 H 0.41085 0.28866 0.94731
 H2605 H 0.34713 0.33706 0.99595
 H2606 H 0.31613 0.31902 1.00476
 H2607 H 0.33928 0.26548 0.97520
 C2608 C 0.79181 0.44749 0.40376
 C2609 C 0.79078 0.46769 0.40742
 C2610 C 0.79545 0.47611 0.42629
 C2611 C 0.80197 0.46325 0.44187
 C2612 C 0.80430 0.44241 0.43829
 C2613 C 0.79860 0.43442 0.41897
 O2614 O 0.78680 0.44261 0.38468
 C2615 C 0.78269 0.46014 0.37611
 C2616 C 0.78513 0.47599 0.38933
 C2617 C 0.78277 0.49578 0.38325
 C2618 C 0.77752 0.49938 0.36274
 C2619 C 0.77435 0.48328 0.34902
 C2620 C 0.77691 0.46337 0.35580
 H2621 H 0.79435 0.49204 0.42886
 H2622 H 0.80581 0.46964 0.45661
 H2623 H 0.80024 0.41869 0.41555
 H2624 H 0.78510 0.50800 0.39386
 H2625 H 0.77556 0.51463 0.35759
 H2626 H 0.77478 0.45087 0.34547
 C2627 C 0.79005 0.94346 0.87581
 C2628 C 0.76995 0.93911 0.87660
 C2629 C 0.76072 0.93151 0.89401
 C2630 C 0.77270 0.92834 0.91138
 C2631 C 0.79354 0.93256 0.91099
 C2632 C 0.80228 0.94019 0.89283
 O2633 O 0.79576 0.95080 0.85784
 C2634 C 0.77889 0.95106 0.84704
 C2635 C 0.76269 0.94398 0.85783
 C2636 C 0.74360 0.94271 0.84949
 C2637 C 0.74108 0.94887 0.82914
 C2638 C 0.75750 0.95631 0.81759
 C2639 C 0.77668 0.95752 0.82680
 H2640 H 0.74484 0.92833 0.89428
 H2641 H 0.76573 0.92284 0.92523
 H2642 H 0.81812 0.94356 0.89208
 H2643 H 0.73110 0.93707 0.85830
 H2644 H 0.72627 0.94792 0.82242
 H2645 H 0.78953 0.96295 0.81838
 C2646 C 0.30335 0.79125 0.35720
 C2647 C 0.31998 0.78525 0.36796
 C2648 C 0.33928 0.79102 0.36272
 C2649 C 0.34157 0.80353 0.34567
 C2650 C 0.32476 0.80950 0.33372
 C2651 C 0.30536 0.80300 0.33964
 O2652 O 0.28627 0.78565 0.36592
 C2653 C 0.29229 0.77579 0.38249
 C2654 C 0.31280 0.77490 0.38421
 C2655 C 0.32245 0.76580 0.40057
 C2656 C 0.31051 0.75754 0.41599
 C2657 C 0.28928 0.75891 0.41512
 C2658 C 0.28004 0.76803 0.39795
 H2659 H 0.35207 0.78665 0.37188
 H2660 H 0.35643 0.80889 0.34209
 H2661 H 0.29216 0.80747 0.33118
 H2662 H 0.33862 0.76543 0.40164
 H2663 H 0.31791 0.75099 0.42914
 H2664 H 0.26394 0.76960 0.39700
 C2665 C 0.30215 0.30642 0.86652
 C2666 C 0.31817 0.30380 0.87950
 C2667 C 0.33786 0.30726 0.87367
 C2668 C 0.34128 0.31324 0.85344
 C2669 C 0.32516 0.31555 0.83945
 C2670 C 0.30523 0.31248 0.84623
 O2671 O 0.28475 0.30135 0.87500
 C2672 C 0.28998 0.29527 0.89367
 C2673 C 0.31030 0.29643 0.89704
 C2674 C 0.31937 0.28979 0.91490
 C2675 C 0.30703 0.28161 0.93000
 C2676 C 0.28596 0.28035 0.92720
 C2677 C 0.27726 0.28751 0.90879
 H2678 H 0.35019 0.30491 0.88417
 H2679 H 0.35654 0.31551 0.84838
 H2680 H 0.29273 0.31369 0.83574
 H2681 H 0.33542 0.29065 0.91706
 H2682 H 0.31393 0.27645 0.94405
 H2683 H 0.26127 0.28663 0.90618
 C2684 C 0.46028 0.30198 0.89816
 C2685 C 0.44415 0.29863 0.88552
 C2686 C 0.42462 0.30321 0.89105
 C2687 C 0.42153 0.31142 0.91053
 C2688 C 0.43778 0.31444 0.92432
 C2689 C 0.45750 0.30980 0.91780
 O2690 O 0.47763 0.29677 0.88974
 C2691 C 0.47226 0.28985 0.87144
 C2692 C 0.45190 0.29053 0.86824
 C2693 C 0.44282 0.28351 0.85050
 C2694 C 0.45522 0.27544 0.83537
 C2695 C 0.47633 0.27480 0.83803
 C2696 C 0.48501 0.28228 0.85630
 H2697 H 0.41221 0.30067 0.88067
 H2698 H 0.40643 0.31544 0.91482
 H2699 H 0.47026 0.31197 0.92780
 H2700 H 0.42675 0.28413 0.84841
 H2701 H 0.44839 0.27001 0.82136
 H2702 H 0.50105 0.28194 0.85873
 C2703 C 0.95571 0.29840 0.39584
 C2704 C 0.93890 0.29823 0.38361
 C2705 C 0.91998 0.30311 0.39082
 C2706 C 0.91818 0.30776 0.41167
 C2707 C 0.93511 0.30733 0.42481
 C2708 C 0.95425 0.30308 0.41668
 O2709 O 0.97205 0.29225 0.38611
 C2710 C 0.96534 0.28796 0.36742
 C2711 C 0.94513 0.29126 0.36518
 C2712 C 0.93469 0.28654 0.34738
 C2713 C 0.94554 0.27821 0.33113
 C2714 C 0.96647 0.27494 0.33285
 C2715 C 0.97654 0.28003 0.35126
 H2716 H 0.90695 0.30265 0.38094
 H2717 H 0.90348 0.31078 0.41790
 H2718 H 0.96724 0.30212 0.42657
 H2719 H 0.91873 0.28900 0.34611
 H2720 H 0.93767 0.27462 0.31706
 H2721 H 0.99246 0.27755 0.35306
 C2722 C 0.46940 0.38593 0.81359
 C2723 C 0.47650 0.38987 0.79423
 C2724 C 0.47350 0.40803 0.78439
 C2725 C 0.46206 0.42246 0.79459
 C2726 C 0.45377 0.41842 0.81413
 C2727 C 0.45808 0.40016 0.82407
 O2728 O 0.47242 0.36716 0.81942
 C2729 C 0.48143 0.35905 0.80332
 C2730 C 0.48413 0.37231 0.78745
 C2731 C 0.49125 0.36655 0.76833
 C2732 C 0.49582 0.34631 0.76547
 C2733 C 0.49349 0.33245 0.78168
 C2734 C 0.48641 0.33891 0.80096
 H2735 H 0.47892 0.41064 0.76900
 H2736 H 0.45851 0.43630 0.78683
 H2737 H 0.45125 0.39649 0.83861
 H2738 H 0.49270 0.37714 0.75591
 H2739 H 0.50118 0.34138 0.75065
 H2740 H 0.48403 0.32845 0.81337
 C2741 C 0.95606 0.38531 0.30008
 C2742 C 0.97622 0.38828 0.30327
 C2743 C 0.98396 0.40617 0.31069
 C2744 C 0.97034 0.42153 0.31512
 C2745 C 0.94941 0.41862 0.31244
 C2746 C 0.94228 0.40019 0.30473
 O2747 O 0.95174 0.36734 0.29280
 C2748 C 0.96953 0.35872 0.29146
 C2749 C 0.98503 0.37078 0.29785
 C2750 C 1.00484 0.36431 0.29837
 C2751 C 1.00877 0.34465 0.29192
 C2752 C 0.99300 0.33227 0.28478
 C2753 C 0.97315 0.33941 0.28462
 H2754 H 0.99988 0.40823 0.31298
 H2755 H 0.97602 0.43562 0.32084
 H2756 H 0.92643 0.39739 0.30276
 H2757 H 1.01678 0.37396 0.30369
 H2758 H 1.02401 0.33916 0.29217
 H2759 H 0.96085 0.33003 0.27970
 C2760 C 0.29142 0.88484 0.44621
 C2761 C 0.27222 0.88189 0.43921
 C2762 C 0.26176 0.89604 0.42794
 C2763 C 0.27156 0.91400 0.42347
 C2764 C 0.29148 0.91746 0.43018
 C2765 C 0.30151 0.90264 0.44186
 O2766 O 0.29869 0.86916 0.45629
 C2767 C 0.28372 0.85604 0.45556
 C2768 C 0.26728 0.86318 0.44518
 C2769 C 0.25016 0.85192 0.44181
 C2770 C 0.24990 0.83244 0.44946
 C2771 C 0.26653 0.82455 0.46041
 C2772 C 0.28370 0.83663 0.46363
 H2773 H 0.24666 0.89327 0.42258
 H2774 H 0.26372 0.92516 0.41458
 H2775 H 0.31684 0.90473 0.44682
 H2776 H 0.23749 0.85788 0.43346
 H2777 H 0.23655 0.82355 0.44699
 H2778 H 0.29666 0.83101 0.47177
 C2779 C 0.28609 0.38960 0.94571
 C2780 C 0.27748 0.39498 0.96405
 C2781 C 0.28087 0.41338 0.97334
 C2782 C 0.29412 0.42655 0.96364
 C2783 C 0.30370 0.42106 0.94514
 C2784 C 0.29916 0.40260 0.93571
 O2785 O 0.28279 0.37066 0.94070
 C2786 C 0.27204 0.36387 0.95629
 C2787 C 0.26843 0.37816 0.97101
 C2788 C 0.25975 0.37374 0.98981
 C2789 C 0.25486 0.35374 0.99372
 C2790 C 0.25848 0.33879 0.97881
 C2791 C 0.26676 0.34397 0.95964
 H2792 H 0.27434 0.41706 0.98803
 H2793 H 0.29783 0.44058 0.97101
 H2794 H 0.30694 0.39784 0.92203
 H2795 H 0.25767 0.38511 1.00141
 H2796 H 0.24873 0.34978 1.00852
 H2797 H 0.27035 0.33264 0.94837
 C2798 C 0.78952 0.36115 0.29652
 C2799 C 0.78110 0.36706 0.31475
 C2800 C 0.78444 0.35714 0.33310
 C2801 C 0.79687 0.34033 0.33262
 C2802 C 0.80552 0.33362 0.31397
 C2803 C 0.80157 0.34415 0.29559
 O2804 O 0.78549 0.37352 0.28116
 C2805 C 0.77427 0.38748 0.28992
 C2806 C 0.77097 0.38407 0.31040
 C2807 C 0.76024 0.39710 0.32276
 C2808 C 0.75307 0.41471 0.31378
 C2809 C 0.75699 0.41909 0.29286
 C2810 C 0.76737 0.40496 0.28068
 H2811 H 0.77795 0.36231 0.34732
 H2812 H 0.79979 0.33248 0.34681
 H2813 H 0.80784 0.33931 0.28114
 H2814 H 0.75797 0.39412 0.33888
 H2815 H 0.74538 0.42536 0.32346
 H2816 H 0.77088 0.40790 0.26478
   
