data_POSCAR
  _audit_creation_date              2014-09-24
  _audit_creation_method            'ToBaCCo'
  _symmetry_space_group_name_H-M    'P1'
  _symmetry_Int_Tables_number       1
  _symmetry_cell_setting            triclinic
  loop_
  _symmetry_equiv_pos_as_xyz
 x,y,z
_cell_length_a 48.8164
_cell_length_b 47.3390
_cell_length_c 47.3115
_cell_angle_alpha 92.919000
_cell_angle_beta 91.816500
_cell_angle_gamma 92.350400
loop_
  _atom_site_label
  _atom_site_type_symbol
  _atom_site_fract_x
  _atom_site_fract_y
  _atom_site_fract_z
C1 C 0.69995 0.64370 0.98025
 H2 H 0.71822 0.64217 0.96801
 C3 C 0.67765 0.65792 0.96972
 H4 H 0.67911 0.66711 0.94932
 C5 C 0.67532 0.63160 1.02052
 H6 H 0.67413 0.62084 1.04003
 C7 C 0.65267 0.64599 1.01099
 H8 H 0.63471 0.64666 1.02380
 N9 N 0.69843 0.63073 1.00518
 C10 C 0.77967 0.62279 1.04302
 H11 H 0.77624 0.60216 1.05137
 C12 C 0.80361 0.63866 1.05081
 H13 H 0.81862 0.62992 1.06488
 C14 C 0.76407 0.65941 1.01506
 H15 H 0.74849 0.66766 1.00148
 C16 C 0.78799 0.67596 1.02212
 H17 H 0.79054 0.69684 1.01396
 Zn18 Zn 0.72847 0.60944 1.01752
 N19 N 0.76041 0.63326 1.02547
 C20 C 0.76045 0.56833 0.99103
 N21 N 0.73651 0.58187 0.98870
 C22 C 0.72026 0.57848 0.96474
 C23 C 0.72908 0.56300 0.94106
 C24 C 0.76993 0.55245 0.96796
 C25 C 0.71746 0.61109 1.07422
 C26 C 0.70907 0.60169 1.10005
 C27 C 0.70667 0.55383 1.07963
 C28 C 0.71494 0.56437 1.05393
 N29 N 0.71947 0.59265 1.05162
 H30 H 0.77294 0.57102 1.01029
 H31 H 0.70092 0.58867 0.96348
 H32 H 0.71646 0.56149 0.92176
 H33 H 0.78980 0.54320 0.96972
 H34 H 0.72199 0.63342 1.07197
 H35 H 0.70882 0.61741 1.11741
 H36 H 0.70181 0.53137 1.07982
 H37 H 0.71692 0.55006 1.03561
 C38 C 0.80795 0.66566 1.04045
 C39 C 0.65350 0.65921 0.98512
 C40 C 0.70245 0.57263 1.10329
 C41 C 0.75463 0.55051 0.94224
 C42 C 0.72387 0.31423 0.48892
 H43 H 0.73087 0.31510 0.46751
 C44 C 0.70285 0.29463 0.49504
 H45 H 0.69432 0.28003 0.47840
 C46 C 0.72542 0.33308 0.53631
 H47 H 0.73338 0.34863 0.55224
 C48 C 0.70455 0.31410 0.54326
 H49 H 0.69692 0.31559 0.56450
 N50 N 0.73460 0.33307 0.50949
 C51 C 0.81370 0.36823 0.48414
 H52 H 0.81185 0.38959 0.49281
 C53 C 0.83812 0.36057 0.47203
 H54 H 0.85474 0.37632 0.47108
 C55 C 0.79482 0.32151 0.47621
 H56 H 0.77803 0.30626 0.47813
 C57 C 0.81903 0.31287 0.46391
 H58 H 0.82040 0.29115 0.45590
 Zn59 Zn 0.76005 0.36293 0.50135
 N60 N 0.79236 0.34902 0.48533
 C61 C 0.78699 0.36939 0.55403
 N62 N 0.77067 0.38296 0.53578
 C63 C 0.76123 0.40895 0.54278
 C64 C 0.76777 0.42206 0.56945
 C65 C 0.79393 0.38165 0.58084
 C66 C 0.71568 0.38227 0.46912
 C67 C 0.70217 0.39923 0.45043
 C68 C 0.74413 0.42746 0.44708
 C69 C 0.75692 0.40983 0.46587
 N70 N 0.74269 0.38751 0.47627
 H71 H 0.79413 0.34871 0.54788
 H72 H 0.74807 0.41918 0.52798
 H73 H 0.75962 0.44246 0.57499
 H74 H 0.80696 0.37048 0.59505
 H75 H 0.70439 0.36493 0.47793
 H76 H 0.68084 0.39414 0.44462
 H77 H 0.75575 0.44519 0.43919
 H78 H 0.77816 0.41415 0.47216
 C79 C 0.84084 0.33272 0.46121
 C80 C 0.69279 0.29458 0.52254
 C81 C 0.71638 0.42218 0.43907
 C82 C 0.78404 0.40818 0.58899
 C83 C 0.20150 -0.18268 -0.00591
 H84 H 0.21838 -0.19650 -0.00847
 C85 C 0.17644 -0.19357 0.00344
 H86 H 0.17450 -0.21558 0.00854
 C87 C 0.18349 -0.13717 -0.00866
 H88 H 0.18625 -0.11524 -0.01371
 C89 C 0.15821 -0.14712 0.00050
 H90 H 0.14172 -0.13262 0.00258
 N91 N 0.20479 -0.15467 -0.01087
 C92 C 0.27705 -0.16041 -0.05690
 H93 H 0.27069 -0.14423 -0.07062
 C94 C 0.29906 -0.17657 -0.06452
 H95 H 0.30896 -0.17275 -0.08422
 C96 C 0.27376 -0.18318 -0.01361
 H97 H 0.26450 -0.18480 0.00674
 C98 C 0.29607 -0.19966 -0.02032
 H99 H 0.30334 -0.21453 -0.00544
 Zn100 Zn 0.23866 -0.13700 -0.02045
 N101 N 0.26489 -0.16375 -0.03174
 C102 C 0.28044 -0.11831 0.01934
 N103 N 0.25382 -0.11473 0.01150
 C104 C 0.23855 -0.09588 0.02614
 C105 C 0.24995 -0.08005 0.04976
 C106 C 0.29245 -0.10336 0.04296
 C107 C 0.22027 -0.12588 -0.07536
 C108 C 0.21506 -0.10975 -0.09868
 C109 C 0.23110 -0.06802 -0.07052
 C110 C 0.23689 -0.08517 -0.04812
 N111 N 0.23130 -0.11351 -0.05085
 H112 H 0.29265 -0.13273 0.00728
 H113 H 0.21757 -0.09290 0.01946
 H114 H 0.23756 -0.06487 0.06077
 H115 H 0.31341 -0.10745 0.04906
 H116 H 0.21572 -0.14848 -0.07684
 H117 H 0.20552 -0.12066 -0.11732
 H118 H 0.23682 -0.04575 -0.06742
 H119 H 0.24599 -0.07576 -0.02857
 C120 C 0.30910 -0.19622 -0.04601
 C121 C 0.15464 -0.17547 0.00747
 C122 C 0.21996 -0.08001 -0.09668
 C123 C 0.27729 -0.08377 0.05855
 C124 C 0.22204 0.18377 0.46139
 H125 H 0.24251 0.18493 0.45329
 C126 C 0.20276 0.20279 0.45272
 H127 H 0.20866 0.21871 0.43816
 C128 C 0.18925 0.16095 0.48930
 H129 H 0.18386 0.14420 0.50304
 C130 C 0.16931 0.17956 0.48118
 H131 H 0.14867 0.17672 0.48860
 N132 N 0.21480 0.16279 0.47866
 C133 C 0.29630 0.13100 0.49114
 H134 H 0.29180 0.10918 0.48437
 C135 C 0.32324 0.13984 0.49829
 H136 H 0.33920 0.12468 0.49648
 C137 C 0.28097 0.17695 0.50231
 H138 H 0.26427 0.19112 0.50447
 C139 C 0.30782 0.18670 0.50998
 H140 H 0.31159 0.20835 0.51810
 Zn141 Zn 0.23974 0.13378 0.48526
 N142 N 0.27574 0.14939 0.49336
 C143 C 0.25041 0.08252 0.45430
 N144 N 0.24103 0.10908 0.45224
 C145 C 0.23639 0.11990 0.42652
 C146 C 0.24353 0.10504 0.40184
 C147 C 0.25795 0.06690 0.43005
 C148 C 0.24073 0.12071 0.54251
 C149 C 0.23166 0.10796 0.56669
 C150 C 0.19845 0.07981 0.53724
 C151 C 0.20812 0.09316 0.51361
 N152 N 0.22867 0.11344 0.51671
 H153 H 0.25389 0.07425 0.47495
 H154 H 0.22868 0.14078 0.42505
 H155 H 0.24109 0.11473 0.38171
 H156 H 0.26734 0.04677 0.43223
 H157 H 0.25687 0.13709 0.54451
 H158 H 0.24083 0.11488 0.58715
 H159 H 0.18189 0.06389 0.53439
 H160 H 0.19886 0.08780 0.49286
 C161 C 0.32925 0.16781 0.50851
 C162 C 0.17573 0.20025 0.46192
 C163 C 0.20992 0.08754 0.56434
 C164 C 0.25570 0.07883 0.40356
 C165 C 0.17593 0.49382 0.20261
 H166 H 0.17395 0.48185 0.22137
 C167 C 0.18896 0.48222 0.17916
 H168 H 0.19657 0.46115 0.18023
 C169 C 0.16610 0.53469 0.17798
 H170 H 0.15656 0.55480 0.17720
 C171 C 0.17953 0.52421 0.15426
 H172 H 0.18074 0.53694 0.13595
 N173 N 0.16447 0.51942 0.20151
 C174 C 0.15017 0.55660 0.28538
 H175 H 0.12825 0.55838 0.28252
 C176 C 0.16303 0.56492 0.31128
 H177 H 0.15095 0.57368 0.32815
 C178 C 0.19234 0.54248 0.26677
 H179 H 0.20343 0.53318 0.24945
 C180 C 0.20616 0.55078 0.29247
 H181 H 0.22800 0.54795 0.29482
 Zn182 Zn 0.14299 0.53091 0.23235
 N183 N 0.16474 0.54508 0.26401
 C184 C 0.12930 0.48866 0.26914
 N185 N 0.12240 0.49848 0.24347
 C186 C 0.10308 0.48437 0.22606
 C187 C 0.08896 0.46016 0.23501
 C188 C 0.11600 0.46466 0.27872
 C189 C 0.13357 0.58588 0.21796
 C190 C 0.11883 0.60897 0.21003
 C191 C 0.07700 0.58020 0.21234
 C192 C 0.09261 0.55759 0.22018
 N193 N 0.12043 0.56063 0.22219
 H194 H 0.14559 0.49904 0.28222
 H195 H 0.09857 0.49194 0.20530
 H196 H 0.07318 0.44956 0.22126
 H197 H 0.12227 0.45722 0.29911
 H198 H 0.15569 0.58791 0.22036
 H199 H 0.12984 0.62853 0.20577
 H200 H 0.05488 0.57737 0.21068
 H201 H 0.08245 0.53768 0.22457
 C202 C 0.19126 0.56156 0.31528
 C203 C 0.19076 0.49734 0.15435
 C204 C 0.09016 0.60622 0.20677
 C205 C 0.09517 0.45029 0.26190
 C206 C -0.17947 0.03719 0.22465
 H207 H -0.18156 0.05011 0.24382
 C208 C -0.19566 0.04227 0.20066
 H209 H -0.20894 0.05997 0.20199
 C210 C -0.15900 -0.00070 0.20012
 H211 H -0.14539 -0.01806 0.20000
 C212 C -0.17457 0.00367 0.17566
 H213 H -0.17254 -0.01089 0.15755
 N214 N -0.16058 0.01687 0.22360
 C215 C -0.14352 0.01078 0.31286
 H216 H -0.12672 0.02642 0.31512
 C217 C -0.15344 -0.00177 0.33682
 H218 H -0.14427 0.00446 0.35746
 C219 C -0.17415 -0.01827 0.28298
 H220 H -0.18140 -0.02521 0.26181
 C221 C -0.18453 -0.03148 0.30631
 H222 H -0.20023 -0.04826 0.30299
 Zn223 Zn -0.13493 0.01300 0.25441
 N224 N -0.15354 0.00190 0.28661
 C225 C -0.12834 0.07110 0.27175
 N226 N -0.11466 0.04787 0.26311
 C227 C -0.08686 0.04919 0.26130
 C228 C -0.07190 0.07463 0.26754
 C229 C -0.11420 0.09704 0.27801
 C230 C -0.11136 -0.04065 0.25753
 C231 C -0.09719 -0.06380 0.24714
 C232 C -0.08026 -0.03529 0.21002
 C233 C -0.09496 -0.01279 0.22094
 N234 N -0.11075 -0.01604 0.24383
 H235 H -0.15017 0.06946 0.27449
 H236 H -0.07606 0.03048 0.25540
 H237 H -0.04982 0.07524 0.26586
 H238 H -0.12542 0.11516 0.28521
 H239 H -0.12382 -0.04288 0.27579
 H240 H -0.09929 -0.08366 0.25741
 H241 H -0.06835 -0.03238 0.19140
 H242 H -0.09484 0.00693 0.21032
 C243 C -0.17355 -0.02385 0.33357
 C244 C -0.19250 0.02624 0.17503
 C245 C -0.08203 -0.06156 0.22255
 C246 C -0.08560 0.09900 0.27595
 C247 C 0.35267 0.50858 0.70077
 H248 H 0.35118 0.51716 0.72216
 C249 C 0.33767 0.52035 0.67906
 H250 H 0.32488 0.53794 0.68415
 C251 C 0.37250 0.47676 0.66787
 H252 H 0.38659 0.46026 0.66340
 C253 C 0.35785 0.48792 0.64549
 H254 H 0.36044 0.47939 0.62412
 N255 N 0.36969 0.48714 0.69495
 C256 C 0.36635 0.43554 0.76275
 H257 H 0.37643 0.41922 0.75084
 C258 C 0.35159 0.42824 0.78623
 H259 H 0.35057 0.40633 0.79181
 C260 C 0.35734 0.48389 0.77149
 H261 H 0.36071 0.50572 0.76650
 C262 C 0.34220 0.47749 0.79510
 H263 H 0.33309 0.49445 0.80726
 Zn264 Zn 0.39112 0.47285 0.72499
 N265 N 0.36872 0.46295 0.75554
 C266 C 0.42901 0.49700 0.76508
 N267 N 0.41662 0.50130 0.73963
 C268 C 0.41999 0.52633 0.72699
 C269 C 0.43498 0.54897 0.74098
 C270 C 0.44401 0.51903 0.77982
 C271 C 0.39462 0.41824 0.69916
 C272 C 0.40740 0.39391 0.68955
 C273 C 0.45106 0.41607 0.70533
 C274 C 0.43744 0.44002 0.71458
 N275 N 0.40968 0.44063 0.71152
 H276 H 0.42588 0.47689 0.77464
 H277 H 0.40992 0.52923 0.70672
 H278 H 0.43605 0.56934 0.73154
 H279 H 0.45250 0.51576 0.80077
 H280 H 0.37257 0.41933 0.69682
 H281 H 0.39506 0.37651 0.67941
 H282 H 0.47313 0.41585 0.70833
 H283 H 0.44908 0.45804 0.72433
 C284 C 0.33912 0.44929 0.80273
 C285 C 0.34027 0.51015 0.65094
 C286 C 0.43601 0.39258 0.69263
 C287 C 0.44623 0.54569 0.76821
 C288 C 0.65821 0.93508 0.71560
 H289 H 0.65488 0.92107 0.73256
 C290 C 0.67489 0.92689 0.69344
 H291 H 0.68403 0.90644 0.69354
 C292 C 0.64979 0.97827 0.69436
 H293 H 0.64020 0.99845 0.69492
 C294 C 0.66625 0.97090 0.67178
 H295 H 0.66918 0.98553 0.65516
 N296 N 0.64575 0.96025 0.71551
 C297 C 0.62655 0.98942 0.80099
 H298 H 0.60446 0.98620 0.79960
 C299 C 0.63934 1.00037 0.82616
 H300 H 0.62620 1.00618 0.84326
 C301 C 0.66917 0.98747 0.77874
 H302 H 0.68063 0.98230 0.76011
 C303 C 0.68295 0.99826 0.80360
 H304 H 0.70507 1.00023 0.80352
 Zn305 Zn 0.62153 0.97051 0.74455
 N306 N 0.64145 0.98369 0.77783
 C307 C 0.61225 0.92060 0.77116
 N308 N 0.59953 0.93871 0.75417
 C309 C 0.57224 0.93519 0.74725
 C310 C 0.55668 0.91281 0.75782
 C311 C 0.59746 0.89834 0.78244
 C312 C 0.60269 1.02612 0.74507
 C313 C 0.58991 1.04901 0.73378
 C314 C 0.57080 1.01759 0.69570
 C315 C 0.58410 0.99530 0.70764
 N316 N 0.59988 0.99995 0.73176
 H317 H 0.63375 0.92423 0.77700
 H318 H 0.56225 0.95011 0.73435
 H319 H 0.53485 0.91062 0.75291
 H320 H 0.60775 0.88467 0.79667
 H321 H 0.61593 1.02969 0.76372
 H322 H 0.59351 1.06988 0.74400
 H323 H 0.55865 1.01352 0.67628
 H324 H 0.58280 0.97449 0.69699
 C325 C 0.66811 1.00541 0.82801
 C326 C 0.67887 0.94479 0.67100
 C327 C 0.57415 1.04503 0.70846
 C328 C 0.56929 0.89454 0.77613
 C329 C 0.03022 0.22752 -0.13880
 H330 H 0.03953 0.24868 -0.13666
 C331 C 0.04180 0.20704 -0.15634
 H332 H 0.05951 0.21304 -0.16823
 C333 C -0.00385 0.19421 -0.12538
 H334 H -0.02131 0.18918 -0.11281
 C335 C 0.00742 0.17286 -0.14232
 H336 H -0.00148 0.15154 -0.14235
 N337 N 0.00775 0.22091 -0.12382
 C338 C -0.03073 0.30059 -0.10431
 H339 H -0.03658 0.29679 -0.08294
 C340 C -0.03907 0.32491 -0.11694
 H341 H -0.05117 0.33970 -0.10501
 C342 C -0.00968 0.28488 -0.14633
 H343 H 0.00126 0.26909 -0.15804
 C344 C -0.01760 0.30901 -0.15982
 H345 H -0.01209 0.31166 -0.18154
 Zn346 Zn -0.00526 0.24950 -0.09866
 N347 N -0.01577 0.28141 -0.11878
 C348 C 0.02269 0.28626 -0.05706
 N349 N 0.02358 0.26088 -0.07175
 C350 C 0.04644 0.24534 -0.07047
 C351 C 0.07041 0.25651 -0.05639
 C352 C 0.04620 0.29829 -0.04293
 C353 C -0.05949 0.23032 -0.09796
 C354 C -0.08427 0.22156 -0.08672
 C355 C -0.06211 0.22456 -0.04025
 C356 C -0.03771 0.23336 -0.05255
 N357 N -0.03689 0.23595 -0.08092
 H358 H 0.00436 0.29816 -0.05778
 H359 H 0.04669 0.22496 -0.08181
 H360 H 0.08903 0.24487 -0.05747
 H361 H 0.04572 0.31944 -0.03312
 H362 H -0.05817 0.23258 -0.12053
 H363 H -0.10094 0.21601 -0.10178
 H364 H -0.06172 0.22419 -0.01745
 H365 H -0.01953 0.23856 -0.03934
 C366 C -0.03226 0.32956 -0.14498
 C367 C 0.03079 0.17908 -0.15788
 C368 C -0.08639 0.21842 -0.05720
 C369 C 0.07076 0.28391 -0.04366
 C370 C 0.46454 0.22938 0.15466
 H371 H 0.45342 0.24862 0.15473
 C372 C 0.45389 0.20613 0.16834
 H373 H 0.43473 0.20794 0.17908
 C374 C 0.50295 0.20375 0.14077
 H375 H 0.52212 0.20283 0.13006
 C376 C 0.49294 0.17990 0.15404
 H377 H 0.50431 0.16074 0.15279
 N378 N 0.48830 0.22761 0.14055
 C379 C 0.51482 0.31545 0.12886
 H380 H 0.51400 0.31541 0.10598
 C381 C 0.52169 0.34051 0.14481
 H382 H 0.52671 0.35952 0.13393
 C383 C 0.50990 0.29032 0.17056
 H384 H 0.50519 0.27070 0.18046
 C385 C 0.51645 0.31498 0.18736
 H386 H 0.51649 0.31403 0.21017
 Zn387 Zn 0.49946 0.25822 0.11836
 N388 N 0.50937 0.29097 0.14186
 C389 C 0.45093 0.28446 0.10834
 N390 N 0.46907 0.26771 0.09508
 C391 C 0.46548 0.25965 0.06708
 C392 C 0.44294 0.26873 0.05137
 C393 C 0.42850 0.29422 0.09346
 C394 C 0.55448 0.26219 0.10089
 C395 C 0.57776 0.25312 0.08724
 C396 C 0.55024 0.21435 0.06460
 C397 C 0.52746 0.22424 0.07857
 N398 N 0.52995 0.24762 0.09657
 H399 H 0.45431 0.29098 0.13044
 H400 H 0.48022 0.24668 0.05670
 H401 H 0.44055 0.26284 0.02898
 H402 H 0.41469 0.30818 0.10422
 H403 H 0.55632 0.28043 0.11557
 H404 H 0.59707 0.26495 0.09115
 H405 H 0.54796 0.19504 0.05130
 H406 H 0.50800 0.21246 0.07607
 C407 C 0.52269 0.34054 0.17452
 C408 C 0.46772 0.18066 0.16745
 C409 C 0.57595 0.22862 0.06914
 C410 C 0.42447 0.28659 0.06461
 C411 C 0.97134 0.71172 0.69038
 H412 H 0.96202 0.73208 0.69116
 C413 C 0.96027 0.68963 0.70562
 H414 H 0.94229 0.69322 0.71789
 C415 C 1.00477 0.68183 0.67163
 H416 H 1.02140 0.67835 0.65757
 C417 C 0.99472 0.65940 0.68682
 H418 H 1.00456 0.63935 0.68492
 N419 N 0.99298 0.70736 0.67353
 C420 C 1.02350 0.79082 0.65248
 H421 H 1.02104 0.78677 0.62981
 C422 C 1.03361 0.81710 0.66326
 H423 H 1.03838 0.83326 0.64857
 C424 C 1.01928 0.77447 0.69873
 H425 H 1.01377 0.75758 0.71230
 C426 C 1.03000 0.80062 0.71056
 H427 H 1.03293 0.80364 0.73331
 Zn428 Zn 1.00430 0.73637 0.64972
 N429 N 1.01649 0.77016 0.67009
 C430 C 0.96100 0.76903 0.63301
 N431 N 0.97375 0.74476 0.62608
 C432 C 0.96453 0.72741 0.60361
 C433 C 0.94286 0.73542 0.58594
 C434 C 0.93952 0.77779 0.61606
 C435 C 1.05735 0.71863 0.64427
 C436 C 1.08153 0.71163 0.63124
 C437 C 1.06015 0.72079 0.58611
 C438 C 1.03604 0.72697 0.60003
 N439 N 1.03500 0.72550 0.62862
 H440 H 0.96755 0.78184 0.65173
 H441 H 0.97440 0.70774 0.59900
 H442 H 0.93631 0.72202 0.56754
 H443 H 0.92999 0.79744 0.62184
 H444 H 1.05628 0.71844 0.66707
 H445 H 1.09851 0.70518 0.64431
 H446 H 1.06067 0.72287 0.56347
 H447 H 1.01852 0.73376 0.58804
 C448 C 1.03771 0.82220 0.69261
 C449 C 0.97170 0.66283 0.70355
 C450 C 1.08340 0.71285 0.60172
 C451 C 0.93063 0.76134 0.59177
 C452 C 0.52072 0.74509 0.35870
 H453 H 0.53063 0.76554 0.35573
 C454 C 0.53089 0.72074 0.34569
 H455 H 0.54828 0.72275 0.33219
 C456 C 0.48691 0.71764 0.38111
 H457 H 0.47052 0.71636 0.39586
 C458 C 0.49649 0.69269 0.36857
 H459 H 0.48720 0.67253 0.37375
 N460 N 0.49940 0.74313 0.37638
 C461 C 0.47422 0.83039 0.39018
 H462 H 0.47560 0.83189 0.41308
 C463 C 0.46520 0.85325 0.37545
 H464 H 0.45919 0.87172 0.38774
 C465 C 0.47870 0.80321 0.34738
 H466 H 0.48382 0.78357 0.33655
 C467 C 0.46941 0.82542 0.33173
 H468 H 0.46866 0.82247 0.30890
 Zn469 Zn 0.49158 0.77612 0.39861
 N470 N 0.48098 0.80610 0.37607
 C471 C 0.53735 0.81190 0.41640
 N472 N 0.52425 0.78650 0.41994
 C473 C 0.53607 0.76658 0.43553
 C474 C 0.56262 0.77143 0.44730
 C475 C 0.56373 0.81767 0.42789
 C476 C 0.43767 0.76138 0.40818
 C477 C 0.41446 0.75473 0.42326
 C478 C 0.44141 0.76362 0.46678
 C479 C 0.46426 0.76999 0.45077
 N480 N 0.46201 0.76830 0.42200
 H481 H 0.52801 0.82725 0.40349
 H482 H 0.52540 0.74634 0.43756
 H483 H 0.57225 0.75485 0.45844
 H484 H 0.57402 0.83781 0.42428
 H485 H 0.43650 0.76047 0.38527
 H486 H 0.39563 0.74810 0.41165
 H487 H 0.44353 0.76485 0.48966
 H488 H 0.48374 0.77611 0.46128
 C489 C 0.46232 0.85115 0.34562
 C490 C 0.51929 0.69399 0.35124
 C491 C 0.41612 0.75557 0.45299
 C492 C 0.57708 0.79695 0.44275
 C493 C 0.36965 0.00511 0.24006
 C494 C 0.12863 1.01679 0.74533
 C495 C 0.61107 0.51435 0.28219
 C496 C 0.86742 0.49116 0.77484
 C497 C 0.25938 0.38281 -0.01513
 C498 C 0.73979 0.12115 1.00251
 C499 C 0.25536 0.63897 0.51130
 C500 C 0.77307 0.85984 0.50012
 C501 C 0.01324 0.27962 0.35766
 C502 C 0.98689 0.76363 0.11634
 C503 C 0.51739 0.21654 0.60225
 C504 C 0.48801 0.73193 0.88057
 C505 C 0.42865 -0.08121 0.30100
 C506 C 0.42588 -0.10946 0.28968
 C507 C 0.43767 -0.13145 0.30403
 C508 C 0.45187 -0.12623 0.33034
 C509 C 0.45461 -0.09791 0.34131
 C510 C 0.44338 -0.07584 0.32688
 C511 C 0.41509 -0.05847 0.28522
 C512 C 0.41656 -0.02966 0.29447
 C513 C 0.40266 -0.00959 0.27946
 C514 C 0.38704 -0.01730 0.25446
 C515 C 0.38539 -0.04631 0.24555
 C516 C 0.39950 -0.06653 0.26024
 C517 C 0.41069 -0.11584 0.26440
 C518 C 0.39762 -0.09491 0.25015
 H519 H 0.40849 -0.13747 0.25570
 H520 H 0.38577 -0.10109 0.23090
 H521 H 0.43410 -0.15290 0.29525
 H522 H 0.46621 -0.09233 0.36079
 H523 H 0.40380 0.01224 0.28763
 H524 H 0.37243 -0.05391 0.22761
 H525 H 0.44633 -0.05474 0.33650
 H526 H 0.42809 -0.02218 0.31339
 C527 C 0.93709 0.40375 0.81760
 C528 C 0.93734 0.37776 0.80145
 C529 C 0.94835 0.35390 0.81332
 C530 C 0.95882 0.35537 0.84138
 C531 C 0.95948 0.38144 0.85691
 C532 C 0.94881 0.40531 0.84527
 C533 C 0.92288 0.42794 0.80515
 C534 C 0.92093 0.45441 0.81972
 C535 C 0.90436 0.47485 0.80889
 C536 C 0.88878 0.46950 0.78345
 C537 C 0.89398 0.44474 0.76694
 C538 C 0.91002 0.42365 0.77798
 C539 C 0.92566 0.37544 0.77395
 C540 C 0.91231 0.39790 0.76246
 H541 H 0.92612 0.35566 0.76142
 H542 H 0.90282 0.39472 0.74145
 H543 H 0.94754 0.33383 0.80115
 H544 H 0.96799 0.38333 0.87838
 H545 H 0.90240 0.49448 0.82131
 H546 H 0.88500 0.44119 0.74582
 H547 H 0.94940 0.42452 0.85855
 H548 H 0.93128 0.45948 0.83991
 C549 C 0.07248 1.11329 0.79614
 C550 C 0.04357 1.11161 0.79753
 C551 C 0.02989 1.13337 0.81190
 C552 C 0.04476 1.15640 0.82585
 C553 C 0.07350 1.15729 0.82511
 C554 C 0.08716 1.13622 0.81043
 C555 C 0.08640 1.08983 0.78075
 C556 C 0.11464 1.09107 0.77603
 C557 C 0.12719 1.06789 0.76382
 C558 C 0.11226 1.04230 0.75629
 C559 C 0.08343 1.04218 0.75799
 C560 C 0.07052 1.06565 0.77036
 C561 C 0.02869 1.08786 0.78528
 C562 C 0.04191 1.06515 0.77245
 H563 H 0.00654 1.08643 0.78636
 H564 H 0.02954 1.04690 0.76409
 H565 H 0.00769 1.13223 0.81234
 H566 H 0.08570 1.17404 0.83652
 H567 H 0.14919 1.06943 0.76137
 H568 H 0.07083 1.02412 0.74982
 H569 H 0.10927 1.13793 0.81124
 H570 H 0.12752 1.10967 0.78175
 C571 C 0.55899 0.61755 0.32479
 C572 C 0.53004 0.61828 0.32322
 C573 C 0.51703 0.64323 0.33166
 C574 C 0.53257 0.66772 0.34129
 C575 C 0.56127 0.66686 0.34245
 C576 C 0.57431 0.64228 0.33429
 C577 C 0.57215 0.59063 0.31575
 C578 C 0.60062 0.58761 0.31782
 C579 C 0.61215 0.56289 0.30773
 C580 C 0.59593 0.54011 0.29484
 C581 C 0.56715 0.54218 0.29481
 C582 C 0.55528 0.56732 0.30482
 C583 C 0.51435 0.59421 0.31300
 C584 C 0.52669 0.56939 0.30383
 H585 H 0.49217 0.59468 0.31175
 H586 H 0.51362 0.55155 0.29571
 H587 H 0.49485 0.64370 0.33042
 H588 H 0.57380 0.68519 0.35024
 H589 H 0.63429 0.56189 0.30897
 H590 H 0.55377 0.52458 0.28701
 H591 H 0.59640 0.64323 0.33558
 H592 H 0.61452 0.60414 0.32689
 C593 C 0.55105 0.41668 0.22321
 C594 C 0.55778 0.38958 0.23201
 C595 C 0.54798 0.36504 0.21641
 C596 C 0.53133 0.36674 0.19189
 C597 C 0.52398 0.39359 0.18363
 C598 C 0.53366 0.41823 0.19903
 C599 C 0.56355 0.44238 0.23959
 C600 C 0.55974 0.47037 0.23186
 C601 C 0.57376 0.49332 0.24658
 C602 C 0.59169 0.48939 0.26991
 C603 C 0.59487 0.46124 0.27781
 C604 C 0.58116 0.43815 0.26311
 C605 C 0.57477 0.38700 0.25600
 C606 C 0.58613 0.41073 0.27124
 H607 H 0.57974 0.36626 0.26288
 H608 H 0.59957 0.40752 0.28938
 H609 H 0.55420 0.34457 0.22290
 H610 H 0.51071 0.39560 0.16514
 H611 H 0.57140 0.51433 0.23902
 H612 H 0.60940 0.45643 0.29437
 H613 H 0.52750 0.43823 0.19153
 H614 H 0.54675 0.47493 0.21395
 C615 C 0.07371 0.90446 0.71990
 C616 C 0.08242 0.88952 0.69534
 C617 C 0.07171 0.86224 0.68797
 C618 C 0.05099 0.84965 0.70355
 C619 C 0.04236 0.86422 0.72809
 C620 C 0.05367 0.89128 0.73629
 C621 C 0.08593 0.93382 0.72674
 C622 C 0.08114 0.94985 0.75191
 C623 C 0.09397 0.97675 0.75739
 C624 C 0.11096 0.98921 0.73742
 C625 C 0.11592 0.97265 0.71254
 C626 C 0.10407 0.94548 0.70734
 C627 C 0.10119 0.90207 0.67760
 C628 C 0.11139 0.92961 0.68319
 H629 H 0.10768 0.89061 0.65872
 H630 H 0.12560 0.93849 0.66853
 H631 H 0.07920 0.85097 0.66943
 H632 H 0.02629 0.85508 0.74046
 H633 H 0.09113 0.98768 0.77768
 H634 H 0.13062 0.97985 0.69758
 H635 H 0.04600 0.90186 0.75499
 H636 H 0.06835 0.94154 0.76799
 C637 C 0.93192 0.59101 0.74092
 C638 C 0.94486 0.58781 0.71467
 C639 C 0.95789 0.61119 0.70295
 C640 C 0.95869 0.63808 0.71701
 C641 C 0.94632 0.64114 0.74332
 C642 C 0.93306 0.61799 0.75513
 C643 C 0.91697 0.56564 0.75187
 C644 C 0.90283 0.56645 0.77738
 C645 C 0.88756 0.54273 0.78550
 C646 C 0.88539 0.51759 0.76810
 C647 C 0.90190 0.51600 0.74421
 C648 C 0.91678 0.53977 0.73555
 C649 C 0.94439 0.56138 0.69993
 C650 C 0.93077 0.53785 0.71021
 H651 H 0.95449 0.55890 0.67992
 H652 H 0.93070 0.51796 0.69780
 H653 H 0.96675 0.60848 0.68233
 H654 H 0.94690 0.66150 0.75489
 H655 H 0.87763 0.54435 0.80556
 H656 H 0.90193 0.49633 0.73142
 H657 H 0.92371 0.62171 0.77525
 H658 H 0.90312 0.58525 0.79128
 C659 C 0.43053 0.10444 0.19894
 C660 C 0.41440 0.12422 0.18526
 C661 C 0.42672 0.14887 0.17526
 C662 C 0.45506 0.15469 0.17891
 C663 C 0.47104 0.13525 0.19276
 C664 C 0.45899 0.11047 0.20268
 C665 C 0.41640 0.07821 0.20908
 C666 C 0.43042 0.05649 0.22190
 C667 C 0.41610 0.03280 0.23158
 C668 C 0.38721 0.03032 0.22936
 C669 C 0.37349 0.05139 0.21509
 C670 C 0.38760 0.07503 0.20524
 C671 C 0.38601 0.11942 0.18166
 C672 C 0.37287 0.09546 0.19163
 H673 H 0.37367 0.13457 0.17119
 H674 H 0.35079 0.09288 0.18858
 H675 H 0.41416 0.16339 0.16415
 H676 H 0.49291 0.13934 0.19617
 H677 H 0.42801 0.01652 0.24049
 H678 H 0.35133 0.04954 0.21229
 H679 H 0.47225 0.09643 0.21334
 H680 H 0.45247 0.05727 0.22444
 C681 C 0.29861 0.42328 -0.12265
 C682 C 0.31252 0.45008 -0.12231
 C683 C 0.32524 0.45893 -0.14683
 C684 C 0.32371 0.44159 -0.17196
 C685 C 0.30801 0.41606 -0.17261
 C686 C 0.29563 0.40700 -0.14838
 C687 C 0.28774 0.41326 -0.09555
 C688 C 0.27796 0.38527 -0.09296
 C689 C 0.26894 0.37638 -0.06723
 C690 C 0.26831 0.39520 -0.04321
 C691 C 0.27901 0.42312 -0.04542
 C692 C 0.28911 0.43204 -0.07125
 C693 C 0.31372 0.46765 -0.09747
 C694 C 0.30171 0.45907 -0.07268
 H695 H 0.32399 0.48839 -0.09722
 H696 H 0.30308 0.47348 -0.05409
 H697 H 0.33700 0.47888 -0.14604
 H698 H 0.30543 0.40284 -0.19195
 H699 H 0.26238 0.35436 -0.06598
 H700 H 0.28069 0.43755 -0.02690
 H701 H 0.28380 0.38721 -0.15028
 H702 H 0.27797 0.36956 -0.11029
 C703 C 0.80757 0.92591 0.40445
 C704 C 0.80790 0.95581 0.40762
 C705 C 0.81404 0.97225 0.38449
 C706 C 0.81905 0.95922 0.35793
 C707 C 0.81797 0.92959 0.35476
 C708 C 0.81232 0.91313 0.37762
 C709 C 0.80126 0.90909 0.42959
 C710 C 0.80269 0.87949 0.42911
 C711 C 0.79468 0.86454 0.45223
 C712 C 0.78443 0.87837 0.47657
 C713 C 0.78571 0.90827 0.47818
 C714 C 0.79379 0.92358 0.45487
 C715 C 0.80162 0.96903 0.43366
 C716 C 0.79432 0.95326 0.45664
 H717 H 0.80177 0.99192 0.43615
 H718 H 0.78898 0.96449 0.47609
 H719 H 0.81449 0.99516 0.38701
 H720 H 0.82203 0.91903 0.33457
 H721 H 0.79518 0.84165 0.45062
 H722 H 0.78035 0.91996 0.49727
 H723 H 0.81155 0.89047 0.37370
 H724 H 0.80968 0.86738 0.41102
 C725 C 0.77296 0.05410 1.09793
 C726 C 0.75930 0.05867 1.12354
 C727 C 0.77013 0.04860 1.14884
 C728 C 0.79456 0.03361 1.14923
 C729 C 0.80678 0.02754 1.12309
 C730 C 0.79626 0.03762 1.09799
 C731 C 0.76267 0.06802 1.07212
 C732 C 0.77644 0.06705 1.04644
 C733 C 0.76801 0.08314 1.02419
 C734 C 0.74569 0.10100 1.02667
 C735 C 0.72987 0.09914 1.05104
 C736 C 0.73889 0.08396 1.07410
 C737 C 0.73519 0.07377 1.12385
 C738 C 0.72500 0.08580 1.09956
 H739 H 0.72432 0.07682 1.14332
 H740 H 0.70662 0.09782 1.10109
 H741 H 0.75919 0.05235 1.16814
 H742 H 0.82576 0.01663 1.12186
 H743 H 0.77993 0.08282 1.00526
 H744 H 0.71098 0.11008 1.05281
 H745 H 0.80718 0.03282 1.07901
 H746 H 0.79442 0.05493 1.04339
 C747 C 0.30119 0.55497 0.58464
 C748 C 0.28687 0.54877 0.60928
 C749 C 0.29924 0.53311 0.63026
 C750 C 0.32604 0.52390 0.62741
 C751 C 0.33989 0.52945 0.60263
 C752 C 0.32768 0.54471 0.58151
 C753 C 0.28812 0.57354 0.56378
 C754 C 0.30066 0.58100 0.53871
 C755 C 0.28920 0.60088 0.52167
 C756 C 0.26508 0.61444 0.52916
 C757 C 0.25077 0.60432 0.55232
 C758 C 0.26239 0.58465 0.56994
 C759 C 0.26070 0.55907 0.61330
 C760 C 0.24877 0.57670 0.59411
 H761 H 0.24961 0.55412 0.63204
 H762 H 0.22886 0.58484 0.59866
 H763 H 0.28820 0.52862 0.64916
 H764 H 0.36070 0.52293 0.60000
 H765 H 0.30006 0.60685 0.50313
 H766 H 0.23085 0.61198 0.55730
 H767 H 0.33970 0.54892 0.56335
 H768 H 0.31965 0.57230 0.53217
 C769 C 0.22668 0.58806 0.39739
 C770 C 0.20248 0.57049 0.39490
 C771 C 0.19176 0.56106 0.36807
 C772 C 0.20458 0.56906 0.34339
 C773 C 0.22913 0.58550 0.34584
 C774 C 0.24007 0.59496 0.37247
 C775 C 0.23621 0.59947 0.42636
 C776 C 0.25963 0.61754 0.43116
 C777 C 0.26628 0.62963 0.45812
 C778 C 0.24940 0.62477 0.48125
 C779 C 0.22792 0.60400 0.47701
 C780 C 0.22069 0.59214 0.44986
 C781 C 0.18866 0.56309 0.41913
 C782 C 0.19760 0.57365 0.44603
 H783 H 0.17027 0.54941 0.41722
 H784 H 0.18584 0.56781 0.46405
 H785 H 0.17301 0.54790 0.36633
 H786 H 0.23934 0.59194 0.32706
 H787 H 0.28502 0.64257 0.46049
 H788 H 0.21587 0.59819 0.49485
 H789 H 0.25861 0.60819 0.37300
 H790 H 0.27308 0.62277 0.41438
 C791 C 0.70549 0.04784 0.90231
 C792 C 0.68029 0.03232 0.90376
 C793 C 0.66882 0.01727 0.87961
 C794 C 0.68131 0.01817 0.85310
 C795 C 0.70676 0.03334 0.85218
 C796 C 0.71861 0.04784 0.87627
 C797 C 0.71636 0.06473 0.92825
 C798 C 0.74179 0.07990 0.92944
 C799 C 0.74994 0.09719 0.95325
 C800 C 0.73261 0.10069 0.97638
 C801 C 0.70864 0.08299 0.97637
 C802 C 0.70028 0.06550 0.95257
 C803 C 0.66615 0.03262 0.92910
 C804 C 0.67575 0.04914 0.95286
 H805 H 0.64687 0.02062 0.93031
 H806 H 0.66360 0.04937 0.97165
 H807 H 0.65009 0.00471 0.88193
 H808 H 0.71715 0.03571 0.83256
 H809 H 0.77006 0.10755 0.95324
 H810 H 0.69589 0.08376 0.99473
 H811 H 0.73759 0.05978 0.87374
 H812 H 0.75576 0.07865 0.91226
 C813 C 0.72604 0.91557 0.60050
 C814 C 0.70202 0.93062 0.59574
 C815 C 0.68709 0.94074 0.61880
 C816 C 0.69567 0.93595 0.64673
 C817 C 0.71998 0.92188 0.65135
 C818 C 0.73505 0.91192 0.62865
 C819 C 0.74032 0.90342 0.57535
 C820 C 0.76309 0.88645 0.57797
 C821 C 0.77435 0.87355 0.55422
 C822 C 0.76394 0.87762 0.52654
 C823 C 0.74145 0.89531 0.52398
 C824 C 0.72955 0.90789 0.54793
 C825 C 0.69274 0.93494 0.56802
 C826 C 0.70628 0.92393 0.54464
 H827 H 0.67447 0.94666 0.56433
 H828 H 0.69799 0.92746 0.52364
 H829 H 0.66826 0.95150 0.61495
 H830 H 0.72740 0.91850 0.67268
 H831 H 0.79053 0.85931 0.55833
 H832 H 0.73242 0.89821 0.50315
 H833 H 0.75350 0.90122 0.63370
 H834 H 0.77197 0.88187 0.59828
 C835 C 0.22369 0.45661 0.07948
 C836 C 0.23390 0.45094 0.10687
 C837 C 0.22424 0.46546 0.13087
 C838 C 0.20311 0.48454 0.12847
 C839 C 0.19288 0.49000 0.10124
 C840 C 0.20318 0.47649 0.07708
 C841 C 0.23415 0.43997 0.05447
 C842 C 0.22666 0.44480 0.02614
 C843 C 0.23584 0.42747 0.00379
 C844 C 0.25290 0.40483 0.00887
 C845 C 0.26008 0.40008 0.03736
 C846 C 0.25186 0.41786 0.05972
 C847 C 0.25283 0.42988 0.11036
 C848 C 0.26110 0.41325 0.08736
 H849 H 0.26058 0.42545 0.13133
 H850 H 0.27504 0.39654 0.09130
 H851 H 0.23283 0.46129 0.15156
 H852 H 0.17619 0.50408 0.09849
 H853 H 0.22898 0.43140 -0.01756
 H854 H 0.27165 0.38192 0.04259
 H855 H 0.19415 0.48115 0.05682
 H856 H 0.21357 0.46170 0.02084
 C857 C -0.08618 0.31223 0.41681
 C858 C -0.09692 0.29343 0.43640
 C859 C -0.12097 0.29985 0.45066
 C860 C -0.13415 0.32514 0.44604
 C861 C -0.12319 0.34376 0.42683
 C862 C -0.09957 0.33752 0.41249
 C863 C -0.06081 0.30459 0.40171
 C864 C -0.05000 0.32089 0.38042
 C865 C -0.02642 0.31319 0.36685
 C866 C -0.01188 0.28936 0.37447
 C867 C -0.02372 0.27203 0.39469
 C868 C -0.04779 0.27954 0.40840
 C869 C -0.08336 0.26861 0.44181
 C870 C -0.05921 0.26194 0.42830
 H871 H -0.09144 0.25420 0.45688
 H872 H -0.04944 0.24259 0.43335
 H873 H -0.12911 0.28550 0.46577
 H874 H -0.13309 0.36326 0.42268
 H875 H -0.02038 0.32587 0.34957
 H876 H -0.01427 0.25243 0.39949
 H877 H -0.09213 0.35298 0.39831
 H878 H -0.05980 0.33933 0.37324
 C879 C 0.38459 0.76701 0.92971
 C880 C 0.36199 0.76748 0.91019
 C881 C 0.33699 0.77781 0.91887
 C882 C 0.33400 0.78845 0.94670
 C883 C 0.35588 0.78689 0.96644
 C884 C 0.38090 0.77623 0.95811
 C885 C 0.41152 0.75755 0.91887
 C886 C 0.43573 0.75704 0.93597
 C887 C 0.46046 0.74874 0.92440
 C888 C 0.46161 0.74043 0.89548
 C889 C 0.43757 0.74175 0.87843
 C890 C 0.41282 0.74965 0.88975
 C891 C 0.36462 0.75858 0.88182
 C892 C 0.38951 0.74993 0.87180
 H893 H 0.34727 0.75883 0.86696
 H894 H 0.39061 0.74365 0.84952
 H895 H 0.32000 0.77850 0.90362
 H896 H 0.35406 0.79509 0.98806
 H897 H 0.47865 0.74951 0.93809
 H898 H 0.43824 0.73631 0.85592
 H899 H 0.39725 0.77610 0.97397
 H900 H 0.43607 0.76329 0.95823
 C901 C 1.08060 0.79687 0.04771
 C902 C 1.09375 0.82356 0.05516
 C903 C 1.11754 0.83225 0.04168
 C904 C 1.12899 0.81479 0.02079
 C905 C 1.11619 0.78822 0.01344
 C906 C 1.09220 0.77938 0.02661
 C907 C 1.05537 0.78836 0.06324
 C908 C 1.04061 0.76230 0.05795
 C909 C 1.01802 0.75505 0.07409
 C910 C 1.00895 0.77370 0.09570
 C911 C 1.02409 0.79961 0.10102
 C912 C 1.04651 0.80716 0.08490
 C913 C 1.08344 0.84138 0.07640
 C914 C 1.06045 0.83329 0.09106
 H915 H 1.09354 0.86180 0.08207
 H916 H 1.05356 0.84772 0.10762
 H917 H 1.12760 0.85254 0.04803
 H918 H 1.12461 0.77437 -0.00269
 H919 H 1.00794 0.73436 0.07016
 H920 H 1.01947 0.81383 0.11867
 H921 H 1.08318 0.75879 0.02013
 H922 H 1.04650 0.74701 0.04182
 C923 C 0.62003 0.24956 0.54810
 C924 C 0.64347 0.25345 0.56652
 C925 C 0.66788 0.26550 0.55691
 C926 C 0.66904 0.27593 0.52975
 C927 C 0.64611 0.27135 0.51113
 C928 C 0.62195 0.25809 0.52008
 C929 C 0.59374 0.23861 0.56005
 C930 C 0.56952 0.23209 0.54356
 C931 C 0.54504 0.22398 0.55629
 C932 C 0.54383 0.22318 0.58598
 C933 C 0.56856 0.22820 0.60207
 C934 C 0.59322 0.23516 0.58948
 C935 C 0.64200 0.24720 0.59502
 C936 C 0.61724 0.23891 0.60641
 H937 H 0.65997 0.25016 0.60908
 H938 H 0.61686 0.23558 0.62890
 H939 H 0.68562 0.26834 0.57131
 H940 H 0.64631 0.27937 0.49011
 H941 H 0.52728 0.21866 0.54262
 H942 H 0.56841 0.22716 0.62492
 H943 H 0.60459 0.25606 0.50531
 H944 H 0.56915 0.23299 0.52080
 C945 C 0.41111 0.19024 0.54179
 C946 C 0.39776 0.16408 0.54739
 C947 C 0.37127 0.15729 0.53643
 C948 C 0.35731 0.17605 0.51977
 C949 C 0.37024 0.20216 0.51437
 C950 C 0.39689 0.20918 0.52515
 C951 C 0.43942 0.19667 0.55459
 C952 C 0.45478 0.22198 0.55081
 C953 C 0.48034 0.22745 0.56481
 C954 C 0.49174 0.20780 0.58282
 C955 C 0.47625 0.18233 0.58607
 C956 C 0.45085 0.17660 0.57210
 C957 C 0.41066 0.14486 0.56428
 C958 C 0.43655 0.15105 0.57649
 H959 H 0.40040 0.12484 0.56849
 H960 H 0.44543 0.13561 0.58982
 H961 H 0.36120 0.13737 0.54138
 H962 H 0.35985 0.21699 0.50153
 H963 H 0.49091 0.24770 0.56238
 H964 H 0.48275 0.16704 0.60074
 H965 H 0.40593 0.22948 0.52035
 H966 H 0.44714 0.23808 0.53766
 C967 C 0.88216 0.71301 0.06824
 C968 C 0.86512 0.69985 0.08788
 C969 C 0.84078 0.68511 0.07857
 C970 C 0.83280 0.68309 0.04983
 C971 C 0.84908 0.69688 0.03039
 C972 C 0.87355 0.71160 0.03942
 C973 C 0.90877 0.72733 0.07915
 C974 C 0.92781 0.74053 0.06166
 C975 C 0.95282 0.75253 0.07295
 C976 C 0.95974 0.75129 0.10198
 C977 C 0.93996 0.73950 0.11953
 C978 C 0.91513 0.72726 0.10849
 C979 C 0.87254 0.70105 0.11671
 C980 C 0.89697 0.71456 0.12681
 H981 H 0.85938 0.69114 0.13171
 H982 H 0.90191 0.71466 0.14932
 H983 H 0.82800 0.67496 0.09377
 H984 H 0.84324 0.69558 0.00807
 H985 H 0.96643 0.76295 0.05881
 H986 H 0.94447 0.73918 0.14210
 H987 H 0.88555 0.72139 0.02355
 H988 H 0.92380 0.74176 0.03921
 C989 C 0.58384 0.69801 0.94714
 C990 C 0.57966 0.67536 0.96504
 C991 C 0.60233 0.66302 0.97783
 C992 C 0.62924 0.67354 0.97367
 C993 C 0.63293 0.69752 0.95772
 C994 C 0.61062 0.70959 0.94461
 C995 C 0.55960 0.70850 0.93134
 C996 C 0.56247 0.72693 0.90926
 C997 C 0.53967 0.73479 0.89371
 C998 C 0.51276 0.72585 0.90039
 C999 C 0.50997 0.70674 0.92219
 C1000 C 0.53310 0.69762 0.93717
 C1001 C 0.55292 0.66514 0.96983
 C1002 C 0.53009 0.67652 0.95673
 H1003 H 0.54957 0.64810 0.98396
 H1004 H 0.50986 0.66789 0.96114
 H1005 H 0.59896 0.64469 0.99028
 H1006 H 0.65321 0.70698 0.95517
 H1007 H 0.54364 0.74722 0.87563
 H1008 H 0.48983 0.69793 0.92662
 H1009 H 0.61479 0.72799 0.93264
 H1010 H 0.58231 0.73437 0.90260
 C1011 C 0.10913 0.24315 0.42289
 C1012 C 0.13061 0.23246 0.40658
 C1013 C 0.15275 0.21982 0.41975
 C1014 C 0.15377 0.21681 0.44909
 C1015 C 0.13264 0.22761 0.46536
 C1016 C 0.11066 0.24077 0.45250
 C1017 C 0.08511 0.25513 0.40762
 C1018 C 0.06291 0.26713 0.42156
 C1019 C 0.04012 0.27605 0.40615
 C1020 C 0.03847 0.27251 0.37637
 C1021 C 0.06174 0.26274 0.36257
 C1022 C 0.08465 0.25398 0.37772
 C1023 C 0.12942 0.23334 0.37706
 C1024 C 0.10681 0.24362 0.36292
 H1025 H 0.14590 0.22521 0.36460
 H1026 H 0.10653 0.24311 0.33998
 H1027 H 0.16859 0.21095 0.40687
 H1028 H 0.13298 0.22560 0.48806
 H1029 H 0.02399 0.28564 0.41786
 H1030 H 0.06143 0.26090 0.33961
 H1031 H 0.09476 0.24824 0.46596
 H1032 H 0.06278 0.26981 0.44434
 C1033 C 0.54728 0.11876 0.66730
 C1034 C 0.55676 0.09526 0.65128
 C1035 C 0.56486 0.07117 0.66481
 C1036 C 0.56342 0.06974 0.69426
 C1037 C 0.55317 0.09266 0.71004
 C1038 C 0.54517 0.11686 0.69679
 C1039 C 0.53987 0.14452 0.65202
 C1040 C 0.53199 0.16976 0.66598
 C1041 C 0.52502 0.19309 0.65068
 C1042 C 0.52512 0.19177 0.62085
 C1043 C 0.53435 0.16692 0.60713
 C1044 C 0.54155 0.14359 0.62225
 C1045 C 0.55828 0.09591 0.62184
 C1046 C 0.55057 0.11946 0.60760
 H1047 H 0.56543 0.07786 0.60957
 H1048 H 0.55194 0.11887 0.58475
 H1049 H 0.57307 0.05380 0.65238
 H1050 H 0.55141 0.09192 0.73275
 H1051 H 0.51995 0.21210 0.66260
 H1052 H 0.53541 0.16573 0.58423
 H1053 H 0.53743 0.13378 0.70999
 H1054 H 0.53141 0.17208 0.68875
 C1055 C 1.04609 0.67528 0.17364
 C1056 C 1.03848 0.64682 0.16518
 C1057 C 1.05257 0.62455 0.17651
 C1058 C 1.07429 0.62997 0.19639
 C1059 C 1.08139 0.65813 0.20532
 C1060 C 1.06748 0.68052 0.19417
 C1061 C 1.03109 0.69845 0.16010
 C1062 C 1.03805 0.72746 0.16548
 C1063 C 1.02365 0.74810 0.15181
 C1064 C 1.00124 0.74066 0.13301
 C1065 C 0.99535 0.71151 0.12666
 C1066 C 1.00965 0.69069 0.14013
 C1067 C 1.01704 0.64066 0.14523
 C1068 C 1.00286 0.66211 0.13307
 H1069 H 1.01116 0.61889 0.13883
 H1070 H 0.98644 0.65620 0.11767
 H1071 H 1.04708 0.60293 0.16916
 H1072 H 1.09778 0.66290 0.22101
 H1073 H 1.03013 0.77012 0.15585
 H1074 H 0.98012 0.70456 0.11041
 H1075 H 1.07383 0.70169 0.20185
 H1076 H 1.05483 0.73466 0.17977
 C1077 C 0.94906 0.86308 0.18180
 C1078 C 0.93806 0.88454 0.16562
 C1079 C 0.92840 0.90903 0.17910
 C1080 C 0.92981 0.91302 0.20871
 C1081 C 0.94133 0.89206 0.22474
 C1082 C 0.95086 0.86741 0.21152
 C1083 C 0.95845 0.83686 0.16641
 C1084 C 0.96808 0.81336 0.18030
 C1085 C 0.97695 0.78962 0.16485
 C1086 C 0.97720 0.78891 0.13504
 C1087 C 0.96600 0.81174 0.12128
 C1088 C 0.95691 0.83545 0.13650
 C1089 C 0.93668 0.88151 0.13603
 C1090 C 0.94615 0.85761 0.12177
 H1091 H 0.92832 0.89799 0.12366
 H1092 H 0.94485 0.85639 0.09882
 H1093 H 0.91914 0.92475 0.16641
 H1094 H 0.94304 0.89473 0.24760
 H1095 H 0.98313 0.77180 0.17653
 H1096 H 0.96482 0.81109 0.09833
 H1097 H 0.95961 0.85210 0.22489
 H1098 H 0.96856 0.81273 0.20306
 C1099 C 0.47616 0.31918 0.65909
 C1100 C 0.45138 0.31591 0.67354
 C1101 C 0.43863 0.33983 0.68487
 C1102 C 0.45011 0.36718 0.68191
 C1103 C 0.47491 0.37027 0.66800
 C1104 C 0.48782 0.34668 0.65683
 C1105 C 0.48850 0.29326 0.64622
 C1106 C 0.51237 0.29450 0.63045
 C1107 C 0.52222 0.27019 0.61730
 C1108 C 0.50909 0.24330 0.61984
 C1109 C 0.48530 0.24209 0.63606
 C1110 C 0.47501 0.26662 0.64909
 C1111 C 0.43931 0.28884 0.67622
 C1112 C 0.45087 0.26473 0.66427
 H1113 H 0.42042 0.28628 0.68742
 H1114 H 0.44052 0.24433 0.66659
 H1115 H 0.41969 0.33714 0.69598
 H1116 H 0.48409 0.39109 0.66513
 H1117 H 0.53971 0.27326 0.60425
 H1118 H 0.47431 0.22191 0.63777
 H1119 H 0.50671 0.35060 0.64624
 H1120 H 0.52344 0.31418 0.62722
 C1121 C 0.46802 0.62123 0.81942
 C1122 C 0.48087 0.61645 0.79334
 C1123 C 0.47428 0.59147 0.77661
 C1124 C 0.45586 0.57078 0.78626
 C1125 C 0.44475 0.57489 0.81300
 C1126 C 0.45071 0.59968 0.82940
 C1127 C 0.47320 0.64912 0.83529
 C1128 C 0.45841 0.65701 0.85913
 C1129 C 0.46304 0.68342 0.87282
 C1130 C 0.48229 0.70353 0.86316
 C1131 C 0.49849 0.69486 0.84034
 C1132 C 0.49304 0.66853 0.82547
 C1133 C 0.50010 0.63664 0.78434
 C1134 C 0.50661 0.66178 0.80048
 H1135 H 0.51041 0.63287 0.76463
 H1136 H 0.52175 0.67661 0.79272
 H1137 H 0.48332 0.58814 0.75613
 H1138 H 0.43051 0.55923 0.82089
 H1139 H 0.45143 0.68776 0.89153
 H1140 H 0.51500 0.70877 0.83377
 H1141 H 0.44136 0.60151 0.84970
 H1142 H 0.44279 0.64332 0.86746
 C1143 C -0.04128 0.17720 0.30226
 C1144 C -0.03212 0.15084 0.31087
 C1145 C -0.04624 0.12555 0.30151
 C1146 C -0.06998 0.12587 0.28411
 C1147 C -0.07913 0.15192 0.27555
 C1148 C -0.06491 0.17728 0.28433
 C1149 C -0.02603 0.20379 0.31371
 C1150 C -0.03313 0.23115 0.30655
 C1151 C -0.01943 0.25521 0.31950
 C1152 C 0.00203 0.25295 0.33981
 C1153 C 0.00926 0.22540 0.34651
 C1154 C -0.00407 0.20121 0.33343
 C1155 C -0.00942 0.14983 0.32951
 C1156 C 0.00411 0.17446 0.34079
 H1157 H -0.00240 0.12966 0.33607
 H1158 H 0.02114 0.17252 0.35573
 H1159 H -0.03932 0.10556 0.30868
 H1160 H -0.09736 0.15265 0.26199
 H1161 H -0.02628 0.27586 0.31433
 H1162 H 0.02439 0.22219 0.36307
 H1163 H -0.07300 0.19667 0.27726
 H1164 H -0.04955 0.23446 0.29145
 C1165 C 0.05711 0.37635 0.29673
 C1166 C 0.06324 0.40142 0.31377
 C1167 C 0.07422 0.42560 0.30177
 C1168 C 0.08036 0.42534 0.27302
 C1169 C 0.07378 0.40077 0.25588
 C1170 C 0.06220 0.37656 0.26753
 C1171 C 0.04597 0.35074 0.31085
 C1172 C 0.03877 0.32464 0.29619
 C1173 C 0.02832 0.30155 0.31057
 C1174 C 0.02455 0.30391 0.33999
 C1175 C 0.03303 0.32959 0.35465
 C1176 C 0.04287 0.35289 0.34048
 C1177 C 0.05907 0.40216 0.34290
 C1178 C 0.04934 0.37835 0.35600
 H1179 H 0.06381 0.42138 0.35588
 H1180 H 0.04675 0.37993 0.37870
 H1181 H 0.07856 0.44467 0.31512
 H1182 H 0.07839 0.39994 0.23362
 H1183 H 0.02368 0.28186 0.29849
 H1184 H 0.03109 0.33157 0.37744
 H1185 H 0.05794 0.35811 0.25351
 H1186 H 0.04106 0.32164 0.27365
 C1187 C 0.52605 0.83106 0.82112
 C1188 C 0.52443 0.82992 0.79116
 C1189 C 0.53748 0.85145 0.77630
 C1190 C 0.55305 0.87336 0.79106
 C1191 C 0.55451 0.87439 0.82066
 C1192 C 0.54114 0.85367 0.83556
 C1193 C 0.51316 0.80720 0.83624
 C1194 C 0.51258 0.80734 0.86587
 C1195 C 0.50344 0.78345 0.87917
 C1196 C 0.49481 0.75830 0.86356
 C1197 C 0.49180 0.75943 0.83387
 C1198 C 0.50146 0.78347 0.82015
 C1199 C 0.51088 0.80672 0.77635
 C1200 C 0.49993 0.78384 0.79051
 H1201 H 0.50954 0.80578 0.75341
 H1202 H 0.49054 0.76595 0.77805
 H1203 H 0.53663 0.85048 0.75334
 H1204 H 0.56642 0.89122 0.83234
 H1205 H 0.50428 0.78413 0.90210
 H1206 H 0.48228 0.74180 0.82128
 H1207 H 0.54369 0.85537 0.85830
 H1208 H 0.51949 0.82548 0.87930
 C1209 C 0.66848 0.54536 0.17914
 C1210 C 0.66645 0.57358 0.17121
 C1211 C 0.67823 0.58242 0.14638
 C1212 C 0.69179 0.56355 0.12794
 C1213 C 0.69297 0.53513 0.13576
 C1214 C 0.68182 0.52631 0.16098
 C1215 C 0.65541 0.53702 0.20605
 C1216 C 0.65704 0.50992 0.21686
 C1217 C 0.64366 0.50324 0.24160
 C1218 C 0.62832 0.52332 0.25666
 C1219 C 0.62651 0.55026 0.24530
 C1220 C 0.64034 0.55736 0.22105
 C1221 C 0.65189 0.59289 0.18760
 C1222 C 0.63878 0.58484 0.21171
 H1223 H 0.65016 0.61450 0.18142
 H1224 H 0.62735 0.60050 0.22334
 H1225 H 0.67472 0.60386 0.14073
 H1226 H 0.70362 0.51955 0.12331
 H1227 H 0.64493 0.48199 0.24886
 H1228 H 0.61365 0.56606 0.25445
 H1229 H 0.68370 0.50442 0.16578
 H1230 H 0.66842 0.49357 0.20644
 C1231 C 0.17436 1.05681 0.64005
 C1232 C 0.20319 1.05997 0.63833
 C1233 C 0.21480 1.06953 0.61349
 C1234 C 0.19804 1.07590 0.59012
 C1235 C 0.16951 1.07225 0.59185
 C1236 C 0.15781 1.06279 0.61632
 C1237 C 0.16269 1.04719 0.66706
 C1238 C 0.13434 1.04458 0.67102
 C1239 C 0.12432 1.03521 0.69618
 C1240 C 0.14201 1.02775 0.71847
 C1241 C 0.17053 1.03135 0.71509
 C1242 C 0.18089 1.04085 0.68956
 C1243 C 0.22017 1.05362 0.66142
 C1244 C 0.20928 1.04416 0.68640
 H1245 H 0.24227 1.05595 0.66015
 H1246 H 0.22333 1.03943 0.70355
 H1247 H 0.23691 1.07191 0.61231
 H1248 H 0.15602 1.07738 0.57441
 H1249 H 0.10228 1.03320 0.69819
 H1250 H 0.18477 1.02700 0.73213
 H1251 H 0.13576 1.06051 0.61614
 H1252 H 0.11939 1.04963 0.65502
 C1253 C 0.19334 0.96892 0.83660
 C1254 C 0.20241 0.94147 0.83063
 C1255 C 0.21162 0.92523 0.85285
 C1256 C 0.21328 0.93641 0.88129
 C1257 C 0.20704 0.96514 0.88611
 C1258 C 0.19703 0.98095 0.86427
 C1259 C 0.17964 0.98384 0.81327
 C1260 C 0.16402 1.00757 0.81865
 C1261 C 0.14864 1.01883 0.79705
 C1262 C 0.14939 1.00800 0.76864
 C1263 C 0.16609 0.98474 0.76319
 C1264 C 0.17993 0.97184 0.78535
 C1265 C 0.20220 0.93048 0.80250
 C1266 C 0.19203 0.94579 0.78022
 H1267 H 0.20992 0.90971 0.79763
 H1268 H 0.19215 0.93631 0.75888
 H1269 H 0.21841 0.90419 0.84751
 H1270 H 0.20754 0.97530 0.90711
 H1271 H 0.13506 1.03512 0.80364
 H1272 H 0.16643 0.97519 0.74191
 H1273 H 0.19195 1.00252 0.86955
 H1274 H 0.16175 1.01649 0.83986
 C1275 C 0.67260 0.46957 0.37797
 C1276 C 0.70067 0.46440 0.37449
 C1277 C 0.71519 0.44972 0.39488
 C1278 C 0.70210 0.44014 0.41887
 C1279 C 0.67471 0.44674 0.42292
 C1280 C 0.66014 0.46122 0.40285
 C1281 C 0.65719 0.48302 0.35465
 C1282 C 0.62883 0.48686 0.35521
 C1283 C 0.61495 0.49743 0.33219
 C1284 C 0.62866 0.50464 0.30757
 C1285 C 0.65743 0.50262 0.30774
 C1286 C 0.67153 0.49112 0.33062
 C1287 C 0.71388 0.47342 0.35046
 C1288 C 0.69970 0.48679 0.32917
 H1289 H 0.73546 0.46982 0.34791
 H1290 H 0.71082 0.49305 0.31087
 H1291 H 0.73638 0.44485 0.39151
 H1292 H 0.66435 0.44045 0.44165
 H1293 H 0.59293 0.49911 0.33314
 H1294 H 0.66910 0.50933 0.29009
 H1295 H 0.63911 0.46537 0.40719
 H1296 H 0.61670 0.48111 0.37283
 C1297 C 0.80795 0.44445 0.67206
 C1298 C 0.80735 0.46163 0.64841
 C1299 C 0.79853 0.44996 0.62160
 C1300 C 0.79086 0.42111 0.61773
 C1301 C 0.79087 0.40430 0.64133
 C1302 C 0.79925 0.41574 0.66812
 C1303 C 0.81944 0.45720 0.69984
 C1304 C 0.82066 0.44217 0.72475
 C1305 C 0.83469 0.45386 0.74904
 C1306 C 0.84874 0.48046 0.74901
 C1307 C 0.84378 0.49708 0.72556
 C1308 C 0.83010 0.48544 0.70089
 C1309 C 0.81658 0.49006 0.65140
 C1310 C 0.82785 0.50167 0.67705
 H1311 H 0.81593 0.50330 0.63338
 H1312 H 0.83561 0.52349 0.67799
 H1313 H 0.79887 0.46308 0.60347
 H1314 H 0.78460 0.38207 0.63900
 H1315 H 0.83593 0.44134 0.76753
 H1316 H 0.85118 0.51895 0.72592
 H1317 H 0.79940 0.40159 0.68527
 H1318 H 0.81147 0.42115 0.72577
 C1319 C 0.31678 -0.04178 0.13312
 C1320 C 0.28811 -0.04752 0.13225
 C1321 C 0.27511 -0.06081 0.10782
 C1322 C 0.29023 -0.06767 0.08376
 C1323 C 0.31830 -0.05978 0.08415
 C1324 C 0.33143 -0.04718 0.10843
 C1325 C 0.33031 -0.02993 0.16024
 C1326 C 0.35893 -0.02726 0.16422
 C1327 C 0.37071 -0.01653 0.18987
 C1328 C 0.35456 -0.00790 0.21273
 C1329 C 0.32574 -0.01025 0.20860
 C1330 C 0.31367 -0.02208 0.18302
 C1331 C 0.27270 -0.03987 0.15574
 C1332 C 0.28513 -0.02675 0.18029
 H1333 H 0.25066 -0.04381 0.15503
 H1334 H 0.27226 -0.02097 0.19774
 H1335 H 0.25336 -0.06639 0.10787
 H1336 H 0.33032 -0.06345 0.06558
 H1337 H 0.39289 -0.01503 0.19207
 H1338 H 0.31238 -0.00305 0.22497
 H1339 H 0.35302 -0.04170 0.10733
 H1340 H 0.37268 -0.03386 0.14800
 C1341 C 0.29949 0.04404 0.33288
 C1342 C 0.30199 0.07322 0.34122
 C1343 C 0.28695 0.08414 0.36363
 C1344 C 0.26966 0.06649 0.37873
 C1345 C 0.26739 0.03748 0.37093
 C1346 C 0.28193 0.02636 0.34809
 C1347 C 0.31632 0.03341 0.30875
 C1348 C 0.31521 0.00504 0.29802
 C1349 C 0.33182 -0.00360 0.27581
 C1350 C 0.34989 0.01572 0.26319
 C1351 C 0.35148 0.04386 0.27481
 C1352 C 0.33457 0.05286 0.29652
 C1353 C 0.32001 0.09139 0.32768
 C1354 C 0.33618 0.08137 0.30607
 H1355 H 0.32197 0.11369 0.33420
 H1356 H 0.35010 0.09629 0.29655
 H1357 H 0.28946 0.10645 0.37004
 H1358 H 0.25430 0.02344 0.38248
 H1359 H 0.33069 -0.02567 0.26843
 H1360 H 0.36636 0.05924 0.26780
 H1361 H 0.27947 0.00392 0.34294
 H1362 H 0.30173 -0.01077 0.30654
 C1363 C 0.79486 0.51712 0.86882
 C1364 C 0.78002 0.54210 0.86746
 C1365 C 0.76566 0.55196 0.89100
 C1366 C 0.76647 0.53774 0.91634
 C1367 C 0.78074 0.51272 0.91744
 C1368 C 0.79467 0.50243 0.89402
 C1369 C 0.81143 0.50837 0.84396
 C1370 C 0.82636 0.48362 0.84300
 C1371 C 0.84357 0.47774 0.82074
 C1372 C 0.84718 0.49670 0.79892
 C1373 C 0.82957 0.51955 0.79809
 C1374 C 0.81236 0.52589 0.82064
 C1375 C 0.78058 0.55773 0.84308
 C1376 C 0.79655 0.54990 0.82025
 H1377 H 0.76913 0.57680 0.84197
 H1378 H 0.79691 0.56316 0.80224
 H1379 H 0.75509 0.57161 0.89011
 H1380 H 0.78152 0.50131 0.93671
 H1381 H 0.85402 0.45805 0.82089
 H1382 H 0.83018 0.53314 0.78033
 H1383 H 0.80579 0.48345 0.89644
 H1384 H 0.82512 0.46849 0.85923
 C1385 C 0.15889 0.68920 0.56280
 C1386 C 0.13357 0.68549 0.54740
 C1387 C 0.10912 0.69336 0.56000
 C1388 C 0.10945 0.70587 0.58763
 C1389 C 0.13494 0.71120 0.60202
 C1390 C 0.15924 0.70282 0.58996
 C1391 C 0.18416 0.67827 0.54951
 C1392 C 0.20972 0.67815 0.56412
 C1393 C 0.23216 0.66606 0.55140
 C1394 C 0.23003 0.65340 0.52374
 C1395 C 0.20503 0.65580 0.50833
 C1396 C 0.18198 0.66677 0.52135
 C1397 C 0.13279 0.67390 0.51953
 C1398 C 0.15657 0.66533 0.50659
 H1399 H 0.11350 0.67145 0.50751
 H1400 H 0.15483 0.65648 0.48499
 H1401 H 0.08979 0.68905 0.54840
 H1402 H 0.13627 0.72193 0.62280
 H1403 H 0.25129 0.66579 0.56362
 H1404 H 0.20291 0.64890 0.48625
 H1405 H 0.17806 0.70733 0.60221
 H1406 H 0.21266 0.68653 0.58568
 C1407 C 0.64720 0.19084 1.03372
 C1408 C 0.64882 0.20439 1.06112
 C1409 C 0.62581 0.21742 1.07214
 C1410 C 0.60089 0.21705 1.05637
 C1411 C 0.59963 0.20428 1.02891
 C1412 C 0.62239 0.19135 1.01770
 C1413 C 0.67160 0.17542 1.02357
 C1414 C 0.67198 0.16090 0.99692
 C1415 C 0.69398 0.14443 0.98963
 C1416 C 0.71619 0.14129 1.00891
 C1417 C 0.71741 0.15887 1.03394
 C1418 C 0.69506 0.17497 1.04183
 C1419 C 0.67310 0.20414 1.07770
 C1420 C 0.69573 0.18977 1.06825
 H1421 H 0.67443 0.21471 1.09859
 H1422 H 0.71379 0.18966 1.08217
 H1423 H 0.62704 0.22684 1.09353
 H1424 H 0.58085 0.20408 1.01607
 H1425 H 0.69323 0.13416 0.96868
 H1426 H 0.73521 0.15857 1.04820
 H1427 H 0.61991 0.18149 0.99669
 H1428 H 0.65536 0.16167 0.98146
 C1429 C 0.83950 0.18688 0.97610
 C1430 C 0.83934 0.19957 0.94976
 C1431 C 0.86381 0.21092 0.93929
 C1432 C 0.88938 0.20938 0.95418
 C1433 C 0.88880 0.19745 0.98101
 C1434 C 0.86447 0.18641 0.99165
 C1435 C 0.81330 0.17322 0.98555
 C1436 C 0.81132 0.15995 1.01136
 C1437 C 0.78753 0.14451 1.01759
 C1438 C 0.76507 0.14118 0.99798
 C1439 C 0.76564 0.15796 0.97420
 C1440 C 0.78970 0.17309 0.96742
 C1441 C 0.81482 0.20027 0.93357
 C1442 C 0.79057 0.18718 0.94214
 H1443 H 0.81455 0.21030 0.91348
 H1444 H 0.77241 0.18747 0.92838
 H1445 H 0.86229 0.22157 0.91967
 H1446 H 0.90724 0.19453 0.99353
 H1447 H 0.78719 0.13494 1.03783
 H1448 H 0.74783 0.15752 0.95986
 H1449 H 0.86594 0.17675 1.01176
 H1450 H 0.82802 0.16082 1.02689
 C1451 C 0.34623 0.71927 0.49339
 C1452 C 0.34248 0.73767 0.47107
 C1453 C 0.36528 0.75136 0.45958
 C1454 C 0.39206 0.74597 0.46903
 C1455 C 0.39562 0.72871 0.49198
 C1456 C 0.37305 0.71565 0.50414
 C1457 C 0.32182 0.70236 0.50266
 C1458 C 0.32337 0.68343 0.52453
 C1459 C 0.30157 0.66438 0.52884
 C1460 C 0.27777 0.66318 0.51100
 C1461 C 0.27441 0.68552 0.49275
 C1462 C 0.29645 0.70444 0.48781
 C1463 C 0.31623 0.74080 0.45908
 C1464 C 0.29373 0.72430 0.46707
 H1465 H 0.31329 0.75514 0.44220
 H1466 H 0.27414 0.72637 0.45609
 H1467 H 0.36223 0.76508 0.44220
 H1468 H 0.41597 0.72393 0.49959
 H1469 H 0.30395 0.65019 0.54584
 H1470 H 0.25538 0.68646 0.48043
 H1471 H 0.37719 0.70167 0.52090
 H1472 H 0.34146 0.68248 0.53808
 C1473 C 0.66274 0.81238 0.46676
 C1474 C 0.65221 0.81936 0.43988
 C1475 C 0.62458 0.81347 0.43222
 C1476 C 0.60659 0.80131 0.45111
 C1477 C 0.61700 0.79372 0.47753
 C1478 C 0.64474 0.79917 0.48533
 C1479 C 0.69221 0.82066 0.47453
 C1480 C 0.70504 0.81510 0.50064
 C1481 C 0.73170 0.82586 0.50772
 C1482 C 0.74662 0.84255 0.48909
 C1483 C 0.73393 0.84682 0.46243
 C1484 C 0.70748 0.83590 0.45504
 C1485 C 0.66902 0.83302 0.42098
 C1486 C 0.69596 0.84136 0.42850
 H1487 H 0.66096 0.83817 0.40034
 H1488 H 0.70784 0.85275 0.41341
 H1489 H 0.61693 0.81875 0.41146
 H1490 H 0.60351 0.78420 0.49246
 H1491 H 0.74025 0.82236 0.52859
 H1492 H 0.74344 0.86025 0.44750
 H1493 H 0.65157 0.79346 0.50610
 H1494 H 0.69455 0.80320 0.51620
 C1495 C 0.14931 0.32754 -0.02935
 C1496 C 0.14343 0.30279 -0.01477
 C1497 C 0.11759 0.28843 -0.01897
 C1498 C 0.09721 0.29944 -0.03645
 C1499 C 0.10267 0.32506 -0.04914
 C1500 C 0.12828 0.33893 -0.04572
 C1501 C 0.17761 0.34087 -0.02655
 C1502 C 0.18615 0.36281 -0.04343
 C1503 C 0.21241 0.37498 -0.04017
 C1504 C 0.23181 0.36554 -0.02032
 C1505 C 0.22297 0.34394 -0.00271
 C1506 C 0.19654 0.33070 -0.00667
 C1507 C 0.16330 0.29295 0.00401
 C1508 C 0.18897 0.30712 0.00862
 H1509 H 0.15878 0.27429 0.01566
 H1510 H 0.20340 0.29897 0.02372
 H1511 H 0.11328 0.26886 -0.00870
 H1512 H 0.08727 0.33395 -0.06265
 H1513 H 0.21715 0.39262 -0.05308
 H1514 H 0.23650 0.33748 0.01412
 H1515 H 0.13111 0.35854 -0.05610
 H1516 H 0.17292 0.37093 -0.05950
 C1517 C 0.35852 0.32740 0.02327
 C1518 C 0.35841 0.29747 0.02259
 C1519 C 0.38071 0.28384 0.03480
 C1520 C 0.40262 0.29987 0.04837
 C1521 C 0.40279 0.32940 0.04853
 C1522 C 0.38120 0.34304 0.03610
 C1523 C 0.33393 0.34128 0.01155
 C1524 C 0.33266 0.37077 0.01098
 C1525 C 0.30883 0.38299 0.00207
 C1526 C 0.28498 0.36653 -0.00649
 C1527 C 0.28693 0.33682 -0.00854
 C1528 C 0.31105 0.32415 0.00097
 C1529 C 0.33564 0.28154 0.01067
 C1530 C 0.31244 0.29458 0.00022
 H1531 H 0.33549 0.25862 0.01001
 H1532 H 0.29517 0.28130 -0.00818
 H1533 H 0.38047 0.26094 0.03493
 H1534 H 0.41959 0.34204 0.05889
 H1535 H 0.30876 0.40588 0.00258
 H1536 H 0.27002 0.32348 -0.01751
 H1537 H 0.38248 0.36584 0.03757
 H1538 H 0.34971 0.38501 0.01753
 C1539 C 0.86569 0.79607 0.54230
 C1540 C 0.88937 0.81278 0.55143
 C1541 C 0.91093 0.80068 0.56603
 C1542 C 0.90926 0.77217 0.57266
 C1543 C 0.88639 0.75520 0.56274
 C1544 C 0.86481 0.76697 0.54769
 C1545 C 0.84221 0.81059 0.52871
 C1546 C 0.81756 0.79635 0.51873
 C1547 C 0.79550 0.81141 0.50844
 C1548 C 0.79720 0.84121 0.50839
 C1549 C 0.82260 0.85505 0.51646
 C1550 C 0.84475 0.84024 0.52652
 C1551 C 0.89103 0.84179 0.54709
 C1552 C 0.86911 0.85527 0.53510
 H1553 H 0.90926 0.85448 0.55392
 H1554 H 0.87110 0.87795 0.53302
 H1555 H 0.92880 0.81380 0.57319
 H1556 H 0.88470 0.73311 0.56762
 H1557 H 0.77719 0.79942 0.50095
 H1558 H 0.82465 0.87792 0.51607
 H1559 H 0.84731 0.75322 0.54127
 H1560 H 0.81485 0.77363 0.51894
   
