data_POSCAR
  _audit_creation_date              2014-09-24
  _audit_creation_method            'ToBaCCo'
  _symmetry_space_group_name_H-M    'P1'
  _symmetry_Int_Tables_number       1
  _symmetry_cell_setting            triclinic
  loop_
  _symmetry_equiv_pos_as_xyz
 x,y,z
_cell_length_a 54.6011
_cell_length_b 54.7613
_cell_length_c 54.0167
_cell_angle_alpha 89.474900
_cell_angle_beta 89.388700
_cell_angle_gamma 90.551500
loop_
  _atom_site_label
  _atom_site_type_symbol
  _atom_site_fract_x
  _atom_site_fract_y
  _atom_site_fract_z
C1 C 0.73458 0.57679 1.03806
 C2 C 0.74751 0.59411 1.02381
 C3 C 0.76828 0.60573 1.03335
 C4 C 0.77650 0.60000 1.05739
 C5 C 0.76394 0.58126 1.07072
 C6 C 0.74238 0.57010 1.06190
 C7 C 0.73753 0.60128 0.99966
 C8 C 0.71668 0.61595 0.99894
 C9 C 0.70416 0.61969 0.97668
 C10 C 0.71317 0.60875 0.95501
 C11 C 0.73405 0.59393 0.95547
 C12 C 0.74632 0.59047 0.97794
 H13 H 0.71767 0.56969 1.03062
 H14 H 0.77678 0.62019 1.02241
 H15 H 0.70993 0.62391 1.01596
 H16 H 0.76181 0.57829 0.97889
 H17 H 0.77177 0.57437 1.08762
 H18 H 0.70346 0.61112 0.93780
 C19 C 0.76742 0.38296 0.48793
 C20 C 0.77793 0.36680 0.50488
 C21 C 0.80173 0.35828 0.50061
 C22 C 0.81518 0.36575 0.47941
 C23 C 0.80424 0.38194 0.46250
 C24 C 0.78051 0.39061 0.46679
 C25 C 0.76427 0.35949 0.52749
 C26 C 0.74141 0.34780 0.52593
 C27 C 0.72811 0.34135 0.54748
 C28 C 0.73773 0.34756 0.57072
 C29 C 0.76050 0.35965 0.57249
 C30 C 0.77384 0.36502 0.55070
 H31 H 0.74907 0.38968 0.49126
 H32 H 0.80946 0.34545 0.51367
 H33 H 0.73401 0.34377 0.50786
 H34 H 0.79161 0.37393 0.55168
 H35 H 0.81428 0.38836 0.44627
 H36 H 0.72744 0.34304 0.58741
 C37 C 0.24169 -0.12801 -0.02681
 C38 C 0.25121 -0.13742 -0.00469
 C39 C 0.27554 -0.14562 -0.00422
 C40 C 0.29066 -0.14453 -0.02560
 C41 C 0.28081 -0.13389 -0.04717
 C42 C 0.25634 -0.12636 -0.04823
 C43 C 0.23540 -0.14013 0.01768
 C44 C 0.21193 -0.15072 0.01600
 C45 C 0.19704 -0.15458 0.03728
 C46 C 0.20655 -0.14741 0.06038
 C47 C 0.22985 -0.13665 0.06224
 C48 C 0.24412 -0.13294 0.04084
 H49 H 0.22275 -0.12234 -0.02739
 H50 H 0.28177 -0.15438 0.01255
 H51 H 0.20538 -0.15553 -0.00214
 H52 H 0.26222 -0.12481 0.04227
 H53 H 0.29225 -0.13076 -0.06336
 H54 H 0.19642 -0.15090 0.07738
 C55 C 0.24262 0.12012 0.53644
 C56 C 0.25665 0.13637 0.52186
 C57 C 0.27460 0.15101 0.53280
 C58 C 0.27860 0.14957 0.55836
 C59 C 0.26463 0.13303 0.57284
 C60 C 0.24661 0.11808 0.56206
 C61 C 0.25349 0.13719 0.49490
 C62 C 0.23797 0.15431 0.48409
 C63 C 0.23618 0.15595 0.45826
 C64 C 0.25020 0.14041 0.44330
 C65 C 0.26544 0.12267 0.45398
 C66 C 0.26673 0.12117 0.47996
 H67 H 0.22867 0.10910 0.52766
 H68 H 0.28539 0.16355 0.52139
 H69 H 0.22760 0.16657 0.49575
 H70 H 0.27797 0.10752 0.48880
 H71 H 0.26848 0.13127 0.59240
 H72 H 0.24910 0.14221 0.42337
 C73 C 0.09553 0.54592 0.23808
 C74 C 0.11387 0.52915 0.24361
 C75 C 0.13035 0.53411 0.26257
 C76 C 0.12954 0.55640 0.27527
 C77 C 0.11161 0.57361 0.26882
 C78 C 0.09399 0.56834 0.25062
 C79 C 0.11732 0.50759 0.22786
 C80 C 0.12589 0.51094 0.20349
 C81 C 0.13049 0.49081 0.18832
 C82 C 0.12534 0.46725 0.19762
 C83 C 0.11689 0.46344 0.22209
 C84 C 0.11314 0.48391 0.23722
 H85 H 0.08331 0.54189 0.22294
 H86 H 0.14408 0.52066 0.26703
 H87 H 0.12944 0.52928 0.19658
 H88 H 0.10722 0.48157 0.25630
 H89 H 0.11096 0.59079 0.27855
 H90 H 0.12848 0.45173 0.18583
 C91 C -0.12895 -0.01639 0.22662
 C92 C -0.13226 0.00396 0.24180
 C93 C -0.14421 0.00123 0.26482
 C94 C -0.15299 -0.02170 0.27321
 C95 C -0.14915 -0.04196 0.25775
 C96 C -0.13741 -0.03949 0.23456
 C97 C -0.12366 0.02855 0.23413
 C98 C -0.13488 0.04082 0.21445
 C99 C -0.13099 0.06614 0.21062
 C100 C -0.11470 0.07843 0.22660
 C101 C -0.10280 0.06619 0.24600
 C102 C -0.10723 0.04108 0.24927
 H103 H -0.11993 -0.01424 0.20876
 H104 H -0.14590 0.01719 0.27635
 H105 H -0.14838 0.03097 0.20382
 H106 H -0.09852 0.03112 0.26412
 H107 H -0.15603 -0.05983 0.26314
 H108 H -0.11118 0.09771 0.22403
 C109 C 0.41507 0.48327 0.73297
 C110 C 0.39876 0.49923 0.74456
 C111 C 0.39042 0.49425 0.76879
 C112 C 0.39902 0.47376 0.78200
 C113 C 0.41580 0.45823 0.77007
 C114 C 0.42357 0.46262 0.74559
 C115 C 0.39187 0.52203 0.73182
 C116 C 0.37793 0.52136 0.71019
 C117 C 0.37272 0.54301 0.69717
 C118 C 0.38192 0.56533 0.70606
 C119 C 0.39642 0.56621 0.72742
 C120 C 0.40099 0.54438 0.74037
 H121 H 0.42121 0.48705 0.71416
 H122 H 0.37815 0.50704 0.77761
 H123 H 0.37112 0.50395 0.70364
 H124 H 0.41266 0.54445 0.75645
 H125 H 0.42229 0.44201 0.77945
 H126 H 0.37824 0.58202 0.69596
 C127 C 0.62415 1.02391 0.74195
 C128 C 0.63998 1.00613 0.75093
 C129 C 0.65553 1.01169 0.77061
 C130 C 0.65581 1.03510 0.78150
 C131 C 0.63947 1.05276 0.77198
 C132 C 0.62339 1.04710 0.75265
 C133 C 0.63913 0.98113 0.74084
 C134 C 0.64090 0.97722 0.71525
 C135 C 0.64013 0.95342 0.70585
 C136 C 0.63682 0.93351 0.72214
 C137 C 0.63440 0.93726 0.74773
 C138 C 0.63592 0.96110 0.75692
 H139 H 0.61184 1.01942 0.72701
 H140 H 0.66655 0.99706 0.77789
 H141 H 0.64348 0.99263 0.70273
 H142 H 0.63362 0.96422 0.77659
 H143 H 0.63903 1.07106 0.77927
 H144 H 0.63591 0.91514 0.71487
 C145 C -0.02494 0.25859 -0.11470
 C146 C -0.00141 0.26766 -0.12047
 C147 C 0.00135 0.29151 -0.13001
 C148 C -0.01913 0.30656 -0.13395
 C149 C -0.04252 0.29692 -0.12768
 C150 C -0.04563 0.27308 -0.11830
 C151 C 0.02032 0.25202 -0.11691
 C152 C 0.02005 0.22772 -0.12503
 C153 C 0.04077 0.21272 -0.12252
 C154 C 0.06161 0.22257 -0.11086
 C155 C 0.06188 0.24662 -0.10214
 C156 C 0.04138 0.26138 -0.10561
 H157 H -0.02710 0.24014 -0.10756
 H158 H 0.01968 0.29824 -0.13389
 H159 H 0.00404 0.22116 -0.13468
 H160 H 0.04152 0.27990 -0.09870
 H161 H -0.05878 0.30748 -0.13093
 H162 H 0.07750 0.21137 -0.10761
 C163 C 0.51544 0.23291 0.11030
 C164 C 0.49860 0.23872 0.12896
 C165 C 0.50649 0.25069 0.15022
 C166 C 0.53125 0.25704 0.15313
 C167 C 0.54811 0.25099 0.13432
 C168 C 0.54035 0.23911 0.11270
 C169 C 0.47224 0.23480 0.12534
 C170 C 0.46019 0.21463 0.13617
 C171 C 0.43453 0.21264 0.13538
 C172 C 0.42115 0.23100 0.12327
 C173 C 0.43312 0.25147 0.11276
 C174 C 0.45874 0.25304 0.11363
 H175 H 0.50899 0.22377 0.09387
 H176 H 0.49298 0.25607 0.16392
 H177 H 0.47073 0.20119 0.14622
 H178 H 0.46819 0.26893 0.10593
 H179 H 0.56720 0.25608 0.13622
 H180 H 0.40133 0.22991 0.12295
 C181 C 1.02571 0.74590 0.61825
 C182 C 1.00434 0.75913 0.62280
 C183 C 1.00592 0.78248 0.63313
 C184 C 1.02867 0.79328 0.63885
 C185 C 1.04998 0.77977 0.63368
 C186 C 1.04873 0.75620 0.62349
 C187 C 0.97988 0.74912 0.61706
 C188 C 0.97064 0.72850 0.62978
 C189 C 0.94567 0.72234 0.62831
 C190 C 0.93027 0.73632 0.61320
 C191 C 0.93938 0.75677 0.60013
 C192 C 0.96430 0.76284 0.60197
 H193 H 1.02437 0.72778 0.61047
 H194 H 0.98895 0.79151 0.63768
 H195 H 0.98231 0.71859 0.64240
 H196 H 0.97149 0.77894 0.59248
 H197 H 1.06786 0.78798 0.63617
 H198 H 0.91085 0.73207 0.61284
 C199 C 0.47222 0.73222 0.37269
 C200 C 0.48933 0.73904 0.35438
 C201 C 0.48500 0.75953 0.33943
 C202 C 0.46352 0.77315 0.34247
 C203 C 0.44656 0.76629 0.36117
 C204 C 0.45090 0.74590 0.37649
 C205 C 0.51203 0.72497 0.35132
 C206 C 0.51097 0.70034 0.34456
 C207 C 0.53254 0.68676 0.34171
 C208 C 0.55517 0.69808 0.34689
 C209 C 0.55646 0.72260 0.35440
 C210 C 0.53472 0.73606 0.35591
 H211 H 0.47565 0.71626 0.38411
 H212 H 0.49840 0.76483 0.32539
 H213 H 0.49326 0.69189 0.34150
 H214 H 0.53527 0.75513 0.36106
 H215 H 0.43003 0.77678 0.36378
 H216 H 0.57186 0.68775 0.34521
 C217 C 0.37722 -0.04810 0.27951
 H218 H 0.36152 -0.04356 0.29086
 C219 C 0.39099 -0.06852 0.28554
 H220 H 0.38550 -0.07935 0.30155
 C221 C 0.40118 -0.04097 0.24332
 H222 H 0.40431 -0.03079 0.22631
 C223 C 0.41577 -0.06116 0.24889
 H224 H 0.43063 -0.06574 0.23641
 N225 N 0.38237 -0.03484 0.25868
 C226 C 0.35118 0.03015 0.22424
 H227 H 0.33242 0.02393 0.22662
 C228 C 0.35595 0.05308 0.21398
 H229 H 0.34075 0.06414 0.20798
 C230 C 0.39354 0.02340 0.23012
 H231 H 0.40798 0.01215 0.23740
 C232 C 0.39919 0.04650 0.21998
 H233 H 0.41806 0.05276 0.21928
 Zn234 Zn 0.35820 -0.01186 0.25010
 N235 N 0.36975 0.01589 0.23224
 C236 C 0.36257 0.01204 0.29358
 N237 N 0.34515 0.00095 0.27977
 C238 C 0.32122 0.00051 0.28710
 C239 C 0.31426 0.01108 0.30962
 C240 C 0.35645 0.02296 0.31590
 C241 C 0.33751 -0.02686 0.20575
 C242 C 0.32337 -0.04135 0.19023
 C243 C 0.30408 -0.05968 0.22639
 C244 C 0.31900 -0.04514 0.24126
 N245 N 0.33506 -0.02887 0.23076
 H246 H 0.38138 0.01249 0.28706
 H247 H 0.30751 -0.00779 0.27552
 H248 H 0.29523 0.01025 0.31543
 H249 H 0.37071 0.03210 0.32618
 H250 H 0.35125 -0.01472 0.19778
 H251 H 0.32654 -0.04000 0.17046
 H252 H 0.29118 -0.07219 0.23521
 H253 H 0.31818 -0.04728 0.26117
 C254 C 0.38013 0.06187 0.21237
 C255 C 0.41044 -0.07560 0.27004
 C256 C 0.30637 -0.05816 0.20042
 C257 C 0.33207 0.02238 0.32443
 C258 C 0.08203 1.02595 0.77548
 H259 H 0.07215 1.01448 0.76279
 C260 C 0.06986 1.04495 0.78736
 H261 H 0.05081 1.04806 0.78315
 C262 C 0.11902 1.03633 0.79551
 H263 H 0.13823 1.03285 0.79850
 C264 C 0.10748 1.05520 0.80816
 H265 H 0.11799 1.06579 0.82117
 N266 N 0.10623 1.02218 0.77955
 C267 C 0.08865 0.97992 0.73003
 H268 H 0.08946 0.99854 0.72317
 C269 C 0.07478 0.96247 0.71758
 H270 H 0.06491 0.96788 0.70117
 C271 C 0.10216 0.94999 0.75861
 H272 H 0.11333 0.94500 0.77417
 C273 C 0.08849 0.93197 0.74675
 H274 H 0.08890 0.91340 0.75377
 Zn275 Zn 0.12359 0.99721 0.76324
 N276 N 0.10207 0.97344 0.75008
 C277 C 0.16912 0.97985 0.78088
 N278 N 0.14489 0.98233 0.78627
 C279 C 0.13514 0.97371 0.80797
 C280 C 0.14966 0.96081 0.82464
 C281 C 0.18421 0.96689 0.79688
 C282 C 0.14048 1.03467 0.73038
 C283 C 0.15163 1.04370 0.70871
 C284 C 0.16481 1.00280 0.69932
 C285 C 0.15314 0.99453 0.72093
 N286 N 0.14136 1.01043 0.73598
 H287 H 0.17674 0.98742 0.76394
 H288 H 0.11587 0.97621 0.81194
 H289 H 0.14143 0.95324 0.84138
 H290 H 0.20333 0.96453 0.79201
 H291 H 0.13054 1.04690 0.74234
 H292 H 0.15002 1.06292 0.70421
 H293 H 0.17436 0.98978 0.68787
 H294 H 0.15317 0.97527 0.72561
 C295 C 0.07484 0.93804 0.72572
 C296 C 0.08257 1.05994 0.80401
 C297 C 0.16386 1.02766 0.69269
 C298 C 0.17439 0.95677 0.81882
 C299 C 0.60169 0.49152 0.30578
 H300 H 0.61220 0.48233 0.31987
 C301 C 0.58678 0.51110 0.31222
 H302 H 0.58570 0.51657 0.33140
 C303 C 0.59051 0.49553 0.26369
 H304 H 0.59247 0.48961 0.24472
 C305 C 0.57558 0.51534 0.26925
 H306 H 0.56635 0.52464 0.25431
 N307 N 0.60357 0.48443 0.28179
 C308 C 0.62590 0.41068 0.26223
 H309 H 0.64557 0.41314 0.26124
 C310 C 0.61550 0.38828 0.25603
 H311 H 0.62720 0.37346 0.25028
 C312 C 0.58665 0.42730 0.27002
 H313 H 0.57551 0.44274 0.27502
 C314 C 0.57547 0.40496 0.26439
 H315 H 0.55569 0.40329 0.26496
 Zn316 Zn 0.62682 0.46075 0.27261
 N317 N 0.61142 0.42988 0.26827
 C318 C 0.65214 0.43726 0.31127
 N319 N 0.65069 0.45833 0.29785
 C320 C 0.66530 0.47789 0.30298
 C321 C 0.68237 0.47656 0.32203
 C322 C 0.66911 0.43505 0.33022
 C323 C 0.64250 0.45553 0.22251
 C324 C 0.65216 0.46322 0.19976
 C325 C 0.65908 0.50317 0.21694
 C326 C 0.64963 0.49456 0.23958
 N327 N 0.64161 0.47104 0.24204
 H328 H 0.63980 0.42222 0.30776
 H329 H 0.66350 0.49467 0.29255
 H330 H 0.69385 0.49227 0.32594
 H331 H 0.66974 0.41822 0.34088
 H332 H 0.63542 0.43720 0.22417
 H333 H 0.65308 0.45025 0.18479
 H334 H 0.66463 0.52214 0.21526
 H335 H 0.64789 0.50694 0.25494
 C336 C 0.59000 0.38542 0.25666
 C337 C 0.57389 0.52369 0.29375
 C338 C 0.66037 0.48741 0.19657
 C339 C 0.68447 0.45486 0.33580
 C340 C 0.90757 0.48670 0.79505
 H341 H 0.89470 0.49620 0.80672
 C342 C 0.92519 0.47192 0.80590
 H343 H 0.92588 0.47059 0.82589
 C344 C 0.92167 0.47617 0.75494
 H345 H 0.91958 0.47732 0.73507
 C346 C 0.93937 0.46084 0.76504
 H347 H 0.95072 0.45020 0.75273
 N348 N 0.90562 0.48792 0.77001
 C349 C 0.86677 0.54673 0.73354
 H350 H 0.84822 0.54107 0.73811
 C351 C 0.87104 0.56966 0.72297
 H352 H 0.85555 0.58111 0.71874
 C353 C 0.90934 0.53886 0.73437
 H354 H 0.92418 0.52692 0.73933
 C355 C 0.91449 0.56184 0.72387
 H356 H 0.93336 0.56744 0.72088
 Zn357 Zn 0.87759 0.50254 0.75615
 N358 N 0.88574 0.53185 0.73904
 C359 C 0.85925 0.53129 0.79479
 N360 N 0.85535 0.51049 0.78180
 C361 C 0.83557 0.49586 0.78652
 C362 C 0.81858 0.50211 0.80482
 C363 C 0.84259 0.53836 0.81309
 C364 C 0.86532 0.45546 0.73932
 C365 C 0.85362 0.43804 0.72472
 C366 C 0.83547 0.47079 0.70125
 C367 C 0.84765 0.48756 0.71616
 N368 N 0.86227 0.47971 0.73479
 H369 H 0.87513 0.54261 0.79061
 H370 H 0.83293 0.47933 0.77605
 H371 H 0.80309 0.49006 0.80843
 H372 H 0.84568 0.55537 0.82266
 H373 H 0.87666 0.44955 0.75448
 H374 H 0.85664 0.41887 0.72847
 H375 H 0.82355 0.47755 0.68690
 H376 H 0.84516 0.50682 0.71292
 C377 C 0.89516 0.57772 0.71840
 C378 C 0.94064 0.45786 0.79088
 C379 C 0.83834 0.44562 0.70541
 C380 C 0.82180 0.52378 0.81821
 C381 C 0.29281 0.42659 -0.03040
 H382 H 0.29610 0.42898 -0.01085
 C383 C 0.30914 0.43662 -0.04779
 H384 H 0.32489 0.44693 -0.04154
 C385 C 0.26912 0.40883 -0.06221
 H386 H 0.25397 0.39727 -0.06761
 C387 C 0.28492 0.41880 -0.08031
 H388 H 0.28184 0.41482 -0.09964
 N389 N 0.27363 0.41254 -0.03779
 C390 C 0.22450 0.40668 0.02599
 H391 H 0.22379 0.38701 0.02798
 C392 C 0.21172 0.42125 0.04264
 H393 H 0.20152 0.41254 0.05763
 C394 C 0.23979 0.44170 0.00461
 H395 H 0.25078 0.44954 -0.01025
 C396 C 0.22721 0.45701 0.02086
 H397 H 0.22858 0.47661 0.01826
 Zn398 Zn 0.25668 0.39544 -0.01229
 N399 N 0.23861 0.41704 0.00780
 C400 C 0.28349 0.38534 0.03140
 N401 N 0.28098 0.37988 0.00703
 C402 C 0.29667 0.36437 -0.00446
 C403 C 0.31522 0.35296 0.00884
 C404 C 0.30203 0.37467 0.04529
 C405 C 0.21343 0.38002 -0.03560
 C406 C 0.19510 0.36340 -0.04233
 C407 C 0.22072 0.33056 -0.02814
 C408 C 0.23828 0.34776 -0.02127
 N409 N 0.23438 0.37201 -0.02496
 H410 H 0.27140 0.39826 0.04009
 H411 H 0.29475 0.36088 -0.02403
 H412 H 0.32755 0.34065 -0.00054
 H413 H 0.30379 0.37920 0.06467
 H414 H 0.21058 0.39942 -0.03797
 H415 H 0.17816 0.37030 -0.04975
 H416 H 0.22449 0.31140 -0.02517
 H417 H 0.25473 0.34161 -0.01241
 C418 C 0.21322 0.44682 0.04043
 C419 C 0.30562 0.43223 -0.07304
 C420 C 0.19846 0.33825 -0.03826
 C421 C 0.31809 0.35820 0.03401
 C422 C 0.78141 0.11973 1.02313
 H423 H 0.79029 0.11454 1.00608
 C424 C 0.79160 0.11263 1.04575
 H425 H 0.80861 0.10262 1.04584
 C426 C 0.74875 0.13912 1.04401
 H427 H 0.73194 0.14924 1.04356
 C428 C 0.75833 0.13259 1.06690
 H429 H 0.74888 0.13804 1.08367
 N430 N 0.76098 0.13384 1.02266
 C431 C 0.73688 0.13707 0.94574
 H432 H 0.73687 0.15677 0.94400
 C433 C 0.73031 0.12279 0.92568
 H434 H 0.72552 0.13159 0.90839
 C435 C 0.74329 0.10180 0.97056
 H436 H 0.74815 0.09384 0.98821
 C437 C 0.73705 0.08670 0.95073
 H438 H 0.73710 0.06705 0.95319
 Zn439 Zn 0.75008 0.14915 0.99271
 N440 N 0.74289 0.12650 0.96768
 C441 C 0.76962 0.19393 0.97337
 N442 N 0.77485 0.17031 0.97930
 C443 C 0.79697 0.16062 0.97337
 C444 C 0.81493 0.17474 0.96134
 C445 C 0.78695 0.20861 0.96099
 C446 C 0.69935 0.15925 0.99055
 C447 C 0.67761 0.17084 0.99709
 C448 C 0.70089 0.19857 1.02243
 C449 C 0.72227 0.18668 1.01512
 N450 N 0.72113 0.16714 0.99974
 H451 H 0.75170 0.20118 0.97726
 H452 H 0.80049 0.14161 0.97703
 H453 H 0.83218 0.16643 0.95628
 H454 H 0.78229 0.22721 0.95603
 H455 H 0.69863 0.14343 0.97879
 H456 H 0.66038 0.16387 0.99017
 H457 H 0.70201 0.21372 1.03512
 H458 H 0.73975 0.19250 1.02237
 C459 C 0.73017 0.09729 0.92806
 C460 C 0.78054 0.12004 1.06798
 C461 C 0.67821 0.19046 1.01355
 C462 C 0.80987 0.19897 0.95468
 C463 C 0.27750 0.60339 0.51171
 H464 H 0.28507 0.60584 0.49325
 C465 C 0.28956 0.58868 0.52890
 H466 H 0.30643 0.57989 0.52346
 C467 C 0.24729 0.61337 0.54166
 H468 H 0.23114 0.62343 0.54680
 C469 C 0.25876 0.59889 0.55941
 H470 H 0.25097 0.59762 0.57789
 N471 N 0.25687 0.61553 0.51838
 C472 C 0.21606 0.63678 0.45253
 H473 H 0.21278 0.65571 0.45689
 C474 C 0.20701 0.62697 0.43063
 H475 H 0.19680 0.63849 0.41812
 C476 C 0.23426 0.59903 0.46313
 H477 H 0.24496 0.58823 0.47579
 C478 C 0.22584 0.58858 0.44127
 H479 H 0.23006 0.56972 0.43731
 Zn480 Zn 0.24374 0.63850 0.49572
 N481 N 0.22974 0.62289 0.46804
 C482 C 0.27630 0.65994 0.46033
 N483 N 0.27028 0.65867 0.48481
 C484 C 0.28454 0.66958 0.50207
 C485 C 0.30575 0.68240 0.49495
 C486 C 0.29753 0.67226 0.45242
 C487 C 0.19728 0.64548 0.51698
 C488 C 0.17948 0.65699 0.53142
 C489 C 0.20664 0.69186 0.53477
 C490 C 0.22373 0.67988 0.51994
 N491 N 0.21911 0.65680 0.51202
 H492 H 0.26516 0.65061 0.44690
 H493 H 0.27975 0.66780 0.52150
 H494 H 0.31670 0.69099 0.50906
 H495 H 0.30240 0.67206 0.43295
 H496 H 0.19406 0.62713 0.51043
 H497 H 0.16254 0.64744 0.53596
 H498 H 0.21089 0.70992 0.54165
 H499 H 0.24094 0.68879 0.51549
 C500 C 0.21233 0.60273 0.42456
 C501 C 0.28043 0.58663 0.55325
 C502 C 0.18442 0.68020 0.54102
 C503 C 0.31280 0.68349 0.46984
 C504 C 0.75183 0.90984 0.46137
 H505 H 0.74797 0.91695 0.47954
 C506 C 0.76173 0.92537 0.44307
 H507 H 0.76567 0.94421 0.44759
 C508 C 0.75197 0.87668 0.43353
 H509 H 0.74818 0.85763 0.42992
 C510 C 0.76163 0.89155 0.41470
 H511 H 0.76475 0.88378 0.39660
 N512 N 0.74735 0.88591 0.45637
 C513 C 0.69236 0.87697 0.50845
 H514 H 0.68243 0.86514 0.49616
 C515 C 0.67975 0.88850 0.52764
 H516 H 0.66020 0.88559 0.52983
 C517 C 0.72986 0.89457 0.52141
 H518 H 0.74948 0.89657 0.51910
 C519 C 0.71807 0.90596 0.54117
 H520 H 0.72861 0.91699 0.55383
 Zn521 Zn 0.73477 0.86358 0.48046
 N522 N 0.71699 0.88025 0.50559
 C523 C 0.76135 0.84330 0.52010
 N524 N 0.76140 0.84706 0.49515
 C525 C 0.78112 0.84112 0.48088
 C526 C 0.80239 0.83229 0.49185
 C527 C 0.78230 0.83479 0.53181
 C528 C 0.69531 0.85039 0.45064
 C529 C 0.68051 0.83496 0.43671
 C530 C 0.70558 0.80097 0.44926
 C531 C 0.71961 0.81699 0.46343
 N532 N 0.71429 0.84121 0.46377
 H533 H 0.74536 0.84769 0.53106
 H534 H 0.78074 0.84413 0.46110
 H535 H 0.81838 0.82859 0.48051
 H536 H 0.78250 0.83294 0.55180
 H537 H 0.69188 0.86981 0.45077
 H538 H 0.66554 0.84252 0.42621
 H539 H 0.71010 0.78176 0.44886
 H540 H 0.73501 0.81018 0.47374
 C541 C 0.69273 0.90294 0.54440
 C542 C 0.76687 0.91623 0.41936
 C543 C 0.68578 0.80999 0.43573
 C544 C 0.80318 0.82968 0.51762
 C545 C 0.00654 0.29027 0.40180
 H546 H 0.02547 0.29031 0.40737
 C547 C -0.01100 0.30154 0.41672
 H548 H -0.00506 0.31057 0.43337
 C549 C -0.02385 0.27906 0.37299
 H550 H -0.02870 0.27015 0.35591
 C551 C -0.04206 0.28957 0.38762
 H552 H -0.06087 0.28815 0.38171
 N553 N -0.00015 0.27922 0.38045
 C554 C 0.05577 0.23066 0.38501
 H555 H 0.04251 0.21664 0.38060
 C556 C 0.07821 0.22406 0.39509
 H557 H 0.08202 0.20492 0.39829
 C558 C 0.06765 0.27242 0.38464
 H559 H 0.06362 0.29117 0.37984
 C560 C 0.09043 0.26659 0.39445
 H561 H 0.10374 0.28100 0.39758
 Zn562 Zn 0.02317 0.26254 0.36082
 N563 N 0.05109 0.25446 0.37960
 C564 C 0.05650 0.27836 0.32458
 N565 N 0.03395 0.28283 0.33429
 C566 C 0.02095 0.30267 0.32711
 C567 C 0.03089 0.31931 0.30987
 C568 C 0.06736 0.29477 0.30783
 C569 C -0.00708 0.22114 0.36414
 C570 C -0.01810 0.19944 0.35656
 C571 C 0.00421 0.20285 0.31781
 C572 C 0.01453 0.22479 0.32602
 N573 N 0.00874 0.23343 0.34884
 H574 H 0.06657 0.26256 0.33076
 H575 H 0.00307 0.30591 0.33515
 H576 H 0.02013 0.33489 0.30438
 H577 H 0.08592 0.29136 0.30167
 H578 H -0.01120 0.22827 0.38230
 H579 H -0.03117 0.19048 0.36889
 H580 H 0.00948 0.19604 0.29980
 H581 H 0.02739 0.23473 0.31428
 C582 C 0.09611 0.24207 0.39929
 C583 C -0.03582 0.30096 0.40997
 C584 C -0.01240 0.18983 0.33317
 C585 C 0.05472 0.31583 0.30039
 C586 C 1.00311 0.78870 0.10064
 H587 H 0.99171 0.80179 0.11003
 C588 C 1.02280 0.79695 0.08605
 H589 H 1.02634 0.81638 0.08427
 C590 C 1.01258 0.74756 0.09166
 H591 H 1.00865 0.72831 0.09433
 C592 C 1.03242 0.75501 0.07682
 H593 H 1.04385 0.74132 0.06828
 N594 N 0.99884 0.76437 0.10375
 C595 C 0.95535 0.70566 0.12070
 H596 H 0.96874 0.70090 0.13440
 C597 C 0.93754 0.68851 0.11460
 H598 H 0.93722 0.67096 0.12405
 C599 C 0.93948 0.73394 0.09180
 H600 H 0.94017 0.75187 0.08322
 C601 C 0.92101 0.71729 0.08527
 H602 H 0.90733 0.72264 0.07196
 Zn603 Zn 0.97456 0.75296 0.12633
 N604 N 0.95488 0.72856 0.11074
 C605 C 0.93100 0.78098 0.13156
 N606 N 0.95495 0.77927 0.13796
 C607 C 0.96528 0.79586 0.15340
 C608 C 0.95146 0.81514 0.16283
 C609 C 0.91672 0.80015 0.14011
 C610 C 1.01342 0.73166 0.15395
 C611 C 1.02212 0.71478 0.17126
 C612 C 0.98195 0.71352 0.19041
 C613 C 0.97406 0.73048 0.17286
 N614 N 0.98939 0.73805 0.15426
 H615 H 0.92267 0.76752 0.11990
 H616 H 0.98425 0.79394 0.15860
 H617 H 0.95995 0.82772 0.17555
 H618 H 0.89794 0.80130 0.13403
 H619 H 1.02543 0.73811 0.13926
 H620 H 1.04073 0.70829 0.16948
 H621 H 0.96899 0.70626 0.20397
 H622 H 0.95506 0.73590 0.17270
 C623 C 0.91915 0.69482 0.09791
 C624 C 1.03809 0.77998 0.07438
 C625 C 1.00591 0.70453 0.18892
 C626 C 0.92673 0.81748 0.15623
 C627 C 0.53146 0.27892 0.59994
 H628 H 0.51828 0.29199 0.60663
 C629 C 0.55121 0.28691 0.58522
 H630 H 0.55292 0.30608 0.58036
 C631 C 0.54616 0.23836 0.59943
 H632 H 0.54471 0.21964 0.60577
 C633 C 0.56601 0.24550 0.58443
 H634 H 0.57958 0.23210 0.57937
 N635 N 0.52973 0.25516 0.60738
 C636 C 0.46208 0.22691 0.64086
 H637 H 0.46890 0.22495 0.65949
 C638 C 0.43807 0.22014 0.63571
 H639 H 0.42662 0.21262 0.65045
 C640 C 0.46893 0.23926 0.59915
 H641 H 0.48105 0.24702 0.58514
 C642 C 0.44487 0.23256 0.59312
 H643 H 0.43850 0.23524 0.57438
 Zn644 Zn 0.50796 0.24714 0.63386
 N645 N 0.47681 0.23669 0.62284
 C646 C 0.48084 0.28445 0.65655
 N647 N 0.50383 0.27560 0.65331
 C648 C 0.52377 0.28814 0.66150
 C649 C 0.52095 0.31071 0.67311
 C650 C 0.47720 0.30670 0.66819
 C651 C 0.51734 0.19838 0.64316
 C652 C 0.52491 0.17771 0.65603
 C653 C 0.54070 0.20382 0.68808
 C654 C 0.53245 0.22412 0.67470
 N655 N 0.52103 0.22102 0.65264
 H656 H 0.46521 0.27478 0.64934
 H657 H 0.54193 0.28105 0.65819
 H658 H 0.53700 0.32068 0.67916
 H659 H 0.45877 0.31369 0.66981
 H660 H 0.50813 0.19640 0.62565
 H661 H 0.52164 0.15983 0.64823
 H662 H 0.54954 0.20641 0.70573
 H663 H 0.53497 0.24222 0.68206
 C664 C 0.42901 0.22333 0.61172
 C665 C 0.56917 0.27020 0.57790
 C666 C 0.53661 0.18027 0.67884
 C667 C 0.49739 0.32031 0.67638
 C668 C 0.48392 0.77267 0.91895
 H669 H 0.50276 0.77509 0.92444
 C670 C 0.46515 0.78247 0.93346
 H671 H 0.46987 0.79313 0.94953
 C672 C 0.45504 0.75571 0.89147
 H673 H 0.45103 0.74506 0.87528
 C674 C 0.43573 0.76488 0.90558
 H675 H 0.41713 0.76096 0.90002
 N676 N 0.47864 0.76030 0.89791
 C677 C 0.51969 0.71423 0.91354
 H678 H 0.50049 0.70920 0.91441
 C679 C 0.53661 0.70169 0.92804
 H680 H 0.53028 0.68672 0.93974
 C681 C 0.55130 0.73938 0.89656
 H682 H 0.55707 0.75400 0.88421
 C683 C 0.56872 0.72759 0.91089
 H684 H 0.58762 0.73364 0.90959
 Zn685 Zn 0.50467 0.74885 0.87761
 N686 N 0.52735 0.73242 0.89791
 C687 C 0.53065 0.77224 0.83837
 N688 N 0.52141 0.77536 0.86164
 C689 C 0.52652 0.79593 0.87463
 C690 C 0.54189 0.81400 0.86460
 C691 C 0.54598 0.79001 0.82753
 C692 C 0.49658 0.70311 0.85407
 C693 C 0.48664 0.68756 0.83635
 C694 C 0.46844 0.72255 0.81645
 C695 C 0.47846 0.73738 0.83471
 N696 N 0.49211 0.72750 0.85314
 H697 H 0.52700 0.75549 0.82859
 H698 H 0.51939 0.79807 0.89314
 H699 H 0.54603 0.83006 0.87540
 H700 H 0.55377 0.78692 0.80932
 H701 H 0.50774 0.69559 0.86858
 H702 H 0.49034 0.66818 0.83735
 H703 H 0.45741 0.73069 0.80208
 H704 H 0.47526 0.75684 0.83431
 C705 C 0.56158 0.70820 0.92663
 C706 C 0.44063 0.77900 0.92658
 C707 C 0.47235 0.69727 0.81726
 C708 C 0.55215 0.81096 0.84093
 C709 C 0.44594 -0.16405 0.31929
 C710 C 0.44973 -0.16662 0.29423
 C711 C 0.45809 -0.18818 0.28385
 C712 C 0.46274 -0.20784 0.29994
 C713 C 0.45878 -0.20573 0.32587
 C714 C 0.45026 -0.18341 0.33561
 O715 O 0.43739 -0.14227 0.32533
 C716 C 0.43559 -0.13092 0.30361
 C717 C 0.44287 -0.14500 0.28398
 C718 C 0.44135 -0.13703 0.25953
 C719 C 0.43147 -0.11381 0.25511
 C720 C 0.42350 -0.09893 0.27504
 C721 C 0.42621 -0.10763 0.29969
 H722 H 0.46075 -0.18987 0.26406
 H723 H 0.46901 -0.22487 0.29218
 H724 H 0.44714 -0.18119 0.35528
 H725 H 0.44686 -0.14858 0.24435
 H726 H 0.42913 -0.10798 0.23610
 H727 H 0.42062 -0.09691 0.31546
 C728 C 0.96644 0.37025 0.84629
 C729 C 0.98552 0.37526 0.83023
 C730 C 1.00446 0.35894 0.82629
 C731 C 1.00339 0.33639 0.83900
 C732 C 0.98336 0.33030 0.85527
 C733 C 0.96511 0.34825 0.85928
 O734 O 0.94941 0.38728 0.84639
 C735 C 0.95778 0.40339 0.82987
 C736 C 0.97986 0.39705 0.81942
 C737 C 0.99095 0.41074 0.80046
 C738 C 0.97853 0.43147 0.79173
 C739 C 0.95543 0.43800 0.80195
 C740 C 0.94525 0.42379 0.82159
 H741 H 1.01912 0.36302 0.81321
 H742 H 1.01745 0.32332 0.83463
 H743 H 0.94998 0.34554 0.87211
 H744 H 1.00819 0.40530 0.79225
 H745 H 0.98666 0.44213 0.77674
 H746 H 0.92730 0.42756 0.82927
 C747 C 0.06214 1.15425 0.85015
 C748 C 0.04062 1.14106 0.84986
 C749 C 0.01857 1.15044 0.85836
 C750 C 0.01868 1.17439 0.86746
 C751 C 0.04077 1.18851 0.86835
 C752 C 0.06283 1.17784 0.85955
 O753 O 0.08094 1.14241 0.84040
 C754 C 0.07111 1.12119 0.83397
 C755 C 0.04654 1.11933 0.83949
 C756 C 0.03273 1.09856 0.83434
 C757 C 0.04476 1.07896 0.82301
 C758 C 0.07010 1.08055 0.81667
 C759 C 0.08333 1.10216 0.82236
 H760 H 0.00182 1.13972 0.85792
 H761 H 0.00159 1.18141 0.87463
 H762 H 0.07999 1.18788 0.85880
 H763 H 0.01343 1.09742 0.83901
 H764 H 0.03429 1.06252 0.81941
 H765 H 0.10249 1.10444 0.81749
 C766 C 0.54860 0.62038 0.33106
 C767 C 0.53124 0.61385 0.31404
 C768 C 0.51349 0.62992 0.30578
 C769 C 0.51379 0.65373 0.31527
 C770 C 0.53154 0.66101 0.33292
 C771 C 0.54894 0.64373 0.34111
 O772 O 0.56476 0.60296 0.33538
 C773 C 0.55748 0.58503 0.32075
 C774 C 0.53697 0.59066 0.30740
 C775 C 0.52683 0.57477 0.29029
 C776 C 0.53853 0.55233 0.28655
 C777 C 0.56016 0.54632 0.29962
 C778 C 0.56946 0.56296 0.31724
 H779 H 0.50028 0.62455 0.29201
 H780 H 0.50064 0.66663 0.30822
 H781 H 0.56264 0.64829 0.35467
 H782 H 0.51070 0.57960 0.27993
 H783 H 0.53085 0.53979 0.27328
 H784 H 0.58621 0.55942 0.32713
 C785 C 0.56124 0.30581 0.19193
 C786 C 0.54941 0.30218 0.21429
 C787 C 0.53261 0.28329 0.21833
 C788 C 0.52751 0.26781 0.19839
 C789 C 0.53889 0.27167 0.17484
 C790 C 0.55630 0.29083 0.17185
 O791 O 0.57606 0.32512 0.19164
 C792 C 0.57345 0.33397 0.21426
 C793 C 0.55724 0.32075 0.22887
 C794 C 0.55086 0.32775 0.25281
 C795 C 0.56169 0.34920 0.26199
 C796 C 0.57873 0.36280 0.24731
 C797 C 0.58471 0.35497 0.22316
 H798 H 0.52353 0.28073 0.23609
 H799 H 0.51444 0.25304 0.20124
 H800 H 0.56496 0.29478 0.15413
 H801 H 0.53777 0.31729 0.26385
 H802 H 0.55697 0.35517 0.28048
 H803 H 0.59730 0.36534 0.21142
 C804 C 0.05083 0.84724 0.67456
 C805 C 0.03193 0.86318 0.67096
 C806 C 0.01170 0.85742 0.65677
 C807 C 0.01081 0.83422 0.64596
 C808 C 0.03000 0.81696 0.64947
 C809 C 0.05038 0.82407 0.66409
 O810 O 0.06847 0.85628 0.68858
 C811 C 0.06052 0.87846 0.69390
 C812 C 0.03823 0.88361 0.68360
 C813 C 0.02664 0.90589 0.68675
 C814 C 0.03863 0.92364 0.70096
 C815 C 0.06179 0.91884 0.71163
 C816 C 0.07274 0.89578 0.70804
 H817 H -0.00283 0.87042 0.65390
 H818 H -0.00456 0.83039 0.63413
 H819 H 0.06519 0.81179 0.66828
 H820 H 0.00904 0.90952 0.67852
 H821 H 0.02982 0.94105 0.70372
 H822 H 0.09055 0.89159 0.71551
 C823 C 0.93219 0.66302 0.66244
 C824 C 0.91334 0.67031 0.67769
 C825 C 0.90437 0.69395 0.67769
 C826 C 0.91524 0.71084 0.66123
 C827 C 0.93477 0.70390 0.64534
 C828 C 0.94354 0.67967 0.64611
 O829 O 0.93730 0.63944 0.66492
 C830 C 0.92135 0.63177 0.68213
 C831 C 0.90638 0.65002 0.69058
 C832 C 0.88819 0.64613 0.70835
 C833 C 0.88507 0.62235 0.71769
 C834 C 0.89984 0.60293 0.70899
 C835 C 0.91848 0.60787 0.69111
 H836 H 0.88943 0.69917 0.68979
 H837 H 0.90858 0.72941 0.66094
 H838 H 0.95834 0.67392 0.63406
 H839 H 0.87675 0.66087 0.71476
 H840 H 0.87112 0.61913 0.73176
 H841 H 0.92994 0.59350 0.68392
 C842 C 0.41812 0.15066 0.16303
 C843 C 0.39817 0.15671 0.17735
 C844 C 0.38895 0.18024 0.17841
 C845 C 0.40088 0.19839 0.16420
 C846 C 0.42163 0.19279 0.14930
 C847 C 0.43035 0.16848 0.14877
 O848 O 0.42370 0.12711 0.16457
 C849 C 0.40690 0.11815 0.18026
 C850 C 0.39092 0.13559 0.18862
 C851 C 0.37186 0.13038 0.20509
 C852 C 0.36890 0.10612 0.21306
 C853 C 0.38477 0.08754 0.20442
 C854 C 0.40430 0.09379 0.18799
 H855 H 0.37323 0.18450 0.18988
 H856 H 0.39425 0.21692 0.16524
 H857 H 0.44608 0.16360 0.13756
 H858 H 0.35964 0.14448 0.21151
 H859 H 0.35420 0.10182 0.22603
 H860 H 0.41665 0.08006 0.18099
 C861 C 0.35901 0.46572 -0.16203
 C862 C 0.37525 0.45506 -0.14608
 C863 C 0.39951 0.45082 -0.15240
 C864 C 0.40735 0.45746 -0.17631
 C865 C 0.39109 0.46860 -0.19346
 C866 C 0.36661 0.47330 -0.18571
 O867 O 0.33631 0.46641 -0.15290
 C868 C 0.33838 0.45605 -0.13068
 C869 C 0.36193 0.44904 -0.12557
 C870 C 0.36828 0.43734 -0.10367
 C871 C 0.34958 0.43255 -0.08631
 C872 C 0.32501 0.43912 -0.09122
 C873 C 0.31934 0.45109 -0.11377
 H874 H 0.41188 0.44219 -0.13953
 H875 H 0.42634 0.45433 -0.18116
 H876 H 0.35332 0.48101 -0.19821
 H877 H 0.38693 0.43184 -0.10020
 H878 H 0.35410 0.42306 -0.06930
 H879 H 0.30073 0.45616 -0.11806
 C880 C 0.82084 0.95084 0.33141
 C881 C 0.80771 0.97012 0.34046
 C882 C 0.80732 0.99272 0.32863
 C883 C 0.82082 0.99550 0.30647
 C884 C 0.83435 0.97570 0.29625
 C885 C 0.83430 0.95308 0.30946
 O886 O 0.81858 0.93076 0.34519
 C887 C 0.80352 0.93747 0.36324
 C888 C 0.79626 0.96136 0.36125
 C889 C 0.77987 0.97182 0.37785
 C890 C 0.77046 0.95697 0.39714
 C891 C 0.77760 0.93217 0.39953
 C892 C 0.79464 0.92250 0.38234
 H893 H 0.79664 1.00761 0.33596
 H894 H 0.81947 1.01282 0.29684
 H895 H 0.84484 0.93758 0.30341
 H896 H 0.77421 0.99061 0.37578
 H897 H 0.75717 0.96465 0.40980
 H898 H 0.80080 0.90381 0.38366
 C899 C 0.83465 0.08123 1.15285
 C900 C 0.82952 0.10534 1.15699
 C901 C 0.83684 0.11751 1.17807
 C902 C 0.85007 0.10436 1.19572
 C903 C 0.85582 0.07920 1.19227
 C904 C 0.84761 0.06761 1.17028
 O905 O 0.82623 0.07330 1.13131
 C906 C 0.81547 0.09288 1.12178
 C907 C 0.81691 0.11290 1.13690
 C908 C 0.80682 0.13531 1.13080
 C909 C 0.79471 0.13722 1.10815
 C910 C 0.79300 0.11694 1.09203
 C911 C 0.80368 0.09443 1.09895
 H912 H 0.83237 0.13650 1.18096
 H913 H 0.85469 0.11382 1.21254
 H914 H 0.85186 0.04880 1.16623
 H915 H 0.80826 0.15080 1.14302
 H916 H 0.78698 0.15465 1.10296
 H917 H 0.80262 0.07866 1.08706
 C918 C 0.33058 0.56113 0.64504
 C919 C 0.33515 0.54295 0.62826
 C920 C 0.35107 0.52386 0.63315
 C921 C 0.36291 0.52366 0.65614
 C922 C 0.35871 0.54238 0.67370
 C923 C 0.34198 0.56119 0.66801
 O924 O 0.31566 0.57814 0.63652
 C925 C 0.31073 0.57061 0.61382
 C926 C 0.32217 0.54917 0.60780
 C927 C 0.32021 0.53864 0.58454
 C928 C 0.30604 0.55080 0.56677
 C929 C 0.29420 0.57308 0.57249
 C930 C 0.29654 0.58292 0.59652
 H931 H 0.35464 0.50990 0.61956
 H932 H 0.37594 0.50935 0.65989
 H933 H 0.33819 0.57572 0.68092
 H934 H 0.32950 0.52184 0.58013
 H935 H 0.30434 0.54290 0.54856
 H936 H 0.28829 0.60014 0.60140
 C937 C 0.15759 0.57768 0.33541
 C938 C 0.18106 0.56917 0.33273
 C939 C 0.18907 0.55713 0.31166
 C940 C 0.17213 0.55349 0.29267
 C941 C 0.14755 0.56158 0.29511
 C942 C 0.14035 0.57405 0.31686
 O943 O 0.15377 0.58881 0.35684
 C944 C 0.17530 0.58723 0.36792
 C945 C 0.19258 0.57525 0.35401
 C946 C 0.21625 0.57119 0.36223
 C947 C 0.22241 0.57996 0.38571
 C948 C 0.20504 0.59270 0.40032
 C949 C 0.18111 0.59635 0.39121
 H950 H 0.20772 0.55080 0.30988
 H951 H 0.17826 0.54443 0.27602
 H952 H 0.12176 0.58026 0.31958
 H953 H 0.22951 0.56165 0.35097
 H954 H 0.24085 0.57728 0.39232
 H955 H 0.16743 0.60588 0.40199
 C956 C 0.68081 0.06257 0.83941
 C957 C 0.70092 0.04820 0.84316
 C958 C 0.70770 0.02998 0.82689
 C959 C 0.69297 0.02615 0.80612
 C960 C 0.67140 0.04019 0.80190
 C961 C 0.66572 0.05899 0.81906
 O962 O 0.67776 0.07923 0.85682
 C963 C 0.69639 0.07526 0.87187
 C964 C 0.71106 0.05637 0.86447
 C965 C 0.73156 0.04913 0.87769
 C966 C 0.73735 0.06219 0.89918
 C967 C 0.72282 0.08217 0.90677
 C968 C 0.70189 0.08854 0.89298
 H969 H 0.72394 0.01923 0.82992
 H970 H 0.69916 0.01262 0.79310
 H971 H 0.64948 0.07000 0.81766
 H972 H 0.74281 0.03414 0.87155
 H973 H 0.75351 0.05725 0.90946
 H974 H 0.69036 0.10360 0.89841
 C975 C 0.66422 0.93079 0.64470
 C976 C 0.64850 0.94202 0.62853
 C977 C 0.62978 0.95727 0.63644
 C978 C 0.62722 0.96109 0.66203
 C979 C 0.64299 0.94936 0.67900
 C980 C 0.66169 0.93395 0.67017
 O981 O 0.68108 0.91744 0.63348
 C982 C 0.67586 0.92020 0.60969
 C983 C 0.65598 0.93490 0.60562
 C984 C 0.64712 0.93976 0.58203
 C985 C 0.65926 0.92900 0.56187
 C986 C 0.68003 0.91412 0.56566
 C987 C 0.68844 0.90974 0.58994
 H988 H 0.61771 0.96604 0.62338
 H989 H 0.61286 0.97294 0.66869
 H990 H 0.67411 0.92501 0.68277
 H991 H 0.63136 0.95127 0.57926
 H992 H 0.65271 0.93243 0.54331
 H993 H 0.70408 0.89822 0.59332
 C994 C 0.15166 0.47843 0.12280
 C995 C 0.17085 0.49477 0.12049
 C996 C 0.17646 0.51160 0.13875
 C997 C 0.16214 0.51112 0.16052
 C998 C 0.14262 0.49395 0.16367
 C999 C 0.13694 0.47794 0.14404
 O1000 O 0.15083 0.46238 0.10459
 C1001 C 0.17002 0.46856 0.09055
 C1002 C 0.18285 0.48833 0.09936
 C1003 C 0.20478 0.49646 0.08868
 C1004 C 0.21408 0.48338 0.06844
 C1005 C 0.20149 0.46250 0.05941
 C1006 C 0.17878 0.45547 0.07037
 H1007 H 0.19202 0.52390 0.13682
 H1008 H 0.16721 0.52318 0.17542
 H1009 H 0.12230 0.46454 0.14569
 H1010 H 0.21487 0.51171 0.09625
 H1011 H 0.23169 0.48881 0.06069
 H1012 H 0.16872 0.43960 0.06411
 C1013 C -0.12729 0.34338 0.44723
 C1014 C -0.11264 0.33862 0.46720
 C1015 C -0.12013 0.34276 0.49145
 C1016 C -0.14373 0.35207 0.49528
 C1017 C -0.15952 0.35668 0.47501
 C1018 C -0.15092 0.35228 0.45060
 O1019 O -0.11676 0.33810 0.42570
 C1020 C -0.09502 0.32969 0.43225
 C1021 C -0.09162 0.32951 0.45742
 C1022 C -0.07054 0.32056 0.46828
 C1023 C -0.05226 0.31131 0.45257
 C1024 C -0.05512 0.31148 0.42639
 C1025 C -0.07692 0.32109 0.41625
 H1026 H -0.10821 0.33903 0.50689
 H1027 H -0.14955 0.35582 0.51406
 H1028 H -0.16241 0.35512 0.43465
 H1029 H -0.06843 0.32024 0.48818
 H1030 H -0.03620 0.30351 0.46097
 H1031 H -0.07986 0.32191 0.39649
 C1032 C 0.34843 0.82699 0.95148
 C1033 C 0.36090 0.82373 0.97316
 C1034 C 0.35146 0.83093 0.99591
 C1035 C 0.32821 0.84182 0.99629
 C1036 C 0.31459 0.84527 0.97408
 C1037 C 0.32539 0.83751 0.95138
 O1038 O 0.36031 0.81882 0.93177
 C1039 C 0.38081 0.81017 0.94117
 C1040 C 0.38216 0.81261 0.96643
 C1041 C 0.40206 0.80433 0.97991
 C1042 C 0.42127 0.79314 0.96678
 C1043 C 0.42028 0.79056 0.94062
 C1044 C 0.39964 0.79938 0.92780
 H1045 H 0.36167 0.82839 1.01278
 H1046 H 0.32143 0.84810 1.01397
 H1047 H 0.31592 0.83830 0.93393
 H1048 H 0.40272 0.80625 0.99981
 H1049 H 0.43668 0.78625 0.97704
 H1050 H 0.39831 0.79821 0.90787
 C1051 C 1.13276 0.82637 0.05282
 C1052 C 1.12796 0.81042 0.03399
 C1053 C 1.14486 0.80573 0.01528
 C1054 C 1.16768 0.81777 0.01616
 C1055 C 1.17348 0.83420 0.03572
 C1056 C 1.15517 0.83857 0.05408
 O1057 O 1.11464 0.82783 0.06924
 C1058 C 1.09804 0.81235 0.06067
 C1059 C 1.10523 0.80116 0.03913
 C1060 C 1.09092 0.78351 0.02763
 C1061 C 1.06846 0.77698 0.03897
 C1062 C 1.06081 0.78816 0.06135
 C1063 C 1.07583 0.80629 0.07212
 H1064 H 1.14083 0.79283 0.00078
 H1065 H 1.18107 0.81304 0.00217
 H1066 H 1.15777 0.85145 0.06888
 H1067 H 1.09699 0.77479 0.01077
 H1068 H 1.05714 0.76313 0.03046
 H1069 H 1.07087 0.81474 0.08948
 C1070 C 0.66275 0.32017 0.55956
 C1071 C 0.66074 0.30158 0.54273
 C1072 C 0.67979 0.29529 0.52682
 C1073 C 0.70179 0.30868 0.52834
 C1074 C 0.70441 0.32791 0.54565
 C1075 C 0.68442 0.33372 0.56140
 O1076 O 0.64285 0.32265 0.57361
 C1077 C 0.62799 0.30520 0.56553
 C1078 C 0.63802 0.29176 0.54666
 C1079 C 0.62600 0.27184 0.53633
 C1080 C 0.60288 0.26529 0.54613
 C1081 C 0.59226 0.27872 0.56580
 C1082 C 0.60496 0.29919 0.57534
 H1083 H 0.67792 0.28040 0.51392
 H1084 H 0.71696 0.30369 0.51642
 H1085 H 0.68570 0.34829 0.57474
 H1086 H 0.63434 0.26137 0.52164
 H1087 H 0.59340 0.24958 0.53868
 H1088 H 0.59768 0.30942 0.59077
 C1089 C 0.33908 0.18074 0.57167
 C1090 C 0.33320 0.19288 0.59306
 C1091 C 0.30995 0.19191 0.60382
 C1092 C 0.29202 0.17774 0.59209
 C1093 C 0.29758 0.16503 0.56999
 C1094 C 0.32145 0.16676 0.55955
 O1095 O 0.36254 0.18311 0.56522
 C1096 C 0.37167 0.19706 0.58295
 C1097 C 0.35442 0.20358 0.60037
 C1098 C 0.36010 0.21733 0.62104
 C1099 C 0.38462 0.22435 0.62412
 C1100 C 0.40295 0.21747 0.60672
 C1101 C 0.39622 0.20396 0.58558
 H1102 H 0.30584 0.20143 0.62081
 H1103 H 0.27381 0.17665 0.60018
 H1104 H 0.32633 0.15691 0.54295
 H1105 H 0.34621 0.22214 0.63455
 H1106 H 0.38941 0.23493 0.64023
 H1107 H 0.40980 0.19813 0.57219
 C1108 C 0.83317 0.63824 0.06632
 C1109 C 0.83394 0.63842 0.09168
 C1110 C 0.81656 0.62685 0.10659
 C1111 C 0.79754 0.61433 0.09495
 C1112 C 0.79613 0.61307 0.06855
 C1113 C 0.81443 0.62568 0.05417
 O1114 O 0.85163 0.65070 0.05576
 C1115 C 0.86422 0.65886 0.07501
 C1116 C 0.85408 0.65170 0.09736
 C1117 C 0.86410 0.65780 0.11998
 C1118 C 0.88558 0.67188 0.11964
 C1119 C 0.89662 0.67962 0.09693
 C1120 C 0.88563 0.67317 0.07421
 H1121 H 0.81741 0.62770 0.12658
 H1122 H 0.78347 0.60655 0.10693
 H1123 H 0.81485 0.62520 0.03417
 H1124 H 0.85567 0.65194 0.13729
 H1125 H 0.89349 0.67705 0.13716
 H1126 H 0.89362 0.67886 0.05664
 C1127 C 0.65189 0.65885 0.95461
 C1128 C 0.63561 0.65635 0.97409
 C1129 C 0.64086 0.64283 0.99526
 C1130 C 0.66368 0.63123 0.99621
 C1131 C 0.68080 0.63346 0.97625
 C1132 C 0.67474 0.64783 0.95531
 O1133 O 0.64311 0.67165 0.93581
 C1134 C 0.62080 0.67736 0.94357
 C1135 C 0.61526 0.66855 0.96688
 C1136 C 0.59260 0.67214 0.97826
 C1137 C 0.57500 0.68537 0.96503
 C1138 C 0.58026 0.69452 0.94081
 C1139 C 0.60360 0.69031 0.93007
 H1140 H 0.62767 0.64083 1.01025
 H1141 H 0.66761 0.61990 1.01218
 H1142 H 0.68728 0.65016 0.93980
 H1143 H 0.58861 0.66502 0.99663
 H1144 H 0.55741 0.68863 0.97374
 H1145 H 0.60818 0.69646 0.91147
 C1146 C 0.17895 0.19023 0.44206
 C1147 C 0.18799 0.20650 0.42460
 C1148 C 0.21255 0.20728 0.41743
 C1149 C 0.22840 0.19056 0.42869
 C1150 C 0.21950 0.17379 0.44690
 C1151 C 0.19444 0.17378 0.45377
 O1152 O 0.15488 0.19158 0.44529
 C1153 C 0.14856 0.20912 0.42957
 C1154 C 0.16814 0.21898 0.41659
 C1155 C 0.16554 0.23718 0.39872
 C1156 C 0.14175 0.24531 0.39382
 C1157 C 0.12118 0.23503 0.40657
 C1158 C 0.12476 0.21681 0.42489
 H1159 H 0.21919 0.22004 0.40343
 H1160 H 0.24757 0.19067 0.42334
 H1161 H 0.18715 0.16086 0.46732
 H1162 H 0.18119 0.24453 0.38859
 H1163 H 0.13929 0.25896 0.37945
 H1164 H 0.10944 0.20856 0.43486
 C1165 C 0.59305 0.10472 0.72935
 C1166 C 0.56947 0.09625 0.72641
 C1167 C 0.56228 0.07247 0.73223
 C1168 C 0.58017 0.05666 0.74130
 C1169 C 0.60474 0.06476 0.74429
 C1170 C 0.61117 0.08930 0.73852
 O1171 O 0.59618 0.12765 0.72159
 C1172 C 0.57411 0.13372 0.71355
 C1173 C 0.55715 0.11510 0.71611
 C1174 C 0.53322 0.11696 0.70784
 C1175 C 0.52655 0.13881 0.69614
 C1176 C 0.54371 0.15825 0.69298
 C1177 C 0.56776 0.15578 0.70218
 H1178 H 0.54364 0.06620 0.72955
 H1179 H 0.57493 0.03802 0.74588
 H1180 H 0.62982 0.09588 0.74027
 H1181 H 0.52029 0.10195 0.70988
 H1182 H 0.50807 0.14054 0.68928
 H1183 H 0.58133 0.17016 0.69963
 C1184 C 1.06172 0.62646 0.23619
 C1185 C 1.03909 0.61742 0.22991
 C1186 C 1.03336 0.59268 0.23051
 C1187 C 1.05176 0.57649 0.23764
 C1188 C 1.07540 0.58514 0.24457
 C1189 C 1.08008 0.61076 0.24431
 O1190 O 1.06410 0.65032 0.23193
 C1191 C 1.04243 0.65644 0.22287
 C1192 C 1.02641 0.63697 0.22159
 C1193 C 1.00313 0.63887 0.21168
 C1194 C 0.99618 0.66168 0.20230
 C1195 C 1.01258 0.68197 0.20258
 C1196 C 1.03599 0.67931 0.21334
 H1197 H 1.01551 0.58599 0.22506
 H1198 H 1.04729 0.55719 0.23821
 H1199 H 1.09799 0.61822 0.24846
 H1200 H 0.99099 0.62319 0.21059
 H1201 H 0.97845 0.66319 0.19364
 H1202 H 1.04904 0.69432 0.21348
 C1203 C 0.89165 0.91002 0.19744
 C1204 C 0.87207 0.89415 0.19572
 C1205 C 0.84879 0.89962 0.20452
 C1206 C 0.84565 0.92215 0.21616
 C1207 C 0.86568 0.93859 0.21898
 C1208 C 0.88891 0.93264 0.20892
 O1209 O 0.91241 0.90073 0.18876
 C1210 C 0.90577 0.87850 0.18157
 C1211 C 0.88130 0.87360 0.18553
 C1212 C 0.87067 0.85104 0.18073
 C1213 C 0.88581 0.83276 0.17129
 C1214 C 0.91115 0.83728 0.16649
 C1215 C 0.92117 0.86066 0.17182
 H1216 H 0.83371 0.88677 0.20301
 H1217 H 0.82774 0.92656 0.22356
 H1218 H 0.90460 0.94462 0.21118
 H1219 H 0.85146 0.84748 0.18457
 H1220 H 0.87777 0.81492 0.16824
 H1221 H 0.94032 0.86492 0.16847
 C1222 C 0.45171 0.40382 0.72395
 C1223 C 0.47176 0.41242 0.71079
 C1224 C 0.47697 0.43724 0.70803
 C1225 C 0.46094 0.45378 0.71942
 C1226 C 0.44028 0.44525 0.73327
 C1227 C 0.43570 0.41986 0.73546
 O1228 O 0.44938 0.37972 0.72362
 C1229 C 0.46836 0.37287 0.70996
 C1230 C 0.48274 0.39210 0.70171
 C1231 C 0.50316 0.38888 0.68648
 C1232 C 0.50861 0.36496 0.67907
 C1233 C 0.49358 0.34494 0.68684
 C1234 C 0.47345 0.34907 0.70293
 H1235 H 0.49272 0.44364 0.69741
 H1236 H 0.46473 0.47317 0.71770
 H1237 H 0.41985 0.41277 0.74549
 H1238 H 0.51415 0.40427 0.68004
 H1239 H 0.52387 0.36218 0.66648
 H1240 H 0.46164 0.33423 0.70924
 C1241 C 0.42325 0.61615 0.76746
 C1242 C 0.43118 0.63259 0.74966
 C1243 C 0.42810 0.62870 0.72450
 C1244 C 0.41649 0.60692 0.71738
 C1245 C 0.40793 0.58962 0.73537
 C1246 C 0.41136 0.59455 0.76084
 O1247 O 0.42854 0.62301 0.79031
 C1248 C 0.44005 0.64425 0.78685
 C1249 C 0.44205 0.65101 0.76232
 C1250 C 0.45348 0.67260 0.75454
 C1251 C 0.46327 0.68783 0.77281
 C1252 C 0.46166 0.68115 0.79824
 C1253 C 0.44985 0.65899 0.80528
 H1254 H 0.43477 0.64176 0.71080
 H1255 H 0.41475 0.60336 0.69781
 H1256 H 0.40501 0.58198 0.77515
 H1257 H 0.45487 0.67751 0.73512
 H1258 H 0.47242 0.70463 0.76715
 H1259 H 0.44816 0.65350 0.82453
 C1260 C -0.06156 0.11462 0.27434
 C1261 C -0.06118 0.10677 0.29856
 C1262 C -0.07346 0.08585 0.30676
 C1263 C -0.08683 0.07255 0.28932
 C1264 C -0.08737 0.07995 0.26398
 C1265 C -0.07413 0.10129 0.25652
 O1266 O -0.05003 0.13584 0.27073
 C1267 C -0.04218 0.14147 0.29318
 C1268 C -0.04835 0.12416 0.31080
 C1269 C -0.04239 0.12657 0.33560
 C1270 C -0.02984 0.14784 0.34260
 C1271 C -0.02394 0.16652 0.32497
 C1272 C -0.03001 0.16295 0.29977
 H1273 H -0.07338 0.08037 0.32606
 H1274 H -0.09738 0.05695 0.29594
 H1275 H -0.07376 0.10763 0.23750
 H1276 H -0.04734 0.11262 0.34912
 H1277 H -0.02484 0.14972 0.36182
 H1278 H -0.02625 0.17682 0.28580
 C1279 C 0.08870 0.40864 0.25588
 C1280 C 0.10225 0.39007 0.24590
 C1281 C 0.12152 0.39419 0.22939
 C1282 C 0.12677 0.41843 0.22250
 C1283 C 0.11234 0.43805 0.23151
 C1284 C 0.09319 0.43290 0.24881
 O1285 O 0.07171 0.40075 0.27191
 C1286 C 0.07455 0.37667 0.27186
 C1287 C 0.09280 0.36922 0.25605
 C1288 C 0.09852 0.34482 0.25268
 C1289 C 0.08520 0.32736 0.26654
 C1290 C 0.06691 0.33448 0.28395
 C1291 C 0.06142 0.35967 0.28627
 H1292 H 0.13229 0.37929 0.22223
 H1293 H 0.14217 0.42176 0.21012
 H1294 H 0.08169 0.44717 0.25612
 H1295 H 0.11270 0.33939 0.23976
 H1296 H 0.08929 0.30830 0.26366
 H1297 H 0.04793 0.36608 0.29944
 C1298 C 0.60355 0.88219 0.77727
 C1299 C 0.61518 0.88146 0.79972
 C1300 C 0.63409 0.89744 0.80575
 C1301 C 0.64101 0.91519 0.78806
 C1302 C 0.62898 0.91665 0.76492
 C1303 C 0.61027 0.89956 0.75934
 O1304 O 0.58519 0.86622 0.77575
 C1305 C 0.58517 0.85524 0.79776
 C1306 C 0.60314 0.86392 0.81311
 C1307 C 0.60563 0.85590 0.83743
 C1308 C 0.58884 0.83827 0.84632
 C1309 C 0.57004 0.82907 0.83090
 C1310 C 0.56840 0.83755 0.80615
 H1311 H 0.64281 0.89665 0.82363
 H1312 H 0.65540 0.92811 0.79253
 H1313 H 0.60036 0.90057 0.74211
 H1314 H 0.61977 0.86318 0.84924
 H1315 H 0.59048 0.83176 0.86521
 H1316 H 0.55404 0.83115 0.79408
 C1317 C 0.71519 0.53876 0.11767
 C1318 C 0.69895 0.52303 0.10678
 C1319 C 0.69677 0.52117 0.08130
 C1320 C 0.71174 0.53638 0.06640
 C1321 C 0.72845 0.55351 0.07701
 C1322 C 0.73007 0.55420 0.10333
 O1323 O 0.71428 0.53793 0.14222
 C1324 C 0.69701 0.52128 0.14692
 C1325 C 0.68697 0.51167 0.12587
 C1326 C 0.66808 0.49451 0.12654
 C1327 C 0.65930 0.48682 0.14987
 C1328 C 0.66964 0.49611 0.17200
 C1329 C 0.68880 0.51370 0.17031
 H1330 H 0.68402 0.50839 0.07313
 H1331 H 0.71046 0.53412 0.04661
 H1332 H 0.74148 0.56725 0.11286
 H1333 H 0.66019 0.48748 0.10971
 H1334 H 0.64420 0.47389 0.15059
 H1335 H 0.69730 0.52112 0.18665
 C1336 C 0.21369 1.08726 0.61625
 C1337 C 0.20733 1.06527 0.60595
 C1338 C 0.21308 1.05938 0.58162
 C1339 C 0.22596 1.07687 0.56732
 C1340 C 0.23260 1.09989 0.57738
 C1341 C 0.22618 1.10504 0.60229
 O1342 O 0.20694 1.08902 0.63984
 C1343 C 0.19606 1.06767 0.64452
 C1344 C 0.19572 1.05253 0.62437
 C1345 C 0.18515 1.02936 0.62515
 C1346 C 0.17454 1.02144 0.64763
 C1347 C 0.17494 1.03654 0.66893
 C1348 C 0.18587 1.06009 0.66714
 H1349 H 0.20812 1.04183 0.57400
 H1350 H 0.23115 1.07219 0.54857
 H1351 H 0.23063 1.12241 0.61062
 H1352 H 0.18494 1.01783 0.60898
 H1353 H 0.16578 1.00364 0.64828
 H1354 H 0.18681 1.07206 0.68294
 C1355 C 0.22090 0.90940 0.90371
 C1356 C 0.22858 0.89802 0.88245
 C1357 C 0.24463 0.87852 0.88255
 C1358 C 0.25331 0.87050 0.90551
 C1359 C 0.24614 0.88218 0.92783
 C1360 C 0.22945 0.90183 0.92681
 O1361 O 0.20546 0.92753 0.89942
 C1362 C 0.20343 0.92757 0.87493
 C1363 C 0.21731 0.90992 0.86370
 C1364 C 0.21823 0.90686 0.83820
 C1365 C 0.20419 0.92261 0.82363
 C1366 C 0.18952 0.94088 0.83470
 C1367 C 0.18913 0.94332 0.86079
 H1368 H 0.25021 0.86973 0.86557
 H1369 H 0.26553 0.85505 0.90588
 H1370 H 0.22366 0.91124 0.94337
 H1371 H 0.22934 0.89284 0.82983
 H1372 H 0.20441 0.92032 0.80374
 H1373 H 0.17823 0.95716 0.86973
 C1374 C 0.75091 0.41507 0.40935
 C1375 C 0.74381 0.43781 0.41720
 C1376 C 0.74889 0.44646 0.44077
 C1377 C 0.76157 0.43093 0.45691
 C1378 C 0.76907 0.40749 0.44910
 C1379 C 0.76397 0.39961 0.42489
 O1380 O 0.74257 0.40948 0.38714
 C1381 C 0.72993 0.42908 0.38079
 C1382 C 0.73024 0.44705 0.39842
 C1383 C 0.71717 0.46862 0.39596
 C1384 C 0.70292 0.47158 0.37465
 C1385 C 0.70176 0.45294 0.35661
 C1386 C 0.71583 0.43158 0.35962
 H1387 H 0.74268 0.46419 0.44675
 H1388 H 0.76527 0.43693 0.47556
 H1389 H 0.76898 0.38152 0.41880
 H1390 H 0.71746 0.48239 0.41020
 H1391 H 0.69200 0.48787 0.37272
 H1392 H 0.71521 0.41700 0.34623
 C1393 C 0.79192 0.39682 0.62172
 C1394 C 0.78909 0.38180 0.64210
 C1395 C 0.77698 0.35935 0.64111
 C1396 C 0.76751 0.35211 0.61816
 C1397 C 0.77023 0.36735 0.59684
 C1398 C 0.78254 0.39012 0.59890
 O1399 O 0.80407 0.41732 0.62639
 C1400 C 0.80904 0.41525 0.65028
 C1401 C 0.80028 0.39391 0.66084
 C1402 C 0.80343 0.38824 0.68575
 C1403 C 0.81602 0.40531 0.70032
 C1404 C 0.82531 0.42749 0.68981
 C1405 C 0.82174 0.43231 0.66430
 H1406 H 0.77502 0.34776 0.65736
 H1407 H 0.75845 0.33450 0.61693
 H1408 H 0.78462 0.40245 0.58322
 H1409 H 0.79630 0.37139 0.69372
 H1410 H 0.81812 0.40137 0.71985
 H1411 H 0.82883 0.44878 0.65547
 C1412 C 0.25823 -0.10086 0.11419
 C1413 C 0.25796 -0.11815 0.13284
 C1414 C 0.24865 -0.14163 0.12968
 C1415 C 0.23922 -0.14750 0.10637
 C1416 C 0.23957 -0.13005 0.08677
 C1417 C 0.24927 -0.10640 0.09079
 O1418 O 0.26793 -0.07968 0.12097
 C1419 C 0.27406 -0.08373 0.14435
 C1420 C 0.26846 -0.10698 0.15250
 C1421 C 0.27409 -0.11527 0.17614
 C1422 C 0.28622 -0.09901 0.19193
 C1423 C 0.29222 -0.07480 0.18404
 C1424 C 0.28565 -0.06713 0.15986
 H1425 H 0.24867 -0.15496 0.14460
 H1426 H 0.23198 -0.16571 0.10342
 H1427 H 0.24965 -0.09271 0.07619
 H1428 H 0.26979 -0.13377 0.18204
 H1429 H 0.29152 -0.10564 0.21000
 H1430 H 0.28956 -0.04883 0.15310
 C1431 C 0.28547 0.08182 0.40114
 C1432 C 0.30757 0.07383 0.40985
 C1433 C 0.31720 0.08138 0.43223
 C1434 C 0.30339 0.09771 0.44637
 C1435 C 0.28011 0.10587 0.43825
 C1436 C 0.27116 0.09770 0.41513
 O1437 O 0.28020 0.07322 0.37888
 C1438 C 0.29940 0.05945 0.37348
 C1439 C 0.31654 0.05909 0.39194
 C1440 C 0.33814 0.04604 0.39018
 C1441 C 0.34253 0.03321 0.36828
 C1442 C 0.32564 0.03397 0.34841
 C1443 C 0.30350 0.04701 0.35137
 H1444 H 0.33490 0.07521 0.43842
 H1445 H 0.31111 0.10421 0.46348
 H1446 H 0.25351 0.10326 0.40826
 H1447 H 0.35126 0.04589 0.40506
 H1448 H 0.35927 0.02288 0.36675
 H1449 H 0.29031 0.04827 0.33660
 C1450 C 0.77343 0.56641 0.90495
 C1451 C 0.75568 0.55661 0.89002
 C1452 C 0.73083 0.55805 0.89549
 C1453 C 0.72396 0.57020 0.91718
 C1454 C 0.74186 0.58079 0.93283
 C1455 C 0.76701 0.57864 0.92661
 O1456 O 0.79598 0.56320 0.89622
 C1457 C 0.79236 0.55116 0.87532
 C1458 C 0.76802 0.54670 0.87069
 C1459 C 0.76006 0.53477 0.84962
 C1460 C 0.77790 0.52718 0.83255
 C1461 C 0.80322 0.53147 0.83683
 C1462 C 0.81043 0.54362 0.85870
 H1463 H 0.71721 0.55010 0.88350
 H1464 H 0.70467 0.57116 0.92187
 H1465 H 0.78112 0.58662 0.93801
 H1466 H 0.74077 0.53168 0.84628
 H1467 H 0.77190 0.51842 0.81576
 H1468 H 0.82952 0.54706 0.86274
 C1469 C 0.09715 0.72047 0.58899
 C1470 C 0.11655 0.72288 0.60484
 C1471 C 0.11464 0.73456 0.62750
 C1472 C 0.09192 0.74459 0.63389
 C1473 C 0.07173 0.74307 0.61756
 C1474 C 0.07438 0.73038 0.59494
 O1475 O 0.10307 0.70930 0.56806
 C1476 C 0.12674 0.70468 0.57074
 C1477 C 0.13588 0.71275 0.59288
 C1478 C 0.16044 0.71088 0.59905
 C1479 C 0.17626 0.70023 0.58169
 C1480 C 0.16729 0.69154 0.55881
 C1481 C 0.14210 0.69366 0.55335
 H1482 H 0.13018 0.73620 0.63967
 H1483 H 0.09017 0.75387 0.65143
 H1484 H 0.05953 0.72921 0.58187
 H1485 H 0.16724 0.71761 0.61648
 H1486 H 0.19547 0.69854 0.58612
 H1487 H 0.13485 0.68743 0.53590
 C1488 C 0.59824 0.22209 1.07796
 C1489 C 0.59077 0.22471 1.05385
 C1490 C 0.56730 0.23206 1.04770
 C1491 C 0.55088 0.23690 1.06718
 C1492 C 0.55803 0.23408 1.09228
 C1493 C 0.58219 0.22660 1.09759
 O1494 O 0.62117 0.21456 1.07986
 C1495 C 0.62832 0.21231 1.05644
 C1496 C 0.61040 0.21822 1.03977
 C1497 C 0.61374 0.21621 1.01430
 C1498 C 0.63638 0.20750 1.00571
 C1499 C 0.65511 0.20127 1.02258
 C1500 C 0.65103 0.20400 1.04831
 H1501 H 0.56183 0.23404 1.02859
 H1502 H 0.53268 0.24309 1.06266
 H1503 H 0.58824 0.22392 1.11643
 H1504 H 0.59930 0.22076 1.00153
 H1505 H 0.63930 0.20544 0.98598
 H1506 H 0.66481 0.19891 1.06162
 C1507 C 0.90083 0.24137 0.91417
 C1508 C 0.88195 0.24791 0.89891
 C1509 C 0.88551 0.26172 0.87746
 C1510 C 0.90949 0.26938 0.87164
 C1511 C 0.92933 0.26346 0.88740
 C1512 C 0.92481 0.24896 0.90886
 O1513 O 0.89350 0.22800 0.93355
 C1514 C 0.86947 0.22610 0.93045
 C1515 C 0.86145 0.23809 0.90962
 C1516 C 0.83692 0.23876 0.90303
 C1517 C 0.81996 0.22631 0.91837
 C1518 C 0.82781 0.21337 0.93971
 C1519 C 0.85296 0.21341 0.94583
 H1520 H 0.87040 0.26640 0.86558
 H1521 H 0.91255 0.27986 0.85479
 H1522 H 0.93938 0.24424 0.92141
 H1523 H 0.83105 0.24836 0.88657
 H1524 H 0.80084 0.22620 0.91327
 H1525 H 0.85947 0.20385 0.96208
 C1526 C 0.39240 0.72871 0.41100
 C1527 C 0.40173 0.72159 0.43346
 C1528 C 0.42654 0.72290 0.43879
 C1529 C 0.44246 0.73161 0.42009
 C1530 C 0.43343 0.73869 0.39655
 C1531 C 0.40791 0.73755 0.39214
 O1532 O 0.36841 0.72491 0.40938
 C1533 C 0.36251 0.71510 0.43126
 C1534 C 0.38224 0.71269 0.44665
 C1535 C 0.38046 0.70172 0.46990
 C1536 C 0.35744 0.69266 0.47755
 C1537 C 0.33666 0.69478 0.46205
 C1538 C 0.33937 0.70649 0.43860
 H1539 H 0.43346 0.71704 0.45656
 H1540 H 0.46188 0.73261 0.42386
 H1541 H 0.40050 0.74241 0.37427
 H1542 H 0.39636 0.69963 0.48150
 H1543 H 0.35611 0.68326 0.49522
 H1544 H 0.32405 0.70853 0.42623
 C1545 C 0.60385 0.75984 0.38867
 C1546 C 0.62506 0.75269 0.37700
 C1547 C 0.62514 0.73655 0.35728
 C1548 C 0.60247 0.72721 0.34947
 C1549 C 0.58029 0.73379 0.36164
 C1550 C 0.58121 0.75054 0.38149
 O1551 O 0.60765 0.77552 0.40684
 C1552 C 0.63181 0.77828 0.40672
 C1553 C 0.64339 0.76456 0.38896
 C1554 C 0.66874 0.76432 0.38606
 C1555 C 0.68266 0.77897 0.40198
 C1556 C 0.67104 0.79367 0.42003
 C1557 C 0.64523 0.79324 0.42241
 H1558 H 0.64204 0.73137 0.34818
 H1559 H 0.60228 0.71492 0.33390
 H1560 H 0.56488 0.75576 0.39157
 H1561 H 0.67748 0.75327 0.37207
 H1562 H 0.70242 0.77928 0.39996
 H1563 H 0.63594 0.80418 0.43616
 C1564 C 0.11456 0.28643 -0.08130
 C1565 C 0.12281 0.27290 -0.06155
 C1566 C 0.11221 0.25074 -0.05432
 C1567 C 0.09226 0.24216 -0.06801
 C1568 C 0.08322 0.25588 -0.08831
 C1569 C 0.09453 0.27839 -0.09499
 O1570 O 0.12744 0.30682 -0.08524
 C1571 C 0.14410 0.30619 -0.06751
 C1572 C 0.14197 0.28587 -0.05248
 C1573 C 0.15728 0.28169 -0.03257
 C1574 C 0.17561 0.29912 -0.02797
 C1575 C 0.17863 0.32015 -0.04344
 C1576 C 0.16242 0.32364 -0.06349
 H1577 H 0.11905 0.24042 -0.03872
 H1578 H 0.08360 0.22502 -0.06264
 H1579 H 0.08807 0.28913 -0.11048
 H1580 H 0.15506 0.26568 -0.02082
 H1581 H 0.18720 0.29631 -0.01209
 H1582 H 0.16414 0.33927 -0.07582
 C1583 C 0.38620 0.28885 0.07843
 C1584 C 0.39222 0.31192 0.08639
 C1585 C 0.41136 0.31644 0.10251
 C1586 C 0.42485 0.29636 0.11082
 C1587 C 0.41893 0.27232 0.10308
 C1588 C 0.39923 0.26856 0.08667
 O1589 O 0.36739 0.28861 0.06304
 C1590 C 0.36139 0.31202 0.06135
 C1591 C 0.37594 0.32700 0.07539
 C1592 C 0.37256 0.35208 0.07677
 C1593 C 0.35335 0.36216 0.06312
 C1594 C 0.33819 0.34715 0.04830
 C1595 C 0.34238 0.32170 0.04736
 H1596 H 0.41572 0.33475 0.10854
 H1597 H 0.43964 0.29948 0.12364
 H1598 H 0.39432 0.25044 0.08044
 H1599 H 0.38421 0.36347 0.08803
 H1600 H 0.35042 0.38167 0.06385
 H1601 H 0.33095 0.30980 0.03639
 C1602 C 0.88633 0.78033 0.56247
 C1603 C 0.88900 0.80505 0.56598
 C1604 C 0.90794 0.81513 0.57962
 C1605 C 0.92476 0.79906 0.59025
 C1606 C 0.92238 0.77341 0.58715
 C1607 C 0.90286 0.76399 0.57289
 O1608 O 0.86664 0.77453 0.54945
 C1609 C 0.85662 0.79607 0.54475
 C1610 C 0.86960 0.81532 0.55452
 C1611 C 0.86196 0.83941 0.55264
 C1612 C 0.84001 0.84384 0.54021
 C1613 C 0.82640 0.82434 0.52994
 C1614 C 0.83484 0.80012 0.53208
 H1615 H 0.90948 0.83464 0.58234
 H1616 H 0.93919 0.80660 0.60155
 H1617 H 0.90046 0.74454 0.57025
 H1618 H 0.87237 0.85420 0.56070
 H1619 H 0.83348 0.86241 0.53865
 H1620 H 0.82453 0.78497 0.52455
   
