data_POSCAR
  _audit_creation_date              2014-09-24
  _audit_creation_method            'ToBaCCo'
  _symmetry_space_group_name_H-M    'P1'
  _symmetry_Int_Tables_number       1
  _symmetry_cell_setting            triclinic
  loop_
  _symmetry_equiv_pos_as_xyz
 x,y,z
_cell_length_a 85.6573
_cell_length_b 82.5887
_cell_length_c 84.6641
_cell_angle_alpha 89.955400
_cell_angle_beta 89.403500
_cell_angle_gamma 89.899500
loop_
  _atom_site_label
  _atom_site_type_symbol
  _atom_site_fract_x
  _atom_site_fract_y
  _atom_site_fract_z
N1 N 0.37940 0.30996 0.33320
 N2 N 0.38353 0.32297 0.32529
 C3 C 0.39592 0.31948 0.31605
 C4 C 0.39985 0.30334 0.31826
 C5 C 0.38907 0.29771 0.32929
 H6 H 0.40124 0.32798 0.30793
 H7 H 0.38819 0.28559 0.33403
 Cu8 Cu 0.37172 0.34289 0.32676
 Cu9 Cu 0.36169 0.30996 0.34775
 Cu10 Cu 0.33979 0.34534 0.34979
 N11 N 0.35590 0.35925 0.32325
 N12 N 0.34334 0.36020 0.33223
 C13 C 0.33435 0.37246 0.32712
 C14 C 0.34162 0.37952 0.31410
 C15 C 0.35531 0.37077 0.31204
 H16 H 0.32320 0.37572 0.33233
 H17 H 0.36421 0.37254 0.30306
 N18 N 0.33528 0.32613 0.36285
 N19 N 0.34345 0.31261 0.36185
 C20 C 0.33763 0.30183 0.37224
 C21 C 0.32515 0.30884 0.38020
 C22 C 0.32399 0.32428 0.37389
 H23 H 0.34242 0.28989 0.37415
 H24 H 0.31559 0.33353 0.37706
 H25 H 0.34919 0.32763 0.33583
 H26 H 0.36152 0.33425 0.35264
 N27 N 0.36342 0.82004 -0.15530
 N28 N 0.36583 0.83076 -0.16663
 C29 C 0.37745 0.82532 -0.17613
 C30 C 0.38263 0.81040 -0.17049
 C31 C 0.37331 0.80755 -0.15728
 H32 H 0.38189 0.83190 -0.18625
 H33 H 0.37390 0.79737 -0.14932
 Cu34 Cu 0.35400 0.85144 -0.16779
 Cu35 Cu 0.34837 0.82323 -0.13786
 Cu36 Cu 0.33281 0.86023 -0.13511
 N37 N 0.34095 0.87099 -0.16629
 N38 N 0.33309 0.87437 -0.15330
 C39 C 0.32491 0.88805 -0.15533
 C40 C 0.32759 0.89381 -0.17053
 C41 C 0.33796 0.88258 -0.17714
 H42 H 0.31714 0.89295 -0.14642
 H43 H 0.34279 0.88260 -0.18898
 N44 N 0.32692 0.84326 -0.12048
 N45 N 0.33302 0.82870 -0.12157
 C46 C 0.32686 0.81928 -0.11013
 C47 C 0.31622 0.82843 -0.10146
 C48 C 0.31658 0.84361 -0.10842
 H49 H 0.32970 0.80665 -0.10845
 H50 H 0.30987 0.85415 -0.10498
 H51 H 0.33822 0.83900 -0.15407
 H52 H 0.35630 0.84636 -0.14412
 N53 N 0.87640 0.32787 -0.17446
 N54 N 0.87842 0.34151 -0.18222
 C55 C 0.89053 0.33999 -0.19229
 C56 C 0.89656 0.32451 -0.19095
 C57 C 0.88731 0.31716 -0.17939
 H58 H 0.89433 0.34942 -0.20031
 H59 H 0.88805 0.30478 -0.17532
 Cu60 Cu 0.86430 0.35966 -0.18012
 Cu61 Cu 0.85897 0.32486 -0.15945
 Cu62 Cu 0.83034 0.35435 -0.16129
 N63 N 0.84693 0.37420 -0.18359
 N64 N 0.83356 0.37183 -0.17627
 C65 C 0.82319 0.38287 -0.18118
 C66 C 0.83036 0.39282 -0.19233
 C67 C 0.84555 0.38691 -0.19347
 H68 H 0.81126 0.38334 -0.17696
 H69 H 0.85485 0.39115 -0.20113
 N70 N 0.82911 0.33590 -0.14679
 N71 N 0.83998 0.32462 -0.14571
 C72 C 0.83543 0.31376 -0.13461
 C73 C 0.82094 0.31848 -0.12864
 C74 C 0.81745 0.33258 -0.13661
 H75 H 0.84198 0.30309 -0.13135
 H76 H 0.80717 0.34001 -0.13498
 H77 H 0.84548 0.33881 -0.17367
 H78 H 0.85359 0.34868 -0.15562
 N79 N 0.86733 0.81875 0.33226
 N80 N 0.86512 0.82945 0.32100
 C81 C 0.87545 0.82684 0.30925
 C82 C 0.88477 0.81378 0.31325
 C83 C 0.87930 0.80899 0.32804
 H84 H 0.87616 0.83404 0.29862
 H85 H 0.88356 0.79910 0.33518
 Cu86 Cu 0.84895 0.84582 0.32265
 Cu87 Cu 0.85462 0.81888 0.35162
 Cu88 Cu 0.82013 0.84108 0.34869
 N89 N 0.83320 0.86251 0.32559
 N90 N 0.82160 0.86039 0.33561
 C91 C 0.81148 0.87277 0.33435
 C92 C 0.81706 0.88342 0.32289
 C93 C 0.83099 0.87643 0.31769
 H94 H 0.80074 0.87364 0.34112
 H95 H 0.83870 0.88071 0.30843
 N96 N 0.82426 0.82563 0.36578
 N97 N 0.83733 0.81727 0.36722
 C98 C 0.83667 0.80878 0.38085
 C99 C 0.82264 0.81231 0.38839
 C100 C 0.81510 0.82293 0.37844
 H101 H 0.84593 0.80116 0.38527
 H102 H 0.80390 0.82866 0.38048
 H103 H 0.83614 0.82476 0.33834
 H104 H 0.84381 0.84165 0.35062
 N105 N 0.64413 0.67663 0.33333
 N106 N 0.64288 0.66397 0.32405
 C107 C 0.62818 0.66344 0.31843
 C108 C 0.61982 0.67632 0.32488
 C109 C 0.63038 0.68438 0.33423
 H110 H 0.62390 0.65434 0.31038
 H111 H 0.62834 0.69532 0.34096
 Cu112 Cu 0.66080 0.64960 0.32029
 Cu113 Cu 0.66349 0.68234 0.34335
 Cu114 Cu 0.69041 0.65345 0.34791
 N115 N 0.67813 0.63379 0.32227
 N116 N 0.68926 0.63527 0.33285
 C117 C 0.69961 0.62314 0.33092
 C118 C 0.69485 0.61346 0.31855
 C119 C 0.68110 0.62056 0.31339
 H120 H 0.70999 0.62158 0.33791
 H121 H 0.67403 0.61667 0.30361
 N122 N 0.68952 0.67252 0.36150
 N123 N 0.67934 0.68417 0.35923
 C124 C 0.68133 0.69579 0.37014
 C125 C 0.69340 0.69114 0.37988
 C126 C 0.69835 0.67630 0.37402
 H127 H 0.67409 0.70647 0.37128
 H128 H 0.70765 0.66879 0.37852
 H129 H 0.67966 0.66305 0.32837
 H130 H 0.66665 0.65316 0.34324
 N131 N 0.63931 0.19652 -0.18747
 N132 N 0.64554 0.19205 -0.20103
 C133 C 0.63576 0.19562 -0.21281
 C134 C 0.62244 0.20250 -0.20637
 C135 C 0.62508 0.20293 -0.19020
 H136 H 0.63764 0.19215 -0.22499
 H137 H 0.61709 0.20709 -0.18109
 Cu138 Cu 0.66395 0.17866 -0.20208
 Cu139 Cu 0.65010 0.19248 -0.16752
 Cu140 Cu 0.68389 0.16934 -0.16959
 N141 N 0.67654 0.15931 -0.20095
 N142 N 0.68400 0.15508 -0.18812
 C143 C 0.69058 0.14041 -0.19048
 C144 C 0.68682 0.13511 -0.20564
 C145 C 0.67797 0.14763 -0.21184
 H146 H 0.69724 0.13403 -0.18166
 H147 H 0.67239 0.14818 -0.22320
 N148 N 0.67795 0.18198 -0.15065
 N149 N 0.66504 0.19072 -0.14983
 C150 C 0.66500 0.19918 -0.13624
 C151 C 0.67855 0.19566 -0.12805
 C152 C 0.68642 0.18460 -0.13757
 H153 H 0.65604 0.20780 -0.13294
 H154 H 0.69787 0.17951 -0.13560
 H155 H 0.67224 0.19045 -0.17736
 H156 H 0.66105 0.17116 -0.17456
 N157 N 0.13305 0.68698 -0.15624
 N158 N 0.13432 0.67538 -0.16680
 C159 C 0.12359 0.67793 -0.17817
 C160 C 0.11541 0.69200 -0.17448
 C161 C 0.12172 0.69726 -0.16048
 H162 H 0.12220 0.67051 -0.18858
 H163 H 0.11838 0.70796 -0.15391
 Cu164 Cu 0.15066 0.65885 -0.16488
 Cu165 Cu 0.14644 0.68881 -0.13809
 Cu166 Cu 0.17648 0.66132 -0.13488
 N167 N 0.16845 0.64403 -0.16315
 N168 N 0.17837 0.64519 -0.15146
 C169 C 0.18963 0.63398 -0.15326
 C170 C 0.18675 0.62522 -0.16683
 C171 C 0.17314 0.63193 -0.17281
 H172 H 0.19922 0.63236 -0.14523
 H173 H 0.16730 0.62851 -0.18355
 N174 N 0.17266 0.67852 -0.11923
 N175 N 0.16107 0.68893 -0.12046
 C176 C 0.16181 0.69962 -0.10852
 C177 C 0.17455 0.69585 -0.09928
 C178 C 0.18113 0.68233 -0.10644
 H179 H 0.15382 0.70961 -0.10687
 H180 H 0.19160 0.67605 -0.10292
 H181 H 0.16555 0.67797 -0.14913
 H182 H 0.15278 0.66458 -0.13668
 N183 N 0.13330 0.17800 0.33925
 N184 N 0.13457 0.16710 0.32801
 C185 C 0.12294 0.16933 0.31762
 C186 C 0.11388 0.18233 0.32262
 C187 C 0.12087 0.18749 0.33642
 H188 H 0.12135 0.16216 0.30709
 H189 H 0.11718 0.19739 0.34392
 Cu190 Cu 0.15139 0.15118 0.32787
 Cu191 Cu 0.14784 0.17924 0.35670
 Cu192 Cu 0.17827 0.15165 0.35653
 N193 N 0.16913 0.13633 0.32766
 N194 N 0.17953 0.13664 0.33895
 C195 C 0.19061 0.12548 0.33596
 C196 C 0.18706 0.11767 0.32199
 C197 C 0.17329 0.12488 0.31706
 H198 H 0.20050 0.12322 0.34346
 H199 H 0.16692 0.12220 0.30643
 N200 N 0.17516 0.16774 0.37334
 N201 N 0.16375 0.17849 0.37335
 C202 C 0.16524 0.18817 0.38606
 C203 C 0.17818 0.18320 0.39448
 C204 C 0.18413 0.17022 0.38603
 H205 H 0.15752 0.19812 0.38897
 H206 H 0.19455 0.16339 0.38868
 H207 H 0.16645 0.16957 0.34425
 H208 H 0.15429 0.15523 0.35623
 N209 N 0.62628 0.32279 0.67101
 N210 N 0.62495 0.33462 0.68130
 C211 C 0.61453 0.33058 0.69254
 C212 C 0.60875 0.31542 0.68912
 C213 C 0.61636 0.31082 0.67525
 H214 H 0.61117 0.33829 0.70233
 H215 H 0.61493 0.29959 0.66886
 Cu216 Cu 0.63651 0.35447 0.67913
 Cu217 Cu 0.64099 0.32439 0.65314
 Cu218 Cu 0.66911 0.35459 0.65720
 N219 N 0.65221 0.37077 0.68206
 N220 N 0.66511 0.37083 0.67354
 C221 C 0.67426 0.38300 0.67850
 C222 C 0.66670 0.39081 0.69092
 C223 C 0.65272 0.38269 0.69282
 H224 H 0.68576 0.38563 0.67378
 H225 H 0.64367 0.38509 0.70151
 N226 N 0.67072 0.33711 0.64135
 N227 N 0.65998 0.32580 0.63958
 C228 C 0.66437 0.31599 0.62760
 C229 C 0.67857 0.32136 0.62154
 C230 C 0.68218 0.33477 0.63059
 H231 H 0.65780 0.30560 0.62370
 H232 H 0.69230 0.34245 0.62925
 H233 H 0.65583 0.33639 0.66767
 H234 H 0.64633 0.34896 0.65227
 N235 N 0.61791 0.83476 1.17161
 N236 N 0.62152 0.83951 1.18592
 C237 C 0.61130 0.83294 1.19631
 C238 C 0.60067 0.82357 1.18799
 C239 C 0.60523 0.82525 1.17233
 H240 H 0.61189 0.83447 1.20896
 H241 H 0.60023 0.81947 1.16212
 Cu242 Cu 0.63972 0.85331 1.18922
 Cu243 Cu 0.63093 0.83951 1.15327
 Cu244 Cu 0.66874 0.85007 1.16251
 N245 N 0.65803 0.86736 1.19001
 N246 N 0.66947 0.86579 1.17965
 C247 C 0.68071 0.87660 1.18284
 C248 C 0.67609 0.88566 1.19588
 C249 C 0.66158 0.87937 1.20011
 H250 H 0.69137 0.87778 1.17600
 H251 H 0.65407 0.88326 1.20972
 N252 N 0.66307 0.84035 1.14217
 N253 N 0.64850 0.83718 1.13836
 C254 C 0.64832 0.83004 1.12410
 C255 C 0.66356 0.82857 1.11862
 C256 C 0.67258 0.83539 1.13039
 H257 H 0.63789 0.82551 1.11857
 H258 H 0.68518 0.83601 1.13074
 H259 H 0.64913 0.83586 1.16795
 H260 H 0.64645 0.85724 1.16132
 N261 N 0.12502 0.32582 1.16998
 N262 N 0.12630 0.33498 1.18257
 C263 C 0.11493 0.33102 1.19298
 C264 C 0.10607 0.31867 1.18658
 C265 C 0.11285 0.31572 1.17194
 H266 H 0.11346 0.33646 1.20450
 H267 H 0.10929 0.30684 1.16333
 Cu268 Cu 0.14303 0.35077 1.18429
 Cu269 Cu 0.13955 0.32714 1.15221
 Cu270 Cu 0.16925 0.35542 1.15485
 N271 N 0.15955 0.36684 1.18551
 N272 N 0.16976 0.36853 1.17393
 C273 C 0.18005 0.38010 1.17777
 C274 C 0.17615 0.38606 1.19259
 C275 C 0.16302 0.37735 1.19712
 H276 H 0.18964 0.38391 1.17026
 H277 H 0.15663 0.37839 1.20814
 N278 N 0.16675 0.34103 1.13652
 N279 N 0.15541 0.33031 1.13549
 C280 C 0.15724 0.32190 1.12199
 C281 C 0.17041 0.32752 1.11410
 C282 C 0.17609 0.33970 1.12370
 H283 H 0.14971 0.31213 1.11840
 H284 H 0.18654 0.34675 1.12178
 H285 H 0.15835 0.33556 1.16491
 H286 H 0.14551 0.35110 1.15561
 N287 N 0.12342 0.82705 0.67656
 N288 N 0.12689 0.83533 0.68928
 C289 C 0.11541 0.83360 0.70007
 C290 C 0.10408 0.82359 0.69387
 C291 C 0.10959 0.81962 0.67889
 H292 H 0.11551 0.83896 0.71172
 H293 H 0.10398 0.81193 0.67033
 Cu294 Cu 0.14622 0.84724 0.69098
 Cu295 Cu 0.13735 0.82649 0.65818
 Cu296 Cu 0.16909 0.85255 0.65896
 N297 N 0.16205 0.86391 0.69026
 N298 N 0.17102 0.86606 0.67777
 C299 C 0.18095 0.87832 0.68061
 C300 C 0.17801 0.88422 0.69573
 C301 C 0.16588 0.87471 0.70143
 H302 H 0.18966 0.88254 0.67226
 H303 H 0.16016 0.87551 0.71284
 N304 N 0.16496 0.83778 0.64116
 N305 N 0.15290 0.82785 0.64087
 C306 C 0.15370 0.81890 0.62760
 C307 C 0.16691 0.82335 0.61907
 C308 C 0.17372 0.83540 0.62807
 H309 H 0.14539 0.80962 0.62452
 H310 H 0.18456 0.84160 0.62557
 H311 H 0.15813 0.83263 0.66895
 H312 H 0.14532 0.84970 0.66246
 N313 N 0.37014 0.67879 0.65841
 N314 N 0.36780 0.67001 0.67116
 C315 C 0.37867 0.67397 0.68193
 C316 C 0.38814 0.68606 0.67556
 C317 C 0.38234 0.68867 0.66059
 H318 H 0.37932 0.66879 0.69364
 H319 H 0.38649 0.69730 0.65191
 Cu320 Cu 0.35053 0.65442 0.67229
 Cu321 Cu 0.35644 0.67773 0.64047
 Cu322 Cu 0.32090 0.66170 0.64538
 N323 N 0.33004 0.64324 0.67322
 N324 N 0.31882 0.64612 0.66301
 C325 C 0.30663 0.63638 0.66630
 C326 C 0.31023 0.62681 0.67922
 C327 C 0.32522 0.63157 0.68330
 H328 H 0.29606 0.63602 0.65947
 H329 H 0.33221 0.62680 0.69278
 N330 N 0.32549 0.67742 0.62870
 N331 N 0.33958 0.68327 0.62651
 C332 C 0.33939 0.69416 0.61472
 C333 C 0.32428 0.69532 0.60913
 C334 C 0.31579 0.68439 0.61827
 H335 H 0.34946 0.70106 0.61092
 H336 H 0.30339 0.68205 0.61779
 H337 H 0.33732 0.67102 0.66072
 H338 H 0.34315 0.65289 0.64896
 N339 N 0.36789 0.17727 1.15350
 N340 N 0.36989 0.16334 1.16070
 C341 C 0.38300 0.16391 1.16922
 C342 C 0.38972 0.17906 1.16736
 C343 C 0.37977 0.18721 1.15720
 H344 H 0.38712 0.15401 1.17642
 H345 H 0.38085 0.19956 1.15310
 Cu346 Cu 0.35484 0.14596 1.15922
 Cu347 Cu 0.34968 0.18131 1.14032
 Cu348 Cu 0.32010 0.15271 1.14251
 N349 N 0.33718 0.13188 1.16326
 N350 N 0.32355 0.13448 1.15677
 C351 C 0.31336 0.12325 1.16207
 C352 C 0.32103 0.11313 1.17256
 C353 C 0.33617 0.11902 1.17296
 H354 H 0.30118 0.12282 1.15891
 H355 H 0.34573 0.11446 1.17991
 N356 N 0.31906 0.17202 1.12881
 N357 N 0.33029 0.18291 1.12797
 C358 C 0.32629 0.19434 1.11739
 C359 C 0.31182 0.19049 1.11122
 C360 C 0.30764 0.17623 1.11881
 H361 H 0.33354 0.20457 1.11429
 H362 H 0.29714 0.16927 1.11707
 H363 H 0.33572 0.16704 1.15465
 H364 H 0.34301 0.15767 1.13583
 N365 N 0.86900 0.67114 1.16037
 N366 N 0.86848 0.66108 1.17237
 C367 C 0.87986 0.66506 1.18259
 C368 C 0.88779 0.67843 1.17663
 C369 C 0.88058 0.68181 1.16247
 H370 H 0.88188 0.65907 1.19374
 H371 H 0.88334 0.69153 1.15437
 Cu372 Cu 0.85244 0.64434 1.17336
 Cu373 Cu 0.85384 0.67093 1.14356
 Cu374 Cu 0.82405 0.64269 1.14590
 N375 N 0.83585 0.62824 1.17436
 N376 N 0.82480 0.62762 1.16372
 C377 C 0.81519 0.61515 1.16714
 C378 C 0.82051 0.60748 1.18065
 C379 C 0.83363 0.61623 1.18488
 H380 H 0.80525 0.61177 1.16011
 H381 H 0.84109 0.61403 1.19486
 N382 N 0.82566 0.65898 1.12878
 N383 N 0.83749 0.66914 1.12767
 C384 C 0.83558 0.67866 1.11498
 C385 C 0.82184 0.67450 1.10770
 C386 C 0.81577 0.66196 1.11679
 H387 H 0.84324 0.68851 1.11169
 H388 H 0.80491 0.65563 1.11488
 H389 H 0.83564 0.66114 1.15702
 H390 H 0.84761 0.64657 1.14512
 N391 N 0.87061 0.17230 0.66181
 N392 N 0.87174 0.15821 0.66892
 C393 C 0.88365 0.15847 0.67908
 C394 C 0.89054 0.17355 0.67841
 C395 C 0.88205 0.18205 0.66718
 H396 H 0.88679 0.14848 0.68669
 H397 H 0.88363 0.19455 0.66373
 Cu398 Cu 0.85671 0.14127 0.66579
 Cu399 Cu 0.85348 0.17680 0.64711
 Cu400 Cu 0.82309 0.14886 0.64740
 N401 N 0.83872 0.12774 0.66911
 N402 N 0.82537 0.13070 0.66218
 C403 C 0.81464 0.12010 0.66768
 C404 C 0.82172 0.11016 0.67878
 C405 C 0.83702 0.11537 0.67926
 H406 H 0.80249 0.12008 0.66436
 H407 H 0.84621 0.11083 0.68672
 N408 N 0.82340 0.16813 0.63342
 N409 N 0.83494 0.17872 0.63331
 C410 C 0.83196 0.19015 0.62238
 C411 C 0.81784 0.18667 0.61519
 C412 C 0.81280 0.17257 0.62257
 H413 H 0.83966 0.20015 0.61973
 H414 H 0.80223 0.16594 0.62017
 H415 H 0.83834 0.16278 0.66031
 H416 H 0.84640 0.15337 0.64187
 N417 N 0.32009 0.37026 0.67781
 N418 N 0.33110 0.36603 0.68771
 C419 C 0.33128 0.37671 0.69978
 C420 C 0.31986 0.38829 0.69717
 C421 C 0.31301 0.38374 0.68313
 H422 H 0.33921 0.37621 0.70962
 H423 H 0.30335 0.38962 0.67733
 Cu424 Cu 0.34410 0.34709 0.68347
 Cu425 Cu 0.31536 0.35794 0.65890
 Cu426 Cu 0.33760 0.32363 0.65170
 N427 N 0.35647 0.32771 0.67926
 N428 N 0.35373 0.31850 0.66695
 C429 C 0.36390 0.30604 0.66680
 C430 C 0.37364 0.30757 0.67964
 C431 C 0.36856 0.32147 0.68730
 H432 H 0.36440 0.29678 0.65779
 H433 H 0.37328 0.32661 0.69797
 N434 N 0.32076 0.33086 0.63766
 N435 N 0.31228 0.34393 0.64041
 C436 C 0.30168 0.34553 0.62887
 C437 C 0.30358 0.33290 0.61829
 C438 C 0.31580 0.32385 0.62427
 H439 H 0.29322 0.35522 0.62819
 H440 H 0.32057 0.31279 0.61938
 H441 H 0.32329 0.33595 0.66738
 H442 H 0.33744 0.34829 0.65555
 N443 N 0.33564 0.86622 0.17699
 N444 N 0.34713 0.86685 0.18714
 C445 C 0.34431 0.87895 0.19746
 C446 C 0.33029 0.88633 0.19356
 C447 C 0.32515 0.87784 0.18050
 H448 H 0.35200 0.88228 0.20695
 H449 H 0.31457 0.87989 0.17395
 Cu450 Cu 0.36478 0.85200 0.18554
 Cu451 Cu 0.33511 0.85067 0.15969
 Cu452 Cu 0.36664 0.82462 0.15634
 N453 N 0.38202 0.83660 0.18399
 N454 N 0.38284 0.82646 0.17206
 C455 C 0.39563 0.81719 0.17348
 C456 C 0.40329 0.82159 0.18709
 C457 C 0.39429 0.83395 0.19355
 H458 H 0.39876 0.80743 0.16555
 H459 H 0.39646 0.84040 0.20442
 N460 N 0.34908 0.82442 0.14164
 N461 N 0.33688 0.83409 0.14298
 C462 C 0.32649 0.83019 0.13174
 C463 C 0.33245 0.81737 0.12298
 C464 C 0.34682 0.81414 0.12959
 H465 H 0.31522 0.83589 0.13036
 H466 H 0.35495 0.80478 0.12606
 H467 H 0.34863 0.83337 0.17055
 H468 H 0.35890 0.84839 0.15764
 N469 N 0.82578 0.35479 0.16386
 N470 N 0.83510 0.35280 0.17595
 C471 C 0.83320 0.36513 0.18612
 C472 C 0.82203 0.37556 0.18025
 C473 C 0.81749 0.36855 0.16607
 H474 H 0.83943 0.36626 0.19709
 H475 H 0.80895 0.37318 0.15790
 Cu476 Cu 0.84898 0.33445 0.17773
 Cu477 Cu 0.82559 0.33923 0.14627
 Cu478 Cu 0.85513 0.31034 0.14667
 N479 N 0.86712 0.32053 0.17652
 N480 N 0.86963 0.31112 0.16427
 C481 C 0.88275 0.30250 0.16663
 C482 C 0.88883 0.30678 0.18118
 C483 C 0.87855 0.31831 0.18708
 H484 H 0.88742 0.29369 0.15841
 H485 H 0.87909 0.32443 0.19833
 N486 N 0.83929 0.31143 0.13000
 N487 N 0.82789 0.32221 0.12975
 C488 C 0.81862 0.31897 0.11732
 C489 C 0.82444 0.30542 0.10949
 C490 C 0.83758 0.30111 0.11788
 H491 H 0.80813 0.32563 0.11449
 H492 H 0.84526 0.29101 0.11548
 H493 H 0.83499 0.31949 0.15755
 H494 H 0.84894 0.33465 0.14910
 N495 N 0.82530 0.86777 0.67049
 N496 N 0.83505 0.86497 0.68207
 C497 C 0.83262 0.87609 0.69349
 C498 C 0.82066 0.88634 0.68881
 C499 C 0.81638 0.88066 0.67412
 H500 H 0.83886 0.87648 0.70451
 H501 H 0.80739 0.88546 0.66657
 Cu502 Cu 0.84955 0.84673 0.68112
 Cu503 Cu 0.82422 0.85424 0.65180
 Cu504 Cu 0.85032 0.82235 0.64932
 N505 N 0.86448 0.82892 0.67929
 N506 N 0.86464 0.81955 0.66676
 C507 C 0.87556 0.80801 0.66848
 C508 C 0.88272 0.81013 0.68291
 C509 C 0.87540 0.82361 0.68945
 H510 H 0.87804 0.79871 0.65984
 H511 H 0.87762 0.82892 0.70087
 N512 N 0.83491 0.82710 0.63288
 N513 N 0.82491 0.83921 0.63383
 C514 C 0.81529 0.83859 0.62136
 C515 C 0.81939 0.82540 0.61208
 C516 C 0.83195 0.81847 0.61979
 H517 H 0.80567 0.84682 0.61951
 H518 H 0.83817 0.80760 0.61646
 H519 H 0.83260 0.83337 0.66219
 H520 H 0.84725 0.84697 0.65248
 N521 N 0.66084 0.62593 0.65692
 N522 N 0.65616 0.63019 0.67114
 C523 C 0.66234 0.61992 0.68175
 C524 C 0.67139 0.60858 0.67367
 C525 C 0.66993 0.61271 0.65790
 H526 H 0.66092 0.62112 0.69439
 H527 H 0.67569 0.60716 0.64786
 Cu528 Cu 0.64328 0.64942 0.67423
 Cu529 Cu 0.65701 0.63940 0.63858
 Cu530 Cu 0.64796 0.67915 0.64758
 N531 N 0.63003 0.66856 0.67461
 N532 N 0.63203 0.68034 0.66433
 C533 C 0.62146 0.69206 0.66729
 C534 C 0.61220 0.68735 0.68007
 C535 C 0.61807 0.67231 0.68437
 H536 H 0.62056 0.70308 0.66047
 H537 H 0.61389 0.66453 0.69377
 N538 N 0.65841 0.67268 0.62764
 N539 N 0.66064 0.65736 0.62385
 C540 C 0.66889 0.65653 0.61030
 C541 C 0.67234 0.67209 0.60533
 C542 C 0.66529 0.68207 0.61655
 H543 H 0.67311 0.64533 0.60522
 H544 H 0.66601 0.69512 0.61722
 H545 H 0.66087 0.65846 0.65331
 H546 H 0.64039 0.65642 0.64630
 N547 N 0.68624 0.13209 0.16061
 N548 N 0.67652 0.13531 0.17228
 C549 C 0.67887 0.12481 0.18415
 C550 C 0.69080 0.11435 0.17976
 C551 C 0.69521 0.11940 0.16470
 H552 H 0.67213 0.12469 0.19500
 H553 H 0.70427 0.11431 0.15724
 Cu554 Cu 0.66111 0.15223 0.17061
 Cu555 Cu 0.68650 0.14484 0.14119
 Cu556 Cu 0.65780 0.17449 0.13777
 N557 N 0.64192 0.16325 0.16559
 N558 N 0.64050 0.17218 0.15284
 C559 C 0.62616 0.17894 0.15286
 C560 C 0.61816 0.17371 0.16628
 C561 C 0.62859 0.16378 0.17403
 H562 H 0.62194 0.18709 0.14385
 H563 H 0.62684 0.15778 0.18526
 N564 N 0.67408 0.17072 0.12144
 N565 N 0.68477 0.15926 0.12269
 C566 C 0.69436 0.15994 0.11004
 C567 C 0.68957 0.17242 0.10027
 C568 C 0.67662 0.17898 0.10791
 H569 H 0.70447 0.15228 0.10838
 H570 H 0.66964 0.18912 0.10404
 H571 H 0.67696 0.16576 0.15018
 H572 H 0.66292 0.15081 0.14204
 N573 N 0.17510 0.61702 0.16663
 N574 N 0.16176 0.61429 0.17390
 C575 C 0.16313 0.60098 0.18296
 C576 C 0.17822 0.59502 0.18129
 C577 C 0.18543 0.60555 0.17076
 H578 H 0.15394 0.59635 0.19055
 H579 H 0.19749 0.60537 0.16691
 Cu580 Cu 0.14441 0.62921 0.17191
 Cu581 Cu 0.17844 0.63595 0.15339
 Cu582 Cu 0.14970 0.66551 0.15431
 N583 N 0.13003 0.64699 0.17531
 N584 N 0.13198 0.66115 0.16847
 C585 C 0.12077 0.67135 0.17372
 C586 C 0.11141 0.66314 0.18455
 C587 C 0.11766 0.64769 0.18517
 H588 H 0.11992 0.68397 0.17044
 H589 H 0.11375 0.63773 0.19249
 N590 N 0.16876 0.66720 0.14096
 N591 N 0.17965 0.65588 0.14083
 C592 C 0.19133 0.66044 0.13112
 C593 C 0.18776 0.67539 0.12479
 C594 C 0.17328 0.67931 0.13122
 H595 H 0.20166 0.65329 0.12874
 H596 H 0.16668 0.69027 0.12919
 H597 H 0.16355 0.65024 0.16714
 H598 H 0.15532 0.64206 0.14837
 N599 N 0.18020 0.12955 0.65572
 N600 N 0.17417 0.13175 0.66990
 C601 C 0.17986 0.12030 0.67968
 C602 C 0.19003 0.11045 0.67109
 C603 C 0.18975 0.11665 0.65590
 H604 H 0.17729 0.11963 0.69219
 H605 H 0.19644 0.11254 0.64577
 Cu606 Cu 0.16017 0.15005 0.67405
 Cu607 Cu 0.17698 0.14475 0.63849
 Cu608 Cu 0.16814 0.18299 0.65229
 N609 N 0.14821 0.17010 0.67669
 N610 N 0.15201 0.18311 0.66856
 C611 C 0.14231 0.19529 0.67245
 C612 C 0.13157 0.18964 0.68342
 C613 C 0.13566 0.17354 0.68586
 H614 H 0.14258 0.20714 0.66701
 H615 H 0.12988 0.16495 0.69359
 N616 N 0.17782 0.17902 0.63155
 N617 N 0.18043 0.16437 0.62591
 C618 C 0.18665 0.16562 0.61131
 C619 C 0.18792 0.18189 0.60755
 C620 C 0.18217 0.19001 0.62067
 H621 H 0.19018 0.15542 0.60410
 H622 H 0.18134 0.20297 0.62231
 H623 H 0.17974 0.16105 0.65585
 H624 H 0.15979 0.16081 0.64717
 N625 N 0.31388 0.63751 0.34076
 N626 N 0.32621 0.63649 0.33145
 C627 C 0.32397 0.62440 0.32100
 C628 C 0.30941 0.61756 0.32394
 C629 C 0.30344 0.62623 0.33660
 H630 H 0.33224 0.62091 0.31189
 H631 H 0.29237 0.62438 0.34256
 Cu632 Cu 0.34384 0.65116 0.33422
 Cu633 Cu 0.31195 0.65322 0.35767
 Cu634 Cu 0.34257 0.67986 0.36256
 N635 N 0.36083 0.66665 0.33683
 N636 N 0.36022 0.67764 0.34804
 C637 C 0.37326 0.68664 0.34746
 C638 C 0.38267 0.68109 0.33522
 C639 C 0.37436 0.66838 0.32867
 H640 H 0.37558 0.69668 0.35526
 H641 H 0.37794 0.66090 0.31881
 N642 N 0.32365 0.68015 0.37605
 N643 N 0.31202 0.66993 0.37415
 C644 C 0.30076 0.67320 0.38487
 C645 C 0.30544 0.68616 0.39402
 C646 C 0.32007 0.69023 0.38807
 H647 H 0.28992 0.66661 0.38589
 H648 H 0.32747 0.69996 0.39201
 H649 H 0.32640 0.67040 0.34730
 H650 H 0.33563 0.65604 0.36151
 N651 N 0.31528 0.13831 0.84318
 N652 N 0.32681 0.13736 0.83287
 C653 C 0.32479 0.12418 0.82379
 C654 C 0.31124 0.11636 0.82866
 C655 C 0.30556 0.12574 0.84103
 H656 H 0.33265 0.12059 0.81436
 H657 H 0.29502 0.12373 0.84788
 Cu658 Cu 0.34340 0.15344 0.83181
 Cu659 Cu 0.31364 0.15592 0.85834
 Cu660 Cu 0.34345 0.18222 0.86137
 N661 N 0.35914 0.17082 0.83297
 N662 N 0.35918 0.18164 0.84439
 C663 C 0.37097 0.19208 0.84188
 C664 C 0.37882 0.18770 0.82816
 C665 C 0.37096 0.17410 0.82285
 H666 H 0.37351 0.20225 0.84943
 H667 H 0.37344 0.16726 0.81224
 N668 N 0.32693 0.18101 0.87712
 N669 N 0.31513 0.17099 0.87591
 C670 C 0.30503 0.17372 0.88792
 C671 C 0.31082 0.18620 0.89714
 C672 C 0.32480 0.19043 0.88988
 H673 H 0.29409 0.16741 0.88953
 H674 H 0.33271 0.19992 0.89333
 H675 H 0.33154 0.17230 0.84241
 H676 H 0.34186 0.15775 0.85571
 N677 N 0.81110 0.63672 0.84933
 N678 N 0.82119 0.63447 0.83775
 C679 C 0.81665 0.62167 0.82912
 C680 C 0.80296 0.61559 0.83565
 C681 C 0.79979 0.62549 0.84846
 H682 H 0.82266 0.61735 0.81866
 H683 H 0.78999 0.62460 0.85656
 Cu684 Cu 0.83891 0.64887 0.83486
 Cu685 Cu 0.81326 0.65416 0.86448
 Cu686 Cu 0.84502 0.67987 0.85974
 N687 N 0.85672 0.66318 0.83223
 N688 N 0.85908 0.67531 0.84196
 C689 C 0.87193 0.68343 0.83724
 C690 C 0.87796 0.67601 0.82379
 C691 C 0.86796 0.66318 0.82102
 H692 H 0.87635 0.69413 0.84300
 H693 H 0.86877 0.65450 0.81151
 N694 N 0.82937 0.68229 0.87693
 N695 N 0.81737 0.67244 0.87863
 C696 C 0.80875 0.67716 0.89114
 C697 C 0.81555 0.69069 0.89776
 C698 C 0.82866 0.69359 0.88840
 H699 H 0.79819 0.67118 0.89501
 H700 H 0.83701 0.70327 0.88975
 H701 H 0.82541 0.66996 0.84977
 H702 H 0.83734 0.65646 0.86259
 N703 N 0.81976 0.13689 0.33838
 N704 N 0.83112 0.13587 0.32787
 C705 C 0.82825 0.12345 0.31804
 C706 C 0.81431 0.11621 0.32255
 C707 C 0.80927 0.12514 0.33555
 H708 H 0.83578 0.12000 0.30830
 H709 H 0.79875 0.12331 0.34246
 Cu710 Cu 0.84852 0.15095 0.32795
 Cu711 Cu 0.81942 0.15350 0.35486
 Cu712 Cu 0.85063 0.18024 0.35520
 N713 N 0.86601 0.16594 0.32832
 N714 N 0.86674 0.17733 0.33910
 C715 C 0.87965 0.18623 0.33661
 C716 C 0.88753 0.18016 0.32350
 C717 C 0.87848 0.16723 0.31857
 H718 H 0.88288 0.19650 0.34374
 H719 H 0.88063 0.15950 0.30850
 N720 N 0.83326 0.18132 0.37054
 N721 N 0.82136 0.17119 0.37051
 C722 C 0.81144 0.17530 0.38233
 C723 C 0.81736 0.18870 0.39012
 C724 C 0.83121 0.19212 0.38228
 H725 H 0.80057 0.16917 0.38490
 H726 H 0.83927 0.20175 0.38497
 H727 H 0.83239 0.17033 0.34251
 H728 H 0.84324 0.15635 0.35580
 N729 N 0.66764 0.36062 0.33414
 N730 N 0.65468 0.36333 0.32639
 C731 C 0.65732 0.37417 0.31490
 C732 C 0.67280 0.37869 0.31528
 C733 C 0.67906 0.36999 0.32783
 H734 H 0.64859 0.37821 0.30664
 H735 H 0.69107 0.37001 0.33164
 Cu736 Cu 0.63563 0.35158 0.33053
 Cu737 Cu 0.66791 0.34436 0.35125
 Cu738 Cu 0.63990 0.31453 0.34541
 N739 N 0.61951 0.33554 0.32820
 N740 N 0.62146 0.32064 0.33326
 C741 C 0.60991 0.31134 0.32752
 C742 C 0.60024 0.32102 0.31836
 C743 C 0.60670 0.33632 0.31923
 H744 H 0.60907 0.29840 0.32926
 H745 H 0.60325 0.34694 0.31264
 N746 N 0.65702 0.31233 0.36083
 N747 N 0.66756 0.32369 0.36332
 C748 C 0.67669 0.31902 0.37541
 C749 C 0.67164 0.30399 0.38083
 C750 C 0.65915 0.30022 0.37122
 H751 H 0.68613 0.32618 0.38008
 H752 H 0.65167 0.28974 0.37216
 H753 H 0.65547 0.33141 0.33599
 H754 H 0.64433 0.33752 0.35411
 N755 N 0.68096 0.85953 0.83670
 N756 N 0.67133 0.86083 0.82478
 C757 C 0.67581 0.87339 0.81567
 C758 C 0.68899 0.88026 0.82219
 C759 C 0.69197 0.87109 0.83550
 H760 H 0.66994 0.87725 0.80507
 H761 H 0.70118 0.87300 0.84394
 Cu762 Cu 0.65378 0.84615 0.82238
 Cu763 Cu 0.67793 0.84362 0.85336
 Cu764 Cu 0.64591 0.81823 0.85029
 N765 N 0.63588 0.83179 0.82078
 N766 N 0.63277 0.82103 0.83181
 C767 C 0.61986 0.81277 0.82783
 C768 C 0.61458 0.81862 0.81348
 C769 C 0.62507 0.83069 0.80938
 H770 H 0.61490 0.80301 0.83473
 H771 H 0.62481 0.83818 0.79891
 N772 N 0.66064 0.81726 0.86805
 N773 N 0.67290 0.82683 0.86908
 C774 C 0.68071 0.82323 0.88233
 C775 C 0.67305 0.81076 0.89012
 C776 C 0.66035 0.80729 0.88066
 H777 H 0.69127 0.82923 0.88596
 H778 H 0.65153 0.79820 0.88277
 H779 H 0.66621 0.82668 0.83993
 H780 H 0.65396 0.84179 0.85084
 N781 N 0.17624 0.36299 0.82295
 N782 N 0.16705 0.35955 0.81108
 C783 C 0.16880 0.37094 0.79980
 C784 C 0.17966 0.38223 0.80486
 C785 C 0.18407 0.37673 0.81968
 H786 H 0.16253 0.37101 0.78879
 H787 H 0.19248 0.38213 0.82750
 Cu788 Cu 0.15336 0.34070 0.81178
 Cu789 Cu 0.17713 0.34934 0.84183
 Cu790 Cu 0.16562 0.30995 0.83416
 N791 N 0.14245 0.31997 0.81203
 N792 N 0.14769 0.30779 0.82046
 C793 C 0.13851 0.29480 0.81829
 C794 C 0.12664 0.29911 0.80816
 C795 C 0.12953 0.31520 0.80439
 H796 H 0.14009 0.28326 0.82412
 H797 H 0.12278 0.32283 0.79662
 N798 N 0.17805 0.31603 0.85263
 N799 N 0.18199 0.33106 0.85599
 C800 C 0.18897 0.33127 0.87020
 C801 C 0.18923 0.31560 0.87613
 C802 C 0.18227 0.30630 0.86457
 H803 H 0.19304 0.34210 0.87601
 H804 H 0.17998 0.29345 0.86498
 H805 H 0.17625 0.33134 0.82619
 H806 H 0.15850 0.33305 0.83906
 N807 N 0.16950 0.86752 0.32808
 N808 N 0.15818 0.86504 0.31800
 C809 C 0.15863 0.87659 0.30681
 C810 C 0.17087 0.88702 0.30999
 C811 C 0.17746 0.88087 0.32369
 H812 H 0.15083 0.87705 0.29688
 H813 H 0.18748 0.88548 0.32989
 Cu814 Cu 0.14454 0.84640 0.31991
 Cu815 Cu 0.17314 0.85283 0.34588
 Cu816 Cu 0.15609 0.81497 0.34119
 N817 N 0.13078 0.82797 0.32328
 N818 N 0.13557 0.81552 0.33160
 C819 C 0.12475 0.80377 0.33117
 C820 C 0.11239 0.80911 0.32211
 C821 C 0.11665 0.82459 0.31730
 H822 H 0.12613 0.79200 0.33658
 H823 H 0.11017 0.83263 0.30970
 N824 N 0.17289 0.81928 0.35620
 N825 N 0.17905 0.83369 0.35862
 C826 C 0.18934 0.83255 0.37055
 C827 C 0.18961 0.81661 0.37582
 C828 C 0.17899 0.80865 0.36640
 H829 H 0.19604 0.84257 0.37509
 H830 H 0.17537 0.79616 0.36733
 H831 H 0.16817 0.83461 0.33101
 H832 H 0.15282 0.83871 0.34628
 O833 O 0.24058 1.01955 0.25790
 O834 O 0.26319 0.98740 0.23764
 O835 O 0.26078 1.01879 0.23473
 O836 O 0.24400 0.98839 0.26157
 O837 O 0.22464 0.98441 0.24507
 O838 O 0.24121 1.01551 0.21833
 O839 O 0.24381 0.98416 0.22099
 O840 O 0.22108 1.01555 0.24155
 Cu841 Cu 0.25408 1.00392 0.24960
 Cu842 Cu 0.23075 0.99953 0.22984
 C843 C 0.22693 1.02302 0.25317
 C844 C 0.25729 0.98027 0.22582
 C845 C 0.25388 1.02249 0.22202
 C846 C 0.23153 0.98108 0.25792
 O847 O 0.26887 0.49389 0.75401
 O848 O 0.24512 0.52497 0.77528
 O849 O 0.24876 0.49296 0.77690
 O850 O 0.27073 0.52484 0.75709
 O851 O 0.25303 0.52643 0.73844
 O852 O 0.23159 0.49229 0.75769
 O853 O 0.22748 0.52337 0.75657
 O854 O 0.25160 0.49468 0.73486
 Cu855 Cu 0.25971 0.50943 0.76777
 Cu856 Cu 0.23953 0.50949 0.74509
 C857 C 0.26418 0.48920 0.74051
 C858 C 0.23205 0.52931 0.76949
 C859 C 0.23669 0.48686 0.77080
 C860 C 0.26585 0.53118 0.74444
 O861 O 0.77021 -0.01622 0.25906
 O862 O 0.74876 0.01376 0.23508
 O863 O 0.74816 -0.01772 0.23815
 O864 O 0.76921 0.01537 0.25751
 O865 O 0.78750 0.01444 0.23900
 O866 O 0.76661 -0.01930 0.21985
 O867 O 0.76706 0.01197 0.21662
 O868 O 0.78863 -0.01699 0.24068
 Cu869 Cu 0.75725 -0.00108 0.24929
 Cu870 Cu 0.77928 -0.00260 0.22722
 C871 C 0.78318 -0.02169 0.25388
 C872 C 0.75432 0.01795 0.22169
 C873 C 0.75374 -0.02425 0.22575
 C874 C 0.78187 0.02068 0.25158
 O875 O 0.74218 0.49128 0.73152
 O876 O 0.76506 0.51800 0.75619
 O877 O 0.76202 0.48669 0.75418
 O878 O 0.74101 0.52202 0.73762
 O879 O 0.72302 0.51929 0.75630
 O880 O 0.74344 0.48458 0.77234
 O881 O 0.74741 0.51646 0.77527
 O882 O 0.72417 0.48892 0.75018
 Cu883 Cu 0.75436 0.50476 0.74305
 Cu884 Cu 0.73315 0.50246 0.76550
 C885 C 0.72942 0.48535 0.73647
 C886 C 0.76035 0.52181 0.76990
 C887 C 0.75603 0.47950 0.76612
 C888 C 0.72826 0.52655 0.74420
 O889 O 0.28762 0.50865 0.24846
 O890 O 0.26716 0.47545 0.22863
 O891 O 0.26737 0.50680 0.22573
 O892 O 0.28624 0.47727 0.25225
 O893 O 0.26672 0.48005 0.26923
 O894 O 0.24763 0.50864 0.24258
 O895 O 0.24759 0.47749 0.24566
 O896 O 0.26777 0.51136 0.26506
 Cu897 Cu 0.27910 0.49181 0.23710
 Cu898 Cu 0.25551 0.49461 0.25737
 C899 C 0.28112 0.51584 0.26003
 C900 C 0.25390 0.47078 0.23367
 C901 C 0.25413 0.51265 0.22964
 C902 C 0.27962 0.47359 0.26529
 O903 O 0.73896 1.01647 0.72451
 O904 O 0.71796 0.98794 0.74966
 O905 O 0.72191 1.01931 0.74973
 O906 O 0.73807 0.98514 0.72648
 O907 O 0.75833 0.98453 0.74233
 O908 O 0.74162 1.01720 0.76618
 O909 O 0.73816 0.98572 0.76545
 O910 O 0.75897 1.01609 0.74069
 Cu911 Cu 0.72720 1.00229 0.73607
 Cu912 Cu 0.75125 1.00076 0.75527
 C913 C 0.75241 1.02139 0.72825
 C914 C 0.72435 0.98171 0.76164
 C915 C 0.72915 1.02412 0.76193
 C916 C 0.75115 0.97909 0.73046
 O917 O 0.74101 0.50635 0.22032
 O918 O 0.72574 0.47399 0.24681
 O919 O 0.72179 0.50521 0.24429
 O920 O 0.74187 0.47464 0.22051
 O921 O 0.76260 0.47619 0.23564
 O922 O 0.74256 0.50831 0.25916
 O923 O 0.74632 0.47699 0.26196
 O924 O 0.76189 0.50787 0.23523
 Cu925 Cu 0.73059 0.48979 0.23150
 Cu926 Cu 0.75539 0.49254 0.24946
 C927 C 0.75419 0.51268 0.22342
 C928 C 0.73347 0.47010 0.25904
 C929 C 0.72861 0.51218 0.25562
 C930 C 0.75550 0.46996 0.22395
 O931 O 0.28209 0.01699 0.74411
 O932 O 0.26072 -0.01487 0.72332
 O933 O 0.25751 0.01641 0.72624
 O934 O 0.28430 -0.01461 0.74251
 O935 O 0.26868 -0.01682 0.76327
 O936 O 0.24186 0.01320 0.74685
 O937 O 0.24517 -0.01801 0.74401
 O938 O 0.26624 0.01457 0.76467
 Cu939 Cu 0.27272 0.00127 0.73199
 Cu940 Cu 0.25395 -0.00210 0.75676
 C941 C 0.27777 0.02140 0.75783
 C942 C 0.24934 -0.02196 0.73006
 C943 C 0.24509 0.02010 0.73384
 C944 C 0.28098 -0.02096 0.75582
 O945 O 0.25902 0.30217 0.98628
 O946 O 0.27935 0.28159 1.01873
 O947 O 0.28031 0.27982 0.98806
 O948 O 0.25732 0.30328 1.01720
 O949 O 0.23934 0.28420 1.01719
 O950 O 0.26238 0.26068 0.98858
 O951 O 0.26132 0.26255 1.01913
 O952 O 0.24123 0.28289 0.98632
 Cu953 Cu 0.27076 0.29368 1.00256
 Cu954 Cu 0.24921 0.27074 1.00287
 C955 C 0.24683 0.29586 0.98050
 C956 C 0.27388 0.26854 1.02446
 C957 C 0.27524 0.26621 0.98333
 C958 C 0.24442 0.29762 1.02230
 O959 O 0.25259 0.75397 0.48882
 O960 O 0.22906 0.77782 0.51730
 O961 O 0.23328 0.77773 0.48646
 O962 O 0.24752 0.75298 0.51908
 O963 O 0.26746 0.76953 0.52206
 O964 O 0.25268 0.79501 0.48936
 O965 O 0.24884 0.79459 0.52015
 O966 O 0.27215 0.77101 0.49174
 Cu967 Cu 0.23857 0.76403 0.50265
 Cu968 Cu 0.26220 0.78429 0.50620
 C969 C 0.26639 0.75851 0.48535
 C970 C 0.23507 0.79019 0.52376
 C971 C 0.24064 0.79027 0.48202
 C972 C 0.26000 0.75683 0.52607
 O973 O 0.27113 0.75569 0.00082
 O974 O 0.24575 0.73935 0.03207
 O975 O 0.24887 0.73456 0.00188
 O976 O 0.26799 0.76052 0.03103
 O977 O 0.25068 0.77982 0.02688
 O978 O 0.23177 0.75394 -0.00275
 O979 O 0.22827 0.75840 0.02757
 O980 O 0.25411 0.77521 -0.00356
 Cu981 Cu 0.26016 0.74562 0.01692
 Cu982 Cu 0.23948 0.76881 0.01160
 C983 C 0.26697 0.76818 -0.00681
 C984 C 0.23269 0.74597 0.03518
 C985 C 0.23711 0.73985 -0.00554
 C986 C 0.26261 0.77453 0.03406
 O987 O 0.25802 0.27115 0.48067
 O988 O 0.23664 0.25155 0.51313
 O989 O 0.23431 0.25196 0.48280
 O990 O 0.26100 0.27000 0.51118
 O991 O 0.24542 0.29115 0.51380
 O992 O 0.21896 0.27341 0.48413
 O993 O 0.22094 0.27269 0.51492
 O994 O 0.24303 0.29279 0.48295
 Cu995 Cu 0.24907 0.25907 0.49674
 Cu996 Cu 0.23055 0.28470 0.49913
 C997 C 0.25419 0.28527 0.47619
 C998 C 0.22509 0.25872 0.51956
 C999 C 0.22214 0.25949 0.47852
 C1000 C 0.25771 0.28348 0.51759
 O1001 O 0.74249 0.77506 0.99581
 O1002 O 0.75871 0.74815 1.02634
 O1003 O 0.75942 0.74921 0.99580
 O1004 O 0.74319 0.77546 1.02671
 O1005 O 0.72120 0.76163 1.02657
 O1006 O 0.73797 0.73445 0.99622
 O1007 O 0.73666 0.73437 1.02700
 O1008 O 0.72100 0.76038 0.99574
 Cu1009 Cu 0.75309 0.76346 1.01125
 Cu1010 Cu 0.72701 0.74631 1.01146
 C1011 C 0.72908 0.77200 0.99025
 C1012 C 0.75046 0.73661 1.03183
 C1013 C 0.75154 0.73738 0.99066
 C1014 C 0.72944 0.77315 1.03191
 O1015 O 0.73622 0.26609 0.48924
 O1016 O 0.75410 0.24160 0.52046
 O1017 O 0.75550 0.24152 0.48953
 O1018 O 0.73274 0.26407 0.52004
 O1019 O 0.71352 0.24663 0.51719
 O1020 O 0.73653 0.22354 0.48843
 O1021 O 0.73482 0.22403 0.51912
 O1022 O 0.71755 0.24802 0.48644
 Cu1023 Cu 0.74651 0.25510 0.50499
 Cu1024 Cu 0.72370 0.23385 0.50264
 C1025 C 0.72406 0.26123 0.48227
 C1026 C 0.74755 0.22873 0.52529
 C1027 C 0.74982 0.22853 0.48387
 C1028 C 0.71914 0.25906 0.52380
 O1029 O 0.75544 0.27296 0.00180
 O1030 O 0.73673 0.24833 -0.02896
 O1031 O 0.73298 0.25185 0.00150
 O1032 O 0.76000 0.26846 -0.02863
 O1033 O 0.77696 0.24909 -0.02347
 O1034 O 0.74939 0.23168 0.00545
 O1035 O 0.75378 0.22876 -0.02495
 O1036 O 0.77167 0.25291 0.00683
 Cu1037 Cu 0.74467 0.26241 -0.01404
 Cu1038 Cu 0.76462 0.23865 -0.00858
 C1039 C 0.76653 0.26705 0.00983
 C1040 C 0.74214 0.23442 -0.03237
 C1041 C 0.73661 0.23884 0.00862
 C1042 C 0.77307 0.26157 -0.03125
 O1043 O 0.74330 0.73928 0.48609
 O1044 O 0.76577 0.76067 0.51675
 O1045 O 0.76795 0.75738 0.48640
 O1046 O 0.73981 0.74445 0.51645
 O1047 O 0.75361 0.72233 0.52072
 O1048 O 0.78186 0.73514 0.48965
 O1049 O 0.77981 0.73856 0.52022
 O1050 O 0.75705 0.71717 0.49060
 Cu1051 Cu 0.75277 0.75262 0.50105
 Cu1052 Cu 0.76946 0.72609 0.50576
 C1053 C 0.74649 0.72453 0.48305
 C1054 C 0.77681 0.75320 0.52360
 C1055 C 0.77961 0.74863 0.48274
 C1056 C 0.74186 0.73129 0.52384
 O1057 O 1.01496 0.24360 0.23288
 O1058 O 0.98508 0.22121 0.25504
 O1059 O 1.01552 0.22207 0.25514
 O1060 O 0.98467 0.24223 0.23229
 O1061 O 0.98586 0.22266 0.21461
 O1062 O 1.01639 0.20235 0.23761
 O1063 O 0.98586 0.20158 0.23741
 O1064 O 1.01627 0.22401 0.21523
 Cu1065 Cu 0.99995 0.23422 0.24562
 Cu1066 Cu 1.00122 0.21066 0.22445
 C1067 C 1.02082 0.23768 0.22032
 C1068 C 0.98017 0.20770 0.25000
 C1069 C 1.02131 0.20880 0.25022
 C1070 C 0.97995 0.23586 0.21954
 O1071 O 0.50611 0.22048 0.74404
 O1072 O 0.47473 0.24437 0.72475
 O1073 O 0.50422 0.24139 0.72053
 O1074 O 0.47474 0.21941 0.74311
 O1075 O 0.47553 0.23756 0.76219
 O1076 O 0.50758 0.25821 0.74045
 O1077 O 0.47747 0.26269 0.74345
 O1078 O 0.50581 0.23781 0.76389
 Cu1079 Cu 0.49002 0.22948 0.73163
 Cu1080 Cu 0.49168 0.25085 0.75434
 C1081 C 0.51124 0.22525 0.75733
 C1082 C 0.47105 0.25798 0.73087
 C1083 C 0.51126 0.25327 0.72661
 C1084 C 0.46978 0.22472 0.75626
 O1085 O 0.02248 0.24084 0.72698
 O1086 O -0.01022 0.26058 0.74901
 O1087 O 0.02001 0.26334 0.74850
 O1088 O -0.00776 0.24354 0.72295
 O1089 O -0.01026 0.22313 0.73958
 O1090 O 0.02033 0.24223 0.76448
 O1091 O -0.01068 0.23966 0.76522
 O1092 O 0.01945 0.21935 0.74222
 Cu1093 Cu 0.00621 0.25405 0.73527
 Cu1094 Cu 0.00490 0.22935 0.75454
 C1095 C 0.02633 0.22645 0.73090
 C1096 C -0.01591 0.25335 0.76110
 C1097 C 0.02507 0.25637 0.76072
 C1098 C -0.01414 0.23030 0.72683
 O1099 O 0.52108 0.24745 0.24449
 O1100 O 0.48878 0.23457 0.21976
 O1101 O 0.51915 0.23212 0.21796
 O1102 O 0.49110 0.25240 0.24495
 O1103 O 0.49327 0.27465 0.23063
 O1104 O 0.52114 0.25468 0.20415
 O1105 O 0.49053 0.25684 0.20549
 O1106 O 0.52305 0.27028 0.23103
 Cu1107 Cu 0.50478 0.23937 0.23311
 Cu1108 Cu 0.50724 0.26629 0.21633
 C1109 C 0.52750 0.26106 0.24219
 C1110 C 0.48398 0.24334 0.20852
 C1111 C 0.52511 0.24010 0.20654
 C1112 C 0.48754 0.26714 0.24239
 O1113 O 1.00742 0.72185 0.75729
 O1114 O 0.97622 0.74751 0.74067
 O1115 O 1.00611 0.74390 0.73535
 O1116 O 0.97738 0.72556 0.76272
 O1117 O 0.98262 0.74427 0.78045
 O1118 O 1.01053 0.76310 0.75284
 O1119 O 0.98092 0.76624 0.75855
 O1120 O 1.01254 0.74117 0.77445
 Cu1121 Cu 0.99126 0.73277 0.74728
 Cu1122 Cu 0.99712 0.75553 0.76839
 C1123 C 1.01557 0.72738 0.76852
 C1124 C 0.97321 0.76124 0.74679
 C1125 C 1.01323 0.75669 0.73945
 C1126 C 0.97499 0.73187 0.77622
 O1127 O 0.48551 0.73287 0.28385
 O1128 O 0.51687 0.75966 0.26956
 O1129 O 0.48653 0.76079 0.26968
 O1130 O 0.51613 0.73127 0.28288
 O1131 O 0.51537 0.71921 0.25968
 O1132 O 0.48626 0.74874 0.24643
 O1133 O 0.51633 0.74759 0.24634
 O1134 O 0.48469 0.72086 0.26063
 Cu1135 Cu 0.50132 0.74724 0.27887
 Cu1136 Cu 0.50060 0.73279 0.25100
 C1137 C 0.47950 0.72251 0.27466
 C1138 C 0.52190 0.75832 0.25545
 C1139 C 0.48148 0.75986 0.25564
 C1140 C 0.52101 0.72037 0.27343
 O1141 O -0.01168 0.71765 0.25177
 O1142 O 0.01778 0.74491 0.26896
 O1143 O -0.01199 0.73992 0.27352
 O1144 O 0.01822 0.72255 0.24721
 O1145 O 0.01311 0.74110 0.22924
 O1146 O -0.01723 0.75824 0.25534
 O1147 O 0.01244 0.76330 0.25090
 O1148 O -0.01666 0.73618 0.23373
 Cu1149 Cu 0.00365 0.72938 0.26216
 Cu1150 Cu -0.00260 0.75153 0.24049
 C1151 C -0.01934 0.72240 0.23985
 C1152 C 0.02015 0.75877 0.26284
 C1153 C -0.01987 0.75202 0.26883
 C1154 C 0.02093 0.72891 0.23379
 O1155 O 0.51028 0.74655 0.78105
 O1156 O 0.48200 0.72263 0.75908
 O1157 O 0.51246 0.72316 0.76050
 O1158 O 0.48016 0.74815 0.77709
 O1159 O 0.48306 0.76519 0.75722
 O1160 O 0.51410 0.73996 0.74031
 O1161 O 0.48355 0.73970 0.73909
 O1162 O 0.51330 0.76326 0.76092
 Cu1163 Cu 0.49600 0.73346 0.77140
 Cu1164 Cu 0.49871 0.75368 0.74739
 C1165 C 0.51680 0.75880 0.77486
 C1166 C 0.47772 0.72707 0.74547
 C1167 C 0.51883 0.72744 0.74749
 C1168 C 0.47616 0.76105 0.76990
 C1169 C 0.42319 0.30218 0.30029
 C1170 C 0.43439 0.29354 0.29157
 C1171 C 0.43495 0.27647 0.29258
 C1172 C 0.42432 0.26837 0.30248
 C1173 C 0.41305 0.27708 0.31103
 C1174 C 0.41226 0.29406 0.30990
 C1175 C 0.44596 0.26783 0.28350
 C1176 C 0.45623 0.27608 0.27328
 C1177 C 0.45562 0.29318 0.27239
 C1178 C 0.44483 0.30179 0.28163
 C1179 C 0.46566 0.30145 0.26206
 C1180 C 0.47605 0.29288 0.25245
 C1181 C 0.47674 0.27588 0.25309
 C1182 C 0.46691 0.26753 0.26371
 H1183 H 0.42297 0.31524 0.29940
 H1184 H 0.42457 0.25529 0.30343
 H1185 H 0.40482 0.27042 0.31829
 H1186 H 0.44636 0.25472 0.28420
 H1187 H 0.44436 0.31489 0.28085
 H1188 H 0.46535 0.31454 0.26126
 H1189 H 0.48358 0.29962 0.24448
 H1190 H 0.46732 0.25442 0.26425
 C1191 C 0.40422 0.80542 0.81064
 C1192 C 0.41665 0.79571 0.80517
 C1193 C 0.41985 0.78078 0.81265
 C1194 C 0.41056 0.77579 0.82541
 C1195 C 0.39828 0.78549 0.83084
 C1196 C 0.39491 0.80052 0.82365
 C1197 C 0.43229 0.77108 0.80729
 C1198 C 0.44163 0.77610 0.79450
 C1199 C 0.43842 0.79103 0.78700
 C1200 C 0.42599 0.80073 0.79237
 C1201 C 0.44771 0.79601 0.77419
 C1202 C 0.45998 0.78628 0.76879
 C1203 C 0.46330 0.77137 0.77610
 C1204 C 0.45407 0.76639 0.78905
 H1205 H 0.40202 0.81683 0.80479
 H1206 H 0.41281 0.76435 0.83126
 H1207 H 0.39151 0.78098 0.84073
 H1208 H 0.43470 0.75962 0.81307
 H1209 H 0.42358 0.81218 0.78658
 H1210 H 0.44544 0.80741 0.76829
 H1211 H 0.46689 0.79047 0.75881
 H1212 H 0.45645 0.75492 0.79477
 C1213 C -0.08394 0.30234 0.80348
 C1214 C -0.07183 0.29562 0.79425
 C1215 C -0.06629 0.30395 0.78072
 C1216 C -0.07295 0.31883 0.77663
 C1217 C -0.08496 0.32543 0.78585
 C1218 C -0.09061 0.31732 0.79938
 C1219 C -0.05418 0.29729 0.77148
 C1220 C -0.04752 0.28238 0.77560
 C1221 C -0.05309 0.27405 0.78914
 C1222 C -0.06518 0.28070 0.79836
 C1223 C -0.04647 0.25916 0.79325
 C1224 C -0.03444 0.25255 0.78408
 C1225 C -0.02873 0.26069 0.77059
 C1226 C -0.03536 0.27565 0.76641
 H1227 H -0.08805 0.29594 0.81389
 H1228 H -0.06890 0.32536 0.76628
 H1229 H -0.08988 0.33687 0.78217
 H1230 H -0.04996 0.30371 0.76111
 H1231 H -0.06941 0.27428 0.80873
 H1232 H -0.05059 0.25260 0.80357
 H1233 H -0.02958 0.24101 0.78762
 H1234 H -0.03110 0.28205 0.75605
 C1235 C -0.09188 0.79540 0.31009
 C1236 C -0.07955 0.78904 0.30090
 C1237 C -0.07764 0.79411 0.28504
 C1238 C -0.08806 0.80530 0.27860
 C1239 C -0.10026 0.81152 0.28777
 C1240 C -0.10231 0.80675 0.30362
 C1241 C -0.06536 0.78793 0.27580
 C1242 C -0.05496 0.77663 0.28216
 C1243 C -0.05684 0.77143 0.29797
 C1244 C -0.06910 0.77771 0.30728
 C1245 C -0.04645 0.75998 0.30415
 C1246 C -0.03438 0.75368 0.29473
 C1247 C -0.03242 0.75883 0.27900
 C1248 C -0.04276 0.77038 0.27284
 H1249 H -0.09321 0.79160 0.32227
 H1250 H -0.08680 0.80925 0.26645
 H1251 H -0.10812 0.82003 0.28227
 H1252 H -0.06394 0.79187 0.26364
 H1253 H -0.07054 0.77376 0.31942
 H1254 H -0.04770 0.75583 0.31624
 H1255 H -0.02656 0.74479 0.29977
 H1256 H -0.04146 0.77440 0.26070
 C1257 C 0.59612 0.67821 0.30768
 C1258 C 0.58146 0.68512 0.30444
 C1259 C 0.57398 0.69494 0.31595
 C1260 C 0.58098 0.69726 0.33063
 C1261 C 0.59561 0.69061 0.33364
 C1262 C 0.60349 0.68137 0.32211
 C1263 C 0.55992 0.70279 0.31245
 C1264 C 0.55334 0.70126 0.29745
 C1265 C 0.56051 0.69108 0.28606
 C1266 C 0.57445 0.68295 0.28967
 C1267 C 0.55387 0.68963 0.27107
 C1268 C 0.54067 0.69871 0.26717
 C1269 C 0.53381 0.70936 0.27821
 C1270 C 0.54002 0.71024 0.29348
 H1271 H 0.60211 0.67114 0.29870
 H1272 H 0.57534 0.70462 0.33963
 H1273 H 0.60088 0.69295 0.34497
 H1274 H 0.55438 0.71054 0.32121
 H1275 H 0.58010 0.67539 0.28083
 H1276 H 0.55913 0.68182 0.26221
 H1277 H 0.53611 0.69773 0.25533
 H1278 H 0.53482 0.71834 0.30214
 C1279 C 0.59326 0.20513 0.79231
 C1280 C 0.57957 0.20742 0.78355
 C1281 C 0.58067 0.21108 0.76724
 C1282 C 0.59537 0.21241 0.75999
 C1283 C 0.60888 0.20999 0.76874
 C1284 C 0.60799 0.20625 0.78492
 C1285 C 0.56709 0.21351 0.75844
 C1286 C 0.55238 0.21264 0.76578
 C1287 C 0.55123 0.20892 0.78208
 C1288 C 0.56482 0.20614 0.79081
 C1289 C 0.53653 0.20871 0.78951
 C1290 C 0.52321 0.21304 0.78110
 C1291 C 0.52432 0.21703 0.76501
 C1292 C 0.53884 0.21630 0.75727
 H1293 H 0.59242 0.20208 0.80474
 H1294 H 0.59644 0.21528 0.74753
 H1295 H 0.62008 0.21105 0.76279
 H1296 H 0.56798 0.21645 0.74598
 H1297 H 0.56393 0.20337 0.80331
 H1298 H 0.53541 0.20595 0.80199
 H1299 H 0.51209 0.21386 0.78727
 H1300 H 0.53974 0.21986 0.74496
 C1301 C 1.09206 0.69212 0.80756
 C1302 C 1.07946 0.70051 0.80072
 C1303 C 1.07823 0.71749 0.80272
 C1304 C 1.08965 0.72584 0.81109
 C1305 C 1.10192 0.71745 0.81797
 C1306 C 1.10313 0.70054 0.81658
 C1307 C 1.06546 0.72590 0.79660
 C1308 C 1.05376 0.71763 0.78852
 C1309 C 1.05501 0.70074 0.78614
 C1310 C 1.06788 0.69225 0.79225
 C1311 C 1.04328 0.69269 0.77775
 C1312 C 1.03043 0.70129 0.77192
 C1313 C 1.02901 0.71803 0.77457
 C1314 C 1.04079 0.72609 0.78285
 H1315 H 1.09289 0.67907 0.80644
 H1316 H 1.08894 0.73885 0.81258
 H1317 H 1.11045 0.72427 0.82454
 H1318 H 1.06452 0.73889 0.79831
 H1319 H 1.06877 0.67926 0.79060
 H1320 H 1.04403 0.67976 0.77572
 H1321 H 1.02154 0.69482 0.76550
 H1322 H 1.03995 0.73905 0.78476
 C1323 C 1.09255 0.18108 0.30247
 C1324 C 1.07951 0.18783 0.29497
 C1325 C 1.07372 0.20306 0.29992
 C1326 C 1.08101 0.21123 0.31230
 C1327 C 1.09398 0.20446 0.31967
 C1328 C 1.09995 0.18935 0.31484
 C1329 C 1.06082 0.20994 0.29234
 C1330 C 1.05369 0.20184 0.27978
 C1331 C 1.05943 0.18656 0.27488
 C1332 C 1.07226 0.17963 0.28254
 C1333 C 1.05234 0.17856 0.26226
 C1334 C 1.03983 0.18570 0.25440
 C1335 C 1.03410 0.20095 0.25906
 C1336 C 1.04103 0.20888 0.27190
 H1337 H 1.09684 0.16938 0.29865
 H1338 H 1.07673 0.22293 0.31623
 H1339 H 1.09941 0.21124 0.32905
 H1340 H 1.05643 0.22166 0.29611
 H1341 H 1.07668 0.16793 0.27873
 H1342 H 1.05657 0.16684 0.25835
 H1343 H 1.03471 0.17931 0.24457
 H1344 H 1.03677 0.22066 0.27561
 C1345 C 0.58590 0.29655 0.69076
 C1346 C 0.57337 0.28979 0.69934
 C1347 C 0.57176 0.29299 0.71570
 C1348 C 0.58276 0.30274 0.72323
 C1349 C 0.59499 0.30965 0.71458
 C1350 C 0.59658 0.30678 0.69827
 C1351 C 0.55908 0.28660 0.72424
 C1352 C 0.54788 0.27713 0.71663
 C1353 C 0.54951 0.27387 0.70029
 C1354 C 0.56225 0.28019 0.69176
 C1355 C 0.53836 0.26432 0.69274
 C1356 C 0.52581 0.25790 0.70130
 C1357 C 0.52408 0.26101 0.71756
 C1358 C 0.53512 0.27078 0.72514
 H1359 H 0.58697 0.29439 0.67817
 H1360 H 0.58176 0.30526 0.73576
 H1361 H 0.60319 0.31734 0.72067
 H1362 H 0.55788 0.28910 0.73677
 H1363 H 0.56343 0.27772 0.67922
 H1364 H 0.53941 0.26170 0.68023
 H1365 H 0.51747 0.25041 0.69516
 H1366 H 0.53399 0.27312 0.73769
 C1367 C 0.58426 0.81258 0.21051
 C1368 C 0.57268 0.80201 0.21636
 C1369 C 0.56481 0.79162 0.20584
 C1370 C 0.56850 0.79203 0.18973
 C1371 C 0.57997 0.80253 0.18402
 C1372 C 0.58808 0.81288 0.19429
 C1373 C 0.55339 0.78092 0.21156
 C1374 C 0.54964 0.78048 0.22770
 C1375 C 0.55738 0.79094 0.23826
 C1376 C 0.56887 0.80162 0.23253
 C1377 C 0.55344 0.79054 0.25437
 C1378 C 0.54194 0.77991 0.25996
 C1379 C 0.53423 0.76941 0.24956
 C1380 C 0.53820 0.76977 0.23341
 H1381 H 0.59027 0.82047 0.21863
 H1382 H 0.56257 0.78416 0.18150
 H1383 H 0.58251 0.80229 0.17150
 H1384 H 0.54742 0.77294 0.20345
 H1385 H 0.57484 0.80960 0.24065
 H1386 H 0.55922 0.79846 0.26265
 H1387 H 0.53912 0.77990 0.27245
 H1388 H 0.53230 0.76182 0.22524
 C1389 C 1.08729 0.29535 0.18776
 C1390 C 1.07485 0.28704 0.19498
 C1391 C 1.06761 0.29357 0.20865
 C1392 C 1.07286 0.30831 0.21477
 C1393 C 1.08527 0.31648 0.20754
 C1394 C 1.09267 0.31009 0.19401
 C1395 C 1.05533 0.28522 0.21604
 C1396 C 1.05024 0.27035 0.21001
 C1397 C 1.05739 0.26383 0.19630
 C1398 C 1.06964 0.27224 0.18884
 C1399 C 1.05224 0.24893 0.19037
 C1400 C 1.04024 0.24047 0.19806
 C1401 C 1.03316 0.24679 0.21179
 C1402 C 1.03819 0.26183 0.21761
 H1403 H 1.09290 0.29015 0.17743
 H1404 H 1.06740 0.31351 0.22521
 H1405 H 1.08898 0.32786 0.21257
 H1406 H 1.04983 0.29021 0.22656
 H1407 H 1.07518 0.26721 0.17836
 H1408 H 1.05758 0.24375 0.17987
 H1409 H 1.03659 0.22892 0.19332
 H1410 H 1.03284 0.26688 0.22817
 C1411 C 1.08193 0.80386 0.69691
 C1412 C 1.06897 0.79789 0.70540
 C1413 C 1.06361 0.80621 0.71902
 C1414 C 1.07105 0.82046 0.72374
 C1415 C 1.08396 0.82622 0.71533
 C1416 C 1.08969 0.81790 0.70199
 C1417 C 1.05111 0.80001 0.72791
 C1418 C 1.04397 0.78548 0.72350
 C1419 C 1.04908 0.77726 0.70975
 C1420 C 1.06152 0.78357 0.70073
 C1421 C 1.04185 0.76272 0.70544
 C1422 C 1.02993 0.75618 0.71489
 C1423 C 1.02504 0.76408 0.72880
 C1424 C 1.03200 0.77888 0.73287
 H1425 H 1.08622 0.79728 0.68669
 H1426 H 1.06701 0.82703 0.73408
 H1427 H 1.08949 0.83721 0.71937
 H1428 H 1.04713 0.80634 0.73845
 H1429 H 1.06557 0.77718 0.69027
 H1430 H 1.04556 0.75627 0.69491
 H1431 H 1.02475 0.74477 0.71146
 H1432 H 1.02830 0.78516 0.74351
 C1433 C 0.40884 0.68874 0.69634
 C1434 C 0.42128 0.69726 0.70316
 C1435 C 0.42602 0.71229 0.69669
 C1436 C 0.41829 0.71853 0.68353
 C1437 C 0.40601 0.70998 0.67680
 C1438 C 0.40114 0.69500 0.68306
 C1439 C 0.43835 0.72091 0.70348
 C1440 C 0.44604 0.71474 0.71673
 C1441 C 0.44136 0.69967 0.72317
 C1442 C 0.42906 0.69102 0.71634
 C1443 C 0.44898 0.69358 0.73647
 C1444 C 0.46093 0.70241 0.74348
 C1445 C 0.46561 0.71749 0.73730
 C1446 C 0.45819 0.72350 0.72377
 H1447 H 0.40529 0.67718 0.70125
 H1448 H 0.42172 0.73005 0.67845
 H1449 H 0.40024 0.71531 0.66675
 H1450 H 0.44190 0.73246 0.69851
 H1451 H 0.42548 0.67949 0.72134
 H1452 H 0.44559 0.68205 0.74156
 H1453 H 0.46646 0.69744 0.75386
 H1454 H 0.46162 0.73513 0.71892
 C1455 C 0.41067 0.20023 0.17102
 C1456 C 0.42408 0.20592 0.17874
 C1457 C 0.43084 0.19644 0.19080
 C1458 C 0.42423 0.18155 0.19492
 C1459 C 0.41097 0.17601 0.18725
 C1460 C 0.40399 0.18521 0.17523
 C1461 C 0.44408 0.20199 0.19866
 C1462 C 0.45070 0.21695 0.19471
 C1463 C 0.44410 0.22651 0.18265
 C1464 C 0.43081 0.22092 0.17469
 C1465 C 0.45089 0.24152 0.17889
 C1466 C 0.46398 0.24703 0.18711
 C1467 C 0.47050 0.23761 0.19921
 C1468 C 0.46378 0.22251 0.20282
 H1469 H 0.40554 0.20748 0.16176
 H1470 H 0.42928 0.17418 0.20416
 H1471 H 0.40618 0.16451 0.19096
 H1472 H 0.44918 0.19468 0.20794
 H1473 H 0.42568 0.22825 0.16545
 H1474 H 0.44602 0.24905 0.16967
 H1475 H 0.46891 0.25871 0.18410
 H1476 H 0.46865 0.21506 0.21210
 C1477 C -0.09014 0.68132 0.19594
 C1478 C -0.07787 0.69042 0.20240
 C1479 C -0.07503 0.70630 0.19680
 C1480 C -0.08443 0.71286 0.18501
 C1481 C -0.09650 0.70377 0.17865
 C1482 C -0.09946 0.68790 0.18391
 C1483 C -0.06284 0.71546 0.20304
 C1484 C -0.05337 0.70901 0.21485
 C1485 C -0.05611 0.69318 0.22057
 C1486 C -0.06836 0.68395 0.21429
 C1487 C -0.04657 0.68693 0.23251
 C1488 C -0.03450 0.69633 0.23875
 C1489 C -0.03173 0.71209 0.23310
 C1490 C -0.04123 0.71828 0.22107
 H1491 H -0.09225 0.66910 0.20009
 H1492 H -0.08246 0.72504 0.18068
 H1493 H -0.10359 0.70936 0.16966
 H1494 H -0.06072 0.72763 0.19869
 H1495 H -0.07048 0.67179 0.21865
 H1496 H -0.04847 0.67483 0.23708
 H1497 H -0.02738 0.69127 0.24803
 H1498 H -0.03931 0.73043 0.21663
 C1499 C -0.08646 0.19164 0.68335
 C1500 C -0.07389 0.19650 0.69279
 C1501 C -0.07157 0.18912 0.70768
 C1502 C -0.08179 0.17697 0.71283
 C1503 C -0.09410 0.17207 0.70331
 C1504 C -0.09656 0.17929 0.68848
 C1505 C -0.05908 0.19398 0.71718
 C1506 C -0.04879 0.20609 0.71197
 C1507 C -0.05104 0.21335 0.69701
 C1508 C -0.06355 0.20853 0.68754
 C1509 C -0.04079 0.22544 0.69180
 C1510 C -0.02864 0.23056 0.70140
 C1511 C -0.02639 0.22367 0.71643
 C1512 C -0.03642 0.21124 0.72156
 H1513 H -0.08818 0.19721 0.67190
 H1514 H -0.08023 0.17121 0.72422
 H1515 H -0.10182 0.16268 0.70769
 H1516 H -0.05740 0.18836 0.72862
 H1517 H -0.06525 0.21418 0.67611
 H1518 H -0.04229 0.23110 0.68036
 H1519 H -0.02106 0.24011 0.69708
 H1520 H -0.03487 0.20587 0.73313
 C1521 C 0.32336 0.40282 0.30953
 C1522 C 0.31768 0.41545 0.30009
 C1523 C 0.32460 0.41849 0.28515
 C1524 C 0.33716 0.40892 0.27997
 C1525 C 0.34273 0.39636 0.28942
 C1526 C 0.33586 0.39310 0.30426
 C1527 C 0.31877 0.43093 0.27557
 C1528 C 0.30602 0.44029 0.28069
 C1529 C 0.29918 0.43732 0.29569
 C1530 C 0.30509 0.42498 0.30532
 C1531 C 0.28637 0.44660 0.30073
 C1532 C 0.28021 0.45853 0.29092
 C1533 C 0.28678 0.46149 0.27590
 C1534 C 0.29983 0.45241 0.27094
 H1535 H 0.31802 0.40063 0.32098
 H1536 H 0.34260 0.41107 0.26855
 H1537 H 0.35228 0.38907 0.28493
 H1538 H 0.32404 0.43319 0.26407
 H1539 H 0.29978 0.42267 0.31679
 H1540 H 0.28101 0.44451 0.31220
 H1541 H 0.27018 0.46537 0.29507
 H1542 H 0.30499 0.45454 0.25937
 C1543 C 0.32320 -0.08841 0.80639
 C1544 C 0.31536 -0.07520 0.79945
 C1545 C 0.30486 -0.06587 0.80870
 C1546 C 0.30261 -0.06955 0.82465
 C1547 C 0.31035 -0.08259 0.83142
 C1548 C 0.32057 -0.09247 0.82244
 C1549 C 0.29656 -0.05310 0.80189
 C1550 C 0.29851 -0.04945 0.78586
 C1551 C 0.30922 -0.05841 0.77654
 C1552 C 0.31762 -0.07126 0.78340
 C1553 C 0.31115 -0.05444 0.76049
 C1554 C 0.30228 -0.04198 0.75373
 C1555 C 0.29128 -0.03337 0.76289
 C1556 C 0.28966 -0.03709 0.77901
 H1557 H 0.33105 -0.09561 0.79916
 H1558 H 0.29471 -0.06240 0.83190
 H1559 H 0.30806 -0.08480 0.84380
 H1560 H 0.28839 -0.04612 0.80904
 H1561 H 0.32571 -0.07828 0.77623
 H1562 H 0.31935 -0.06109 0.75313
 H1563 H 0.30376 -0.03933 0.74128
 H1564 H 0.28134 -0.03044 0.78626
 C1565 C 0.80756 0.40941 0.80148
 C1566 C 0.80054 0.42215 0.79331
 C1567 C 0.80942 0.43160 0.78263
 C1568 C 0.82527 0.42796 0.78025
 C1569 C 0.83223 0.41515 0.78845
 C1570 C 0.82350 0.40571 0.79925
 C1571 C 0.80232 0.44454 0.77463
 C1572 C 0.78647 0.44814 0.77733
 C1573 C 0.77766 0.43851 0.78799
 C1574 C 0.78472 0.42558 0.79583
 C1575 C 0.76192 0.44206 0.79086
 C1576 C 0.75497 0.45525 0.78350
 C1577 C 0.76357 0.46509 0.77302
 C1578 C 0.77931 0.46134 0.76979
 H1579 H 0.80037 0.40247 0.80955
 H1580 H 0.83230 0.43505 0.77209
 H1581 H 0.84450 0.41282 0.78631
 H1582 H 0.80913 0.45188 0.76648
 H1583 H 0.77791 0.41829 0.80404
 H1584 H 0.75503 0.43476 0.79895
 H1585 H 0.74281 0.45780 0.78610
 H1586 H 0.78604 0.46889 0.76177
 C1587 C 0.81699 -0.09319 0.30505
 C1588 C 0.80935 -0.07989 0.29834
 C1589 C 0.79428 -0.07548 0.30373
 C1590 C 0.78726 -0.08428 0.31603
 C1591 C 0.79490 -0.09762 0.32261
 C1592 C 0.80976 -0.10249 0.31703
 C1593 C 0.78638 -0.06256 0.29654
 C1594 C 0.79333 -0.05415 0.28389
 C1595 C 0.80853 -0.05847 0.27870
 C1596 C 0.81648 -0.07119 0.28603
 C1597 C 0.81545 -0.05022 0.26600
 C1598 C 0.80725 -0.03808 0.25820
 C1599 C 0.79202 -0.03385 0.26300
 C1600 C 0.78521 -0.04177 0.27607
 H1601 H 0.82848 -0.09632 0.30061
 H1602 H 0.77575 -0.08102 0.32039
 H1603 H 0.78889 -0.10419 0.33188
 H1604 H 0.77474 -0.05928 0.30057
 H1605 H 0.82807 -0.07457 0.28191
 H1606 H 0.82710 -0.05334 0.26192
 H1607 H 0.81282 -0.03211 0.24825
 H1608 H 0.77346 -0.03864 0.27987
 C1609 C 0.30635 0.60367 0.69834
 C1610 C 0.29713 0.59128 0.70497
 C1611 C 0.28167 0.58898 0.69974
 C1612 C 0.27568 0.59918 0.68805
 C1613 C 0.28491 0.61149 0.68153
 C1614 C 0.30038 0.61388 0.68651
 C1615 C 0.27246 0.57654 0.70628
 C1616 C 0.27848 0.56640 0.71808
 C1617 C 0.29393 0.56881 0.72334
 C1618 C 0.30315 0.58116 0.71673
 C1619 C 0.29994 0.55886 0.73520
 C1620 C 0.29075 0.54669 0.74191
 C1621 C 0.27536 0.54408 0.73684
 C1622 C 0.26931 0.55396 0.72479
 H1623 H 0.31821 0.60522 0.70237
 H1624 H 0.26385 0.59765 0.68392
 H1625 H 0.27979 0.61911 0.67258
 H1626 H 0.26061 0.57478 0.70223
 H1627 H 0.31500 0.58292 0.72079
 H1628 H 0.31175 0.56053 0.73937
 H1629 H 0.29577 0.53925 0.75109
 H1630 H 0.25746 0.55214 0.72081
 C1631 C 0.30009 1.09243 0.17797
 C1632 C 0.29383 1.07973 0.18711
 C1633 C 0.30199 1.07414 0.20049
 C1634 C 0.31626 1.08121 0.20444
 C1635 C 0.32242 1.09377 0.19529
 C1636 C 0.31442 1.09957 0.18201
 C1637 C 0.29574 1.06164 0.20979
 C1638 C 0.28142 1.05459 0.20590
 C1639 C 0.27329 1.06000 0.19244
 C1640 C 0.27954 1.07255 0.18312
 C1641 C 0.25898 1.05282 0.18862
 C1642 C 0.25274 1.04050 0.19811
 C1643 C 0.26066 1.03516 0.21161
 C1644 C 0.27508 1.04225 0.21535
 H1645 H 0.29384 1.09665 0.16770
 H1646 H 0.32266 1.07708 0.21467
 H1647 H 0.33337 1.09906 0.19885
 H1648 H 0.30200 1.05745 0.22009
 H1649 H 0.27326 1.07676 0.17284
 H1650 H 0.25259 1.05678 0.17834
 H1651 H 0.24162 1.03526 0.19495
 H1652 H 0.28136 1.03824 0.22570
 C1653 C 0.79942 0.58640 0.18450
 C1654 C 0.79340 0.57269 0.19235
 C1655 C 0.80211 0.56538 0.20453
 C1656 C 0.81665 0.57175 0.20859
 C1657 C 0.82253 0.58532 0.20078
 C1658 C 0.81403 0.59290 0.18871
 C1659 C 0.79617 0.55188 0.21257
 C1660 C 0.78155 0.54556 0.20870
 C1661 C 0.77278 0.55268 0.19647
 C1662 C 0.77878 0.56621 0.18832
 C1663 C 0.75811 0.54620 0.19275
 C1664 C 0.75210 0.53299 0.20126
 C1665 C 0.76067 0.52601 0.21360
 C1666 C 0.77549 0.53232 0.21709
 H1667 H 0.79265 0.59205 0.17527
 H1668 H 0.82348 0.56624 0.21787
 H1669 H 0.83384 0.58975 0.20426
 H1670 H 0.80289 0.54638 0.22196
 H1671 H 0.77204 0.57174 0.17898
 H1672 H 0.75121 0.55146 0.18340
 H1673 H 0.74066 0.52839 0.19833
 H1674 H 0.78230 0.52708 0.22654
 C1675 C 0.80064 1.08981 0.68431
 C1676 C 0.79403 1.07758 0.69377
 C1677 C 0.80132 1.07300 0.70802
 C1678 C 0.81512 1.08070 0.71253
 C1679 C 0.82167 1.09276 0.70302
 C1680 C 0.81454 1.09743 0.68882
 C1681 C 0.79472 1.06084 0.71753
 C1682 C 0.78091 1.05314 0.71297
 C1683 C 0.77369 1.05766 0.69866
 C1684 C 0.78028 1.06983 0.68917
 C1685 C 0.75991 1.05000 0.69410
 C1686 C 0.75321 1.03810 0.70367
 C1687 C 0.76016 1.03356 0.71801
 C1688 C 0.77413 1.04108 0.72253
 H1689 H 0.79508 1.09321 0.67335
 H1690 H 0.82085 1.07740 0.72342
 H1691 H 0.83227 1.09854 0.70694
 H1692 H 0.80030 1.05740 0.72848
 H1693 H 0.77468 1.07329 0.67823
 H1694 H 0.75423 1.05328 0.68317
 H1695 H 0.74247 1.03250 0.69984
 H1696 H 0.77958 1.03773 0.73356
 C1697 C 0.69538 0.58813 0.30209
 C1698 C 0.70335 0.57478 0.29557
 C1699 C 0.71936 0.57243 0.29880
 C1700 C 0.72707 0.58337 0.30864
 C1701 C 0.71906 0.59659 0.31511
 C1702 C 0.70317 0.59918 0.31186
 C1703 C 0.72743 0.55928 0.29204
 C1704 C 0.71971 0.54846 0.28202
 C1705 C 0.70364 0.55075 0.27896
 C1706 C 0.69557 0.56383 0.28578
 C1707 C 0.69591 0.54003 0.26894
 C1708 C 0.70405 0.52738 0.26170
 C1709 C 0.72009 0.52507 0.26437
 C1710 C 0.72782 0.53556 0.27477
 H1711 H 0.68311 0.58983 0.29959
 H1712 H 0.73934 0.58179 0.31125
 H1713 H 0.72547 0.60491 0.32245
 H1714 H 0.73974 0.55757 0.29444
 H1715 H 0.68328 0.56558 0.28332
 H1716 H 0.68360 0.54156 0.26652
 H1717 H 0.69774 0.51945 0.25383
 H1718 H 0.74018 0.53396 0.27690
 C1719 C 0.69923 1.10819 0.79470
 C1720 C 0.70255 1.09334 0.78725
 C1721 C 0.69695 1.09036 0.77188
 C1722 C 0.68819 1.10220 0.76420
 C1723 C 0.68500 1.11691 0.77159
 C1724 C 0.69039 1.12020 0.78697
 C1725 C 0.70032 1.07568 0.76430
 C1726 C 0.70950 1.06397 0.77177
 C1727 C 0.71515 1.06688 0.78715
 C1728 C 0.71152 1.08148 0.79485
 C1729 C 0.72461 1.05526 0.79442
 C1730 C 0.72882 1.04114 0.78635
 C1731 C 0.72343 1.03825 0.77097
 C1732 C 0.71349 1.04959 0.76389
 H1733 H 0.70360 1.11027 0.80647
 H1734 H 0.68385 1.10013 0.75240
 H1735 H 0.67822 1.12559 0.76502
 H1736 H 0.69604 1.07348 0.75248
 H1737 H 0.71590 1.08372 0.80663
 H1738 H 0.72904 1.05726 0.80620
 H1739 H 0.73647 1.03255 0.79208
 H1740 H 0.70938 1.04756 0.75198
 C1741 C 0.19046 0.60138 0.81500
 C1742 C 0.19969 0.58876 0.80879
 C1743 C 0.21517 0.58663 0.81406
 C1744 C 0.22113 0.59710 0.82550
 C1745 C 0.21188 0.60959 0.83165
 C1746 C 0.19646 0.61190 0.82649
 C1747 C 0.22448 0.57414 0.80777
 C1748 C 0.21853 0.56378 0.79617
 C1749 C 0.20301 0.56588 0.79097
 C1750 C 0.19369 0.57830 0.79734
 C1751 C 0.19710 0.55565 0.77931
 C1752 C 0.20652 0.54364 0.77262
 C1753 C 0.22204 0.54150 0.77752
 C1754 C 0.22792 0.55150 0.78949
 H1755 H 0.17859 0.60288 0.81098
 H1756 H 0.23297 0.59569 0.82967
 H1757 H 0.21696 0.61754 0.84033
 H1758 H 0.23637 0.57258 0.81178
 H1759 H 0.18182 0.57990 0.79327
 H1760 H 0.18523 0.55706 0.77521
 H1761 H 0.20165 0.53607 0.76348
 H1762 H 0.23988 0.55003 0.79332
 C1763 C 0.18956 1.09519 0.30211
 C1764 C 0.19819 1.08273 0.29482
 C1765 C 0.21370 1.07966 0.29956
 C1766 C 0.22031 1.08912 0.31146
 C1767 C 0.21166 1.10145 0.31865
 C1768 C 0.19619 1.10463 0.31412
 C1769 C 0.22235 1.06722 0.29235
 C1770 C 0.21570 1.05776 0.28044
 C1771 C 0.20019 1.06082 0.27569
 C1772 C 0.19153 1.07326 0.28291
 C1773 C 0.19360 1.05138 0.26375
 C1774 C 0.20229 1.03909 0.25652
 C1775 C 0.21774 1.03593 0.26111
 C1776 C 0.22435 1.04533 0.27316
 H1777 H 0.17764 1.09736 0.29852
 H1778 H 0.23220 1.08698 0.31520
 H1779 H 0.21722 1.10858 0.32771
 H1780 H 0.23425 1.06490 0.29601
 H1781 H 0.17963 1.07558 0.27925
 H1782 H 0.18173 1.05355 0.25996
 H1783 H 0.19689 1.03204 0.24729
 H1784 H 0.23626 1.04306 0.27679
 C1785 C 0.68396 0.41486 0.69443
 C1786 C 0.68977 0.42754 0.70363
 C1787 C 0.68420 0.42975 0.71927
 C1788 C 0.67266 0.41938 0.72531
 C1789 C 0.66685 0.40683 0.71602
 C1790 C 0.67254 0.40437 0.70057
 C1791 C 0.69037 0.44213 0.72865
 C1792 C 0.70210 0.45229 0.72260
 C1793 C 0.70742 0.45023 0.70684
 C1794 C 0.70120 0.43793 0.69746
 C1795 C 0.71913 0.46032 0.70078
 C1796 C 0.72590 0.47202 0.71036
 C1797 C 0.72103 0.47394 0.72618
 C1798 C 0.70887 0.46422 0.73215
 H1799 H 0.68829 0.41321 0.68246
 H1800 H 0.66822 0.42088 0.73725
 H1801 H 0.65812 0.39886 0.72109
 H1802 H 0.68622 0.44370 0.74070
 H1803 H 0.70542 0.43629 0.68544
 H1804 H 0.72328 0.45897 0.68872
 H1805 H 0.73516 0.47942 0.70542
 H1806 H 0.70505 0.46557 0.74432
 C1807 C 0.69870 -0.09489 0.19663
 C1808 C 0.70686 -0.08209 0.20366
 C1809 C 0.70100 -0.07499 0.21770
 C1810 C 0.68712 -0.08085 0.22447
 C1811 C 0.67907 -0.09361 0.21741
 C1812 C 0.68473 -0.10080 0.20341
 C1813 C 0.70910 -0.06218 0.22475
 C1814 C 0.72302 -0.05637 0.21794
 C1815 C 0.72889 -0.06347 0.20390
 C1816 C 0.72077 -0.07627 0.19684
 C1817 C 0.74281 -0.05764 0.19715
 C1818 C 0.75087 -0.04491 0.20424
 C1819 C 0.74516 -0.03773 0.21820
 C1820 C 0.73117 -0.04356 0.22497
 H1821 H 0.70329 -0.10014 0.18583
 H1822 H 0.68246 -0.07557 0.23525
 H1823 H 0.66843 -0.09782 0.22302
 H1824 H 0.70459 -0.05674 0.23553
 H1825 H 0.72529 -0.08170 0.18606
 H1826 H 0.74748 -0.06294 0.18639
 H1827 H 0.76160 -0.04068 0.19876
 H1828 H 0.72661 -0.03817 0.23574
 C1829 C 0.19955 0.40358 0.19711
 C1830 C 0.20739 0.41570 0.20544
 C1831 C 0.20004 0.42320 0.21856
 C1832 C 0.18498 0.41835 0.22313
 C1833 C 0.17724 0.40625 0.21475
 C1834 C 0.18440 0.39878 0.20162
 C1835 C 0.20785 0.43542 0.22684
 C1836 C 0.22290 0.44025 0.22213
 C1837 C 0.23024 0.43268 0.20903
 C1838 C 0.22246 0.42045 0.20080
 C1839 C 0.24524 0.43751 0.20431
 C1840 C 0.25291 0.44982 0.21240
 C1841 C 0.24575 0.45751 0.22540
 C1842 C 0.23072 0.45260 0.23024
 H1843 H 0.20536 0.39784 0.18717
 H1844 H 0.17916 0.42396 0.23315
 H1845 H 0.16556 0.40291 0.21848
 H1846 H 0.20220 0.44121 0.23688
 H1847 H 0.22810 0.41468 0.19074
 H1848 H 0.25102 0.43183 0.19430
 H1849 H 0.26447 0.45334 0.20841
 H1850 H 0.22505 0.45844 0.24023
 C1851 C 0.19810 -0.09357 0.69664
 C1852 C 0.20575 -0.08102 0.70463
 C1853 C 0.20133 -0.07717 0.72031
 C1854 C 0.18933 -0.08590 0.72773
 C1855 C 0.18179 -0.09837 0.71973
 C1856 C 0.18606 -0.10240 0.70411
 C1857 C 0.20897 -0.06468 0.72836
 C1858 C 0.22104 -0.05600 0.72092
 C1859 C 0.22546 -0.05984 0.70523
 C1860 C 0.21779 -0.07230 0.69718
 C1861 C 0.23754 -0.05118 0.69784
 C1862 C 0.24523 -0.03887 0.70593
 C1863 C 0.24097 -0.03494 0.72156
 C1864 C 0.22879 -0.04357 0.72897
 H1865 H 0.20160 -0.09640 0.68464
 H1866 H 0.18578 -0.08311 0.73975
 H1867 H 0.17263 -0.10482 0.72592
 H1868 H 0.20556 -0.06176 0.74040
 H1869 H 0.22121 -0.07524 0.68514
 H1870 H 0.24109 -0.05396 0.68582
 H1871 H 0.25454 -0.03243 0.69991
 H1872 H 0.22539 -0.04068 0.74101
 C1873 C 0.30564 0.31113 0.40248
 C1874 C 0.29713 0.30425 0.41505
 C1875 C 0.29863 0.28752 0.41826
 C1876 C 0.30838 0.27793 0.40876
 C1877 C 0.31678 0.28485 0.39630
 C1878 C 0.31565 0.30152 0.39308
 C1879 C 0.29043 0.28063 0.43097
 C1880 C 0.28071 0.29024 0.44052
 C1881 C 0.27901 0.30693 0.43724
 C1882 C 0.28727 0.31385 0.42453
 C1883 C 0.26909 0.31639 0.44676
 C1884 C 0.26096 0.30938 0.45943
 C1885 C 0.26273 0.29283 0.46286
 C1886 C 0.27264 0.28335 0.45331
 H1887 H 0.30462 0.32399 0.40024
 H1888 H 0.30957 0.26507 0.41101
 H1889 H 0.32416 0.27703 0.38920
 H1890 H 0.29166 0.26780 0.43346
 H1891 H 0.28605 0.32668 0.42205
 H1892 H 0.26761 0.32920 0.44441
 H1893 H 0.25337 0.31694 0.46661
 H1894 H 0.27400 0.27053 0.45573
 C1895 C 0.31055 0.80923 -0.07920
 C1896 C 0.30130 0.80407 -0.06639
 C1897 C 0.28765 0.81281 -0.06223
 C1898 C 0.28360 0.82664 -0.07087
 C1899 C 0.29293 0.83175 -0.08355
 C1900 C 0.30645 0.82308 -0.08789
 C1901 C 0.27829 0.80756 -0.04953
 C1902 C 0.28243 0.79371 -0.04091
 C1903 C 0.29617 0.78509 -0.04500
 C1904 C 0.30550 0.79031 -0.05771
 C1905 C 0.30033 0.77132 -0.03634
 C1906 C 0.29092 0.76601 -0.02384
 C1907 C 0.27713 0.77434 -0.01974
 C1908 C 0.27300 0.78827 -0.02831
 H1909 H 0.32103 0.80253 -0.08227
 H1910 H 0.27319 0.83349 -0.06785
 H1911 H 0.28940 0.84239 -0.09008
 H1912 H 0.26778 0.81422 -0.04639
 H1913 H 0.31599 0.78363 -0.06087
 H1914 H 0.31084 0.76459 -0.03930
 H1915 H 0.29440 0.75524 -0.01747
 H1916 H 0.26241 0.79482 -0.02527
 C1917 C 0.81703 0.30060 -0.10470
 C1918 C 0.80728 0.29447 -0.09258
 C1919 C 0.79116 0.29827 -0.09251
 C1920 C 0.78498 0.30777 -0.10461
 C1921 C 0.79469 0.31385 -0.11648
 C1922 C 0.81083 0.31061 -0.11655
 C1923 C 0.78142 0.29268 -0.08030
 C1924 C 0.78752 0.28323 -0.06808
 C1925 C 0.80355 0.27912 -0.06820
 C1926 C 0.81336 0.28481 -0.08042
 C1927 C 0.80946 0.26936 -0.05607
 C1928 C 0.79957 0.26370 -0.04401
 C1929 C 0.78365 0.26790 -0.04373
 C1930 C 0.77774 0.27775 -0.05581
 H1931 H 0.82944 0.29801 -0.10462
 H1932 H 0.77264 0.31065 -0.10482
 H1933 H 0.78948 0.32118 -0.12562
 H1934 H 0.76910 0.29573 -0.08027
 H1935 H 0.82568 0.28177 -0.08044
 H1936 H 0.82169 0.26602 -0.05595
 H1937 H 0.80440 0.25609 -0.03485
 H1938 H 0.76545 0.28089 -0.05583
 C1939 C 0.82035 0.79164 0.41014
 C1940 C 0.81345 0.78645 0.42444
 C1941 C 0.80352 0.79714 0.43292
 C1942 C 0.80086 0.81280 0.42725
 C1943 C 0.80745 0.81770 0.41296
 C1944 C 0.81700 0.80715 0.40414
 C1945 C 0.79595 0.79192 0.44670
 C1946 C 0.79782 0.77600 0.45199
 C1947 C 0.80793 0.76529 0.44383
 C1948 C 0.81584 0.77064 0.43014
 C1949 C 0.80955 0.74930 0.44930
 C1950 C 0.80076 0.74388 0.46233
 C1951 C 0.79028 0.75437 0.47009
 C1952 C 0.78921 0.77053 0.46504
 H1953 H 0.82768 0.78344 0.40336
 H1954 H 0.79336 0.82113 0.43368
 H1955 H 0.80496 0.82980 0.40874
 H1956 H 0.78819 0.80010 0.45303
 H1957 H 0.82344 0.76239 0.42371
 H1958 H 0.81729 0.74091 0.44327
 H1959 H 0.80182 0.73137 0.46604
 H1960 H 0.78130 0.77882 0.47102
 C1961 C 0.68099 0.30411 0.59716
 C1962 C 0.68979 0.29781 0.58447
 C1963 C 0.70576 0.30186 0.58282
 C1964 C 0.71262 0.31218 0.59387
 C1965 C 0.70378 0.31845 0.60642
 C1966 C 0.68789 0.31451 0.60823
 C1967 C 0.71461 0.29547 0.57022
 C1968 C 0.70772 0.28503 0.55924
 C1969 C 0.69171 0.28107 0.56088
 C1970 C 0.68286 0.28751 0.57342
 C1971 C 0.68484 0.27055 0.55003
 C1972 C 0.69375 0.26373 0.53786
 C1973 C 0.70972 0.26737 0.53616
 C1974 C 0.71660 0.27825 0.54681
 H1975 H 0.66873 0.30105 0.59828
 H1976 H 0.72485 0.31539 0.59284
 H1977 H 0.70951 0.32627 0.61480
 H1978 H 0.72688 0.29854 0.56902
 H1979 H 0.67061 0.28440 0.57465
 H1980 H 0.67259 0.26741 0.55108
 H1981 H 0.68813 0.25545 0.52981
 H1982 H 0.72891 0.28109 0.54569
 C1983 C 0.68463 0.82137 1.09905
 C1984 C 0.69022 0.81217 1.08625
 C1985 C 0.68014 0.80124 1.07856
 C1986 C 0.66457 0.79994 1.08361
 C1987 C 0.65911 0.80909 1.09638
 C1988 C 0.66911 0.81974 1.10437
 C1989 C 0.68583 0.79163 1.06612
 C1990 C 0.70149 0.79278 1.06128
 C1991 C 0.71150 0.80393 1.06879
 C1992 C 0.70580 0.81357 1.08119
 C1993 C 0.72711 0.80513 1.06387
 C1994 C 0.73285 0.79524 1.05177
 C1995 C 0.72309 0.78392 1.04438
 C1996 C 0.70736 0.78284 1.04915
 H1997 H 0.69244 0.82966 1.10491
 H1998 H 0.65667 0.79165 1.07783
 H1999 H 0.64713 0.80746 1.10018
 H2000 H 0.67812 0.78315 1.06032
 H2001 H 0.71353 0.82200 1.08704
 H2002 H 0.73493 0.81363 1.06946
 H2003 H 0.74501 0.79634 1.04832
 H2004 H 0.69969 0.77423 1.04350
 C2005 C 0.19081 0.32845 1.09250
 C2006 C 0.19815 0.32175 1.07912
 C2007 C 0.19209 0.30750 1.07230
 C2008 C 0.17867 0.30037 1.07880
 C2009 C 0.17150 0.30704 1.09217
 C2010 C 0.17756 0.32103 1.09932
 C2011 C 0.19967 0.30044 1.05928
 C2012 C 0.21337 0.30735 1.05308
 C2013 C 0.21934 0.32173 1.05973
 C2014 C 0.21163 0.32890 1.07265
 C2015 C 0.23308 0.32851 1.05351
 C2016 C 0.24107 0.32089 1.04108
 C2017 C 0.23541 0.30640 1.03461
 C2018 C 0.22138 0.29985 1.04054
 H2019 H 0.19561 0.33931 1.09766
 H2020 H 0.17384 0.28946 1.07369
 H2021 H 0.16133 0.30099 1.09699
 H2022 H 0.19509 0.28941 1.05415
 H2023 H 0.21629 0.33985 1.07785
 H2024 H 0.23781 0.33955 1.05843
 H2025 H 0.25183 0.32621 1.03673
 H2026 H 0.21685 0.28869 1.03567
 C2027 C 0.18544 0.82345 0.59586
 C2028 C 0.19187 0.81616 0.58230
 C2029 C 0.18575 0.80133 0.57682
 C2030 C 0.17314 0.79420 0.58486
 C2031 C 0.16687 0.80148 0.59841
 C2032 C 0.17304 0.81608 0.60418
 C2033 C 0.19251 0.79374 0.56357
 C2034 C 0.20547 0.80069 0.55589
 C2035 C 0.21144 0.81563 0.56128
 C2036 C 0.20452 0.82333 0.57435
 C2037 C 0.22448 0.82247 0.55373
 C2038 C 0.23186 0.81436 0.54127
 C2039 C 0.22627 0.79933 0.53599
 C2040 C 0.21283 0.79271 0.54318
 H2041 H 0.19024 0.83479 0.59995
 H2042 H 0.16828 0.78285 0.58081
 H2043 H 0.15737 0.79544 0.60449
 H2044 H 0.18791 0.78228 0.55947
 H2045 H 0.20922 0.83472 0.57855
 H2046 H 0.22917 0.83393 0.55768
 H2047 H 0.24214 0.81977 0.53591
 H2048 H 0.20844 0.78110 0.53927
 C2049 C 0.30315 0.70506 0.59105
 C2050 C 0.29752 0.71584 0.57960
 C2051 C 0.30725 0.72836 0.57380
 C2052 C 0.32245 0.72986 0.57954
 C2053 C 0.32797 0.71908 0.59092
 C2054 C 0.31841 0.70658 0.59684
 C2055 C 0.30167 0.73915 0.56235
 C2056 C 0.28648 0.73752 0.55654
 C2057 C 0.27676 0.72497 0.56234
 C2058 C 0.28232 0.71426 0.57385
 C2059 C 0.26164 0.72325 0.55645
 C2060 C 0.25624 0.73374 0.54479
 C2061 C 0.26578 0.74623 0.53885
 C2062 C 0.28089 0.74813 0.54490
 H2063 H 0.29562 0.69546 0.59533
 H2064 H 0.33008 0.73938 0.57525
 H2065 H 0.33972 0.72074 0.59515
 H2066 H 0.30916 0.74873 0.55791
 H2067 H 0.27483 0.70464 0.57827
 H2068 H 0.25404 0.71372 0.56077
 H2069 H 0.24453 0.73201 0.54040
 H2070 H 0.28839 0.75766 0.54037
 C2071 C 0.30889 0.21375 1.09220
 C2072 C 0.30068 0.22195 1.08035
 C2073 C 0.28629 0.21574 1.07505
 C2074 C 0.28032 0.20151 1.08176
 C2075 C 0.28856 0.19341 1.09353
 C2076 C 0.30297 0.19936 1.09887
 C2077 C 0.27813 0.22381 1.06309
 C2078 C 0.28419 0.23801 1.05633
 C2079 C 0.29854 0.24428 1.06169
 C2080 C 0.30669 0.23622 1.07366
 C2081 C 0.30455 0.25848 1.05493
 C2082 C 0.29648 0.26638 1.04291
 C2083 C 0.28224 0.26023 1.03739
 C2084 C 0.27615 0.24602 1.04423
 H2085 H 0.31990 0.21863 1.09611
 H2086 H 0.26929 0.19660 1.07786
 H2087 H 0.28357 0.18244 1.09834
 H2088 H 0.26710 0.21900 1.05901
 H2089 H 0.31772 0.24102 1.07772
 H2090 H 0.31553 0.26346 1.05890
 H2091 H 0.30146 0.27729 1.03787
 H2092 H 0.26517 0.24114 1.04013
 C2093 C 0.79866 0.68338 1.09185
 C2094 C 0.79220 0.69309 1.07991
 C2095 C 0.80215 0.70226 1.06992
 C2096 C 0.81834 0.70126 1.07171
 C2097 C 0.82464 0.69174 1.08365
 C2098 C 0.81491 0.68297 1.09403
 C2099 C 0.79581 0.71252 1.05846
 C2100 C 0.77961 0.71379 1.05684
 C2101 C 0.76960 0.70439 1.06655
 C2102 C 0.77595 0.69409 1.07804
 C2103 C 0.75339 0.70555 1.06465
 C2104 C 0.74717 0.71598 1.05331
 C2105 C 0.75703 0.72558 1.04381
 C2106 C 0.77326 0.72440 1.04565
 H2107 H 0.79104 0.67672 1.09980
 H2108 H 0.82613 0.70808 1.06406
 H2109 H 0.83721 0.69141 1.08485
 H2110 H 0.80349 0.71965 1.05094
 H2111 H 0.76827 0.68703 1.08562
 H2112 H 0.74553 0.69840 1.07194
 H2113 H 0.73461 0.71666 1.05210
 H2114 H 0.78098 0.73161 1.03826
 C2115 C 0.79648 0.18997 0.59496
 C2116 C 0.78933 0.19868 0.58266
 C2117 C 0.79584 0.21353 0.57757
 C2118 C 0.80928 0.21944 0.58486
 C2119 C 0.81630 0.21074 0.59704
 C2120 C 0.81008 0.19588 0.60226
 C2121 C 0.78886 0.22225 0.56528
 C2122 C 0.77538 0.21636 0.55797
 C2123 C 0.76879 0.20155 0.56304
 C2124 C 0.77580 0.19279 0.57535
 C2125 C 0.75527 0.19578 0.55570
 C2126 C 0.74836 0.20457 0.54346
 C2127 C 0.75484 0.21930 0.53827
 C2128 C 0.76840 0.22509 0.54564
 H2129 H 0.79145 0.17856 0.59871
 H2130 H 0.81440 0.23082 0.58113
 H2131 H 0.82662 0.21580 0.60236
 H2132 H 0.79392 0.23363 0.56140
 H2133 H 0.77074 0.18141 0.57922
 H2134 H 0.75003 0.18445 0.55943
 H2135 H 0.73793 0.19981 0.53803
 H2136 H 0.77355 0.23644 0.54184
 C2137 C 0.70688 0.69135 0.40594
 C2138 C 0.71221 0.69948 0.41937
 C2139 C 0.70992 0.71638 0.42081
 C2140 C 0.70214 0.72480 0.40885
 C2141 C 0.69676 0.71658 0.39556
 C2142 C 0.69915 0.69982 0.39394
 C2143 C 0.71555 0.72457 0.43409
 C2144 C 0.72351 0.71608 0.44591
 C2145 C 0.72557 0.69914 0.44453
 C2146 C 0.71986 0.69095 0.43132
 C2147 C 0.73358 0.69066 0.45626
 C2148 C 0.73994 0.69894 0.46900
 C2149 C 0.73832 0.71583 0.47034
 C2150 C 0.72978 0.72431 0.45889
 H2151 H 0.70860 0.67838 0.40495
 H2152 H 0.70027 0.73775 0.40975
 H2153 H 0.69091 0.72342 0.38646
 H2154 H 0.71392 0.73756 0.43513
 H2155 H 0.72157 0.67797 0.43024
 H2156 H 0.73519 0.67767 0.45543
 H2157 H 0.74638 0.69210 0.47771
 H2158 H 0.72851 0.73734 0.45978
 C2159 C 0.69731 0.19734 -0.10531
 C2160 C 0.70312 0.20526 -0.09188
 C2161 C 0.69572 0.21950 -0.08632
 C2162 C 0.68252 0.22540 -0.09408
 C2163 C 0.67683 0.21748 -0.10740
 C2164 C 0.68422 0.20347 -0.11331
 C2165 C 0.70173 0.22774 -0.07323
 C2166 C 0.71510 0.22198 -0.06561
 C2167 C 0.72237 0.20758 -0.07096
 C2168 C 0.71632 0.19929 -0.08404
 C2169 C 0.73568 0.20182 -0.06324
 C2170 C 0.74192 0.21038 -0.05053
 C2171 C 0.73500 0.22490 -0.04530
 C2172 C 0.72145 0.23052 -0.05285
 H2173 H 0.70309 0.18647 -0.10953
 H2174 H 0.67668 0.23628 -0.08996
 H2175 H 0.66680 0.22263 -0.11322
 H2176 H 0.69609 0.23875 -0.06910
 H2177 H 0.72200 0.18833 -0.08822
 H2178 H 0.74137 0.19077 -0.06712
 H2179 H 0.75233 0.20574 -0.04496
 H2180 H 0.71592 0.24164 -0.04891
 C2181 C 0.19238 0.69866 -0.07604
 C2182 C 0.19837 0.70764 -0.06341
 C2183 C 0.19228 0.72321 -0.06010
 C2184 C 0.18022 0.72945 -0.06934
 C2185 C 0.17438 0.72047 -0.08191
 C2186 C 0.18043 0.70504 -0.08550
 C2187 C 0.19844 0.73238 -0.04772
 C2188 C 0.21072 0.72623 -0.03867
 C2189 C 0.21672 0.71061 -0.04187
 C2190 C 0.21047 0.70138 -0.05418
 C2191 C 0.22903 0.70455 -0.03282
 C2192 C 0.23551 0.71398 -0.02087
 C2193 C 0.22976 0.72962 -0.01772
 C2194 C 0.21722 0.73559 -0.02660
 H2195 H 0.19711 0.68675 -0.07849
 H2196 H 0.17542 0.74136 -0.06696
 H2197 H 0.16527 0.72585 -0.08894
 H2198 H 0.19382 0.74436 -0.04526
 H2199 H 0.21515 0.68943 -0.05669
 H2200 H 0.23377 0.69259 -0.03508
 H2201 H 0.24513 0.70905 -0.01420
 H2202 H 0.21267 0.74763 -0.02431
 C2203 C 0.18148 0.20655 0.41322
 C2204 C 0.18892 0.21369 0.42620
 C2205 C 0.19973 0.20451 0.43503
 C2206 C 0.20265 0.18835 0.43103
 C2207 C 0.19533 0.18141 0.41808
 C2208 C 0.18488 0.19046 0.40889
 C2209 C 0.20771 0.21168 0.44752
 C2210 C 0.20523 0.22800 0.45124
 C2211 C 0.19422 0.23719 0.44271
 C2212 C 0.18606 0.22994 0.43026
 C2213 C 0.19183 0.25353 0.44664
 C2214 C 0.20058 0.26079 0.45858
 C2215 C 0.21189 0.25182 0.46675
 C2216 C 0.21391 0.23534 0.46316
 H2217 H 0.17349 0.21369 0.40622
 H2218 H 0.21080 0.18113 0.43776
 H2219 H 0.19795 0.16892 0.41525
 H2220 H 0.21613 0.20465 0.45414
 H2221 H 0.17774 0.23701 0.42356
 H2222 H 0.18339 0.26076 0.44029
 H2223 H 0.19879 0.27350 0.46116
 H2224 H 0.22247 0.22822 0.46948
 C2225 C 0.30746 0.41547 0.70032
 C2226 C 0.30211 0.42837 0.70963
 C2227 C 0.30488 0.42843 0.72605
 C2228 C 0.31340 0.41565 0.73276
 C2229 C 0.31867 0.40274 0.72335
 C2230 C 0.31548 0.40240 0.70710
 C2231 C 0.29882 0.44106 0.73546
 C2232 C 0.28984 0.45344 0.72861
 C2233 C 0.28739 0.45338 0.71210
 C2234 C 0.29366 0.44098 0.70274
 C2235 C 0.27832 0.46549 0.70517
 C2236 C 0.27120 0.47726 0.71452
 C2237 C 0.27315 0.47734 0.73098
 C2238 C 0.28282 0.46561 0.73798
 H2239 H 0.30520 0.41557 0.68775
 H2240 H 0.31572 0.41548 0.74531
 H2241 H 0.32484 0.39283 0.72888
 H2242 H 0.30076 0.44103 0.74810
 H2243 H 0.29158 0.44091 0.69011
 H2244 H 0.27642 0.46564 0.69253
 H2245 H 0.26396 0.48627 0.70884
 H2246 H 0.28434 0.46556 0.75067
 C2247 C 0.30959 0.90790 0.19446
 C2248 C 0.30216 0.92108 0.20183
 C2249 C 0.30777 0.92695 0.21637
 C2250 C 0.32075 0.91952 0.22327
 C2251 C 0.32806 0.90636 0.21588
 C2252 C 0.32257 0.90037 0.20141
 C2253 C 0.30027 0.94008 0.22379
 C2254 C 0.28715 0.94731 0.21689
 C2255 C 0.28157 0.94139 0.20233
 C2256 C 0.28914 0.92838 0.19487
 C2257 C 0.26839 0.94848 0.19552
 C2258 C 0.26065 0.96119 0.20313
 C2259 C 0.26600 0.96717 0.21764
 C2260 C 0.27939 0.96025 0.22440
 H2261 H 0.30520 0.90363 0.18328
 H2262 H 0.32521 0.92383 0.23443
 H2263 H 0.33796 0.90084 0.22163
 H2264 H 0.30457 0.94457 0.23497
 H2265 H 0.28481 0.92386 0.18372
 H2266 H 0.26397 0.94410 0.18437
 H2267 H 0.25041 0.96632 0.19763
 H2268 H 0.28359 0.96470 0.23562
 C2269 C 0.80191 0.39763 0.18365
 C2270 C 0.79604 0.41122 0.19181
 C2271 C 0.80463 0.41797 0.20436
 C2272 C 0.81906 0.41122 0.20835
 C2273 C 0.82477 0.39770 0.20027
 C2274 C 0.81620 0.39059 0.18798
 C2275 C 0.79861 0.43121 0.21288
 C2276 C 0.78399 0.43775 0.20909
 C2277 C 0.77550 0.43115 0.19639
 C2278 C 0.78158 0.41799 0.18781
 C2279 C 0.76093 0.43767 0.19259
 C2280 C 0.75467 0.45041 0.20144
 C2281 C 0.76283 0.45696 0.21429
 C2282 C 0.77763 0.45064 0.21795
 H2283 H 0.79513 0.39231 0.17425
 H2284 H 0.82587 0.41630 0.21785
 H2285 H 0.83595 0.39283 0.20374
 H2286 H 0.80518 0.43625 0.22258
 H2287 H 0.77496 0.41288 0.17817
 H2288 H 0.75428 0.43281 0.18287
 H2289 H 0.74328 0.45503 0.19827
 H2290 H 0.78406 0.45556 0.22780
 C2291 C 0.79934 0.90688 0.69278
 C2292 C 0.79259 0.91988 0.70104
 C2293 C 0.80018 0.92625 0.71440
 C2294 C 0.81437 0.91950 0.71926
 C2295 C 0.82102 0.90655 0.71097
 C2296 C 0.81361 0.90010 0.69764
 C2297 C 0.79346 0.93923 0.72270
 C2298 C 0.77923 0.94590 0.71781
 C2299 C 0.77161 0.93954 0.70446
 C2300 C 0.77835 0.92656 0.69614
 C2301 C 0.75737 0.94627 0.69967
 C2302 C 0.75069 0.95916 0.70807
 C2303 C 0.75816 0.96555 0.72137
 C2304 C 0.77247 0.95883 0.72614
 H2305 H 0.79333 0.90200 0.68267
 H2306 H 0.82035 0.92426 0.72947
 H2307 H 0.83203 0.90170 0.71496
 H2308 H 0.79929 0.94411 0.73296
 H2309 H 0.77252 0.92167 0.68589
 H2310 H 0.75138 0.94154 0.68946
 H2311 H 0.73967 0.96410 0.70415
 H2312 H 0.77838 0.96361 0.73638
 C2313 C 0.68087 0.59197 0.69649
 C2314 C 0.69097 0.58037 0.70291
 C2315 C 0.70218 0.57263 0.69312
 C2316 C 0.70306 0.57661 0.67706
 C2317 C 0.69297 0.58815 0.67076
 C2318 C 0.68178 0.59599 0.68037
 C2319 C 0.71224 0.56098 0.69949
 C2320 C 0.71112 0.55682 0.71551
 C2321 C 0.69989 0.56457 0.72530
 C2322 C 0.68997 0.57635 0.71896
 C2323 C 0.69859 0.56023 0.74124
 C2324 C 0.70806 0.54807 0.74737
 C2325 C 0.71917 0.54016 0.73774
 C2326 C 0.72083 0.54479 0.72185
 H2327 H 0.67228 0.59777 0.70407
 H2328 H 0.71158 0.57082 0.66938
 H2329 H 0.69415 0.59101 0.65835
 H2330 H 0.72081 0.55502 0.69195
 H2331 H 0.68135 0.58225 0.72649
 H2332 H 0.69007 0.56605 0.74891
 H2333 H 0.70663 0.54476 0.75968
 H2334 H 0.72927 0.53867 0.71432
 C2335 C 0.70819 0.09000 0.18232
 C2336 C 0.71447 0.07725 0.19119
 C2337 C 0.70972 0.07505 0.20709
 C2338 C 0.69870 0.08561 0.21380
 C2339 C 0.69256 0.09832 0.20492
 C2340 C 0.69725 0.10071 0.18910
 C2341 C 0.71616 0.06247 0.21606
 C2342 C 0.72747 0.05218 0.20938
 C2343 C 0.73218 0.05436 0.19345
 C2344 C 0.72557 0.06680 0.18444
 C2345 C 0.74362 0.04423 0.18685
 C2346 C 0.75060 0.03225 0.19602
 C2347 C 0.74616 0.03006 0.21191
 C2348 C 0.73439 0.03994 0.21847
 H2349 H 0.71191 0.09151 0.17016
 H2350 H 0.69492 0.08412 0.22597
 H2351 H 0.68422 0.10631 0.21058
 H2352 H 0.71255 0.06083 0.22827
 H2353 H 0.72924 0.06848 0.17224
 H2354 H 0.74734 0.04572 0.17466
 H2355 H 0.75958 0.02475 0.19066
 H2356 H 0.73093 0.03840 0.23073
 C2357 C 0.20062 0.57596 0.18580
 C2358 C 0.20804 0.56388 0.19466
 C2359 C 0.20024 0.55702 0.20784
 C2360 C 0.18510 0.56215 0.21177
 C2361 C 0.17784 0.57425 0.20295
 C2362 C 0.18557 0.58144 0.19000
 C2363 C 0.20776 0.54531 0.21702
 C2364 C 0.22303 0.54044 0.21325
 C2365 C 0.23079 0.54710 0.19995
 C2366 C 0.22322 0.55875 0.19070
 C2367 C 0.24607 0.54210 0.19626
 C2368 C 0.25365 0.53076 0.20579
 C2369 C 0.24610 0.52427 0.21917
 C2370 C 0.23072 0.52911 0.22273
 H2371 H 0.20671 0.58115 0.17574
 H2372 H 0.17895 0.55698 0.22182
 H2373 H 0.16629 0.57815 0.20655
 H2374 H 0.20180 0.54015 0.22720
 H2375 H 0.22921 0.56398 0.18056
 H2376 H 0.25218 0.54705 0.18609
 H2377 H 0.26549 0.52721 0.20278
 H2378 H 0.22470 0.52413 0.23296
 C2379 C 0.19716 0.08948 0.69143
 C2380 C 0.20703 0.07707 0.69686
 C2381 C 0.22019 0.07239 0.68771
 C2382 C 0.22320 0.08006 0.67326
 C2383 C 0.21333 0.09231 0.66792
 C2384 C 0.20023 0.09720 0.67690
 C2385 C 0.23017 0.06015 0.69313
 C2386 C 0.22719 0.05246 0.70761
 C2387 C 0.21396 0.05702 0.71672
 C2388 C 0.20397 0.06929 0.71130
 C2389 C 0.21097 0.04926 0.73114
 C2390 C 0.22103 0.03720 0.73657
 C2391 C 0.23431 0.03264 0.72770
 C2392 C 0.23727 0.04033 0.71315
 H2393 H 0.18708 0.09302 0.69844
 H2394 H 0.23324 0.07666 0.66611
 H2395 H 0.21620 0.09809 0.65681
 H2396 H 0.24029 0.05666 0.68610
 H2397 H 0.19387 0.07280 0.71834
 H2398 H 0.20088 0.05256 0.73827
 H2399 H 0.21843 0.03151 0.74782
 H2400 H 0.24744 0.03694 0.70617
 C2401 C 0.31026 0.59351 0.30566
 C2402 C 0.30296 0.58021 0.29847
 C2403 C 0.28692 0.57728 0.30139
 C2404 C 0.27842 0.58774 0.31122
 C2405 C 0.28573 0.60088 0.31830
 C2406 C 0.30174 0.60386 0.31576
 C2407 C 0.27960 0.56393 0.29448
 C2408 C 0.28807 0.55344 0.28461
 C2409 C 0.30406 0.55641 0.28151
 C2410 C 0.31143 0.56975 0.28849
 C2411 C 0.31239 0.54598 0.27143
 C2412 C 0.30495 0.53277 0.26447
 C2413 C 0.28907 0.52966 0.26758
 C2414 C 0.28073 0.54006 0.27773
 H2415 H 0.32259 0.59558 0.30358
 H2416 H 0.26610 0.58573 0.31348
 H2417 H 0.27872 0.60871 0.32575
 H2418 H 0.26731 0.56169 0.29680
 H2419 H 0.32371 0.57199 0.28617
 H2420 H 0.32465 0.54806 0.26888
 H2421 H 0.31164 0.52494 0.25669
 H2422 H 0.26845 0.53788 0.28012
 C2423 C 0.30985 0.09493 0.80763
 C2424 C 0.30286 0.08121 0.80097
 C2425 C 0.28995 0.07389 0.80865
 C2426 C 0.28437 0.08032 0.82294
 C2427 C 0.29138 0.09400 0.82947
 C2428 C 0.30412 0.10154 0.82188
 C2429 C 0.28275 0.06036 0.80187
 C2430 C 0.28823 0.05411 0.78743
 C2431 C 0.30122 0.06137 0.77982
 C2432 C 0.30848 0.07483 0.78665
 C2433 C 0.30665 0.05515 0.76538
 C2434 C 0.29914 0.04203 0.75840
 C2435 C 0.28608 0.03481 0.76573
 C2436 C 0.28079 0.04085 0.78038
 H2437 H 0.31960 0.10055 0.80152
 H2438 H 0.27453 0.07484 0.82902
 H2439 H 0.28673 0.09860 0.84051
 H2440 H 0.27279 0.05481 0.80774
 H2441 H 0.31839 0.08043 0.78074
 H2442 H 0.31661 0.06054 0.75940
 H2443 H 0.30350 0.03763 0.74714
 H2444 H 0.27073 0.03543 0.78617
 C2445 C 0.80026 0.59063 0.81929
 C2446 C 0.79129 0.57812 0.81294
 C2447 C 0.77536 0.57663 0.81722
 C2448 C 0.76878 0.58758 0.82805
 C2449 C 0.77779 0.60011 0.83427
 C2450 C 0.79356 0.60187 0.82979
 C2451 C 0.76625 0.56446 0.81035
 C2452 C 0.77284 0.55397 0.79906
 C2453 C 0.78886 0.55540 0.79501
 C2454 C 0.79799 0.56732 0.80210
 C2455 C 0.79543 0.54517 0.78359
 C2456 C 0.78613 0.53401 0.77577
 C2457 C 0.77014 0.53268 0.77939
 C2458 C 0.76360 0.54243 0.79135
 H2459 H 0.81245 0.59164 0.81592
 H2460 H 0.75659 0.58664 0.83150
 H2461 H 0.77229 0.60860 0.84231
 H2462 H 0.75398 0.56342 0.81349
 H2463 H 0.81023 0.56848 0.79884
 H2464 H 0.80769 0.54607 0.78041
 H2465 H 0.79145 0.52650 0.76671
 H2466 H 0.75125 0.54152 0.79415
 C2467 C 0.81322 0.09453 0.30163
 C2468 C 0.80587 0.08128 0.29445
 C2469 C 0.79159 0.07544 0.30069
 C2470 C 0.78493 0.08293 0.31399
 C2471 C 0.79230 0.09611 0.32106
 C2472 C 0.80652 0.10211 0.31500
 C2473 C 0.78418 0.06225 0.29352
 C2474 C 0.79086 0.05483 0.28014
 C2475 C 0.80516 0.06065 0.27390
 C2476 C 0.81258 0.07382 0.28111
 C2477 C 0.81176 0.05322 0.26051
 C2478 C 0.80424 0.04021 0.25330
 C2479 C 0.78999 0.03433 0.25936
 C2480 C 0.78341 0.04172 0.27286
 H2481 H 0.82413 0.09887 0.29670
 H2482 H 0.77398 0.07861 0.31893
 H2483 H 0.78677 0.10156 0.33129
 H2484 H 0.77321 0.05779 0.29831
 H2485 H 0.82355 0.07829 0.27630
 H2486 H 0.82271 0.05752 0.25558
 H2487 H 0.80958 0.03476 0.24294
 H2488 H 0.77242 0.03736 0.27768
 C2489 C 0.69315 0.39958 0.30814
 C2490 C 0.69917 0.41115 0.29745
 C2491 C 0.69264 0.41260 0.28221
 C2492 C 0.68047 0.40237 0.27781
 C2493 C 0.67445 0.39112 0.28850
 C2494 C 0.68051 0.38975 0.30383
 C2495 C 0.69820 0.42441 0.27166
 C2496 C 0.71017 0.43492 0.27611
 C2497 C 0.71689 0.43339 0.29124
 C2498 C 0.71137 0.42151 0.30180
 C2499 C 0.72896 0.44384 0.29557
 C2500 C 0.73431 0.45571 0.28507
 C2501 C 0.72761 0.45747 0.27005
 C2502 C 0.71551 0.44699 0.26566
 H2503 H 0.69788 0.39865 0.31993
 H2504 H 0.67542 0.40322 0.26615
 H2505 H 0.66492 0.38349 0.28472
 H2506 H 0.69307 0.42552 0.26004
 H2507 H 0.71645 0.42045 0.31344
 H2508 H 0.73428 0.44287 0.30709
 H2509 H 0.74364 0.46363 0.28878
 H2510 H 0.71033 0.44813 0.25408
 C2511 C 0.69006 0.90617 0.80705
 C2512 C 0.69818 0.91961 0.80114
 C2513 C 0.71420 0.92155 0.80450
 C2514 C 0.72171 0.91012 0.81407
 C2515 C 0.71348 0.89679 0.82002
 C2516 C 0.69765 0.89460 0.81639
 C2517 C 0.72245 0.93474 0.79808
 C2518 C 0.71486 0.94593 0.78828
 C2519 C 0.69874 0.94409 0.78526
 C2520 C 0.69051 0.93101 0.79175
 C2521 C 0.69112 0.95515 0.77547
 C2522 C 0.69945 0.96763 0.76826
 C2523 C 0.71557 0.96940 0.77076
 C2524 C 0.72316 0.95870 0.78110
 H2525 H 0.67778 0.90478 0.80441
 H2526 H 0.73397 0.91141 0.81683
 H2527 H 0.71960 0.88802 0.82718
 H2528 H 0.73479 0.93613 0.80048
 H2529 H 0.67820 0.92955 0.78925
 H2530 H 0.67876 0.95395 0.77312
 H2531 H 0.69328 0.97577 0.76046
 H2532 H 0.73559 0.95992 0.78308
 C2533 C 0.19467 0.40840 0.80406
 C2534 C 0.20038 0.42207 0.79599
 C2535 C 0.19677 0.42442 0.77990
 C2536 C 0.18740 0.41304 0.77220
 C2537 C 0.18179 0.39942 0.78031
 C2538 C 0.18540 0.39688 0.79631
 C2539 C 0.20270 0.43800 0.77178
 C2540 C 0.21231 0.44918 0.77953
 C2541 C 0.21581 0.44677 0.79567
 C2542 C 0.20977 0.43333 0.80379
 C2543 C 0.22552 0.45772 0.80344
 C2544 C 0.23199 0.47078 0.79529
 C2545 C 0.22880 0.47334 0.77921
 C2546 C 0.21873 0.46258 0.77142
 H2547 H 0.19750 0.40682 0.81639
 H2548 H 0.18450 0.41460 0.75987
 H2549 H 0.17475 0.39082 0.77392
 H2550 H 0.19998 0.43975 0.75941
 H2551 H 0.21255 0.43153 0.81614
 H2552 H 0.22829 0.45606 0.81580
 H2553 H 0.23961 0.47890 0.80163
 H2554 H 0.21625 0.46437 0.75901
 C2555 C 0.18961 0.90986 0.30429
 C2556 C 0.19491 0.92266 0.29471
 C2557 C 0.18666 0.92681 0.28090
 C2558 C 0.17316 0.91823 0.27703
 C2559 C 0.16797 0.90552 0.28659
 C2560 C 0.17617 0.90104 0.30026
 C2561 C 0.19209 0.93935 0.27111
 C2562 C 0.20573 0.94780 0.27491
 C2563 C 0.21390 0.94378 0.28881
 C2564 C 0.20844 0.93127 0.29863
 C2565 C 0.22751 0.95226 0.29259
 C2566 C 0.23309 0.96447 0.28262
 C2567 C 0.22518 0.96847 0.26866
 C2568 C 0.21141 0.96011 0.26495
 H2569 H 0.19610 0.90670 0.31475
 H2570 H 0.16665 0.92128 0.26653
 H2571 H 0.15753 0.89918 0.28310
 H2572 H 0.18578 0.94243 0.26048
 H2573 H 0.21478 0.92815 0.30923
 H2574 H 0.23391 0.94938 0.30321
 H2575 H 0.24371 0.97071 0.28581
 H2576 H 0.20518 0.96307 0.25424
 C2577 C 0.39878 0.30293 0.69368
 C2578 C 0.41127 0.29297 0.69812
 C2579 C 0.41192 0.27672 0.69291
 C2580 C 0.40012 0.27082 0.68311
 C2581 C 0.38773 0.28086 0.67868
 C2582 C 0.38688 0.29696 0.68403
 C2583 C 0.42426 0.26666 0.69771
 C2584 C 0.43588 0.27267 0.70772
 C2585 C 0.43524 0.28903 0.71268
 C2586 C 0.42302 0.29906 0.70780
 C2587 C 0.44670 0.29509 0.72270
 C2588 C 0.45846 0.28498 0.72819
 C2589 C 0.45913 0.26860 0.72369
 C2590 C 0.44795 0.26256 0.71317
 H2591 H 0.39844 0.31538 0.69770
 H2592 H 0.40040 0.25841 0.67897
 H2593 H 0.37869 0.27592 0.67127
 H2594 H 0.42469 0.25415 0.69385
 H2595 H 0.42253 0.31155 0.71174
 H2596 H 0.44641 0.30761 0.72653
 H2597 H 0.46700 0.28999 0.73616
 H2598 H 0.44833 0.24994 0.70967
 C2599 C 0.42020 0.81336 0.20987
 C2600 C 0.43261 0.80411 0.21590
 C2601 C 0.44239 0.79532 0.20539
 C2602 C 0.43992 0.79624 0.18911
 C2603 C 0.42750 0.80525 0.18325
 C2604 C 0.41734 0.81362 0.19353
 C2605 C 0.45425 0.78543 0.21129
 C2606 C 0.45643 0.78401 0.22759
 C2607 C 0.44699 0.79305 0.23817
 C2608 C 0.43515 0.80311 0.23225
 C2609 C 0.44942 0.79162 0.25449
 C2610 C 0.46086 0.78108 0.26024
 C2611 C 0.46995 0.77171 0.24978
 C2612 C 0.46777 0.77342 0.23344
 H2613 H 0.41242 0.81972 0.21791
 H2614 H 0.44739 0.78969 0.18091
 H2615 H 0.42576 0.80550 0.17061
 H2616 H 0.46158 0.77854 0.20319
 H2617 H 0.42773 0.80987 0.24036
 H2618 H 0.44236 0.79850 0.26280
 H2619 H 0.46236 0.77999 0.27289
 H2620 H 0.47484 0.76641 0.22524
 C2621 C 0.91010 0.28589 0.18336
 C2622 C 0.92292 0.27915 0.19122
 C2623 C 0.92863 0.28665 0.20500
 C2624 C 0.92153 0.30086 0.21057
 C2625 C 0.90876 0.30746 0.20272
 C2626 C 0.90280 0.30002 0.18911
 C2627 C 0.94123 0.27977 0.21307
 C2628 C 0.94816 0.26541 0.20758
 C2629 C 0.94254 0.25797 0.19372
 C2630 C 0.92999 0.26490 0.18561
 C2631 C 0.94948 0.24362 0.18828
 C2632 C 0.96174 0.23656 0.19658
 C2633 C 0.96733 0.24373 0.21048
 C2634 C 0.96052 0.25826 0.21584
 H2635 H 0.90567 0.27991 0.17296
 H2636 H 0.92579 0.30681 0.22108
 H2637 H 0.90358 0.31844 0.20738
 H2638 H 0.94554 0.28550 0.22369
 H2639 H 0.92563 0.25913 0.17502
 H2640 H 0.94533 0.23777 0.17767
 H2641 H 0.96676 0.22539 0.19217
 H2642 H 0.96470 0.26394 0.22653
 C2643 C 0.90397 0.80528 0.70269
 C2644 C 0.91585 0.79553 0.70901
 C2645 C 0.91891 0.78010 0.70242
 C2646 C 0.91004 0.77467 0.68970
 C2647 C 0.89830 0.78442 0.68347
 C2648 C 0.89515 0.79984 0.68982
 C2649 C 0.93078 0.77034 0.70861
 C2650 C 0.93971 0.77580 0.72132
 C2651 C 0.93667 0.79122 0.72795
 C2652 C 0.92477 0.80098 0.72176
 C2653 C 0.94563 0.79662 0.74065
 C2654 C 0.95748 0.78686 0.74674
 C2655 C 0.96063 0.77151 0.74025
 C2656 C 0.95165 0.76607 0.72750
 H2657 H 0.90178 0.81714 0.70769
 H2658 H 0.91218 0.76285 0.68454
 H2659 H 0.89163 0.77973 0.67372
 H2660 H 0.93309 0.75852 0.70352
 H2661 H 0.92247 0.81281 0.72685
 H2662 H 0.94348 0.80839 0.74589
 H2663 H 0.96419 0.79138 0.75656
 H2664 H 0.95392 0.75427 0.72237
 C2665 C 0.58597 0.29974 0.30297
 C2666 C 0.57483 0.29532 0.29170
 C2667 C 0.56497 0.30726 0.28513
 C2668 C 0.56621 0.32334 0.29018
 C2669 C 0.57734 0.32765 0.30134
 C2670 C 0.58750 0.31598 0.30768
 C2671 C 0.55409 0.30296 0.27359
 C2672 C 0.55284 0.28682 0.26861
 C2673 C 0.56255 0.27484 0.27536
 C2674 C 0.57354 0.27918 0.28677
 C2675 C 0.56099 0.25865 0.27071
 C2676 C 0.54975 0.25431 0.25970
 C2677 C 0.54008 0.26609 0.25288
 C2678 C 0.54182 0.28240 0.25721
 H2679 H 0.59373 0.29060 0.30766
 H2680 H 0.55867 0.33264 0.28539
 H2681 H 0.57805 0.34021 0.30489
 H2682 H 0.54658 0.31215 0.26853
 H2683 H 0.58103 0.26998 0.29185
 H2684 H 0.56830 0.24931 0.27578
 H2685 H 0.54856 0.24167 0.25653
 H2686 H 0.53422 0.29150 0.25216
 C2687 C 0.58924 0.80357 0.81176
 C2688 C 0.57658 0.79765 0.80312
 C2689 C 0.57550 0.80106 0.78680
 C2690 C 0.58702 0.81058 0.77948
 C2691 C 0.59961 0.81644 0.78818
 C2692 C 0.60094 0.81288 0.80437
 C2693 C 0.56304 0.79474 0.77806
 C2694 C 0.55174 0.78492 0.78544
 C2695 C 0.55278 0.78173 0.80182
 C2696 C 0.56510 0.78818 0.81055
 C2697 C 0.54163 0.77185 0.80920
 C2698 C 0.52979 0.76479 0.80040
 C2699 C 0.52873 0.76756 0.78405
 C2700 C 0.53961 0.77792 0.77667
 H2701 H 0.58993 0.80090 0.82426
 H2702 H 0.58640 0.81335 0.76699
 H2703 H 0.60844 0.82350 0.78211
 H2704 H 0.56230 0.79724 0.76552
 H2705 H 0.56591 0.78559 0.82308
 H2706 H 0.54223 0.76934 0.82174
 H2707 H 0.52152 0.75697 0.80642
 H2708 H 0.53895 0.78009 0.76406
 C2709 C 0.09931 0.29598 0.79846
 C2710 C 0.08676 0.28634 0.79361
 C2711 C 0.08839 0.26931 0.79307
 C2712 C 0.10248 0.26221 0.79777
 C2713 C 0.11488 0.27190 0.80276
 C2714 C 0.11346 0.28886 0.80301
 C2715 C 0.07599 0.25971 0.78767
 C2716 C 0.06204 0.26697 0.78268
 C2717 C 0.06039 0.28402 0.78358
 C2718 C 0.07268 0.29354 0.78912
 C2719 C 0.04663 0.29137 0.77844
 C2720 C 0.03490 0.28208 0.77173
 C2721 C 0.03653 0.26522 0.77027
 C2722 C 0.04994 0.25760 0.77621
 H2723 H 0.09798 0.30903 0.79884
 H2724 H 0.10397 0.24918 0.79749
 H2725 H 0.12567 0.26609 0.80617
 H2726 H 0.07733 0.24666 0.78704
 H2727 H 0.07142 0.30661 0.78960
 H2728 H 0.04515 0.30439 0.77912
 H2729 H 0.02463 0.28815 0.76726
 H2730 H 0.05133 0.24462 0.77493
 C2731 C 0.08927 0.80465 0.30464
 C2732 C 0.07672 0.79514 0.29955
 C2733 C 0.07319 0.78047 0.30742
 C2734 C 0.08207 0.77574 0.32044
 C2735 C 0.09458 0.78523 0.32538
 C2736 C 0.09846 0.79966 0.31743
 C2737 C 0.06100 0.77067 0.30203
 C2738 C 0.05238 0.77527 0.28876
 C2739 C 0.05577 0.79006 0.28103
 C2740 C 0.06788 0.79992 0.28650
 C2741 C 0.04714 0.79464 0.26779
 C2742 C 0.03543 0.78456 0.26207
 C2743 C 0.03211 0.76968 0.26946
 C2744 C 0.04057 0.76519 0.28294
 H2745 H 0.09208 0.81568 0.29831
 H2746 H 0.07946 0.76460 0.32669
 H2747 H 0.10125 0.78116 0.33541
 H2748 H 0.05838 0.75935 0.30800
 H2749 H 0.07055 0.81118 0.28046
 H2750 H 0.04955 0.80596 0.26176
 H2751 H 0.02909 0.78835 0.25170
 H2752 H 0.03810 0.75379 0.28879
 C2753 C 0.59112 0.69030 0.70093
 C2754 C 0.57825 0.69857 0.70752
 C2755 C 0.57289 0.71298 0.70035
 C2756 C 0.58048 0.71888 0.68680
 C2757 C 0.59324 0.71060 0.68032
 C2758 C 0.59872 0.69620 0.68724
 C2759 C 0.56004 0.72127 0.70680
 C2760 C 0.55246 0.71538 0.72039
 C2761 C 0.55777 0.70102 0.72764
 C2762 C 0.57064 0.69268 0.72115
 C2763 C 0.55014 0.69529 0.74129
 C2764 C 0.53741 0.70377 0.74774
 C2765 C 0.53205 0.71808 0.74061
 C2766 C 0.53966 0.72375 0.72687
 H2767 H 0.59516 0.67931 0.70655
 H2768 H 0.57652 0.72991 0.68116
 H2769 H 0.59869 0.71551 0.66980
 H2770 H 0.55596 0.73232 0.70125
 H2771 H 0.57473 0.68164 0.72671
 H2772 H 0.55405 0.68430 0.74703
 H2773 H 0.53179 0.69914 0.75833
 H2774 H 0.53572 0.73480 0.72123
 C2775 C 0.59575 0.19327 0.16739
 C2776 C 0.58181 0.19873 0.17448
 C2777 C 0.57437 0.18918 0.18621
 C2778 C 0.58072 0.17414 0.19030
 C2779 C 0.59468 0.16891 0.18337
 C2780 C 0.60250 0.17856 0.17212
 C2781 C 0.56101 0.19501 0.19403
 C2782 C 0.55516 0.21044 0.19052
 C2783 C 0.56234 0.21983 0.17851
 C2784 C 0.57553 0.21386 0.17046
 C2785 C 0.55651 0.23528 0.17510
 C2786 C 0.54407 0.24163 0.18390
 C2787 C 0.53717 0.23263 0.19624
 C2788 C 0.54256 0.21685 0.19922
 H2789 H 0.60169 0.20084 0.15877
 H2790 H 0.57510 0.16660 0.19916
 H2791 H 0.59945 0.15737 0.18701
 H2792 H 0.55548 0.18778 0.20320
 H2793 H 0.58119 0.22119 0.16145
 H2794 H 0.56181 0.24262 0.16589
 H2795 H 0.54010 0.25379 0.18128
 H2796 H 0.53733 0.20976 0.20866
 C2797 C 0.09039 0.68378 0.18981
 C2798 C 0.07805 0.68986 0.19916
 C2799 C 0.07370 0.68173 0.21324
 C2800 C 0.08163 0.66764 0.21766
 C2801 C 0.09379 0.66162 0.20827
 C2802 C 0.09834 0.66961 0.19429
 C2803 C 0.06152 0.68781 0.22271
 C2804 C 0.05354 0.70190 0.21827
 C2805 C 0.05775 0.70997 0.20413
 C2806 C 0.07000 0.70392 0.19467
 C2807 C 0.04965 0.72400 0.19971
 C2808 C 0.03758 0.73004 0.20927
 C2809 C 0.03341 0.72220 0.22345
 C2810 C 0.04145 0.70807 0.22783
 H2811 H 0.09367 0.69000 0.17901
 H2812 H 0.07846 0.66127 0.22842
 H2813 H 0.09977 0.65081 0.21217
 H2814 H 0.05826 0.68158 0.23354
 H2815 H 0.07326 0.71016 0.18385
 H2816 H 0.05269 0.73033 0.18890
 H2817 H 0.03161 0.74096 0.20561
 H2818 H 0.03834 0.70187 0.23870
 C2819 C 0.10456 0.19065 0.69519
 C2820 C 0.09141 0.19943 0.70038
 C2821 C 0.09179 0.21656 0.70051
 C2822 C 0.10533 0.22460 0.69544
 C2823 C 0.11829 0.21579 0.69015
 C2824 C 0.11804 0.19877 0.68990
 C2825 C 0.07867 0.22536 0.70571
 C2826 C 0.06518 0.21726 0.71089
 C2827 C 0.06481 0.20013 0.71070
 C2828 C 0.07786 0.19134 0.70538
 C2829 C 0.05146 0.19200 0.71613
 C2830 C 0.03880 0.20072 0.72218
 C2831 C 0.03908 0.21773 0.72267
 C2832 C 0.05219 0.22598 0.71667
 H2833 H 0.10415 0.17754 0.69491
 H2834 H 0.10587 0.23771 0.69550
 H2835 H 0.12856 0.22237 0.68629
 H2836 H 0.07903 0.23849 0.70587
 H2837 H 0.07754 0.17821 0.70529
 H2838 H 0.05096 0.17889 0.71604
 H2839 H 0.02880 0.19411 0.72672
 H2840 H 0.05257 0.23909 0.71720
 C2841 C 0.40448 0.68437 0.31522
 C2842 C 0.41872 0.69142 0.31042
 C2843 C 0.42673 0.70175 0.32089
 C2844 C 0.42057 0.70466 0.33599
 C2845 C 0.40642 0.69773 0.34062
 C2846 C 0.39810 0.68767 0.33028
 C2847 C 0.44066 0.70922 0.31606
 C2848 C 0.44665 0.70668 0.30080
 C2849 C 0.43883 0.69619 0.29034
 C2850 C 0.42494 0.68855 0.29524
 C2851 C 0.44491 0.69378 0.27507
 C2852 C 0.45837 0.70200 0.27008
 C2853 C 0.46603 0.71274 0.28028
 C2854 C 0.46019 0.71479 0.29574
 H2855 H 0.39822 0.67670 0.30708
 H2856 H 0.42662 0.71246 0.34419
 H2857 H 0.40203 0.70029 0.35238
 H2858 H 0.44668 0.71725 0.32409
 H2859 H 0.41886 0.68063 0.28717
 H2860 H 0.43912 0.68576 0.26690
 H2861 H 0.46260 0.70018 0.25811
 H2862 H 0.46595 0.72300 0.30377
 C2863 C 0.39998 0.18942 0.80742
 C2864 C 0.41254 0.19753 0.80017
 C2865 C 0.41758 0.21257 0.80621
 C2866 C 0.40999 0.21923 0.81942
 C2867 C 0.39747 0.21112 0.82653
 C2868 C 0.39228 0.19615 0.82063
 C2869 C 0.43005 0.22077 0.79893
 C2870 C 0.43750 0.21415 0.78559
 C2871 C 0.43246 0.19908 0.77956
 C2872 C 0.42006 0.19085 0.78691
 C2873 C 0.43984 0.19253 0.76619
 C2874 C 0.45200 0.20087 0.75874
 C2875 C 0.45710 0.21589 0.76456
 C2876 C 0.44983 0.22242 0.77809
 H2877 H 0.39627 0.17789 0.80272
 H2878 H 0.41367 0.23076 0.82420
 H2879 H 0.39184 0.21676 0.83660
 H2880 H 0.43387 0.23232 0.80356
 H2881 H 0.41621 0.17932 0.78225
 H2882 H 0.43614 0.18100 0.76142
 H2883 H 0.45741 0.19552 0.74836
 H2884 H 0.45362 0.23400 0.78267
 C2885 C 0.90252 0.69225 0.81987
 C2886 C 0.91531 0.69716 0.81053
 C2887 C 0.91735 0.69071 0.79518
 C2888 C 0.90666 0.67936 0.78950
 C2889 C 0.89397 0.67456 0.79884
 C2890 C 0.89169 0.68097 0.81409
 C2891 C 0.92991 0.69581 0.78568
 C2892 C 0.94042 0.70742 0.79127
 C2893 C 0.93849 0.71378 0.80667
 C2894 C 0.92600 0.70856 0.81623
 C2895 C 0.94896 0.72547 0.81216
 C2896 C 0.96101 0.73109 0.80236
 C2897 C 0.96291 0.72504 0.78694
 C2898 C 0.95267 0.71300 0.78156
 H2899 H 0.90106 0.69721 0.83163
 H2900 H 0.90803 0.67430 0.77776
 H2901 H 0.88584 0.66597 0.79393
 H2902 H 0.93139 0.69092 0.77387
 H2903 H 0.92447 0.71352 0.82801
 H2904 H 0.94768 0.73046 0.82393
 H2905 H 0.96875 0.74034 0.80683
 H2906 H 0.95395 0.70826 0.76968
 C2907 C 0.90885 0.17893 0.30280
 C2908 C 0.92221 0.18542 0.29543
 C2909 C 0.92893 0.19975 0.30141
 C2910 C 0.92232 0.20724 0.31471
 C2911 C 0.90902 0.20076 0.32193
 C2912 C 0.90203 0.18662 0.31603
 C2913 C 0.94203 0.20651 0.29391
 C2914 C 0.94846 0.19921 0.28039
 C2915 C 0.94190 0.18478 0.27445
 C2916 C 0.92884 0.17792 0.28206
 C2917 C 0.94839 0.17761 0.26087
 C2918 C 0.96104 0.18485 0.25306
 C2919 C 0.96746 0.19936 0.25873
 C2920 C 0.96119 0.20633 0.27256
 H2921 H 0.90376 0.16800 0.29808
 H2922 H 0.92735 0.21821 0.31946
 H2923 H 0.90420 0.20703 0.33206
 H2924 H 0.94709 0.21758 0.29846
 H2925 H 0.92373 0.16691 0.27745
 H2926 H 0.94354 0.16653 0.25617
 H2927 H 0.96565 0.17922 0.24244
 H2928 H 0.96601 0.21750 0.27710
 C2929 C 0.29994 0.31866 0.59246
 C2930 C 0.29098 0.31492 0.57918
 C2931 C 0.27615 0.32215 0.57728
 C2932 C 0.27065 0.33320 0.58861
 C2933 C 0.27964 0.33684 0.60182
 C2934 C 0.29430 0.32950 0.60397
 C2935 C 0.26698 0.31805 0.56424
 C2936 C 0.27240 0.30665 0.55317
 C2937 C 0.28733 0.29958 0.55501
 C2938 C 0.29655 0.30384 0.56792
 C2939 C 0.29267 0.28806 0.54409
 C2940 C 0.28315 0.28320 0.53172
 C2941 C 0.26816 0.28987 0.52990
 C2942 C 0.26297 0.30186 0.54052
 H2943 H 0.31129 0.31306 0.59378
 H2944 H 0.25932 0.33888 0.58735
 H2945 H 0.27492 0.34518 0.61050
 H2946 H 0.25554 0.32349 0.56286
 H2947 H 0.30794 0.29830 0.56937
 H2948 H 0.30409 0.28257 0.54531
 H2949 H 0.28746 0.27400 0.52366
 H2950 H 0.25140 0.30702 0.53929
 C2951 C 0.31188 0.81465 0.10210
 C2952 C 0.30473 0.80581 0.08997
 C2953 C 0.31064 0.79038 0.08580
 C2954 C 0.32354 0.78406 0.09372
 C2955 C 0.33056 0.79289 0.10571
 C2956 C 0.32486 0.80825 0.11006
 C2957 C 0.30355 0.78142 0.07384
 C2958 C 0.29058 0.78765 0.06594
 C2959 C 0.28464 0.80309 0.06997
 C2960 C 0.29177 0.81211 0.08196
 C2961 C 0.27162 0.80918 0.06197
 C2962 C 0.26449 0.79999 0.05018
 C2963 C 0.27028 0.78457 0.04619
 C2964 C 0.28340 0.77854 0.05411
 H2965 H 0.30740 0.82650 0.10522
 H2966 H 0.32817 0.77222 0.09069
 H2967 H 0.34036 0.78747 0.11169
 H2968 H 0.30809 0.76956 0.07072
 H2969 H 0.28721 0.82395 0.08510
 H2970 H 0.26690 0.82101 0.06487
 H2971 H 0.25440 0.80493 0.04427
 H2972 H 0.28801 0.76668 0.05118
 C2973 C 0.80711 0.30401 0.08551
 C2974 C 0.80130 0.29551 0.07237
 C2975 C 0.80623 0.27940 0.06955
 C2976 C 0.81678 0.27205 0.07982
 C2977 C 0.82252 0.28054 0.09274
 C2978 C 0.81787 0.29661 0.09574
 C2979 C 0.80055 0.27084 0.05652
 C2980 C 0.78995 0.27811 0.04620
 C2981 C 0.78497 0.29420 0.04894
 C2982 C 0.79069 0.30282 0.06199
 C2983 C 0.77428 0.30135 0.03861
 C2984 C 0.76845 0.29261 0.02580
 C2985 C 0.77326 0.27655 0.02301
 C2986 C 0.78413 0.26944 0.03326
 H2987 H 0.80344 0.31638 0.08760
 H2988 H 0.82061 0.25969 0.07788
 H2989 H 0.83052 0.27433 0.10046
 H2990 H 0.80436 0.25848 0.05445
 H2991 H 0.78685 0.31516 0.06409
 H2992 H 0.77031 0.31367 0.04049
 H2993 H 0.76009 0.29841 0.01813
 H2994 H 0.78791 0.25706 0.03132
 C2995 C 0.81619 0.80461 0.59079
 C2996 C 0.80795 0.79795 0.57817
 C2997 C 0.79461 0.80595 0.57234
 C2998 C 0.78990 0.82065 0.57915
 C2999 C 0.79810 0.82716 0.59184
 C3000 C 0.81123 0.81911 0.59795
 C3001 C 0.78609 0.79899 0.56001
 C3002 C 0.79066 0.78402 0.55361
 C3003 C 0.80412 0.77613 0.55941
 C3004 C 0.81273 0.78319 0.57155
 C3005 C 0.80864 0.76114 0.55316
 C3006 C 0.79978 0.75384 0.54145
 C3007 C 0.78628 0.76143 0.53566
 C3008 C 0.78188 0.77665 0.54169
 H3009 H 0.82629 0.79820 0.59516
 H3010 H 0.77973 0.82701 0.57481
 H3011 H 0.79398 0.83840 0.59693
 H3012 H 0.77578 0.80508 0.55560
 H3013 H 0.82298 0.77706 0.57603
 H3014 H 0.81893 0.75497 0.55745
 H3015 H 0.80350 0.74217 0.53695
 H3016 H 0.77149 0.78261 0.53733
 C3017 C 0.30358 0.70580 0.41668
 C3018 C 0.29505 0.71348 0.42879
 C3019 C 0.27920 0.70941 0.43137
 C3020 C 0.27219 0.69770 0.42185
 C3021 C 0.28073 0.69015 0.40980
 C3022 C 0.29650 0.69411 0.40702
 C3023 C 0.27058 0.71718 0.44334
 C3024 C 0.27757 0.72908 0.45270
 C3025 C 0.29344 0.73313 0.45016
 C3026 C 0.30209 0.72526 0.43827
 C3027 C 0.30035 0.74512 0.45944
 C3028 C 0.29158 0.75321 0.47099
 C3029 C 0.27576 0.74938 0.47356
 C3030 C 0.26888 0.73715 0.46444
 H3031 H 0.31573 0.70896 0.41484
 H3032 H 0.26005 0.69445 0.42364
 H3033 H 0.27482 0.68133 0.40259
 H3034 H 0.25841 0.71407 0.44526
 H3035 H 0.31425 0.72842 0.43630
 H3036 H 0.31249 0.74838 0.45767
 H3037 H 0.29719 0.76254 0.47787
 H3038 H 0.25668 0.73413 0.46624
 C3039 C 0.30952 0.20855 0.91720
 C3040 C 0.30203 0.21665 0.92969
 C3041 C 0.28805 0.21033 0.93617
 C3042 C 0.28193 0.19589 0.93017
 C3043 C 0.28944 0.18792 0.91766
 C3044 C 0.30323 0.19422 0.91092
 C3045 C 0.28032 0.21865 0.94839
 C3046 C 0.28634 0.23329 0.95409
 C3047 C 0.30042 0.23952 0.94771
 C3048 C 0.30821 0.23113 0.93560
 C3049 C 0.30636 0.25418 0.95342
 C3050 C 0.29829 0.26275 0.96516
 C3051 C 0.28417 0.25680 0.97143
 C3052 C 0.27836 0.24193 0.96592
 H3053 H 0.32009 0.21369 0.91223
 H3054 H 0.27126 0.19083 0.93504
 H3055 H 0.28434 0.17686 0.91325
 H3056 H 0.26953 0.21386 0.95329
 H3057 H 0.31895 0.23597 0.93063
 H3058 H 0.31715 0.25910 0.94869
 H3059 H 0.30304 0.27414 0.96921
 H3060 H 0.26749 0.23717 0.97066
 C3061 C 0.79603 0.69524 0.91965
 C3062 C 0.79020 0.70417 0.93247
 C3063 C 0.79819 0.71816 0.93751
 C3064 C 0.81191 0.72292 0.92963
 C3065 C 0.81761 0.71398 0.91680
 C3066 C 0.80972 0.70007 0.91160
 C3067 C 0.79226 0.72721 0.95024
 C3068 C 0.77839 0.72248 0.95790
 C3069 C 0.77042 0.70846 0.95286
 C3070 C 0.77641 0.69935 0.94023
 C3071 C 0.75649 0.70387 0.96047
 C3072 C 0.75040 0.71319 0.97285
 C3073 C 0.75818 0.72719 0.97791
 C3074 C 0.77227 0.73168 0.97041
 H3075 H 0.78973 0.68458 0.91598
 H3076 H 0.81818 0.73362 0.93334
 H3077 H 0.82816 0.71807 0.91094
 H3078 H 0.79836 0.73798 0.95409
 H3079 H 0.77028 0.68861 0.93634
 H3080 H 0.75024 0.69316 0.95675
 H3081 H 0.73955 0.70946 0.97842
 H3082 H 0.77837 0.74248 0.97415
 C3083 C 0.79840 0.19078 0.41291
 C3084 C 0.79175 0.19935 0.42564
 C3085 C 0.79711 0.21510 0.42922
 C3086 C 0.80909 0.22195 0.42005
 C3087 C 0.81566 0.21335 0.40742
 C3088 C 0.81038 0.19770 0.40366
 C3089 C 0.79032 0.22379 0.44180
 C3090 C 0.77815 0.21697 0.45080
 C3091 C 0.77290 0.20116 0.44725
 C3092 C 0.77976 0.19244 0.43478
 C3093 C 0.76068 0.19436 0.45612
 C3094 C 0.75348 0.20323 0.46816
 C3095 C 0.75840 0.21905 0.47171
 C3096 C 0.77094 0.22578 0.46311
 H3097 H 0.79428 0.17869 0.41030
 H3098 H 0.81334 0.23402 0.42259
 H3099 H 0.82474 0.21913 0.40048
 H3100 H 0.79439 0.23591 0.44447
 H3101 H 0.77565 0.18035 0.43206
 H3102 H 0.75654 0.18225 0.45359
 H3103 H 0.74391 0.19770 0.47464
 H3104 H 0.77480 0.23798 0.46569
 C3105 C 0.68744 0.30117 0.40577
 C3106 C 0.69245 0.29204 0.41886
 C3107 C 0.68750 0.27581 0.42065
 C3108 C 0.67774 0.26897 0.40931
 C3109 C 0.67281 0.27809 0.39637
 C3110 C 0.67748 0.29431 0.39444
 C3111 C 0.69239 0.26667 0.43372
 C3112 C 0.70228 0.27349 0.44503
 C3113 C 0.70728 0.28971 0.44320
 C3114 C 0.70229 0.29889 0.43020
 C3115 C 0.71732 0.29646 0.45437
 C3116 C 0.72254 0.28721 0.46709
 C3117 C 0.71772 0.27105 0.46907
 C3118 C 0.70742 0.26431 0.45803
 H3119 H 0.69113 0.31365 0.40457
 H3120 H 0.67388 0.25652 0.41043
 H3121 H 0.66535 0.27230 0.38784
 H3122 H 0.68856 0.25422 0.43504
 H3123 H 0.70615 0.31132 0.42886
 H3124 H 0.72127 0.30886 0.45318
 H3125 H 0.73043 0.29274 0.47541
 H3126 H 0.70370 0.25184 0.45933
 C3127 C 0.69029 0.80866 0.91391
 C3128 C 0.69492 0.80093 0.92786
 C3129 C 0.68670 0.78715 0.93328
 C3130 C 0.67395 0.78141 0.92470
 C3131 C 0.66947 0.78913 0.91077
 C3132 C 0.67762 0.80278 0.90514
 C3133 C 0.69146 0.77921 0.94707
 C3134 C 0.70446 0.78478 0.95541
 C3135 C 0.71265 0.79861 0.95004
 C3136 C 0.70776 0.80666 0.93636
 C3137 C 0.72575 0.80398 0.95831
 C3138 C 0.73093 0.79553 0.97158
 C3139 C 0.72299 0.78165 0.97692
 C3140 C 0.70960 0.77650 0.96886
 H3141 H 0.69670 0.81920 0.90993
 H3142 H 0.66752 0.77086 0.92869
 H3143 H 0.65970 0.78423 0.90439
 H3144 H 0.68519 0.76858 0.95118
 H3145 H 0.71409 0.81723 0.93220
 H3146 H 0.73216 0.81457 0.95437
 H3147 H 0.74126 0.79977 0.97757
 H3148 H 0.70341 0.76576 0.97278
 C3149 C 0.20516 0.31922 0.90072
 C3150 C 0.21058 0.31349 0.91534
 C3151 C 0.20532 0.29836 0.92114
 C3152 C 0.19470 0.28930 0.91235
 C3153 C 0.18949 0.29500 0.89783
 C3154 C 0.19470 0.30993 0.89177
 C3155 C 0.21088 0.29240 0.93552
 C3156 C 0.22185 0.30122 0.94413
 C3157 C 0.22710 0.31638 0.93843
 C3158 C 0.22134 0.32248 0.92413
 C3159 C 0.23824 0.32502 0.94702
 C3160 C 0.24441 0.31853 0.96089
 C3161 C 0.23942 0.30335 0.96653
 C3162 C 0.22792 0.29489 0.95818
 H3163 H 0.20934 0.33072 0.89620
 H3164 H 0.19050 0.27773 0.91666
 H3165 H 0.18124 0.28768 0.89142
 H3166 H 0.20687 0.28075 0.93988
 H3167 H 0.22543 0.33407 0.91972
 H3168 H 0.24240 0.33667 0.94286
 H3169 H 0.25324 0.32531 0.96710
 H3170 H 0.22403 0.28314 0.96233
 C3171 C 0.20496 0.81909 0.40106
 C3172 C 0.21179 0.81188 0.41441
 C3173 C 0.21193 0.79480 0.41581
 C3174 C 0.20589 0.78524 0.40373
 C3175 C 0.19921 0.79245 0.39057
 C3176 C 0.19828 0.80940 0.38922
 C3177 C 0.21787 0.78747 0.42937
 C3178 C 0.22380 0.79691 0.44161
 C3179 C 0.22430 0.81395 0.44013
 C3180 C 0.21821 0.82137 0.42653
 C3181 C 0.23079 0.82318 0.45237
 C3182 C 0.23645 0.81558 0.46599
 C3183 C 0.23537 0.79871 0.46768
 C3184 C 0.22915 0.78948 0.45537
 H3185 H 0.20443 0.83217 0.40017
 H3186 H 0.20613 0.77215 0.40454
 H3187 H 0.19463 0.78461 0.38152
 H3188 H 0.21770 0.77437 0.43047
 H3189 H 0.21832 0.83445 0.42546
 H3190 H 0.23142 0.83625 0.45143
 H3191 H 0.24133 0.82288 0.47535
 H3192 H 0.22859 0.77640 0.45647
 C3193 C 0.68453 0.69288 0.58733
 C3194 C 0.69562 0.69733 0.57578
 C3195 C 0.70580 0.68550 0.56934
 C3196 C 0.70459 0.66941 0.57438
 C3197 C 0.69354 0.66508 0.58583
 C3198 C 0.68346 0.67674 0.59254
 C3199 C 0.71707 0.68991 0.55800
 C3200 C 0.71823 0.70601 0.55290
 C3201 C 0.70792 0.71781 0.55918
 C3202 C 0.69673 0.71342 0.57062
 C3203 C 0.70893 0.73384 0.55388
 C3204 C 0.71999 0.73813 0.54241
 C3205 C 0.73038 0.72653 0.53614
 C3206 C 0.72948 0.71047 0.54153
 H3207 H 0.67680 0.70200 0.59226
 H3208 H 0.71229 0.66018 0.56957
 H3209 H 0.69322 0.65258 0.58960
 H3210 H 0.72491 0.68081 0.55315
 H3211 H 0.68889 0.72252 0.57548
 H3212 H 0.70113 0.74305 0.55854
 H3213 H 0.72047 0.75062 0.53851
 H3214 H 0.73736 0.70140 0.53669
 C3215 C 0.69376 0.19317 0.07877
 C3216 C 0.70202 0.19884 0.06542
 C3217 C 0.71401 0.18921 0.05867
 C3218 C 0.71728 0.17397 0.06508
 C3219 C 0.70906 0.16844 0.07832
 C3220 C 0.69740 0.17804 0.08550
 C3221 C 0.72272 0.19503 0.04578
 C3222 C 0.71969 0.21043 0.03955
 C3223 C 0.70748 0.21996 0.04601
 C3224 C 0.69869 0.21410 0.05890
 C3225 C 0.70445 0.23531 0.03960
 C3226 C 0.71366 0.24130 0.02717
 C3227 C 0.72611 0.23209 0.02097
 C3228 C 0.72889 0.21654 0.02712
 H3229 H 0.68483 0.20075 0.08409
 H3230 H 0.72633 0.16638 0.05996
 H3231 H 0.71199 0.15663 0.08295
 H3232 H 0.73204 0.18769 0.04076
 H3233 H 0.68945 0.22149 0.06398
 H3234 H 0.69510 0.24277 0.04434
 H3235 H 0.71126 0.25331 0.02265
 H3236 H 0.73838 0.20925 0.02239
 C3237 C 0.19122 0.69701 0.10403
 C3238 C 0.20064 0.70514 0.09285
 C3239 C 0.21666 0.70112 0.09146
 C3240 C 0.22307 0.68937 0.10137
 C3241 C 0.21367 0.68133 0.11234
 C3242 C 0.19764 0.68485 0.11366
 C3243 C 0.22603 0.70873 0.08006
 C3244 C 0.21964 0.72029 0.06991
 C3245 C 0.20371 0.72460 0.07137
 C3246 C 0.19429 0.71700 0.08286
 C3247 C 0.19750 0.73632 0.06117
 C3248 C 0.20693 0.74350 0.04952
 C3249 C 0.22270 0.73900 0.04781
 C3250 C 0.22896 0.72747 0.05818
 H3251 H 0.17889 0.69985 0.10491
 H3252 H 0.23535 0.68627 0.10053
 H3253 H 0.21906 0.67231 0.11979
 H3254 H 0.23828 0.70550 0.07896
 H3255 H 0.18203 0.72018 0.08391
 H3256 H 0.18534 0.73984 0.06213
 H3257 H 0.20183 0.75238 0.04169
 H3258 H 0.24114 0.72399 0.05710
 C3259 C 0.19096 0.20521 0.58893
 C3260 C 0.19776 0.21242 0.57556
 C3261 C 0.20836 0.20346 0.56609
 C3262 C 0.21173 0.18735 0.56999
 C3263 C 0.20487 0.18024 0.58332
 C3264 C 0.19458 0.18914 0.59300
 C3265 C 0.21553 0.21080 0.55298
 C3266 C 0.21224 0.22698 0.54923
 C3267 C 0.20142 0.23585 0.55853
 C3268 C 0.19423 0.22851 0.57164
 C3269 C 0.19809 0.25199 0.55465
 C3270 C 0.20560 0.25936 0.54181
 C3271 C 0.21660 0.25074 0.53269
 C3272 C 0.21975 0.23448 0.53641
 H3273 H 0.18285 0.21214 0.59615
 H3274 H 0.21980 0.18030 0.56284
 H3275 H 0.20793 0.16788 0.58621
 H3276 H 0.22378 0.20397 0.54580
 H3277 H 0.18604 0.23536 0.57886
 H3278 H 0.18979 0.25895 0.56162
 H3279 H 0.20296 0.27190 0.53919
 H3280 H 0.22814 0.22766 0.52941
   
