data_POSCAR
  _audit_creation_date              2014-09-24
  _audit_creation_method            'ToBaCCo'
  _symmetry_space_group_name_H-M    'P1'
  _symmetry_Int_Tables_number       1
  _symmetry_cell_setting            triclinic
  loop_
  _symmetry_equiv_pos_as_xyz
 x,y,z
_cell_length_a 60.2867
_cell_length_b 60.3745
_cell_length_c 60.4885
_cell_angle_alpha 89.926300
_cell_angle_beta 89.976500
_cell_angle_gamma 89.960800
loop_
  _atom_site_label
  _atom_site_type_symbol
  _atom_site_fract_x
  _atom_site_fract_y
  _atom_site_fract_z
C1 C 0.19023 0.22121 0.21431
 C2 C 0.20257 0.22741 0.19566
 C3 C 0.22100 0.21516 0.18947
 C4 C 0.22730 0.19655 0.20187
 C5 C 0.21510 0.19042 0.22031
 C6 C 0.19646 0.20282 0.22657
 C7 C 0.17160 0.22999 0.22416
 N8 N 0.16653 0.21734 0.24196
 C9 C 0.18152 0.20070 0.24366
 C10 C 0.22496 0.17180 0.22908
 N11 N 0.24273 0.16665 0.21638
 C12 C 0.24440 0.18156 0.19973
 C13 C 0.22971 0.22495 0.17082
 N14 N 0.21699 0.24272 0.16570
 C15 C 0.20038 0.24446 0.18067
 H16 H 0.16240 0.24445 0.21881
 H17 H 0.18150 0.18806 0.25638
 H18 H 0.21966 0.16268 0.24357
 H19 H 0.25708 0.18147 0.18704
 H20 H 0.24418 0.21959 0.16165
 H21 H 0.18769 0.25717 0.18062
 C22 C 0.69108 0.72073 0.71526
 C23 C 0.70342 0.72694 0.69660
 C24 C 0.72190 0.71474 0.69045
 C25 C 0.72826 0.69618 0.70290
 C26 C 0.71606 0.69005 0.72135
 C27 C 0.69737 0.70239 0.72756
 C28 C 0.67240 0.72945 0.72505
 N29 N 0.66736 0.71682 0.74287
 C30 C 0.68241 0.70026 0.74464
 C31 C 0.72597 0.67147 0.73015
 N32 N 0.74376 0.66634 0.71747
 C33 C 0.74539 0.68123 0.70079
 C34 C 0.73057 0.72450 0.67177
 N35 N 0.71778 0.74221 0.66659
 C36 C 0.70115 0.74393 0.68155
 H37 H 0.66315 0.74386 0.71966
 H38 H 0.68242 0.68763 0.75737
 H39 H 0.72067 0.66234 0.74464
 H40 H 0.75806 0.68114 0.68809
 H41 H 0.74506 0.71917 0.66262
 H42 H 0.68841 0.75657 0.68145
 C43 C 0.30934 0.77903 0.71507
 C44 C 0.29691 0.77282 0.69650
 C45 C 0.27851 0.78512 0.69032
 C46 C 0.27233 0.80380 0.70263
 C47 C 0.28461 0.80994 0.72100
 C48 C 0.30322 0.79748 0.72725
 C49 C 0.32796 0.77020 0.72489
 N50 N 0.33314 0.78288 0.74260
 C51 C 0.31822 0.79958 0.74428
 C52 C 0.27485 0.82862 0.72971
 N53 N 0.25707 0.83380 0.71704
 C54 C 0.25528 0.81884 0.70046
 C55 C 0.26971 0.77532 0.67174
 N56 N 0.28236 0.75749 0.66667
 C57 C 0.29901 0.75572 0.68159
 H58 H 0.33709 0.75569 0.71959
 H59 H 0.31833 0.81226 0.75692
 H60 H 0.28026 0.83776 0.74413
 H61 H 0.24257 0.81893 0.68781
 H62 H 0.25525 0.78072 0.66259
 H63 H 0.31165 0.74298 0.68155
 C64 C 0.81024 0.27879 0.21486
 C65 C 0.79793 0.27257 0.19622
 C66 C 0.77951 0.28482 0.18997
 C67 C 0.77320 0.30344 0.20229
 C68 C 0.78536 0.30960 0.22071
 C69 C 0.80399 0.29721 0.22704
 C70 C 0.82886 0.27001 0.22475
 N71 N 0.83388 0.28271 0.24250
 C72 C 0.81890 0.29935 0.24415
 C73 C 0.77548 0.32823 0.22940
 N74 N 0.75773 0.33336 0.21667
 C75 C 0.75610 0.31843 0.20006
 C76 C 0.77083 0.27501 0.17134
 N77 N 0.78356 0.25723 0.16630
 C78 C 0.80015 0.25550 0.18129
 H79 H 0.83805 0.25554 0.21945
 H80 H 0.81888 0.31203 0.25680
 H81 H 0.78076 0.33737 0.24386
 H82 H 0.74344 0.31850 0.18737
 H83 H 0.75639 0.28037 0.16213
 H84 H 0.81284 0.24280 0.18129
 C85 C 0.81013 0.72160 0.28432
 C86 C 0.79777 0.72783 0.30295
 C87 C 0.77936 0.71558 0.30917
 C88 C 0.77309 0.69696 0.29685
 C89 C 0.78531 0.69079 0.27844
 C90 C 0.80393 0.70319 0.27214
 C91 C 0.82876 0.73038 0.27446
 N92 N 0.83384 0.71769 0.25671
 C93 C 0.81888 0.70104 0.25505
 C94 C 0.77546 0.67216 0.26975
 N95 N 0.75770 0.66703 0.28247
 C96 C 0.75602 0.68197 0.29906
 C97 C 0.77062 0.72539 0.32779
 N98 N 0.78332 0.74317 0.33285
 C99 C 0.79993 0.74490 0.31788
 H100 H 0.83792 0.74486 0.27977
 H101 H 0.81891 0.68837 0.24239
 H102 H 0.78079 0.66301 0.25531
 H103 H 0.74334 0.68190 0.31175
 H104 H 0.75617 0.72003 0.33698
 H105 H 0.81261 0.75760 0.31790
 C106 C 0.30984 0.22094 -0.21535
 C107 C 0.29734 0.22727 -0.19685
 C108 C 0.27892 0.21502 -0.19066
 C109 C 0.27277 0.19630 -0.20291
 C110 C 0.28513 0.19004 -0.22120
 C111 C 0.30377 0.20243 -0.22746
 C112 C 0.32851 0.22970 -0.22516
 N113 N 0.33374 0.21691 -0.24279
 C114 C 0.31884 0.20022 -0.24444
 C115 C 0.27538 0.17134 -0.22986
 N116 N 0.25754 0.16627 -0.21721
 C117 C 0.25570 0.18130 -0.20071
 C118 C 0.27004 0.22494 -0.17217
 N119 N 0.28267 0.24278 -0.16715
 C120 C 0.29938 0.24444 -0.18203
 H121 H 0.33760 0.24423 -0.21988
 H122 H 0.31897 0.18746 -0.25701
 H123 H 0.28083 0.16212 -0.24422
 H124 H 0.24293 0.18131 -0.18811
 H125 H 0.25554 0.21961 -0.16304
 H126 H 0.31202 0.25717 -0.18201
 C127 C 0.69032 0.27832 -0.21582
 C128 C 0.70274 0.27208 -0.19722
 C129 C 0.72124 0.28425 -0.19118
 C130 C 0.72756 0.30279 -0.20364
 C131 C 0.71529 0.30897 -0.22202
 C132 C 0.69656 0.29666 -0.22815
 C133 C 0.67160 0.26961 -0.22552
 N134 N 0.66650 0.28227 -0.24331
 C135 C 0.68153 0.29883 -0.24516
 C136 C 0.72519 0.32753 -0.23089
 N137 N 0.74305 0.33258 -0.21828
 C138 C 0.74474 0.31768 -0.20160
 C139 C 0.73001 0.27445 -0.17255
 N140 N 0.71725 0.25676 -0.16731
 C141 C 0.70055 0.25508 -0.18218
 H142 H 0.66238 0.25521 -0.22007
 H143 H 0.68152 0.31146 -0.25789
 H144 H 0.71983 0.33666 -0.24535
 H145 H 0.75747 0.31770 -0.18897
 H146 H 0.74455 0.27975 -0.16348
 H147 H 0.68780 0.24245 -0.18202
 C148 C 0.19021 0.77963 0.28494
 C149 C 0.20251 0.77335 0.30359
 C150 C 0.22094 0.78554 0.30983
 C151 C 0.22729 0.80416 0.29749
 C152 C 0.21512 0.81038 0.27904
 C153 C 0.19648 0.79804 0.27274
 C154 C 0.17159 0.77092 0.27506
 N155 N 0.16657 0.78362 0.25729
 C156 C 0.18157 0.80022 0.25563
 C157 C 0.22503 0.82899 0.27032
 N158 N 0.24278 0.83405 0.28307
 C159 C 0.24441 0.81909 0.29970
 C160 C 0.22960 0.77569 0.32847
 N161 N 0.21685 0.75794 0.33354
 C162 C 0.20026 0.75627 0.31854
 H163 H 0.16237 0.75647 0.28036
 H164 H 0.18159 0.81290 0.24295
 H165 H 0.21975 0.83816 0.25584
 H166 H 0.25706 0.81910 0.31241
 H167 H 0.24405 0.78099 0.33768
 H168 H 0.18756 0.74360 0.31856
 C169 C 0.47108 0.44012 0.46545
 C170 C 0.47734 0.45249 0.44682
 C171 C 0.46508 0.47090 0.44062
 C172 C 0.44642 0.47717 0.45297
 C173 C 0.44023 0.46496 0.47137
 C174 C 0.45263 0.44632 0.47765
 C175 C 0.47983 0.42149 0.47529
 N176 N 0.46712 0.41639 0.49304
 C177 C 0.45046 0.43136 0.49471
 C178 C 0.42157 0.47480 0.48009
 N179 N 0.41644 0.49256 0.46738
 C180 C 0.43142 0.49425 0.45078
 C181 C 0.47492 0.47964 0.42200
 N182 N 0.49272 0.46693 0.41691
 C183 C 0.49444 0.45031 0.43187
 H184 H 0.49432 0.41231 0.46998
 H185 H 0.43777 0.43132 0.50738
 H186 H 0.41238 0.46947 0.49453
 H187 H 0.43136 0.50693 0.43811
 H188 H 0.46957 0.49409 0.41283
 H189 H 0.50715 0.43763 0.43183
 C190 C -0.02886 -0.06007 0.96514
 C191 C -0.02252 -0.04769 0.94656
 C192 C -0.03470 -0.02922 0.94037
 C193 C -0.05337 -0.02292 0.95270
 C194 C -0.05964 -0.03516 0.97107
 C195 C -0.04731 -0.05384 0.97732
 C196 C -0.02015 -0.07875 0.97497
 N197 N -0.03292 -0.08382 0.99269
 C198 C -0.04955 -0.06882 0.99437
 C199 C -0.07829 -0.02527 0.97978
 N200 N -0.08331 -0.00746 0.96710
 C201 C -0.06830 -0.00577 0.95052
 C202 C -0.02479 -0.02047 0.92181
 N203 N -0.00701 -0.03320 0.91673
 C204 C -0.00539 -0.04987 0.93165
 H205 H -0.00566 -0.08793 0.96965
 H206 H -0.06228 -0.06883 1.00702
 H207 H -0.08750 -0.03061 0.99421
 H208 H -0.06826 0.00694 0.93786
 H209 H -0.03007 -0.00596 0.91266
 H210 H 0.00729 -0.06258 0.93162
 C211 C 1.02811 0.55982 0.96717
 C212 C 1.02161 0.54734 0.94874
 C213 C 1.03383 0.52893 0.94250
 C214 C 1.05269 0.52278 0.95460
 C215 C 1.05912 0.53511 0.97282
 C216 C 1.04676 0.55374 0.97914
 C217 C 1.01944 0.57850 0.97697
 N218 N 1.03240 0.58373 0.99448
 C219 C 1.04913 0.56882 0.99605
 C220 C 1.07796 0.52538 0.98132
 N221 N 1.08293 0.50757 0.96865
 C222 C 1.06771 0.50574 0.95229
 C223 C 1.02377 0.52009 0.92408
 N224 N 1.00587 0.53273 0.91916
 C225 C 1.00432 0.54941 0.93402
 H226 H 1.00485 0.58760 0.97177
 H227 H 1.06203 0.56896 1.00851
 H228 H 1.08733 0.53082 0.99558
 H229 H 1.06760 0.49300 0.93969
 H230 H 1.02905 0.50562 0.91492
 H231 H 0.99159 0.56208 0.93405
 C232 C 0.52914 0.05928 0.46567
 C233 C 0.52288 0.04696 0.44706
 C234 C 0.53513 0.02856 0.44086
 C235 C 0.55379 0.02225 0.45319
 C236 C 0.55998 0.03443 0.47159
 C237 C 0.54758 0.05306 0.47787
 C238 C 0.52038 0.07789 0.47552
 N239 N 0.53308 0.08294 0.49326
 C240 C 0.54974 0.06797 0.49493
 C241 C 0.57865 0.02457 0.48031
 N242 N 0.58375 0.00683 0.46760
 C243 C 0.56878 0.00517 0.45100
 C244 C 0.52529 0.01986 0.42225
 N245 N 0.50749 0.03258 0.41718
 C246 C 0.50578 0.04917 0.43213
 H247 H 0.50589 0.08708 0.47021
 H248 H 0.56243 0.06798 0.50760
 H249 H 0.58782 0.02988 0.49476
 H250 H 0.56881 -0.00748 0.43832
 H251 H 0.53063 0.00542 0.41309
 H252 H 0.49307 0.06185 0.43209
 C253 C -0.02865 0.06000 0.53518
 C254 C -0.02237 0.04766 0.55381
 C255 C -0.03458 0.02923 0.56002
 C256 C -0.05321 0.02292 0.54767
 C257 C -0.05941 0.03512 0.52926
 C258 C -0.04706 0.05376 0.52298
 C259 C -0.01993 0.07864 0.52532
 N260 N -0.03264 0.08370 0.50756
 C261 C -0.04925 0.06870 0.50590
 C262 C -0.07803 0.02524 0.52054
 N263 N -0.08312 0.00747 0.53324
 C264 C -0.06815 0.00581 0.54985
 C265 C -0.02472 0.02052 0.57864
 N266 N -0.00696 0.03325 0.58372
 C267 C -0.00529 0.04986 0.56875
 H268 H -0.00548 0.08784 0.53063
 H269 H -0.06193 0.06871 0.49323
 H270 H -0.08720 0.03054 0.50608
 H271 H -0.06819 -0.00687 0.56253
 H272 H -0.03003 0.00605 0.58782
 H273 H 0.00739 0.06256 0.56878
 C274 C 0.47105 0.56029 0.03462
 C275 C 0.47724 0.54791 0.05326
 C276 C 0.46500 0.52948 0.05939
 C277 C 0.44641 0.52321 0.04696
 C278 C 0.44029 0.53544 0.02854
 C279 C 0.45268 0.55409 0.02233
 C280 C 0.47984 0.57893 0.02482
 N281 N 0.46720 0.58401 0.00702
 C282 C 0.45057 0.56905 0.00525
 C283 C 0.42169 0.52559 0.01973
 N284 N 0.41654 0.50781 0.03239
 C285 C 0.43144 0.50612 0.04906
 C286 C 0.47477 0.52073 0.07803
 N287 N 0.49252 0.53344 0.08320
 C288 C 0.49427 0.55008 0.06827
 H289 H 0.49430 0.58810 0.03021
 H290 H 0.43792 0.56907 -0.00747
 H291 H 0.41258 0.53092 0.00525
 H292 H 0.43135 0.49342 0.06172
 H293 H 0.46941 0.50626 0.08717
 H294 H 0.50696 0.56276 0.06837
 C295 C 0.52931 -0.06017 0.03518
 C296 C 0.52310 -0.04788 0.05384
 C297 C 0.53537 -0.02950 0.06002
 C298 C 0.55399 -0.02319 0.04762
 C299 C 0.56012 -0.03535 0.02919
 C300 C 0.54771 -0.05394 0.02293
 C301 C 0.52052 -0.07875 0.02534
 N302 N 0.53317 -0.08379 0.00754
 C303 C 0.54981 -0.06883 0.00583
 C304 C 0.57875 -0.02549 0.02042
 N305 N 0.58390 -0.00777 0.03312
 C306 C 0.56898 -0.00613 0.04977
 C307 C 0.52558 -0.02082 0.07868
 N308 N 0.50779 -0.03352 0.08380
 C309 C 0.50604 -0.05008 0.06883
 H310 H 0.50605 -0.08793 0.03068
 H311 H 0.56246 -0.06884 -0.00689
 H312 H 0.58788 -0.03076 0.00593
 H313 H 0.56907 0.00650 0.06246
 H314 H 0.53094 -0.00639 0.08784
 H315 H 0.49333 -0.06274 0.06889
 C316 C 1.02784 0.44152 0.53357
 C317 C 1.02144 0.45394 0.55208
 C318 C 1.03365 0.47234 0.55829
 C319 C 1.05241 0.47855 0.54607
 C320 C 1.05875 0.46628 0.52777
 C321 C 1.04639 0.44766 0.52148
 C322 C 1.01917 0.42287 0.52376
 N323 N 1.03203 0.41770 0.50615
 C324 C 1.04870 0.43264 0.50452
 C325 C 1.07752 0.47604 0.51918
 N326 N 1.08255 0.49381 0.53187
 C327 C 1.06742 0.49559 0.54834
 C328 C 1.02370 0.48108 0.57683
 N329 N 1.00587 0.46840 0.58185
 C330 C 1.00425 0.45178 0.56693
 H331 H 1.00465 0.41372 0.52902
 H332 H 1.06151 0.43253 0.49197
 H333 H 1.08682 0.47064 0.50483
 H334 H 1.06738 0.50828 0.56098
 H335 H 1.02901 0.49551 0.58602
 H336 H 0.99157 0.43908 0.56696
 C337 C 0.40915 0.00987 0.22069
 H338 H 0.41007 0.02488 0.23041
 C339 C 0.42364 0.00674 0.20296
 H340 H 0.43579 0.01939 0.19920
 C341 C 0.39260 -0.02513 0.21435
 H342 H 0.38069 -0.03764 0.21900
 C343 C 0.40678 -0.02897 0.19650
 H344 H 0.40528 -0.04427 0.18731
 N345 N 0.39385 -0.00584 0.22587
 C346 C 0.34125 0.02958 0.26053
 H347 H 0.34033 0.01993 0.27559
 C348 C 0.32681 0.04738 0.25731
 H349 H 0.31500 0.05154 0.27014
 C350 C 0.35792 0.03585 0.22561
 H351 H 0.36977 0.03107 0.21310
 C352 C 0.34382 0.05379 0.22170
 H353 H 0.34500 0.06263 0.20616
 Zn354 Zn 0.37514 -0.00038 0.25041
 N355 N 0.35657 0.02433 0.24490
 C356 C 0.39244 0.02433 0.28656
 N357 N 0.39368 0.00500 0.27508
 C358 C 0.40889 -0.01078 0.28037
 C359 C 0.42330 -0.00767 0.29816
 C360 C 0.40654 0.02813 0.30446
 C361 C 0.34121 -0.03013 0.24003
 C362 C 0.32669 -0.04787 0.24312
 C363 C 0.34340 -0.05443 0.27883
 C364 C 0.35760 -0.03656 0.27506
 N365 N 0.35644 -0.02498 0.25578
 H366 H 0.38060 0.03689 0.28183
 H367 H 0.40982 -0.02581 0.27069
 H368 H 0.43539 -0.02037 0.30200
 H369 H 0.40505 0.04346 0.31361
 H370 H 0.34044 -0.02045 0.22499
 H371 H 0.31497 -0.05194 0.23020
 H372 H 0.34444 -0.06331 0.29436
 H373 H 0.36937 -0.03186 0.28765
 C374 C 0.32803 0.05980 0.23769
 C375 C 0.42252 -0.01288 0.19055
 C376 C 0.32771 -0.06033 0.26272
 C377 C 0.42220 0.01198 0.31052
 C378 C 0.09185 -0.01003 0.72055
 H379 H 0.09093 -0.02503 0.73032
 C380 C 0.07737 -0.00691 0.70281
 H381 H 0.06522 -0.01957 0.69910
 C382 C 0.10839 0.02497 0.71409
 H383 H 0.12030 0.03749 0.71869
 C384 C 0.09422 0.02879 0.69623
 H385 H 0.09572 0.04408 0.68699
 N386 N 0.10714 0.00569 0.72568
 C387 C 0.15973 -0.02970 0.76046
 H388 H 0.16064 -0.02005 0.77549
 C389 C 0.17414 -0.04752 0.75729
 H390 H 0.18592 -0.05169 0.77015
 C391 C 0.14309 -0.03596 0.72554
 H392 H 0.13127 -0.03117 0.71302
 C393 C 0.15718 -0.05392 0.72170
 H394 H 0.15600 -0.06277 0.70618
 Zn395 Zn 0.12582 0.00024 0.75025
 N396 N 0.14442 -0.02443 0.74480
 C397 C 0.10849 -0.02452 0.78642
 N398 N 0.10723 -0.00519 0.77490
 C399 C 0.09195 0.01054 0.78013
 C400 C 0.07750 0.00738 0.79789
 C401 C 0.09434 -0.02838 0.80430
 C402 C 0.15971 0.03009 0.73987
 C403 C 0.17416 0.04788 0.74295
 C404 C 0.15738 0.05434 0.77864
 C405 C 0.14323 0.03643 0.77487
 N406 N 0.14446 0.02489 0.75561
 H407 H 0.12038 -0.03705 0.78174
 H408 H 0.09102 0.02557 0.77041
 H409 H 0.06536 0.02004 0.80167
 H410 H 0.09585 -0.04371 0.81348
 H411 H 0.16062 0.02036 0.72490
 H412 H 0.18628 0.05166 0.73029
 H413 H 0.15589 0.06355 0.79392
 H414 H 0.13135 0.03177 0.78739
 C415 C 0.17293 -0.05996 0.73772
 C416 C 0.07849 0.01269 0.69034
 C417 C 0.17307 0.06031 0.76254
 C418 C 0.07862 -0.01228 0.81028
 C419 C 0.59103 0.48991 0.22020
 H420 H 0.59013 0.47488 0.22993
 C421 C 0.57657 0.49304 0.20245
 H422 H 0.56445 0.48037 0.19870
 C423 C 0.60752 0.52496 0.21383
 H424 H 0.61940 0.53749 0.21847
 C425 C 0.59336 0.52879 0.19597
 H426 H 0.59484 0.54410 0.18676
 N427 N 0.60629 0.50564 0.22538
 C428 C 0.65893 0.47034 0.26017
 H429 H 0.65981 0.48001 0.27519
 C430 C 0.67341 0.45257 0.25701
 H431 H 0.68521 0.44846 0.26987
 C432 C 0.64231 0.46400 0.22526
 H433 H 0.63047 0.46874 0.21273
 C434 C 0.65647 0.44609 0.22142
 H435 H 0.65532 0.43723 0.20591
 Zn436 Zn 0.62498 0.50021 0.24994
 N437 N 0.64361 0.47555 0.24450
 C438 C 0.60770 0.47546 0.28614
 N439 N 0.60642 0.49478 0.27462
 C440 C 0.59117 0.51053 0.27988
 C441 C 0.57677 0.50739 0.29769
 C442 C 0.59360 0.47162 0.30406
 C443 C 0.65887 0.53003 0.23951
 C444 C 0.67335 0.54779 0.24257
 C445 C 0.65658 0.55433 0.27825
 C446 C 0.64242 0.53642 0.27451
 N447 N 0.64363 0.52485 0.25527
 H448 H 0.61957 0.46292 0.28143
 H449 H 0.59023 0.52556 0.27017
 H450 H 0.56466 0.52006 0.30151
 H451 H 0.59512 0.45628 0.31324
 H452 H 0.65968 0.52035 0.22449
 H453 H 0.68508 0.55189 0.22964
 H454 H 0.65550 0.56321 0.29375
 H455 H 0.63064 0.53170 0.28711
 C456 C 0.67225 0.44013 0.23744
 C457 C 0.57766 0.51268 0.19003
 C458 C 0.67228 0.56026 0.26213
 C459 C 0.57791 0.48773 0.31008
 C460 C 0.91577 0.50023 0.72726
 H461 H 0.92221 0.50747 0.74226
 C462 C 0.92988 0.49729 0.70920
 H463 H 0.94719 0.50181 0.71073
 C464 C 0.88548 0.48578 0.70698
 H465 H 0.86814 0.48153 0.70604
 C466 C 0.89902 0.48253 0.68852
 H467 H 0.89183 0.47590 0.67352
 N468 N 0.89404 0.49430 0.72596
 C469 C 0.83991 0.52722 0.76025
 H470 H 0.83753 0.51627 0.77422
 C471 C 0.82558 0.54511 0.75699
 H472 H 0.81233 0.54798 0.76873
 C473 C 0.86036 0.53685 0.72817
 H474 H 0.87392 0.53350 0.71697
 C475 C 0.84644 0.55494 0.72430
 H476 H 0.84929 0.56526 0.70992
 Zn477 Zn 0.87542 0.49875 0.75098
 N478 N 0.85689 0.52348 0.74594
 C479 C 0.89125 0.52284 0.78809
 N480 N 0.89344 0.50382 0.77625
 C481 C 0.90899 0.48841 0.78171
 C482 C 0.92290 0.49170 0.79985
 C483 C 0.90483 0.52681 0.80636
 C484 C 0.83963 0.47067 0.74135
 C485 C 0.82512 0.45287 0.74409
 C486 C 0.84585 0.44184 0.77641
 C487 C 0.85995 0.45988 0.77307
 N488 N 0.85685 0.47371 0.75555
 H489 H 0.87904 0.53505 0.78335
 H490 H 0.91072 0.47363 0.77177
 H491 H 0.93535 0.47936 0.80372
 H492 H 0.90263 0.54192 0.81572
 H493 H 0.83691 0.48232 0.72804
 H494 H 0.81171 0.45062 0.73240
 H495 H 0.84851 0.43117 0.79057
 H496 H 0.87319 0.46284 0.78466
 C497 C 0.82875 0.55925 0.73881
 C498 C 0.92156 0.48826 0.68950
 C499 C 0.82818 0.43811 0.76178
 C500 C 0.92092 0.51111 0.81246
 C501 C 0.21973 0.40941 0.00982
 H502 H 0.22964 0.41020 0.02471
 C503 C 0.20192 0.42391 0.00698
 H504 H 0.19830 0.43595 0.01973
 C505 C 0.21298 0.39317 -0.02517
 H506 H 0.21749 0.38136 -0.03779
 C507 C 0.19504 0.40738 -0.02872
 H508 H 0.18564 0.40601 -0.04391
 N509 N 0.22475 0.39425 -0.00602
 C510 C 0.25992 0.34151 0.02869
 H511 H 0.27494 0.34068 0.01893
 C512 C 0.25689 0.32700 0.04642
 H513 H 0.26983 0.31522 0.05041
 C514 C 0.22489 0.35805 0.03532
 H515 H 0.21228 0.36988 0.03071
 C516 C 0.22118 0.34387 0.05319
 H517 H 0.20567 0.34498 0.06216
 Zn518 Zn 0.24943 0.37553 -0.00092
 N519 N 0.24415 0.35681 0.02365
 C520 C 0.28585 0.39268 0.02361
 N521 N 0.27421 0.39404 0.00440
 C522 C 0.27938 0.40934 -0.01129
 C523 C 0.29721 0.42375 -0.00819
 C524 C 0.30382 0.40676 0.02739
 C525 C 0.23882 0.34188 -0.03082
 C526 C 0.24187 0.32745 -0.04858
 C527 C 0.27768 0.34415 -0.05515
 C528 C 0.27395 0.35826 -0.03725
 N529 N 0.25465 0.35705 -0.02565
 H530 H 0.28113 0.38085 0.03615
 H531 H 0.26964 0.41027 -0.02628
 H532 H 0.30129 0.43554 -0.02105
 H533 H 0.31274 0.40557 0.04287
 H534 H 0.22377 0.34106 -0.02111
 H535 H 0.22890 0.31575 -0.05264
 H536 H 0.29324 0.34520 -0.06403
 H537 H 0.28661 0.36998 -0.03254
 C538 C 0.23732 0.32811 0.05899
 C539 C 0.18925 0.42298 -0.01249
 C540 C 0.26151 0.32850 -0.06104
 C541 C 0.30974 0.42253 0.01135
 C542 C 0.72102 0.09092 -0.01046
 H543 H 0.73071 0.09008 -0.02549
 C544 C 0.70323 0.07646 -0.00731
 H545 H 0.69914 0.06471 -0.02018
 C546 C 0.71460 0.10743 0.02448
 H547 H 0.71932 0.11923 0.03702
 C548 C 0.69668 0.09330 0.02831
 H549 H 0.68779 0.09440 0.04382
 N550 N 0.72619 0.10618 0.00522
 C551 C 0.76113 0.15861 -0.03017
 H552 H 0.77623 0.15948 -0.02056
 C553 C 0.75796 0.17301 -0.04797
 H554 H 0.77087 0.18474 -0.05215
 C555 C 0.72605 0.14208 -0.03638
 H556 H 0.71346 0.13031 -0.03157
 C557 C 0.72219 0.15616 -0.05431
 H558 H 0.70660 0.15502 -0.06312
 Zn559 Zn 0.75085 0.12481 -0.00022
 N560 N 0.74540 0.14337 -0.02489
 C561 C 0.78713 0.10740 -0.02485
 N562 N 0.77557 0.10621 -0.00557
 C563 C 0.78079 0.09100 0.01019
 C564 C 0.79859 0.07653 0.00711
 C565 C 0.80505 0.09322 -0.02863
 C566 C 0.74042 0.15867 0.02951
 C567 C 0.74350 0.17312 0.04724
 C568 C 0.77932 0.15636 0.05375
 C569 C 0.77555 0.14224 0.03588
 N570 N 0.75622 0.14345 0.02434
 H571 H 0.78245 0.11924 -0.03740
 H572 H 0.77104 0.09013 0.02519
 H573 H 0.80236 0.06443 0.01979
 H574 H 0.81426 0.09466 -0.04394
 H575 H 0.72533 0.15948 0.01986
 H576 H 0.73053 0.18483 0.05133
 H577 H 0.79488 0.15528 0.06261
 H578 H 0.78818 0.13047 0.03117
 C579 C 0.73829 0.17185 -0.06036
 C580 C 0.69075 0.07757 0.01227
 C581 C 0.76315 0.17204 0.05968
 C582 C 0.81102 0.07756 -0.01251
 C583 C 0.21936 0.59135 0.48967
 H584 H 0.22912 0.59054 0.47469
 C585 C 0.20151 0.57693 0.49267
 H586 H 0.19745 0.56525 0.47973
 C587 C 0.21281 0.60775 0.52464
 H588 H 0.21750 0.61949 0.53725
 C589 C 0.19483 0.59366 0.52832
 H590 H 0.18585 0.59474 0.54379
 N591 N 0.22450 0.60654 0.50544
 C592 C 0.25974 0.65905 0.47048
 H593 H 0.27478 0.65985 0.48020
 C594 C 0.25670 0.67355 0.45274
 H595 H 0.26967 0.68528 0.44870
 C596 C 0.22467 0.64262 0.46396
 H597 H 0.21204 0.63084 0.46863
 C598 C 0.22095 0.65679 0.44608
 H599 H 0.20542 0.65572 0.43716
 Zn600 Zn 0.24924 0.62512 0.50018
 N601 N 0.24395 0.64381 0.47558
 C602 C 0.28558 0.60778 0.47561
 N603 N 0.27394 0.60649 0.49484
 C604 C 0.27908 0.59119 0.51054
 C605 C 0.29690 0.57674 0.50746
 C606 C 0.30352 0.59363 0.47184
 C607 C 0.23880 0.65889 0.53002
 C608 C 0.24190 0.67330 0.54778
 C609 C 0.27767 0.65646 0.55429
 C610 C 0.27387 0.64235 0.53642
 N611 N 0.25457 0.64364 0.52485
 H612 H 0.28097 0.61969 0.46311
 H613 H 0.26926 0.59024 0.52549
 H614 H 0.30062 0.56457 0.52009
 H615 H 0.31280 0.59515 0.45659
 H616 H 0.22379 0.65985 0.52027
 H617 H 0.22921 0.68544 0.55152
 H618 H 0.29299 0.65494 0.56351
 H619 H 0.28643 0.63047 0.53178
 C620 C 0.23712 0.67248 0.44022
 C621 C 0.18893 0.57802 0.51219
 C622 C 0.26154 0.67217 0.56022
 C623 C 0.30942 0.57788 0.48791
 C624 C 0.72008 0.90869 0.51038
 H625 H 0.72980 0.90946 0.52539
 C626 C 0.70226 0.92315 0.50736
 H627 H 0.69816 0.93483 0.52030
 C628 C 0.71365 0.89237 0.47536
 H629 H 0.71838 0.88065 0.46274
 C630 C 0.69569 0.90651 0.47166
 H631 H 0.68678 0.90549 0.45616
 N632 N 0.72527 0.89353 0.49460
 C633 C 0.76048 0.84089 0.52944
 H634 H 0.77548 0.84002 0.51964
 C635 C 0.75746 0.82637 0.54717
 H636 H 0.77018 0.81425 0.55084
 C637 C 0.72540 0.85734 0.53601
 H638 H 0.71282 0.86923 0.53146
 C639 C 0.72168 0.84312 0.55386
 H640 H 0.70639 0.84457 0.56314
 Zn641 Zn 0.75001 0.87492 0.49984
 N642 N 0.74469 0.85615 0.52438
 C643 C 0.78629 0.89215 0.52452
 N644 N 0.77468 0.89352 0.50529
 C645 C 0.77983 0.90888 0.48966
 C646 C 0.79763 0.92332 0.49282
 C647 C 0.80420 0.90628 0.52838
 C648 C 0.73969 0.84125 0.46988
 C649 C 0.74283 0.82692 0.45205
 C650 C 0.77858 0.84380 0.44563
 C651 C 0.77474 0.85783 0.46357
 N652 N 0.75543 0.85648 0.47512
 H653 H 0.78167 0.88018 0.53697
 H654 H 0.77005 0.90990 0.47470
 H655 H 0.80136 0.93553 0.48023
 H656 H 0.81346 0.90468 0.54363
 H657 H 0.72467 0.84024 0.47962
 H658 H 0.73017 0.81480 0.44826
 H659 H 0.79391 0.84537 0.43642
 H660 H 0.78727 0.86969 0.46826
 C661 C 0.73786 0.82742 0.55969
 C662 C 0.68975 0.92214 0.48780
 C663 C 0.76248 0.82811 0.43962
 C664 C 0.81012 0.92209 0.51238
 C665 C 0.01021 0.22059 0.40846
 H666 H 0.02520 0.23041 0.40932
 C667 C 0.00720 0.20283 0.42296
 H668 H 0.01992 0.19916 0.43505
 C669 C -0.02486 0.21403 0.39208
 H670 H -0.03745 0.21860 0.38023
 C671 C -0.02858 0.19615 0.40628
 H672 H -0.04386 0.18686 0.40485
 N673 N -0.00559 0.22568 0.39325
 C674 C 0.02946 0.26074 0.34073
 H675 H 0.01969 0.27575 0.33986
 C676 C 0.04725 0.25766 0.32627
 H677 H 0.05127 0.27057 0.31450
 C678 C 0.03606 0.22576 0.35730
 H679 H 0.03140 0.21318 0.36912
 C680 C 0.05399 0.22201 0.34317
 H681 H 0.06296 0.20650 0.34430
 Zn682 Zn -0.00034 0.25032 0.37459
 N683 N 0.02437 0.24500 0.35601
 C684 C 0.02422 0.28669 0.39176
 N685 N 0.00496 0.27505 0.39307
 C686 C -0.01082 0.28021 0.40828
 C687 C -0.00778 0.29804 0.42264
 C688 C 0.02795 0.30466 0.40579
 C689 C -0.03018 0.23978 0.34085
 C690 C -0.04797 0.24281 0.32640
 C691 C -0.05463 0.27857 0.34302
 C692 C -0.03672 0.27484 0.35718
 N693 N -0.02506 0.25557 0.35602
 H694 H 0.03684 0.28198 0.38000
 H695 H -0.02586 0.27048 0.40917
 H696 H -0.02072 0.30212 0.43435
 H697 H 0.04348 0.31359 0.40463
 H698 H -0.02036 0.22480 0.34000
 H699 H -0.05167 0.23011 0.31433
 H700 H -0.06391 0.29386 0.34443
 H701 H -0.03212 0.28741 0.36899
 C702 C 0.05983 0.23810 0.32742
 C703 C -0.01240 0.19031 0.42194
 C704 C -0.06050 0.26241 0.32739
 C705 C 0.01181 0.31058 0.42146
 C706 C -0.01059 0.72049 0.09118
 H707 H -0.02567 0.73017 0.09028
 C708 C -0.00747 0.70262 0.07688
 H709 H -0.02040 0.69846 0.06519
 C710 C 0.02448 0.71417 0.10769
 H711 H 0.03708 0.71895 0.11943
 C712 C 0.02829 0.69617 0.09372
 H713 H 0.04385 0.68728 0.09489
 N714 N 0.00516 0.72575 0.10637
 C715 C -0.03017 0.76100 0.15853
 H716 H -0.02049 0.77606 0.15929
 C717 C -0.04796 0.75793 0.17299
 H718 H -0.05207 0.77089 0.18465
 C719 C -0.03653 0.72590 0.14225
 H720 H -0.03178 0.71326 0.13055
 C721 C -0.05446 0.72215 0.15639
 H722 H -0.06333 0.70659 0.15538
 Zn723 Zn -0.00025 0.75050 0.12480
 N724 N -0.02496 0.74520 0.14339
 C725 C -0.02494 0.78669 0.10727
 N726 N -0.00562 0.77509 0.10609
 C727 C 0.01016 0.78022 0.09086
 C728 C 0.00707 0.79796 0.07636
 C729 C -0.02873 0.80455 0.09307
 C730 C 0.02959 0.74023 0.15865
 C731 C 0.04739 0.74336 0.17306
 C732 C 0.05396 0.77902 0.15613
 C733 C 0.03605 0.77519 0.14202
 N734 N 0.02443 0.75593 0.14335
 H735 H -0.03751 0.78209 0.11914
 H736 H 0.02518 0.77044 0.09000
 H737 H 0.01977 0.80167 0.06426
 H738 H -0.04406 0.81380 0.09451
 H739 H 0.01981 0.72525 0.15963
 H740 H 0.05112 0.73073 0.18523
 H741 H 0.06322 0.79430 0.15457
 H742 H 0.03142 0.78769 0.13010
 C743 C -0.06042 0.73830 0.17200
 C744 C 0.01217 0.69015 0.07808
 C745 C 0.05989 0.76295 0.17188
 C746 C -0.01258 0.81044 0.07739
 C747 C 0.48958 0.21978 0.59192
 H748 H 0.47452 0.22950 0.59108
 C749 C 0.49268 0.20201 0.57748
 H750 H 0.47974 0.19796 0.56576
 C751 C 0.52465 0.21328 0.60838
 H752 H 0.53726 0.21796 0.62014
 C753 C 0.52843 0.19538 0.59427
 H754 H 0.54398 0.18646 0.59537
 N755 N 0.50535 0.22490 0.60714
 C756 C 0.47013 0.25998 0.65950
 H757 H 0.47991 0.27497 0.66039
 C758 C 0.45232 0.25690 0.67393
 H759 H 0.44857 0.26957 0.68602
 C760 C 0.46369 0.22496 0.64307
 H761 H 0.46833 0.21243 0.63123
 C762 C 0.44577 0.22118 0.65720
 H763 H 0.43651 0.20589 0.65573
 Zn764 Zn 0.50000 0.24958 0.62568
 N765 N 0.47530 0.24424 0.64429
 C766 C 0.47534 0.28589 0.60833
 N767 N 0.49463 0.27425 0.60707
 C768 C 0.51038 0.27936 0.59181
 C769 C 0.50730 0.29715 0.57736
 C770 C 0.47156 0.30379 0.59418
 C771 C 0.52994 0.23918 0.65944
 C772 C 0.54779 0.24227 0.67381
 C773 C 0.55429 0.27799 0.65698
 C774 C 0.53633 0.27420 0.64291
 N775 N 0.52473 0.25493 0.64421
 H776 H 0.46280 0.28130 0.62022
 H777 H 0.52538 0.26955 0.59088
 H778 H 0.51997 0.30084 0.56522
 H779 H 0.45626 0.31307 0.59568
 H780 H 0.52017 0.22419 0.66040
 H781 H 0.55156 0.22960 0.68592
 H782 H 0.56354 0.29328 0.65544
 H783 H 0.53166 0.28674 0.63104
 C784 C 0.43983 0.23730 0.67286
 C785 C 0.51230 0.18950 0.57859
 C786 C 0.56027 0.26188 0.67265
 C787 C 0.48768 0.30967 0.57846
 C788 C 0.51052 0.71989 0.90888
 H789 H 0.52553 0.72965 0.90976
 C790 C 0.50742 0.70212 0.92334
 H791 H 0.52011 0.69839 0.93545
 C792 C 0.47544 0.71347 0.89245
 H793 H 0.46288 0.71810 0.88059
 C794 C 0.47164 0.69558 0.90662
 H795 H 0.45632 0.68635 0.90516
 N796 N 0.49474 0.72505 0.89365
 C797 C 0.53000 0.76014 0.84128
 H798 H 0.52028 0.77518 0.84043
 C799 C 0.54783 0.75707 0.82687
 H800 H 0.55192 0.77000 0.81515
 C801 C 0.53646 0.72510 0.85777
 H802 H 0.53174 0.71250 0.86954
 C803 C 0.55443 0.72135 0.84368
 H804 H 0.56335 0.70582 0.84480
 Zn805 Zn 0.50009 0.74972 0.87505
 N806 N 0.52483 0.74438 0.85651
 C807 C 0.52472 0.78597 0.89238
 N808 N 0.50541 0.77438 0.89359
 C809 C 0.48960 0.77955 0.90879
 C810 C 0.49268 0.79730 0.92322
 C811 C 0.52847 0.80386 0.90648
 C812 C 0.47026 0.73930 0.84126
 C813 C 0.45247 0.74239 0.82681
 C814 C 0.44585 0.77811 0.84353
 C815 C 0.46378 0.77434 0.85766
 N816 N 0.47540 0.75506 0.85645
 H817 H 0.53735 0.78125 0.88063
 H818 H 0.47454 0.76986 0.90960
 H819 H 0.47972 0.80138 0.93492
 H820 H 0.54403 0.81275 0.90541
 H821 H 0.47998 0.72426 0.84045
 H822 H 0.44840 0.72947 0.81511
 H823 H 0.43693 0.79364 0.84460
 H824 H 0.46848 0.78694 0.86940
 C825 C 0.56035 0.73747 0.82800
 C826 C 0.48778 0.68967 0.92230
 C827 C 0.43995 0.76199 0.82788
 C828 C 0.51231 0.80977 0.92214
 C829 C 0.11482 0.22748 0.28339
 C830 C 0.09535 0.23737 0.27557
 C831 C 0.07746 0.24085 0.28987
 C832 C 0.14862 0.22087 0.25630
 C833 C 0.09849 0.22450 0.31990
 C834 C 0.11636 0.22106 0.30557
 C835 C 0.13322 0.22389 0.26865
 C836 C 0.07882 0.23445 0.31221
 H837 H 0.09396 0.24234 0.25841
 H838 H 0.06245 0.24826 0.28337
 H839 H 0.10016 0.21966 0.33706
 H840 H 0.13139 0.21344 0.31180
 C841 C 0.61551 0.72687 0.78414
 C842 C 0.59608 0.73683 0.77628
 C843 C 0.57814 0.74029 0.79052
 C844 C 0.64941 0.72030 0.75717
 C845 C 0.59902 0.72381 0.82058
 C846 C 0.61694 0.72038 0.80631
 C847 C 0.63395 0.72330 0.76947
 C848 C 0.57940 0.73382 0.81285
 H849 H 0.59477 0.74186 0.75913
 H850 H 0.56317 0.74776 0.78400
 H851 H 0.60061 0.71890 0.83773
 H852 H 0.63193 0.71271 0.81258
 C853 C 0.38491 0.77266 0.78392
 C854 C 0.40434 0.76269 0.77611
 C855 C 0.42224 0.75920 0.79038
 C856 C 0.35107 0.77932 0.75690
 C857 C 0.40131 0.77568 0.82038
 C858 C 0.38343 0.77914 0.80608
 C859 C 0.36650 0.77627 0.76921
 C860 C 0.42094 0.76566 0.81269
 H861 H 0.40568 0.75767 0.75897
 H862 H 0.43722 0.75172 0.78389
 H863 H 0.39969 0.78058 0.83751
 H864 H 0.36844 0.78683 0.81231
 C865 C -0.11540 0.27289 0.28323
 C866 C -0.11185 0.25199 0.29261
 C867 C -0.09400 0.24856 0.30696
 C868 C -0.14918 0.27940 0.25610
 C869 C -0.08319 0.28699 0.30261
 C870 C -0.10104 0.29037 0.28825
 C871 C -0.13379 0.27641 0.26846
 C872 C -0.07946 0.26603 0.31214
 H873 H -0.12290 0.23836 0.28887
 H874 H -0.09174 0.23232 0.31424
 H875 H -0.07214 0.30069 0.30603
 H876 H -0.10361 0.30661 0.28103
 C877 C -0.11542 0.72765 0.21604
 C878 C -0.09602 0.73770 0.22380
 C879 C -0.07813 0.74119 0.20950
 C880 C -0.14921 0.72102 0.24314
 C881 C -0.09901 0.72456 0.17958
 C882 C -0.11687 0.72110 0.19391
 C883 C -0.13381 0.72405 0.23079
 C884 C -0.07942 0.73465 0.18721
 H885 H -0.09469 0.74278 0.24092
 H886 H -0.06318 0.74872 0.21595
 H887 H -0.10062 0.71960 0.16246
 H888 H -0.13184 0.71336 0.18772
 C889 C 0.38470 0.22673 0.71677
 C890 C 0.39911 0.20925 0.71176
 C891 C 0.41703 0.21267 0.69749
 C892 C 0.35076 0.22019 0.74372
 C893 C 0.40622 0.25111 0.69321
 C894 C 0.38830 0.24765 0.70747
 C895 C 0.36624 0.22318 0.73144
 C896 C 0.42080 0.23365 0.68804
 H897 H 0.39651 0.19300 0.71892
 H898 H 0.42812 0.19897 0.69409
 H899 H 0.40850 0.26737 0.68598
 H900 H 0.37721 0.26128 0.71119
 C901 C 0.61549 0.27245 0.71637
 C902 C 0.61188 0.25153 0.70713
 C903 C 0.59392 0.24807 0.69293
 C904 C 0.64947 0.27898 0.74322
 C905 C 0.58311 0.28651 0.69716
 C906 C 0.60107 0.28992 0.71137
 C907 C 0.63398 0.27600 0.73098
 C908 C 0.57933 0.26553 0.68777
 H909 H 0.62298 0.23791 0.71085
 H910 H 0.59163 0.23181 0.68575
 H911 H 0.57201 0.30020 0.69376
 H912 H 0.60367 0.30617 0.71849
 C913 C 0.11489 0.77362 0.21584
 C914 C 0.10051 0.79109 0.21071
 C915 C 0.08263 0.78765 0.19641
 C916 C 0.14868 0.78016 0.24292
 C917 C 0.09345 0.74920 0.19233
 C918 C 0.11133 0.75268 0.20662
 C919 C 0.13328 0.77718 0.23057
 C920 C 0.07889 0.76665 0.18705
 H921 H 0.10308 0.80735 0.21780
 H922 H 0.07156 0.80134 0.19291
 H923 H 0.09119 0.73292 0.18518
 H924 H 0.12240 0.73906 0.21043
 C925 C 0.28411 0.11487 0.22665
 C926 C 0.30637 0.11625 0.22025
 C927 C 0.32066 0.09835 0.22383
 C928 C 0.25708 0.14873 0.21992
 C929 C 0.29043 0.07760 0.24025
 C930 C 0.27617 0.09551 0.23664
 C931 C 0.26941 0.13330 0.22297
 C932 C 0.31285 0.07881 0.23388
 H933 H 0.31270 0.13117 0.21256
 H934 H 0.33789 0.09990 0.21900
 H935 H 0.28384 0.06270 0.24774
 H936 H 0.25894 0.09425 0.24160
 C937 C 0.78506 0.61449 0.72772
 C938 C 0.80787 0.61677 0.72410
 C939 C 0.82210 0.59882 0.72769
 C940 C 0.75811 0.64841 0.72099
 C941 C 0.79070 0.57623 0.73855
 C942 C 0.77651 0.59419 0.73494
 C943 C 0.77042 0.63297 0.72404
 C944 C 0.81367 0.57834 0.73497
 H945 H 0.81467 0.63243 0.71857
 H946 H 0.83972 0.60106 0.72506
 H947 H 0.78366 0.56061 0.74386
 H948 H 0.75886 0.59223 0.73773
 C949 C 0.78391 0.38317 0.77176
 C950 C 0.80671 0.38052 0.77517
 C951 C 0.82112 0.39836 0.77189
 C952 C 0.75668 0.34947 0.77834
 C953 C 0.78993 0.42158 0.76170
 C954 C 0.77555 0.40372 0.76501
 C955 C 0.76908 0.36483 0.77531
 C956 C 0.81289 0.41911 0.76513
 H957 H 0.81336 0.36467 0.78035
 H958 H 0.83873 0.39585 0.77439
 H959 H 0.78305 0.43741 0.75680
 H960 H 0.75792 0.40597 0.76240
 C961 C 0.28355 -0.11525 0.27330
 C962 C 0.30576 -0.11673 0.27986
 C963 C 0.32013 -0.09889 0.27644
 C964 C 0.25640 -0.14903 0.27980
 C965 C 0.29009 -0.07797 0.25985
 C966 C 0.27575 -0.09584 0.26330
 C967 C 0.26878 -0.13363 0.27683
 C968 C 0.31245 -0.07929 0.26638
 H969 H 0.31199 -0.13171 0.28756
 H970 H 0.33731 -0.10052 0.28139
 H971 H 0.28360 -0.06302 0.25234
 H972 H 0.25857 -0.09449 0.25822
 C973 C 0.21667 -0.11519 0.72693
 C974 C 0.19442 -0.11650 0.72051
 C975 C 0.18019 -0.09855 0.72400
 C976 C 0.24357 -0.14917 0.72033
 C977 C 0.21046 -0.07789 0.74038
 C978 C 0.22466 -0.09586 0.73686
 C979 C 0.23130 -0.13368 0.72333
 C980 C 0.18805 -0.07903 0.73399
 H981 H 0.18805 -0.13141 0.71286
 H982 H 0.16296 -0.10004 0.71916
 H983 H 0.21709 -0.06300 0.74783
 H984 H 0.24188 -0.09465 0.74183
 C985 C 0.71629 0.38512 0.22667
 C986 C 0.69404 0.38370 0.22025
 C987 C 0.67971 0.40157 0.22373
 C988 C 0.74337 0.35128 0.22011
 C989 C 0.70988 0.42240 0.24009
 C990 C 0.72418 0.40451 0.23658
 C991 C 0.73102 0.36671 0.22309
 C992 C 0.68747 0.42114 0.23371
 H993 H 0.68775 0.36874 0.21262
 H994 H 0.66250 0.39998 0.21890
 H995 H 0.71643 0.43733 0.24754
 H996 H 0.74139 0.40581 0.24155
 C997 C 0.71631 0.61526 0.27259
 C998 C 0.69409 0.61670 0.27913
 C999 C 0.67976 0.59883 0.27575
 C1000 C 0.74337 0.64910 0.27904
 C1001 C 0.70987 0.57798 0.25923
 C1002 C 0.72417 0.59587 0.26265
 C1003 C 0.73104 0.63367 0.27609
 C1004 C 0.68749 0.57925 0.26575
 H1005 H 0.68782 0.63167 0.28679
 H1006 H 0.66257 0.60043 0.28068
 H1007 H 0.71640 0.56304 0.25177
 H1008 H 0.74136 0.59456 0.25758
 C1009 C 0.21702 0.11538 0.77305
 C1010 C 0.20768 0.11182 0.75218
 C1011 C 0.19340 0.09391 0.74874
 C1012 C 0.24401 0.14927 0.77952
 C1013 C 0.19775 0.08306 0.78709
 C1014 C 0.21203 0.10097 0.79049
 C1015 C 0.23171 0.13382 0.77657
 C1016 C 0.18826 0.07932 0.76617
 H1017 H 0.21139 0.12291 0.73858
 H1018 H 0.18615 0.09166 0.73253
 H1019 H 0.19436 0.07197 0.80076
 H1020 H 0.21922 0.10354 0.80670
 C1021 C 0.22691 0.28408 0.11396
 C1022 C 0.22046 0.30629 0.11544
 C1023 C 0.22383 0.32062 0.09758
 C1024 C 0.22045 0.25703 0.14777
 C1025 C 0.24018 0.29053 0.07666
 C1026 C 0.23677 0.27623 0.09454
 C1027 C 0.22341 0.26935 0.13236
 C1028 C 0.23373 0.31290 0.07797
 H1029 H 0.21286 0.31256 0.13042
 H1030 H 0.21895 0.33780 0.09921
 H1031 H 0.24757 0.28401 0.06171
 H1032 H 0.24177 0.25904 0.09320
 C1033 C 0.72756 0.78341 0.61470
 C1034 C 0.74848 0.79273 0.61102
 C1035 C 0.75185 0.80702 0.59312
 C1036 C 0.72118 0.75646 0.64861
 C1037 C 0.71333 0.80271 0.58251
 C1038 C 0.71000 0.78841 0.60041
 C1039 C 0.72409 0.76874 0.63315
 C1040 C 0.73430 0.81219 0.57867
 H1041 H 0.76217 0.78901 0.62202
 H1042 H 0.76811 0.81427 0.59078
 H1043 H 0.69957 0.80612 0.57152
 H1044 H 0.69375 0.78123 0.60307
 C1045 C 0.77324 0.78440 0.38457
 C1046 C 0.79070 0.78940 0.39895
 C1047 C 0.78723 0.80361 0.41685
 C1048 C 0.77983 0.75746 0.35075
 C1049 C 0.74875 0.80788 0.40605
 C1050 C 0.75226 0.79367 0.38815
 C1051 C 0.77683 0.76975 0.36616
 C1052 C 0.76620 0.81302 0.42061
 H1053 H 0.80699 0.78225 0.39636
 H1054 H 0.80092 0.80700 0.42791
 H1055 H 0.73245 0.81508 0.40832
 H1056 H 0.73864 0.78996 0.37708
 C1057 C 0.27227 0.28437 -0.11578
 C1058 C 0.27878 0.30656 -0.11729
 C1059 C 0.27528 0.32092 -0.09951
 C1060 C 0.27905 0.25719 -0.14937
 C1061 C 0.25866 0.29092 -0.07863
 C1062 C 0.26220 0.27658 -0.09642
 C1063 C 0.27595 0.26958 -0.13406
 C1064 C 0.26518 0.31326 -0.07997
 H1065 H 0.28654 0.31277 -0.13222
 H1066 H 0.28022 0.33809 -0.10116
 H1067 H 0.25113 0.28444 -0.06371
 H1068 H 0.25715 0.25942 -0.09506
 C1069 C 0.72741 0.21560 -0.11546
 C1070 C 0.72093 0.19339 -0.11676
 C1071 C 0.72445 0.17915 -0.09885
 C1072 C 0.72075 0.24250 -0.14936
 C1073 C 0.74100 0.20933 -0.07826
 C1074 C 0.73744 0.22354 -0.09618
 C1075 C 0.72378 0.23023 -0.13391
 C1076 C 0.73454 0.18696 -0.07939
 H1077 H 0.71320 0.18706 -0.13164
 H1078 H 0.71955 0.16197 -0.10034
 H1079 H 0.74852 0.21592 -0.06341
 H1080 H 0.74247 0.24072 -0.09498
 C1081 C 0.22668 0.71653 0.38526
 C1082 C 0.23660 0.72436 0.40465
 C1083 C 0.24000 0.71005 0.42253
 C1084 C 0.22024 0.74360 0.35146
 C1085 C 0.22355 0.68001 0.40167
 C1086 C 0.22017 0.69434 0.38381
 C1087 C 0.22318 0.73127 0.36687
 C1088 C 0.23351 0.68770 0.42124
 H1089 H 0.24164 0.74153 0.40597
 H1090 H 0.24744 0.71655 0.43746
 H1091 H 0.21864 0.66284 0.40006
 H1092 H 0.21254 0.68810 0.36885
 C1093 C 0.27221 0.71615 0.61506
 C1094 C 0.25125 0.70687 0.61153
 C1095 C 0.24776 0.69258 0.59370
 C1096 C 0.27882 0.74318 0.64880
 C1097 C 0.28624 0.69680 0.58286
 C1098 C 0.28969 0.71109 0.60070
 C1099 C 0.27579 0.73086 0.63342
 C1100 C 0.26523 0.68736 0.57916
 H1101 H 0.23762 0.71063 0.62259
 H1102 H 0.23147 0.68537 0.59146
 H1103 H 0.29994 0.69336 0.57181
 H1104 H 0.30596 0.71824 0.60324
 C1105 C 0.77368 0.21594 0.11461
 C1106 C 0.78025 0.19375 0.11603
 C1107 C 0.77685 0.17947 0.09818
 C1108 C 0.78013 0.24292 0.14840
 C1109 C 0.76025 0.20956 0.07739
 C1110 C 0.76368 0.22381 0.09526
 C1111 C 0.77718 0.23062 0.13300
 C1112 C 0.76679 0.18721 0.07864
 H1113 H 0.78795 0.18747 0.13096
 H1114 H 0.78181 0.16230 0.09976
 H1115 H 0.75274 0.21609 0.06248
 H1116 H 0.75859 0.24098 0.09396
 C1117 C 0.47712 0.36464 0.53442
 C1118 C 0.49808 0.36103 0.54369
 C1119 C 0.50153 0.34315 0.55800
 C1120 C 0.47060 0.39847 0.50736
 C1121 C 0.46302 0.33244 0.55384
 C1122 C 0.45961 0.35032 0.53952
 C1123 C 0.47358 0.38305 0.51969
 C1124 C 0.48403 0.32865 0.56325
 H1125 H 0.51174 0.37205 0.53990
 H1126 H 0.51782 0.34085 0.56519
 H1127 H 0.44929 0.32142 0.55732
 H1128 H 0.44333 0.35293 0.53239
 C1129 C -0.02315 0.86538 0.03330
 C1130 C -0.00220 0.86180 0.04261
 C1131 C 0.00125 0.84394 0.05694
 C1132 C -0.02966 0.89921 0.00624
 C1133 C -0.03723 0.83314 0.05268
 C1134 C -0.04064 0.85101 0.03835
 C1135 C -0.02669 0.88378 0.01857
 C1136 C -0.01623 0.82940 0.06215
 H1137 H 0.01144 0.87286 0.03886
 H1138 H 0.01752 0.84167 0.06417
 H1139 H -0.05094 0.82209 0.05613
 H1140 H -0.05690 0.85359 0.03118
 C1141 C 0.02282 0.63482 0.03464
 C1142 C 0.02933 0.63353 0.05680
 C1143 C 0.02589 0.65151 0.07094
 C1144 C 0.02924 0.60077 0.00791
 C1145 C 0.00938 0.67217 0.04074
 C1146 C 0.01285 0.65417 0.02664
 C1147 C 0.02633 0.61629 0.02011
 C1148 C 0.01586 0.67105 0.06307
 H1149 H 0.03700 0.61860 0.06318
 H1150 H 0.03080 0.65002 0.08809
 H1151 H 0.00190 0.68707 0.03411
 H1152 H 0.00780 0.65536 0.00949
 C1153 C 0.52298 0.13458 0.53463
 C1154 C 0.52946 0.13308 0.55679
 C1155 C 0.52600 0.15093 0.57109
 C1156 C 0.52957 0.10082 0.50759
 C1157 C 0.50952 0.17187 0.54108
 C1158 C 0.51301 0.15401 0.52681
 C1159 C 0.52656 0.11621 0.51992
 C1160 C 0.51598 0.17054 0.56340
 H1161 H 0.53714 0.11810 0.56303
 H1162 H 0.53090 0.14928 0.58824
 H1163 H 0.50205 0.18683 0.53458
 H1164 H 0.50799 0.15537 0.50966
 C1165 C -0.02277 0.13540 0.46611
 C1166 C -0.00184 0.13900 0.45677
 C1167 C 0.00155 0.15686 0.44242
 C1168 C -0.02919 0.10161 0.49322
 C1169 C -0.03696 0.16758 0.44670
 C1170 C -0.04031 0.14972 0.46105
 C1171 C -0.02625 0.11702 0.48087
 C1172 C -0.01598 0.17135 0.43720
 H1173 H 0.01184 0.12798 0.46052
 H1174 H 0.01782 0.15914 0.43516
 H1175 H -0.05071 0.17860 0.44326
 H1176 H -0.05656 0.14712 0.46825
 C1177 C 0.47714 0.63477 0.96641
 C1178 C 0.45966 0.64916 0.96134
 C1179 C 0.46310 0.66702 0.94700
 C1180 C 0.47054 0.60097 0.99347
 C1181 C 0.50158 0.65615 0.94276
 C1182 C 0.49810 0.63830 0.95710
 C1183 C 0.47357 0.61638 0.98114
 C1184 C 0.48410 0.67071 0.93754
 H1185 H 0.44339 0.64662 0.96851
 H1186 H 0.44939 0.67809 0.94355
 H1187 H 0.51786 0.65838 0.93553
 H1188 H 0.51173 0.62722 0.96086
 C1189 C 0.52298 0.86465 0.96613
 C1190 C 0.52950 0.86614 0.94397
 C1191 C 0.52603 0.84832 0.92966
 C1192 C 0.52963 0.89836 0.99319
 C1193 C 0.50948 0.82740 0.95965
 C1194 C 0.51297 0.84525 0.97393
 C1195 C 0.52659 0.88299 0.98085
 C1196 C 0.51598 0.82873 0.93734
 H1197 H 0.53721 0.88111 0.93774
 H1198 H 0.53096 0.84996 0.91252
 H1199 H 0.50197 0.81246 0.96613
 H1200 H 0.50792 0.84389 0.99107
 C1201 C 0.02227 0.36577 0.46509
 C1202 C 0.01238 0.34637 0.47303
 C1203 C 0.00897 0.32841 0.45886
 C1204 C 0.02866 0.39972 0.49192
 C1205 C 0.02537 0.34923 0.42872
 C1206 C 0.02875 0.36716 0.44292
 C1207 C 0.02575 0.38425 0.47968
 C1208 C 0.01543 0.32963 0.43653
 H1209 H 0.00736 0.34509 0.49019
 H1210 H 0.00155 0.31347 0.46545
 H1211 H 0.03026 0.35079 0.41156
 H1212 H 0.03636 0.38214 0.43658
 C1213 C 0.36455 0.53389 0.47736
 C1214 C 0.36093 0.54315 0.49825
 C1215 C 0.34300 0.55744 0.50170
 C1216 C 0.39847 0.50688 0.47084
 C1217 C 0.33225 0.55327 0.46332
 C1218 C 0.35018 0.53898 0.45991
 C1219 C 0.38301 0.51919 0.47382
 C1220 C 0.32845 0.56267 0.48426
 H1221 H 0.37199 0.53937 0.51185
 H1222 H 0.34069 0.56462 0.51793
 H1223 H 0.32119 0.55674 0.44964
 H1224 H 0.35280 0.53185 0.44369
 C1225 C 0.86597 0.03336 -0.02310
 C1226 C 0.86248 0.04274 -0.00224
 C1227 C 0.84462 0.05711 0.00122
 C1228 C 0.89975 0.00616 -0.02962
 C1229 C 0.83367 0.05277 -0.03708
 C1230 C 0.85153 0.03840 -0.04050
 C1231 C 0.88435 0.01856 -0.02664
 C1232 C 0.83000 0.06230 -0.01617
 H1233 H 0.87360 0.03900 0.01133
 H1234 H 0.84242 0.06439 0.01742
 H1235 H 0.82255 0.05619 -0.05072
 H1236 H 0.85404 0.03117 -0.05670
 C1237 C 0.63569 0.03360 0.02301
 C1238 C 0.65512 0.02574 0.01307
 C1239 C 0.67303 0.04002 0.00957
 C1240 C 0.60183 0.00656 0.02961
 C1241 C 0.65213 0.07011 0.02598
 C1242 C 0.63423 0.05581 0.02945
 C1243 C 0.61727 0.01889 0.02659
 C1244 C 0.67174 0.06238 0.01598
 H1245 H 0.65645 0.00856 0.00808
 H1246 H 0.68800 0.03349 0.00211
 H1247 H 0.65051 0.08729 0.03084
 H1248 H 0.61924 0.06208 0.03711
 C1249 C 0.13363 0.53422 0.52243
 C1250 C 0.13223 0.55640 0.52897
 C1251 C 0.15020 0.57064 0.52566
 C1252 C 0.09960 0.50730 0.52870
 C1253 C 0.17108 0.54054 0.50923
 C1254 C 0.15308 0.52632 0.51257
 C1255 C 0.11512 0.51957 0.52584
 C1256 C 0.16984 0.56288 0.51574
 H1257 H 0.11722 0.56270 0.53656
 H1258 H 0.14863 0.58781 0.53059
 H1259 H 0.18605 0.53398 0.50183
 H1260 H 0.15437 0.50916 0.50750
 C1261 C 0.13405 0.46707 -0.02223
 C1262 C 0.13784 0.45761 -0.00144
 C1263 C 0.15579 0.44328 0.00175
 C1264 C 0.10001 0.49407 -0.02827
 C1265 C 0.16624 0.44783 -0.03669
 C1266 C 0.14828 0.46217 -0.03983
 C1267 C 0.11554 0.48178 -0.02550
 C1268 C 0.17020 0.43822 -0.01585
 H1269 H 0.12689 0.46125 0.01229
 H1270 H 0.15823 0.43593 0.01790
 H1271 H 0.17718 0.44450 -0.05049
 H1272 H 0.14553 0.46945 -0.05598
 C1273 C 0.63462 0.96617 0.47736
 C1274 C 0.63319 0.94400 0.47080
 C1275 C 0.65110 0.92967 0.47419
 C1276 C 0.60074 0.99326 0.47087
 C1277 C 0.67197 0.95968 0.49074
 C1278 C 0.65404 0.97398 0.48732
 C1279 C 0.61619 0.98091 0.47383
 C1280 C 0.67071 0.93735 0.48420
 H1281 H 0.61821 0.93778 0.46312
 H1282 H 0.64951 0.91252 0.46923
 H1283 H 0.68693 0.96617 0.49822
 H1284 H 0.65535 0.99113 0.49240
 C1285 C 0.86516 0.96605 0.52316
 C1286 C 0.86159 0.95687 0.50223
 C1287 C 0.84369 0.94259 0.49870
 C1288 C 0.89898 0.99311 0.52976
 C1289 C 0.83287 0.94659 0.53709
 C1290 C 0.85077 0.96088 0.54057
 C1291 C 0.88356 0.98077 0.52676
 C1292 C 0.82912 0.93728 0.51610
 H1293 H 0.87266 0.96071 0.48864
 H1294 H 0.84143 0.93547 0.48244
 H1295 H 0.82179 0.94307 0.55074
 H1296 H 0.85334 0.96795 0.55682
 C1297 C 0.36481 0.46644 0.02213
 C1298 C 0.34538 0.47435 0.01222
 C1299 C 0.32747 0.46009 0.00868
 C1300 C 0.39864 0.49347 0.02883
 C1301 C 0.34838 0.42991 0.02500
 C1302 C 0.36627 0.44420 0.02850
 C1303 C 0.38322 0.48114 0.02577
 C1304 C 0.32876 0.43769 0.01504
 H1305 H 0.34405 0.49156 0.00728
 H1306 H 0.31251 0.46666 0.00126
 H1307 H 0.35000 0.41270 0.02981
 H1308 H 0.38126 0.43789 0.03613
 C1309 C 0.53405 0.47700 0.36515
 C1310 C 0.54337 0.49792 0.36159
 C1311 C 0.55763 0.50143 0.34369
 C1312 C 0.50705 0.47041 0.39899
 C1313 C 0.55329 0.46304 0.33284
 C1314 C 0.53903 0.45957 0.35074
 C1315 C 0.51936 0.47341 0.38357
 C1316 C 0.56276 0.48402 0.32910
 H1317 H 0.53967 0.51151 0.37268
 H1318 H 0.56487 0.51768 0.34143
 H1319 H 0.55667 0.44939 0.32174
 H1320 H 0.53185 0.44333 0.35331
 C1321 C 0.03454 -0.02308 0.86516
 C1322 C 0.04386 -0.00215 0.86165
 C1323 C 0.05819 0.00138 0.84382
 C1324 C 0.00739 -0.02971 0.89888
 C1325 C 0.05393 -0.03701 0.83292
 C1326 C 0.03960 -0.04049 0.85076
 C1327 C 0.01977 -0.02669 0.88351
 C1328 C 0.06340 -0.01602 0.82924
 H1329 H 0.04010 0.01143 0.87274
 H1330 H 0.06543 0.01764 0.84160
 H1331 H 0.05737 -0.05065 0.82183
 H1332 H 0.03241 -0.05675 0.85328
 C1333 C 0.03446 0.02328 0.63540
 C1334 C 0.03950 0.04076 0.64971
 C1335 C 0.05381 0.03734 0.66758
 C1336 C 0.00739 0.02979 0.60161
 C1337 C 0.05809 -0.00110 0.65687
 C1338 C 0.04379 0.00236 0.63901
 C1339 C 0.01973 0.02682 0.61701
 C1340 C 0.06328 0.01636 0.67137
 H1341 H 0.03232 0.05701 0.64710
 H1342 H 0.05724 0.05104 0.67860
 H1343 H 0.06533 -0.01736 0.65917
 H1344 H 0.04004 -0.01127 0.62799
 C1345 C 0.53374 0.52335 0.13502
 C1346 C 0.53871 0.54079 0.14940
 C1347 C 0.55298 0.53734 0.16729
 C1348 C 0.50680 0.52993 0.10115
 C1349 C 0.55734 0.49893 0.15649
 C1350 C 0.54308 0.50243 0.13860
 C1351 C 0.51908 0.52693 0.11659
 C1352 C 0.56247 0.51636 0.17105
 H1353 H 0.53152 0.55704 0.14681
 H1354 H 0.55636 0.55101 0.17836
 H1355 H 0.56459 0.48268 0.15876
 H1356 H 0.53938 0.48882 0.12753
 C1357 C 0.46649 -0.02353 0.13558
 C1358 C 0.46147 -0.04099 0.14997
 C1359 C 0.44718 -0.03755 0.16785
 C1360 C 0.49349 -0.03007 0.10173
 C1361 C 0.44290 0.00089 0.15701
 C1362 C 0.45719 -0.00260 0.13913
 C1363 C 0.48118 -0.02710 0.11716
 C1364 C 0.43773 -0.01656 0.17158
 H1365 H 0.46864 -0.05724 0.14740
 H1366 H 0.44376 -0.05123 0.17892
 H1367 H 0.43567 0.01715 0.15926
 H1368 H 0.46092 0.01102 0.12806
 C1369 C 0.96459 0.47823 0.63367
 C1370 C 0.96653 0.49742 0.64648
 C1371 C 0.95250 0.50073 0.66458
 C1372 C 0.99152 0.47181 0.59975
 C1373 C 0.93445 0.46568 0.65708
 C1374 C 0.94851 0.46239 0.63899
 C1375 C 0.97921 0.47474 0.61519
 C1376 C 0.93631 0.48487 0.67012
 H1377 H 0.97889 0.50981 0.64248
 H1378 H 0.95415 0.51582 0.67410
 H1379 H 0.92236 0.45304 0.66107
 H1380 H 0.94691 0.44745 0.62922
 C1381 C 0.96419 0.52241 0.86780
 C1382 C 0.95544 0.50129 0.86404
 C1383 C 0.94130 0.49762 0.84610
 C1384 C 0.99137 0.52918 0.90141
 C1385 C 0.94454 0.53626 0.83566
 C1386 C 0.95869 0.53989 0.85360
 C1387 C 0.97895 0.52611 0.88612
 C1388 C 0.93571 0.51506 0.83167
 H1389 H 0.95955 0.48766 0.87496
 H1390 H 0.93455 0.48119 0.84364
 H1391 H 0.94080 0.54995 0.82470
 H1392 H 0.96543 0.55629 0.85632
 C1393 C 0.46611 0.02261 0.36550
 C1394 C 0.45673 0.00171 0.36201
 C1395 C 0.44246 -0.00176 0.34413
 C1396 C 0.49314 0.02913 0.39929
 C1397 C 0.44688 0.03662 0.33318
 C1398 C 0.46115 0.04005 0.35105
 C1399 C 0.48081 0.02616 0.38389
 C1400 C 0.43736 0.01566 0.32951
 H1401 H 0.46041 -0.01188 0.37312
 H1402 H 0.43518 -0.01800 0.34192
 H1403 H 0.44352 0.05028 0.32206
 H1404 H 0.46838 0.05628 0.35357
   
