data_POSCAR
  _audit_creation_date              2014-09-24
  _audit_creation_method            'ToBaCCo'
  _symmetry_space_group_name_H-M    'P1'
  _symmetry_Int_Tables_number       1
  _symmetry_cell_setting            triclinic
  loop_
  _symmetry_equiv_pos_as_xyz
 x,y,z
_cell_length_a 64.8220
_cell_length_b 64.7595
_cell_length_c 63.6631
_cell_angle_alpha 90.185400
_cell_angle_beta 90.137700
_cell_angle_gamma 90.113500
loop_
  _atom_site_label
  _atom_site_type_symbol
  _atom_site_fract_x
  _atom_site_fract_y
  _atom_site_fract_z
C1 C 0.35311 0.36156 0.31090
 C2 C 0.37056 0.35191 0.30252
 C3 C 0.37716 0.33257 0.30999
 C4 C 0.36648 0.32340 0.32683
 C5 C 0.34922 0.33318 0.33579
 C6 C 0.34240 0.35222 0.32761
 C7 C 0.34593 0.38016 0.30241
 C8 C 0.32777 0.38939 0.30998
 C9 C 0.31744 0.38021 0.32700
 C10 C 0.32471 0.36182 0.33592
 C11 C 0.31428 0.35268 0.35276
 C12 C 0.32093 0.33376 0.36120
 C13 C 0.33839 0.32404 0.35247
 H14 H 0.37889 0.35942 0.28993
 H15 H 0.37125 0.30844 0.33264
 H16 H 0.35433 0.38728 0.28964
 H17 H 0.30329 0.38695 0.33289
 H18 H 0.30104 0.36049 0.35943
 H19 H 0.34342 0.30923 0.35844
 C20 C 0.35172 0.86315 -0.18843
 C21 C 0.36939 0.85482 -0.19794
 C22 C 0.37957 0.83745 -0.18939
 C23 C 0.37160 0.82900 -0.17060
 C24 C 0.35429 0.83752 -0.16070
 C25 C 0.34422 0.85457 -0.16970
 C26 C 0.34138 0.87987 -0.19758
 C27 C 0.32299 0.88792 -0.18882
 C28 C 0.31604 0.87932 -0.16965
 C29 C 0.32655 0.86291 -0.16006
 C30 C 0.31939 0.85442 -0.14114
 C31 C 0.32937 0.83737 -0.13197
 C32 C 0.34669 0.82891 -0.14208
 H33 H 0.37531 0.86239 -0.21180
 H34 H 0.37812 0.81514 -0.16388
 H35 H 0.34815 0.88670 -0.21142
 H36 H 0.30182 0.88441 -0.16250
 H37 H 0.30612 0.86124 -0.13351
 H38 H 0.35419 0.81540 -0.13562
 C39 C 0.84598 0.34864 -0.18625
 C40 C 0.86527 0.34245 -0.19407
 C41 C 0.87541 0.32475 -0.18619
 C42 C 0.86575 0.31382 -0.16973
 C43 C 0.84673 0.32010 -0.16159
 C44 C 0.83667 0.33747 -0.16994
 C45 C 0.83587 0.36582 -0.19471
 C46 C 0.81608 0.37193 -0.18768
 C47 C 0.80714 0.36064 -0.17093
 C48 C 0.81728 0.34354 -0.16205
 C49 C 0.80820 0.33213 -0.14566
 C50 C 0.81828 0.31473 -0.13725
 C51 C 0.83754 0.30894 -0.14535
 H52 H 0.87241 0.35186 -0.20605
 H53 H 0.87226 0.29964 -0.16376
 H54 H 0.84394 0.37465 -0.20653
 H55 H 0.79185 0.36431 -0.16530
 H56 H 0.79324 0.33660 -0.13963
 H57 H 0.84560 0.29581 -0.13873
 C58 C 0.85265 0.85298 0.32362
 C59 C 0.87068 0.84474 0.31484
 C60 C 0.88202 0.82943 0.32542
 C61 C 0.87504 0.82245 0.34511
 C62 C 0.85680 0.83024 0.35390
 C63 C 0.84562 0.84560 0.34312
 C64 C 0.84131 0.86815 0.31292
 C65 C 0.82290 0.87634 0.32144
 C66 C 0.81624 0.86871 0.34109
 C67 C 0.82724 0.85337 0.35172
 C68 C 0.81983 0.84548 0.37072
 C69 C 0.83056 0.82988 0.38143
 C70 C 0.84931 0.82261 0.37306
 H71 H 0.87562 0.84996 0.29950
 H72 H 0.88374 0.81088 0.35359
 H73 H 0.84661 0.87280 0.29754
 H74 H 0.80284 0.87510 0.34881
 H75 H 0.80520 0.85097 0.37673
 H76 H 0.85794 0.81082 0.38131
 C77 C 0.65655 0.64771 0.31629
 C78 C 0.63947 0.65581 0.30565
 C79 C 0.62998 0.67414 0.31252
 C80 C 0.63759 0.68402 0.33074
 C81 C 0.65453 0.67590 0.34176
 C82 C 0.66411 0.65774 0.33442
 C83 C 0.66643 0.62993 0.30878
 C84 C 0.68370 0.62177 0.31928
 C85 C 0.69090 0.63173 0.33759
 C86 C 0.68142 0.64975 0.34502
 C87 C 0.68930 0.66011 0.36267
 C88 C 0.67993 0.67826 0.37025
 C89 C 0.66232 0.68587 0.35975
 H90 H 0.63354 0.64772 0.29198
 H91 H 0.63071 0.69834 0.33606
 H92 H 0.66095 0.62282 0.29438
 H93 H 0.70392 0.62546 0.34614
 H94 H 0.70315 0.65427 0.37007
 H95 H 0.65462 0.69958 0.36552
 C96 C 0.64825 0.14463 -0.17638
 C97 C 0.63012 0.15188 -0.18594
 C98 C 0.62074 0.17031 -0.17911
 C99 C 0.62960 0.18121 -0.16219
 C100 C 0.64751 0.17399 -0.15230
 C101 C 0.65697 0.15571 -0.15950
 C102 C 0.65796 0.12672 -0.18382
 C103 C 0.67644 0.11930 -0.17462
 C104 C 0.68474 0.13056 -0.15743
 C105 C 0.67525 0.14865 -0.14998
 C106 C 0.68392 0.15993 -0.13323
 C107 C 0.67452 0.17818 -0.12587
 C108 C 0.65624 0.18499 -0.13550
 H109 H 0.62331 0.14311 -0.19872
 H110 H 0.62291 0.19567 -0.15701
 H111 H 0.65143 0.11937 -0.19759
 H112 H 0.69829 0.12514 -0.14921
 H113 H 0.69824 0.15472 -0.12624
 H114 H 0.64866 0.19882 -0.12982
 C115 C 0.15016 0.64625 -0.17374
 C116 C 0.13273 0.65416 -0.18400
 C117 C 0.12372 0.67285 -0.17746
 C118 C 0.13230 0.68341 -0.16016
 C119 C 0.14942 0.67539 -0.14944
 C120 C 0.15843 0.65675 -0.15628
 C121 C 0.15968 0.62824 -0.18110
 C122 C 0.17754 0.62019 -0.17128
 C123 C 0.18517 0.63060 -0.15326
 C124 C 0.17585 0.64879 -0.14586
 C125 C 0.18389 0.65930 -0.12832
 C126 C 0.17509 0.67800 -0.12144
 C127 C 0.15789 0.68594 -0.13221
 H128 H 0.12615 0.64565 -0.19708
 H129 H 0.12591 0.69807 -0.15520
 H130 H 0.15365 0.62145 -0.19539
 H131 H 0.19817 0.62454 -0.14458
 H132 H 0.19703 0.65291 -0.12006
 H133 H 0.15126 0.70056 -0.12743
 C134 C 0.15009 0.14600 0.32395
 C135 C 0.13259 0.15463 0.31443
 C136 C 0.12569 0.17478 0.31959
 C137 C 0.13677 0.18582 0.33525
 C138 C 0.15415 0.17723 0.34516
 C139 C 0.16077 0.15725 0.33946
 C140 C 0.15716 0.12631 0.31795
 C141 C 0.17498 0.11756 0.32720
 C142 C 0.18510 0.12897 0.34313
 C143 C 0.17824 0.14859 0.34914
 C144 C 0.18907 0.15987 0.36436
 C145 C 0.18300 0.17996 0.36990
 C146 C 0.16537 0.18851 0.36032
 H147 H 0.12413 0.14512 0.30337
 H148 H 0.13266 0.20153 0.33924
 H149 H 0.14842 0.11777 0.30630
 H150 H 0.19926 0.12337 0.35011
 H151 H 0.20232 0.15293 0.37196
 H152 H 0.16062 0.20405 0.36436
 C153 C 0.64323 0.34176 0.67430
 C154 C 0.62447 0.33454 0.68249
 C155 C 0.61522 0.31642 0.67451
 C156 C 0.62502 0.30566 0.65812
 C157 C 0.64359 0.31281 0.64964
 C158 C 0.65276 0.33093 0.65771
 C159 C 0.65278 0.35946 0.68266
 C160 C 0.67158 0.36680 0.67443
 C161 C 0.68065 0.35607 0.65750
 C162 C 0.67156 0.33806 0.64934
 C163 C 0.68117 0.32688 0.63316
 C164 C 0.67219 0.30865 0.62515
 C165 C 0.65326 0.30189 0.63340
 H166 H 0.61702 0.34310 0.69499
 H167 H 0.61844 0.29137 0.65222
 H168 H 0.64574 0.36716 0.69595
 H169 H 0.69483 0.36168 0.65058
 H170 H 0.69591 0.33212 0.62720
 H171 H 0.64595 0.28813 0.62711
 C172 C 0.64826 0.85595 1.16889
 C173 C 0.63101 0.84726 1.17870
 C174 C 0.62317 0.82772 1.17257
 C175 C 0.63266 0.81768 1.15528
 C176 C 0.64978 0.82641 1.14506
 C177 C 0.65779 0.84544 1.15216
 C178 C 0.65631 0.87493 1.17584
 C179 C 0.67425 0.88325 1.16675
 C180 C 0.68371 0.87255 1.15013
 C181 C 0.67549 0.85389 1.14267
 C182 C 0.68493 0.84346 1.12601
 C183 C 0.67678 0.82478 1.11827
 C184 C 0.65924 0.81625 1.12804
 H185 H 0.62357 0.85617 1.19091
 H186 H 0.62766 0.80251 1.15025
 H187 H 0.64868 0.88313 1.18848
 H188 H 0.69778 0.87849 1.14323
 H189 H 0.69882 0.84987 1.11917
 H190 H 0.65278 0.80187 1.12226
 C191 C 0.14741 0.36069 1.18165
 C192 C 0.12988 0.35220 1.19131
 C193 C 0.11895 0.33546 1.18209
 C194 C 0.12616 0.32769 1.16265
 C195 C 0.14386 0.33574 1.15306
 C196 C 0.15447 0.35233 1.16252
 C197 C 0.15828 0.37713 1.19109
 C198 C 0.17598 0.38551 1.18150
 C199 C 0.18269 0.37708 1.16228
 C200 C 0.17229 0.36043 1.15294
 C201 C 0.17972 0.35152 1.13434
 C202 C 0.16945 0.33470 1.12492
 C203 C 0.15125 0.32721 1.13421
 H204 H 0.12551 0.35823 1.20651
 H205 H 0.11784 0.31564 1.15440
 H206 H 0.15312 0.38315 1.20608
 H207 H 0.19602 0.38354 1.15443
 H208 H 0.19393 0.35731 1.12762
 H209 H 0.14290 0.31457 1.12691
 C210 C 0.14171 0.85410 0.67637
 C211 C 0.12492 0.84554 0.68718
 C212 C 0.11402 0.82824 0.67915
 C213 C 0.12061 0.81983 0.65971
 C214 C 0.13757 0.82805 0.64890
 C215 C 0.14810 0.84529 0.65723
 C216 C 0.15243 0.87117 0.68464
 C217 C 0.16935 0.87975 0.67387
 C218 C 0.17553 0.87083 0.65475
 C219 C 0.16518 0.85361 0.64649
 C220 C 0.17187 0.84443 0.62779
 C221 C 0.16163 0.82711 0.61936
 C222 C 0.14428 0.81918 0.62992
 H223 H 0.12112 0.85203 0.70236
 H224 H 0.11229 0.80721 0.65241
 H225 H 0.14776 0.87761 0.69962
 H226 H 0.18834 0.87741 0.64612
 H227 H 0.18551 0.85048 0.62013
 H228 H 0.13606 0.80603 0.62345
 C229 C 0.34904 0.64983 0.68243
 C230 C 0.36610 0.65834 0.69290
 C231 C 0.37454 0.67735 0.68657
 C232 C 0.36572 0.68772 0.66933
 C233 C 0.34871 0.67931 0.65858
 C234 C 0.34034 0.66030 0.66519
 C235 C 0.34042 0.63109 0.68910
 C236 C 0.32334 0.62238 0.67858
 C237 C 0.31495 0.63286 0.66121
 C238 C 0.32315 0.65182 0.65467
 C239 C 0.31422 0.66251 0.63788
 C240 C 0.32242 0.68148 0.63103
 C241 C 0.33982 0.68969 0.64147
 H242 H 0.37294 0.65001 0.70590
 H243 H 0.37182 0.70256 0.66450
 H244 H 0.34680 0.62354 0.70281
 H245 H 0.30209 0.62623 0.65262
 H246 H 0.30053 0.65619 0.63047
 H247 H 0.34655 0.70410 0.63623
 C248 C 0.35230 0.14833 1.18365
 C249 C 0.37067 0.15557 1.19287
 C250 C 0.37993 0.17432 1.18637
 C251 C 0.37034 0.18532 1.16983
 C252 C 0.35214 0.17814 1.16034
 C253 C 0.34301 0.15969 1.16741
 C254 C 0.34315 0.12980 1.19045
 C255 C 0.32454 0.12244 1.18142
 C256 C 0.31539 0.13435 1.16533
 C257 C 0.32448 0.15268 1.15828
 C258 C 0.31513 0.16418 1.14228
 C259 C 0.32430 0.18242 1.13477
 C260 C 0.34283 0.18931 1.14399
 H261 H 0.37789 0.14610 1.20475
 H262 H 0.37622 0.20014 1.16481
 H263 H 0.35111 0.12092 1.20232
 H264 H 0.30064 0.12998 1.15866
 H265 H 0.30057 0.15895 1.13577
 H266 H 0.35021 0.20322 1.13826
 C267 C 0.86096 0.63406 1.17783
 C268 C 0.87930 0.64263 1.18562
 C269 C 0.88922 0.65885 1.17502
 C270 C 0.88068 0.66620 1.15611
 C271 C 0.86220 0.65787 1.14820
 C272 C 0.85227 0.64179 1.15918
 C273 C 0.85109 0.61806 1.18867
 C274 C 0.83224 0.60960 1.18144
 C275 C 0.82362 0.61778 1.16280
 C276 C 0.83350 0.63364 1.15170
 C277 C 0.82458 0.64178 1.13344
 C278 C 0.83432 0.65778 1.12229
 C279 C 0.85328 0.66560 1.12972
 H280 H 0.88546 0.63709 1.20040
 H281 H 0.88831 0.67853 1.14765
 H282 H 0.85873 0.61183 1.20238
 H283 H 0.80872 0.61259 1.15716
 H284 H 0.80977 0.63592 1.12818
 H285 H 0.86107 0.67777 1.12118
 C286 C 0.85169 0.14296 0.69001
 C287 C 0.87017 0.14957 0.69939
 C288 C 0.88001 0.16782 0.69275
 C289 C 0.87154 0.17884 0.67578
 C290 C 0.85340 0.17208 0.66587
 C291 C 0.84320 0.15429 0.67325
 C292 C 0.84132 0.12546 0.69748
 C293 C 0.82210 0.11947 0.68902
 C294 C 0.81387 0.13076 0.67208
 C295 C 0.82440 0.14798 0.66402
 C296 C 0.81628 0.15920 0.64709
 C297 C 0.82672 0.17662 0.63921
 C298 C 0.84518 0.18304 0.64887
 H299 H 0.87671 0.14061 0.71211
 H300 H 0.87864 0.19309 0.67062
 H301 H 0.84817 0.11665 0.71013
 H302 H 0.79903 0.12653 0.66549
 H303 H 0.80175 0.15444 0.64012
 H304 H 0.85340 0.19636 0.64290
 C305 C 0.35005 0.35442 0.67775
 C306 C 0.34112 0.37306 0.68419
 C307 C 0.32483 0.38196 0.67273
 C308 C 0.31749 0.37176 0.65460
 C309 C 0.32615 0.35292 0.64808
 C310 C 0.34254 0.34427 0.65968
 C311 C 0.36624 0.34570 0.68932
 C312 C 0.37493 0.32670 0.68330
 C313 C 0.36733 0.31666 0.66520
 C314 C 0.35130 0.32535 0.65333
 C315 C 0.34377 0.31529 0.63534
 C316 C 0.32724 0.32359 0.62374
 C317 C 0.31854 0.34249 0.63030
 H318 H 0.34660 0.38037 0.69849
 H319 H 0.30512 0.37852 0.64546
 H320 H 0.37217 0.35382 0.70296
 H321 H 0.37357 0.30182 0.66056
 H322 H 0.35093 0.30101 0.63032
 H323 H 0.30554 0.34891 0.62186
 C324 C 0.35922 0.85876 0.17169
 C325 C 0.35111 0.87731 0.17956
 C326 C 0.33432 0.88700 0.16957
 C327 C 0.32640 0.87831 0.15090
 C328 C 0.33462 0.86000 0.14262
 C329 C 0.35080 0.84996 0.15329
 C330 C 0.37540 0.84870 0.18214
 C331 C 0.38284 0.82949 0.17495
 C332 C 0.37410 0.82077 0.15668
 C333 C 0.35840 0.83099 0.14567
 C334 C 0.35003 0.82239 0.12729
 C335 C 0.33434 0.83263 0.11610
 C336 C 0.32668 0.85143 0.12400
 H337 H 0.35775 0.88406 0.19363
 H338 H 0.31333 0.88537 0.14311
 H339 H 0.38215 0.85588 0.19593
 H340 H 0.37924 0.80581 0.15113
 H341 H 0.35567 0.80759 0.12179
 H342 H 0.31469 0.85959 0.11555
 C343 C 0.85909 0.35572 0.16709
 C344 C 0.84825 0.37235 0.17600
 C345 C 0.83020 0.37993 0.16640
 C346 C 0.82312 0.37057 0.14780
 C347 C 0.83400 0.35428 0.13857
 C348 C 0.85207 0.34677 0.14816
 C349 C 0.87669 0.34776 0.17698
 C350 C 0.88759 0.33106 0.16818
 C351 C 0.88068 0.32251 0.14898
 C352 C 0.86292 0.33019 0.13895
 C353 C 0.85567 0.32146 0.12001
 C354 C 0.83757 0.32898 0.11038
 C355 C 0.82682 0.34527 0.11998
 H356 H 0.85399 0.37948 0.19028
 H357 H 0.80892 0.37580 0.14055
 H358 H 0.88154 0.35427 0.19190
 H359 H 0.88909 0.30988 0.14183
 H360 H 0.86411 0.30889 0.11278
 H361 H 0.81252 0.35078 0.11317
 C362 C 0.85008 0.85113 0.67809
 C363 C 0.84092 0.86970 0.68435
 C364 C 0.82359 0.87759 0.67372
 C365 C 0.81549 0.86643 0.65648
 C366 C 0.82437 0.84760 0.65015
 C367 C 0.84174 0.83997 0.66103
 C368 C 0.86727 0.84339 0.68890
 C369 C 0.87605 0.82431 0.68324
 C370 C 0.86757 0.81328 0.66621
 C371 C 0.85065 0.82104 0.65503
 C372 C 0.84236 0.80993 0.63812
 C373 C 0.82490 0.81712 0.62725
 C374 C 0.81603 0.83610 0.63334
 H375 H 0.84703 0.87771 0.69799
 H376 H 0.80231 0.87238 0.64794
 H377 H 0.87381 0.85230 0.70173
 H378 H 0.87375 0.79832 0.66192
 H379 H 0.84968 0.79564 0.63334
 H380 H 0.80240 0.84173 0.62533
 C381 C 0.64824 0.65108 0.67320
 C382 C 0.65720 0.63349 0.68231
 C383 C 0.67272 0.62234 0.67172
 C384 C 0.67900 0.62902 0.65167
 C385 C 0.67056 0.64681 0.64258
 C386 C 0.65506 0.65781 0.65332
 C387 C 0.63295 0.66238 0.68384
 C388 C 0.62437 0.68027 0.67481
 C389 C 0.63124 0.68667 0.65494
 C390 C 0.64664 0.67578 0.64431
 C391 C 0.65414 0.68302 0.62508
 C392 C 0.67004 0.67255 0.61455
 C393 C 0.67780 0.65413 0.62319
 H394 H 0.65242 0.62881 0.69788
 H395 H 0.69064 0.62047 0.64312
 H396 H 0.62801 0.65747 0.69929
 H397 H 0.62455 0.70020 0.64764
 H398 H 0.64821 0.69737 0.61880
 H399 H 0.68982 0.64570 0.61505
 C400 C 0.65300 0.14902 0.17516
 C401 C 0.66124 0.13003 0.18154
 C402 C 0.67941 0.12231 0.17237
 C403 C 0.68899 0.13369 0.15633
 C404 C 0.68065 0.15244 0.14947
 C405 C 0.66266 0.16023 0.15898
 C406 C 0.63546 0.15713 0.18500
 C407 C 0.62769 0.17664 0.17936
 C408 C 0.63718 0.18749 0.16281
 C409 C 0.65449 0.17933 0.15248
 C410 C 0.66394 0.19011 0.13597
 C411 C 0.68185 0.18234 0.12621
 C412 C 0.69024 0.16362 0.13342
 H413 H 0.65357 0.12132 0.19376
 H414 H 0.70321 0.12815 0.14941
 H415 H 0.62801 0.14829 0.19726
 H416 H 0.63155 0.20260 0.15835
 H417 H 0.65716 0.20443 0.13059
 H418 H 0.70440 0.15774 0.12669
 C419 C 0.15073 0.66107 0.16683
 C420 C 0.15929 0.64289 0.17497
 C421 C 0.17777 0.63478 0.16679
 C422 C 0.18764 0.64525 0.15024
 C423 C 0.17902 0.66319 0.14162
 C424 C 0.16039 0.67099 0.14980
 C425 C 0.13295 0.66976 0.17579
 C426 C 0.12438 0.68807 0.16765
 C427 C 0.13346 0.69705 0.14981
 C428 C 0.15156 0.68890 0.14115
 C429 C 0.16129 0.69883 0.12436
 C430 C 0.18034 0.69174 0.11662
 C431 C 0.18901 0.67374 0.12528
 H432 H 0.15139 0.63500 0.18760
 H433 H 0.20221 0.63964 0.14421
 H434 H 0.12633 0.66264 0.18959
 H435 H 0.12671 0.71072 0.14286
 H436 H 0.15409 0.71232 0.11753
 H437 H 0.20377 0.66818 0.11970
 C438 C 0.15680 0.16511 0.67323
 C439 C 0.16633 0.14742 0.68125
 C440 C 0.18296 0.13811 0.67068
 C441 C 0.19054 0.14742 0.65222
 C442 C 0.18147 0.16551 0.64427
 C443 C 0.16426 0.17410 0.65460
 C444 C 0.14009 0.17410 0.68378
 C445 C 0.13027 0.19172 0.67567
 C446 C 0.13750 0.20026 0.65676
 C447 C 0.15462 0.19183 0.64645
 C448 C 0.16248 0.20119 0.62836
 C449 C 0.18032 0.19352 0.61853
 C450 C 0.18949 0.17536 0.62638
 H451 H 0.16081 0.14103 0.69590
 H452 H 0.20333 0.14051 0.64386
 H453 H 0.13497 0.16752 0.69850
 H454 H 0.12990 0.21360 0.65007
 H455 H 0.15482 0.21471 0.62212
 H456 H 0.20326 0.16925 0.61905
 C457 C 0.35200 0.65932 0.32667
 C458 C 0.34278 0.64147 0.31814
 C459 C 0.32497 0.63288 0.32734
 C460 C 0.31627 0.64270 0.34496
 C461 C 0.32550 0.66022 0.35384
 C462 C 0.34352 0.66847 0.34484
 C463 C 0.36940 0.66831 0.31723
 C464 C 0.37865 0.68615 0.32591
 C465 C 0.37055 0.69450 0.34460
 C466 C 0.35292 0.68602 0.35391
 C467 C 0.34437 0.69503 0.37198
 C468 C 0.32615 0.68708 0.38084
 C469 C 0.31680 0.66969 0.37152
 H470 H 0.34965 0.63413 0.30453
 H471 H 0.30216 0.63676 0.35176
 H472 H 0.37532 0.66174 0.30278
 H473 H 0.37784 0.70780 0.35186
 H474 H 0.35189 0.70829 0.37910
 H475 H 0.30250 0.66364 0.37780
 C476 C 0.33982 0.15599 0.82427
 C477 C 0.33192 0.13902 0.81310
 C478 C 0.31379 0.12902 0.81973
 C479 C 0.30384 0.13608 0.83802
 C480 C 0.31175 0.15284 0.84951
 C481 C 0.32974 0.16291 0.84257
 C482 C 0.35748 0.16632 0.81720
 C483 C 0.36550 0.18338 0.82830
 C484 C 0.35545 0.19002 0.84672
 C485 C 0.33752 0.18006 0.85378
 C486 C 0.32706 0.18720 0.87167
 C487 C 0.30900 0.17726 0.87873
 C488 C 0.30169 0.15986 0.86763
 H489 H 0.33999 0.13357 0.79928
 H490 H 0.28959 0.12891 0.84309
 H491 H 0.36464 0.16132 0.80270
 H492 H 0.36157 0.20292 0.85565
 H493 H 0.33272 0.20084 0.87972
 H494 H 0.28814 0.15169 0.87308
 C495 C 0.84740 0.63977 0.82076
 C496 C 0.83785 0.62290 0.81076
 C497 C 0.81885 0.61510 0.81800
 C498 C 0.80981 0.62421 0.83585
 C499 C 0.81936 0.64085 0.84619
 C500 C 0.83812 0.64879 0.83855
 C501 C 0.86591 0.64797 0.81300
 C502 C 0.87552 0.66498 0.82287
 C503 C 0.86618 0.67371 0.84079
 C504 C 0.84748 0.66588 0.84856
 C505 C 0.83781 0.67510 0.86596
 C506 C 0.81900 0.66728 0.87372
 C507 C 0.81015 0.64988 0.86384
 H508 H 0.84530 0.61585 0.79732
 H509 H 0.79498 0.61881 0.84141
 H510 H 0.87254 0.64136 0.79890
 H511 H 0.87348 0.68657 0.84882
 H512 H 0.84472 0.68866 0.87308
 H513 H 0.79602 0.64324 0.86988
 C514 C 0.86194 0.13786 0.32957
 C515 C 0.85417 0.11936 0.32105
 C516 C 0.83638 0.11008 0.32947
 C517 C 0.82659 0.11944 0.34669
 C518 C 0.83418 0.13785 0.35532
 C519 C 0.85188 0.14719 0.34676
 C520 C 0.87938 0.14733 0.32092
 C521 C 0.88723 0.16593 0.32930
 C522 C 0.87706 0.17510 0.34655
 C523 C 0.85932 0.16596 0.35520
 C524 C 0.84866 0.17544 0.37189
 C525 C 0.83072 0.16629 0.38027
 C526 C 0.82394 0.14726 0.37210
 H527 H 0.86197 0.11219 0.30788
 H528 H 0.81257 0.11276 0.35299
 H529 H 0.88658 0.14037 0.30729
 H530 H 0.88297 0.18929 0.35334
 H531 H 0.85401 0.19017 0.37793
 H532 H 0.81055 0.13972 0.37876
 C533 C 0.65538 0.34305 0.33276
 C534 C 0.66546 0.35929 0.32239
 C535 C 0.68272 0.36907 0.33154
 C536 C 0.68974 0.36238 0.35128
 C537 C 0.68015 0.34592 0.36155
 C538 C 0.66279 0.33630 0.35242
 C539 C 0.63834 0.33311 0.32356
 C540 C 0.62835 0.31666 0.33385
 C541 C 0.63580 0.31022 0.35359
 C542 C 0.65311 0.31970 0.36276
 C543 C 0.66126 0.31248 0.38184
 C544 C 0.67912 0.32152 0.39058
 C545 C 0.68816 0.33853 0.38051
 H546 H 0.66009 0.36403 0.30701
 H547 H 0.70277 0.36998 0.35872
 H548 H 0.63316 0.33793 0.30815
 H549 H 0.62819 0.29775 0.36184
 H550 H 0.65396 0.29955 0.38967
 H551 H 0.70208 0.34544 0.38689
 C552 C 0.65431 0.84173 0.83074
 C553 C 0.66386 0.85799 0.81991
 C554 C 0.68123 0.86813 0.82842
 C555 C 0.68918 0.86144 0.84785
 C556 C 0.68003 0.84495 0.85865
 C557 C 0.66234 0.83529 0.85024
 C558 C 0.63707 0.83158 0.82218
 C559 C 0.62743 0.81530 0.83306
 C560 C 0.63529 0.80937 0.85275
 C561 C 0.65282 0.81900 0.86122
 C562 C 0.66123 0.81226 0.88030
 C563 C 0.67948 0.82109 0.88834
 C564 C 0.68857 0.83772 0.87752
 H565 H 0.65789 0.86255 0.80471
 H566 H 0.70241 0.86916 0.85474
 H567 H 0.63144 0.83612 0.80684
 H568 H 0.62784 0.79712 0.86148
 H569 H 0.65369 0.79986 0.88872
 H570 H 0.70274 0.84459 0.88333
 C571 C 0.15340 0.35298 0.82960
 C572 C 0.16341 0.36982 0.82038
 C573 C 0.18035 0.37934 0.83032
 C574 C 0.18720 0.37167 0.84978
 C575 C 0.17746 0.35461 0.85907
 C576 C 0.16046 0.34525 0.84896
 C577 C 0.13666 0.34353 0.81947
 C578 C 0.12711 0.32596 0.82805
 C579 C 0.13417 0.31840 0.84751
 C580 C 0.15069 0.32800 0.85805
 C581 C 0.15788 0.32035 0.87731
 C582 C 0.17510 0.32934 0.88739
 C583 C 0.18473 0.34654 0.87809
 H584 H 0.15828 0.37513 0.80512
 H585 H 0.20007 0.37898 0.85776
 H586 H 0.13110 0.34994 0.80482
 H587 H 0.12724 0.30469 0.85422
 H588 H 0.15003 0.30735 0.88440
 H589 H 0.19828 0.35336 0.88532
 C590 C 0.14699 0.85342 0.32883
 C591 C 0.15604 0.87157 0.32110
 C592 C 0.17387 0.87990 0.33057
 C593 C 0.18227 0.86999 0.34828
 C594 C 0.17306 0.85215 0.35650
 C595 C 0.15546 0.84372 0.34665
 C596 C 0.12980 0.84466 0.31880
 C597 C 0.12130 0.82586 0.32580
 C598 C 0.12963 0.81655 0.34391
 C599 C 0.14646 0.82548 0.35449
 C600 C 0.15460 0.81628 0.37264
 C601 C 0.17202 0.82475 0.38281
 C602 C 0.18132 0.84252 0.37431
 H603 H 0.14920 0.87917 0.30764
 H604 H 0.19620 0.87595 0.35555
 H605 H 0.12320 0.85243 0.30533
 H606 H 0.12350 0.80200 0.34947
 H607 H 0.14712 0.80270 0.37898
 H608 H 0.19514 0.84886 0.38147
 O609 O 0.25837 1.01924 0.22758
 O610 O 0.22630 0.97684 0.24831
 O611 O 0.22422 1.01729 0.24872
 O612 O 0.25976 0.97921 0.22583
 O613 O 0.27757 0.97857 0.25542
 O614 O 0.24266 1.01772 0.27788
 O615 O 0.24413 0.97770 0.27788
 O616 O 0.27685 1.01906 0.25672
 Cu617 Cu 0.24030 0.99810 0.23470
 Cu618 Cu 0.26217 0.99826 0.26988
 C619 C 0.27307 1.02645 0.23866
 C620 C 0.22974 0.97009 0.26673
 C621 C 0.22750 1.02425 0.26710
 C622 C 0.27461 0.97225 0.23672
 O623 O 0.23859 0.52102 0.71426
 O624 O 0.21280 0.48005 0.74435
 O625 O 0.21222 0.51960 0.74474
 O626 O 0.23865 0.48018 0.71317
 O627 O 0.26471 0.48042 0.73554
 O628 O 0.23811 0.51990 0.76733
 O629 O 0.23886 0.47970 0.76674
 O630 O 0.26460 0.52060 0.73670
 Cu631 Cu 0.22310 0.50019 0.72665
 Cu632 Cu 0.25422 0.50014 0.75379
 C633 C 0.25585 0.52805 0.72057
 C634 C 0.22133 0.47306 0.76082
 C635 C 0.22049 0.52635 0.76151
 C636 C 0.25605 0.47333 0.71910
 O637 O 0.75981 -0.02183 0.27052
 O638 O 0.72901 0.02107 0.25007
 O639 O 0.72668 -0.01928 0.24848
 O640 O 0.76275 0.01807 0.27204
 O641 O 0.78063 0.01892 0.24259
 O642 O 0.74551 -0.01978 0.21963
 O643 O 0.74686 0.02037 0.22060
 O644 O 0.77921 -0.02137 0.24206
 Cu645 Cu 0.74266 -0.00039 0.26317
 Cu646 Cu 0.76491 -0.00048 0.22827
 C647 C 0.77473 -0.02894 0.25988
 C648 C 0.73261 0.02805 0.23183
 C649 C 0.73020 -0.02624 0.23017
 C650 C 0.77773 0.02501 0.26133
 O651 O 0.73252 0.47438 0.77985
 O652 O 0.70501 0.51592 0.75186
 O653 O 0.70431 0.47561 0.75061
 O654 O 0.73405 0.51457 0.78053
 O655 O 0.75765 0.51490 0.75559
 O656 O 0.72870 0.47514 0.72647
 O657 O 0.72892 0.51579 0.72725
 O658 O 0.75662 0.47456 0.75543
 Cu659 Cu 0.71655 0.49518 0.76814
 Cu660 Cu 0.74532 0.49512 0.73870
 C661 C 0.74922 0.46726 0.77235
 C662 C 0.71232 0.52305 0.73486
 C663 C 0.71172 0.46842 0.73364
 C664 C 0.75088 0.52147 0.77307
 O665 O 0.25059 0.49583 0.27822
 O666 O 0.22011 0.53563 0.25159
 O667 O 0.21866 0.49511 0.25311
 O668 O 0.25253 0.53563 0.27540
 O669 O 0.27215 0.53410 0.24714
 O670 O 0.23972 0.49225 0.22606
 O671 O 0.23966 0.53276 0.22342
 O672 O 0.27133 0.49386 0.25084
 Cu673 Cu 0.23334 0.51573 0.26729
 Cu674 Cu 0.25769 0.51299 0.23405
 C675 C 0.26624 0.48812 0.26920
 C676 C 0.22483 0.54130 0.23314
 C677 C 0.22379 0.48640 0.23598
 C678 C 0.26794 0.54197 0.26490
 O679 O 0.73793 1.01492 0.71703
 O680 O 0.70995 0.97410 0.74608
 O681 O 0.70990 1.01424 0.74655
 O682 O 0.73663 0.97433 0.71582
 O683 O 0.76228 0.97458 0.73870
 O684 O 0.73452 1.01345 0.77053
 O685 O 0.73553 0.97292 0.76899
 O686 O 0.76214 1.01479 0.74147
 Cu687 Cu 0.72115 0.99452 0.72895
 Cu688 Cu 0.75109 0.99383 0.75729
 C689 C 0.75465 1.02210 0.72465
 C690 C 0.71826 0.96631 0.76234
 C691 C 0.71753 1.02065 0.76376
 C692 C 0.75392 0.96751 0.72206
 O693 O 0.72002 0.47100 0.24937
 O694 O 0.74976 0.50947 0.22000
 O695 O 0.75139 0.46965 0.22364
 O696 O 0.72027 0.51111 0.24769
 O697 O 0.74305 0.51330 0.27346
 O698 O 0.77342 0.47160 0.25011
 O699 O 0.77229 0.51162 0.24597
 O700 O 0.74252 0.47288 0.27542
 Cu701 Cu 0.73309 0.49006 0.23257
 Cu702 Cu 0.76001 0.49259 0.26390
 C703 C 0.72629 0.46521 0.26728
 C704 C 0.76603 0.51718 0.22791
 C705 C 0.76767 0.46352 0.23291
 C706 C 0.72665 0.51947 0.26461
 O707 O 0.20939 0.02824 0.74701
 O708 O 0.23597 -0.01352 0.77577
 O709 O 0.23673 0.02632 0.77710
 O710 O 0.20694 -0.01198 0.74727
 O711 O 0.23135 -0.01315 0.72317
 O712 O 0.26083 0.02633 0.75263
 O713 O 0.26012 -0.01387 0.75138
 O714 O 0.23370 0.02747 0.72279
 Cu715 Cu 0.21976 0.00733 0.76414
 Cu716 Cu 0.24886 0.00663 0.73499
 C717 C 0.21723 0.03516 0.73013
 C718 C 0.25272 -0.02073 0.76843
 C719 C 0.25379 0.03289 0.77004
 C720 C 0.21416 -0.01941 0.73037
 O721 O 0.23783 0.27150 0.98931
 O722 O 0.26666 0.24528 1.03158
 O723 O 0.26861 0.24574 0.99063
 O724 O 0.23648 0.27187 1.03009
 O725 O 0.21494 0.24542 1.03000
 O726 O 0.24568 0.22055 0.98837
 O727 O 0.24526 0.21882 1.02914
 O728 O 0.21534 0.24584 0.98878
 Cu729 Cu 0.25462 0.26120 1.01058
 Cu730 Cu 0.22803 0.23008 1.00912
 C731 C 0.22177 0.26297 0.98170
 C732 C 0.26100 0.22736 1.03730
 C733 C 0.26238 0.22896 0.98238
 C734 C 0.22035 0.26305 1.03695
 O735 O 0.23294 0.76633 0.48495
 O736 O 0.26242 0.74135 0.52734
 O737 O 0.26412 0.74138 0.48628
 O738 O 0.23070 0.76614 0.52559
 O739 O 0.20989 0.73911 0.52483
 O740 O 0.24317 0.71445 0.48533
 O741 O 0.24164 0.71434 0.52561
 O742 O 0.21206 0.73939 0.48342
 Cu743 Cu 0.24965 0.75649 0.50625
 Cu744 Cu 0.22442 0.72423 0.50475
 C745 C 0.21767 0.75700 0.47674
 C746 C 0.25722 0.72344 0.53348
 C747 C 0.25931 0.72369 0.47906
 C748 C 0.21465 0.75683 0.53198
 O749 O 0.28099 0.76953 -0.02881
 O750 O 0.25849 0.73594 0.01200
 O751 O 0.25879 0.73618 -0.02890
 O752 O 0.28178 0.76884 0.01224
 O753 O 0.25411 0.78862 0.01227
 O754 O 0.23024 0.75465 -0.02756
 O755 O 0.23116 0.75624 0.01317
 O756 O 0.25245 0.78806 -0.02909
 Cu757 Cu 0.27287 0.75074 -0.00839
 Cu758 Cu 0.23924 0.77392 -0.00783
 C759 C 0.27027 0.78420 -0.03629
 C760 C 0.24106 0.74066 0.01976
 C761 C 0.24054 0.73972 -0.03517
 C762 C 0.27184 0.78415 0.01948
 O763 O 0.28339 0.26062 0.47068
 O764 O 0.25372 0.23188 0.50959
 O765 O 0.25135 0.23688 0.46972
 O766 O 0.28019 0.26310 0.51249
 O767 O 0.25754 0.28849 0.51156
 O768 O 0.22675 0.26020 0.47291
 O769 O 0.23194 0.25786 0.51285
 O770 O 0.25942 0.28475 0.46983
 Cu771 Cu 0.26961 0.24613 0.49087
 Cu772 Cu 0.24208 0.27535 0.49155
 C773 C 0.27629 0.27718 0.46303
 C774 C 0.23803 0.23989 0.51817
 C775 C 0.23375 0.24397 0.46439
 C776 C 0.27371 0.28048 0.51918
 O777 O 0.75035 0.76492 0.98514
 O778 O 0.78271 0.74125 1.02598
 O779 O 0.78226 0.74044 0.98483
 O780 O 0.75018 0.76482 1.02578
 O781 O 0.73061 0.73691 1.02699
 O782 O 0.76090 0.71382 0.98421
 O783 O 0.76314 0.71334 1.02522
 O784 O 0.72949 0.73794 0.98589
 Cu785 Cu 0.76849 0.75556 1.00545
 Cu786 Cu 0.74401 0.72274 1.00570
 C787 C 0.73438 0.75551 0.97855
 C788 C 0.77851 0.72325 1.03256
 C789 C 0.77662 0.72318 0.97714
 C790 C 0.73501 0.75496 1.03346
 O791 O 0.75393 0.26361 0.48472
 O792 O 0.78134 0.23782 0.52856
 O793 O 0.78647 0.24050 0.48689
 O794 O 0.75424 0.26827 0.52432
 O795 O 0.73252 0.24199 0.52545
 O796 O 0.76379 0.21504 0.48523
 O797 O 0.76014 0.21132 0.52529
 O798 O 0.73190 0.23754 0.48388
 Cu799 Cu 0.77142 0.25459 0.50657
 Cu800 Cu 0.74475 0.22428 0.50539
 C801 C 0.73802 0.25479 0.47694
 C802 C 0.77534 0.21993 0.53424
 C803 C 0.78055 0.22344 0.47915
 C804 C 0.73792 0.26008 0.53133
 O805 O 0.75699 0.21874 0.01649
 O806 O 0.78006 0.24842 -0.02729
 O807 O 0.78730 0.24510 0.01347
 O808 O 0.75368 0.21839 -0.02386
 O809 O 0.73016 0.24284 -0.02070
 O810 O 0.76416 0.26976 0.01752
 O811 O 0.75682 0.27286 -0.02248
 O812 O 0.73387 0.24343 0.02038
 Cu813 Cu 0.77195 0.23035 -0.00567
 Cu814 Cu 0.74393 0.25961 -0.00089
 C815 C 0.74135 0.22620 0.02586
 C816 C 0.77216 0.26572 -0.03238
 C817 C 0.78149 0.26172 0.02215
 C818 C 0.73626 0.22583 -0.02866
 O819 O 0.73238 0.74050 0.47622
 O820 O 0.75776 0.77125 0.51713
 O821 O 0.76143 0.76832 0.47666
 O822 O 0.73185 0.74021 0.51741
 O823 O 0.75720 0.71760 0.51967
 O824 O 0.78548 0.74429 0.47835
 O825 O 0.78270 0.74817 0.51940
 O826 O 0.75636 0.71648 0.47881
 Cu827 Cu 0.74336 0.75734 0.49664
 Cu828 Cu 0.77292 0.72938 0.49919
 C829 C 0.73990 0.72336 0.47042
 C830 C 0.77448 0.76508 0.52527
 C831 C 0.77848 0.76079 0.47043
 C832 C 0.73983 0.72422 0.52574
 O833 O 0.98012 0.25270 0.27860
 O834 O 1.02086 0.27770 0.24759
 O835 O 0.98079 0.27651 0.24561
 O836 O 1.02079 0.25231 0.27918
 O837 O 1.02194 0.22588 0.25729
 O838 O 0.98091 0.24889 0.22522
 O839 O 1.02130 0.25104 0.22594
 O840 O 0.98174 0.22513 0.25821
 Cu841 Cu 1.00051 0.26745 0.26493
 Cu842 Cu 1.00148 0.23506 0.23955
 C843 C 0.97395 0.23469 0.27376
 C844 C 1.02810 0.26868 0.23149
 C845 C 0.97391 0.26665 0.22974
 C846 C 1.02857 0.23511 0.27358
 O847 O 0.51483 0.27446 0.75795
 O848 O 0.47260 0.24484 0.78168
 O849 O 0.51275 0.24460 0.78499
 O850 O 0.47463 0.27335 0.75340
 O851 O 0.47697 0.24973 0.72843
 O852 O 0.51596 0.22207 0.75912
 O853 O 0.47571 0.22095 0.75707
 O854 O 0.51663 0.25178 0.73204
 Cu855 Cu 0.49345 0.26165 0.77205
 Cu856 Cu 0.49651 0.23374 0.74168
 C857 C 0.52290 0.26824 0.74093
 C858 C 0.46695 0.22785 0.77351
 C859 C 0.52116 0.22861 0.77718
 C860 C 0.46924 0.26632 0.73553
 O861 O -0.01635 0.27266 0.76076
 O862 O 0.02559 0.24534 0.73419
 O863 O -0.01440 0.24396 0.73207
 O864 O 0.02396 0.27256 0.76354
 O865 O 0.02296 0.24822 0.78775
 O866 O -0.01609 0.22023 0.75682
 O867 O 0.02425 0.22050 0.75784
 O868 O -0.01695 0.24884 0.78546
 Cu869 Cu 0.00473 0.26110 0.74523
 Cu870 Cu 0.00345 0.23196 0.77438
 C871 C -0.02380 0.26552 0.77766
 C872 C 0.03217 0.22836 0.74144
 C873 C -0.02194 0.22728 0.73921
 C874 C 0.03017 0.26512 0.78088
 O875 O 0.48318 0.27975 0.25202
 O876 O 0.52427 0.25418 0.22203
 O877 O 0.48443 0.25248 0.22236
 O878 O 0.52356 0.28170 0.25223
 O879 O 0.52530 0.25652 0.27543
 O880 O 0.48486 0.22810 0.24650
 O881 O 0.52526 0.22921 0.24553
 O882 O 0.48492 0.25564 0.27638
 Cu883 Cu 0.50383 0.26959 0.23487
 Cu884 Cu 0.50522 0.23989 0.26335
 C885 C 0.47684 0.27201 0.26914
 C886 C 0.53167 0.23722 0.22854
 C887 C 0.47775 0.23543 0.22946
 C888 C 0.53135 0.27397 0.26877
 O889 O 0.97817 0.74677 0.72766
 O890 O 1.01719 0.72027 0.75970
 O891 O 0.97675 0.72075 0.75900
 O892 O 1.01813 0.74532 0.72840
 O893 O 1.01846 0.77160 0.75056
 O894 O 0.97654 0.74726 0.78087
 O895 O 1.01692 0.74615 0.78236
 O896 O 0.97827 0.77288 0.75005
 Cu897 Cu 0.99745 0.73058 0.74153
 Cu898 Cu 0.99765 0.76207 0.76825
 C899 C 0.97156 0.76435 0.73341
 C900 C 1.02391 0.72882 0.77634
 C901 C 0.96933 0.72994 0.77494
 C902 C 1.02545 0.76261 0.73427
 O903 O 0.52460 0.72065 0.24585
 O904 O 0.48333 0.74614 0.21535
 O905 O 0.52326 0.74625 0.21460
 O906 O 0.48422 0.71827 0.24517
 O907 O 0.48261 0.74414 0.26776
 O908 O 0.52338 0.77126 0.23823
 O909 O 0.48306 0.77160 0.23850
 O910 O 0.52275 0.74542 0.26967
 Cu911 Cu 0.50387 0.73022 0.22799
 Cu912 Cu 0.50294 0.76064 0.25586
 C913 C 0.53065 0.72874 0.26304
 C914 C 0.47625 0.76334 0.22177
 C915 C 0.53013 0.76344 0.22121
 C916 C 0.47648 0.72651 0.26145
 O917 O 0.01934 0.74566 0.28169
 O918 O -0.01936 0.71974 0.24811
 O919 O 0.02040 0.71923 0.25044
 O920 O -0.02096 0.74473 0.28006
 O921 O -0.01948 0.77151 0.25878
 O922 O 0.02107 0.74528 0.22815
 O923 O -0.01919 0.74652 0.22672
 O924 O 0.02078 0.77135 0.25902
 Cu925 Cu -0.00019 0.72976 0.26736
 Cu926 Cu 0.00088 0.76131 0.24098
 C927 C 0.02688 0.76285 0.27584
 C928 C -0.02597 0.72882 0.23176
 C929 C 0.02765 0.72777 0.23411
 C930 C -0.02738 0.76240 0.27450
 O931 O 0.52238 0.75441 0.77839
 O932 O 0.48011 0.72774 0.75017
 O933 O 0.52020 0.72398 0.75161
 O934 O 0.48230 0.75639 0.77881
 O935 O 0.48251 0.77849 0.75249
 O936 O 0.52373 0.74796 0.72732
 O937 O 0.48358 0.74965 0.72393
 O938 O 0.52256 0.77848 0.75391
 Cu939 Cu 0.50106 0.73830 0.76728
 Cu940 Cu 0.50328 0.76591 0.73682
 C941 C 0.52941 0.77126 0.77105
 C942 C 0.47479 0.73411 0.73207
 C943 C 0.52884 0.73063 0.73511
 C944 C 0.47564 0.77274 0.77024
 C945 C 0.39723 0.32349 0.27763
 C946 C 0.39472 0.32188 0.29953
 C947 C 0.40911 0.31021 0.31112
 C948 C 0.42585 0.30064 0.30099
 C949 C 0.42841 0.30301 0.27909
 C950 C 0.41396 0.31434 0.26756
 C951 C 0.44528 0.29389 0.26897
 C952 C 0.45951 0.28196 0.28030
 C953 C 0.45670 0.27930 0.30200
 C954 C 0.44012 0.28874 0.31231
 H955 H 0.40750 0.30883 0.32799
 H956 H 0.41554 0.31605 0.25071
 H957 H 0.44712 0.29578 0.25216
 H958 H 0.43840 0.28665 0.32910
 H959 H 0.38614 0.33178 0.26814
 H960 H 0.46746 0.27010 0.31103
 C961 C 0.40025 0.83073 0.77861
 C962 C 0.39698 0.82841 0.80046
 C963 C 0.41135 0.81635 0.81182
 C964 C 0.42767 0.80627 0.80169
 C965 C 0.43042 0.80862 0.77985
 C966 C 0.41677 0.82106 0.76853
 C967 C 0.44653 0.79814 0.76966
 C968 C 0.45960 0.78494 0.78103
 C969 C 0.45680 0.78286 0.80280
 C970 C 0.44112 0.79358 0.81307
 H971 H 0.41033 0.81495 0.82872
 H972 H 0.41854 0.82292 0.75171
 H973 H 0.44848 0.79976 0.75284
 H974 H 0.43927 0.79162 0.82986
 H975 H 0.38957 0.83911 0.76878
 H976 H 0.46676 0.77289 0.81191
 C977 C -0.10014 0.32223 0.78409
 C978 C -0.10569 0.31757 0.80504
 C979 C -0.09224 0.30473 0.81670
 C980 C -0.07479 0.29582 0.80744
 C981 C -0.06992 0.30030 0.78637
 C982 C -0.08247 0.31380 0.77497
 C983 C -0.05284 0.29084 0.77691
 C984 C -0.04085 0.27653 0.78813
 C985 C -0.04570 0.27235 0.80919
 C986 C -0.06240 0.28208 0.81883
 H987 H -0.09497 0.30168 0.83315
 H988 H -0.07898 0.31734 0.75874
 H989 H -0.04930 0.29412 0.76062
 H990 H -0.06590 0.27848 0.83505
 H991 H -0.10991 0.33143 0.77405
 H992 H -0.03661 0.26150 0.81819
 C993 C -0.08584 0.83250 0.30350
 C994 C -0.09931 0.82025 0.31552
 C995 C -0.09517 0.79901 0.31750
 C996 C -0.07810 0.79013 0.30746
 C997 C -0.06502 0.80251 0.29498
 C998 C -0.06894 0.82371 0.29325
 C999 C -0.04837 0.79346 0.28433
 C1000 C -0.04444 0.77219 0.28623
 C1001 C -0.05728 0.76014 0.29909
 C1002 C -0.07402 0.76899 0.30950
 H1003 H -0.10551 0.78924 0.32642
 H1004 H -0.05897 0.83350 0.28392
 H1005 H -0.03848 0.80294 0.27458
 H1006 H -0.08384 0.75928 0.31906
 H1007 H -0.08834 0.84896 0.30201
 H1008 H -0.05463 0.74372 0.30078
 C1009 C 0.61200 0.68138 0.27825
 C1010 C 0.61247 0.68305 0.30032
 C1011 C 0.59615 0.69328 0.31053
 C1012 C 0.57976 0.70172 0.29892
 C1013 C 0.57934 0.69951 0.27682
 C1014 C 0.59554 0.68932 0.26666
 C1015 C 0.56291 0.70782 0.26522
 C1016 C 0.54722 0.71891 0.27536
 C1017 C 0.54788 0.72125 0.29730
 C1018 C 0.56387 0.71251 0.30901
 H1019 H 0.59606 0.69456 0.32750
 H1020 H 0.59561 0.68771 0.24971
 H1021 H 0.56265 0.70620 0.24826
 H1022 H 0.56395 0.71443 0.32593
 H1023 H 0.62453 0.67413 0.26980
 H1024 H 0.53591 0.72975 0.30540
 C1025 C 0.60013 0.17648 0.78801
 C1026 C 0.60222 0.17862 0.80992
 C1027 C 0.58692 0.18947 0.82111
 C1028 C 0.57025 0.19858 0.81054
 C1029 C 0.56841 0.19626 0.78855
 C1030 C 0.58330 0.18503 0.77747
 C1031 C 0.55196 0.20561 0.77791
 C1032 C 0.53759 0.21777 0.78885
 C1033 C 0.53954 0.22003 0.81071
 C1034 C 0.55562 0.21032 0.82151
 H1035 H 0.58803 0.19101 0.83803
 H1036 H 0.58219 0.18325 0.76057
 H1037 H 0.55073 0.20395 0.76100
 H1038 H 0.55682 0.21231 0.83838
 H1039 H 0.61178 0.16863 0.77884
 H1040 H 0.52862 0.22930 0.81946
 C1041 C 1.10392 0.67897 0.78912
 C1042 C 1.10567 0.68149 0.81103
 C1043 C 1.09020 0.69252 0.82177
 C1044 C 1.07351 0.70111 0.81080
 C1045 C 1.07185 0.69814 0.78886
 C1046 C 1.08709 0.68700 0.77820
 C1047 C 1.05520 0.70669 0.77787
 C1048 C 1.04051 0.71878 0.78838
 C1049 C 1.04236 0.72189 0.81014
 C1050 C 1.05859 0.71289 0.82132
 H1051 H 1.09106 0.69441 0.83867
 H1052 H 1.08617 0.68479 0.76134
 H1053 H 1.05403 0.70449 0.76101
 H1054 H 1.05965 0.71542 0.83813
 H1055 H 1.11576 0.67105 0.78027
 H1056 H 1.03118 0.73121 0.81850
 C1057 C 1.10257 0.17682 0.28870
 C1058 C 1.10839 0.18370 0.30901
 C1059 C 1.09656 0.19978 0.31818
 C1060 C 1.07963 0.20848 0.30750
 C1061 C 1.07414 0.20103 0.28741
 C1062 C 1.08569 0.18526 0.27819
 C1063 C 1.05729 0.20960 0.27670
 C1064 C 1.04583 0.22582 0.28561
 C1065 C 1.05141 0.23324 0.30561
 C1066 C 1.06807 0.22455 0.31652
 H1067 H 1.09984 0.20523 0.33392
 H1068 H 1.08186 0.17959 0.26263
 H1069 H 1.05333 0.20380 0.26121
 H1070 H 1.07202 0.23053 0.33194
 H1071 H 1.11144 0.16545 0.28020
 H1072 H 1.04287 0.24572 0.31285
 C1073 C 0.58115 0.29820 0.67065
 C1074 C 0.59573 0.30821 0.68359
 C1075 C 0.59198 0.30945 0.70534
 C1076 C 0.57435 0.30028 0.71405
 C1077 C 0.56038 0.28945 0.70095
 C1078 C 0.56375 0.28878 0.67925
 C1079 C 0.54343 0.27922 0.70979
 C1080 C 0.54002 0.28000 0.73154
 C1081 C 0.55352 0.29146 0.74437
 C1082 C 0.57066 0.30138 0.73572
 H1083 H 0.60308 0.31693 0.71561
 H1084 H 0.55303 0.28082 0.66894
 H1085 H 0.53293 0.27059 0.69977
 H1086 H 0.58113 0.30971 0.74600
 H1087 H 0.58326 0.29749 0.65380
 H1088 H 0.55116 0.29222 0.76119
 C1089 C 0.60258 0.82375 0.20502
 C1090 C 0.60657 0.81839 0.18381
 C1091 C 0.59374 0.80321 0.17442
 C1092 C 0.57781 0.79369 0.18580
 C1093 C 0.57416 0.79945 0.20686
 C1094 C 0.58658 0.81452 0.21626
 C1095 C 0.55831 0.78985 0.21828
 C1096 C 0.54625 0.77424 0.20899
 C1097 C 0.55000 0.76863 0.18798
 C1098 C 0.56551 0.77835 0.17645
 H1099 H 0.59551 0.79906 0.15806
 H1100 H 0.58418 0.81895 0.23250
 H1101 H 0.55567 0.79424 0.23450
 H1102 H 0.56804 0.77371 0.16030
 H1103 H 0.61230 0.83442 0.21359
 H1104 H 0.54087 0.75671 0.18041
 C1105 C 1.08955 0.33786 0.20680
 C1106 C 1.10145 0.32650 0.19218
 C1107 C 1.09545 0.30581 0.18807
 C1108 C 1.07843 0.29687 0.19818
 C1109 C 1.06709 0.30846 0.21293
 C1110 C 1.07271 0.32895 0.21704
 C1111 C 1.05045 0.29931 0.22350
 C1112 C 1.04491 0.27864 0.21946
 C1113 C 1.05608 0.26736 0.20443
 C1114 C 1.07273 0.27635 0.19395
 H1115 H 1.10444 0.29605 0.17777
 H1116 H 1.06401 0.33817 0.22813
 H1117 H 1.04193 0.30824 0.23500
 H1118 H 1.08124 0.26721 0.18264
 H1119 H 1.09262 0.35398 0.21003
 H1120 H 1.05221 0.25142 0.20105
 C1121 C 1.08565 0.83128 0.70501
 C1122 C 1.09715 0.81945 0.69043
 C1123 C 1.09143 0.79850 0.68762
 C1124 C 1.07504 0.78976 0.69893
 C1125 C 1.06406 0.80183 0.71359
 C1126 C 1.06945 0.82257 0.71644
 C1127 C 1.04788 0.79296 0.72516
 C1128 C 1.04240 0.77214 0.72208
 C1129 C 1.05334 0.76033 0.70727
 C1130 C 1.06956 0.76901 0.69590
 H1131 H 1.10015 0.78846 0.67735
 H1132 H 1.06101 0.83217 0.72742
 H1133 H 1.03952 0.80228 0.73646
 H1134 H 1.07780 0.75948 0.68471
 H1135 H 1.08847 0.84759 0.70727
 H1136 H 1.04950 0.74424 0.70462
 C1137 C 0.39389 0.68452 0.72010
 C1138 C 0.39242 0.68639 0.69812
 C1139 C 0.40810 0.69696 0.68729
 C1140 C 0.42483 0.70567 0.69822
 C1141 C 0.42619 0.70350 0.72027
 C1142 C 0.41066 0.69286 0.73104
 C1143 C 0.44289 0.71229 0.73121
 C1144 C 0.45798 0.72367 0.72044
 C1145 C 0.45645 0.72577 0.69853
 C1146 C 0.44013 0.71669 0.68749
 H1147 H 0.40738 0.69832 0.67034
 H1148 H 0.41136 0.69120 0.74796
 H1149 H 0.44381 0.71076 0.74814
 H1150 H 0.43933 0.71853 0.67059
 H1151 H 0.38189 0.67683 0.72894
 H1152 H 0.46793 0.73444 0.68990
 C1153 C 0.40299 0.17682 0.21739
 C1154 C 0.39802 0.18221 0.19644
 C1155 C 0.41133 0.19621 0.18607
 C1156 C 0.42825 0.20517 0.19645
 C1157 C 0.43262 0.19980 0.21744
 C1158 C 0.42006 0.18543 0.22765
 C1159 C 0.44923 0.20922 0.22800
 C1160 C 0.46128 0.22430 0.21791
 C1161 C 0.45692 0.22933 0.19691
 C1162 C 0.44068 0.21973 0.18622
 H1163 H 0.40898 0.20003 0.16971
 H1164 H 0.42311 0.18121 0.24383
 H1165 H 0.45237 0.20528 0.24423
 H1166 H 0.43759 0.22401 0.17008
 H1167 H 0.39321 0.16677 0.22654
 H1168 H 0.46603 0.24080 0.18874
 C1169 C -0.07759 0.65673 0.19533
 C1170 C -0.09222 0.66872 0.18449
 C1171 C -0.08975 0.69031 0.18405
 C1172 C -0.07343 0.69981 0.19493
 C1173 C -0.05941 0.68761 0.20654
 C1174 C -0.06141 0.66608 0.20633
 C1175 C -0.04383 0.69717 0.21843
 C1176 C -0.04186 0.71877 0.21860
 C1177 C -0.05539 0.73073 0.20642
 C1178 C -0.07115 0.72134 0.19480
 H1179 H -0.10097 0.69980 0.17596
 H1180 H -0.05064 0.65648 0.21490
 H1181 H -0.03328 0.68782 0.22757
 H1182 H -0.08169 0.73093 0.18591
 H1183 H -0.07880 0.64005 0.19555
 H1184 H -0.05411 0.74741 0.20632
 C1185 C -0.09983 0.17365 0.72608
 C1186 C -0.10156 0.17598 0.70415
 C1187 C -0.08613 0.18711 0.69345
 C1188 C -0.06981 0.19641 0.70451
 C1189 C -0.06835 0.19394 0.72650
 C1190 C -0.08329 0.18233 0.73708
 C1191 C -0.05227 0.20354 0.73762
 C1192 C -0.03798 0.21616 0.72716
 C1193 C -0.03956 0.21859 0.70530
 C1194 C -0.05520 0.20858 0.69402
 H1195 H -0.08691 0.18879 0.67654
 H1196 H -0.08249 0.18042 0.75397
 H1197 H -0.05130 0.20176 0.75453
 H1198 H -0.05611 0.21070 0.67717
 H1199 H -0.11159 0.16562 0.73492
 H1200 H -0.02866 0.22819 0.69692
 C1201 C 0.32012 0.40990 0.27743
 C1202 C 0.31902 0.40791 0.29942
 C1203 C 0.30867 0.42322 0.31106
 C1204 C 0.29902 0.43980 0.30088
 C1205 C 0.30017 0.44152 0.27879
 C1206 C 0.31096 0.42662 0.26725
 C1207 C 0.29005 0.45779 0.26856
 C1208 C 0.27829 0.47205 0.28009
 C1209 C 0.27735 0.47028 0.30206
 C1210 C 0.28779 0.45442 0.31239
 H1211 H 0.30792 0.42215 0.32802
 H1212 H 0.31189 0.42761 0.25029
 H1213 H 0.29073 0.45892 0.25158
 H1214 H 0.28672 0.45334 0.32934
 H1215 H 0.32759 0.39822 0.26794
 H1216 H 0.26845 0.48115 0.31128
 C1217 C 0.31384 -0.09306 0.77883
 C1218 C 0.31168 -0.09621 0.80073
 C1219 C 0.29760 -0.08332 0.81164
 C1220 C 0.28621 -0.06808 0.80108
 C1221 C 0.28906 -0.06513 0.77935
 C1222 C 0.30287 -0.07768 0.76841
 C1223 C 0.27803 -0.04969 0.76883
 C1224 C 0.26385 -0.03725 0.77968
 C1225 C 0.26078 -0.04050 0.80126
 C1226 C 0.27199 -0.05567 0.81191
 H1227 H 0.29580 -0.08442 0.82847
 H1228 H 0.30498 -0.07583 0.75163
 H1229 H 0.28040 -0.04745 0.75214
 H1230 H 0.26952 -0.05772 0.82860
 H1231 H 0.32335 -0.10294 0.76919
 H1232 H 0.24997 -0.03106 0.80996
 C1233 C 0.81015 0.39438 0.78155
 C1234 C 0.80556 0.38872 0.80251
 C1235 C 0.79017 0.40023 0.81313
 C1236 C 0.78008 0.41683 0.80326
 C1237 C 0.78532 0.42227 0.78250
 C1238 C 0.80030 0.41091 0.77181
 C1239 C 0.77540 0.43889 0.77264
 C1240 C 0.76002 0.45013 0.78315
 C1241 C 0.75479 0.44456 0.80381
 C1242 C 0.76481 0.42816 0.81381
 H1243 H 0.78643 0.39700 0.82933
 H1244 H 0.80426 0.41465 0.75573
 H1245 H 0.77949 0.44287 0.75665
 H1246 H 0.76052 0.42426 0.82975
 H1247 H 0.82081 0.38562 0.77203
 H1248 H 0.74300 0.45296 0.81228
 C1249 C 0.79003 -0.10559 0.31475
 C1250 C 0.81135 -0.10818 0.31077
 C1251 C 0.82073 -0.09469 0.29610
 C1252 C 0.80938 -0.07887 0.28643
 C1253 C 0.78838 -0.07620 0.29147
 C1254 C 0.77882 -0.08977 0.30539
 C1255 C 0.77722 -0.05993 0.28259
 C1256 C 0.78667 -0.04634 0.26843
 C1257 C 0.80741 -0.04938 0.26293
 C1258 C 0.81875 -0.06543 0.27201
 H1259 H 0.83707 -0.09559 0.29282
 H1260 H 0.76257 -0.08819 0.30904
 H1261 H 0.76112 -0.05787 0.28668
 H1262 H 0.83484 -0.06726 0.26785
 H1263 H 0.78154 -0.11609 0.32467
 H1264 H 0.81496 -0.03906 0.25201
 C1265 C 0.32634 0.58720 0.69508
 C1266 C 0.31398 0.60268 0.68604
 C1267 C 0.29253 0.59938 0.68457
 C1268 C 0.28359 0.58117 0.69223
 C1269 C 0.29612 0.56617 0.70201
 C1270 C 0.31748 0.56923 0.70315
 C1271 C 0.28702 0.54855 0.71080
 C1272 C 0.26558 0.54553 0.70960
 C1273 C 0.25335 0.56009 0.69905
 C1274 C 0.26226 0.57786 0.69059
 H1275 H 0.28262 0.61116 0.67798
 H1276 H 0.32735 0.55775 0.71035
 H1277 H 0.29658 0.53728 0.71876
 H1278 H 0.25243 0.58913 0.68301
 H1279 H 0.34293 0.58892 0.69595
 H1280 H 0.23678 0.55809 0.69803
 C1281 C 0.30182 1.09239 0.17493
 C1282 C 0.31503 1.10381 0.18838
 C1283 C 0.31808 1.09631 0.20902
 C1284 C 0.30773 1.07857 0.21611
 C1285 C 0.29416 1.06789 0.20253
 C1286 C 0.29153 1.07477 0.18192
 C1287 C 0.28320 1.05065 0.20982
 C1288 C 0.28559 1.04387 0.23064
 C1289 C 0.29948 1.05435 0.24394
 C1290 C 0.31041 1.07155 0.23676
 H1291 H 0.32755 1.10473 0.22015
 H1292 H 0.28144 1.06655 0.17116
 H1293 H 0.27263 1.04268 0.19935
 H1294 H 0.32079 1.07951 0.24744
 H1295 H 0.29970 1.09654 0.15863
 H1296 H 0.30162 1.04949 0.26006
 C1297 C 0.82545 0.59078 0.21448
 C1298 C 0.82219 0.59348 0.19266
 C1299 C 0.80853 0.57965 0.18239
 C1300 C 0.79836 0.56400 0.19350
 C1301 C 0.80195 0.56163 0.21522
 C1302 C 0.81554 0.57505 0.22552
 C1303 C 0.79168 0.54604 0.22634
 C1304 C 0.77758 0.53295 0.21604
 C1305 C 0.77415 0.53541 0.19439
 C1306 C 0.78455 0.55069 0.18318
 H1307 H 0.80616 0.58041 0.16559
 H1308 H 0.81829 0.57361 0.24225
 H1309 H 0.79435 0.54438 0.24307
 H1310 H 0.78162 0.55225 0.16650
 H1311 H 0.83496 0.60128 0.22351
 H1312 H 0.76341 0.52547 0.18608
 C1313 C 0.81134 1.09864 0.72035
 C1314 C 0.81038 1.10198 0.69852
 C1315 C 0.79804 1.08871 0.68612
 C1316 C 0.78701 1.07238 0.69538
 C1317 C 0.78867 1.06901 0.71723
 C1318 C 0.80078 1.08224 0.72955
 C1319 C 0.77812 1.05250 0.72649
 C1320 C 0.76549 1.03943 0.71436
 C1321 C 0.76348 1.04311 0.69272
 C1322 C 0.77432 1.05934 0.68326
 H1323 H 0.79716 1.09089 0.66928
 H1324 H 0.80198 1.08002 0.74638
 H1325 H 0.77955 1.04999 0.74327
 H1326 H 0.77274 1.06173 0.66650
 H1327 H 0.82009 1.10888 0.73048
 H1328 H 0.75380 1.03323 0.68309
 C1329 C 0.71614 0.60157 0.31271
 C1330 C 0.69457 0.60330 0.31080
 C1331 C 0.68360 0.58752 0.30029
 C1332 C 0.69401 0.57057 0.29157
 C1333 C 0.71561 0.56895 0.29397
 C1334 C 0.72651 0.58447 0.30460
 C1335 C 0.72603 0.55199 0.28543
 C1336 C 0.71526 0.53686 0.27395
 C1337 C 0.69384 0.53872 0.27129
 C1338 C 0.68324 0.55532 0.28026
 H1339 H 0.66696 0.58834 0.29889
 H1340 H 0.74312 0.58357 0.30635
 H1341 H 0.74262 0.55080 0.28729
 H1342 H 0.66668 0.55636 0.27817
 H1343 H 0.72517 0.61362 0.32016
 H1344 H 0.68529 0.52719 0.26248
 C1345 C 0.70799 1.09821 0.82017
 C1346 C 0.68656 1.10140 0.81718
 C1347 C 0.67565 1.08643 0.80523
 C1348 C 0.68582 1.06966 0.79585
 C1349 C 0.70722 1.06704 0.79885
 C1350 C 0.71808 1.08126 0.81125
 C1351 C 0.71746 1.05051 0.78900
 C1352 C 0.70660 1.03692 0.77569
 C1353 C 0.68526 1.03960 0.77297
 C1354 C 0.67492 1.05566 0.78313
 H1355 H 0.65910 1.08734 0.80336
 H1356 H 0.73456 1.07959 0.81361
 H1357 H 0.73396 1.04869 0.79107
 H1358 H 0.65847 1.05740 0.78066
 H1359 H 0.71751 1.10926 0.82848
 H1360 H 0.67654 1.02927 0.76288
 C1361 C 0.20926 0.59951 0.82340
 C1362 C 0.18789 0.60269 0.82011
 C1363 C 0.17733 0.58839 0.80709
 C1364 C 0.18785 0.57253 0.79665
 C1365 C 0.20926 0.57004 0.79971
 C1366 C 0.21973 0.58338 0.81341
 C1367 C 0.21988 0.55455 0.78865
 C1368 C 0.20935 0.54185 0.77420
 C1369 C 0.18797 0.54433 0.77152
 C1370 C 0.17729 0.55939 0.78277
 H1371 H 0.16078 0.58923 0.80506
 H1372 H 0.23619 0.58175 0.81592
 H1373 H 0.23638 0.55280 0.79082
 H1374 H 0.16084 0.56104 0.78028
 H1375 H 0.21845 0.61008 0.83270
 H1376 H 0.17947 0.53462 0.76065
 C1377 C 0.19567 1.08619 0.33352
 C1378 C 0.18325 1.09839 0.32014
 C1379 C 0.18038 1.09151 0.29920
 C1380 C 0.19075 1.07397 0.29159
 C1381 C 0.20392 1.06276 0.30504
 C1382 C 0.20586 1.06870 0.32607
 C1383 C 0.21538 1.04612 0.29713
 C1384 C 0.21394 1.04051 0.27582
 C1385 C 0.20022 1.05129 0.26272
 C1386 C 0.18875 1.06789 0.27052
 H1387 H 0.17137 1.10046 0.28819
 H1388 H 0.21555 1.06000 0.33673
 H1389 H 0.22577 1.03784 0.30747
 H1390 H 0.17867 1.07623 0.25995
 H1391 H 0.19745 1.08985 0.35002
 H1392 H 0.19877 1.04729 0.24625
 C1393 C 0.70377 0.38646 0.68440
 C1394 C 0.68207 0.38523 0.68388
 C1395 C 0.67058 0.40147 0.69289
 C1396 C 0.68056 0.41830 0.70256
 C1397 C 0.70232 0.41940 0.70257
 C1398 C 0.71376 0.40345 0.69338
 C1399 C 0.71232 0.43620 0.71216
 C1400 C 0.70089 0.45158 0.72246
 C1401 C 0.67927 0.45026 0.72267
 C1402 C 0.66916 0.43391 0.71253
 H1403 H 0.65388 0.40110 0.69245
 H1404 H 0.73047 0.40392 0.69350
 H1405 H 0.72904 0.43695 0.71224
 H1406 H 0.65246 0.43330 0.71279
 H1407 H 0.71319 0.37408 0.67823
 H1408 H 0.67021 0.46197 0.73057
 C1409 C 0.69362 -0.08346 0.16160
 C1410 C 0.68370 -0.09744 0.17514
 C1411 C 0.68374 -0.09337 0.19687
 C1412 C 0.69404 -0.07603 0.20499
 C1413 C 0.70469 -0.06262 0.19129
 C1414 C 0.70411 -0.06629 0.16961
 C1415 C 0.71609 -0.04604 0.19954
 C1416 C 0.71678 -0.04253 0.22132
 C1417 C 0.70545 -0.05545 0.23474
 C1418 C 0.69428 -0.07214 0.22666
 H1419 H 0.67642 -0.10406 0.20760
 H1420 H 0.71197 -0.05602 0.15885
 H1421 H 0.72464 -0.03603 0.18905
 H1422 H 0.68610 -0.08220 0.23739
 H1423 H 0.69343 -0.08586 0.14477
 H1424 H 0.70579 -0.05307 0.25159
 C1425 C 0.20935 0.40377 0.18950
 C1426 C 0.18773 0.40283 0.19147
 C1427 C 0.17758 0.41868 0.20262
 C1428 C 0.18880 0.43530 0.21125
 C1429 C 0.21039 0.43631 0.20838
 C1430 C 0.22051 0.42040 0.19766
 C1431 C 0.22156 0.45318 0.21631
 C1432 C 0.21160 0.46890 0.22763
 C1433 C 0.19023 0.46755 0.23099
 C1434 C 0.17887 0.45100 0.22265
 H1435 H 0.16095 0.41835 0.20425
 H1436 H 0.23710 0.42079 0.19562
 H1437 H 0.23811 0.45393 0.21396
 H1438 H 0.16236 0.45045 0.22515
 H1439 H 0.21777 0.39158 0.18166
 H1440 H 0.18229 0.47948 0.23974
 C1441 C 0.20225 -0.10061 0.68051
 C1442 C 0.18068 -0.10212 0.68260
 C1443 C 0.17004 -0.08622 0.69307
 C1444 C 0.18076 -0.06927 0.70153
 C1445 C 0.20240 -0.06789 0.69916
 C1446 C 0.21297 -0.08360 0.68856
 C1447 C 0.21315 -0.05105 0.70784
 C1448 C 0.20262 -0.03592 0.71943
 C1449 C 0.18112 -0.03742 0.72170
 C1450 C 0.17024 -0.05383 0.71263
 H1451 H 0.15341 -0.08696 0.69458
 H1452 H 0.22958 -0.08290 0.68675
 H1453 H 0.22978 -0.05015 0.70626
 H1454 H 0.15366 -0.05464 0.71463
 H1455 H 0.21095 -0.11275 0.67290
 H1456 H 0.17271 -0.02591 0.73059
 C1457 C 0.28790 0.32597 0.38042
 C1458 C 0.30952 0.32426 0.37907
 C1459 C 0.32015 0.31368 0.39506
 C1460 C 0.30941 0.30501 0.41203
 C1461 C 0.28775 0.30724 0.41336
 C1462 C 0.27717 0.31771 0.39745
 C1463 C 0.27703 0.29869 0.43043
 C1464 C 0.28763 0.28740 0.44585
 C1465 C 0.30912 0.28512 0.44427
 C1466 C 0.31995 0.29403 0.42765
 H1467 H 0.33680 0.31238 0.39448
 H1468 H 0.26055 0.31936 0.39806
 H1469 H 0.26041 0.30029 0.43137
 H1470 H 0.33653 0.29212 0.42688
 H1471 H 0.27918 0.33358 0.36817
 H1472 H 0.31758 0.27648 0.45600
 C1473 C 0.33542 0.81952 -0.09742
 C1474 C 0.32159 0.82803 -0.11212
 C1475 C 0.30028 0.82705 -0.10797
 C1476 C 0.29294 0.81740 -0.08974
 C1477 C 0.30698 0.80822 -0.07557
 C1478 C 0.32819 0.80957 -0.07945
 C1479 C 0.29956 0.79764 -0.05792
 C1480 C 0.27827 0.79644 -0.05404
 C1481 C 0.26448 0.80625 -0.06783
 C1482 C 0.27173 0.81650 -0.08561
 H1483 H 0.28933 0.83328 -0.11915
 H1484 H 0.33921 0.80287 -0.06861
 H1485 H 0.31033 0.79026 -0.04727
 H1486 H 0.26074 0.82354 -0.09624
 H1487 H 0.35192 0.82050 -0.09980
 H1488 H 0.24799 0.80547 -0.06520
 C1489 C 0.81082 0.28088 -0.11978
 C1490 C 0.80924 0.30256 -0.11978
 C1491 C 0.80028 0.31250 -0.10241
 C1492 C 0.79356 0.30099 -0.08504
 C1493 C 0.79582 0.27926 -0.08498
 C1494 C 0.80426 0.26936 -0.10254
 C1495 C 0.78947 0.26779 -0.06743
 C1496 C 0.78042 0.27774 -0.05015
 C1497 C 0.77809 0.29932 -0.05044
 C1498 C 0.78476 0.31086 -0.06763
 H1499 H 0.79911 0.32919 -0.10212
 H1500 H 0.80590 0.25271 -0.10290
 H1501 H 0.79104 0.25112 -0.06746
 H1502 H 0.78288 0.32748 -0.06738
 H1503 H 0.81734 0.27280 -0.13311
 H1504 H 0.77110 0.30730 -0.03729
 C1505 C 0.81000 0.83249 0.41485
 C1506 C 0.82137 0.82042 0.40055
 C1507 C 0.82269 0.79899 0.40384
 C1508 C 0.81234 0.78971 0.42068
 C1509 C 0.80026 0.80190 0.43439
 C1510 C 0.79945 0.82331 0.43151
 C1511 C 0.78908 0.79243 0.45061
 C1512 C 0.79025 0.77098 0.45357
 C1513 C 0.80279 0.75910 0.44024
 C1514 C 0.81359 0.76835 0.42382
 H1515 H 0.83115 0.78938 0.39288
 H1516 H 0.79051 0.83295 0.44202
 H1517 H 0.77962 0.80172 0.46100
 H1518 H 0.82284 0.75877 0.41352
 H1519 H 0.80906 0.84908 0.41303
 H1520 H 0.80389 0.74254 0.44224
 C1521 C 0.68210 0.27472 0.60868
 C1522 C 0.68266 0.29646 0.60843
 C1523 C 0.69343 0.30645 0.59222
 C1524 C 0.70375 0.29499 0.57677
 C1525 C 0.70298 0.27316 0.57714
 C1526 C 0.69202 0.26319 0.59312
 C1527 C 0.71355 0.26170 0.56179
 C1528 C 0.72535 0.27184 0.54648
 C1529 C 0.72595 0.29354 0.54625
 C1530 C 0.71508 0.30501 0.56112
 H1531 H 0.69378 0.32317 0.59158
 H1532 H 0.69139 0.24649 0.59377
 H1533 H 0.71318 0.24497 0.56218
 H1534 H 0.71585 0.32172 0.56059
 H1535 H 0.67426 0.26654 0.62115
 H1536 H 0.73489 0.30166 0.53452
 C1537 C 0.69554 0.82629 1.08385
 C1538 C 0.68688 0.81439 1.10009
 C1539 C 0.68867 0.79273 1.09913
 C1540 C 0.69947 0.78323 1.08259
 C1541 C 0.70882 0.79553 1.06694
 C1542 C 0.70653 0.81699 1.06758
 C1543 C 0.72042 0.78618 1.05097
 C1544 C 0.72244 0.76462 1.05010
 C1545 C 0.71256 0.75243 1.06529
 C1546 C 0.70133 0.76167 1.08153
 H1547 H 0.68221 0.78329 1.11150
 H1548 H 0.71332 0.82662 1.05553
 H1549 H 0.72776 0.79567 1.03914
 H1550 H 0.69419 0.75197 1.09330
 H1551 H 0.69392 0.84293 1.08375
 H1552 H 0.71393 0.73577 1.06488
 C1553 C 0.18878 0.33610 1.09070
 C1554 C 0.17832 0.32445 1.10598
 C1555 C 0.17723 0.30283 1.10354
 C1556 C 0.18688 0.29302 1.08650
 C1557 C 0.19805 0.30489 1.07181
 C1558 C 0.19866 0.32642 1.07388
 C1559 C 0.20869 0.29501 1.05547
 C1560 C 0.20806 0.27340 1.05339
 C1561 C 0.19628 0.26178 1.06760
 C1562 C 0.18591 0.27149 1.08412
 H1563 H 0.16947 0.29352 1.11523
 H1564 H 0.20692 0.33578 1.06258
 H1565 H 0.21755 0.30412 1.04443
 H1566 H 0.17732 0.26215 1.09517
 H1567 H 0.18947 0.35277 1.09178
 H1568 H 0.19560 0.24511 1.06629
 C1569 C 0.17879 0.82885 0.58405
 C1570 C 0.16981 0.81694 0.60008
 C1571 C 0.16994 0.79526 0.59818
 C1572 C 0.17970 0.78567 0.58107
 C1573 C 0.18963 0.79787 0.56573
 C1574 C 0.18873 0.81942 0.56714
 C1575 C 0.20069 0.78832 0.54949
 C1576 C 0.20167 0.76670 0.54813
 C1577 C 0.19097 0.75467 0.56285
 C1578 C 0.18021 0.76407 0.57931
 H1579 H 0.16323 0.78580 0.61041
 H1580 H 0.19597 0.82900 0.55533
 H1581 H 0.20870 0.79771 0.53802
 H1582 H 0.17257 0.75446 0.59083
 H1583 H 0.17843 0.84555 0.58472
 H1584 H 0.19155 0.73797 0.56205
 C1585 C 0.31150 0.71446 0.61318
 C1586 C 0.31246 0.69273 0.61330
 C1587 C 0.30305 0.68172 0.59673
 C1588 C 0.29216 0.69205 0.58092
 C1589 C 0.29130 0.71385 0.58099
 C1590 C 0.30121 0.72491 0.59708
 C1591 C 0.28022 0.72416 0.56518
 C1592 C 0.26946 0.71285 0.54976
 C1593 C 0.27032 0.69119 0.54997
 C1594 C 0.28176 0.68088 0.56525
 H1595 H 0.30401 0.66502 0.59618
 H1596 H 0.30061 0.74163 0.59748
 H1597 H 0.27951 0.74088 0.56520
 H1598 H 0.28222 0.66415 0.56500
 H1599 H 0.31824 0.72344 0.62582
 H1600 H 0.26226 0.68219 0.53813
 C1601 C 0.31492 0.21584 1.11691
 C1602 C 0.31446 0.19411 1.11729
 C1603 C 0.30414 0.18351 1.10103
 C1604 C 0.29394 0.19434 1.08507
 C1605 C 0.29453 0.21615 1.08484
 C1606 C 0.30520 0.22675 1.10076
 C1607 C 0.28417 0.22695 1.06889
 C1608 C 0.27275 0.21618 1.05356
 C1609 C 0.27221 0.19450 1.05404
 C1610 C 0.28288 0.18366 1.06952
 H1611 H 0.30397 0.16678 1.10074
 H1612 H 0.30571 0.24347 1.10092
 H1613 H 0.28453 0.24369 1.06872
 H1614 H 0.28225 0.16694 1.06950
 H1615 H 0.32245 0.22449 1.12934
 H1616 H 0.26360 0.18589 1.04232
 C1617 C 0.81303 0.65398 1.08941
 C1618 C 0.82421 0.66670 1.10335
 C1619 C 0.82493 0.68810 1.09958
 C1620 C 0.81425 0.69668 1.08251
 C1621 C 0.80250 0.68380 1.06908
 C1622 C 0.80220 0.66245 1.07252
 C1623 C 0.79103 0.69250 1.05262
 C1624 C 0.79137 0.71393 1.04922
 C1625 C 0.80360 0.72653 1.06228
 C1626 C 0.81484 0.71801 1.07885
 H1627 H 0.83325 0.69819 1.11026
 H1628 H 0.79347 0.65230 1.06224
 H1629 H 0.78179 0.68261 1.04253
 H1630 H 0.82384 0.72812 1.08893
 H1631 H 0.81256 0.63742 1.09159
 H1632 H 0.80409 0.74309 1.05999
 C1633 C 0.81964 0.20965 0.61979
 C1634 C 0.81855 0.18796 0.62072
 C1635 C 0.80986 0.17708 0.60373
 C1636 C 0.80216 0.18764 0.58621
 C1637 C 0.80339 0.20943 0.58540
 C1638 C 0.81221 0.22027 0.60226
 C1639 C 0.79539 0.21998 0.56793
 C1640 C 0.78570 0.20900 0.55159
 C1641 C 0.78470 0.18734 0.55253
 C1642 C 0.79302 0.17674 0.56958
 H1643 H 0.80921 0.16035 0.60405
 H1644 H 0.81317 0.23698 0.60200
 H1645 H 0.79602 0.23670 0.56743
 H1646 H 0.79197 0.16004 0.56994
 H1647 H 0.82601 0.21846 0.63276
 H1648 H 0.77735 0.17857 0.54007
 C1649 C 0.68817 0.71130 0.38960
 C1650 C 0.68908 0.68959 0.38854
 C1651 C 0.69955 0.67891 0.40464
 C1652 C 0.70941 0.68969 0.42102
 C1653 C 0.70812 0.71143 0.42190
 C1654 C 0.69736 0.72207 0.40621
 C1655 C 0.71788 0.72223 0.43828
 C1656 C 0.72946 0.71165 0.45352
 C1657 C 0.73097 0.69005 0.45235
 C1658 C 0.72080 0.67913 0.43638
 H1659 H 0.70016 0.66220 0.40448
 H1660 H 0.69642 0.73877 0.40654
 H1661 H 0.71683 0.73893 0.43891
 H1662 H 0.72205 0.66245 0.43590
 H1663 H 0.68077 0.72013 0.37732
 H1664 H 0.73978 0.68161 0.46396
 C1665 C 0.68352 0.21202 -0.10850
 C1666 C 0.68387 0.19028 -0.10832
 C1667 C 0.69338 0.18016 -0.09137
 C1668 C 0.70283 0.19150 -0.07518
 C1669 C 0.70238 0.21334 -0.07554
 C1670 C 0.69254 0.22343 -0.09220
 C1671 C 0.71235 0.22467 -0.05958
 C1672 C 0.72335 0.21436 -0.04378
 C1673 C 0.72353 0.19267 -0.04348
 C1674 C 0.71314 0.18133 -0.05888
 H1675 H 0.69352 0.16344 -0.09078
 H1676 H 0.69217 0.24014 -0.09286
 H1677 H 0.71242 0.24141 -0.06002
 H1678 H 0.71365 0.16462 -0.05836
 H1679 H 0.67662 0.22029 -0.12148
 H1680 H 0.73194 0.18448 -0.03138
 C1681 C 0.17134 0.70037 -0.08931
 C1682 C 0.18414 0.68961 -0.10342
 C1683 C 0.20566 0.69052 -0.10057
 C1684 C 0.21425 0.70218 -0.08412
 C1685 C 0.20123 0.71336 -0.07043
 C1686 C 0.17980 0.71221 -0.07306
 C1687 C 0.20987 0.72559 -0.05442
 C1688 C 0.23137 0.72651 -0.05169
 C1689 C 0.24415 0.71495 -0.06509
 C1690 C 0.23568 0.70300 -0.08125
 H1691 H 0.21578 0.68258 -0.11142
 H1692 H 0.16958 0.72051 -0.06258
 H1693 H 0.19987 0.73430 -0.04405
 H1694 H 0.24589 0.69447 -0.09155
 H1695 H 0.15472 0.69963 -0.09081
 H1696 H 0.26076 0.71546 -0.06333
 C1697 C 0.21704 0.19014 0.38571
 C1698 C 0.19537 0.19176 0.38560
 C1699 C 0.18573 0.20399 0.40099
 C1700 C 0.19752 0.21400 0.41655
 C1701 C 0.21921 0.21166 0.41684
 C1702 C 0.22881 0.19988 0.40123
 C1703 C 0.23096 0.22119 0.43270
 C1704 C 0.22136 0.23342 0.44806
 C1705 C 0.19983 0.23595 0.44744
 C1706 C 0.18799 0.22619 0.43194
 H1707 H 0.16907 0.20530 0.40120
 H1708 H 0.24543 0.19813 0.40104
 H1709 H 0.24758 0.21937 0.43289
 H1710 H 0.17140 0.22822 0.43196
 H1711 H 0.22494 0.18125 0.37377
 H1712 H 0.19210 0.24533 0.45913
 C1713 C 0.32736 0.41680 0.69015
 C1714 C 0.31523 0.40152 0.68027
 C1715 C 0.29378 0.40464 0.67862
 C1716 C 0.28457 0.42229 0.68738
 C1717 C 0.29687 0.43695 0.69816
 C1718 C 0.31827 0.43423 0.69914
 C1719 C 0.28753 0.45386 0.70814
 C1720 C 0.26605 0.45653 0.70717
 C1721 C 0.25404 0.44237 0.69565
 C1722 C 0.26320 0.42531 0.68597
 H1723 H 0.28412 0.39303 0.67123
 H1724 H 0.32797 0.44548 0.70706
 H1725 H 0.29693 0.46483 0.71682
 H1726 H 0.25353 0.41431 0.67765
 H1727 H 0.34395 0.41521 0.69115
 H1728 H 0.23745 0.44411 0.69474
 C1729 C 0.31577 0.92098 0.16624
 C1730 C 0.32437 0.90555 0.17907
 C1731 C 0.32250 0.90745 0.20105
 C1732 C 0.31174 0.92409 0.20998
 C1733 C 0.30242 0.93893 0.19683
 C1734 C 0.30479 0.93741 0.17501
 C1735 C 0.29060 0.95485 0.20569
 C1736 C 0.28824 0.95635 0.22758
 C1737 C 0.29824 0.94200 0.24058
 C1738 C 0.30976 0.92590 0.23185
 H1739 H 0.32877 0.89565 0.21124
 H1740 H 0.29798 0.94882 0.16471
 H1741 H 0.28311 0.96599 0.19554
 H1742 H 0.31690 0.91473 0.24219
 H1743 H 0.31737 0.92031 0.14934
 H1744 H 0.29660 0.94286 0.25749
 C1745 C 0.80857 0.41188 0.16276
 C1746 C 0.81842 0.39735 0.17578
 C1747 C 0.81637 0.39924 0.19769
 C1748 C 0.80448 0.41515 0.20643
 C1749 C 0.79412 0.42920 0.19312
 C1750 C 0.79640 0.42751 0.17133
 C1751 C 0.78176 0.44476 0.20183
 C1752 C 0.78012 0.44683 0.22370
 C1753 C 0.79080 0.43310 0.23683
 C1754 C 0.80270 0.41723 0.22827
 H1755 H 0.82366 0.38810 0.20797
 H1756 H 0.78882 0.43832 0.16090
 H1757 H 0.77376 0.45550 0.19165
 H1758 H 0.81058 0.40667 0.23871
 H1759 H 0.81026 0.41119 0.14586
 H1760 H 0.78969 0.43448 0.25375
 C1761 C 0.82575 0.91292 0.69028
 C1762 C 0.81368 0.89701 0.68135
 C1763 C 0.79208 0.89933 0.68094
 C1764 C 0.78272 0.91677 0.68999
 C1765 C 0.79502 0.93202 0.69989
 C1766 C 0.81653 0.93011 0.69962
 C1767 C 0.78560 0.94875 0.71017
 C1768 C 0.76403 0.95070 0.71022
 C1769 C 0.75197 0.93594 0.69957
 C1770 C 0.76122 0.91902 0.68971
 H1771 H 0.78245 0.88727 0.67430
 H1772 H 0.82623 0.94182 0.70680
 H1773 H 0.79502 0.96020 0.71817
 H1774 H 0.75153 0.90757 0.68208
 H1775 H 0.84242 0.91200 0.69029
 H1776 H 0.73531 0.93712 0.69945
 C1777 C 0.70410 0.60051 0.67865
 C1778 C 0.68291 0.60419 0.68178
 C1779 C 0.67173 0.59057 0.69474
 C1780 C 0.68155 0.57373 0.70442
 C1781 C 0.70275 0.57013 0.70082
 C1782 C 0.71385 0.58360 0.68790
 C1783 C 0.71258 0.55329 0.71042
 C1784 C 0.70164 0.54021 0.72403
 C1785 C 0.68060 0.54402 0.72767
 C1786 C 0.67060 0.56050 0.71781
 H1787 H 0.65538 0.59295 0.69721
 H1788 H 0.73016 0.58121 0.68514
 H1789 H 0.72887 0.55066 0.70767
 H1790 H 0.65436 0.56303 0.72082
 H1791 H 0.71333 0.61091 0.66926
 H1792 H 0.67183 0.53416 0.73808
 C1793 C 0.69860 0.08922 0.16588
 C1794 C 0.68887 0.10282 0.17999
 C1795 C 0.68892 0.09809 0.20155
 C1796 C 0.69889 0.08034 0.20894
 C1797 C 0.70918 0.06717 0.19467
 C1798 C 0.70874 0.07162 0.17316
 C1799 C 0.71996 0.04994 0.20218
 C1800 C 0.72040 0.04555 0.22378
 C1801 C 0.70961 0.05841 0.23777
 C1802 C 0.69904 0.07572 0.23043
 H1803 H 0.68174 0.10851 0.21269
 H1804 H 0.71636 0.06158 0.16197
 H1805 H 0.72809 0.04002 0.19124
 H1806 H 0.69116 0.08560 0.24158
 H1807 H 0.69844 0.09221 0.14916
 H1808 H 0.70974 0.05536 0.25448
 C1809 C 0.19760 0.60153 0.16287
 C1810 C 0.18700 0.61565 0.17578
 C1811 C 0.18543 0.61147 0.19740
 C1812 C 0.19432 0.59366 0.20598
 C1813 C 0.20539 0.57991 0.19294
 C1814 C 0.20683 0.58394 0.17138
 C1815 C 0.21503 0.56254 0.20174
 C1816 C 0.21347 0.55860 0.22339
 C1817 C 0.20187 0.57206 0.23606
 C1818 C 0.19250 0.58949 0.22747
 H1819 H 0.17766 0.62226 0.20773
 H1820 H 0.21507 0.57348 0.16109
 H1821 H 0.22385 0.55222 0.19179
 H1822 H 0.18398 0.59981 0.23768
 H1823 H 0.19870 0.60400 0.14610
 H1824 H 0.20050 0.56945 0.25279
 C1825 C 0.21377 0.11535 0.67765
 C1826 C 0.19242 0.11889 0.67927
 C1827 C 0.18016 0.10423 0.68984
 C1828 C 0.18911 0.08687 0.69931
 C1829 C 0.21055 0.08354 0.69752
 C1830 C 0.22271 0.09776 0.68649
 C1831 C 0.21953 0.06628 0.70715
 C1832 C 0.20744 0.05263 0.71912
 C1833 C 0.18616 0.05617 0.72094
 C1834 C 0.17702 0.07300 0.71089
 H1835 H 0.16362 0.10633 0.69089
 H1836 H 0.23921 0.09552 0.68510
 H1837 H 0.23602 0.06380 0.70587
 H1838 H 0.16055 0.07537 0.71248
 H1839 H 0.22373 0.12642 0.66997
 H1840 H 0.17658 0.04583 0.73005
 C1841 C 0.30599 0.59942 0.33242
 C1842 C 0.31514 0.61381 0.31874
 C1843 C 0.31413 0.61016 0.29694
 C1844 C 0.30358 0.59282 0.28898
 C1845 C 0.29369 0.57907 0.30294
 C1846 C 0.29524 0.58235 0.32461
 C1847 C 0.28222 0.56237 0.29499
 C1848 C 0.28083 0.55896 0.27325
 C1849 C 0.29130 0.57227 0.25950
 C1850 C 0.30244 0.58916 0.26728
 H1851 H 0.32097 0.62108 0.28613
 H1852 H 0.28803 0.57179 0.33555
 H1853 H 0.27438 0.55204 0.30572
 H1854 H 0.31000 0.59945 0.25633
 H1855 H 0.30702 0.60140 0.34928
 H1856 H 0.29040 0.56993 0.24267
 C1857 C 0.30614 0.11139 0.78525
 C1858 C 0.30498 0.11154 0.80734
 C1859 C 0.29480 0.09517 0.81749
 C1860 C 0.28536 0.07936 0.80584
 C1861 C 0.28669 0.07938 0.78367
 C1862 C 0.29728 0.09537 0.77356
 C1863 C 0.27698 0.06369 0.77201
 C1864 C 0.26535 0.04843 0.78223
 C1865 C 0.26407 0.04858 0.80425
 C1866 C 0.27422 0.06375 0.81598
 H1867 H 0.29406 0.09475 0.83449
 H1868 H 0.29831 0.09573 0.75658
 H1869 H 0.27781 0.06377 0.75500
 H1870 H 0.27300 0.06353 0.83295
 H1871 H 0.31349 0.12393 0.77689
 H1872 H 0.25522 0.03688 0.81239
 C1873 C 0.80952 0.59621 0.78461
 C1874 C 0.80813 0.59793 0.80663
 C1875 C 0.79590 0.58351 0.81757
 C1876 C 0.78493 0.56807 0.80673
 C1877 C 0.78669 0.56646 0.78468
 C1878 C 0.79910 0.58054 0.77380
 C1879 C 0.77579 0.55099 0.77384
 C1880 C 0.76266 0.53741 0.78468
 C1881 C 0.76079 0.53930 0.80658
 C1882 C 0.77200 0.55435 0.81755
 H1883 H 0.79485 0.58425 0.83454
 H1884 H 0.80047 0.57965 0.75686
 H1885 H 0.77717 0.54980 0.75691
 H1886 H 0.77039 0.55539 0.83445
 H1887 H 0.81833 0.60726 0.77559
 H1888 H 0.75081 0.52897 0.81525
 C1889 C 0.81802 0.07608 0.33251
 C1890 C 0.82724 0.09124 0.31980
 C1891 C 0.82634 0.08900 0.29782
 C1892 C 0.81557 0.07241 0.28870
 C1893 C 0.80550 0.05789 0.30169
 C1894 C 0.80719 0.05963 0.32355
 C1895 C 0.79352 0.04217 0.29263
 C1896 C 0.79162 0.04060 0.27070
 C1897 C 0.80237 0.05455 0.25788
 C1898 C 0.81415 0.07041 0.26680
 H1899 H 0.83322 0.10060 0.28780
 H1900 H 0.79981 0.04847 0.33373
 H1901 H 0.78547 0.03131 0.30263
 H1902 H 0.82186 0.08132 0.25659
 H1903 H 0.81890 0.07714 0.34947
 H1904 H 0.80113 0.05359 0.24093
 C1905 C 0.71538 0.38770 0.32213
 C1906 C 0.69377 0.38601 0.32053
 C1907 C 0.68290 0.40068 0.30859
 C1908 C 0.69344 0.41681 0.29856
 C1909 C 0.71507 0.41860 0.30083
 C1910 C 0.72589 0.40394 0.31257
 C1911 C 0.72560 0.43485 0.29108
 C1912 C 0.71488 0.44899 0.27850
 C1913 C 0.69344 0.44697 0.27601
 C1914 C 0.68275 0.43115 0.28619
 H1915 H 0.66626 0.39973 0.30731
 H1916 H 0.74251 0.40492 0.31422
 H1917 H 0.74220 0.43615 0.29276
 H1918 H 0.66618 0.42999 0.28418
 H1919 H 0.72428 0.37636 0.33069
 H1920 H 0.68495 0.45774 0.26631
 C1921 C 0.71276 0.88819 0.81768
 C1922 C 0.69121 0.88556 0.81698
 C1923 C 0.67930 0.89971 0.80535
 C1924 C 0.68875 0.91614 0.79465
 C1925 C 0.71036 0.91877 0.79592
 C1926 C 0.72221 0.90469 0.80742
 C1927 C 0.71980 0.93535 0.78555
 C1928 C 0.70801 0.94915 0.77349
 C1929 C 0.68658 0.94622 0.77200
 C1930 C 0.67699 0.92997 0.78266
 H1931 H 0.66266 0.89814 0.80479
 H1932 H 0.73882 0.90636 0.80835
 H1933 H 0.73639 0.93731 0.78659
 H1934 H 0.66041 0.92815 0.78143
 H1935 H 0.72245 0.87734 0.82601
 H1936 H 0.67720 0.95666 0.76279
 C1937 C 0.21270 0.39892 0.82124
 C1938 C 0.19111 0.39687 0.81995
 C1939 C 0.17988 0.41116 0.80788
 C1940 C 0.19004 0.42666 0.79661
 C1941 C 0.21172 0.42852 0.79798
 C1942 C 0.22288 0.41472 0.81051
 C1943 C 0.22188 0.44394 0.78651
 C1944 C 0.21067 0.45714 0.77326
 C1945 C 0.18913 0.45506 0.77193
 C1946 C 0.17887 0.44009 0.78367
 H1947 H 0.16321 0.41013 0.80705
 H1948 H 0.23953 0.41584 0.81165
 H1949 H 0.23853 0.44536 0.78752
 H1950 H 0.16224 0.43883 0.78241
 H1951 H 0.22183 0.38800 0.83009
 H1952 H 0.18018 0.46518 0.76193
 C1953 C 0.19337 0.91323 0.33524
 C1954 C 0.18400 0.89866 0.32180
 C1955 C 0.18483 0.90189 0.29993
 C1956 C 0.19512 0.91914 0.29166
 C1957 C 0.20501 0.93324 0.30537
 C1958 C 0.20387 0.93026 0.32711
 C1959 C 0.21605 0.94998 0.29711
 C1960 C 0.21715 0.95303 0.27529
 C1961 C 0.20674 0.93930 0.26179
 C1962 C 0.19594 0.92241 0.26990
 H1963 H 0.17794 0.89075 0.28928
 H1964 H 0.21116 0.94106 0.33786
 H1965 H 0.22385 0.96061 0.30768
 H1966 H 0.18837 0.91181 0.25915
 H1967 H 0.19259 0.91150 0.35212
 H1968 H 0.20740 0.94133 0.24493
 C1969 C 0.39166 0.31908 0.71813
 C1970 C 0.39169 0.31725 0.69608
 C1971 C 0.40770 0.30613 0.68636
 C1972 C 0.42317 0.29674 0.69842
 C1973 C 0.42305 0.29887 0.72052
 C1974 C 0.40727 0.31014 0.73020
 C1975 C 0.43850 0.28940 0.73259
 C1976 C 0.45372 0.27732 0.72285
 C1977 C 0.45363 0.27520 0.70088
 C1978 C 0.43862 0.28501 0.68874
 H1979 H 0.40819 0.30481 0.66940
 H1980 H 0.40682 0.31178 0.74714
 H1981 H 0.43833 0.29092 0.74955
 H1982 H 0.43894 0.28317 0.67182
 H1983 H 0.37936 0.32715 0.72615
 H1984 H 0.46527 0.26600 0.69306
 C1985 C 0.40062 0.81988 0.20875
 C1986 C 0.39939 0.81839 0.18670
 C1987 C 0.41388 0.80597 0.17607
 C1988 C 0.42912 0.79516 0.18722
 C1989 C 0.43038 0.79725 0.20928
 C1990 C 0.41607 0.80962 0.21987
 C1991 C 0.44588 0.78686 0.22040
 C1992 C 0.45986 0.77394 0.20985
 C1993 C 0.45819 0.77152 0.18799
 C1994 C 0.44308 0.78222 0.17672
 H1995 H 0.41348 0.80479 0.15910
 H1996 H 0.41667 0.81118 0.23682
 H1997 H 0.44691 0.78862 0.23731
 H1998 H 0.44228 0.78034 0.15982
 H1999 H 0.38945 0.82877 0.21755
 H2000 H 0.46885 0.76166 0.17957
 C2001 C 0.91922 0.33522 0.19089
 C2002 C 0.90572 0.32226 0.17953
 C2003 C 0.90915 0.30079 0.17988
 C2004 C 0.92543 0.29242 0.19172
 C2005 C 0.93840 0.30560 0.20360
 C2006 C 0.93529 0.32699 0.20289
 C2007 C 0.95420 0.29716 0.21607
 C2008 C 0.95745 0.27570 0.21650
 C2009 C 0.94475 0.26280 0.20422
 C2010 C 0.92879 0.27105 0.19208
 H2011 H 0.89883 0.29050 0.17144
 H2012 H 0.94523 0.33736 0.21168
 H2013 H 0.96403 0.30728 0.22531
 H2014 H 0.91906 0.26070 0.18302
 H2015 H 0.91734 0.35182 0.19058
 H2016 H 0.94691 0.24622 0.20430
 C2017 C 0.89505 0.81873 0.71727
 C2018 C 0.89364 0.81559 0.69542
 C2019 C 0.90876 0.80347 0.68541
 C2020 C 0.92456 0.79415 0.69707
 C2021 C 0.92583 0.79758 0.71896
 C2022 C 0.91110 0.81001 0.72887
 C2023 C 0.94157 0.78819 0.73064
 C2024 C 0.95567 0.77488 0.72083
 C2025 C 0.95419 0.77137 0.69910
 C2026 C 0.93891 0.78114 0.68726
 H2027 H 0.90823 0.80115 0.66856
 H2028 H 0.91174 0.81264 0.74568
 H2029 H 0.94248 0.79078 0.74745
 H2030 H 0.93812 0.77827 0.67050
 H2031 H 0.88347 0.82755 0.72558
 H2032 H 0.96496 0.76118 0.69126
 C2033 C 0.60806 0.28434 0.32597
 C2034 C 0.61058 0.30582 0.32369
 C2035 C 0.59628 0.31674 0.31127
 C2036 C 0.58003 0.30637 0.30107
 C2037 C 0.57765 0.28484 0.30368
 C2038 C 0.59169 0.27400 0.31622
 C2039 C 0.56145 0.27445 0.29345
 C2040 C 0.54783 0.28520 0.28020
 C2041 C 0.55042 0.30658 0.27759
 C2042 C 0.56625 0.31711 0.28808
 H2043 H 0.59773 0.33332 0.30953
 H2044 H 0.59020 0.25746 0.31825
 H2045 H 0.55974 0.25791 0.29542
 H2046 H 0.56786 0.33362 0.28585
 H2047 H 0.61899 0.27536 0.33499
 H2048 H 0.54010 0.31520 0.26750
 C2049 C 0.60720 0.78272 0.82638
 C2050 C 0.60949 0.80417 0.82367
 C2051 C 0.59475 0.81483 0.81161
 C2052 C 0.57829 0.80421 0.80210
 C2053 C 0.57612 0.78269 0.80508
 C2054 C 0.59060 0.77213 0.81734
 C2055 C 0.55974 0.77206 0.79543
 C2056 C 0.54585 0.78258 0.78233
 C2057 C 0.54818 0.80396 0.77942
 C2058 C 0.56413 0.81472 0.78939
 H2059 H 0.59604 0.83139 0.80958
 H2060 H 0.58930 0.75560 0.81965
 H2061 H 0.55817 0.75553 0.79758
 H2062 H 0.56557 0.83121 0.78690
 H2063 H 0.61848 0.77397 0.83519
 H2064 H 0.53760 0.81238 0.76944
 C2065 C 0.11044 0.31475 0.79419
 C2066 C 0.11018 0.31538 0.81631
 C2067 C 0.09372 0.30584 0.82698
 C2068 C 0.07787 0.29589 0.81575
 C2069 C 0.07811 0.29596 0.79355
 C2070 C 0.09447 0.30538 0.78294
 C2071 C 0.06215 0.28634 0.78229
 C2072 C 0.04628 0.27601 0.79291
 C2073 C 0.04631 0.27561 0.81496
 C2074 C 0.06184 0.28573 0.82631
 H2075 H 0.09309 0.30628 0.84397
 H2076 H 0.09506 0.30529 0.76593
 H2077 H 0.06236 0.28639 0.76525
 H2078 H 0.06144 0.28541 0.84332
 H2079 H 0.12315 0.32132 0.78545
 H2080 H 0.03419 0.26767 0.82339
 C2081 C 0.10360 0.81736 0.29165
 C2082 C 0.10438 0.81560 0.31369
 C2083 C 0.08927 0.80353 0.32383
 C2084 C 0.07388 0.79332 0.31217
 C2085 C 0.07313 0.79569 0.29014
 C2086 C 0.08803 0.80774 0.28005
 C2087 C 0.05761 0.78581 0.27848
 C2088 C 0.04308 0.77309 0.28844
 C2089 C 0.04416 0.77040 0.31029
 C2090 C 0.05930 0.78063 0.32211
 H2091 H 0.08936 0.80211 0.34078
 H2092 H 0.08782 0.80948 0.26313
 H2093 H 0.05704 0.78776 0.26157
 H2094 H 0.05969 0.77852 0.33899
 H2095 H 0.11527 0.82592 0.28319
 H2096 H 0.03307 0.76067 0.31826
 C2097 C 0.60843 0.71425 0.68455
 C2098 C 0.60835 0.69256 0.68593
 C2099 C 0.59255 0.68279 0.69734
 C2100 C 0.57686 0.69450 0.70679
 C2101 C 0.57680 0.71622 0.70464
 C2102 C 0.59275 0.72594 0.69366
 C2103 C 0.56085 0.72790 0.71357
 C2104 C 0.54518 0.71821 0.72511
 C2105 C 0.54554 0.69665 0.72753
 C2106 C 0.56114 0.68486 0.71827
 H2107 H 0.59218 0.66610 0.69848
 H2108 H 0.59311 0.74260 0.69210
 H2109 H 0.56085 0.74456 0.71189
 H2110 H 0.56094 0.66824 0.72017
 H2111 H 0.62066 0.72227 0.67635
 H2112 H 0.53361 0.68888 0.73640
 C2113 C 0.60839 0.18257 0.21309
 C2114 C 0.61022 0.18593 0.19132
 C2115 C 0.59556 0.19857 0.18128
 C2116 C 0.57961 0.20788 0.19280
 C2117 C 0.57787 0.20412 0.21458
 C2118 C 0.59229 0.19139 0.22454
 C2119 C 0.56192 0.21339 0.22611
 C2120 C 0.54798 0.22684 0.21625
 C2121 C 0.54994 0.23064 0.19462
 C2122 C 0.56549 0.22108 0.18295
 H2123 H 0.59650 0.20117 0.16450
 H2124 H 0.59133 0.18851 0.24127
 H2125 H 0.56065 0.21053 0.24283
 H2126 H 0.56660 0.22420 0.16628
 H2127 H 0.61965 0.17340 0.22147
 H2128 H 0.53933 0.24091 0.18668
 C2129 C 0.10552 0.72019 0.17881
 C2130 C 0.10673 0.69846 0.17834
 C2131 C 0.09141 0.68693 0.18874
 C2132 C 0.07547 0.69691 0.19967
 C2133 C 0.07435 0.71871 0.19970
 C2134 C 0.08939 0.73017 0.18914
 C2135 C 0.05842 0.72870 0.21059
 C2136 C 0.04393 0.71720 0.22203
 C2137 C 0.04528 0.69555 0.22213
 C2138 C 0.06077 0.68547 0.21085
 H2139 H 0.09185 0.67022 0.18841
 H2140 H 0.08891 0.74690 0.18921
 H2141 H 0.05761 0.74542 0.21062
 H2142 H 0.06141 0.66875 0.21108
 H2143 H 0.11730 0.72962 0.17156
 H2144 H 0.03421 0.68640 0.23080
 C2145 C 0.11065 0.22314 0.68718
 C2146 C 0.11285 0.20152 0.68714
 C2147 C 0.09846 0.18947 0.69830
 C2148 C 0.08221 0.19886 0.70927
 C2149 C 0.07999 0.22055 0.70867
 C2150 C 0.09429 0.23253 0.69766
 C2151 C 0.06354 0.22994 0.71917
 C2152 C 0.04944 0.21805 0.73069
 C2153 C 0.05198 0.19655 0.73168
 C2154 C 0.06814 0.18699 0.72086
 H2155 H 0.09973 0.17279 0.69830
 H2156 H 0.09293 0.24920 0.69728
 H2157 H 0.06186 0.24659 0.71858
 H2158 H 0.06966 0.17035 0.72159
 H2159 H 0.12174 0.23292 0.67929
 H2160 H 0.04125 0.18713 0.74049
 C2161 C 0.39789 0.71828 0.31557
 C2162 C 0.39625 0.69658 0.31520
 C2163 C 0.41131 0.68513 0.30432
 C2164 C 0.42759 0.69518 0.29395
 C2165 C 0.42917 0.71694 0.29484
 C2166 C 0.41425 0.72831 0.30570
 C2167 C 0.44545 0.72701 0.28461
 C2168 C 0.45993 0.71569 0.27296
 C2169 C 0.45814 0.69408 0.27192
 C2170 C 0.44223 0.68389 0.28251
 H2171 H 0.41049 0.66842 0.30398
 H2172 H 0.41508 0.74502 0.30633
 H2173 H 0.44656 0.74371 0.28528
 H2174 H 0.44126 0.66720 0.28157
 H2175 H 0.38630 0.72763 0.32325
 H2176 H 0.46914 0.68505 0.26303
 C2177 C 0.38565 0.21613 0.82252
 C2178 C 0.38398 0.19456 0.82026
 C2179 C 0.39976 0.18385 0.80964
 C2180 C 0.41654 0.19452 0.80096
 C2181 C 0.41804 0.21614 0.80352
 C2182 C 0.40260 0.22677 0.81444
 C2183 C 0.43478 0.22683 0.79485
 C2184 C 0.44978 0.21628 0.78310
 C2185 C 0.44806 0.19482 0.78040
 C2186 C 0.43170 0.18398 0.78946
 H2187 H 0.39902 0.16720 0.80803
 H2188 H 0.40343 0.24338 0.81638
 H2189 H 0.43586 0.24343 0.79680
 H2190 H 0.43075 0.16740 0.78727
 H2191 H 0.37363 0.22494 0.83015
 H2192 H 0.45950 0.18640 0.77144
 C2193 C 0.90962 0.66103 0.80431
 C2194 C 0.89495 0.67386 0.81408
 C2195 C 0.89874 0.69529 0.81490
 C2196 C 0.91660 0.70373 0.80587
 C2197 C 0.93077 0.69072 0.79545
 C2198 C 0.92723 0.66938 0.79494
 C2199 C 0.94813 0.69929 0.78555
 C2200 C 0.95173 0.72070 0.78631
 C2201 C 0.93791 0.73341 0.79732
 C2202 C 0.92040 0.72504 0.80686
 H2203 H 0.88758 0.70553 0.82207
 H2204 H 0.93807 0.65913 0.78727
 H2205 H 0.95880 0.68933 0.77724
 H2206 H 0.90977 0.73525 0.81487
 H2207 H 0.90755 0.64445 0.80387
 H2208 H 0.94032 0.74995 0.79805
 C2209 C 0.92153 0.16364 0.31091
 C2210 C 0.90570 0.17584 0.31959
 C2211 C 0.90735 0.19750 0.31822
 C2212 C 0.92418 0.20672 0.30799
 C2213 C 0.93946 0.19419 0.29861
 C2214 C 0.93810 0.17269 0.30038
 C2215 C 0.95576 0.20338 0.28749
 C2216 C 0.95726 0.22497 0.28606
 C2217 C 0.94237 0.23731 0.29603
 C2218 C 0.92587 0.22827 0.30673
 H2219 H 0.89529 0.20723 0.32459
 H2220 H 0.94983 0.16285 0.29357
 H2221 H 0.96730 0.19375 0.28003
 H2222 H 0.91438 0.23813 0.31391
 H2223 H 0.92112 0.14698 0.31219
 H2224 H 0.94321 0.25398 0.29509
 C2225 C 0.31833 0.29062 0.60458
 C2226 C 0.31891 0.31237 0.60502
 C2227 C 0.31123 0.32328 0.58758
 C2228 C 0.30274 0.31273 0.57030
 C2229 C 0.30246 0.29090 0.57001
 C2230 C 0.31040 0.28001 0.58718
 C2231 C 0.29377 0.28035 0.55279
 C2232 C 0.28467 0.29140 0.53625
 C2233 C 0.28496 0.31308 0.53672
 C2234 C 0.29417 0.32366 0.55345
 H2235 H 0.31181 0.34000 0.58740
 H2236 H 0.31012 0.26328 0.58735
 H2237 H 0.29332 0.26361 0.55266
 H2238 H 0.29420 0.34040 0.55341
 H2239 H 0.32367 0.28170 0.61786
 H2240 H 0.27802 0.32186 0.52410
 C2241 C 0.33895 0.81277 0.08242
 C2242 C 0.32593 0.82355 0.09630
 C2243 C 0.30484 0.82536 0.09125
 C2244 C 0.29686 0.81627 0.07289
 C2245 C 0.31002 0.80493 0.05949
 C2246 C 0.33106 0.80345 0.06429
 C2247 C 0.30187 0.79497 0.04171
 C2248 C 0.28072 0.79631 0.03700
 C2249 C 0.26789 0.80824 0.05001
 C2250 C 0.27587 0.81804 0.06786
 H2251 H 0.29449 0.83337 0.10182
 H2252 H 0.34142 0.79501 0.05407
 H2253 H 0.31195 0.78592 0.03172
 H2254 H 0.26556 0.82677 0.07789
 H2255 H 0.35533 0.81156 0.08552
 H2256 H 0.25153 0.80944 0.04676
 C2257 C 0.81909 0.33208 0.07583
 C2258 C 0.82902 0.31958 0.09083
 C2259 C 0.82911 0.29805 0.08783
 C2260 C 0.81844 0.28913 0.07082
 C2261 C 0.80742 0.30185 0.05669
 C2262 C 0.80826 0.32332 0.05906
 C2263 C 0.79545 0.29288 0.04066
 C2264 C 0.79479 0.27135 0.03825
 C2265 C 0.80653 0.25886 0.05175
 C2266 C 0.81809 0.26765 0.06803
 H2267 H 0.83662 0.28817 0.09921
 H2268 H 0.80024 0.33333 0.04816
 H2269 H 0.78663 0.30259 0.03011
 H2270 H 0.82654 0.25765 0.07859
 H2271 H 0.81928 0.34874 0.07734
 H2272 H 0.80621 0.24221 0.05011
 C2273 C 0.81626 0.78280 0.61078
 C2274 C 0.81605 0.80454 0.60973
 C2275 C 0.80774 0.81401 0.59173
 C2276 C 0.79996 0.80199 0.57507
 C2277 C 0.80085 0.78020 0.57615
 C2278 C 0.80895 0.77078 0.59411
 C2279 C 0.79326 0.76817 0.55942
 C2280 C 0.78412 0.77766 0.54195
 C2281 C 0.78307 0.79930 0.54110
 C2282 C 0.79117 0.81139 0.55738
 H2283 H 0.80756 0.83069 0.59052
 H2284 H 0.80948 0.75411 0.59535
 H2285 H 0.79379 0.75146 0.56031
 H2286 H 0.79027 0.82805 0.55628
 H2287 H 0.82200 0.77499 0.62461
 H2288 H 0.77600 0.80687 0.52776
 C2289 C 0.31658 0.71877 0.40166
 C2290 C 0.31646 0.69714 0.39942
 C2291 C 0.30617 0.68516 0.41457
 C2292 C 0.29540 0.69460 0.43105
 C2293 C 0.29548 0.71634 0.43302
 C2294 C 0.30635 0.72826 0.41840
 C2295 C 0.28424 0.72579 0.44923
 C2296 C 0.27239 0.71377 0.46305
 C2297 C 0.27248 0.69217 0.46099
 C2298 C 0.28408 0.68265 0.44528
 H2299 H 0.30627 0.66847 0.41340
 H2300 H 0.30649 0.74496 0.41959
 H2301 H 0.28410 0.74248 0.45061
 H2302 H 0.28383 0.66596 0.44398
 H2303 H 0.32407 0.72846 0.39013
 H2304 H 0.26355 0.68263 0.47156
 C2305 C 0.27575 0.18396 0.89791
 C2306 C 0.29744 0.18530 0.89728
 C2307 C 0.30785 0.19467 0.91429
 C2308 C 0.29681 0.20277 0.93139
 C2309 C 0.27510 0.20092 0.93189
 C2310 C 0.26474 0.19144 0.91512
 C2311 C 0.26404 0.20893 0.94897
 C2312 C 0.27432 0.21944 0.96524
 C2313 C 0.29588 0.22148 0.96452
 C2314 C 0.30708 0.21296 0.94787
 H2315 H 0.32454 0.19566 0.91432
 H2316 H 0.24807 0.19014 0.91513
 H2317 H 0.24736 0.20759 0.94927
 H2318 H 0.32371 0.21462 0.94772
 H2319 H 0.26714 0.17741 0.88490
 H2320 H 0.30407 0.22956 0.97692
 C2321 C 0.78653 0.67748 0.89265
 C2322 C 0.80825 0.67739 0.89176
 C2323 C 0.81942 0.68696 0.90819
 C2324 C 0.80907 0.69621 0.92518
 C2325 C 0.78731 0.69538 0.92610
 C2326 C 0.77621 0.68611 0.90973
 C2327 C 0.77695 0.70398 0.94332
 C2328 C 0.78796 0.71405 0.95937
 C2329 C 0.80953 0.71542 0.95810
 C2330 C 0.82005 0.70631 0.94127
 H2331 H 0.83613 0.68700 0.90799
 H2332 H 0.75950 0.68568 0.91003
 H2333 H 0.76025 0.70320 0.94405
 H2334 H 0.83673 0.70725 0.94078
 H2335 H 0.77736 0.67100 0.88002
 H2336 H 0.81824 0.72320 0.97033
 C2337 C 0.79689 0.17505 0.39716
 C2338 C 0.81858 0.17652 0.39720
 C2339 C 0.82838 0.18733 0.41366
 C2340 C 0.81671 0.19616 0.42997
 C2341 C 0.79500 0.19389 0.43001
 C2342 C 0.78526 0.18345 0.41347
 C2343 C 0.78334 0.20232 0.44647
 C2344 C 0.79301 0.21357 0.46259
 C2345 C 0.81454 0.21609 0.46227
 C2346 C 0.82633 0.20724 0.44623
 H2347 H 0.84505 0.18857 0.41402
 H2348 H 0.76862 0.18185 0.41308
 H2349 H 0.76669 0.20062 0.44643
 H2350 H 0.84293 0.20923 0.44645
 H2351 H 0.78880 0.16740 0.38443
 H2352 H 0.82227 0.22478 0.47455
 C2353 C 0.69906 0.32496 0.42438
 C2354 C 0.68945 0.31233 0.40919
 C2355 C 0.69117 0.29077 0.41094
 C2356 C 0.70269 0.28197 0.42726
 C2357 C 0.71282 0.29482 0.44206
 C2358 C 0.71069 0.31630 0.44061
 C2359 C 0.72485 0.28595 0.45803
 C2360 C 0.72641 0.26439 0.45964
 C2361 C 0.71604 0.25179 0.44502
 C2362 C 0.70444 0.26049 0.42886
 H2363 H 0.68414 0.28083 0.39921
 H2364 H 0.71814 0.32639 0.45193
 H2365 H 0.73260 0.29574 0.46943
 H2366 H 0.69676 0.25041 0.41768
 H2367 H 0.69775 0.34160 0.42358
 H2368 H 0.71706 0.23512 0.44601
 C2369 C 0.70044 0.82498 0.92156
 C2370 C 0.68961 0.81225 0.90733
 C2371 C 0.68916 0.79080 0.91091
 C2372 C 0.69950 0.78220 0.92815
 C2373 C 0.71087 0.79509 0.94189
 C2374 C 0.71106 0.81647 0.93858
 C2375 C 0.72204 0.78633 0.95854
 C2376 C 0.72170 0.76487 0.96182
 C2377 C 0.70979 0.75228 0.94847
 C2378 C 0.69891 0.76084 0.93168
 H2379 H 0.68125 0.78063 0.89999
 H2380 H 0.71951 0.82662 0.94910
 H2381 H 0.73105 0.79619 0.96888
 H2382 H 0.69018 0.75075 0.92135
 H2383 H 0.70074 0.84157 0.91955
 H2384 H 0.70936 0.73571 0.95067
 C2385 C 0.19284 0.33295 0.92253
 C2386 C 0.18359 0.32029 0.90711
 C2387 C 0.18309 0.29880 0.91034
 C2388 C 0.19185 0.29011 0.92841
 C2389 C 0.20176 0.30293 0.94336
 C2390 C 0.20199 0.32435 0.94036
 C2391 C 0.21142 0.29408 0.96092
 C2392 C 0.21083 0.27260 0.96394
 C2393 C 0.20033 0.26009 0.94934
 C2394 C 0.19109 0.26873 0.93163
 H2395 H 0.17638 0.28869 0.89858
 H2396 H 0.20927 0.33446 0.95179
 H2397 H 0.21936 0.30384 0.97222
 H2398 H 0.18346 0.25869 0.92038
 H2399 H 0.19304 0.34958 0.92084
 H2400 H 0.19978 0.24349 0.95131
 C2401 C 0.18948 0.82748 0.41807
 C2402 C 0.18056 0.81511 0.40222
 C2403 C 0.18003 0.79353 0.40503
 C2404 C 0.18844 0.78452 0.42316
 C2405 C 0.19796 0.79714 0.43854
 C2406 C 0.19825 0.81859 0.43592
 C2407 C 0.20720 0.78808 0.45619
 C2408 C 0.20672 0.76656 0.45890
 C2409 C 0.19660 0.75419 0.44391
 C2410 C 0.18768 0.76308 0.42609
 H2411 H 0.17348 0.78365 0.39297
 H2412 H 0.20524 0.82851 0.44769
 H2413 H 0.21483 0.79776 0.46778
 H2414 H 0.18034 0.75316 0.41453
 H2415 H 0.18962 0.84414 0.41677
 H2416 H 0.19612 0.73757 0.44565
 C2417 C 0.66748 0.69256 0.58072
 C2418 C 0.67955 0.68186 0.59554
 C2419 C 0.70106 0.68134 0.59291
 C2420 C 0.71042 0.69165 0.57611
 C2421 C 0.69823 0.70287 0.56168
 C2422 C 0.67673 0.70302 0.56400
 C2423 C 0.70778 0.71379 0.54527
 C2424 C 0.72933 0.71320 0.54296
 C2425 C 0.74119 0.70168 0.55724
 C2426 C 0.73186 0.69114 0.57373
 H2427 H 0.71065 0.67350 0.60433
 H2428 H 0.66708 0.71134 0.55300
 H2429 H 0.69851 0.72248 0.53422
 H2430 H 0.74143 0.68260 0.58463
 H2431 H 0.65085 0.69297 0.58215
 H2432 H 0.75783 0.70105 0.55583
 C2433 C 0.69185 0.21541 0.10804
 C2434 C 0.69192 0.19368 0.10861
 C2435 C 0.70196 0.18282 0.09235
 C2436 C 0.71197 0.19340 0.07609
 C2437 C 0.71141 0.21519 0.07558
 C2438 C 0.70131 0.22604 0.09160
 C2439 C 0.72102 0.22577 0.05908
 C2440 C 0.73165 0.21488 0.04334
 C2441 C 0.73257 0.19325 0.04425
 C2442 C 0.72262 0.18257 0.06038
 H2443 H 0.70190 0.16609 0.09217
 H2444 H 0.70092 0.24277 0.09154
 H2445 H 0.72042 0.24249 0.05861
 H2446 H 0.72329 0.16586 0.06059
 H2447 H 0.68474 0.22431 0.12048
 H2448 H 0.74063 0.18458 0.03223
 C2449 C 0.18990 0.72534 0.09964
 C2450 C 0.19132 0.70364 0.10003
 C2451 C 0.20325 0.69362 0.08458
 C2452 C 0.21325 0.70507 0.06886
 C2453 C 0.21092 0.72675 0.06831
 C2454 C 0.19938 0.73673 0.08383
 C2455 C 0.22013 0.73815 0.05222
 C2456 C 0.23212 0.72831 0.03686
 C2457 C 0.23503 0.70686 0.03785
 C2458 C 0.22546 0.69527 0.05361
 H2459 H 0.20449 0.67694 0.08450
 H2460 H 0.19774 0.75338 0.08380
 H2461 H 0.21810 0.75477 0.05171
 H2462 H 0.22756 0.67868 0.05385
 H2463 H 0.18152 0.73365 0.11166
 H2464 H 0.24425 0.69903 0.02612
 C2465 C 0.18924 0.22683 0.60046
 C2466 C 0.18965 0.20507 0.60065
 C2467 C 0.19921 0.19463 0.58388
 C2468 C 0.20828 0.20572 0.56733
 C2469 C 0.20744 0.22755 0.56725
 C2470 C 0.19784 0.23792 0.58387
 C2471 C 0.21656 0.23865 0.55078
 C2472 C 0.22708 0.22824 0.53467
 C2473 C 0.22791 0.20655 0.53493
 C2474 C 0.21841 0.19538 0.55098
 H2475 H 0.19955 0.17791 0.58360
 H2476 H 0.19726 0.25464 0.58422
 H2477 H 0.21606 0.25539 0.55084
 H2478 H 0.21926 0.17867 0.55077
 H2479 H 0.18252 0.23541 0.61335
 H2480 H 0.23592 0.19820 0.52265
   
