data_POSCAR
  _audit_creation_date              2014-09-24
  _audit_creation_method            'ToBaCCo'
  _symmetry_space_group_name_H-M    'P1'
  _symmetry_Int_Tables_number       1
  _symmetry_cell_setting            triclinic
  loop_
  _symmetry_equiv_pos_as_xyz
 x,y,z
_cell_length_a 67.7779
_cell_length_b 66.2859
_cell_length_c 67.3784
_cell_angle_alpha 90.582600
_cell_angle_beta 89.939900
_cell_angle_gamma 90.124500
loop_
  _atom_site_label
  _atom_site_type_symbol
  _atom_site_fract_x
  _atom_site_fract_y
  _atom_site_fract_z
C1 C 0.37700 0.31980 0.02250
 C2 C 0.38555 0.31434 0.00438
 C3 C 0.37881 0.32180 -0.01383
 C4 C 0.36305 0.33599 -0.01363
 C5 C 0.35391 0.34145 0.00468
 C6 C 0.36090 0.33329 0.02279
 C7 C 0.35204 0.33934 0.04073
 C8 C 0.33650 0.35298 0.04098
 C9 C 0.32957 0.36159 0.02336
 C10 C 0.33820 0.35571 0.00500
 C11 C 0.35731 0.34624 -0.03087
 C12 C 0.34183 0.35996 -0.03058
 C13 C 0.33147 0.36438 -0.01298
 C14 C 0.31573 0.37858 -0.01255
 C15 C 0.30781 0.38443 0.00589
 C16 C 0.31431 0.37606 0.02365
 H17 H 0.35716 0.33380 0.05485
 H18 H 0.33016 0.35689 0.05525
 H19 H 0.36516 0.34435 -0.04473
 H20 H 0.33859 0.36763 -0.04428
 H21 H 0.39721 0.30315 0.00457
 H22 H 0.29570 0.39511 0.00646
 C23 C 0.69709 0.64358 0.01635
 C24 C 0.70540 0.63869 -0.00207
 C25 C 0.70087 0.64947 -0.01915
 C26 C 0.68744 0.66572 -0.01800
 C27 C 0.67871 0.67088 0.00053
 C28 C 0.68362 0.65983 0.01780
 C29 C 0.67488 0.66527 0.03598
 C30 C 0.66230 0.68177 0.03741
 C31 C 0.65729 0.69298 0.02056
 C32 C 0.66529 0.68732 0.00185
 C33 C 0.68307 0.67736 -0.03469
 C34 C 0.66997 0.69345 -0.03340
 C35 C 0.66029 0.69833 -0.01546
 C36 C 0.64691 0.71484 -0.01399
 C37 C 0.64012 0.72072 0.00492
 C38 C 0.64488 0.71004 0.02201
 H39 H 0.67781 0.65696 0.04938
 H40 H 0.65663 0.68566 0.05196
 H41 H 0.69002 0.67434 -0.04888
 H42 H 0.66802 0.70239 -0.04657
 H43 H 0.71586 0.62635 -0.00310
 H44 H 0.62980 0.73314 0.00639
 C45 C 0.70823 0.34733 0.98316
 C46 C 0.71547 0.35325 1.00174
 C47 C 0.70849 0.34465 1.01924
 C48 C 0.69379 0.32951 1.01828
 C49 C 0.68606 0.32345 0.99958
 C50 C 0.69339 0.33233 0.98192
 C51 C 0.68626 0.32542 0.96351
 C52 C 0.67210 0.31024 0.96240
 C53 C 0.66443 0.30141 0.97966
 C54 C 0.67147 0.30801 0.99848
 C55 C 0.68733 0.31963 1.03542
 C56 C 0.67324 0.30438 1.03433
 C57 C 0.66448 0.29875 1.01613
 C58 C 0.65017 0.28300 1.01484
 C59 C 0.64389 0.27650 0.99595
 C60 C 0.65050 0.28557 0.97855
 H61 H 0.69183 0.33140 0.94971
 H62 H 0.66753 0.30523 0.94778
 H63 H 0.69351 0.32321 1.04984
 H64 H 0.66983 0.29666 1.04795
 H65 H 0.72680 0.36482 1.00259
 H66 H 0.63271 0.26481 0.99469
 C67 C 0.30588 0.62957 1.01132
 C68 C 0.29631 0.62627 0.99305
 C69 C 0.30147 0.63672 0.97592
 C70 C 0.31648 0.65149 0.97681
 C71 C 0.32693 0.65473 0.99481
 C72 C 0.32202 0.64342 1.01196
 C73 C 0.33444 0.64506 1.02862
 C74 C 0.34988 0.65892 1.02927
 C75 C 0.35367 0.67186 1.01329
 C76 C 0.34266 0.66900 0.99550
 C77 C 0.32120 0.66315 0.96017
 C78 C 0.33644 0.67718 0.96088
 C79 C 0.34759 0.68005 0.97824
 C80 C 0.36348 0.69380 0.97881
 C81 C 0.37393 0.69672 0.99643
 C82 C 0.36921 0.68638 1.01393
 H83 H 0.33284 0.63514 1.04116
 H84 H 0.35921 0.65887 1.04227
 H85 H 0.31309 0.66160 0.94641
 H86 H 0.33941 0.68576 0.94763
 H87 H 0.28404 0.61577 0.99209
 H88 H 0.38553 0.70803 0.99656
 C89 C 0.01494 0.31055 0.36610
 C90 C -0.00355 0.30174 0.36893
 C91 C -0.02095 0.31046 0.36171
 C92 C -0.01952 0.32836 0.35027
 C93 C -0.00063 0.33683 0.34624
 C94 C 0.01661 0.32808 0.35447
 C95 C 0.03499 0.33728 0.35116
 C96 C 0.03663 0.35410 0.33915
 C97 C 0.01994 0.36258 0.33021
 C98 C 0.00106 0.35413 0.33396
 C99 C -0.03623 0.33755 0.34200
 C100 C -0.03460 0.35489 0.33068
 C101 C -0.01608 0.36295 0.32552
 C102 C -0.01419 0.38017 0.31308
 C103 C 0.00474 0.38835 0.31005
 C104 C 0.02166 0.37959 0.31793
 H105 H 0.04836 0.33158 0.35778
 H106 H 0.05117 0.36056 0.33712
 H107 H -0.05087 0.33145 0.34401
 H108 H -0.04822 0.36191 0.32618
 H109 H -0.00445 0.28837 0.37805
 H110 H 0.00669 0.40089 0.30000
 C111 C 0.02018 0.61817 0.68132
 C112 C 0.00254 0.61126 0.68956
 C113 C -0.01571 0.62048 0.68586
 C114 C -0.01622 0.63726 0.67278
 C115 C 0.00161 0.64437 0.66406
 C116 C 0.01980 0.63466 0.66821
 C117 C 0.03705 0.64131 0.65871
 C118 C 0.03672 0.65775 0.64609
 C119 C 0.01911 0.66817 0.64238
 C120 C 0.00124 0.66107 0.65090
 C121 C -0.03405 0.64642 0.66723
 C122 C -0.03434 0.66315 0.65500
 C123 C -0.01698 0.67056 0.64624
 C124 C -0.01711 0.68771 0.63367
 C125 C 0.00092 0.69498 0.62638
 C126 C 0.01880 0.68525 0.63002
 H127 H 0.05100 0.63372 0.66077
 H128 H 0.05047 0.66211 0.63917
 H129 H -0.04817 0.64074 0.67207
 H130 H -0.04847 0.67023 0.65270
 H131 H 0.00334 0.59911 0.70020
 H132 H 0.00103 0.70790 0.61661
 C133 C 1.01724 0.64954 0.29332
 C134 C 1.00010 0.64201 0.28442
 C135 C 0.98133 0.64742 0.29122
 C136 C 0.97953 0.66154 0.30704
 C137 C 0.99683 0.66954 0.31613
 C138 C 1.01573 0.66317 0.30952
 C139 C 1.03256 0.67044 0.31938
 C140 C 1.03096 0.68366 0.33544
 C141 C 1.01255 0.69136 0.34154
 C142 C 0.99523 0.68366 0.33211
 C143 C 0.96099 0.66751 0.31433
 C144 C 0.95940 0.68159 0.32968
 C145 C 0.97628 0.68976 0.33881
 C146 C 0.97470 0.70384 0.35452
 C147 C 0.99170 0.71124 0.36368
 C148 C 1.01072 0.70544 0.35760
 H149 H 1.04721 0.66573 0.31501
 H150 H 1.04445 0.68740 0.34315
 H151 H 0.94746 0.66137 0.30832
 H152 H 0.94473 0.68586 0.33446
 H153 H 1.00143 0.63133 0.27218
 H154 H 0.98995 0.72243 0.37542
 C155 C 1.01538 0.29080 0.64544
 C156 C 0.99710 0.28575 0.63718
 C157 C 0.97973 0.29531 0.64328
 C158 C 0.98056 0.31073 0.65794
 C159 C 0.99894 0.31573 0.66685
 C160 C 1.01635 0.30554 0.66075
 C161 C 1.03410 0.30968 0.67071
 C162 C 1.03494 0.32404 0.68585
 C163 C 1.01820 0.33532 0.69140
 C164 C 0.99982 0.33060 0.68222
 C165 C 0.96349 0.32094 0.66423
 C166 C 0.96438 0.33569 0.67905
 C167 C 0.98227 0.34041 0.68858
 C168 C 0.98314 0.35473 0.70426
 C169 C 1.00127 0.35905 0.71325
 C170 C 1.01897 0.35009 0.70687
 H171 H 1.04746 0.30146 0.66725
 H172 H 1.04885 0.32572 0.69352
 H173 H 0.94923 0.31758 0.65780
 H174 H 0.95080 0.34324 0.68303
 H175 H 0.99637 0.27422 0.62566
 H176 H 1.00163 0.37042 0.72494
 C177 C 0.28714 -0.01582 0.34741
 C178 C 0.27895 0.00336 0.35079
 C179 C 0.28778 0.02094 0.34376
 C180 C 0.30499 0.01958 0.33200
 C181 C 0.31331 0.00037 0.32773
 C182 C 0.30441 -0.01739 0.33541
 C183 C 0.31241 -0.03620 0.32988
 C184 C 0.32940 -0.03757 0.31839
 C185 C 0.33853 -0.02026 0.31066
 C186 C 0.33048 -0.00106 0.31559
 C187 C 0.31377 0.03690 0.32398
 C188 C 0.33071 0.03552 0.31241
 C189 C 0.33945 0.01675 0.30826
 C190 C 0.35675 0.01531 0.29663
 C191 C 0.36500 -0.00359 0.29263
 C192 C 0.35595 -0.02151 0.29887
 H193 H 0.30554 -0.05022 0.33412
 H194 H 0.33530 -0.05249 0.31579
 H195 H 0.30752 0.05172 0.32641
 H196 H 0.33684 0.04938 0.30668
 H197 H 0.26619 0.00491 0.36042
 H198 H 0.37805 -0.00432 0.28330
 C199 C 0.62857 -0.01104 0.68715
 C200 C 0.62040 0.00817 0.69046
 C201 C 0.62906 0.02575 0.68322
 C202 C 0.64650 0.02444 0.67184
 C203 C 0.65481 0.00523 0.66758
 C204 C 0.64581 -0.01259 0.67508
 C205 C 0.65360 -0.03140 0.66917
 C206 C 0.67060 -0.03273 0.65767
 C207 C 0.68002 -0.01533 0.65062
 C208 C 0.67196 0.00384 0.65543
 C209 C 0.65560 0.04180 0.66425
 C210 C 0.67268 0.04045 0.65291
 C211 C 0.68096 0.02163 0.64803
 C212 C 0.69811 0.02012 0.63609
 C213 C 0.70613 0.00112 0.63198
 C214 C 0.69729 -0.01656 0.63883
 H215 H 0.64645 -0.04541 0.67298
 H216 H 0.67616 -0.04764 0.65424
 H217 H 0.64958 0.05668 0.66694
 H218 H 0.67929 0.05439 0.64797
 H219 H 0.60760 0.00981 0.70002
 H220 H 0.71918 0.00003 0.62269
 C221 C 0.30743 0.97905 0.63526
 C222 C 0.30216 0.99605 0.62451
 C223 C 0.30856 1.01555 0.62990
 C224 C 0.32159 1.01772 0.64642
 C225 C 0.32729 1.00035 0.65729
 C226 C 0.32009 0.98101 0.65171
 C227 C 0.32561 0.96409 0.66278
 C228 C 0.33828 0.96602 0.67889
 C229 C 0.34600 0.98492 0.68450
 C230 C 0.34026 1.00230 0.67378
 C231 C 0.33003 1.03644 0.65174
 C232 C 0.34214 1.03845 0.66831
 C233 C 0.34739 1.02160 0.67959
 C234 C 0.35953 1.02350 0.69658
 C235 C 0.36516 1.00622 0.70686
 C236 C 0.35900 0.98698 0.70082
 H237 H 0.32017 0.94916 0.65905
 H238 H 0.34177 0.95252 0.68705
 H239 H 0.32765 1.04981 0.64303
 H240 H 0.34755 1.05338 0.67201
 H241 H 0.29176 0.99403 0.61241
 H242 H 0.37490 1.00778 0.71956
 C243 C 0.62117 0.97463 0.32308
 C244 C 0.61379 0.99212 0.31447
 C245 C 0.62301 1.01101 0.31677
 C246 C 0.64029 1.01234 0.32880
 C247 C 0.64784 0.99467 0.33793
 C248 C 0.63814 0.97582 0.33516
 C249 C 0.64528 0.95877 0.34502
 C250 C 0.66209 0.95990 0.35675
 C251 C 0.67246 0.97813 0.35911
 C252 C 0.66498 0.99585 0.35013
 C253 C 0.64961 1.03089 0.33296
 C254 C 0.66672 1.03193 0.34427
 C255 C 0.67450 1.01475 0.35346
 C256 C 0.69197 1.01568 0.36518
 C257 C 0.69954 0.99771 0.37293
 C258 C 0.68985 0.97923 0.37061
 H259 H 0.63778 0.94437 0.34396
 H260 H 0.66677 0.94627 0.36405
 H261 H 0.64376 1.04500 0.32774
 H262 H 0.67378 1.04651 0.34554
 H263 H 0.60120 0.99063 0.30463
 H264 H 0.71266 0.99822 0.38215
 O265 O 0.84228 0.81600 0.48511
 O266 O 0.81709 0.84053 0.52710
 O267 O 0.84427 0.81340 0.52359
 O268 O 0.81523 0.84355 0.48909
 O269 O 0.79262 0.81959 0.48738
 O270 O 0.82140 0.78967 0.52332
 O271 O 0.79370 0.81733 0.52588
 O272 O 0.81990 0.79178 0.48473
 Cu273 Cu 0.83206 0.83066 0.50626
 Cu274 Cu 0.80462 0.80215 0.50526
 C275 C 0.83555 0.79963 0.47782
 C276 C 0.80088 0.83340 0.53342
 C277 C 0.83786 0.79649 0.52951
 C278 C 0.79890 0.83694 0.48248
 O279 O 0.17809 0.14648 0.51289
 O280 O 0.14680 0.17760 0.48113
 O281 O 0.17427 0.15101 0.47494
 O282 O 0.15025 0.17297 0.51896
 O283 O 0.17175 0.19800 0.51908
 O284 O 0.19755 0.17429 0.47655
 O285 O 0.16975 0.20127 0.48067
 O286 O 0.19991 0.17116 0.51504
 Cu287 Cu 0.16015 0.15957 0.49693
 Cu288 Cu 0.18702 0.18861 0.49796
 C289 C 0.19431 0.15345 0.51944
 C290 C 0.15291 0.19470 0.47539
 C291 C 0.19015 0.15865 0.46836
 C292 C 0.15652 0.18952 0.52624
 O293 O 0.17610 0.85230 0.48322
 O294 O 0.14991 0.82150 0.51966
 O295 O 0.17820 0.84808 0.52162
 O296 O 0.14795 0.82577 0.48202
 O297 O 0.16983 0.80149 0.47778
 O298 O 0.20056 0.82427 0.51740
 O299 O 0.17204 0.79735 0.51612
 O300 O 0.19823 0.82827 0.47902
 Cu301 Cu 0.16096 0.83942 0.50209
 Cu302 Cu 0.18744 0.81044 0.49721
 C303 C 0.19153 0.84558 0.47475
 C304 C 0.15617 0.80401 0.52381
 C305 C 0.19457 0.84014 0.52625
 C306 C 0.15346 0.80964 0.47336
 O307 O 0.84380 0.18485 0.51282
 O308 O 0.81628 0.15799 0.47387
 O309 O 0.84321 0.18583 0.47426
 O310 O 0.81693 0.15709 0.51232
 O311 O 0.79370 0.18035 0.51354
 O312 O 0.82029 0.20941 0.47531
 O313 O 0.79297 0.18117 0.47498
 O314 O 0.82099 0.20854 0.51396
 Cu315 Cu 0.83237 0.16915 0.49318
 Cu316 Cu 0.80467 0.19725 0.49455
 C317 C 0.83720 0.20126 0.52006
 C318 C 0.79985 0.16478 0.46788
 C319 C 0.83638 0.20254 0.46831
 C320 C 0.80078 0.16368 0.51938
 O321 O 0.47962 0.85585 0.82623
 O322 O 0.52009 0.83188 0.85318
 O323 O 0.51755 0.85888 0.82534
 O324 O 0.48178 0.82851 0.85321
 O325 O 0.48304 0.80482 0.83003
 O326 O 0.52006 0.83464 0.80279
 O327 O 0.52142 0.80749 0.83071
 O328 O 0.48170 0.83260 0.80266
 Cu329 Cu 0.49968 0.84611 0.84184
 Cu330 Cu 0.50174 0.81745 0.81425
 C331 C 0.47389 0.84857 0.80972
 C332 C 0.52755 0.81551 0.84678
 C333 C 0.52476 0.85209 0.80920
 C334 C 0.47612 0.81156 0.84632
 O335 O 0.52187 0.17191 0.15110
 O336 O 0.47921 0.14989 0.17642
 O337 O 0.48424 0.17753 0.14956
 O338 O 0.51694 0.14480 0.17830
 O339 O 0.52047 0.16885 0.20092
 O340 O 0.48489 0.20030 0.17369
 O341 O 0.48223 0.17220 0.20076
 O342 O 0.52317 0.19642 0.17346
 Cu343 Cu 0.50032 0.15870 0.16151
 Cu344 Cu 0.50288 0.18683 0.18956
 C345 C 0.52957 0.18815 0.15761
 C346 C 0.47374 0.15684 0.19316
 C347 C 0.47897 0.19450 0.15668
 C348 C 0.52436 0.15122 0.19448
 O349 O 0.51197 0.16081 0.80734
 O350 O 0.48089 0.19081 0.84098
 O351 O 0.47447 0.16527 0.81210
 O352 O 0.51849 0.18575 0.83670
 O353 O 0.51822 0.21194 0.81675
 O354 O 0.47611 0.18924 0.78966
 O355 O 0.47997 0.21536 0.81913
 O356 O 0.51430 0.18663 0.78701
 Cu357 Cu 0.49638 0.17317 0.82641
 Cu358 Cu 0.49716 0.20337 0.80101
 C359 C 0.51852 0.16858 0.79149
 C360 C 0.47507 0.20818 0.83585
 C361 C 0.46814 0.17329 0.79633
 C362 C 0.52565 0.20253 0.83129
 O363 O 0.47830 0.80895 0.15987
 O364 O 0.50942 0.83897 0.19353
 O365 O 0.51593 0.81368 0.16429
 O366 O 0.47190 0.83480 0.18845
 O367 O 0.47315 0.81099 0.21109
 O368 O 0.51511 0.78767 0.18444
 O369 O 0.51125 0.81332 0.21409
 O370 O 0.47689 0.78457 0.18189
 Cu371 Cu 0.49390 0.82658 0.17439
 Cu372 Cu 0.49409 0.79658 0.20002
 C373 C 0.47222 0.79166 0.16508
 C374 C 0.51564 0.83135 0.20956
 C375 C 0.52273 0.79681 0.16980
 C376 C 0.46541 0.82694 0.20428
 O377 O 0.82342 0.48185 0.85432
 O378 O 0.85078 0.52017 0.82674
 O379 O 0.82305 0.52128 0.85338
 O380 O 0.85101 0.48167 0.82744
 O381 O 0.82830 0.48019 0.80401
 O382 O 0.80030 0.52037 0.83000
 O383 O 0.82829 0.51939 0.80308
 O384 O 0.80049 0.48096 0.83113
 Cu385 Cu 0.83918 0.50134 0.84296
 Cu386 Cu 0.81199 0.50013 0.81475
 C387 C 0.80735 0.47477 0.84752
 C388 C 0.84458 0.52595 0.80998
 C389 C 0.80699 0.52773 0.84614
 C390 C 0.84473 0.47447 0.81108
 O391 O 0.18665 0.48129 0.16393
 O392 O 0.15868 0.52325 0.18595
 O393 O 0.18524 0.51959 0.15818
 O394 O 0.16028 0.48447 0.19164
 O395 O 0.18361 0.48916 0.21406
 O396 O 0.20858 0.52487 0.18045
 O397 O 0.18189 0.52780 0.20851
 O398 O 0.21047 0.48621 0.18577
 Cu399 Cu 0.17031 0.50172 0.17277
 Cu400 Cu 0.19849 0.50745 0.19948
 C401 C 0.20353 0.47685 0.17076
 C402 C 0.16534 0.53258 0.20109
 C403 C 0.20132 0.52799 0.16336
 C404 C 0.16757 0.48085 0.20857
 O405 O 0.85161 0.48190 0.17256
 O406 O 0.82010 0.51459 0.14253
 O407 O 0.84895 0.52007 0.16783
 O408 O 0.82330 0.47590 0.14726
 O409 O 0.80073 0.47813 0.17079
 O410 O 0.82783 0.52140 0.19275
 O411 O 0.79895 0.51732 0.16734
 O412 O 0.82944 0.48243 0.19659
 Cu413 Cu 0.83806 0.49799 0.15502
 Cu414 Cu 0.81199 0.49997 0.18429
 C415 C 0.84602 0.47670 0.18976
 C416 C 0.80421 0.52163 0.14979
 C417 C 0.84325 0.52788 0.18412
 C418 C 0.80757 0.46953 0.15530
 O419 O 0.18274 0.51531 0.84032
 O420 O 0.16016 0.47071 0.81712
 O421 O 0.18731 0.47647 0.84350
 O422 O 0.15588 0.50908 0.81302
 O423 O 0.17910 0.51035 0.79007
 O424 O 0.21015 0.47680 0.82011
 O425 O 0.18236 0.47135 0.79315
 O426 O 0.20604 0.51549 0.81743
 Cu427 Cu 0.16928 0.49294 0.83085
 Cu428 Cu 0.19671 0.49349 0.80282
 C429 C 0.19841 0.52284 0.83316
 C430 C 0.16710 0.46358 0.80104
 C431 C 0.20414 0.47115 0.83704
 C432 C 0.16202 0.51512 0.79627
 C433 C 0.28357 0.39688 0.07577
 C434 C 0.30364 0.40164 0.07303
 C435 C 0.31382 0.39453 0.05629
 C436 C 0.30415 0.38245 0.04212
 C437 C 0.28429 0.37736 0.04497
 C438 C 0.27410 0.38444 0.06164
 C439 C 0.27223 0.40568 0.09257
 N440 N 0.25248 0.40252 0.09401
 N441 N 0.24193 0.41154 0.10819
 C442 C 0.25067 0.42408 0.12162
 N443 N 0.27048 0.42698 0.12042
 N444 N 0.28104 0.41797 0.10619
 C445 C 0.23856 0.43561 0.13613
 C446 C 0.24746 0.44789 0.15075
 C447 C 0.23598 0.46055 0.16283
 C448 C 0.21541 0.46131 0.16038
 C449 C 0.20646 0.44834 0.14644
 C450 C 0.21788 0.43556 0.13454
 H451 H 0.31138 0.41121 0.08357
 H452 H 0.32913 0.39873 0.05419
 H453 H 0.27660 0.36812 0.03409
 H454 H 0.25869 0.38046 0.06324
 H455 H 0.26334 0.44819 0.15246
 H456 H 0.24329 0.47041 0.17343
 H457 H 0.19062 0.44849 0.14430
 H458 H 0.21049 0.42624 0.12353
 C459 C 0.72093 0.60721 0.06284
 C460 C 0.71012 0.59836 0.04723
 C461 C 0.70142 0.61035 0.03279
 C462 C 0.70346 0.63141 0.03355
 C463 C 0.71379 0.64035 0.04943
 C464 C 0.72224 0.62835 0.06411
 C465 C 0.73202 0.59432 0.07668
 N466 N 0.73752 0.60123 0.09492
 N467 N 0.74838 0.58980 0.10686
 C468 C 0.75434 0.57113 0.10092
 N469 N 0.74878 0.56424 0.08273
 N470 N 0.73779 0.57557 0.07089
 C471 C 0.76714 0.55871 0.11362
 C472 C 0.78008 0.54466 0.10491
 C473 C 0.79234 0.53290 0.11671
 C474 C 0.79161 0.53462 0.13748
 C475 C 0.77857 0.54856 0.14624
 C476 C 0.76660 0.56070 0.13439
 H477 H 0.70878 0.58212 0.04593
 H478 H 0.69364 0.60316 0.02058
 H479 H 0.71591 0.65655 0.05004
 H480 H 0.73063 0.63556 0.07589
 H481 H 0.78089 0.54290 0.08894
 H482 H 0.80218 0.52220 0.10958
 H483 H 0.77776 0.55019 0.16223
 H484 H 0.75671 0.57139 0.14146
 C485 C 0.73586 0.37857 0.93496
 C486 C 0.74667 0.36518 0.94679
 C487 C 0.73744 0.35449 0.96193
 C488 C 0.71721 0.35687 0.96553
 C489 C 0.70620 0.36977 0.95346
 C490 C 0.71542 0.38046 0.93820
 C491 C 0.74619 0.39128 0.92022
 N492 N 0.73601 0.40326 0.90759
 N493 N 0.74549 0.41548 0.89518
 C494 C 0.76553 0.41629 0.89496
 N495 N 0.77566 0.40417 0.90746
 N496 N 0.76620 0.39193 0.91979
 C497 C 0.77623 0.43067 0.88212
 C498 C 0.79626 0.43486 0.88565
 C499 C 0.80630 0.44906 0.87430
 C500 C 0.79665 0.45928 0.85897
 C501 C 0.77673 0.45483 0.85509
 C502 C 0.76656 0.44076 0.86666
 H503 H 0.76240 0.36326 0.94468
 H504 H 0.74618 0.34469 0.97120
 H505 H 0.69060 0.37196 0.95621
 H506 H 0.70668 0.39068 0.92941
 H507 H 0.80416 0.42742 0.89745
 H508 H 0.82168 0.45207 0.87759
 H509 H 0.76890 0.46250 0.84338
 H510 H 0.75115 0.43783 0.86353
 C511 C 0.27030 0.61538 0.92432
 C512 C 0.29102 0.61438 0.92511
 C513 C 0.30126 0.62214 0.94151
 C514 C 0.29099 0.63120 0.95733
 C515 C 0.27041 0.63294 0.95625
 C516 C 0.26016 0.62517 0.93989
 C517 C 0.25922 0.60495 0.90823
 N518 N 0.23923 0.60364 0.90899
 N519 N 0.22931 0.59278 0.89558
 C520 C 0.23893 0.58276 0.88080
 N521 N 0.25889 0.58436 0.87982
 N522 N 0.26883 0.59520 0.89326
 C523 C 0.22801 0.56912 0.86709
 C524 C 0.23765 0.55952 0.85110
 C525 C 0.22779 0.54507 0.83949
 C526 C 0.20815 0.53981 0.84373
 C527 C 0.19829 0.54998 0.85920
 C528 C 0.20807 0.56453 0.87068
 H529 H 0.29931 0.60694 0.91341
 H530 H 0.31713 0.62043 0.94222
 H531 H 0.26223 0.63979 0.96838
 H532 H 0.24422 0.62629 0.93977
 H533 H 0.25297 0.56278 0.84786
 H534 H 0.23578 0.53749 0.82766
 H535 H 0.18311 0.54637 0.86276
 H536 H 0.20014 0.57165 0.88281
 C537 C 0.06117 0.28049 0.39769
 C538 C 0.06233 0.28225 0.37694
 C539 C 0.04758 0.29245 0.36652
 C540 C 0.03178 0.30143 0.37678
 C541 C 0.03102 0.30021 0.39753
 C542 C 0.04549 0.28977 0.40787
 C543 C 0.07546 0.26813 0.40876
 N544 N 0.06999 0.25945 0.42607
 N545 N 0.08247 0.24786 0.43600
 C546 C 0.10102 0.24460 0.42913
 N547 N 0.10662 0.25339 0.41187
 N548 N 0.09402 0.26485 0.40180
 C549 C 0.11460 0.23151 0.44026
 C550 C 0.13513 0.23439 0.43943
 C551 C 0.14771 0.22245 0.45085
 C552 C 0.13996 0.20715 0.46289
 C553 C 0.11947 0.20401 0.46331
 C554 C 0.10693 0.21619 0.45228
 H555 H 0.07419 0.27510 0.36873
 H556 H 0.04823 0.29295 0.35047
 H557 H 0.01889 0.30696 0.40569
 H558 H 0.04428 0.28877 0.42386
 H559 H 0.14140 0.24615 0.43032
 H560 H 0.16346 0.22513 0.45024
 H561 H 0.11308 0.19239 0.47251
 H562 H 0.09117 0.21356 0.45311
 C563 C 0.06698 0.71344 0.59950
 C564 C 0.05137 0.70445 0.58894
 C565 C 0.03635 0.69436 0.59892
 C566 C 0.03649 0.69319 0.61969
 C567 C 0.05238 0.70160 0.63030
 C568 C 0.06767 0.71146 0.62024
 C569 C 0.08134 0.72622 0.58889
 N570 N 0.09998 0.72915 0.59579
 N571 N 0.11248 0.74129 0.58628
 C572 C 0.10667 0.75115 0.56969
 N573 N 0.08806 0.74818 0.56285
 N574 N 0.07569 0.73591 0.57220
 C575 C 0.11993 0.76522 0.55930
 C576 C 0.11189 0.78201 0.54974
 C577 C 0.12390 0.79493 0.53888
 C578 C 0.14419 0.79113 0.53695
 C579 C 0.15237 0.77448 0.54672
 C580 C 0.14034 0.76175 0.55806
 H581 H 0.05053 0.70563 0.57294
 H582 H 0.02419 0.68803 0.59047
 H583 H 0.05259 0.70113 0.64636
 H584 H 0.07947 0.71840 0.62874
 H585 H 0.09622 0.78510 0.55058
 H586 H 0.11714 0.80756 0.53144
 H587 H 0.16797 0.77123 0.54547
 H588 H 0.14685 0.74885 0.56527
 C589 C 0.92287 0.72991 0.38053
 C590 C 0.93499 0.74123 0.36784
 C591 C 0.95125 0.73236 0.35855
 C592 C 0.95565 0.71200 0.36165
 C593 C 0.94315 0.70035 0.37354
 C594 C 0.92680 0.70921 0.38285
 C595 C 0.90738 0.74009 0.39250
 N596 N 0.89503 0.72939 0.40433
 N597 N 0.88230 0.73879 0.41634
 C598 C 0.88149 0.75927 0.41709
 N599 N 0.89363 0.76992 0.40505
 N600 N 0.90628 0.76054 0.39301
 C601 C 0.86864 0.76983 0.43162
 C602 C 0.87175 0.79037 0.43599
 C603 C 0.86079 0.80008 0.45078
 C604 C 0.84628 0.78955 0.46140
 C605 C 0.84268 0.76919 0.45663
 C606 C 0.85384 0.75938 0.44197
 H607 H 0.93236 0.75715 0.36562
 H608 H 0.96087 0.74157 0.34951
 H609 H 0.94651 0.68465 0.37624
 H610 H 0.91778 0.70006 0.39252
 H611 H 0.88305 0.79888 0.42834
 H612 H 0.86382 0.81582 0.45404
 H613 H 0.83159 0.76069 0.46458
 H614 H 0.85104 0.74356 0.43891
 C615 C 0.92852 0.27107 0.61406
 C616 C 0.93426 0.29119 0.61079
 C617 C 0.95048 0.29949 0.62086
 C618 C 0.96105 0.28786 0.63448
 C619 C 0.95494 0.26807 0.63827
 C620 C 0.93883 0.25976 0.62823
 C621 C 0.91285 0.26133 0.60193
 N622 N 0.91022 0.24103 0.60254
 N623 N 0.89719 0.23189 0.59074
 C624 C 0.88612 0.24263 0.57783
 N625 N 0.88849 0.26299 0.57740
 N626 N 0.90163 0.27215 0.58917
 C627 C 0.87266 0.23210 0.56382
 C628 C 0.85819 0.24267 0.55321
 C629 C 0.84622 0.23260 0.53933
 C630 C 0.84875 0.21187 0.53559
 C631 C 0.86303 0.20131 0.54639
 C632 C 0.87473 0.21125 0.56043
 H633 H 0.92668 0.30029 0.59995
 H634 H 0.95518 0.31473 0.61759
 H635 H 0.96303 0.25885 0.64866
 H636 H 0.93480 0.24427 0.63121
 H637 H 0.85620 0.25872 0.55554
 H638 H 0.83535 0.24112 0.53117
 H639 H 0.86524 0.18530 0.54391
 H640 H 0.88574 0.20264 0.56828
 C641 C 0.38483 0.06497 0.26726
 C642 C 0.37343 0.05082 0.25657
 C643 C 0.36408 0.03495 0.26629
 C644 C 0.36580 0.03296 0.28688
 C645 C 0.37684 0.04716 0.29774
 C646 C 0.38626 0.06309 0.28801
 C647 C 0.39578 0.08095 0.25657
 N648 N 0.40728 0.09452 0.26647
 N649 N 0.41794 0.10809 0.25662
 C650 C 0.41754 0.10863 0.23646
 N651 N 0.40585 0.09522 0.22662
 N652 N 0.39520 0.08171 0.23645
 C653 C 0.43049 0.12257 0.22528
 C654 C 0.43240 0.12042 0.20458
 C655 C 0.44597 0.13207 0.19412
 C656 C 0.45785 0.14632 0.20404
 C657 C 0.45535 0.14919 0.22458
 C658 C 0.44187 0.13735 0.23512
 H659 H 0.37196 0.05176 0.24061
 H660 H 0.35564 0.02405 0.25771
 H661 H 0.37837 0.04572 0.31366
 H662 H 0.39494 0.07369 0.29669
 H663 H 0.42385 0.10926 0.19647
 H664 H 0.44746 0.12959 0.17828
 H665 H 0.46435 0.16004 0.23262
 H666 H 0.44069 0.13947 0.25104
 C667 C 0.59827 0.07794 0.70478
 C668 C 0.58900 0.06420 0.69179
 C669 C 0.59947 0.04798 0.68374
 C670 C 0.61937 0.04508 0.68863
 C671 C 0.62891 0.05924 0.70096
 C672 C 0.61849 0.07571 0.70879
 C673 C 0.58635 0.09307 0.71565
 N674 N 0.59469 0.10997 0.72361
 N675 N 0.58402 0.12269 0.73468
 C676 C 0.56468 0.11882 0.73842
 N677 N 0.55635 0.10202 0.73035
 N678 N 0.56694 0.08946 0.71914
 C679 C 0.55310 0.13186 0.75191
 C680 C 0.53842 0.12326 0.76387
 C681 C 0.52749 0.13524 0.77695
 C682 C 0.53066 0.15615 0.77798
 C683 C 0.54518 0.16486 0.76586
 C684 C 0.55655 0.15274 0.75312
 H685 H 0.57346 0.06561 0.68836
 H686 H 0.59183 0.03712 0.67438
 H687 H 0.64416 0.05704 0.70522
 H688 H 0.62595 0.08598 0.71889
 H689 H 0.53557 0.10718 0.76333
 H690 H 0.51629 0.12818 0.78605
 H691 H 0.54788 0.18097 0.76643
 H692 H 0.56777 0.15969 0.74399
 C693 C 0.38547 0.93815 0.73279
 C694 C 0.38788 0.93961 0.71211
 C695 C 0.37887 0.95519 0.70165
 C696 C 0.36709 0.96945 0.71161
 C697 C 0.36435 0.96783 0.73216
 C698 C 0.37340 0.95231 0.74265
 C699 C 0.39630 0.92267 0.74417
 N700 N 0.39601 0.92296 0.76432
 N701 N 0.40669 0.90991 0.77464
 C702 C 0.41811 0.89594 0.76527
 N703 N 0.41821 0.89544 0.74510
 N704 N 0.40754 0.90854 0.73478
 C705 C 0.43111 0.88247 0.77684
 C706 C 0.44186 0.86691 0.76748
 C707 C 0.45528 0.85534 0.77828
 C708 C 0.45835 0.85924 0.79857
 C709 C 0.44717 0.87436 0.80802
 C710 C 0.43365 0.88577 0.79731
 H711 H 0.39713 0.92905 0.70405
 H712 H 0.38141 0.95640 0.68583
 H713 H 0.35543 0.97878 0.74011
 H714 H 0.37121 0.95164 0.75855
 H715 H 0.44018 0.86391 0.75175
 H716 H 0.46371 0.84379 0.77060
 H717 H 0.44910 0.87765 0.82368
 H718 H 0.42562 0.89757 0.80503
 C719 C 0.59041 0.92264 0.30059
 C720 C 0.61107 0.92374 0.29909
 C721 C 0.62133 0.94010 0.30742
 C722 C 0.61115 0.95536 0.31777
 C723 C 0.59067 0.95356 0.32033
 C724 C 0.58039 0.93742 0.31177
 C725 C 0.57912 0.90756 0.28890
 N726 N 0.56041 0.91175 0.28312
 N727 N 0.55060 0.89917 0.27117
 C728 C 0.55904 0.88180 0.26460
 N729 N 0.57765 0.87737 0.27064
 N730 N 0.58755 0.89009 0.28245
 C731 C 0.54839 0.86861 0.25041
 C732 C 0.55138 0.84764 0.25001
 C733 C 0.54074 0.83536 0.23675
 C734 C 0.52741 0.84397 0.22332
 C735 C 0.52479 0.86497 0.22349
 C736 C 0.53499 0.87713 0.23704
 H737 H 0.61917 0.91264 0.29045
 H738 H 0.63707 0.94138 0.30493
 H739 H 0.58251 0.96522 0.32816
 H740 H 0.56449 0.93689 0.31330
 H741 H 0.56163 0.84073 0.26021
 H742 H 0.54300 0.81920 0.23690
 H743 H 0.51449 0.87199 0.21341
 H744 H 0.53252 0.89326 0.23692
 C745 C 0.40607 0.29401 0.93616
 C746 C 0.38569 0.29777 0.93602
 C747 C 0.37664 0.30755 0.95216
 C748 C 0.38788 0.31417 0.96863
 C749 C 0.40845 0.31101 0.96815
 C750 C 0.41736 0.30106 0.95222
 C751 C 0.41555 0.28162 0.92050
 N752 N 0.43207 0.27099 0.92475
 N753 N 0.44054 0.25929 0.91107
 C754 C 0.43294 0.25781 0.89250
 N755 N 0.41647 0.26855 0.88812
 N756 N 0.40785 0.28014 0.90191
 C757 C 0.44255 0.24459 0.87760
 C758 C 0.44159 0.24882 0.85723
 C759 C 0.45199 0.23690 0.84349
 C760 C 0.46311 0.22031 0.84989
 C761 C 0.46348 0.21577 0.87019
 C762 C 0.45347 0.22787 0.88390
 H763 H 0.37660 0.29226 0.92391
 H764 H 0.36072 0.30881 0.95223
 H765 H 0.41775 0.31620 0.98024
 H766 H 0.43315 0.29863 0.95262
 H767 H 0.43330 0.26167 0.85201
 H768 H 0.45143 0.24070 0.82791
 H769 H 0.47198 0.20314 0.87560
 H770 H 0.45436 0.22417 0.89949
 C771 C 0.61977 0.74562 0.93823
 C772 C 0.62237 0.72460 0.93732
 C773 C 0.63191 0.71447 0.95270
 C774 C 0.63924 0.72513 0.96935
 C775 C 0.63688 0.74624 0.96996
 C776 C 0.62744 0.75633 0.95460
 C777 C 0.60821 0.75629 0.92289
 N778 N 0.60481 0.77641 0.92466
 N779 N 0.59345 0.78591 0.91167
 C780 C 0.58497 0.77572 0.89629
 N781 N 0.58857 0.75564 0.89434
 N782 N 0.59994 0.74612 0.90738
 C783 C 0.57131 0.78619 0.88266
 C784 C 0.56303 0.77611 0.86618
 C785 C 0.54917 0.78576 0.85416
 C786 C 0.54323 0.80563 0.85847
 C787 C 0.55185 0.81584 0.87465
 C788 C 0.56576 0.80627 0.88655
 H789 H 0.61649 0.71585 0.92501
 H790 H 0.63258 0.69816 0.95200
 H791 H 0.64248 0.75507 0.98236
 H792 H 0.62582 0.77254 0.95580
 H793 H 0.56702 0.76066 0.86272
 H794 H 0.54278 0.77751 0.84179
 H795 H 0.54768 0.83120 0.87831
 H796 H 0.57183 0.81454 0.89907
 C797 C 0.40033 0.70875 0.06417
 C798 C 0.41029 0.70399 0.04648
 C799 C 0.40019 0.69565 0.03037
 C800 C 0.37976 0.69177 0.03139
 C801 C 0.36996 0.69576 0.04950
 C802 C 0.38018 0.70402 0.06575
 C803 C 0.41077 0.72005 0.08006
 N804 N 0.40387 0.72065 0.09901
 N805 N 0.41307 0.73165 0.11290
 C806 C 0.42936 0.74265 0.10829
 N807 N 0.43622 0.74198 0.08938
 N808 N 0.42716 0.73088 0.07559
 C809 C 0.43939 0.75552 0.12324
 C810 C 0.45037 0.77229 0.11702
 C811 C 0.46052 0.78425 0.13074
 C812 C 0.46023 0.77955 0.15101
 C813 C 0.44911 0.76287 0.15734
 C814 C 0.43858 0.75107 0.14358
 H815 H 0.42589 0.70716 0.04488
 H816 H 0.40844 0.69239 0.01694
 H817 H 0.35414 0.69380 0.05076
 H818 H 0.37208 0.70770 0.07916
 H819 H 0.45114 0.77620 0.10147
 H820 H 0.46901 0.79695 0.12538
 H821 H 0.44861 0.75893 0.17289
 H822 H 0.43024 0.73820 0.14875
 C823 C 0.62137 0.25487 0.06338
 C824 C 0.62910 0.24336 0.04758
 C825 C 0.63883 0.25264 0.03187
 C826 C 0.64148 0.27372 0.03159
 C827 C 0.63382 0.28524 0.04752
 C828 C 0.62396 0.27592 0.06324
 C829 C 0.60994 0.24489 0.07932
 N830 N 0.60129 0.25578 0.09415
 N831 N 0.59017 0.24674 0.10779
 C832 C 0.58726 0.22644 0.10716
 N833 N 0.59611 0.21559 0.09248
 N834 N 0.60720 0.22460 0.07888
 C835 C 0.57381 0.21638 0.12137
 C836 C 0.56893 0.19592 0.11866
 C837 C 0.55500 0.18668 0.13083
 C838 C 0.54568 0.19761 0.14614
 C839 C 0.55108 0.21785 0.14942
 C840 C 0.56496 0.22718 0.13709
 H841 H 0.62740 0.22712 0.04714
 H842 H 0.64457 0.24320 0.01998
 H843 H 0.63471 0.30155 0.04744
 H844 H 0.61799 0.28527 0.07506
 H845 H 0.57547 0.18708 0.10677
 H846 H 0.55126 0.17103 0.12799
 H847 H 0.54413 0.22666 0.16109
 H848 H 0.56844 0.24295 0.13964
 C849 C 0.28053 0.06183 0.59725
 C850 C 0.28880 0.04505 0.58756
 C851 C 0.29876 0.03036 0.59826
 C852 C 0.30075 0.03194 0.61905
 C853 C 0.29273 0.04906 0.62868
 C854 C 0.28295 0.06395 0.61787
 C855 C 0.26838 0.07620 0.58593
 N856 N 0.26506 0.09528 0.59271
 N857 N 0.25360 0.10785 0.58256
 C858 C 0.24485 0.10172 0.56538
 N859 N 0.24819 0.08267 0.55866
 N860 N 0.25976 0.07021 0.56868
 C861 C 0.23166 0.11524 0.55424
 C862 C 0.21702 0.10697 0.54184
 C863 C 0.20468 0.11947 0.53092
 C864 C 0.20692 0.14052 0.53185
 C865 C 0.22153 0.14886 0.54426
 C866 C 0.23366 0.13631 0.55555
 H867 H 0.28735 0.04309 0.57165
 H868 H 0.30489 0.01761 0.59018
 H869 H 0.29296 0.05043 0.64471
 H870 H 0.27646 0.07660 0.62577
 H871 H 0.21504 0.09079 0.54063
 H872 H 0.19361 0.11261 0.52142
 H873 H 0.22354 0.16505 0.54527
 H874 H 0.24487 0.14307 0.56496
 C875 C 0.72274 0.06785 0.38531
 C876 C 0.70202 0.06716 0.38614
 C877 C 0.69171 0.05034 0.37879
 C878 C 0.70188 0.03384 0.37031
 C879 C 0.72261 0.03483 0.36922
 C880 C 0.73285 0.05163 0.37641
 C881 C 0.73397 0.08460 0.39479
 N882 N 0.75400 0.08455 0.39447
 N883 N 0.76428 0.09860 0.40422
 C884 C 0.75501 0.11337 0.41472
 N885 N 0.73496 0.11367 0.41480
 N886 N 0.72465 0.09957 0.40504
 C887 C 0.76663 0.12789 0.42691
 C888 C 0.75745 0.14397 0.43709
 C889 C 0.76835 0.15650 0.44989
 C890 C 0.78858 0.15306 0.45289
 C891 C 0.79783 0.13741 0.44223
 C892 C 0.78703 0.12506 0.42934
 H893 H 0.69377 0.07931 0.39306
 H894 H 0.67585 0.04979 0.38076
 H895 H 0.73097 0.02248 0.36277
 H896 H 0.74880 0.05161 0.37546
 H897 H 0.74178 0.14662 0.43549
 H898 H 0.76081 0.16844 0.45792
 H899 H 0.81343 0.13446 0.44411
 H900 H 0.79463 0.11289 0.42173
 C901 C 0.72578 0.92951 0.61770
 C902 C 0.73548 0.94271 0.63096
 C903 C 0.72590 0.95983 0.63839
 C904 C 0.70644 0.96405 0.63280
 C905 C 0.69653 0.95070 0.61993
 C906 C 0.70606 0.93350 0.61256
 C907 C 0.73664 0.91256 0.60823
 N908 N 0.72720 0.89896 0.59635
 N909 N 0.73727 0.88472 0.58662
 C910 C 0.75720 0.88353 0.58831
 N911 N 0.76659 0.89693 0.60042
 N912 N 0.75652 0.91111 0.61019
 C913 C 0.76864 0.86905 0.57600
 C914 C 0.78914 0.87148 0.57382
 C915 C 0.79970 0.85941 0.56048
 C916 C 0.79007 0.84444 0.54918
 C917 C 0.76977 0.84128 0.55206
 C918 C 0.75913 0.85355 0.56525
 H919 H 0.75064 0.94010 0.63526
 H920 H 0.73383 0.97007 0.64817
 H921 H 0.68161 0.95392 0.61520
 H922 H 0.69819 0.92372 0.60231
 H923 H 0.79696 0.88324 0.58187
 H924 H 0.81536 0.86211 0.55866
 H925 H 0.76195 0.82987 0.54353
 H926 H 0.74338 0.85121 0.56668
 C927 C 0.25948 0.93730 0.37988
 C928 C 0.28016 0.93875 0.37926
 C929 C 0.28939 0.95381 0.36815
 C930 C 0.27817 0.96762 0.35710
 C931 C 0.25745 0.96586 0.35761
 C932 C 0.24827 0.95090 0.36873
 C933 C 0.24948 0.92246 0.39281
 N934 N 0.22974 0.92365 0.39597
 N935 N 0.22072 0.91098 0.40821
 C936 C 0.23103 0.89653 0.41782
 N937 N 0.25078 0.89517 0.41453
 N938 N 0.25983 0.90791 0.40231
 C939 C 0.22093 0.88304 0.43201
 C940 C 0.23039 0.86586 0.43952
 C941 C 0.22079 0.85348 0.45323
 C942 C 0.20166 0.85818 0.45985
 C943 C 0.19222 0.87530 0.45228
 C944 C 0.20169 0.88750 0.43846
 H945 H 0.28923 0.92868 0.38790
 H946 H 0.30529 0.95524 0.36903
 H947 H 0.24825 0.97609 0.34926
 H948 H 0.23231 0.95019 0.36877
 H949 H 0.24519 0.86198 0.43481
 H950 H 0.22844 0.84039 0.45883
 H951 H 0.17745 0.87929 0.45702
 H952 H 0.19398 0.90063 0.43305
 C953 C 0.07072 0.37361 0.73423
 C954 C 0.05448 0.36748 0.74568
 C955 C 0.03768 0.35942 0.73666
 C956 C 0.03672 0.35678 0.71591
 C957 C 0.05314 0.36266 0.70447
 C958 C 0.06993 0.37096 0.71352
 C959 C 0.08779 0.38369 0.74393
 N960 N 0.10203 0.39296 0.73308
 N961 N 0.11647 0.40332 0.74200
 C962 C 0.11730 0.40478 0.76212
 N963 N 0.10326 0.39518 0.77291
 N964 N 0.08884 0.38488 0.76402
 C965 C 0.13207 0.41788 0.77219
 C966 C 0.13106 0.42086 0.79286
 C967 C 0.14311 0.43509 0.80225
 C968 C 0.15662 0.44658 0.79130
 C969 C 0.15854 0.44282 0.77082
 C970 C 0.14630 0.42865 0.76133
 H971 H 0.05451 0.36933 0.76166
 H972 H 0.02542 0.35501 0.74601
 H973 H 0.05268 0.36170 0.68841
 H974 H 0.08212 0.37569 0.70425
 H975 H 0.12043 0.41276 0.80176
 H976 H 0.14142 0.43751 0.81809
 H977 H 0.16882 0.45149 0.76201
 H978 H 0.14754 0.42664 0.74541
 C979 C 0.06986 0.62448 0.26764
 C980 C 0.06522 0.62092 0.28767
 C981 C 0.04848 0.62965 0.29631
 C982 C 0.03631 0.64235 0.28519
 C983 C 0.04124 0.64644 0.26543
 C984 C 0.05786 0.63762 0.25673
 C985 C 0.08618 0.61346 0.25773
 N986 N 0.08746 0.61289 0.23762
 N987 N 0.10116 0.60177 0.22855
 C988 C 0.11424 0.59081 0.23920
 N989 N 0.11319 0.59163 0.25933
 N990 N 0.09941 0.60269 0.26841
 C991 C 0.12842 0.57722 0.22904
 C992 C 0.14437 0.56885 0.23940
 C993 C 0.15684 0.55485 0.23010
 C994 C 0.15340 0.54874 0.21037
 C995 C 0.13775 0.55748 0.19989
 C996 C 0.12549 0.57167 0.20907
 H997 H 0.07408 0.61078 0.29644
 H998 H 0.04467 0.62604 0.31149
 H999 H 0.03189 0.65606 0.25658
 H1000 H 0.06103 0.64074 0.24131
 H1001 H 0.14707 0.57290 0.25477
 H1002 H 0.16877 0.54834 0.23856
 H1003 H 0.13481 0.55313 0.18464
 H1004 H 0.11332 0.57780 0.20067
 C1005 C 0.94048 0.40689 0.27866
 C1006 C 0.94131 0.38585 0.28057
 C1007 C 0.95606 0.37695 0.29206
 C1008 C 0.96990 0.38892 0.30253
 C1009 C 0.96870 0.41007 0.30065
 C1010 C 0.95427 0.41888 0.28885
 C1011 C 0.92597 0.41639 0.26539
 N1012 N 0.93051 0.43391 0.25619
 N1013 N 0.91770 0.44251 0.24396
 C1014 C 0.89975 0.43405 0.24059
 N1015 N 0.89511 0.41657 0.24990
 N1016 N 0.90804 0.40783 0.26198
 C1017 C 0.88571 0.44383 0.22702
 C1018 C 0.86525 0.44234 0.23002
 C1019 C 0.85219 0.45287 0.21782
 C1020 C 0.85940 0.46459 0.20212
 C1021 C 0.87984 0.46549 0.19878
 C1022 C 0.89285 0.45541 0.21123
 H1023 H 0.93109 0.37625 0.27250
 H1024 H 0.95713 0.36065 0.29196
 H1025 H 0.97890 0.41991 0.30850
 H1026 H 0.95389 0.43517 0.28771
 H1027 H 0.85940 0.43355 0.24216
 H1028 H 0.83649 0.45193 0.22068
 H1029 H 0.88582 0.47451 0.18688
 H1030 H 0.90856 0.45671 0.20852
 C1031 C 0.93717 0.59655 0.71996
 C1032 C 0.93902 0.61750 0.71782
 C1033 C 0.95428 0.62556 0.70628
 C1034 C 0.96759 0.61279 0.69607
 C1035 C 0.96515 0.59176 0.69795
 C1036 C 0.95025 0.58380 0.70978
 C1037 C 0.92268 0.58780 0.73376
 N1038 N 0.92739 0.57096 0.74397
 N1039 N 0.91464 0.56286 0.75662
 C1040 C 0.89656 0.57113 0.75943
 N1041 N 0.89171 0.58794 0.74913
 N1042 N 0.90461 0.59622 0.73662
 C1043 C 0.88262 0.56165 0.77335
 C1044 C 0.86226 0.56113 0.76949
 C1045 C 0.84961 0.54993 0.78166
 C1046 C 0.85712 0.53954 0.79810
 C1047 C 0.87735 0.54099 0.80242
 C1048 C 0.88997 0.55175 0.79007
 H1049 H 0.92930 0.62764 0.72587
 H1050 H 0.95625 0.64178 0.70625
 H1051 H 0.97487 0.58135 0.69024
 H1052 H 0.94904 0.56756 0.71109
 H1053 H 0.85629 0.56861 0.75662
 H1054 H 0.83407 0.54908 0.77802
 H1055 H 0.88362 0.53311 0.81491
 H1056 H 0.90559 0.55204 0.79343
 C1057 C 0.73165 0.62476 0.93067
 C1058 C 0.74177 0.63603 0.94527
 C1059 C 0.73153 0.64508 0.96097
 C1060 C 0.71098 0.64322 0.96231
 C1061 C 0.70066 0.63292 0.94728
 C1062 C 0.71091 0.62380 0.93153
 C1063 C 0.74287 0.61275 0.91578
 N1064 N 0.73346 0.60130 0.90186
 N1065 N 0.74360 0.58919 0.88968
 C1066 C 0.76357 0.58795 0.89097
 N1067 N 0.77297 0.59962 0.90469
 N1068 N 0.76285 0.61174 0.91681
 C1069 C 0.77485 0.57336 0.87860
 C1070 C 0.79469 0.56926 0.88303
 C1071 C 0.80510 0.55461 0.87235
 C1072 C 0.79601 0.54380 0.85681
 C1073 C 0.77633 0.54821 0.85199
 C1074 C 0.76581 0.56277 0.86284
 H1075 H 0.75770 0.63721 0.94506
 H1076 H 0.73971 0.65286 0.97254
 H1077 H 0.68480 0.63117 0.94825
 H1078 H 0.70265 0.61527 0.92054
 H1079 H 0.80214 0.57708 0.89507
 H1080 H 0.82028 0.55165 0.87637
 H1081 H 0.76892 0.54013 0.84009
 H1082 H 0.75056 0.56559 0.85901
 C1083 C 0.28723 0.40283 0.93707
 C1084 C 0.29069 0.38201 0.93823
 C1085 C 0.30075 0.37403 0.95449
 C1086 C 0.30713 0.38669 0.97016
 C1087 C 0.30330 0.40752 0.96899
 C1088 C 0.29384 0.41553 0.95245
 C1089 C 0.27608 0.41132 0.92032
 N1090 N 0.28042 0.43000 0.91345
 N1091 N 0.26975 0.43815 0.89902
 C1092 C 0.25414 0.42805 0.89109
 N1093 N 0.24981 0.40934 0.89793
 N1094 N 0.26066 0.40108 0.91218
 C1095 C 0.24155 0.43775 0.87610
 C1096 C 0.22109 0.43432 0.87597
 C1097 C 0.20890 0.44499 0.86305
 C1098 C 0.21704 0.45880 0.84964
 C1099 C 0.23758 0.46160 0.84920
 C1100 C 0.24970 0.45138 0.86252
 H1101 H 0.28560 0.37191 0.92658
 H1102 H 0.30279 0.35785 0.95521
 H1103 H 0.30796 0.41772 0.98076
 H1104 H 0.29118 0.43162 0.95197
 H1105 H 0.21444 0.42398 0.88638
 H1106 H 0.19310 0.44258 0.86363
 H1107 H 0.24418 0.47227 0.83908
 H1108 H 0.26544 0.45423 0.86231
 C1109 C 0.27921 0.60003 0.06027
 C1110 C 0.28237 0.58976 0.04225
 C1111 C 0.29183 0.59924 0.02650
 C1112 C 0.29842 0.61939 0.02821
 C1113 C 0.29556 0.62951 0.04652
 C1114 C 0.28625 0.61987 0.06241
 C1115 C 0.26773 0.59023 0.07622
 N1116 N 0.26869 0.59686 0.09536
 N1117 N 0.25801 0.58800 0.10947
 C1118 C 0.24579 0.57233 0.10494
 N1119 N 0.24483 0.56579 0.08581
 N1120 N 0.25560 0.57452 0.07178
 C1121 C 0.23377 0.56231 0.12034
 C1122 C 0.21719 0.55087 0.11475
 C1123 C 0.20633 0.54036 0.12888
 C1124 C 0.21192 0.54078 0.14894
 C1125 C 0.22827 0.55257 0.15468
 C1126 C 0.23901 0.56338 0.14051
 H1127 H 0.27737 0.57435 0.04020
 H1128 H 0.29407 0.59066 0.01292
 H1129 H 0.29953 0.64526 0.04829
 H1130 H 0.28381 0.62825 0.07608
 H1131 H 0.21265 0.54989 0.09936
 H1132 H 0.19384 0.53141 0.12394
 H1133 H 0.23291 0.55321 0.17005
 H1134 H 0.25174 0.57207 0.14525
 C1135 C 0.73582 0.37046 0.07102
 C1136 C 0.71536 0.37248 0.06806
 C1137 C 0.70620 0.36328 0.05169
 C1138 C 0.71734 0.35188 0.03809
 C1139 C 0.73755 0.34915 0.04144
 C1140 C 0.74669 0.35825 0.05778
 C1141 C 0.74613 0.38226 0.08671
 N1142 N 0.76611 0.38173 0.08805
 N1143 N 0.77568 0.39372 0.10075
 C1144 C 0.76571 0.40676 0.11273
 N1145 N 0.74568 0.40702 0.11173
 N1146 N 0.73609 0.39503 0.09896
 C1147 C 0.77660 0.42150 0.12530
 C1148 C 0.76673 0.43375 0.13928
 C1149 C 0.77692 0.44891 0.14969
 C1150 C 0.79708 0.45225 0.14610
 C1151 C 0.80704 0.43959 0.13262
 C1152 C 0.79696 0.42432 0.12245
 H1153 H 0.70654 0.38175 0.07796
 H1154 H 0.69060 0.36568 0.04919
 H1155 H 0.74636 0.34046 0.03102
 H1156 H 0.76244 0.35628 0.05960
 H1157 H 0.75106 0.43190 0.14188
 H1158 H 0.76888 0.45847 0.16000
 H1159 H 0.82261 0.44170 0.12966
 H1160 H 0.80506 0.41518 0.11182
 C1161 C 0.93306 0.71859 0.61101
 C1162 C 0.93357 0.69738 0.61075
 C1163 C 0.94964 0.68706 0.61884
 C1164 C 0.96552 0.69771 0.62750
 C1165 C 0.96476 0.71893 0.62790
 C1166 C 0.94871 0.72919 0.61997
 C1167 C 0.91700 0.72982 0.60105
 N1168 N 0.91726 0.75029 0.60090
 N1169 N 0.90371 0.76056 0.59097
 C1170 C 0.88924 0.75085 0.58072
 N1171 N 0.88876 0.73035 0.58107
 N1172 N 0.90237 0.72004 0.59102
 C1173 C 0.87509 0.76250 0.56860
 C1174 C 0.85908 0.75305 0.55897
 C1175 C 0.84656 0.76413 0.54663
 C1176 C 0.84998 0.78479 0.54355
 C1177 C 0.86571 0.79425 0.55352
 C1178 C 0.87803 0.78329 0.56593
 H1179 H 0.92185 0.68875 0.60380
 H1180 H 0.95008 0.67077 0.61740
 H1181 H 0.97666 0.72767 0.63445
 H1182 H 0.94886 0.74552 0.62048
 H1183 H 0.85636 0.73707 0.56076
 H1184 H 0.83454 0.75644 0.53914
 H1185 H 0.86866 0.81018 0.55158
 H1186 H 0.89017 0.79111 0.57310
 C1187 C 0.92787 0.28053 0.38265
 C1188 C 0.92936 0.30166 0.38420
 C1189 C 0.94578 0.31180 0.37645
 C1190 C 0.96105 0.30102 0.36692
 C1191 C 0.95916 0.27994 0.36497
 C1192 C 0.94276 0.26989 0.37252
 C1193 C 0.91184 0.26931 0.39276
 N1194 N 0.91148 0.24883 0.39208
 N1195 N 0.89824 0.23848 0.40243
 C1196 C 0.88472 0.24812 0.41395
 N1197 N 0.88479 0.26863 0.41439
 N1198 N 0.89809 0.27901 0.40402
 C1199 C 0.87118 0.23637 0.42673
 C1200 C 0.85574 0.24578 0.43726
 C1201 C 0.84397 0.23470 0.45036
 C1202 C 0.84759 0.21408 0.45335
 C1203 C 0.86270 0.20462 0.44248
 C1204 C 0.87427 0.21559 0.42926
 H1205 H 0.91823 0.31031 0.39204
 H1206 H 0.94708 0.32790 0.37903
 H1207 H 0.97057 0.27114 0.35768
 H1208 H 0.94212 0.25363 0.37095
 H1209 H 0.85293 0.26174 0.43560
 H1210 H 0.83242 0.24239 0.45856
 H1211 H 0.86578 0.18872 0.44435
 H1212 H 0.88600 0.20781 0.42142
 C1213 C 0.06470 0.26005 0.61870
 C1214 C 0.06380 0.28127 0.61881
 C1215 C 0.04807 0.29131 0.62800
 C1216 C 0.03306 0.28035 0.63741
 C1217 C 0.03414 0.25924 0.63773
 C1218 C 0.04982 0.24918 0.62852
 C1219 C 0.08039 0.24926 0.60750
 N1220 N 0.07988 0.22886 0.60552
 N1221 N 0.09318 0.21920 0.59442
 C1222 C 0.10762 0.22951 0.58485
 N1223 N 0.10831 0.24990 0.58705
 N1224 N 0.09498 0.25957 0.59813
 C1225 C 0.12146 0.21884 0.57130
 C1226 C 0.13711 0.22918 0.56216
 C1227 C 0.14904 0.21946 0.54807
 C1228 C 0.14547 0.19923 0.54271
 C1229 C 0.13027 0.18871 0.55235
 C1230 C 0.11846 0.19836 0.56652
 H1231 H 0.07496 0.29012 0.61135
 H1232 H 0.04733 0.30761 0.62737
 H1233 H 0.02263 0.25052 0.64483
 H1234 H 0.05003 0.23285 0.62877
 H1235 H 0.13990 0.24493 0.56557
 H1236 H 0.16063 0.22798 0.54089
 H1237 H 0.12720 0.17308 0.54863
 H1238 H 0.10660 0.18989 0.57329
 C1239 C 0.05714 0.73505 0.38875
 C1240 C 0.05826 0.73269 0.36806
 C1241 C 0.04316 0.72272 0.35765
 C1242 C 0.02693 0.71432 0.36780
 C1243 C 0.02621 0.71654 0.38863
 C1244 C 0.04103 0.72678 0.39890
 C1245 C 0.07206 0.74683 0.39989
 N1246 N 0.06686 0.75654 0.41692
 N1247 N 0.08007 0.76714 0.42723
 C1248 C 0.09909 0.76834 0.42107
 N1249 N 0.10438 0.75858 0.40404
 N1250 N 0.09107 0.74811 0.39357
 C1251 C 0.11359 0.77984 0.43303
 C1252 C 0.13370 0.77473 0.43296
 C1253 C 0.14688 0.78460 0.44581
 C1254 C 0.14020 0.80001 0.45863
 C1255 C 0.12023 0.80560 0.45807
 C1256 C 0.10706 0.79553 0.44554
 H1257 H 0.07038 0.73926 0.35985
 H1258 H 0.04379 0.72242 0.34159
 H1259 H 0.01416 0.71017 0.39710
 H1260 H 0.03986 0.72823 0.41489
 H1261 H 0.13909 0.76264 0.42349
 H1262 H 0.16221 0.78003 0.44591
 H1263 H 0.11459 0.81737 0.46778
 H1264 H 0.09168 0.79990 0.44581
 C1265 C 0.60055 0.94284 0.72029
 C1266 C 0.58942 0.95681 0.70960
 C1267 C 0.59869 0.97129 0.69798
 C1268 C 0.61945 0.97240 0.69679
 C1269 C 0.63057 0.95803 0.70729
 C1270 C 0.62120 0.94325 0.71869
 C1271 C 0.59048 0.92886 0.73392
 N1272 N 0.59823 0.91054 0.73829
 N1273 N 0.58889 0.89816 0.75068
 C1274 C 0.57162 0.90378 0.75937
 N1275 N 0.56399 0.92212 0.75507
 N1276 N 0.57318 0.93437 0.74255
 C1277 C 0.56100 0.89028 0.77306
 C1278 C 0.54873 0.89853 0.78783
 C1279 C 0.53757 0.88602 0.80004
 C1280 C 0.53811 0.86498 0.79747
 C1281 C 0.55065 0.85666 0.78292
 C1282 C 0.56219 0.86921 0.77096
 H1283 H 0.57346 0.95669 0.71038
 H1284 H 0.58951 0.98175 0.68992
 H1285 H 0.64652 0.95889 0.70769
 H1286 H 0.63012 0.93279 0.72704
 H1287 H 0.54763 0.91472 0.78986
 H1288 H 0.52799 0.89288 0.81106
 H1289 H 0.55138 0.84048 0.78066
 H1290 H 0.57150 0.86248 0.75964
 C1291 C 0.38195 0.92492 0.27618
 C1292 C 0.39333 0.93917 0.28666
 C1293 C 0.38469 0.95672 0.29426
 C1294 C 0.36428 0.96008 0.29228
 C1295 C 0.35286 0.94561 0.28198
 C1296 C 0.36164 0.92830 0.27388
 C1297 C 0.39156 0.90726 0.26680
 N1298 N 0.38466 0.89943 0.24943
 N1299 N 0.39431 0.88461 0.24012
 C1300 C 0.41110 0.87686 0.24794
 N1301 N 0.41777 0.88443 0.26550
 N1302 N 0.40825 0.89939 0.27470
 C1303 C 0.42292 0.86185 0.23678
 C1304 C 0.43581 0.84885 0.24676
 C1305 C 0.44879 0.83645 0.23610
 C1306 C 0.44944 0.83721 0.21529
 C1307 C 0.43604 0.84963 0.20529
 C1308 C 0.42272 0.86164 0.21593
 H1309 H 0.40907 0.93706 0.28843
 H1310 H 0.39395 0.96761 0.30194
 H1311 H 0.33727 0.94810 0.27945
 H1312 H 0.35259 0.91762 0.26569
 H1313 H 0.43620 0.84867 0.26283
 H1314 H 0.45907 0.82710 0.24416
 H1315 H 0.43625 0.85045 0.18924
 H1316 H 0.41301 0.87157 0.20785
 C1317 C 0.59702 0.05709 0.28214
 C1318 C 0.58535 0.04423 0.29365
 C1319 C 0.59403 0.02971 0.30560
 C1320 C 0.61471 0.02743 0.30631
 C1321 C 0.62639 0.04048 0.29473
 C1322 C 0.61763 0.05536 0.28303
 C1323 C 0.58744 0.07139 0.26856
 N1324 N 0.59606 0.08925 0.26385
 N1325 N 0.58707 0.10205 0.25168
 C1326 C 0.56927 0.09733 0.24357
 N1327 N 0.56078 0.07942 0.24820
 N1328 N 0.56963 0.06677 0.26050
 C1329 C 0.55902 0.11132 0.23016
 C1330 C 0.54605 0.10367 0.21568
 C1331 C 0.53534 0.11670 0.20368
 C1332 C 0.53703 0.13769 0.20618
 C1333 C 0.55020 0.14540 0.22048
 C1334 C 0.56130 0.13231 0.23222
 H1335 H 0.56941 0.04535 0.29337
 H1336 H 0.58446 0.02018 0.31437
 H1337 H 0.64223 0.03855 0.29386
 H1338 H 0.62694 0.06489 0.27399
 H1339 H 0.54411 0.08755 0.21370
 H1340 H 0.52526 0.11032 0.19284
 H1341 H 0.55181 0.16153 0.22267
 H1342 H 0.57114 0.13858 0.24334
 C1343 C 0.38241 0.07835 0.72216
 C1344 C 0.36769 0.06721 0.73192
 C1345 C 0.35982 0.04978 0.72320
 C1346 C 0.36642 0.04318 0.70452
 C1347 C 0.38075 0.05446 0.69446
 C1348 C 0.38860 0.07198 0.70315
 C1349 C 0.39215 0.09557 0.73242
 N1350 N 0.40551 0.10734 0.72287
 N1351 N 0.41537 0.12176 0.73263
 C1352 C 0.41232 0.12496 0.75235
 N1353 N 0.39875 0.11341 0.76179
 N1354 N 0.38886 0.09907 0.75204
 C1355 C 0.42475 0.13940 0.76373
 C1356 C 0.42587 0.13805 0.78450
 C1357 C 0.43943 0.14973 0.79516
 C1358 C 0.45195 0.16328 0.78535
 C1359 C 0.45006 0.16555 0.76474
 C1360 C 0.43669 0.15360 0.75399
 H1361 H 0.36253 0.07167 0.74653
 H1362 H 0.34887 0.04115 0.73121
 H1363 H 0.38619 0.04940 0.68014
 H1364 H 0.39998 0.08014 0.69527
 H1365 H 0.41689 0.12731 0.79249
 H1366 H 0.44051 0.14774 0.81106
 H1367 H 0.45959 0.17584 0.75680
 H1368 H 0.43608 0.15508 0.73801
 C1369 C 0.61630 0.73312 0.07451
 C1370 C 0.63067 0.74460 0.06459
 C1371 C 0.64045 0.73673 0.04799
 C1372 C 0.63613 0.71723 0.04099
 C1373 C 0.62210 0.70555 0.05103
 C1374 C 0.61238 0.71336 0.06775
 C1375 C 0.60469 0.74221 0.09098
 N1376 N 0.59224 0.73081 0.10206
 N1377 N 0.58092 0.73929 0.11600
 C1378 C 0.58151 0.75953 0.11940
 N1379 N 0.59412 0.77086 0.10847
 N1380 N 0.60549 0.76239 0.09460
 C1381 C 0.56781 0.76923 0.13375
 C1382 C 0.56468 0.79018 0.13326
 C1383 C 0.55043 0.79919 0.14541
 C1384 C 0.53917 0.78752 0.15853
 C1385 C 0.54287 0.76672 0.15968
 C1386 C 0.55696 0.75763 0.14731
 H1387 H 0.63410 0.75984 0.06940
 H1388 H 0.65111 0.74603 0.04031
 H1389 H 0.61833 0.69059 0.04561
 H1390 H 0.60133 0.70415 0.07495
 H1391 H 0.57277 0.79957 0.12300
 H1392 H 0.54798 0.81528 0.14425
 H1393 H 0.53437 0.75733 0.16962
 H1394 H 0.55910 0.74148 0.14813
 C1395 C 0.40444 0.28871 0.07068
 C1396 C 0.41527 0.30220 0.05898
 C1397 C 0.40597 0.31324 0.04418
 C1398 C 0.38571 0.31083 0.04059
 C1399 C 0.37470 0.29781 0.05268
 C1400 C 0.38396 0.28704 0.06783
 C1401 C 0.41491 0.27526 0.08444
 N1402 N 0.40616 0.26837 0.10123
 N1403 N 0.41566 0.25567 0.11312
 C1404 C 0.43411 0.24917 0.10846
 N1405 N 0.44279 0.25604 0.09168
 N1406 N 0.43342 0.26890 0.07997
 C1407 C 0.44459 0.23460 0.12103
 C1408 C 0.45706 0.22022 0.11218
 C1409 C 0.46769 0.20680 0.12384
 C1410 C 0.46648 0.20783 0.14462
 C1411 C 0.45394 0.22215 0.15354
 C1412 C 0.44283 0.23525 0.14180
 H1413 H 0.43105 0.30385 0.06095
 H1414 H 0.41475 0.32309 0.03494
 H1415 H 0.35914 0.29541 0.04988
 H1416 H 0.37534 0.27659 0.07655
 H1417 H 0.45858 0.21935 0.09619
 H1418 H 0.47734 0.19599 0.11659
 H1419 H 0.45275 0.22321 0.16955
 H1420 H 0.43335 0.24628 0.14894
 C1421 C 0.62204 0.26267 0.92594
 C1422 C 0.62029 0.28316 0.93130
 C1423 C 0.63006 0.29081 0.94805
 C1424 C 0.64194 0.27819 0.95957
 C1425 C 0.64415 0.25789 0.95395
 C1426 C 0.63436 0.25021 0.93728
 C1427 C 0.61017 0.25398 0.90945
 N1428 N 0.60950 0.23371 0.90641
 N1429 N 0.59777 0.22568 0.89259
 C1430 C 0.58621 0.23757 0.88116
 N1431 N 0.58710 0.25788 0.88396
 N1432 N 0.59881 0.26592 0.89783
 C1433 C 0.57200 0.22844 0.86695
 C1434 C 0.56154 0.24045 0.85348
 C1435 C 0.54696 0.23192 0.84128
 C1436 C 0.54241 0.21129 0.84251
 C1437 C 0.55327 0.19920 0.85553
 C1438 C 0.56796 0.20764 0.86752
 H1439 H 0.61088 0.29316 0.92296
 H1440 H 0.62795 0.30645 0.95235
 H1441 H 0.65314 0.24790 0.96277
 H1442 H 0.63609 0.23438 0.93358
 H1443 H 0.56436 0.25650 0.85260
 H1444 H 0.53881 0.24161 0.83139
 H1445 H 0.55019 0.18322 0.85672
 H1446 H 0.57573 0.19793 0.87769
 C1447 C 0.38730 0.72912 0.93143
 C1448 C 0.37721 0.73841 0.94731
 C1449 C 0.36863 0.72681 0.96220
 C1450 C 0.36983 0.70572 0.96146
 C1451 C 0.37917 0.69630 0.94527
 C1452 C 0.38778 0.70790 0.93032
 C1453 C 0.39841 0.74154 0.91701
 N1454 N 0.40849 0.73284 0.90173
 N1455 N 0.41961 0.74396 0.88970
 C1456 C 0.42116 0.76424 0.89247
 N1457 N 0.41088 0.77294 0.90759
 N1458 N 0.39976 0.76184 0.91958
 C1459 C 0.43449 0.77652 0.87996
 C1460 C 0.43836 0.79678 0.88501
 C1461 C 0.45174 0.80814 0.87398
 C1462 C 0.46148 0.79959 0.85753
 C1463 C 0.45733 0.77947 0.85218
 C1464 C 0.44403 0.76803 0.86333
 H1465 H 0.37646 0.75468 0.94862
 H1466 H 0.36158 0.73431 0.97469
 H1467 H 0.38042 0.68002 0.94461
 H1468 H 0.39542 0.70025 0.91831
 H1469 H 0.43132 0.80382 0.89773
 H1470 H 0.45453 0.82363 0.87844
 H1471 H 0.46459 0.77246 0.83957
 H1472 H 0.44136 0.75249 0.85900
 C1473 C 0.71704 0.93129 0.40315
 C1474 C 0.70913 0.94822 0.41300
 C1475 C 0.69963 0.96328 0.40238
 C1476 C 0.69794 0.96186 0.38167
 C1477 C 0.70548 0.94479 0.37176
 C1478 C 0.71477 0.92948 0.38246
 C1479 C 0.72860 0.91641 0.41447
 N1480 N 0.73121 0.89720 0.40769
 N1481 N 0.74209 0.88416 0.41792
 C1482 C 0.75093 0.88992 0.43518
 N1483 N 0.74828 0.90909 0.44189
 N1484 N 0.73730 0.92202 0.43180
 C1485 C 0.76354 0.87594 0.44645
 C1486 C 0.77859 0.88375 0.45859
 C1487 C 0.79029 0.87094 0.46984
 C1488 C 0.78699 0.85002 0.46953
 C1489 C 0.77199 0.84210 0.45731
 C1490 C 0.76049 0.85496 0.44567
 H1491 H 0.71053 0.94997 0.42893
 H1492 H 0.69397 0.97636 0.41028
 H1493 H 0.70457 0.94358 0.35575
 H1494 H 0.72085 0.91666 0.37449
 H1495 H 0.78138 0.89983 0.45938
 H1496 H 0.80167 0.87752 0.47917
 H1497 H 0.76917 0.82602 0.45678
 H1498 H 0.74894 0.84857 0.43646
 C1499 C 0.27757 0.92621 0.61381
 C1500 C 0.29729 0.92991 0.60830
 C1501 C 0.30745 0.94663 0.61603
 C1502 C 0.29809 0.95974 0.62946
 C1503 C 0.27882 0.95562 0.63570
 C1504 C 0.26865 0.93897 0.62801
 C1505 C 0.26578 0.91034 0.60363
 N1506 N 0.24599 0.90922 0.60656
 N1507 N 0.23496 0.89637 0.59606
 C1508 C 0.24325 0.88403 0.58219
 N1509 N 0.26311 0.88483 0.57952
 N1510 N 0.27414 0.89775 0.59000
 C1511 C 0.23066 0.87126 0.56919
 C1512 C 0.23898 0.85655 0.55655
 C1513 C 0.22715 0.84585 0.54304
 C1514 C 0.20684 0.84985 0.54176
 C1515 C 0.19846 0.86410 0.55480
 C1516 C 0.21020 0.87458 0.56844
 H1517 H 0.30461 0.92040 0.59742
 H1518 H 0.32231 0.94977 0.61099
 H1519 H 0.27141 0.96573 0.64599
 H1520 H 0.25354 0.93654 0.63267
 H1521 H 0.25467 0.85358 0.55682
 H1522 H 0.23401 0.83495 0.53316
 H1523 H 0.18282 0.86740 0.55425
 H1524 H 0.20328 0.88578 0.57795
 C1525 C 0.26064 0.07360 0.36922
 C1526 C 0.25009 0.06107 0.35599
 C1527 C 0.25926 0.04461 0.34678
 C1528 C 0.27917 0.04040 0.35052
 C1529 C 0.29000 0.05337 0.36300
 C1530 C 0.28086 0.06990 0.37217
 C1531 C 0.25022 0.08919 0.38117
 N1532 N 0.26030 0.10185 0.39351
 N1533 N 0.25075 0.11452 0.40561
 C1534 C 0.23072 0.11501 0.40594
 N1535 N 0.22066 0.10259 0.39337
 N1536 N 0.23020 0.08998 0.38124
 C1537 C 0.22002 0.12761 0.42071
 C1538 C 0.19988 0.12418 0.42438
 C1539 C 0.19013 0.13460 0.43957
 C1540 C 0.20020 0.14888 0.45132
 C1541 C 0.22014 0.15295 0.44718
 C1542 C 0.22999 0.14232 0.43210
 H1543 H 0.23454 0.06352 0.35330
 H1544 H 0.25063 0.03467 0.33732
 H1545 H 0.30529 0.05015 0.36634
 H1546 H 0.28942 0.07920 0.38229
 H1547 H 0.19174 0.11297 0.41592
 H1548 H 0.17472 0.13123 0.44231
 H1549 H 0.22828 0.16388 0.45600
 H1550 H 0.24548 0.14539 0.42960
 C1551 C 0.72758 0.06934 0.60721
 C1552 C 0.73756 0.05750 0.62119
 C1553 C 0.72778 0.04191 0.63097
 C1554 C 0.70785 0.03784 0.62701
 C1555 C 0.69779 0.04970 0.61318
 C1556 C 0.70751 0.06543 0.60350
 C1557 C 0.73833 0.08501 0.59592
 N1558 N 0.72850 0.09829 0.58432
 N1559 N 0.73829 0.11172 0.57348
 C1560 C 0.75833 0.11237 0.57372
 N1561 N 0.76813 0.09920 0.58544
 N1562 N 0.75834 0.08584 0.59633
 C1563 C 0.76934 0.12642 0.56077
 C1564 C 0.78958 0.12351 0.55727
 C1565 C 0.79980 0.13583 0.54407
 C1566 C 0.79009 0.15154 0.53425
 C1567 C 0.77000 0.15490 0.53818
 C1568 C 0.75968 0.14238 0.55122
 H1569 H 0.75300 0.06011 0.62443
 H1570 H 0.73584 0.03279 0.64146
 H1571 H 0.68250 0.04653 0.60964
 H1572 H 0.69942 0.07414 0.59272
 H1573 H 0.79748 0.11136 0.56435
 H1574 H 0.81530 0.13292 0.54143
 H1575 H 0.76212 0.16688 0.53080
 H1576 H 0.74412 0.14508 0.55367
 C1577 C 0.93460 0.61592 0.26088
 C1578 C 0.94912 0.60538 0.27135
 C1579 C 0.96369 0.61578 0.28186
 C1580 C 0.96426 0.63694 0.28189
 C1581 C 0.94965 0.64757 0.27157
 C1582 C 0.93470 0.63712 0.26139
 C1583 C 0.92028 0.60458 0.24862
 N1584 N 0.90145 0.61111 0.24621
 N1585 N 0.88867 0.60045 0.23527
 C1586 C 0.89438 0.58305 0.22609
 N1587 N 0.91324 0.57669 0.22841
 N1588 N 0.92590 0.58717 0.23951
 C1589 C 0.88050 0.57084 0.21411
 C1590 C 0.88768 0.55923 0.19816
 C1591 C 0.87524 0.54605 0.18785
 C1592 C 0.85541 0.54386 0.19352
 C1593 C 0.84802 0.55592 0.20912
 C1594 C 0.86044 0.56951 0.21919
 H1595 H 0.94931 0.58904 0.27126
 H1596 H 0.97488 0.60729 0.28963
 H1597 H 0.95007 0.66389 0.27105
 H1598 H 0.92375 0.64554 0.25325
 H1599 H 0.90306 0.56008 0.19385
 H1600 H 0.88141 0.53693 0.17595
 H1601 H 0.83278 0.55456 0.21378
 H1602 H 0.85459 0.57827 0.23150
 C1603 C 0.93567 0.38886 0.73026
 C1604 C 0.93469 0.36767 0.72975
 C1605 C 0.94976 0.35641 0.72069
 C1606 C 0.96574 0.36621 0.71159
 C1607 C 0.96623 0.38736 0.71140
 C1608 C 0.95143 0.39857 0.72072
 C1609 C 0.92128 0.40091 0.74184
 N1610 N 0.92680 0.41893 0.74982
 N1611 N 0.91433 0.42967 0.76090
 C1612 C 0.89573 0.42294 0.76434
 N1613 N 0.89006 0.40499 0.75622
 N1614 N 0.90265 0.39411 0.74528
 C1615 C 0.88222 0.43499 0.77694
 C1616 C 0.86172 0.43474 0.77381
 C1617 C 0.84934 0.44738 0.78503
 C1618 C 0.85724 0.46005 0.79990
 C1619 C 0.87765 0.45972 0.80342
 C1620 C 0.89001 0.44750 0.79195
 H1621 H 0.92278 0.35981 0.73713
 H1622 H 0.94930 0.34010 0.72133
 H1623 H 0.97847 0.39521 0.70456
 H1624 H 0.95251 0.41487 0.72077
 H1625 H 0.85537 0.42526 0.76228
 H1626 H 0.83365 0.44735 0.78202
 H1627 H 0.88420 0.46940 0.81467
 H1628 H 0.90573 0.44789 0.79479
 C1629 C 0.06978 0.58823 0.70732
 C1630 C 0.06893 0.60942 0.70736
 C1631 C 0.05332 0.61932 0.69801
 C1632 C 0.03863 0.60822 0.68801
 C1633 C 0.04015 0.58711 0.68704
 C1634 C 0.05549 0.57721 0.69669
 C1635 C 0.08436 0.57756 0.71967
 N1636 N 0.07988 0.55920 0.72723
 N1637 N 0.09234 0.54991 0.73932
 C1638 C 0.10988 0.55850 0.74424
 N1639 N 0.11452 0.57677 0.73650
 N1640 N 0.10193 0.58619 0.72456
 C1641 C 0.12338 0.54820 0.75801
 C1642 C 0.14392 0.55071 0.75654
 C1643 C 0.15657 0.54007 0.76907
 C1644 C 0.14886 0.52719 0.78361
 C1645 C 0.12832 0.52518 0.78543
 C1646 C 0.11572 0.53538 0.77261
 H1647 H 0.07967 0.61827 0.71557
 H1648 H 0.05221 0.63558 0.69933
 H1649 H 0.02892 0.57824 0.67953
 H1650 H 0.05587 0.56088 0.69630
 H1651 H 0.15018 0.56046 0.74538
 H1652 H 0.17237 0.54188 0.76739
 H1653 H 0.12198 0.51525 0.79642
 H1654 H 0.09994 0.53329 0.77415
 C1655 C 0.07494 0.40416 0.29348
 C1656 C 0.06925 0.38417 0.28919
 C1657 C 0.05245 0.37589 0.29796
 C1658 C 0.04096 0.38745 0.31110
 C1659 C 0.04685 0.40720 0.31588
 C1660 C 0.06383 0.41543 0.30730
 C1661 C 0.09138 0.41362 0.28242
 N1662 N 0.09975 0.43114 0.28887
 N1663 N 0.11349 0.44037 0.27806
 C1664 C 0.11931 0.43253 0.26029
 N1665 N 0.11110 0.41491 0.25397
 N1666 N 0.09748 0.40562 0.26483
 C1667 C 0.13315 0.44367 0.24737
 C1668 C 0.13280 0.44044 0.22673
 C1669 C 0.14436 0.45224 0.21420
 C1670 C 0.15685 0.46722 0.22204
 C1671 C 0.15791 0.46990 0.24272
 C1672 C 0.14598 0.45838 0.25528
 H1673 H 0.07752 0.37507 0.27866
 H1674 H 0.04796 0.36069 0.29394
 H1675 H 0.03800 0.41639 0.32584
 H1676 H 0.06775 0.43090 0.31083
 H1677 H 0.12302 0.42928 0.22017
 H1678 H 0.14333 0.44982 0.19831
 H1679 H 0.16736 0.48144 0.24912
 H1680 H 0.14661 0.46114 0.27113
   
