data_POSCAR
  _audit_creation_date              2014-09-24
  _audit_creation_method            'ToBaCCo'
  _symmetry_space_group_name_H-M    'P1'
  _symmetry_Int_Tables_number       1
  _symmetry_cell_setting            triclinic
  loop_
  _symmetry_equiv_pos_as_xyz
 x,y,z
_cell_length_a 59.2180
_cell_length_b 59.2261
_cell_length_c 59.1673
_cell_angle_alpha 89.999400
_cell_angle_beta 89.988700
_cell_angle_gamma 90.001200
loop_
  _atom_site_label
  _atom_site_type_symbol
  _atom_site_fract_x
  _atom_site_fract_y
  _atom_site_fract_z
C1 C 0.35871 1.35962 0.33074
 N2 N 0.36802 1.34089 0.34010
 C3 C 0.35868 1.33158 0.35886
 N4 N 0.33995 1.34093 0.36819
 C5 C 0.33063 1.35966 0.35885
 N6 N 0.33997 1.36897 0.34008
 C7 C 0.35828 0.85917 0.83129
 N8 N 0.36753 0.84041 0.84065
 C9 C 0.35814 0.83111 0.85938
 N10 N 0.33941 0.84049 0.86869
 C11 C 0.33015 0.85925 0.85933
 N12 N 0.33955 0.86855 0.84059
 C13 C 0.85947 1.35973 0.83075
 N14 N 0.84075 1.36911 0.84009
 C15 C 0.83141 1.35982 0.85887
 N16 N 0.84072 1.34109 0.86822
 C17 C 0.85943 1.33171 0.85889
 N18 N 0.86877 1.34100 0.84012
 C19 C 0.85968 0.85940 0.33073
 N20 N 0.86892 0.84060 0.34003
 C21 C 0.85951 0.83123 0.35873
 N22 N 0.84079 0.84061 0.36806
 C23 C 0.83155 0.85941 0.35877
 N24 N 0.84096 0.86876 0.34007
 C25 C 0.64072 0.64075 0.33037
 N26 N 0.65947 0.63141 0.33967
 C27 C 0.66889 0.64078 0.35836
 N28 N 0.65962 0.65956 0.36768
 C29 C 0.64087 0.66890 0.35838
 N30 N 0.63146 0.65953 0.33969
 C31 C 0.64191 0.14077 0.83018
 N32 N 0.63254 0.15948 0.83953
 C33 C 0.64185 0.16883 0.85828
 N34 N 0.66060 0.15953 0.86762
 C35 C 0.66998 0.14082 0.85828
 N36 N 0.66066 0.13147 0.83952
 C37 C 1.13969 0.63982 0.83227
 N38 N 1.15836 0.63045 0.84167
 C39 C 1.16767 0.63976 0.86044
 N40 N 1.15838 0.65853 0.86972
 C41 C 1.13970 0.66792 0.86033
 N42 N 1.13039 0.65860 0.84156
 C43 C 1.14177 0.14051 0.33050
 N44 N 1.13244 0.15923 0.33985
 C45 C 1.14177 0.16856 0.35860
 N46 N 1.16050 0.15923 0.36793
 C47 C 1.16985 0.14051 0.35859
 N48 N 1.16052 0.13118 0.33983
 C49 C 0.64145 1.35977 0.66838
 N50 N 0.66025 1.36904 0.65909
 C51 C 0.66964 1.35964 0.64040
 N52 N 0.66030 1.34089 0.63108
 C53 C 0.64150 1.33163 0.64037
 N54 N 0.63212 1.34104 0.65906
 C55 C 0.64042 0.85948 1.16932
 N56 N 0.63109 0.84071 1.16003
 C57 C 0.64044 0.83131 1.14132
 N58 N 0.65918 0.84061 1.13197
 C59 C 0.66852 0.85937 1.14125
 N60 N 0.65916 0.86876 1.15996
 C61 C 1.14123 1.35968 1.16918
 N62 N 1.15999 1.36897 1.15983
 C63 C 1.16932 1.35959 1.14109
 N64 N 1.15996 1.34085 1.13179
 C65 C 1.14121 1.33156 1.14114
 N66 N 1.13188 1.34095 1.15987
 C67 C 1.14167 0.85925 0.66864
 N68 N 1.13238 0.84050 0.65929
 C69 C 1.14176 0.83117 0.64056
 N70 N 1.16050 0.84052 0.63125
 C71 C 1.16980 0.85927 0.64059
 N72 N 1.16041 0.86860 0.65932
 C73 C 0.35838 0.64080 0.66859
 N74 N 0.33966 0.63147 0.65922
 C75 C 0.33032 0.64082 0.64049
 N76 N 0.33964 0.65959 0.63119
 C77 C 0.35837 0.66892 0.64055
 N78 N 0.36770 0.65956 0.65929
 C79 C 0.35860 0.14012 1.16932
 N80 N 0.36792 0.15884 1.15995
 C81 C 0.35859 0.16815 1.14120
 N82 N 0.33985 0.15881 1.13188
 C83 C 0.33051 0.14009 1.14124
 N84 N 0.33985 0.13078 1.16000
 C85 C 0.85980 0.64002 1.16791
 N86 N 0.84101 0.63075 1.15863
 C87 C 0.83158 0.64018 1.13998
 N88 N 0.84085 0.65897 1.13070
 C89 C 0.85964 0.66825 1.13998
 N90 N 0.86907 0.65881 1.15863
 C91 C 0.85820 0.14079 0.66990
 N92 N 0.83946 0.13147 0.66056
 C93 C 0.83014 0.14080 0.64179
 N94 N 0.83951 0.15951 0.63244
 C95 C 0.85824 0.16884 0.64178
 N96 N 0.86755 0.15951 0.66054
 C97 C 1.35948 0.35824 0.66960
 N98 N 1.34075 0.36758 0.66027
 C99 C 1.33143 0.35829 0.64149
 N100 N 1.34078 0.33958 0.63211
 C101 C 1.35951 0.33023 0.64144
 N102 N 1.36882 0.33953 0.66022
 C103 C 1.35984 0.85871 1.16823
 N104 N 1.36908 0.83990 1.15894
 C105 C 1.35968 0.83054 1.14023
 N106 N 1.34097 0.83993 1.13089
 C107 C 1.33173 0.85873 1.14018
 N108 N 1.34114 0.86808 1.15888
 C109 C 0.85948 0.35972 1.16913
 N110 N 0.84073 0.36906 1.15982
 C111 C 0.83140 0.35977 1.14105
 N112 N 0.84074 0.34106 1.13167
 C113 C 0.85948 0.33172 1.14096
 N114 N 0.86882 0.34101 1.15973
 C115 C 0.86001 0.85977 0.66807
 N116 N 0.84129 0.86912 0.65872
 C117 C 0.83194 0.85979 0.63998
 N118 N 0.84123 0.84103 0.63067
 C119 C 0.85995 0.83168 0.64001
 N120 N 0.86930 0.84101 0.65875
 C121 C 0.64036 0.64046 0.66835
 N122 N 0.63113 0.65925 0.65904
 C123 C 0.64054 0.66859 0.64033
 N124 N 0.65927 0.65922 0.63102
 C125 C 0.66851 0.64042 0.64033
 N126 N 0.65909 0.63108 0.65904
 C127 C 0.64048 1.14151 1.16932
 N128 N 0.63114 1.16022 1.15995
 C129 C 0.64048 1.16954 1.14119
 N130 N 0.65924 1.16021 1.13188
 C131 C 0.66858 1.14150 1.14125
 N132 N 0.65923 1.13219 1.16000
 C133 C 0.14081 0.64213 1.16983
 N134 N 0.15951 0.63277 1.16044
 C135 C 0.16885 0.64209 1.14169
 N136 N 0.15955 0.66086 1.13238
 C137 C 0.14086 0.67024 1.14175
 N138 N 0.13152 0.66091 1.16051
 C139 C 0.13989 1.14089 0.66795
 N140 N 0.13055 1.15960 0.65858
 C141 C 0.13992 1.16894 0.63984
 N142 N 0.15870 1.15964 0.63056
 C143 C 0.16804 1.14093 0.63993
 N144 N 0.15866 1.13159 0.65866
 C145 C 1.35987 0.64047 0.33090
 N146 N 1.34114 0.63117 0.34028
 C147 C 1.33183 0.64053 0.35903
 N148 N 1.34118 0.65927 0.36833
 C149 C 1.35992 0.66857 0.35896
 N150 N 1.36922 0.65921 0.34021
 C151 C 1.35932 1.14151 0.83026
 N152 N 1.36866 1.16023 0.83963
 C153 C 1.35931 1.16955 0.85839
 N154 N 1.34056 1.16023 0.86769
 C155 C 1.33121 1.14152 0.85832
 N156 N 1.34056 1.13220 0.83957
 C157 C 0.85940 0.64058 0.83161
 N158 N 0.84063 0.63127 0.84090
 C159 C 0.83124 0.64062 0.85962
 N160 N 0.84055 0.65936 0.86896
 C161 C 0.85931 0.66868 0.85967
 N162 N 0.86870 0.65932 0.84096
 C163 C 0.85974 1.14146 0.33074
 N164 N 0.84095 1.13219 0.34004
 C165 C 0.83160 1.14154 0.35877
 N166 N 0.84097 1.16024 0.36814
 C167 C 0.85976 1.16952 0.35885
 N168 N 0.86911 1.16016 0.34012
 C169 C 0.64014 0.35903 0.33203
 N170 N 0.63080 0.34031 0.34139
 C171 C 0.64015 0.33096 0.36011
 N172 N 0.65892 0.34025 0.36941
 C173 C 0.66827 0.35897 0.36005
 N174 N 0.65891 0.36832 0.34132
 C175 C 0.64012 0.85978 0.83191
 N176 N 0.63077 0.84104 0.84121
 C177 C 0.64009 0.83166 0.85994
 N178 N 0.65885 0.84094 0.86928
 C179 C 0.66820 0.85968 0.85998
 N180 N 0.65887 0.86906 0.84126
 C181 C 0.14058 0.35817 0.83026
 N182 N 0.15931 0.36748 0.83962
 C183 C 0.16860 0.35817 0.85841
 N184 N 0.15921 0.33948 0.86777
 C185 C 0.14047 0.33015 0.85842
 N186 N 0.13120 0.33947 0.83963
 C187 C 0.14044 0.85953 0.33083
 N188 N 0.13110 0.84081 0.34019
 C189 C 0.14042 0.83149 0.35895
 N190 N 0.15916 0.84082 0.36828
 C191 C 0.16851 0.85954 0.35893
 N192 N 0.15918 0.86885 0.34017
 O193 O 1.08178 1.02229 1.11277
 O194 O 1.10807 1.02233 1.13917
 C195 C 1.08969 1.03001 1.13117
 C196 C 1.07764 1.04845 1.14303
 C197 C 1.08509 1.05615 1.16421
 H198 H 1.09940 1.04820 1.17240
 O199 O 0.91856 0.97830 1.11290
 O200 O 0.89233 0.97826 1.13937
 C201 C 0.91069 0.97058 1.13132
 C202 C 0.92278 0.95214 1.14315
 C203 C 0.91540 0.94447 1.16437
 H204 H 0.90112 0.95245 1.17262
 O205 O 1.02218 1.11265 1.08184
 O206 O 1.02221 1.13910 1.10807
 C207 C 1.02988 1.13106 1.08970
 C208 C 1.04830 1.14290 1.07759
 C209 C 1.05598 1.16410 1.08500
 H210 H 1.04801 1.17230 1.09930
 O211 O 0.97819 0.88783 1.08187
 O212 O 0.97813 0.86142 1.10815
 C213 C 0.97046 0.86944 1.08976
 C214 C 0.95203 0.85761 1.07767
 C215 C 0.94443 0.83636 1.08499
 H216 H 0.95245 0.82810 1.09923
 O217 O 1.11262 1.08182 1.02208
 O218 O 1.13902 1.10808 1.02209
 C219 C 1.13102 1.08972 1.02979
 C220 C 1.14286 1.07766 1.04825
 C221 C 1.16407 1.08506 1.05591
 H222 H 1.17229 1.09933 1.04792
 O223 O 0.88757 0.91881 1.02238
 O224 O 0.86116 0.89255 1.02242
 C225 C 0.86918 0.91091 1.03011
 C226 C 0.85734 0.92297 1.04857
 C227 C 0.83613 0.91558 1.05622
 H228 H 0.82791 0.90131 1.04822
 O229 O 0.97815 1.08178 1.11288
 O230 O 0.97813 1.10808 1.13927
 C231 C 0.97044 1.08971 1.13128
 C232 C 0.95199 1.07767 1.14316
 C233 C 0.94433 1.08512 1.16436
 H234 H 0.95232 1.09941 1.17256
 O235 O 1.02222 0.91873 1.11283
 O236 O 1.02223 0.89248 1.13928
 C237 C 1.02992 0.91084 1.13124
 C238 C 1.04837 0.92290 1.14308
 C239 C 1.05604 0.91550 1.16430
 H240 H 1.04806 0.90123 1.17253
 O241 O 1.11268 0.97825 1.08180
 O242 O 1.13913 0.97823 1.10803
 C243 C 1.13109 0.97055 1.08966
 C244 C 1.14292 0.95213 1.07756
 C245 C 1.16416 0.94449 1.08489
 H246 H 1.17241 0.95248 1.09916
 O247 O 0.88759 1.02234 1.08200
 O248 O 0.86119 1.02236 1.10831
 C249 C 0.86919 1.03004 1.08991
 C250 C 0.85732 1.04846 1.07782
 C251 C 0.83613 1.05613 1.08525
 H252 H 0.82794 1.04818 1.09958
 O253 O 0.91843 1.11259 1.02220
 O254 O 0.89222 1.13904 1.02229
 C255 C 0.91059 1.13099 1.02994
 C256 C 0.92272 1.14282 1.04836
 C257 C 0.91539 1.16406 1.05598
 H258 H 0.90113 1.17230 1.04799
 O259 O 1.08174 0.88771 1.02230
 O260 O 1.10800 0.86131 1.02230
 C261 C 1.08965 0.86932 1.03002
 C262 C 1.07762 0.85750 1.04852
 C263 C 1.08509 0.83635 1.05627
 H264 H 1.09939 0.82815 1.04831
 O265 O 0.91851 1.02234 1.11294
 O266 O 0.89228 1.02237 1.13941
 C267 C 0.91064 1.03005 1.13136
 C268 C 0.92272 1.04849 1.14320
 C269 C 0.91532 1.05620 1.16440
 H270 H 0.90102 1.04826 1.17263
 O271 O 1.08177 0.97825 1.11277
 O272 O 1.10806 0.97822 1.13917
 C273 C 1.08968 0.97054 1.13118
 C274 C 1.07762 0.95211 1.14305
 C275 C 1.08503 0.94444 1.16426
 H276 H 1.09932 0.95241 1.17247
 O277 O 1.02224 0.88776 1.08193
 O278 O 1.02224 0.86136 1.10822
 C279 C 1.02994 0.86937 1.08984
 C280 C 1.04840 0.85752 1.07779
 C281 C 1.05613 0.83637 1.08527
 H282 H 1.04818 0.82819 1.09960
 O283 O 0.97813 1.11259 1.08182
 O284 O 0.97810 1.13905 1.10805
 C285 C 0.97042 1.13100 1.08969
 C286 C 0.95198 1.14283 1.07759
 C287 C 0.94438 1.16407 1.08494
 H288 H 0.95240 1.17231 1.09919
 O289 O 0.88744 1.08175 1.02224
 O290 O 0.86106 1.10804 1.02233
 C291 C 0.86907 1.08966 1.03000
 C292 C 0.85726 1.07762 1.04850
 C293 C 0.83607 1.08503 1.05620
 H294 H 0.82784 1.09929 1.04820
 O295 O 1.11259 0.91869 1.02221
 O296 O 1.13901 0.89245 1.02219
 C297 C 1.13101 0.91082 1.02989
 C298 C 1.14288 0.92290 1.04830
 C299 C 1.16411 0.91554 1.05590
 H300 H 1.17233 0.90127 1.04788
 O301 O 0.97817 0.91873 1.11284
 O302 O 0.97812 0.89248 1.13928
 C303 C 0.97045 0.91084 1.13125
 C304 C 0.95201 0.92292 1.14311
 C305 C 0.94437 0.91552 1.16434
 H306 H 0.95235 0.90124 1.17255
 O307 O 1.02220 1.08178 1.11283
 O308 O 1.02224 1.10807 1.13922
 C309 C 1.02993 1.08970 1.13122
 C310 C 1.04839 1.07767 1.14306
 C311 C 1.05612 1.08511 1.16425
 H312 H 1.04816 1.09940 1.17247
 O313 O 0.88758 0.97831 1.08202
 O314 O 0.86118 0.97826 1.10832
 C315 C 0.86919 0.97059 1.08993
 C316 C 0.85734 0.95217 1.07785
 C317 C 0.83613 0.94451 1.08524
 H318 H 0.82791 0.95248 1.09954
 O319 O 1.11263 1.02229 1.08175
 O320 O 1.13908 1.02233 1.10799
 C321 C 1.13103 1.03000 1.08962
 C322 C 1.14286 1.04844 1.07752
 C323 C 1.16407 1.05610 1.08491
 H324 H 1.17229 1.04812 1.09920
 O325 O 0.91854 0.88794 1.02233
 O326 O 0.89229 0.86152 1.02238
 C327 C 0.91067 0.86953 1.03004
 C328 C 0.92277 0.85767 1.04845
 C329 C 0.91544 0.83642 1.05603
 H330 H 0.90118 0.82819 1.04802
 O331 O 1.08167 1.11270 1.02210
 O332 O 1.10791 1.13913 1.02212
 C333 C 1.08956 1.13110 1.02982
 C334 C 1.07750 1.14292 1.04830
 C335 C 1.08491 1.16411 1.05597
 H336 H 1.09918 1.17234 1.04797
 Cu337 Cu 1.09458 1.00026 1.09465
 Cu338 Cu 1.12623 1.00028 1.12624
 Cu339 Cu 0.90569 1.00033 1.09483
 Cu340 Cu 0.87410 1.00031 1.12651
 Cu341 Cu 1.00016 1.09456 1.09472
 Cu342 Cu 1.00017 1.12623 1.12630
 Cu343 Cu 1.00021 0.90589 1.09473
 Cu344 Cu 1.00017 0.87429 1.12638
 C345 C 1.05914 1.05918 1.13270
 H346 H 1.05348 1.05354 1.11623
 C347 C 1.07435 1.07436 1.17479
 C348 C 0.94124 0.94139 1.13276
 H349 H 0.94684 0.94700 1.11626
 C350 C 0.92618 0.92628 1.17493
 C351 C 1.05904 1.13256 1.05909
 H352 H 1.05343 1.11608 1.05347
 C353 C 1.07416 1.17467 1.07420
 C354 C 0.94123 0.86802 1.05924
 H355 H 0.94679 0.88454 1.05369
 C356 C 0.92626 0.82580 1.07417
 C357 C 1.13251 1.05919 1.05903
 H358 H 1.11602 1.05358 1.05343
 C359 C 1.17464 1.07428 1.07412
 C360 C 0.86769 0.94142 1.05935
 H361 H 0.88418 0.94703 1.05374
 C362 C 0.82556 0.92634 1.07444
 C363 C 0.94122 1.05920 1.13282
 H364 H 0.94683 1.05356 1.11634
 C365 C 0.92611 1.07439 1.17495
 C366 C 1.05914 0.94136 1.13271
 H367 H 1.05352 0.94697 1.11622
 C368 C 1.07425 0.92626 1.17485
 C369 C 1.13253 0.94135 1.05910
 H370 H 1.11603 0.94694 1.05354
 C371 C 1.17472 0.92632 1.07407
 C372 C 0.86764 1.05918 1.05929
 H373 H 0.88411 1.05357 1.05365
 C374 C 0.82554 1.07430 1.07445
 C375 C 0.94117 1.13245 1.05914
 H376 H 0.94673 1.11593 1.05357
 C377 C 0.92621 1.17465 1.07414
 C378 C 1.05912 0.86784 1.05926
 H379 H 1.05346 0.88428 1.05359
 C380 C 1.07435 0.82582 1.07453
 O381 O 1.08165 0.97818 0.88753
 O382 O 1.10789 0.97815 0.86107
 C383 C 1.08953 0.97047 0.86912
 C384 C 1.07747 0.95202 0.85729
 C385 C 1.08489 0.94432 0.83608
 H386 H 1.09918 0.95229 0.82786
 O387 O 0.91832 1.02240 0.88757
 O388 O 0.89206 1.02236 0.86114
 C389 C 0.91041 1.03008 0.86915
 C390 C 0.92245 1.04853 0.85729
 C391 C 0.91497 1.05624 0.83611
 H392 H 0.90065 1.04829 0.82793
 O393 O 0.97792 1.11269 0.91853
 O394 O 0.97791 1.13911 0.89226
 C395 C 0.97022 1.13109 0.91064
 C396 C 0.95179 1.14293 0.92273
 C397 C 0.94414 1.16414 0.91534
 H398 H 0.95213 1.17236 0.90106
 O399 O 1.02204 0.88783 0.91861
 O400 O 1.02202 0.86139 0.89236
 C401 C 1.02971 0.86941 0.91074
 C402 C 1.04810 0.85754 0.92285
 C403 C 1.05563 0.83625 0.91555
 H404 H 1.04759 0.82801 0.90131
 O405 O 1.11257 0.91863 0.97813
 O406 O 1.13897 0.89237 0.97805
 C407 C 1.13095 0.91074 0.97037
 C408 C 1.14277 0.92280 0.95190
 C409 C 1.16396 0.91539 0.94419
 H410 H 1.17217 0.90110 0.95216
 O411 O 0.88735 1.08180 0.97814
 O412 O 0.86098 1.10810 0.97816
 C413 C 0.86897 1.08973 0.97044
 C414 C 0.85712 1.07772 0.95195
 C415 C 0.83598 1.08521 0.94419
 H416 H 0.82779 1.09952 0.95215
 O417 O 1.02193 1.08173 0.88757
 O418 O 1.02197 1.10798 0.86113
 C419 C 1.02964 1.08961 0.86915
 C420 C 1.04804 1.07751 0.85729
 C421 C 1.05561 1.08483 0.83601
 H422 H 1.04758 1.09907 0.82776
 O423 O 0.97804 0.91880 0.88767
 O424 O 0.97798 0.89254 0.86125
 C425 C 0.97032 0.91092 0.86926
 C426 C 0.95192 0.92302 0.85740
 C427 C 0.94435 0.91569 0.83612
 H428 H 0.95238 0.90146 0.82787
 O429 O 1.11257 1.02226 0.91843
 O430 O 1.13896 1.02229 0.89211
 C431 C 1.13095 1.02998 0.91050
 C432 C 1.14279 1.04844 0.92254
 C433 C 1.16395 1.05616 0.91506
 H434 H 1.17214 1.04820 0.90074
 O435 O 0.88748 0.97836 0.91860
 O436 O 0.86106 0.97825 0.89233
 C437 C 0.86909 0.97061 0.91072
 C438 C 0.85727 0.95220 0.92285
 C439 C 0.83603 0.94456 0.91553
 H440 H 0.82778 0.95254 0.90125
 O441 O 1.08165 1.11272 0.97801
 O442 O 1.10788 1.13915 0.97797
 C443 C 1.08952 1.13112 0.97029
 C444 C 1.07743 1.14295 0.95183
 C445 C 1.08484 1.16413 0.94412
 H446 H 1.09914 1.17235 0.95207
 O447 O 0.91847 0.88792 0.97825
 O448 O 0.89222 0.86150 0.97825
 C449 C 0.91058 0.86952 0.97055
 C450 C 0.92264 0.85767 0.95210
 C451 C 0.91527 0.83644 0.94449
 H452 H 0.90101 0.82822 0.95252
 O453 O 0.91841 0.97836 0.88765
 O454 O 0.89216 0.97826 0.86121
 C455 C 0.91054 0.97062 0.86924
 C456 C 0.92267 0.95222 0.85739
 C457 C 0.91537 0.94463 0.83611
 H458 H 0.90112 0.95263 0.82785
 O459 O 1.08157 1.02222 0.88757
 O460 O 1.10779 1.02225 0.86109
 C461 C 1.08942 1.02991 0.86914
 C462 C 1.07730 1.04831 0.85728
 C463 C 1.08460 1.05590 0.83599
 H464 H 1.09885 1.04789 0.82773
 O465 O 0.97801 0.88786 0.91859
 O466 O 0.97793 0.86143 0.89233
 C467 C 0.97027 0.86946 0.91071
 C468 C 0.95185 0.85764 0.92282
 C469 C 0.94421 0.83641 0.91548
 H470 H 0.95220 0.82816 0.90120
 O471 O 1.02198 1.11271 0.91846
 O472 O 1.02202 1.13912 0.89218
 C473 C 1.02970 1.13110 0.91056
 C474 C 1.04816 1.14293 0.92261
 C475 C 1.05584 1.16412 0.91517
 H476 H 1.04785 1.17232 0.90088
 O477 O 0.88757 0.91885 0.97829
 O478 O 0.86116 0.89259 0.97828
 C479 C 0.86917 0.91096 0.97059
 C480 C 0.85730 0.92302 0.95215
 C481 C 0.83606 0.91565 0.94456
 H482 H 0.82784 0.90140 0.95260
 O483 O 1.11260 1.08183 0.97799
 O484 O 1.13899 1.10810 0.97794
 C485 C 1.13098 1.08973 0.97025
 C486 C 1.14280 1.07768 0.95178
 C487 C 1.16396 1.08514 0.94403
 H488 H 1.17216 1.09944 0.95198
 O489 O 1.02209 0.91868 0.88759
 O490 O 1.02208 0.89240 0.86118
 C491 C 1.02979 0.91076 0.86918
 C492 C 1.04824 0.92280 0.85732
 C493 C 1.05592 0.91536 0.83611
 H494 H 1.04795 0.90107 0.82791
 O495 O 0.97788 1.08187 0.88749
 O496 O 0.97786 1.10813 0.86106
 C497 C 0.97016 1.08978 0.86908
 C498 C 0.95169 1.07775 0.85725
 C499 C 0.94394 1.08521 0.83608
 H500 H 0.95188 1.09951 0.82786
 O501 O 0.88740 1.02239 0.91852
 O502 O 0.86098 1.02235 0.89225
 C503 C 0.86899 1.03007 0.91061
 C504 C 0.85714 1.04852 0.92267
 C505 C 0.83600 1.05626 0.91518
 H506 H 0.82783 1.04833 0.90084
 O507 O 1.11254 0.97821 0.91851
 O508 O 1.13893 0.97818 0.89221
 C509 C 1.13092 0.97050 0.91060
 C510 C 1.14276 0.95205 0.92266
 C511 C 1.16395 0.94437 0.91522
 H512 H 1.17215 0.95235 0.90092
 O513 O 1.08159 0.88776 0.97822
 O514 O 1.10784 0.86133 0.97815
 C515 C 1.08946 0.86935 0.97050
 C516 C 1.07733 0.85751 0.95210
 C517 C 1.08460 0.83623 0.94453
 H518 H 1.09882 0.82796 0.95257
 O519 O 0.91834 1.11266 0.97812
 O520 O 0.89213 1.13911 0.97816
 C521 C 0.91047 1.13107 0.97044
 C522 C 0.92255 1.14292 0.95199
 C523 C 0.91516 1.16413 0.94433
 H524 H 0.90088 1.17235 0.95232
 Cu525 Cu 1.09446 1.00022 0.90565
 Cu526 Cu 1.12604 1.00022 0.87397
 Cu527 Cu 0.90553 1.00038 0.90571
 Cu528 Cu 0.87392 1.00029 0.87408
 Cu529 Cu 1.09451 1.09464 1.00005
 Cu530 Cu 1.12610 1.12626 1.00003
 Cu531 Cu 1.09449 0.90582 1.00022
 Cu532 Cu 1.12610 0.87422 1.00016
 Cu533 Cu 0.90551 1.09456 1.00017
 Cu534 Cu 0.87395 1.12622 1.00025
 Cu535 Cu 0.90566 0.90602 1.00031
 Cu536 Cu 0.87406 0.87439 1.00034
 Cu537 Cu 0.99992 1.09462 0.90564
 Cu538 Cu 0.99995 1.12623 0.87401
 Cu539 Cu 1.00005 0.90593 0.90574
 Cu540 Cu 1.00000 0.87429 0.87413
 C541 C 1.05899 0.94128 0.86765
 H542 H 1.05337 0.94692 0.88414
 C543 C 1.07412 0.92611 0.82553
 C544 C 0.94096 1.05925 0.86760
 H545 H 0.94663 1.05360 0.88406
 C546 C 0.92570 1.07447 0.82554
 C547 C 0.94101 1.13257 0.94121
 H548 H 0.94662 1.11608 0.94681
 C549 C 0.92595 1.17470 0.92613
 C550 C 1.05892 0.86792 0.94128
 H551 H 1.05341 0.88446 0.94681
 C552 C 1.07376 0.82563 0.92639
 C553 C 1.13242 0.94129 0.94116
 H554 H 1.11595 0.94691 0.94680
 C555 C 1.17451 0.92616 0.92597
 C556 C 0.86745 1.05922 0.94120
 H557 H 0.88388 1.05355 0.94688
 C558 C 0.82545 1.07449 0.92592
 C559 C 1.05886 1.05909 0.86768
 H560 H 1.05332 1.05354 0.88422
 C561 C 1.07377 1.07403 0.82539
 C562 C 0.94110 0.94144 0.86779
 H563 H 0.94664 0.94699 0.88433
 C564 C 0.92620 0.92649 0.82551
 C565 C 1.13247 1.05918 0.94105
 H566 H 1.11602 1.05353 0.94672
 C567 C 1.17450 1.07439 0.92579
 C568 C 0.86766 0.94145 0.94132
 H569 H 0.88416 0.94704 0.94688
 C570 C 0.82546 0.92641 0.92637
 C571 C 1.05894 1.13260 0.94110
 H572 H 1.05332 1.11613 0.94674
 C573 C 1.07405 1.17468 0.92591
 C574 C 0.94109 0.86802 0.94129
 H575 H 0.94668 0.88452 0.94686
 C576 C 0.92605 0.82584 0.92631
 O577 O 1.08180 0.52162 0.61235
 O578 O 1.10803 0.52170 0.63881
 C579 C 1.08965 0.52934 0.63077
 C580 C 1.07752 0.54773 0.64261
 C581 C 1.08479 0.55529 0.66391
 H582 H 1.09902 0.54727 0.67218
 O583 O 0.91870 0.47756 0.61252
 O584 O 0.89244 0.47754 0.63896
 C585 C 0.91082 0.46986 0.63094
 C586 C 0.92290 0.45145 0.64282
 C587 C 0.91551 0.44380 0.66405
 H588 H 0.90122 0.45178 0.67226
 O589 O 1.02223 0.61226 0.58149
 O590 O 1.02224 0.63864 0.60779
 C591 C 1.02994 0.63065 0.58941
 C592 C 1.04839 0.64250 0.57736
 C593 C 1.05608 0.66368 0.58479
 H594 H 1.04810 0.67189 0.59909
 O595 O 0.97823 0.38713 0.58164
 O596 O 0.97825 0.36072 0.60791
 C597 C 0.97053 0.36873 0.58954
 C598 C 0.95208 0.35689 0.57750
 C599 C 0.94432 0.33576 0.58501
 H600 H 0.95223 0.32759 0.59936
 O601 O 1.11269 0.58132 0.52191
 O602 O 1.13910 0.60758 0.52192
 C603 C 1.13109 0.58921 0.52962
 C604 C 1.14294 0.57715 0.54806
 C605 C 1.16412 0.58458 0.55575
 H606 H 1.17231 0.59889 0.54778
 O607 O 0.88785 0.41795 0.52197
 O608 O 0.86144 0.39169 0.52198
 C609 C 0.86945 0.41006 0.52968
 C610 C 0.85759 0.42213 0.54812
 C611 C 0.83637 0.41475 0.55577
 H612 H 0.82815 0.40048 0.54777
 O613 O 0.97817 0.58127 0.61236
 O614 O 0.97812 0.60750 0.63882
 C615 C 0.97045 0.58914 0.63078
 C616 C 0.95204 0.57704 0.64265
 C617 C 0.94441 0.58441 0.66389
 H618 H 0.95239 0.59869 0.67211
 O619 O 1.02233 0.41806 0.61250
 O620 O 1.02241 0.39179 0.63891
 C621 C 1.03008 0.41016 0.63089
 C622 C 1.04855 0.42220 0.64271
 C623 C 1.05628 0.41475 0.66389
 H624 H 1.04832 0.40045 0.67210
 O625 O 1.11284 0.47763 0.58146
 O626 O 1.13924 0.47766 0.60775
 C627 C 1.13124 0.46995 0.58937
 C628 C 1.14309 0.45151 0.57731
 C629 C 1.16425 0.44379 0.58478
 H630 H 1.17244 0.45174 0.59910
 O631 O 0.88776 0.52155 0.58153
 O632 O 0.86134 0.52158 0.60781
 C633 C 0.86935 0.52925 0.58942
 C634 C 0.85749 0.54766 0.57732
 C635 C 0.83625 0.55526 0.58469
 H636 H 0.82803 0.54726 0.59897
 O637 O 0.91855 0.61208 0.52184
 O638 O 0.89228 0.63847 0.52191
 C639 C 0.91067 0.63047 0.52956
 C640 C 0.92277 0.64233 0.54797
 C641 C 0.91544 0.66359 0.55556
 H642 H 0.90118 0.67181 0.54755
 O643 O 1.08187 0.38732 0.52182
 O644 O 1.10811 0.36090 0.52183
 C645 C 1.08974 0.36891 0.52951
 C646 C 1.07763 0.35704 0.54793
 C647 C 1.08494 0.33576 0.55548
 H648 H 1.09918 0.32753 0.54744
 O649 O 0.91869 0.52160 0.61246
 O650 O 0.89243 0.52164 0.63890
 C651 C 0.91079 0.52932 0.63086
 C652 C 0.92285 0.54777 0.64269
 C653 C 0.91548 0.55541 0.66394
 H654 H 0.90123 0.54741 0.67219
 O655 O 1.08194 0.47758 0.61243
 O656 O 1.10818 0.47760 0.63888
 C657 C 1.08984 0.46988 0.63085
 C658 C 1.07780 0.45142 0.64270
 C659 C 1.08526 0.44369 0.66388
 H660 H 1.09957 0.45164 0.67208
 O661 O 1.02227 0.38723 0.58148
 O662 O 1.02235 0.36079 0.60773
 C663 C 1.03000 0.36883 0.58933
 C664 C 1.04840 0.35699 0.57719
 C665 C 1.05597 0.33572 0.58447
 H666 H 1.04795 0.32746 0.59871
 O667 O 0.97818 0.61215 0.58138
 O668 O 0.97813 0.63855 0.60767
 C669 C 0.97046 0.63054 0.58928
 C670 C 0.95203 0.64237 0.57719
 C671 C 0.94444 0.66363 0.58452
 H672 H 0.95247 0.67188 0.59876
 O673 O 0.88768 0.58111 0.52187
 O674 O 0.86124 0.60734 0.52194
 C675 C 0.86928 0.58897 0.52961
 C676 C 0.85746 0.57688 0.54805
 C677 C 0.83622 0.58422 0.55569
 H678 H 0.82798 0.59847 0.54769
 O679 O 1.11288 0.41816 0.52186
 O680 O 1.13928 0.39189 0.52187
 C681 C 1.13127 0.41025 0.52957
 C682 C 1.14311 0.42229 0.54805
 C683 C 1.16426 0.41483 0.55578
 H684 H 1.17246 0.40052 0.54783
 O685 O 0.97827 0.41808 0.61256
 O686 O 0.97829 0.39182 0.63899
 C687 C 0.97059 0.41018 0.63098
 C688 C 0.95215 0.42224 0.64284
 C689 C 0.94449 0.41486 0.66407
 H690 H 0.95248 0.40059 0.67230
 O691 O 1.02221 0.58121 0.61230
 O692 O 1.02221 0.60743 0.63877
 C693 C 1.02989 0.58907 0.63073
 C694 C 1.04828 0.57696 0.64260
 C695 C 1.05582 0.58425 0.66390
 H696 H 1.04778 0.59847 0.67215
 O697 O 0.88780 0.47751 0.58155
 O698 O 0.86138 0.47749 0.60783
 C699 C 0.86941 0.46980 0.58945
 C700 C 0.85757 0.45136 0.57737
 C701 C 0.83635 0.44372 0.58475
 H702 H 0.82812 0.45171 0.59903
 O703 O 1.11279 0.52168 0.58147
 O704 O 1.13918 0.52177 0.60776
 C705 C 1.13117 0.52943 0.58938
 C706 C 1.14298 0.54790 0.57731
 C707 C 1.16416 0.55561 0.58473
 H708 H 1.17238 0.54765 0.59903
 O709 O 0.91877 0.38704 0.52198
 O710 O 0.89251 0.36062 0.52199
 C711 C 0.91086 0.36865 0.52970
 C712 C 0.92289 0.35684 0.54820
 C713 C 0.91540 0.33571 0.55598
 H714 H 0.90109 0.32751 0.54802
 O715 O 1.08179 0.61226 0.52194
 O716 O 1.10804 0.63867 0.52195
 C717 C 1.08969 0.63065 0.52965
 C718 C 1.07763 0.64249 0.54811
 C719 C 1.08505 0.66367 0.55580
 H720 H 1.09934 0.67188 0.54782
 Cu721 Cu 1.09472 0.49962 0.59429
 Cu722 Cu 1.12630 0.49969 0.62595
 Cu723 Cu 0.90587 0.49955 0.59438
 Cu724 Cu 0.87425 0.49956 0.62602
 Cu725 Cu 1.00020 0.59410 0.59424
 Cu726 Cu 1.00017 0.62568 0.62592
 Cu727 Cu 1.00027 0.40526 0.59441
 Cu728 Cu 1.00033 0.37363 0.62603
 C729 C 1.05911 0.55854 0.63220
 H730 H 1.05359 0.55301 0.61565
 C731 C 1.07395 0.57342 0.67452
 C732 C 0.94138 0.44069 0.63247
 H733 H 0.94698 0.44630 0.61596
 C734 C 0.92629 0.42563 0.67464
 C735 C 1.05914 0.63215 0.55886
 H736 H 1.05352 0.61569 0.55323
 C737 C 1.07429 0.67424 0.57402
 C738 C 0.94138 0.36718 0.55894
 H739 H 0.94706 0.38361 0.55325
 C740 C 0.92610 0.32520 0.57426
 C741 C 1.13262 0.55865 0.55882
 H742 H 1.11615 0.55300 0.55319
 C743 C 1.17470 0.57383 0.57396
 C744 C 0.86795 0.44059 0.55890
 H745 H 0.88444 0.44618 0.55331
 C746 C 0.82579 0.42554 0.57396
 C747 C 0.94128 0.55857 0.63229
 H748 H 0.94687 0.55298 0.61578
 C749 C 0.92625 0.57361 0.67450
 C750 C 1.05929 0.44069 0.63236
 H751 H 1.05363 0.44635 0.61590
 C752 C 1.07450 0.42547 0.67444
 C753 C 1.13277 0.44078 0.55879
 H754 H 1.11632 0.44643 0.55313
 C755 C 1.17480 0.42557 0.57403
 C756 C 0.86784 0.55844 0.55884
 H757 H 0.88435 0.55288 0.55325
 C758 C 0.82565 0.57342 0.57388
 C759 C 0.94122 0.63197 0.55876
 H760 H 0.94678 0.61546 0.55321
 C761 C 0.92627 0.67420 0.57371
 C762 C 1.05921 0.36741 0.55876
 H763 H 1.05366 0.38394 0.55324
 C764 C 1.07412 0.32514 0.57362
 O765 O 1.08177 0.47781 0.38716
 O766 O 1.10803 0.47780 0.36073
 C767 C 1.08966 0.47011 0.36875
 C768 C 1.07761 0.45168 0.35690
 C769 C 1.08501 0.44404 0.33567
 H770 H 1.09927 0.45204 0.32744
 O771 O 0.91867 0.52160 0.38736
 O772 O 0.89244 0.52160 0.36091
 C773 C 0.91081 0.52928 0.36893
 C774 C 0.92292 0.54767 0.35706
 C775 C 0.91564 0.55521 0.33576
 H776 H 0.90141 0.54717 0.32750
 O777 O 0.97813 0.61217 0.41819
 O778 O 0.97805 0.63858 0.39191
 C779 C 0.97037 0.63055 0.41029
 C780 C 0.95190 0.64235 0.42236
 C781 C 0.94421 0.66354 0.41494
 H782 H 0.95219 0.67177 0.40065
 O783 O 1.02237 0.38725 0.41813
 O784 O 1.02242 0.36084 0.39185
 C785 C 1.03010 0.36887 0.41023
 C786 C 1.04856 0.35705 0.42230
 C787 C 1.05625 0.33587 0.41488
 H788 H 1.04829 0.32765 0.40058
 O789 O 1.11281 0.41827 0.47776
 O790 O 1.13922 0.39202 0.47771
 C791 C 1.13120 0.41039 0.47003
 C792 C 1.14302 0.42246 0.45157
 C793 C 1.16423 0.41509 0.44389
 H794 H 1.17247 0.40083 0.45188
 O795 O 0.88760 0.58116 0.47779
 O796 O 0.86117 0.60740 0.47779
 C797 C 0.86920 0.58904 0.47009
 C798 C 0.85737 0.57699 0.45162
 C799 C 0.83619 0.58441 0.44390
 H800 H 0.82798 0.59871 0.45187
 O801 O 1.02228 0.58138 0.38725
 O802 O 1.02226 0.60765 0.36084
 C803 C 1.02999 0.58930 0.36885
 C804 C 1.04847 0.57731 0.35699
 C805 C 1.05623 0.58485 0.33586
 H806 H 1.04828 0.59918 0.32770
 O807 O 0.97825 0.41809 0.38723
 O808 O 0.97824 0.39185 0.36079
 C809 C 0.97054 0.41020 0.36883
 C810 C 0.95208 0.42224 0.35700
 C811 C 0.94441 0.41485 0.33578
 H812 H 0.95241 0.40060 0.32753
 O813 O 1.11267 0.52183 0.41814
 O814 O 1.13911 0.52187 0.39188
 C815 C 1.13108 0.52954 0.41026
 C816 C 1.14291 0.54796 0.42237
 C817 C 1.16414 0.55560 0.41499
 H818 H 1.17237 0.54762 0.40071
 O819 O 0.88775 0.47758 0.41832
 O820 O 0.86133 0.47753 0.39205
 C821 C 0.86936 0.46986 0.41044
 C822 C 0.85753 0.45143 0.42254
 C823 C 0.83628 0.44383 0.41523
 H824 H 0.82801 0.45184 0.40099
 O825 O 1.08174 0.61225 0.47786
 O826 O 1.10798 0.63867 0.47781
 C827 C 1.08961 0.63066 0.47014
 C828 C 1.07750 0.64251 0.45173
 C829 C 1.08481 0.66376 0.44412
 H830 H 1.09906 0.67201 0.45213
 O831 O 0.91881 0.38706 0.47788
 O832 O 0.89256 0.36064 0.47783
 C833 C 0.91093 0.36867 0.47015
 C834 C 0.92300 0.35685 0.45168
 C835 C 0.91562 0.33565 0.44400
 H836 H 0.90135 0.32742 0.45199
 O837 O 0.91861 0.47757 0.38732
 O838 O 0.89236 0.47751 0.36089
 C839 C 0.91073 0.46985 0.36891
 C840 C 0.92281 0.45143 0.35705
 C841 C 0.91541 0.44378 0.33583
 H842 H 0.90112 0.45175 0.32762
 O843 O 1.08184 0.52187 0.38713
 O844 O 1.10811 0.52192 0.36071
 C845 C 1.08975 0.52961 0.36873
 C846 C 1.07772 0.54809 0.35693
 C847 C 1.08521 0.55591 0.33579
 H848 H 1.09954 0.54800 0.32758
 O849 O 0.97832 0.38718 0.41819
 O850 O 0.97831 0.36078 0.39191
 C851 C 0.97063 0.36878 0.41030
 C852 C 0.95222 0.35691 0.42239
 C853 C 0.94457 0.33571 0.41498
 H854 H 0.95255 0.32751 0.40067
 O855 O 1.02218 0.61221 0.41828
 O856 O 1.02215 0.63864 0.39202
 C857 C 1.02984 0.63063 0.41040
 C858 C 1.04824 0.64250 0.42250
 C859 C 1.05582 0.66375 0.41516
 H860 H 1.04780 0.67199 0.40090
 O861 O 0.88786 0.41797 0.47789
 O862 O 0.86146 0.39171 0.47785
 C863 C 0.86946 0.41008 0.47018
 C864 C 0.85759 0.42218 0.45177
 C865 C 0.83634 0.41484 0.44420
 H866 H 0.82812 0.40059 0.45222
 O867 O 1.11267 0.58134 0.47782
 O868 O 1.13908 0.60760 0.47777
 C869 C 1.13106 0.58924 0.47009
 C870 C 1.14290 0.57717 0.45164
 C871 C 1.16412 0.58455 0.44400
 H872 H 1.17235 0.59881 0.45200
 O873 O 1.02230 0.41816 0.38719
 O874 O 1.02235 0.39192 0.36074
 C875 C 1.03001 0.41029 0.36876
 C876 C 1.04842 0.42240 0.35690
 C877 C 1.05610 0.41502 0.33567
 H878 H 1.04814 0.40073 0.32744
 O879 O 0.97824 0.58118 0.38732
 O880 O 0.97816 0.60743 0.36088
 C881 C 0.97053 0.58904 0.36890
 C882 C 0.95215 0.57691 0.35704
 C883 C 0.94459 0.58418 0.33574
 H884 H 0.95261 0.59841 0.32747
 O885 O 0.88765 0.52162 0.41822
 O886 O 0.86126 0.52163 0.39193
 C887 C 0.86926 0.52932 0.41031
 C888 C 0.85740 0.54776 0.42236
 C889 C 0.83623 0.55546 0.41491
 H890 H 0.82804 0.54749 0.40059
 O891 O 1.11271 0.47779 0.41809
 O892 O 1.13914 0.47778 0.39182
 C893 C 1.13111 0.47009 0.41020
 C894 C 1.14297 0.45167 0.42229
 C895 C 1.16418 0.44403 0.41488
 H896 H 1.17239 0.45202 0.40058
 O897 O 1.08195 0.38729 0.47774
 O898 O 1.10821 0.36089 0.47769
 C899 C 1.08984 0.36891 0.47001
 C900 C 1.07778 0.35707 0.45155
 C901 C 1.08521 0.33589 0.44386
 H902 H 1.09950 0.32769 0.45184
 O903 O 0.91852 0.61208 0.47776
 O904 O 0.89224 0.63847 0.47777
 C905 C 0.91061 0.63047 0.47006
 C906 C 0.92266 0.64232 0.45160
 C907 C 0.91523 0.66350 0.44392
 H908 H 0.90094 0.67170 0.45191
 Cu909 Cu 1.09461 0.49982 0.40526
 Cu910 Cu 1.12624 0.49984 0.37363
 Cu911 Cu 0.90580 0.49960 0.40544
 Cu912 Cu 0.87420 0.49957 0.37379
 Cu913 Cu 1.09459 0.59416 0.49988
 Cu914 Cu 1.12620 0.62578 0.49986
 Cu915 Cu 1.09475 0.40539 0.49980
 Cu916 Cu 1.12635 0.37378 0.49977
 Cu917 Cu 0.90572 0.59398 0.49981
 Cu918 Cu 0.87408 0.62556 0.49986
 Cu919 Cu 0.90595 0.40513 0.49993
 Cu920 Cu 0.87435 0.37351 0.49991
 Cu921 Cu 1.00021 0.59411 0.40539
 Cu922 Cu 1.00015 0.62572 0.37376
 Cu923 Cu 1.00031 0.40530 0.40532
 Cu924 Cu 1.00033 0.37370 0.37367
 C925 C 1.05916 0.44088 0.36726
 H926 H 1.05354 0.44647 0.38376
 C927 C 1.07427 0.42583 0.32509
 C928 C 0.94134 0.55849 0.36745
 H929 H 0.94686 0.55298 0.38401
 C930 C 0.92646 0.57334 0.32513
 C931 C 0.94115 0.63199 0.44084
 H932 H 0.94678 0.61552 0.44646
 C933 C 0.92600 0.67408 0.42571
 C934 C 1.05930 0.36741 0.44079
 H935 H 1.05367 0.38387 0.44642
 C936 C 1.07446 0.32532 0.42565
 C937 C 1.13264 0.44091 0.44078
 H938 H 1.11615 0.44650 0.44640
 C939 C 1.17478 0.42587 0.42567
 C940 C 0.86772 0.55851 0.44087
 H941 H 0.88418 0.55287 0.44653
 C942 C 0.82565 0.57366 0.42567
 C943 C 1.05919 0.55878 0.36728
 H944 H 1.05351 0.55306 0.38371
 C945 C 1.07448 0.57417 0.32529
 C946 C 0.94130 0.44068 0.36739
 H947 H 0.94691 0.44629 0.38389
 C948 C 0.92620 0.42561 0.32522
 C949 C 1.13255 0.55872 0.44085
 H950 H 1.11605 0.55312 0.44644
 C951 C 1.17470 0.57378 0.42580
 C952 C 0.86794 0.44063 0.44097
 H953 H 0.88446 0.44619 0.44651
 C954 C 0.82571 0.42566 0.42605
 C955 C 1.05905 0.63213 0.44094
 H956 H 1.05351 0.61561 0.44651
 C957 C 1.07398 0.67435 0.42596
 C958 C 0.94146 0.36723 0.44090
 H959 H 0.94705 0.38372 0.44652
 C960 C 0.92639 0.32511 0.42577
 O961 O 0.58173 1.02244 0.61249
 O962 O 0.60799 1.02238 0.63892
 C963 C 0.58963 1.03010 0.63091
 C964 C 0.57759 1.04853 0.64280
 C965 C 0.58507 1.05624 0.66398
 H966 H 0.59940 1.04829 0.67214
 O967 O 0.41843 0.97824 0.61253
 O968 O 0.39218 0.97821 0.63897
 C969 C 0.41054 0.97052 0.63094
 C970 C 0.42260 0.95207 0.64276
 C971 C 0.41517 0.94435 0.66395
 H972 H 0.40088 0.95230 0.67217
 O973 O 0.52210 1.11266 0.58162
 O974 O 0.52214 1.13909 0.60788
 C975 C 0.52982 1.13105 0.58950
 C976 C 0.54827 1.14288 0.57741
 C977 C 0.55593 1.16408 0.58480
 H978 H 0.54796 1.17231 0.59909
 O979 O 0.47798 0.88778 0.58149
 O980 O 0.47801 0.86137 0.60776
 C981 C 0.47030 0.86938 0.58939
 C982 C 0.45185 0.85754 0.57734
 C983 C 0.44415 0.83635 0.58477
 H984 H 0.45213 0.82814 0.59906
 O985 O 0.61278 1.08185 0.52192
 O986 O 0.63913 1.10816 0.52193
 C987 C 0.63115 1.08979 0.52964
 C988 C 0.64299 1.07776 0.54812
 C989 C 0.66415 1.08522 0.55587
 H990 H 0.67236 1.09952 0.54791
 O991 O 0.38750 0.91872 0.52198
 O992 O 0.36109 0.89247 0.52198
 C993 C 0.36910 0.91083 0.52969
 C994 C 0.35726 0.92287 0.54816
 C995 C 0.33607 0.91545 0.55585
 H996 H 0.32786 0.90116 0.54787
 O997 O 0.47805 1.08177 0.61260
 O998 O 0.47802 1.10804 0.63902
 C999 C 0.47033 1.08967 0.63100
 C1000 C 0.45186 1.07763 0.64285
 C1001 C 0.44416 1.08508 0.66403
 H1002 H 0.45213 1.09937 0.67225
 O1003 O 0.52201 0.91879 0.61236
 O1004 O 0.52209 0.89254 0.63880
 C1005 C 0.52974 0.91092 0.63076
 C1006 C 0.54815 0.92303 0.64262
 C1007 C 0.55572 0.91571 0.66389
 H1008 H 0.54770 0.90147 0.67215
 O1009 O 0.61258 0.97841 0.58144
 O1010 O 0.63899 0.97830 0.60772
 C1011 C 0.63097 0.97067 0.58932
 C1012 C 0.64282 0.95227 0.57719
 C1013 C 0.66407 0.94467 0.58451
 H1014 H 0.67231 0.95267 0.59878
 O1015 O 0.38752 1.02228 0.58159
 O1016 O 0.36109 1.02231 0.60787
 C1017 C 0.36912 1.02998 0.58948
 C1018 C 0.35728 1.04840 0.57738
 C1019 C 0.33603 1.05602 0.58472
 H1020 H 0.32779 1.04801 0.59899
 O1021 O 0.41848 1.11277 0.52202
 O1022 O 0.39223 1.13918 0.52208
 C1023 C 0.41059 1.13116 0.52976
 C1024 C 0.42266 1.14298 0.54823
 C1025 C 0.41524 1.16416 0.55594
 H1026 H 0.40096 1.17237 0.54798
 O1027 O 0.58164 0.88794 0.52178
 O1028 O 0.60791 0.86155 0.52182
 C1029 C 0.58954 0.86956 0.52950
 C1030 C 0.57746 0.85771 0.54795
 C1031 C 0.58485 0.83649 0.55559
 H1032 H 0.59913 0.82828 0.54759
 O1033 O 0.41841 1.02229 0.61257
 O1034 O 0.39215 1.02232 0.63900
 C1035 C 0.41052 1.03000 0.63098
 C1036 C 0.42259 1.04844 0.64283
 C1037 C 0.41515 1.05616 0.66402
 H1038 H 0.40083 1.04822 0.67223
 O1039 O 0.58164 0.97840 0.61238
 O1040 O 0.60788 0.97829 0.63882
 C1041 C 0.58951 0.97066 0.63078
 C1042 C 0.57739 0.95225 0.64262
 C1043 C 0.58470 0.94466 0.66390
 H1044 H 0.59894 0.95267 0.67216
 O1045 O 0.52204 0.88787 0.58142
 O1046 O 0.52212 0.86145 0.60769
 C1047 C 0.52978 0.86948 0.58930
 C1048 C 0.54822 0.85767 0.57721
 C1049 C 0.55588 0.83646 0.58458
 H1050 H 0.54789 0.82821 0.59885
 O1051 O 0.47805 1.11271 0.58168
 O1052 O 0.47803 1.13914 0.60794
 C1053 C 0.47034 1.13111 0.58956
 C1054 C 0.45190 1.14295 0.57749
 C1055 C 0.44421 1.16413 0.58493
 H1056 H 0.45218 1.17233 0.59923
 O1057 O 0.38757 1.08184 0.52199
 O1058 O 0.36115 1.10809 0.52204
 C1059 C 0.36917 1.08972 0.52971
 C1060 C 0.35731 1.07763 0.54813
 C1061 C 0.33607 1.08498 0.55573
 H1062 H 0.32784 1.09923 0.54772
 O1063 O 0.61257 0.91885 0.52176
 O1064 O 0.63900 0.89262 0.52180
 C1065 C 0.63097 0.91098 0.52948
 C1066 C 0.64282 0.92307 0.54791
 C1067 C 0.66407 0.91574 0.55550
 H1068 H 0.67231 0.90150 0.54746
 O1069 O 0.47797 0.91870 0.61243
 O1070 O 0.47799 0.89245 0.63886
 C1071 C 0.47028 0.91080 0.63085
 C1072 C 0.45183 0.92284 0.64272
 C1073 C 0.44413 0.91538 0.66391
 H1074 H 0.45210 0.90108 0.67210
 O1075 O 0.52211 1.08185 0.61267
 O1076 O 0.52214 1.10812 0.63909
 C1077 C 0.52984 1.08976 0.63107
 C1078 C 0.54832 1.07773 0.64289
 C1079 C 0.55608 1.08518 0.66406
 H1080 H 0.54812 1.09947 0.67229
 O1081 O 0.38749 0.97824 0.58161
 O1082 O 0.36108 0.97821 0.60789
 C1083 C 0.36910 0.97053 0.58951
 C1084 C 0.35726 0.95209 0.57743
 C1085 C 0.33607 0.94439 0.58486
 H1086 H 0.32786 0.95235 0.59917
 O1087 O 0.61267 1.02245 0.58154
 O1088 O 0.63907 1.02240 0.60782
 C1089 C 0.63107 1.03012 0.58945
 C1090 C 0.64294 1.04856 0.57740
 C1091 C 0.66409 1.05628 0.58489
 H1092 H 0.67226 1.04834 0.59922
 O1093 O 0.41842 0.88781 0.52196
 O1094 O 0.39217 0.86139 0.52196
 C1095 C 0.41053 0.86941 0.52966
 C1096 C 0.42260 0.85756 0.54811
 C1097 C 0.41517 0.83638 0.55580
 H1098 H 0.40087 0.82818 0.54783
 O1099 O 0.58172 1.11263 0.52197
 O1100 O 0.60792 1.13910 0.52198
 C1101 C 0.58958 1.13104 0.52969
 C1102 C 0.57750 1.14286 0.54815
 C1103 C 0.58489 1.16406 0.55581
 H1104 H 0.59917 1.17228 0.54781
 Cu1105 Cu 0.59453 1.00044 0.59433
 Cu1106 Cu 0.62613 1.00033 0.62597
 Cu1107 Cu 0.40560 1.00027 0.59445
 Cu1108 Cu 0.37398 1.00026 0.62609
 Cu1109 Cu 0.50008 1.09461 0.59452
 Cu1110 Cu 0.50008 1.12624 0.62613
 Cu1111 Cu 0.49999 0.90591 0.59429
 Cu1112 Cu 0.50007 0.87431 0.62593
 C1113 C 0.55906 1.05925 0.63251
 H1114 H 0.55338 1.05361 0.61605
 C1115 C 0.57433 1.07444 0.67457
 C1116 C 0.44108 0.94133 0.63239
 H1117 H 0.44672 0.94699 0.61592
 C1118 C 0.42592 0.92613 0.67449
 C1119 C 0.55903 1.13251 0.55893
 H1120 H 0.55342 1.11603 0.55332
 C1121 C 0.57413 1.17464 0.57401
 C1122 C 0.44109 0.86789 0.55885
 H1123 H 0.44672 0.88436 0.55322
 C1124 C 0.42594 0.82581 0.57401
 C1125 C 0.63265 1.05928 0.55886
 H1126 H 0.61620 1.05362 0.55319
 C1127 C 0.67467 1.07449 0.57414
 C1128 C 0.36760 0.94135 0.55892
 H1129 H 0.38407 0.94698 0.55329
 C1130 C 0.32551 0.92619 0.57408
 C1131 C 0.44110 1.05916 0.63249
 H1132 H 0.44674 1.05351 0.61602
 C1133 C 0.42592 1.07436 0.67459
 C1134 C 0.55896 0.94145 0.63223
 H1135 H 0.55341 0.94701 0.61569
 C1136 C 0.57387 0.92652 0.67450
 C1137 C 0.63243 0.94150 0.55873
 H1138 H 0.61592 0.94706 0.55318
 C1139 C 0.67466 0.92653 0.57367
 C1140 C 0.36767 1.05919 0.55893
 H1141 H 0.38418 1.05361 0.55336
 C1142 C 0.32546 1.07418 0.57391
 C1143 C 0.44114 1.13262 0.55899
 H1144 H 0.44677 1.11615 0.55334
 C1145 C 0.42601 1.17470 0.57417
 C1146 C 0.55899 0.86805 0.55874
 H1147 H 0.55339 0.88454 0.55314
 C1148 C 0.57407 0.82590 0.57378
 O1149 O 0.58162 0.97843 0.38716
 O1150 O 0.60786 0.97839 0.36070
 C1151 C 0.58950 0.97071 0.36875
 C1152 C 0.57742 0.95227 0.35692
 C1153 C 0.58479 0.94461 0.33569
 H1154 H 0.59906 0.95259 0.32744
 O1155 O 0.41844 1.02238 0.38731
 O1156 O 0.39218 1.02239 0.36089
 C1157 C 0.41055 1.03008 0.36890
 C1158 C 0.42260 1.04852 0.35704
 C1159 C 0.41518 1.05619 0.33583
 H1160 H 0.40089 1.04821 0.32763
 O1161 O 0.47797 1.11280 0.41822
 O1162 O 0.47795 1.13925 0.39198
 C1163 C 0.47027 1.13121 0.41035
 C1164 C 0.45183 1.14304 0.42245
 C1165 C 0.44413 1.16422 0.41504
 H1166 H 0.45208 1.17243 0.40072
 O1167 O 0.52214 0.88784 0.41818
 O1168 O 0.52215 0.86145 0.39189
 C1169 C 0.52985 0.86946 0.41026
 C1170 C 0.54830 0.85762 0.42231
 C1171 C 0.55599 0.83644 0.41487
 H1172 H 0.54801 0.82823 0.40057
 O1173 O 0.61256 0.91885 0.47768
 O1174 O 0.63899 0.89262 0.47766
 C1175 C 0.63096 0.91097 0.46996
 C1176 C 0.64280 0.92305 0.45151
 C1177 C 0.66401 0.91567 0.44385
 H1178 H 0.67224 0.90140 0.45184
 O1179 O 0.38754 1.08191 0.47791
 O1180 O 0.36113 1.10816 0.47790
 C1181 C 0.36914 1.08980 0.47020
 C1182 C 0.35730 1.07775 0.45173
 C1183 C 0.33611 1.08516 0.44404
 H1184 H 0.32789 1.09945 0.45202
 O1185 O 0.52203 1.08194 0.38722
 O1186 O 0.52206 1.10824 0.36083
 C1187 C 0.52975 1.08987 0.36882
 C1188 C 0.54820 1.07783 0.35695
 C1189 C 0.55587 1.08528 0.33575
 H1190 H 0.54789 1.09958 0.32755
 O1191 O 0.47806 0.91880 0.38733
 O1192 O 0.47801 0.89256 0.36088
 C1193 C 0.47034 0.91092 0.36892
 C1194 C 0.45191 0.92299 0.35708
 C1195 C 0.44428 0.91561 0.33584
 H1196 H 0.45229 0.90135 0.32761
 O1197 O 0.61258 1.02246 0.41807
 O1198 O 0.63898 1.02249 0.39177
 C1199 C 0.63098 1.03017 0.41016
 C1200 C 0.64283 1.04860 0.42224
 C1201 C 0.66400 1.05631 0.41480
 H1202 H 0.67219 1.04837 0.40047
 O1203 O 0.38754 0.97834 0.41828
 O1204 O 0.36112 0.97830 0.39201
 C1205 C 0.36914 0.97062 0.41039
 C1206 C 0.35730 0.95219 0.42248
 C1207 C 0.33609 0.94454 0.41508
 H1208 H 0.32787 0.95253 0.40080
 O1209 O 0.58169 1.11268 0.47789
 O1210 O 0.60788 1.13915 0.47785
 C1211 C 0.58952 1.13111 0.47019
 C1212 C 0.57739 1.14296 0.45179
 C1213 C 0.58469 1.16423 0.44422
 H1214 H 0.59893 1.17248 0.45224
 O1215 O 0.41846 0.88785 0.47788
 O1216 O 0.39222 0.86143 0.47782
 C1217 C 0.41059 0.86946 0.47015
 C1218 C 0.42270 0.85762 0.45172
 C1219 C 0.41537 0.83637 0.44410
 H1220 H 0.40112 0.82813 0.45210
 O1221 O 0.41846 0.97834 0.38733
 O1222 O 0.39221 0.97830 0.36090
 C1223 C 0.41058 0.97063 0.36892
 C1224 C 0.42266 0.95220 0.35707
 C1225 C 0.41529 0.94455 0.33583
 H1226 H 0.40102 0.95252 0.32759
 O1227 O 0.58164 1.02247 0.38715
 O1228 O 0.60788 1.02250 0.36069
 C1229 C 0.58952 1.03018 0.36873
 C1230 C 0.57745 1.04863 0.35690
 C1231 C 0.58486 1.05634 0.33570
 H1232 H 0.59915 1.04840 0.32747
 O1233 O 0.47809 0.88788 0.41828
 O1234 O 0.47804 0.86148 0.39199
 C1235 C 0.47038 0.86949 0.41038
 C1236 C 0.45196 0.85763 0.42248
 C1237 C 0.44437 0.83639 0.41513
 H1238 H 0.45239 0.82816 0.40086
 O1239 O 0.52202 1.11274 0.41828
 O1240 O 0.52205 1.13921 0.39206
 C1241 C 0.52972 1.13116 0.41043
 C1242 C 0.54814 1.14299 0.42255
 C1243 C 0.55571 1.16426 0.41525
 H1244 H 0.54768 1.17252 0.40101
 O1245 O 0.38752 0.91876 0.47789
 O1246 O 0.36112 0.89250 0.47783
 C1247 C 0.36913 0.91087 0.47016
 C1248 C 0.35730 0.92295 0.45172
 C1249 C 0.33609 0.91557 0.44406
 H1250 H 0.32787 0.90129 0.45204
 O1251 O 0.61268 1.08184 0.47782
 O1252 O 0.63904 1.10814 0.47777
 C1253 C 0.63104 1.08977 0.47007
 C1254 C 0.64286 1.07776 0.45157
 C1255 C 0.66404 1.08521 0.44385
 H1256 H 0.67225 1.09948 0.45185
 O1257 O 0.52211 0.91881 0.38728
 O1258 O 0.52211 0.89258 0.36083
 C1259 C 0.52980 0.91094 0.36885
 C1260 C 0.54821 0.92302 0.35697
 C1261 C 0.55585 0.91563 0.33574
 H1262 H 0.54787 0.90134 0.32753
 O1263 O 0.47798 1.08191 0.38725
 O1264 O 0.47795 1.10820 0.36086
 C1265 C 0.47027 1.08982 0.36886
 C1266 C 0.45182 1.07776 0.35701
 C1267 C 0.44413 1.08517 0.33580
 H1268 H 0.45209 1.09945 0.32757
 O1269 O 0.38754 1.02238 0.41829
 O1270 O 0.36113 1.02240 0.39202
 C1271 C 0.36915 1.03008 0.41040
 C1272 C 0.35731 1.04852 0.42248
 C1273 C 0.33611 1.05619 0.41506
 H1274 H 0.32791 1.04822 0.40076
 O1275 O 0.61256 0.97843 0.41808
 O1276 O 0.63896 0.97839 0.39179
 C1277 C 0.63095 0.97071 0.41018
 C1278 C 0.64279 0.95228 0.42226
 C1279 C 0.66401 0.94464 0.41486
 H1280 H 0.67223 0.95262 0.40058
 O1281 O 0.58170 0.88786 0.47769
 O1282 O 0.60798 0.86148 0.47768
 C1283 C 0.58961 0.86947 0.46999
 C1284 C 0.57755 0.85762 0.45154
 C1285 C 0.58497 0.83644 0.44384
 H1286 H 0.59927 0.82824 0.45180
 O1287 O 0.41849 1.11280 0.47792
 O1288 O 0.39223 1.13921 0.47793
 C1289 C 0.41059 1.13119 0.47022
 C1290 C 0.42264 1.14303 0.45175
 C1291 C 0.41520 1.16421 0.44407
 H1292 H 0.40092 1.17242 0.45206
 Cu1293 Cu 0.59447 1.00045 0.40525
 Cu1294 Cu 0.62606 1.00044 0.37359
 Cu1295 Cu 0.40563 1.00036 0.40543
 Cu1296 Cu 0.37401 1.00034 0.37380
 Cu1297 Cu 0.59460 1.09461 0.49990
 Cu1298 Cu 0.62614 1.12629 0.49988
 Cu1299 Cu 0.59448 0.90600 0.49973
 Cu1300 Cu 0.62612 0.87442 0.49974
 Cu1301 Cu 0.40565 1.09470 0.49996
 Cu1302 Cu 0.37404 1.12631 0.49999
 Cu1303 Cu 0.40560 0.90592 0.49993
 Cu1304 Cu 0.37400 0.87430 0.49989
 Cu1305 Cu 0.50000 1.09471 0.40537
 Cu1306 Cu 0.50001 1.12638 0.37379
 Cu1307 Cu 0.50011 0.90596 0.40540
 Cu1308 Cu 0.50007 0.87437 0.37375
 C1309 C 0.55897 0.94150 0.36731
 H1310 H 0.55338 0.94711 0.38382
 C1311 C 0.57401 0.92641 0.32513
 C1312 C 0.44108 1.05928 0.36738
 H1313 H 0.44671 1.05366 0.38386
 C1314 C 0.42593 1.07439 0.32524
 C1315 C 0.44111 1.13269 0.44096
 H1316 H 0.44674 1.11622 0.44659
 C1317 C 0.42594 1.17477 0.42583
 C1318 C 0.55906 0.86796 0.44079
 H1319 H 0.55343 0.88443 0.44643
 C1320 C 0.57420 0.82588 0.42562
 C1321 C 0.63244 0.94151 0.44073
 H1322 H 0.61595 0.94710 0.44634
 C1323 C 0.67458 0.92645 0.42565
 C1324 C 0.36765 1.05927 0.44097
 H1325 H 0.38412 1.05365 0.44659
 C1326 C 0.32555 1.07439 0.42583
 C1327 C 0.55896 1.05935 0.36728
 H1328 H 0.55334 1.05371 0.38376
 C1329 C 0.57408 1.07455 0.32516
 C1330 C 0.44112 0.94144 0.36744
 H1331 H 0.44671 0.94704 0.38395
 C1332 C 0.42610 0.92638 0.32525
 C1333 C 0.63251 1.05930 0.44078
 H1334 H 0.61605 1.05366 0.44643
 C1335 C 0.67457 1.07449 0.42559
 C1336 C 0.36766 0.94142 0.44095
 H1337 H 0.38414 0.94702 0.44656
 C1338 C 0.32552 0.92635 0.42586
 C1339 C 0.55895 1.13258 0.44097
 H1340 H 0.55342 1.11605 0.44651
 C1341 C 0.57386 1.17485 0.42608
 C1342 C 0.44115 0.86800 0.44093
 H1343 H 0.44670 0.88451 0.44651
 C1344 C 0.42620 0.82580 0.42592
 O1345 O 0.47776 0.41788 0.88750
 O1346 O 0.47780 0.39165 0.86104
 C1347 C 0.47008 0.40999 0.86907
 C1348 C 0.45162 0.42203 0.85722
 C1349 C 0.44394 0.41457 0.83603
 H1350 H 0.45191 0.40027 0.82783
 O1351 O 0.52149 0.58130 0.88759
 O1352 O 0.52151 0.60753 0.86113
 C1353 C 0.52920 0.58918 0.86917
 C1354 C 0.54764 0.57711 0.85733
 C1355 C 0.55526 0.58445 0.83607
 H1356 H 0.54725 0.59869 0.82782
 O1357 O 0.38726 0.47734 0.91836
 O1358 O 0.36084 0.47732 0.89210
 C1359 C 0.36887 0.46962 0.91047
 C1360 C 0.35704 0.45117 0.92253
 C1361 C 0.33586 0.44346 0.91508
 H1362 H 0.32766 0.45142 0.90077
 O1363 O 0.61203 0.52186 0.91859
 O1364 O 0.63845 0.52193 0.89232
 C1365 C 0.63042 0.52960 0.91070
 C1366 C 0.64222 0.54805 0.92277
 C1367 C 0.66345 0.55570 0.91540
 H1368 H 0.67170 0.54770 0.90114
 O1369 O 0.41820 0.38693 0.97799
 O1370 O 0.39196 0.36050 0.97797
 C1371 C 0.41033 0.36853 0.97028
 C1372 C 0.42241 0.35670 0.95182
 C1373 C 0.41499 0.33553 0.94409
 H1374 H 0.40068 0.32731 0.95203
 O1375 O 0.58093 0.61234 0.97816
 O1376 O 0.60717 0.63877 0.97812
 C1377 C 0.58880 0.63074 0.97044
 C1378 C 0.57672 0.64257 0.95200
 C1379 C 0.58404 0.66381 0.94439
 H1380 H 0.59828 0.67206 0.95241
 O1381 O 0.41813 0.52146 0.88745
 O1382 O 0.39185 0.52149 0.86104
 C1383 C 0.41021 0.52919 0.86906
 C1384 C 0.42223 0.54767 0.85723
 C1385 C 0.41479 0.55536 0.83603
 H1386 H 0.40053 0.54735 0.82780
 O1387 O 0.58120 0.47775 0.88764
 O1388 O 0.60747 0.47778 0.86121
 C1389 C 0.58911 0.47007 0.86923
 C1390 C 0.57707 0.45163 0.85735
 C1391 C 0.58446 0.44407 0.83609
 H1392 H 0.59870 0.45213 0.82786
 O1393 O 0.52187 0.38703 0.91844
 O1394 O 0.52197 0.36065 0.89213
 C1395 C 0.52963 0.36867 0.91052
 C1396 C 0.54811 0.35688 0.92258
 C1397 C 0.55590 0.33575 0.91510
 H1398 H 0.54798 0.32754 0.90077
 O1399 O 0.47740 0.61220 0.91847
 O1400 O 0.47735 0.63860 0.89218
 C1401 C 0.46967 0.63058 0.91056
 C1402 C 0.45122 0.64240 0.92264
 C1403 C 0.44351 0.66358 0.91524
 H1404 H 0.45147 0.67182 0.90094
 O1405 O 0.38721 0.58101 0.97817
 O1406 O 0.36071 0.60717 0.97811
 C1407 C 0.36879 0.58881 0.97045
 C1408 C 0.35696 0.57666 0.95205
 C1409 C 0.33566 0.58389 0.94452
 H1410 H 0.32738 0.59809 0.95256
 O1411 O 0.61219 0.41815 0.97813
 O1412 O 0.63869 0.39199 0.97812
 C1413 C 0.63063 0.41033 0.97043
 C1414 C 0.64246 0.42247 0.95201
 C1415 C 0.66372 0.41517 0.94438
 H1416 H 0.67198 0.40092 0.95236
 O1417 O 0.47746 0.58125 0.88756
 O1418 O 0.47741 0.60749 0.86111
 C1419 C 0.46975 0.58911 0.86914
 C1420 C 0.45135 0.57700 0.85727
 C1421 C 0.44366 0.58442 0.83607
 H1422 H 0.45158 0.59874 0.82787
 O1423 O 0.52180 0.41801 0.88755
 O1424 O 0.52191 0.39179 0.86109
 C1425 C 0.52953 0.41017 0.86913
 C1426 C 0.54793 0.42232 0.85729
 C1427 C 0.55558 0.41502 0.83603
 H1428 H 0.54763 0.40075 0.82777
 O1429 O 0.61211 0.47781 0.91861
 O1430 O 0.63853 0.47784 0.89233
 C1431 C 0.63052 0.47014 0.91071
 C1432 C 0.64240 0.45174 0.92280
 C1433 C 0.66366 0.44418 0.91543
 H1434 H 0.67188 0.45222 0.90117
 O1435 O 0.38730 0.52137 0.91849
 O1436 O 0.36086 0.52141 0.89225
 C1437 C 0.36888 0.52906 0.91064
 C1438 C 0.35701 0.54743 0.92278
 C1439 C 0.33570 0.55494 0.91552
 H1440 H 0.32745 0.54690 0.90129
 O1441 O 0.41793 0.61213 0.97813
 O1442 O 0.39159 0.63845 0.97806
 C1443 C 0.40998 0.63049 0.97038
 C1444 C 0.42201 0.64234 0.95192
 C1445 C 0.41457 0.66353 0.94426
 H1446 H 0.40029 0.67173 0.95226
 O1447 O 0.58136 0.38714 0.97807
 O1448 O 0.60770 0.36082 0.97806
 C1449 C 0.58932 0.36878 0.97035
 C1450 C 0.57732 0.35693 0.95185
 C1451 C 0.58485 0.33580 0.94411
 H1452 H 0.59917 0.32764 0.95207
 O1453 O 0.58112 0.52179 0.88764
 O1454 O 0.60738 0.52186 0.86121
 C1455 C 0.58900 0.52951 0.86923
 C1456 C 0.57690 0.54790 0.85736
 C1457 C 0.58425 0.55551 0.83610
 H1458 H 0.59852 0.54752 0.82787
 O1459 O 0.41821 0.47740 0.88743
 O1460 O 0.39194 0.47737 0.86102
 C1461 C 0.41031 0.46969 0.86903
 C1462 C 0.42238 0.45124 0.85718
 C1463 C 0.41495 0.44352 0.83599
 H1464 H 0.40065 0.45146 0.82777
 O1465 O 0.52144 0.61225 0.91850
 O1466 O 0.52146 0.63865 0.89221
 C1467 C 0.52913 0.63065 0.91061
 C1468 C 0.54752 0.64253 0.92271
 C1469 C 0.55511 0.66377 0.91536
 H1470 H 0.54712 0.67199 0.90108
 O1471 O 0.47781 0.38698 0.91846
 O1472 O 0.47785 0.36059 0.89216
 C1473 C 0.47013 0.36858 0.91054
 C1474 C 0.45168 0.35672 0.92259
 C1475 C 0.44400 0.33555 0.91513
 H1476 H 0.45198 0.32736 0.90082
 O1477 O 0.61191 0.58149 0.97814
 O1478 O 0.63831 0.60776 0.97811
 C1479 C 0.63031 0.58939 0.97043
 C1480 C 0.64217 0.57731 0.95199
 C1481 C 0.66339 0.58469 0.94436
 H1482 H 0.67160 0.59897 0.95236
 O1483 O 0.38725 0.41781 0.97797
 O1484 O 0.36085 0.39155 0.97796
 C1485 C 0.36886 0.40991 0.97026
 C1486 C 0.35703 0.42195 0.95179
 C1487 C 0.33586 0.41451 0.94408
 H1488 H 0.32765 0.40021 0.95205
 Cu1489 Cu 0.49980 0.40510 0.90562
 Cu1490 Cu 0.49989 0.37352 0.87396
 Cu1491 Cu 0.49945 0.59412 0.90567
 Cu1492 Cu 0.49943 0.62571 0.87400
 Cu1493 Cu 0.40536 0.49939 0.90556
 Cu1494 Cu 0.37373 0.49940 0.87395
 Cu1495 Cu 0.59398 0.49980 0.90575
 Cu1496 Cu 0.62561 0.49986 0.87412
 C1497 C 0.44087 0.44051 0.86754
 H1498 H 0.44650 0.44617 0.88402
 C1499 C 0.42572 0.42530 0.82545
 C1500 C 0.55844 0.55868 0.86772
 H1501 H 0.55286 0.55311 0.88425
 C1502 C 0.57344 0.57366 0.82549
 C1503 C 0.36737 0.44043 0.94103
 H1504 H 0.38383 0.44608 0.94668
 C1505 C 0.32531 0.42525 0.92585
 C1506 C 0.63183 0.55884 0.94122
 H1507 H 0.61533 0.55324 0.94681
 C1508 C 0.67400 0.57390 0.92619
 C1509 C 0.44091 0.36705 0.94109
 H1510 H 0.44654 0.38350 0.94675
 C1511 C 0.42577 0.32499 0.92586
 C1512 C 0.55830 0.63217 0.94118
 H1513 H 0.55274 0.61566 0.94676
 C1514 C 0.57325 0.67438 0.92619
 C1515 C 0.44066 0.55848 0.86760
 H1516 H 0.44630 0.55285 0.88409
 C1517 C 0.42550 0.57361 0.82549
 C1518 C 0.55865 0.44078 0.86770
 H1519 H 0.55306 0.44632 0.88423
 C1520 C 0.57372 0.42589 0.82546
 C1521 C 0.55880 0.36722 0.94111
 H1522 H 0.55310 0.38365 0.94678
 C1523 C 0.57415 0.32524 0.92585
 C1524 C 0.44049 0.63203 0.94113
 H1525 H 0.44613 0.61556 0.94675
 C1526 C 0.42531 0.67412 0.92604
 C1527 C 0.36740 0.55827 0.94121
 H1528 H 0.38395 0.55279 0.94672
 C1529 C 0.32507 0.57304 0.92638
 C1530 C 0.63205 0.44090 0.94124
 H1531 H 0.61553 0.44644 0.94683
 C1532 C 0.67428 0.42602 0.92621
 O1533 O 0.52165 0.41804 1.11264
 O1534 O 0.52170 0.39181 1.13910
 C1535 C 0.52935 0.41019 1.13107
 C1536 C 0.54773 0.42232 1.14295
 C1537 C 0.55534 0.41498 1.16420
 H1538 H 0.54737 0.40069 1.17243
 O1539 O 0.47749 0.58127 1.11271
 O1540 O 0.47738 0.60750 1.13916
 C1541 C 0.46974 0.58913 1.13112
 C1542 C 0.45133 0.57701 1.14295
 C1543 C 0.44367 0.58435 1.16419
 H1544 H 0.45164 0.59863 1.17243
 O1545 O 0.38704 0.52158 1.08177
 O1546 O 0.36063 0.52155 1.10806
 C1547 C 0.36864 0.52927 1.08969
 C1548 C 0.35680 0.54774 1.07766
 C1549 C 0.33566 0.55549 1.08516
 H1550 H 0.32747 0.54755 1.09949
 O1551 O 0.61196 0.47782 1.08181
 O1552 O 0.63838 0.47781 1.10808
 C1553 C 0.63036 0.47013 1.08970
 C1554 C 0.64224 0.45172 1.07761
 C1555 C 0.66349 0.44416 1.08497
 H1556 H 0.67170 0.45219 1.09924
 O1557 O 0.58130 0.38713 1.02216
 O1558 O 0.60763 0.36080 1.02222
 C1559 C 0.58924 0.36876 1.02989
 C1560 C 0.57718 0.35690 1.04835
 C1561 C 0.58461 0.33572 1.05604
 H1562 H 0.59891 0.32752 1.04806
 O1563 O 0.41798 0.61211 1.02222
 O1564 O 0.39166 0.63846 1.02220
 C1565 C 0.41004 0.63050 1.02990
 C1566 C 0.42208 0.64239 1.04834
 C1567 C 0.41469 0.66361 1.05595
 H1568 H 0.40043 0.67182 1.04792
 O1569 O 0.41804 0.47754 1.11265
 O1570 O 0.39178 0.47746 1.13908
 C1571 C 0.41016 0.46981 1.13105
 C1572 C 0.42224 0.45138 1.14290
 C1573 C 0.41485 0.44373 1.16413
 H1574 H 0.40058 0.45172 1.17236
 O1575 O 0.58104 0.52185 1.11281
 O1576 O 0.60731 0.52188 1.13923
 C1577 C 0.58894 0.52956 1.13122
 C1578 C 0.57688 0.54800 1.14307
 C1579 C 0.58431 0.55570 1.16427
 H1580 H 0.59861 0.54773 1.17248
 O1581 O 0.47769 0.38702 1.08170
 O1582 O 0.47767 0.36063 1.10800
 C1583 C 0.46999 0.36862 1.08961
 C1584 C 0.45157 0.35676 1.07753
 C1585 C 0.44391 0.33557 1.08496
 H1586 H 0.45188 0.32737 1.09926
 O1587 O 0.52151 0.61231 1.08186
 O1588 O 0.52147 0.63870 1.10815
 C1589 C 0.52918 0.63071 1.08977
 C1590 C 0.54761 0.64258 1.07771
 C1591 C 0.55528 0.66377 1.08514
 H1592 H 0.54731 0.67196 1.09945
 O1593 O 0.38727 0.41787 1.02206
 O1594 O 0.36086 0.39161 1.02211
 C1595 C 0.36887 0.40999 1.02978
 C1596 C 0.35702 0.42207 1.04822
 C1597 C 0.33581 0.41468 1.05589
 H1598 H 0.32760 0.40039 1.04791
 O1599 O 0.61186 0.58144 1.02222
 O1600 O 0.63828 0.60770 1.02224
 C1601 C 0.63026 0.58933 1.02992
 C1602 C 0.64212 0.57724 1.04834
 C1603 C 0.66338 0.58457 1.05593
 H1604 H 0.67161 0.59882 1.04791
 O1605 O 0.52153 0.58139 1.11280
 O1606 O 0.52149 0.60763 1.13926
 C1607 C 0.52921 0.58928 1.13123
 C1608 C 0.54765 0.57723 1.14308
 C1609 C 0.55535 0.58466 1.16428
 H1610 H 0.54739 0.59896 1.17249
 O1611 O 0.47762 0.41795 1.11263
 O1612 O 0.47760 0.39173 1.13909
 C1613 C 0.46991 0.41008 1.13105
 C1614 C 0.45146 0.42214 1.14290
 C1615 C 0.44381 0.41476 1.16413
 H1616 H 0.45179 0.40049 1.17236
 O1617 O 0.61191 0.52186 1.08180
 O1618 O 0.63834 0.52190 1.10806
 C1619 C 0.63031 0.52958 1.08969
 C1620 C 0.64215 0.54800 1.07759
 C1621 C 0.66340 0.55560 1.08491
 H1622 H 0.67165 0.54758 1.09916
 O1623 O 0.38718 0.47753 1.08165
 O1624 O 0.36075 0.47744 1.10793
 C1625 C 0.36879 0.46979 1.08954
 C1626 C 0.35698 0.45134 1.07745
 C1627 C 0.33577 0.44368 1.08484
 H1628 H 0.32753 0.45167 1.09911
 O1629 O 0.58100 0.61241 1.02224
 O1630 O 0.60725 0.63883 1.02226
 C1631 C 0.58889 0.63080 1.02996
 C1632 C 0.57683 0.64263 1.04843
 C1633 C 0.58424 0.66381 1.05613
 H1634 H 0.59851 0.67204 1.04815
 O1635 O 0.41818 0.38694 1.02208
 O1636 O 0.39194 0.36052 1.02212
 C1637 C 0.41030 0.36855 1.02981
 C1638 C 0.42236 0.35673 1.04826
 C1639 C 0.41497 0.33553 1.05595
 H1640 H 0.40069 0.32731 1.04796
 O1641 O 0.58102 0.47780 1.11275
 O1642 O 0.60728 0.47778 1.13918
 C1643 C 0.58892 0.47009 1.13115
 C1644 C 0.57687 0.45164 1.14299
 C1645 C 0.58422 0.44403 1.16425
 H1646 H 0.59845 0.45206 1.17250
 O1647 O 0.41801 0.52159 1.11267
 O1648 O 0.39176 0.52156 1.13911
 C1649 C 0.41011 0.52927 1.13109
 C1650 C 0.42215 0.54772 1.14295
 C1651 C 0.41476 0.55534 1.16419
 H1652 H 0.40051 0.54732 1.17242
 O1653 O 0.47747 0.61225 1.08183
 O1654 O 0.47736 0.63865 1.10812
 C1655 C 0.46972 0.63063 1.08972
 C1656 C 0.45129 0.64245 1.07761
 C1657 C 0.44364 0.66367 1.08495
 H1658 H 0.45162 0.67193 1.09922
 O1659 O 0.52174 0.38707 1.08174
 O1660 O 0.52178 0.36068 1.10804
 C1661 C 0.52947 0.36869 1.08966
 C1662 C 0.54793 0.35687 1.07760
 C1663 C 0.55563 0.33569 1.08502
 H1664 H 0.54765 0.32747 1.09931
 O1665 O 0.61210 0.41816 1.02220
 O1666 O 0.63860 0.39200 1.02226
 C1667 C 0.63052 0.41034 1.02994
 C1668 C 0.64231 0.42246 1.04838
 C1669 C 0.66356 0.41517 1.05602
 H1670 H 0.67183 0.40092 1.04802
 O1671 O 0.38707 0.58118 1.02225
 O1672 O 0.36060 0.60737 1.02224
 C1673 C 0.36865 0.58904 1.02996
 C1674 C 0.35682 0.57698 1.04842
 C1675 C 0.33568 0.58447 1.05618
 H1676 H 0.32750 0.59879 1.04825
 Cu1677 Cu 0.49967 0.40514 1.09454
 Cu1678 Cu 0.49969 0.37357 1.12621
 Cu1679 Cu 0.49951 0.59418 1.09466
 Cu1680 Cu 0.49941 0.62576 1.12632
 Cu1681 Cu 0.40535 0.40502 1.00003
 Cu1682 Cu 0.37376 0.37340 1.00004
 Cu1683 Cu 0.59410 0.40526 1.00014
 Cu1684 Cu 0.62581 0.37376 1.00017
 Cu1685 Cu 0.40519 0.59399 1.00020
 Cu1686 Cu 0.37348 0.62550 1.00014
 Cu1687 Cu 0.59379 0.59429 1.00019
 Cu1688 Cu 0.62540 0.62591 1.00018
 Cu1689 Cu 0.40520 0.49957 1.09455
 Cu1690 Cu 0.37358 0.49949 1.12619
 Cu1691 Cu 0.59385 0.49983 1.09466
 Cu1692 Cu 0.62547 0.49984 1.12629
 C1693 C 0.55847 0.44080 1.13259
 H1694 H 0.55289 0.44637 1.11607
 C1695 C 0.57346 0.42582 1.17481
 C1696 C 0.44059 0.55853 1.13258
 H1697 H 0.44620 0.55296 1.11607
 C1698 C 0.42552 0.57354 1.17478
 C1699 C 0.36713 0.55846 1.05913
 H1700 H 0.38357 0.55279 1.05345
 C1701 C 0.32513 0.57374 1.07443
 C1702 C 0.63189 0.44090 1.05916
 H1703 H 0.61538 0.44643 1.05357
 C1704 C 0.67411 0.42600 1.07419
 C1705 C 0.55869 0.36722 1.05911
 H1706 H 0.55305 0.38369 1.05348
 C1707 C 0.57385 0.32514 1.07425
 C1708 C 0.44054 0.63206 1.05915
 H1709 H 0.44615 0.61556 1.05358
 C1710 C 0.42546 0.67423 1.07413
 C1711 C 0.44070 0.44061 1.13253
 H1712 H 0.44630 0.44621 1.11603
 C1713 C 0.42562 0.42555 1.17471
 C1714 C 0.55840 0.55875 1.13273
 H1715 H 0.55276 0.55311 1.11625
 C1716 C 0.57356 0.57390 1.17484
 C1717 C 0.44082 0.36709 1.05903
 H1718 H 0.44643 0.38357 1.05341
 C1719 C 0.42573 0.32499 1.07417
 C1720 C 0.55837 0.63226 1.05920
 H1721 H 0.55275 0.61579 1.05356
 C1722 C 0.57347 0.67435 1.07437
 C1723 C 0.36736 0.44056 1.05899
 H1724 H 0.38384 0.44617 1.05338
 C1725 C 0.32522 0.42547 1.07407
 C1726 C 0.63175 0.55880 1.05915
 H1727 H 0.61524 0.55324 1.05359
 C1728 C 0.67398 0.57375 1.07409
 C1729 C 1.11541 1.11450 1.27400
 N1730 N 1.12543 1.09673 1.26359
 N1731 N 1.11705 1.08857 1.24435
 C1732 C 1.09838 1.09794 1.23494
 N1733 N 1.08834 1.11570 1.24536
 N1734 N 1.09673 1.12385 1.26460
 C1735 C 1.12474 1.12362 1.29443
 C1736 C 1.13270 1.13147 1.31146
 C1737 C 1.08968 1.08949 1.21394
 C1738 C 1.08257 1.08253 1.19617
 C1739 C 1.11359 0.61324 0.77439
 N1740 N 1.12626 0.59904 0.76163
 N1741 N 1.11821 0.59088 0.74225
 C1742 C 1.09725 0.59667 0.73505
 N1743 N 1.08458 0.61084 0.74783
 N1744 N 1.09263 0.61901 0.76721
 C1745 C 1.12251 0.62244 0.79497
 C1746 C 1.13022 0.63031 0.81209
 C1747 C 1.08883 0.58830 0.71393
 C1748 C 1.08195 0.58143 0.69604
 C1749 C 0.61555 1.11466 0.77371
 N1750 N 0.59637 1.12344 0.76477
 N1751 N 0.58797 1.11526 0.74554
 C1752 C 0.59849 1.09805 0.73468
 N1753 N 0.61765 1.08925 0.74363
 N1754 N 0.62605 1.09743 0.76286
 C1755 C 0.62488 1.12382 0.79413
 C1756 C 0.63284 1.13169 0.81115
 C1757 C 0.58974 1.08959 0.71370
 C1758 C 0.58260 1.08262 0.69594
 C1759 C 0.61431 0.61447 1.27401
 N1760 N 0.62414 0.59639 1.26394
 N1761 N 0.61582 0.58812 1.24472
 C1762 C 0.59741 0.59767 1.23499
 N1763 N 0.58757 0.61573 1.24507
 N1764 N 0.59589 0.62400 1.26429
 C1765 C 0.62361 0.62372 1.29440
 C1766 C 0.63158 0.63165 1.31139
 C1767 C 0.58880 0.58911 1.21401
 C1768 C 0.58175 0.58209 1.19623
 C1769 C 0.88592 0.88568 1.27429
 N1770 N 0.90382 0.87569 1.26406
 N1771 N 0.91204 0.88399 1.24481
 C1772 C 0.90261 0.90252 1.23520
 N1773 N 0.88473 0.91252 1.24544
 N1774 N 0.87651 0.90423 1.26470
 C1775 C 0.87671 0.87642 1.29472
 C1776 C 0.86879 0.86848 1.31173
 C1777 C 0.91110 0.91110 1.21417
 C1778 C 0.91806 0.91812 1.19636
 C1779 C 0.88566 0.38568 0.77413
 N1780 N 0.90502 0.37718 0.76532
 N1781 N 0.91331 0.38532 0.74602
 C1782 C 0.90248 0.40220 0.73495
 N1783 N 0.88313 0.41071 0.74377
 N1784 N 0.87484 0.40257 0.76307
 C1785 C 0.87643 0.37655 0.79461
 C1786 C 0.86853 0.36872 0.81168
 C1787 C 0.91110 0.41060 0.71390
 C1788 C 0.91813 0.41752 0.69608
 C1789 C 0.38518 0.88568 0.77372
 N1790 N 0.40244 0.87504 0.76305
 N1791 N 0.41076 0.88326 0.74381
 C1792 C 0.40208 0.90237 0.73464
 N1793 N 0.38483 0.91302 0.74531
 N1794 N 0.37651 0.90481 0.76456
 C1795 C 0.37588 0.87654 0.79415
 C1796 C 0.36792 0.86870 0.81119
 C1797 C 0.41068 0.91091 0.71365
 C1798 C 0.41773 0.91793 0.69587
 C1799 C 0.38501 0.38554 1.27417
 N1800 N 0.37614 0.40446 1.26479
 N1801 N 0.38445 0.41260 1.24551
 C1802 C 0.40188 0.40206 1.23502
 N1803 N 0.41076 0.38316 1.24441
 N1804 N 0.40245 0.37502 1.26369
 C1805 C 0.37571 0.37646 1.29464
 C1806 C 0.36777 0.36863 1.31169
 C1807 C 0.41046 0.41050 1.21397
 C1808 C 0.41748 0.41744 1.19615
 C1809 C 0.88462 1.11479 0.72640
 N1810 N 0.90182 1.12554 0.73705
 N1811 N 0.91021 1.11735 0.75628
 C1812 C 0.90166 1.09817 0.76543
 N1813 N 0.88447 1.08742 0.75477
 N1814 N 0.87608 1.09560 0.73554
 C1815 C 0.87525 1.12390 0.70597
 C1816 C 0.86728 1.13175 0.68894
 C1817 C 0.91034 1.08966 0.78641
 C1818 C 0.91745 1.08266 0.80417
 C1819 C 0.88655 0.61332 0.22543
 N1820 N 0.87763 0.59438 0.23470
 N1821 N 0.88581 0.58619 0.25401
 C1822 C 0.90316 0.59670 0.26464
 N1823 N 0.91211 0.61564 0.25536
 N1824 N 0.90392 0.62382 0.23605
 C1825 C 0.87734 0.62250 0.20498
 C1826 C 0.86943 0.63040 0.18796
 C1827 C 0.91156 0.58825 0.28574
 C1828 C 0.91845 0.58135 0.30362
 C1829 C 0.38501 1.11429 0.22588
 N1830 N 0.37655 1.09507 0.23503
 N1831 N 0.38492 1.08698 0.25430
 C1832 C 0.40202 1.09785 0.26500
 N1833 N 0.41049 1.11705 0.25584
 N1834 N 0.40212 1.12515 0.23657
 C1835 C 0.37565 1.12332 0.20542
 C1836 C 0.36768 1.13111 0.18837
 C1837 C 0.41066 1.08943 0.28603
 C1838 C 0.41773 1.08251 0.30383
 C1839 C 0.38506 0.61413 0.72618
 N1840 N 0.37636 0.59498 0.73526
 N1841 N 0.38460 0.58673 0.75452
 C1842 C 0.40179 0.59737 0.76529
 N1843 N 0.41051 0.61651 0.75620
 N1844 N 0.40226 0.62476 0.73694
 C1845 C 0.37584 0.62332 0.70573
 C1846 C 0.36795 0.63121 0.68870
 C1847 C 0.41031 0.58880 0.78630
 C1848 C 0.41732 0.58177 0.80409
 C1849 C 1.11483 0.88581 0.72622
 N1850 N 1.12433 0.90418 0.73606
 N1851 N 1.11602 0.91238 0.75532
 C1852 C 1.09795 0.90245 0.76532
 N1853 N 1.08843 0.88410 0.75547
 N1854 N 1.09675 0.87590 0.73621
 C1855 C 1.12411 0.87665 0.70578
 C1856 C 1.13205 0.86880 0.68874
 C1857 C 1.08935 0.91095 0.78633
 C1858 C 1.08230 0.91794 0.80412
 C1859 C 1.11499 0.38581 0.22568
 N1860 N 1.09598 0.37687 0.23483
 N1861 N 1.08767 0.38503 0.25411
 C1862 C 1.09811 0.40238 0.26481
 N1863 N 1.11710 0.41134 0.25565
 N1864 N 1.12541 0.40318 0.23638
 C1865 C 1.12425 0.37665 0.20524
 C1866 C 1.13218 0.36877 0.18821
 C1867 C 1.08949 0.41080 0.28585
 C1868 C 1.08244 0.41773 0.30366
 C1869 C 0.61431 0.88584 0.22578
 N1870 N 0.59546 0.87683 0.23519
 N1871 N 0.58725 0.88513 0.25445
 C1872 C 0.59762 0.90269 0.26487
 N1873 N 0.61645 0.91171 0.25544
 N1874 N 0.62467 0.90342 0.23619
 C1875 C 0.62348 0.87655 0.20535
 C1876 C 0.63136 0.86859 0.18833
 C1877 C 0.58912 0.91124 0.28590
 C1878 C 0.58214 0.91826 0.30370
 C1879 C 0.61448 0.38624 0.72593
 N1880 N 0.59693 0.37576 0.73627
 N1881 N 0.58857 0.38385 0.75556
 C1882 C 0.59751 0.40266 0.76509
 N1883 N 0.61505 0.41315 0.75474
 N1884 N 0.62341 0.40507 0.73545
 C1885 C 0.62384 0.37719 0.70548
 C1886 C 0.63183 0.36937 0.68846
 C1887 C 0.58891 0.41101 0.78615
 C1888 C 0.58187 0.41787 0.80399
 C1889 C 1.27400 1.11411 1.11497
 N1890 N 1.26520 1.12270 1.09562
 N1891 N 1.24593 1.11459 1.08728
 C1892 C 1.23488 1.09765 1.09803
 N1893 N 1.24368 1.08905 1.11736
 N1894 N 1.26295 1.09715 1.12570
 C1895 C 1.29444 1.12321 1.12425
 C1896 C 1.31148 1.13105 1.13218
 C1897 C 1.21385 1.08929 1.08936
 C1898 C 1.19605 1.08239 1.08229
 C1899 C 1.27388 0.61453 0.61437
 N1900 N 1.26469 0.62326 0.59527
 N1901 N 1.24546 0.61495 0.58705
 C1902 C 1.23483 0.59766 0.59767
 N1903 N 1.24403 0.58892 0.61676
 N1904 N 1.26326 0.59723 0.62498
 C1905 C 1.29430 0.62382 0.62353
 C1906 C 1.31131 0.63176 0.63141
 C1907 C 1.21384 0.58907 0.58914
 C1908 C 1.19607 0.58203 0.58213
 C1909 C 0.77372 1.11475 0.61535
 N1910 N 0.76433 1.12409 0.59664
 N1911 N 0.74512 1.11591 0.58823
 C1912 C 0.73472 1.09814 0.59827
 N1913 N 0.74412 1.08878 0.61696
 N1914 N 0.76333 1.09696 0.62537
 C1915 C 0.79412 1.12389 0.62471
 C1916 C 0.81113 1.13175 0.63269
 C1917 C 0.71376 1.08967 0.58954
 C1918 C 0.69602 1.08268 0.58240
 C1919 C 0.77373 0.61368 1.11379
 N1920 N 0.76241 0.59735 1.12518
 N1921 N 0.74305 0.58919 1.11710
 C1922 C 0.73443 0.59711 1.09741
 N1923 N 0.74577 0.61343 1.08601
 N1924 N 0.76513 0.62160 1.09408
 C1925 C 0.79428 0.62285 1.12277
 C1926 C 0.81139 0.63069 1.13052
 C1927 C 0.71333 0.58871 1.08901
 C1928 C 0.69546 0.58180 1.08212
 C1929 C 1.27368 0.88565 0.88532
 N1930 N 1.26131 0.90056 0.87310
 N1931 N 1.24208 0.90885 0.88135
 C1932 C 1.23464 0.90248 0.90207
 N1933 N 1.24701 0.88758 0.91430
 N1934 N 1.26625 0.87929 0.90604
 C1935 C 1.29411 0.87633 0.87619
 C1936 C 1.31113 0.86837 0.86835
 C1937 C 1.21366 0.91100 0.91070
 C1938 C 1.19589 0.91800 0.91777
 C1939 C 1.27413 0.38572 0.38510
 N1940 N 1.26380 0.37543 0.40278
 N1941 N 1.24454 0.38361 0.41107
 C1942 C 1.23503 0.40233 0.40193
 N1943 N 1.24537 0.41264 0.38427
 N1944 N 1.26463 0.40446 0.37598
 C1945 C 1.29458 0.37659 0.37583
 C1946 C 1.31160 0.36872 0.36790
 C1947 C 1.21400 0.41081 0.41049
 C1948 C 1.19620 0.41776 0.41751
 C1949 C 0.77397 0.88614 0.38535
 N1950 N 0.76467 0.87721 0.40430
 N1951 N 0.74540 0.88545 0.41251
 C1952 C 0.73485 0.90286 0.40202
 N1953 N 0.74416 0.91181 0.38308
 N1954 N 0.76343 0.90357 0.37487
 C1955 C 0.79442 0.87691 0.37619
 C1956 C 0.81146 0.86900 0.36833
 C1957 C 0.71381 0.91136 0.41053
 C1958 C 0.69600 0.91833 0.41751
 C1959 C 0.77381 0.38637 0.88560
 N1960 N 0.76492 0.37772 0.90487
 N1961 N 0.74563 0.38582 0.91317
 C1962 C 0.73464 0.40281 0.90244
 N1963 N 0.74355 0.41148 0.88318
 N1964 N 0.76284 0.40338 0.87489
 C1965 C 0.79428 0.37725 0.87635
 C1966 C 0.81131 0.36940 0.86844
 C1967 C 0.71358 0.41115 0.91105
 C1968 C 0.69574 0.41800 0.91807
 C1969 C 0.72616 0.88591 1.11460
 N1970 N 0.73712 0.87508 1.09764
 N1971 N 0.75640 0.88332 1.08944
 C1972 C 0.76530 0.90263 1.09796
 N1973 N 0.75432 0.91347 1.11491
 N1974 N 0.73504 0.90523 1.12311
 C1975 C 0.70569 0.87675 1.12379
 C1976 C 0.68864 0.86889 1.13167
 C1977 C 0.78633 0.91119 1.08951
 C1978 C 0.80414 0.91819 1.08256
 C1979 C 0.72631 0.38541 0.61424
 N1980 N 0.73827 0.37349 0.59876
 N1981 N 0.75757 0.38164 0.59052
 C1982 C 0.76549 0.40195 0.59753
 N1983 N 0.75352 0.41389 0.61300
 N1984 N 0.73422 0.40574 0.62123
 C1985 C 0.70580 0.37638 0.62349
 C1986 C 0.68872 0.36860 0.63138
 C1987 C 0.78654 0.41046 0.58905
 C1988 C 0.80435 0.41742 0.58208
 C1989 C 0.22631 0.88562 0.61462
 N1990 N 0.23394 0.87901 0.59404
 N1991 N 0.25318 0.88731 0.58581
 C1992 C 0.26537 0.90247 0.59792
 N1993 N 0.25773 0.90909 0.61849
 N1994 N 0.23849 0.90079 0.62671
 C1995 C 0.20586 0.87631 0.62373
 C1996 C 0.18883 0.86836 0.63157
 C1997 C 0.28635 0.91100 0.58931
 C1998 C 0.30413 0.91802 0.58227
 C1999 C 0.22587 0.38542 1.11474
 N2000 N 0.23676 0.37445 1.09783
 N2001 N 0.25603 0.38258 1.08950
 C2002 C 0.26499 0.40194 1.09784
 N2003 N 0.25409 0.41293 1.11475
 N2004 N 0.23482 0.40479 1.12307
 C2005 C 0.20542 0.37637 1.12406
 C2006 C 0.18837 0.36857 1.13201
 C2007 C 0.28601 0.41040 1.08926
 C2008 C 0.30381 0.41735 1.08223
 C2009 C 0.72644 1.11491 0.88477
 N2010 N 0.73778 1.12635 0.90107
 N2011 N 0.75699 1.11816 0.90948
 C2012 C 0.76543 1.09829 0.90185
 N2013 N 0.75408 1.08684 0.88557
 N2014 N 0.73487 1.09502 0.87716
 C2015 C 0.70602 1.12399 0.87538
 C2016 C 0.68901 1.13181 0.86738
 C2017 C 0.78638 1.08974 0.91054
 C2018 C 0.80411 1.08271 0.91766
 C2019 C 0.72647 0.61418 0.38506
 N2020 N 0.73739 0.62503 0.40203
 N2021 N 0.75663 0.61679 0.41031
 C2022 C 0.76553 0.59744 0.40187
 N2023 N 0.75461 0.58658 0.38491
 N2024 N 0.73537 0.59482 0.37663
 C2025 C 0.70603 0.62333 0.37581
 C2026 C 0.68900 0.63120 0.36791
 C2027 C 0.78652 0.58887 0.41043
 C2028 C 0.80428 0.58184 0.41746
 C2029 C 0.22633 1.11456 0.38498
 N2030 N 0.23715 1.12547 0.40198
 N2031 N 0.25638 1.11731 0.41034
 C2032 C 0.26539 1.09799 0.40195
 N2033 N 0.25456 1.08707 0.38497
 N2034 N 0.23532 1.09523 0.37661
 C2035 C 0.20590 1.12364 0.37563
 C2036 C 0.18888 1.13148 0.36767
 C2037 C 0.28638 1.08951 0.41058
 C2038 C 0.30416 1.08254 0.41764
 C2039 C 0.22528 0.61307 0.88691
 N2040 N 0.23476 0.59444 0.87754
 N2041 N 0.25410 0.58623 0.88560
 C2042 C 0.26454 0.59640 0.90328
 N2043 N 0.25505 0.61501 0.91266
 N2044 N 0.23571 0.62323 0.90460
 C2045 C 0.20480 0.62228 0.87783
 C2046 C 0.18775 0.63017 0.87000
 C2047 C 0.28566 0.58793 0.91157
 C2048 C 0.30355 0.58102 0.91840
 C2049 C 1.11456 1.27396 1.11456
 N2050 N 1.09606 1.26431 1.12400
 N2051 N 1.08783 1.24504 1.11577
 C2052 C 1.09785 1.23486 1.09786
 N2053 N 1.11634 1.24452 1.08840
 N2054 N 1.12457 1.26379 1.09663
 C2055 C 1.12375 1.29441 1.12374
 C2056 C 1.13163 1.31145 1.13160
 C2057 C 1.08931 1.21385 1.08934
 C2058 C 1.08231 1.19606 1.08235
 C2059 C 1.11506 0.77355 0.61404
 N2060 N 1.12535 0.76295 0.59653
 N2061 N 1.11703 0.74368 0.58839
 C2062 C 1.09817 0.73443 0.59752
 N2063 N 1.08786 0.74504 0.61503
 N2064 N 1.09618 0.76431 0.62317
 C2065 C 1.12431 0.79400 0.62315
 C2066 C 1.13222 0.81105 0.63099
 C2067 C 1.08953 0.71342 0.58910
 C2068 C 1.08247 0.69563 0.58216
 C2069 C 0.61479 1.27400 0.61394
 N2070 N 0.59599 1.26468 0.62315
 N2071 N 0.58769 1.24541 0.61503
 C2072 C 0.59794 1.23486 0.59745
 N2073 N 0.61672 1.24419 0.58823
 N2074 N 0.62502 1.26346 0.59635
 C2075 C 0.62403 1.29446 0.62303
 C2076 C 0.63194 1.31151 0.63085
 C2077 C 0.58933 1.21384 0.58905
 C2078 C 0.58229 1.19604 0.58212
 C2079 C 0.61381 0.77366 1.11480
 N2080 N 0.59599 0.76342 1.12492
 N2081 N 0.58777 0.74415 1.11669
 C2082 C 0.59712 0.73455 1.09810
 N2083 N 0.61492 0.74480 1.08797
 N2084 N 0.62315 0.76407 1.09619
 C2085 C 0.62300 0.79413 1.12396
 C2086 C 0.63087 0.81118 1.13181
 C2087 C 0.58860 0.71353 1.08956
 C2088 C 0.58161 0.69575 1.08254
 C2089 C 0.88586 1.27409 0.88566
 N2090 N 0.90477 1.26474 0.87673
 N2091 N 0.91292 1.24546 0.88500
 C2092 C 0.90242 1.23496 0.90245
 N2093 N 0.88352 1.24432 0.91140
 N2094 N 0.87537 1.26360 0.90313
 C2095 C 0.87677 1.29455 0.87641
 C2096 C 0.86895 1.31160 0.86849
 C2097 C 0.91088 1.21392 0.91099
 C2098 C 0.91783 1.19612 0.91799
 C2099 C 0.88584 0.77347 0.38530
 N2100 N 0.87561 0.76319 0.40304
 N2101 N 0.88376 0.74390 0.41128
 C2102 C 0.90240 0.73431 0.40203
 N2103 N 0.91264 0.74460 0.38430
 N2104 N 0.90448 0.76390 0.37606
 C2105 C 0.87676 0.79398 0.37612
 C2106 C 0.86898 0.81106 0.36825
 C2107 C 0.91087 0.71328 0.41056
 C2108 C 0.91785 0.69548 0.41756
 C2109 C 0.38531 1.27400 0.38553
 N2110 N 0.40449 1.26499 0.37683
 N2111 N 0.41276 1.24574 0.38505
 C2112 C 0.40209 1.23492 0.40221
 N2113 N 0.38293 1.24395 0.41092
 N2114 N 0.37466 1.26320 0.40270
 C2115 C 0.37611 1.29445 0.37633
 C2116 C 0.36823 1.31148 0.36845
 C2117 C 0.41069 1.21393 0.41070
 C2118 C 0.41774 1.19615 0.41768
 C2119 C 0.38470 0.77346 0.88598
 N2120 N 0.37404 0.76261 0.90311
 N2121 N 0.38231 0.74333 0.91128
 C2122 C 0.40149 0.73434 0.90255
 N2123 N 0.41215 0.74520 0.88543
 N2124 N 0.40388 0.76448 0.87726
 C2125 C 0.37550 0.79393 0.87683
 C2126 C 0.36764 0.81098 0.86897
 C2127 C 0.41009 0.71331 0.91099
 C2128 C 0.41713 0.69552 0.91793
 C2129 C 1.11341 0.72577 0.88670
 N2130 N 1.12394 0.73638 0.90407
 N2131 N 1.11585 0.75575 0.91217
 C2132 C 1.09699 0.76510 0.90316
 N2133 N 1.08644 0.75448 0.88581
 N2134 N 1.09453 0.73511 0.87770
 C2135 C 1.12245 0.70521 0.87761
 C2136 C 1.13022 0.68810 0.86981
 C2137 C 1.08861 0.78623 0.91151
 C2138 C 1.08174 0.80412 0.91838
 C2139 C 1.11509 0.22610 0.38530
 N2140 N 1.09580 0.23501 0.37675
 N2141 N 1.08753 0.25426 0.38498
 C2142 C 1.09829 0.26517 0.40201
 N2143 N 1.11757 0.25625 0.41057
 N2144 N 1.12584 0.23701 0.40234
 C2145 C 1.12430 0.20567 0.37609
 C2146 C 1.13219 0.18865 0.36819
 C2147 C 1.08969 0.28616 0.41050
 C2148 C 1.08264 0.30394 0.41749
 C2149 C 0.61444 0.72657 0.38507
 N2150 N 0.62474 0.73691 0.40274
 N2151 N 0.61655 0.75618 0.41101
 C2152 C 0.59783 0.76569 0.40186
 N2153 N 0.58753 0.75534 0.38420
 N2154 N 0.59571 0.73607 0.37593
 C2155 C 0.62356 0.70610 0.37584
 C2156 C 0.63137 0.68904 0.36794
 C2157 C 0.58934 0.78670 0.41042
 C2158 C 0.58235 0.80449 0.41744
 C2159 C 0.61505 0.22628 0.88509
 N2160 N 0.62561 0.23698 0.90239
 N2161 N 0.61730 0.25617 0.91070
 C2162 C 0.59817 0.26525 0.90196
 N2163 N 0.58760 0.25455 0.88468
 N2164 N 0.59592 0.23535 0.87637
 C2165 C 0.62430 0.20589 0.87581
 C2166 C 0.63222 0.18890 0.86788
 C2167 C 0.58952 0.28619 0.91056
 C2168 C 0.58242 0.30392 0.91762
 C2169 C 0.88612 0.72608 1.11375
 N2170 N 0.90430 0.73595 1.12359
 N2171 N 0.91250 0.75530 1.11553
 C2172 C 0.90276 0.76536 1.09740
 N2173 N 0.88459 0.75549 1.08755
 N2174 N 0.87639 0.73614 1.09560
 C2175 C 0.87696 0.70554 1.12276
 C2176 C 0.86913 0.68843 1.13052
 C2177 C 0.91124 0.78646 1.08906
 C2178 C 0.91819 0.80432 1.08220
 C2179 C 0.88507 0.22629 0.61500
 N2180 N 0.90418 0.23535 0.62379
 N2181 N 0.91253 0.25454 0.61549
 C2182 C 0.90202 0.26524 0.59817
 N2183 N 0.88292 0.25616 0.58938
 N2184 N 0.87457 0.23698 0.59767
 C2185 C 0.87579 0.20590 0.62426
 C2186 C 0.86786 0.18891 0.63218
 C2187 C 0.91071 0.28617 0.58959
 C2188 C 0.91783 0.30389 0.58252
 C2189 C 0.38511 0.72655 0.61410
 N2190 N 0.40399 0.73579 0.62321
 N2191 N 0.41232 0.75504 0.61506
 C2192 C 0.40202 0.76565 0.59756
 N2193 N 0.38315 0.75640 0.58843
 N2194 N 0.37482 0.73714 0.59658
 C2195 C 0.37585 0.70609 0.62321
 C2196 C 0.36794 0.68905 0.63103
 C2197 C 0.41067 0.78665 0.58912
 C2198 C 0.41774 0.80442 0.58216
 C2199 C 0.38522 0.22572 1.11451
 N2200 N 0.40425 0.23488 1.12337
 N2201 N 0.41250 0.25414 1.11515
 C2202 C 0.40198 0.26481 1.09781
 N2203 N 0.38296 0.25563 1.08894
 N2204 N 0.37470 0.23638 1.09717
 C2205 C 0.37602 0.20528 1.12372
 C2206 C 0.36814 0.18825 1.13161
 C2207 C 0.41055 0.28581 1.08932
 C2208 C 0.41757 0.30359 1.08233
 C2209 C 1.11342 1.11425 0.72565
 N2210 N 1.12313 1.09595 0.73543
 N2211 N 1.11503 1.08772 0.75477
 C2212 C 1.09700 1.09755 0.76491
 N2213 N 1.08728 1.11584 0.75512
 N2214 N 1.09537 1.12406 0.73579
 C2215 C 1.12250 1.12346 0.70515
 C2216 C 1.13033 1.13134 0.68808
 C2217 C 1.08865 1.08905 0.78602
 C2218 C 1.08179 1.08210 0.80389
 C2219 C 1.11479 0.61564 0.22628
 N2220 N 1.12470 0.59747 0.23610
 N2221 N 1.11652 0.58901 0.25530
 C2222 C 1.09820 0.59847 0.26527
 N2223 N 1.08828 0.61663 0.25545
 N2224 N 1.09645 0.62509 0.23624
 C2225 C 1.12391 0.62504 0.20587
 C2226 C 1.13176 0.63304 0.18885
 C2227 C 1.08971 0.58968 0.28622
 C2228 C 1.08270 0.58249 0.30395
 C2229 C 0.61439 1.11527 0.22586
 N2230 N 0.62445 1.09735 0.23598
 N2231 N 0.61624 1.08905 0.25524
 C2232 C 0.59773 1.09841 0.26496
 N2233 N 0.58766 1.11632 0.25482
 N2234 N 0.59587 1.12462 0.23557
 C2235 C 0.62355 1.12454 0.20541
 C2236 C 0.63142 1.13246 0.18837
 C2237 C 0.58922 1.08981 0.28597
 C2238 C 0.58223 1.08276 0.30376
 C2239 C 0.61364 0.61382 0.72594
 N2240 N 0.62357 0.59583 0.73605
 N2241 N 0.61536 0.58762 0.75535
 C2242 C 0.59697 0.59716 0.76512
 N2243 N 0.58702 0.61514 0.75500
 N2244 N 0.59523 0.62335 0.73570
 C2245 C 0.62283 0.62301 0.70548
 C2246 C 0.63073 0.63089 0.68844
 C2247 C 0.58848 0.58869 0.78619
 C2248 C 0.58153 0.58174 0.80403
 C2249 C 0.88642 0.88640 0.72579
 N2250 N 0.87569 0.90356 0.73652
 N2251 N 0.88380 0.91176 0.75586
 C2252 C 0.90288 0.90305 0.76505
 N2253 N 0.91363 0.88591 0.75431
 N2254 N 0.90552 0.87770 0.73497
 C2255 C 0.87736 0.87720 0.70528
 C2256 C 0.86955 0.86932 0.68820
 C2257 C 0.91129 0.91150 0.78615
 C2258 C 0.91818 0.91843 0.80402
 C2259 C 0.88569 0.38561 0.22575
 N2260 N 0.90365 0.37557 0.23581
 N2261 N 0.91192 0.38371 0.25511
 C2262 C 0.90248 0.40213 0.26492
 N2263 N 0.88454 0.41218 0.25484
 N2264 N 0.87626 0.40404 0.23555
 C2265 C 0.87644 0.37652 0.20526
 C2266 C 0.86853 0.36871 0.18820
 C2267 C 0.91104 0.41056 0.28597
 C2268 C 0.91806 0.41750 0.30379
 C2269 C 0.38636 0.88556 0.22580
 N2270 N 0.37716 0.90439 0.23505
 N2271 N 0.38526 0.91275 0.25433
 C2272 C 0.40279 0.90252 0.26494
 N2273 N 0.41200 0.88370 0.25568
 N2274 N 0.40391 0.87535 0.23640
 C2275 C 0.37727 0.87625 0.20535
 C2276 C 0.36944 0.86830 0.18831
 C2277 C 0.41114 0.91117 0.28599
 C2278 C 0.41802 0.91822 0.30381
 C2279 C 0.38555 0.38440 0.72617
 N2280 N 0.37745 0.40407 0.73467
 N2281 N 0.38563 0.41239 0.75393
 C2282 C 0.40216 0.40130 0.76527
 N2283 N 0.41027 0.38165 0.75676
 N2284 N 0.40209 0.37332 0.73750
 C2285 C 0.37638 0.37516 0.70571
 C2286 C 0.36852 0.36727 0.68866
 C2287 C 0.41061 0.40998 0.78627
 C2288 C 0.41757 0.41708 0.80405
 C2289 C 1.11445 0.88573 1.27425
 N2290 N 1.09572 0.87661 1.26474
 N2291 N 1.08754 0.88489 1.24546
 C2292 C 1.09785 0.90254 1.23511
 N2293 N 1.11657 0.91167 1.24463
 N2294 N 1.12475 0.90339 1.26391
 C2295 C 1.12357 0.87648 1.29472
 C2296 C 1.13142 0.86858 1.31177
 C2297 C 1.08937 0.91109 1.21408
 C2298 C 1.08239 0.91811 1.19627
 C2299 C 1.11464 0.38445 0.77368
 N2300 N 1.12354 0.40352 0.76463
 N2301 N 1.11539 0.41189 0.74538
 C2302 C 1.09809 0.40143 0.73459
 N2303 N 1.08919 0.38237 0.74365
 N2304 N 1.09734 0.37401 0.76290
 C2305 C 1.12376 0.37516 0.79414
 C2306 C 1.13158 0.36722 0.81119
 C2307 C 1.08965 0.41014 0.71359
 C2308 C 1.08269 0.41724 0.69582
 C2309 C 0.61371 0.88646 0.77422
 N2310 N 0.59487 0.87744 0.76481
 N2311 N 0.58674 0.88564 0.74547
 C2312 C 0.59721 0.90310 0.73497
 N2313 N 0.61603 0.91213 0.74439
 N2314 N 0.62416 0.90394 0.76372
 C2315 C 0.62279 0.87726 0.79472
 C2316 C 0.63060 0.86937 0.81178
 C2317 C 0.58880 0.91155 0.71386
 C2318 C 0.58190 0.91846 0.69599
 C2319 C 0.61355 0.38563 1.27438
 N2320 N 0.59573 0.37554 1.26411
 N2321 N 0.58755 0.38375 1.24481
 C2322 C 0.59694 0.40229 1.23519
 N2323 N 0.61474 0.41240 1.24546
 N2324 N 0.62293 0.40419 1.26476
 C2325 C 0.62271 0.37646 1.29486
 C2326 C 0.63058 0.36859 1.31191
 C2327 C 0.58849 0.41078 1.21412
 C2328 C 0.58155 0.41774 1.19628
 C2329 C 0.88582 1.11512 1.27425
 N2330 N 0.90484 1.12391 1.26499
 N2331 N 0.91305 1.11559 1.24573
 C2332 C 0.90247 1.09824 1.23516
 N2333 N 0.88346 1.08944 1.24443
 N2334 N 0.87526 1.09776 1.26368
 C2335 C 0.87667 1.12443 1.29469
 C2336 C 0.86880 1.13237 1.31171
 C2337 C 0.91099 1.08964 1.21415
 C2338 C 0.91797 1.08260 1.19636
 C2339 C 0.88612 0.61397 0.77400
 N2340 N 0.87771 0.59458 0.76517
 N2341 N 0.88592 0.58635 0.74587
 C2342 C 0.90277 0.59726 0.73484
 N2343 N 0.91118 0.61664 0.74368
 N2344 N 0.90298 0.62487 0.76297
 C2345 C 0.87691 0.62314 0.79447
 C2346 C 0.86900 0.63102 0.81151
 C2347 C 0.91121 0.58872 0.71378
 C2348 C 0.91815 0.58173 0.69595
 C2349 C 0.38550 1.11524 0.77378
 N2350 N 0.40303 1.12555 0.76323
 N2351 N 0.41126 1.11722 0.74399
 C2352 C 0.40222 1.09832 0.73473
 N2353 N 0.38471 1.08799 0.74530
 N2354 N 0.37648 1.09633 0.76453
 C2355 C 0.37629 1.12452 0.79421
 C2356 C 0.36839 1.13245 0.81123
 C2357 C 0.41073 1.08966 0.71374
 C2358 C 0.41774 1.08258 0.69597
 C2359 C 0.38573 0.61415 1.27431
 N2360 N 0.40388 0.62381 1.26422
 N2361 N 0.41196 0.61550 1.24492
 C2362 C 0.40215 0.59726 1.23513
 N2363 N 0.38401 0.58759 1.24523
 N2364 N 0.37592 0.59590 1.26454
 C2365 C 0.37667 0.62344 1.29479
 C2366 C 0.36887 0.63139 1.31185
 C2367 C 0.41051 0.58866 1.21406
 C2368 C 0.41741 0.58165 1.19623
 C2369 C 1.11433 1.27380 0.88490
 N2370 N 1.09553 1.26432 0.87589
 N2371 N 1.08733 1.24510 0.88428
 C2372 C 1.09769 1.23480 0.90193
 N2373 N 1.11647 1.24430 0.91096
 N2374 N 1.12467 1.26351 0.90257
 C2375 C 1.12349 1.29419 0.87553
 C2376 C 1.13138 1.31117 0.86753
 C2377 C 1.08919 1.21382 0.91060
 C2378 C 1.08221 1.19606 0.91769
 C2379 C 1.11392 0.77389 0.38570
 N2380 N 1.12457 0.76323 0.40296
 N2381 N 1.11643 0.74394 0.41120
 C2382 C 1.09738 0.73472 0.40244
 N2383 N 1.08671 0.74539 0.38519
 N2384 N 1.09486 0.76469 0.37695
 C2385 C 1.12302 0.79435 0.37645
 C2386 C 1.13086 0.81139 0.36854
 C2387 C 1.08894 0.71365 0.41092
 C2388 C 1.08203 0.69582 0.41788
 C2389 C 0.61398 1.27443 0.38615
 N2390 N 0.59625 1.26415 0.37592
 N2391 N 0.58804 1.24485 0.38408
 C2392 C 0.59730 1.23525 0.40271
 N2393 N 0.61502 1.24554 0.41295
 N2394 N 0.62324 1.26484 0.40479
 C2395 C 0.62320 1.29489 0.37702
 C2396 C 0.63110 1.31193 0.36916
 C2397 C 0.58884 1.21417 0.41113
 C2398 C 0.58191 1.19632 0.41804
 C2399 C 0.61357 0.77395 0.88642
 N2400 N 0.59323 0.76614 0.87936
 N2401 N 0.58501 0.74682 0.88749
 C2402 C 0.59689 0.73474 0.90290
 N2403 N 0.61722 0.74256 0.90996
 N2404 N 0.62544 0.76187 0.90185
 C2405 C 0.62269 0.79445 0.87728
 C2406 C 0.63054 0.81152 0.86945
 C2407 C 0.58832 0.71367 0.91125
 C2408 C 0.58134 0.69584 0.91813
 C2409 C 0.88604 1.27414 1.11426
 N2410 N 0.87560 1.26359 1.09681
 N2411 N 0.88380 1.24430 1.08861
 C2412 C 0.90269 1.23498 1.09761
 N2413 N 0.91314 1.24554 1.11505
 N2414 N 0.90494 1.26483 1.12325
 C2415 C 0.87689 1.29460 1.12346
 C2416 C 0.86903 1.31163 1.13136
 C2417 C 0.91118 1.21393 1.08916
 C2418 C 0.91813 1.19610 1.08223
 C2419 C 0.88633 0.77390 0.61354
 N2420 N 0.90533 0.76468 0.62242
 N2421 N 0.91347 0.74534 0.61429
 C2422 C 0.90286 0.73463 0.59703
 N2423 N 0.88388 0.74386 0.58814
 N2424 N 0.87574 0.76320 0.59627
 C2425 C 0.87725 0.79442 0.62266
 C2426 C 0.86945 0.81152 0.63049
 C2427 C 0.91130 0.71353 0.58864
 C2428 C 0.91822 0.69568 0.58175
 C2429 C 0.38562 1.27384 0.61501
 N2430 N 0.37514 1.26335 0.59754
 N2431 N 0.38336 1.24413 0.58919
 C2432 C 0.40231 1.23482 0.59806
 N2433 N 0.41281 1.24532 0.61551
 N2434 N 0.40459 1.26454 0.62386
 C2435 C 0.37646 1.29424 0.62434
 C2436 C 0.36858 1.31124 0.63232
 C2437 C 0.41084 1.21384 0.58944
 C2438 C 0.41784 1.19608 0.58238
 C2439 C 0.38547 0.77382 1.11421
 N2440 N 0.37497 0.76327 1.09680
 N2441 N 0.38310 0.74394 1.08861
 C2442 C 0.40198 0.73459 1.09759
 N2443 N 0.41250 0.74516 1.11499
 N2444 N 0.40437 0.76448 1.12318
 C2445 C 0.37641 0.79434 1.12337
 C2446 C 0.36862 0.81144 1.13123
 C2447 C 0.41042 0.71352 1.08913
 C2448 C 0.41736 0.69568 1.08220
 C2449 C 0.88579 0.72634 0.88629
 N2450 N 0.90530 0.73506 0.87803
 N2451 N 0.91350 0.75436 0.88621
 C2452 C 0.90244 0.76552 0.90289
 N2453 N 0.88294 0.75679 0.91116
 N2454 N 0.87474 0.73749 0.90298
 C2455 C 0.87667 0.70586 0.87711
 C2456 C 0.86884 0.68880 0.86924
 C2457 C 0.91096 0.78657 0.91132
 C2458 C 0.91794 0.80440 0.91823
 C2459 C 0.88601 0.22590 0.38513
 N2460 N 0.87691 0.23526 0.40397
 N2461 N 0.88516 0.25449 0.41226
 C2462 C 0.90276 0.26494 0.40196
 N2463 N 0.91187 0.25557 0.38314
 N2464 N 0.90362 0.23634 0.37484
 C2465 C 0.87678 0.20550 0.37588
 C2466 C 0.86885 0.18851 0.36794
 C2467 C 0.91127 0.28594 0.41055
 C2468 C 0.91826 0.30372 0.41759
 C2469 C 0.38636 0.72624 0.38561
 N2470 N 0.40519 0.73568 0.37659
 N2471 N 0.41330 0.75499 0.38484
 C2472 C 0.40284 0.76543 0.40235
 N2473 N 0.38403 0.75598 0.41138
 N2474 N 0.37591 0.73668 0.40314
 C2475 C 0.37729 0.70576 0.37638
 C2476 C 0.36947 0.68870 0.36850
 C2477 C 0.41125 0.78650 0.41085
 C2478 C 0.41815 0.80434 0.41782
 C2479 C 0.38539 0.22593 0.88486
 N2480 N 0.37468 0.23659 0.90208
 N2481 N 0.38289 0.25579 0.91047
 C2482 C 0.40207 0.26492 0.90188
 N2483 N 0.41279 0.25424 0.88467
 N2484 N 0.40458 0.23504 0.87628
 C2485 C 0.37625 0.20554 0.87549
 C2486 C 0.36838 0.18854 0.86750
 C2487 C 0.41060 0.28588 0.91053
 C2488 C 0.41760 0.30363 0.91763
 C2489 C 1.11481 0.72673 1.11546
 N2490 N 1.12469 0.73668 1.09733
 N2491 N 1.11646 0.75590 1.08899
 C2492 C 1.09811 0.76575 1.09852
 N2493 N 1.08822 0.75579 1.11664
 N2494 N 1.09644 0.73657 1.12498
 C2495 C 1.12397 0.70631 1.12476
 C2496 C 1.13183 0.68928 1.13269
 C2497 C 1.08958 0.78672 1.08987
 C2498 C 1.08256 0.80446 1.08277
 C2499 C 1.11397 0.22550 0.61365
 N2500 N 1.12450 0.23606 0.59625
 N2501 N 1.11637 0.25537 0.58805
 C2502 C 1.09746 0.26470 0.59700
 N2503 N 1.08692 0.25413 0.61438
 N2504 N 1.09505 0.23482 0.62258
 C2505 C 1.12307 0.20502 0.62287
 C2506 C 1.13090 0.18798 0.63078
 C2507 C 1.08905 0.28579 0.58856
 C2508 C 1.08216 0.30366 0.58165
 C2509 C 0.61421 0.72637 0.61383
 N2510 N 0.62474 0.73700 0.59647
 N2511 N 0.61657 0.75631 0.58830
 C2512 C 0.59764 0.76559 0.59725
 N2513 N 0.58710 0.75496 0.61460
 N2514 N 0.59527 0.73564 0.62277
 C2515 C 0.62330 0.70586 0.62297
 C2516 C 0.63109 0.68876 0.63080
 C2517 C 0.58915 0.78665 0.58881
 C2518 C 0.58219 0.80447 0.58187
 C2519 C 0.61433 0.22596 1.11487
 N2520 N 0.62458 0.23630 1.09716
 N2521 N 0.61633 0.25553 1.08887
 C2522 C 0.59759 0.26500 1.09803
 N2523 N 0.58734 0.25465 1.11572
 N2524 N 0.59558 0.23543 1.12402
 C2525 C 0.62353 0.20555 1.12415
 C2526 C 0.63142 0.18855 1.13209
 C2527 C 0.58904 0.28599 1.08946
 C2528 C 0.58202 0.30376 1.08243
 C2529 C 1.27363 1.11489 0.88502
 N2530 N 1.26383 1.12453 0.90336
 N2531 N 1.24459 1.11628 0.91166
 C2532 C 1.23458 1.09816 0.90187
 N2533 N 1.24439 1.08851 0.88354
 N2534 N 1.26363 1.09676 0.87525
 C2535 C 1.29406 1.12408 0.87579
 C2536 C 1.31110 1.13195 0.86789
 C2537 C 1.21361 1.08961 0.91049
 C2538 C 1.19586 1.08258 0.91756
 C2539 C 1.27418 0.61402 0.38566
 N2540 N 1.26357 0.62450 0.40307
 N2541 N 1.24428 0.61630 0.41126
 C2542 C 1.23500 0.59738 0.40229
 N2543 N 1.24562 0.58688 0.38490
 N2544 N 1.26492 0.59509 0.37671
 C2545 C 1.29465 0.62317 0.37649
 C2546 C 1.31171 0.63101 0.36861
 C2547 C 1.21396 0.58887 0.41075
 C2548 C 1.19614 0.58189 0.41769
 C2549 C 0.77387 1.11494 0.38519
 N2550 N 0.76529 1.12291 0.40489
 N2551 N 0.74601 1.11467 0.41309
 C2552 C 0.73474 1.09821 0.40183
 N2553 N 0.74334 1.09023 0.38214
 N2554 N 0.76261 1.09847 0.37394
 C2555 C 0.79436 1.12416 0.37609
 C2556 C 0.81144 1.13203 0.36828
 C2557 C 0.71373 1.08968 0.41038
 C2558 C 0.69595 1.08267 0.41741
 C2559 C 0.77352 0.61402 0.88603
 N2560 N 0.76246 0.59727 0.87500
 N2561 N 0.74315 0.58908 0.88318
 C2562 C 0.73432 0.59740 0.90262
 N2563 N 0.74539 0.61414 0.91366
 N2564 N 0.76470 0.62233 0.90549
 C2565 C 0.79402 0.62321 0.87694
 C2566 C 0.81109 0.63107 0.86913
 C2567 C 0.71326 0.58895 0.91112
 C2568 C 0.69544 0.58200 0.91808
 C2569 C 1.27416 0.88565 1.11382
 N2570 N 1.26474 0.87681 1.09489
 N2571 N 1.24546 0.88515 1.08681
 C2572 C 1.23502 0.90257 1.09740
 N2573 N 1.24446 0.91143 1.11631
 N2574 N 1.26373 0.90309 1.12440
 C2575 C 1.29461 0.87632 1.12286
 C2576 C 1.31164 0.86835 1.13065
 C2577 C 1.21398 0.91117 1.08903
 C2578 C 1.19616 0.91819 1.08213
 C2579 C 1.27390 0.38501 0.61480
 N2580 N 1.26482 0.37628 0.59566
 N2581 N 1.24559 0.38454 0.58736
 C2582 C 1.23487 0.40179 0.59796
 N2583 N 1.24396 0.41054 0.61709
 N2584 N 1.26319 0.40228 0.62538
 C2585 C 1.29432 0.37578 0.62402
 C2586 C 1.31134 0.36788 0.63191
 C2587 C 1.21390 0.41033 0.58933
 C2588 C 1.19616 0.41736 0.58226
 C2589 C 0.77427 0.88644 0.61355
 N2590 N 0.76505 0.87766 0.59450
 N2591 N 0.74573 0.88586 0.58637
 C2592 C 0.73506 0.90309 0.59705
 N2593 N 0.74429 0.91188 0.61609
 N2594 N 0.76361 0.90368 0.62422
 C2595 C 0.79477 0.87724 0.62263
 C2596 C 0.81182 0.86936 0.63045
 C2597 C 0.71398 0.91154 0.58863
 C2598 C 0.69613 0.91847 0.58172
 C2599 C 0.77370 0.38625 1.11450
 N2600 N 0.76305 0.40363 1.12497
 N2601 N 0.74374 0.41174 1.11675
 C2602 C 0.73449 0.40273 1.09781
 N2603 N 0.74515 0.38538 1.08734
 N2604 N 0.76447 0.37726 1.09556
 C2605 C 0.79420 0.37715 1.12367
 C2606 C 0.81126 0.36931 1.13153
 C2607 C 0.71342 0.41111 1.08929
 C2608 C 0.69558 0.41798 1.08231
 C2609 C 0.72622 1.11481 1.11473
 N2610 N 0.73591 1.12418 1.09620
 N2611 N 0.75518 1.11591 1.08801
 C2612 C 0.76533 1.09803 1.09810
 N2613 N 0.75562 1.08865 1.11662
 N2614 N 0.73635 1.09691 1.12481
 C2615 C 0.70575 1.12404 1.12387
 C2616 C 0.68870 1.13194 1.13171
 C2617 C 0.78635 1.08947 1.08960
 C2618 C 0.80414 1.08245 1.08262
 C2619 C 0.72614 0.61368 0.61391
 N2620 N 0.73549 0.62259 0.59497
 N2621 N 0.75479 0.61435 0.58682
 C2622 C 0.76532 0.59696 0.59737
 N2623 N 0.75596 0.58803 0.61629
 N2624 N 0.73667 0.59627 0.62444
 C2625 C 0.70567 0.62291 0.62300
 C2626 C 0.68862 0.63083 0.63082
 C2627 C 0.78638 0.58846 0.58892
 C2628 C 0.80421 0.58150 0.58198
 C2629 C 0.22583 1.11447 0.61359
 N2630 N 0.23714 1.12558 0.59704
 N2631 N 0.25647 1.11737 0.58895
 C2632 C 0.26508 1.09780 0.59717
 N2633 N 0.25377 1.08668 0.61370
 N2634 N 0.23443 1.09489 0.62179
 C2635 C 0.20531 1.12359 0.62266
 C2636 C 0.18821 1.13142 0.63046
 C2637 C 0.28616 1.08926 0.58883
 C2638 C 0.30401 1.08227 0.58196
 C2639 C 0.22625 0.61511 1.11494
 N2640 N 0.23761 0.62614 1.09838
 N2641 N 0.25679 0.61771 1.09014
 C2642 C 0.26518 0.59799 1.09821
 N2643 N 0.25381 0.58694 1.11476
 N2644 N 0.23463 0.59538 1.12300
 C2645 C 0.20588 0.62446 1.12416
 C2646 C 0.18890 0.63244 1.13207
 C2647 C 0.28610 0.58920 1.08970
 C2648 C 0.30382 0.58202 1.08268
 C2649 C 0.72591 0.88616 0.88650
 N2650 N 0.73647 0.87577 0.90397
 N2651 N 0.75578 0.88397 0.91211
 C2652 C 0.76511 0.90281 0.90302
 N2653 N 0.75454 0.91322 0.88556
 N2654 N 0.73523 0.90501 0.87742
 C2655 C 0.70541 0.87701 0.87737
 C2656 C 0.68834 0.86918 0.86953
 C2657 C 0.78618 0.91132 0.91142
 C2658 C 0.80401 0.91830 0.91832
 C2659 C 0.72604 0.38547 0.38642
 N2660 N 0.73675 0.37497 0.40374
 N2661 N 0.75608 0.38317 0.41183
 C2662 C 0.76529 0.40212 0.40283
 N2663 N 0.75457 0.41263 0.38552
 N2664 N 0.73523 0.40443 0.37744
 C2665 C 0.70552 0.37632 0.37735
 C2666 C 0.68843 0.36848 0.36955
 C2667 C 0.78638 0.41062 0.41117
 C2668 C 0.80424 0.41758 0.41803
 C2669 C 0.22614 0.88610 0.38554
 N2670 N 0.23619 0.87621 0.40360
 N2671 N 0.25546 0.88442 0.41182
 C2672 C 0.26527 0.90276 0.40223
 N2673 N 0.25521 0.91266 0.38418
 N2674 N 0.23594 0.90445 0.37596
 C2675 C 0.20567 0.87694 0.37635
 C2676 C 0.18862 0.86908 0.36848
 C2677 C 0.28630 0.91126 0.41074
 C2678 C 0.30410 0.91823 0.41772
 C2679 C 0.22614 0.38476 0.88520
 N2680 N 0.23659 0.37438 0.90275
 N2681 N 0.25583 0.38262 0.91104
 C2682 C 0.26519 0.40149 0.90204
 N2683 N 0.25472 0.41188 0.88450
 N2684 N 0.23549 0.40364 0.87621
 C2685 C 0.20571 0.37559 0.87594
 C2686 C 0.18869 0.36773 0.86801
 C2687 C 0.28617 0.41004 0.91061
 C2688 C 0.30394 0.41707 0.91765
   
