data_POSCAR
  _audit_creation_date              2014-09-24
  _audit_creation_method            'ToBaCCo'
  _symmetry_space_group_name_H-M    'P1'
  _symmetry_Int_Tables_number       1
  _symmetry_cell_setting            triclinic
  loop_
  _symmetry_equiv_pos_as_xyz
 x,y,z
_cell_length_a 83.2491
_cell_length_b 83.3204
_cell_length_c 83.3374
_cell_angle_alpha 89.927700
_cell_angle_beta 90.283500
_cell_angle_gamma 90.669200
loop_
  _atom_site_label
  _atom_site_type_symbol
  _atom_site_fract_x
  _atom_site_fract_y
  _atom_site_fract_z
C1 C 0.10399 0.01009 0.23149
 H2 H 0.10335 0.01983 0.24002
 C3 C 0.09581 0.01110 0.21682
 H4 H 0.08886 0.02169 0.21415
 C5 C 0.11461 -0.01513 0.22423
 H6 H 0.12224 -0.02517 0.22691
 C7 C 0.10666 -0.01460 0.20948
 H8 H 0.10798 -0.02449 0.20119
 N9 N 0.11320 -0.00288 0.23488
 C10 C 0.12114 -0.00454 0.28661
 H11 H 0.13403 -0.00605 0.28644
 C12 C 0.11305 -0.00430 0.30118
 H13 H 0.11980 -0.00580 0.31221
 C14 C 0.09676 -0.00111 0.27229
 H15 H 0.09049 0.00006 0.26097
 C16 C 0.08813 -0.00082 0.28666
 H17 H 0.07525 0.00080 0.28630
 Zn18 Zn 0.12582 -0.00295 0.25389
 N19 N 0.11300 -0.00271 0.27257
 C20 C 0.13760 0.02685 0.26515
 N21 N 0.13914 0.01565 0.25343
 C22 C 0.14889 0.01830 0.24061
 C23 C 0.15739 0.03282 0.23913
 C24 C 0.14585 0.04147 0.26416
 C25 C 0.12907 -0.03567 0.25693
 C26 C 0.13650 -0.05054 0.25763
 C27 C 0.16214 -0.03707 0.25466
 C28 C 0.15411 -0.02241 0.25396
 N29 N 0.13785 -0.02203 0.25486
 H30 H 0.12957 0.02475 0.27508
 H31 H 0.14966 0.00933 0.23127
 H32 H 0.16469 0.03494 0.22861
 H33 H 0.14434 0.05024 0.27360
 H34 H 0.11615 -0.03496 0.25805
 H35 H 0.12878 -0.06076 0.26000
 H36 H 0.17499 -0.03663 0.25304
 H37 H 0.16089 -0.01137 0.25250
 C38 C 0.09634 -0.00224 0.30137
 C39 C 0.09728 -0.00127 0.20551
 C40 C 0.15341 -0.05174 0.25629
 C41 C 0.15567 0.04475 0.25089
 C42 C 0.39731 0.01220 0.77104
 H43 H 0.39816 0.02172 0.76223
 C44 C 0.40530 0.01374 0.78578
 H45 H 0.41232 0.02449 0.78821
 C46 C 0.38628 -0.01291 0.77896
 H47 H 0.37853 -0.02310 0.77650
 C48 C 0.39404 -0.01187 0.79378
 H49 H 0.39247 -0.02151 0.80238
 N50 N 0.38794 -0.00094 0.76796
 C51 C 0.37968 -0.00415 0.71638
 H52 H 0.36678 -0.00578 0.71672
 C53 C 0.38763 -0.00420 0.70172
 H54 H 0.38075 -0.00607 0.69081
 C55 C 0.40425 -0.00003 0.73035
 H56 H 0.41064 0.00156 0.74157
 C57 C 0.41274 -0.00002 0.71588
 H58 H 0.42564 0.00179 0.71606
 Zn59 Zn 0.37528 -0.00152 0.74900
 N60 N 0.38799 -0.00182 0.73027
 C61 C 0.36419 0.02796 0.73681
 N62 N 0.36248 0.01714 0.74894
 C63 C 0.35296 0.02024 0.76176
 C64 C 0.34486 0.03482 0.76282
 C65 C 0.35633 0.04262 0.73737
 C66 C 0.37110 -0.03431 0.74676
 C67 C 0.36320 -0.04912 0.74647
 C68 C 0.33798 -0.03543 0.74963
 C69 C 0.34642 -0.02079 0.74986
 N70 N 0.36271 -0.02056 0.74866
 H71 H 0.37205 0.02551 0.72688
 H72 H 0.35207 0.01158 0.77141
 H73 H 0.33772 0.03730 0.77334
 H74 H 0.35794 0.05107 0.72761
 H75 H 0.38403 -0.03373 0.74558
 H76 H 0.37015 -0.05991 0.74489
 H77 H 0.32505 -0.03548 0.75092
 H78 H 0.33997 -0.00969 0.75110
 C79 C 0.40435 -0.00192 0.70130
 C80 C 0.40349 0.00171 0.79748
 C81 C 0.34643 -0.04986 0.74808
 C82 C 0.34673 0.04634 0.75062
 C83 C 0.89808 0.51632 0.26896
 H84 H 0.89932 0.52605 0.26043
 C85 C 0.90633 0.51700 0.28363
 H86 H 0.91363 0.52754 0.28606
 C87 C 0.88584 0.49165 0.27626
 H88 H 0.87764 0.48188 0.27356
 C89 C 0.89376 0.49183 0.29102
 H90 H 0.89193 0.48162 0.29884
 N91 N 0.88800 0.50381 0.26561
 C92 C 0.87906 0.50254 0.21404
 H93 H 0.86610 0.50154 0.21447
 C94 C 0.88687 0.50232 0.19931
 H95 H 0.87981 0.50098 0.18843
 C96 C 0.90392 0.50504 0.22785
 H97 H 0.91048 0.50599 0.23904
 C98 C 0.91226 0.50483 0.21331
 H99 H 0.92524 0.50586 0.21340
 Zn100 Zn 0.87514 0.50419 0.24678
 N101 N 0.88760 0.50409 0.22790
 C102 C 0.86453 0.53427 0.23569
 N103 N 0.86274 0.52308 0.24746
 C104 C 0.85329 0.52584 0.26042
 C105 C 0.84524 0.54041 0.26192
 C106 C 0.85673 0.54893 0.23671
 C107 C 0.87030 0.47162 0.24362
 C108 C 0.86223 0.45691 0.24352
 C109 C 0.83732 0.47086 0.24779
 C110 C 0.84593 0.48539 0.24783
 N111 N 0.86217 0.48544 0.24606
 H112 H 0.87236 0.53207 0.22567
 H113 H 0.85235 0.51689 0.26979
 H114 H 0.83810 0.54258 0.27250
 H115 H 0.85836 0.55766 0.22720
 H116 H 0.88319 0.47206 0.24203
 H117 H 0.86898 0.44605 0.24164
 H118 H 0.82446 0.47092 0.24964
 H119 H 0.83967 0.49655 0.24950
 C120 C 0.90368 0.50360 0.19878
 C121 C 0.90401 0.50479 0.29522
 C122 C 0.84555 0.45635 0.24587
 C123 C 0.84711 0.55226 0.25005
 C124 C 0.60359 0.51164 0.73084
 H125 H 0.60295 0.52109 0.73970
 C126 C 0.59548 0.51320 0.71618
 H127 H 0.58859 0.52390 0.71385
 C128 C 0.61419 0.48668 0.72272
 H129 H 0.62180 0.47654 0.72507
 C130 C 0.60632 0.48775 0.70797
 H131 H 0.60767 0.47818 0.69933
 N132 N 0.61278 0.49856 0.73379
 C133 C 0.62106 0.49493 0.78536
 H134 H 0.63395 0.49342 0.78506
 C135 C 0.61304 0.49462 0.79998
 H136 H 0.61985 0.49268 0.81090
 C137 C 0.59661 0.49897 0.77132
 H138 H 0.59029 0.50061 0.76009
 C139 C 0.58806 0.49873 0.78574
 H140 H 0.57519 0.50042 0.78551
 Zn141 Zn 0.62552 0.49791 0.75268
 N142 N 0.61285 0.49734 0.77144
 C143 C 0.63738 0.52731 0.76502
 N144 N 0.63864 0.51665 0.75276
 C145 C 0.64800 0.51992 0.73980
 C146 C 0.65640 0.53452 0.73873
 C147 C 0.64556 0.54199 0.76446
 C148 C 0.62936 0.46509 0.75460
 C149 C 0.63715 0.45039 0.75453
 C150 C 0.66243 0.46454 0.75126
 C151 C 0.65411 0.47904 0.75138
 N152 N 0.63784 0.47901 0.75279
 H153 H 0.62965 0.52471 0.77507
 H154 H 0.64854 0.51138 0.73005
 H155 H 0.66340 0.53714 0.72811
 H156 H 0.64430 0.55032 0.77432
 H157 H 0.61645 0.46546 0.75594
 H158 H 0.63014 0.43947 0.75600
 H159 H 0.67534 0.46472 0.74978
 H160 H 0.66064 0.49026 0.75021
 C161 C 0.59634 0.49673 0.80034
 C162 C 0.59702 0.50125 0.70443
 C163 C 0.65389 0.44996 0.75267
 C164 C 0.65500 0.54589 0.75107
 C165 C 0.27241 0.10312 0.98861
 H166 H 0.26548 0.10404 0.97768
 C167 C 0.28657 0.09430 0.98868
 H168 H 0.29045 0.08866 0.97769
 C169 C 0.27615 0.10992 1.01597
 H170 H 0.27201 0.11594 1.02663
 C171 C 0.29040 0.10125 1.01657
 H172 H 0.29710 0.10070 1.02773
 N173 N 0.26772 0.11109 1.00200
 C174 C 0.21714 0.12026 0.99442
 H175 H 0.21793 0.13241 0.98989
 C176 C 0.20234 0.11227 0.99473
 H177 H 0.19185 0.11830 0.99009
 C178 C 0.23000 0.09773 1.00591
 H179 H 0.24083 0.09226 1.01045
 C180 C 0.21538 0.08933 1.00657
 H181 H 0.21509 0.07740 1.01174
 Zn182 Zn 0.24990 0.12503 1.00047
 N183 N 0.23056 0.11296 1.00004
 C184 C 0.24631 0.12925 0.96745
 N185 N 0.25146 0.13679 0.98102
 C186 C 0.25759 0.15199 0.98049
 C187 C 0.25901 0.16006 0.96582
 C188 C 0.24740 0.13687 0.95260
 C189 C 0.23601 0.13996 1.02733
 C190 C 0.23567 0.14912 1.04131
 C191 C 0.26349 0.15624 1.03705
 C192 C 0.26314 0.14718 1.02294
 N193 N 0.24963 0.13902 1.01851
 H194 H 0.24129 0.11724 0.96817
 H195 H 0.26157 0.15784 0.99138
 H196 H 0.26427 0.17200 0.96560
 H197 H 0.24301 0.13066 0.94203
 H198 H 0.22540 0.13326 1.02380
 H199 H 0.22470 0.14857 1.04817
 H200 H 0.27449 0.16272 1.03974
 H201 H 0.27386 0.14631 1.01572
 C202 C 0.20125 0.09667 1.00108
 C203 C 0.29597 0.09360 1.00270
 C204 C 0.24965 0.15731 1.04682
 C205 C 0.25397 0.15244 0.95159
 C206 C 0.72370 0.39785 0.98597
 H207 H 0.73190 0.39860 0.97597
 C208 C 0.70933 0.40638 0.98550
 H209 H 0.70665 0.41373 0.97513
 C210 C 0.71662 0.38636 1.01101
 H211 H 0.71921 0.37825 1.02077
 C212 C 0.70218 0.39467 1.01104
 H213 H 0.69406 0.39312 1.02105
 N214 N 0.72698 0.38790 0.99851
 C215 C 0.77839 0.37806 0.99932
 H216 H 0.77772 0.36552 1.00258
 C217 C 0.79333 0.38573 0.99865
 H218 H 0.80403 0.37891 1.00122
 C219 C 0.76519 0.40236 0.99327
 H220 H 0.75422 0.40889 0.99144
 C221 C 0.77995 0.41055 0.99250
 H222 H 0.78015 0.42326 0.98977
 Zn223 Zn 0.74523 0.37430 0.99795
 N224 N 0.76470 0.38632 0.99638
 C225 C 0.75552 0.35019 0.97623
 N226 N 0.74327 0.36015 0.98004
 C227 C 0.72985 0.36084 0.97067
 C228 C 0.72887 0.35219 0.95637
 C229 C 0.75498 0.34121 0.96208
 C230 C 0.74990 0.37149 1.03065
 C231 C 0.75063 0.36424 1.04569
 C232 C 0.74452 0.33878 1.03315
 C233 C 0.74382 0.34663 1.01831
 N234 N 0.74635 0.36272 1.01740
 H235 H 0.76594 0.34946 0.98392
 H236 H 0.71995 0.36833 0.97406
 H237 H 0.71826 0.35323 0.94889
 H238 H 0.76512 0.33384 0.95893
 H239 H 0.75215 0.38426 1.02950
 H240 H 0.75421 0.37187 1.05558
 H241 H 0.74160 0.32612 1.03319
 H242 H 0.74095 0.33991 1.00756
 C243 C 0.79428 0.40217 0.99509
 C244 C 0.69821 0.40458 0.99802
 C245 C 0.74775 0.34753 1.04745
 C246 C 0.74170 0.34252 0.95174
 C247 C 0.22582 0.89816 0.48997
 H248 H 0.23385 0.89899 0.47983
 C249 C 0.21157 0.90688 0.48992
 H250 H 0.20880 0.91445 0.47973
 C251 C 0.21907 0.88632 0.51494
 H252 H 0.22176 0.87803 0.52451
 C253 C 0.20476 0.89484 0.51540
 H254 H 0.19682 0.89323 0.52554
 N255 N 0.22919 0.88792 0.50225
 C256 C 0.28052 0.87769 0.50209
 H257 H 0.27987 0.86505 0.50492
 C258 C 0.29546 0.88538 0.50152
 H259 H 0.30618 0.87847 0.50373
 C260 C 0.26728 0.90220 0.49706
 H261 H 0.25629 0.90880 0.49560
 C262 C 0.28202 0.91041 0.49640
 H263 H 0.28219 0.92320 0.49412
 Zn264 Zn 0.24726 0.87414 0.50108
 N265 N 0.26680 0.88606 0.49963
 C266 C 0.25704 0.85044 0.47872
 N267 N 0.24497 0.86051 0.48281
 C268 C 0.23152 0.86163 0.47352
 C269 C 0.23033 0.85330 0.45905
 C270 C 0.25626 0.84176 0.46439
 C271 C 0.25268 0.87026 0.53362
 C272 C 0.25337 0.86252 0.54842
 C273 C 0.24566 0.83772 0.53530
 C274 C 0.24511 0.84598 0.52067
 N275 N 0.24844 0.86199 0.52017
 H276 H 0.26746 0.84937 0.48635
 H277 H 0.22176 0.86919 0.47713
 H278 H 0.21969 0.85464 0.45165
 H279 H 0.26624 0.83426 0.46105
 H280 H 0.25536 0.88297 0.53281
 H281 H 0.25680 0.86934 0.55896
 H282 H 0.24263 0.82505 0.53561
 H283 H 0.24175 0.83968 0.50980
 C284 C 0.29637 0.90194 0.49855
 C285 C 0.20068 0.90502 0.50262
 C286 C 0.24966 0.84607 0.54945
 C287 C 0.24295 0.84348 0.45416
 C288 C 0.77195 0.60256 0.48626
 H289 H 0.76294 0.60177 0.47688
 C290 C 0.78644 0.59439 0.48466
 H291 H 0.78850 0.58728 0.47401
 C292 C 0.78063 0.61362 0.51105
 H293 H 0.77858 0.62144 0.52112
 C294 C 0.79523 0.60569 0.50994
 H295 H 0.80404 0.60721 0.51943
 N296 N 0.76936 0.61202 0.49927
 C297 C 0.71799 0.62083 0.50286
 H298 H 0.71867 0.63373 0.50419
 C299 C 0.70313 0.61301 0.50338
 H300 H 0.69242 0.61999 0.50530
 C301 C 0.73129 0.59613 0.49914
 H302 H 0.74233 0.58963 0.49756
 C303 C 0.71661 0.58777 0.49960
 H304 H 0.71645 0.57486 0.49815
 Zn305 Zn 0.75075 0.62487 0.49993
 N306 N 0.73165 0.61239 0.50054
 C307 C 0.73851 0.63646 0.47051
 N308 N 0.75081 0.63784 0.48124
 C309 C 0.76383 0.64734 0.47814
 C310 C 0.76486 0.65586 0.46370
 C311 C 0.73904 0.64474 0.45598
 C312 C 0.74925 0.62901 0.53274
 C313 C 0.74932 0.63695 0.54744
 C314 C 0.75248 0.66212 0.53330
 C315 C 0.75237 0.65366 0.51880
 N316 N 0.75099 0.63737 0.51884
 H317 H 0.72842 0.62861 0.47297
 H318 H 0.77361 0.64797 0.48672
 H319 H 0.77549 0.66304 0.46124
 H320 H 0.72912 0.64343 0.44761
 H321 H 0.74790 0.61609 0.53238
 H322 H 0.74784 0.63004 0.55835
 H323 H 0.75389 0.67506 0.53312
 H324 H 0.75345 0.66009 0.50759
 C325 C 0.70226 0.59627 0.50159
 C326 C 0.79841 0.59613 0.49650
 C327 C 0.75108 0.65372 0.54787
 C328 C 0.75243 0.65442 0.45230
 C329 C -0.00175 0.22919 0.09587
 H330 H -0.00278 0.24027 0.08922
 C331 C -0.00184 0.21451 0.08771
 H332 H -0.00316 0.21441 0.07478
 C333 C 0.00117 0.21577 0.12080
 H334 H 0.00242 0.21641 0.13371
 C335 C 0.00112 0.20091 0.11317
 H336 H 0.00252 0.19015 0.12031
 N337 N -0.00049 0.22949 0.11215
 C338 C 0.01197 0.27800 0.11288
 H339 H 0.02189 0.27560 0.12088
 C340 C 0.01162 0.29256 0.10467
 H341 H 0.02185 0.30055 0.10608
 C342 C -0.01292 0.27011 0.10142
 H343 H -0.02266 0.26144 0.10060
 C344 C -0.01377 0.28456 0.09289
 H345 H -0.02446 0.28668 0.08582
 Zn346 Zn -0.00039 0.24858 0.12436
 N347 N -0.00021 0.26715 0.11123
 C348 C 0.03229 0.24589 0.12863
 N349 N 0.01853 0.24822 0.13697
 C350 C 0.01870 0.24991 0.15321
 C351 C 0.03330 0.24980 0.16162
 C352 C 0.04707 0.24573 0.13651
 C353 C -0.02183 0.26238 0.14638
 C354 C -0.03639 0.26395 0.15452
 C355 C -0.04506 0.23848 0.14347
 C356 C -0.03040 0.23740 0.13557
 N357 N -0.01916 0.24928 0.13708
 H358 H 0.03174 0.24434 0.11575
 H359 H 0.00759 0.25149 0.15962
 H360 H 0.03333 0.25150 0.17449
 H361 H 0.05786 0.24385 0.12960
 H362 H -0.01283 0.27182 0.14710
 H363 H -0.03851 0.27465 0.16151
 H364 H -0.05386 0.22890 0.14204
 H365 H -0.02828 0.22726 0.12786
 C366 C -0.00153 0.29634 0.09464
 C367 C -0.00055 0.20012 0.09643
 C368 C -0.04833 0.25199 0.15289
 C369 C 0.04775 0.24788 0.15319
 C370 C 0.01653 0.77987 0.38754
 H371 H 0.02565 0.77729 0.37879
 C372 C 0.01755 0.79414 0.39623
 H373 H 0.02753 0.80232 0.39413
 C374 C -0.00761 0.77261 0.40077
 H375 H -0.01762 0.76433 0.40217
 C376 C -0.00700 0.78673 0.40981
 H377 H -0.01658 0.78924 0.41815
 N378 N 0.00384 0.76964 0.38958
 C379 C -0.00155 0.71850 0.37813
 H380 H -0.00137 0.71905 0.36522
 C381 C -0.00239 0.70358 0.38565
 H382 H -0.00340 0.69288 0.37834
 C383 C 0.00009 0.73168 0.40325
 H384 H 0.00147 0.74260 0.41008
 C385 C -0.00073 0.71693 0.41130
 H386 H -0.00002 0.71671 0.42427
 Zn387 Zn 0.00162 0.75187 0.37533
 N388 N -0.00040 0.73221 0.38692
 C389 C 0.03210 0.74072 0.36724
 N390 N 0.02027 0.75082 0.36254
 C391 C 0.02227 0.76093 0.34985
 C392 C 0.03687 0.76142 0.34161
 C393 C 0.04680 0.74075 0.35931
 C394 C -0.01972 0.74445 0.34962
 C395 C -0.03403 0.74522 0.34081
 C396 C -0.04164 0.76798 0.35674
 C397 C -0.02721 0.76672 0.36518
 N398 N -0.01684 0.75470 0.36199
 H399 H 0.03034 0.73295 0.37749
 H400 H 0.01272 0.76899 0.34651
 H401 H 0.03847 0.76994 0.33192
 H402 H 0.05607 0.73265 0.36333
 H403 H -0.01102 0.73545 0.34665
 H404 H -0.03592 0.73599 0.33191
 H405 H -0.04906 0.77811 0.35965
 H406 H -0.02444 0.77541 0.37438
 C407 C -0.00187 0.70262 0.40244
 C408 C 0.00549 0.79789 0.40725
 C409 C -0.04580 0.75679 0.34458
 C410 C 0.04947 0.75142 0.34652
 C411 C 0.51138 0.27234 0.90021
 H412 H 0.52109 0.26402 0.90215
 C413 C 0.51099 0.28665 0.90892
 H414 H 0.52055 0.28931 0.91739
 C415 C 0.48757 0.27925 0.88631
 H416 H 0.47842 0.27639 0.87753
 C417 C 0.48667 0.29363 0.89478
 H418 H 0.47675 0.30160 0.89243
 N419 N 0.50011 0.26918 0.88871
 C420 C 0.50605 0.21788 0.87926
 H421 H 0.50757 0.21800 0.86643
 C422 C 0.50624 0.20328 0.88741
 H423 H 0.50793 0.19234 0.88066
 C424 C 0.50096 0.23183 0.90341
 H425 H 0.49859 0.24294 0.90957
 C426 C 0.50107 0.21743 0.91208
 H427 H 0.49914 0.21769 0.92491
 Zn428 Zn 0.50235 0.25104 0.87498
 N429 N 0.50344 0.23181 0.88728
 C430 C 0.52325 0.24340 0.84951
 N431 N 0.52132 0.25326 0.86236
 C432 C 0.53285 0.26427 0.86638
 C433 C 0.54736 0.26492 0.85811
 C434 C 0.53758 0.24370 0.84082
 C435 C 0.47313 0.23784 0.86356
 C436 C 0.45919 0.23717 0.85423
 C437 C 0.46844 0.26074 0.83992
 C438 C 0.48235 0.26082 0.84938
 N439 N 0.48430 0.24963 0.86111
 H440 H 0.51372 0.23519 0.84605
 H441 H 0.53104 0.27246 0.87616
 H442 H 0.55648 0.27357 0.86171
 H443 H 0.53911 0.23540 0.83098
 H444 H 0.47478 0.22918 0.87307
 H445 H 0.45024 0.22796 0.85664
 H446 H 0.46687 0.26991 0.83084
 H447 H 0.49142 0.27007 0.84770
 C448 C 0.50371 0.20289 0.90405
 C449 C 0.49874 0.29773 0.90592
 C450 C 0.45661 0.24887 0.84241
 C451 C 0.55001 0.25431 0.84536
 C452 C 0.51106 0.72764 0.60302
 H453 H 0.52068 0.73645 0.60225
 C454 C 0.51241 0.71291 0.59513
 H455 H 0.52312 0.71047 0.58828
 C456 C 0.48588 0.71974 0.61375
 H457 H 0.47573 0.72220 0.62133
 C458 C 0.48672 0.70492 0.60609
 H459 H 0.47698 0.69633 0.60757
 N460 N 0.49798 0.73073 0.61218
 C461 C 0.49538 0.78231 0.62000
 H462 H 0.49381 0.78201 0.63288
 C463 C 0.49546 0.79694 0.61193
 H464 H 0.49375 0.80788 0.61868
 C465 C 0.49921 0.76825 0.59564
 H466 H 0.50063 0.75701 0.58938
 C467 C 0.49934 0.78269 0.58703
 H468 H 0.50108 0.78247 0.57417
 Zn469 Zn 0.49771 0.74967 0.62469
 N470 N 0.49751 0.76838 0.61186
 C471 C 0.52742 0.76187 0.63598
 N472 N 0.51649 0.74972 0.63762
 C473 C 0.51955 0.73683 0.64715
 C474 C 0.53421 0.73573 0.65533
 C475 C 0.54216 0.76126 0.64393
 C476 C 0.46495 0.75194 0.62866
 C477 C 0.45022 0.75221 0.63648
 C478 C 0.46419 0.74899 0.66175
 C479 C 0.47873 0.74878 0.65339
 N480 N 0.47879 0.75002 0.63711
 H481 H 0.52498 0.77185 0.62811
 H482 H 0.51080 0.72717 0.64798
 H483 H 0.53665 0.72516 0.66247
 H484 H 0.55070 0.77103 0.64238
 H485 H 0.46539 0.75315 0.61574
 H486 H 0.43936 0.75380 0.62948
 H487 H 0.46428 0.74765 0.67467
 H488 H 0.48991 0.74752 0.65990
 C489 C 0.49766 0.79730 0.59525
 C490 C 0.50024 0.70122 0.59685
 C491 C 0.44967 0.75055 0.65323
 C492 C 0.54585 0.74794 0.65354
 C493 C 0.88532 0.98606 0.72254
 H494 H 0.87637 0.97696 0.72506
 C495 C 0.89322 0.98561 0.70862
 H496 H 0.89052 0.97585 0.70046
 C497 C 0.90093 1.00821 0.73202
 H498 H 0.90400 1.01692 0.74113
 C499 C 0.91000 1.00820 0.71684
 H500 H 0.91881 1.01768 0.71523
 N501 N 0.88895 0.99828 0.73420
 C502 C 0.88401 1.01176 0.78419
 H503 H 0.87388 1.01961 0.78253
 C504 C 0.89172 1.01152 0.79827
 H505 H 0.88792 1.01979 0.80745
 C506 C 0.90150 0.99249 0.77275
 H507 H 0.90480 0.98468 0.76298
 C508 C 0.91044 0.99183 0.78810
 H509 H 0.91999 0.98319 0.78897
 Zn510 Zn 0.87587 1.00045 0.75276
 N511 N 0.88902 1.00163 0.77129
 C512 C 0.86405 0.97233 0.76753
 N513 N 0.86188 0.98229 0.75477
 C514 C 0.85062 0.97890 0.74331
 C515 C 0.84159 0.96465 0.74405
 C516 C 0.85537 0.95797 0.76869
 C517 C 0.87275 1.03374 0.75050
 C518 C 0.86510 1.04850 0.74965
 C519 C 0.83953 1.03458 0.75049
 C520 C 0.84771 1.02002 0.75133
 N521 N 0.86406 1.01984 0.75122
 H522 H 0.87283 0.97524 0.77666
 H523 H 0.84906 0.98700 0.73328
 H524 H 0.83314 0.96184 0.73452
 H525 H 0.85753 0.95007 0.77878
 H526 H 0.88568 1.03347 0.75092
 H527 H 0.87234 1.05935 0.74891
 H528 H 0.82653 1.03452 0.75080
 H529 H 0.84095 1.00892 0.75231
 C530 C 0.90558 1.00056 0.80085
 C531 C 0.90603 0.99775 0.70501
 C532 C 0.84827 1.04909 0.74969
 C533 C 0.84422 0.95381 0.75668
 C534 C 0.40301 0.49610 0.23207
 H535 H 0.40969 0.49460 0.24308
 C536 C 0.41111 0.49571 0.21740
 H537 H 0.42391 0.49358 0.21731
 C538 C 0.37838 0.50099 0.21870
 H539 H 0.36573 0.50365 0.21929
 C540 C 0.38596 0.50069 0.20384
 H541 H 0.37896 0.50295 0.19310
 N542 N 0.38686 0.49848 0.23245
 C543 C 0.38779 0.51352 0.28029
 H544 H 0.37965 0.52316 0.27760
 C545 C 0.39630 0.51377 0.29474
 H546 H 0.39486 0.52383 0.30280
 C547 C 0.39916 0.48854 0.27340
 H548 H 0.39977 0.47847 0.26526
 C549 C 0.40786 0.48828 0.28778
 H550 H 0.41521 0.47799 0.29054
 Zn551 Zn 0.37514 0.49974 0.25190
 N552 N 0.38913 0.50091 0.27004
 C553 C 0.36221 0.47264 0.26792
 N554 N 0.36143 0.48136 0.25412
 C555 C 0.35163 0.47666 0.24183
 C556 C 0.34284 0.46229 0.24281
 C557 C 0.35376 0.45815 0.26935
 C558 C 0.37126 0.53232 0.24689
 C559 C 0.36352 0.54704 0.24636
 C560 C 0.33874 0.53352 0.25359
 C561 C 0.34701 0.51899 0.25400
 N562 N 0.36301 0.51873 0.25084
 H563 H 0.36954 0.47674 0.27784
 H564 H 0.35086 0.48383 0.23108
 H565 H 0.33556 0.45846 0.23268
 H566 H 0.35482 0.45123 0.28031
 H567 H 0.38397 0.53171 0.24433
 H568 H 0.37033 0.55771 0.24318
 H569 H 0.32608 0.53363 0.25651
 H570 H 0.34072 0.50800 0.25711
 C571 C 0.40621 0.50086 0.29883
 C572 C 0.40253 0.49794 0.20302
 C573 C 0.34708 0.54782 0.24992
 C574 C 0.34420 0.45265 0.25656
 C575 C 0.60074 0.99102 0.27298
 H576 H 0.59866 0.98113 0.26479
 C577 C 0.59269 0.99160 0.28685
 H578 H 0.58437 0.98193 0.28959
 C579 C 0.61554 1.01491 0.27897
 H580 H 0.62464 1.02379 0.27619
 C581 C 0.60710 1.01600 0.29439
 H582 H 0.60984 1.02630 0.30183
 N583 N 0.61257 1.00312 0.26913
 C584 C 0.62069 1.00256 0.21730
 H585 H 0.63352 1.00458 0.21734
 C586 C 0.61240 1.00247 0.20274
 H587 H 0.61910 1.00381 0.19171
 C588 C 0.59642 0.99902 0.23163
 H589 H 0.59017 0.99807 0.24290
 C590 C 0.58761 0.99886 0.21728
 H591 H 0.57465 0.99772 0.21770
 Zn592 Zn 0.62549 1.00168 0.25035
 N593 N 0.61271 1.00068 0.23138
 C594 C 0.64916 0.97999 0.23962
 N595 N 0.63870 0.98320 0.25167
 C596 C 0.63706 0.97300 0.26434
 C597 C 0.64539 0.95856 0.26475
 C598 C 0.65772 0.96567 0.23954
 C599 C 0.63040 1.03390 0.24397
 C600 C 0.63815 1.04878 0.24411
 C601 C 0.66199 1.03596 0.25431
 C602 C 0.65373 1.02123 0.25388
 N603 N 0.63815 1.02056 0.24899
 H604 H 0.65071 0.98838 0.22988
 H605 H 0.62910 0.97587 0.27407
 H606 H 0.64373 0.95053 0.27485
 H607 H 0.66549 0.96310 0.22951
 H608 H 0.61800 1.03299 0.24010
 H609 H 0.63155 1.05890 0.23952
 H610 H 0.67407 1.03605 0.25913
 H611 H 0.65955 1.01046 0.25805
 C612 C 0.59563 1.00066 0.20257
 C613 C 0.59614 1.00472 0.29863
 C614 C 0.65414 1.05025 0.24974
 C615 C 0.65562 0.95456 0.25206
 C616 C 0.11246 0.48156 0.77628
 H617 H 0.11956 0.47136 0.77290
 C618 C 0.10429 0.48129 0.79087
 H619 H 0.10520 0.47083 0.79854
 C620 C 0.10236 0.50735 0.77036
 H621 H 0.10159 0.51750 0.76237
 C622 C 0.09398 0.50757 0.78483
 H623 H 0.08709 0.51807 0.78789
 N624 N 0.11168 0.49463 0.76650
 C625 C 0.11906 0.49987 0.71512
 H626 H 0.13197 0.50156 0.71515
 C627 C 0.11049 0.50080 0.70077
 H628 H 0.11696 0.50306 0.68974
 C629 C 0.09515 0.49437 0.72956
 H630 H 0.08929 0.49182 0.74084
 C631 C 0.08606 0.49521 0.71541
 H632 H 0.07317 0.49347 0.71594
 Zn633 Zn 0.12448 0.49552 0.74761
 N634 N 0.11134 0.49664 0.72911
 C635 C 0.13435 0.46630 0.73407
 N636 N 0.13729 0.47675 0.74630
 C637 C 0.14839 0.47342 0.75786
 C638 C 0.15701 0.45911 0.75737
 C639 C 0.14258 0.45185 0.73319
 C640 C 0.12930 0.52844 0.74494
 C641 C 0.13744 0.54313 0.74485
 C642 C 0.16214 0.52918 0.75025
 C643 C 0.15348 0.51468 0.75024
 N644 N 0.13728 0.51458 0.74786
 H645 H 0.12531 0.46891 0.72515
 H646 H 0.15023 0.48166 0.76774
 H647 H 0.16554 0.45649 0.76683
 H648 H 0.13998 0.44368 0.72340
 H649 H 0.11656 0.52808 0.74241
 H650 H 0.13070 0.55399 0.74280
 H651 H 0.17502 0.52904 0.75209
 H652 H 0.15977 0.50358 0.75204
 C653 C 0.09376 0.49848 0.70076
 C654 C 0.09511 0.49454 0.79544
 C655 C 0.15408 0.54368 0.74756
 C656 C 0.15398 0.44804 0.74500
 C657 C 0.76940 0.89701 0.01128
 H658 H 0.76068 0.89894 0.02065
 C659 C 0.78431 0.90493 0.01189
 H660 H 0.78698 0.91303 0.02171
 C661 C 0.77690 0.88344 -0.01246
 H662 H 0.77420 0.87479 -0.02174
 C663 C 0.79194 0.89094 -0.01223
 H664 H 0.80049 0.88824 -0.02157
 N665 N 0.76595 0.88657 -0.00084
 C666 C 0.71404 0.87994 -0.00397
 H667 H 0.71408 0.86711 -0.00595
 C668 C 0.69953 0.88806 -0.00366
 H669 H 0.68849 0.88139 -0.00575
 C670 C 0.72855 0.90409 0.00094
 H671 H 0.73989 0.91026 0.00276
 C672 C 0.71422 0.91271 0.00151
 H673 H 0.71471 0.92546 0.00399
 Zn674 Zn 0.74641 0.87465 -0.00071
 N675 N 0.72814 0.88793 -0.00140
 C676 C 0.73421 0.86559 0.02940
 N677 N 0.74587 0.86247 0.01849
 C678 C 0.75774 0.85185 0.02178
 C679 C 0.75815 0.84387 0.03656
 C680 C 0.73424 0.85802 0.04431
 C681 C 0.74397 0.86969 -0.03330
 C682 C 0.74340 0.86146 -0.04782
 C683 C 0.74527 0.83650 -0.03316
 C684 C 0.74578 0.84526 -0.01884
 N685 N 0.74534 0.86157 -0.01922
 H686 H 0.72507 0.87431 0.02678
 H687 H 0.76708 0.84985 0.01305
 H688 H 0.76782 0.83567 0.03915
 H689 H 0.72491 0.86076 0.05285
 H690 H 0.74357 0.88267 -0.03322
 H691 H 0.74274 0.86823 -0.05890
 H692 H 0.74565 0.82352 -0.03272
 H693 H 0.74658 0.83903 -0.00750
 C694 C 0.69943 0.90462 -0.00053
 C695 C 0.79584 0.90175 0.00010
 C696 C 0.74412 0.84464 -0.04791
 C697 C 0.74640 0.84713 0.04811
 C698 C 0.27003 0.39632 0.51171
 H699 H 0.26118 0.39804 0.52099
 C700 C 0.28479 0.40451 0.51252
 H701 H 0.28721 0.41261 0.52241
 C702 C 0.27803 0.38304 0.48798
 H703 H 0.27558 0.37441 0.47861
 C704 C 0.29293 0.39082 0.48841
 H705 H 0.30163 0.38833 0.47914
 N706 N 0.26689 0.38590 0.49949
 C707 C 0.21501 0.37885 0.49554
 H708 H 0.21515 0.36604 0.49345
 C709 C 0.20045 0.38690 0.49568
 H710 H 0.18948 0.38019 0.49334
 C711 C 0.22931 0.40302 0.50087
 H712 H 0.24059 0.40924 0.50291
 C713 C 0.21493 0.41157 0.50129
 H714 H 0.21534 0.42429 0.50388
 Zn715 Zn 0.24745 0.37376 0.49925
 N716 N 0.22903 0.38688 0.49839
 C717 C 0.23480 0.36405 0.52903
 N718 N 0.24675 0.36136 0.51832
 C719 C 0.25871 0.35085 0.52165
 C720 C 0.25888 0.34250 0.53624
 C721 C 0.23458 0.35610 0.54375
 C722 C 0.24570 0.36879 0.46652
 C723 C 0.24541 0.36049 0.45202
 C724 C 0.24698 0.33559 0.46681
 C725 C 0.24723 0.34441 0.48110
 N726 N 0.24680 0.36072 0.48065
 H727 H 0.22558 0.37267 0.52638
 H728 H 0.26827 0.34917 0.51309
 H729 H 0.26861 0.33438 0.53884
 H730 H 0.22499 0.35847 0.55212
 H731 H 0.24528 0.38176 0.46654
 H732 H 0.24496 0.36722 0.44091
 H733 H 0.24731 0.32261 0.46733
 H734 H 0.24778 0.33821 0.49247
 C735 C 0.20020 0.40344 0.49893
 C736 C 0.29651 0.40164 0.50083
 C737 C 0.24611 0.34366 0.45201
 C738 C 0.24679 0.34527 0.54757
 C739 C 0.22916 0.59596 0.00119
 H740 H 0.24035 0.58960 0.00018
 C741 C 0.21460 0.58740 0.00111
 H742 H 0.21509 0.57446 0.00043
 C743 C 0.21542 0.62045 0.00416
 H744 H 0.21588 0.63340 0.00511
 C745 C 0.20065 0.61245 0.00419
 H746 H 0.19000 0.61972 0.00470
 N747 N 0.22926 0.61221 0.00247
 C748 C 0.27723 0.61276 0.01477
 H749 H 0.27488 0.62056 0.02479
 C750 C 0.29126 0.60378 0.01473
 H751 H 0.29952 0.60476 0.02477
 C752 C 0.26985 0.60259 -0.01080
 H753 H 0.26147 0.60234 -0.02076
 C754 C 0.28387 0.59355 -0.01142
 H755 H 0.28618 0.58619 -0.02185
 Zn756 Zn 0.24823 0.62487 0.00191
 N757 N 0.26679 0.61194 0.00218
 C758 C 0.24582 0.63022 0.03452
 N759 N 0.24794 0.63807 0.02038
 C760 C 0.24935 0.65435 0.01982
 C761 C 0.24909 0.66333 0.03400
 C762 C 0.24549 0.63868 0.04892
 C763 C 0.23670 0.63417 -0.02841
 C764 C 0.23704 0.64188 -0.04324
 C765 C 0.26150 0.65556 -0.03513
 C766 C 0.26079 0.64742 -0.02044
 N767 N 0.24845 0.63703 -0.01734
 H768 H 0.24456 0.61728 0.03460
 H769 H 0.25064 0.66041 0.00843
 H770 H 0.25019 0.67628 0.03337
 H771 H 0.24420 0.63209 0.06006
 H772 H 0.22722 0.62558 -0.02598
 H773 H 0.22760 0.63939 -0.05190
 H774 H 0.27147 0.66365 -0.03754
 H775 H 0.27020 0.64918 -0.01161
 C776 C 0.29477 0.59409 0.00149
 C777 C 0.19987 0.59558 0.00254
 C778 C 0.24959 0.65264 -0.04680
 C779 C 0.24718 0.65546 0.04881
 C780 C 0.73026 0.09805 0.50219
 H781 H 0.74113 0.09132 0.50395
 C782 C 0.71543 0.08998 0.50223
 H783 H 0.71506 0.07717 0.50438
 C784 C 0.71746 0.12275 0.49694
 H785 H 0.71835 0.13541 0.49427
 C786 C 0.70243 0.11520 0.49689
 H787 H 0.69186 0.12223 0.49434
 N788 N 0.73100 0.11420 0.49978
 C789 C 0.77904 0.11293 0.48559
 H790 H 0.77669 0.12106 0.47579
 C791 C 0.79330 0.10431 0.48574
 H792 H 0.80156 0.10566 0.47582
 C793 C 0.77150 0.10170 0.51062
 H794 H 0.76320 0.10118 0.52055
 C795 C 0.78567 0.09287 0.51127
 H796 H 0.78811 0.08554 0.52171
 Zn797 Zn 0.75075 0.12580 0.49876
 N798 N 0.76857 0.11170 0.49803
 C799 C 0.76703 0.13875 0.52568
 N800 N 0.75311 0.13938 0.51706
 C801 C 0.74089 0.14899 0.52177
 C802 C 0.74208 0.15773 0.53605
 C803 C 0.76866 0.14715 0.54006
 C804 C 0.74627 0.12991 0.46607
 C805 C 0.74583 0.13783 0.45135
 C806 C 0.75309 0.16251 0.46492
 C807 C 0.75342 0.15408 0.47945
 N808 N 0.75017 0.13804 0.47970
 H809 H 0.77688 0.13156 0.52155
 H810 H 0.73004 0.14964 0.51469
 H811 H 0.73202 0.16487 0.53990
 H812 H 0.77972 0.14622 0.54689
 H813 H 0.74362 0.11718 0.46668
 H814 H 0.74264 0.13112 0.44066
 H815 H 0.75602 0.17521 0.46483
 H816 H 0.75646 0.16027 0.49047
 C817 C 0.79695 0.09440 0.49887
 C818 C 0.70125 0.09860 0.49961
 C819 C 0.74941 0.15432 0.45060
 C820 C 0.75596 0.15654 0.54557
 C821 C 0.99849 0.72835 0.90366
 H822 H 0.99760 0.73918 0.91072
 C823 C 0.99902 0.71403 0.91099
 H824 H 0.99805 0.71371 0.92392
 C825 C 1.00017 0.71653 0.87772
 H826 H 1.00079 0.71763 0.86480
 C827 C 1.00070 0.70055 0.88519
 H828 H 1.00233 0.69047 0.87725
 N829 N 0.99894 0.72935 0.88647
 C830 C 1.01174 0.77864 0.88724
 H831 H 1.02171 0.77639 0.87936
 C832 C 1.01129 0.79243 0.89536
 H833 H 1.02140 0.80061 0.89424
 C834 C 0.98711 0.76930 0.89854
 H835 H 0.97744 0.76055 0.89918
 C836 C 0.98616 0.78434 0.90789
 H837 H 0.97550 0.78606 0.91501
 Zn838 Zn 0.99865 0.74893 0.87499
 N839 N 0.99904 0.76695 0.88883
 C840 C 0.97685 0.76349 0.85358
 N841 N 0.97959 0.75012 0.86253
 C842 C 0.96826 0.73831 0.86387
 C843 C 0.95346 0.73972 0.85614
 C844 C 0.96216 0.76539 0.84561
 C845 C 1.03126 0.74677 0.87031
 C846 C 1.04587 0.74681 0.86227
 C847 C 1.03158 0.75132 0.83739
 C848 C 1.01715 0.75123 0.84596
 N849 N 1.01731 0.74919 0.86216
 H850 H 0.98592 0.77287 0.85299
 H851 H 0.97044 0.72795 0.87132
 H852 H 0.94460 0.73019 0.85743
 H853 H 0.96001 0.77628 0.83888
 H854 H 1.03098 0.74491 0.88315
 H855 H 1.05681 0.74480 0.86902
 H856 H 1.03134 0.75325 0.82454
 H857 H 1.00590 0.75285 0.83969
 C858 C 0.99750 0.79597 0.90612
 C859 C 1.00009 0.69895 0.90133
 C860 C 1.04621 0.74926 0.84561
 C861 C 0.95014 0.75350 0.84705
 C862 C 0.49065 0.22739 0.39791
 H863 H 0.48089 0.23561 0.39979
 C864 C 0.49090 0.21279 0.40620
 H865 H 0.48136 0.20992 0.41454
 C866 C 0.51440 0.22063 0.38403
 H867 H 0.52340 0.22350 0.37517
 C868 C 0.51503 0.20590 0.39193
 H869 H 0.52471 0.19775 0.38928
 N870 N 0.50232 0.23104 0.38705
 C871 C 0.50418 0.28301 0.38032
 H872 H 0.50660 0.28319 0.36760
 C873 C 0.50440 0.29736 0.38887
 H874 H 0.50644 0.30851 0.38247
 C875 C 0.49904 0.26822 0.40405
 H876 H 0.49726 0.25685 0.41002
 C877 C 0.49915 0.28235 0.41311
 H878 H 0.49742 0.28165 0.42596
 Zn879 Zn 0.50127 0.25023 0.37464
 N880 N 0.50126 0.26881 0.38788
 C881 C 0.47828 0.26286 0.35290
 N882 N 0.48231 0.24975 0.36174
 C883 C 0.47259 0.23651 0.36206
 C884 C 0.45785 0.23644 0.35400
 C885 C 0.46364 0.26331 0.34464
 C886 C 0.53385 0.25458 0.36962
 C887 C 0.54830 0.25520 0.36128
 C888 C 0.53361 0.25005 0.33670
 C889 C 0.51937 0.24952 0.34556
 N890 N 0.51981 0.25165 0.36173
 H891 H 0.48622 0.27316 0.35247
 H892 H 0.47611 0.22601 0.36873
 H893 H 0.45023 0.22584 0.35458
 H894 H 0.46042 0.27409 0.33819
 H895 H 0.53382 0.25614 0.38251
 H896 H 0.55938 0.25712 0.36791
 H897 H 0.53310 0.24832 0.32383
 H898 H 0.50803 0.24720 0.33957
 C899 C 0.50182 0.29719 0.40550
 C900 C 0.50312 0.20176 0.40308
 C901 C 0.54834 0.25286 0.34460
 C902 C 0.45306 0.25009 0.34541
 C903 C 0.98890 0.27330 0.60196
 H904 H 0.97847 0.26545 0.60239
 C905 C 0.98851 0.28724 0.59262
 H906 H 0.97783 0.28946 0.58557
 C907 C 1.01534 0.27947 0.61062
 H908 H 1.02563 0.27672 0.61802
 C909 C 1.01561 0.29335 0.60126
 H910 H 1.02616 0.30100 0.60203
 N911 N 1.00211 0.26976 0.61088
 C912 C 1.00405 0.21857 0.62102
 H913 H 1.00771 0.21921 0.63347
 C914 C 1.00355 0.20375 0.61331
 H915 H 1.00634 0.19306 0.62011
 C916 C 0.99629 0.23181 0.59710
 H917 H 0.99368 0.24278 0.59076
 C918 C 0.99567 0.21718 0.58887
 H919 H 0.99264 0.21710 0.57622
 Zn920 Zn 1.00169 0.25164 0.62483
 N921 N 1.00026 0.23222 0.61296
 C922 C 0.97907 0.23993 0.64743
 N923 N 0.98374 0.25305 0.63883
 C924 C 0.97523 0.26689 0.63941
 C925 C 0.96096 0.26758 0.64811
 C926 C 0.96488 0.24010 0.65630
 C927 C 1.03450 0.24712 0.62851
 C928 C 1.04935 0.24665 0.63626
 C929 C 1.03629 0.25410 0.66092
 C930 C 1.02164 0.25439 0.65263
 N931 N 1.02106 0.25105 0.63670
 H932 H 0.98603 0.22912 0.64706
 H933 H 0.97933 0.27737 0.63291
 H934 H 0.95424 0.27862 0.64819
 H935 H 0.96104 0.22929 0.66247
 H936 H 1.03368 0.24461 0.61579
 H937 H 1.05973 0.24423 0.62897
 H938 H 1.03610 0.25640 0.67368
 H939 H 1.01073 0.25733 0.65892
 C940 C 0.99934 0.20289 0.59699
 C941 C 1.00198 0.29771 0.59218
 C942 C 1.05061 0.25021 0.65280
 C943 C 0.95542 0.25394 0.65641
 C944 C 0.48483 0.77644 0.10951
 H945 H 0.47402 0.77155 0.11484
 C946 C 0.48416 0.79080 0.10088
 H947 H 0.47277 0.79680 0.09956
 C948 C 0.51278 0.77455 0.10471
 H949 H 0.52393 0.76826 0.10652
 C950 C 0.51266 0.78886 0.09596
 H951 H 0.52382 0.79355 0.09115
 N952 N 0.49905 0.76882 0.11152
 C953 C 0.50249 0.71749 0.12079
 H954 H 0.50404 0.71757 0.13369
 C955 C 0.50253 0.70299 0.11251
 H956 H 0.50392 0.69193 0.11920
 C957 C 0.49840 0.73188 0.09660
 H958 H 0.49680 0.74321 0.09049
 C959 C 0.49837 0.71758 0.08780
 H960 H 0.49690 0.71804 0.07489
 Zn961 Zn 0.50041 0.75073 0.12515
 N962 N 0.50042 0.73157 0.11281
 C963 C 0.47250 0.73723 0.13967
 N964 N 0.48232 0.75041 0.13920
 C965 C 0.47877 0.76381 0.14777
 C966 C 0.46495 0.76428 0.15722
 C967 C 0.45870 0.73712 0.14909
 C968 C 0.53217 0.74209 0.13308
 C969 C 0.54710 0.74336 0.14066
 C970 C 0.53731 0.76590 0.15572
 C971 C 0.52251 0.76420 0.14783
 N972 N 0.52014 0.75234 0.13682
 H973 H 0.47502 0.72687 0.13243
 H974 H 0.48629 0.77441 0.14678
 H975 H 0.46223 0.77511 0.16379
 H976 H 0.45091 0.72662 0.14902
 H977 H 0.53042 0.73312 0.12390
 H978 H 0.55640 0.73495 0.13754
 H979 H 0.53902 0.77557 0.16425
 H980 H 0.51308 0.77257 0.15033
 C981 C 0.50049 0.70288 0.09578
 C982 C 0.49826 0.79734 0.09421
 C983 C 0.54987 0.75543 0.15209
 C984 C 0.45470 0.75081 0.15791
 O985 O 0.03153 0.99412 1.03837
 O986 O 0.03398 0.96935 1.02612
 O987 O 0.03501 1.02806 0.99995
 O988 O 0.02250 1.03307 0.97680
 O989 O -0.00321 1.03192 1.03451
 O990 O -0.02787 1.01798 1.03848
 O991 O -0.00910 0.98643 0.95806
 O992 O 0.01680 0.99604 0.95712
 O993 O -0.01087 0.95151 0.99437
 O994 O -0.00269 0.95048 1.02238
 O995 O -0.04565 0.98756 0.99365
 O996 O -0.04645 1.01541 1.00084
 O997 O -0.03137 0.99823 0.96818
 O998 O -0.03473 1.02488 0.98218
 O999 O -0.03574 0.96530 1.00572
 O1000 O -0.02127 0.96206 1.03206
 O1001 O 0.00081 0.96175 0.97196
 O1002 O 0.02818 0.97413 0.97180
 O1003 O 0.00920 1.00574 1.04860
 O1004 O -0.01871 0.99739 1.04916
 O1005 O 0.00887 1.04211 1.01228
 O1006 O -0.00045 1.04162 0.98407
 O1007 O 0.04519 1.00600 1.01223
 O1008 O 0.04430 0.97798 1.00232
 Zr1009 Zr 0.02544 0.99005 1.01418
 O1010 O 0.01118 0.97453 0.99997
 Zr1011 Zr 0.01056 1.02248 0.99655
 O1012 O -0.00383 1.00829 0.98120
 Zr1013 Zr -0.00691 1.00751 1.02908
 O1014 O -0.02251 0.99304 1.01516
 Zr1015 Zr 0.00645 0.98567 0.97790
 O1016 O 0.02205 1.00069 0.99147
 Zr1017 Zr -0.01148 0.97102 1.01038
 O1018 O 0.00350 0.98491 1.02572
 Zr1019 Zr -0.02589 1.00341 0.99239
 O1020 O -0.01209 1.01904 1.00720
 O1021 O 0.01527 1.01227 1.01876
 O1022 O -0.01605 0.98102 0.98793
 C1023 C 0.02348 1.00013 1.05002
 C1024 C 0.04665 1.02013 1.00614
 C1025 C 0.00290 1.04359 1.02638
 C1026 C -0.02343 0.99185 0.95664
 C1027 C -0.00569 0.95019 0.97993
 C1028 C -0.04723 0.97328 0.99931
 H1029 H 0.01686 0.96430 0.99842
 H1030 H -0.03276 0.99162 1.02094
 H1031 H 0.02221 1.01923 1.02554
 H1032 H -0.00519 1.01390 0.97083
 H1033 H 0.02701 1.00121 0.96057
 H1034 H 0.01982 1.02645 0.96731
 H1035 H -0.03063 0.96871 1.03481
 H1036 H -0.01399 0.98667 1.05090
 H1037 H 0.02665 0.96892 0.96120
 H1038 H 0.05439 0.97952 1.00855
 H1039 H -0.04868 1.01138 1.01178
 H1040 H -0.03215 1.02507 1.02997
 H1041 H 0.02501 0.96517 1.03273
 H1042 H 0.00791 0.94796 1.01776
 H1043 H -0.01052 1.04405 0.98981
 H1044 H -0.02827 1.02736 0.97254
 O1045 O 0.49012 0.45284 0.49441
 O1046 O 0.49890 0.45239 0.52075
 O1047 O 0.45402 0.48965 0.49426
 O1048 O 0.45248 0.51573 0.49923
 O1049 O 0.49095 0.48895 0.45729
 O1050 O 0.51832 0.49703 0.45685
 O1051 O 0.49735 0.53333 0.53448
 O1052 O 0.47232 0.52140 0.53657
 O1053 O 0.53137 0.49714 0.53766
 O1054 O 0.53535 0.47135 0.52439
 O1055 O 0.53462 0.53037 0.50027
 O1056 O 0.52081 0.53443 0.47497
 O1057 O 0.50949 0.54348 0.51222
 O1058 O 0.50062 0.54405 0.48335
 O1059 O 0.54491 0.50833 0.51241
 O1060 O 0.54518 0.47950 0.50402
 O1061 O 0.50928 0.50926 0.54765
 O1062 O 0.48205 0.49670 0.54772
 O1063 O 0.50272 0.46295 0.47237
 O1064 O 0.52780 0.47716 0.46848
 O1065 O 0.46866 0.50078 0.46721
 O1066 O 0.46644 0.52696 0.48127
 O1067 O 0.46429 0.46714 0.50559
 O1068 O 0.47820 0.46603 0.53193
 Zr1069 Zr 0.48868 0.47282 0.50972
 O1070 O 0.50353 0.48684 0.52486
 Zr1071 Zr 0.47402 0.50506 0.49157
 O1072 O 0.48784 0.52041 0.50634
 Zr1073 Zr 0.50649 0.48752 0.47720
 O1074 O 0.52181 0.50244 0.49092
 Zr1075 Zr 0.49292 0.50927 0.52835
 O1076 O 0.47717 0.49472 0.51443
 Zr1077 Zr 0.52545 0.49205 0.51360
 O1078 O 0.51144 0.47629 0.49923
 Zr1079 Zr 0.51043 0.52427 0.49583
 O1080 O 0.49597 0.51017 0.48013
 O1081 O 0.48417 0.48286 0.48730
 O1082 O 0.51528 0.51426 0.51820
 C1083 C 0.49641 0.45131 0.48042
 C1084 C 0.45257 0.47535 0.49992
 C1085 C 0.47679 0.49473 0.45566
 C1086 C 0.50395 0.54487 0.52654
 C1087 C 0.52361 0.50387 0.54908
 C1088 C 0.54625 0.52261 0.50672
 H1089 H 0.50505 0.48120 0.53520
 H1090 H 0.53200 0.50407 0.48508
 H1091 H 0.47725 0.47588 0.48050
 H1092 H 0.48200 0.53054 0.50802
 H1093 H 0.46298 0.51430 0.53423
 H1094 H 0.45504 0.52153 0.50928
 H1095 H 0.54879 0.48527 0.49428
 H1096 H 0.53157 0.46967 0.47689
 H1097 H 0.48264 0.50367 0.55735
 H1098 H 0.47209 0.45584 0.53043
 H1099 H 0.52882 0.52678 0.47091
 H1100 H 0.51429 0.50807 0.45540
 H1101 H 0.51015 0.45186 0.51703
 H1102 H 0.52789 0.46768 0.53288
 H1103 H 0.47407 0.52961 0.47256
 H1104 H 0.49106 0.54764 0.48928
 O1105 O 0.50252 -0.03571 0.53022
 O1106 O 0.52711 -0.02288 0.53316
 O1107 O 0.46838 0.00242 0.53427
 O1108 O 0.46256 0.02519 0.52173
 O1109 O 0.46417 -0.03225 0.49552
 O1110 O 0.47783 -0.03553 0.47082
 O1111 O 0.50908 0.04523 0.49100
 O1112 O 0.49967 0.04573 0.51677
 O1113 O 0.54431 0.00959 0.48919
 O1114 O 0.54544 -0.01863 0.49679
 O1115 O 0.50784 0.00990 0.45391
 O1116 O 0.48000 0.00230 0.45287
 O1117 O 0.49734 0.03506 0.46844
 O1118 O 0.47057 0.02070 0.46482
 O1119 O 0.53043 -0.00147 0.46394
 O1120 O 0.53398 -0.02799 0.47773
 O1121 O 0.53404 0.03171 0.50106
 O1122 O 0.52175 0.03134 0.52821
 O1123 O 0.49069 -0.04593 0.50771
 O1124 O 0.49861 -0.04596 0.47990
 O1125 O 0.45394 -0.01038 0.50788
 O1126 O 0.45414 0.01798 0.49878
 O1127 O 0.49040 -0.01008 0.54424
 O1128 O 0.51828 0.00056 0.54378
 Zr1129 Zr 0.50619 -0.01135 0.52463
 O1130 O 0.52148 0.00335 0.51074
 Zr1131 Zr 0.47346 0.00581 0.50981
 O1132 O 0.48743 0.02159 0.49577
 Zr1133 Zr 0.48850 -0.02622 0.49198
 O1134 O 0.50276 -0.01185 0.47672
 Zr1135 Zr 0.51013 0.02525 0.50627
 O1136 O 0.49535 0.01119 0.52152
 Zr1137 Zr 0.52486 -0.00674 0.48798
 O1138 O 0.51120 -0.02253 0.50258
 Zr1139 Zr 0.49219 0.01074 0.47360
 O1140 O 0.47677 -0.00451 0.48705
 O1141 O 0.48388 -0.01626 0.51427
 O1142 O 0.51466 0.01556 0.48368
 C1143 C 0.49658 -0.04740 0.52194
 C1144 C 0.47641 -0.00393 0.54583
 C1145 C 0.45250 -0.02445 0.50170
 C1146 C 0.50367 0.04664 0.47660
 C1147 C 0.54562 0.02396 0.49466
 C1148 C 0.52224 0.00477 0.45246
 H1149 H 0.53176 0.00502 0.51654
 H1150 H 0.50413 -0.01748 0.46640
 H1151 H 0.47706 -0.02326 0.52109
 H1152 H 0.48174 0.03187 0.49452
 H1153 H 0.49460 0.04208 0.52688
 H1154 H 0.46934 0.03477 0.51965
 H1155 H 0.52723 -0.03075 0.46830
 H1156 H 0.50949 -0.04741 0.48449
 H1157 H 0.52685 0.04208 0.52691
 H1158 H 0.51688 -0.00583 0.55374
 H1159 H 0.48400 -0.00859 0.45057
 H1160 H 0.47053 -0.02715 0.46673
 H1161 H 0.53130 -0.02930 0.52415
 H1162 H 0.54820 -0.01393 0.50735
 H1163 H 0.45161 0.01222 0.48868
 H1164 H 0.46819 0.03030 0.47132
 O1165 O 0.00038 0.46240 1.02865
 O1166 O 0.02523 0.47476 1.03174
 O1167 O -0.03301 0.50123 1.03136
 O1168 O -0.03829 0.52378 1.01821
 O1169 O -0.03714 0.46587 0.99305
 O1170 O -0.02302 0.46189 0.96875
 O1171 O 0.00926 0.54247 0.98812
 O1172 O -0.00069 0.54360 1.01365
 O1173 O 0.04386 0.50620 0.98762
 O1174 O 0.04436 0.47813 0.99578
 O1175 O 0.00826 0.50681 0.95173
 O1176 O -0.01966 0.49934 0.95009
 O1177 O -0.00252 0.53220 0.96564
 O1178 O -0.02923 0.51798 0.96154
 O1179 O 0.03019 0.49467 0.96227
 O1180 O 0.03311 0.46854 0.97675
 O1181 O 0.03369 0.52867 0.99891
 O1182 O 0.02088 0.52901 1.02580
 O1183 O -0.01120 0.45193 1.00612
 O1184 O -0.00261 0.45124 0.97848
 O1185 O -0.04720 0.48810 1.00491
 O1186 O -0.04636 0.51627 0.99528
 O1187 O -0.01140 0.48851 1.04193
 O1188 O 0.01666 0.49854 1.04182
 Zr1189 Zr 0.00469 0.48655 1.02265
 O1190 O 0.02049 0.50073 1.00883
 Zr1191 Zr -0.02745 0.50399 1.00691
 O1192 O -0.01295 0.51929 0.99287
 Zr1193 Zr -0.01263 0.47138 0.98995
 O1194 O 0.00218 0.48525 0.97474
 Zr1195 Zr 0.00961 0.52274 1.00374
 O1196 O -0.00570 0.50921 1.01894
 Zr1197 Zr 0.02415 0.49016 0.98634
 O1198 O 0.00992 0.47487 1.00092
 Zr1199 Zr -0.00791 0.50798 0.97099
 O1200 O -0.02387 0.49322 0.98441
 O1201 O -0.01751 0.48184 1.01197
 O1202 O 0.01444 0.51257 0.98143
 C1203 C -0.00565 0.45065 1.02052
 C1204 C -0.02527 0.49497 1.04317
 C1205 C -0.04878 0.47396 0.99890
 C1206 C 0.00394 0.54380 0.97368
 C1207 C 0.04528 0.52064 0.99290
 C1208 C 0.02248 0.50111 0.95057
 H1209 H 0.03068 0.50233 1.01481
 H1210 H 0.00367 0.47942 0.96455
 H1211 H -0.02460 0.47510 1.01878
 H1212 H -0.01844 0.52964 0.99134
 H1213 H -0.00602 0.54023 1.02373
 H1214 H -0.03126 0.53319 1.01617
 H1215 H 0.02637 0.46558 0.96738
 H1216 H 0.00808 0.44960 0.98343
 H1217 H 0.02621 0.53962 1.02442
 H1218 H 0.01499 0.49233 1.05186
 H1219 H -0.01569 0.48840 0.94802
 H1220 H -0.02995 0.47039 0.96428
 H1221 H 0.02940 0.46803 1.02295
 H1222 H 0.04694 0.48294 1.00634
 H1223 H -0.04883 0.51033 0.98527
 H1224 H -0.03175 0.52762 0.96793
 O1225 O 0.04466 0.49178 0.50785
 O1226 O 0.04555 0.51814 0.49966
 O1227 O 0.00693 0.49050 0.54311
 O1228 O -0.01909 0.49597 0.54429
 O1229 O 0.00852 0.45444 0.50579
 O1230 O 0.00105 0.45427 0.47828
 O1231 O -0.03538 0.53157 0.49955
 O1232 O -0.02423 0.53339 0.52485
 O1233 O 0.00197 0.53529 0.46656
 O1234 O 0.02770 0.52189 0.46285
 O1235 O -0.03174 0.49797 0.46203
 O1236 O -0.03634 0.47243 0.47508
 O1237 O -0.04546 0.50936 0.48705
 O1238 O -0.04628 0.48023 0.49543
 O1239 O -0.00935 0.51036 0.45240
 O1240 O 0.01936 0.50180 0.45239
 O1241 O -0.01085 0.54495 0.48844
 O1242 O 0.00090 0.54468 0.51594
 O1243 O 0.03477 0.46960 0.49508
 O1244 O 0.02138 0.46629 0.46938
 O1245 O -0.00440 0.46390 0.52773
 O1246 O -0.03032 0.47805 0.52986
 O1247 O 0.02952 0.50270 0.53362
 O1248 O 0.03132 0.52912 0.51999
 Zr1249 Zr 0.02469 0.50694 0.50916
 O1250 O 0.01119 0.52217 0.49426
 Zr1251 Zr -0.00809 0.48840 0.52283
 O1252 O -0.02297 0.50332 0.50897
 Zr1253 Zr 0.01036 0.47452 0.49059
 O1254 O -0.00412 0.48836 0.47520
 Zr1255 Zr -0.01151 0.52543 0.50446
 O1256 O 0.00249 0.51137 0.52027
 Zr1257 Zr 0.00653 0.51112 0.47210
 O1258 O 0.02184 0.49667 0.48622
 Zr1259 Zr -0.02626 0.49306 0.48618
 O1260 O -0.01262 0.47723 0.50062
 O1261 O 0.01440 0.48441 0.51312
 O1262 O -0.01595 0.51552 0.48189
 C1263 C 0.04626 0.47775 0.50168
 C1264 C 0.02109 0.49654 0.54501
 C1265 C 0.00207 0.45256 0.51965
 C1266 C -0.04684 0.52366 0.49269
 C1267 C -0.00490 0.54660 0.47433
 C1268 C -0.02370 0.50475 0.45073
 H1269 H 0.01697 0.53254 0.49302
 H1270 H -0.00554 0.48266 0.46489
 H1271 H 0.02113 0.47755 0.52009
 H1272 H -0.03325 0.50489 0.51460
 H1273 H -0.01745 0.53093 0.53431
 H1274 H -0.02502 0.50585 0.54168
 H1275 H 0.01360 0.49206 0.44859
 H1276 H 0.02912 0.47476 0.46607
 H1277 H -0.00596 0.55432 0.51532
 H1278 H 0.04127 0.52760 0.52640
 H1279 H -0.02838 0.46837 0.46736
 H1280 H -0.01012 0.45273 0.48204
 H1281 H 0.04638 0.51463 0.48836
 H1282 H 0.03121 0.53037 0.47042
 H1283 H -0.03293 0.46948 0.52202
 H1284 H -0.05029 0.48617 0.50484
 O1285 O 0.50775 0.95546 0.00896
 O1286 O 0.49916 0.95476 -0.01742
 O1287 O 0.54407 0.99287 0.00918
 O1288 O 0.54586 1.01896 0.00418
 O1289 O 0.50691 0.99154 0.04590
 O1290 O 0.47959 0.99923 0.04611
 O1291 O 0.50179 1.03568 -0.03155
 O1292 O 0.52645 1.02391 -0.03355
 O1293 O 0.46713 0.99895 -0.03484
 O1294 O 0.46280 0.97318 -0.02142
 O1295 O 0.46389 1.03231 0.00233
 O1296 O 0.47723 1.03692 0.02736
 O1297 O 0.48940 1.04578 -0.00956
 O1298 O 0.49808 1.04627 0.01966
 O1299 O 0.45348 1.01004 -0.00966
 O1300 O 0.45291 0.98125 -0.00119
 O1301 O 0.48937 1.01144 -0.04471
 O1302 O 0.51643 0.99912 -0.04456
 O1303 O 0.49511 0.96534 0.03093
 O1304 O 0.46998 0.97920 0.03439
 O1305 O 0.52927 1.00386 0.03606
 O1306 O 0.53183 1.03003 0.02180
 O1307 O 0.53372 0.97010 -0.00199
 O1308 O 0.52005 0.96871 -0.02851
 Zr1309 Zr 0.50942 0.97539 -0.00644
 O1310 O 0.49478 0.98911 -0.02177
 Zr1311 Zr 0.52416 1.00794 0.01164
 O1312 O 0.51062 1.02299 -0.00336
 Zr1313 Zr 0.49149 0.98987 0.02589
 O1314 O 0.47643 1.00457 0.01195
 Zr1315 Zr 0.50563 1.01166 -0.02532
 O1316 O 0.52115 0.99744 -0.01118
 Zr1317 Zr 0.47282 0.99406 -0.01070
 O1318 O 0.48660 0.97853 0.00386
 Zr1319 Zr 0.48799 1.02657 0.00695
 O1320 O 0.50216 1.01271 0.02288
 O1321 O 0.51384 0.98557 0.01596
 O1322 O 0.48322 1.01641 -0.01540
 C1323 C 0.50145 0.95382 0.02294
 C1324 C 0.54545 0.97854 0.00371
 C1325 C 0.52108 0.99763 0.04758
 C1326 C 0.49531 1.04721 -0.02375
 C1327 C 0.47502 1.00579 -0.04623
 C1328 C 0.45222 1.02433 -0.00406
 H1329 H 0.49328 0.98340 -0.03207
 H1330 H 0.46621 1.00608 0.01772
 H1331 H 0.52066 0.97874 0.02286
 H1332 H 0.51660 1.03318 -0.00503
 H1333 H 0.53568 1.01693 -0.03105
 H1334 H 0.54353 1.02438 -0.00611
 H1335 H 0.44936 0.98693 0.00856
 H1336 H 0.46634 0.97150 0.02606
 H1337 H 0.51594 1.00602 -0.05425
 H1338 H 0.52610 0.95864 -0.02688
 H1339 H 0.46979 1.02881 0.03194
 H1340 H 0.48375 1.01032 0.04758
 H1341 H 0.48787 0.95405 -0.01380
 H1342 H 0.47031 0.96954 -0.02979
 H1343 H 0.52428 1.03251 0.03057
 H1344 H 0.50744 1.05030 0.01353
 O1345 O 0.45146 0.50857 0.00991
 O1346 O 0.45069 0.48226 0.00116
 O1347 O 0.48860 0.50928 0.04590
 O1348 O 0.51463 0.50404 0.04766
 O1349 O 0.48760 0.54591 0.00878
 O1350 O 0.49542 0.54634 -0.01853
 O1351 O 0.53162 0.46886 0.00307
 O1352 O 0.52012 0.46678 0.02806
 O1353 O 0.49480 0.46539 -0.03088
 O1354 O 0.46915 0.47872 -0.03516
 O1355 O 0.52844 0.50297 -0.03430
 O1356 O 0.53282 0.52831 -0.02083
 O1357 O 0.54179 0.49120 -0.00907
 O1358 O 0.54251 0.52019 -0.00040
 O1359 O 0.50625 0.49061 -0.04459
 O1360 O 0.47746 0.49901 -0.04517
 O1361 O 0.50717 0.45553 -0.00868
 O1362 O 0.49510 0.45556 0.01852
 O1363 O 0.46135 0.53058 -0.00309
 O1364 O 0.47538 0.53456 -0.02804
 O1365 O 0.49997 0.53611 0.03102
 O1366 O 0.52596 0.52208 0.03363
 O1367 O 0.46610 0.49732 0.03573
 O1368 O 0.46453 0.47107 0.02190
 Zr1369 Zr 0.47136 0.49334 0.01138
 O1370 O 0.48511 0.47826 -0.00329
 Zr1371 Zr 0.50388 0.51172 0.02599
 O1372 O 0.51899 0.49699 0.01239
 Zr1373 Zr 0.48593 0.52595 -0.00662
 O1374 O 0.50064 0.51227 -0.02174
 Zr1375 Zr 0.50765 0.47491 0.00744
 O1376 O 0.49338 0.48878 0.02301
 Zr1377 Zr 0.49010 0.48951 -0.02527
 O1378 O 0.47457 0.50382 -0.01143
 Zr1379 Zr 0.52261 0.50749 -0.01024
 O1380 O 0.50873 0.52314 0.00399
 O1381 O 0.48154 0.51585 0.01574
 O1382 O 0.51243 0.48505 -0.01496
 C1383 C 0.44983 0.52247 0.00340
 C1384 C 0.47438 0.50329 0.04739
 C1385 C 0.49378 0.54760 0.02286
 C1386 C 0.54314 0.47686 -0.00349
 C1387 C 0.50148 0.45400 -0.02296
 C1388 C 0.52057 0.49636 -0.04588
 H1389 H 0.47936 0.46791 -0.00474
 H1390 H 0.50220 0.51809 -0.03197
 H1391 H 0.47469 0.52263 0.02257
 H1392 H 0.52919 0.49538 0.01827
 H1393 H 0.51320 0.46914 0.03738
 H1394 H 0.52055 0.49415 0.04515
 H1395 H 0.48331 0.50872 -0.04885
 H1396 H 0.46788 0.52606 -0.03183
 H1397 H 0.50199 0.44594 0.01803
 H1398 H 0.45442 0.47252 0.02795
 H1399 H 0.52500 0.53241 -0.02876
 H1400 H 0.50652 0.54786 -0.01446
 H1401 H 0.44995 0.48609 -0.01007
 H1402 H 0.46542 0.47032 -0.02760
 H1403 H 0.52864 0.53075 0.02592
 H1404 H 0.54634 0.51418 0.00909
 O1405 O 0.03379 -0.03105 0.50575
 O1406 O 0.02143 -0.03373 0.53047
 O1407 O -0.00461 -0.03524 0.47161
 O1408 O -0.02778 -0.02306 0.46631
 O1409 O 0.03005 0.00351 0.46747
 O1410 O 0.03388 0.02827 0.48104
 O1411 O -0.04659 0.00827 0.51258
 O1412 O -0.04762 -0.01755 0.50313
 O1413 O -0.01022 0.01033 0.54755
 O1414 O 0.01784 0.00272 0.54875
 O1415 O -0.01122 0.04522 0.51129
 O1416 O -0.00358 0.04621 0.48336
 O1417 O -0.03642 0.03061 0.50044
 O1418 O -0.02237 0.03431 0.47393
 O1419 O 0.00121 0.03550 0.53350
 O1420 O 0.02744 0.02149 0.53715
 O1421 O -0.03267 -0.00174 0.53743
 O1422 O -0.03291 -0.02893 0.52513
 O1423 O 0.04409 -0.00856 0.49395
 O1424 O 0.04461 0.01934 0.50180
 O1425 O 0.00782 -0.00891 0.45728
 O1426 O -0.02040 0.00001 0.45749
 O1427 O 0.00769 -0.04512 0.49388
 O1428 O -0.00233 -0.04448 0.52175
 Zr1429 Zr 0.00957 -0.02539 0.50956
 O1430 O -0.00468 -0.01142 0.52481
 Zr1431 Zr -0.00801 -0.01083 0.47684
 O1432 O -0.02338 0.00332 0.49080
 Zr1433 Zr 0.02453 0.00718 0.49178
 O1434 O 0.01059 0.02251 0.50601
 Zr1435 Zr -0.02676 -0.00702 0.51352
 O1436 O -0.01315 -0.02238 0.49876
 Zr1437 Zr 0.00579 0.01135 0.52811
 O1438 O 0.02115 -0.00331 0.51448
 Zr1439 Zr -0.01219 0.02554 0.49551
 O1440 O 0.00263 0.01199 0.48010
 O1441 O 0.01420 -0.01516 0.48725
 O1442 O -0.01669 0.01559 0.51799
 C1443 C 0.04548 -0.02281 0.49977
 C1444 C 0.00161 -0.04675 0.47976
 C1445 C 0.02197 -0.00275 0.45583
 C1446 C -0.04797 0.02256 0.50694
 C1447 C -0.02462 0.00477 0.54895
 C1448 C -0.00541 0.04686 0.52551
 H1449 H -0.00623 -0.01716 0.53510
 H1450 H 0.01638 0.03285 0.50737
 H1451 H 0.02102 -0.02199 0.48043
 H1452 H -0.03376 0.00453 0.48513
 H1453 H -0.04420 -0.02767 0.49803
 H1454 H -0.03731 -0.02042 0.47277
 H1455 H 0.03030 0.03082 0.53035
 H1456 H 0.04634 0.01470 0.51260
 H1457 H -0.04353 -0.02762 0.53027
 H1458 H 0.00396 -0.05443 0.52041
 H1459 H 0.00723 0.04878 0.48769
 H1460 H 0.02531 0.03242 0.47394
 H1461 H 0.02814 -0.02471 0.53451
 H1462 H 0.01318 -0.00792 0.55142
 H1463 H -0.01466 0.01017 0.45501
 H1464 H -0.03191 0.02759 0.47135
 O1465 O 0.78477 0.25056 0.21741
 O1466 O 0.77265 0.22548 0.21498
 O1467 O 0.74574 0.28348 0.21400
 O1468 O 0.72288 0.28834 0.22681
 O1469 O 0.78106 0.28860 0.25205
 O1470 O 0.78541 0.27510 0.27672
 O1471 O 0.70499 0.24151 0.25833
 O1472 O 0.70361 0.25078 0.23245
 O1473 O 0.74191 0.20735 0.25960
 O1474 O 0.76983 0.20702 0.25155
 O1475 O 0.74083 0.24354 0.29459
 O1476 O 0.74816 0.27154 0.29557
 O1477 O 0.71527 0.25404 0.28040
 O1478 O 0.72938 0.28076 0.28391
 O1479 O 0.75325 0.22164 0.28457
 O1480 O 0.77952 0.21892 0.27013
 O1481 O 0.71904 0.21700 0.24841
 O1482 O 0.71835 0.22907 0.22104
 O1483 O 0.79523 0.26257 0.23971
 O1484 O 0.79622 0.25464 0.26760
 O1485 O 0.75858 0.29819 0.24003
 O1486 O 0.73047 0.29719 0.24960
 O1487 O 0.75836 0.26172 0.20388
 O1488 O 0.74864 0.23357 0.20473
 Zr1489 Zr 0.76068 0.24603 0.22356
 O1490 O 0.74680 0.23034 0.23783
 Zr1491 Zr 0.74293 0.27821 0.23852
 O1492 O 0.72792 0.26380 0.25296
 Zr1493 Zr 0.77587 0.26414 0.25583
 O1494 O 0.76231 0.24949 0.27145
 Zr1495 Zr 0.72466 0.24100 0.24271
 O1496 O 0.73788 0.25617 0.22707
 Zr1497 Zr 0.75762 0.22730 0.26039
 O1498 O 0.77262 0.24138 0.24540
 Zr1499 Zr 0.73947 0.25937 0.27495
 O1500 O 0.75392 0.27522 0.26110
 O1501 O 0.76519 0.26845 0.23371
 O1502 O 0.73509 0.23679 0.26511
 C1503 C 0.79650 0.25684 0.22543
 C1504 C 0.75195 0.27560 0.20237
 C1505 C 0.77278 0.30002 0.24593
 C1506 C 0.70367 0.24729 0.27255
 C1507 C 0.72736 0.20566 0.25461
 C1508 C 0.74670 0.22942 0.29607
 H1509 H 0.74528 0.22002 0.23214
 H1510 H 0.76824 0.24827 0.28168
 H1511 H 0.77182 0.27547 0.22673
 H1512 H 0.71752 0.26922 0.25435
 H1513 H 0.70687 0.25591 0.22223
 H1514 H 0.71353 0.28138 0.22931
 H1515 H 0.78227 0.22565 0.27954
 H1516 H 0.79799 0.24389 0.26293
 H1517 H 0.70782 0.22363 0.22263
 H1518 H 0.75477 0.23511 0.19464
 H1519 H 0.75914 0.26766 0.29777
 H1520 H 0.77682 0.28194 0.28106
 H1521 H 0.77960 0.22164 0.22383
 H1522 H 0.76516 0.20432 0.24094
 H1523 H 0.73643 0.29993 0.25956
 H1524 H 0.71975 0.28317 0.27738
 O1525 O 0.75277 0.71907 0.71466
 O1526 O 0.77729 0.71705 0.72757
 O1527 O 0.71834 0.71415 0.75269
 O1528 O 0.71241 0.72652 0.77555
 O1529 O 0.71365 0.75221 0.71775
 O1530 O 0.72668 0.77748 0.71425
 O1531 O 0.75809 0.75922 0.79512
 O1532 O 0.74926 0.73305 0.79591
 O1533 O 0.79340 0.76213 0.75934
 O1534 O 0.79484 0.75425 0.73125
 O1535 O 0.75635 0.79588 0.75968
 O1536 O 0.72871 0.79611 0.75190
 O1537 O 0.74548 0.78104 0.78485
 O1538 O 0.71896 0.78371 0.77005
 O1539 O 0.77905 0.78664 0.74807
 O1540 O 0.78292 0.77272 0.72162
 O1541 O 0.78328 0.75019 0.78167
 O1542 O 0.77173 0.72247 0.78163
 O1543 O 0.74054 0.74106 0.70421
 O1544 O 0.74778 0.76921 0.70389
 O1545 O 0.70355 0.73981 0.73985
 O1546 O 0.70342 0.74912 0.76811
 O1547 O 0.74065 0.70480 0.74037
 O1548 O 0.76846 0.70637 0.75115
 Zr1549 Zr 0.75612 0.72497 0.73897
 O1550 O 0.77107 0.73957 0.75344
 Zr1551 Zr 0.72303 0.73875 0.75600
 O1552 O 0.73664 0.75344 0.77159
 Zr1553 Zr 0.73784 0.75686 0.72374
 O1554 O 0.75170 0.77277 0.73791
 Zr1555 Zr 0.75956 0.74384 0.77531
 O1556 O 0.74513 0.72790 0.76149
 Zr1557 Zr 0.77400 0.76236 0.74307
 O1558 O 0.76072 0.74710 0.72751
 Zr1559 Zr 0.74097 0.77569 0.76048
 O1560 O 0.72590 0.76154 0.74541
 O1561 O 0.73366 0.73449 0.73397
 O1562 O 0.76362 0.76649 0.76534
 C1563 C 0.74675 0.72704 0.70289
 C1564 C 0.72657 0.70283 0.74640
 C1565 C 0.70207 0.74567 0.72565
 C1566 C 0.75203 0.77326 0.79648
 C1567 C 0.79474 0.75698 0.77382
 C1568 C 0.77072 0.79782 0.75443
 H1569 H 0.78147 0.73420 0.75515
 H1570 H 0.75291 0.78310 0.73218
 H1571 H 0.72703 0.72737 0.72703
 H1572 H 0.73085 0.75453 0.78185
 H1573 H 0.74447 0.72270 0.79238
 H1574 H 0.71907 0.72902 0.78509
 H1575 H 0.77612 0.78199 0.71889
 H1576 H 0.75874 0.76500 0.70242
 H1577 H 0.77676 0.72410 0.79232
 H1578 H 0.76727 0.69629 0.74490
 H1579 H 0.73251 0.79824 0.74087
 H1580 H 0.71929 0.78136 0.72263
 H1581 H 0.78138 0.72617 0.72110
 H1582 H 0.79782 0.74385 0.73609
 H1583 H 0.70059 0.75900 0.76217
 H1584 H 0.71655 0.77720 0.77970
 O1585 O 0.28412 0.21363 0.74686
 O1586 O 0.28662 0.22577 0.72187
 O1587 O 0.28845 0.25316 0.77991
 O1588 O 0.27564 0.27572 0.78545
 O1589 O 0.25005 0.21761 0.78496
 O1590 O 0.22491 0.21376 0.77165
 O1591 O 0.24434 0.29371 0.73862
 O1592 O 0.27033 0.29489 0.74786
 O1593 O 0.24245 0.25678 0.70408
 O1594 O 0.25011 0.22872 0.70358
 O1595 O 0.20751 0.25803 0.74037
 O1596 O 0.20668 0.25086 0.76838
 O1597 O 0.22196 0.28347 0.75059
 O1598 O 0.21861 0.26982 0.77752
 O1599 O 0.21727 0.24561 0.71831
 O1600 O 0.23128 0.21935 0.71524
 O1601 O 0.25396 0.27959 0.71395
 O1602 O 0.28142 0.28005 0.72599
 O1603 O 0.26171 0.20341 0.75882
 O1604 O 0.23374 0.20264 0.75107
 O1605 O 0.26221 0.24013 0.79476
 O1606 O 0.25288 0.26833 0.79396
 O1607 O 0.29806 0.23971 0.75833
 O1608 O 0.29736 0.24963 0.73034
 Zr1609 Zr 0.27832 0.23777 0.74258
 O1610 O 0.26420 0.25175 0.72703
 Zr1611 Zr 0.26380 0.25576 0.77492
 O1612 O 0.24947 0.27082 0.76065
 Zr1613 Zr 0.24592 0.22292 0.76063
 O1614 O 0.23043 0.23653 0.74607
 Zr1615 Zr 0.25970 0.27394 0.73788
 O1616 O 0.27522 0.26061 0.75290
 Zr1617 Zr 0.24146 0.24110 0.72389
 O1618 O 0.25627 0.22600 0.73787
 Zr1619 Zr 0.22729 0.25940 0.75613
 O1620 O 0.24103 0.24492 0.77187
 O1621 O 0.26823 0.23344 0.76498
 O1622 O 0.23712 0.26365 0.73358
 C1623 C 0.27595 0.20200 0.75307
 C1624 C 0.29986 0.24650 0.77207
 C1625 C 0.25633 0.22589 0.79644
 C1626 C 0.22998 0.29501 0.74403
 C1627 C 0.24762 0.27130 0.70253
 C1628 C 0.20588 0.25219 0.72619
 H1629 H 0.26989 0.25320 0.71673
 H1630 H 0.22011 0.23068 0.74481
 H1631 H 0.27520 0.22679 0.77192
 H1632 H 0.24824 0.28125 0.76612
 H1633 H 0.28055 0.29155 0.75292
 H1634 H 0.27362 0.28499 0.77834
 H1635 H 0.22198 0.21657 0.72209
 H1636 H 0.23822 0.20086 0.74025
 H1637 H 0.27997 0.29059 0.72067
 H1638 H 0.30734 0.24338 0.73180
 H1639 H 0.20434 0.23988 0.76446
 H1640 H 0.22099 0.22232 0.77882
 H1641 H 0.27767 0.21883 0.71803
 H1642 H 0.26070 0.23343 0.70081
 H1643 H 0.24287 0.26242 0.79666
 H1644 H 0.22518 0.27952 0.77980
 O1645 O 0.26033 0.70419 0.24135
 O1646 O 0.23399 0.70306 0.24974
 O1647 O 0.26102 0.74189 0.20600
 O1648 O 0.25548 0.76788 0.20473
 O1649 O 0.29739 0.74066 0.24353
 O1650 O 0.29755 0.74800 0.27100
 O1651 O 0.21990 0.78384 0.24917
 O1652 O 0.21810 0.77267 0.22396
 O1653 O 0.21653 0.74670 0.28250
 O1654 O 0.22988 0.72089 0.28626
 O1655 O 0.25344 0.78043 0.28695
 O1656 O 0.27919 0.78504 0.27395
 O1657 O 0.24210 0.79405 0.26169
 O1658 O 0.27115 0.79514 0.25367
 O1659 O 0.24174 0.75770 0.29669
 O1660 O 0.25007 0.72905 0.29667
 O1661 O 0.20670 0.75922 0.26038
 O1662 O 0.20698 0.74750 0.23297
 O1663 O 0.28232 0.71416 0.25445
 O1664 O 0.28583 0.72762 0.27992
 O1665 O 0.28770 0.75332 0.22142
 O1666 O 0.27345 0.77912 0.21912
 O1667 O 0.24906 0.71922 0.21565
 O1668 O 0.22277 0.71712 0.22921
 Zr1669 Zr 0.24495 0.72398 0.24005
 O1670 O 0.22962 0.73735 0.25479
 Zr1671 Zr 0.26319 0.75687 0.22624
 O1672 O 0.24823 0.77162 0.24001
 Zr1673 Zr 0.27732 0.73855 0.25865
 O1674 O 0.26338 0.75285 0.27393
 Zr1675 Zr 0.22619 0.76002 0.24446
 O1676 O 0.24031 0.74613 0.22879
 Zr1677 Zr 0.24069 0.74205 0.27697
 O1678 O 0.25526 0.72690 0.26301
 Zr1679 Zr 0.25849 0.77496 0.26285
 O1680 O 0.27438 0.76148 0.24848
 O1681 O 0.26741 0.73443 0.23610
 O1682 O 0.23610 0.76449 0.26707
 C1683 C 0.27432 0.70263 0.24776
 C1684 C 0.25503 0.72770 0.20419
 C1685 C 0.29917 0.74707 0.22961
 C1686 C 0.22778 0.79535 0.25596
 C1687 C 0.20515 0.75344 0.27459
 C1688 C 0.24705 0.77214 0.29831
 H1689 H 0.21927 0.73153 0.25602
 H1690 H 0.26912 0.75426 0.28425
 H1691 H 0.27431 0.72777 0.22919
 H1692 H 0.24659 0.78189 0.23431
 H1693 H 0.22058 0.76591 0.21455
 H1694 H 0.24560 0.77379 0.20731
 H1695 H 0.25990 0.73470 0.30042
 H1696 H 0.27744 0.71983 0.28331
 H1697 H 0.19729 0.75429 0.23350
 H1698 H 0.22435 0.70714 0.22295
 H1699 H 0.28304 0.77726 0.28203
 H1700 H 0.29889 0.75922 0.26729
 H1701 H 0.23761 0.70227 0.26104
 H1702 H 0.22138 0.71740 0.27864
 H1703 H 0.28197 0.78180 0.22703
 H1704 H 0.26535 0.79892 0.24402
 O1705 O 0.23952 0.73905 0.79617
 O1706 O 0.24801 0.76537 0.79687
 O1707 O 0.20298 0.73857 0.75912
 O1708 O 0.20115 0.74410 0.73313
 O1709 O 0.23992 0.70211 0.75988
 O1710 O 0.26722 0.70196 0.75204
 O1711 O 0.24580 0.77977 0.71601
 O1712 O 0.22096 0.78162 0.72774
 O1713 O 0.28012 0.78293 0.75268
 O1714 O 0.28442 0.76924 0.77828
 O1715 O 0.28316 0.74587 0.71901
 O1716 O 0.26949 0.72057 0.71460
 O1717 O 0.25781 0.75768 0.70576
 O1718 O 0.24901 0.72862 0.70509
 O1719 O 0.29363 0.75791 0.74119
 O1720 O 0.29427 0.74919 0.76988
 O1721 O 0.25798 0.79285 0.74033
 O1722 O 0.23083 0.79255 0.75262
 O1723 O 0.25173 0.71698 0.78603
 O1724 O 0.27686 0.71362 0.77209
 O1725 O 0.21762 0.71192 0.74771
 O1726 O 0.21502 0.72632 0.72175
 O1727 O 0.21335 0.75018 0.78160
 O1728 O 0.22738 0.77657 0.78308
 Zr1729 Zr 0.23774 0.75444 0.77625
 O1730 O 0.25247 0.76980 0.76246
 Zr1731 Zr 0.22283 0.73641 0.74380
 O1732 O 0.23648 0.75145 0.72867
 Zr1733 Zr 0.25543 0.72214 0.76155
 O1734 O 0.27060 0.73611 0.74680
 Zr1735 Zr 0.24165 0.77340 0.73999
 O1736 O 0.22603 0.75923 0.75430
 Zr1737 Zr 0.27435 0.75873 0.75736
 O1738 O 0.26047 0.74413 0.77292
 Zr1739 Zr 0.25904 0.74114 0.72491
 O1740 O 0.24475 0.72519 0.73882
 O1741 O 0.23315 0.73205 0.76607
 O1742 O 0.26398 0.76347 0.73509
 C1743 C 0.24565 0.72502 0.79766
 C1744 C 0.20159 0.74433 0.77334
 C1745 C 0.22578 0.70040 0.75382
 C1746 C 0.25221 0.77196 0.70444
 C1747 C 0.27229 0.79437 0.74600
 C1748 C 0.29484 0.75237 0.72687
 H1749 H 0.25403 0.78008 0.76821
 H1750 H 0.28078 0.73036 0.74520
 H1751 H 0.22629 0.72513 0.77294
 H1752 H 0.23054 0.75316 0.71851
 H1753 H 0.21167 0.77910 0.73472
 H1754 H 0.20369 0.75415 0.72732
 H1755 H 0.29775 0.73947 0.76411
 H1756 H 0.28058 0.72198 0.77972
 H1757 H 0.23138 0.80227 0.74575
 H1758 H 0.22123 0.77494 0.79314
 H1759 H 0.27736 0.71634 0.72241
 H1760 H 0.26313 0.70058 0.74094
 H1761 H 0.25932 0.76188 0.79744
 H1762 H 0.27704 0.77770 0.78194
 H1763 H 0.22263 0.71770 0.71906
 H1764 H 0.23951 0.73461 0.70134
 O1765 O 0.25455 0.21806 0.21412
 O1766 O 0.27889 0.21555 0.22716
 O1767 O 0.21986 0.21248 0.25205
 O1768 O 0.21411 0.22430 0.27523
 O1769 O 0.21533 0.25148 0.21809
 O1770 O 0.22871 0.27655 0.21487
 O1771 O 0.25984 0.25666 0.29546
 O1772 O 0.25076 0.23053 0.29578
 O1773 O 0.29516 0.25988 0.25975
 O1774 O 0.29656 0.25260 0.23149
 O1775 O 0.25822 0.29389 0.26059
 O1776 O 0.23039 0.29418 0.25273
 O1777 O 0.24737 0.27870 0.28548
 O1778 O 0.22095 0.28183 0.27098
 O1779 O 0.28095 0.28478 0.24893
 O1780 O 0.28483 0.27136 0.22228
 O1781 O 0.28500 0.24747 0.28181
 O1782 O 0.27316 0.21997 0.28132
 O1783 O 0.24195 0.24012 0.20426
 O1784 O 0.24968 0.26815 0.20435
 O1785 O 0.20519 0.23853 0.23986
 O1786 O 0.20510 0.24713 0.26824
 O1787 O 0.24213 0.20325 0.23958
 O1788 O 0.26993 0.20449 0.25047
 Zr1789 Zr 0.25772 0.22337 0.23862
 O1790 O 0.27270 0.23764 0.25341
 Zr1791 Zr 0.22469 0.23697 0.25592
 O1792 O 0.23833 0.25133 0.27179
 Zr1793 Zr 0.23960 0.25564 0.22404
 O1794 O 0.25354 0.27121 0.23848
 Zr1795 Zr 0.26120 0.24156 0.27537
 O1796 O 0.24674 0.22594 0.26121
 Zr1797 Zr 0.27578 0.26061 0.24348
 O1798 O 0.26244 0.24572 0.22761
 Zr1799 Zr 0.24279 0.27375 0.26108
 O1800 O 0.22766 0.25994 0.24578
 O1801 O 0.23529 0.23309 0.23381
 O1802 O 0.26540 0.26438 0.26582
 C1803 C 0.24830 0.22622 0.20259
 C1804 C 0.22804 0.20124 0.24555
 C1805 C 0.20371 0.24486 0.22587
 C1806 C 0.25386 0.27074 0.29701
 C1807 C 0.29651 0.25431 0.27408
 C1808 C 0.27261 0.29589 0.25540
 H1809 H 0.28306 0.23217 0.25502
 H1810 H 0.25480 0.28164 0.23294
 H1811 H 0.22861 0.22617 0.22673
 H1812 H 0.23255 0.25228 0.28207
 H1813 H 0.24591 0.22027 0.29207
 H1814 H 0.22058 0.22686 0.28489
 H1815 H 0.27795 0.28060 0.21961
 H1816 H 0.26060 0.26384 0.20283
 H1817 H 0.27813 0.22133 0.29208
 H1818 H 0.26869 0.19452 0.24405
 H1819 H 0.23463 0.29688 0.24199
 H1820 H 0.22142 0.28043 0.22334
 H1821 H 0.28310 0.22478 0.22091
 H1822 H 0.29954 0.24214 0.23618
 H1823 H 0.20245 0.25726 0.26264
 H1824 H 0.21839 0.27499 0.28036
 O1825 O 0.78275 0.71872 0.24862
 O1826 O 0.78532 0.73106 0.22378
 O1827 O 0.78649 0.75763 0.28220
 O1828 O 0.77358 0.78014 0.28785
 O1829 O 0.74822 0.72196 0.28641
 O1830 O 0.72333 0.71800 0.27286
 O1831 O 0.74244 0.79854 0.24085
 O1832 O 0.76830 0.79987 0.25039
 O1833 O 0.74120 0.76196 0.20600
 O1834 O 0.74876 0.73398 0.20527
 O1835 O 0.70591 0.76288 0.24207
 O1836 O 0.70476 0.75528 0.26985
 O1837 O 0.72022 0.78817 0.25299
 O1838 O 0.71674 0.77388 0.27960
 O1839 O 0.71591 0.75095 0.21984
 O1840 O 0.72985 0.72448 0.21678
 O1841 O 0.75254 0.78474 0.21611
 O1842 O 0.77983 0.78529 0.22857
 O1843 O 0.76027 0.70815 0.26018
 O1844 O 0.73233 0.70736 0.25212
 O1845 O 0.76038 0.74429 0.29659
 O1846 O 0.75075 0.77247 0.29612
 O1847 O 0.79647 0.74492 0.26037
 O1848 O 0.79580 0.75493 0.23243
 Zr1849 Zr 0.77679 0.74283 0.24452
 O1850 O 0.76267 0.75688 0.22904
 Zr1851 Zr 0.76191 0.76025 0.27699
 O1852 O 0.74764 0.77545 0.26279
 Zr1853 Zr 0.74432 0.72753 0.26212
 O1854 O 0.72883 0.74127 0.24768
 Zr1855 Zr 0.75798 0.77892 0.24011
 O1856 O 0.77345 0.76551 0.25512
 Zr1857 Zr 0.73999 0.74616 0.22565
 O1858 O 0.75484 0.73099 0.23950
 Zr1859 Zr 0.72554 0.76399 0.25802
 O1860 O 0.73922 0.74933 0.27364
 O1861 O 0.76656 0.73812 0.26677
 O1862 O 0.73548 0.76857 0.23558
 C1863 C 0.77459 0.70694 0.25458
 C1864 C 0.79807 0.75139 0.27429
 C1865 C 0.75448 0.73003 0.29804
 C1866 C 0.72815 0.79979 0.24646
 C1867 C 0.74639 0.77647 0.20457
 C1868 C 0.70445 0.75743 0.22771
 H1869 H 0.76843 0.75846 0.21880
 H1870 H 0.71853 0.73542 0.24626
 H1871 H 0.77352 0.73143 0.27367
 H1872 H 0.74632 0.78580 0.26839
 H1873 H 0.77847 0.79657 0.25558
 H1874 H 0.77155 0.78949 0.28085
 H1875 H 0.72029 0.72183 0.22332
 H1876 H 0.73693 0.70576 0.24132
 H1877 H 0.77836 0.79586 0.22331
 H1878 H 0.80583 0.74876 0.23391
 H1879 H 0.70259 0.74427 0.26589
 H1880 H 0.71917 0.72649 0.27996
 H1881 H 0.77645 0.72408 0.21981
 H1882 H 0.75944 0.73859 0.20273
 H1883 H 0.74087 0.76633 0.29881
 H1884 H 0.72321 0.78360 0.28208
 O1885 O 0.71629 0.24517 0.77951
 O1886 O 0.72890 0.22053 0.78166
 O1887 O 0.75397 0.27995 0.78455
 O1888 O 0.77731 0.28592 0.77277
 O1889 O 0.71989 0.28404 0.74566
 O1890 O 0.71663 0.27086 0.72060
 O1891 O 0.79731 0.24075 0.74063
 O1892 O 0.79783 0.24971 0.76663
 O1893 O 0.76151 0.20497 0.73770
 O1894 O 0.73333 0.20309 0.74489
 O1895 O 0.76228 0.24217 0.70339
 O1896 O 0.75451 0.26985 0.70294
 O1897 O 0.78733 0.25319 0.71848
 O1898 O 0.77285 0.27947 0.71525
 O1899 O 0.75068 0.21920 0.71268
 O1900 O 0.72397 0.21490 0.72613
 O1901 O 0.78363 0.21540 0.75008
 O1902 O 0.78331 0.22718 0.77747
 O1903 O 0.70610 0.25698 0.75707
 O1904 O 0.70613 0.24968 0.72902
 O1905 O 0.74181 0.29446 0.75841
 O1906 O 0.77018 0.29507 0.74979
 O1907 O 0.74201 0.25717 0.79394
 O1908 O 0.75240 0.22952 0.79282
 Zr1909 Zr 0.74062 0.24185 0.77389
 O1910 O 0.75532 0.22720 0.75973
 Zr1911 Zr 0.75790 0.27523 0.76011
 O1912 O 0.77371 0.26193 0.74583
 Zr1913 Zr 0.72586 0.25993 0.74155
 O1914 O 0.74028 0.24634 0.72605
 Zr1915 Zr 0.77729 0.23907 0.75575
 O1916 O 0.76321 0.25321 0.77128
 Zr1917 Zr 0.74528 0.22413 0.73680
 O1918 O 0.72946 0.23711 0.75161
 Zr1919 Zr 0.76292 0.25745 0.72344
 O1920 O 0.74764 0.27222 0.73716
 O1921 O 0.73579 0.26425 0.76404
 O1922 O 0.76765 0.23487 0.73297
 C1923 C 0.70462 0.25101 0.77126
 C1924 C 0.74775 0.27144 0.79585
 C1925 C 0.72772 0.29573 0.75219
 C1926 C 0.79885 0.24677 0.72650
 C1927 C 0.77584 0.20381 0.74334
 C1928 C 0.75709 0.22771 0.70150
 H1929 H 0.75694 0.21685 0.76529
 H1930 H 0.73468 0.24507 0.71564
 H1931 H 0.72877 0.27079 0.77093
 H1932 H 0.78402 0.26785 0.74483
 H1933 H 0.79419 0.25454 0.77682
 H1934 H 0.78699 0.27978 0.77003
 H1935 H 0.72137 0.22168 0.71675
 H1936 H 0.70460 0.23870 0.73336
 H1937 H 0.79403 0.22231 0.77614
 H1938 H 0.74592 0.23050 0.80273
 H1939 H 0.74368 0.26555 0.70035
 H1940 H 0.72508 0.27834 0.71672
 H1941 H 0.72225 0.21664 0.77255
 H1942 H 0.73774 0.20040 0.75559
 H1943 H 0.76454 0.29766 0.73964
 H1944 H 0.78231 0.28207 0.72203
 C1945 C 0.07518 1.00139 1.15865
 C1946 C 0.09088 0.99564 1.16054
 C1947 C 0.09801 0.99491 1.17571
 C1948 C 0.08965 0.99988 1.18940
 C1949 C 0.07402 1.00584 1.18753
 C1950 C 0.06685 1.00656 1.17232
 C1951 C 0.06757 1.00177 1.14251
 N1952 N 0.05236 1.00718 1.14045
 N1953 N 0.04552 1.00725 1.12596
 C1954 C 0.05359 1.00191 1.11291
 N1955 N 0.06879 0.99654 1.11498
 N1956 N 0.07563 0.99647 1.12945
 C1957 C 0.04594 1.00172 1.09678
 C1958 C 0.05425 0.99575 1.08345
 C1959 C 0.04700 0.99529 1.06830
 C1960 C 0.03125 1.00083 1.06607
 C1961 C 0.02298 1.00691 1.07939
 C1962 C 0.03023 1.00735 1.09455
 H1963 H 0.09771 0.99165 1.15030
 H1964 H 0.11018 0.99055 1.17670
 H1965 H 0.06724 1.00966 1.19787
 H1966 H 0.05474 1.01106 1.17131
 H1967 H 0.06637 0.99132 1.08470
 H1968 H 0.05376 0.99055 1.05833
 H1969 H 0.01084 1.01129 1.07813
 H1970 H 0.02348 1.01205 1.10454
 C1971 C 0.57549 0.50570 0.65747
 C1972 C 0.59120 0.49995 0.65932
 C1973 C 0.59815 0.49865 0.67453
 C1974 C 0.58959 0.50305 0.68830
 C1975 C 0.57398 0.50906 0.68648
 C1976 C 0.56698 0.51034 0.67122
 C1977 C 0.56803 0.50652 0.64129
 N1978 N 0.55278 0.51182 0.63926
 N1979 N 0.54602 0.51213 0.62473
 C1980 C 0.55422 0.50714 0.61162
 N1981 N 0.56948 0.50192 0.61365
 N1982 N 0.57623 0.50162 0.62816
 C1983 C 0.54658 0.50696 0.59549
 C1984 C 0.55489 0.50098 0.58217
 C1985 C 0.54752 0.50017 0.56710
 C1986 C 0.53165 0.50536 0.56494
 C1987 C 0.52343 0.51163 0.57820
 C1988 C 0.53080 0.51241 0.59329
 H1989 H 0.59816 0.49636 0.64902
 H1990 H 0.61031 0.49429 0.67550
 H1991 H 0.56706 0.51246 0.69688
 H1992 H 0.55486 0.51482 0.67024
 H1993 H 0.56707 0.49671 0.58340
 H1994 H 0.55425 0.49534 0.55716
 H1995 H 0.51120 0.51577 0.57698
 H1996 H 0.52405 0.51713 0.60327
 C1997 C 0.42775 -0.00144 0.65527
 C1998 C 0.43492 -0.00918 0.66846
 C1999 C 0.42751 -0.00912 0.68351
 C2000 C 0.41278 -0.00136 0.68566
 C2001 C 0.40583 0.00666 0.67256
 C2002 C 0.41320 0.00662 0.65757
 C2003 C 0.43515 -0.00192 0.63912
 N2004 N 0.42773 0.00501 0.62638
 N2005 N 0.43415 0.00443 0.61180
 C2006 C 0.44829 -0.00311 0.60931
 N2007 N 0.45575 -0.01003 0.62206
 N2008 N 0.44931 -0.00946 0.63666
 C2009 C 0.45538 -0.00367 0.59303
 C2010 C 0.47034 -0.01087 0.59045
 C2011 C 0.47710 -0.01111 0.57512
 C2012 C 0.46904 -0.00417 0.56200
 C2013 C 0.45400 0.00285 0.56457
 C2014 C 0.44727 0.00311 0.57988
 H2015 H 0.44613 -0.01548 0.66712
 H2016 H 0.43310 -0.01549 0.69336
 H2017 H 0.39464 0.01301 0.67391
 H2018 H 0.40740 0.01283 0.64775
 H2019 H 0.47691 -0.01623 0.60030
 H2020 H 0.48869 -0.01664 0.57360
 H2021 H 0.44744 0.00830 0.55476
 H2022 H 0.43571 0.00871 0.58139
 C2023 C -0.07334 0.50216 1.15258
 C2024 C -0.06659 0.49412 1.16580
 C2025 C -0.07382 0.49483 1.18090
 C2026 C -0.08797 0.50357 1.18308
 C2027 C -0.09449 0.51192 1.16996
 C2028 C -0.08728 0.51121 1.15491
 C2029 C -0.06616 0.50093 1.13639
 N2030 N -0.07328 0.50801 1.12355
 N2031 N -0.06703 0.50675 1.10894
 C2032 C -0.05339 0.49834 1.10652
 N2033 N -0.04624 0.49127 1.11936
 N2034 N -0.05250 0.49252 1.13398
 C2035 C -0.04642 0.49704 1.09023
 C2036 C -0.03185 0.48905 1.08782
 C2037 C -0.02511 0.48819 1.07253
 C2038 C -0.03279 0.49527 1.05926
 C2039 C -0.04748 0.50305 1.06164
 C2040 C -0.05420 0.50393 1.07694
 H2041 H -0.05585 0.48705 1.16445
 H2042 H -0.06860 0.48818 1.19076
 H2043 H -0.10522 0.51900 1.17133
 H2044 H -0.09274 0.51768 1.14506
 H2045 H -0.02555 0.48358 1.09778
 H2046 H -0.01379 0.48208 1.07115
 H2047 H -0.05373 0.50863 1.05171
 H2048 H -0.06547 0.51013 1.07833
 C2049 C -0.07439 0.50708 0.34176
 C2050 C -0.08869 0.49839 0.33916
 C2051 C -0.09570 0.49765 0.32395
 C2052 C -0.08869 0.50562 0.31069
 C2053 C -0.07437 0.51451 0.31346
 C2054 C -0.06731 0.51515 0.32874
 C2055 C -0.06698 0.50754 0.35799
 N2056 N -0.05256 0.51492 0.36060
 N2057 N -0.04590 0.51503 0.37518
 C2058 C -0.05339 0.50779 0.38776
 N2059 N -0.06783 0.50049 0.38514
 N2060 N -0.07447 0.50037 0.37058
 C2061 C -0.04592 0.50753 0.40396
 C2062 C -0.05405 0.50033 0.41690
 C2063 C -0.04691 0.49960 0.43207
 C2064 C -0.03144 0.50603 0.43471
 C2065 C -0.02338 0.51343 0.42182
 C2066 C -0.03055 0.51419 0.40663
 H2067 H -0.09459 0.49214 0.34893
 H2068 H -0.10705 0.49128 0.32296
 H2069 H -0.06812 0.52052 0.30379
 H2070 H -0.05623 0.52192 0.33031
 H2071 H -0.06593 0.49513 0.41532
 H2072 H -0.05350 0.49384 0.44171
 H2073 H -0.01147 0.51856 0.42342
 H2074 H -0.02396 0.51984 0.39694
 C2075 C 0.42451 1.00627 -0.15530
 C2076 C 0.40879 1.00024 -0.15735
 C2077 C 0.40202 0.99889 -0.17264
 C2078 C 0.41077 1.00350 -0.18630
 C2079 C 0.42640 1.00975 -0.18429
 C2080 C 0.43321 1.01109 -0.16894
 C2081 C 0.43176 1.00722 -0.13902
 N2082 N 0.44699 1.01288 -0.13680
 N2083 N 0.45355 1.01335 -0.12218
 C2084 C 0.44518 1.00818 -0.10916
 N2085 N 0.42994 1.00260 -0.11139
 N2086 N 0.42338 1.00213 -0.12598
 C2087 C 0.45260 1.00822 -0.09294
 C2088 C 0.44412 1.00208 -0.07969
 C2089 C 0.45130 1.00150 -0.06451
 C2090 C 0.46715 1.00706 -0.06219
 C2091 C 0.47553 1.01348 -0.07538
 C2092 C 0.46835 1.01404 -0.09057
 H2093 H 0.40168 0.99650 -0.14713
 H2094 H 0.38983 0.99433 -0.17376
 H2095 H 0.43346 1.01331 -0.19459
 H2096 H 0.44535 1.01578 -0.16781
 H2097 H 0.43195 0.99753 -0.08104
 H2098 H 0.44445 0.99653 -0.05463
 H2099 H 0.48775 1.01791 -0.07404
 H2100 H 0.47523 1.01889 -0.10049
 C2101 C 0.57239 0.49671 -0.15388
 C2102 C 0.56522 0.48911 -0.16722
 C2103 C 0.57284 0.48927 -0.18216
 C2104 C 0.58781 0.49700 -0.18406
 C2105 C 0.59482 0.50482 -0.17079
 C2106 C 0.58722 0.50467 -0.15590
 C2107 C 0.56464 0.49628 -0.13790
 N2108 N 0.57205 0.50307 -0.12499
 N2109 N 0.56523 0.50265 -0.11058
 C2110 C 0.55070 0.49543 -0.10842
 N2111 N 0.54326 0.48863 -0.12132
 N2112 N 0.55010 0.48903 -0.13576
 C2113 C 0.54312 0.49517 -0.09235
 C2114 C 0.52775 0.48837 -0.09012
 C2115 C 0.52050 0.48856 -0.07502
 C2116 C 0.52846 0.49554 -0.06178
 C2117 C 0.54392 0.50212 -0.06398
 C2118 C 0.55115 0.50194 -0.07906
 H2119 H 0.55379 0.48288 -0.16610
 H2120 H 0.56720 0.48303 -0.19213
 H2121 H 0.60619 0.51115 -0.17193
 H2122 H 0.59306 0.51077 -0.14596
 H2123 H 0.52124 0.48302 -0.10008
 H2124 H 0.50860 0.48335 -0.07376
 H2125 H 0.55043 0.50757 -0.05407
 H2126 H 0.56302 0.50724 -0.08030
 C2127 C 0.07229 -0.00117 0.34707
 C2128 C 0.08698 0.00698 0.34482
 C2129 C 0.09459 0.00682 0.32994
 C2130 C 0.08772 -0.00150 0.31691
 C2131 C 0.07286 -0.00938 0.31901
 C2132 C 0.06523 -0.00924 0.33394
 C2133 C 0.06461 -0.00143 0.36310
 N2134 N 0.05031 -0.00906 0.36548
 N2135 N 0.04361 -0.00943 0.37998
 C2136 C 0.05095 -0.00221 0.39271
 N2137 N 0.06523 0.00543 0.39030
 N2138 N 0.07191 0.00581 0.37583
 C2139 C 0.04359 -0.00261 0.40888
 C2140 C 0.05158 0.00444 0.42205
 C2141 C 0.04464 0.00426 0.43727
 C2142 C 0.02950 -0.00295 0.43973
 C2143 C 0.02154 -0.01010 0.42659
 C2144 C 0.02851 -0.00995 0.41135
 H2145 H 0.09272 0.01343 0.35460
 H2146 H 0.10588 0.01326 0.32863
 H2147 H 0.06733 -0.01600 0.30922
 H2148 H 0.05391 -0.01563 0.33524
 H2149 H 0.06323 0.01017 0.42062
 H2150 H 0.05113 0.00990 0.44710
 H2151 H 0.00987 -0.01579 0.42803
 H2152 H 0.02202 -0.01551 0.40149
 C2153 C 0.15505 1.07284 1.00431
 C2154 C 0.15659 1.08942 1.00708
 C2155 C 0.17157 1.09705 1.00617
 C2156 C 0.18539 1.08835 1.00231
 C2157 C 0.18389 1.07174 0.99965
 C2158 C 0.16889 1.06405 1.00069
 C2159 C 0.13906 1.06489 1.00503
 N2160 N 0.13759 1.04863 1.00514
 N2161 N 0.12316 1.04156 1.00566
 C2162 C 0.10959 1.05046 1.00603
 N2163 N 0.11107 1.06670 1.00593
 N2164 N 0.12549 1.07376 1.00547
 C2165 C 0.09350 1.04267 1.00634
 C2166 C 0.07964 1.05173 1.00342
 C2167 C 0.06447 1.04441 1.00338
 C2168 C 0.06276 1.02788 1.00642
 C2169 C 0.07659 1.01885 1.00955
 C2170 C 0.09181 1.02615 1.00941
 H2171 H 0.14622 1.09653 1.01006
 H2172 H 0.17233 1.10979 1.00866
 H2173 H 0.19425 1.06470 0.99648
 H2174 H 0.16811 1.05128 0.99842
 H2175 H 0.08051 1.06447 1.00098
 H2176 H 0.05406 1.05173 1.00101
 H2177 H 0.07570 1.00608 1.01190
 H2178 H 0.10223 1.01885 1.01177
 C2179 C 0.65572 0.57305 0.50306
 C2180 C 0.65801 0.58753 0.49465
 C2181 C 0.67314 0.59485 0.49398
 C2182 C 0.68640 0.58793 0.50172
 C2183 C 0.68424 0.57329 0.50987
 C2184 C 0.66905 0.56593 0.51055
 C2185 C 0.63948 0.56562 0.50409
 N2186 N 0.63709 0.55139 0.51175
 N2187 N 0.62244 0.54483 0.51270
 C2188 C 0.60956 0.55226 0.50607
 N2189 N 0.61196 0.56649 0.49844
 N2190 N 0.62659 0.57302 0.49749
 C2191 C 0.59326 0.54492 0.50688
 C2192 C 0.57998 0.55289 0.50026
 C2193 C 0.56470 0.54579 0.50049
 C2194 C 0.56230 0.53052 0.50731
 C2195 C 0.57552 0.52267 0.51420
 C2196 C 0.59082 0.52979 0.51399
 H2197 H 0.64807 0.59330 0.48862
 H2198 H 0.67448 0.60597 0.48735
 H2199 H 0.69420 0.56773 0.51606
 H2200 H 0.66773 0.55477 0.51711
 H2201 H 0.58138 0.56459 0.49474
 H2202 H 0.55480 0.55222 0.49510
 H2203 H 0.57412 0.51091 0.51960
 H2204 H 0.60075 0.52332 0.51924
 C2205 C 0.65153 0.42644 -0.00438
 C2206 C 0.65331 0.41067 0.00132
 C2207 C 0.66843 0.40367 0.00207
 C2208 C 0.68220 0.41224 -0.00283
 C2209 C 0.68046 0.42796 -0.00865
 C2210 C 0.66529 0.43500 -0.00939
 C2211 C 0.63541 0.43382 -0.00496
 N2212 N 0.63343 0.44904 -0.01043
 N2213 N 0.61893 0.45566 -0.01072
 C2214 C 0.60580 0.44734 -0.00555
 N2215 N 0.60779 0.43211 -0.00013
 N2216 N 0.62226 0.42550 0.00015
 C2217 C 0.58968 0.45476 -0.00553
 C2218 C 0.57629 0.44622 0.00039
 C2219 C 0.56118 0.45332 0.00089
 C2220 C 0.55907 0.46914 -0.00454
 C2221 C 0.57241 0.47760 -0.01069
 C2222 C 0.58754 0.47050 -0.01116
 H2223 H 0.64300 0.40367 0.00520
 H2224 H 0.66931 0.39142 0.00631
 H2225 H 0.69086 0.43490 -0.01242
 H2226 H 0.66436 0.44718 -0.01384
 H2227 H 0.57747 0.43406 0.00480
 H2228 H 0.55118 0.44642 0.00565
 H2229 H 0.57123 0.48980 -0.01500
 H2230 H 0.59756 0.47741 -0.01584
 C2231 C 0.15419 -0.07265 0.50107
 C2232 C 0.15591 -0.08844 0.50670
 C2233 C 0.17098 -0.09558 0.50724
 C2234 C 0.18475 -0.08712 0.50219
 C2235 C 0.18308 -0.07133 0.49651
 C2236 C 0.16797 -0.06416 0.49597
 C2237 C 0.13811 -0.06519 0.50054
 N2238 N 0.13615 -0.05001 0.49493
 N2239 N 0.12166 -0.04339 0.49454
 C2240 C 0.10850 -0.05167 0.49972
 N2241 N 0.11047 -0.06684 0.50531
 N2242 N 0.12495 -0.07345 0.50570
 C2243 C 0.09236 -0.04432 0.49945
 C2244 C 0.07893 -0.05289 0.50522
 C2245 C 0.06374 -0.04595 0.50523
 C2246 C 0.06157 -0.03026 0.49945
 C2247 C 0.07498 -0.02173 0.49355
 C2248 C 0.09019 -0.02868 0.49356
 H2249 H 0.14558 -0.09539 0.51065
 H2250 H 0.17179 -0.10787 0.51137
 H2251 H 0.19349 -0.06447 0.49264
 H2252 H 0.16709 -0.05196 0.49159
 H2253 H 0.08012 -0.06497 0.50984
 H2254 H 0.05370 -0.05290 0.50985
 H2255 H 0.07377 -0.00962 0.48899
 H2256 H 0.10026 -0.02174 0.48900
 C2257 C 0.34291 -0.07481 0.49826
 C2258 C 0.32970 -0.06729 0.50541
 C2259 C 0.31453 -0.07469 0.50528
 C2260 C 0.31224 -0.08976 0.49802
 C2261 C 0.32537 -0.09712 0.49062
 C2262 C 0.34051 -0.08974 0.49074
 C2263 C 0.35914 -0.06729 0.49884
 N2264 N 0.37194 -0.07482 0.49234
 N2265 N 0.38657 -0.06821 0.49302
 C2266 C 0.38904 -0.05378 0.50024
 N2267 N 0.37624 -0.04623 0.50673
 N2268 N 0.36160 -0.05285 0.50605
 C2269 C 0.40534 -0.04643 0.50094
 C2270 C 0.40783 -0.03132 0.50809
 C2271 C 0.42315 -0.02428 0.50849
 C2272 C 0.43635 -0.03217 0.50177
 C2273 C 0.43388 -0.04736 0.49478
 C2274 C 0.41857 -0.05439 0.49437
 H2275 H 0.33110 -0.05579 0.51131
 H2276 H 0.30468 -0.06879 0.51122
 H2277 H 0.32393 -0.10861 0.48471
 H2278 H 0.35037 -0.09583 0.48502
 H2279 H 0.39794 -0.02485 0.51329
 H2280 H 0.42459 -0.01257 0.51398
 H2281 H 0.44376 -0.05379 0.48949
 H2282 H 0.41711 -0.06606 0.48881
 C2283 C -0.15906 0.42516 0.99454
 C2284 C -0.16149 0.41003 0.98741
 C2285 C -0.17668 0.40276 0.98734
 C2286 C -0.18983 0.41041 0.99439
 C2287 C -0.18752 0.42569 1.00121
 C2288 C -0.17229 0.43298 1.00130
 C2289 C -0.14275 0.43251 0.99516
 N2290 N -0.14021 0.44708 1.00209
 N2291 N -0.12550 0.45351 1.00286
 C2292 C -0.11270 0.44565 0.99675
 N2293 N -0.11525 0.43110 0.98981
 N2294 N -0.12995 0.42468 0.98903
 C2295 C -0.09630 0.45277 0.99760
 C2296 C -0.08308 0.44447 0.99144
 C2297 C -0.06766 0.45125 0.99202
 C2298 C -0.06506 0.46653 0.99877
 C2299 C -0.07826 0.47477 1.00507
 C2300 C -0.09368 0.46797 1.00450
 H2301 H -0.15162 0.40370 0.98199
 H2302 H -0.17814 0.39110 0.98176
 H2303 H -0.19739 0.43182 1.00686
 H2304 H -0.17087 0.44464 1.00687
 H2305 H -0.08463 0.43272 0.98607
 H2306 H -0.05779 0.44455 0.98705
 H2307 H -0.07672 0.48655 1.01037
 H2308 H -0.10357 0.47470 1.00939
 C2309 C -0.15496 0.57462 0.49178
 C2310 C -0.16893 0.56599 0.48736
 C2311 C -0.18408 0.57297 0.48873
 C2312 C -0.18558 0.58868 0.49461
 C2313 C -0.17160 0.59735 0.49880
 C2314 C -0.15650 0.59042 0.49741
 C2315 C -0.13887 0.56721 0.49085
 N2316 N -0.12554 0.57559 0.49546
 N2317 N -0.11110 0.56892 0.49505
 C2318 C -0.10932 0.55356 0.49000
 N2319 N -0.12264 0.54518 0.48529
 N2320 N -0.13710 0.55186 0.48571
 C2321 C -0.09325 0.54605 0.49004
 C2322 C -0.09127 0.53018 0.48476
 C2323 C -0.07618 0.52297 0.48539
 C2324 C -0.06273 0.53146 0.49136
 C2325 C -0.06467 0.54742 0.49639
 C2326 C -0.07973 0.55462 0.49572
 H2327 H -0.16818 0.55380 0.48298
 H2328 H -0.19465 0.56598 0.48549
 H2329 H -0.17233 0.60959 0.50306
 H2330 H -0.14604 0.59747 0.50083
 H2331 H -0.10140 0.52323 0.48027
 H2332 H -0.07513 0.51067 0.48139
 H2333 H -0.05458 0.55436 0.50098
 H2334 H -0.08077 0.56687 0.49985
 C2335 C 0.34271 1.07193 0.00085
 C2336 C 0.32943 1.06451 -0.00670
 C2337 C 0.31419 1.07136 -0.00587
 C2338 C 0.31189 1.08574 0.00256
 C2339 C 0.32511 1.09300 0.01032
 C2340 C 0.34033 1.08620 0.00947
 C2341 C 0.35900 1.06502 -0.00042
 N2342 N 0.37191 1.07269 0.00617
 N2343 N 0.38657 1.06659 0.00498
 C2344 C 0.38896 1.05254 -0.00285
 N2345 N 0.37605 1.04486 -0.00945
 N2346 N 0.36139 1.05098 -0.00828
 C2347 C 0.40527 1.04564 -0.00390
 C2348 C 0.40765 1.03062 -0.01112
 C2349 C 0.42293 1.02384 -0.01148
 C2350 C 0.43621 1.03194 -0.00464
 C2351 C 0.43388 1.04713 0.00224
 C2352 C 0.41861 1.05388 0.00262
 H2353 H 0.33081 1.05348 -0.01338
 H2354 H 0.30421 1.06539 -0.01184
 H2355 H 0.32378 1.10422 0.01670
 H2356 H 0.35026 1.09225 0.01543
 H2357 H 0.39767 1.02395 -0.01631
 H2358 H 0.42428 1.01214 -0.01692
 H2359 H 0.44382 1.05373 0.00760
 H2360 H 0.41725 1.06551 0.00821
 C2361 C -0.00053 1.15361 1.07387
 C2362 C 0.00758 1.16668 1.06674
 C2363 C 0.00736 1.18187 1.07386
 C2364 C -0.00095 1.18430 1.08828
 C2365 C -0.00934 1.17131 1.09519
 C2366 C -0.00912 1.15617 1.08809
 C2367 C 0.00014 1.13733 1.06675
 N2368 N -0.00701 1.12464 1.07420
 N2369 N -0.00627 1.10996 1.06800
 C2370 C 0.00166 1.10731 1.05407
 N2371 N 0.00880 1.12000 1.04659
 N2372 N 0.00808 1.13470 1.05281
 C2373 C 0.00238 1.09094 1.04716
 C2374 C 0.00987 1.08829 1.03234
 C2375 C 0.01021 1.07290 1.02569
 C2376 C 0.00309 1.05980 1.03372
 C2377 C -0.00420 1.06242 1.04865
 C2378 C -0.00457 1.07780 1.05528
 H2379 H 0.01431 1.16514 1.05577
 H2380 H 0.01403 1.19162 1.06832
 H2381 H -0.01610 1.17287 1.10614
 H2382 H -0.01562 1.14643 1.09386
 H2383 H 0.01537 1.09811 1.02577
 H2384 H 0.01596 1.07133 1.01418
 H2385 H -0.00981 1.05262 1.05518
 H2386 H -0.01039 1.07939 1.06675
 C2387 C 0.50435 0.65401 0.57619
 C2388 C 0.50925 0.66768 0.56748
 C2389 C 0.50803 0.68302 0.57417
 C2390 C 0.50183 0.68501 0.58968
 C2391 C 0.49712 0.67133 0.59844
 C2392 C 0.49835 0.65604 0.59178
 C2393 C 0.50522 0.63774 0.56906
 N2394 N 0.50014 0.62467 0.57746
 N2395 N 0.50057 0.61007 0.57101
 C2396 C 0.50612 0.60789 0.55589
 N2397 N 0.51128 0.62095 0.54750
 N2398 N 0.51084 0.63556 0.55395
 C2399 C 0.50616 0.59166 0.54859
 C2400 C 0.51186 0.58937 0.53292
 C2401 C 0.51135 0.57416 0.52586
 C2402 C 0.50510 0.56087 0.53428
 C2403 C 0.49964 0.56311 0.55005
 C2404 C 0.50017 0.57831 0.55711
 H2405 H 0.51392 0.66656 0.55543
 H2406 H 0.51167 0.69334 0.56710
 H2407 H 0.49260 0.67243 0.61054
 H2408 H 0.49455 0.64581 0.59889
 H2409 H 0.51659 0.59936 0.52602
 H2410 H 0.51570 0.57289 0.51371
 H2411 H 0.49480 0.55315 0.55692
 H2412 H 0.49571 0.57961 0.56922
 C2413 C -0.00327 0.65600 0.42498
 C2414 C 0.00585 0.65871 0.41107
 C2415 C 0.00645 0.67387 0.40396
 C2416 C -0.00211 0.68672 0.41051
 C2417 C -0.01104 0.68412 0.42457
 C2418 C -0.01162 0.66892 0.43173
 C2419 C -0.00409 0.63975 0.43223
 N2420 N -0.01217 0.63701 0.44612
 N2421 N -0.01284 0.62236 0.45253
 C2422 C -0.00551 0.60981 0.44531
 N2423 N 0.00252 0.61256 0.43142
 N2424 N 0.00321 0.62720 0.42502
 C2425 C -0.00598 0.59352 0.45250
 C2426 C 0.00121 0.58057 0.44460
 C2427 C 0.00130 0.56532 0.45155
 C2428 C -0.00577 0.56262 0.46661
 C2429 C -0.01322 0.57550 0.47440
 C2430 C -0.01334 0.59077 0.46742
 H2431 H 0.01255 0.64911 0.40562
 H2432 H 0.01370 0.67555 0.39332
 H2433 H -0.01785 0.69376 0.42983
 H2434 H -0.01876 0.66725 0.44244
 H2435 H 0.00693 0.58222 0.43306
 H2436 H 0.00713 0.55569 0.44518
 H2437 H -0.01883 0.57385 0.48599
 H2438 H -0.01903 0.60045 0.47382
 C2439 C 0.50157 1.15681 -0.07235
 C2440 C 0.51315 1.16002 -0.08418
 C2441 C 0.51408 1.17508 -0.09150
 C2442 C 0.50341 1.18729 -0.08726
 C2443 C 0.49207 1.18423 -0.07516
 C2444 C 0.49117 1.16916 -0.06776
 C2445 C 0.50019 1.14057 -0.06515
 N2446 N 0.49027 1.13765 -0.05255
 N2447 N 0.48897 1.12298 -0.04626
 C2448 C 0.49747 1.11059 -0.05236
 N2449 N 0.50737 1.11352 -0.06496
 N2450 N 0.50870 1.12819 -0.07121
 C2451 C 0.49621 1.09426 -0.04535
 C2452 C 0.50367 1.08124 -0.05288
 C2453 C 0.50304 1.06593 -0.04605
 C2454 C 0.49501 1.06325 -0.03147
 C2455 C 0.48729 1.07621 -0.02408
 C2456 C 0.48785 1.09153 -0.03097
 H2457 H 0.52147 1.15087 -0.08788
 H2458 H 0.52316 1.17714 -0.10056
 H2459 H 0.48356 1.19332 -0.07174
 H2460 H 0.48211 1.16709 -0.05870
 H2461 H 0.51013 1.08287 -0.06402
 H2462 H 0.50911 1.05626 -0.05210
 H2463 H 0.48096 1.07457 -0.01287
 H2464 H 0.48195 1.10128 -0.02487
 C2465 C 0.50030 0.34471 -0.07233
 C2466 C 0.50445 0.33105 -0.06335
 C2467 C 0.50381 0.31577 -0.07030
 C2468 C 0.49899 0.31381 -0.08638
 C2469 C 0.49480 0.32748 -0.09531
 C2470 C 0.49542 0.34271 -0.08838
 C2471 C 0.50107 0.36097 -0.06511
 N2472 N 0.49646 0.37401 -0.07370
 N2473 N 0.49708 0.38863 -0.06728
 C2474 C 0.50237 0.39086 -0.05199
 N2475 N 0.50702 0.37782 -0.04341
 N2476 N 0.50638 0.36319 -0.04983
 C2477 C 0.50277 0.40713 -0.04478
 C2478 C 0.50864 0.40953 -0.02911
 C2479 C 0.50850 0.42478 -0.02215
 C2480 C 0.50245 0.43801 -0.03067
 C2481 C 0.49684 0.43565 -0.04644
 C2482 C 0.49702 0.42041 -0.05342
 H2483 H 0.50820 0.33214 -0.05094
 H2484 H 0.50697 0.30547 -0.06306
 H2485 H 0.49135 0.32645 -0.10781
 H2486 H 0.49220 0.35294 -0.09569
 H2487 H 0.51322 0.39960 -0.02214
 H2488 H 0.51293 0.42614 -0.00998
 H2489 H 0.49215 0.44556 -0.05338
 H2490 H 0.49245 0.41903 -0.06553
 C2491 C 0.00468 -0.15564 0.42980
 C2492 C 0.00825 -0.15717 0.41342
 C2493 C 0.00869 -0.17227 0.40622
 C2494 C 0.00544 -0.18620 0.41520
 C2495 C 0.00183 -0.18473 0.43157
 C2496 C 0.00155 -0.16960 0.43883
 C2497 C 0.00413 -0.13954 0.43730
 N2498 N 0.00376 -0.13787 0.45351
 N2499 N 0.00334 -0.12335 0.46018
 C2500 C 0.00320 -0.10991 0.45093
 N2501 N 0.00352 -0.11160 0.43473
 N2502 N 0.00401 -0.12609 0.42807
 C2503 C 0.00275 -0.09375 0.45832
 C2504 C -0.00055 -0.08015 0.44892
 C2505 C -0.00100 -0.06490 0.45587
 C2506 C 0.00200 -0.06289 0.47236
 C2507 C 0.00538 -0.07650 0.48174
 C2508 C 0.00567 -0.09175 0.47482
 H2509 H 0.01074 -0.14668 0.40611
 H2510 H 0.01128 -0.17302 0.39353
 H2511 H -0.00065 -0.19530 0.43876
 H2512 H -0.00127 -0.16883 0.45147
 H2513 H -0.00289 -0.08126 0.43617
 H2514 H -0.00359 -0.05468 0.44829
 H2515 H 0.00770 -0.07539 0.49449
 H2516 H 0.00830 -0.10197 0.48239
 C2517 C 0.49863 -0.15677 0.57139
 C2518 C 0.49069 -0.16998 0.56427
 C2519 C 0.49058 -0.18499 0.57184
 C2520 C 0.49837 -0.18708 0.58668
 C2521 C 0.50658 -0.17397 0.59359
 C2522 C 0.50670 -0.15901 0.58606
 C2523 C 0.49832 -0.14066 0.56382
 N2524 N 0.50533 -0.12786 0.57124
 N2525 N 0.50488 -0.11331 0.56467
 C2526 C 0.49739 -0.11089 0.55038
 N2527 N 0.49039 -0.12369 0.54292
 N2528 N 0.49082 -0.13827 0.54951
 C2529 C 0.49691 -0.09463 0.54315
 C2530 C 0.48984 -0.09215 0.52802
 C2531 C 0.48961 -0.07682 0.52118
 C2532 C 0.49643 -0.06360 0.52933
 C2533 C 0.50338 -0.06609 0.54453
 C2534 C 0.50363 -0.08140 0.55134
 H2535 H 0.48437 -0.16868 0.55297
 H2536 H 0.48407 -0.19486 0.56627
 H2537 H 0.51296 -0.17528 0.60487
 H2538 H 0.51306 -0.14917 0.59184
 H2539 H 0.48454 -0.10206 0.52138
 H2540 H 0.48415 -0.07535 0.50946
 H2541 H 0.50875 -0.05621 0.55116
 H2542 H 0.50914 -0.08285 0.56304
 C2543 C -0.00453 0.34231 1.07218
 C2544 C -0.01262 0.32898 1.06557
 C2545 C -0.01172 0.31388 1.07290
 C2546 C -0.00254 0.31161 1.08703
 C2547 C 0.00550 0.32516 1.09354
 C2548 C 0.00450 0.34019 1.08626
 C2549 C -0.00538 0.35837 1.06456
 N2550 N 0.00161 0.37132 1.07173
 N2551 N 0.00107 0.38576 1.06493
 C2552 C -0.00647 0.38791 1.05062
 N2553 N -0.01351 0.37497 1.04343
 N2554 N -0.01299 0.36051 1.05026
 C2555 C -0.00674 0.40400 1.04301
 C2556 C -0.01344 0.40619 1.02765
 C2557 C -0.01322 0.42134 1.02038
 C2558 C -0.00633 0.43465 1.02832
 C2559 C 0.00017 0.43247 1.04376
 C2560 C -0.00002 0.41735 1.05099
 H2561 H -0.01964 0.33017 1.05467
 H2562 H -0.01778 0.30396 1.06701
 H2563 H 0.01212 0.32454 1.10471
 H2564 H 0.01079 0.35021 1.09180
 H2565 H -0.01872 0.39618 1.02116
 H2566 H -0.01837 0.42258 1.00849
 H2567 H 0.00556 0.44242 1.05026
 H2568 H 0.00520 0.41614 1.06285
 C2569 C 0.74887 0.32550 0.09322
 C2570 C 0.74664 0.34206 0.09166
 C2571 C 0.74625 0.34932 0.07657
 C2572 C 0.74804 0.34029 0.06228
 C2573 C 0.75008 0.32349 0.06409
 C2574 C 0.75057 0.31630 0.07927
 C2575 C 0.74941 0.31798 0.10935
 N2576 N 0.75307 0.30224 0.11119
 N2577 N 0.75363 0.29559 0.12573
 C2578 C 0.75052 0.30440 0.13905
 N2579 N 0.74684 0.32013 0.13720
 N2580 N 0.74632 0.32677 0.12268
 C2581 C 0.75106 0.29705 0.15526
 C2582 C 0.74627 0.30582 0.16879
 C2583 C 0.74661 0.29889 0.18406
 C2584 C 0.75182 0.28303 0.18619
 C2585 C 0.75673 0.27431 0.17267
 C2586 C 0.75632 0.28122 0.15739
 H2587 H 0.74509 0.34954 0.10215
 H2588 H 0.74368 0.36199 0.07644
 H2589 H 0.75217 0.31571 0.05398
 H2590 H 0.75239 0.30347 0.08004
 H2591 H 0.74215 0.31804 0.16761
 H2592 H 0.74278 0.30598 0.19419
 H2593 H 0.76080 0.26206 0.17386
 H2594 H 0.76013 0.27414 0.14724
 C2595 C 0.25062 0.82300 0.59580
 C2596 C 0.24405 0.83835 0.59390
 C2597 C 0.24360 0.84568 0.57884
 C2598 C 0.24973 0.83789 0.56529
 C2599 C 0.25610 0.82244 0.56709
 C2600 C 0.25656 0.81508 0.58219
 C2601 C 0.25133 0.81545 0.61191
 N2602 N 0.25757 0.80059 0.61399
 N2603 N 0.25819 0.79390 0.62852
 C2604 C 0.25262 0.80180 0.64158
 N2605 N 0.24641 0.81666 0.63949
 N2606 N 0.24579 0.82333 0.62498
 C2607 C 0.25308 0.79434 0.65775
 C2608 C 0.24715 0.80259 0.67114
 C2609 C 0.24710 0.79543 0.68630
 C2610 C 0.25297 0.77982 0.68847
 C2611 C 0.25915 0.77166 0.67513
 C2612 C 0.25919 0.77883 0.65995
 H2613 H 0.23926 0.84477 0.60406
 H2614 H 0.23835 0.85747 0.57780
 H2615 H 0.26102 0.81619 0.55688
 H2616 H 0.26170 0.80324 0.58322
 H2617 H 0.24240 0.81457 0.66992
 H2618 H 0.24229 0.80211 0.69630
 H2619 H 0.26379 0.75963 0.67635
 H2620 H 0.26389 0.77214 0.64992
 C2621 C 0.75102 0.67741 0.59383
 C2622 C 0.75949 0.66309 0.59161
 C2623 C 0.75970 0.65561 0.57664
 C2624 C 0.75145 0.66223 0.56351
 C2625 C 0.74325 0.67672 0.56560
 C2626 C 0.74303 0.68423 0.58061
 C2627 C 0.75036 0.68495 0.60992
 N2628 N 0.74250 0.69895 0.61223
 N2629 N 0.74176 0.70553 0.62678
 C2630 C 0.74881 0.69837 0.63962
 N2631 N 0.75667 0.68438 0.63729
 N2632 N 0.75743 0.67782 0.62276
 C2633 C 0.74800 0.70562 0.65584
 C2634 C 0.75480 0.69777 0.66914
 C2635 C 0.75425 0.70464 0.68440
 C2636 C 0.74691 0.71956 0.68676
 C2637 C 0.73999 0.72736 0.67348
 C2638 C 0.74052 0.72046 0.65820
 H2639 H 0.76589 0.65756 0.60146
 H2640 H 0.76637 0.64461 0.57534
 H2641 H 0.73667 0.68204 0.55574
 H2642 H 0.73640 0.69525 0.58189
 H2643 H 0.76062 0.68630 0.66778
 H2644 H 0.75970 0.69828 0.69433
 H2645 H 0.73422 0.73885 0.67484
 H2646 H 0.73514 0.72683 0.64824
 C2647 C 0.24995 0.18052 0.09188
 C2648 C 0.23556 0.17818 0.08340
 C2649 C 0.23545 0.17071 0.06840
 C2650 C 0.24983 0.16543 0.06115
 C2651 C 0.26436 0.16853 0.06964
 C2652 C 0.26436 0.17576 0.08478
 C2653 C 0.24986 0.18758 0.10818
 N2654 N 0.26254 0.18565 0.11830
 N2655 N 0.26225 0.19160 0.13313
 C2656 C 0.24929 0.19978 0.13843
 N2657 N 0.23666 0.20179 0.12827
 N2658 N 0.23692 0.19576 0.11349
 C2659 C 0.24892 0.20637 0.15492
 C2660 C 0.23790 0.21833 0.15897
 C2661 C 0.23768 0.22473 0.17446
 C2662 C 0.24831 0.21915 0.18631
 C2663 C 0.25917 0.20701 0.18233
 C2664 C 0.25955 0.20077 0.16677
 H2665 H 0.22424 0.18192 0.08845
 H2666 H 0.22394 0.16978 0.06240
 H2667 H 0.27584 0.16448 0.06533
 H2668 H 0.27569 0.17744 0.09102
 H2669 H 0.22956 0.22292 0.15011
 H2670 H 0.22912 0.23403 0.17716
 H2671 H 0.26756 0.20250 0.19118
 H2672 H 0.26812 0.19150 0.16405
 C2673 C 0.25750 0.17547 0.90529
 C2674 C 0.25379 0.18446 0.91902
 C2675 C 0.25279 0.17706 0.93408
 C2676 C 0.25557 0.16053 0.93574
 C2677 C 0.25962 0.15164 0.92204
 C2678 C 0.26051 0.15900 0.90701
 C2679 C 0.25792 0.18307 0.88921
 N2680 N 0.25833 0.17390 0.87575
 N2681 N 0.25838 0.18064 0.86126
 C2682 C 0.25808 0.19685 0.85959
 N2683 N 0.25775 0.20604 0.87304
 N2684 N 0.25763 0.19929 0.88755
 C2685 C 0.25789 0.20429 0.84342
 C2686 C 0.26054 0.22087 0.84151
 C2687 C 0.26020 0.22786 0.82626
 C2688 C 0.25703 0.21846 0.81258
 C2689 C 0.25439 0.20187 0.81450
 C2690 C 0.25490 0.19486 0.82973
 H2691 H 0.25136 0.19717 0.91811
 H2692 H 0.24947 0.18423 0.94434
 H2693 H 0.26219 0.13896 0.92293
 H2694 H 0.26356 0.15174 0.89672
 H2695 H 0.26293 0.22847 0.85181
 H2696 H 0.26224 0.24068 0.82520
 H2697 H 0.25199 0.19427 0.80421
 H2698 H 0.25277 0.18206 0.83076
 C2699 C 0.75528 0.67739 0.40597
 C2700 C 0.76046 0.68558 0.41986
 C2701 C 0.75967 0.67813 0.43491
 C2702 C 0.75362 0.66238 0.43639
 C2703 C 0.74863 0.65417 0.42249
 C2704 C 0.74944 0.66157 0.40748
 C2705 C 0.75575 0.68525 0.38999
 N2706 N 0.75049 0.67726 0.37674
 N2707 N 0.75063 0.68427 0.36239
 C2708 C 0.75605 0.69960 0.36063
 N2709 N 0.76137 0.70761 0.37386
 N2710 N 0.76122 0.70058 0.38824
 C2711 C 0.75593 0.70740 0.34461
 C2712 C 0.76163 0.72323 0.34259
 C2713 C 0.76125 0.73057 0.32749
 C2714 C 0.75514 0.72226 0.31406
 C2715 C 0.74953 0.70641 0.31609
 C2716 C 0.74993 0.69908 0.33115
 H2717 H 0.76503 0.69778 0.41913
 H2718 H 0.76351 0.68479 0.44542
 H2719 H 0.74421 0.64191 0.42318
 H2720 H 0.74544 0.65485 0.39707
 H2721 H 0.76635 0.72999 0.35269
 H2722 H 0.76568 0.74279 0.32637
 H2723 H 0.74477 0.69961 0.30603
 H2724 H 0.74545 0.68688 0.33223
 C2725 C 0.24260 0.82147 0.40741
 C2726 C 0.23787 0.83748 0.40938
 C2727 C 0.23777 0.84449 0.42459
 C2728 C 0.24254 0.83571 0.43817
 C2729 C 0.24726 0.81970 0.43625
 C2730 C 0.24718 0.81261 0.42103
 C2731 C 0.24289 0.81416 0.39121
 N2732 N 0.24423 0.79804 0.38938
 N2733 N 0.24457 0.79151 0.37480
 C2734 C 0.24369 0.80083 0.36144
 N2735 N 0.24238 0.81695 0.36328
 N2736 N 0.24195 0.82347 0.37786
 C2737 C 0.24426 0.79357 0.34523
 C2738 C 0.24704 0.80317 0.33161
 C2739 C 0.24792 0.79624 0.31636
 C2740 C 0.24586 0.77959 0.31439
 C2741 C 0.24286 0.77004 0.32799
 C2742 C 0.24216 0.77694 0.34324
 H2743 H 0.23424 0.84463 0.39916
 H2744 H 0.23427 0.85692 0.42570
 H2745 H 0.25090 0.81264 0.44653
 H2746 H 0.25091 0.80026 0.41993
 H2747 H 0.24873 0.81602 0.33273
 H2748 H 0.25018 0.80394 0.30612
 H2749 H 0.24127 0.75717 0.32691
 H2750 H 0.23993 0.76921 0.35347
 C2751 C 0.74232 0.32014 0.90518
 C2752 C 0.73722 0.33605 0.90698
 C2753 C 0.73679 0.34316 0.92213
 C2754 C 0.74159 0.33458 0.93583
 C2755 C 0.74666 0.31866 0.93408
 C2756 C 0.74692 0.31147 0.91892
 C2757 C 0.74302 0.31279 0.88902
 N2758 N 0.74464 0.29669 0.88722
 N2759 N 0.74531 0.29016 0.87265
 C2760 C 0.74448 0.29948 0.85928
 N2761 N 0.74290 0.31557 0.86109
 N2762 N 0.74215 0.32208 0.87565
 C2763 C 0.74532 0.29228 0.84306
 C2764 C 0.74815 0.30199 0.82954
 C2765 C 0.74903 0.29522 0.81424
 C2766 C 0.74691 0.27860 0.81208
 C2767 C 0.74397 0.26890 0.82559
 C2768 C 0.74328 0.27565 0.84092
 H2769 H 0.73357 0.34306 0.89667
 H2770 H 0.73302 0.35551 0.92310
 H2771 H 0.75035 0.31176 0.94446
 H2772 H 0.75094 0.29920 0.91793
 H2773 H 0.74981 0.31484 0.83077
 H2774 H 0.75124 0.30304 0.80407
 H2775 H 0.74233 0.25605 0.82435
 H2776 H 0.74103 0.26784 0.85108
 C2777 C 0.82184 0.41011 0.24700
 C2778 C 0.81460 0.42314 0.23913
 C2779 C 0.82212 0.43826 0.23896
 C2780 C 0.83703 0.44063 0.24661
 C2781 C 0.84407 0.42770 0.25475
 C2782 C 0.83659 0.41265 0.25494
 C2783 C 0.81433 0.39389 0.24678
 N2784 N 0.82184 0.38131 0.25382
 N2785 N 0.81533 0.36666 0.25347
 C2786 C 0.80100 0.36392 0.24606
 N2787 N 0.79344 0.37650 0.23904
 N2788 N 0.79998 0.39118 0.23937
 C2789 C 0.79383 0.34755 0.24573
 C2790 C 0.77868 0.34470 0.23870
 C2791 C 0.77189 0.32927 0.23864
 C2792 C 0.78011 0.31632 0.24558
 C2793 C 0.79533 0.31916 0.25247
 C2794 C 0.80209 0.33457 0.25255
 H2795 H 0.80323 0.42161 0.23292
 H2796 H 0.81646 0.44798 0.23251
 H2797 H 0.85540 0.42923 0.26103
 H2798 H 0.84246 0.40296 0.26124
 H2799 H 0.77200 0.35441 0.23331
 H2800 H 0.76016 0.32753 0.23320
 H2801 H 0.80201 0.30949 0.25793
 H2802 H 0.81380 0.33630 0.25804
 C2803 C 0.32297 0.90373 0.74747
 C2804 C 0.31595 0.91687 0.73959
 C2805 C 0.32339 0.93202 0.73998
 C2806 C 0.33800 0.93434 0.74823
 C2807 C 0.34481 0.92127 0.75636
 C2808 C 0.33741 0.90617 0.75597
 C2809 C 0.31547 0.88750 0.74674
 N2810 N 0.32285 0.87476 0.75363
 N2811 N 0.31627 0.86014 0.75295
 C2812 C 0.30200 0.85760 0.74535
 N2813 N 0.29460 0.87034 0.73844
 N2814 N 0.30120 0.88498 0.73910
 C2815 C 0.29463 0.84131 0.74486
 C2816 C 0.27941 0.83874 0.73787
 C2817 C 0.27227 0.82346 0.73798
 C2818 C 0.28019 0.81039 0.74507
 C2819 C 0.29554 0.81293 0.75176
 C2820 C 0.30266 0.82819 0.75167
 H2821 H 0.30482 0.91542 0.73295
 H2822 H 0.31791 0.94183 0.73350
 H2823 H 0.35590 0.92273 0.76307
 H2824 H 0.34310 0.89639 0.76230
 H2825 H 0.27290 0.84856 0.73248
 H2826 H 0.26045 0.82195 0.73268
 H2827 H 0.30202 0.80316 0.75729
 H2828 H 0.31442 0.82969 0.75710
 C2829 C 0.17601 0.90301 0.25724
 C2830 C 0.18486 0.91709 0.26038
 C2831 C 0.17748 0.93211 0.25998
 C2832 C 0.16085 0.93361 0.25653
 C2833 C 0.15219 0.91919 0.25328
 C2834 C 0.15963 0.90428 0.25363
 C2835 C 0.18372 0.88705 0.25760
 N2836 N 0.17517 0.87362 0.25369
 N2837 N 0.18200 0.85926 0.25390
 C2838 C 0.19768 0.85767 0.25807
 N2839 N 0.20625 0.87109 0.26203
 N2840 N 0.19941 0.88548 0.26180
 C2841 C 0.20529 0.84166 0.25803
 C2842 C 0.22129 0.83980 0.26310
 C2843 C 0.22852 0.82474 0.26266
 C2844 C 0.21994 0.81120 0.25707
 C2845 C 0.20388 0.81304 0.25220
 C2846 C 0.19664 0.82807 0.25270
 H2847 H 0.19753 0.91655 0.26329
 H2848 H 0.18495 0.94229 0.26323
 H2849 H 0.13975 0.91912 0.24957
 H2850 H 0.15244 0.89371 0.25091
 H2851 H 0.22829 0.84999 0.26733
 H2852 H 0.24091 0.82377 0.26651
 H2853 H 0.19688 0.80288 0.24789
 H2854 H 0.18428 0.82904 0.24873
 C2855 C 0.67723 0.40404 0.75184
 C2856 C 0.68437 0.41712 0.75995
 C2857 C 0.67694 0.43210 0.76006
 C2858 C 0.66221 0.43431 0.75209
 C2859 C 0.65524 0.42131 0.74377
 C2860 C 0.66264 0.40637 0.74365
 C2861 C 0.68478 0.38801 0.75203
 N2862 N 0.67750 0.37532 0.74466
 N2863 N 0.68413 0.36086 0.74492
 C2864 C 0.69834 0.35844 0.75257
 N2865 N 0.70564 0.37113 0.75993
 N2866 N 0.69900 0.38561 0.75968
 C2867 C 0.70573 0.34233 0.75277
 C2868 C 0.72070 0.33992 0.76020
 C2869 C 0.72777 0.32479 0.76014
 C2870 C 0.72001 0.31168 0.75266
 C2871 C 0.70496 0.31406 0.74538
 C2872 C 0.69791 0.32919 0.74543
 H2873 H 0.69560 0.41576 0.76637
 H2874 H 0.68253 0.44186 0.76668
 H2875 H 0.64405 0.42270 0.73727
 H2876 H 0.65685 0.39663 0.73717
 H2877 H 0.72705 0.34975 0.76600
 H2878 H 0.73936 0.32340 0.76589
 H2879 H 0.69864 0.30425 0.73950
 H2880 H 0.68635 0.33059 0.73962
 C2881 C 0.67690 0.59295 0.74760
 C2882 C 0.68531 0.57930 0.74259
 C2883 C 0.67823 0.56401 0.74361
 C2884 C 0.66263 0.56204 0.74974
 C2885 C 0.65420 0.57570 0.75459
 C2886 C 0.66123 0.59093 0.75354
 C2887 C 0.68433 0.60920 0.74683
 N2888 N 0.67609 0.62220 0.75191
 N2889 N 0.68271 0.63681 0.75148
 C2890 C 0.69787 0.63909 0.74593
 N2891 N 0.70613 0.62610 0.74079
 N2892 N 0.69950 0.61146 0.74123
 C2893 C 0.70522 0.65540 0.74572
 C2894 C 0.72086 0.65798 0.73989
 C2895 C 0.72778 0.67337 0.74000
 C2896 C 0.71923 0.68652 0.74597
 C2897 C 0.70355 0.68393 0.75169
 C2898 C 0.69664 0.66858 0.75156
 H2899 H 0.69740 0.58042 0.73795
 H2900 H 0.68506 0.55369 0.73987
 H2901 H 0.64204 0.57463 0.75905
 H2902 H 0.65434 0.60115 0.75743
 H2903 H 0.72781 0.64810 0.73529
 H2904 H 0.73988 0.67492 0.73549
 H2905 H 0.69657 0.69376 0.75634
 H2906 H 0.68457 0.66708 0.75613
 C2907 C 0.17773 0.09163 0.24628
 C2908 C 0.16182 0.08985 0.25164
 C2909 C 0.15473 0.07467 0.25299
 C2910 C 0.16333 0.06083 0.24905
 C2911 C 0.17916 0.06255 0.24344
 C2912 C 0.18630 0.07781 0.24210
 C2913 C 0.18524 0.10785 0.24535
 N2914 N 0.20065 0.10993 0.24037
 N2915 N 0.20737 0.12453 0.23988
 C2916 C 0.19895 0.13766 0.24436
 N2917 N 0.18354 0.13556 0.24927
 N2918 N 0.17685 0.12099 0.24975
 C2919 C 0.20640 0.15394 0.24423
 C2920 C 0.19771 0.16721 0.24969
 C2921 C 0.20471 0.18251 0.25000
 C2922 C 0.22059 0.18498 0.24482
 C2923 C 0.22925 0.17175 0.23917
 C2924 C 0.22224 0.15640 0.23890
 H2925 H 0.15479 0.10020 0.25487
 H2926 H 0.14241 0.07378 0.25703
 H2927 H 0.18610 0.05210 0.24037
 H2928 H 0.19857 0.07874 0.23792
 H2929 H 0.18548 0.16580 0.25387
 H2930 H 0.19763 0.19240 0.25437
 H2931 H 0.24151 0.17322 0.23508
 H2932 H 0.22927 0.14645 0.23459
 C2933 C 0.32554 0.09324 0.75378
 C2934 C 0.34131 0.09138 0.74820
 C2935 C 0.34813 0.07620 0.74729
 C2936 C 0.33938 0.06245 0.75193
 C2937 C 0.32369 0.06427 0.75774
 C2938 C 0.31682 0.07950 0.75863
 C2939 C 0.31827 0.10940 0.75432
 N2940 N 0.30304 0.11145 0.75968
 N2941 N 0.29651 0.12598 0.75988
 C2942 C 0.30492 0.13907 0.75473
 N2943 N 0.32015 0.13701 0.74943
 N2944 N 0.32668 0.12250 0.74923
 C2945 C 0.29760 0.15522 0.75465
 C2946 C 0.30620 0.16858 0.74872
 C2947 C 0.29922 0.18375 0.74829
 C2948 C 0.28347 0.18596 0.75381
 C2949 C 0.27493 0.17263 0.75990
 C2950 C 0.28190 0.15745 0.76029
 H2951 H 0.34843 0.10167 0.74446
 H2952 H 0.36037 0.07524 0.74308
 H2953 H 0.31662 0.05389 0.76132
 H2954 H 0.30465 0.08049 0.76300
 H2955 H 0.31832 0.16733 0.74428
 H2956 H 0.30618 0.19373 0.74357
 H2957 H 0.26278 0.17387 0.76427
 H2958 H 0.27494 0.14745 0.76497
 C2959 C 0.82547 0.59884 0.25420
 C2960 C 0.84132 0.59728 0.24872
 C2961 C 0.84831 0.58219 0.24753
 C2962 C 0.83964 0.56826 0.25175
 C2963 C 0.82388 0.56978 0.25747
 C2964 C 0.81686 0.58492 0.25866
 C2965 C 0.81801 0.61489 0.25498
 N2966 N 0.80268 0.61665 0.26015
 N2967 N 0.79596 0.63109 0.26052
 C2968 C 0.80427 0.64437 0.25572
 N2969 N 0.81961 0.64260 0.25061
 N2970 N 0.82633 0.62818 0.25025
 C2971 C 0.79675 0.66042 0.25578
 C2972 C 0.80527 0.67395 0.25017
 C2973 C 0.79812 0.68903 0.24986
 C2974 C 0.78227 0.69097 0.25519
 C2975 C 0.77379 0.67746 0.26095
 C2976 C 0.78094 0.66237 0.26123
 H2977 H 0.84837 0.60772 0.24528
 H2978 H 0.86058 0.58145 0.24338
 H2979 H 0.81688 0.55925 0.26073
 H2980 H 0.80463 0.58568 0.26293
 H2981 H 0.81748 0.67292 0.24589
 H2982 H 0.80504 0.69916 0.24538
 H2983 H 0.76156 0.67851 0.26517
 H2984 H 0.77403 0.65221 0.26566
 C2985 C 0.90495 0.25647 0.17446
 C2986 C 0.90657 0.25070 0.15872
 C2987 C 0.92170 0.24939 0.15176
 C2988 C 0.93563 0.25379 0.16035
 C2989 C 0.93406 0.25981 0.17600
 C2990 C 0.91887 0.26110 0.18300
 C2991 C 0.88884 0.25736 0.18190
 N2992 N 0.88701 0.26275 0.19715
 N2993 N 0.87252 0.26319 0.20386
 C2994 C 0.85924 0.25825 0.19560
 N2995 N 0.86108 0.25293 0.18033
 N2996 N 0.87555 0.25249 0.17363
 C2997 C 0.84313 0.25834 0.20312
 C2998 C 0.82961 0.25255 0.19467
 C2999 C 0.81448 0.25219 0.20186
 C3000 C 0.81249 0.25764 0.21767
 C3001 C 0.82598 0.26362 0.22606
 C3002 C 0.84113 0.26396 0.21887
 H3003 H 0.89614 0.24711 0.15173
 H3004 H 0.92249 0.24502 0.13956
 H3005 H 0.94458 0.26322 0.18294
 H3006 H 0.91807 0.26560 0.19515
 H3007 H 0.83069 0.24814 0.18251
 H3008 H 0.80437 0.24753 0.19501
 H3009 H 0.82490 0.26793 0.23826
 H3010 H 0.85127 0.26853 0.22572
 C3011 C 0.40353 0.75104 0.67651
 C3012 C 0.40570 0.74260 0.66210
 C3013 C 0.42071 0.74226 0.65476
 C3014 C 0.43395 0.75038 0.66159
 C3015 C 0.43191 0.75857 0.67615
 C3016 C 0.41685 0.75891 0.68353
 C3017 C 0.38741 0.75171 0.68396
 N3018 N 0.38517 0.75928 0.69819
 N3019 N 0.37062 0.75989 0.70476
 C3020 C 0.35770 0.75299 0.69736
 N3021 N 0.35997 0.74545 0.68313
 N3022 N 0.37449 0.74483 0.67658
 C3023 C 0.34152 0.75344 0.70469
 C3024 C 0.32819 0.74668 0.69666
 C3025 C 0.31302 0.74659 0.70373
 C3026 C 0.31078 0.75325 0.71904
 C3027 C 0.32406 0.76027 0.72697
 C3028 C 0.33925 0.76038 0.71987
 H3029 H 0.39577 0.73628 0.65641
 H3030 H 0.42196 0.73558 0.64370
 H3031 H 0.44186 0.76505 0.68163
 H3032 H 0.41561 0.76551 0.69463
 H3033 H 0.32947 0.74129 0.68492
 H3034 H 0.30307 0.74110 0.69725
 H3035 H 0.32278 0.76554 0.73876
 H3036 H 0.34923 0.76573 0.72638
 C3037 C 0.41076 0.24890 0.81838
 C3038 C 0.41745 0.26324 0.82445
 C3039 C 0.43260 0.26332 0.83178
 C3040 C 0.44126 0.24903 0.83336
 C3041 C 0.43471 0.23476 0.82704
 C3042 C 0.41967 0.23471 0.81953
 C3043 C 0.39440 0.24864 0.81130
 N3044 N 0.38916 0.23590 0.80248
 N3045 N 0.37433 0.23552 0.79641
 C3046 C 0.36407 0.24780 0.79901
 N3047 N 0.36931 0.26053 0.80783
 N3048 N 0.38417 0.26096 0.81382
 C3049 C 0.34755 0.24730 0.79234
 C3050 C 0.33578 0.25782 0.79801
 C3051 C 0.32021 0.25738 0.79164
 C3052 C 0.31614 0.24657 0.77930
 C3053 C 0.32790 0.23603 0.77367
 C3054 C 0.34340 0.23632 0.78018
 H3055 H 0.41094 0.27438 0.82368
 H3056 H 0.43732 0.27445 0.83668
 H3057 H 0.44121 0.22361 0.82803
 H3058 H 0.41486 0.22347 0.81497
 H3059 H 0.33857 0.26636 0.80743
 H3060 H 0.31144 0.26569 0.79620
 H3061 H 0.32513 0.22750 0.76422
 H3062 H 0.35218 0.22807 0.77553
 C3063 C 0.90827 0.75624 0.32252
 C3064 C 0.91097 0.76454 0.33690
 C3065 C 0.92617 0.76494 0.34405
 C3066 C 0.93942 0.75697 0.33711
 C3067 C 0.93649 0.74887 0.32239
 C3068 C 0.92124 0.74854 0.31528
 C3069 C 0.89196 0.75546 0.31530
 N3070 N 0.88922 0.74757 0.30127
 N3071 N 0.87451 0.74674 0.29493
 C3072 C 0.86190 0.75373 0.30236
 N3073 N 0.86464 0.76162 0.31637
 N3074 N 0.87934 0.76246 0.32270
 C3075 C 0.84551 0.75285 0.29532
 C3076 C 0.83245 0.75975 0.30328
 C3077 C 0.81704 0.75913 0.29656
 C3078 C 0.81432 0.75161 0.28168
 C3079 C 0.82737 0.74458 0.27378
 C3080 C 0.84277 0.74518 0.28052
 H3081 H 0.90123 0.77055 0.34290
 H3082 H 0.92691 0.77080 0.35558
 H3083 H 0.94594 0.74318 0.31574
 H3084 H 0.91964 0.74221 0.30403
 H3085 H 0.83410 0.76572 0.31472
 H3086 H 0.80729 0.76467 0.30298
 H3087 H 0.82573 0.73867 0.26232
 H3088 H 0.85253 0.73971 0.27407
 C3089 C 0.09632 0.75429 0.32469
 C3090 C 0.08236 0.75563 0.31522
 C3091 C 0.06713 0.75475 0.32225
 C3092 C 0.06555 0.75252 0.33890
 C3093 C 0.07953 0.75139 0.34835
 C3094 C 0.09470 0.75222 0.34134
 C3095 C 0.11250 0.75486 0.31733
 N3096 N 0.12580 0.75187 0.32630
 N3097 N 0.14034 0.75213 0.31972
 C3098 C 0.14223 0.75544 0.30388
 N3099 N 0.12893 0.75849 0.29490
 N3100 N 0.11437 0.75820 0.30148
 C3101 C 0.15841 0.75542 0.29653
 C3102 C 0.16058 0.76023 0.28050
 C3103 C 0.17577 0.75981 0.27347
 C3104 C 0.18916 0.75448 0.28226
 C3105 C 0.18703 0.74984 0.29834
 C3106 C 0.17185 0.75035 0.30540
 H3107 H 0.08316 0.75720 0.30235
 H3108 H 0.05660 0.75555 0.31463
 H3109 H 0.07876 0.75003 0.36124
 H3110 H 0.10517 0.75127 0.34903
 H3111 H 0.15051 0.76426 0.27334
 H3112 H 0.17696 0.76347 0.26106
 H3113 H 0.19707 0.74574 0.30549
 H3114 H 0.17063 0.74657 0.31777
 C3115 C 0.59622 0.25314 0.82232
 C3116 C 0.58202 0.25237 0.81312
 C3117 C 0.56699 0.25271 0.82055
 C3118 C 0.56585 0.25399 0.83731
 C3119 C 0.58004 0.25480 0.84648
 C3120 C 0.59503 0.25433 0.83910
 C3121 C 0.61221 0.25267 0.81459
 N3122 N 0.62575 0.25112 0.82359
 N3123 N 0.64015 0.25074 0.81673
 C3124 C 0.64165 0.25193 0.80056
 N3125 N 0.62812 0.25349 0.79153
 N3126 N 0.61370 0.25382 0.79839
 C3127 C 0.65773 0.25160 0.79299
 C3128 C 0.65961 0.25520 0.77662
 C3129 C 0.67481 0.25504 0.76957
 C3130 C 0.68848 0.25116 0.77870
 C3131 C 0.68658 0.24747 0.79505
 C3132 C 0.67140 0.24774 0.80212
 H3133 H 0.58251 0.25143 0.80017
 H3134 H 0.55624 0.25217 0.81318
 H3135 H 0.57954 0.25556 0.85944
 H3136 H 0.60570 0.25495 0.84657
 H3137 H 0.64934 0.25825 0.76924
 H3138 H 0.67583 0.25791 0.75693
 H3139 H 0.69684 0.24447 0.80246
 H3140 H 0.67040 0.24487 0.81475
 C3141 C 0.59295 0.74460 0.67499
 C3142 C 0.57925 0.73970 0.68360
 C3143 C 0.56394 0.74065 0.67665
 C3144 C 0.56202 0.74658 0.66097
 C3145 C 0.57574 0.75127 0.65232
 C3146 C 0.59100 0.75030 0.65923
 C3147 C 0.60919 0.74400 0.68236
 N3148 N 0.62227 0.74922 0.67408
 N3149 N 0.63684 0.74901 0.68072
 C3150 C 0.63900 0.74355 0.69593
 N3151 N 0.62593 0.73827 0.70420
 N3152 N 0.61134 0.73849 0.69756
 C3153 C 0.65521 0.74366 0.70339
 C3154 C 0.65752 0.73783 0.71906
 C3155 C 0.67274 0.73833 0.72621
 C3156 C 0.68602 0.74470 0.71788
 C3157 C 0.68374 0.75038 0.70215
 C3158 C 0.66853 0.74985 0.69499
 H3159 H 0.58031 0.73524 0.69577
 H3160 H 0.55358 0.73704 0.68365
 H3161 H 0.57471 0.75557 0.64010
 H3162 H 0.60126 0.75409 0.65219
 H3163 H 0.64755 0.73295 0.72586
 H3164 H 0.67404 0.73384 0.73834
 H3165 H 0.69369 0.75533 0.69536
 H3166 H 0.66721 0.75443 0.68290
 C3167 C 0.09411 0.24776 0.17645
 C3168 C 0.08085 0.24006 0.18366
 C3169 C 0.06570 0.24032 0.17630
 C3170 C 0.06352 0.24823 0.16156
 C3171 C 0.07670 0.25619 0.15455
 C3172 C 0.09180 0.25595 0.16188
 C3173 C 0.11033 0.24709 0.18384
 N3174 N 0.12314 0.25403 0.17643
 N3175 N 0.13777 0.25333 0.18289
 C3176 C 0.14025 0.24564 0.19704
 N3177 N 0.12743 0.23870 0.20448
 N3178 N 0.11278 0.23940 0.19801
 C3179 C 0.15656 0.24499 0.20423
 C3180 C 0.15908 0.23758 0.21918
 C3181 C 0.17441 0.23735 0.22610
 C3182 C 0.18758 0.24450 0.21823
 C3183 C 0.18508 0.25170 0.20317
 C3184 C 0.16977 0.25195 0.19627
 H3185 H 0.08219 0.23366 0.19489
 H3186 H 0.05579 0.23398 0.18193
 H3187 H 0.07534 0.26264 0.14335
 H3188 H 0.10168 0.26213 0.15604
 H3189 H 0.14920 0.23207 0.22564
 H3190 H 0.17588 0.23168 0.23771
 H3191 H 0.19494 0.25731 0.19675
 H3192 H 0.16829 0.25771 0.18471
 C3193 C -0.07312 0.99598 0.84734
 C3194 C -0.06441 0.99195 0.83357
 C3195 C -0.07128 0.99346 0.81829
 C3196 C -0.08713 0.99910 0.81627
 C3197 C -0.09572 1.00312 0.83026
 C3198 C -0.08884 1.00158 0.84548
 C3199 C -0.06592 0.99446 0.86359
 N3200 N -0.07435 0.99874 0.87679
 N3201 N -0.06792 0.99759 0.89139
 C3202 C -0.05276 0.99207 0.89346
 N3203 N -0.04433 0.98773 0.88026
 N3204 N -0.05077 0.98889 0.86564
 C3205 C -0.04550 0.99123 0.90972
 C3206 C -0.02984 0.98548 0.91195
 C3207 C -0.02279 0.98536 0.92722
 C3208 C -0.03122 0.99103 0.94061
 C3209 C -0.04701 0.99647 0.93842
 C3210 C -0.05405 0.99655 0.92317
 H3211 H -0.05220 0.98772 0.83455
 H3212 H -0.06379 0.99068 0.80813
 H3213 H -0.10810 1.00683 0.82976
 H3214 H -0.09598 1.00467 0.85582
 H3215 H -0.02292 0.98123 0.90188
 H3216 H -0.01062 0.98105 0.92846
 H3217 H -0.05389 1.00087 0.94845
 H3218 H -0.06616 1.00102 0.92193
 C3219 C 0.42796 0.49814 0.34585
 C3220 C 0.43650 0.49323 0.33221
 C3221 C 0.42953 0.49418 0.31692
 C3222 C 0.41390 0.50010 0.31494
 C3223 C 0.40540 0.50500 0.32858
 C3224 C 0.41233 0.50404 0.34382
 C3225 C 0.43518 0.49711 0.36212
 N3226 N 0.42686 0.50203 0.37517
 N3227 N 0.43327 0.50121 0.38980
 C3228 C 0.44829 0.49542 0.39206
 N3229 N 0.45663 0.49047 0.37903
 N3230 N 0.45021 0.49130 0.36437
 C3231 C 0.45545 0.49476 0.40838
 C3232 C 0.47099 0.48876 0.41082
 C3233 C 0.47784 0.48855 0.42618
 C3234 C 0.46932 0.49435 0.43946
 C3235 C 0.45371 0.50016 0.43704
 C3236 C 0.44686 0.50035 0.42170
 H3237 H 0.44857 0.48865 0.33333
 H3238 H 0.43642 0.49043 0.30663
 H3239 H 0.39322 0.50931 0.32752
 H3240 H 0.40536 0.50787 0.35403
 H3241 H 0.47794 0.48433 0.40085
 H3242 H 0.48989 0.48398 0.42759
 H3243 H 0.44677 0.50470 0.44697
 H3244 H 0.43486 0.50503 0.42030
 C3245 C 0.57335 0.00565 0.34433
 C3246 C 0.56572 -0.00170 0.33115
 C3247 C 0.57322 -0.00211 0.31616
 C3248 C 0.58847 0.00511 0.31383
 C3249 C 0.59595 0.01254 0.32721
 C3250 C 0.58855 0.01270 0.34219
 C3251 C 0.56565 0.00588 0.36031
 N3252 N 0.57449 0.00909 0.37369
 N3253 N 0.56766 0.00928 0.38810
 C3254 C 0.55167 0.00637 0.38974
 N3255 N 0.54280 0.00321 0.37635
 N3256 N 0.54966 0.00293 0.36194
 C3257 C 0.54415 0.00644 0.40580
 C3258 C 0.52741 0.00758 0.40739
 C3259 C 0.52032 0.00739 0.42256
 C3260 C 0.52981 0.00582 0.43646
 C3261 C 0.54657 0.00479 0.43488
 C3262 C 0.55366 0.00521 0.41972
 H3263 H 0.55397 -0.00724 0.33242
 H3264 H 0.56666 -0.00760 0.30633
 H3265 H 0.60791 0.01769 0.32648
 H3266 H 0.59480 0.01840 0.35212
 H3267 H 0.51976 0.00863 0.39690
 H3268 H 0.50738 0.00815 0.42338
 H3269 H 0.55421 0.00365 0.44537
 H3270 H 0.56660 0.00430 0.41891
 C3271 C 0.07298 0.49694 0.84208
 C3272 C 0.06487 0.50260 0.82839
 C3273 C 0.07195 0.50166 0.81323
 C3274 C 0.08727 0.49502 0.81141
 C3275 C 0.09531 0.48923 0.82507
 C3276 C 0.08826 0.49018 0.84021
 C3277 C 0.06565 0.49814 0.85822
 N3278 N 0.07357 0.49276 0.87142
 N3279 N 0.06702 0.49381 0.88592
 C3280 C 0.05227 0.50030 0.88787
 N3281 N 0.04435 0.50570 0.87467
 N3282 N 0.05090 0.50466 0.86016
 C3283 C 0.04489 0.50117 0.90401
 C3284 C 0.02949 0.50760 0.90603
 C3285 C 0.02233 0.50787 0.92117
 C3286 C 0.03040 0.50169 0.93466
 C3287 C 0.04592 0.49554 0.93268
 C3288 C 0.05307 0.49529 0.91756
 H3289 H 0.05307 0.50782 0.82936
 H3290 H 0.06537 0.50606 0.80292
 H3291 H 0.10723 0.48427 0.82412
 H3292 H 0.09487 0.48571 0.85047
 H3293 H 0.02286 0.51229 0.89588
 H3294 H 0.01037 0.51271 0.92225
 H3295 H 0.05252 0.49072 0.94279
 H3296 H 0.06497 0.49030 0.91648
 C3297 C 0.06886 0.49944 0.65529
 C3298 C 0.08099 0.51078 0.65885
 C3299 C 0.08872 0.51071 0.67374
 C3300 C 0.08459 0.49925 0.68545
 C3301 C 0.07215 0.48819 0.68210
 C3302 C 0.06435 0.48829 0.66717
 C3303 C 0.06139 0.49903 0.63910
 N3304 N 0.04873 0.48911 0.63580
 N3305 N 0.04234 0.48855 0.62111
 C3306 C 0.04839 0.49782 0.60909
 N3307 N 0.06102 0.50774 0.61243
 N3308 N 0.06737 0.50833 0.62710
 C3309 C 0.04147 0.49716 0.59268
 C3310 C 0.04917 0.50519 0.57996
 C3311 C 0.04266 0.50479 0.56450
 C3312 C 0.02821 0.49643 0.56135
 C3313 C 0.02055 0.48831 0.57405
 C3314 C 0.02713 0.48863 0.58953
 H3315 H 0.08466 0.51967 0.65007
 H3316 H 0.09803 0.51960 0.67606
 H3317 H 0.06878 0.47913 0.69082
 H3318 H 0.05506 0.47939 0.66484
 H3319 H 0.06027 0.51182 0.58192
 H3320 H 0.04889 0.51120 0.55504
 H3321 H 0.00942 0.48173 0.57205
 H3322 H 0.02089 0.48232 0.59904
 C3323 C 0.57094 1.00051 0.15696
 C3324 C 0.56594 0.99010 0.16932
 C3325 C 0.57374 0.99031 0.18424
 C3326 C 0.58669 1.00092 0.18711
 C3327 C 0.59138 1.01158 0.17488
 C3328 C 0.58364 1.01136 0.16000
 C3329 C 0.56327 0.99993 0.14086
 N3330 N 0.56943 1.00872 0.12857
 N3331 N 0.56281 1.00809 0.11402
 C3332 C 0.54973 0.99864 0.11109
 N3333 N 0.54352 0.98986 0.12339
 N3334 N 0.55017 0.99046 0.13797
 C3335 C 0.54246 0.99802 0.09482
 C3336 C 0.52789 0.98976 0.09200
 C3337 C 0.52098 0.98952 0.07666
 C3338 C 0.52852 0.99745 0.06378
 C3339 C 0.54318 1.00553 0.06659
 C3340 C 0.55004 1.00584 0.08191
 H3341 H 0.55619 0.98160 0.16738
 H3342 H 0.56992 0.98187 0.19339
 H3343 H 0.60108 1.02015 0.17681
 H3344 H 0.58771 1.01967 0.15084
 H3345 H 0.52174 0.98361 0.10168
 H3346 H 0.50969 0.98315 0.07493
 H3347 H 0.54934 1.01179 0.05698
 H3348 H 0.56130 1.01226 0.08361
 C3349 C 0.42548 0.49850 0.15672
 C3350 C 0.43313 0.50553 0.17011
 C3351 C 0.42584 0.50513 0.18520
 C3352 C 0.41073 0.49771 0.18723
 C3353 C 0.40324 0.49044 0.17392
 C3354 C 0.41050 0.49083 0.15886
 C3355 C 0.43286 0.49934 0.14057
 N3356 N 0.42507 0.49311 0.12761
 N3357 N 0.43154 0.49400 0.11305
 C3358 C 0.44608 0.50118 0.11080
 N3359 N 0.45390 0.50741 0.12377
 N3360 N 0.44742 0.50652 0.13834
 C3361 C 0.45324 0.50210 0.09455
 C3362 C 0.46856 0.50897 0.09220
 C3363 C 0.47536 0.50953 0.07689
 C3364 C 0.46700 0.50324 0.06356
 C3365 C 0.45161 0.49654 0.06590
 C3366 C 0.44483 0.49597 0.08119
 H3367 H 0.44466 0.51153 0.16891
 H3368 H 0.43184 0.51098 0.19520
 H3369 H 0.39172 0.48440 0.17514
 H3370 H 0.40430 0.48519 0.14887
 H3371 H 0.47537 0.51384 0.10221
 H3372 H 0.48724 0.51479 0.07555
 H3373 H 0.44480 0.49158 0.05593
 H3374 H 0.43299 0.49063 0.08252
 C3375 C -0.07297 0.00068 0.65842
 C3376 C -0.06474 0.00683 0.67184
 C3377 C -0.07146 0.00577 0.68716
 C3378 C -0.08669 -0.00153 0.68959
 C3379 C -0.09473 -0.00786 0.67599
 C3380 C -0.08800 -0.00674 0.66071
 C3381 C -0.06601 0.00201 0.64211
 N3382 N -0.07419 -0.00368 0.62913
 N3383 N -0.06798 -0.00254 0.61448
 C3384 C -0.05331 0.00435 0.61215
 N3385 N -0.04513 0.01008 0.62512
 N3386 N -0.05135 0.00895 0.63978
 C3387 C -0.04626 0.00525 0.59585
 C3388 C -0.03082 0.01182 0.59348
 C3389 C -0.02393 0.01199 0.57821
 C3390 C -0.03231 0.00559 0.56494
 C3391 C -0.04790 -0.00063 0.56726
 C3392 C -0.05479 -0.00080 0.58252
 H3393 H -0.05303 0.01247 0.67055
 H3394 H -0.06431 0.01030 0.69706
 H3395 H -0.10664 -0.01308 0.67680
 H3396 H -0.09474 -0.01156 0.65063
 H3397 H -0.02393 0.01664 0.60345
 H3398 H -0.01191 0.01691 0.57687
 H3399 H -0.05474 -0.00561 0.55733
 H3400 H -0.06673 -0.00588 0.58387
 C3401 C -0.15692 0.92337 1.00100
 C3402 C -0.15896 0.90681 0.99833
 C3403 C -0.17428 0.89984 0.99818
 C3404 C -0.18793 0.90921 1.00082
 C3405 C -0.18593 0.92570 1.00381
 C3406 C -0.17058 0.93273 1.00380
 C3407 C -0.14065 0.93077 1.00065
 N3408 N -0.13868 0.94696 1.00013
 N3409 N -0.12404 0.95356 0.99956
 C3410 C -0.11075 0.94424 0.99953
 N3411 N -0.11273 0.92805 1.00010
 N3412 N -0.12737 0.92146 1.00061
 C3413 C -0.09445 0.95156 0.99899
 C3414 C -0.08079 0.94223 1.00200
 C3415 C -0.06545 0.94923 1.00193
 C3416 C -0.06340 0.96569 0.99870
 C3417 C -0.07704 0.97495 0.99539
 C3418 C -0.09238 0.96798 0.99561
 H3419 H -0.14872 0.89924 0.99615
 H3420 H -0.17547 0.88706 0.99604
 H3421 H -0.19627 0.93319 1.00581
 H3422 H -0.16943 0.94551 1.00596
 H3423 H -0.08195 0.92955 1.00465
 H3424 H -0.05519 0.94174 1.00447
 H3425 H -0.07590 0.98767 0.99289
 H3426 H -0.10264 0.97549 0.99315
 C3427 C 0.34333 0.42421 0.50225
 C3428 C 0.32946 0.43327 0.50503
 C3429 C 0.31424 0.42593 0.50486
 C3430 C 0.31259 0.40943 0.50173
 C3431 C 0.32645 0.40036 0.49912
 C3432 C 0.34163 0.40764 0.49944
 C3433 C 0.35947 0.43191 0.50208
 N3434 N 0.37292 0.42284 0.50198
 N3435 N 0.38745 0.42967 0.50158
 C3436 C 0.38917 0.44589 0.50119
 N3437 N 0.37573 0.45499 0.50129
 N3438 N 0.36119 0.44815 0.50175
 C3439 C 0.40539 0.45344 0.50066
 C3440 C 0.40728 0.46993 0.49748
 C3441 C 0.42259 0.47700 0.49702
 C3442 C 0.43636 0.46778 0.49989
 C3443 C 0.43445 0.45129 0.50304
 C3444 C 0.41916 0.44420 0.50335
 H3445 H 0.33034 0.44605 0.50729
 H3446 H 0.30373 0.43320 0.50684
 H3447 H 0.32554 0.38758 0.49688
 H3448 H 0.35204 0.40029 0.49728
 H3449 H 0.39693 0.47739 0.49529
 H3450 H 0.42362 0.48975 0.49461
 H3451 H 0.44479 0.44382 0.50525
 H3452 H 0.41816 0.43147 0.50585
 C3453 C 0.34009 0.56976 0.00090
 C3454 C 0.33458 0.57797 -0.01279
 C3455 C 0.31966 0.58549 -0.01275
 C3456 C 0.31001 0.58510 0.00102
 C3457 C 0.31536 0.57668 0.01460
 C3458 C 0.33020 0.56901 0.01451
 C3459 C 0.35621 0.56241 0.00114
 N3460 N 0.36052 0.55220 0.01309
 N3461 N 0.37516 0.54591 0.01350
 C3462 C 0.38613 0.54964 0.00204
 N3463 N 0.38181 0.55983 -0.00992
 N3464 N 0.36716 0.56607 -0.01037
 C3465 C 0.40248 0.54281 0.00259
 C3466 C 0.41474 0.54915 -0.00716
 C3467 C 0.43016 0.54270 -0.00670
 C3468 C 0.43363 0.52964 0.00338
 C3469 C 0.42138 0.52332 0.01316
 C3470 C 0.40600 0.52989 0.01283
 H3471 H 0.34187 0.57871 -0.02349
 H3472 H 0.31587 0.59202 -0.02333
 H3473 H 0.30808 0.57609 0.02532
 H3474 H 0.33406 0.56278 0.02525
 H3475 H 0.41247 0.55915 -0.01512
 H3476 H 0.43929 0.54782 -0.01444
 H3477 H 0.42366 0.51329 0.02110
 H3478 H 0.39682 0.52471 0.02048
 C3479 C -0.15656 0.07236 0.50290
 C3480 C -0.17050 0.06390 0.50758
 C3481 C -0.18563 0.07096 0.50620
 C3482 C -0.18713 0.08660 0.50006
 C3483 C -0.17319 0.09501 0.49539
 C3484 C -0.15812 0.08799 0.49678
 C3485 C -0.14046 0.06503 0.50433
 N3486 N -0.12712 0.07337 0.49980
 N3487 N -0.11263 0.06686 0.50091
 C3488 C -0.11083 0.05171 0.50661
 N3489 N -0.12416 0.04336 0.51119
 N3490 N -0.13867 0.04989 0.51009
 C3491 C -0.09467 0.04441 0.50742
 C3492 C -0.09266 0.02867 0.51314
 C3493 C -0.07747 0.02165 0.51327
 C3494 C -0.06395 0.03021 0.50767
 C3495 C -0.06594 0.04606 0.50226
 C3496 C -0.08109 0.05306 0.50215
 H3497 H -0.16975 0.05183 0.51232
 H3498 H -0.19616 0.06414 0.50981
 H3499 H -0.17389 0.10719 0.49091
 H3500 H -0.14767 0.09490 0.49310
 H3501 H -0.10285 0.02168 0.51734
 H3502 H -0.07639 0.00943 0.51755
 H3503 H -0.05580 0.05305 0.49792
 H3504 H -0.08215 0.06523 0.49772
 C3505 C 0.65459 0.07557 0.49788
 C3506 C 0.66805 0.06804 0.49122
 C3507 C 0.68323 0.07538 0.49197
 C3508 C 0.68530 0.09041 0.49938
 C3509 C 0.67190 0.09781 0.50623
 C3510 C 0.65674 0.09049 0.50549
 C3511 C 0.63839 0.06803 0.49681
 N3512 N 0.62537 0.07563 0.50278
 N3513 N 0.61080 0.06893 0.50182
 C3514 C 0.60859 0.05435 0.49484
 N3515 N 0.62160 0.04675 0.48884
 N3516 N 0.63619 0.05345 0.48979
 C3517 C 0.59236 0.04682 0.49408
 C3518 C 0.59009 0.03144 0.48747
 C3519 C 0.57488 0.02413 0.48736
 C3520 C 0.56157 0.03204 0.49387
 C3521 C 0.56380 0.04756 0.50016
 C3522 C 0.57899 0.05485 0.50027
 H3523 H 0.66684 0.05654 0.48526
 H3524 H 0.69329 0.06945 0.48642
 H3525 H 0.67314 0.10928 0.51225
 H3526 H 0.64669 0.09660 0.51084
 H3527 H 0.60011 0.02493 0.48254
 H3528 H 0.57361 0.01219 0.48237
 H3529 H 0.55384 0.05404 0.50524
 H3530 H 0.58026 0.06673 0.50540
 C3531 C 0.15426 0.57176 0.99976
 C3532 C 0.15602 0.58643 1.00785
 C3533 C 0.17098 0.59405 1.00902
 C3534 C 0.18481 0.58731 1.00207
 C3535 C 0.18299 0.57228 0.99434
 C3536 C 0.16795 0.56468 0.99318
 C3537 C 0.13816 0.56412 0.99809
 N3538 N 0.13625 0.54950 0.99106
 N3539 N 0.12171 0.54279 0.98954
 C3540 C 0.10846 0.55045 0.99493
 N3541 N 0.11039 0.56506 1.00192
 N3542 N 0.12490 0.57174 1.00345
 C3543 C 0.09224 0.54300 0.99355
 C3544 C 0.07866 0.55141 0.99868
 C3545 C 0.06343 0.54427 0.99811
 C3546 C 0.06135 0.52850 0.99241
 C3547 C 0.07487 0.52020 0.98691
 C3548 C 0.09015 0.52737 0.98747
 H3549 H 0.14579 0.59212 1.01334
 H3550 H 0.17159 0.60504 1.01587
 H3551 H 0.19293 0.56661 0.98839
 H3552 H 0.16702 0.55337 0.98684
 H3553 H 0.07978 0.56349 1.00335
 H3554 H 0.05331 0.55107 1.00239
 H3555 H 0.07370 0.50805 0.98242
 H3556 H 0.10034 0.52057 0.98337
 C3557 C 0.15454 0.42731 0.50190
 C3558 C 0.15635 0.41159 0.50768
 C3559 C 0.17120 0.40404 0.50693
 C3560 C 0.18460 0.41190 0.50019
 C3561 C 0.18286 0.42773 0.49461
 C3562 C 0.16800 0.43538 0.49552
 C3563 C 0.13859 0.43501 0.50232
 N3564 N 0.13710 0.45111 0.50030
 N3565 N 0.12268 0.45791 0.50056
 C3566 C 0.10917 0.44887 0.50276
 N3567 N 0.11068 0.43279 0.50477
 N3568 N 0.12509 0.42602 0.50460
 C3569 C 0.09308 0.45630 0.50276
 C3570 C 0.07918 0.44676 0.50074
 C3571 C 0.06400 0.45372 0.50041
 C3572 C 0.06234 0.47037 0.50232
 C3573 C 0.07622 0.47990 0.50459
 C3574 C 0.09143 0.47295 0.50469
 H3575 H 0.14629 0.40510 0.51286
 H3576 H 0.17217 0.39201 0.51175
 H3577 H 0.19288 0.43410 0.48922
 H3578 H 0.16698 0.44748 0.49092
 H3579 H 0.08003 0.43389 0.49919
 H3580 H 0.05355 0.44604 0.49872
 H3581 H 0.07533 0.49278 0.50603
 H3582 H 0.10190 0.48062 0.50634
 C3583 C 0.65387 0.92852 0.00293
 C3584 C 0.65582 0.91293 0.00899
 C3585 C 0.67065 0.90538 0.00811
 C3586 C 0.68390 0.91313 0.00095
 C3587 C 0.68204 0.92885 -0.00488
 C3588 C 0.66719 0.93649 -0.00385
 C3589 C 0.63791 0.93617 0.00344
 N3590 N 0.63631 0.95220 0.00102
 N3591 N 0.62187 0.95894 0.00136
 C3592 C 0.60844 0.94991 0.00403
 N3593 N 0.61007 0.93390 0.00643
 N3594 N 0.62449 0.92718 0.00618
 C3595 C 0.59234 0.95728 0.00417
 C3596 C 0.57844 0.94763 0.00274
 C3597 C 0.56323 0.95453 0.00259
 C3598 C 0.56156 0.97123 0.00408
 C3599 C 0.57545 0.98087 0.00570
 C3600 C 0.59068 0.97397 0.00564
 H3601 H 0.64587 0.90653 0.01449
 H3602 H 0.67173 0.89345 0.01312
 H3603 H 0.69196 0.93511 -0.01057
 H3604 H 0.66606 0.94850 -0.00866
 H3605 H 0.57930 0.93473 0.00154
 H3606 H 0.55277 0.94677 0.00138
 H3607 H 0.57457 0.99377 0.00681
 H3608 H 0.60115 0.98172 0.00682
 C3609 C -0.00597 0.84198 0.92828
 C3610 C 0.00290 0.83991 0.91419
 C3611 C 0.00403 0.82484 0.90704
 C3612 C -0.00373 0.81122 0.91367
 C3613 C -0.01275 0.81345 0.92783
 C3614 C -0.01378 0.82858 0.93504
 C3615 C -0.00692 0.85808 0.93580
 N3616 N -0.01420 0.86017 0.95019
 N3617 N -0.01473 0.87465 0.95696
 C3618 C -0.00803 0.88765 0.94959
 N3619 N -0.00083 0.88554 0.93518
 N3620 N -0.00029 0.87109 0.92844
 C3621 C -0.00817 0.90374 0.95719
 C3622 C -0.00166 0.91710 0.94909
 C3623 C -0.00112 0.93217 0.95637
 C3624 C -0.00704 0.93430 0.97199
 C3625 C -0.01384 0.92101 0.98000
 C3626 C -0.01440 0.90590 0.97268
 H3627 H 0.00898 0.84997 0.90855
 H3628 H 0.01053 0.82423 0.89586
 H3629 H -0.01859 0.80348 0.93384
 H3630 H -0.02066 0.82974 0.94596
 H3631 H 0.00319 0.91593 0.93712
 H3632 H 0.00415 0.94212 0.94980
 H3633 H -0.01856 0.92222 0.99202
 H3634 H -0.01953 0.89588 0.97925
 C3635 C 0.50118 0.34233 0.43073
 C3636 C 0.51266 0.33945 0.41879
 C3637 C 0.51307 0.32469 0.41091
 C3638 C 0.50197 0.31245 0.41470
 C3639 C 0.49074 0.31515 0.42692
 C3640 C 0.49036 0.32993 0.43486
 C3641 C 0.50035 0.35832 0.43844
 N3642 N 0.49030 0.36102 0.45093
 N3643 N 0.48942 0.37553 0.45758
 C3644 C 0.49851 0.38796 0.45196
 N3645 N 0.50855 0.38523 0.43950
 N3646 N 0.50946 0.37074 0.43290
 C3647 C 0.49757 0.40418 0.45918
 C3648 C 0.50554 0.41725 0.45195
 C3649 C 0.50495 0.43252 0.45874
 C3650 C 0.49644 0.43514 0.47301
 C3651 C 0.48834 0.42211 0.48021
 C3652 C 0.48886 0.40680 0.47334
 H3653 H 0.52130 0.34864 0.41541
 H3654 H 0.52209 0.32289 0.40179
 H3655 H 0.48195 0.30599 0.43002
 H3656 H 0.48136 0.33174 0.44400
 H3657 H 0.51230 0.41571 0.44100
 H3658 H 0.51135 0.44225 0.45286
 H3659 H 0.48165 0.42370 0.49119
 H3660 H 0.48258 0.39699 0.47921
 C3661 C 0.00141 0.34257 0.56752
 C3662 C -0.01294 0.33541 0.57285
 C3663 C -0.01284 0.32047 0.58052
 C3664 C 0.00171 0.31235 0.58339
 C3665 C 0.01604 0.31955 0.57768
 C3666 C 0.01585 0.33435 0.56979
 C3667 C 0.00138 0.35870 0.56001
 N3668 N 0.01425 0.36410 0.55152
 N3669 N 0.01437 0.37875 0.54510
 C3670 C 0.00168 0.38866 0.54701
 N3671 N -0.01118 0.38326 0.55550
 N3672 N -0.01134 0.36857 0.56183
 C3673 C 0.00191 0.40505 0.54010
 C3674 C -0.00885 0.41669 0.54557
 C3675 C -0.00862 0.43217 0.53910
 C3676 C 0.00220 0.43630 0.52683
 C3677 C 0.01294 0.42465 0.52133
 C3678 C 0.01287 0.40923 0.52798
 H3679 H -0.02430 0.34143 0.57124
 H3680 H -0.02418 0.31586 0.58493
 H3681 H 0.02748 0.31365 0.57886
 H3682 H 0.02712 0.33948 0.56570
 H3683 H -0.01739 0.41388 0.55495
 H3684 H -0.01710 0.44085 0.54354
 H3685 H 0.02147 0.42748 0.51194
 H3686 H 0.02129 0.40053 0.52348
 C3687 C 0.49871 0.84405 0.07178
 C3688 C 0.48948 0.84108 0.08558
 C3689 C 0.48917 0.82589 0.09267
 C3690 C 0.49811 0.81327 0.08617
 C3691 C 0.50724 0.81617 0.07231
 C3692 C 0.50751 0.83138 0.06517
 C3693 C 0.49928 0.86032 0.06451
 N3694 N 0.50765 0.86319 0.05083
 N3695 N 0.50821 0.87784 0.04440
 C3696 C 0.50046 0.89026 0.05139
 N3697 N 0.49211 0.88737 0.06507
 N3698 N 0.49153 0.87273 0.07149
 C3699 C 0.50102 0.90658 0.04424
 C3700 C 0.49359 0.91950 0.05196
 C3701 C 0.49388 0.93483 0.04514
 C3702 C 0.50156 0.93763 0.03040
 C3703 C 0.50911 0.92473 0.02273
 C3704 C 0.50885 0.90940 0.02958
 H3705 H 0.48256 0.85054 0.09102
 H3706 H 0.48221 0.82411 0.10348
 H3707 H 0.51412 0.80665 0.06693
 H3708 H 0.51472 0.83321 0.05453
 H3709 H 0.48748 0.91780 0.06329
 H3710 H 0.48794 0.94447 0.05139
 H3711 H 0.51517 0.92644 0.01138
 H3712 H 0.51471 0.89974 0.02331
 C3713 C 0.49935 0.65723 0.07143
 C3714 C 0.51053 0.66031 0.08377
 C3715 C 0.51112 0.67522 0.09136
 C3716 C 0.50049 0.68743 0.08688
 C3717 C 0.48955 0.68452 0.07428
 C3718 C 0.48899 0.66958 0.06662
 C3719 C 0.49832 0.64109 0.06398
 N3720 N 0.48859 0.63819 0.05114
 N3721 N 0.48756 0.62357 0.04469
 C3722 C 0.49617 0.61123 0.05086
 N3723 N 0.50589 0.61415 0.06368
 N3724 N 0.50695 0.62875 0.07009
 C3725 C 0.49510 0.59491 0.04381
 C3726 C 0.50265 0.58196 0.05145
 C3727 C 0.50199 0.56661 0.04476
 C3728 C 0.49381 0.56381 0.03021
 C3729 C 0.48610 0.57673 0.02263
 C3730 C 0.48670 0.59210 0.02939
 H3731 H 0.51881 0.65115 0.08768
 H3732 H 0.51990 0.67718 0.10080
 H3733 H 0.48112 0.69364 0.07064
 H3734 H 0.48023 0.66761 0.05716
 H3735 H 0.50916 0.58364 0.06261
 H3736 H 0.50809 0.55698 0.05093
 H3737 H 0.47968 0.57500 0.01143
 H3738 H 0.48073 0.60180 0.02320
 C3739 C -0.00248 0.15654 0.57395
 C3740 C -0.01382 0.16832 0.57003
 C3741 C -0.01313 0.18344 0.57731
 C3742 C -0.00106 0.18714 0.58862
 C3743 C 0.01048 0.17547 0.59223
 C3744 C 0.00974 0.16036 0.58504
 C3745 C -0.00344 0.14027 0.56679
 N3746 N 0.00596 0.12832 0.57250
 N3747 N 0.00511 0.11365 0.56623
 C3748 C -0.00517 0.11027 0.55397
 N3749 N -0.01458 0.12222 0.54822
 N3750 N -0.01377 0.13690 0.55453
 C3751 C -0.00587 0.09393 0.54694
 C3752 C -0.01445 0.09086 0.53268
 C3753 C -0.01451 0.07554 0.52580
 C3754 C -0.00607 0.06293 0.53310
 C3755 C 0.00221 0.06595 0.54755
 C3756 C 0.00235 0.08125 0.55435
 H3757 H -0.02341 0.16576 0.56155
 H3758 H -0.02229 0.19211 0.57438
 H3759 H 0.02015 0.17802 0.60061
 H3760 H 0.01879 0.15167 0.58821
 H3761 H -0.02093 0.10035 0.52667
 H3762 H -0.02107 0.07363 0.51470
 H3763 H 0.00884 0.05654 0.55351
 H3764 H 0.00901 0.08314 0.56539
 C3765 C 0.50370 0.15521 0.42559
 C3766 C 0.50645 0.15687 0.40904
 C3767 C 0.50626 0.17198 0.40180
 C3768 C 0.50319 0.18578 0.41089
 C3769 C 0.50026 0.18416 0.42740
 C3770 C 0.50061 0.16903 0.43470
 C3771 C 0.50407 0.13914 0.43321
 N3772 N 0.50424 0.13754 0.44944
 N3773 N 0.50462 0.12306 0.45622
 C3774 C 0.50479 0.10957 0.44707
 N3775 N 0.50459 0.11119 0.43086
 N3776 N 0.50428 0.12566 0.42408
 C3777 C 0.50497 0.09344 0.45458
 C3778 C 0.50202 0.07964 0.44530
 C3779 C 0.50173 0.06445 0.45242
 C3780 C 0.50455 0.06269 0.46897
 C3781 C 0.50780 0.07647 0.47820
 C3782 C 0.50792 0.09168 0.47110
 H3783 H 0.50886 0.14650 0.40166
 H3784 H 0.50834 0.17286 0.38901
 H3785 H 0.49795 0.19462 0.43470
 H3786 H 0.49839 0.16816 0.44747
 H3787 H 0.49969 0.08055 0.43254
 H3788 H 0.49926 0.05408 0.44494
 H3789 H 0.50998 0.07555 0.49099
 H3790 H 0.51032 0.10206 0.47859
 C3791 C 0.00218 0.65272 0.92338
 C3792 C -0.00347 0.65444 0.90760
 C3793 C -0.00427 0.66955 0.90042
 C3794 C 0.00059 0.68357 0.90877
 C3795 C 0.00600 0.68173 0.92477
 C3796 C 0.00683 0.66655 0.93191
 C3797 C 0.00316 0.63656 0.93078
 N3798 N 0.00868 0.63461 0.94602
 N3799 N 0.00947 0.62005 0.95259
 C3800 C 0.00479 0.60681 0.94419
 N3801 N -0.00069 0.60877 0.92895
 N3802 N -0.00147 0.62331 0.92239
 C3803 C 0.00529 0.59060 0.95155
 C3804 C -0.00020 0.57709 0.94293
 C3805 C -0.00036 0.56189 0.95001
 C3806 C 0.00499 0.55979 0.96589
 C3807 C 0.01082 0.57324 0.97440
 C3808 C 0.01095 0.58846 0.96732
 H3809 H -0.00738 0.64409 0.90071
 H3810 H -0.00931 0.67007 0.88846
 H3811 H 0.01031 0.69185 0.93172
 H3812 H 0.01129 0.66565 0.94410
 H3813 H -0.00459 0.57826 0.93074
 H3814 H -0.00488 0.55182 0.94306
 H3815 H 0.01506 0.57207 0.98665
 H3816 H 0.01532 0.59858 0.97429
 C3817 C 0.25034 0.67486 0.90654
 C3818 C 0.25334 0.68407 0.92040
 C3819 C 0.25345 0.67684 0.93558
 C3820 C 0.25037 0.66031 0.93718
 C3821 C 0.24758 0.65109 0.92333
 C3822 C 0.24764 0.65826 0.90819
 C3823 C 0.24978 0.68243 0.89045
 N3824 N 0.24951 0.67324 0.87701
 N3825 N 0.24872 0.67994 0.86252
 C3826 C 0.24806 0.69613 0.86085
 N3827 N 0.24833 0.70535 0.87429
 N3828 N 0.24919 0.69864 0.88880
 C3829 C 0.24712 0.70352 0.84469
 C3830 C 0.24363 0.71989 0.84285
 C3831 C 0.24287 0.72682 0.82758
 C3832 C 0.24574 0.71756 0.81381
 C3833 C 0.24914 0.70118 0.81565
 C3834 C 0.24975 0.69423 0.83090
 H3835 H 0.25554 0.69688 0.91954
 H3836 H 0.25557 0.68421 0.94609
 H3837 H 0.24537 0.63829 0.92422
 H3838 H 0.24532 0.65079 0.89779
 H3839 H 0.24147 0.72737 0.85322
 H3840 H 0.24028 0.73949 0.82658
 H3841 H 0.25136 0.69369 0.80530
 H3842 H 0.25247 0.68159 0.83187
 C3843 C 0.74873 0.17801 0.40456
 C3844 C 0.74254 0.18568 0.41820
 C3845 C 0.74294 0.17812 0.43321
 C3846 C 0.74948 0.16273 0.43488
 C3847 C 0.75587 0.15520 0.42130
 C3848 C 0.75550 0.16273 0.40634
 C3849 C 0.74805 0.18573 0.38852
 N3850 N 0.75379 0.17804 0.37542
 N3851 N 0.75316 0.18482 0.36097
 C3852 C 0.74674 0.19960 0.35895
 N3853 N 0.74098 0.20731 0.37205
 N3854 N 0.74161 0.20052 0.38652
 C3855 C 0.74622 0.20713 0.34282
 C3856 C 0.73990 0.22256 0.34062
 C3857 C 0.73984 0.22973 0.32543
 C3858 C 0.74611 0.22164 0.31208
 C3859 C 0.75221 0.20612 0.31427
 C3860 C 0.75227 0.19897 0.32943
 H3861 H 0.73726 0.19746 0.41726
 H3862 H 0.73781 0.18417 0.44343
 H3863 H 0.76125 0.14347 0.42225
 H3864 H 0.76048 0.15650 0.39615
 H3865 H 0.73511 0.22917 0.35066
 H3866 H 0.73502 0.24169 0.32419
 H3867 H 0.75711 0.19950 0.30428
 H3868 H 0.75719 0.18705 0.33064
 C3869 C 0.24758 0.31939 0.40638
 C3870 C 0.23711 0.33226 0.40885
 C3871 C 0.23637 0.33982 0.42376
 C3872 C 0.24610 0.33476 0.43657
 C3873 C 0.25627 0.32161 0.43427
 C3874 C 0.25700 0.31400 0.41932
 C3875 C 0.24886 0.31198 0.39026
 N3876 N 0.25804 0.29883 0.38781
 N3877 N 0.25931 0.29243 0.37322
 C3878 C 0.25151 0.29897 0.36046
 N3879 N 0.24235 0.31210 0.36294
 N3880 N 0.24106 0.31846 0.37751
 C3881 C 0.25278 0.29193 0.34418
 C3882 C 0.24579 0.29972 0.33095
 C3883 C 0.24646 0.29299 0.31565
 C3884 C 0.25408 0.27823 0.31315
 C3885 C 0.26132 0.27054 0.32633
 C3886 C 0.26070 0.27734 0.34167
 H3887 H 0.22955 0.33663 0.39923
 H3888 H 0.22818 0.34971 0.42523
 H3889 H 0.26402 0.31752 0.44387
 H3890 H 0.26518 0.30411 0.41784
 H3891 H 0.23968 0.31102 0.33239
 H3892 H 0.24076 0.29928 0.30582
 H3893 H 0.26732 0.25919 0.32483
 H3894 H 0.26624 0.27104 0.35158
 C3895 C 0.74535 0.82089 0.90621
 C3896 C 0.73470 0.83355 0.90896
 C3897 C 0.73399 0.84091 0.92397
 C3898 C 0.74395 0.83584 0.93661
 C3899 C 0.75426 0.82286 0.93405
 C3900 C 0.75496 0.81546 0.91900
 C3901 C 0.74666 0.81377 0.88998
 N3902 N 0.75618 0.80092 0.88728
 N3903 N 0.75751 0.79476 0.87260
 C3904 C 0.74944 0.80124 0.85999
 N3905 N 0.73994 0.81408 0.86271
 N3906 N 0.73858 0.82020 0.87738
 C3907 C 0.75077 0.79440 0.84364
 C3908 C 0.74333 0.80196 0.83052
 C3909 C 0.74406 0.79529 0.81518
 C3910 C 0.75220 0.78085 0.81257
 C3911 C 0.75991 0.77343 0.82563
 C3912 C 0.75923 0.78015 0.84098
 H3913 H 0.72699 0.83794 0.89946
 H3914 H 0.72570 0.85067 0.92565
 H3915 H 0.76218 0.81878 0.94352
 H3916 H 0.76328 0.80573 0.91731
 H3917 H 0.73679 0.81300 0.83209
 H3918 H 0.73798 0.80134 0.80543
 H3919 H 0.76634 0.76232 0.82405
 H3920 H 0.76514 0.77403 0.85080
 C3921 C 0.74715 0.82576 0.09519
 C3922 C 0.74982 0.81631 0.08149
 C3923 C 0.74984 0.82326 0.06619
 C3924 C 0.74701 0.83973 0.06428
 C3925 C 0.74449 0.84918 0.07797
 C3926 C 0.74462 0.84229 0.09324
 C3927 C 0.74684 0.81847 0.11142
 N3928 N 0.74686 0.82787 0.12473
 N3929 N 0.74643 0.82137 0.13933
 C3930 C 0.74587 0.80519 0.14126
 N3931 N 0.74583 0.79578 0.12795
 N3932 N 0.74633 0.80228 0.11334
 C3933 C 0.74546 0.79797 0.15752
 C3934 C 0.74221 0.78150 0.15952
 C3935 C 0.74217 0.77461 0.17482
 C3936 C 0.74552 0.78400 0.18847
 C3937 C 0.74859 0.80051 0.18648
 C3938 C 0.74849 0.80742 0.17119
 H3939 H 0.75187 0.80355 0.08258
 H3940 H 0.75175 0.81570 0.05582
 H3941 H 0.74249 0.86195 0.07685
 H3942 H 0.74255 0.84993 0.10351
 H3943 H 0.73975 0.77389 0.14926
 H3944 H 0.73980 0.76185 0.17590
 H3945 H 0.75116 0.80810 0.19674
 H3946 H 0.75102 0.82015 0.17008
 C3947 C 0.24692 0.32253 0.59404
 C3948 C 0.24399 0.33904 0.59248
 C3949 C 0.24402 0.34636 0.57741
 C3950 C 0.24710 0.33739 0.56353
 C3951 C 0.25027 0.32093 0.56504
 C3952 C 0.25009 0.31355 0.58014
 C3953 C 0.24663 0.31483 0.61009
 N3954 N 0.24667 0.29859 0.61164
 N3955 N 0.24632 0.29175 0.62610
 C3956 C 0.24595 0.30085 0.63962
 N3957 N 0.24593 0.31708 0.63804
 N3958 N 0.24622 0.32391 0.62360
 C3959 C 0.24581 0.29331 0.65574
 C3960 C 0.24852 0.30266 0.66954
 C3961 C 0.24891 0.29554 0.68472
 C3962 C 0.24646 0.27891 0.68649
 C3963 C 0.24342 0.26960 0.67272
 C3964 C 0.24319 0.27671 0.65751
 H3965 H 0.24153 0.34633 0.60291
 H3966 H 0.24175 0.35911 0.57662
 H3967 H 0.25260 0.31373 0.55452
 H3968 H 0.25245 0.30082 0.58093
 H3969 H 0.25058 0.31548 0.66863
 H3970 H 0.25121 0.30308 0.69508
 H3971 H 0.24153 0.25675 0.67366
 H3972 H 0.24099 0.26917 0.64714
 C3973 C 0.75840 0.17884 0.59215
 C3974 C 0.76345 0.16296 0.58996
 C3975 C 0.76282 0.15586 0.57481
 C3976 C 0.75698 0.16440 0.56150
 C3977 C 0.75191 0.18027 0.56364
 C3978 C 0.75271 0.18746 0.57879
 C3979 C 0.75887 0.18621 0.60832
 N3980 N 0.75722 0.20229 0.61024
 N3981 N 0.75752 0.20883 0.62483
 C3982 C 0.75941 0.19955 0.63811
 N3983 N 0.76105 0.18347 0.63618
 N3984 N 0.76083 0.17695 0.62160
 C3985 C 0.75937 0.20673 0.65437
 C3986 C 0.75733 0.19698 0.66800
 C3987 C 0.75672 0.20377 0.68331
 C3988 C 0.75834 0.22046 0.68535
 C3989 C 0.76072 0.23018 0.67174
 C3990 C 0.76112 0.22340 0.65641
 H3991 H 0.76792 0.15599 0.59997
 H3992 H 0.76663 0.14354 0.57354
 H3993 H 0.74744 0.18714 0.55355
 H3994 H 0.74869 0.19970 0.58008
 H3995 H 0.75593 0.18410 0.66685
 H3996 H 0.75496 0.19595 0.69355
 H3997 H 0.76195 0.24308 0.67290
 H3998 H 0.76279 0.23123 0.64617
 C3999 C 0.24824 0.68014 0.09425
 C4000 C 0.23715 0.66761 0.09136
 C4001 C 0.23655 0.65993 0.07650
 C4002 C 0.24706 0.66453 0.06414
 C4003 C 0.25785 0.67737 0.06683
 C4004 C 0.25843 0.68510 0.08173
 C4005 C 0.24939 0.68756 0.11038
 N4006 N 0.25904 0.70055 0.11315
 N4007 N 0.26024 0.70691 0.12780
 C4008 C 0.25190 0.70049 0.14028
 N4009 N 0.24226 0.68753 0.13748
 N4010 N 0.24102 0.68122 0.12286
 C4011 C 0.25321 0.70737 0.15664
 C4012 C 0.24612 0.69934 0.16970
 C4013 C 0.24697 0.70583 0.18510
 C4014 C 0.25487 0.72058 0.18788
 C4015 C 0.26214 0.72856 0.17487
 C4016 C 0.26136 0.72199 0.15942
 H4017 H 0.22898 0.66358 0.10065
 H4018 H 0.22787 0.65031 0.07471
 H4019 H 0.26619 0.68110 0.05759
 H4020 H 0.26710 0.69471 0.08354
 H4021 H 0.23983 0.68802 0.16804
 H4022 H 0.24123 0.69933 0.19481
 H4023 H 0.26834 0.73993 0.17658
 H4024 H 0.26696 0.72848 0.14963
 C4025 C 0.17790 0.58991 0.74866
 C4026 C 0.18248 0.57774 0.75940
 C4027 C 0.17501 0.56261 0.75886
 C4028 C 0.16283 0.55933 0.74755
 C4029 C 0.15860 0.57136 0.73653
 C4030 C 0.16601 0.58646 0.73710
 C4031 C 0.18515 0.60622 0.74965
 N4032 N 0.17916 0.61841 0.74069
 N4033 N 0.18541 0.63315 0.74170
 C4034 C 0.19795 0.63637 0.75171
 N4035 N 0.20399 0.62418 0.76066
 N4036 N 0.19770 0.60942 0.75968
 C4037 C 0.20488 0.65282 0.75272
 C4038 C 0.21912 0.65586 0.76138
 C4039 C 0.22583 0.67132 0.76190
 C4040 C 0.21839 0.68412 0.75386
 C4041 C 0.20400 0.68110 0.74543
 C4042 C 0.19736 0.66565 0.74483
 H4043 H 0.19160 0.57998 0.76845
 H4044 H 0.17844 0.55363 0.76759
 H4045 H 0.14951 0.56913 0.72745
 H4046 H 0.16230 0.59547 0.72852
 H4047 H 0.22522 0.64626 0.76760
 H4048 H 0.23690 0.67322 0.76854
 H4049 H 0.19795 0.69065 0.73907
 H4050 H 0.18633 0.66377 0.73811
 C4051 C 0.67673 0.09640 0.25367
 C4052 C 0.68604 0.08251 0.25249
 C4053 C 0.67871 0.06735 0.25121
 C4054 C 0.66179 0.06559 0.25106
 C4055 C 0.65262 0.07970 0.25247
 C4056 C 0.65995 0.09478 0.25370
 C4057 C 0.68433 0.11255 0.25471
 N4058 N 0.67519 0.12593 0.25393
 N4059 N 0.68190 0.14048 0.25462
 C4060 C 0.69806 0.14232 0.25616
 N4061 N 0.70722 0.12894 0.25701
 N4062 N 0.70050 0.11436 0.25629
 C4063 C 0.70549 0.15857 0.25649
 C4064 C 0.72196 0.16066 0.25973
 C4065 C 0.72901 0.17598 0.25947
 C4066 C 0.71976 0.18954 0.25584
 C4067 C 0.70323 0.18746 0.25285
 C4068 C 0.69618 0.17218 0.25322
 H4069 H 0.69902 0.08335 0.25232
 H4070 H 0.68650 0.05718 0.24971
 H4071 H 0.63967 0.07930 0.25331
 H4072 H 0.65238 0.10519 0.25484
 H4073 H 0.72947 0.15045 0.26236
 H4074 H 0.74177 0.17714 0.26182
 H4075 H 0.69573 0.19764 0.25009
 H4076 H 0.68345 0.17103 0.25069
 C4077 C 0.82554 0.09529 0.74711
 C4078 C 0.83923 0.09299 0.75675
 C4079 C 0.84637 0.07795 0.75777
 C4080 C 0.84006 0.06482 0.74915
 C4081 C 0.82619 0.06700 0.73974
 C4082 C 0.81901 0.08208 0.73873
 C4083 C 0.81833 0.11143 0.74578
 N4084 N 0.80448 0.11374 0.73743
 N4085 N 0.79809 0.12829 0.73631
 C4086 C 0.80531 0.14117 0.74343
 N4087 N 0.81917 0.13885 0.75173
 N4088 N 0.82553 0.12431 0.75287
 C4089 C 0.79810 0.15735 0.74255
 C4090 C 0.80608 0.17065 0.74941
 C4091 C 0.79903 0.18577 0.74930
 C4092 C 0.78378 0.18799 0.74237
 C4093 C 0.77596 0.17477 0.73516
 C4094 C 0.78305 0.15963 0.73523
 H4095 H 0.84451 0.10282 0.76350
 H4096 H 0.85685 0.07661 0.76538
 H4097 H 0.82113 0.05714 0.73286
 H4098 H 0.80846 0.08342 0.73121
 H4099 H 0.81773 0.16937 0.75507
 H4100 H 0.80544 0.19567 0.75494
 H4101 H 0.76423 0.17605 0.72966
 H4102 H 0.77658 0.14967 0.72979
 C4103 C 0.32404 0.59392 0.24963
 C4104 C 0.33942 0.59208 0.25637
 C4105 C 0.34675 0.57710 0.25659
 C4106 C 0.33890 0.56356 0.25008
 C4107 C 0.32342 0.56530 0.24356
 C4108 C 0.31607 0.58033 0.24331
 C4109 C 0.31653 0.60998 0.24912
 N4110 N 0.30174 0.61206 0.24253
 N4111 N 0.29514 0.62656 0.24202
 C4112 C 0.30306 0.63958 0.24806
 N4113 N 0.31784 0.63748 0.25464
 N4114 N 0.32443 0.62300 0.25515
 C4115 C 0.29577 0.65575 0.24762
 C4116 C 0.30410 0.66906 0.25403
 C4117 C 0.29720 0.68426 0.25392
 C4118 C 0.28179 0.68656 0.24739
 C4119 C 0.27352 0.67327 0.24081
 C4120 C 0.28043 0.65804 0.24093
 H4121 H 0.34589 0.60223 0.26144
 H4122 H 0.35857 0.57611 0.26196
 H4123 H 0.31713 0.55510 0.23836
 H4124 H 0.30420 0.58131 0.23805
 H4125 H 0.31595 0.66777 0.25925
 H4126 H 0.30395 0.69420 0.25907
 H4127 H 0.26164 0.67459 0.23568
 H4128 H 0.27369 0.64807 0.23586
 C4129 C 0.32186 0.40577 0.25818
 C4130 C 0.31317 0.41909 0.25268
 C4131 C 0.32037 0.43435 0.25215
 C4132 C 0.33632 0.43661 0.25732
 C4133 C 0.34493 0.42334 0.26298
 C4134 C 0.33782 0.40809 0.26334
 C4135 C 0.31447 0.38950 0.25836
 N4136 N 0.32375 0.37630 0.26011
 N4137 N 0.31720 0.36164 0.26007
 C4138 C 0.30107 0.35956 0.25839
 N4139 N 0.29178 0.37276 0.25672
 N4140 N 0.29834 0.38742 0.25667
 C4141 C 0.29383 0.34322 0.25812
 C4142 C 0.27718 0.34100 0.25988
 C4143 C 0.27033 0.32561 0.25930
 C4144 C 0.27996 0.31211 0.25675
 C4145 C 0.29663 0.31432 0.25510
 C4146 C 0.30350 0.32969 0.25588
 H4147 H 0.30087 0.41770 0.24858
 H4148 H 0.31345 0.44440 0.24781
 H4149 H 0.35730 0.42471 0.26686
 H4150 H 0.34484 0.39811 0.26767
 H4151 H 0.26940 0.35116 0.26170
 H4152 H 0.25744 0.32432 0.26057
 H4153 H 0.30440 0.30416 0.25320
 H4154 H 0.31638 0.33098 0.25446
 C4155 C 0.82119 0.90722 0.75722
 C4156 C 0.81226 0.92101 0.75361
 C4157 C 0.81969 0.93618 0.75338
 C4158 C 0.83613 0.93786 0.75696
 C4159 C 0.84501 0.92409 0.76064
 C4160 C 0.83765 0.90896 0.76072
 C4161 C 0.81354 0.89106 0.75723
 N4162 N 0.82269 0.87768 0.75782
 N4163 N 0.81594 0.86312 0.75772
 C4164 C 0.79972 0.86130 0.75711
 N4165 N 0.79054 0.87467 0.75657
 N4166 N 0.79731 0.88925 0.75660
 C4167 C 0.79228 0.84504 0.75681
 C4168 C 0.77566 0.84292 0.75905
 C4169 C 0.76869 0.82757 0.75854
 C4170 C 0.77815 0.81403 0.75561
 C4171 C 0.79477 0.81615 0.75346
 C4172 C 0.80176 0.83146 0.75414
 H4173 H 0.79957 0.92008 0.75082
 H4174 H 0.81256 0.94661 0.75058
 H4175 H 0.85775 0.92499 0.76321
 H4176 H 0.84490 0.89862 0.76355
 H4177 H 0.76803 0.85312 0.76120
 H4178 H 0.75584 0.82636 0.76020
 H4179 H 0.80242 0.80597 0.75126
 H4180 H 0.81460 0.83265 0.75235
 C4181 C 0.67784 0.90810 0.24965
 C4182 C 0.68638 0.92199 0.24498
 C4183 C 0.67928 0.93709 0.24592
 C4184 C 0.66349 0.93865 0.25156
 C4185 C 0.65501 0.92478 0.25632
 C4186 C 0.66209 0.90970 0.25539
 C4187 C 0.68522 0.89201 0.24852
 N4188 N 0.67693 0.87868 0.25318
 N4189 N 0.68349 0.86422 0.25223
 C4190 C 0.69863 0.86244 0.24655
 N4191 N 0.70692 0.87577 0.24184
 N4192 N 0.70035 0.89025 0.24280
 C4193 C 0.70599 0.84633 0.24582
 C4194 C 0.72166 0.84439 0.23997
 C4195 C 0.72876 0.82925 0.23987
 C4196 C 0.72036 0.81570 0.24566
 C4197 C 0.70458 0.81762 0.25122
 C4198 C 0.69749 0.83272 0.25129
 H4199 H 0.69856 0.92121 0.24057
 H4200 H 0.68618 0.94757 0.24231
 H4201 H 0.64273 0.92552 0.26046
 H4202 H 0.65513 0.89928 0.25906
 H4203 H 0.72854 0.85459 0.23561
 H4204 H 0.74093 0.82823 0.23548
 H4205 H 0.69772 0.80746 0.25571
 H4206 H 0.68538 0.83374 0.25582
 C4207 C 0.17742 0.40222 0.74372
 C4208 C 0.18630 0.41631 0.74705
 C4209 C 0.17871 0.43120 0.74762
 C4210 C 0.16213 0.43232 0.74467
 C4211 C 0.15328 0.41825 0.74134
 C4212 C 0.16081 0.40338 0.74092
 C4213 C 0.18533 0.38638 0.74321
 N4214 N 0.17640 0.37264 0.74275
 N4215 N 0.18341 0.35836 0.74237
 C4216 C 0.19966 0.35720 0.74236
 N4217 N 0.20862 0.37094 0.74276
 N4218 N 0.20160 0.38523 0.74320
 C4219 C 0.20740 0.34126 0.74221
 C4220 C 0.22398 0.33988 0.73950
 C4221 C 0.23128 0.32484 0.73975
 C4222 C 0.22218 0.31087 0.74290
 C4223 C 0.20557 0.31225 0.74543
 C4224 C 0.19826 0.32725 0.74501
 H4225 H 0.19911 0.41583 0.74931
 H4226 H 0.18582 0.44188 0.75012
 H4227 H 0.14044 0.41872 0.73923
 H4228 H 0.15360 0.39279 0.73833
 H4229 H 0.23135 0.35042 0.73722
 H4230 H 0.24410 0.32419 0.73778
 H4231 H 0.19819 0.30173 0.74779
 H4232 H 0.18546 0.32787 0.74714
 C4233 C 0.09216 0.74907 0.82198
 C4234 C 0.07870 0.74162 0.81476
 C4235 C 0.06367 0.74194 0.82223
 C4236 C 0.06181 0.74968 0.83706
 C4237 C 0.07518 0.75745 0.84405
 C4238 C 0.09015 0.75714 0.83662
 C4239 C 0.10829 0.74823 0.81456
 N4240 N 0.12130 0.75473 0.82212
 N4241 N 0.13587 0.75380 0.81570
 C4242 C 0.13808 0.74631 0.80143
 N4243 N 0.12507 0.73982 0.79384
 N4244 N 0.11048 0.74074 0.80028
 C4245 C 0.15436 0.74537 0.79435
 C4246 C 0.15668 0.73838 0.77920
 C4247 C 0.17202 0.73785 0.77245
 C4248 C 0.18540 0.74427 0.78071
 C4249 C 0.18308 0.75105 0.79595
 C4250 C 0.16777 0.75160 0.80267
 H4251 H 0.07981 0.73532 0.80348
 H4252 H 0.05361 0.73576 0.81661
 H4253 H 0.07406 0.76377 0.85533
 H4254 H 0.10018 0.76314 0.84247
 H4255 H 0.14663 0.73344 0.77247
 H4256 H 0.17335 0.73252 0.76070
 H4257 H 0.19309 0.75611 0.80267
 H4258 H 0.16646 0.75702 0.81439
 C4259 C 0.59413 0.25171 0.32071
 C4260 C 0.58168 0.24110 0.31611
 C4261 C 0.56667 0.24171 0.32356
 C4262 C 0.56378 0.25298 0.33573
 C4263 C 0.57607 0.26390 0.33993
 C4264 C 0.59106 0.26326 0.33255
 C4265 C 0.61036 0.25058 0.31356
 N4266 N 0.62281 0.25935 0.31963
 N4267 N 0.63747 0.25821 0.31347
 C4268 C 0.64034 0.24825 0.30095
 N4269 N 0.62788 0.23948 0.29483
 N4270 N 0.61320 0.24059 0.30103
 C4271 C 0.65668 0.24722 0.29404
 C4272 C 0.65937 0.23876 0.27974
 C4273 C 0.67468 0.23848 0.27290
 C4274 C 0.68767 0.24659 0.28027
 C4275 C 0.68503 0.25468 0.29480
 C4276 C 0.66973 0.25503 0.30156
 H4277 H 0.58364 0.23206 0.30703
 H4278 H 0.55750 0.23303 0.32015
 H4279 H 0.57413 0.27293 0.34903
 H4280 H 0.60029 0.27175 0.33626
 H4281 H 0.64959 0.23257 0.27364
 H4282 H 0.67629 0.23207 0.26174
 H4283 H 0.69473 0.26106 0.30082
 H4284 H 0.66814 0.26157 0.31265
 C4285 C 0.59649 0.75950 0.17468
 C4286 C 0.59505 0.75611 0.15821
 C4287 C 0.57996 0.75500 0.15090
 C4288 C 0.56590 0.75721 0.15986
 C4289 C 0.56731 0.76088 0.17627
 C4290 C 0.58244 0.76201 0.18361
 C4291 C 0.61256 0.76008 0.18247
 N4292 N 0.61421 0.76385 0.19826
 N4293 N 0.62864 0.76398 0.20527
 C4294 C 0.64202 0.76033 0.19680
 N4295 N 0.64035 0.75662 0.18101
 N4296 N 0.62594 0.75651 0.17401
 C4297 C 0.65805 0.76004 0.20464
 C4298 C 0.67157 0.75487 0.19611
 C4299 C 0.68661 0.75414 0.20357
 C4300 C 0.68854 0.75860 0.21973
 C4301 C 0.67507 0.76398 0.22821
 C4302 C 0.65999 0.76465 0.22077
 H4303 H 0.60559 0.75423 0.15093
 H4304 H 0.57930 0.75247 0.13817
 H4305 H 0.55670 0.76252 0.18352
 H4306 H 0.58311 0.76463 0.19631
 H4307 H 0.67054 0.75124 0.18368
 H4308 H 0.69672 0.75000 0.19664
 H4309 H 0.67611 0.76752 0.24068
 H4310 H 0.64986 0.76873 0.22769
 C4311 C 0.09652 0.25062 0.67596
 C4312 C 0.09372 0.24129 0.66221
 C4313 C 0.07866 0.24097 0.65479
 C4314 C 0.06577 0.25005 0.66081
 C4315 C 0.06863 0.25913 0.67490
 C4316 C 0.08376 0.25941 0.68231
 C4317 C 0.11272 0.25122 0.68346
 N4318 N 0.11545 0.25949 0.69727
 N4319 N 0.13007 0.26005 0.70387
 C4320 C 0.14257 0.25240 0.69692
 N4321 N 0.13982 0.24416 0.68311
 N4322 N 0.12522 0.24359 0.67653
 C4323 C 0.15885 0.25285 0.70425
 C4324 C 0.17181 0.24554 0.69648
 C4325 C 0.18707 0.24555 0.70349
 C4326 C 0.18979 0.25283 0.71849
 C4327 C 0.17689 0.26034 0.72618
 C4328 C 0.16160 0.26037 0.71913
 H4329 H 0.10319 0.23413 0.65712
 H4330 H 0.07718 0.23310 0.64458
 H4331 H 0.05951 0.26672 0.67994
 H4332 H 0.08550 0.26678 0.69288
 H4333 H 0.17017 0.23970 0.68499
 H4334 H 0.19671 0.23966 0.69721
 H4335 H 0.17855 0.26611 0.73771
 H4336 H 0.15190 0.26614 0.72543
 C4337 C 0.90868 0.25231 0.67853
 C4338 C 0.92194 0.24520 0.68613
 C4339 C 0.93717 0.24594 0.67912
 C4340 C 0.93949 0.25385 0.66439
 C4341 C 0.92629 0.26117 0.65693
 C4342 C 0.91108 0.26041 0.66391
 C4343 C 0.89239 0.25114 0.68563
 N4344 N 0.87954 0.25753 0.67793
 N4345 N 0.86489 0.25639 0.68418
 C4346 C 0.86241 0.24880 0.69840
 N4347 N 0.87526 0.24241 0.70612
 N4348 N 0.88993 0.24354 0.69986
 C4349 C 0.84607 0.24773 0.70539
 C4350 C 0.84353 0.24046 0.72041
 C4351 C 0.82818 0.23991 0.72716
 C4352 C 0.81500 0.24661 0.71904
 C4353 C 0.81752 0.25362 0.70389
 C4354 C 0.83285 0.25418 0.69716
 H4355 H 0.92055 0.23893 0.69743
 H4356 H 0.94714 0.24033 0.68524
 H4357 H 0.92761 0.26714 0.64546
 H4358 H 0.90116 0.26602 0.65770
 H4359 H 0.85342 0.23532 0.72706
 H4360 H 0.82669 0.23438 0.73883
 H4361 H 0.80767 0.25889 0.69726
 H4362 H 0.83433 0.25982 0.68554
 C4363 C 0.40934 0.75102 0.18250
 C4364 C 0.41971 0.73791 0.18406
 C4365 C 0.43458 0.73798 0.17634
 C4366 C 0.43947 0.75122 0.16704
 C4367 C 0.42933 0.76452 0.16586
 C4368 C 0.41439 0.76439 0.17344
 C4369 C 0.39316 0.75056 0.18986
 N4370 N 0.38195 0.76155 0.18571
 N4371 N 0.36726 0.76089 0.19194
 C4372 C 0.36315 0.74924 0.20262
 N4373 N 0.37438 0.73830 0.20685
 N4374 N 0.38906 0.73892 0.20057
 C4375 C 0.34674 0.74846 0.20942
 C4376 C 0.34326 0.73848 0.22260
 C4377 C 0.32781 0.73796 0.22913
 C4378 C 0.31545 0.74727 0.22250
 C4379 C 0.31890 0.75709 0.20919
 C4380 C 0.33436 0.75773 0.20278
 H4381 H 0.41621 0.72743 0.19096
 H4382 H 0.44224 0.72762 0.17756
 H4383 H 0.43273 0.77481 0.15864
 H4384 H 0.40673 0.77472 0.17205
 H4385 H 0.35251 0.73119 0.22801
 H4386 H 0.32556 0.73024 0.23935
 H4387 H 0.30968 0.76447 0.20383
 H4388 H 0.33660 0.76548 0.19258
 C4389 C 0.40584 0.25273 0.32404
 C4390 C 0.41932 0.25902 0.31596
 C4391 C 0.43466 0.25806 0.32279
 C4392 C 0.43688 0.25075 0.33784
 C4393 C 0.42343 0.24440 0.34587
 C4394 C 0.40811 0.24537 0.33906
 C4395 C 0.38952 0.25380 0.31691
 N4396 N 0.37654 0.24785 0.32485
 N4397 N 0.36189 0.24867 0.31844
 C4398 C 0.35956 0.25550 0.30382
 N4399 N 0.37254 0.26149 0.29589
 N4400 N 0.38720 0.26068 0.30230
 C4401 C 0.34328 0.25600 0.29653
 C4402 C 0.34091 0.26261 0.28118
 C4403 C 0.32568 0.26238 0.27403
 C4404 C 0.31245 0.25553 0.28206
 C4405 C 0.31475 0.24927 0.29757
 C4406 C 0.32997 0.24950 0.30471
 H4407 H 0.41803 0.26472 0.30435
 H4408 H 0.44481 0.26293 0.31624
 H4409 H 0.42470 0.23893 0.35759
 H4410 H 0.39803 0.24042 0.34565
 H4411 H 0.35087 0.26777 0.27456
 H4412 H 0.32435 0.26736 0.26209
 H4413 H 0.30484 0.24395 0.30414
 H4414 H 0.33132 0.24437 0.31657
 C4415 C 0.90317 0.75877 0.82574
 C4416 C 0.91701 0.76348 0.81724
 C4417 C 0.93228 0.76195 0.82417
 C4418 C 0.93401 0.75561 0.83971
 C4419 C 0.92016 0.75114 0.84827
 C4420 C 0.90495 0.75270 0.84138
 C4421 C 0.88697 0.75980 0.81832
 N4422 N 0.87374 0.75498 0.82657
 N4423 N 0.85922 0.75541 0.81984
 C4424 C 0.85727 0.76069 0.80454
 N4425 N 0.87049 0.76562 0.79629
 N4426 N 0.88503 0.76519 0.80304
 C4427 C 0.84113 0.76056 0.79690
 C4428 C 0.83903 0.76588 0.78102
 C4429 C 0.82393 0.76501 0.77362
 C4430 C 0.81057 0.75875 0.78191
 C4431 C 0.81262 0.75376 0.79790
 C4432 C 0.82769 0.75466 0.80530
 H4433 H 0.91609 0.76821 0.80517
 H4434 H 0.94274 0.76542 0.81726
 H4435 H 0.92108 0.74651 0.86038
 H4436 H 0.89458 0.74903 0.84833
 H4437 H 0.84910 0.77054 0.77420
 H4438 H 0.82280 0.76901 0.76130
 H4439 H 0.80260 0.74895 0.80470
 H4440 H 0.82883 0.75050 0.81756
   
