data_POSCAR
  _audit_creation_date              2014-09-24
  _audit_creation_method            'ToBaCCo'
  _symmetry_space_group_name_H-M    'P1'
  _symmetry_Int_Tables_number       1
  _symmetry_cell_setting            triclinic
  loop_
  _symmetry_equiv_pos_as_xyz
 x,y,z
_cell_length_a 58.7954
_cell_length_b 58.8444
_cell_length_c 50.6470
_cell_angle_alpha 90.896300
_cell_angle_beta 90.253800
_cell_angle_gamma 90.679200
loop_
  _atom_site_label
  _atom_site_type_symbol
  _atom_site_fract_x
  _atom_site_fract_y
  _atom_site_fract_z
C1 C 0.36488 0.02958 0.29287
 H2 H 0.35160 0.04120 0.28757
 C3 C 0.37974 0.03534 0.31360
 H4 H 0.37772 0.05132 0.32417
 C5 C 0.38378 -0.00533 0.28577
 H6 H 0.38519 -0.02121 0.27489
 C7 C 0.39930 -0.00000 0.30583
 H8 H 0.41250 -0.01201 0.31046
 N9 N 0.36709 0.00948 0.27948
 C10 C 0.35349 -0.01656 0.19964
 H11 H 0.33524 -0.01872 0.19969
 C12 C 0.36588 -0.02402 0.17775
 H13 H 0.35699 -0.03189 0.16115
 C14 C 0.38722 -0.00335 0.22082
 H15 H 0.39550 0.00532 0.23721
 C16 C 0.40027 -0.01081 0.19956
 H17 H 0.41849 -0.00793 0.20008
 Zn18 Zn 0.34713 0.00176 0.25105
 N19 N 0.36429 -0.00676 0.22082
 C20 C 0.33555 0.04095 0.22332
 N21 N 0.32931 0.02709 0.24331
 C22 C 0.31171 0.03225 0.25952
 C23 C 0.30016 0.05263 0.25664
 C24 C 0.32448 0.06153 0.21974
 C25 C 0.33331 -0.03606 0.28128
 C26 C 0.32093 -0.05590 0.28609
 C27 C 0.29643 -0.04720 0.24926
 C28 C 0.30941 -0.02758 0.24514
 N29 N 0.32795 -0.02284 0.26044
 H30 H 0.34975 0.03650 0.21086
 H31 H 0.30729 0.02095 0.27539
 H32 H 0.28671 0.05677 0.27036
 H33 H 0.33025 0.07273 0.20433
 H34 H 0.34765 -0.03173 0.29378
 H35 H 0.32627 -0.06643 0.30230
 H36 H 0.28224 -0.05080 0.23608
 H37 H 0.30498 -0.01637 0.22926
 C38 C 0.38963 -0.02141 0.17771
 C39 C 0.39732 0.02052 0.32006
 C40 C 0.30264 -0.06230 0.26936
 C41 C 0.30692 0.06786 0.23699
 C42 C 0.11835 0.02355 0.72114
 H43 H 0.11411 0.03073 0.74025
 C44 C 0.10644 0.03020 0.69863
 H45 H 0.09282 0.04233 0.70059
 C46 C 0.14148 -0.00078 0.69530
 H47 H 0.15541 -0.01254 0.69399
 C48 C 0.13038 0.00573 0.67231
 H49 H 0.13557 -0.00161 0.65358
 N50 N 0.13505 0.00780 0.71917
 C51 C 0.14168 -0.01481 0.80058
 H52 H 0.16001 -0.01377 0.80229
 C53 C 0.12871 -0.02168 0.82209
 H54 H 0.13725 -0.02565 0.84040
 C55 C 0.10850 -0.01100 0.77439
 H56 H 0.10074 -0.00736 0.75558
 C57 C 0.09485 -0.01785 0.79541
 H58 H 0.07659 -0.01886 0.79264
 Zn59 Zn 0.15116 -0.00097 0.74975
 N60 N 0.13144 -0.00922 0.77750
 C61 C 0.16489 0.03667 0.78181
 N62 N 0.16977 0.02400 0.75991
 C63 C 0.18639 0.03044 0.74294
 C64 C 0.19872 0.05053 0.74751
 C65 C 0.17663 0.05704 0.78697
 C66 C 0.15599 -0.04522 0.73289
 C67 C 0.16642 -0.06595 0.72800
 C68 C 0.20211 -0.04926 0.74279
 C69 C 0.19099 -0.02865 0.74710
 N70 N 0.16831 -0.02709 0.74214
 H71 H 0.15116 0.03158 0.79462
 H72 H 0.18952 0.02032 0.72534
 H73 H 0.21144 0.05564 0.73331
 H74 H 0.17200 0.06726 0.80403
 H75 H 0.13790 -0.04355 0.72959
 H76 H 0.15612 -0.08017 0.72090
 H77 H 0.22009 -0.05038 0.74725
 H78 H 0.20032 -0.01415 0.75507
 C79 C 0.10492 -0.02310 0.81976
 C80 C 0.11238 0.02115 0.67383
 C81 C 0.18973 -0.06828 0.73325
 C82 C 0.19353 0.06439 0.76944
 C83 C 0.61833 0.52007 0.21735
 H84 H 0.61420 0.52726 0.23650
 C85 C 0.60588 0.52625 0.19504
 H86 H 0.59199 0.53806 0.19719
 C87 C 0.64167 0.49618 0.19124
 H88 H 0.65589 0.48477 0.18973
 C89 C 0.63002 0.50224 0.16842
 H90 H 0.63510 0.49491 0.14963
 N91 N 0.63544 0.50479 0.21517
 C92 C 0.64394 0.48342 0.29687
 H93 H 0.66226 0.48501 0.29820
 C94 C 0.63147 0.47669 0.31883
 H95 H 0.64039 0.47333 0.33707
 C96 C 0.61028 0.48582 0.27123
 H97 H 0.60214 0.48888 0.25248
 C98 C 0.59712 0.47905 0.29271
 H99 H 0.57886 0.47754 0.29035
 Zn100 Zn 0.65231 0.49672 0.24554
 N101 N 0.63322 0.48828 0.27384
 C102 C 0.66539 0.53499 0.27692
 N103 N 0.67046 0.52227 0.25511
 C104 C 0.68691 0.52895 0.23804
 C105 C 0.69895 0.54925 0.24248
 C106 C 0.67683 0.55555 0.28196
 C107 C 0.65796 0.45245 0.22903
 C108 C 0.66876 0.43187 0.22435
 C109 C 0.70424 0.44939 0.23855
 C110 C 0.69274 0.46984 0.24264
 N111 N 0.66998 0.47091 0.23790
 H112 H 0.65178 0.52975 0.28981
 H113 H 0.69020 0.51879 0.22051
 H114 H 0.71158 0.55450 0.22825
 H115 H 0.67209 0.56574 0.29900
 H116 H 0.63981 0.45371 0.22591
 H117 H 0.65868 0.41738 0.21759
 H118 H 0.72226 0.44865 0.24287
 H119 H 0.70185 0.48459 0.25031
 C120 C 0.60770 0.47462 0.31702
 C121 C 0.61167 0.51723 0.17018
 C122 C 0.69215 0.43002 0.22943
 C123 C 0.69363 0.56309 0.26440
 C124 C 0.85829 0.51964 0.79623
 H125 H 0.84036 0.52324 0.79714
 C126 C 0.87233 0.52590 0.81751
 H127 H 0.86483 0.53427 0.83450
 C128 C 0.88951 0.50393 0.77330
 H129 H 0.89611 0.49472 0.75647
 C130 C 0.90422 0.51012 0.79391
 H131 H 0.92200 0.50576 0.79220
 N132 N 0.86705 0.50905 0.77455
 C133 C 0.86111 0.47287 0.70276
 H134 H 0.84728 0.46189 0.70872
 C135 C 0.87494 0.46619 0.68172
 H136 H 0.87158 0.45018 0.67152
 C137 C 0.88263 0.50690 0.70875
 H138 H 0.88556 0.52273 0.71944
 C139 C 0.89725 0.50056 0.68841
 H140 H 0.91127 0.51173 0.68329
 Zn141 Zn 0.84750 0.50127 0.74570
 N142 N 0.86520 0.49290 0.71587
 C143 C 0.83399 0.54019 0.71738
 N144 N 0.82913 0.52647 0.73802
 C145 C 0.81156 0.53103 0.75455
 C146 C 0.79902 0.55082 0.75173
 C147 C 0.82189 0.56018 0.71382
 C148 C 0.83446 0.46382 0.77609
 C149 C 0.82206 0.44416 0.78174
 C150 C 0.79731 0.45186 0.74477
 C151 C 0.81023 0.47137 0.73981
 N152 N 0.82866 0.47665 0.75509
 H153 H 0.84770 0.53609 0.70411
 H154 H 0.80762 0.51954 0.77039
 H155 H 0.78563 0.55448 0.76572
 H156 H 0.82661 0.57128 0.69785
 H157 H 0.84922 0.46837 0.78791
 H158 H 0.82743 0.43377 0.79803
 H159 H 0.78315 0.44755 0.73183
 H160 H 0.80605 0.48193 0.72323
 C161 C 0.89348 0.47996 0.67472
 C162 C 0.89574 0.52125 0.81655
 C163 C 0.80351 0.43767 0.76561
 C164 C 0.80456 0.56602 0.73158
 C165 C 0.22300 0.43894 1.00262
 H166 H 0.23781 0.44764 1.01072
 C167 C 0.20279 0.45084 0.99911
 H168 H 0.20227 0.46876 1.00426
 C169 C 0.20526 0.40481 0.98725
 H170 H 0.20632 0.38676 0.98317
 C171 C 0.18492 0.41608 0.98298
 H172 H 0.17033 0.40650 0.97560
 N173 N 0.22383 0.41636 0.99659
 C174 C 0.28812 0.41396 1.03324
 H175 H 0.28337 0.40084 1.04691
 C176 C 0.30832 0.42632 1.03727
 H177 H 0.31880 0.42272 1.05430
 C178 C 0.28104 0.43353 0.99353
 H179 H 0.27057 0.43576 0.97617
 C180 C 0.30094 0.44638 0.99689
 H181 H 0.30558 0.45852 0.98195
 Zn182 Zn 0.24993 0.39887 1.00280
 N183 N 0.27511 0.41763 1.01148
 C184 C 0.27399 0.36607 0.97303
 N185 N 0.25792 0.38248 0.97177
 C186 C 0.24877 0.38860 0.94826
 C187 C 0.25509 0.37751 0.92495
 C188 C 0.28049 0.35419 0.95020
 C189 C 0.23733 0.39002 1.05423
 C190 C 0.23137 0.37735 1.07623
 C191 C 0.23548 0.34307 1.04989
 C192 C 0.24134 0.35645 1.02832
 N193 N 0.24257 0.37947 1.03102
 H194 H 0.28168 0.36212 0.99183
 H195 H 0.23680 0.40235 0.94746
 H196 H 0.24736 0.38251 0.90651
 H197 H 0.29296 0.34087 0.95161
 H198 H 0.23797 0.40838 1.05565
 H199 H 0.22764 0.38618 1.09459
 H200 H 0.23493 0.32476 1.04745
 H201 H 0.24472 0.34840 1.00947
 C202 C 0.31513 0.44251 1.01870
 C203 C 0.18344 0.43936 0.98912
 C204 C 0.23061 0.35351 1.07434
 C205 C 0.27093 0.35987 0.92576
 C206 C 0.77718 0.05670 0.99732
 H207 H 0.76331 0.04750 1.00613
 C208 C 0.79741 0.04533 0.99183
 H209 H 0.79868 0.02756 0.99683
 C210 C 0.79248 0.09085 0.98042
 H211 H 0.79056 0.10869 0.97628
 C212 C 0.81275 0.08011 0.97406
 H213 H 0.82619 0.09008 0.96514
 N214 N 0.77540 0.07928 0.99244
 C215 C 0.70433 0.08824 0.99911
 H216 H 0.70493 0.10302 0.98681
 C217 C 0.68334 0.07819 1.00413
 H218 H 0.66820 0.08513 0.99519
 C219 C 0.72276 0.06205 1.02683
 H220 H 0.73795 0.05662 1.03688
 C221 C 0.70200 0.05101 1.03183
 H222 H 0.70143 0.03675 1.04507
 Zn223 Zn 0.75066 0.09735 1.00372
 N224 N 0.72362 0.08016 1.01035
 C225 C 0.74070 0.10845 0.95187
 N226 N 0.74407 0.11778 0.97631
 C227 C 0.74139 0.14042 0.98094
 C228 C 0.73500 0.15463 0.96040
 C229 C 0.73420 0.12198 0.93085
 C230 C 0.74885 0.10942 1.05790
 C231 C 0.75568 0.12060 1.08113
 C232 C 0.78432 0.14080 1.05644
 C233 C 0.77730 0.12880 1.03373
 N234 N 0.75972 0.11356 1.03480
 H235 H 0.74272 0.09035 0.94886
 H236 H 0.74376 0.14740 1.00063
 H237 H 0.73286 0.17260 0.96448
 H238 H 0.73161 0.11413 0.91158
 H239 H 0.73485 0.09743 1.05846
 H240 H 0.74669 0.11710 1.09927
 H241 H 0.79811 0.15309 1.05519
 H242 H 0.78568 0.13189 1.01517
 C243 C 0.68202 0.05939 1.02061
 C244 C 0.81584 0.05721 0.98068
 C245 C 0.77352 0.13662 1.08055
 C246 C 0.73121 0.14541 0.93496
 C247 C 0.27929 0.56206 0.48219
 H248 H 0.26348 0.55264 0.48269
 C249 C 0.29943 0.55060 0.47627
 H250 H 0.29899 0.53235 0.47315
 C251 C 0.29924 0.59723 0.48430
 H252 H 0.29912 0.61540 0.48753
 C253 C 0.31954 0.58661 0.47787
 H254 H 0.33494 0.59680 0.47657
 N255 N 0.27975 0.58488 0.48713
 C256 C 0.20876 0.59772 0.50592
 H257 H 0.20938 0.61525 0.49997
 C258 C 0.18788 0.58780 0.51187
 H259 H 0.17263 0.59778 0.50994
 C260 C 0.22791 0.56382 0.51630
 H261 H 0.24361 0.55493 0.51949
 C262 C 0.20718 0.55295 0.52185
 H263 H 0.20706 0.53549 0.52827
 Zn264 Zn 0.25469 0.60257 0.49840
 N265 N 0.22823 0.58560 0.50752
 C266 C 0.24606 0.61180 0.44569
 N267 N 0.24645 0.62160 0.47016
 C268 C 0.23951 0.64337 0.47413
 C269 C 0.23240 0.65635 0.45281
 C270 C 0.23902 0.62410 0.42386
 C271 C 0.26055 0.61009 0.55252
 C272 C 0.26732 0.62141 0.57568
 C273 C 0.28190 0.65217 0.54937
 C274 C 0.27505 0.64011 0.52665
 N275 N 0.26416 0.61967 0.52863
 H276 H 0.25116 0.59430 0.44317
 H277 H 0.23895 0.65054 0.49388
 H278 H 0.22704 0.67366 0.45638
 H279 H 0.23912 0.61597 0.40454
 H280 H 0.25236 0.59359 0.55361
 H281 H 0.26390 0.61356 0.59447
 H282 H 0.29015 0.66860 0.54740
 H283 H 0.27839 0.64715 0.50745
 C284 C 0.18684 0.56503 0.51947
 C285 C 0.31992 0.56294 0.47444
 C286 C 0.27788 0.64289 0.57433
 C287 C 0.23215 0.64674 0.42724
 C288 C 0.72571 0.93952 0.50076
 H289 H 0.74038 0.94773 0.50981
 C290 C 0.70547 0.95150 0.49810
 H291 H 0.70480 0.96904 0.50481
 C292 C 0.70822 0.90627 0.48253
 H293 H 0.70932 0.88844 0.47722
 C294 C 0.68786 0.91769 0.47902
 H295 H 0.67331 0.90849 0.47091
 N296 N 0.72665 0.91731 0.49300
 C297 C 0.78997 0.91414 0.53121
 H298 H 0.78503 0.90066 0.54433
 C299 C 0.80983 0.92672 0.53635
 H300 H 0.81990 0.92292 0.55365
 C301 C 0.78364 0.93451 0.49188
 H302 H 0.77354 0.93703 0.47428
 C303 C 0.80321 0.94761 0.49637
 H304 H 0.80805 0.96020 0.48201
 Zn305 Zn 0.75247 0.89955 0.49938
 N306 N 0.77748 0.91812 0.50913
 C307 C 0.75233 0.88978 0.44466
 N308 N 0.76092 0.88342 0.46835
 C309 C 0.77660 0.86665 0.46994
 C310 C 0.78310 0.85457 0.44727
 C311 C 0.75871 0.87851 0.42148
 C312 C 0.73876 0.89023 0.55031
 C313 C 0.73202 0.87735 0.57185
 C314 C 0.73598 0.84340 0.54489
 C315 C 0.74263 0.85698 0.52382
 N316 N 0.74431 0.87993 0.52706
 H317 H 0.74067 0.90379 0.44363
 H318 H 0.78385 0.86249 0.48890
 H319 H 0.79514 0.84088 0.44896
 H320 H 0.75135 0.88364 0.40290
 H321 H 0.73974 0.90856 0.55213
 H322 H 0.72808 0.88596 0.59028
 H323 H 0.73506 0.82514 0.54202
 H324 H 0.74621 0.84915 0.50490
 C325 C 0.81684 0.94349 0.51858
 C326 C 0.68622 0.94051 0.48719
 C327 C 0.73076 0.85356 0.56939
 C328 C 0.77400 0.86040 0.42265
 C329 C 0.01407 0.27664 0.42099
 H330 H 0.02802 0.26538 0.42507
 C331 C 0.01193 0.29692 0.43558
 H332 H 0.02421 0.30099 0.45098
 C333 C -0.01798 0.28571 0.39489
 H334 H -0.02931 0.28167 0.37859
 C335 C -0.02065 0.30614 0.40880
 H336 H -0.03425 0.31734 0.40316
 N337 N -0.00058 0.27160 0.40076
 C338 C 0.01519 0.20049 0.38143
 H339 H 0.01655 0.20167 0.36030
 C340 C 0.01854 0.17958 0.39326
 H341 H 0.02275 0.16517 0.38071
 C342 C 0.00710 0.21769 0.42279
 H343 H 0.00209 0.23247 0.43417
 C344 C 0.01007 0.19693 0.43552
 H345 H 0.00758 0.19623 0.45667
 Zn346 Zn 0.00417 0.24635 0.37732
 N347 N 0.00973 0.21911 0.39616
 C348 C 0.03390 0.23969 0.33327
 N349 N 0.02947 0.25295 0.35490
 C350 C 0.04363 0.27053 0.36181
 C351 C 0.06369 0.27442 0.34793
 C352 C 0.05381 0.24306 0.31868
 C353 C -0.04065 0.23288 0.37125
 C354 C -0.06195 0.23011 0.35940
 C355 C -0.04636 0.24481 0.31896
 C356 C -0.02523 0.24733 0.33167
 N357 N -0.02287 0.24151 0.35744
 H358 H 0.02213 0.22630 0.32738
 H359 H 0.03980 0.28127 0.37860
 H360 H 0.07495 0.28811 0.35444
 H361 H 0.05730 0.23189 0.30205
 H362 H -0.03834 0.22857 0.39176
 H363 H -0.07587 0.22351 0.37105
 H364 H -0.04806 0.24995 0.29862
 H365 H -0.01096 0.25454 0.32119
 C366 C 0.01579 0.17737 0.42070
 C367 C -0.00530 0.31224 0.42908
 C368 C -0.06516 0.23637 0.33300
 C369 C 0.06933 0.26025 0.32643
 C370 C 0.00900 0.72160 0.08133
 H371 H 0.02335 0.73295 0.07845
 C372 C 0.00684 0.70175 0.06586
 H373 H 0.01956 0.69812 0.05104
 C374 C -0.02436 0.71210 0.10493
 H375 H -0.03627 0.71585 0.12054
 C376 C -0.02716 0.69211 0.08997
 H377 H -0.04138 0.68092 0.09422
 N378 N -0.00632 0.72625 0.10072
 C379 C 0.00789 0.79827 0.11946
 H380 H 0.00894 0.79768 0.14069
 C381 C 0.01099 0.81903 0.10697
 H382 H 0.01466 0.83404 0.11894
 C383 C 0.00076 0.77970 0.07845
 H384 H -0.00378 0.76446 0.06739
 C385 C 0.00351 0.80025 0.06510
 H386 H 0.00138 0.80043 0.04386
 Zn387 Zn -0.00183 0.75163 0.12438
 N388 N 0.00312 0.77902 0.10520
 C389 C 0.02880 0.76008 0.16780
 N390 N 0.02392 0.74606 0.14682
 C391 C 0.03789 0.72850 0.14057
 C392 C 0.05819 0.72542 0.15441
 C393 C 0.04891 0.75750 0.18235
 C394 C -0.04690 0.76338 0.13037
 C395 C -0.06808 0.76593 0.14227
 C396 C -0.05197 0.75251 0.18304
 C397 C -0.03098 0.75024 0.17023
 N398 N -0.02892 0.75554 0.14429
 H399 H 0.01722 0.77346 0.17321
 H400 H 0.03371 0.71707 0.12440
 H401 H 0.06924 0.71169 0.14847
 H402 H 0.05271 0.76925 0.19848
 H403 H -0.04483 0.76738 0.10974
 H404 H -0.08195 0.77202 0.13024
 H405 H -0.05312 0.74787 0.20361
 H406 H -0.01650 0.74380 0.18088
 C407 C 0.00874 0.82030 0.07941
 C408 C -0.01122 0.68645 0.07043
 C409 C -0.07114 0.76025 0.16902
 C410 C 0.06422 0.74033 0.17526
 C411 C 0.51172 0.22081 0.58337
 H412 H 0.52651 0.23177 0.58149
 C413 C 0.50990 0.20090 0.56798
 H414 H 0.52333 0.19684 0.55419
 C415 C 0.47685 0.21236 0.60447
 H416 H 0.46419 0.21653 0.61910
 C417 C 0.47435 0.19234 0.58950
 H418 H 0.45961 0.18156 0.59275
 N419 N 0.49546 0.22603 0.60148
 C420 C 0.50577 0.29869 0.61978
 H421 H 0.50455 0.29843 0.64100
 C422 C 0.50840 0.31948 0.60724
 H423 H 0.50964 0.33484 0.61923
 C424 C 0.50419 0.27921 0.57860
 H425 H 0.50200 0.26358 0.56740
 C426 C 0.50663 0.29976 0.56516
 H427 H 0.50662 0.29956 0.54378
 Zn428 Zn 0.49930 0.25166 0.62492
 N429 N 0.50401 0.27898 0.60551
 C430 C 0.52990 0.26171 0.66786
 N431 N 0.52472 0.24656 0.64805
 C432 C 0.53784 0.22792 0.64394
 C433 C 0.55756 0.22470 0.65886
 C434 C 0.54944 0.25908 0.68336
 C435 C 0.45392 0.26288 0.63050
 C436 C 0.43281 0.26548 0.64254
 C437 C 0.44926 0.25291 0.68349
 C438 C 0.47019 0.25057 0.67059
 N439 N 0.47205 0.25541 0.64449
 H440 H 0.51894 0.27595 0.67170
 H441 H 0.53333 0.21559 0.62879
 H442 H 0.56794 0.21001 0.65465
 H443 H 0.55342 0.27166 0.69856
 H444 H 0.45585 0.26657 0.60976
 H445 H 0.41865 0.27123 0.63076
 H446 H 0.44801 0.24869 0.70417
 H447 H 0.48480 0.24451 0.68132
 C448 C 0.50882 0.32029 0.57954
 C449 C 0.49119 0.18613 0.57126
 C450 C 0.43014 0.26030 0.66936
 C451 C 0.56387 0.24061 0.67858
 C452 C 0.51186 0.77790 0.91834
 H453 H 0.52592 0.76681 0.92255
 C454 C 0.50934 0.79813 0.93295
 H455 H 0.52145 0.80234 0.94849
 C456 C 0.47980 0.78654 0.89204
 H457 H 0.46857 0.78234 0.87571
 C458 C 0.47680 0.80693 0.90591
 H459 H 0.46306 0.81794 0.90019
 N460 N 0.49731 0.77260 0.89809
 C461 C 0.51208 0.70099 0.87982
 H462 H 0.51310 0.70191 0.85864
 C463 C 0.51530 0.68016 0.89190
 H464 H 0.51908 0.66547 0.87962
 C465 C 0.50489 0.71877 0.92112
 H466 H 0.50033 0.73374 0.93241
 C467 C 0.50768 0.69806 0.93406
 H468 H 0.50553 0.69744 0.95526
 Zn469 Zn 0.50200 0.74702 0.87510
 N470 N 0.50719 0.71988 0.89440
 C471 C 0.53159 0.73953 0.83117
 N472 N 0.52745 0.75310 0.85262
 C473 C 0.54182 0.77064 0.85907
 C474 C 0.56170 0.77432 0.84470
 C475 C 0.55130 0.74264 0.81618
 C476 C 0.45712 0.73359 0.86886
 C477 C 0.43580 0.73099 0.85700
 C478 C 0.45145 0.74590 0.81670
 C479 C 0.47260 0.74821 0.82941
 N480 N 0.47495 0.74221 0.85512
 H481 H 0.51968 0.72616 0.82567
 H482 H 0.53826 0.78157 0.87579
 H483 H 0.57308 0.78806 0.85075
 H484 H 0.55447 0.73128 0.79962
 H485 H 0.45939 0.72918 0.88935
 H486 H 0.42186 0.72437 0.86859
 H487 H 0.44976 0.75118 0.79641
 H488 H 0.48690 0.75542 0.81898
 C489 C 0.51299 0.67838 0.91937
 C490 C 0.49188 0.81319 0.92639
 C491 C 0.43260 0.73745 0.83066
 C492 C 0.56695 0.75993 0.82324
 C493 C -0.23999 0.63908 0.97561
 H494 H -0.24317 0.64601 0.99509
 C495 C -0.23282 0.65355 0.95563
 H496 H -0.23120 0.67159 0.95987
 C497 C -0.23729 0.60716 0.94677
 H498 H -0.23892 0.58899 0.94361
 C499 C -0.22999 0.62097 0.92625
 H500 H -0.22633 0.61326 0.90721
 N501 N -0.24268 0.61642 0.97066
 C502 C -0.25618 0.60390 1.05192
 H503 H -0.24556 0.58911 1.05356
 C504 C -0.26351 0.61513 1.07475
 H505 H -0.25793 0.60893 1.09370
 C506 C -0.27671 0.62922 1.02517
 H507 H -0.28220 0.63425 1.00573
 C508 C -0.28388 0.64143 1.04743
 H509 H -0.29463 0.65604 1.04473
 Zn510 Zn -0.25199 0.59599 0.99709
 N511 N -0.26232 0.61146 1.02773
 C512 C -0.20893 0.58965 1.01788
 N513 N -0.22621 0.57864 1.00497
 C514 C -0.22394 0.55697 0.99571
 C515 C -0.20342 0.54560 0.99909
 C516 C -0.18832 0.57883 1.02209
 C517 C -0.28860 0.58231 0.96339
 C518 C -0.30831 0.56983 0.95712
 C519 C -0.30173 0.54675 0.99541
 C520 C -0.28235 0.55982 1.00111
 N521 N -0.27625 0.57724 0.98524
 H522 H -0.21105 0.60709 1.02441
 H523 H -0.23768 0.54881 0.98478
 H524 H -0.20166 0.52856 0.99104
 H525 H -0.17466 0.58810 1.03200
 H526 H -0.28378 0.59664 0.95147
 H527 H -0.31835 0.57455 0.94014
 H528 H -0.30657 0.53334 1.00875
 H529 H -0.27245 0.55650 1.01865
 C530 C -0.27702 0.63465 1.07274
 C531 C -0.22799 0.64457 0.93043
 C532 C -0.31529 0.55202 0.97350
 C533 C -0.18523 0.55666 1.01221
 C534 C -0.24314 0.35912 0.53000
 H535 H -0.24529 0.35160 0.51052
 C536 C -0.23792 0.34598 0.55044
 H537 H -0.23615 0.32786 0.54717
 C538 C -0.24253 0.39281 0.55690
 H539 H -0.24390 0.41105 0.55908
 C540 C -0.23669 0.37907 0.57994
 H541 H -0.23446 0.38771 0.59883
 N542 N -0.24539 0.38325 0.53377
 C543 C -0.24720 0.38940 0.45160
 H544 H -0.23304 0.40121 0.45112
 C545 C -0.25358 0.37768 0.42855
 H546 H -0.24409 0.38054 0.41061
 C547 C -0.27658 0.37112 0.47544
 H548 H -0.28553 0.36872 0.49379
 C549 C -0.28321 0.35862 0.45294
 H550 H -0.29726 0.34662 0.45412
 Zn551 Zn -0.25046 0.40301 0.50524
 N552 N -0.25873 0.38604 0.47445
 C553 C -0.22049 0.43707 0.48246
 N554 N -0.22268 0.41939 0.49941
 C555 C -0.20413 0.41086 0.51181
 C556 C -0.18260 0.41996 0.50754
 C557 C -0.19911 0.44711 0.47805
 C558 C -0.29260 0.41062 0.52699
 C559 C -0.31315 0.42139 0.53181
 C560 C -0.29790 0.45515 0.51156
 C561 C -0.27742 0.44376 0.50751
 N562 N -0.27539 0.42165 0.51452
 H563 H -0.23507 0.44287 0.47153
 H564 H -0.20570 0.39635 0.52442
 H565 H -0.16815 0.41261 0.51747
 H566 H -0.19750 0.46097 0.46435
 H567 H -0.29062 0.39309 0.53254
 H568 H -0.32665 0.41179 0.54115
 H569 H -0.29933 0.47248 0.50491
 H570 H -0.26357 0.45247 0.49801
 C571 C -0.27171 0.36197 0.42908
 C572 C -0.23435 0.35639 0.57716
 C573 C -0.31641 0.44374 0.52322
 C574 C -0.17985 0.43822 0.49045
 C575 C 0.25692 -0.13985 0.02557
 H576 H 0.25349 -0.14805 0.00671
 C577 C 0.26380 -0.15227 0.04595
 H578 H 0.26544 -0.17047 0.04327
 C579 C 0.26019 -0.10522 0.05051
 H580 H 0.25913 -0.08690 0.05192
 C581 C 0.26751 -0.11821 0.07363
 H582 H 0.27113 -0.10896 0.09185
 N583 N 0.25472 -0.11563 0.02849
 C584 C 0.24354 -0.10848 -0.05400
 H585 H 0.25514 -0.09426 -0.05622
 C586 C 0.23593 -0.12049 -0.07632
 H587 H 0.24227 -0.11572 -0.09552
 C588 C 0.22078 -0.13151 -0.02639
 H589 H 0.21462 -0.13535 -0.00685
 C590 C 0.21311 -0.14437 -0.04819
 H591 H 0.20127 -0.15833 -0.04528
 Zn592 Zn 0.24648 -0.09708 -0.00005
 N593 N 0.23628 -0.11443 -0.02959
 C594 C 0.29028 -0.09353 -0.01838
 N595 N 0.27301 -0.08071 -0.00887
 C596 C 0.27568 -0.05799 -0.00432
 C597 C 0.29661 -0.04736 -0.00921
 C598 C 0.31132 -0.08362 -0.02380
 C599 C 0.20955 -0.08171 0.03088
 C600 C 0.18961 -0.06957 0.03514
 C601 C 0.19719 -0.04869 -0.00468
 C602 C 0.21677 -0.06147 -0.00833
 N603 N 0.22247 -0.07768 0.00923
 H604 H 0.28774 -0.11163 -0.02138
 H605 H 0.26187 -0.04824 0.00390
 H606 H 0.29863 -0.02936 -0.00496
 H607 H 0.32488 -0.09432 -0.03100
 H608 H 0.21405 -0.09514 0.04417
 H609 H 0.17924 -0.07367 0.05207
 H610 H 0.19286 -0.03629 -0.01940
 H611 H 0.22707 -0.05903 -0.02573
 C612 C 0.22082 -0.13893 -0.07353
 C613 C 0.26910 -0.14102 0.07183
 C614 C 0.18283 -0.05311 0.01688
 C615 C 0.31483 -0.06030 -0.01885
 C616 C 0.25954 1.13957 0.47878
 H617 H 0.25521 1.14614 0.49812
 C618 C 0.26697 1.15455 0.45943
 H619 H 0.26768 1.17258 0.46400
 C620 C 0.26477 1.10813 0.44975
 H621 H 0.26409 1.08994 0.44631
 C622 C 0.27238 1.12247 0.42986
 H623 H 0.27721 1.11514 0.41100
 N624 N 0.25817 1.11687 0.47347
 C625 C 0.24690 1.10538 0.55450
 H626 H 0.25932 1.09211 0.55635
 C627 C 0.23921 1.11671 0.57710
 H628 H 0.24628 1.11239 0.59612
 C629 C 0.22230 1.12680 0.52761
 H630 H 0.21562 1.13040 0.50820
 C631 C 0.21448 1.13890 0.54964
 H632 H 0.20190 1.15198 0.54705
 Zn633 Zn 0.24940 1.09588 0.49954
 N634 N 0.23881 1.11098 0.53030
 C635 C 0.29315 1.09048 0.51874
 N636 N 0.27558 1.07896 0.50699
 C637 C 0.27777 1.05704 0.49857
 C638 C 0.29845 1.04590 0.50174
 C639 C 0.31391 1.07990 0.52276
 C640 C 0.21321 1.08144 0.46553
 C641 C 0.19350 1.06888 0.45945
 C642 C 0.19984 1.04655 0.49840
 C643 C 0.21921 1.05969 0.50389
 N644 N 0.22540 1.07682 0.48764
 H645 H 0.29110 1.10811 0.52456
 H646 H 0.26381 1.04845 0.48850
 H647 H 0.30012 1.02861 0.49442
 H648 H 0.32777 1.08953 0.53181
 H649 H 0.21815 1.09551 0.45326
 H650 H 0.18356 1.07328 0.44227
 H651 H 0.19491 1.03343 0.51207
 H652 H 0.22900 1.05672 0.52162
 C653 C 0.22316 1.13405 0.57474
 C654 C 0.27337 1.14606 0.43450
 C655 C 0.18637 1.05144 0.47629
 C656 C 0.31687 1.05744 0.51382
 C657 C 0.18683 0.47701 0.27155
 H658 H 0.19253 0.49233 0.28173
 C659 C 0.19809 0.45653 0.27595
 H660 H 0.21268 0.45627 0.28906
 C661 C 0.16007 0.45808 0.24358
 H662 H 0.14498 0.45837 0.23142
 C663 C 0.17039 0.43739 0.24788
 H664 H 0.16331 0.42220 0.23851
 N665 N 0.16833 0.47747 0.25522
 C666 C 0.15772 0.54669 0.22801
 H667 H 0.13954 0.54528 0.22513
 C668 C 0.16896 0.56682 0.22178
 H669 H 0.15916 0.58092 0.21457
 C670 C 0.19239 0.52999 0.24103
 H671 H 0.20156 0.51558 0.24814
 C672 C 0.20431 0.55005 0.23553
 H673 H 0.22250 0.55091 0.23889
 Zn674 Zn 0.15112 0.50408 0.24870
 N675 N 0.16936 0.52899 0.23814
 C676 C 0.13977 0.50255 0.30276
 N677 N 0.13485 0.51271 0.27953
 C678 C 0.11876 0.52913 0.27821
 C679 C 0.10658 0.53553 0.30072
 C680 C 0.12844 0.50883 0.32582
 C681 C 0.14050 0.49387 0.19654
 C682 C 0.12722 0.48740 0.17479
 C683 C 0.09402 0.48830 0.20279
 C684 C 0.10808 0.49446 0.22411
 N685 N 0.13083 0.49720 0.22056
 H686 H 0.15248 0.48951 0.30355
 H687 H 0.11498 0.53695 0.25958
 H688 H 0.09356 0.54832 0.29925
 H689 H 0.13251 0.50037 0.34405
 H690 H 0.15871 0.49592 0.19442
 H691 H 0.13563 0.48485 0.15601
 H692 H 0.07594 0.48632 0.20629
 H693 H 0.10082 0.49665 0.24352
 C694 C 0.19246 0.56891 0.22628
 C695 C 0.18960 0.43642 0.26421
 C696 C 0.10349 0.48460 0.17753
 C697 C 0.11148 0.52537 0.32491
 C698 C -0.18931 1.02554 0.27085
 H699 H -0.19531 1.00995 0.27956
 C700 C -0.20023 1.04603 0.27694
 H701 H -0.21491 1.04603 0.28977
 C702 C -0.16210 1.04510 0.24505
 H703 H -0.14700 1.04499 0.23304
 C704 C -0.17201 1.06582 0.25123
 H705 H -0.16464 1.08128 0.24345
 N706 N -0.17074 1.02539 0.25479
 C707 C -0.15965 0.95575 0.22528
 H708 H -0.14152 0.95745 0.22247
 C709 C -0.17049 0.93520 0.21895
 H710 H -0.16038 0.92118 0.21171
 C711 C -0.19460 0.97204 0.23810
 H712 H -0.20405 0.98645 0.24521
 C713 C -0.20614 0.95159 0.23240
 H714 H -0.22431 0.95047 0.23557
 Zn715 Zn -0.15351 0.99887 0.24655
 N716 N -0.17159 0.97347 0.23541
 C717 C -0.11947 0.97477 0.27404
 N718 N -0.13633 0.99030 0.27668
 C719 C -0.14151 0.99942 0.30072
 C720 C -0.12961 0.99297 0.32325
 C721 C -0.10682 0.96818 0.29600
 C722 C -0.14397 1.00870 0.19429
 C723 C -0.13115 1.01537 0.17258
 C724 C -0.09779 1.01699 0.20064
 C725 C -0.11132 1.01038 0.22186
 N726 N -0.13394 1.00626 0.21827
 H727 H -0.11548 0.96777 0.25480
 H728 H -0.15492 1.01169 0.30257
 H729 H -0.13395 1.00057 0.34214
 H730 H -0.09326 0.95606 0.29344
 H731 H -0.16206 1.00564 0.19213
 H732 H -0.13970 1.01710 0.15374
 H733 H -0.07981 1.02008 0.20405
 H734 H -0.10381 1.00898 0.24127
 C735 C -0.19393 0.93267 0.22326
 C736 C -0.19128 1.06645 0.26729
 C737 C -0.10764 1.01959 0.17545
 C738 C -0.11191 0.97727 0.32102
 C739 C 0.31063 0.52607 -0.23442
 H740 H 0.30525 0.51069 -0.22474
 C741 C 0.29969 0.54656 -0.22848
 H742 H 0.28563 0.54678 -0.21475
 C743 C 0.33635 0.54515 -0.26260
 H744 H 0.35087 0.54489 -0.27552
 C745 C 0.32640 0.56589 -0.25667
 H746 H 0.33317 0.58119 -0.26548
 N747 N 0.32851 0.52568 -0.25149
 C748 C 0.33992 0.45516 -0.28168
 H749 H 0.35776 0.45731 -0.28617
 C750 C 0.32949 0.43535 -0.28708
 H751 H 0.33925 0.42165 -0.29570
 C752 C 0.30571 0.47218 -0.26638
 H753 H 0.29649 0.48635 -0.25831
 C754 C 0.29353 0.45040 -0.27143
 H755 H 0.27567 0.44925 -0.26642
 Zn756 Zn 0.34576 0.49913 -0.25945
 N757 N 0.32759 0.47371 -0.27010
 C758 C 0.37946 0.47473 -0.23205
 N759 N 0.36308 0.49077 -0.22941
 C760 C 0.35860 0.50052 -0.20550
 C761 C 0.37062 0.49410 -0.18307
 C762 C 0.39228 0.46819 -0.21020
 C763 C 0.35551 0.50793 -0.31204
 C764 C 0.36840 0.51468 -0.33365
 C765 C 0.40135 0.51779 -0.30506
 C766 C 0.38778 0.51103 -0.28393
 N767 N 0.36532 0.50621 -0.28782
 H768 H 0.38286 0.46725 -0.25122
 H769 H 0.34564 0.51326 -0.20367
 H770 H 0.36681 0.50215 -0.16426
 H771 H 0.40544 0.45562 -0.21272
 H772 H 0.33754 0.50431 -0.31445
 H773 H 0.36019 0.51590 -0.35274
 H774 H 0.41919 0.52155 -0.30158
 H775 H 0.39509 0.51010 -0.26437
 C776 C 0.30503 0.43223 -0.28058
 C777 C 0.30791 0.56677 -0.23944
 C778 C 0.39166 0.51976 -0.33034
 C779 C 0.38780 0.47783 -0.18529
 C780 C 0.69147 -0.02685 -0.24481
 H781 H 0.69957 -0.01286 -0.25484
 C782 C 0.70245 -0.04650 -0.24216
 H783 H 0.71953 -0.04803 -0.24984
 C784 C 0.65824 -0.04126 -0.22358
 H785 H 0.64072 -0.03945 -0.21757
 C786 C 0.66990 -0.06287 -0.21935
 H787 H 0.66056 -0.07631 -0.20965
 N788 N 0.66862 -0.02459 -0.23522
 C789 C 0.66539 0.03814 -0.27411
 H790 H 0.65162 0.03317 -0.28725
 C791 C 0.67746 0.05830 -0.27851
 H792 H 0.67289 0.06843 -0.29535
 C793 C 0.68678 0.03170 -0.23522
 H794 H 0.68976 0.02154 -0.21796
 C795 C 0.69945 0.05153 -0.23899
 H796 H 0.71234 0.05620 -0.22450
 Zn797 Zn 0.65120 0.00116 -0.24263
 N798 N 0.66999 0.02557 -0.25249
 C799 C 0.64206 0.00397 -0.18798
 N800 N 0.63536 0.01110 -0.21218
 C801 C 0.61838 0.02643 -0.21480
 C802 C 0.60616 0.03375 -0.19271
 C803 C 0.63066 0.01123 -0.16535
 C804 C 0.64099 -0.01337 -0.29376
 C805 C 0.62758 -0.02022 -0.31531
 C806 C 0.59423 -0.01607 -0.28802
 C807 C 0.60831 -0.00938 -0.26695
 N808 N 0.63119 -0.00762 -0.27036
 H809 H 0.65635 -0.00728 -0.18614
 H810 H 0.61405 0.03264 -0.23415
 H811 H 0.59218 0.04535 -0.19524
 H812 H 0.63594 0.00490 -0.14635
 H813 H 0.65929 -0.01237 -0.29571
 H814 H 0.63575 -0.02420 -0.33390
 H815 H 0.57603 -0.01699 -0.28502
 H816 H 0.60090 -0.00576 -0.24791
 C817 C 0.69439 0.06562 -0.26040
 C818 C 0.69106 -0.06590 -0.22884
 C819 C 0.60382 -0.02133 -0.31271
 C820 C 0.61214 0.02592 -0.16763
 C821 C 0.02854 0.25927 0.83259
 H822 H 0.01717 0.27302 0.82810
 C823 C 0.04861 0.25662 0.81810
 H824 H 0.05240 0.26833 0.80240
 C825 C 0.03799 0.22812 0.85939
 H826 H 0.03412 0.21730 0.87586
 C827 C 0.05825 0.22499 0.84560
 H828 H 0.06954 0.21157 0.85154
 N829 N 0.02373 0.24526 0.85304
 C830 C -0.04752 0.26198 0.87001
 H831 H -0.04638 0.26419 0.89113
 C832 C -0.06829 0.26546 0.85742
 H833 H -0.08274 0.27050 0.86923
 C834 C -0.03036 0.25185 0.82941
 H835 H -0.01566 0.24608 0.81860
 C836 C -0.05101 0.25490 0.81597
 H837 H -0.05184 0.25171 0.79488
 Zn838 Zn -0.00168 0.25049 0.87575
 N839 N -0.02895 0.25551 0.85601
 C840 C -0.00852 0.28094 0.91955
 N841 N 0.00462 0.27649 0.89803
 C842 C 0.02166 0.29105 0.89115
 C843 C 0.02522 0.31143 0.90515
 C844 C -0.00549 0.30115 0.93420
 C845 C -0.01584 0.20594 0.88265
 C846 C -0.01891 0.18512 0.89500
 C847 C -0.00274 0.20162 0.93492
 C848 C -0.00000 0.22225 0.92174
 N849 N -0.00648 0.22396 0.89600
 H850 H -0.02157 0.26895 0.92529
 H851 H 0.03222 0.28728 0.87434
 H852 H 0.03852 0.32294 0.89873
 H853 H -0.01653 0.30456 0.95080
 H854 H -0.02061 0.20767 0.86213
 H855 H -0.02618 0.17103 0.88372
 H856 H 0.00283 0.20046 0.95525
 H857 H 0.00782 0.23665 0.93186
 C858 C -0.07034 0.26187 0.83004
 C859 C 0.06402 0.23956 0.82491
 C860 C -0.01213 0.18262 0.92144
 C861 C 0.01124 0.31698 0.92666
 C862 C 0.47006 0.26747 0.16590
 H863 H 0.48065 0.28264 0.16620
 C864 C 0.45081 0.26635 0.18203
 H865 H 0.44689 0.28069 0.19479
 C866 C 0.46189 0.23081 0.14817
 H867 H 0.46590 0.21712 0.13459
 C868 C 0.44256 0.22896 0.16394
 H869 H 0.43212 0.21371 0.16231
 N870 N 0.47519 0.24989 0.14926
 C871 C 0.54761 0.25475 0.13040
 H872 H 0.54665 0.25066 0.10958
 C873 C 0.56887 0.25692 0.14249
 H874 H 0.58393 0.25513 0.13045
 C875 C 0.52916 0.26016 0.17140
 H876 H 0.51368 0.26092 0.18274
 C877 C 0.55020 0.26218 0.18444
 H878 H 0.55060 0.26473 0.20565
 Zn879 Zn 0.50039 0.25229 0.12567
 N880 N 0.52823 0.25679 0.14473
 C881 C 0.51213 0.28301 0.08464
 N882 N 0.49559 0.27692 0.10198
 C883 C 0.47578 0.28863 0.10327
 C884 C 0.47254 0.30783 0.08783
 C885 C 0.50960 0.30209 0.06882
 C886 C 0.51045 0.20659 0.12107
 C887 C 0.51284 0.18521 0.10928
 C888 C 0.50065 0.20087 0.06781
 C889 C 0.49853 0.22210 0.08047
 N890 N 0.50325 0.22445 0.10671
 H891 H 0.52753 0.27337 0.08322
 H892 H 0.46247 0.28330 0.11649
 H893 H 0.45681 0.31708 0.08963
 H894 H 0.52333 0.30695 0.05583
 H895 H 0.51416 0.20897 0.14188
 H896 H 0.51841 0.17127 0.12132
 H897 H 0.49655 0.19921 0.04700
 H898 H 0.49286 0.23658 0.06945
 C899 C 0.57044 0.26065 0.16990
 C900 C 0.43660 0.24696 0.18098
 C901 C 0.50778 0.18202 0.08232
 C902 C 0.48977 0.31507 0.07066
 C903 C -0.03295 0.76314 0.66972
 H904 H -0.02173 0.77766 0.67277
 C905 C -0.05167 0.76088 0.68451
 H906 H -0.05525 0.77366 0.69948
 C907 C -0.04093 0.72883 0.64559
 H908 H -0.03721 0.71674 0.62999
 C909 C -0.06169 0.72559 0.66141
 H910 H -0.07238 0.71090 0.65697
 N911 N -0.02788 0.74664 0.64936
 C912 C 0.04380 0.75987 0.63065
 H913 H 0.04275 0.76019 0.60942
 C914 C 0.06498 0.76234 0.64291
 H915 H 0.07984 0.76488 0.63071
 C916 C 0.02589 0.75494 0.67195
 H917 H 0.01072 0.75143 0.68319
 C918 C 0.04686 0.75722 0.68509
 H919 H 0.04747 0.75577 0.70636
 Zn920 Zn -0.00290 0.75119 0.62590
 N921 N 0.02472 0.75634 0.64515
 C922 C 0.00485 0.78056 0.58244
 N923 N -0.00870 0.77656 0.60366
 C924 C -0.02579 0.79102 0.61002
 C925 C -0.02892 0.81093 0.59587
 C926 C 0.00219 0.80022 0.56759
 C927 C 0.01022 0.70666 0.61900
 C928 C 0.01344 0.68568 0.60656
 C929 C -0.00220 0.70094 0.56646
 C930 C -0.00510 0.72178 0.57975
 N931 N 0.00108 0.72418 0.60560
 H932 H 0.01788 0.76860 0.57704
 H933 H -0.03677 0.78752 0.62648
 H934 H -0.04225 0.82244 0.60184
 H935 H 0.01355 0.80330 0.55123
 H936 H 0.01484 0.70898 0.63957
 H937 H 0.02060 0.67202 0.61787
 H938 H -0.00743 0.69922 0.54600
 H939 H -0.01264 0.73586 0.56957
 C940 C 0.06681 0.76087 0.67049
 C941 C -0.06744 0.74121 0.67990
 C942 C 0.00709 0.68248 0.57996
 C943 C -0.01455 0.81600 0.57464
 C944 C 0.53014 0.76203 0.33307
 H945 H 0.51918 0.77624 0.32923
 C946 C 0.55021 0.75937 0.31856
 H947 H 0.55443 0.77158 0.30353
 C948 C 0.53852 0.72953 0.35813
 H949 H 0.53425 0.71812 0.37391
 C950 C 0.55875 0.72636 0.34431
 H951 H 0.56957 0.71235 0.34952
 N952 N 0.52476 0.74729 0.35263
 C953 C 0.45272 0.76135 0.36910
 H954 H 0.45335 0.76191 0.39036
 C955 C 0.43200 0.76477 0.35636
 H956 H 0.41711 0.76819 0.36820
 C957 C 0.47104 0.75512 0.32819
 H958 H 0.48619 0.75088 0.31727
 C959 C 0.45049 0.75820 0.31456
 H960 H 0.45017 0.75660 0.29324
 Zn961 Zn 0.49901 0.75192 0.37506
 N962 N 0.47184 0.75690 0.35505
 C963 C 0.49076 0.78168 0.41905
 N964 N 0.50476 0.77751 0.39821
 C965 C 0.52240 0.79190 0.39293
 C966 C 0.52578 0.81181 0.40793
 C967 C 0.49350 0.80143 0.43455
 C968 C 0.48581 0.70691 0.38049
 C969 C 0.48320 0.68576 0.39220
 C970 C 0.49788 0.70201 0.43301
 C971 C 0.50019 0.72297 0.42045
 N972 N 0.49430 0.72495 0.39457
 H973 H 0.47734 0.76974 0.42371
 H974 H 0.53366 0.78832 0.37668
 H975 H 0.53961 0.82320 0.40281
 H976 H 0.48181 0.80457 0.45062
 H977 H 0.48147 0.70889 0.35988
 H978 H 0.47666 0.67165 0.38036
 H979 H 0.50307 0.70063 0.45345
 H980 H 0.50729 0.73744 0.43118
 C981 C 0.43060 0.76319 0.32871
 C982 C 0.56503 0.74154 0.32443
 C983 C 0.48951 0.68295 0.41874
 C984 C 0.51095 0.81706 0.42877
 B985 B -0.01460 0.01447 1.02047
 B986 B -0.02691 0.00550 0.99221
 B987 B -0.00701 0.02620 0.99190
 B988 B 0.01304 0.02060 1.01469
 B989 B 0.00523 -0.00432 1.02919
 B990 B -0.01983 -0.01355 1.01529
 B991 B 0.01234 -0.01304 0.97674
 B992 B 0.02471 -0.00402 1.00500
 B993 B 0.00486 -0.02474 1.00534
 B994 B -0.01527 -0.01916 0.98254
 B995 B -0.00745 0.00577 0.96805
 B996 B 0.01759 0.01497 0.98191
 B997 B 0.48712 0.51441 0.51561
 B998 B 0.47576 0.50546 0.48682
 B999 B 0.49622 0.52563 0.48738
 B1000 B 0.51514 0.51975 0.51135
 B1001 B 0.50602 0.49523 0.52569
 B1002 B 0.48133 0.48650 0.51053
 B1003 B 0.51513 0.48572 0.47389
 B1004 B 0.52650 0.49470 0.50265
 B1005 B 0.50606 0.47452 0.50218
 B1006 B 0.48711 0.48038 0.47816
 B1007 B 0.49624 0.50496 0.46380
 B1008 B 0.52091 0.51366 0.47896
 B1009 B 0.51428 0.98931 0.52635
 B1010 B 0.52844 0.99499 0.49848
 B1011 B 0.50800 0.97477 0.49859
 B1012 B 0.48689 0.98329 0.51880
 B1013 B 0.49465 1.00948 0.53122
 B1014 B 0.52068 1.01649 0.51872
 B1015 B 0.49069 1.01260 0.47767
 B1016 B 0.47651 1.00694 0.50549
 B1017 B 0.49696 1.02715 0.50539
 B1018 B 0.51806 1.01861 0.48520
 B1019 B 0.51030 0.99245 0.47282
 B1020 B 0.48430 0.98542 0.48530
 B1021 B 0.01292 0.49012 1.02054
 B1022 B 0.02659 0.49675 0.99265
 B1023 B 0.00642 0.47628 0.99236
 B1024 B -0.01447 0.48389 1.01331
 B1025 B -0.00690 0.50983 1.02658
 B1026 B 0.01883 0.51759 1.01384
 B1027 B -0.01170 0.51443 0.97328
 B1028 B -0.02538 0.50775 1.00116
 B1029 B -0.00523 0.52827 1.00143
 B1030 B 0.01572 0.52064 0.98051
 B1031 B 0.00815 0.49475 0.96725
 B1032 B -0.01759 0.48694 0.97996
 B1033 B 0.01846 0.51223 0.48078
 B1034 B 0.02999 0.50538 0.50986
 B1035 B 0.00886 0.52434 0.50861
 B1036 B -0.00973 0.51620 0.48473
 B1037 B 0.00024 0.49144 0.47121
 B1038 B 0.02514 0.48493 0.48678
 B1039 B -0.00872 0.48419 0.52334
 B1040 B -0.02031 0.49101 0.49425
 B1041 B 0.00083 0.47206 0.49549
 B1042 B 0.01942 0.48022 0.51934
 B1043 B 0.00947 0.50495 0.53281
 B1044 B -0.01544 0.51143 0.51730
 B1045 B 0.51415 0.01159 -0.01626
 B1046 B 0.52459 0.00377 0.01302
 B1047 B 0.50423 0.02349 0.01150
 B1048 B 0.48606 0.01648 -0.01322
 B1049 B 0.49550 -0.00836 -0.02708
 B1050 B 0.51970 -0.01604 -0.01079
 B1051 B 0.48482 -0.01632 0.02443
 B1052 B 0.47432 -0.00849 -0.00480
 B1053 B 0.49469 -0.02824 -0.00335
 B1054 B 0.51290 -0.02119 0.02139
 B1055 B 0.50345 0.00360 0.03519
 B1056 B 0.47930 0.01131 0.01897
 B1057 B 0.48500 0.48304 -0.03001
 B1058 B 0.47470 0.49092 -0.00035
 B1059 B 0.49359 0.46974 -0.00286
 B1060 B 0.51260 0.47617 -0.02660
 B1061 B 0.50510 0.50188 -0.03887
 B1062 B 0.48138 0.51088 -0.02265
 B1063 B 0.51567 0.50780 0.01342
 B1064 B 0.52592 0.50002 -0.01618
 B1065 B 0.50704 0.52109 -0.01375
 B1066 B 0.48809 0.51475 0.01002
 B1067 B 0.49557 0.48891 0.02231
 B1068 B 0.51930 0.47999 0.00605
 B1069 B -0.01388 0.98396 0.47528
 B1070 B -0.02404 0.99300 0.50450
 B1071 B -0.00544 0.97157 0.50311
 B1072 B 0.01363 0.97680 0.47905
 B1073 B 0.00648 1.00216 0.46552
 B1074 B -0.01712 1.01206 0.48126
 B1075 B 0.01711 1.00983 0.51751
 B1076 B 0.02727 1.00085 0.48831
 B1077 B 0.00866 1.02221 0.48971
 B1078 B -0.01038 1.01701 0.51373
 B1079 B -0.00324 0.99161 0.52730
 B1080 B 0.02039 0.98173 0.51153
 B1081 B 0.76527 0.23306 0.23552
 B1082 B 0.75617 0.22341 0.26464
 B1083 B 0.77677 0.24342 0.26349
 B1084 B 0.77123 0.26112 0.23850
 B1085 B 0.74648 0.25175 0.22410
 B1086 B 0.73724 0.22813 0.24031
 B1087 B 0.73736 0.26380 0.27527
 B1088 B 0.74647 0.27343 0.24612
 B1089 B 0.72587 0.25351 0.24722
 B1090 B 0.73137 0.23574 0.27226
 B1091 B 0.75623 0.24508 0.28668
 B1092 B 0.76540 0.26872 0.27047
 B1093 B 0.73870 0.76427 0.72884
 B1094 B 0.74520 0.77757 0.75748
 B1095 B 0.72475 0.75738 0.75635
 B1096 B 0.73251 0.73680 0.73477
 B1097 B 0.75852 0.74459 0.72256
 B1098 B 0.76615 0.77014 0.73658
 B1099 B 0.76290 0.73911 0.77579
 B1100 B 0.75635 0.72579 0.74715
 B1101 B 0.77684 0.74596 0.74833
 B1102 B 0.76907 0.76659 0.76986
 B1103 B 0.74313 0.75879 0.78207
 B1104 B 0.73544 0.73325 0.76807
 B1105 B 0.26072 0.26503 0.76830
 B1106 B 0.25226 0.27496 0.73906
 B1107 B 0.27277 0.25540 0.74048
 B1108 B 0.26665 0.23716 0.76488
 B1109 B 0.24156 0.24573 0.77861
 B1110 B 0.23279 0.26945 0.76256
 B1111 B 0.23351 0.23438 0.72684
 B1112 B 0.24204 0.22441 0.75608
 B1113 B 0.22147 0.24395 0.75465
 B1114 B 0.22761 0.26225 0.73024
 B1115 B 0.25263 0.25366 0.71655
 B1116 B 0.26142 0.22999 0.73254
 B1117 B 0.23556 0.73987 0.27144
 B1118 B 0.24351 0.72794 0.24269
 B1119 B 0.22265 0.74721 0.24339
 B1120 B 0.22910 0.76732 0.26641
 B1121 B 0.25461 0.76016 0.28002
 B1122 B 0.26340 0.73547 0.26537
 B1123 B 0.26123 0.76775 0.22751
 B1124 B 0.25328 0.77972 0.25624
 B1125 B 0.27411 0.76047 0.25560
 B1126 B 0.26770 0.74034 0.23258
 B1127 B 0.24213 0.74749 0.21894
 B1128 B 0.23338 0.77218 0.23358
 B1129 B 0.26323 0.73492 0.73266
 B1130 B 0.25431 0.72379 0.76110
 B1131 B 0.27433 0.74441 0.76125
 B1132 B 0.26836 0.76298 0.73728
 B1133 B 0.24392 0.75352 0.72219
 B1134 B 0.23533 0.72896 0.73695
 B1135 B 0.23429 0.76311 0.77388
 B1136 B 0.24324 0.77422 0.74541
 B1137 B 0.22320 0.75368 0.74524
 B1138 B 0.22913 0.73505 0.76925
 B1139 B 0.25365 0.74448 0.78435
 B1140 B 0.26219 0.76905 0.76959
 B1141 B 0.24205 0.26644 0.23559
 B1142 B 0.24802 0.28002 0.26418
 B1143 B 0.22868 0.25874 0.26325
 B1144 B 0.23730 0.23870 0.24154
 B1145 B 0.26282 0.24783 0.22911
 B1146 B 0.26920 0.27374 0.24312
 B1147 B 0.26785 0.24252 0.28231
 B1148 B 0.26176 0.22893 0.25368
 B1149 B 0.28125 0.25010 0.25475
 B1150 B 0.27258 0.27031 0.27638
 B1151 B 0.24716 0.26120 0.28877
 B1152 B 0.24068 0.23532 0.27482
 B1153 B 0.76118 0.76398 0.26650
 B1154 B 0.75267 0.77413 0.23737
 B1155 B 0.77323 0.75461 0.23857
 B1156 B 0.76717 0.73616 0.26279
 B1157 B 0.74207 0.74456 0.27665
 B1158 B 0.73325 0.76838 0.26084
 B1159 B 0.73399 0.73359 0.22477
 B1160 B 0.74257 0.72341 0.25390
 B1161 B 0.72195 0.74293 0.25270
 B1162 B 0.72805 0.76142 0.22846
 B1163 B 0.75308 0.75299 0.21464
 B1164 B 0.76193 0.72922 0.23039
 B1165 B 0.73381 0.23903 0.77937
 B1166 B 0.74109 0.22571 0.75114
 B1167 B 0.72027 0.24503 0.75127
 B1168 B 0.72730 0.26619 0.77281
 B1169 B 0.75310 0.25960 0.78605
 B1170 B 0.76149 0.23424 0.77271
 B1171 B 0.75847 0.26469 0.73293
 B1172 B 0.75124 0.27800 0.76113
 B1173 B 0.77200 0.25867 0.76104
 B1174 B 0.76501 0.23755 0.73949
 B1175 B 0.73913 0.24414 0.72622
 B1176 B 0.73080 0.26950 0.73959
 C1177 C 0.44178 1.03202 0.38369
 N1178 N 0.44854 1.02025 0.36191
 N1179 N 0.43459 1.01722 0.34141
 C1180 C 0.41333 1.02590 0.34180
 N1181 N 0.40672 1.03821 0.36331
 N1182 N 0.42064 1.04108 0.38399
 C1183 C 0.45600 1.03183 0.40752
 N1184 N 0.44746 1.03787 0.43148
 N1185 N 0.45896 1.03348 0.45355
 C1186 C 0.47933 1.02289 0.45240
 N1187 N 0.48820 1.01777 0.42838
 N1188 N 0.47677 1.02213 0.40639
 C1189 C -0.06218 0.53394 0.88057
 N1190 N -0.05367 0.52589 0.85745
 N1191 N -0.06718 0.52237 0.83662
 C1192 C -0.08980 0.52668 0.83800
 N1193 N -0.09817 0.53534 0.86101
 N1194 N -0.08466 0.53876 0.88194
 C1195 C -0.04794 0.53401 0.90440
 N1196 N -0.05717 0.53755 0.92863
 N1197 N -0.04527 0.53326 0.95041
 C1198 C -0.02375 0.52526 0.94875
 N1199 N -0.01426 0.52267 0.92453
 N1200 N -0.02611 0.52698 0.90279
 C1201 C 0.06466 -0.03568 0.88627
 N1202 N 0.08768 -0.03537 0.88820
 N1203 N 0.10047 -0.03216 0.86691
 C1204 C 0.09076 -0.02897 0.84287
 N1205 N 0.06771 -0.02978 0.84090
 N1206 N 0.05491 -0.03302 0.86218
 C1207 C 0.05062 -0.03527 0.91017
 N1208 N 0.02781 -0.03252 0.90823
 N1209 N 0.01555 -0.02761 0.92956
 C1210 C 0.02560 -0.02530 0.95366
 N1211 N 0.04827 -0.02903 0.95573
 N1212 N 0.06056 -0.03395 0.93440
 C1213 C 0.56867 0.46256 0.38469
 N1214 N 0.59165 0.46451 0.38637
 N1215 N 0.60409 0.46755 0.36476
 C1216 C 0.59404 0.46894 0.34063
 N1217 N 0.57107 0.46652 0.33894
 N1218 N 0.55863 0.46343 0.36055
 C1219 C 0.55479 0.46309 0.40872
 N1220 N 0.53176 0.46341 0.40694
 N1221 N 0.51921 0.46836 0.42804
 C1222 C 0.52920 0.47312 0.45176
 N1223 N 0.55218 0.47192 0.45372
 N1224 N 0.56474 0.46692 0.43264
 C1225 C 0.57271 0.52829 0.10216
 N1226 N 0.56382 0.53227 0.12648
 N1227 N 0.57645 0.52960 0.14813
 C1228 C 0.59834 0.52260 0.14628
 N1229 N 0.60727 0.51903 0.12190
 N1230 N 0.59473 0.52184 0.10029
 C1231 C 0.55815 0.52780 0.07851
 N1232 N 0.56733 0.52313 0.05454
 N1233 N 0.55403 0.51868 0.03372
 C1234 C 0.53106 0.51875 0.03598
 N1235 N 0.52187 0.52418 0.05979
 N1236 N 0.53517 0.52868 0.08066
 C1237 C 0.07422 1.03246 0.60534
 N1238 N 0.06523 1.03683 0.62952
 N1239 N 0.07765 1.03417 0.65132
 C1240 C 0.09943 1.02679 0.64976
 N1241 N 0.10849 1.02289 0.62552
 N1242 N 0.09615 1.02569 0.60375
 C1243 C 0.05974 1.03161 0.58165
 N1244 N 0.06888 1.02601 0.55792
 N1245 N 0.05556 1.02101 0.53729
 C1246 C 0.03260 1.02141 0.53951
 N1247 N 0.02345 1.02778 0.56304
 N1248 N 0.03677 1.03284 0.58372
 C1249 C -0.06296 0.46424 0.61220
 N1250 N -0.05476 0.47377 0.63493
 N1251 N -0.06858 0.47822 0.65504
 C1252 C -0.09111 0.47317 0.65326
 N1253 N -0.09926 0.46307 0.63079
 N1254 N -0.08546 0.45889 0.61050
 C1255 C -0.04838 0.46334 0.58882
 N1256 N -0.05771 0.46314 0.56426
 N1257 N -0.04491 0.46752 0.54326
 C1258 C -0.02231 0.47202 0.54597
 N1259 N -0.01287 0.47118 0.57043
 N1260 N -0.02565 0.46698 0.59145
 C1261 C 0.42901 -0.03773 0.11151
 N1262 N 0.40605 -0.03626 0.10936
 N1263 N 0.39339 -0.03194 0.13057
 C1264 C 0.40325 -0.02863 0.15466
 N1265 N 0.42616 -0.03061 0.15683
 N1266 N 0.43879 -0.03506 0.13568
 C1267 C 0.44330 -0.03812 0.08788
 N1268 N 0.46629 -0.03767 0.09038
 N1269 N 0.47941 -0.03301 0.06976
 C1270 C 0.47005 -0.02864 0.04586
 N1271 N 0.44709 -0.03004 0.04314
 N1272 N 0.43395 -0.03476 0.06373
 C1273 C 0.38064 0.47136 0.02032
 N1274 N 0.36460 0.47911 0.00348
 N1275 N 0.34356 0.47053 0.00366
 C1276 C 0.33769 0.45386 0.02068
 N1277 N 0.35365 0.44647 0.03793
 N1278 N 0.37474 0.45502 0.03772
 C1279 C 0.40445 0.47859 0.01758
 N1280 N 0.42104 0.46865 0.03191
 N1281 N 0.44287 0.47305 0.02698
 C1282 C 0.44893 0.48730 0.00736
 N1283 N 0.43230 0.49800 -0.00616
 N1284 N 0.41047 0.49362 -0.00127
 C1285 C -0.11818 0.97322 0.52340
 N1286 N -0.13396 0.98134 0.50648
 N1287 N -0.15489 0.97248 0.50569
 C1288 C -0.16087 0.95517 0.52178
 N1289 N -0.14519 0.94745 0.53916
 N1290 N -0.12423 0.95626 0.53990
 C1291 C -0.09436 0.98062 0.52148
 N1292 N -0.07792 0.96965 0.53495
 N1293 N -0.05604 0.97414 0.53045
 C1294 C -0.04980 0.98963 0.51224
 N1295 N -0.06628 1.00123 0.49951
 N1296 N -0.08816 0.99672 0.50393
 C1297 C -0.12022 0.02955 0.97622
 N1298 N -0.13768 0.01755 0.98685
 N1299 N -0.15857 0.02610 0.98745
 C1300 C -0.16277 0.04707 0.97768
 N1301 N -0.14527 0.05876 0.96660
 N1302 N -0.12446 0.05017 0.96584
 C1303 C -0.09673 0.02161 0.97798
 N1304 N -0.07974 0.03390 0.96689
 N1305 N -0.05813 0.02834 0.97062
 C1306 C -0.05262 0.01039 0.98571
 N1307 N -0.06963 -0.00224 0.99640
 N1308 N -0.09132 0.00329 0.99263
 C1309 C 0.38370 0.53253 0.46840
 N1310 N 0.38041 0.55393 0.45972
 N1311 N 0.35992 0.56323 0.46077
 C1312 C 0.34186 0.55147 0.47039
 N1313 N 0.34503 0.52981 0.47850
 N1314 N 0.36561 0.52054 0.47762
 C1315 C 0.40689 0.52375 0.47025
 N1316 N 0.41137 0.50451 0.48369
 N1317 N 0.43279 0.49826 0.48799
 C1318 C 0.45045 0.51105 0.47903
 N1319 N 0.44587 0.52993 0.46508
 N1320 N 0.42453 0.53621 0.46082
 C1321 C 0.12206 0.53574 0.52702
 N1322 N 0.12559 0.55823 0.53189
 N1323 N 0.14635 0.56729 0.53037
 C1324 C 0.16446 0.55422 0.52406
 N1325 N 0.16104 0.53157 0.51982
 N1326 N 0.14018 0.52249 0.52117
 C1327 C 0.09872 0.52675 0.52558
 N1328 N 0.09419 0.50538 0.51635
 N1329 N 0.07277 0.49839 0.51236
 C1330 C 0.05515 0.51252 0.51746
 N1331 N 0.05976 0.53369 0.52710
 N1332 N 0.08110 0.54069 0.53107
 C1333 C 0.61688 0.03219 0.03105
 N1334 N 0.62065 0.05495 0.03202
 N1335 N 0.64155 0.06344 0.02958
 C1336 C 0.65955 0.04950 0.02632
 N1337 N 0.65593 0.02665 0.02600
 N1338 N 0.63490 0.01813 0.02817
 C1339 C 0.59341 0.02356 0.03021
 N1340 N 0.58847 0.00190 0.02228
 N1341 N 0.56695 -0.00467 0.01806
 C1342 C 0.54967 0.01019 0.02165
 N1343 N 0.55469 0.03162 0.03013
 N1344 N 0.57611 0.03820 0.03429
 C1345 C 0.62209 0.97055 0.48619
 N1346 N 0.62705 0.95328 0.46921
 N1347 N 0.64765 0.94419 0.46904
 C1348 C 0.66415 0.95209 0.48575
 N1349 N 0.65931 0.96970 0.50239
 N1350 N 0.63862 0.97871 0.50269
 C1351 C 0.59871 0.97870 0.48810
 N1352 N 0.59222 0.99234 0.50850
 N1353 N 0.57043 0.99775 0.51154
 C1354 C 0.55437 0.98955 0.49442
 N1355 N 0.56105 0.97662 0.47354
 N1356 N 0.58277 0.97112 0.47054
 C1357 C 0.11994 0.47046 0.98335
 N1358 N 0.12455 0.45139 0.96908
 N1359 N 0.14491 0.44187 0.97046
 C1360 C 0.16153 0.45109 0.98610
 N1361 N 0.15705 0.47045 1.00002
 N1362 N 0.13659 0.47991 0.99876
 C1363 C 0.09673 0.47927 0.98377
 N1364 N 0.09058 0.49560 1.00150
 N1365 N 0.06887 0.50163 1.00370
 C1366 C 0.05256 0.49145 0.98837
 N1367 N 0.05890 0.47573 0.97009
 N1368 N 0.08054 0.46966 0.96791
 C1369 C -0.00648 0.37812 0.46226
 N1370 N -0.01874 0.37273 0.44025
 N1371 N -0.01875 0.35169 0.43024
 C1372 C -0.00639 0.33514 0.44170
 N1373 N 0.00580 0.34050 0.46388
 N1374 N 0.00570 0.36158 0.47403
 C1375 C -0.00550 0.40184 0.47186
 N1376 N 0.00365 0.40757 0.49579
 N1377 N 0.00509 0.42932 0.50362
 C1378 C -0.00250 0.44609 0.48778
 N1379 N -0.01142 0.44027 0.46383
 N1380 N -0.01306 0.41860 0.45612
 C1381 C 0.48850 -0.12154 -0.03904
 N1382 N 0.47697 -0.12677 -0.06162
 N1383 N 0.47770 -0.14761 -0.07213
 C1384 C 0.49014 -0.16410 -0.06066
 N1385 N 0.50163 -0.15890 -0.03794
 N1386 N 0.50077 -0.13803 -0.02728
 C1387 C 0.48871 -0.09802 -0.02874
 N1388 N 0.49716 -0.09268 -0.00438
 N1389 N 0.49821 -0.07108 0.00405
 C1390 C 0.49089 -0.05405 -0.01159
 N1391 N 0.48263 -0.05947 -0.03597
 N1392 N 0.48136 -0.08101 -0.04428
 C1393 C 0.01368 -0.11593 1.04325
 N1394 N 0.01979 -0.11856 1.06888
 N1395 N 0.01854 -0.13884 1.08008
 C1396 C 0.01113 -0.15742 1.06617
 N1397 N 0.00525 -0.15486 1.04037
 N1398 N 0.00645 -0.13450 1.02913
 C1399 C 0.01356 -0.09299 1.03198
 N1400 N 0.00595 -0.08925 1.00704
 N1401 N 0.00421 -0.06810 0.99808
 C1402 C 0.01011 -0.04996 1.01370
 N1403 N 0.01786 -0.05382 1.03849
 N1404 N 0.01965 -0.07486 1.04739
 C1405 C 0.51300 0.38389 0.54284
 N1406 N 0.50880 0.36474 0.52818
 N1407 N 0.50780 0.34445 0.53964
 C1408 C 0.51087 0.34255 0.56618
 N1409 N 0.51523 0.36174 0.58064
 N1410 N 0.51628 0.38193 0.56924
 C1411 C 0.51292 0.40669 0.53118
 N1412 N 0.51611 0.42514 0.54716
 N1413 N 0.51469 0.44600 0.53768
 C1414 C 0.51020 0.44940 0.51174
 N1415 N 0.50713 0.43094 0.49556
 N1416 N 0.50850 0.40993 0.50511
 C1417 C 0.48886 1.12163 0.53428
 N1418 N 0.50590 1.13659 0.52882
 N1419 N 0.50637 1.15727 0.54000
 C1420 C 0.48983 1.16382 0.55710
 N1421 N 0.47264 1.14890 0.56220
 N1422 N 0.47218 1.12824 0.55107
 C1423 C 0.48938 1.09805 0.52411
 N1424 N 0.47395 1.08252 0.53264
 N1425 N 0.47565 1.06068 0.52571
 C1426 C 0.49268 1.05347 0.50979
 N1427 N 0.50795 1.06908 0.50092
 N1428 N 0.50632 1.09095 0.50791
 C1429 C -0.01391 0.62211 1.03305
 N1430 N 0.00199 0.63776 1.02592
 N1431 N 0.00255 0.65838 1.03729
 C1432 C -0.01277 0.66417 1.05621
 N1433 N -0.02883 0.64856 1.06299
 N1434 N -0.02937 0.62796 1.05170
 C1435 C -0.01338 0.59865 1.02252
 N1436 N -0.02709 0.58244 1.03296
 N1437 N -0.02526 0.56076 1.02544
 C1438 C -0.00989 0.55438 1.00695
 N1439 N 0.00367 0.57065 0.99625
 N1440 N 0.00195 0.59238 1.00386
 C1441 C 0.51748 0.61374 -0.04681
 N1442 N 0.51020 0.63173 -0.03210
 N1443 N 0.50920 0.65243 -0.04252
 C1444 C 0.51537 0.65587 -0.06805
 N1445 N 0.52289 0.63786 -0.08247
 N1446 N 0.52392 0.61727 -0.07211
 C1447 C 0.51694 0.59039 -0.03673
 N1448 N 0.52198 0.57288 -0.05332
 N1449 N 0.51979 0.55149 -0.04557
 C1450 C 0.51277 0.54663 -0.02080
 N1451 N 0.50788 0.56415 -0.00401
 N1452 N 0.50996 0.58566 -0.01183
 C1453 C 0.02012 1.11388 0.45401
 N1454 N 0.01492 1.13230 0.46923
 N1455 N 0.01393 1.15293 0.45868
 C1456 C 0.01797 1.15594 0.43249
 N1457 N 0.02345 1.13744 0.41754
 N1458 N 0.02448 1.11691 0.42803
 C1459 C 0.01949 1.09070 0.46450
 N1460 N 0.02282 1.07280 0.44785
 N1461 N 0.02039 1.05161 0.45620
 C1462 C 0.01475 1.04737 0.48160
 N1463 N 0.01161 1.06528 0.49844
 N1464 N 0.01398 1.08658 0.49004
 C1465 C 0.78418 0.68755 0.86664
 N1466 N 0.77944 0.69630 0.89092
 N1467 N 0.77644 0.68268 0.91140
 C1468 C 0.77788 0.65977 0.90838
 N1469 N 0.78312 0.65109 0.88416
 N1470 N 0.78618 0.66470 0.86368
 C1471 C 0.78355 0.70214 0.84343
 N1472 N 0.78668 0.69322 0.81885
 N1473 N 0.78197 0.70535 0.79756
 C1474 C 0.77384 0.72676 0.80005
 N1475 N 0.77161 0.73595 0.82464
 N1476 N 0.77641 0.72389 0.84593
 C1477 C 0.28805 0.19038 0.37261
 N1478 N 0.29040 0.16761 0.36925
 N1479 N 0.28650 0.15357 0.38916
 C1480 C 0.28000 0.16174 0.41317
 N1481 N 0.27820 0.18459 0.41664
 N1482 N 0.28206 0.19862 0.39674
 C1483 C 0.28824 0.20538 0.34974
 N1484 N 0.28092 0.22707 0.35237
 N1485 N 0.27649 0.23935 0.33116
 C1486 C 0.27930 0.23049 0.30650
 N1487 N 0.28769 0.20919 0.30391
 N1488 N 0.29204 0.19683 0.32512
 C1489 C 0.71522 0.32274 0.36087
 N1490 N 0.70980 0.31462 0.38502
 N1491 N 0.71307 0.32742 0.40670
 C1492 C 0.72219 0.34868 0.40504
 N1493 N 0.72721 0.35689 0.38083
 N1494 N 0.72376 0.34419 0.35918
 C1495 C 0.71537 0.30771 0.33746
 N1496 N 0.72121 0.31625 0.31368
 N1497 N 0.72599 0.30244 0.29348
 C1498 C 0.72512 0.27955 0.29617
 N1499 N 0.71841 0.27099 0.31968
 N1500 N 0.71356 0.28481 0.33994
 C1501 C 0.20805 0.81990 0.85981
 N1502 N 0.20574 0.81135 0.88441
 N1503 N 0.20869 0.82469 0.90570
 C1504 C 0.21434 0.84701 0.90316
 N1505 N 0.21610 0.85562 0.87853
 N1506 N 0.21299 0.84234 0.85729
 C1507 C 0.20920 0.80474 0.83659
 N1508 N 0.21292 0.81360 0.81241
 N1509 N 0.21880 0.80027 0.79217
 C1510 C 0.22122 0.77758 0.79529
 N1511 N 0.21661 0.76858 0.81925
 N1512 N 0.21067 0.78191 0.83952
 C1513 C 0.28193 0.82032 0.13733
 N1514 N 0.28169 0.84333 0.13934
 N1515 N 0.27825 0.85588 0.11806
 C1516 C 0.27470 0.84594 0.09393
 N1517 N 0.27550 0.82290 0.09194
 N1518 N 0.27898 0.81035 0.11321
 C1519 C 0.28183 0.80645 0.16116
 N1520 N 0.27927 0.78356 0.15907
 N1521 N 0.27477 0.77127 0.18031
 C1522 C 0.27268 0.78138 0.20444
 N1523 N 0.27618 0.80417 0.20666
 N1524 N 0.28070 0.81648 0.18543
 C1525 C 0.77793 0.31631 0.64163
 N1526 N 0.77481 0.30680 0.61728
 N1527 N 0.77144 0.31978 0.59634
 C1528 C 0.77077 0.34280 0.59894
 N1529 N 0.77436 0.35224 0.62332
 N1530 N 0.77782 0.33928 0.64423
 C1531 C 0.77802 0.30211 0.66517
 N1532 N 0.77964 0.31184 0.68959
 N1533 N 0.77545 0.29970 0.71104
 C1534 C 0.76944 0.27742 0.70888
 N1535 N 0.76874 0.26750 0.68450
 N1536 N 0.77299 0.27960 0.66304
 C1537 C 0.21012 0.17490 0.64124
 N1538 N 0.21654 0.15299 0.64395
 N1539 N 0.21983 0.13972 0.62281
 C1540 C 0.21674 0.14783 0.59812
 N1541 N 0.20968 0.16958 0.59544
 N1542 N 0.20656 0.18292 0.61660
 C1543 C 0.21073 0.19039 0.66424
 N1544 N 0.21120 0.21325 0.66097
 N1545 N 0.21645 0.22719 0.68114
 C1546 C 0.22131 0.21880 0.70533
 N1547 N 0.21990 0.19601 0.70874
 N1548 N 0.21473 0.18207 0.68861
 C1549 C 0.71098 0.67419 0.13901
 N1550 N 0.71954 0.65300 0.14118
 N1551 N 0.72277 0.63999 0.11984
 C1552 C 0.71747 0.64755 0.09539
 N1553 N 0.70816 0.66853 0.09336
 N1554 N 0.70519 0.68169 0.11471
 C1555 C 0.71141 0.68961 0.16204
 N1556 N 0.71136 0.71250 0.15895
 N1557 N 0.71655 0.72644 0.17916
 C1558 C 0.72183 0.71800 0.20321
 N1559 N 0.72090 0.69518 0.20644
 N1560 N 0.71584 0.68125 0.18629
 C1561 C 0.22170 0.63391 0.22323
 N1562 N 0.23219 0.61720 0.23667
 N1563 N 0.22348 0.59619 0.23664
 C1564 C 0.20390 0.59118 0.22331
 N1565 N 0.19375 0.60783 0.20944
 N1566 N 0.20250 0.62877 0.20935
 C1567 C 0.22926 0.65762 0.22600
 N1568 N 0.21800 0.67411 0.21310
 N1569 N 0.22290 0.69592 0.21780
 C1570 C 0.23906 0.70210 0.23575
 N1571 N 0.25080 0.68559 0.24815
 N1572 N 0.24593 0.66373 0.24344
 C1573 C 0.72131 0.13048 0.73719
 N1574 N 0.72827 0.11577 0.75581
 N1575 N 0.72017 0.09456 0.75600
 C1576 C 0.70473 0.08719 0.73761
 N1577 N 0.69827 0.10184 0.71856
 N1578 N 0.70634 0.12309 0.71839
 C1579 C 0.72809 0.15450 0.73903
 N1580 N 0.71902 0.16988 0.72245
 N1581 N 0.72338 0.19199 0.72588
 C1582 C 0.73676 0.19953 0.74616
 N1583 N 0.74640 0.18407 0.76222
 N1584 N 0.74204 0.16196 0.75883
 C1585 C 0.78191 0.13105 0.28055
 N1586 N 0.80459 0.12744 0.28231
 N1587 N 0.81291 0.10669 0.27902
 C1588 C 0.79887 0.08866 0.27409
 N1589 N 0.77607 0.09209 0.27299
 N1590 N 0.76773 0.11298 0.27601
 C1591 C 0.77364 0.15449 0.28056
 N1592 N 0.75248 0.15946 0.27164
 N1593 N 0.74650 0.18100 0.26803
 C1594 C 0.76146 0.19831 0.27325
 N1595 N 0.78233 0.19326 0.28278
 N1596 N 0.78833 0.17181 0.28634
 C1597 C 0.28142 0.63142 0.77407
 N1598 N 0.26713 0.61326 0.77070
 N1599 N 0.27542 0.59236 0.76756
 C1600 C 0.29826 0.58903 0.76735
 N1601 N 0.31241 0.60716 0.77108
 N1602 N 0.30416 0.62791 0.77450
 C1603 C 0.27308 0.65480 0.77447
 N1604 N 0.28793 0.67216 0.77939
 N1605 N 0.28164 0.69358 0.77646
 C1606 C 0.26030 0.69858 0.76843
 N1607 N 0.24522 0.68123 0.76397
 N1608 N 0.25149 0.65970 0.76697
 C1609 C 0.27746 0.36748 0.71796
 N1610 N 0.26496 0.38528 0.72678
 N1611 N 0.27350 0.40637 0.72646
 C1612 C 0.29494 0.41047 0.71751
 N1613 N 0.30715 0.39261 0.70825
 N1614 N 0.29860 0.37159 0.70844
 C1615 C 0.26939 0.34396 0.72080
 N1616 N 0.28249 0.32658 0.71214
 N1617 N 0.27664 0.30516 0.71699
 C1618 C 0.25755 0.30022 0.73076
 N1619 N 0.24415 0.31759 0.73898
 N1620 N 0.24997 0.33909 0.73411
 C1621 C 0.77724 0.86722 0.21867
 N1622 N 0.76568 0.88452 0.23024
 N1623 N 0.77439 0.90556 0.23081
 C1624 C 0.79503 0.91005 0.21993
 N1625 N 0.80631 0.89275 0.20795
 N1626 N 0.79760 0.87178 0.20731
 C1627 C 0.76921 0.84359 0.22069
 N1628 N 0.78191 0.82645 0.21063
 N1629 N 0.77622 0.80487 0.21492
 C1630 C 0.75766 0.79956 0.22948
 N1631 N 0.74462 0.81671 0.23902
 N1632 N 0.75030 0.83834 0.23475
 C1633 C 0.72020 0.87082 0.77245
 N1634 N 0.73059 0.88817 0.75968
 N1635 N 0.72153 0.90883 0.75992
 C1636 C 0.70161 0.91287 0.77263
 N1637 N 0.69152 0.89547 0.78569
 N1638 N 0.70064 0.87492 0.78565
 C1639 C 0.72864 0.84756 0.77040
 N1640 N 0.71904 0.83106 0.78519
 N1641 N 0.72475 0.80945 0.78163
 C1642 C 0.74000 0.80342 0.76290
 N1643 N 0.75019 0.82002 0.74862
 N1644 N 0.74456 0.84172 0.75226
 C1645 C 0.21733 0.37204 0.27392
 N1646 N 0.23121 0.39068 0.27407
 N1647 N 0.22248 0.41143 0.27192
 C1648 C 0.19964 0.41413 0.26931
 N1649 N 0.18591 0.39549 0.26958
 N1650 N 0.19456 0.37490 0.27192
 C1651 C 0.22614 0.34887 0.27390
 N1652 N 0.21111 0.33128 0.27415
 N1653 N 0.21818 0.31004 0.27181
 C1654 C 0.24054 0.30539 0.26915
 N1655 N 0.25576 0.32299 0.26908
 N1656 N 0.24867 0.34441 0.27142
 C1657 C 0.12871 0.23611 0.79001
 N1658 N 0.12391 0.22451 0.81229
 N1659 N 0.10325 0.22524 0.82291
 C1660 C 0.08653 0.23772 0.81184
 N1661 N 0.09131 0.24924 0.78941
 N1662 N 0.11198 0.24840 0.77867
 C1663 C 0.15208 0.23644 0.77959
 N1664 N 0.15698 0.24591 0.75595
 N1665 N 0.17844 0.24734 0.74758
 C1666 C 0.19579 0.23934 0.76250
 N1667 N 0.19080 0.22995 0.78611
 N1668 N 0.16939 0.22835 0.79439
 C1669 C 0.62932 0.73673 0.28873
 N1670 N 0.61303 0.75005 0.27814
 N1671 N 0.59249 0.75138 0.28916
 C1672 C 0.58741 0.73935 0.31113
 N1673 N 0.60369 0.72586 0.32146
 N1674 N 0.62423 0.72464 0.31056
 C1675 C 0.65259 0.73647 0.27801
 N1676 N 0.66974 0.72740 0.29226
 N1677 N 0.69112 0.72857 0.28379
 C1678 C 0.69623 0.73847 0.26050
 N1679 N 0.67903 0.74741 0.24612
 N1680 N 0.65761 0.74642 0.25469
 C1681 C 0.63511 0.26289 0.20571
 N1682 N 0.61610 0.26232 0.22085
 N1683 N 0.59549 0.26198 0.20962
 C1684 C 0.59314 0.26213 0.18286
 N1685 N 0.61222 0.26291 0.16791
 N1686 N 0.63274 0.26329 0.17908
 C1687 C 0.65809 0.26197 0.21729
 N1688 N 0.67629 0.26136 0.20100
 N1689 N 0.69719 0.25926 0.21065
 C1690 C 0.70086 0.25781 0.23703
 N1691 N 0.68268 0.25857 0.25350
 N1692 N 0.66164 0.26062 0.24379
 C1693 C 0.13174 0.76270 0.70572
 N1694 N 0.11298 0.75886 0.72067
 N1695 N 0.09228 0.75864 0.70969
 C1696 C 0.08956 0.76222 0.68338
 N1697 N 0.10837 0.76628 0.66865
 N1698 N 0.12898 0.76650 0.67957
 C1699 C 0.15487 0.76171 0.71685
 N1700 N 0.17296 0.76368 0.70052
 N1701 N 0.19405 0.76167 0.70969
 C1702 C 0.19799 0.75778 0.73563
 N1703 N 0.17991 0.75587 0.75213
 N1704 N 0.15870 0.75781 0.74289
 C1705 C 0.87038 0.73806 0.71748
 N1706 N 0.87650 0.72159 0.69996
 N1707 N 0.89677 0.72231 0.68833
 C1708 C 0.91177 0.73960 0.69358
 N1709 N 0.90569 0.75589 0.71148
 N1710 N 0.88542 0.75515 0.72317
 C1711 C 0.84715 0.73837 0.72820
 N1712 N 0.84057 0.75510 0.74518
 N1713 N 0.81891 0.75667 0.75262
 C1714 C 0.80300 0.74155 0.74342
 N1715 N 0.80969 0.72469 0.72674
 N1716 N 0.83133 0.72304 0.71937
 C1717 C 0.37450 0.24473 0.22185
 N1718 N 0.38140 0.22669 0.20705
 N1719 N 0.40132 0.22723 0.19463
 C1720 C 0.41517 0.24586 0.19642
 N1721 N 0.40836 0.26380 0.21154
 N1722 N 0.38842 0.26326 0.22398
 C1723 C 0.35154 0.24490 0.23334
 N1724 N 0.34391 0.26346 0.24671
 N1725 N 0.32235 0.26449 0.25463
 C1726 C 0.30757 0.24701 0.24956
 N1727 N 0.31535 0.22834 0.23661
 N1728 N 0.33691 0.22725 0.22872
 C1729 C 0.36655 0.76939 0.29230
 N1730 N 0.36994 0.77596 0.31782
 N1731 N 0.39034 0.77434 0.32905
 C1732 C 0.40830 0.76609 0.31529
 N1733 N 0.40500 0.75980 0.28957
 N1734 N 0.38450 0.76135 0.27830
 C1735 C 0.34335 0.76953 0.28111
 N1736 N 0.33870 0.76114 0.25648
 N1737 N 0.31725 0.75943 0.24777
 C1738 C 0.29970 0.76617 0.26332
 N1739 N 0.30448 0.77473 0.28777
 N1740 N 0.32583 0.77649 0.29643
 C1741 C 0.86524 0.26794 0.79452
 N1742 N 0.88264 0.25838 0.78088
 N1743 N 0.90327 0.25687 0.79182
 C1744 C 0.90725 0.26474 0.81685
 N1745 N 0.88985 0.27452 0.83022
 N1746 N 0.86932 0.27608 0.81931
 C1747 C 0.84185 0.26801 0.78390
 N1748 N 0.82478 0.27619 0.79911
 N1749 N 0.80324 0.27435 0.79116
 C1750 C 0.79780 0.26450 0.76754
 N1751 N 0.81490 0.25653 0.75208
 N1752 N 0.83654 0.25831 0.76008
 C1753 C 0.56257 0.96794 0.62042
 N1754 N 0.58538 0.96497 0.61899
 N1755 N 0.59841 0.96758 0.64044
 C1756 C 0.58915 0.97333 0.66412
 N1757 N 0.56624 0.97575 0.66560
 N1758 N 0.55322 0.97319 0.64415
 C1759 C 0.54879 0.96890 0.59625
 N1760 N 0.52719 0.97669 0.59740
 N1761 N 0.51593 0.98154 0.57539
 C1762 C 0.52579 0.97873 0.55139
 N1763 N 0.54704 0.97006 0.55021
 N1764 N 0.55838 0.96529 0.57224
 C1765 C 0.06357 0.47096 1.11315
 N1766 N 0.05412 0.47408 1.13730
 N1767 N 0.06718 0.47788 1.15851
 C1768 C 0.09024 0.47907 1.15641
 N1769 N 0.09958 0.47540 1.13220
 N1770 N 0.08655 0.47147 1.11103
 C1771 C 0.04937 0.47064 1.08929
 N1772 N 0.05909 0.46864 1.06512
 N1773 N 0.04717 0.47281 1.04336
 C1774 C 0.02513 0.47922 1.04493
 N1775 N 0.01517 0.48029 1.06905
 N1776 N 0.02704 0.47604 1.09082
 C1777 C -0.06828 0.03419 1.11048
 N1778 N -0.09117 0.03179 1.10815
 N1779 N -0.10391 0.02768 1.12925
 C1780 C -0.09431 0.02562 1.15356
 N1781 N -0.07140 0.02859 1.15590
 N1782 N -0.05864 0.03268 1.13478
 C1783 C -0.05403 0.03480 1.08675
 N1784 N -0.03108 0.03333 1.08884
 N1785 N -0.01846 0.02919 1.06756
 C1786 C -0.02829 0.02645 1.04338
 N1787 N -0.05114 0.02892 1.04120
 N1788 N -0.06377 0.03306 1.06245
 C1789 C 0.43195 0.53502 0.60391
 N1790 N 0.40910 0.53222 0.60134
 N1791 N 0.39626 0.52805 0.62235
 C1792 C 0.40574 0.52635 0.64674
 N1793 N 0.42856 0.52964 0.64934
 N1794 N 0.44143 0.53381 0.62833
 C1795 C 0.44640 0.53559 0.58036
 N1796 N 0.46938 0.53501 0.58281
 N1797 N 0.48235 0.53070 0.56188
 C1798 C 0.47287 0.52686 0.53769
 N1799 N 0.44997 0.52845 0.53510
 N1800 N 0.43697 0.53280 0.55600
 C1801 C 0.42743 0.46431 -0.11851
 N1802 N 0.43592 0.46083 -0.14312
 N1803 N 0.42307 0.46433 -0.16440
 C1804 C 0.40136 0.47173 -0.16186
 N1805 N 0.39283 0.47485 -0.13722
 N1806 N 0.40559 0.47117 -0.11598
 C1807 C 0.44231 0.46393 -0.09516
 N1808 N 0.43336 0.46701 -0.07075
 N1809 N 0.44683 0.47099 -0.04996
 C1810 C 0.46973 0.47210 -0.05270
 N1811 N 0.47873 0.46816 -0.07699
 N1812 N 0.46528 0.46408 -0.09783
 C1813 C -0.07222 0.96407 0.38789
 N1814 N -0.06381 0.96036 0.36329
 N1815 N -0.07669 0.96375 0.34201
 C1816 C -0.09835 0.97128 0.34452
 N1817 N -0.10683 0.97461 0.36915
 N1818 N -0.09403 0.97105 0.39040
 C1819 C -0.05725 0.96389 0.41117
 N1820 N -0.06600 0.96774 0.43554
 N1821 N -0.05234 0.97197 0.45611
 C1822 C -0.02943 0.97254 0.45317
 N1823 N -0.02066 0.96780 0.42896
 N1824 N -0.03431 0.96348 0.40835
 C1825 C 0.07312 0.53662 0.39319
 N1826 N 0.06394 0.54032 0.36900
 N1827 N 0.07642 0.53771 0.34726
 C1828 C 0.09841 0.53100 0.34891
 N1829 N 0.10764 0.52774 0.37315
 N1830 N 0.09526 0.53054 0.39484
 C1831 C 0.05878 0.53565 0.41680
 N1832 N 0.06844 0.53151 0.44057
 N1833 N 0.05562 0.52612 0.46117
 C1834 C 0.03266 0.52468 0.45888
 N1835 N 0.02292 0.52960 0.43530
 N1836 N 0.03575 0.53505 0.41464
 C1837 C 0.57189 0.03712 -0.10083
 N1838 N 0.59418 0.03183 -0.09830
 N1839 N 0.60721 0.02919 -0.11952
 C1840 C 0.59847 0.03178 -0.14413
 N1841 N 0.57631 0.03774 -0.14663
 N1842 N 0.56323 0.04024 -0.12538
 C1843 C 0.55688 0.03572 -0.07784
 N1844 N 0.53392 0.03554 -0.08091
 N1845 N 0.52039 0.02978 -0.06099
 C1846 C 0.52933 0.02407 -0.03726
 N1847 N 0.55223 0.02503 -0.03402
 N1848 N 0.56575 0.03076 -0.05388
 C1849 C 0.61980 0.52238 -0.03348
 N1850 N 0.62564 0.54057 -0.04825
 N1851 N 0.64658 0.54940 -0.04690
 C1852 C 0.66246 0.54046 -0.03063
 N1853 N 0.65669 0.52195 -0.01630
 N1854 N 0.63578 0.51307 -0.01771
 C1855 C 0.59603 0.51467 -0.03210
 N1856 N 0.59009 0.49700 -0.01656
 N1857 N 0.56828 0.49184 -0.01256
 C1858 C 0.55160 0.50430 -0.02373
 N1859 N 0.55758 0.52151 -0.03988
 N1860 N 0.57939 0.52665 -0.04397
 C1861 C 0.12125 1.02211 0.47016
 N1862 N 0.12718 1.03998 0.45492
 N1863 N 0.14820 1.04869 0.45599
 C1864 C 0.16405 1.03993 0.47244
 N1865 N 0.15818 1.02174 0.48724
 N1866 N 0.13721 1.01298 0.48611
 C1867 C 0.09743 1.01460 0.47181
 N1868 N 0.09140 0.99729 0.48784
 N1869 N 0.06956 0.99237 0.49204
 C1870 C 0.05295 1.00469 0.48054
 N1871 N 0.05902 1.02155 0.46392
 N1872 N 0.08084 1.02644 0.45964
 C1873 C 0.11884 -0.02540 1.01977
 N1874 N 0.12544 -0.04056 1.03811
 N1875 N 0.14640 -0.04891 1.03778
 C1876 C 0.16155 -0.04259 1.01895
 N1877 N 0.15496 -0.02703 1.00097
 N1878 N 0.13406 -0.01859 1.00138
 C1879 C 0.09512 -0.01815 1.01817
 N1880 N 0.08878 -0.00269 1.00005
 N1881 N 0.06693 0.00221 0.99662
 C1882 C 0.05060 -0.00835 1.01097
 N1883 N 0.05700 -0.02340 1.02954
 N1884 N 0.07886 -0.02824 1.03306
 C1885 C 0.61917 0.47061 0.52348
 N1886 N 0.62333 0.45046 0.53507
 N1887 N 0.64427 0.44218 0.53568
 C1888 C 0.66198 0.45367 0.52474
 N1889 N 0.65783 0.47416 0.51370
 N1890 N 0.63683 0.48243 0.51300
 C1891 C 0.59568 0.47825 0.52034
 N1892 N 0.59082 0.49684 0.50590
 N1893 N 0.56930 0.50235 0.50104
 C1894 C 0.55188 0.48945 0.51037
 N1895 N 0.55680 0.47115 0.52520
 N1896 N 0.57827 0.46562 0.53005
 C1897 C -0.11330 0.46233 0.48048
 N1898 N -0.13099 0.47695 0.47921
 N1899 N -0.15237 0.46933 0.48143
 C1900 C -0.15670 0.44688 0.48530
 N1901 N -0.13899 0.43236 0.48616
 N1902 N -0.11775 0.43991 0.48372
 C1903 C -0.08958 0.47031 0.48073
 N1904 N -0.07270 0.45485 0.48127
 N1905 N -0.05116 0.46144 0.48442
 C1906 C -0.04557 0.48375 0.48716
 N1907 N -0.06243 0.49934 0.48626
 N1908 N -0.08408 0.49274 0.48308
 C1909 C 0.38097 -0.03342 -0.02353
 N1910 N 0.36397 -0.02078 -0.01304
 N1911 N 0.34276 -0.02898 -0.01234
 C1912 C 0.33777 -0.05014 -0.02200
 N1913 N 0.35477 -0.06254 -0.03289
 N1914 N 0.37594 -0.05435 -0.03364
 C1915 C 0.40471 -0.02568 -0.02162
 N1916 N 0.42166 -0.03935 -0.03019
 N1917 N 0.44333 -0.03359 -0.02591
 C1918 C 0.44890 -0.01400 -0.01290
 N1919 N 0.43194 -0.00009 -0.00481
 N1920 N 0.41023 -0.00582 -0.00906
 C1921 C 0.38228 1.03014 0.51569
 N1922 N 0.36622 1.02131 0.49901
 N1923 N 0.34518 1.02947 0.49901
 C1924 C 0.33947 1.04687 0.51555
 N1925 N 0.35551 1.05547 0.53243
 N1926 N 0.37648 1.04722 0.53256
 C1927 C 0.40593 1.02267 0.51422
 N1928 N 0.42149 1.03052 0.53211
 N1929 N 0.44334 1.02527 0.52965
 C1930 C 0.45051 1.01230 0.50901
 N1931 N 0.43484 1.00396 0.49150
 N1932 N 0.41295 1.00911 0.49401
 C1933 C -0.11976 0.52946 1.01363
 N1934 N -0.13590 0.52058 0.99709
 N1935 N -0.15697 0.52867 0.99728
 C1936 C -0.16264 0.54603 1.01390
 N1937 N -0.14653 0.55464 1.03068
 N1938 N -0.12552 0.54648 1.03059
 C1939 C -0.09605 0.52225 1.01176
 N1940 N -0.08021 0.53092 1.02879
 N1941 N -0.05833 0.52603 1.02579
 C1942 C -0.05141 0.51259 1.00545
 N1943 N -0.06734 0.50338 0.98885
 N1944 N -0.08927 0.50819 0.99188
 C1945 C 0.01280 0.61749 0.54506
 N1946 N 0.00459 0.63498 0.53080
 N1947 N 0.00304 0.65576 0.54162
 C1948 C 0.00962 0.65979 0.56709
 N1949 N 0.01800 0.64226 0.58110
 N1950 N 0.01952 0.62158 0.57035
 C1951 C 0.01328 0.59408 0.53441
 N1952 N 0.01872 0.57693 0.55074
 N1953 N 0.01797 0.55546 0.54223
 C1954 C 0.01203 0.55019 0.51694
 N1955 N 0.00666 0.56735 0.50044
 N1956 N 0.00728 0.58894 0.50903
 C1957 C 0.51102 0.11634 0.04869
 N1958 N 0.51611 0.12018 0.07453
 N1959 N 0.51536 0.14104 0.08493
 C1960 C 0.50942 0.15901 0.07000
 N1961 N 0.50447 0.15520 0.04402
 N1962 N 0.50525 0.13425 0.03355
 C1963 C 0.51071 0.09288 0.03815
 N1964 N 0.50623 0.08809 0.01227
 N1965 N 0.50491 0.06657 0.00356
 C1966 C 0.50803 0.04911 0.02042
 N1967 N 0.51249 0.05401 0.04621
 N1968 N 0.51392 0.07543 0.05486
 C1969 C -0.01582 0.11804 0.95582
 N1970 N -0.00800 0.13626 0.97012
 N1971 N -0.00715 0.15687 0.95947
 C1972 C -0.01408 0.16005 0.93413
 N1973 N -0.02211 0.14180 0.92007
 N1974 N -0.02292 0.12126 0.93065
 C1975 C -0.01536 0.09485 0.96636
 N1976 N -0.02028 0.07693 0.95008
 N1977 N -0.01845 0.05574 0.95851
 C1978 C -0.01193 0.05152 0.98368
 N1979 N -0.00712 0.06945 1.00012
 N1980 N -0.00883 0.09074 0.99161
 C1981 C 0.48767 0.61760 0.45131
 N1982 N 0.49343 0.63597 0.46663
 N1983 N 0.49372 0.65679 0.45651
 C1984 C 0.48824 0.66006 0.43071
 N1985 N 0.48230 0.64165 0.41561
 N1986 N 0.48206 0.62089 0.42566
 C1987 C 0.48856 0.59431 0.46148
 N1988 N 0.48580 0.57642 0.44452
 N1989 N 0.48767 0.55522 0.45290
 C1990 C 0.49212 0.55095 0.47865
 N1991 N 0.49481 0.56884 0.49574
 N1992 N 0.49306 0.59015 0.48731
 C1993 C 0.51523 0.88079 0.46744
 N1994 N 0.49893 0.86544 0.47420
 N1995 N 0.49789 0.84500 0.46243
 C1996 C 0.51307 0.83911 0.44339
 N1997 N 0.52954 0.85442 0.43696
 N1998 N 0.53058 0.87483 0.44870
 C1999 C 0.51517 0.90416 0.47832
 N2000 N 0.52992 0.91994 0.46891
 N2001 N 0.52845 0.94165 0.47641
 C2002 C 0.51238 0.94851 0.49384
 N2003 N 0.49781 0.93264 0.50359
 N2004 N 0.49921 0.91088 0.49602
 C2005 C 0.01517 0.38220 0.96168
 N2006 N 0.00156 0.36589 0.97219
 N2007 N 0.00067 0.34501 0.96152
 C2008 C 0.01338 0.33961 0.93998
 N2009 N 0.02720 0.35589 0.92981
 N2010 N 0.02803 0.37674 0.94038
 C2011 C 0.01473 0.40588 0.97151
 N2012 N 0.02487 0.42248 0.95733
 N2013 N 0.02302 0.44420 0.96457
 C2014 C 0.01130 0.45027 0.98653
 N2015 N 0.00124 0.43364 1.00090
 N2016 N 0.00293 0.41184 0.99353
 C2017 C 0.48530 0.37729 0.03137
 N2018 N 0.50184 0.36227 0.02506
 N2019 N 0.50295 0.34231 0.03706
 C2020 C 0.48755 0.33652 0.05582
 N2021 N 0.47081 0.35146 0.06180
 N2022 N 0.46975 0.37146 0.04989
 C2023 C 0.48539 0.40023 0.02012
 N2024 N 0.47177 0.41657 0.03036
 N2025 N 0.47348 0.43794 0.02223
 C2026 C 0.48860 0.44383 0.00331
 N2027 N 0.50199 0.42737 -0.00723
 N2028 N 0.50042 0.40599 0.00100
 C2029 C -0.01720 0.87971 0.53842
 N2030 N -0.00504 0.86258 0.52735
 N2031 N -0.00456 0.84219 0.53848
 C2032 C -0.01628 0.83810 0.56104
 N2033 N -0.02868 0.85520 0.57181
 N2034 N -0.02907 0.87559 0.56079
 C2035 C -0.01616 0.90284 0.52781
 N2036 N -0.02392 0.92058 0.54247
 N2037 N -0.02139 0.94181 0.53419
 C2038 C -0.01137 0.94620 0.51071
 N2039 N -0.00371 0.92843 0.49590
 N2040 N -0.00607 0.90714 0.50429
 C2041 C 0.22061 0.31482 0.14232
 N2042 N 0.22369 0.30445 0.11849
 N2043 N 0.22616 0.31669 0.09675
 C2044 C 0.22577 0.33977 0.09800
 N2045 N 0.22223 0.35006 0.12180
 N2046 N 0.21977 0.33784 0.14354
 C2047 C 0.22138 0.30170 0.16672
 N2048 N 0.22219 0.31261 0.19051
 N2049 N 0.22686 0.30128 0.21239
 C2050 C 0.23072 0.27859 0.21139
 N2051 N 0.22915 0.26756 0.18768
 N2052 N 0.22454 0.27889 0.16575
 C2053 C 0.71868 0.81384 0.63606
 N2054 N 0.71763 0.83684 0.63772
 N2055 N 0.72072 0.84941 0.61636
 C2056 C 0.72510 0.83950 0.59253
 N2057 N 0.72566 0.81645 0.59083
 N2058 N 0.72257 0.80387 0.61218
 C2059 C 0.71899 0.80027 0.66012
 N2060 N 0.72353 0.77774 0.65864
 N2061 N 0.72792 0.76615 0.68040
 C2062 C 0.72789 0.77662 0.70449
 N2063 N 0.72247 0.79895 0.70603
 N2064 N 0.71809 0.81057 0.68426
 C2065 C 0.28887 0.68077 0.64412
 N2066 N 0.28415 0.65817 0.64495
 N2067 N 0.28151 0.64600 0.62275
 C2068 C 0.28343 0.65592 0.59882
 N2069 N 0.28876 0.67844 0.59802
 N2070 N 0.29134 0.69065 0.62024
 C2071 C 0.28757 0.69471 0.66834
 N2072 N 0.28822 0.71774 0.66718
 N2073 N 0.28254 0.73042 0.68811
 C2074 C 0.27608 0.72054 0.71099
 N2075 N 0.27624 0.69754 0.71236
 N2076 N 0.28193 0.68486 0.69149
 C2077 C 0.78730 0.17466 0.14947
 N2078 N 0.77871 0.15320 0.15076
 N2079 N 0.77509 0.14086 0.12888
 C2080 C 0.77994 0.14945 0.10481
 N2081 N 0.78915 0.17071 0.10354
 N2082 N 0.79262 0.18314 0.12546
 C2083 C 0.78719 0.18937 0.17314
 N2084 N 0.78976 0.21224 0.17114
 N2085 N 0.78492 0.22594 0.19152
 C2086 C 0.77744 0.21725 0.21466
 N2087 N 0.77577 0.19435 0.21688
 N2088 N 0.78057 0.18067 0.19656
 C2089 C 0.71627 0.18704 0.87079
 N2090 N 0.72113 0.19631 0.89491
 N2091 N 0.72522 0.18310 0.91547
 C2092 C 0.72482 0.16010 0.91269
 N2093 N 0.71953 0.15088 0.88864
 N2094 N 0.71539 0.16407 0.86808
 C2095 C 0.71547 0.20143 0.84740
 N2096 N 0.71277 0.19197 0.82295
 N2097 N 0.71645 0.20423 0.80146
 C2098 C 0.72300 0.22637 0.80360
 N2099 N 0.72471 0.23604 0.82806
 N2100 N 0.72097 0.22383 0.84955
 C2101 C 0.21706 0.68596 0.36106
 N2102 N 0.21827 0.69571 0.38550
 N2103 N 0.22233 0.68315 0.40664
 C2104 C 0.22555 0.66039 0.40414
 N2105 N 0.22387 0.65062 0.37971
 N2106 N 0.21976 0.66315 0.35859
 C2107 C 0.21642 0.70011 0.33746
 N2108 N 0.21783 0.69034 0.31308
 N2109 N 0.22174 0.70300 0.29197
 C2110 C 0.22434 0.72587 0.29439
 N2111 N 0.22200 0.73570 0.31865
 N2112 N 0.21806 0.72307 0.33978
 C2113 C 0.78484 0.82154 0.35392
 N2114 N 0.78920 0.81275 0.37803
 N2115 N 0.78668 0.82539 0.39988
 C2116 C 0.77946 0.84720 0.39845
 N2117 N 0.77557 0.85606 0.37428
 N2118 N 0.77822 0.84350 0.35246
 C2119 C 0.78383 0.80686 0.33023
 N2120 N 0.77826 0.81583 0.30660
 N2121 N 0.77305 0.80238 0.28604
 C2122 C 0.77325 0.77944 0.28823
 N2123 N 0.77960 0.77045 0.31164
 N2124 N 0.78485 0.78390 0.33225
 C2125 C 0.28288 0.32227 0.85634
 N2126 N 0.28774 0.31337 0.88027
 N2127 N 0.28480 0.32562 0.90234
 C2128 C 0.27665 0.34711 0.90133
 N2129 N 0.27225 0.35609 0.87733
 N2130 N 0.27531 0.34393 0.85529
 C2131 C 0.28240 0.30789 0.83238
 N2132 N 0.27623 0.31694 0.80898
 N2133 N 0.27141 0.30357 0.78823
 C2134 C 0.27264 0.28063 0.78998
 N2135 N 0.27961 0.27161 0.81314
 N2136 N 0.28446 0.28499 0.83394
 C2137 C 0.77422 0.37274 0.77189
 N2138 N 0.76586 0.38775 0.75435
 N2139 N 0.77461 0.40868 0.75300
 C2140 C 0.79204 0.41540 0.76912
 N2141 N 0.80004 0.40047 0.78701
 N2142 N 0.79132 0.37954 0.78835
 C2143 C 0.76654 0.34895 0.77123
 N2144 N 0.77703 0.33337 0.78638
 N2145 N 0.77180 0.31138 0.78380
 C2146 C 0.75598 0.30414 0.76591
 N2147 N 0.74503 0.31979 0.75127
 N2148 N 0.75029 0.34180 0.75380
 C2149 C 0.27462 0.87426 0.27248
 N2150 N 0.26669 0.88956 0.25505
 N2151 N 0.27533 0.91057 0.25461
 C2152 C 0.29229 0.91716 0.27153
 N2153 N 0.29964 0.90190 0.28950
 N2154 N 0.29106 0.88087 0.28990
 C2155 C 0.26732 0.85040 0.27060
 N2156 N 0.27814 0.83437 0.28478
 N2157 N 0.27335 0.81240 0.28088
 C2158 C 0.25764 0.80567 0.26260
 N2159 N 0.24636 0.82175 0.24897
 N2160 N 0.25119 0.84372 0.25279
 C2161 C 0.21801 0.86674 0.72853
 N2162 N 0.22975 0.88419 0.74028
 N2163 N 0.22114 0.90504 0.74106
 C2164 C 0.20044 0.90920 0.73023
 N2165 N 0.18896 0.89177 0.71811
 N2166 N 0.19757 0.87097 0.71727
 C2167 C 0.22606 0.84332 0.73015
 N2168 N 0.21331 0.82596 0.71983
 N2169 N 0.21915 0.80448 0.72366
 C2170 C 0.23794 0.79953 0.73798
 N2171 N 0.25099 0.81691 0.74783
 N2172 N 0.24515 0.83842 0.74401
 C2173 C 0.72140 0.36541 0.22579
 N2174 N 0.73290 0.38316 0.23723
 N2175 N 0.72401 0.40390 0.23764
 C2176 C 0.70324 0.40765 0.22674
 N2177 N 0.69201 0.38991 0.21492
 N2178 N 0.70089 0.36923 0.21445
 C2179 C 0.72965 0.34207 0.22796
 N2180 N 0.71688 0.32445 0.21829
 N2181 N 0.72272 0.30310 0.22288
 C2182 C 0.74153 0.29850 0.23733
 N2183 N 0.75466 0.31613 0.24643
 N2184 N 0.74882 0.33753 0.24186
 C2185 C 0.72077 0.62925 0.26993
 N2186 N 0.73042 0.61344 0.25387
 N2187 N 0.72225 0.59224 0.25273
 C2188 C 0.70415 0.58598 0.26764
 N2189 N 0.69480 0.60174 0.28409
 N2190 N 0.70290 0.62298 0.28515
 C2191 C 0.72809 0.65317 0.26878
 N2192 N 0.71579 0.66968 0.28086
 N2193 N 0.72083 0.69155 0.27720
 C2194 C 0.73831 0.69772 0.26136
 N2195 N 0.75104 0.68115 0.24999
 N2196 N 0.74598 0.65931 0.25354
 C2197 C 0.22072 0.13050 0.77406
 N2198 N 0.23037 0.11451 0.75825
 N2199 N 0.22223 0.09330 0.75748
 C2200 C 0.20417 0.08721 0.77255
 N2201 N 0.19485 0.10313 0.78879
 N2202 N 0.20292 0.12438 0.78948
 C2203 C 0.22789 0.15439 0.77234
 N2204 N 0.21566 0.17102 0.78429
 N2205 N 0.22056 0.19283 0.78012
 C2206 C 0.23779 0.19882 0.76383
 N2207 N 0.25043 0.18216 0.75254
 N2208 N 0.24553 0.16036 0.75663
 C2209 C 0.28250 0.13447 0.23787
 N2210 N 0.27443 0.11898 0.25514
 N2211 N 0.28161 0.09762 0.25424
 C2212 C 0.29715 0.09090 0.23605
 N2213 N 0.30491 0.10637 0.21847
 N2214 N 0.29771 0.12775 0.21935
 C2215 C 0.27616 0.15839 0.24062
 N2216 N 0.28467 0.17428 0.22408
 N2217 N 0.28011 0.19621 0.22791
 C2218 C 0.26721 0.20306 0.24865
 N2219 N 0.25823 0.18707 0.26472
 N2220 N 0.26272 0.16517 0.26088
 C2221 C 0.77714 0.63141 0.73174
 N2222 N 0.77028 0.61597 0.74974
 N2223 N 0.77837 0.59493 0.74909
 C2224 C 0.79365 0.58852 0.73044
 N2225 N 0.80015 0.60390 0.71214
 N2226 N 0.79206 0.62494 0.71277
 C2227 C 0.77020 0.65517 0.73423
 N2228 N 0.77824 0.67096 0.71729
 N2229 N 0.77362 0.69287 0.72101
 C2230 C 0.76108 0.69982 0.74199
 N2231 N 0.75245 0.68392 0.75844
 N2232 N 0.75704 0.66201 0.75473
 C2233 C 0.86563 0.76327 0.20204
 N2234 N 0.88375 0.75658 0.21660
 N2235 N 0.90451 0.75586 0.20601
 C2236 C 0.90802 0.76174 0.18039
 N2237 N 0.88978 0.76868 0.16613
 N2238 N 0.86911 0.76938 0.17666
 C2239 C 0.84230 0.76275 0.21259
 N2240 N 0.82453 0.76665 0.19618
 N2241 N 0.80323 0.76487 0.20470
 C2242 C 0.79872 0.75941 0.23009
 N2243 N 0.81650 0.75561 0.24666
 N2244 N 0.83790 0.75727 0.23808
 C2245 C 0.36505 0.26358 0.70346
 N2246 N 0.38330 0.25771 0.71833
 N2247 N 0.40405 0.25694 0.70773
 C2248 C 0.40735 0.26201 0.68187
 N2249 N 0.38906 0.26806 0.66723
 N2250 N 0.36838 0.26879 0.67776
 C2251 C 0.34175 0.26315 0.71408
 N2252 N 0.32393 0.26622 0.69749
 N2253 N 0.30266 0.26454 0.70612
 C2254 C 0.29824 0.26001 0.73179
 N2255 N 0.31606 0.25703 0.74854
 N2256 N 0.33744 0.25860 0.73984
 C2257 C 0.36670 0.73598 0.79799
 N2258 N 0.37038 0.73013 0.82343
 N2259 N 0.39132 0.73024 0.83350
 C2260 C 0.40951 0.73627 0.81862
 N2261 N 0.40585 0.74199 0.79304
 N2262 N 0.38484 0.74183 0.78290
 C2263 C 0.34327 0.73698 0.78776
 N2264 N 0.33885 0.74164 0.76205
 N2265 N 0.31744 0.74341 0.75348
 C2266 C 0.29973 0.74061 0.77032
 N2267 N 0.30424 0.73599 0.79597
 N2268 N 0.32555 0.73410 0.80448
 C2269 C 0.86899 0.23455 0.30032
 N2270 N 0.87261 0.22930 0.32596
 N2271 N 0.89354 0.22949 0.33604
 C2272 C 0.91177 0.23503 0.32097
 N2273 N 0.90816 0.24015 0.29519
 N2274 N 0.88716 0.23989 0.28504
 C2275 C 0.84558 0.23554 0.29008
 N2276 N 0.84118 0.23957 0.26421
 N2277 N 0.81979 0.24141 0.25562
 C2278 C 0.80208 0.23931 0.27259
 N2279 N 0.80657 0.23533 0.29840
 N2280 N 0.82786 0.23336 0.30694
 C2281 C 0.13448 0.26458 0.29302
 N2282 N 0.12913 0.27685 0.31497
 N2283 N 0.10828 0.27594 0.32498
 C2284 C 0.09186 0.26260 0.31359
 N2285 N 0.09714 0.25048 0.29139
 N2286 N 0.11805 0.25149 0.28124
 C2287 C 0.15818 0.26430 0.28387
 N2288 N 0.16411 0.25461 0.26036
 N2289 N 0.18593 0.25354 0.25326
 C2290 C 0.20257 0.26207 0.26944
 N2291 N 0.19653 0.27150 0.29297
 N2292 N 0.17481 0.27278 0.29993
 C2293 C 0.63098 0.76467 0.78694
 N2294 N 0.61490 0.74996 0.77728
 N2295 N 0.59436 0.74880 0.78834
 C2296 C 0.58909 0.76230 0.80945
 N2297 N 0.60514 0.77720 0.81875
 N2298 N 0.62564 0.77833 0.80778
 C2299 C 0.65442 0.76462 0.77681
 N2300 N 0.67092 0.77638 0.79011
 N2301 N 0.69256 0.77490 0.78284
 C2302 C 0.69866 0.76194 0.76171
 N2303 N 0.68211 0.75027 0.74821
 N2304 N 0.66038 0.75160 0.75559
 C2305 C 0.62714 0.23618 0.71725
 N2306 N 0.61177 0.25196 0.72501
 N2307 N 0.59150 0.25307 0.71317
 C2308 C 0.58577 0.23844 0.69311
 N2309 N 0.60109 0.22248 0.68566
 N2310 N 0.62136 0.22141 0.69742
 C2311 C 0.65032 0.23628 0.72847
 N2312 N 0.66667 0.22317 0.71739
 N2313 N 0.68820 0.22494 0.72555
 C2314 C 0.69425 0.23965 0.74534
 N2315 N 0.67781 0.25251 0.75671
 N2316 N 0.65626 0.25084 0.74848
 C2317 C 0.12923 0.73730 0.20999
 N2318 N 0.11275 0.75013 0.22130
 N2319 N 0.09196 0.75080 0.21064
 C2320 C 0.08681 0.73858 0.18834
 N2321 N 0.10328 0.72554 0.17733
 N2322 N 0.12405 0.72497 0.18786
 C2323 C 0.15277 0.73795 0.22014
 N2324 N 0.16981 0.72928 0.20523
 N2325 N 0.19138 0.73135 0.21307
 C2326 C 0.19684 0.74180 0.23636
 N2327 N 0.17977 0.75036 0.25141
 N2328 N 0.15814 0.74846 0.24346
   
