data_POSCAR
  _audit_creation_date              2014-09-24
  _audit_creation_method            'ToBaCCo'
  _symmetry_space_group_name_H-M    'P1'
  _symmetry_Int_Tables_number       1
  _symmetry_cell_setting            triclinic
  loop_
  _symmetry_equiv_pos_as_xyz
 x,y,z
_cell_length_a 92.7339
_cell_length_b 92.8036
_cell_length_c 92.9353
_cell_angle_alpha 89.986200
_cell_angle_beta 89.986700
_cell_angle_gamma 89.949900
loop_
  _atom_site_label
  _atom_site_type_symbol
  _atom_site_fract_x
  _atom_site_fract_y
  _atom_site_fract_z
N1 N 0.36153 0.32151 0.33175
 N2 N 0.36140 0.33161 0.32181
 C3 C 0.37251 0.32943 0.31271
 C4 C 0.37990 0.31738 0.31727
 C5 C 0.37273 0.31258 0.32933
 H6 H 0.37504 0.33605 0.30348
 H7 H 0.37546 0.30332 0.33585
 Cu8 Cu 0.34657 0.34644 0.32183
 Cu9 Cu 0.34717 0.32059 0.34704
 Cu10 Cu 0.32069 0.34705 0.34703
 N11 N 0.33172 0.36126 0.32179
 N12 N 0.32160 0.36140 0.33172
 C13 C 0.31266 0.37258 0.32929
 C14 C 0.31747 0.37974 0.31723
 C15 C 0.32954 0.37235 0.31268
 H16 H 0.30339 0.37531 0.33580
 H17 H 0.33617 0.37488 0.30345
 N18 N 0.32163 0.33161 0.36158
 N19 N 0.33171 0.32154 0.36159
 C20 C 0.32944 0.31260 0.37279
 C21 C 0.31740 0.31731 0.38007
 C22 C 0.31268 0.32933 0.37278
 H23 H 0.33602 0.30335 0.37547
 H24 H 0.30342 0.33590 0.37545
 H25 H 0.33085 0.33073 0.33578
 H26 H 0.34244 0.34232 0.34739
 N27 N 0.36190 0.82161 -0.16854
 N28 N 0.36176 0.83170 -0.17850
 C29 C 0.37289 0.82952 -0.18758
 C30 C 0.38029 0.81748 -0.18297
 C31 C 0.37311 0.81268 -0.17091
 H32 H 0.37545 0.83614 -0.19682
 H33 H 0.37583 0.80343 -0.16437
 Cu34 Cu 0.34690 0.84656 -0.17847
 Cu35 Cu 0.34754 0.82069 -0.15324
 Cu36 Cu 0.32103 0.84713 -0.15328
 N37 N 0.33201 0.86139 -0.17855
 N38 N 0.32189 0.86152 -0.16860
 C39 C 0.31294 0.87271 -0.17102
 C40 C 0.31775 0.87989 -0.18309
 C41 C 0.32982 0.87249 -0.18765
 H42 H 0.30367 0.87541 -0.16449
 H43 H 0.33647 0.87504 -0.19688
 N44 N 0.32198 0.83168 -0.13869
 N45 N 0.33208 0.82162 -0.13869
 C46 C 0.32981 0.81267 -0.12749
 C47 C 0.31777 0.81735 -0.12020
 C48 C 0.31303 0.82938 -0.12749
 H49 H 0.33640 0.80343 -0.12482
 H50 H 0.30376 0.83592 -0.12481
 H51 H 0.33125 0.83078 -0.16450
 H52 H 0.34282 0.84238 -0.15290
 N53 N 0.86127 0.32203 -0.16840
 N54 N 0.86111 0.33211 -0.17837
 C55 C 0.87228 0.32999 -0.18740
 C56 C 0.87972 0.31798 -0.18279
 C57 C 0.87252 0.31316 -0.17075
 H58 H 0.87487 0.33666 -0.19659
 H59 H 0.87527 0.30392 -0.16421
 Cu60 Cu 0.84628 0.34695 -0.17836
 Cu61 Cu 0.84691 0.32113 -0.15311
 Cu62 Cu 0.82046 0.34762 -0.15309
 N63 N 0.83146 0.36180 -0.17836
 N64 N 0.82138 0.36198 -0.16838
 C65 C 0.81252 0.37325 -0.17072
 C66 C 0.81737 0.38042 -0.18277
 C67 C 0.82937 0.37297 -0.18739
 H68 H 0.80328 0.37601 -0.16417
 H69 H 0.83605 0.37554 -0.19658
 N70 N 0.82137 0.33214 -0.13857
 N71 N 0.83144 0.32205 -0.13858
 C72 C 0.82914 0.31309 -0.12740
 C73 C 0.81711 0.31780 -0.12011
 C74 C 0.81240 0.32985 -0.12738
 H75 H 0.83571 0.30384 -0.12473
 H76 H 0.80316 0.33643 -0.12469
 H77 H 0.83059 0.33130 -0.16427
 H78 H 0.84224 0.34291 -0.15276
 N79 N 0.86131 0.82191 0.33163
 N80 N 0.86117 0.83201 0.32169
 C81 C 0.87229 0.82984 0.31259
 C82 C 0.87968 0.81779 0.31716
 C83 C 0.87251 0.81299 0.32922
 H84 H 0.87483 0.83646 0.30336
 H85 H 0.87523 0.80371 0.33573
 Cu86 Cu 0.84634 0.84684 0.32170
 Cu87 Cu 0.84695 0.82100 0.34692
 Cu88 Cu 0.82046 0.84745 0.34691
 N89 N 0.83150 0.86166 0.32167
 N90 N 0.82137 0.86180 0.33160
 C91 C 0.81244 0.87298 0.32918
 C92 C 0.81726 0.88013 0.31711
 C93 C 0.82933 0.87275 0.31255
 H94 H 0.80315 0.87570 0.33569
 H95 H 0.83597 0.87529 0.30332
 N96 N 0.82140 0.83201 0.36146
 N97 N 0.83149 0.82194 0.36146
 C98 C 0.82922 0.81301 0.37267
 C99 C 0.81719 0.81772 0.37996
 C100 C 0.81246 0.82974 0.37267
 H101 H 0.83581 0.80377 0.37536
 H102 H 0.80321 0.83631 0.37535
 H103 H 0.83061 0.83114 0.33565
 H104 H 0.84220 0.84273 0.34726
 N105 N 0.63851 0.67849 0.33182
 N106 N 0.63868 0.66844 0.32183
 C107 C 0.62753 0.67059 0.31278
 C108 C 0.62010 0.68258 0.31741
 C109 C 0.62727 0.68737 0.32947
 H110 H 0.62492 0.66393 0.30359
 H111 H 0.62451 0.69659 0.33603
 Cu112 Cu 0.65335 0.65345 0.32185
 Cu113 Cu 0.65284 0.67935 0.34712
 Cu114 Cu 0.67928 0.65295 0.34711
 N115 N 0.66837 0.63880 0.32181
 N116 N 0.67843 0.63863 0.33180
 C117 C 0.68733 0.62741 0.32944
 C118 C 0.68254 0.62024 0.31738
 C119 C 0.67053 0.62766 0.31276
 H120 H 0.69657 0.62466 0.33599
 H121 H 0.66387 0.62505 0.30358
 N122 N 0.67834 0.66835 0.36168
 N123 N 0.66825 0.67841 0.36168
 C124 C 0.67054 0.68738 0.37285
 C125 C 0.68259 0.68269 0.38012
 C126 C 0.68731 0.67065 0.37285
 H127 H 0.66397 0.69663 0.37552
 H128 H 0.69657 0.66409 0.37552
 H129 H 0.66903 0.66913 0.33585
 H130 H 0.65744 0.65753 0.34747
 N131 N 0.63859 0.17823 -0.16832
 N132 N 0.63873 0.16815 -0.17828
 C133 C 0.62758 0.17034 -0.18734
 C134 C 0.62017 0.18237 -0.18272
 C135 C 0.62737 0.18713 -0.17067
 H136 H 0.62498 0.16371 -0.19654
 H137 H 0.62461 0.19634 -0.16409
 Cu138 Cu 0.65343 0.15316 -0.17828
 Cu139 Cu 0.65292 0.17910 -0.15303
 Cu140 Cu 0.67938 0.15271 -0.15306
 N141 N 0.66847 0.13848 -0.17832
 N142 N 0.67857 0.13835 -0.16837
 C143 C 0.68750 0.12715 -0.17075
 C144 C 0.68271 0.11997 -0.18281
 C145 C 0.67065 0.12735 -0.18741
 H146 H 0.69673 0.12441 -0.16418
 H147 H 0.66399 0.12478 -0.19660
 N148 N 0.67844 0.16813 -0.13847
 N149 N 0.66834 0.17818 -0.13847
 C150 C 0.67060 0.18715 -0.12729
 C151 C 0.68265 0.18248 -0.12000
 C152 C 0.68739 0.17045 -0.12728
 H153 H 0.66401 0.19639 -0.12463
 H154 H 0.69667 0.16391 -0.12460
 H155 H 0.66907 0.16892 -0.16436
 H156 H 0.65750 0.15732 -0.15268
 N157 N 0.13850 0.67840 -0.16821
 N158 N 0.13862 0.66828 -0.17813
 C159 C 0.12751 0.67047 -0.18723
 C160 C 0.12014 0.68253 -0.18268
 C161 C 0.12732 0.68734 -0.17063
 H162 H 0.12496 0.66385 -0.19645
 H163 H 0.12460 0.69662 -0.16413
 Cu164 Cu 0.15342 0.65343 -0.17810
 Cu165 Cu 0.15286 0.67931 -0.15292
 Cu166 Cu 0.17930 0.65282 -0.15292
 N167 N 0.16824 0.63860 -0.17812
 N168 N 0.17837 0.63846 -0.16820
 C169 C 0.18728 0.62726 -0.17062
 C170 C 0.18246 0.62010 -0.18266
 C171 C 0.17040 0.62750 -0.18722
 H172 H 0.19656 0.62452 -0.16411
 H173 H 0.16377 0.62496 -0.19644
 N174 N 0.17839 0.66827 -0.13839
 N175 N 0.16832 0.67836 -0.13839
 C176 C 0.17061 0.68731 -0.12721
 C177 C 0.18264 0.68258 -0.11993
 C178 C 0.18734 0.67054 -0.12720
 H179 H 0.16405 0.69656 -0.12453
 H180 H 0.19659 0.66397 -0.12452
 H181 H 0.16917 0.66914 -0.16418
 H182 H 0.15757 0.65758 -0.15255
 N183 N 0.13845 0.17842 0.33176
 N184 N 0.13864 0.16836 0.32178
 C185 C 0.12747 0.17047 0.31274
 C186 C 0.12002 0.18247 0.31736
 C187 C 0.12719 0.18727 0.32941
 H188 H 0.12490 0.16382 0.30354
 H189 H 0.12442 0.19650 0.33596
 Cu190 Cu 0.15348 0.15355 0.32177
 Cu191 Cu 0.15280 0.17932 0.34705
 Cu192 Cu 0.17929 0.15288 0.34703
 N193 N 0.16831 0.13873 0.32175
 N194 N 0.17839 0.13854 0.33172
 C195 C 0.18726 0.12730 0.32936
 C196 C 0.18244 0.12014 0.31730
 C197 C 0.17043 0.12757 0.31271
 H198 H 0.19650 0.12453 0.33590
 H199 H 0.16376 0.12501 0.30351
 N200 N 0.17835 0.16832 0.36156
 N201 N 0.16827 0.17839 0.36157
 C202 C 0.17055 0.18733 0.37276
 C203 C 0.18259 0.18262 0.38003
 C204 C 0.18731 0.17060 0.37275
 H205 H 0.16397 0.19657 0.37544
 H206 H 0.19657 0.16403 0.37542
 H207 H 0.16912 0.16919 0.33586
 H208 H 0.15748 0.15753 0.34737
 N209 N 0.63843 0.32163 0.66821
 N210 N 0.63855 0.33172 0.67816
 C211 C 0.62737 0.32958 0.68719
 C212 C 0.61999 0.31755 0.68260
 C213 C 0.62721 0.31274 0.67056
 H214 H 0.62481 0.33619 0.69642
 H215 H 0.62450 0.30348 0.66403
 Cu216 Cu 0.65347 0.34646 0.67839
 Cu217 Cu 0.65285 0.32069 0.65298
 Cu218 Cu 0.67928 0.34706 0.65299
 N219 N 0.66824 0.36135 0.67817
 N220 N 0.67835 0.36147 0.66823
 C221 C 0.68725 0.37268 0.67059
 C222 C 0.68244 0.37989 0.68262
 C223 C 0.67038 0.37252 0.68720
 H224 H 0.69652 0.37538 0.66406
 H225 H 0.66376 0.37508 0.69643
 N226 N 0.67841 0.33160 0.63848
 N227 N 0.66833 0.32154 0.63848
 C228 C 0.67060 0.31260 0.62728
 C229 C 0.68264 0.31729 0.61999
 C230 C 0.68736 0.32931 0.62728
 H231 H 0.66401 0.30338 0.62458
 H232 H 0.69660 0.33588 0.62458
 H233 H 0.66916 0.33076 0.66428
 H234 H 0.65750 0.34244 0.65279
 N235 N 0.63846 0.82182 1.16831
 N236 N 0.63865 0.83187 1.17830
 C237 C 0.62751 0.82975 1.18737
 C238 C 0.62007 0.81777 1.18276
 C239 C 0.62721 0.81297 1.17068
 H240 H 0.62498 0.83636 1.19662
 H241 H 0.62446 0.80374 1.16414
 Cu242 Cu 0.65353 0.84659 1.17835
 Cu243 Cu 0.65288 0.82084 1.15307
 Cu244 Cu 0.67963 0.84695 1.15335
 N245 N 0.66841 0.86131 1.17841
 N246 N 0.67866 0.86130 1.16860
 C247 C 0.68756 0.87249 1.17099
 C248 C 0.68258 0.87982 1.18287
 C249 C 0.67045 0.87255 1.18736
 H250 H 0.69690 0.87513 1.16454
 H251 H 0.66366 0.87528 1.19643
 N252 N 0.67870 0.83154 1.13882
 N253 N 0.66844 0.82166 1.13863
 C254 C 0.67066 0.81281 1.12735
 C255 C 0.68283 0.81739 1.12022
 C256 C 0.68770 0.82923 1.12768
 H257 H 0.66393 0.80375 1.12448
 H258 H 0.69706 0.83568 1.12512
 H259 H 0.66922 0.83078 1.16444
 H260 H 0.65784 0.84258 1.15280
 N261 N 0.13851 0.32182 1.16834
 N262 N 0.13867 0.33192 1.17828
 C263 C 0.12750 0.32983 1.18733
 C264 C 0.12008 0.31783 1.18275
 C265 C 0.12726 0.31298 1.17071
 H266 H 0.12492 0.33651 1.19651
 H267 H 0.12451 0.30373 1.16419
 Cu268 Cu 0.15348 0.34671 1.17826
 Cu269 Cu 0.15289 0.32089 1.15306
 Cu270 Cu 0.17935 0.34731 1.15303
 N271 N 0.16829 0.36150 1.17824
 N272 N 0.17839 0.36165 1.16829
 C273 C 0.18725 0.37288 1.17064
 C274 C 0.18241 0.38006 1.18267
 C275 C 0.17039 0.37266 1.18728
 H276 H 0.19650 0.37563 1.16410
 H277 H 0.16372 0.37526 1.19646
 N278 N 0.17844 0.33185 1.13854
 N279 N 0.16837 0.32178 1.13854
 C280 C 0.17067 0.31283 1.12736
 C281 C 0.18271 0.31754 1.12009
 C282 C 0.18741 0.32956 1.12736
 H283 H 0.16410 0.30359 1.12467
 H284 H 0.19665 0.33614 1.12467
 H285 H 0.16923 0.33106 1.16425
 H286 H 0.15760 0.34268 1.15269
 N287 N 0.13860 0.82177 0.66824
 N288 N 0.13875 0.83185 0.67820
 C289 C 0.12764 0.82970 0.68729
 C290 C 0.12024 0.81768 0.68272
 C291 C 0.12739 0.81288 0.67064
 H292 H 0.12509 0.83634 0.69650
 H293 H 0.12463 0.80366 0.66409
 Cu294 Cu 0.15340 0.84682 0.67816
 Cu295 Cu 0.15293 0.82092 0.65294
 Cu296 Cu 0.17936 0.84730 0.65292
 N297 N 0.16840 0.86144 0.67818
 N298 N 0.17849 0.86158 0.66822
 C299 C 0.18741 0.87276 0.67061
 C300 C 0.18261 0.87991 0.68268
 C301 C 0.17058 0.87254 0.68726
 H302 H 0.19664 0.87552 0.66405
 H303 H 0.16394 0.87511 0.69648
 N304 N 0.17841 0.83192 0.63838
 N305 N 0.16834 0.82186 0.63838
 C306 C 0.17063 0.81293 0.62718
 C307 C 0.18267 0.81764 0.61990
 C308 C 0.18737 0.82966 0.62719
 H309 H 0.16407 0.80368 0.62449
 H310 H 0.19663 0.83622 0.62453
 H311 H 0.16917 0.83115 0.66427
 H312 H 0.15758 0.84275 0.65260
 N313 N 0.36149 0.67843 0.66829
 N314 N 0.36133 0.66836 0.67825
 C315 C 0.37250 0.67047 0.68729
 C316 C 0.37992 0.68248 0.68269
 C317 C 0.37273 0.68730 0.67065
 H318 H 0.37508 0.66381 0.69649
 H319 H 0.37548 0.69653 0.66410
 Cu320 Cu 0.34650 0.65353 0.67824
 Cu321 Cu 0.34713 0.67935 0.65299
 Cu322 Cu 0.32070 0.65290 0.65297
 N323 N 0.33168 0.63869 0.67823
 N324 N 0.32161 0.63853 0.66825
 C325 C 0.31275 0.62728 0.67060
 C326 C 0.31757 0.62008 0.68264
 C327 C 0.32957 0.62751 0.68726
 H328 H 0.30353 0.62453 0.66404
 H329 H 0.33623 0.62493 0.69646
 N330 N 0.32161 0.66837 0.63844
 N331 N 0.33167 0.67844 0.63845
 C332 C 0.32938 0.68741 0.62727
 C333 C 0.31735 0.68271 0.61998
 C334 C 0.31265 0.67067 0.62726
 H335 H 0.33594 0.69665 0.62459
 H336 H 0.30341 0.66410 0.62457
 H337 H 0.33083 0.66919 0.66416
 H338 H 0.34249 0.65757 0.65264
 N339 N 0.36151 0.17819 1.16832
 N340 N 0.36136 0.16811 1.17828
 C341 C 0.37248 0.17025 1.18736
 C342 C 0.37989 0.18227 1.18277
 C343 C 0.37273 0.18708 1.17071
 H344 H 0.37505 0.16359 1.19655
 H345 H 0.37549 0.19631 1.16417
 Cu346 Cu 0.34673 0.15313 1.17825
 Cu347 Cu 0.34717 0.17906 1.15303
 Cu348 Cu 0.32075 0.15268 1.15302
 N349 N 0.33173 0.13853 1.17827
 N350 N 0.32164 0.13839 1.16831
 C351 C 0.31273 0.12720 1.17069
 C352 C 0.31753 0.12004 1.18274
 C353 C 0.32956 0.12741 1.18734
 H354 H 0.30349 0.12445 1.16414
 H355 H 0.33622 0.12482 1.19653
 N356 N 0.32169 0.16807 1.13849
 N357 N 0.33176 0.17814 1.13848
 C358 C 0.32944 0.18709 1.12730
 C359 C 0.31739 0.18239 1.12004
 C360 C 0.31271 0.17036 1.12732
 H361 H 0.33599 0.19635 1.12462
 H362 H 0.30345 0.16380 1.12467
 H363 H 0.33094 0.16880 1.16436
 H364 H 0.34253 0.15722 1.15267
 N365 N 0.86143 0.67826 1.16834
 N366 N 0.86128 0.66815 1.17827
 C367 C 0.87241 0.67026 1.18735
 C368 C 0.87982 0.68229 1.18281
 C369 C 0.87265 0.68713 1.17076
 H370 H 0.87496 0.66359 1.19656
 H371 H 0.87539 0.69640 1.16425
 Cu372 Cu 0.84649 0.65333 1.17829
 Cu373 Cu 0.84706 0.67917 1.15307
 Cu374 Cu 0.82061 0.65273 1.15305
 N375 N 0.83167 0.63855 1.17825
 N376 N 0.82156 0.63840 1.16832
 C377 C 0.81268 0.62720 1.17071
 C378 C 0.81752 0.62004 1.18276
 C379 C 0.82955 0.62742 1.18732
 H380 H 0.80341 0.62446 1.16420
 H381 H 0.83620 0.62486 1.19653
 N382 N 0.82153 0.66819 1.13855
 N383 N 0.83160 0.67826 1.13855
 C384 C 0.82930 0.68720 1.12735
 C385 C 0.81727 0.68248 1.12008
 C386 C 0.81257 0.67046 1.12736
 H387 H 0.83586 0.69644 1.12466
 H388 H 0.80334 0.66388 1.12468
 H389 H 0.83071 0.66899 1.16429
 H390 H 0.84233 0.65739 1.15270
 N391 N 0.86140 0.17819 0.66825
 N392 N 0.86127 0.16808 0.67818
 C393 C 0.87236 0.17024 0.68730
 C394 C 0.87974 0.18228 0.68275
 C395 C 0.87259 0.18710 0.67068
 H396 H 0.87489 0.16361 0.69653
 H397 H 0.87531 0.19638 0.66418
 Cu398 Cu 0.84647 0.15327 0.67816
 Cu399 Cu 0.84704 0.17909 0.65295
 Cu400 Cu 0.82061 0.15265 0.65294
 N401 N 0.83166 0.13848 0.67817
 N402 N 0.82156 0.13833 0.66823
 C403 C 0.81264 0.12715 0.67064
 C404 C 0.81747 0.12001 0.68270
 C405 C 0.82950 0.12738 0.68727
 H406 H 0.80337 0.12443 0.66414
 H407 H 0.83613 0.12484 0.69650
 N408 N 0.82154 0.16807 0.63841
 N409 N 0.83160 0.17815 0.63841
 C410 C 0.82931 0.18708 0.62720
 C411 C 0.81728 0.18235 0.61993
 C412 C 0.81259 0.17033 0.62722
 H413 H 0.83587 0.19632 0.62451
 H414 H 0.80335 0.16375 0.62454
 H415 H 0.83068 0.16892 0.66422
 H416 H 0.84231 0.15732 0.65261
 N417 N 0.32151 0.36146 0.66825
 N418 N 0.33159 0.36130 0.67821
 C419 C 0.32943 0.37243 0.68728
 C420 C 0.31741 0.37985 0.68267
 C421 C 0.31261 0.37268 0.67062
 H422 H 0.33609 0.37501 0.69647
 H423 H 0.30337 0.37544 0.66406
 Cu424 Cu 0.34660 0.34665 0.67819
 Cu425 Cu 0.32065 0.34714 0.65295
 Cu426 Cu 0.34708 0.32071 0.65296
 N427 N 0.36125 0.33164 0.67822
 N428 N 0.36140 0.32156 0.66826
 C429 C 0.37262 0.31265 0.67063
 C430 C 0.37979 0.31745 0.68269
 C431 C 0.37238 0.32946 0.68729
 H432 H 0.37537 0.30342 0.66408
 H433 H 0.37497 0.33612 0.69648
 N434 N 0.33166 0.32165 0.63840
 N435 N 0.32159 0.33172 0.63840
 C436 C 0.31262 0.32943 0.62722
 C437 C 0.31733 0.31738 0.61995
 C438 C 0.32937 0.31268 0.62723
 H439 H 0.30335 0.33598 0.62455
 H440 H 0.33593 0.30342 0.62457
 H441 H 0.33087 0.33093 0.66426
 H442 H 0.34246 0.34250 0.65260
 N443 N 0.32178 0.86175 0.16801
 N444 N 0.33190 0.86161 0.17794
 C445 C 0.32973 0.87273 0.18702
 C446 C 0.31768 0.88012 0.18245
 C447 C 0.31286 0.87294 0.17041
 H448 H 0.33637 0.87528 0.19624
 H449 H 0.30358 0.87567 0.16390
 Cu450 Cu 0.34672 0.84679 0.17796
 Cu451 Cu 0.32086 0.84737 0.15274
 Cu452 Cu 0.34732 0.82090 0.15279
 N453 N 0.36153 0.83195 0.17799
 N454 N 0.36167 0.82183 0.16808
 C455 C 0.37286 0.81290 0.17051
 C456 C 0.38002 0.81772 0.18256
 C457 C 0.37264 0.82979 0.18709
 H458 H 0.37558 0.80362 0.16402
 H459 H 0.37518 0.83642 0.19631
 N460 N 0.33187 0.82183 0.13824
 N461 N 0.32179 0.83191 0.13823
 C462 C 0.31285 0.82962 0.12703
 C463 C 0.31756 0.81758 0.11977
 C464 C 0.32959 0.81287 0.12706
 H465 H 0.30360 0.83619 0.12434
 H466 H 0.33617 0.80362 0.12440
 H467 H 0.33100 0.83107 0.16403
 H468 H 0.34260 0.84263 0.15240
 N469 N 0.82170 0.36172 0.16810
 N470 N 0.83179 0.36158 0.17805
 C471 C 0.82962 0.37270 0.18712
 C472 C 0.81759 0.38011 0.18253
 C473 C 0.81279 0.37294 0.17047
 H474 H 0.83629 0.37528 0.19631
 H475 H 0.80356 0.37571 0.16392
 Cu476 Cu 0.84682 0.34695 0.17804
 Cu477 Cu 0.82084 0.34740 0.15282
 Cu478 Cu 0.84724 0.32096 0.15284
 N479 N 0.86143 0.33190 0.17808
 N480 N 0.86156 0.32181 0.16814
 C481 C 0.87277 0.31288 0.17053
 C482 C 0.87994 0.31768 0.18259
 C483 C 0.87255 0.32972 0.18716
 H484 H 0.87552 0.30365 0.16399
 H485 H 0.87513 0.33638 0.19635
 N486 N 0.83183 0.32190 0.13828
 N487 N 0.82176 0.33199 0.13827
 C488 C 0.81280 0.32970 0.12709
 C489 C 0.81750 0.31765 0.11982
 C490 C 0.82954 0.31294 0.12710
 H491 H 0.80354 0.33626 0.12441
 H492 H 0.83609 0.30367 0.12445
 H493 H 0.83106 0.33122 0.16417
 H494 H 0.84264 0.34276 0.15247
 N495 N 0.82178 0.86179 0.66811
 N496 N 0.83185 0.86161 0.67808
 C497 C 0.82977 0.87280 0.68709
 C498 C 0.81777 0.88025 0.68248
 C499 C 0.81293 0.87307 0.67045
 H500 H 0.83645 0.87538 0.69628
 H501 H 0.80368 0.87583 0.66392
 Cu502 Cu 0.84665 0.84675 0.67809
 Cu503 Cu 0.82084 0.84742 0.65284
 Cu504 Cu 0.84730 0.82094 0.65285
 N505 N 0.86150 0.83195 0.67810
 N506 N 0.86167 0.82187 0.66813
 C507 C 0.87294 0.81301 0.67049
 C508 C 0.88012 0.81785 0.68253
 C509 C 0.87268 0.82985 0.68712
 H510 H 0.87569 0.80377 0.66397
 H511 H 0.87526 0.83653 0.69631
 N512 N 0.83182 0.82186 0.63834
 N513 N 0.82175 0.83194 0.63834
 C514 C 0.81277 0.82964 0.62717
 C515 C 0.81747 0.81759 0.61990
 C516 C 0.82952 0.81289 0.62718
 H517 H 0.80353 0.83622 0.62448
 H518 H 0.83609 0.80364 0.62450
 H519 H 0.83099 0.83111 0.66401
 H520 H 0.84264 0.84272 0.65250
 N521 N 0.67842 0.63846 0.66841
 N522 N 0.66835 0.63863 0.67838
 C523 C 0.67045 0.62745 0.68741
 C524 C 0.68247 0.62001 0.68280
 C525 C 0.68729 0.62720 0.67076
 H526 H 0.66379 0.62488 0.69660
 H527 H 0.69653 0.62444 0.66421
 Cu528 Cu 0.65351 0.65347 0.67839
 Cu529 Cu 0.67934 0.65283 0.65312
 Cu530 Cu 0.65287 0.67930 0.65314
 N531 N 0.63867 0.66831 0.67840
 N532 N 0.63850 0.67839 0.66843
 C533 C 0.62725 0.68725 0.67079
 C534 C 0.62006 0.68244 0.68284
 C535 C 0.62749 0.67042 0.68743
 H536 H 0.62449 0.69649 0.66425
 H537 H 0.62491 0.66376 0.69663
 N538 N 0.66834 0.67839 0.63860
 N539 N 0.67842 0.66831 0.63860
 C540 C 0.68739 0.67061 0.62741
 C541 C 0.68268 0.68266 0.62014
 C542 C 0.67064 0.68736 0.62743
 H543 H 0.69664 0.66404 0.62472
 H544 H 0.66406 0.69661 0.62476
 H545 H 0.66917 0.66914 0.66431
 H546 H 0.65753 0.65752 0.65279
 N547 N 0.67850 0.13814 0.16814
 N548 N 0.66841 0.13830 0.17810
 C549 C 0.67050 0.12711 0.18712
 C550 C 0.68252 0.11967 0.18252
 C551 C 0.68735 0.12687 0.17049
 H552 H 0.66383 0.12452 0.19631
 H553 H 0.69660 0.12412 0.16394
 Cu554 Cu 0.65356 0.15311 0.17816
 Cu555 Cu 0.67942 0.15252 0.15288
 Cu556 Cu 0.65295 0.17898 0.15291
 N557 N 0.63874 0.16796 0.17814
 N558 N 0.63858 0.17805 0.16818
 C559 C 0.62732 0.18691 0.17056
 C560 C 0.62013 0.18207 0.18259
 C561 C 0.62756 0.17006 0.18717
 H562 H 0.62456 0.19616 0.16402
 H563 H 0.62497 0.16338 0.19636
 N564 N 0.66843 0.17809 0.13839
 N565 N 0.67851 0.16802 0.13837
 C566 C 0.68748 0.17033 0.12720
 C567 C 0.68277 0.18238 0.11994
 C568 C 0.67073 0.18707 0.12722
 H569 H 0.69673 0.16376 0.12450
 H570 H 0.66415 0.19632 0.12456
 H571 H 0.66925 0.16880 0.16409
 H572 H 0.65762 0.15720 0.15254
 N573 N 0.17825 0.63838 0.16805
 N574 N 0.16813 0.63853 0.17798
 C575 C 0.17024 0.62738 0.18705
 C576 C 0.18228 0.61997 0.18248
 C577 C 0.18713 0.62715 0.17044
 H578 H 0.16358 0.62483 0.19624
 H579 H 0.19639 0.62440 0.16394
 Cu580 Cu 0.15329 0.65336 0.17803
 Cu581 Cu 0.17918 0.65277 0.15281
 Cu582 Cu 0.15274 0.67926 0.15283
 N583 N 0.13849 0.66823 0.17801
 N584 N 0.13836 0.67835 0.16809
 C585 C 0.12714 0.68725 0.17049
 C586 C 0.11995 0.68241 0.18253
 C587 C 0.12734 0.67036 0.18708
 H588 H 0.12441 0.69652 0.16400
 H589 H 0.12477 0.66370 0.19627
 N590 N 0.16822 0.67834 0.13830
 N591 N 0.17829 0.66825 0.13830
 C592 C 0.18725 0.67054 0.12711
 C593 C 0.18256 0.68259 0.11984
 C594 C 0.17052 0.68730 0.12712
 H595 H 0.19649 0.66395 0.12442
 H596 H 0.16396 0.69655 0.12445
 H597 H 0.16903 0.66906 0.16405
 H598 H 0.15743 0.65752 0.15245
 N599 N 0.17818 0.13821 0.66825
 N600 N 0.16809 0.13837 0.67821
 C601 C 0.17019 0.12718 0.68723
 C602 C 0.18221 0.11975 0.68262
 C603 C 0.18704 0.12695 0.67059
 H604 H 0.16352 0.12460 0.69642
 H605 H 0.19628 0.12420 0.66404
 Cu606 Cu 0.15326 0.15321 0.67823
 Cu607 Cu 0.17910 0.15259 0.65298
 Cu608 Cu 0.15264 0.17906 0.65300
 N609 N 0.13843 0.16805 0.67824
 N610 N 0.13827 0.17814 0.66829
 C611 C 0.12702 0.18700 0.67065
 C612 C 0.11982 0.18218 0.68269
 C613 C 0.12725 0.17015 0.68728
 H614 H 0.12427 0.19625 0.66412
 H615 H 0.12466 0.16348 0.69646
 N616 N 0.16812 0.17816 0.63848
 N617 N 0.17820 0.16808 0.63847
 C618 C 0.18716 0.17038 0.62729
 C619 C 0.18246 0.18243 0.62002
 C620 C 0.17042 0.18713 0.62731
 H621 H 0.19641 0.16380 0.62460
 H622 H 0.16384 0.19638 0.62463
 H623 H 0.16894 0.16889 0.66418
 H624 H 0.15730 0.15728 0.65264
 N625 N 0.32149 0.63839 0.33163
 N626 N 0.33159 0.63854 0.32167
 C627 C 0.32948 0.62738 0.31263
 C628 C 0.31747 0.61995 0.31723
 C629 C 0.31264 0.62714 0.32927
 H630 H 0.33615 0.62480 0.30343
 H631 H 0.30341 0.62438 0.33582
 Cu632 Cu 0.34640 0.65339 0.32160
 Cu633 Cu 0.32058 0.65275 0.34691
 Cu634 Cu 0.34703 0.67919 0.34690
 N635 N 0.36126 0.66819 0.32167
 N636 N 0.36140 0.67828 0.33162
 C637 C 0.37265 0.68713 0.32926
 C638 C 0.37986 0.68232 0.31722
 C639 C 0.37243 0.67031 0.31262
 H640 H 0.37540 0.69636 0.33581
 H641 H 0.37502 0.66365 0.30342
 N642 N 0.33156 0.67829 0.36142
 N643 N 0.32148 0.66822 0.36143
 C644 C 0.31252 0.67053 0.37262
 C645 C 0.31722 0.68257 0.37989
 C646 C 0.32926 0.68726 0.37260
 H647 H 0.30327 0.66397 0.37531
 H648 H 0.33583 0.69650 0.37527
 H649 H 0.33074 0.66905 0.33572
 H650 H 0.34239 0.65741 0.34724
 N651 N 0.32150 0.13815 0.83182
 N652 N 0.33162 0.13829 0.82189
 C653 C 0.32946 0.12719 0.81279
 C654 C 0.31740 0.11980 0.81734
 C655 C 0.31258 0.12697 0.82940
 H656 H 0.33609 0.12466 0.80355
 H657 H 0.30331 0.12424 0.83591
 Cu658 Cu 0.34646 0.15311 0.82192
 Cu659 Cu 0.32058 0.15252 0.84712
 Cu660 Cu 0.34701 0.17897 0.84711
 N661 N 0.36127 0.16796 0.82189
 N662 N 0.36138 0.17807 0.83182
 C663 C 0.37256 0.18700 0.82940
 C664 C 0.37975 0.18220 0.81735
 C665 C 0.37238 0.17015 0.81279
 H666 H 0.37527 0.19627 0.83591
 H667 H 0.37493 0.16353 0.80356
 N668 N 0.33156 0.17804 0.86166
 N669 N 0.32149 0.16796 0.86167
 C670 C 0.31255 0.17024 0.87288
 C671 C 0.31726 0.18227 0.88016
 C672 C 0.32928 0.18698 0.87286
 H673 H 0.30331 0.16368 0.87557
 H674 H 0.33585 0.19622 0.87554
 H675 H 0.33071 0.16884 0.83586
 H676 H 0.34231 0.15726 0.84748
 N677 N 0.82178 0.63843 0.83195
 N678 N 0.83184 0.63858 0.82196
 C679 C 0.82969 0.62743 0.81292
 C680 C 0.81767 0.62002 0.81754
 C681 C 0.81288 0.62722 0.82959
 H682 H 0.83632 0.62487 0.80369
 H683 H 0.80361 0.62452 0.83611
 Cu684 Cu 0.84672 0.65338 0.82182
 Cu685 Cu 0.82089 0.65281 0.84719
 Cu686 Cu 0.84725 0.67922 0.84716
 N687 N 0.86148 0.66829 0.82192
 N688 N 0.86162 0.67835 0.83189
 C689 C 0.87280 0.68728 0.82951
 C690 C 0.88001 0.68250 0.81746
 C691 C 0.87263 0.67046 0.81287
 H692 H 0.87548 0.69656 0.83602
 H693 H 0.87521 0.66385 0.80364
 N694 N 0.83183 0.67831 0.86170
 N695 N 0.82177 0.66824 0.86172
 C696 C 0.81280 0.67054 0.87290
 C697 C 0.81748 0.68259 0.88016
 C698 C 0.82952 0.68729 0.87287
 H699 H 0.80356 0.66398 0.87558
 H700 H 0.83607 0.69655 0.87552
 H701 H 0.83103 0.66906 0.83578
 H702 H 0.84271 0.65743 0.84736
 N703 N 0.82175 0.13810 0.33172
 N704 N 0.83188 0.13820 0.32179
 C705 C 0.82973 0.12705 0.31275
 C706 C 0.81768 0.11967 0.31733
 C707 C 0.81286 0.12688 0.32936
 H708 H 0.83635 0.12449 0.30352
 H709 H 0.80360 0.12415 0.33590
 Cu710 Cu 0.84662 0.15312 0.32157
 Cu711 Cu 0.82079 0.15251 0.34695
 Cu712 Cu 0.84716 0.17895 0.34692
 N713 N 0.86150 0.16791 0.32176
 N714 N 0.86157 0.17803 0.33168
 C715 C 0.87276 0.18696 0.32931
 C716 C 0.87999 0.18216 0.31728
 C717 C 0.87265 0.17009 0.31271
 H718 H 0.87546 0.19622 0.33584
 H719 H 0.87523 0.16349 0.30348
 N720 N 0.83169 0.17806 0.36144
 N721 N 0.82163 0.16798 0.36145
 C722 C 0.81269 0.17025 0.37267
 C723 C 0.81740 0.18228 0.37995
 C724 C 0.82941 0.18700 0.37264
 H725 H 0.80348 0.16365 0.37538
 H726 H 0.83599 0.19623 0.37533
 H727 H 0.83087 0.16882 0.33563
 H728 H 0.84254 0.15720 0.34716
 N729 N 0.67847 0.36158 0.33162
 N730 N 0.66839 0.36142 0.32165
 C731 C 0.67050 0.37260 0.31263
 C732 C 0.68251 0.38003 0.31723
 C733 C 0.68733 0.37283 0.32927
 H734 H 0.66383 0.37519 0.30343
 H735 H 0.69657 0.37558 0.33582
 Cu736 Cu 0.65357 0.34659 0.32165
 Cu737 Cu 0.67940 0.34721 0.34690
 Cu738 Cu 0.65296 0.32076 0.34689
 N739 N 0.63874 0.33176 0.32164
 N740 N 0.63858 0.32168 0.33160
 C741 C 0.62734 0.31281 0.32925
 C742 C 0.62014 0.31763 0.31721
 C743 C 0.62756 0.32964 0.31261
 H744 H 0.62460 0.30358 0.33580
 H745 H 0.62497 0.33630 0.30341
 N746 N 0.66843 0.32166 0.36142
 N747 N 0.67850 0.33173 0.36143
 C748 C 0.68746 0.32943 0.37262
 C749 C 0.68275 0.31739 0.37989
 C750 C 0.67072 0.31270 0.37261
 H751 H 0.69670 0.33599 0.37531
 H752 H 0.66415 0.30346 0.37529
 H753 H 0.66926 0.33092 0.33571
 H754 H 0.65761 0.34254 0.34724
 N755 N 0.67843 0.86178 0.83183
 N756 N 0.66831 0.86165 0.82190
 C757 C 0.67048 0.87276 0.81280
 C758 C 0.68254 0.88014 0.81735
 C759 C 0.68735 0.87296 0.82941
 H760 H 0.66385 0.87531 0.80358
 H761 H 0.69663 0.87567 0.83591
 Cu762 Cu 0.65346 0.84684 0.82193
 Cu763 Cu 0.67934 0.84742 0.84714
 Cu764 Cu 0.65287 0.82100 0.84717
 N765 N 0.63862 0.83202 0.82194
 N766 N 0.63849 0.82192 0.83188
 C767 C 0.62729 0.81301 0.82949
 C768 C 0.62010 0.81782 0.81743
 C769 C 0.62750 0.82985 0.81285
 H770 H 0.62458 0.80375 0.83601
 H771 H 0.62495 0.83647 0.80362
 N772 N 0.66833 0.82192 0.86171
 N773 N 0.67841 0.83198 0.86169
 C774 C 0.68737 0.82968 0.87288
 C775 C 0.68266 0.81766 0.88018
 C776 C 0.67061 0.81297 0.87290
 H777 H 0.69663 0.83623 0.87555
 H778 H 0.66404 0.80373 0.87559
 H779 H 0.66919 0.83111 0.83590
 H780 H 0.65759 0.84273 0.84750
 N781 N 0.17819 0.36147 0.83187
 N782 N 0.16809 0.36134 0.82193
 C783 C 0.17026 0.37246 0.81284
 C784 C 0.18231 0.37984 0.81740
 C785 C 0.18712 0.37266 0.82946
 H786 H 0.16363 0.37500 0.80361
 H787 H 0.19638 0.37538 0.83598
 Cu788 Cu 0.15326 0.34652 0.82193
 Cu789 Cu 0.17910 0.34711 0.84717
 Cu790 Cu 0.15265 0.32068 0.84718
 N791 N 0.13842 0.33169 0.82194
 N792 N 0.13828 0.32160 0.83188
 C793 C 0.12709 0.31268 0.82947
 C794 C 0.11991 0.31749 0.81741
 C795 C 0.12730 0.32953 0.81285
 H796 H 0.12436 0.30342 0.83599
 H797 H 0.12476 0.33616 0.80361
 N798 N 0.16810 0.32160 0.86172
 N799 N 0.17817 0.33167 0.86172
 C800 C 0.18714 0.32937 0.87290
 C801 C 0.18244 0.31733 0.88018
 C802 C 0.17040 0.31264 0.87291
 H803 H 0.19640 0.33592 0.87557
 H804 H 0.16384 0.30339 0.87558
 H805 H 0.16896 0.33081 0.83596
 H806 H 0.15735 0.34241 0.84752
 N807 N 0.17831 0.86175 0.33159
 N808 N 0.16819 0.86163 0.32166
 C809 C 0.17037 0.87273 0.31256
 C810 C 0.18243 0.88010 0.31712
 C811 C 0.18724 0.87292 0.32917
 H812 H 0.16373 0.87528 0.30334
 H813 H 0.19652 0.87563 0.33567
 Cu814 Cu 0.15334 0.84682 0.32170
 Cu815 Cu 0.17923 0.84739 0.34689
 Cu816 Cu 0.15276 0.82097 0.34691
 N817 N 0.13851 0.83199 0.32168
 N818 N 0.13839 0.82188 0.33162
 C819 C 0.12720 0.81296 0.32922
 C820 C 0.12001 0.81777 0.31716
 C821 C 0.12740 0.82982 0.31259
 H822 H 0.12450 0.80369 0.33573
 H823 H 0.12484 0.83644 0.30337
 N824 N 0.16822 0.82189 0.36145
 N825 N 0.17830 0.83195 0.36144
 C826 C 0.18724 0.82968 0.37265
 C827 C 0.18253 0.81766 0.37995
 C828 C 0.17049 0.81295 0.37266
 H829 H 0.19648 0.83624 0.37533
 H830 H 0.16392 0.80372 0.37536
 H831 H 0.16908 0.83109 0.33563
 H832 H 0.15749 0.84268 0.34725
 C833 C 0.25534 0.95483 0.24461
 C834 C 0.24487 0.95483 0.25501
 C835 C 0.24179 0.96915 0.25807
 N836 N 0.25010 0.97780 0.24982
 C837 C 0.25841 0.96914 0.24157
 C838 C 0.23144 0.97377 0.26834
 C839 C 0.22810 0.98834 0.27166
 C840 C 0.21794 0.99271 0.28173
 C841 C 0.21794 1.00758 0.28174
 C842 C 0.22810 1.01195 0.27168
 N843 N 0.23416 1.00015 0.26565
 C844 C 0.23143 1.02652 0.26838
 C845 C 0.24178 1.03113 0.25812
 C846 C 0.24487 1.04545 0.25508
 C847 C 0.25534 1.04544 0.24469
 C848 C 0.25839 1.03111 0.24163
 N849 N 0.25007 1.02246 0.24987
 C850 C 0.26873 1.02647 0.23136
 C851 C 0.27206 1.01192 0.22803
 C852 C 0.28221 1.00756 0.21794
 C853 C 0.28222 0.99270 0.21792
 C854 C 0.27208 0.98832 0.22800
 N855 N 0.26602 1.00012 0.23404
 C856 C 0.26875 0.97376 0.23130
 H857 H 0.26012 0.94531 0.23986
 H858 H 0.24009 0.94531 0.25974
 H859 H 0.25821 1.00012 0.24185
 H860 H 0.21122 0.98592 0.28840
 H861 H 0.21121 1.01437 0.28842
 H862 H 0.24011 1.05498 0.25983
 H863 H 0.26013 1.05495 0.23995
 H864 H 0.28894 0.98592 0.21122
 H865 H 0.24200 1.00014 0.25787
 H866 H 0.28893 1.01436 0.21126
 C867 C 0.24471 0.45465 0.75522
 C868 C 0.25518 0.45466 0.74482
 C869 C 0.25825 0.46898 0.74178
 N870 N 0.24993 0.47763 0.75004
 C871 C 0.24163 0.46896 0.75828
 C872 C 0.26859 0.47361 0.73150
 C873 C 0.27192 0.48818 0.72819
 C874 C 0.28206 0.49255 0.71810
 C875 C 0.28206 0.50741 0.71810
 C876 C 0.27193 0.51179 0.72819
 N877 N 0.26588 0.49999 0.73422
 C878 C 0.26859 0.52637 0.73150
 C879 C 0.25825 0.53097 0.74178
 C880 C 0.25516 0.54529 0.74485
 C881 C 0.24469 0.54528 0.75524
 C882 C 0.24163 0.53095 0.75829
 N883 N 0.24994 0.52230 0.75003
 C884 C 0.23128 0.52633 0.76856
 C885 C 0.22795 0.51176 0.77187
 C886 C 0.21781 0.50739 0.78195
 C887 C 0.21780 0.49253 0.78195
 C888 C 0.22795 0.48814 0.77187
 N889 N 0.23400 0.49995 0.76584
 C890 C 0.23128 0.47357 0.76856
 H891 H 0.23994 0.44512 0.75995
 H892 H 0.25996 0.44514 0.74007
 H893 H 0.24182 0.49995 0.75804
 H894 H 0.28878 0.48575 0.71141
 H895 H 0.28878 0.51420 0.71141
 H896 H 0.25993 0.55481 0.74011
 H897 H 0.23991 0.55479 0.75999
 H898 H 0.21108 0.48574 0.78864
 H899 H 0.25807 0.49998 0.74203
 H900 H 0.21109 0.51419 0.78863
 C901 C 0.75534 -0.04569 0.25525
 C902 C 0.74489 -0.04566 0.24485
 C903 C 0.74183 -0.03133 0.24180
 N904 N 0.75014 -0.02270 0.25006
 C905 C 0.75843 -0.03138 0.25831
 C906 C 0.73151 -0.02669 0.23152
 C907 C 0.72817 -0.01213 0.22821
 C908 C 0.71801 -0.00776 0.21813
 C909 C 0.71801 0.00710 0.21812
 C910 C 0.72816 0.01147 0.22819
 N911 N 0.73423 -0.00033 0.23421
 C912 C 0.73150 0.02603 0.23148
 C913 C 0.74184 0.03064 0.24175
 C914 C 0.74493 0.04495 0.24479
 C915 C 0.75539 0.04494 0.25519
 C916 C 0.75844 0.03061 0.25826
 N917 N 0.75013 0.02197 0.25001
 C918 C 0.76877 0.02598 0.26855
 C919 C 0.77210 0.01140 0.27187
 C920 C 0.78224 0.00702 0.28195
 C921 C 0.78224 -0.00784 0.28196
 C922 C 0.77210 -0.01221 0.27188
 N923 N 0.76605 -0.00040 0.26585
 C924 C 0.76876 -0.02678 0.26858
 H925 H 0.76011 -0.05522 0.25999
 H926 H 0.74011 -0.05517 0.24010
 H927 H 0.75822 -0.00038 0.25806
 H928 H 0.71128 -0.01455 0.21147
 H929 H 0.71127 0.01389 0.21144
 H930 H 0.74017 0.05447 0.24003
 H931 H 0.76017 0.05445 0.25993
 H932 H 0.78896 -0.01465 0.28864
 H933 H 0.74208 -0.00034 0.24197
 H934 H 0.78896 0.01381 0.28863
 C935 C 0.75536 0.54519 0.75537
 C936 C 0.74490 0.54519 0.74498
 C937 C 0.74182 0.53087 0.74193
 N938 N 0.75013 0.52221 0.75019
 C939 C 0.75844 0.53087 0.75844
 C940 C 0.73147 0.52626 0.73167
 C941 C 0.72814 0.51169 0.72835
 C942 C 0.71800 0.50733 0.71827
 C943 C 0.71800 0.49246 0.71826
 C944 C 0.72814 0.48807 0.72834
 N945 N 0.73419 0.49987 0.73436
 C946 C 0.73146 0.47349 0.73164
 C947 C 0.74181 0.46887 0.74192
 C948 C 0.74489 0.45455 0.74498
 C949 C 0.75535 0.45455 0.75538
 C950 C 0.75843 0.46887 0.75843
 N951 N 0.75011 0.47753 0.75017
 C952 C 0.76877 0.47348 0.76870
 C953 C 0.77210 0.48805 0.77201
 C954 C 0.78225 0.49241 0.78209
 C955 C 0.78226 0.50728 0.78209
 C956 C 0.77212 0.51167 0.77202
 N957 N 0.76605 0.49987 0.76600
 C958 C 0.76879 0.52625 0.76871
 H959 H 0.76014 0.55471 0.76011
 H960 H 0.74012 0.55472 0.74022
 H961 H 0.75822 0.49987 0.75821
 H962 H 0.71128 0.51414 0.71159
 H963 H 0.71127 0.48568 0.71158
 H964 H 0.74012 0.44503 0.74024
 H965 H 0.76013 0.44503 0.76012
 H966 H 0.78899 0.51406 0.78877
 H967 H 0.74202 0.49987 0.74215
 H968 H 0.78897 0.48560 0.78876
 C969 C 0.25509 0.54521 0.25503
 C970 C 0.24463 0.54521 0.24464
 C971 C 0.24155 0.53090 0.24160
 N972 N 0.24986 0.52224 0.24987
 C973 C 0.25817 0.53089 0.25811
 C974 C 0.23121 0.52628 0.23134
 C975 C 0.22789 0.51171 0.22805
 C976 C 0.21775 0.50733 0.21797
 C977 C 0.21777 0.49247 0.21799
 C978 C 0.22792 0.48812 0.22808
 N979 N 0.23396 0.49992 0.23408
 C980 C 0.23127 0.47356 0.23140
 C981 C 0.24160 0.46892 0.24167
 C982 C 0.24468 0.45460 0.24471
 C983 C 0.25514 0.45458 0.25510
 C984 C 0.25822 0.46890 0.25816
 N985 N 0.24991 0.47757 0.24991
 C986 C 0.26856 0.47351 0.26842
 C987 C 0.27187 0.48808 0.27172
 C988 C 0.28201 0.49246 0.28180
 C989 C 0.28199 0.50733 0.28180
 C990 C 0.27185 0.51170 0.27171
 N991 N 0.26582 0.49989 0.26569
 C992 C 0.26851 0.52627 0.26839
 H993 H 0.25986 0.55473 0.25977
 H994 H 0.23985 0.55473 0.23988
 H995 H 0.25800 0.49990 0.25789
 H996 H 0.21103 0.51412 0.21128
 H997 H 0.21106 0.48567 0.21131
 H998 H 0.23989 0.44508 0.23997
 H999 H 0.25992 0.44505 0.25984
 H1000 H 0.28871 0.51412 0.28847
 H1001 H 0.24178 0.49991 0.24187
 H1002 H 0.28873 0.48567 0.28849
 C1003 C 0.75523 1.04555 0.74481
 C1004 C 0.74477 1.04559 0.75521
 C1005 C 0.74167 1.03129 0.75830
 N1006 N 0.74996 1.02259 0.75005
 C1007 C 0.75828 1.03121 0.74178
 C1008 C 0.73132 1.02671 0.76858
 C1009 C 0.72802 1.01212 0.77188
 C1010 C 0.71788 1.00772 0.78195
 C1011 C 0.71790 0.99285 0.78194
 C1012 C 0.72806 0.98849 0.77186
 N1013 N 0.73410 1.00031 0.76586
 C1014 C 0.73141 0.97391 0.76854
 C1015 C 0.74175 0.96928 0.75826
 C1016 C 0.74483 0.95495 0.75521
 C1017 C 0.75529 0.95493 0.74480
 C1018 C 0.75836 0.96924 0.74174
 N1019 N 0.75006 0.97792 0.75000
 C1020 C 0.76870 0.97384 0.73146
 C1021 C 0.77201 0.98841 0.72816
 C1022 C 0.78215 0.99279 0.71809
 C1023 C 0.78213 1.00765 0.71810
 C1024 C 0.77197 1.01200 0.72819
 N1025 N 0.76593 1.00020 0.73419
 C1026 C 0.76861 1.02655 0.73151
 H1027 H 0.76002 1.05504 0.74004
 H1028 H 0.74001 1.05514 0.75994
 H1029 H 0.75809 1.00022 0.74198
 H1030 H 0.71114 1.01451 0.78863
 H1031 H 0.71119 0.98605 0.78861
 H1032 H 0.74006 0.94543 0.75995
 H1033 H 0.76006 0.94541 0.74006
 H1034 H 0.78884 1.01445 0.71142
 H1035 H 0.74194 1.00029 0.75808
 H1036 H 0.78889 0.98601 0.71140
 C1037 C 0.75534 0.45484 0.24469
 C1038 C 0.74488 0.45483 0.25509
 C1039 C 0.74179 0.46915 0.25816
 N1040 N 0.75009 0.47781 0.24991
 C1041 C 0.75841 0.46916 0.24165
 C1042 C 0.73144 0.47376 0.26844
 C1043 C 0.72809 0.48833 0.27176
 C1044 C 0.71794 0.49269 0.28185
 C1045 C 0.71793 0.50756 0.28186
 C1046 C 0.72807 0.51194 0.27179
 N1047 N 0.73414 0.50014 0.26576
 C1048 C 0.73140 0.52652 0.26850
 C1049 C 0.74174 0.53114 0.25824
 C1050 C 0.74483 0.54546 0.25519
 C1051 C 0.75529 0.54545 0.24480
 C1052 C 0.75835 0.53112 0.24173
 N1053 N 0.75004 0.52247 0.24998
 C1054 C 0.76867 0.52649 0.23146
 C1055 C 0.77203 0.51194 0.22812
 C1056 C 0.78217 0.50760 0.21802
 C1057 C 0.78219 0.49274 0.21800
 C1058 C 0.77206 0.48835 0.22809
 N1059 N 0.76600 0.50014 0.23414
 C1060 C 0.76874 0.47379 0.23138
 H1061 H 0.76013 0.44533 0.23994
 H1062 H 0.74011 0.44531 0.25983
 H1063 H 0.75819 0.50014 0.24195
 H1064 H 0.71122 0.48589 0.28852
 H1065 H 0.71120 0.51434 0.28855
 H1066 H 0.74006 0.55498 0.25994
 H1067 H 0.76008 0.55497 0.24006
 H1068 H 0.78891 0.48596 0.21130
 H1069 H 0.74197 0.50014 0.25797
 H1070 H 0.78888 0.51441 0.21135
 C1071 C 0.24490 -0.04565 0.74474
 C1072 C 0.25538 -0.04571 0.75512
 C1073 C 0.25848 -0.03141 0.75822
 N1074 N 0.25016 -0.02270 0.75000
 C1075 C 0.24184 -0.03131 0.74174
 C1076 C 0.26884 -0.02684 0.76849
 C1077 C 0.27214 -0.01225 0.77180
 C1078 C 0.28228 -0.00787 0.78186
 C1079 C 0.28224 0.00701 0.78186
 C1080 C 0.27207 0.01138 0.77181
 N1081 N 0.26604 -0.00044 0.76579
 C1082 C 0.26870 0.02596 0.76851
 C1083 C 0.25834 0.03061 0.75826
 C1084 C 0.25524 0.04494 0.75524
 C1085 C 0.24477 0.04498 0.74485
 C1086 C 0.24171 0.03067 0.74176
 N1087 N 0.25003 0.02198 0.74999
 C1088 C 0.23137 0.02608 0.73149
 C1089 C 0.22806 0.01151 0.72818
 C1090 C 0.21792 0.00714 0.71811
 C1091 C 0.21795 -0.00772 0.71811
 C1092 C 0.22812 -0.01208 0.72818
 N1093 N 0.23415 -0.00029 0.73420
 C1094 C 0.23148 -0.02664 0.73149
 H1095 H 0.24011 -0.05514 0.73997
 H1096 H 0.26016 -0.05526 0.75982
 H1097 H 0.24197 -0.00031 0.74199
 H1098 H 0.28903 -0.01465 0.78852
 H1099 H 0.28896 0.01381 0.78854
 H1100 H 0.26001 0.05445 0.76000
 H1101 H 0.23998 0.05450 0.74013
 H1102 H 0.21124 -0.01452 0.71143
 H1103 H 0.25820 -0.00041 0.75802
 H1104 H 0.21118 0.01392 0.71143
 C1105 C 0.24476 0.25515 1.04540
 C1106 C 0.25517 0.24468 1.04539
 C1107 C 0.25822 0.24159 1.03110
 N1108 N 0.24995 0.24990 1.02245
 C1109 C 0.24169 0.25822 1.03110
 C1110 C 0.26850 0.23124 1.02648
 C1111 C 0.27182 0.22790 1.01194
 C1112 C 0.28191 0.21775 1.00757
 C1113 C 0.28191 0.21774 0.99273
 C1114 C 0.27182 0.22790 0.98837
 N1115 N 0.26579 0.23396 1.00015
 C1116 C 0.26849 0.23123 0.97382
 C1117 C 0.25818 0.24157 0.96922
 C1118 C 0.25511 0.24463 0.95492
 C1119 C 0.24468 0.25509 0.95493
 C1120 C 0.24163 0.25817 0.96922
 N1121 N 0.24991 0.24988 0.97787
 C1122 C 0.23133 0.26852 0.97383
 C1123 C 0.22803 0.27187 0.98838
 C1124 C 0.21794 0.28203 0.99275
 C1125 C 0.21796 0.28204 1.00759
 C1126 C 0.22806 0.27189 1.01195
 N1127 N 0.23407 0.26582 1.00016
 C1128 C 0.23140 0.26857 1.02649
 H1129 H 0.24002 0.25993 1.05491
 H1130 H 0.25992 0.23991 1.05490
 H1131 H 0.24186 0.25797 1.00016
 H1132 H 0.28860 0.21102 1.01436
 H1133 H 0.28860 0.21101 0.98595
 H1134 H 0.25985 0.23986 0.94542
 H1135 H 0.23992 0.25986 0.94542
 H1136 H 0.21128 0.28878 1.01438
 H1137 H 0.25800 0.24181 1.00016
 H1138 H 0.21124 0.28875 0.98597
 C1139 C 0.25524 0.74498 0.54517
 C1140 C 0.24481 0.75543 0.54517
 C1141 C 0.24174 0.75850 0.53088
 N1142 N 0.25001 0.75019 0.52223
 C1143 C 0.25829 0.74189 0.53088
 C1144 C 0.23144 0.76883 0.52627
 C1145 C 0.22810 0.77216 0.51172
 C1146 C 0.21799 0.78231 0.50737
 C1147 C 0.21798 0.78230 0.49252
 C1148 C 0.22807 0.77214 0.48815
 N1149 N 0.23411 0.76609 0.49994
 C1150 C 0.23138 0.76880 0.47361
 C1151 C 0.24168 0.75846 0.46900
 C1152 C 0.24473 0.75538 0.45470
 C1153 C 0.25516 0.74493 0.45470
 C1154 C 0.25824 0.74187 0.46899
 N1155 N 0.24997 0.75017 0.47764
 C1156 C 0.26855 0.73153 0.47360
 C1157 C 0.27189 0.72820 0.48815
 C1158 C 0.28199 0.71805 0.49251
 C1159 C 0.28200 0.71806 0.50735
 C1160 C 0.27191 0.72821 0.51172
 N1161 N 0.26587 0.73427 0.49994
 C1162 C 0.26860 0.73155 0.52627
 H1163 H 0.26000 0.74021 0.55468
 H1164 H 0.24006 0.76021 0.55468
 H1165 H 0.25809 0.74213 0.49994
 H1166 H 0.21131 0.78904 0.51415
 H1167 H 0.21128 0.78902 0.48574
 H1168 H 0.23997 0.76015 0.44520
 H1169 H 0.25991 0.74016 0.44519
 H1170 H 0.28869 0.71134 0.51414
 H1171 H 0.24189 0.75823 0.49994
 H1172 H 0.28867 0.71132 0.48572
 C1173 C 0.25540 0.75524 0.04514
 C1174 C 0.24496 0.74482 0.04516
 C1175 C 0.24189 0.74175 0.03087
 N1176 N 0.25018 0.75002 0.02221
 C1177 C 0.25847 0.75830 0.03084
 C1178 C 0.23156 0.73145 0.02627
 C1179 C 0.22824 0.72812 0.01172
 C1180 C 0.21811 0.71802 0.00737
 C1181 C 0.21811 0.71801 -0.00748
 C1182 C 0.22825 0.72811 -0.01185
 N1183 N 0.23429 0.73415 -0.00007
 C1184 C 0.23158 0.73142 -0.02640
 C1185 C 0.24192 0.74170 -0.03103
 C1186 C 0.24500 0.74474 -0.04533
 C1187 C 0.25546 0.75514 -0.04535
 C1188 C 0.25853 0.75823 -0.03106
 N1189 N 0.25022 0.74998 -0.02239
 C1190 C 0.26886 0.76853 -0.02647
 C1191 C 0.27216 0.77187 -0.01192
 C1192 C 0.28227 0.78199 -0.00756
 C1193 C 0.28225 0.78201 0.00729
 C1194 C 0.27213 0.77190 0.01166
 N1195 N 0.26611 0.76584 -0.00012
 C1196 C 0.26879 0.76860 0.02622
 H1197 H 0.26016 0.76001 0.05464
 H1198 H 0.24019 0.74007 0.05467
 H1199 H 0.25832 0.75801 -0.00011
 H1200 H 0.21139 0.71133 0.01416
 H1201 H 0.21140 0.71131 -0.01426
 H1202 H 0.24024 0.73997 -0.05482
 H1203 H 0.26023 0.75987 -0.05486
 H1204 H 0.28895 0.78873 0.01407
 H1205 H 0.24210 0.74195 -0.00008
 H1206 H 0.28898 0.78869 -0.01434
 C1207 C 0.24471 0.24470 0.45482
 C1208 C 0.25514 0.25513 0.45482
 C1209 C 0.25821 0.25819 0.46911
 N1210 N 0.24993 0.24991 0.47776
 C1211 C 0.24164 0.24163 0.46912
 C1212 C 0.26852 0.26850 0.47371
 C1213 C 0.27184 0.27183 0.48826
 C1214 C 0.28196 0.28194 0.49262
 C1215 C 0.28196 0.28194 0.50747
 C1216 C 0.27184 0.27183 0.51183
 N1217 N 0.26580 0.26579 0.50005
 C1218 C 0.26851 0.26850 0.52638
 C1219 C 0.25819 0.25820 0.53100
 C1220 C 0.25512 0.25514 0.54530
 C1221 C 0.24469 0.24471 0.54531
 C1222 C 0.24163 0.24163 0.53101
 N1223 N 0.24991 0.24991 0.52236
 C1224 C 0.23132 0.23132 0.52641
 C1225 C 0.22800 0.22799 0.51186
 C1226 C 0.21789 0.21788 0.50750
 C1227 C 0.21789 0.21788 0.49265
 C1228 C 0.22800 0.22800 0.48828
 N1229 N 0.23403 0.23404 0.50007
 C1230 C 0.23133 0.23132 0.47373
 H1231 H 0.23995 0.23994 0.44532
 H1232 H 0.25990 0.25989 0.44531
 H1233 H 0.24184 0.24186 0.50007
 H1234 H 0.28867 0.28864 0.48584
 H1235 H 0.28866 0.28864 0.51425
 H1236 H 0.25988 0.25991 0.55481
 H1237 H 0.23993 0.23995 0.55482
 H1238 H 0.21119 0.21117 0.48587
 H1239 H 0.25799 0.25798 0.50005
 H1240 H 0.21118 0.21117 0.51428
 C1241 C 0.74483 0.75530 1.04539
 C1242 C 0.75523 0.74483 1.04539
 C1243 C 0.75829 0.74175 1.03109
 N1244 N 0.75004 0.75008 1.02244
 C1245 C 0.74178 0.75839 1.03109
 C1246 C 0.76858 0.73140 1.02648
 C1247 C 0.77191 0.72808 1.01194
 C1248 C 0.78202 0.71793 1.00757
 C1249 C 0.78203 0.71795 0.99273
 C1250 C 0.77194 0.72810 0.98836
 N1251 N 0.76589 0.73415 1.00015
 C1252 C 0.76863 0.73145 0.97382
 C1253 C 0.75833 0.74179 0.96921
 C1254 C 0.75527 0.74487 0.95492
 C1255 C 0.74485 0.75534 0.95492
 C1256 C 0.74178 0.75840 0.96921
 N1257 N 0.75005 0.75009 0.97786
 C1258 C 0.73148 0.76874 0.97382
 C1259 C 0.72816 0.77208 0.98837
 C1260 C 0.71806 0.78223 0.99274
 C1261 C 0.71807 0.78223 1.00758
 C1262 C 0.72817 0.77208 1.01194
 N1263 N 0.73420 0.76602 1.00015
 C1264 C 0.73150 0.76875 1.02648
 H1265 H 0.74008 0.76008 1.05490
 H1266 H 0.75997 0.74004 1.05489
 H1267 H 0.74200 0.75819 1.00015
 H1268 H 0.78870 0.71120 1.01436
 H1269 H 0.78873 0.71123 0.98595
 H1270 H 0.76003 0.74010 0.94541
 H1271 H 0.74010 0.76012 0.94541
 H1272 H 0.71138 0.78896 1.01437
 H1273 H 0.75809 0.74198 1.00015
 H1274 H 0.71136 0.78895 0.98596
 C1275 C 0.74472 0.25498 0.54519
 C1276 C 0.75514 0.24452 0.54519
 C1277 C 0.75822 0.24146 0.53089
 N1278 N 0.74995 0.24977 0.52224
 C1279 C 0.74167 0.25807 0.53089
 C1280 C 0.76852 0.23113 0.52628
 C1281 C 0.77187 0.22780 0.51174
 C1282 C 0.78198 0.21766 0.50738
 C1283 C 0.78199 0.21767 0.49254
 C1284 C 0.77189 0.22781 0.48817
 N1285 N 0.76585 0.23387 0.49995
 C1286 C 0.76859 0.23115 0.47362
 C1287 C 0.75828 0.24149 0.46901
 C1288 C 0.75523 0.24457 0.45471
 C1289 C 0.74480 0.25503 0.45471
 C1290 C 0.74172 0.25810 0.46901
 N1291 N 0.75000 0.24979 0.47766
 C1292 C 0.73142 0.26843 0.47361
 C1293 C 0.72809 0.27176 0.48816
 C1294 C 0.71799 0.28192 0.49252
 C1295 C 0.71798 0.28192 0.50736
 C1296 C 0.72807 0.27175 0.51173
 N1297 N 0.73410 0.26569 0.49995
 C1298 C 0.73137 0.26841 0.52628
 H1299 H 0.73996 0.25974 0.55470
 H1300 H 0.75989 0.23974 0.55470
 H1301 H 0.74187 0.25783 0.49995
 H1302 H 0.78866 0.21093 0.51417
 H1303 H 0.78869 0.21094 0.48576
 H1304 H 0.75999 0.23980 0.44521
 H1305 H 0.74005 0.25980 0.44520
 H1306 H 0.71129 0.28864 0.51414
 H1307 H 0.75806 0.24171 0.49995
 H1308 H 0.71131 0.28866 0.48573
 C1309 C 0.74485 0.24488 0.04521
 C1310 C 0.75527 0.25533 0.04520
 C1311 C 0.75831 0.25842 0.03090
 N1312 N 0.75002 0.25013 0.02226
 C1313 C 0.74177 0.24182 0.03092
 C1314 C 0.76859 0.26876 0.02628
 C1315 C 0.77189 0.27210 0.01172
 C1316 C 0.78197 0.28224 0.00735
 C1317 C 0.78195 0.28226 -0.00750
 C1318 C 0.77185 0.27212 -0.01185
 N1319 N 0.76584 0.26606 -0.00006
 C1320 C 0.76851 0.26880 -0.02640
 C1321 C 0.75821 0.25847 -0.03100
 C1322 C 0.75513 0.25541 -0.04529
 C1323 C 0.74472 0.24496 -0.04528
 C1324 C 0.74168 0.24187 -0.03098
 N1325 N 0.74996 0.25016 -0.02234
 C1326 C 0.73139 0.23154 -0.02636
 C1327 C 0.72810 0.22819 -0.01181
 C1328 C 0.71801 0.21805 -0.00743
 C1329 C 0.71803 0.21804 0.00742
 C1330 C 0.72813 0.22817 0.01177
 N1331 N 0.73414 0.23423 -0.00003
 C1332 C 0.73147 0.23149 0.02632
 H1333 H 0.74012 0.24010 0.05472
 H1334 H 0.76003 0.26010 0.05470
 H1335 H 0.74194 0.24206 -0.00003
 H1336 H 0.78867 0.28896 0.01412
 H1337 H 0.78863 0.28898 -0.01429
 H1338 H 0.75987 0.26019 -0.05480
 H1339 H 0.73996 0.24020 -0.05478
 H1340 H 0.71135 0.21132 0.01421
 H1341 H 0.75805 0.25822 -0.00005
 H1342 H 0.71131 0.21134 -0.01420
 C1343 C 0.74470 0.74494 0.45481
 C1344 C 0.75512 0.75539 0.45479
 C1345 C 0.75820 0.75846 0.46908
 N1346 N 0.74995 0.75016 0.47774
 C1347 C 0.74166 0.74187 0.46911
 C1348 C 0.76851 0.76879 0.47366
 C1349 C 0.77185 0.77211 0.48820
 C1350 C 0.78196 0.78224 0.49255
 C1351 C 0.78198 0.78223 0.50740
 C1352 C 0.77188 0.77210 0.51178
 N1353 N 0.76583 0.76606 0.50000
 C1354 C 0.76858 0.76877 0.52633
 C1355 C 0.75828 0.75846 0.53097
 C1356 C 0.75523 0.75540 0.54527
 C1357 C 0.74481 0.74496 0.54530
 C1358 C 0.74173 0.74188 0.53101
 N1359 N 0.75000 0.75016 0.52234
 C1360 C 0.73142 0.73156 0.52642
 C1361 C 0.72809 0.72822 0.51188
 C1362 C 0.71798 0.71810 0.50753
 C1363 C 0.71796 0.71809 0.49268
 C1364 C 0.72806 0.72822 0.48830
 N1365 N 0.73411 0.73427 0.50008
 C1366 C 0.73137 0.73154 0.47374
 H1367 H 0.73994 0.74017 0.44531
 H1368 H 0.75985 0.76016 0.44527
 H1369 H 0.74191 0.74209 0.50006
 H1370 H 0.78865 0.78895 0.48576
 H1371 H 0.78869 0.78894 0.51417
 H1372 H 0.76000 0.76018 0.55477
 H1373 H 0.74006 0.74020 0.55481
 H1374 H 0.71126 0.71138 0.48591
 H1375 H 0.75803 0.75824 0.50002
 H1376 H 0.71129 0.71139 0.51432
 C1377 C 1.04536 0.25539 0.24486
 C1378 C 1.04534 0.24491 0.25524
 C1379 C 1.03101 0.24183 0.25826
 N1380 N 1.02235 0.25015 0.25001
 C1381 C 1.03103 0.25847 0.24179
 C1382 C 1.02637 0.23147 0.26850
 C1383 C 1.01179 0.22812 0.27178
 C1384 C 1.00741 0.21795 0.28182
 C1385 C 0.99254 0.21794 0.28181
 C1386 C 0.98816 0.22811 0.27176
 N1387 N 0.99998 0.23419 0.26577
 C1388 C 0.97358 0.23144 0.26844
 C1389 C 0.96897 0.24180 0.25818
 C1390 C 0.95464 0.24489 0.25511
 C1391 C 0.95466 0.25537 0.24473
 C1392 C 0.96900 0.25844 0.24170
 N1393 N 0.97765 0.25011 0.24996
 C1394 C 0.97364 0.26879 0.23146
 C1395 C 0.98822 0.27213 0.22817
 C1396 C 0.99260 0.28230 0.21812
 C1397 C 1.00747 0.28231 0.21815
 C1398 C 1.01184 0.27215 0.22821
 N1399 N 1.00003 0.26607 0.23420
 C1400 C 1.02642 0.26882 0.23153
 H1401 H 1.05489 0.26017 0.24015
 H1402 H 1.05486 0.24013 0.25999
 H1403 H 1.00002 0.25823 0.24196
 H1404 H 1.01421 0.21121 0.28849
 H1405 H 0.98574 0.21119 0.28846
 H1406 H 0.94511 0.24012 0.25984
 H1407 H 0.94514 0.26017 0.23998
 H1408 H 1.01427 0.28905 0.21149
 H1409 H 0.99998 0.24205 0.25802
 H1410 H 0.98580 0.28903 0.21145
 C1411 C 0.45456 0.25514 0.74483
 C1412 C 0.45455 0.24468 0.75523
 C1413 C 0.46888 0.24159 0.75829
 N1414 N 0.47755 0.24989 0.75005
 C1415 C 0.46889 0.25821 0.74179
 C1416 C 0.47349 0.23125 0.76857
 C1417 C 0.48808 0.22792 0.77188
 C1418 C 0.49246 0.21778 0.78195
 C1419 C 0.50733 0.21778 0.78196
 C1420 C 0.51171 0.22793 0.77189
 N1421 N 0.49989 0.23398 0.76587
 C1422 C 0.52629 0.23126 0.76859
 C1423 C 0.53092 0.24160 0.75832
 C1424 C 0.54525 0.24467 0.75527
 C1425 C 0.54526 0.25513 0.74488
 C1426 C 0.53093 0.25821 0.74181
 N1427 N 0.52226 0.24991 0.75006
 C1428 C 0.52632 0.26855 0.73153
 C1429 C 0.51173 0.27188 0.72822
 C1430 C 0.50735 0.28203 0.71815
 C1431 C 0.49248 0.28203 0.71815
 C1432 C 0.48810 0.27188 0.72822
 N1433 N 0.49992 0.26582 0.73424
 C1434 C 0.47352 0.26855 0.73153
 H1435 H 0.44504 0.25992 0.74008
 H1436 H 0.44502 0.23991 0.75996
 H1437 H 0.49991 0.25798 0.74201
 H1438 H 0.48566 0.21105 0.78862
 H1439 H 0.51413 0.21106 0.78864
 H1440 H 0.55477 0.23989 0.76002
 H1441 H 0.55479 0.25989 0.74014
 H1442 H 0.48567 0.28875 0.71148
 H1443 H 0.49990 0.24182 0.75809
 H1444 H 0.51414 0.28876 0.71148
 C1445 C 0.04510 0.24467 0.74487
 C1446 C 0.04511 0.25514 0.75525
 C1447 C 0.03078 0.25823 0.75830
 N1448 N 0.02211 0.24993 0.75006
 C1449 C 0.03077 0.24161 0.74182
 C1450 C 0.02616 0.26859 0.76856
 C1451 C 0.01157 0.27195 0.77184
 C1452 C 0.00718 0.28212 0.78188
 C1453 C -0.00769 0.28214 0.78186
 C1454 C -0.01206 0.27197 0.77182
 N1455 N -0.00024 0.26589 0.76583
 C1456 C -0.02664 0.26865 0.76851
 C1457 C -0.03126 0.25829 0.75827
 C1458 C -0.04559 0.25523 0.75522
 C1459 C -0.04559 0.24474 0.74486
 C1460 C -0.03126 0.24164 0.74182
 N1461 N -0.02260 0.24996 0.75004
 C1462 C -0.02664 0.23127 0.73158
 C1463 C -0.01205 0.22792 0.72828
 C1464 C -0.00767 0.21775 0.71824
 C1465 C 0.00720 0.21775 0.71823
 C1466 C 0.01157 0.22792 0.72827
 N1467 N -0.00024 0.23400 0.73427
 C1468 C 0.02615 0.23126 0.73157
 H1469 H 0.05463 0.23988 0.74013
 H1470 H 0.05463 0.25990 0.75999
 H1471 H -0.00024 0.24186 0.74202
 H1472 H 0.01398 0.28886 0.78854
 H1473 H -0.01450 0.28889 0.78851
 H1474 H -0.05512 0.26002 0.75994
 H1475 H -0.05512 0.23996 0.74013
 H1476 H 0.01400 0.21101 0.71158
 H1477 H -0.00024 0.25803 0.75808
 H1478 H -0.01447 0.21101 0.71159
 C1479 C 0.54540 0.24453 0.24473
 C1480 C 0.54541 0.25501 0.25511
 C1481 C 0.53109 0.25809 0.25819
 N1482 N 0.52241 0.24977 0.24997
 C1483 C 0.53107 0.24145 0.24171
 C1484 C 0.52648 0.26844 0.26845
 C1485 C 0.51189 0.27177 0.27176
 C1486 C 0.50751 0.28193 0.28182
 C1487 C 0.49263 0.28193 0.28183
 C1488 C 0.48826 0.27176 0.27178
 N1489 N 0.50007 0.26570 0.26577
 C1490 C 0.47368 0.26842 0.26850
 C1491 C 0.46904 0.25807 0.25826
 C1492 C 0.45471 0.25499 0.25523
 C1493 C 0.45470 0.24452 0.24486
 C1494 C 0.46903 0.24143 0.24179
 N1495 N 0.47770 0.24975 0.25001
 C1496 C 0.47365 0.23108 0.23154
 C1497 C 0.48823 0.22775 0.22821
 C1498 C 0.49261 0.21759 0.21816
 C1499 C 0.50748 0.21759 0.21814
 C1500 C 0.51186 0.22776 0.22819
 N1501 N 0.50004 0.23382 0.23420
 C1502 C 0.52644 0.23110 0.23147
 H1503 H 0.55493 0.23975 0.23997
 H1504 H 0.55495 0.25979 0.25982
 H1505 H 0.50005 0.24167 0.24196
 H1506 H 0.51430 0.28867 0.28847
 H1507 H 0.48583 0.28866 0.28850
 H1508 H 0.44519 0.25978 0.25998
 H1509 H 0.44517 0.23974 0.24014
 H1510 H 0.51428 0.21086 0.21147
 H1511 H 0.50007 0.25785 0.25801
 H1512 H 0.48581 0.21085 0.21150
 C1513 C 1.04544 0.75544 0.74487
 C1514 C 1.04543 0.74497 0.75526
 C1515 C 1.03109 0.74190 0.75829
 N1516 N 1.02244 0.75021 0.75003
 C1517 C 1.03111 0.75852 0.74180
 C1518 C 1.02645 0.73155 0.76854
 C1519 C 1.01187 0.72822 0.77183
 C1520 C 1.00750 0.71805 0.78189
 C1521 C 0.99262 0.71805 0.78188
 C1522 C 0.98824 0.72822 0.77183
 N1523 N 1.00006 0.73429 0.76583
 C1524 C 0.97366 0.73156 0.76852
 C1525 C 0.96905 0.74191 0.75825
 C1526 C 0.95473 0.74501 0.75519
 C1527 C 0.95474 0.75547 0.74480
 C1528 C 0.96908 0.75852 0.74175
 N1529 N 0.97773 0.75020 0.75001
 C1530 C 0.97372 0.76885 0.73149
 C1531 C 0.98830 0.77219 0.72820
 C1532 C 0.99267 0.78235 0.71814
 C1533 C 1.00755 0.78236 0.71815
 C1534 C 1.01192 0.77220 0.72822
 N1535 N 1.00011 0.76612 0.73421
 C1536 C 1.02650 0.76887 0.73153
 H1537 H 1.05497 0.76021 0.74014
 H1538 H 1.05495 0.74019 0.76001
 H1539 H 1.00010 0.75827 0.74197
 H1540 H 1.01430 0.71131 0.78855
 H1541 H 0.98582 0.71132 0.78854
 H1542 H 0.94519 0.74025 0.75993
 H1543 H 0.94522 0.76027 0.74005
 H1544 H 1.01435 0.78909 0.71149
 H1545 H 1.00007 0.74215 0.75808
 H1546 H 0.98588 0.78908 0.71147
 C1547 C 0.45468 0.75536 0.24476
 C1548 C 0.45465 0.74489 0.25514
 C1549 C 0.46898 0.74180 0.25822
 N1550 N 0.47766 0.75011 0.25000
 C1551 C 0.46901 0.75843 0.24174
 C1552 C 0.47358 0.73145 0.26849
 C1553 C 0.48816 0.72811 0.27181
 C1554 C 0.49253 0.71795 0.28188
 C1555 C 0.50740 0.71795 0.28190
 C1556 C 0.51179 0.72812 0.27185
 N1557 N 0.49998 0.73418 0.26583
 C1558 C 0.52637 0.73146 0.26857
 C1559 C 0.53101 0.74181 0.25833
 C1560 C 0.54535 0.74489 0.25531
 C1561 C 0.54537 0.75536 0.24493
 C1562 C 0.53104 0.75844 0.24185
 N1563 N 0.52236 0.75013 0.25007
 C1564 C 0.52643 0.76879 0.23159
 C1565 C 0.51186 0.77212 0.22826
 C1566 C 0.50750 0.78228 0.21819
 C1567 C 0.49262 0.78227 0.21816
 C1568 C 0.48824 0.77212 0.22822
 N1569 N 0.50004 0.76606 0.23425
 C1570 C 0.47366 0.76878 0.23149
 H1571 H 0.44516 0.76014 0.24000
 H1572 H 0.44512 0.74011 0.25986
 H1573 H 0.50003 0.75822 0.24202
 H1574 H 0.48572 0.71121 0.28853
 H1575 H 0.51420 0.71122 0.28857
 H1576 H 0.55487 0.74011 0.26007
 H1577 H 0.55490 0.76014 0.24021
 H1578 H 0.48583 0.78900 0.21148
 H1579 H 0.49999 0.74203 0.25807
 H1580 H 0.51430 0.78901 0.21153
 C1581 C 0.04520 0.75531 0.25511
 C1582 C 0.04520 0.74483 0.24474
 C1583 C 0.03087 0.74175 0.24171
 N1584 N 0.02220 0.75007 0.24996
 C1585 C 0.03087 0.75839 0.25818
 C1586 C 0.02624 0.73140 0.23146
 C1587 C 0.01166 0.72805 0.22818
 C1588 C 0.00729 0.71787 0.21814
 C1589 C -0.00758 0.71786 0.21816
 C1590 C -0.01196 0.72803 0.22822
 N1591 N -0.00015 0.73411 0.23420
 C1592 C -0.02654 0.73136 0.23153
 C1593 C -0.03117 0.74172 0.24177
 C1594 C -0.04550 0.74481 0.24483
 C1595 C -0.04550 0.75529 0.25519
 C1596 C -0.03117 0.75838 0.25822
 N1597 N -0.02250 0.75005 0.24999
 C1598 C -0.02654 0.76874 0.26846
 C1599 C -0.01196 0.77208 0.27175
 C1600 C -0.00759 0.78225 0.28179
 C1601 C 0.00728 0.78225 0.28179
 C1602 C 0.01167 0.77208 0.27174
 N1603 N -0.00014 0.76601 0.26574
 C1604 C 0.02625 0.76874 0.26844
 H1605 H 0.05473 0.76009 0.25984
 H1606 H 0.05472 0.74005 0.23999
 H1607 H -0.00015 0.75816 0.25799
 H1608 H 0.01409 0.71114 0.21148
 H1609 H -0.01438 0.71112 0.21152
 H1610 H -0.05502 0.74002 0.24011
 H1611 H -0.05502 0.76008 0.25993
 H1612 H 0.01407 0.78899 0.28844
 H1613 H -0.00015 0.74196 0.24195
 H1614 H -0.01440 0.78899 0.28845
 C1615 C 0.54528 0.75542 0.75537
 C1616 C 0.54529 0.74495 0.74498
 C1617 C 0.53096 0.74187 0.74194
 N1618 N 0.52229 0.75018 0.75019
 C1619 C 0.53095 0.75849 0.75843
 C1620 C 0.52634 0.73153 0.73169
 C1621 C 0.51176 0.72819 0.72838
 C1622 C 0.50740 0.71804 0.71831
 C1623 C 0.49252 0.71804 0.71830
 C1624 C 0.48813 0.72819 0.72837
 N1625 N 0.49994 0.73426 0.73438
 C1626 C 0.47354 0.73153 0.73166
 C1627 C 0.46891 0.74187 0.74194
 C1628 C 0.45458 0.74494 0.74499
 C1629 C 0.45457 0.75540 0.75539
 C1630 C 0.46890 0.75847 0.75844
 N1631 N 0.47757 0.75017 0.75019
 C1632 C 0.47351 0.76881 0.76871
 C1633 C 0.48810 0.77215 0.77201
 C1634 C 0.49246 0.78230 0.78207
 C1635 C 0.50734 0.78231 0.78207
 C1636 C 0.51173 0.77216 0.77201
 N1637 N 0.49992 0.76609 0.76600
 C1638 C 0.52632 0.76883 0.76870
 H1639 H 0.55481 0.76020 0.76010
 H1640 H 0.55482 0.74017 0.74023
 H1641 H 0.49993 0.75825 0.75823
 H1642 H 0.51421 0.71132 0.71164
 H1643 H 0.48573 0.71132 0.71163
 H1644 H 0.44506 0.74017 0.74025
 H1645 H 0.44504 0.76018 0.76013
 H1646 H 0.51413 0.78904 0.78874
 H1647 H 0.49993 0.74210 0.74215
 H1648 H 0.48565 0.78903 0.78874
 C1649 C 0.41629 0.29963 0.29935
 C1650 C 0.41345 0.28573 0.29088
 C1651 C 0.42558 0.27983 0.28506
 C1652 C 0.43937 0.28841 0.28827
 C1653 C 0.43989 0.28963 0.30472
 C1654 C 0.42776 0.29553 0.31055
 C1655 C 0.42406 0.30962 0.28871
 C1656 C 0.43620 0.30372 0.28289
 C1657 C 0.40326 0.30598 0.30566
 C1658 C 0.39258 0.31119 0.31091
 C1659 C 0.45229 0.28192 0.28186
 C1660 C 0.46239 0.27611 0.27611
 H1661 H 0.40285 0.28095 0.28954
 H1662 H 0.42535 0.26999 0.27875
 H1663 H 0.44894 0.28606 0.31123
 H1664 H 0.42639 0.29700 0.32205
 H1665 H 0.42026 0.32032 0.28587
 H1666 H 0.44281 0.30937 0.27508
 C1667 C 0.41606 0.80000 0.79953
 C1668 C 0.41324 0.78605 0.79113
 C1669 C 0.42538 0.78015 0.78533
 C1670 C 0.43916 0.78876 0.78849
 C1671 C 0.43969 0.79006 0.80493
 C1672 C 0.42754 0.79596 0.81074
 C1673 C 0.42381 0.80995 0.78885
 C1674 C 0.43595 0.80405 0.78304
 C1675 C 0.40301 0.80637 0.80582
 C1676 C 0.39231 0.81161 0.81104
 C1677 C 0.45209 0.78228 0.78209
 C1678 C 0.46221 0.77647 0.77633
 H1679 H 0.40265 0.78124 0.78983
 H1680 H 0.42517 0.77027 0.77907
 H1681 H 0.44874 0.78653 0.81145
 H1682 H 0.42618 0.79747 0.82224
 H1683 H 0.41999 0.82063 0.78596
 H1684 H 0.44255 0.80968 0.77520
 C1685 C -0.08398 0.30007 0.79925
 C1686 C -0.07424 0.31101 0.79157
 C1687 C -0.06213 0.30505 0.78576
 C1688 C -0.06095 0.28874 0.78820
 C1689 C -0.07503 0.28250 0.78213
 C1690 C -0.08714 0.28846 0.78794
 C1691 C -0.07421 0.29266 0.81035
 C1692 C -0.06209 0.28671 0.80454
 C1693 C -0.09698 0.30650 0.80556
 C1694 C -0.10763 0.31176 0.81083
 C1695 C -0.04804 0.28221 0.78181
 C1696 C -0.03794 0.27636 0.77608
 H1697 H -0.07673 0.32240 0.79063
 H1698 H -0.05422 0.31134 0.77987
 H1699 H -0.07546 0.27412 0.77400
 H1700 H -0.09792 0.28518 0.78478
 H1701 H -0.07668 0.29199 0.82175
 H1702 H -0.05417 0.28096 0.81096
 C1703 C -0.08394 0.80001 0.29924
 C1704 C -0.07423 0.81099 0.29157
 C1705 C -0.06209 0.80507 0.28576
 C1706 C -0.06086 0.78876 0.28818
 C1707 C -0.07492 0.78248 0.28211
 C1708 C -0.08705 0.78839 0.28792
 C1709 C -0.07414 0.79262 0.31034
 C1710 C -0.06201 0.78671 0.30453
 C1711 C -0.09697 0.80637 0.30553
 C1712 C -0.10765 0.81159 0.31079
 C1713 C -0.04794 0.78226 0.28179
 C1714 C -0.03784 0.77644 0.27605
 H1715 H -0.07675 0.82238 0.29065
 H1716 H -0.05420 0.81139 0.27989
 H1717 H -0.07533 0.77410 0.27397
 H1718 H -0.09782 0.78509 0.28475
 H1719 H -0.07661 0.79196 0.32174
 H1720 H -0.05407 0.78100 0.31094
 C1721 C 0.58371 0.70029 0.29948
 C1722 C 0.57535 0.68988 0.28972
 C1723 C 0.56322 0.69577 0.28389
 C1724 C 0.56065 0.71148 0.28837
 C1725 C 0.57459 0.71942 0.28422
 C1726 C 0.58671 0.71352 0.29006
 C1727 C 0.57271 0.70543 0.31072
 C1728 C 0.56059 0.71132 0.30487
 C1729 C 0.59675 0.69397 0.30579
 C1730 C 0.60743 0.68877 0.31106
 C1731 C 0.54774 0.71796 0.28195
 C1732 C 0.53765 0.72378 0.27619
 H1733 H 0.57875 0.67892 0.28746
 H1734 H 0.55621 0.68985 0.27664
 H1735 H 0.57492 0.72883 0.27730
 H1736 H 0.59740 0.71786 0.28812
 H1737 H 0.57438 0.70465 0.32225
 H1738 H 0.55185 0.71558 0.31139
 C1739 C 0.58371 0.20014 0.79949
 C1740 C 0.58679 0.21243 0.78889
 C1741 C 0.57466 0.21831 0.78306
 C1742 C 0.56062 0.21133 0.78840
 C1743 C 0.56126 0.21253 0.80485
 C1744 C 0.57340 0.20665 0.81069
 C1745 C 0.57453 0.18933 0.79099
 C1746 C 0.56239 0.19521 0.78516
 C1747 C 0.59676 0.19379 0.80578
 C1748 C 0.60746 0.18857 0.81099
 C1749 C 0.54770 0.21780 0.78198
 C1750 C 0.53759 0.22360 0.77621
 H1751 H 0.59754 0.21617 0.78619
 H1752 H 0.57504 0.22711 0.77537
 H1753 H 0.55299 0.21767 0.81133
 H1754 H 0.57554 0.20677 0.82217
 H1755 H 0.57741 0.17808 0.78953
 H1756 H 0.55486 0.18900 0.77873
 C1757 C 1.08378 0.70030 0.79939
 C1758 C 1.08685 0.71036 0.78665
 C1759 C 1.07473 0.71627 0.78083
 C1760 C 1.06073 0.71155 0.78831
 C1761 C 1.06293 0.71537 0.80422
 C1762 C 1.07505 0.70946 0.81005
 C1763 C 1.07309 0.68911 0.79357
 C1764 C 1.06096 0.69503 0.78774
 C1765 C 1.09680 0.69394 0.80570
 C1766 C 1.10747 0.68872 0.81096
 C1767 C 1.04782 0.71804 0.78190
 C1768 C 1.03773 0.72387 0.77615
 H1769 H 1.09757 0.71267 0.78258
 H1770 H 1.07509 0.72365 0.77176
 H1771 H 1.05569 0.72223 0.81033
 H1772 H 1.07821 0.71127 0.82114
 H1773 H 1.07495 0.67757 0.79387
 H1774 H 1.05242 0.68855 0.78307
 C1775 C 1.08370 0.20026 0.29937
 C1776 C 1.07388 0.20763 0.31045
 C1777 C 1.06176 0.21353 0.30461
 C1778 C 1.06066 0.21150 0.28827
 C1779 C 1.06191 0.19519 0.28584
 C1780 C 1.07403 0.18928 0.29167
 C1781 C 1.08685 0.21188 0.28807
 C1782 C 1.07474 0.21780 0.28223
 C1783 C 1.09671 0.19388 0.30571
 C1784 C 1.10736 0.18866 0.31099
 C1785 C 1.04775 0.21798 0.28186
 C1786 C 1.03766 0.22380 0.27611
 H1787 H 1.07632 0.20830 0.32186
 H1788 H 1.05380 0.21925 0.31101
 H1789 H 1.05404 0.18887 0.27993
 H1790 H 1.07657 0.17790 0.29074
 H1791 H 1.09763 0.21519 0.28493
 H1792 H 1.07516 0.22618 0.27409
 C1793 C 0.58369 0.29972 0.70062
 C1794 C 0.57394 0.29222 0.68957
 C1795 C 0.56182 0.28633 0.69541
 C1796 C 0.56063 0.28851 0.71173
 C1797 C 0.56179 0.30484 0.71401
 C1798 C 0.57392 0.31074 0.70818
 C1799 C 0.58683 0.28821 0.71205
 C1800 C 0.57472 0.28231 0.71789
 C1801 C 0.59669 0.30609 0.69427
 C1802 C 0.60734 0.31132 0.68898
 C1803 C 0.54772 0.28203 0.71816
 C1804 C 0.53762 0.27622 0.72392
 H1805 H 0.57644 0.29146 0.67818
 H1806 H 0.55392 0.28054 0.68903
 H1807 H 0.55386 0.31120 0.71981
 H1808 H 0.57639 0.32214 0.70901
 H1809 H 0.59761 0.28497 0.71527
 H1810 H 0.57514 0.27401 0.72611
 C1811 C 0.58380 0.80002 0.20084
 C1812 C 0.57587 0.78973 0.19062
 C1813 C 0.56374 0.78383 0.19643
 C1814 C 0.56074 0.78879 0.21189
 C1815 C 0.56033 0.80530 0.21115
 C1816 C 0.57246 0.81121 0.20534
 C1817 C 0.58671 0.79111 0.21444
 C1818 C 0.57459 0.78521 0.22025
 C1819 C 0.59680 0.80636 0.19450
 C1820 C 0.60744 0.81157 0.18919
 C1821 C 0.54783 0.78230 0.21828
 C1822 C 0.53773 0.77647 0.22401
 H1823 H 0.57956 0.78717 0.17983
 H1824 H 0.55703 0.77623 0.19061
 H1825 H 0.55135 0.81178 0.21495
 H1826 H 0.57390 0.82276 0.20420
 H1827 H 0.59734 0.78955 0.21908
 H1828 H 0.57485 0.77857 0.22987
 C1829 C 1.08377 0.30009 0.20077
 C1830 C 1.07413 0.29245 0.18972
 C1831 C 1.06201 0.28654 0.19554
 C1832 C 1.06072 0.28884 0.21184
 C1833 C 1.06178 0.30520 0.21400
 C1834 C 1.07390 0.31112 0.20819
 C1835 C 1.08691 0.28869 0.21230
 C1836 C 1.07480 0.28277 0.21812
 C1837 C 1.09677 0.30645 0.19445
 C1838 C 1.10742 0.31166 0.18915
 C1839 C 1.04781 0.28234 0.21823
 C1840 C 1.03771 0.27652 0.22396
 H1841 H 1.07670 0.29162 0.17836
 H1842 H 1.05418 0.28066 0.18916
 H1843 H 1.05378 0.31155 0.21972
 H1844 H 1.07631 0.32254 0.20895
 H1845 H 1.09769 0.28553 0.21561
 H1846 H 1.07522 0.27453 0.22640
 C1847 C 1.08384 0.80008 0.70071
 C1848 C 1.07593 0.78975 0.69053
 C1849 C 1.06381 0.78385 0.69636
 C1850 C 1.06079 0.78887 0.71180
 C1851 C 1.06036 0.80538 0.71100
 C1852 C 1.07249 0.81128 0.70517
 C1853 C 1.08675 0.79123 0.71435
 C1854 C 1.07463 0.78533 0.72018
 C1855 C 1.09687 0.80640 0.69438
 C1856 C 1.10755 0.81155 0.68909
 C1857 C 1.04788 0.78238 0.71820
 C1858 C 1.03779 0.77655 0.72395
 H1859 H 1.07963 0.78716 0.67975
 H1860 H 1.05711 0.77623 0.69056
 H1861 H 1.05137 0.81186 0.71477
 H1862 H 1.07391 0.82283 0.70398
 H1863 H 1.09738 0.78969 0.71901
 H1864 H 1.07489 0.77874 0.72983
 C1865 C 0.41623 0.70030 0.70071
 C1866 C 0.41305 0.71183 0.71211
 C1867 C 0.42515 0.71774 0.71796
 C1868 C 0.43925 0.71155 0.71184
 C1869 C 0.43809 0.71372 0.69552
 C1870 C 0.42599 0.70780 0.68966
 C1871 C 0.42600 0.68931 0.70830
 C1872 C 0.43810 0.69522 0.71415
 C1873 C 0.40323 0.69392 0.69436
 C1874 C 0.39258 0.68868 0.68908
 C1875 C 0.45215 0.71805 0.71828
 C1876 C 0.46225 0.72386 0.72405
 H1877 H 0.40226 0.71507 0.71531
 H1878 H 0.42470 0.72606 0.72617
 H1879 H 0.44600 0.71951 0.68914
 H1880 H 0.42351 0.70856 0.67827
 H1881 H 0.42353 0.67790 0.70915
 H1882 H 0.44603 0.68888 0.71997
 C1883 C 0.41630 0.19988 0.20071
 C1884 C 0.41316 0.21142 0.21211
 C1885 C 0.42527 0.21730 0.21795
 C1886 C 0.43935 0.21108 0.21181
 C1887 C 0.43818 0.21324 0.19548
 C1888 C 0.42606 0.20735 0.18965
 C1889 C 0.42604 0.18886 0.20829
 C1890 C 0.43817 0.19475 0.21413
 C1891 C 0.40327 0.19356 0.19439
 C1892 C 0.39259 0.18840 0.18912
 C1893 C 0.45226 0.21756 0.21822
 C1894 C 0.46235 0.22338 0.22396
 H1895 H 0.40238 0.21466 0.21534
 H1896 H 0.42485 0.22561 0.22616
 H1897 H 0.44610 0.21899 0.18909
 H1898 H 0.42358 0.20808 0.17826
 H1899 H 0.42354 0.17747 0.20915
 H1900 H 0.44608 0.18840 0.21995
 C1901 C -0.08387 0.70003 0.20081
 C1902 C -0.08702 0.71160 0.21216
 C1903 C -0.07491 0.71753 0.21796
 C1904 C -0.06082 0.71130 0.21185
 C1905 C -0.06200 0.71339 0.19552
 C1906 C -0.07412 0.70747 0.18971
 C1907 C -0.07410 0.68905 0.20843
 C1908 C -0.06198 0.69498 0.21423
 C1909 C -0.09688 0.69366 0.19450
 C1910 C -0.10753 0.68846 0.18921
 C1911 C -0.04792 0.71782 0.21823
 C1912 C -0.03783 0.72366 0.22396
 H1913 H -0.09780 0.71487 0.21536
 H1914 H -0.07533 0.72588 0.22613
 H1915 H -0.05410 0.71914 0.18910
 H1916 H -0.07661 0.70816 0.17832
 H1917 H -0.07657 0.67765 0.20932
 H1918 H -0.05405 0.68866 0.22007
 C1919 C -0.08394 0.19999 0.70077
 C1920 C -0.07417 0.20743 0.68969
 C1921 C -0.06206 0.21334 0.69552
 C1922 C -0.06090 0.21123 0.71185
 C1923 C -0.06208 0.19491 0.71422
 C1924 C -0.07419 0.18900 0.70839
 C1925 C -0.08709 0.21155 0.71213
 C1926 C -0.07499 0.21746 0.71796
 C1927 C -0.09695 0.19364 0.69444
 C1928 C -0.10760 0.18845 0.68915
 C1929 C -0.04801 0.21774 0.71826
 C1930 C -0.03792 0.22357 0.72400
 H1931 H -0.07664 0.20813 0.67829
 H1932 H -0.05414 0.21909 0.68912
 H1933 H -0.05416 0.18858 0.72006
 H1934 H -0.07667 0.17760 0.70926
 H1935 H -0.09788 0.21482 0.71533
 H1936 H -0.07542 0.22580 0.72614
 C1937 C 0.29971 0.41610 0.29926
 C1938 C 0.29649 0.42793 0.31035
 C1939 C 0.29060 0.44006 0.30452
 C1940 C 0.28850 0.43917 0.28818
 C1941 C 0.27941 0.42554 0.28578
 C1942 C 0.28530 0.41342 0.29160
 C1943 C 0.30933 0.42332 0.28792
 C1944 C 0.30343 0.43545 0.28209
 C1945 C 0.30606 0.40307 0.30558
 C1946 C 0.31128 0.39240 0.31085
 C1947 C 0.28203 0.45210 0.28178
 C1948 C 0.27623 0.46221 0.27603
 H1949 H 0.29854 0.42682 0.32180
 H1950 H 0.28760 0.44935 0.31097
 H1951 H 0.26925 0.42542 0.27997
 H1952 H 0.28020 0.40292 0.29077
 H1953 H 0.31976 0.41916 0.28462
 H1954 H 0.30883 0.44170 0.27382
 C1955 C 0.30021 -0.08437 0.79927
 C1956 C 0.29269 -0.07464 0.81034
 C1957 C 0.28675 -0.06253 0.80452
 C1958 C 0.28890 -0.06130 0.78820
 C1959 C 0.28273 -0.07537 0.78204
 C1960 C 0.28867 -0.08749 0.78786
 C1961 C 0.31119 -0.07458 0.79170
 C1962 C 0.30525 -0.06246 0.78589
 C1963 C 0.30662 -0.09742 0.80560
 C1964 C 0.31186 -0.10810 0.81088
 C1965 C 0.28237 -0.04834 0.78180
 C1966 C 0.27654 -0.03819 0.77608
 H1967 H 0.29196 -0.07715 0.82173
 H1968 H 0.28095 -0.05465 0.81093
 H1969 H 0.27440 -0.07579 0.77384
 H1970 H 0.28544 -0.09825 0.78463
 H1971 H 0.32260 -0.07704 0.79085
 H1972 H 0.31158 -0.05453 0.78008
 C1973 C 0.79993 0.41608 0.79957
 C1974 C 0.79671 0.42793 0.81065
 C1975 C 0.79082 0.44006 0.80481
 C1976 C 0.78871 0.43915 0.78847
 C1977 C 0.77962 0.42552 0.78608
 C1978 C 0.78552 0.41340 0.79192
 C1979 C 0.80954 0.42330 0.78822
 C1980 C 0.80365 0.43542 0.78238
 C1981 C 0.80629 0.40307 0.80590
 C1982 C 0.81151 0.39241 0.81119
 C1983 C 0.78224 0.45207 0.78206
 C1984 C 0.77644 0.46218 0.77631
 H1985 H 0.79876 0.42682 0.82210
 H1986 H 0.78783 0.44935 0.81125
 H1987 H 0.76946 0.42540 0.78028
 H1988 H 0.78042 0.40290 0.79110
 H1989 H 0.81997 0.41913 0.78490
 H1990 H 0.80904 0.44167 0.77410
 C1991 C 0.79986 -0.08420 0.29946
 C1992 C 0.79234 -0.07446 0.31051
 C1993 C 0.78646 -0.06233 0.30467
 C1994 C 0.78867 -0.06113 0.28836
 C1995 C 0.78246 -0.07518 0.28218
 C1996 C 0.78835 -0.08730 0.28802
 C1997 C 0.81090 -0.07446 0.29192
 C1998 C 0.80501 -0.06233 0.28609
 C1999 C 0.80620 -0.09723 0.30578
 C2000 C 0.81140 -0.10789 0.31107
 C2001 C 0.78221 -0.04820 0.28195
 C2002 C 0.77642 -0.03808 0.27620
 H2003 H 0.79156 -0.07696 0.32190
 H2004 H 0.78066 -0.05443 0.31106
 H2005 H 0.77416 -0.07557 0.27396
 H2006 H 0.78510 -0.09806 0.28479
 H2007 H 0.82231 -0.07696 0.29110
 H2008 H 0.81138 -0.05442 0.28029
 C2009 C 0.29977 0.58374 0.70061
 C2010 C 0.29290 0.57366 0.68946
 C2011 C 0.28700 0.56154 0.69530
 C2012 C 0.28854 0.56069 0.71171
 C2013 C 0.28184 0.57475 0.71734
 C2014 C 0.28774 0.58686 0.71151
 C2015 C 0.31066 0.57434 0.70879
 C2016 C 0.30476 0.56222 0.71462
 C2017 C 0.30614 0.59675 0.69429
 C2018 C 0.31137 0.60741 0.68901
 C2019 C 0.28206 0.54777 0.71813
 C2020 C 0.27626 0.53767 0.72388
 H2021 H 0.29254 0.57593 0.67801
 H2022 H 0.28161 0.55342 0.68884
 H2023 H 0.27319 0.57517 0.72521
 H2024 H 0.28416 0.59763 0.71440
 H2025 H 0.32198 0.57705 0.71004
 H2026 H 0.31102 0.55453 0.72083
 C2027 C 0.29984 1.08371 0.20056
 C2028 C 0.31038 1.07097 0.20141
 C2029 C 0.30449 1.05884 0.20723
 C2030 C 0.28866 1.06067 0.21161
 C2031 C 0.28091 1.06587 0.19797
 C2032 C 0.28680 1.07800 0.19216
 C2033 C 0.29436 1.08582 0.21599
 C2034 C 0.28848 1.07370 0.22181
 C2035 C 0.30618 1.09671 0.19428
 C2036 C 0.31137 1.10738 0.18905
 C2037 C 0.28220 1.04779 0.21800
 C2038 C 0.27639 1.03772 0.22376
 H2039 H 0.32152 1.07147 0.19785
 H2040 H 0.31057 1.04894 0.20864
 H2041 H 0.27153 1.06060 0.19338
 H2042 H 0.28244 1.08313 0.18260
 H2043 H 0.29496 1.09594 0.22181
 H2044 H 0.28403 1.07345 0.23262
 C2045 C 0.79978 0.58376 0.20067
 C2046 C 0.80940 0.57036 0.19924
 C2047 C 0.80350 0.55823 0.20504
 C2048 C 0.78858 0.56071 0.21170
 C2049 C 0.77945 0.56736 0.19962
 C2050 C 0.78534 0.57949 0.19382
 C2051 C 0.79659 0.58507 0.21682
 C2052 C 0.79070 0.57295 0.22262
 C2053 C 0.80612 0.59676 0.19439
 C2054 C 0.81134 0.60740 0.18913
 C2055 C 0.78211 0.54783 0.21808
 C2056 C 0.77632 0.53775 0.22384
 H2057 H 0.81994 0.57041 0.19416
 H2058 H 0.80897 0.54788 0.20493
 H2059 H 0.76919 0.56303 0.19605
 H2060 H 0.78012 0.58556 0.18531
 H2061 H 0.79864 0.59471 0.22311
 H2062 H 0.78771 0.57220 0.23389
 C2063 C 0.79977 1.08372 0.70061
 C2064 C 0.79473 1.07271 0.68935
 C2065 C 0.78884 1.06059 0.69518
 C2066 C 0.78857 1.06070 0.71169
 C2067 C 0.78056 1.07461 0.71575
 C2068 C 0.78644 1.08672 0.70993
 C2069 C 0.81014 1.07540 0.71044
 C2070 C 0.80425 1.06328 0.71627
 C2071 C 0.80610 1.09671 0.69431
 C2072 C 0.81130 1.10737 0.68906
 C2073 C 0.78210 1.04784 0.71810
 C2074 C 0.77628 1.03779 0.72388
 H2075 H 0.79558 1.07436 0.67782
 H2076 H 0.78466 1.05185 0.68866
 H2077 H 0.77108 1.07492 0.72261
 H2078 H 0.78203 1.09739 0.71180
 H2079 H 0.82110 1.07881 0.71275
 H2080 H 0.81016 1.05629 0.72355
 C2081 C 0.70026 0.58389 0.29940
 C2082 C 0.70759 0.57403 0.31048
 C2083 C 0.71348 0.56191 0.30463
 C2084 C 0.71146 0.56084 0.28828
 C2085 C 0.71781 0.57490 0.28227
 C2086 C 0.71192 0.58701 0.28812
 C2087 C 0.68926 0.57427 0.29167
 C2088 C 0.69515 0.56214 0.28583
 C2089 C 0.69395 0.59692 0.30573
 C2090 C 0.68875 0.60758 0.31101
 C2091 C 0.71793 0.54792 0.28187
 C2092 C 0.72372 0.53781 0.27611
 H2093 H 0.70825 0.57645 0.32189
 H2094 H 0.71917 0.55394 0.31102
 H2095 H 0.72620 0.57532 0.27414
 H2096 H 0.71524 0.59778 0.28499
 H2097 H 0.67787 0.57684 0.29071
 H2098 H 0.68881 0.55431 0.27989
 C2099 C 0.70015 1.08421 0.79955
 C2100 C 0.71109 1.08732 0.78756
 C2101 C 0.71698 1.07521 0.78170
 C2102 C 0.71136 1.06114 0.78838
 C2103 C 0.69490 1.06197 0.78681
 C2104 C 0.68901 1.07409 0.79267
 C2105 C 0.70834 1.07483 0.81043
 C2106 C 0.71423 1.06271 0.80457
 C2107 C 0.69380 1.09726 0.80590
 C2108 C 0.68859 1.10795 0.81117
 C2109 C 0.71784 1.04819 0.78194
 C2110 C 0.72364 1.03805 0.77619
 H2111 H 0.71395 1.09808 0.78398
 H2112 H 0.72490 1.07562 0.77310
 H2113 H 0.68847 1.05383 0.78143
 H2114 H 0.67753 1.07634 0.79229
 H2115 H 0.70955 1.07755 0.82173
 H2116 H 0.72047 1.05505 0.81084
 C2117 C 0.20014 0.58370 0.79941
 C2118 C 0.20750 0.57388 0.81051
 C2119 C 0.21338 0.56175 0.80469
 C2120 C 0.21134 0.56063 0.78834
 C2121 C 0.21767 0.57467 0.78228
 C2122 C 0.21178 0.58680 0.78810
 C2123 C 0.18913 0.57404 0.79174
 C2124 C 0.19502 0.56191 0.78592
 C2125 C 0.19380 0.59673 0.80572
 C2126 C 0.18862 0.60741 0.81098
 C2127 C 0.21781 0.54771 0.78194
 C2128 C 0.22361 0.53761 0.77618
 H2129 H 0.20816 0.57634 0.82191
 H2130 H 0.21908 0.55380 0.81110
 H2131 H 0.22606 0.57506 0.77414
 H2132 H 0.21512 0.59755 0.78493
 H2133 H 0.17774 0.57660 0.79081
 H2134 H 0.18867 0.55405 0.78004
 C2135 C 0.20025 1.08386 0.29927
 C2136 C 0.20772 1.07409 0.31032
 C2137 C 0.21363 1.06198 0.30448
 C2138 C 0.21149 1.06084 0.28815
 C2139 C 0.21772 1.07490 0.28204
 C2140 C 0.21180 1.08701 0.28788
 C2141 C 0.18924 1.07415 0.29166
 C2142 C 0.19515 1.06203 0.28582
 C2143 C 0.19387 1.09685 0.30561
 C2144 C 0.18864 1.10750 0.31091
 C2145 C 0.21797 1.04792 0.28174
 C2146 C 0.22377 1.03782 0.27599
 H2147 H 0.20847 1.07657 0.32171
 H2148 H 0.21942 1.05407 0.31086
 H2149 H 0.22605 1.07533 0.27384
 H2150 H 0.21507 1.09778 0.28469
 H2151 H 0.17784 1.07665 0.29078
 H2152 H 0.18881 1.05415 0.27996
 C2153 C 0.70027 0.41616 0.70069
 C2154 C 0.71178 0.41300 0.71213
 C2155 C 0.71768 0.42510 0.71798
 C2156 C 0.71150 0.43918 0.71183
 C2157 C 0.69515 0.43802 0.71410
 C2158 C 0.68925 0.42591 0.70825
 C2159 C 0.70780 0.42590 0.68966
 C2160 C 0.71370 0.43800 0.69551
 C2161 C 0.69391 0.40316 0.69433
 C2162 C 0.68867 0.39253 0.68902
 C2163 C 0.71798 0.45209 0.71826
 C2164 C 0.72379 0.46219 0.72402
 H2165 H 0.71502 0.40222 0.71535
 H2166 H 0.72598 0.42467 0.72620
 H2167 H 0.68879 0.44594 0.71990
 H2168 H 0.67784 0.42344 0.70908
 H2169 H 0.70857 0.42342 0.67827
 H2170 H 0.71949 0.44590 0.68913
 C2171 C 0.70030 -0.08388 0.20071
 C2172 C 0.68929 -0.07411 0.20828
 C2173 C 0.69521 -0.06201 0.21409
 C2174 C 0.71155 -0.06088 0.21177
 C2175 C 0.71371 -0.06206 0.19544
 C2176 C 0.70779 -0.07416 0.18963
 C2177 C 0.71184 -0.08704 0.21211
 C2178 C 0.71775 -0.07494 0.21792
 C2179 C 0.69394 -0.09686 0.19442
 C2180 C 0.68874 -0.10751 0.18918
 C2181 C 0.71804 -0.04801 0.21816
 C2182 C 0.72385 -0.03794 0.22391
 H2183 H 0.67788 -0.07658 0.20914
 H2184 H 0.68887 -0.05407 0.21991
 H2185 H 0.71951 -0.05418 0.18905
 H2186 H 0.70854 -0.07667 0.17824
 H2187 H 0.71509 -0.09781 0.21532
 H2188 H 0.72609 -0.07537 0.22611
 C2189 C 0.20016 0.41632 0.20060
 C2190 C 0.21429 0.41351 0.20871
 C2191 C 0.22018 0.42563 0.21452
 C2192 C 0.21135 0.43935 0.21165
 C2193 C 0.19619 0.43597 0.21736
 C2194 C 0.19031 0.42384 0.21155
 C2195 C 0.20386 0.42793 0.18943
 C2196 C 0.20974 0.44005 0.19524
 C2197 C 0.19381 0.40333 0.19430
 C2198 C 0.18859 0.39269 0.18903
 C2199 C 0.21781 0.45223 0.21804
 C2200 C 0.22361 0.46230 0.22380
 H2201 H 0.21921 0.40295 0.20983
 H2202 H 0.23017 0.42544 0.22061
 H2203 H 0.19064 0.44243 0.22537
 H2204 H 0.17972 0.41989 0.21461
 H2205 H 0.20215 0.42667 0.17794
 H2206 H 0.21306 0.44919 0.18876
 C2207 C 0.20027 -0.08378 0.70058
 C2208 C 0.18925 -0.07406 0.70820
 C2209 C 0.19516 -0.06196 0.71404
 C2210 C 0.21149 -0.06078 0.71167
 C2211 C 0.21361 -0.06191 0.69534
 C2212 C 0.20770 -0.07401 0.68950
 C2213 C 0.21184 -0.08694 0.71194
 C2214 C 0.21774 -0.07485 0.71777
 C2215 C 0.19393 -0.09676 0.69426
 C2216 C 0.18876 -0.10743 0.68901
 C2217 C 0.21798 -0.04793 0.71809
 C2218 C 0.22381 -0.03788 0.72387
 H2219 H 0.17785 -0.07655 0.70908
 H2220 H 0.18882 -0.05405 0.71988
 H2221 H 0.21936 -0.05399 0.68894
 H2222 H 0.20842 -0.07648 0.67811
 H2223 H 0.21513 -0.09771 0.71512
 H2224 H 0.22610 -0.07528 0.72594
 C2225 C 0.29953 0.29946 0.41638
 C2226 C 0.29050 0.31015 0.42520
 C2227 C 0.28464 0.30430 0.43732
 C2228 C 0.28839 0.28833 0.43943
 C2229 C 0.30491 0.28765 0.43908
 C2230 C 0.31077 0.29350 0.42696
 C2231 C 0.28936 0.28678 0.41335
 C2232 C 0.28351 0.28093 0.42546
 C2233 C 0.30586 0.30578 0.40337
 C2234 C 0.31111 0.31102 0.39272
 C2235 C 0.28195 0.28191 0.45234
 C2236 C 0.27617 0.27614 0.46243
 H2237 H 0.28871 0.32129 0.42210
 H2238 H 0.27786 0.31043 0.44462
 H2239 H 0.31143 0.28287 0.44753
 H2240 H 0.32231 0.29370 0.42501
 H2241 H 0.28696 0.28276 0.40265
 H2242 H 0.27609 0.27190 0.42512
 C2243 C 0.29995 0.79941 -0.08385
 C2244 C 0.28849 0.78791 -0.08694
 C2245 C 0.28262 0.78207 -0.07482
 C2246 C 0.28879 0.78829 -0.06079
 C2247 C 0.28652 0.80463 -0.06203
 C2248 C 0.29238 0.81047 -0.07415
 C2249 C 0.31101 0.79191 -0.07409
 C2250 C 0.30515 0.78607 -0.06197
 C2251 C 0.30628 0.80575 -0.09688
 C2252 C 0.31150 0.81103 -0.10754
 C2253 C 0.28233 0.78188 -0.04787
 C2254 C 0.27653 0.77613 -0.03776
 H2255 H 0.28527 0.78462 -0.09768
 H2256 H 0.27437 0.77378 -0.07521
 H2257 H 0.28069 0.81102 -0.05416
 H2258 H 0.29156 0.82186 -0.07666
 H2259 H 0.32242 0.79111 -0.07658
 H2260 H 0.31153 0.78029 -0.05406
 C2261 C 0.79935 0.29993 -0.08374
 C2262 C 0.78793 0.28839 -0.08683
 C2263 C 0.78211 0.28251 -0.07472
 C2264 C 0.78827 0.28874 -0.06070
 C2265 C 0.78594 0.30507 -0.06190
 C2266 C 0.79176 0.31095 -0.07401
 C2267 C 0.81046 0.29246 -0.07401
 C2268 C 0.80463 0.28658 -0.06190
 C2269 C 0.80564 0.30629 -0.09676
 C2270 C 0.81085 0.31153 -0.10743
 C2271 C 0.78187 0.28227 -0.04778
 C2272 C 0.77612 0.27647 -0.03769
 H2273 H 0.78469 0.28513 -0.09757
 H2274 H 0.77388 0.27420 -0.07511
 H2275 H 0.78010 0.31142 -0.05400
 H2276 H 0.79089 0.32235 -0.07651
 H2277 H 0.82187 0.29171 -0.07652
 H2278 H 0.81105 0.28081 -0.05401
 C2279 C 0.79937 0.79984 0.41629
 C2280 C 0.79034 0.81051 0.42514
 C2281 C 0.78451 0.80464 0.43726
 C2282 C 0.78828 0.78867 0.43934
 C2283 C 0.80481 0.78801 0.43896
 C2284 C 0.81064 0.79388 0.42684
 C2285 C 0.78922 0.78715 0.41326
 C2286 C 0.78339 0.78128 0.42538
 C2287 C 0.80568 0.80618 0.40327
 C2288 C 0.81091 0.81144 0.39262
 C2289 C 0.78187 0.78223 0.45226
 C2290 C 0.77612 0.77644 0.46237
 H2291 H 0.78853 0.82165 0.42205
 H2292 H 0.77773 0.81076 0.44457
 H2293 H 0.81134 0.78324 0.44740
 H2294 H 0.82217 0.79411 0.42488
 H2295 H 0.78680 0.78313 0.40256
 H2296 H 0.77598 0.77223 0.42504
 C2297 C 0.70043 0.29944 0.58363
 C2298 C 0.71103 0.28711 0.58668
 C2299 C 0.71687 0.28125 0.57457
 C2300 C 0.71155 0.28829 0.56057
 C2301 C 0.71483 0.30439 0.56238
 C2302 C 0.70899 0.31025 0.57450
 C2303 C 0.68921 0.29300 0.57333
 C2304 C 0.69506 0.28714 0.56121
 C2305 C 0.69412 0.30578 0.59665
 C2306 C 0.68890 0.31102 0.60731
 C2307 C 0.71797 0.28185 0.54766
 C2308 C 0.72374 0.27607 0.53756
 H2309 H 0.71372 0.28332 0.59740
 H2310 H 0.72457 0.27243 0.57493
 H2311 H 0.72131 0.31060 0.55488
 H2312 H 0.71048 0.32148 0.57740
 H2313 H 0.67770 0.29290 0.57546
 H2314 H 0.68856 0.28204 0.55294
 C2315 C 0.70062 0.79978 1.08380
 C2316 C 0.70810 0.81085 1.07405
 C2317 C 0.71394 0.80500 1.06193
 C2318 C 0.71173 0.78866 1.06075
 C2319 C 0.69539 0.78639 1.06198
 C2320 C 0.68955 0.79224 1.07410
 C2321 C 0.71214 0.78832 1.08688
 C2322 C 0.71798 0.78247 1.07476
 C2323 C 0.69430 0.80606 1.09682
 C2324 C 0.68907 0.81122 1.10751
 C2325 C 0.71814 0.78222 1.04784
 C2326 C 0.72389 0.77642 1.03775
 H2327 H 0.70889 0.82225 1.07655
 H2328 H 0.71973 0.81138 1.05402
 H2329 H 0.68900 0.78058 1.05411
 H2330 H 0.67814 0.79143 1.07663
 H2331 H 0.71544 0.78509 1.09762
 H2332 H 0.72629 0.77422 1.07514
 C2333 C 0.20056 0.29972 1.08379
 C2334 C 0.21184 0.28802 1.08689
 C2335 C 0.21768 0.28214 1.07478
 C2336 C 0.21166 0.28853 1.06076
 C2337 C 0.21417 0.30482 1.06206
 C2338 C 0.20834 0.31070 1.07418
 C2339 C 0.18944 0.29245 1.07395
 C2340 C 0.19527 0.28657 1.06184
 C2341 C 0.19424 0.30606 1.09679
 C2342 C 0.18900 0.31128 1.10744
 C2343 C 0.21806 0.28207 1.04786
 C2344 C 0.22381 0.27626 1.03777
 H2345 H 0.21498 0.28466 1.09763
 H2346 H 0.22581 0.27373 1.07518
 H2347 H 0.22014 0.31114 1.05425
 H2348 H 0.20933 0.32207 1.07676
 H2349 H 0.17800 0.29184 1.07638
 H2350 H 0.18884 0.28093 1.05388
 C2351 C 0.20057 0.79986 0.58361
 C2352 C 0.20813 0.81091 0.57390
 C2353 C 0.21397 0.80506 0.56177
 C2354 C 0.21167 0.78873 0.56055
 C2355 C 0.19532 0.78655 0.56175
 C2356 C 0.18948 0.79240 0.57387
 C2357 C 0.21202 0.78833 0.58668
 C2358 C 0.21786 0.78248 0.57457
 C2359 C 0.19424 0.80617 0.59662
 C2360 C 0.18898 0.81138 0.60727
 C2361 C 0.21808 0.78230 0.54764
 C2362 C 0.22383 0.77651 0.53754
 H2363 H 0.20898 0.82230 0.57643
 H2364 H 0.21980 0.81143 0.55390
 H2365 H 0.18891 0.78079 0.55385
 H2366 H 0.17807 0.79164 0.57637
 H2367 H 0.21528 0.78506 0.59742
 H2368 H 0.22612 0.77419 0.57494
 C2369 C 0.29954 0.70054 0.58362
 C2370 C 0.31061 0.70807 0.57390
 C2371 C 0.30477 0.71392 0.56178
 C2372 C 0.28842 0.71168 0.56057
 C2373 C 0.28219 0.71788 0.57459
 C2374 C 0.28804 0.71202 0.58670
 C2375 C 0.29204 0.68949 0.57388
 C2376 C 0.28619 0.69535 0.56176
 C2377 C 0.30586 0.69421 0.59664
 C2378 C 0.31108 0.68898 0.60731
 C2379 C 0.28200 0.71812 0.54765
 C2380 C 0.27623 0.72390 0.53755
 H2381 H 0.32202 0.70888 0.57642
 H2382 H 0.31116 0.71973 0.55390
 H2383 H 0.27391 0.72615 0.57497
 H2384 H 0.28477 0.71527 0.59744
 H2385 H 0.29123 0.67809 0.57638
 H2386 H 0.28040 0.68897 0.55386
 C2387 C 0.29944 0.20019 1.08377
 C2388 C 0.29182 0.18915 1.07411
 C2389 C 0.28596 0.19501 1.06199
 C2390 C 0.28830 0.21133 1.06074
 C2391 C 0.30466 0.21347 1.06188
 C2392 C 0.31052 0.20761 1.07399
 C2393 C 0.28802 0.21175 1.08688
 C2394 C 0.28217 0.21761 1.07477
 C2395 C 0.30579 0.19388 1.09677
 C2396 C 0.31107 0.18866 1.10741
 C2397 C 0.28187 0.21777 1.04784
 C2398 C 0.27611 0.22357 1.03775
 H2399 H 0.29094 0.17777 1.07665
 H2400 H 0.28008 0.18865 1.05414
 H2401 H 0.31106 0.21920 1.05395
 H2402 H 0.32194 0.20834 1.07645
 H2403 H 0.28481 0.21504 1.09762
 H2404 H 0.27393 0.22593 1.07516
 C2405 C 0.79940 0.70029 1.08379
 C2406 C 0.79176 0.68927 1.07412
 C2407 C 0.78592 0.69515 1.06200
 C2408 C 0.78831 0.71146 1.06075
 C2409 C 0.80468 0.71354 1.06190
 C2410 C 0.81051 0.70767 1.07401
 C2411 C 0.78802 0.71189 1.08688
 C2412 C 0.78219 0.71776 1.07477
 C2413 C 0.80572 0.69396 1.09679
 C2414 C 0.81098 0.68873 1.10744
 C2415 C 0.78192 0.71791 1.04784
 C2416 C 0.77618 0.72372 1.03775
 H2417 H 0.79084 0.67789 1.07667
 H2418 H 0.78004 0.68880 1.05415
 H2419 H 0.81110 0.71926 1.05397
 H2420 H 0.82193 0.70837 1.07648
 H2421 H 0.78481 0.71519 1.09762
 H2422 H 0.77399 0.72610 1.07515
 C2423 C 0.79938 0.20012 0.58363
 C2424 C 0.80902 0.21150 0.57647
 C2425 C 0.80319 0.21734 0.56435
 C2426 C 0.78829 0.21124 0.56056
 C2427 C 0.77912 0.21362 0.57413
 C2428 C 0.78495 0.20777 0.58626
 C2429 C 0.79626 0.18902 0.57178
 C2430 C 0.79042 0.19487 0.55965
 C2431 C 0.80571 0.19381 0.59664
 C2432 C 0.81097 0.18860 0.60729
 C2433 C 0.78189 0.21767 0.54765
 C2434 C 0.77614 0.22346 0.53755
 H2435 H 0.81942 0.21481 0.58068
 H2436 H 0.80860 0.22565 0.55815
 H2437 H 0.76895 0.21943 0.57421
 H2438 H 0.77979 0.20857 0.59671
 H2439 H 0.79831 0.17756 0.57288
 H2440 H 0.78750 0.18843 0.55035
 C2441 C 0.70041 0.70054 0.41645
 C2442 C 0.68933 0.70803 0.42618
 C2443 C 0.69517 0.71389 0.43830
 C2444 C 0.71153 0.71168 0.43948
 C2445 C 0.71771 0.71790 0.42545
 C2446 C 0.71186 0.71205 0.41335
 C2447 C 0.70797 0.68949 0.42616
 C2448 C 0.71382 0.69535 0.43828
 C2449 C 0.69409 0.69420 0.40344
 C2450 C 0.68886 0.68896 0.39278
 C2451 C 0.71796 0.71811 0.45239
 C2452 C 0.72373 0.72389 0.46248
 H2453 H 0.67792 0.70882 0.42369
 H2454 H 0.68877 0.71967 0.44620
 H2455 H 0.72596 0.72619 0.42506
 H2456 H 0.71510 0.71532 0.40260
 H2457 H 0.70881 0.67810 0.42365
 H2458 H 0.71965 0.68897 0.44616
 C2459 C 0.70042 0.20048 -0.08368
 C2460 C 0.68933 0.20794 -0.07392
 C2461 C 0.69517 0.21381 -0.06181
 C2462 C 0.71154 0.21166 -0.06064
 C2463 C 0.71767 0.21791 -0.07468
 C2464 C 0.71183 0.21203 -0.08678
 C2465 C 0.70804 0.18946 -0.07397
 C2466 C 0.71388 0.19534 -0.06186
 C2467 C 0.69411 0.19410 -0.09669
 C2468 C 0.68891 0.18881 -0.10734
 C2469 C 0.71797 0.21811 -0.04773
 C2470 C 0.72374 0.22389 -0.03764
 H2471 H 0.67791 0.20869 -0.07640
 H2472 H 0.68876 0.21957 -0.05390
 H2473 H 0.72589 0.22623 -0.07508
 H2474 H 0.71503 0.21533 -0.09753
 H2475 H 0.70890 0.17807 -0.07647
 H2476 H 0.71973 0.18898 -0.05398
 C2477 C 0.20053 0.70044 -0.08366
 C2478 C 0.20808 0.68939 -0.07394
 C2479 C 0.21394 0.69524 -0.06183
 C2480 C 0.21169 0.71158 -0.06064
 C2481 C 0.19534 0.71382 -0.06181
 C2482 C 0.18947 0.70797 -0.07392
 C2483 C 0.21201 0.71192 -0.08677
 C2484 C 0.21788 0.71778 -0.07468
 C2485 C 0.19419 0.69412 -0.09666
 C2486 C 0.18894 0.68887 -0.10729
 C2487 C 0.21814 0.71801 -0.04775
 C2488 C 0.22393 0.72378 -0.03766
 H2489 H 0.20889 0.67799 -0.07644
 H2490 H 0.21976 0.68886 -0.05395
 H2491 H 0.18896 0.71962 -0.05391
 H2492 H 0.17806 0.70878 -0.07640
 H2493 H 0.21525 0.71518 -0.09752
 H2494 H 0.22614 0.72604 -0.07508
 C2495 C 0.20037 0.20040 0.41640
 C2496 C 0.20869 0.18950 0.42566
 C2497 C 0.21454 0.19534 0.43778
 C2498 C 0.21149 0.21150 0.43945
 C2499 C 0.19502 0.21294 0.43870
 C2500 C 0.18917 0.20710 0.42658
 C2501 C 0.21118 0.21252 0.41334
 C2502 C 0.21702 0.21836 0.42545
 C2503 C 0.19406 0.19409 0.40338
 C2504 C 0.18884 0.18887 0.39271
 C2505 C 0.21791 0.21792 0.45237
 C2506 C 0.22369 0.22369 0.46246
 H2507 H 0.21002 0.17822 0.42284
 H2508 H 0.22086 0.18906 0.44536
 H2509 H 0.18854 0.21820 0.44689
 H2510 H 0.17768 0.20738 0.42437
 H2511 H 0.21400 0.21620 0.40261
 H2512 H 0.22485 0.22704 0.42508
 C2513 C 0.29974 0.41626 0.70060
 C2514 C 0.28911 0.41316 0.71286
 C2515 C 0.28322 0.42528 0.71870
 C2516 C 0.28855 0.43931 0.71171
 C2517 C 0.28532 0.43752 0.69561
 C2518 C 0.29121 0.42540 0.68977
 C2519 C 0.31092 0.42657 0.70709
 C2520 C 0.30503 0.43869 0.71293
 C2521 C 0.30608 0.40324 0.69426
 C2522 C 0.31126 0.39256 0.68900
 C2523 C 0.28207 0.45222 0.71812
 C2524 C 0.27627 0.46232 0.72389
 H2525 H 0.28643 0.40242 0.71663
 H2526 H 0.27549 0.42490 0.72746
 H2527 H 0.27886 0.44502 0.68939
 H2528 H 0.28977 0.42250 0.67855
 H2529 H 0.32244 0.42445 0.70723
 H2530 H 0.31150 0.44698 0.71804
 C2531 C 0.29998 0.91650 0.20038
 C2532 C 0.28931 0.91341 0.21261
 C2533 C 0.28342 0.92552 0.21844
 C2534 C 0.28877 0.93955 0.21146
 C2535 C 0.28558 0.93777 0.19536
 C2536 C 0.29148 0.92565 0.18953
 C2537 C 0.31115 0.92680 0.20690
 C2538 C 0.30525 0.93893 0.21272
 C2539 C 0.30632 0.90347 0.19407
 C2540 C 0.31151 0.89279 0.18881
 C2541 C 0.28227 0.95244 0.21789
 C2542 C 0.27644 0.96250 0.22367
 H2543 H 0.28661 0.90266 0.21636
 H2544 H 0.27566 0.92514 0.22718
 H2545 H 0.27916 0.94530 0.18912
 H2546 H 0.29008 0.92277 0.17830
 H2547 H 0.32267 0.92469 0.20705
 H2548 H 0.31171 0.94723 0.21784
 C2549 C 0.79995 0.41654 0.20041
 C2550 C 0.78926 0.41343 0.21262
 C2551 C 0.78337 0.42555 0.21846
 C2552 C 0.78876 0.43958 0.21153
 C2553 C 0.78560 0.43784 0.19541
 C2554 C 0.79149 0.42573 0.18957
 C2555 C 0.81113 0.42681 0.20697
 C2556 C 0.80524 0.43893 0.21282
 C2557 C 0.80629 0.40352 0.19408
 C2558 C 0.81146 0.39283 0.18883
 C2559 C 0.78227 0.45247 0.21796
 C2560 C 0.77643 0.46253 0.22375
 H2561 H 0.78654 0.40269 0.21635
 H2562 H 0.77560 0.42516 0.22719
 H2563 H 0.77920 0.44539 0.18918
 H2564 H 0.79011 0.42287 0.17833
 H2565 H 0.82264 0.42467 0.20715
 H2566 H 0.81170 0.44720 0.21797
 C2567 C 0.79999 0.91657 0.70048
 C2568 C 0.78933 0.91345 0.71271
 C2569 C 0.78342 0.92555 0.71856
 C2570 C 0.78874 0.93960 0.71160
 C2571 C 0.78555 0.93783 0.69549
 C2572 C 0.79146 0.92572 0.68965
 C2573 C 0.81114 0.92689 0.70701
 C2574 C 0.80523 0.93901 0.71285
 C2575 C 0.80636 0.90357 0.69415
 C2576 C 0.81158 0.89291 0.68886
 C2577 C 0.78222 0.95249 0.71804
 C2578 C 0.77638 0.96256 0.72383
 H2579 H 0.78665 0.90270 0.71645
 H2580 H 0.77566 0.92515 0.72730
 H2581 H 0.77910 0.94535 0.68926
 H2582 H 0.79004 0.92284 0.67842
 H2583 H 0.82266 0.92479 0.70717
 H2584 H 0.81167 0.94730 0.71797
 C2585 C 0.70027 0.58366 0.70080
 C2586 C 0.69482 0.58035 0.71604
 C2587 C 0.70072 0.56822 0.72187
 C2588 C 0.71150 0.56060 0.71190
 C2589 C 0.72265 0.57221 0.70804
 C2590 C 0.71675 0.58433 0.70221
 C2591 C 0.69728 0.56992 0.69209
 C2592 C 0.70318 0.55780 0.69793
 C2593 C 0.69390 0.59668 0.69446
 C2594 C 0.68867 0.60734 0.68918
 C2595 C 0.71799 0.54768 0.71831
 C2596 C 0.72380 0.53756 0.72406
 H2597 H 0.68716 0.58704 0.72182
 H2598 H 0.69809 0.56453 0.73264
 H2599 H 0.73416 0.57106 0.70985
 H2600 H 0.72320 0.59356 0.69904
 H2601 H 0.69111 0.56975 0.68217
 H2602 H 0.70207 0.54725 0.69302
 C2603 C 0.70027 0.08332 0.20050
 C2604 C 0.70775 0.07355 0.18945
 C2605 C 0.71365 0.06143 0.19530
 C2606 C 0.71150 0.06028 0.21163
 C2607 C 0.69516 0.06148 0.21394
 C2608 C 0.68925 0.07359 0.20810
 C2609 C 0.71181 0.08645 0.21189
 C2610 C 0.71772 0.07435 0.21774
 C2611 C 0.69391 0.09633 0.19416
 C2612 C 0.68870 0.10699 0.18888
 C2613 C 0.71799 0.04739 0.21807
 C2614 C 0.72382 0.03731 0.22385
 H2615 H 0.70850 0.07602 0.17806
 H2616 H 0.71942 0.05351 0.18891
 H2617 H 0.68881 0.05357 0.21977
 H2618 H 0.67785 0.07610 0.20896
 H2619 H 0.71508 0.09722 0.21509
 H2620 H 0.72604 0.07476 0.22594
 C2621 C 0.20000 0.58358 0.20045
 C2622 C 0.19447 0.58022 0.21565
 C2623 C 0.20036 0.56809 0.22147
 C2624 C 0.21121 0.56052 0.21152
 C2625 C 0.22235 0.57215 0.20775
 C2626 C 0.21646 0.58428 0.20193
 C2627 C 0.19706 0.56987 0.19167
 C2628 C 0.20295 0.55774 0.19750
 C2629 C 0.19365 0.59661 0.19413
 C2630 C 0.18845 0.60729 0.18886
 C2631 C 0.21770 0.54762 0.21794
 C2632 C 0.22353 0.53754 0.22372
 H2633 H 0.18676 0.58687 0.22140
 H2634 H 0.19767 0.56434 0.23220
 H2635 H 0.23386 0.57100 0.20958
 H2636 H 0.22291 0.59352 0.19880
 H2637 H 0.19093 0.56973 0.18172
 H2638 H 0.20188 0.54720 0.19255
 C2639 C 0.20002 0.08339 0.70057
 C2640 C 0.20755 0.07367 0.68951
 C2641 C 0.21348 0.06155 0.69534
 C2642 C 0.21129 0.06035 0.71166
 C2643 C 0.19494 0.06150 0.71395
 C2644 C 0.18901 0.07361 0.70812
 C2645 C 0.21153 0.08653 0.71200
 C2646 C 0.21745 0.07442 0.71782
 C2647 C 0.19363 0.09641 0.69425
 C2648 C 0.18840 0.10707 0.68898
 C2649 C 0.21782 0.04745 0.71810
 C2650 C 0.22367 0.03737 0.72387
 H2651 H 0.20832 0.07618 0.67813
 H2652 H 0.21928 0.05366 0.68895
 H2653 H 0.18860 0.05356 0.71973
 H2654 H 0.17760 0.07608 0.70895
 H2655 H 0.21475 0.09730 0.71523
 H2656 H 0.22576 0.07484 0.72604
 C2657 C 0.29967 0.58362 0.29925
 C2658 C 0.29219 0.57386 0.31031
 C2659 C 0.28629 0.56175 0.30448
 C2660 C 0.28844 0.56058 0.28815
 C2661 C 0.30478 0.56175 0.28583
 C2662 C 0.31069 0.57386 0.29166
 C2663 C 0.28812 0.58676 0.28785
 C2664 C 0.28222 0.57465 0.28202
 C2665 C 0.30604 0.59663 0.30558
 C2666 C 0.31127 0.60728 0.31085
 C2667 C 0.28197 0.54767 0.28174
 C2668 C 0.27617 0.53757 0.27599
 H2669 H 0.29143 0.57635 0.32170
 H2670 H 0.28051 0.55385 0.31087
 H2671 H 0.31113 0.55384 0.28000
 H2672 H 0.32209 0.57635 0.29079
 H2673 H 0.28485 0.59753 0.28464
 H2674 H 0.27389 0.57507 0.27382
 C2675 C 0.29969 0.08341 0.79936
 C2676 C 0.30906 0.07654 0.78759
 C2677 C 0.30320 0.06440 0.78176
 C2678 C 0.28855 0.06033 0.78827
 C2679 C 0.27913 0.07383 0.78639
 C2680 C 0.28499 0.08596 0.79221
 C2681 C 0.29706 0.07134 0.81035
 C2682 C 0.29120 0.05920 0.80452
 C2683 C 0.30602 0.09645 0.80568
 C2684 C 0.31121 0.10713 0.81095
 C2685 C 0.28212 0.04739 0.78187
 C2686 C 0.27635 0.03726 0.77613
 H2687 H 0.31930 0.08092 0.78402
 H2688 H 0.30843 0.05839 0.77321
 H2689 H 0.26879 0.07387 0.78091
 H2690 H 0.27967 0.09638 0.79172
 H2691 H 0.29947 0.07229 0.82174
 H2692 H 0.28860 0.04976 0.81091
 C2693 C 0.79995 0.58363 0.79960
 C2694 C 0.79249 0.57386 0.81066
 C2695 C 0.78661 0.56174 0.80483
 C2696 C 0.78876 0.56057 0.78850
 C2697 C 0.80510 0.56177 0.78618
 C2698 C 0.81098 0.57390 0.79201
 C2699 C 0.78840 0.58675 0.78820
 C2700 C 0.78252 0.57463 0.78237
 C2701 C 0.80629 0.59666 0.80593
 C2702 C 0.81149 0.60734 0.81119
 C2703 C 0.78228 0.54764 0.78208
 C2704 C 0.77647 0.53754 0.77633
 H2705 H 0.79175 0.57634 0.82205
 H2706 H 0.78085 0.55383 0.81123
 H2707 H 0.81146 0.55387 0.78035
 H2708 H 0.82238 0.57640 0.79115
 H2709 H 0.78512 0.59751 0.78498
 H2710 H 0.77419 0.57504 0.77417
 C2711 C 0.79989 0.08335 0.29935
 C2712 C 0.79449 0.08542 0.28388
 C2713 C 0.78860 0.07329 0.27807
 C2714 C 0.78870 0.06028 0.28829
 C2715 C 0.78091 0.06554 0.30189
 C2716 C 0.78679 0.07766 0.30770
 C2717 C 0.81040 0.07058 0.29857
 C2718 C 0.80452 0.05845 0.29276
 C2719 C 0.80625 0.09636 0.30568
 C2720 C 0.81147 0.10701 0.31095
 C2721 C 0.78224 0.04736 0.28190
 C2722 C 0.77644 0.03726 0.27616
 H2723 H 0.79513 0.09553 0.27803
 H2724 H 0.78421 0.07302 0.26724
 H2725 H 0.77151 0.06029 0.30646
 H2726 H 0.78240 0.08283 0.31722
 H2727 H 0.82152 0.07107 0.30217
 H2728 H 0.81058 0.04853 0.29142
 C2729 C 0.70030 0.41637 0.29927
 C2730 C 0.68928 0.42615 0.29172
 C2731 C 0.69518 0.43827 0.28590
 C2732 C 0.71152 0.43943 0.28819
 C2733 C 0.71773 0.42537 0.28202
 C2734 C 0.71183 0.41325 0.28784
 C2735 C 0.70781 0.42610 0.31033
 C2736 C 0.71371 0.43822 0.30451
 C2737 C 0.69393 0.40336 0.30559
 C2738 C 0.68871 0.39270 0.31086
 C2739 C 0.71799 0.45235 0.28179
 C2740 C 0.72379 0.46246 0.27604
 H2741 H 0.67787 0.42367 0.29088
 H2742 H 0.68883 0.44620 0.28010
 H2743 H 0.72604 0.42496 0.27380
 H2744 H 0.71509 0.40249 0.28461
 H2745 H 0.70859 0.42358 0.32171
 H2746 H 0.71951 0.44610 0.31090
 C2747 C 0.70032 0.91649 0.79937
 C2748 C 0.70589 0.92725 0.81062
 C2749 C 0.71178 0.93937 0.80479
 C2750 C 0.71152 0.93955 0.78828
 C2751 C 0.69566 0.93726 0.78418
 C2752 C 0.68977 0.92514 0.79000
 C2753 C 0.71329 0.91346 0.78958
 C2754 C 0.71918 0.92558 0.78375
 C2755 C 0.69396 0.90347 0.80570
 C2756 C 0.68874 0.89280 0.81097
 C2757 C 0.71798 0.95248 0.78189
 C2758 C 0.72376 0.96261 0.77615
 H2759 H 0.70540 0.92543 0.82214
 H2760 H 0.71632 0.94794 0.81131
 H2761 H 0.68964 0.94444 0.77718
 H2762 H 0.67870 0.92193 0.78798
 H2763 H 0.71748 0.90275 0.78739
 H2764 H 0.72842 0.92523 0.77658
 C2765 C 0.20007 0.41622 0.79946
 C2766 C 0.20517 0.42721 0.81070
 C2767 C 0.21108 0.43933 0.80487
 C2768 C 0.21131 0.43926 0.78836
 C2769 C 0.19560 0.43671 0.78383
 C2770 C 0.18970 0.42459 0.78966
 C2771 C 0.21337 0.41322 0.79009
 C2772 C 0.21927 0.42533 0.78426
 C2773 C 0.19370 0.40320 0.80578
 C2774 C 0.18849 0.39253 0.81104
 C2775 C 0.21780 0.45218 0.78194
 C2776 C 0.22361 0.46227 0.77618
 H2777 H 0.20436 0.42555 0.82223
 H2778 H 0.21531 0.44805 0.81140
 H2779 H 0.18969 0.44371 0.77657
 H2780 H 0.17873 0.42120 0.78737
 H2781 H 0.21775 0.40254 0.78818
 H2782 H 0.22873 0.42500 0.77737
 C2783 C 0.20023 0.91644 0.29917
 C2784 C 0.20559 0.92730 0.31043
 C2785 C 0.21150 0.93942 0.30461
 C2786 C 0.21147 0.93949 0.28810
 C2787 C 0.19568 0.93709 0.28379
 C2788 C 0.18977 0.92497 0.28961
 C2789 C 0.21336 0.91342 0.28958
 C2790 C 0.21926 0.92553 0.28376
 C2791 C 0.19387 0.90342 0.30548
 C2792 C 0.18864 0.89276 0.31074
 C2793 C 0.21796 0.95239 0.28170
 C2794 C 0.22377 0.96249 0.27595
 H2795 H 0.20494 0.92555 0.32196
 H2796 H 0.21589 0.94806 0.31114
 H2797 H 0.18971 0.94421 0.27668
 H2798 H 0.17874 0.92170 0.28746
 H2799 H 0.21763 0.90272 0.28752
 H2800 H 0.22861 0.92519 0.27673
 C2801 C 0.41619 0.29975 0.70061
 C2802 C 0.41305 0.28827 0.71208
 C2803 C 0.42516 0.28237 0.71792
 C2804 C 0.43924 0.28853 0.71173
 C2805 C 0.43808 0.30487 0.71397
 C2806 C 0.42596 0.31077 0.70813
 C2807 C 0.42592 0.29220 0.68957
 C2808 C 0.43804 0.28630 0.69542
 C2809 C 0.40318 0.30610 0.69428
 C2810 C 0.39250 0.31129 0.68902
 C2811 C 0.45214 0.28204 0.71815
 C2812 C 0.46224 0.27622 0.72392
 H2813 H 0.40227 0.28506 0.71533
 H2814 H 0.42475 0.27410 0.72617
 H2815 H 0.44601 0.31122 0.71975
 H2816 H 0.42348 0.32218 0.70893
 H2817 H 0.42342 0.29141 0.67819
 H2818 H 0.44594 0.28048 0.68904
 C2819 C 0.41637 0.79998 0.20054
 C2820 C 0.42613 0.79250 0.18949
 C2821 C 0.43825 0.78660 0.19533
 C2822 C 0.43941 0.78876 0.21166
 C2823 C 0.42534 0.78256 0.21779
 C2824 C 0.41322 0.78846 0.21195
 C2825 C 0.42610 0.81099 0.20812
 C2826 C 0.43823 0.80509 0.21396
 C2827 C 0.40335 0.80633 0.19422
 C2828 C 0.39268 0.81154 0.18894
 C2829 C 0.45231 0.78227 0.21809
 C2830 C 0.46239 0.77645 0.22386
 H2831 H 0.42366 0.79176 0.17810
 H2832 H 0.44618 0.78082 0.18895
 H2833 H 0.42492 0.77424 0.22600
 H2834 H 0.40245 0.78520 0.21516
 H2835 H 0.42361 0.82239 0.20895
 H2836 H 0.44614 0.81143 0.21978
 C2837 C 0.91634 0.29998 0.20052
 C2838 C 0.91517 0.29732 0.21677
 C2839 C 0.92728 0.29142 0.22262
 C2840 C 0.93938 0.28876 0.21164
 C2841 C 0.94198 0.30343 0.20449
 C2842 C 0.92986 0.30933 0.19865
 C2843 C 0.92035 0.28529 0.19407
 C2844 C 0.93246 0.27939 0.19992
 C2845 C 0.90333 0.30633 0.19418
 C2846 C 0.89265 0.31153 0.18891
 C2847 C 0.95228 0.28228 0.21806
 C2848 C 0.96237 0.27647 0.22384
 H2849 H 0.90563 0.29973 0.22311
 H2850 H 0.92813 0.28877 0.23397
 H2851 H 0.95240 0.30874 0.20410
 H2852 H 0.92988 0.31971 0.19326
 H2853 H 0.91411 0.27990 0.18578
 H2854 H 0.93663 0.26896 0.19662
 C2855 C 0.91641 0.80005 0.70056
 C2856 C 0.91522 0.79730 0.71680
 C2857 C 0.92733 0.79139 0.72264
 C2858 C 0.93946 0.78881 0.71167
 C2859 C 0.94205 0.80351 0.70461
 C2860 C 0.92993 0.80943 0.69877
 C2861 C 0.92046 0.78539 0.69405
 C2862 C 0.93257 0.77948 0.69989
 C2863 C 0.90341 0.80642 0.69422
 C2864 C 0.89276 0.81165 0.68893
 C2865 C 0.95236 0.78233 0.71809
 C2866 C 0.96244 0.77652 0.72386
 H2867 H 0.90565 0.79964 0.72312
 H2868 H 0.92814 0.78868 0.73398
 H2869 H 0.95247 0.80883 0.70426
 H2870 H 0.92996 0.81983 0.69342
 H2871 H 0.91423 0.78003 0.68574
 H2872 H 0.93675 0.76907 0.69655
 C2873 C 0.58382 0.29976 0.29926
 C2874 C 0.57306 0.29416 0.31051
 C2875 C 0.56095 0.28823 0.30469
 C2876 C 0.56078 0.28847 0.28819
 C2877 C 0.57479 0.28086 0.28367
 C2878 C 0.58690 0.28679 0.28949
 C2879 C 0.57513 0.31025 0.28987
 C2880 C 0.56302 0.30432 0.28406
 C2881 C 0.59683 0.30616 0.30557
 C2882 C 0.60748 0.31141 0.31084
 C2883 C 0.54788 0.28195 0.28178
 C2884 C 0.53778 0.27612 0.27604
 H2885 H 0.57488 0.29467 0.32204
 H2886 H 0.55238 0.28369 0.31123
 H2887 H 0.57517 0.27161 0.27653
 H2888 H 0.59763 0.28264 0.28731
 H2889 H 0.57832 0.32132 0.28783
 H2890 H 0.55581 0.31032 0.27707
 C2891 C 0.58370 0.80005 0.79954
 C2892 C 0.57298 0.79439 0.81079
 C2893 C 0.56085 0.78849 0.80498
 C2894 C 0.56063 0.78882 0.78847
 C2895 C 0.57463 0.78124 0.78387
 C2896 C 0.58675 0.78714 0.78968
 C2897 C 0.57498 0.81060 0.79024
 C2898 C 0.56285 0.80470 0.78443
 C2899 C 0.59674 0.80641 0.80584
 C2900 C 0.60742 0.81163 0.81108
 C2901 C 0.54771 0.78233 0.78207
 C2902 C 0.53761 0.77651 0.77631
 H2903 H 0.57484 0.79484 0.82232
 H2904 H 0.55231 0.78391 0.81151
 H2905 H 0.57499 0.77203 0.77667
 H2906 H 0.59747 0.78300 0.78745
 H2907 H 0.57815 0.82169 0.78827
 H2908 H 0.55561 0.81074 0.77750
 C2909 C 0.08352 0.29976 0.79947
 C2910 C 0.08658 0.28976 0.78668
 C2911 C 0.07447 0.28386 0.78084
 C2912 C 0.06046 0.28854 0.78836
 C2913 C 0.06066 0.30506 0.78787
 C2914 C 0.07278 0.31096 0.79370
 C2915 C 0.07482 0.29054 0.81009
 C2916 C 0.06270 0.28465 0.80425
 C2917 C 0.09654 0.30612 0.80579
 C2918 C 0.10722 0.31132 0.81105
 C2919 C 0.04755 0.28206 0.78194
 C2920 C 0.03745 0.27625 0.77617
 H2921 H 0.09731 0.28747 0.78258
 H2922 H 0.07484 0.27653 0.77175
 H2923 H 0.05209 0.31155 0.78324
 H2924 H 0.07461 0.32251 0.79405
 H2925 H 0.07800 0.28867 0.82118
 H2926 H 0.05549 0.27775 0.81034
 C2927 C 0.08363 0.79997 0.29925
 C2928 C 0.07367 0.79288 0.31040
 C2929 C 0.06155 0.78698 0.30458
 C2930 C 0.06057 0.78874 0.28819
 C2931 C 0.07464 0.78222 0.28237
 C2932 C 0.08676 0.78812 0.28818
 C2933 C 0.07408 0.81090 0.29130
 C2934 C 0.06195 0.80499 0.28549
 C2935 C 0.09667 0.80634 0.30555
 C2936 C 0.10734 0.81156 0.31080
 C2937 C 0.04765 0.78224 0.28179
 C2938 C 0.03755 0.77642 0.27604
 H2939 H 0.07603 0.79241 0.32183
 H2940 H 0.05350 0.78147 0.31103
 H2941 H 0.07505 0.77369 0.27438
 H2942 H 0.09753 0.78466 0.28517
 H2943 H 0.07669 0.82224 0.29020
 H2944 H 0.05416 0.81128 0.27944
 C2945 C 0.58372 0.70027 0.70083
 C2946 C 0.58584 0.71579 0.70613
 C2947 C 0.57372 0.72170 0.71196
 C2948 C 0.56066 0.71152 0.71193
 C2949 C 0.56586 0.69793 0.71978
 C2950 C 0.57799 0.69201 0.71395
 C2951 C 0.57095 0.70106 0.69033
 C2952 C 0.55882 0.70697 0.69617
 C2953 C 0.59673 0.69389 0.69450
 C2954 C 0.60739 0.68864 0.68921
 C2955 C 0.54775 0.71802 0.71834
 C2956 C 0.53764 0.72384 0.72409
 H2957 H 0.59598 0.72158 0.70545
 H2958 H 0.57349 0.73258 0.71626
 H2959 H 0.56059 0.69344 0.72920
 H2960 H 0.58312 0.68248 0.71839
 H2961 H 0.57143 0.69739 0.67925
 H2962 H 0.54892 0.70836 0.69011
 C2963 C 0.58379 0.19987 0.20059
 C2964 C 0.58594 0.21533 0.20603
 C2965 C 0.57382 0.22124 0.21186
 C2966 C 0.56073 0.21110 0.21170
 C2967 C 0.56586 0.19743 0.21946
 C2968 C 0.57799 0.19152 0.21362
 C2969 C 0.57107 0.20079 0.19006
 C2970 C 0.55894 0.20669 0.19590
 C2971 C 0.59681 0.19350 0.19426
 C2972 C 0.60746 0.18827 0.18898
 C2973 C 0.54782 0.21759 0.21811
 C2974 C 0.53772 0.22341 0.22387
 H2975 H 0.59611 0.22110 0.20543
 H2976 H 0.57361 0.23208 0.21625
 H2977 H 0.56054 0.19288 0.22882
 H2978 H 0.58307 0.18194 0.21800
 H2979 H 0.57158 0.19721 0.17895
 H2980 H 0.54906 0.20816 0.18981
 C2981 C 0.08359 0.70019 0.20054
 C2982 C 0.07385 0.68918 0.20814
 C2983 C 0.06173 0.69509 0.21398
 C2984 C 0.06053 0.71142 0.21165
 C2985 C 0.06169 0.71356 0.19532
 C2986 C 0.07382 0.70766 0.18948
 C2987 C 0.08673 0.71173 0.21193
 C2988 C 0.07461 0.71763 0.21776
 C2989 C 0.09661 0.69382 0.19421
 C2990 C 0.10728 0.68860 0.18893
 C2991 C 0.04763 0.71791 0.21807
 C2992 C 0.03753 0.72373 0.22384
 H2993 H 0.07635 0.67779 0.20900
 H2994 H 0.05381 0.68875 0.21981
 H2995 H 0.05377 0.71933 0.18893
 H2996 H 0.07630 0.70839 0.17809
 H2997 H 0.09750 0.71499 0.21512
 H2998 H 0.07502 0.72597 0.22595
 C2999 C 0.08349 0.20000 0.70068
 C3000 C 0.08664 0.21155 0.71205
 C3001 C 0.07453 0.21747 0.71789
 C3002 C 0.06045 0.21125 0.71178
 C3003 C 0.06163 0.19493 0.71413
 C3004 C 0.07376 0.18901 0.70830
 C3005 C 0.07372 0.20746 0.68961
 C3006 C 0.06160 0.21338 0.69545
 C3007 C 0.09651 0.19362 0.69435
 C3008 C 0.10716 0.18838 0.68907
 C3009 C 0.04754 0.21776 0.71820
 C3010 C 0.03744 0.22358 0.72396
 H3011 H 0.09742 0.21481 0.71524
 H3012 H 0.07495 0.22581 0.72607
 H3013 H 0.05372 0.18860 0.71998
 H3014 H 0.07625 0.17761 0.70918
 H3015 H 0.07620 0.20819 0.67822
 H3016 H 0.05368 0.21915 0.68906
 C3017 C 0.41620 0.70017 0.29929
 C3018 C 0.42596 0.70760 0.31038
 C3019 C 0.43808 0.71353 0.30456
 C3020 C 0.43925 0.71145 0.28822
 C3021 C 0.42516 0.71770 0.28213
 C3022 C 0.41305 0.71177 0.28795
 C3023 C 0.42596 0.68921 0.29165
 C3024 C 0.43807 0.69513 0.28583
 C3025 C 0.40319 0.69377 0.30560
 C3026 C 0.39253 0.68853 0.31086
 C3027 C 0.45216 0.71796 0.28182
 C3028 C 0.46227 0.72377 0.27608
 H3029 H 0.42348 0.70830 0.32177
 H3030 H 0.44599 0.71927 0.31096
 H3031 H 0.42473 0.72606 0.27397
 H3032 H 0.40227 0.71505 0.28477
 H3033 H 0.42347 0.67781 0.29074
 H3034 H 0.44599 0.68882 0.27997
 C3035 C 0.41612 0.20001 0.79943
 C3036 C 0.42590 0.20743 0.81051
 C3037 C 0.43802 0.21335 0.80468
 C3038 C 0.43918 0.21126 0.78835
 C3039 C 0.42510 0.21751 0.78225
 C3040 C 0.41298 0.21160 0.78808
 C3041 C 0.42587 0.18903 0.79179
 C3042 C 0.43799 0.19494 0.78597
 C3043 C 0.40310 0.19363 0.80573
 C3044 C 0.39242 0.18841 0.81098
 C3045 C 0.45209 0.21776 0.78193
 C3046 C 0.46219 0.22358 0.77617
 H3047 H 0.42342 0.20812 0.82191
 H3048 H 0.44594 0.21908 0.81109
 H3049 H 0.42468 0.22587 0.77409
 H3050 H 0.40221 0.21489 0.78490
 H3051 H 0.42339 0.17764 0.79091
 H3052 H 0.44591 0.18861 0.78012
 C3053 C 0.91634 0.70031 0.79947
 C3054 C 0.92574 0.70842 0.81039
 C3055 C 0.93785 0.71433 0.80453
 C3056 C 0.93937 0.71156 0.78833
 C3057 C 0.92528 0.71723 0.78171
 C3058 C 0.91318 0.71132 0.78756
 C3059 C 0.92646 0.68922 0.79250
 C3060 C 0.93857 0.69513 0.78665
 C3061 C 0.90334 0.69394 0.80582
 C3062 C 0.89268 0.68872 0.81109
 C3063 C 0.95227 0.71806 0.78189
 C3064 C 0.96236 0.72388 0.77612
 H3065 H 0.92303 0.70955 0.82170
 H3066 H 0.94552 0.72051 0.81082
 H3067 H 0.92485 0.72521 0.77317
 H3068 H 0.90240 0.71423 0.78404
 H3069 H 0.92422 0.67774 0.79207
 H3070 H 0.94672 0.68872 0.78122
 C3071 C 0.91626 0.20009 0.29929
 C3072 C 0.91309 0.21123 0.28750
 C3073 C 0.92519 0.21717 0.28167
 C3074 C 0.93928 0.21138 0.28819
 C3075 C 0.93843 0.19498 0.28635
 C3076 C 0.92632 0.18904 0.29218
 C3077 C 0.92571 0.20806 0.31026
 C3078 C 0.93782 0.21400 0.30442
 C3079 C 0.90327 0.19367 0.30562
 C3080 C 0.89263 0.18841 0.31091
 C3081 C 0.95218 0.21791 0.28177
 C3082 C 0.96228 0.22375 0.27603
 H3083 H 0.90231 0.21421 0.28403
 H3084 H 0.92476 0.22524 0.27322
 H3085 H 0.94655 0.18860 0.28085
 H3086 H 0.92405 0.17758 0.29164
 H3087 H 0.92304 0.20909 0.32158
 H3088 H 0.94553 0.22008 0.31076
 C3089 C 0.29947 0.29950 0.58367
 C3090 C 0.30338 0.30763 0.56981
 C3091 C 0.29753 0.30177 0.55770
 C3092 C 0.28835 0.28835 0.56064
 C3093 C 0.27709 0.29318 0.57176
 C3094 C 0.28294 0.29904 0.58387
 C3095 C 0.30416 0.28387 0.58097
 C3096 C 0.29832 0.27801 0.56886
 C3097 C 0.30580 0.30583 0.59667
 C3098 C 0.31103 0.31109 0.60732
 C3099 C 0.28192 0.28192 0.54774
 C3100 C 0.27615 0.27614 0.53765
 H3101 H 0.31013 0.31718 0.56955
 H3102 H 0.29926 0.30628 0.54707
 H3103 H 0.26553 0.29196 0.57032
 H3104 H 0.27640 0.30283 0.59279
 H3105 H 0.31129 0.27787 0.58804
 H3106 H 0.30045 0.26699 0.56556
 C3107 C 0.29973 0.79967 0.08349
 C3108 C 0.29016 0.78653 0.08649
 C3109 C 0.28432 0.78065 0.07439
 C3110 C 0.28861 0.78849 0.06047
 C3111 C 0.30515 0.78850 0.06049
 C3112 C 0.31100 0.79437 0.07260
 C3113 C 0.29009 0.81013 0.07504
 C3114 C 0.28425 0.80425 0.06294
 C3115 C 0.30605 0.80602 0.09649
 C3116 C 0.31128 0.81128 0.10713
 C3117 C 0.28219 0.78204 0.04757
 C3118 C 0.27642 0.77625 0.03748
 H3119 H 0.28812 0.78222 0.09717
 H3120 H 0.27728 0.77131 0.07472
 H3121 H 0.31170 0.78415 0.05183
 H3122 H 0.32256 0.79503 0.07433
 H3123 H 0.28790 0.82113 0.07838
 H3124 H 0.27707 0.81023 0.05588
 C3125 C 0.79961 0.29977 0.08355
 C3126 C 0.81079 0.29307 0.07335
 C3127 C 0.80493 0.28722 0.06125
 C3128 C 0.78846 0.28862 0.06053
 C3129 C 0.78539 0.30479 0.06219
 C3130 C 0.79125 0.31064 0.07430
 C3131 C 0.78883 0.28763 0.08665
 C3132 C 0.78297 0.28177 0.07455
 C3133 C 0.80594 0.30610 0.09655
 C3134 C 0.81119 0.31135 0.10719
 C3135 C 0.78201 0.28218 0.04763
 C3136 C 0.77623 0.27640 0.03754
 H3137 H 0.82229 0.29281 0.07553
 H3138 H 0.81140 0.28196 0.05305
 H3139 H 0.77904 0.31104 0.05462
 H3140 H 0.78990 0.32192 0.07711
 H3141 H 0.78603 0.28396 0.09738
 H3142 H 0.77515 0.27307 0.07494
 C3143 C 0.79962 0.79977 0.58359
 C3144 C 0.80369 0.80778 0.56971
 C3145 C 0.79783 0.80191 0.55760
 C3146 C 0.78847 0.78862 0.56057
 C3147 C 0.77722 0.79364 0.57162
 C3148 C 0.78308 0.79950 0.58372
 C3149 C 0.80414 0.78407 0.58099
 C3150 C 0.79827 0.77821 0.56889
 C3151 C 0.80596 0.80610 0.59659
 C3152 C 0.81120 0.81133 0.60724
 C3153 C 0.78203 0.78219 0.54767
 C3154 C 0.77624 0.77642 0.53759
 H3155 H 0.81055 0.81724 0.56942
 H3156 H 0.79966 0.80635 0.54695
 H3157 H 0.76565 0.79255 0.57013
 H3158 H 0.77655 0.80342 0.59259
 H3159 H 0.81116 0.77802 0.58813
 H3160 H 0.80029 0.76715 0.56566
 C3161 C 0.29945 0.70045 0.41625
 C3162 C 0.29235 0.68935 0.42625
 C3163 C 0.28652 0.69522 0.43837
 C3164 C 0.28835 0.71162 0.43930
 C3165 C 0.28179 0.71747 0.42529
 C3166 C 0.28762 0.71160 0.41317
 C3167 C 0.31045 0.70838 0.42571
 C3168 C 0.30462 0.71425 0.43783
 C3169 C 0.30575 0.69410 0.40323
 C3170 C 0.31096 0.68885 0.39256
 C3171 C 0.28194 0.71808 0.45222
 C3172 C 0.27618 0.72387 0.46232
 H3173 H 0.29180 0.67790 0.42392
 H3174 H 0.28099 0.68881 0.44643
 H3175 H 0.27330 0.72553 0.42491
 H3176 H 0.28414 0.71463 0.40244
 H3177 H 0.32180 0.70944 0.42303
 H3178 H 0.31096 0.72032 0.44555
 C3179 C 0.29942 0.20018 0.91648
 C3180 C 0.28808 0.21183 0.91340
 C3181 C 0.28224 0.21769 0.92551
 C3182 C 0.28831 0.21134 0.93953
 C3183 C 0.30469 0.21338 0.93841
 C3184 C 0.31053 0.20751 0.92629
 C3185 C 0.29172 0.18918 0.92612
 C3186 C 0.28588 0.19504 0.93824
 C3187 C 0.30574 0.19383 0.90346
 C3188 C 0.31097 0.18857 0.89281
 C3189 C 0.28189 0.21779 0.95244
 C3190 C 0.27612 0.22357 0.96254
 H3191 H 0.28492 0.21518 0.90266
 H3192 H 0.27407 0.22607 0.92513
 H3193 H 0.31111 0.21905 0.94636
 H3194 H 0.32196 0.20819 0.92384
 H3195 H 0.29078 0.17780 0.92356
 H3196 H 0.27996 0.18869 0.94608
 C3197 C 0.79964 0.70045 0.91650
 C3198 C 0.78829 0.71209 0.91341
 C3199 C 0.78244 0.71795 0.92552
 C3200 C 0.78849 0.71159 0.93954
 C3201 C 0.80487 0.71363 0.93845
 C3202 C 0.81073 0.70778 0.92633
 C3203 C 0.79193 0.68943 0.92613
 C3204 C 0.78607 0.69529 0.93824
 C3205 C 0.80596 0.69412 0.90348
 C3206 C 0.81120 0.68888 0.89282
 C3207 C 0.78205 0.71802 0.95245
 C3208 C 0.77627 0.72380 0.96254
 H3209 H 0.78514 0.71545 0.90267
 H3210 H 0.77426 0.72632 0.92514
 H3211 H 0.81128 0.71931 0.94641
 H3212 H 0.82216 0.70846 0.92389
 H3213 H 0.79100 0.67806 0.92356
 H3214 H 0.78015 0.68893 0.94607
 C3215 C 0.79957 0.20013 0.41630
 C3216 C 0.78824 0.21178 0.41321
 C3217 C 0.78239 0.21764 0.42532
 C3218 C 0.78844 0.21127 0.43934
 C3219 C 0.80482 0.21331 0.43825
 C3220 C 0.81067 0.20745 0.42613
 C3221 C 0.79185 0.18912 0.42592
 C3222 C 0.78600 0.19498 0.43804
 C3223 C 0.80589 0.19379 0.40328
 C3224 C 0.81112 0.18855 0.39262
 C3225 C 0.78201 0.21771 0.45225
 C3226 C 0.77623 0.22350 0.46235
 H3227 H 0.78508 0.21514 0.40247
 H3228 H 0.77422 0.22602 0.42494
 H3229 H 0.81123 0.21898 0.44620
 H3230 H 0.82210 0.20812 0.42369
 H3231 H 0.79092 0.17775 0.42336
 H3232 H 0.78007 0.18863 0.44587
 C3233 C 0.70053 0.29952 0.41626
 C3234 C 0.71196 0.28796 0.41317
 C3235 C 0.71779 0.28208 0.42529
 C3236 C 0.71163 0.28834 0.43931
 C3237 C 0.69527 0.28621 0.43813
 C3238 C 0.68943 0.29208 0.42601
 C3239 C 0.70813 0.31054 0.42596
 C3240 C 0.71396 0.30466 0.43808
 C3241 C 0.69423 0.30587 0.40324
 C3242 C 0.68901 0.31112 0.39257
 C3243 C 0.71804 0.28189 0.45223
 C3244 C 0.72380 0.27610 0.46233
 H3245 H 0.71519 0.28467 0.40243
 H3246 H 0.72602 0.27376 0.42490
 H3247 H 0.68886 0.28046 0.44604
 H3248 H 0.67802 0.29134 0.42352
 H3249 H 0.70900 0.32193 0.42344
 H3250 H 0.71981 0.31102 0.44596
 C3251 C 0.70051 0.79977 0.91649
 C3252 C 0.71016 0.78666 0.91352
 C3253 C 0.71600 0.78080 0.92563
 C3254 C 0.71164 0.78862 0.93954
 C3255 C 0.69510 0.78857 0.93948
 C3256 C 0.68925 0.79443 0.92736
 C3257 C 0.71008 0.81026 0.92497
 C3258 C 0.71593 0.80440 0.93709
 C3259 C 0.69419 0.80611 0.90348
 C3260 C 0.68895 0.81136 0.89283
 C3261 C 0.71807 0.78218 0.95245
 C3262 C 0.72384 0.77640 0.96255
 H3263 H 0.71224 0.78237 0.90285
 H3264 H 0.72309 0.77149 0.92532
 H3265 H 0.68856 0.78419 0.94813
 H3266 H 0.67769 0.79505 0.92562
 H3267 H 0.71222 0.82127 0.92164
 H3268 H 0.72306 0.81039 0.94415
 C3269 C 0.20031 0.29949 0.91651
 C3270 C 0.21181 0.28800 0.91342
 C3271 C 0.21767 0.28216 0.92553
 C3272 C 0.21146 0.28837 0.93956
 C3273 C 0.19511 0.28613 0.93836
 C3274 C 0.18925 0.29197 0.92624
 C3275 C 0.20783 0.31055 0.92623
 C3276 C 0.21369 0.30470 0.93835
 C3277 C 0.19398 0.30581 0.90349
 C3278 C 0.18873 0.31104 0.89283
 C3279 C 0.21790 0.28194 0.95247
 C3280 C 0.22368 0.27616 0.96256
 H3281 H 0.21507 0.28474 0.90268
 H3282 H 0.22595 0.27389 0.92515
 H3283 H 0.18873 0.28033 0.94626
 H3284 H 0.17784 0.29116 0.92375
 H3285 H 0.20863 0.32194 0.92372
 H3286 H 0.21949 0.31108 0.94623
 C3287 C 0.20039 0.79980 0.41627
 C3288 C 0.21187 0.78829 0.41318
 C3289 C 0.21773 0.78244 0.42530
 C3290 C 0.21153 0.78866 0.43932
 C3291 C 0.19518 0.78645 0.43813
 C3292 C 0.18932 0.79230 0.42601
 C3293 C 0.20793 0.81085 0.42598
 C3294 C 0.21378 0.80500 0.43810
 C3295 C 0.19406 0.80613 0.40325
 C3296 C 0.18881 0.81137 0.39260
 C3297 C 0.21796 0.78223 0.45223
 C3298 C 0.22373 0.77645 0.46233
 H3299 H 0.21513 0.78502 0.40245
 H3300 H 0.22599 0.77416 0.42492
 H3301 H 0.18878 0.78067 0.44603
 H3302 H 0.17792 0.79150 0.42351
 H3303 H 0.20875 0.82224 0.42347
 H3304 H 0.21959 0.81138 0.44599
 C3305 C 0.70047 0.70051 0.58377
 C3306 C 0.71209 0.71186 0.58686
 C3307 C 0.71793 0.71772 0.57476
 C3308 C 0.71160 0.71168 0.56073
 C3309 C 0.69528 0.71408 0.56203
 C3310 C 0.68943 0.70821 0.57415
 C3311 C 0.70784 0.68944 0.57393
 C3312 C 0.71369 0.69531 0.56182
 C3313 C 0.69415 0.69417 0.59679
 C3314 C 0.68894 0.68893 0.60746
 C3315 C 0.71803 0.71813 0.54782
 C3316 C 0.72379 0.72391 0.53772
 H3317 H 0.71543 0.71501 0.59761
 H3318 H 0.72628 0.72591 0.57515
 H3319 H 0.68890 0.71999 0.55421
 H3320 H 0.67804 0.70912 0.57672
 H3321 H 0.70855 0.67802 0.57636
 H3322 H 0.71939 0.68892 0.55385
 C3323 C 0.70057 0.20032 0.08362
 C3324 C 0.68949 0.20790 0.07394
 C3325 C 0.69533 0.21380 0.06184
 C3326 C 0.71168 0.21154 0.06060
 C3327 C 0.71391 0.19520 0.06173
 C3328 C 0.70807 0.18930 0.07383
 C3329 C 0.71207 0.21177 0.08674
 C3330 C 0.71791 0.21767 0.07464
 C3331 C 0.69426 0.19394 0.09662
 C3332 C 0.68904 0.18868 0.10728
 C3333 C 0.71810 0.21802 0.04770
 C3334 C 0.72386 0.22383 0.03761
 H3335 H 0.67809 0.20871 0.07647
 H3336 H 0.68894 0.21965 0.05398
 H3337 H 0.71970 0.18884 0.05380
 H3338 H 0.70887 0.17789 0.07628
 H3339 H 0.71534 0.21498 0.09749
 H3340 H 0.72618 0.22593 0.07505
 C3341 C 0.20047 0.70046 0.08356
 C3342 C 0.19132 0.71257 0.07695
 C3343 C 0.19720 0.71843 0.06485
 C3344 C 0.21165 0.71161 0.06054
 C3345 C 0.20860 0.69543 0.05923
 C3346 C 0.20272 0.68956 0.07133
 C3347 C 0.21536 0.70723 0.08604
 C3348 C 0.22124 0.71308 0.07394
 C3349 C 0.19412 0.69412 0.09655
 C3350 C 0.18886 0.68887 0.10719
 C3351 C 0.21811 0.71805 0.04764
 C3352 C 0.22390 0.72382 0.03755
 H3353 H 0.18121 0.71633 0.08150
 H3354 H 0.19211 0.72719 0.05901
 H3355 H 0.21093 0.68911 0.04968
 H3356 H 0.20004 0.67821 0.07216
 H3357 H 0.22078 0.70746 0.09639
 H3358 H 0.23170 0.71833 0.07394
 C3359 C 0.20030 0.20028 0.58369
 C3360 C 0.20952 0.18966 0.57498
 C3361 C 0.21538 0.19553 0.56287
 C3362 C 0.21145 0.21144 0.56067
 C3363 C 0.21614 0.21896 0.57463
 C3364 C 0.21028 0.21310 0.58673
 C3365 C 0.18905 0.20605 0.57302
 C3366 C 0.19491 0.21192 0.56091
 C3367 C 0.19396 0.19394 0.59670
 C3368 C 0.18873 0.18870 0.60736
 C3369 C 0.21789 0.21789 0.54777
 C3370 C 0.22368 0.22367 0.53768
 H3371 H 0.21143 0.17856 0.57814
 H3372 H 0.22229 0.18945 0.55565
 H3373 H 0.22345 0.22810 0.57498
 H3374 H 0.21257 0.21720 0.59743
 H3375 H 0.17750 0.20570 0.57489
 H3376 H 0.18839 0.21657 0.55240
   
