data_POSCAR
  _audit_creation_date              2014-09-24
  _audit_creation_method            'ToBaCCo'
  _symmetry_space_group_name_H-M    'P1'
  _symmetry_Int_Tables_number       1
  _symmetry_cell_setting            triclinic
  loop_
  _symmetry_equiv_pos_as_xyz
 x,y,z
_cell_length_a 55.3636
_cell_length_b 57.1512
_cell_length_c 55.2665
_cell_angle_alpha 89.647500
_cell_angle_beta 89.607700
_cell_angle_gamma 91.415700
loop_
  _atom_site_label
  _atom_site_type_symbol
  _atom_site_fract_x
  _atom_site_fract_y
  _atom_site_fract_z
Si1 Si 0.73739 0.61172 0.99867
 Si2 Si 0.75506 0.37212 0.50309
 Si3 Si 0.25384 -0.13880 -0.01616
 Si4 Si 0.24447 0.12005 0.49036
 Si5 Si 0.11681 0.50982 0.24774
 Si6 Si -0.11757 -0.00155 0.23642
 Si7 Si 0.37311 0.50127 0.75598
 Si8 Si 0.62823 1.01738 0.73961
 Si9 Si 0.01888 0.25231 -0.11379
 Si10 Si 0.51053 0.24299 0.15603
 Si11 Si 0.99023 0.75194 0.63357
 Si12 Si 0.49445 0.74604 0.38131
 C13 C 0.41088 -0.03341 0.26662
 H14 H 0.41926 -0.01635 0.26364
 C15 C 0.42397 -0.05117 0.27764
 H16 H 0.44244 -0.04767 0.28311
 C17 C 0.37667 -0.05893 0.26315
 H18 H 0.35812 -0.06170 0.25763
 C19 C 0.38913 -0.07717 0.27374
 H20 H 0.37998 -0.09395 0.27652
 N21 N 0.38756 -0.03755 0.25992
 C22 C 0.38528 0.02006 0.21288
 H23 H 0.37659 0.00938 0.19928
 C24 C 0.39504 0.04192 0.20631
 H25 H 0.39434 0.04744 0.18755
 C26 C 0.39577 0.02639 0.25385
 H27 H 0.39523 0.02049 0.27248
 C28 C 0.40576 0.04847 0.24805
 H29 H 0.41303 0.05939 0.26232
 Zn30 Zn 0.36790 -0.01474 0.24563
 N31 N 0.38562 0.01277 0.23635
 C32 C 0.33003 0.01259 0.26212
 N33 N 0.34453 -0.00528 0.26836
 C34 C 0.34504 -0.01366 0.29144
 C35 C 0.33149 -0.00318 0.30960
 C36 C 0.31619 0.02360 0.27973
 C37 C 0.36948 -0.03749 0.20177
 C38 C 0.36108 -0.04897 0.18122
 C39 C 0.32016 -0.04294 0.19487
 C40 C 0.32940 -0.03136 0.21520
 N41 N 0.35370 -0.02883 0.21816
 H42 H 0.33028 0.01915 0.24372
 H43 H 0.35709 -0.02752 0.29617
 H44 H 0.33330 -0.00919 0.32810
 H45 H 0.30543 0.03838 0.27461
 H46 H 0.38870 -0.03540 0.20474
 H47 H 0.37407 -0.05529 0.16823
 H48 H 0.30080 -0.04519 0.19298
 H49 H 0.31720 -0.02471 0.22871
 C50 C 0.40502 0.05666 0.22405
 C51 C 0.41303 -0.07338 0.28130
 C52 C 0.33612 -0.05202 0.17759
 C53 C 0.31747 0.01623 0.30399
 C54 C 0.08093 1.02606 0.77815
 H55 H 0.07830 1.00906 0.78663
 C56 C 0.06855 1.04528 0.78693
 H57 H 0.05659 1.04289 0.80237
 C58 C 0.10114 1.04995 0.74883
 H59 H 0.11425 1.05182 0.73434
 C60 C 0.08884 1.06953 0.75672
 H61 H 0.09226 1.08617 0.74772
 N62 N 0.09741 1.02888 0.75995
 C63 C 0.07591 0.98123 0.73113
 H64 H 0.07098 0.99900 0.72702
 C65 C 0.06201 0.96258 0.72208
 H66 H 0.04646 0.96618 0.71101
 C67 C 0.10203 0.95500 0.75056
 H68 H 0.11766 0.95192 0.76149
 C69 C 0.08859 0.93584 0.74199
 H70 H 0.09442 0.91834 0.74621
 Zn71 Zn 0.11676 1.00336 0.75134
 N72 N 0.09609 0.97718 0.74427
 C73 C 0.15378 0.97890 0.77543
 N74 N 0.13776 0.99645 0.77754
 C75 C 0.13576 1.00857 0.79855
 C76 C 0.14858 1.00191 0.81901
 C77 C 0.16667 0.97137 0.79557
 C78 C 0.12258 1.01372 0.70201
 C79 C 0.13456 1.02060 0.68080
 C80 C 0.17192 1.02285 0.70306
 C81 C 0.15919 1.01569 0.72392
 N82 N 0.13491 1.01146 0.72306
 H83 H 0.15583 0.97006 0.75831
 H84 H 0.12379 1.02313 0.79977
 H85 H 0.14631 1.01157 0.83563
 H86 H 0.17803 0.95633 0.79380
 H87 H 0.10331 1.01055 0.70166
 H88 H 0.12433 1.02209 0.66425
 H89 H 0.19110 1.02682 0.70422
 H90 H 0.16863 1.01411 0.74088
 C91 C 0.06877 0.93950 0.72684
 C92 C 0.07288 1.06754 0.77656
 C93 C 0.15949 1.02564 0.68117
 C94 C 0.16360 0.98250 0.81798
 C95 C 0.58660 0.52632 0.28775
 H96 H 0.58270 0.51010 0.29737
 C97 C 0.57605 0.54705 0.29537
 H98 H 0.56418 0.54677 0.31103
 C99 C 0.60750 0.54666 0.25619
 H100 H 0.61977 0.54657 0.24095
 C101 C 0.59759 0.56773 0.26331
 H102 H 0.60234 0.58365 0.25345
 N103 N 0.60252 0.52662 0.26887
 C104 C 0.60332 0.45363 0.27286
 H105 H 0.61820 0.45428 0.28533
 C106 C 0.59066 0.43254 0.26980
 H107 H 0.59605 0.41725 0.27990
 C108 C 0.57845 0.47240 0.24438
 H109 H 0.57410 0.48795 0.23422
 C110 C 0.56516 0.45153 0.24080
 H111 H 0.55072 0.45108 0.22768
 Zn112 Zn 0.61942 0.49920 0.26085
 N113 N 0.59783 0.47278 0.25942
 C114 C 0.66074 0.47817 0.27814
 N115 N 0.64295 0.49293 0.28458
 C116 C 0.64036 0.50016 0.30784
 C117 C 0.65498 0.49116 0.32600
 C118 C 0.67572 0.46878 0.29567
 C119 C 0.62780 0.49318 0.21022
 C120 C 0.63952 0.49765 0.18816
 C121 C 0.66844 0.52246 0.20902
 C122 C 0.65601 0.51774 0.23062
 N123 N 0.63585 0.50363 0.23081
 H124 H 0.66230 0.47254 0.25956
 H125 H 0.62610 0.51185 0.31261
 H126 H 0.65166 0.49591 0.34464
 H127 H 0.68910 0.45627 0.29034
 H128 H 0.61208 0.48167 0.21069
 H129 H 0.63264 0.48957 0.17185
 H130 H 0.68403 0.53428 0.20909
 H131 H 0.66216 0.52568 0.24727
 C132 C 0.57191 0.43107 0.25295
 C133 C 0.58210 0.56818 0.28346
 C134 C 0.65996 0.51266 0.18737
 C135 C 0.67228 0.47454 0.32008
 C136 C 0.93291 0.47330 0.77515
 H137 H 0.94075 0.49029 0.77066
 C138 C 0.94732 0.45597 0.78514
 H139 H 0.96629 0.45969 0.78839
 C140 C 0.89869 0.44748 0.77638
 H141 H 0.87966 0.44441 0.77300
 C142 C 0.91243 0.42966 0.78595
 H143 H 0.90384 0.41287 0.79014
 N144 N 0.90903 0.46875 0.77119
 C145 C 0.90066 0.52259 0.72103
 H146 H 0.89090 0.51065 0.70940
 C147 C 0.90853 0.54415 0.71175
 H148 H 0.90518 0.54829 0.69293
 C149 C 0.91559 0.53247 0.75985
 H150 H 0.91743 0.52805 0.77880
 C151 C 0.92387 0.55434 0.75123
 H152 H 0.93223 0.56669 0.76359
 Zn153 Zn 0.88776 0.49034 0.75764
 N154 N 0.90390 0.51728 0.74479
 C155 C 0.84990 0.51695 0.77556
 N156 N 0.86626 0.50065 0.78171
 C157 C 0.86898 0.49366 0.80508
 C158 C 0.85524 0.50355 0.82345
 C159 C 0.83563 0.52715 0.79333
 C160 C 0.88577 0.46412 0.71597
 C161 C 0.87573 0.45239 0.69632
 C162 C 0.83599 0.46161 0.71135
 C163 C 0.84685 0.47316 0.73084
 N164 N 0.87135 0.47449 0.73253
 H165 H 0.84842 0.52248 0.75688
 H166 H 0.88249 0.48109 0.80968
 H167 H 0.85846 0.49847 0.84203
 H168 H 0.82279 0.54019 0.78805
 H169 H 0.90519 0.46533 0.71790
 H170 H 0.88759 0.44478 0.68302
 H171 H 0.81648 0.46072 0.71014
 H172 H 0.83571 0.48109 0.74448
 C173 C 0.91970 0.56058 0.72704
 C174 C 0.93703 0.43381 0.79047
 C175 C 0.85054 0.45114 0.69373
 C176 C 0.83857 0.52084 0.81774
 C177 C 0.30206 0.40225 -0.00374
 H178 H 0.31098 0.40399 0.01354
 C179 C 0.31191 0.41343 -0.02423
 H180 H 0.32823 0.42409 -0.02247
 C181 C 0.27024 0.38582 -0.02706
 H182 H 0.25443 0.37450 -0.02835
 C183 C 0.27945 0.39667 -0.04797
 H184 H 0.27049 0.39356 -0.06505
 N185 N 0.28150 0.38887 -0.00546
 C186 C 0.24769 0.38358 0.06569
 H187 H 0.24430 0.36485 0.06602
 C188 C 0.23820 0.39747 0.08388
 H189 H 0.22748 0.38940 0.09828
 C190 C 0.26504 0.41700 0.04601
 H191 H 0.27499 0.42459 0.03090
 C192 C 0.25624 0.43156 0.06417
 H193 H 0.25947 0.45030 0.06298
 Zn194 Zn 0.26989 0.37258 0.02245
 N195 N 0.26060 0.39347 0.04711
 C196 C 0.30402 0.35676 0.05605
 N197 N 0.29495 0.35345 0.03350
 C198 C 0.30483 0.33791 0.01798
 C199 C 0.32482 0.32503 0.02493
 C200 C 0.32399 0.34437 0.06367
 C201 C 0.22251 0.36701 0.00774
 C202 C 0.20147 0.35553 0.00009
 C203 C 0.22012 0.31852 0.00818
 C204 C 0.24101 0.33076 0.01547
 N205 N 0.24197 0.35458 0.01452
 H206 H 0.29614 0.36943 0.06798
 H207 H 0.29749 0.33591 -0.00000
 H208 H 0.33282 0.31310 0.01220
 H209 H 0.33103 0.34734 0.08166
 H210 H 0.22366 0.38594 0.00761
 H211 H 0.18638 0.36572 -0.00593
 H212 H 0.21977 0.29956 0.00821
 H213 H 0.25653 0.32124 0.02143
 C214 C 0.24231 0.42175 0.08311
 C215 C 0.30062 0.41061 -0.04676
 C216 C 0.20028 0.33100 -0.00018
 C217 C 0.33485 0.32849 0.04793
 C218 C 0.78067 0.10662 1.02366
 H219 H 0.79288 0.10830 1.00844
 C220 C 0.78766 0.09392 1.04399
 H221 H 0.80534 0.08624 1.04419
 C222 C 0.74335 0.11523 1.04236
 H223 H 0.72599 0.12340 1.04163
 C224 C 0.74965 0.10276 1.06309
 H225 H 0.73707 0.10153 1.07815
 N226 N 0.75910 0.11751 1.02340
 C227 C 0.73929 0.13133 0.94861
 H228 H 0.74441 0.14968 0.94716
 C229 C 0.73021 0.11948 0.92849
 H230 H 0.72822 0.12889 0.91159
 C231 C 0.73473 0.09709 0.97282
 H232 H 0.73632 0.08858 0.99024
 C233 C 0.72540 0.08460 0.95318
 H234 H 0.72010 0.06636 0.95557
 Zn235 Zn 0.75144 0.13775 0.99720
 N236 N 0.74110 0.12010 0.97026
 C237 C 0.79700 0.14450 0.97574
 N238 N 0.77939 0.15575 0.98800
 C239 C 0.78181 0.17892 0.99326
 C240 C 0.80295 0.19144 0.98686
 C241 C 0.81845 0.15626 0.96917
 C242 C 0.70444 0.15635 0.99579
 C243 C 0.68448 0.16766 1.00540
 C244 C 0.70941 0.18115 1.03844
 C245 C 0.72892 0.16972 1.02814
 N246 N 0.72601 0.15720 1.00746
 H247 H 0.79431 0.12633 0.97088
 H248 H 0.76748 0.18776 1.00252
 H249 H 0.80473 0.20977 0.99151
 H250 H 0.83219 0.14698 0.95936
 H251 H 0.70232 0.14604 0.97960
 H252 H 0.66720 0.16592 0.99644
 H253 H 0.71187 0.19042 1.05531
 H254 H 0.74611 0.16981 1.03733
 C255 C 0.72281 0.09588 0.93072
 C256 C 0.77227 0.09229 1.06425
 C257 C 0.68668 0.17971 1.02735
 C258 C 0.82171 0.18001 0.97489
 C259 C 0.26701 0.59168 0.53088
 H260 H 0.27553 0.59130 0.51322
 C261 C 0.27643 0.57869 0.54995
 H262 H 0.29233 0.56848 0.54673
 C263 C 0.23686 0.60671 0.55667
 H264 H 0.22183 0.61808 0.55943
 C265 C 0.24557 0.59386 0.57621
 H266 H 0.23662 0.59508 0.59361
 N267 N 0.24759 0.60536 0.53451
 C268 C 0.21870 0.61815 0.46247
 H269 H 0.21877 0.63708 0.46291
 C270 C 0.21045 0.60639 0.44198
 H271 H 0.20386 0.61643 0.42682
 C272 C 0.22667 0.58221 0.48212
 H273 H 0.23291 0.57290 0.49786
 C274 C 0.21849 0.56970 0.46195
 H275 H 0.21876 0.55076 0.46227
 Zn276 Zn 0.23786 0.62433 0.50821
 N277 N 0.22681 0.60602 0.48189
 C278 C 0.27609 0.63762 0.47670
 N279 N 0.26540 0.64240 0.49829
 C280 C 0.27514 0.65868 0.51351
 C281 C 0.29591 0.67158 0.50672
 C282 C 0.29715 0.64968 0.46949
 C283 C 0.19115 0.63254 0.52486
 C284 C 0.17150 0.64544 0.53263
 C285 C 0.19462 0.68095 0.52403
 C286 C 0.21385 0.66735 0.51646
 N287 N 0.21201 0.64358 0.51756
 H288 H 0.26862 0.62409 0.46521
 H289 H 0.26673 0.66163 0.53091
 H290 H 0.30341 0.68466 0.51882
 H291 H 0.30552 0.64566 0.45229
 H292 H 0.18998 0.61361 0.52509
 H293 H 0.15541 0.63625 0.53921
 H294 H 0.19647 0.69984 0.52313
 H295 H 0.23017 0.67586 0.50969
 C296 C 0.21036 0.58183 0.44146
 C297 C 0.26579 0.57976 0.57308
 C298 C 0.17317 0.67001 0.53256
 C299 C 0.30716 0.66695 0.48452
 C300 C 0.78438 0.91318 0.47343
 H301 H 0.79117 0.91522 0.49162
 C302 C 0.79636 0.92434 0.45407
 H303 H 0.81216 0.93530 0.45758
 C304 C 0.75591 0.89586 0.44673
 H305 H 0.74072 0.88407 0.44375
 C306 C 0.76733 0.90661 0.42689
 H307 H 0.76062 0.90301 0.40890
 N308 N 0.76451 0.89932 0.46947
 C309 C 0.73081 0.89120 0.54061
 H310 H 0.72845 0.87235 0.54054
 C311 C 0.72454 0.90381 0.56109
 H312 H 0.71708 0.89460 0.57672
 C313 C 0.74363 0.92604 0.52027
 H314 H 0.75111 0.93456 0.50431
 C315 C 0.73725 0.93943 0.54035
 H316 H 0.74005 0.95825 0.53983
 Zn317 Zn 0.75067 0.88237 0.49582
 N318 N 0.74078 0.90231 0.52102
 C319 C 0.78442 0.86675 0.52968
 N320 N 0.77477 0.86231 0.50757
 C321 C 0.78365 0.84524 0.49319
 C322 C 0.80260 0.83146 0.50122
 C323 C 0.80333 0.85353 0.53834
 C324 C 0.70485 0.87913 0.47666
 C325 C 0.68419 0.86877 0.46674
 C326 C 0.69977 0.83079 0.47668
 C327 C 0.72041 0.84192 0.48615
 N328 N 0.72276 0.86568 0.48541
 H329 H 0.77803 0.88106 0.54043
 H330 H 0.77614 0.84248 0.47538
 H331 H 0.80929 0.81780 0.48966
 H332 H 0.81104 0.85785 0.55575
 H333 H 0.70705 0.89799 0.47670
 H334 H 0.67040 0.87975 0.45924
 H335 H 0.69832 0.81186 0.47672
 H336 H 0.73461 0.83158 0.49372
 C337 C 0.72807 0.92818 0.56125
 C338 C 0.78797 0.92092 0.43037
 C339 C 0.68167 0.84432 0.46632
 C340 C 0.81267 0.83554 0.52413
 C341 C -0.01760 0.28295 0.39724
 H342 H 0.00016 0.29110 0.39530
 C343 C -0.03530 0.29372 0.41114
 H344 H -0.03097 0.31006 0.42014
 C345 C -0.04535 0.25255 0.38659
 H346 H -0.04960 0.23708 0.37621
 C347 C -0.06345 0.26254 0.40053
 H348 H -0.08138 0.25453 0.40078
 N349 N -0.02304 0.26301 0.38493
 C350 C 0.04435 0.23265 0.36113
 H351 H 0.04090 0.23311 0.34189
 C352 C 0.06534 0.22273 0.36969
 H353 H 0.07816 0.21593 0.35681
 C354 C 0.03159 0.24115 0.40108
 H355 H 0.01812 0.24805 0.41316
 C356 C 0.05239 0.23110 0.41051
 H357 H 0.05470 0.23021 0.42993
 Zn358 Zn -0.00027 0.25252 0.36198
 N359 N 0.02801 0.24161 0.37675
 C360 C 0.03062 0.28737 0.34214
 N361 N 0.00769 0.27834 0.34155
 C362 C -0.00989 0.28913 0.32885
 C363 C -0.00459 0.30988 0.31604
 C364 C 0.03667 0.30792 0.32965
 C365 C -0.01695 0.20718 0.35875
 C366 C -0.02701 0.18690 0.34887
 C367 C -0.02877 0.20661 0.31013
 C368 C -0.01869 0.22673 0.32087
 N369 N -0.01347 0.22671 0.34491
 H370 H 0.04414 0.27923 0.35311
 H371 H -0.02815 0.28196 0.32921
 H372 H -0.01878 0.31835 0.30614
 H373 H 0.05488 0.31510 0.33111
 H374 H -0.01218 0.20754 0.37770
 H375 H -0.02988 0.17163 0.36034
 H376 H -0.03345 0.20691 0.29114
 H377 H -0.01530 0.24233 0.31010
 C378 C 0.06945 0.22145 0.39470
 C379 C -0.05870 0.28372 0.41246
 C380 C -0.03342 0.18653 0.32437
 C381 C 0.01898 0.31956 0.31645
 C382 C 1.01644 0.76711 0.07081
 H383 H 0.99816 0.77034 0.06514
 C384 C 1.03590 0.77485 0.05634
 H385 H 1.03213 0.78319 0.03921
 C386 C 1.04318 0.75236 0.10009
 H387 H 1.04592 0.74409 0.11746
 C388 C 1.06313 0.76048 0.08662
 H389 H 1.08093 0.75843 0.09417
 N390 N 1.02038 0.75572 0.09202
 C391 C 0.94793 0.72775 0.10950
 H392 H 0.94806 0.73186 0.12858
 C393 C 0.92700 0.71844 0.09905
 H394 H 0.91107 0.71596 0.11031
 C395 C 0.96852 0.72711 0.07184
 H396 H 0.98488 0.73008 0.06140
 C397 C 0.94805 0.71730 0.06070
 H398 H 0.94901 0.71287 0.04171
 Zn399 Zn 0.99417 0.74684 0.11264
 N400 N 0.96790 0.73263 0.09575
 C401 C 0.96152 0.78261 0.12267
 N402 N 0.98358 0.77428 0.12833
 C403 C 0.99813 0.78560 0.14448
 C404 C 0.98990 0.80521 0.15687
 C405 C 0.95259 0.80199 0.13461
 C406 C 1.01230 0.70395 0.12508
 C407 C 1.01985 0.68562 0.13972
 C408 C 1.01110 0.70893 0.17489
 C409 C 1.00349 0.72681 0.15952
 N410 N 1.00445 0.72407 0.13508
 H411 H 0.95071 0.77430 0.10885
 H412 H 1.01593 0.77907 0.14814
 H413 H 1.00130 0.81355 0.17029
 H414 H 0.93483 0.80812 0.13002
 H415 H 1.01270 0.70220 0.10560
 H416 H 1.02638 0.66988 0.13135
 H417 H 1.01021 0.71130 0.19430
 H418 H 0.99663 0.74270 0.16715
 C419 C 0.92672 0.71315 0.07425
 C420 C 1.05978 0.77189 0.06428
 C421 C 1.01935 0.68798 0.16498
 C422 C 0.96659 0.81325 0.15233
 C423 C 0.51319 0.28801 0.59235
 H424 H 0.49544 0.29546 0.59145
 C425 C 0.53264 0.29890 0.58015
 H426 H 0.52959 0.31449 0.56948
 C427 C 0.53882 0.25907 0.60799
 H428 H 0.54139 0.24395 0.61938
 C429 C 0.55873 0.26938 0.59613
 H430 H 0.57638 0.26200 0.59862
 N431 N 0.51656 0.26842 0.60588
 C432 C 0.44963 0.22793 0.61460
 H433 H 0.45173 0.22341 0.63349
 C434 C 0.43032 0.21838 0.60162
 H435 H 0.41760 0.20648 0.61061
 C436 C 0.46337 0.24938 0.58010
 H437 H 0.47631 0.26142 0.57179
 C438 C 0.44400 0.24052 0.56652
 H439 H 0.44221 0.24573 0.54776
 Zn440 Zn 0.49019 0.25561 0.62404
 N441 N 0.46566 0.24313 0.60377
 C442 C 0.45349 0.28492 0.64022
 N443 N 0.47720 0.27992 0.64287
 C444 C 0.49180 0.29289 0.65760
 C445 C 0.48251 0.31164 0.67061
 C446 C 0.44351 0.30342 0.65281
 C447 C 0.50772 0.21109 0.63219
 C448 C 0.51597 0.19197 0.64526
 C449 C 0.50922 0.21331 0.68220
 C450 C 0.50106 0.23208 0.66838
 N451 N 0.50081 0.23075 0.64381
 H452 H 0.44227 0.27479 0.62806
 H453 H 0.51070 0.28876 0.65910
 H454 H 0.49429 0.32165 0.68243
 H455 H 0.42468 0.30729 0.65005
 H456 H 0.50710 0.21044 0.61264
 H457 H 0.52206 0.17679 0.63555
 H458 H 0.50939 0.21466 0.70173
 H459 H 0.49504 0.24768 0.67729
 C460 C 0.42724 0.22480 0.57733
 C461 C 0.55584 0.28967 0.58211
 C462 C 0.51694 0.19295 0.67061
 C463 C 0.45801 0.31706 0.66830
 C464 C 0.48995 0.78562 0.88453
 H465 H 0.50781 0.79364 0.88569
 C466 C 0.47079 0.79486 0.89761
 H467 H 0.47426 0.80974 0.90922
 C468 C 0.46390 0.75660 0.86773
 H469 H 0.46116 0.74203 0.85563
 C470 C 0.44416 0.76547 0.88025
 H471 H 0.42644 0.75759 0.87743
 N472 N 0.48623 0.76680 0.86999
 C473 C 0.55691 0.73685 0.85806
 H474 H 0.55642 0.73567 0.83854
 C475 C 0.57635 0.72790 0.87071
 H476 H 0.59093 0.71997 0.86079
 C477 C 0.53820 0.74831 0.89468
 H478 H 0.52303 0.75577 0.90398
 C479 C 0.55746 0.73973 0.90807
 H480 H 0.55695 0.74068 0.92763
 Zn481 Zn 0.51223 0.75648 0.85073
 N482 N 0.53831 0.74675 0.87011
 C483 C 0.54476 0.79171 0.83438
 N484 N 0.52242 0.78202 0.83081
 C485 C 0.50658 0.79197 0.81535
 C486 C 0.51310 0.81248 0.80267
 C487 C 0.55190 0.81226 0.82235
 C488 C 0.49859 0.71033 0.84655
 C489 C 0.48984 0.68968 0.83626
 C490 C 0.48833 0.70948 0.79757
 C491 C 0.49751 0.72983 0.80863
 N492 N 0.50187 0.72996 0.83284
 H493 H 0.55680 0.78412 0.84737
 H494 H 0.48865 0.78431 0.81332
 H495 H 0.50025 0.82009 0.79043
 H496 H 0.56941 0.82006 0.82638
 H497 H 0.50247 0.71085 0.86569
 H498 H 0.48747 0.67431 0.84766
 H499 H 0.48403 0.70986 0.77850
 H500 H 0.50055 0.74555 0.79798
 C501 C 0.57670 0.72912 0.89605
 C502 C 0.44739 0.78500 0.89531
 C503 C 0.48393 0.68916 0.81159
 C504 C 0.53598 0.82307 0.80630
 C505 C 0.46499 -0.21478 0.32588
 C506 C 0.46378 -0.19192 0.33561
 C507 C 0.47251 -0.18846 0.35943
 C508 C 0.48110 -0.20730 0.37300
 C509 C 0.48195 -0.22969 0.36308
 C510 C 0.47406 -0.23329 0.33945
 C511 C 0.47271 -0.16622 0.36961
 C512 C 0.46461 -0.14711 0.35667
 C513 C 0.45543 -0.14955 0.33303
 C514 C 0.45438 -0.17243 0.32258
 C515 C 0.44345 -0.17516 0.29972
 C516 C 0.43384 -0.15629 0.28750
 C517 C 0.43518 -0.13385 0.29719
 C518 C 0.44655 -0.12996 0.31977
 C519 C 0.44846 -0.10658 0.32811
 C520 C 0.43831 -0.08821 0.31520
 C521 C 0.42594 -0.09245 0.29362
 C522 C 0.42484 -0.11527 0.28450
 H523 H 0.45953 -0.21892 0.30771
 H524 H 0.48743 -0.20447 0.39130
 H525 H 0.47484 -0.25044 0.33135
 H526 H 0.47935 -0.16351 0.38782
 H527 H 0.46518 -0.13066 0.36607
 H528 H 0.44134 -0.19188 0.29101
 H529 H 0.42520 -0.15935 0.27021
 H530 H 0.45772 -0.10182 0.34449
 H531 H 0.43952 -0.07068 0.32251
 H532 H 0.41574 -0.11858 0.26750
 C533 C 0.99102 0.29242 0.83069
 C534 C 0.99055 0.31529 0.84051
 C535 C 0.99982 0.31853 0.86414
 C536 C 1.00794 0.29945 0.87758
 C537 C 1.00796 0.27706 0.86764
 C538 C 0.99967 0.27364 0.84413
 C539 C 1.00086 0.34074 0.87436
 C540 C 0.99286 0.36004 0.86169
 C541 C 0.98290 0.35779 0.83836
 C542 C 0.98117 0.33496 0.82783
 C543 C 0.96939 0.33244 0.80538
 C544 C 0.95932 0.35142 0.79378
 C545 C 0.96113 0.37376 0.80365
 C546 C 0.97368 0.37749 0.82562
 C547 C 0.97618 0.40082 0.83401
 C548 C 0.96516 0.41924 0.82197
 C549 C 0.95139 0.41503 0.80129
 C550 C 0.94996 0.39236 0.79187
 H551 H 0.98515 0.28845 0.81260
 H552 H 1.01440 0.30206 0.89587
 H553 H 0.99963 0.25639 0.83614
 H554 H 1.00796 0.34326 0.89242
 H555 H 0.99398 0.37645 0.87113
 H556 H 0.96682 0.31579 0.79664
 H557 H 0.94985 0.34851 0.77691
 H558 H 0.98647 0.40547 0.84981
 H559 H 0.96669 0.43672 0.82937
 H560 H 0.93973 0.38916 0.77550
 C561 C 0.05541 1.21143 0.83730
 C562 C 0.04255 1.18970 0.83746
 C563 C 0.02085 1.18805 0.85123
 C564 C 0.01343 1.20696 0.86538
 C565 C 0.02725 1.22776 0.86604
 C566 C 0.04780 1.23005 0.85138
 C567 C 0.00681 1.16748 0.85103
 C568 C 0.01391 1.14827 0.83770
 C569 C 0.03577 1.14868 0.82435
 C570 C 0.05050 1.16965 0.82454
 C571 C 0.07308 1.16963 0.81251
 C572 C 0.08109 1.14989 0.80077
 C573 C 0.06688 1.12946 0.80016
 C574 C 0.04380 1.12860 0.81144
 C575 C 0.02990 1.10755 0.80945
 C576 C 0.03905 1.08804 0.79770
 C577 C 0.06229 1.08875 0.78747
 C578 C 0.07595 1.10970 0.78861
 H579 H 0.07134 1.21476 0.82641
 H580 H -0.00310 1.20535 0.87589
 H581 H 0.05831 1.24622 0.85087
 H582 H -0.00985 1.16614 0.86143
 H583 H 0.00210 1.13305 0.83884
 H584 H 0.08548 1.18443 0.81242
 H585 H 0.09875 1.15063 0.79214
 H586 H 0.01185 1.10555 0.81665
 H587 H 0.02782 1.07230 0.79663
 H588 H 0.09409 1.11052 0.78112
 C589 C 0.49295 0.68490 0.34155
 C590 C 0.51764 0.67980 0.33798
 C591 C 0.53507 0.69685 0.34539
 C592 C 0.52800 0.71713 0.35743
 C593 C 0.50361 0.72121 0.36188
 C594 C 0.48615 0.70532 0.35332
 C595 C 0.55956 0.69340 0.34124
 C596 C 0.56733 0.67328 0.33004
 C597 C 0.55087 0.65535 0.32302
 C598 C 0.52565 0.65840 0.32759
 C599 C 0.50943 0.63965 0.32247
 C600 C 0.51749 0.61864 0.31325
 C601 C 0.54190 0.61561 0.30812
 C602 C 0.55888 0.63413 0.31232
 C603 C 0.58323 0.63059 0.30559
 C604 C 0.59043 0.60933 0.29604
 C605 C 0.57376 0.59083 0.29287
 C606 C 0.54947 0.59409 0.29886
 H607 H 0.47845 0.67352 0.33549
 H608 H 0.54166 0.72947 0.36372
 H609 H 0.46713 0.70837 0.35635
 H610 H 0.57294 0.70641 0.34683
 H611 H 0.58660 0.67197 0.32797
 H612 H 0.49033 0.64035 0.32616
 H613 H 0.50441 0.60458 0.31006
 H614 H 0.59719 0.64394 0.30714
 H615 H 0.60931 0.60722 0.29146
 H616 H 0.53641 0.57992 0.29603
 C617 C 0.55751 0.28806 0.19191
 C618 C 0.54200 0.30331 0.20433
 C619 C 0.51681 0.29823 0.20375
 C620 C 0.50784 0.27838 0.19152
 C621 C 0.52337 0.26463 0.17787
 C622 C 0.54823 0.26931 0.17860
 C623 C 0.50067 0.31368 0.21417
 C624 C 0.50885 0.33489 0.22370
 C625 C 0.53370 0.34103 0.22402
 C626 C 0.55057 0.32417 0.21589
 C627 C 0.57544 0.32882 0.21934
 C628 C 0.58370 0.34999 0.22864
 C629 C 0.56761 0.36752 0.23435
 C630 C 0.54236 0.36344 0.23213
 C631 C 0.52698 0.38232 0.23715
 C632 C 0.53644 0.40423 0.24400
 C633 C 0.56138 0.40787 0.24649
 C634 C 0.57679 0.38934 0.24184
 H635 H 0.57677 0.29107 0.19070
 H636 H 0.48852 0.27486 0.19079
 H637 H 0.56066 0.25914 0.16809
 H638 H 0.48141 0.30980 0.21403
 H639 H 0.49525 0.34609 0.23098
 H640 H 0.58903 0.31620 0.21538
 H641 H 0.60300 0.35288 0.23077
 H642 H 0.50765 0.38095 0.23512
 H643 H 0.52422 0.41838 0.24737
 H644 H 0.59617 0.39219 0.24317
 C645 C 0.01241 0.79545 0.68953
 C646 C 0.01754 0.81715 0.67772
 C647 C 0.01411 0.81821 0.65233
 C648 C 0.00644 0.79832 0.63953
 C649 C 0.00169 0.77714 0.65151
 C650 C 0.00448 0.77582 0.67655
 C651 C 0.01825 0.83909 0.63973
 C652 C 0.02570 0.85922 0.65168
 C653 C 0.02960 0.85923 0.67691
 C654 C 0.02580 0.83777 0.69011
 C655 C 0.03074 0.83758 0.71515
 C656 C 0.03926 0.85751 0.72688
 C657 C 0.04299 0.87852 0.71432
 C658 C 0.03775 0.87988 0.68928
 C659 C 0.04110 0.90189 0.67766
 C660 C 0.05044 0.92121 0.69009
 C661 C 0.05657 0.91947 0.71456
 C662 C 0.05234 0.89813 0.72667
 H663 H 0.01396 0.79307 0.70879
 H664 H 0.00393 0.79936 0.62011
 H665 H 0.00035 0.75970 0.68625
 H666 H 0.01565 0.83992 0.62031
 H667 H 0.02868 0.87444 0.64039
 H668 H 0.02868 0.82211 0.72624
 H669 H 0.04312 0.85640 0.74606
 H670 H 0.03685 0.90486 0.65894
 H671 H 0.05357 0.93745 0.68021
 H672 H 0.05655 0.89671 0.74574
 C673 C 0.99460 0.69415 0.67878
 C674 C 0.97107 0.68375 0.67829
 C675 C 0.95331 0.69524 0.66454
 C676 C 0.95901 0.71596 0.65187
 C677 C 0.98230 0.72582 0.65249
 C678 C 1.00005 0.71480 0.66594
 C679 C 0.92994 0.68586 0.66306
 C680 C 0.92379 0.66484 0.67430
 C681 C 0.94087 0.65219 0.68761
 C682 C 0.96470 0.66214 0.69032
 C683 C 0.98131 0.65007 0.70478
 C684 C 0.97524 0.62861 0.71545
 C685 C 0.95250 0.61817 0.71202
 C686 C 0.93494 0.62983 0.69813
 C687 C 0.91229 0.61829 0.69484
 C688 C 0.90756 0.59613 0.70455
 C689 C 0.92502 0.58459 0.71796
 C690 C 0.94736 0.59587 0.72205
 H691 H 1.00935 0.68656 0.68841
 H692 H 0.94528 0.72395 0.64095
 H693 H 1.01833 0.72202 0.66622
 H694 H 0.91625 0.69476 0.65280
 H695 H 0.90530 0.65904 0.67217
 H696 H 0.99928 0.65677 0.70829
 H697 H 0.98868 0.61991 0.72621
 H698 H 0.89789 0.62556 0.68446
 H699 H 0.89001 0.58790 0.70148
 H700 H 0.96099 0.58696 0.73238
 C701 C 0.49511 0.18845 0.20385
 C702 C 0.47257 0.17905 0.19608
 C703 C 0.46002 0.19183 0.17826
 C704 C 0.47053 0.21204 0.16760
 C705 C 0.49390 0.21956 0.17374
 C706 C 0.50546 0.20840 0.19284
 C707 C 0.43731 0.18406 0.17061
 C708 C 0.42717 0.16318 0.17926
 C709 C 0.43949 0.14899 0.19590
 C710 C 0.46229 0.15734 0.20496
 C711 C 0.47436 0.14336 0.22198
 C712 C 0.46496 0.12171 0.22937
 C713 C 0.44324 0.11294 0.22010
 C714 C 0.43002 0.12650 0.20342
 C715 C 0.40814 0.11665 0.19449
 C716 C 0.40015 0.09426 0.20144
 C717 C 0.41350 0.08079 0.21755
 C718 C 0.43488 0.09043 0.22711
 H719 H 0.50545 0.18068 0.21810
 H720 H 0.46057 0.22137 0.15408
 H721 H 0.52278 0.21491 0.19919
 H722 H 0.42743 0.19399 0.15732
 H723 H 0.40966 0.15854 0.17217
 H724 H 0.49146 0.14847 0.22974
 H725 H 0.47508 0.11150 0.24223
 H726 H 0.39680 0.12557 0.18188
 H727 H 0.38328 0.08747 0.19417
 H728 H 0.44543 0.08011 0.23951
 C729 C 0.32181 0.47889 -0.19292
 C730 C 0.33594 0.46811 -0.17481
 C731 C 0.36118 0.46706 -0.17903
 C732 C 0.37158 0.47656 -0.20017
 C733 C 0.35744 0.48762 -0.21741
 C734 C 0.33251 0.48850 -0.21390
 C735 C 0.37612 0.45678 -0.16206
 C736 C 0.36674 0.44773 -0.14058
 C737 C 0.34183 0.44854 -0.13513
 C738 C 0.32609 0.45856 -0.15268
 C739 C 0.30109 0.45871 -0.14747
 C740 C 0.29175 0.44952 -0.12594
 C741 C 0.30685 0.43998 -0.10858
 C742 C 0.33213 0.43950 -0.11277
 C743 C 0.34664 0.43003 -0.09426
 C744 C 0.33638 0.42104 -0.07293
 C745 C 0.31138 0.42119 -0.06910
 C746 C 0.29674 0.43085 -0.08700
 H747 H 0.30253 0.48047 -0.19137
 H748 H 0.39096 0.47583 -0.20300
 H749 H 0.32128 0.49685 -0.22720
 H750 H 0.39540 0.45585 -0.16534
 H751 H 0.37968 0.44007 -0.12867
 H752 H 0.28809 0.46572 -0.15978
 H753 H 0.27241 0.44995 -0.12282
 H754 H 0.36600 0.42923 -0.09555
 H755 H 0.34813 0.41347 -0.05955
 H756 H 0.27737 0.43139 -0.08407
 C757 C 0.82601 0.97957 0.28322
 C758 C 0.83807 0.97139 0.30413
 C759 C 0.86366 0.97104 0.30329
 C760 C 0.87635 0.97881 0.28265
 C761 C 0.86414 0.98731 0.26256
 C762 C 0.83895 0.98739 0.26277
 C763 C 0.87661 0.96310 0.32308
 C764 C 0.86482 0.95548 0.34396
 C765 C 0.83939 0.95551 0.34598
 C766 C 0.82575 0.96359 0.32574
 C767 C 0.80032 0.96364 0.32782
 C768 C 0.78855 0.95587 0.34873
 C769 C 0.80153 0.94778 0.36848
 C770 C 0.82712 0.94760 0.36754
 C771 C 0.83932 0.93934 0.38826
 C772 C 0.82661 0.93120 0.40862
 C773 C 0.80133 0.93106 0.40925
 C774 C 0.78893 0.93965 0.38916
 H775 H 0.80664 0.98024 0.28203
 H776 H 0.89594 0.97863 0.28235
 H777 H 0.82918 0.99360 0.24721
 H778 H 0.89618 0.96279 0.32244
 H779 H 0.87637 0.94964 0.35824
 H780 H 0.78883 0.96956 0.31352
 H781 H 0.76898 0.95612 0.34940
 H782 H 0.85868 0.93862 0.38937
 H783 H 0.83668 0.92439 0.42373
 H784 H 0.76936 0.93995 0.38957
 C785 C 0.85382 0.00326 1.16765
 C786 C 0.83803 0.02234 1.16893
 C787 C 0.83530 0.03343 1.19166
 C788 C 0.84806 0.02569 1.21199
 C789 C 0.86377 0.00703 1.21013
 C790 C 0.86649 -0.00411 1.18790
 C791 C 0.82022 0.05246 1.19391
 C792 C 0.80827 0.06131 1.17397
 C793 C 0.81086 0.05136 1.15077
 C794 C 0.82547 0.03116 1.14835
 C795 C 0.82730 0.02063 1.12538
 C796 C 0.81634 0.03010 1.10521
 C797 C 0.80302 0.05036 1.10701
 C798 C 0.79967 0.06113 1.12982
 C799 C 0.78572 0.08158 1.13047
 C800 C 0.77633 0.09118 1.10934
 C801 C 0.78038 0.08080 1.08684
 C802 C 0.79338 0.06012 1.08592
 H803 H 0.85732 -0.00610 1.15121
 H804 H 0.84618 0.03452 1.22919
 H805 H 0.87882 -0.01834 1.18581
 H806 H 0.81790 0.06089 1.21127
 H807 H 0.79718 0.07614 1.17740
 H808 H 0.83722 0.00497 1.12220
 H809 H 0.81865 0.02160 1.08789
 H810 H 0.78213 0.09096 1.14688
 H811 H 0.76650 0.10729 1.11055
 H812 H 0.79627 0.05173 1.06862
 C813 C 0.32461 0.54232 0.71938
 C814 C 0.32415 0.53305 0.69561
 C815 C 0.33731 0.51249 0.69133
 C816 C 0.35125 0.50260 0.70968
 C817 C 0.35213 0.51254 0.73270
 C818 C 0.33845 0.53217 0.73754
 C819 C 0.33696 0.50209 0.66861
 C820 C 0.32412 0.51176 0.64973
 C821 C 0.31131 0.53263 0.65267
 C822 C 0.31150 0.54358 0.67594
 C823 C 0.29972 0.56506 0.67854
 C824 C 0.28848 0.57569 0.65911
 C825 C 0.28806 0.56522 0.63640
 C826 C 0.29895 0.54329 0.63291
 C827 C 0.29718 0.53312 0.60965
 C828 C 0.28608 0.54474 0.59059
 C829 C 0.27626 0.56686 0.59388
 C830 C 0.27706 0.57682 0.61702
 H831 H 0.31459 0.55742 0.72456
 H832 H 0.36181 0.48741 0.70571
 H833 H 0.33888 0.54004 0.75532
 H834 H 0.34693 0.48632 0.66529
 H835 H 0.32522 0.50269 0.63277
 H836 H 0.29938 0.57455 0.69530
 H837 H 0.28010 0.59241 0.66191
 H838 H 0.30404 0.51614 0.60551
 H839 H 0.28514 0.53626 0.57315
 H840 H 0.26968 0.59398 0.61989
 C841 C 0.16645 0.54722 0.28944
 C842 C 0.16349 0.53747 0.31299
 C843 C 0.14732 0.51798 0.31568
 C844 C 0.13435 0.50927 0.29582
 C845 C 0.13693 0.51964 0.27294
 C846 C 0.15329 0.53842 0.26984
 C847 C 0.14364 0.50756 0.33830
 C848 C 0.15497 0.51648 0.35867
 C849 C 0.17055 0.53639 0.35729
 C850 C 0.17539 0.54669 0.33398
 C851 C 0.19164 0.56610 0.33252
 C852 C 0.20204 0.57572 0.35310
 C853 C 0.19673 0.56651 0.37598
 C854 C 0.18117 0.54655 0.37849
 C855 C 0.17649 0.53798 0.40225
 C856 C 0.18636 0.54912 0.42245
 C857 C 0.20126 0.56912 0.41984
 C858 C 0.20666 0.57747 0.39646
 H859 H 0.17831 0.56200 0.28557
 H860 H 0.12156 0.49484 0.29852
 H861 H 0.15538 0.54681 0.25230
 H862 H 0.13152 0.49248 0.34037
 H863 H 0.15091 0.50734 0.37534
 H864 H 0.19666 0.57447 0.31567
 H865 H 0.21413 0.59082 0.35106
 H866 H 0.16488 0.52300 0.40602
 H867 H 0.18170 0.54239 0.44029
 H868 H 0.21853 0.59271 0.39418
 C869 C 0.68222 0.04821 0.78128
 C870 C 0.67285 0.04664 0.80523
 C871 C 0.65008 0.03509 0.80858
 C872 C 0.63714 0.02633 0.78873
 C873 C 0.64660 0.02837 0.76533
 C874 C 0.66921 0.03919 0.76169
 C875 C 0.64016 0.03246 0.83167
 C876 C 0.65223 0.04106 0.85176
 C877 C 0.67477 0.05303 0.84955
 C878 C 0.68510 0.05618 0.82586
 C879 C 0.70703 0.06918 0.82356
 C880 C 0.71839 0.07895 0.84356
 C881 C 0.70869 0.07587 0.86673
 C882 C 0.68703 0.06246 0.87019
 C883 C 0.67852 0.05919 0.89425
 C884 C 0.69046 0.06960 0.91373
 C885 C 0.71129 0.08357 0.91005
 C886 C 0.72048 0.08637 0.88649
 H887 H 0.69955 0.05620 0.77701
 H888 H 0.61954 0.01795 0.79150
 H889 H 0.67675 0.04099 0.74363
 H890 H 0.62276 0.02365 0.83428
 H891 H 0.64302 0.03844 0.86880
 H892 H 0.71573 0.07263 0.80639
 H893 H 0.73499 0.08911 0.84081
 H894 H 0.66270 0.04870 0.89877
 H895 H 0.68295 0.06717 0.93174
 H896 H 0.73687 0.09680 0.88352
 C897 C 0.65227 1.01749 0.66819
 C898 C 0.67135 1.00143 0.66828
 C899 C 0.67906 0.99296 0.69106
 C900 C 0.66734 0.99953 0.71246
 C901 C 0.64715 1.01369 0.71175
 C902 C 0.64041 1.02343 0.68960
 C903 C 0.69792 0.97732 0.69237
 C904 C 0.70819 0.96846 0.67150
 C905 C 0.70002 0.97502 0.64834
 C906 C 0.68234 0.99280 0.64666
 C907 C 0.67584 1.00087 0.62345
 C908 C 0.68509 0.99092 0.60258
 C909 C 0.70080 0.97228 0.60393
 C910 C 0.70864 0.96411 0.62680
 C911 C 0.72393 0.94461 0.62718
 C912 C 0.73055 0.93349 0.60586
 C913 C 0.72248 0.94146 0.58342
 C914 C 0.70808 0.96123 0.58250
 H915 H 0.64542 1.02515 0.65185
 H916 H 0.67361 0.99297 0.72961
 H917 H 0.62555 1.03524 0.68848
 H918 H 0.70431 0.97126 0.70976
 H919 H 0.72255 0.95637 0.67418
 H920 H 0.66350 1.01489 0.62072
 H921 H 0.67928 0.99746 0.58516
 H922 H 0.73038 0.93690 0.64367
 H923 H 0.74185 0.91831 0.60694
 H924 H 0.70160 0.96732 0.56515
 C925 C 0.13133 0.48339 0.18024
 C926 C 0.15680 0.48349 0.17828
 C927 C 0.17027 0.49476 0.19681
 C928 C 0.15848 0.50392 0.21724
 C929 C 0.13327 0.50242 0.21931
 C930 C 0.11994 0.49246 0.20048
 C931 C 0.19542 0.49621 0.19514
 C932 C 0.20759 0.48635 0.17575
 C933 C 0.19507 0.47400 0.15744
 C934 C 0.16925 0.47232 0.15893
 C935 C 0.15673 0.45867 0.14162
 C936 C 0.16888 0.44676 0.12374
 C937 C 0.19393 0.44832 0.12190
 C938 C 0.20747 0.46247 0.13818
 C939 C 0.23285 0.46419 0.13451
 C940 C 0.24416 0.45152 0.11620
 C941 C 0.23060 0.43666 0.10124
 C942 C 0.20551 0.43542 0.10396
 H943 H 0.11953 0.47619 0.16664
 H944 H 0.16905 0.51131 0.23184
 H945 H 0.10053 0.49062 0.20172
 H946 H 0.20586 0.50492 0.20912
 H947 H 0.22701 0.48800 0.17609
 H948 H 0.13742 0.45603 0.14183
 H949 H 0.15848 0.43605 0.11124
 H950 H 0.24447 0.47519 0.14540
 H951 H 0.26361 0.45288 0.11410
 H952 H 0.19497 0.42421 0.09202
 C953 C -0.19446 0.32034 0.49221
 C954 C -0.17902 0.32998 0.47394
 C955 C -0.18455 0.35237 0.46462
 C956 C -0.20510 0.36396 0.47262
 C957 C -0.22025 0.35408 0.49046
 C958 C -0.21453 0.33242 0.50051
 C959 C -0.16931 0.36338 0.44768
 C960 C -0.14824 0.35297 0.44011
 C961 C -0.14182 0.33071 0.44878
 C962 C -0.15800 0.31856 0.46511
 C963 C -0.15288 0.29529 0.47164
 C964 C -0.13255 0.28433 0.46273
 C965 C -0.11610 0.29629 0.44762
 C966 C -0.12010 0.31989 0.44102
 C967 C -0.10208 0.33171 0.42696
 C968 C -0.08183 0.32011 0.41859
 C969 C -0.07875 0.29642 0.42392
 C970 C -0.09578 0.28468 0.43878
 H971 H -0.19093 0.30400 0.50118
 H972 H -0.20875 0.38121 0.46550
 H973 H -0.22508 0.32516 0.51543
 H974 H -0.17356 0.38045 0.44040
 H975 H -0.13767 0.36260 0.42680
 H976 H -0.16476 0.28474 0.48301
 H977 H -0.12962 0.26628 0.46784
 H978 H -0.10297 0.34999 0.42225
 H979 H -0.06887 0.32958 0.40721
 H980 H -0.09325 0.26643 0.44335
 C981 C 0.30087 0.80994 0.96040
 C982 C 0.32264 0.82281 0.95543
 C983 C 0.32268 0.84728 0.95947
 C984 C 0.30206 0.85806 0.96840
 C985 C 0.28079 0.84512 0.97310
 C986 C 0.28026 0.82103 0.96903
 C987 C 0.34322 0.86104 0.95443
 C988 C 0.36373 0.85125 0.94471
 C989 C 0.36463 0.82707 0.93984
 C990 C 0.34413 0.81245 0.94619
 C991 C 0.34594 0.78803 0.94329
 C992 C 0.36673 0.77826 0.93390
 C993 C 0.38634 0.79239 0.92644
 C994 C 0.38550 0.81701 0.92904
 C995 C 0.40541 0.83061 0.92018
 C996 C 0.42531 0.82015 0.90957
 C997 C 0.42633 0.79578 0.90747
 C998 C 0.40671 0.78200 0.91611
 H999 H 0.29898 0.79140 0.95730
 H1000 H 0.30239 0.87682 0.97139
 H1001 H 0.26386 0.81076 0.97221
 H1002 H 0.34338 0.87971 0.95781
 H1003 H 0.37880 0.86317 0.94163
 H1004 H 0.33165 0.77585 0.94852
 H1005 H 0.36730 0.75940 0.93210
 H1006 H 0.40594 0.84945 0.92042
 H1007 H 0.43972 0.83137 0.90239
 H1008 H 0.40722 0.76311 0.91474
 C1009 C 1.21075 0.81064 0.01792
 C1010 C 1.18713 0.81496 0.00956
 C1011 C 1.18446 0.83283 -0.00807
 C1012 C 1.20475 0.84517 -0.01735
 C1013 C 1.22777 0.84132 -0.00811
 C1014 C 1.23063 0.82393 0.00944
 C1015 C 1.16148 0.83890 -0.01574
 C1016 C 1.14094 0.82864 -0.00523
 C1017 C 1.14264 0.81113 0.01276
 C1018 C 1.16603 0.80298 0.01889
 C1019 C 1.16751 0.78308 0.03400
 C1020 C 1.14687 0.77232 0.04387
 C1021 C 1.12410 0.78156 0.03996
 C1022 C 1.12169 0.80133 0.02467
 C1023 C 1.09856 0.81109 0.02274
 C1024 C 1.07872 0.80151 0.03540
 C1025 C 1.08094 0.78148 0.05001
 C1026 C 1.10380 0.77141 0.05173
 H1027 H 1.21426 0.79802 0.03196
 H1028 H 1.20228 0.85849 -0.03100
 H1029 H 1.24827 0.82097 0.01708
 H1030 H 1.15932 0.85234 -0.02943
 H1031 H 1.12384 0.83437 -0.01200
 H1032 H 1.18444 0.77504 0.03803
 H1033 H 1.14885 0.75702 0.05531
 H1034 H 1.09545 0.82686 0.01255
 H1035 H 1.06175 0.81040 0.03419
 H1036 H 1.10604 0.75576 0.06254
 C1037 C 0.70164 0.32051 0.51483
 C1038 C 0.68267 0.33284 0.52601
 C1039 C 0.68612 0.35730 0.52902
 C1040 C 0.70789 0.36848 0.52203
 C1041 C 0.72674 0.35588 0.51202
 C1042 C 0.72323 0.33197 0.50783
 C1043 C 0.66789 0.37061 0.53900
 C1044 C 0.64618 0.36024 0.54640
 C1045 C 0.64185 0.33588 0.54437
 C1046 C 0.66045 0.32191 0.53413
 C1047 C 0.65639 0.29746 0.53282
 C1048 C 0.63507 0.28696 0.54132
 C1049 C 0.61682 0.30030 0.55132
 C1050 C 0.61971 0.32498 0.55268
 C1051 C 0.60035 0.33764 0.56260
 C1052 C 0.57959 0.32619 0.57156
 C1053 C 0.57719 0.30177 0.57085
 C1054 C 0.59577 0.28897 0.56032
 H1055 H 0.70030 0.30210 0.51089
 H1056 H 0.70997 0.38719 0.52425
 H1057 H 0.73691 0.32205 0.49875
 H1058 H 0.67046 0.38935 0.54120
 H1059 H 0.63329 0.37192 0.55406
 H1060 H 0.66960 0.28577 0.52572
 H1061 H 0.63294 0.26809 0.54021
 H1062 H 0.60061 0.35642 0.56395
 H1063 H 0.56561 0.33653 0.57971
 H1064 H 0.59391 0.27008 0.55926
 C1065 C 0.31308 0.12779 0.51831
 C1066 C 0.31705 0.15220 0.52070
 C1067 C 0.29904 0.16715 0.51176
 C1068 C 0.27722 0.15776 0.50260
 C1069 C 0.27313 0.13352 0.50187
 C1070 C 0.29156 0.11875 0.50891
 C1071 C 0.30291 0.19136 0.51204
 C1072 C 0.32427 0.20112 0.52102
 C1073 C 0.34241 0.18701 0.53084
 C1074 C 0.33837 0.16218 0.53133
 C1075 C 0.35535 0.14814 0.54316
 C1076 C 0.37572 0.15791 0.55394
 C1077 C 0.38032 0.18196 0.55299
 C1078 C 0.36413 0.19688 0.54094
 C1079 C 0.37043 0.22106 0.53961
 C1080 C 0.39128 0.22997 0.55077
 C1081 C 0.40638 0.21520 0.56368
 C1082 C 0.40097 0.19117 0.56440
 H1083 H 0.32647 0.11518 0.52292
 H1084 H 0.26362 0.16938 0.49594
 H1085 H 0.28962 0.10001 0.50674
 H1086 H 0.28929 0.20292 0.50516
 H1087 H 0.32566 0.21995 0.52075
 H1088 H 0.35298 0.12948 0.54525
 H1089 H 0.38800 0.14646 0.56320
 H1090 H 0.35974 0.23352 0.53000
 H1091 H 0.39526 0.24861 0.54986
 H1092 H 0.41290 0.17961 0.57400
 C1093 C 0.78222 0.64240 0.04980
 C1094 C 0.80033 0.65417 0.03582
 C1095 C 0.79637 0.65641 0.01061
 C1096 C 0.77639 0.64512 -0.00023
 C1097 C 0.76010 0.63149 0.01364
 C1098 C 0.76248 0.63127 0.03880
 C1099 C 0.81277 0.66924 -0.00377
 C1100 C 0.83339 0.67954 0.00619
 C1101 C 0.83883 0.67684 0.03098
 C1102 C 0.82222 0.66355 0.04592
 C1103 C 0.82856 0.65909 0.07018
 C1104 C 0.85024 0.66741 0.07963
 C1105 C 0.86628 0.68096 0.06556
 C1106 C 0.86067 0.68632 0.04120
 C1107 C 0.87724 0.70096 0.02815
 C1108 C 0.89851 0.70949 0.03881
 C1109 C 0.90425 0.70362 0.06273
 C1110 C 0.88797 0.68916 0.07588
 H1111 H 0.78278 0.64141 0.06926
 H1112 H 0.77412 0.64633 -0.01959
 H1113 H 0.74939 0.62208 0.05018
 H1114 H 0.80977 0.67116 -0.02304
 H1115 H 0.84523 0.68880 -0.00631
 H1116 H 0.81749 0.64841 0.08221
 H1117 H 0.85447 0.66320 0.09827
 H1118 H 0.87408 0.70665 0.00986
 H1119 H 0.91026 0.72114 0.02831
 H1120 H 0.89216 0.68407 0.09426
 C1121 C 0.68189 0.62607 0.95226
 C1122 C 0.67735 0.65012 0.95539
 C1123 C 0.69116 0.66253 0.97291
 C1124 C 0.70954 0.65134 0.98576
 C1125 C 0.71385 0.62766 0.98195
 C1126 C 0.69978 0.61513 0.96539
 C1127 C 0.68637 0.68591 0.97763
 C1128 C 0.66786 0.69720 0.96572
 C1129 C 0.65376 0.68569 0.94798
 C1130 C 0.65928 0.66205 0.94207
 C1131 C 0.64688 0.65121 0.92275
 C1132 C 0.62907 0.66266 0.91017
 C1133 C 0.62259 0.68520 0.91649
 C1134 C 0.63457 0.69706 0.93562
 C1135 C 0.62652 0.71965 0.94170
 C1136 C 0.60771 0.72998 0.92901
 C1137 C 0.59649 0.71829 0.90978
 C1138 C 0.60403 0.69589 0.90369
 H1139 H 0.67155 0.61498 0.94028
 H1140 H 0.72019 0.66094 0.99896
 H1141 H 0.70257 0.59664 0.96262
 H1142 H 0.69686 0.69554 0.99094
 H1143 H 0.66541 0.71525 0.97044
 H1144 H 0.65092 0.63398 0.91637
 H1145 H 0.62013 0.65363 0.89540
 H1146 H 0.63406 0.72965 0.95641
 H1147 H 0.60209 0.74730 0.93410
 H1148 H 0.59505 0.68652 0.88915
 C1149 C 0.19659 0.17428 0.48134
 C1150 C 0.18565 0.16947 0.45872
 C1151 C 0.19453 0.15043 0.44524
 C1152 C 0.21328 0.13691 0.45419
 C1153 C 0.22339 0.14151 0.47681
 C1154 C 0.21502 0.16034 0.49025
 C1155 C 0.18420 0.14439 0.42318
 C1156 C 0.16434 0.15604 0.41460
 C1157 C 0.15409 0.17448 0.42772
 C1158 C 0.16567 0.18216 0.44944
 C1159 C 0.15686 0.20220 0.46106
 C1160 C 0.13695 0.21387 0.45224
 C1161 C 0.12458 0.20568 0.43193
 C1162 C 0.13276 0.18564 0.41962
 C1163 C 0.11884 0.17718 0.40002
 C1164 C 0.09838 0.18871 0.39240
 C1165 C 0.09091 0.20911 0.40388
 C1166 C 0.10399 0.21737 0.42388
 H1167 H 0.19063 0.18801 0.49306
 H1168 H 0.21899 0.12197 0.44388
 H1169 H 0.22201 0.16368 0.50818
 H1170 H 0.19124 0.13013 0.41261
 H1171 H 0.15764 0.15035 0.39731
 H1172 H 0.16527 0.20961 0.47688
 H1173 H 0.13093 0.22927 0.46167
 H1174 H 0.12286 0.16132 0.39055
 H1175 H 0.08813 0.18135 0.37753
 H1176 H 0.09833 0.23305 0.43304
 C1177 C 0.57058 0.05109 0.70855
 C1178 C 0.57203 0.07400 0.71824
 C1179 C 0.58926 0.07836 0.73665
 C1180 C 0.60483 0.06076 0.74417
 C1181 C 0.60400 0.03871 0.73336
 C1182 C 0.58642 0.03384 0.71598
 C1183 C 0.59156 0.10051 0.74689
 C1184 C 0.57816 0.11896 0.73833
 C1185 C 0.56175 0.11598 0.71908
 C1186 C 0.55783 0.09292 0.70961
 C1187 C 0.54030 0.08969 0.69142
 C1188 C 0.52815 0.10846 0.68169
 C1189 C 0.53297 0.13122 0.68955
 C1190 C 0.54951 0.13536 0.70862
 C1191 C 0.55372 0.15889 0.71576
 C1192 C 0.54260 0.17735 0.70392
 C1193 C 0.52684 0.17314 0.68464
 C1194 C 0.52171 0.14993 0.67795
 H1195 H 0.55810 0.04610 0.69454
 H1196 H 0.61841 0.06475 0.75763
 H1197 H 0.58564 0.01692 0.70726
 H1198 H 0.60438 0.10380 0.76129
 H1199 H 0.58129 0.13548 0.74716
 H1200 H 0.53561 0.07280 0.68408
 H1201 H 0.51522 0.10516 0.66739
 H1202 H 0.56609 0.16379 0.72990
 H1203 H 0.54709 0.19510 0.70934
 H1204 H 0.50921 0.14643 0.66332
 C1205 C 1.06064 0.54566 0.21645
 C1206 C 1.06523 0.56932 0.22289
 C1207 C 1.08362 0.57387 0.24007
 C1208 C 1.09777 0.55567 0.24891
 C1209 C 1.09434 0.53275 0.24063
 C1210 C 1.07506 0.52780 0.22516
 C1211 C 1.08841 0.59668 0.24777
 C1212 C 1.07624 0.61537 0.23790
 C1213 C 1.05882 0.61204 0.21961
 C1214 C 1.05280 0.58856 0.21239
 C1215 C 1.03524 0.58519 0.19425
 C1216 C 1.02477 0.60398 0.18270
 C1217 C 1.03117 0.62691 0.18879
 C1218 C 1.04780 0.63139 0.20772
 C1219 C 1.05317 0.65512 0.21337
 C1220 C 1.04333 0.67338 0.20002
 C1221 C 1.02784 0.66872 0.18066
 C1222 C 1.02140 0.64542 0.17554
 H1223 H 1.04639 0.54031 0.20439
 H1224 H 1.11209 0.55971 0.26150
 H1225 H 1.07117 0.51008 0.21942
 H1226 H 1.10217 0.60021 0.26122
 H1227 H 1.08141 0.63237 0.24468
 H1228 H 1.02951 0.56815 0.18802
 H1229 H 1.01183 0.60049 0.16846
 H1230 H 1.06524 0.66028 0.22766
 H1231 H 1.04856 0.69125 0.20436
 H1232 H 1.00900 0.64167 0.16088
 C1233 C 0.93797 0.95471 0.21570
 C1234 C 0.92559 0.93301 0.21163
 C1235 C 0.90048 0.93183 0.21683
 C1236 C 0.88837 0.95162 0.22461
 C1237 C 0.90069 0.97295 0.22772
 C1238 C 0.92559 0.97437 0.22371
 C1239 C 0.88731 0.91102 0.21392
 C1240 C 0.89829 0.89118 0.20545
 C1241 C 0.92307 0.89137 0.19922
 C1242 C 0.93700 0.91262 0.20232
 C1243 C 0.96161 0.91289 0.19538
 C1244 C 0.97212 0.89337 0.18519
 C1245 C 0.95872 0.87268 0.18177
 C1246 C 0.93416 0.87119 0.18926
 C1247 C 0.92157 0.84957 0.18605
 C1248 C 0.93245 0.83089 0.17463
 C1249 C 0.95629 0.83281 0.16620
 C1250 C 0.96960 0.85356 0.17041
 H1251 H 0.95713 0.95711 0.21284
 H1252 H 0.86903 0.95050 0.22789
 H1253 H 0.93547 0.99070 0.22640
 H1254 H 0.86812 0.91009 0.21803
 H1255 H 0.88651 0.87609 0.20346
 H1256 H 0.97320 0.92819 0.19707
 H1257 H 0.99094 0.89459 0.17968
 H1258 H 0.90324 0.84637 0.19200
 H1259 H 0.92203 0.81478 0.17226
 H1260 H 0.98815 0.85513 0.16408
 C1261 C 0.42755 0.45935 0.72909
 C1262 C 0.41522 0.43773 0.72461
 C1263 C 0.39021 0.43623 0.73030
 C1264 C 0.37819 0.45566 0.73920
 C1265 C 0.39058 0.47682 0.74321
 C1266 C 0.41534 0.47856 0.73841
 C1267 C 0.37716 0.41538 0.72712
 C1268 C 0.38832 0.39565 0.71854
 C1269 C 0.41311 0.39604 0.71241
 C1270 C 0.42667 0.41758 0.71485
 C1271 C 0.45098 0.41834 0.70690
 C1272 C 0.46163 0.39887 0.69677
 C1273 C 0.44878 0.37767 0.69472
 C1274 C 0.42457 0.37576 0.70315
 C1275 C 0.41277 0.35354 0.70190
 C1276 C 0.42397 0.33460 0.69124
 C1277 C 0.44735 0.33691 0.68158
 C1278 C 0.45991 0.35841 0.68392
 H1279 H 0.44667 0.46189 0.72599
 H1280 H 0.35900 0.45426 0.74321
 H1281 H 0.42529 0.49471 0.74185
 H1282 H 0.35801 0.41426 0.73136
 H1283 H 0.37669 0.38046 0.71627
 H1284 H 0.46214 0.43402 0.70762
 H1285 H 0.48018 0.40045 0.69045
 H1286 H 0.39494 0.35006 0.70915
 H1287 H 0.41418 0.31798 0.69052
 H1288 H 0.47809 0.36039 0.67667
 C1289 C 0.40026 0.55403 0.79946
 C1290 C 0.41386 0.56888 0.78368
 C1291 C 0.41713 0.56143 0.75946
 C1292 C 0.40570 0.54065 0.75125
 C1293 C 0.39144 0.52682 0.76704
 C1294 C 0.38913 0.53359 0.79117
 C1295 C 0.43148 0.57495 0.74360
 C1296 C 0.44275 0.59566 0.75123
 C1297 C 0.43950 0.60411 0.77499
 C1298 C 0.42420 0.59078 0.79121
 C1299 C 0.41912 0.60008 0.81424
 C1300 C 0.42926 0.62118 0.82162
 C1301 C 0.44511 0.63383 0.80657
 C1302 C 0.45064 0.62561 0.78307
 C1303 C 0.46725 0.63924 0.76890
 C1304 C 0.47787 0.65993 0.77790
 C1305 C 0.47226 0.66776 0.80122
 C1306 C 0.45549 0.65472 0.81517
 H1307 H 0.39784 0.55758 0.81842
 H1308 H 0.40746 0.53550 0.73248
 H1309 H 0.37817 0.52351 0.80388
 H1310 H 0.43412 0.56940 0.72507
 H1311 H 0.45346 0.60502 0.73783
 H1312 H 0.40680 0.59178 0.82696
 H1313 H 0.42477 0.62758 0.83949
 H1314 H 0.47284 0.63416 0.75102
 H1315 H 0.49091 0.66953 0.76676
 H1316 H 0.45045 0.66084 0.83299
 C1317 C -0.07330 0.05831 0.23784
 C1318 C -0.07874 0.06856 0.26052
 C1319 C -0.09541 0.05629 0.27583
 C1320 C -0.10594 0.03496 0.26872
 C1321 C -0.10048 0.02518 0.24632
 C1322 C -0.08420 0.03701 0.23086
 C1323 C -0.10192 0.06543 0.29815
 C1324 C -0.09265 0.08683 0.30566
 C1325 C -0.07630 0.10010 0.29109
 C1326 C -0.06866 0.09057 0.26844
 C1327 C -0.05111 0.10328 0.25471
 C1328 C -0.04133 0.12448 0.26278
 C1329 C -0.04895 0.13418 0.28457
 C1330 C -0.06694 0.12237 0.29876
 C1331 C -0.07489 0.13342 0.32014
 C1332 C -0.06432 0.15438 0.32781
 C1333 C -0.04567 0.16536 0.31445
 C1334 C -0.03846 0.15550 0.29246
 H1335 H -0.06118 0.06654 0.22485
 H1336 H -0.11910 0.02646 0.28059
 H1337 H -0.08027 0.03001 0.21314
 H1338 H -0.11448 0.05594 0.30998
 H1339 H -0.09843 0.09224 0.32334
 H1340 H -0.04416 0.09705 0.23774
 H1341 H -0.02763 0.13341 0.25179
 H1342 H -0.08935 0.12649 0.33138
 H1343 H -0.07075 0.16207 0.34445
 H1344 H -0.02418 0.16404 0.28190
 C1345 C 0.10930 0.43958 0.26265
 C1346 C 0.08439 0.43548 0.26724
 C1347 C 0.06915 0.45509 0.26758
 C1348 C 0.07851 0.47764 0.26195
 C1349 C 0.10308 0.48099 0.25659
 C1350 C 0.11836 0.46196 0.25749
 C1351 C 0.04478 0.45203 0.27368
 C1352 C 0.03529 0.43004 0.28009
 C1353 C 0.04974 0.41000 0.27991
 C1354 C 0.07437 0.41267 0.27217
 C1355 C 0.08816 0.39241 0.26930
 C1356 C 0.07890 0.37047 0.27555
 C1357 C 0.05567 0.36778 0.28512
 C1358 C 0.04055 0.38735 0.28724
 C1359 C 0.01720 0.38344 0.29739
 C1360 C 0.00979 0.36126 0.30592
 C1361 C 0.02523 0.34226 0.30442
 C1362 C 0.04782 0.34558 0.29322
 H1363 H 0.12241 0.42600 0.26349
 H1364 H 0.06675 0.49251 0.26197
 H1365 H 0.13755 0.46435 0.25398
 H1366 H 0.03296 0.46687 0.27391
 H1367 H 0.01636 0.42925 0.28473
 H1368 H 0.10619 0.39287 0.26185
 H1369 H 0.09032 0.35547 0.27340
 H1370 H 0.00461 0.39729 0.29996
 H1371 H -0.00771 0.35925 0.31467
 H1372 H 0.05973 0.33089 0.29150
 C1373 C 0.62484 0.94831 0.76210
 C1374 C 0.60008 0.94174 0.76133
 C1375 C 0.58335 0.95935 0.75579
 C1376 C 0.59153 0.98210 0.74935
 C1377 C 0.61628 0.98780 0.74891
 C1378 C 0.63264 0.97098 0.75621
 C1379 C 0.55860 0.95415 0.75686
 C1380 C 0.55006 0.93200 0.76389
 C1381 C 0.56606 0.91383 0.76928
 C1382 C 0.59144 0.91852 0.76669
 C1383 C 0.60738 0.89977 0.76905
 C1384 C 0.59902 0.87748 0.77532
 C1385 C 0.57457 0.87304 0.77997
 C1386 C 0.55765 0.89106 0.77705
 C1387 C 0.53316 0.88563 0.78277
 C1388 C 0.52606 0.86348 0.79155
 C1389 C 0.54298 0.84585 0.79463
 C1390 C 0.56711 0.85070 0.78808
 H1391 H 0.63857 0.93655 0.76800
 H1392 H 0.57857 0.99530 0.74498
 H1393 H 0.65163 0.97535 0.75786
 H1394 H 0.54566 0.96746 0.75260
 H1395 H 0.53071 0.92947 0.76434
 H1396 H 0.62651 0.90167 0.76558
 H1397 H 0.61198 0.86366 0.77707
 H1398 H 0.51921 0.89840 0.78167
 H1399 H 0.50736 0.86049 0.79679
 H1400 H 0.58035 0.83715 0.78984
 C1401 C 0.68595 0.57958 0.04341
 C1402 C 0.69960 0.56643 0.05998
 C1403 C 0.72502 0.56629 0.05662
 C1404 C 0.73601 0.57863 0.03727
 C1405 C 0.72224 0.59221 0.02168
 C1406 C 0.69718 0.59238 0.02475
 C1407 C 0.73942 0.55453 0.07307
 C1408 C 0.72935 0.54401 0.09364
 C1409 C 0.70424 0.54434 0.09824
 C1410 C 0.68901 0.55441 0.08036
 C1411 C 0.66373 0.55231 0.08355
 C1412 C 0.65366 0.54225 0.10430
 C1413 C 0.66829 0.53425 0.12285
 C1414 C 0.69380 0.53508 0.12016
 C1415 C 0.70777 0.52749 0.13998
 C1416 C 0.69678 0.51981 0.16153
 C1417 C 0.67160 0.51912 0.16398
 C1418 C 0.65747 0.52596 0.14438
 H1419 H 0.66667 0.58129 0.04499
 H1420 H 0.75549 0.57868 0.03506
 H1421 H 0.68608 0.60291 0.01316
 H1422 H 0.75883 0.55407 0.07043
 H1423 H 0.74177 0.53550 0.10553
 H1424 H 0.65113 0.55805 0.07012
 H1425 H 0.63414 0.54128 0.10608
 H1426 H 0.72723 0.52807 0.13978
 H1427 H 0.70805 0.51456 0.17646
 H1428 H 0.63796 0.52583 0.14630
 C1429 C 0.19203 1.09960 0.54064
 C1430 C 0.20413 1.08482 0.55697
 C1431 C 0.22814 1.07878 0.55108
 C1432 C 0.23980 1.08843 0.53051
 C1433 C 0.22804 1.10432 0.51557
 C1434 C 0.20386 1.10915 0.52041
 C1435 C 0.24055 1.06342 0.56592
 C1436 C 0.22984 1.05415 0.58679
 C1437 C 0.20626 1.06017 0.59394
 C1438 C 0.19326 1.07590 0.57884
 C1439 C 0.17006 1.08268 0.58640
 C1440 C 0.15967 1.07417 0.60766
 C1441 C 0.17187 1.05858 0.62235
 C1442 C 0.19531 1.05124 0.61583
 C1443 C 0.20670 1.03533 0.63162
 C1444 C 0.19524 1.02719 0.65279
 C1445 C 0.17206 1.03452 0.65897
 C1446 C 0.16063 1.05037 0.64367
 H1447 H 0.17341 1.10420 0.54286
 H1448 H 0.25817 1.08378 0.52648
 H1449 H 0.19384 1.12052 0.50869
 H1450 H 0.25885 1.05859 0.56143
 H1451 H 0.24079 1.04253 0.59718
 H1452 H 0.15946 1.09497 0.57649
 H1453 H 0.14182 1.07994 0.61267
 H1454 H 0.22438 1.02862 0.62811
 H1455 H 0.20441 1.01478 0.66416
 H1456 H 0.14289 1.05657 0.64848
 C1457 C 0.25115 0.89545 0.91729
 C1458 C 0.23229 0.91150 0.91976
 C1459 C 0.22013 0.91231 0.94239
 C1460 C 0.22727 0.89808 0.96179
 C1461 C 0.24587 0.88215 0.95894
 C1462 C 0.25756 0.88095 0.93645
 C1463 C 0.20046 0.92681 0.94535
 C1464 C 0.19183 0.93976 0.92603
 C1465 C 0.20299 0.93915 0.90299
 C1466 C 0.22439 0.92589 0.90023
 C1467 C 0.23716 0.92743 0.87805
 C1468 C 0.22844 0.94014 0.85864
 C1469 C 0.20650 0.95147 0.86035
 C1470 C 0.19346 0.95127 0.88255
 C1471 C 0.17095 0.96246 0.88305
 C1472 C 0.16173 0.97295 0.86232
 C1473 C 0.17463 0.97299 0.84038
 C1474 C 0.19728 0.96257 0.83974
 H1475 H 0.26061 0.89286 0.90045
 H1476 H 0.21738 0.89862 0.97867
 H1477 H 0.27134 0.86831 0.93311
 H1478 H 0.19122 0.92772 0.96267
 H1479 H 0.17648 0.95038 0.92986
 H1480 H 0.25425 0.91924 0.87521
 H1481 H 0.23873 0.94060 0.84187
 H1482 H 0.15949 0.96259 0.89887
 H1483 H 0.14394 0.98034 0.86335
 H1484 H 0.20764 0.96270 0.82302
 C1485 C 0.74178 0.42962 0.45892
 C1486 C 0.73003 0.41940 0.43869
 C1487 C 0.72718 0.39467 0.43844
 C1488 C 0.73472 0.38114 0.45804
 C1489 C 0.74561 0.39160 0.47805
 C1490 C 0.74956 0.41582 0.47823
 C1491 C 0.71675 0.38345 0.41869
 C1492 C 0.70914 0.39615 0.39887
 C1493 C 0.71128 0.42082 0.39816
 C1494 C 0.72121 0.43270 0.41869
 C1495 C 0.72135 0.45742 0.41880
 C1496 C 0.71210 0.47010 0.39957
 C1497 C 0.70296 0.45877 0.37918
 C1498 C 0.70305 0.43400 0.37789
 C1499 C 0.69480 0.42341 0.35629
 C1500 C 0.68557 0.43675 0.33751
 C1501 C 0.68438 0.46111 0.33935
 C1502 C 0.69342 0.47208 0.36015
 H1503 H 0.74569 0.44813 0.46017
 H1504 H 0.73217 0.36226 0.45769
 H1505 H 0.75890 0.42416 0.49310
 H1506 H 0.71445 0.36454 0.41851
 H1507 H 0.70093 0.38602 0.38464
 H1508 H 0.72780 0.46754 0.43391
 H1509 H 0.71214 0.48904 0.40067
 H1510 H 0.69528 0.40485 0.35319
 H1511 H 0.67865 0.42780 0.32169
 H1512 H 0.69291 0.49097 0.36155
 C1513 C 0.76389 0.41765 0.56097
 C1514 C 0.78424 0.40908 0.57334
 C1515 C 0.79572 0.38938 0.56343
 C1516 C 0.78729 0.37911 0.54203
 C1517 C 0.76709 0.38769 0.53021
 C1518 C 0.75546 0.40699 0.53986
 C1519 C 0.81545 0.37976 0.57498
 C1520 C 0.82398 0.38898 0.59649
 C1521 C 0.81322 0.40851 0.60730
 C1522 C 0.79344 0.41914 0.59520
 C1523 C 0.78374 0.43958 0.60523
 C1524 C 0.79289 0.44926 0.62635
 C1525 C 0.81176 0.43882 0.63862
 C1526 C 0.82194 0.41807 0.62955
 C1527 C 0.84047 0.40775 0.64322
 C1528 C 0.84921 0.41826 0.66420
 C1529 C 0.83977 0.43926 0.67247
 C1530 C 0.82072 0.44924 0.65981
 H1531 H 0.75376 0.43227 0.56730
 H1532 H 0.79633 0.36403 0.53499
 H1533 H 0.73979 0.41401 0.53111
 H1534 H 0.82435 0.36477 0.56737
 H1535 H 0.83943 0.38055 0.60397
 H1536 H 0.76928 0.44890 0.59691
 H1537 H 0.78506 0.46515 0.63317
 H1538 H 0.84855 0.39148 0.63839
 H1539 H 0.86350 0.40986 0.67404
 H1540 H 0.81329 0.46551 0.66608
 C1541 C 0.25354 -0.09711 0.04541
 C1542 C 0.27570 -0.10187 0.05690
 C1543 C 0.29058 -0.11879 0.04611
 C1544 C 0.28399 -0.12941 0.02425
 C1545 C 0.26252 -0.12376 0.01261
 C1546 C 0.24705 -0.10810 0.02378
 C1547 C 0.31197 -0.12518 0.05719
 C1548 C 0.31897 -0.11533 0.07897
 C1549 C 0.30498 -0.09825 0.09045
 C1550 C 0.28340 -0.09084 0.07885
 C1551 C 0.27061 -0.07229 0.08925
 C1552 C 0.27848 -0.06146 0.11033
 C1553 C 0.29903 -0.06898 0.12225
 C1554 C 0.31226 -0.08785 0.11282
 C1555 C 0.33221 -0.09560 0.12630
 C1556 C 0.33942 -0.08426 0.14740
 C1557 C 0.32711 -0.06481 0.15596
 C1558 C 0.30660 -0.05754 0.14347
 H1559 H 0.24051 -0.08547 0.05298
 H1560 H 0.29554 -0.14252 0.01670
 H1561 H 0.22964 -0.10454 0.01614
 H1562 H 0.32345 -0.13805 0.04894
 H1563 H 0.33594 -0.12106 0.08600
 H1564 H 0.25474 -0.06521 0.08109
 H1565 H 0.26828 -0.04704 0.11741
 H1566 H 0.34248 -0.11060 0.12129
 H1567 H 0.35474 -0.09089 0.15715
 H1568 H 0.29680 -0.04260 0.14993
 C1569 C 0.25484 0.06259 0.44601
 C1570 C 0.26750 0.07239 0.42578
 C1571 C 0.27328 0.09670 0.42630
 C1572 C 0.26700 0.11025 0.44629
 C1573 C 0.25420 0.10033 0.46577
 C1574 C 0.24823 0.07647 0.46566
 C1575 C 0.28508 0.10756 0.40678
 C1576 C 0.29105 0.09497 0.38637
 C1577 C 0.28573 0.07075 0.38473
 C1578 C 0.27440 0.05911 0.40502
 C1579 C 0.27073 0.03460 0.40399
 C1580 C 0.27792 0.02186 0.38395
 C1581 C 0.28854 0.03302 0.36389
 C1582 C 0.29200 0.05768 0.36369
 C1583 C 0.30173 0.06823 0.34240
 C1584 C 0.30907 0.05474 0.32290
 C1585 C 0.30680 0.03030 0.32368
 C1586 C 0.29607 0.01957 0.34410
 H1587 H 0.24927 0.04443 0.44701
 H1588 H 0.27149 0.12884 0.44639
 H1589 H 0.23816 0.06857 0.48058
 H1590 H 0.28962 0.12612 0.40721
 H1591 H 0.30041 0.10478 0.37234
 H1592 H 0.26285 0.02455 0.41872
 H1593 H 0.27514 0.00302 0.38419
 H1594 H 0.30399 0.08688 0.34014
 H1595 H 0.31736 0.06354 0.30742
 H1596 H 0.29382 0.00067 0.34470
 C1597 C 0.76743 0.55808 0.95872
 C1598 C 0.77459 0.56926 0.93672
 C1599 C 0.77073 0.59361 0.93460
 C1600 C 0.76003 0.60591 0.95352
 C1601 C 0.75313 0.59460 0.97502
 C1602 C 0.75674 0.57061 0.97746
 C1603 C 0.77725 0.60566 0.91350
 C1604 C 0.78775 0.59419 0.89427
 C1605 C 0.79217 0.56998 0.89531
 C1606 C 0.78524 0.55722 0.91677
 C1607 C 0.78903 0.53288 0.91748
 C1608 C 0.79938 0.52140 0.89807
 C1609 C 0.80661 0.53363 0.87725
 C1610 C 0.80321 0.55809 0.87553
 C1611 C 0.81128 0.56966 0.85411
 C1612 C 0.82227 0.55746 0.83544
 C1613 C 0.82559 0.53330 0.83724
 C1614 C 0.81751 0.52148 0.85820
 H1615 H 0.76967 0.53969 0.96205
 H1616 H 0.75642 0.62432 0.95113
 H1617 H 0.75114 0.56134 0.99372
 H1618 H 0.77419 0.62426 0.91181
 H1619 H 0.79200 0.60495 0.87871
 H1620 H 0.78409 0.52204 0.93281
 H1621 H 0.80192 0.50269 0.89948
 H1622 H 0.80986 0.58821 0.85123
 H1623 H 0.82881 0.56720 0.81976
 H1624 H 0.81976 0.50274 0.85975
 C1625 C 0.02663 0.71368 0.58248
 C1626 C 0.05081 0.72242 0.58350
 C1627 C 0.05561 0.74189 0.59869
 C1628 C 0.03707 0.75164 0.61252
 C1629 C 0.01359 0.74218 0.61183
 C1630 C 0.00843 0.72339 0.59656
 C1631 C 0.07901 0.75116 0.60062
 C1632 C 0.09813 0.74097 0.58864
 C1633 C 0.09462 0.72096 0.57410
 C1634 C 0.07045 0.71205 0.57076
 C1635 C 0.06681 0.69286 0.55511
 C1636 C 0.08608 0.68201 0.54404
 C1637 C 0.10979 0.68965 0.54815
 C1638 C 0.11448 0.70937 0.56302
 C1639 C 0.13895 0.71619 0.56670
 C1640 C 0.15776 0.70372 0.55642
 C1641 C 0.15299 0.68405 0.54208
 C1642 C 0.12888 0.67736 0.53774
 H1643 H 0.02125 0.69889 0.57163
 H1644 H 0.04129 0.76598 0.62461
 H1645 H -0.00965 0.71571 0.59605
 H1646 H 0.08271 0.76624 0.61194
 H1647 H 0.11557 0.74927 0.59129
 H1648 H 0.04917 0.68568 0.55100
 H1649 H 0.08238 0.66714 0.53243
 H1650 H 0.14433 0.73071 0.57792
 H1651 H 0.17619 0.70914 0.56036
 H1652 H 0.12493 0.66238 0.52637
 C1653 C 0.57228 0.20715 1.13840
 C1654 C 0.57698 0.21296 1.11386
 C1655 C 0.55976 0.22661 1.10164
 C1656 C 0.53939 0.23486 1.11402
 C1657 C 0.53569 0.22967 1.13857
 C1658 C 0.55208 0.21547 1.15043
 C1659 C 0.56314 0.23228 1.07727
 C1660 C 0.58333 0.22487 1.06465
 C1661 C 0.60132 0.21169 1.07606
 C1662 C 0.59820 0.20588 1.10117
 C1663 C 0.61663 0.19360 1.11292
 C1664 C 0.63723 0.18695 1.10065
 C1665 C 0.64035 0.19205 1.07615
 C1666 C 0.62247 0.20434 1.06335
 C1667 C 0.62657 0.20855 1.03831
 C1668 C 0.64744 0.20085 1.02674
 C1669 C 0.66502 0.18891 1.03966
 C1670 C 0.66133 0.18467 1.06439
 H1671 H 0.58385 0.19631 1.14901
 H1672 H 0.52682 0.24585 1.10460
 H1673 H 0.54984 0.21125 1.16936
 H1674 H 0.55002 0.24266 1.06780
 H1675 H 0.58448 0.23017 1.04595
 H1676 H 0.61598 0.18907 1.13184
 H1677 H 0.65091 0.17763 1.11051
 H1678 H 0.61392 0.21748 1.02703
 H1679 H 0.64987 0.20430 1.00757
 H1680 H 0.67459 0.17497 1.07444
 C1681 C 0.97619 0.21382 0.93470
 C1682 C 0.95337 0.22455 0.93347
 C1683 C 0.95207 0.24574 0.92012
 C1684 C 0.97226 0.25472 0.90740
 C1685 C 0.99412 0.24302 0.90752
 C1686 C 0.99618 0.22298 0.92187
 C1687 C 0.93041 0.25753 0.91876
 C1688 C 0.90953 0.24834 0.92948
 C1689 C 0.90936 0.22664 0.94183
 C1690 C 0.93173 0.21474 0.94427
 C1691 C 0.93153 0.19306 0.95667
 C1692 C 0.91020 0.18287 0.96553
 C1693 C 0.88820 0.19387 0.96262
 C1694 C 0.88744 0.21613 0.95122
 C1695 C 0.86459 0.22663 0.94921
 C1696 C 0.84351 0.21512 0.95735
 C1697 C 0.84435 0.19280 0.96779
 C1698 C 0.86684 0.18245 0.97072
 H1699 H 0.97912 0.19805 0.94490
 H1700 H 0.97046 0.27043 0.89660
 H1701 H 1.01301 0.21372 0.92226
 H1702 H 0.92945 0.27392 0.90885
 H1703 H 0.89365 0.25857 0.92719
 H1704 H 0.94757 0.18315 0.95944
 H1705 H 0.91090 0.16596 0.97446
 H1706 H 0.86218 0.24360 0.94115
 H1707 H 0.82636 0.22348 0.95481
 H1708 H 0.86770 0.16533 0.97921
 C1709 C 0.45528 0.70149 0.42655
 C1710 C 0.43306 0.71282 0.43011
 C1711 C 0.43125 0.73606 0.42127
 C1712 C 0.45009 0.74645 0.40750
 C1713 C 0.47120 0.73429 0.40288
 C1714 C 0.47399 0.71215 0.41314
 C1715 C 0.41041 0.74859 0.42568
 C1716 C 0.39101 0.73847 0.43830
 C1717 C 0.39136 0.71497 0.44633
 C1718 C 0.41255 0.70179 0.44171
 C1719 C 0.41210 0.67773 0.44768
 C1720 C 0.39158 0.66677 0.45741
 C1721 C 0.37095 0.67942 0.46233
 C1722 C 0.37078 0.70387 0.45779
 C1723 C 0.34983 0.71606 0.46465
 C1724 C 0.32952 0.70414 0.47415
 C1725 C 0.32938 0.67982 0.47692
 C1726 C 0.35026 0.66760 0.47140
 H1727 H 0.45879 0.68441 0.43387
 H1728 H 0.44803 0.76382 0.39999
 H1729 H 0.49046 0.70271 0.41015
 H1730 H 0.40899 0.76642 0.41911
 H1731 H 0.37549 0.74927 0.44049
 H1732 H 0.42703 0.66652 0.44401
 H1733 H 0.39183 0.64811 0.46099
 H1734 H 0.34858 0.73478 0.46302
 H1735 H 0.31357 0.71387 0.47867
 H1736 H 0.35028 0.64877 0.47403
 C1737 C 0.54594 0.76179 0.43340
 C1738 C 0.56303 0.77640 0.42092
 C1739 C 0.55823 0.78196 0.39640
 C1740 C 0.53776 0.77257 0.38487
 C1741 C 0.52135 0.75799 0.39743
 C1742 C 0.52539 0.75283 0.42176
 C1743 C 0.57386 0.79688 0.38341
 C1744 C 0.59401 0.80695 0.39430
 C1745 C 0.59962 0.80216 0.41870
 C1746 C 0.58443 0.78591 0.43194
 C1747 C 0.59138 0.77945 0.45555
 C1748 C 0.61208 0.78894 0.46612
 C1749 C 0.62637 0.80568 0.45391
 C1750 C 0.62016 0.81283 0.43016
 C1751 C 0.63457 0.83073 0.41904
 C1752 C 0.65440 0.84070 0.43086
 C1753 C 0.66072 0.83319 0.45405
 C1754 C 0.64675 0.81554 0.46545
 H1755 H 0.54766 0.75729 0.45225
 H1756 H 0.53449 0.77671 0.36601
 H1757 H 0.51273 0.74178 0.43186
 H1758 H 0.57037 0.80099 0.36459
 H1759 H 0.60520 0.81804 0.38282
 H1760 H 0.58145 0.76661 0.46622
 H1761 H 0.61678 0.78332 0.48422
 H1762 H 0.63072 0.83789 0.40146
 H1763 H 0.66497 0.85436 0.42175
 H1764 H 0.65138 0.80995 0.48358
 C1765 C 0.08278 0.28860 -0.10195
 C1766 C 0.08890 0.28380 -0.07767
 C1767 C 0.07394 0.26762 -0.06452
 C1768 C 0.05284 0.25795 -0.07505
 C1769 C 0.04684 0.26366 -0.09888
 C1770 C 0.06214 0.27872 -0.11222
 C1771 C 0.08016 0.26126 -0.04099
 C1772 C 0.10100 0.27043 -0.03027
 C1773 C 0.11611 0.28703 -0.04243
 C1774 C 0.10943 0.29439 -0.06621
 C1775 C 0.12308 0.31260 -0.07756
 C1776 C 0.14296 0.32286 -0.06647
 C1777 C 0.15033 0.31526 -0.04379
 C1778 C 0.13737 0.29701 -0.03148
 C1779 C 0.14644 0.28953 -0.00884
 C1780 C 0.16705 0.30024 0.00122
 C1781 C 0.17901 0.31882 -0.01079
 C1782 C 0.17065 0.32606 -0.03335
 H1783 H 0.09374 0.29961 -0.11375
 H1784 H 0.04122 0.24603 -0.06473
 H1785 H 0.05802 0.28324 -0.13077
 H1786 H 0.06889 0.24888 -0.03080
 H1787 H 0.10442 0.26464 -0.01206
 H1788 H 0.11844 0.31995 -0.09484
 H1789 H 0.15272 0.33693 -0.07583
 H1790 H 0.13824 0.27529 0.00139
 H1791 H 0.17342 0.29425 0.01862
 H1792 H 0.18022 0.34010 -0.04297
 C1793 C 0.47297 0.29577 0.12225
 C1794 C 0.45594 0.28381 0.10753
 C1795 C 0.45812 0.25925 0.10519
 C1796 C 0.47582 0.24729 0.11820
 C1797 C 0.49054 0.25920 0.13478
 C1798 C 0.48987 0.28360 0.13559
 C1799 C 0.44210 0.24665 0.09057
 C1800 C 0.42306 0.25762 0.07924
 C1801 C 0.41931 0.28183 0.08202
 C1802 C 0.43653 0.29527 0.09571
 C1803 C 0.43337 0.31962 0.09776
 C1804 C 0.41354 0.33035 0.08791
 C1805 C 0.39597 0.31738 0.07562
 C1806 C 0.39866 0.29302 0.07205
 C1807 C 0.38017 0.28090 0.05921
 C1808 C 0.35975 0.29244 0.05101
 C1809 C 0.35701 0.31634 0.05534
 C1810 C 0.37545 0.32873 0.06727
 H1811 H 0.47349 0.31446 0.12442
 H1812 H 0.47736 0.22852 0.11629
 H1813 H 0.50226 0.29359 0.14672
 H1814 H 0.44387 0.22792 0.08841
 H1815 H 0.41136 0.24648 0.06862
 H1816 H 0.44577 0.33105 0.10721
 H1817 H 0.41170 0.34903 0.09037
 H1818 H 0.38064 0.26243 0.05556
 H1819 H 0.34572 0.28248 0.04180
 H1820 H 0.37373 0.34736 0.07022
 C1821 C 0.92278 0.77892 0.62415
 C1822 C 0.91919 0.77942 0.59882
 C1823 C 0.93847 0.77229 0.58372
 C1824 C 0.95986 0.76386 0.59386
 C1825 C 0.96255 0.76288 0.61897
 C1826 C 0.94415 0.77088 0.63392
 C1827 C 0.93632 0.77380 0.55863
 C1828 C 0.91574 0.78282 0.54812
 C1829 C 0.89604 0.79008 0.56237
 C1830 C 0.89742 0.78732 0.58808
 C1831 C 0.87688 0.79231 0.60224
 C1832 C 0.85624 0.80108 0.59191
 C1833 C 0.85523 0.80550 0.56715
 C1834 C 0.87496 0.79998 0.55189
 C1835 C 0.87291 0.80525 0.52689
 C1836 C 0.85246 0.81610 0.51778
 C1837 C 0.83331 0.82189 0.53315
 C1838 C 0.83464 0.81591 0.55771
 H1839 H 0.90970 0.78511 0.63695
 H1840 H 0.97442 0.75829 0.58221
 H1841 H 0.94625 0.77078 0.65340
 H1842 H 0.95091 0.76830 0.54695
 H1843 H 0.91566 0.78349 0.52865
 H1844 H 0.87600 0.78926 0.62148
 H1845 H 0.84101 0.80485 0.60358
 H1846 H 0.88712 0.80202 0.51402
 H1847 H 0.85206 0.82072 0.49876
 H1848 H 0.81974 0.81987 0.56971
   
