data_POSCAR
  _audit_creation_date              2014-09-24
  _audit_creation_method            'ToBaCCo'
  _symmetry_space_group_name_H-M    'P1'
  _symmetry_Int_Tables_number       1
  _symmetry_cell_setting            triclinic
  loop_
  _symmetry_equiv_pos_as_xyz
 x,y,z
_cell_length_a 88.0704
_cell_length_b 88.1347
_cell_length_c 88.3140
_cell_angle_alpha 89.966600
_cell_angle_beta 89.966200
_cell_angle_gamma 89.930500
loop_
  _atom_site_label
  _atom_site_type_symbol
  _atom_site_fract_x
  _atom_site_fract_y
  _atom_site_fract_z
N1 N 0.36051 0.31842 0.32931
 N2 N 0.36026 0.32894 0.31874
 C3 C 0.37219 0.32687 0.30940
 C4 C 0.38022 0.31443 0.31444
 C5 C 0.37258 0.30929 0.32705
 H6 H 0.37490 0.33388 0.29971
 H7 H 0.37561 0.29970 0.33408
 Cu8 Cu 0.34449 0.34441 0.31832
 Cu9 Cu 0.34536 0.31747 0.34534
 Cu10 Cu 0.31750 0.34528 0.34531
 N11 N 0.32898 0.36015 0.31871
 N12 N 0.31844 0.36040 0.32927
 C13 C 0.30931 0.37245 0.32699
 C14 C 0.31445 0.38008 0.31438
 C15 C 0.32691 0.37207 0.30935
 H16 H 0.29970 0.37548 0.33401
 H17 H 0.33394 0.37477 0.29968
 N18 N 0.31845 0.32902 0.36060
 N19 N 0.32908 0.31842 0.36061
 C20 C 0.32682 0.30914 0.37253
 C21 C 0.31423 0.31419 0.38029
 C22 C 0.30916 0.32676 0.37252
 H23 H 0.33383 0.29949 0.37544
 H24 H 0.29949 0.33375 0.37541
 H25 H 0.32810 0.32803 0.33348
 H26 H 0.34048 0.34043 0.34536
 N27 N 0.36084 0.81865 -0.17111
 N28 N 0.36068 0.82927 -0.18159
 C29 C 0.37259 0.82718 -0.19096
 C30 C 0.38049 0.81462 -0.18601
 C31 C 0.37282 0.80943 -0.17343
 H32 H 0.37536 0.83426 -0.20057
 H33 H 0.37578 0.79977 -0.16647
 Cu34 Cu 0.34506 0.84492 -0.18172
 Cu35 Cu 0.34570 0.81771 -0.15505
 Cu36 Cu 0.31779 0.84550 -0.15508
 N37 N 0.32934 0.86047 -0.18163
 N38 N 0.31870 0.86061 -0.17117
 C39 C 0.30944 0.87256 -0.17353
 C40 C 0.31462 0.88022 -0.18611
 C41 C 0.32722 0.87235 -0.19103
 H42 H 0.29976 0.87550 -0.16657
 H43 H 0.33432 0.87513 -0.20063
 N44 N 0.31879 0.82926 -0.13976
 N45 N 0.32943 0.81867 -0.13975
 C46 C 0.32719 0.80940 -0.12781
 C47 C 0.31460 0.81445 -0.12004
 C48 C 0.30951 0.82700 -0.12782
 H49 H 0.33421 0.79976 -0.12491
 H50 H 0.29984 0.83399 -0.12493
 H51 H 0.32854 0.82839 -0.16695
 H52 H 0.34075 0.84065 -0.15478
 N53 N 0.86026 0.31894 -0.17093
 N54 N 0.86012 0.32957 -0.18139
 C55 C 0.87201 0.32746 -0.19078
 C56 C 0.87990 0.31487 -0.18586
 C57 C 0.87222 0.30970 -0.17329
 H58 H 0.87480 0.33454 -0.20038
 H59 H 0.87517 0.30003 -0.16634
 Cu60 Cu 0.84456 0.34527 -0.18148
 Cu61 Cu 0.84514 0.31802 -0.15485
 Cu62 Cu 0.81730 0.34590 -0.15483
 N63 N 0.82889 0.36086 -0.18137
 N64 N 0.81825 0.36102 -0.17090
 C65 C 0.80903 0.37299 -0.17324
 C66 C 0.81424 0.38065 -0.18581
 C67 C 0.82681 0.37275 -0.19075
 H68 H 0.79936 0.37596 -0.16628
 H69 H 0.83391 0.37552 -0.20036
 N70 N 0.81828 0.32964 -0.13953
 N71 N 0.82888 0.31902 -0.13954
 C72 C 0.82663 0.30975 -0.12761
 C73 C 0.81408 0.31483 -0.11982
 C74 C 0.80901 0.32739 -0.12759
 H75 H 0.83363 0.30008 -0.12471
 H76 H 0.79935 0.33440 -0.12468
 H77 H 0.82799 0.32875 -0.16671
 H78 H 0.84025 0.34096 -0.15454
 N79 N 0.86025 0.81881 0.32923
 N80 N 0.86000 0.82933 0.31866
 C81 C 0.87193 0.82725 0.30931
 C82 C 0.87996 0.81481 0.31436
 C83 C 0.87232 0.80968 0.32697
 H84 H 0.87463 0.83426 0.29962
 H85 H 0.87535 0.80009 0.33400
 Cu86 Cu 0.84423 0.84480 0.31824
 Cu87 Cu 0.84510 0.81787 0.34525
 Cu88 Cu 0.81724 0.84567 0.34523
 N89 N 0.82872 0.86055 0.31862
 N90 N 0.81818 0.86080 0.32919
 C91 C 0.80903 0.87285 0.32692
 C92 C 0.81420 0.88046 0.31430
 C93 C 0.82666 0.87246 0.30926
 H94 H 0.79943 0.87587 0.33394
 H95 H 0.83369 0.87516 0.29958
 N96 N 0.81819 0.82941 0.36052
 N97 N 0.82882 0.81881 0.36053
 C98 C 0.82656 0.80953 0.37245
 C99 C 0.81397 0.81459 0.38021
 C100 C 0.80890 0.82715 0.37244
 H101 H 0.83357 0.79988 0.37535
 H102 H 0.79923 0.83415 0.37533
 H103 H 0.82784 0.82843 0.33340
 H104 H 0.84022 0.84083 0.34527
 N105 N 0.63957 0.68160 0.32937
 N106 N 0.63965 0.67089 0.31900
 C107 C 0.62777 0.67299 0.30961
 C108 C 0.61994 0.68565 0.31443
 C109 C 0.62765 0.69087 0.32695
 H110 H 0.62494 0.66585 0.30007
 H111 H 0.62475 0.70061 0.33382
 Cu112 Cu 0.65513 0.65513 0.31901
 Cu113 Cu 0.65468 0.68254 0.34543
 Cu114 Cu 0.68258 0.65471 0.34542
 N115 N 0.67093 0.63969 0.31898
 N116 N 0.68166 0.63961 0.32934
 C117 C 0.69095 0.62772 0.32691
 C118 C 0.68572 0.62002 0.31439
 C119 C 0.67305 0.62782 0.30958
 H120 H 0.70070 0.62482 0.33378
 H121 H 0.66589 0.62499 0.30005
 N122 N 0.68157 0.67094 0.36072
 N123 N 0.67094 0.68154 0.36073
 C124 C 0.67316 0.69079 0.37267
 C125 C 0.68572 0.68571 0.38046
 C126 C 0.69082 0.67317 0.37267
 H127 H 0.66613 0.70042 0.37559
 H128 H 0.70048 0.66617 0.37557
 H129 H 0.67176 0.67176 0.33350
 H130 H 0.65963 0.65961 0.34588
 N131 N 0.63969 0.18116 -0.17084
 N132 N 0.63977 0.17046 -0.18122
 C133 C 0.62788 0.17256 -0.19059
 C134 C 0.62005 0.18521 -0.18576
 C135 C 0.62777 0.19043 -0.17325
 H136 H 0.62505 0.16542 -0.20013
 H137 H 0.62487 0.20017 -0.16637
 Cu138 Cu 0.65529 0.15471 -0.18122
 Cu139 Cu 0.65483 0.18212 -0.15480
 Cu140 Cu 0.68275 0.15432 -0.15482
 N141 N 0.67110 0.13927 -0.18126
 N142 N 0.68183 0.13920 -0.17089
 C143 C 0.69114 0.12732 -0.17333
 C144 C 0.68591 0.11963 -0.18585
 C145 C 0.67322 0.12741 -0.19067
 H146 H 0.70089 0.12444 -0.16645
 H147 H 0.66606 0.12458 -0.20020
 N148 N 0.68174 0.17056 -0.13952
 N149 N 0.67110 0.18116 -0.13951
 C150 C 0.67332 0.19042 -0.12758
 C151 C 0.68589 0.18536 -0.11981
 C152 C 0.69100 0.17282 -0.12758
 H153 H 0.66629 0.20005 -0.12468
 H154 H 0.70067 0.16583 -0.12468
 H155 H 0.67192 0.17136 -0.16673
 H156 H 0.65980 0.15920 -0.15435
 N157 N 0.13954 0.68157 -0.17071
 N158 N 0.13960 0.67085 -0.18108
 C159 C 0.12772 0.67297 -0.19046
 C160 C 0.11992 0.68564 -0.18564
 C161 C 0.12765 0.69087 -0.17314
 H162 H 0.12487 0.66582 -0.19999
 H163 H 0.12476 0.70061 -0.16627
 Cu164 Cu 0.15505 0.65506 -0.18105
 Cu165 Cu 0.15466 0.68250 -0.15466
 Cu166 Cu 0.18250 0.65461 -0.15465
 N167 N 0.17081 0.63958 -0.18107
 N168 N 0.18154 0.63949 -0.17070
 C169 C 0.19081 0.62758 -0.17312
 C170 C 0.18557 0.61987 -0.18562
 C171 C 0.17291 0.62769 -0.19044
 H172 H 0.20055 0.62468 -0.16625
 H173 H 0.16575 0.62486 -0.19997
 N174 N 0.18153 0.67086 -0.13936
 N175 N 0.17093 0.68148 -0.13936
 C176 C 0.17317 0.69073 -0.12743
 C177 C 0.18572 0.68564 -0.11965
 C178 C 0.19079 0.67308 -0.12742
 H179 H 0.16616 0.70039 -0.12452
 H180 H 0.20043 0.66606 -0.12451
 H181 H 0.17172 0.67167 -0.16658
 H182 H 0.15956 0.65956 -0.15418
 N183 N 0.13953 0.18156 0.32929
 N184 N 0.13961 0.17086 0.31892
 C185 C 0.12774 0.17298 0.30953
 C186 C 0.11991 0.18563 0.31435
 C187 C 0.12762 0.19085 0.32687
 H188 H 0.12490 0.16584 0.29998
 H189 H 0.12472 0.20058 0.33375
 Cu190 Cu 0.15509 0.15509 0.31892
 Cu191 Cu 0.15465 0.18250 0.34536
 Cu192 Cu 0.18254 0.15467 0.34533
 N193 N 0.17089 0.13966 0.31888
 N194 N 0.18161 0.13958 0.32925
 C195 C 0.19091 0.12769 0.32681
 C196 C 0.18569 0.11999 0.31429
 C197 C 0.17301 0.12780 0.30948
 H198 H 0.20066 0.12479 0.33368
 H199 H 0.16585 0.12496 0.29995
 N200 N 0.18153 0.17089 0.36064
 N201 N 0.17090 0.18150 0.36065
 C202 C 0.17312 0.19073 0.37260
 C203 C 0.18568 0.18565 0.38037
 C204 C 0.19078 0.17311 0.37258
 H205 H 0.16610 0.20037 0.37552
 H206 H 0.20043 0.16610 0.37549
 H207 H 0.17172 0.17172 0.33341
 H208 H 0.15959 0.15957 0.34579
 N209 N 0.63952 0.31855 0.67083
 N210 N 0.63958 0.32926 0.68121
 C211 C 0.62769 0.32716 0.69060
 C212 C 0.61989 0.31450 0.68578
 C213 C 0.62762 0.30928 0.67326
 H214 H 0.62484 0.33429 0.70015
 H215 H 0.62474 0.29955 0.66639
 Cu216 Cu 0.65505 0.34500 0.68119
 Cu217 Cu 0.65466 0.31758 0.65478
 Cu218 Cu 0.68252 0.34538 0.65477
 N219 N 0.67083 0.36044 0.68122
 N220 N 0.68156 0.36050 0.67084
 C221 C 0.69085 0.37237 0.67327
 C222 C 0.68562 0.38008 0.68579
 C223 C 0.67294 0.37230 0.69061
 H224 H 0.70060 0.37524 0.66640
 H225 H 0.66579 0.37514 0.70016
 N226 N 0.68155 0.32913 0.63948
 N227 N 0.67094 0.31854 0.63948
 C228 C 0.67318 0.30928 0.62755
 C229 C 0.68574 0.31434 0.61976
 C230 C 0.69082 0.32688 0.62753
 H231 H 0.66617 0.29965 0.62464
 H232 H 0.70047 0.33387 0.62462
 H233 H 0.67172 0.32835 0.66670
 H234 H 0.65958 0.34050 0.65432
 N235 N 0.63956 0.81850 1.17089
 N236 N 0.63987 0.82895 1.18152
 C237 C 0.62796 0.82687 1.19088
 C238 C 0.61989 0.81450 1.18579
 C239 C 0.62748 0.80942 1.17313
 H240 H 0.62529 0.83384 1.20061
 H241 H 0.62440 0.79989 1.16606
 Cu242 Cu 0.65565 0.84437 1.18198
 Cu243 Cu 0.65465 0.81760 1.15481
 Cu244 Cu 0.68248 0.84536 1.15482
 N245 N 0.67111 0.86012 1.18152
 N246 N 0.68158 0.86042 1.17089
 C247 C 0.69069 0.87247 1.17313
 C248 C 0.68559 0.88006 1.18579
 C249 C 0.67319 0.87201 1.19088
 H250 H 0.70024 0.87554 1.16606
 H251 H 0.66622 0.87468 1.20060
 N252 N 0.68148 0.82916 1.13949
 N253 N 0.67087 0.81858 1.13949
 C254 C 0.67311 0.80934 1.12754
 C255 C 0.68567 0.81440 1.11976
 C256 C 0.69075 0.82693 1.12755
 H257 H 0.66610 0.79970 1.12464
 H258 H 0.70041 0.83391 1.12465
 H259 H 0.67195 0.82806 1.16664
 H260 H 0.65949 0.84056 1.15490
 N261 N 0.13950 0.31865 1.17084
 N262 N 0.13955 0.32938 1.18119
 C263 C 0.12766 0.32728 1.19059
 C264 C 0.11988 0.31461 1.18579
 C265 C 0.12761 0.30937 1.17328
 H266 H 0.12481 0.33443 1.20012
 H267 H 0.12474 0.29962 1.16642
 Cu268 Cu 0.15499 0.34514 1.18115
 Cu269 Cu 0.15464 0.31767 1.15478
 Cu270 Cu 0.18248 0.34549 1.15475
 N271 N 0.17076 0.36057 1.18115
 N272 N 0.18150 0.36062 1.17079
 C273 C 0.19078 0.37250 1.17320
 C274 C 0.18553 0.38023 1.18571
 C275 C 0.17285 0.37245 1.19053
 H276 H 0.20053 0.37537 1.16633
 H277 H 0.16569 0.37530 1.20007
 N278 N 0.18153 0.32922 1.13948
 N279 N 0.17092 0.31862 1.13949
 C280 C 0.17317 0.30936 1.12757
 C281 C 0.18573 0.31442 1.11979
 C282 C 0.19080 0.32697 1.12755
 H283 H 0.16617 0.29972 1.12467
 H284 H 0.20044 0.33396 1.12463
 H285 H 0.17168 0.32846 1.16670
 H286 H 0.15954 0.34059 1.15429
 N287 N 0.13952 0.81861 0.67076
 N288 N 0.13957 0.82933 0.68113
 C289 C 0.12770 0.82722 0.69053
 C290 C 0.11990 0.81457 0.68573
 C291 C 0.12763 0.80934 0.67320
 H292 H 0.12485 0.83437 0.70007
 H293 H 0.12475 0.79960 0.66634
 Cu294 Cu 0.15502 0.84509 0.68109
 Cu295 Cu 0.15464 0.81766 0.65469
 Cu296 Cu 0.18247 0.84548 0.65466
 N297 N 0.17078 0.86053 0.68110
 N298 N 0.18151 0.86059 0.67072
 C299 C 0.19080 0.87246 0.67314
 C300 C 0.18556 0.88018 0.68566
 C301 C 0.17289 0.87239 0.69049
 H302 H 0.20055 0.87534 0.66627
 H303 H 0.16574 0.87524 0.70003
 N304 N 0.18150 0.82924 0.63937
 N305 N 0.17089 0.81864 0.63937
 C306 C 0.17313 0.80940 0.62742
 C307 C 0.18568 0.81448 0.61963
 C308 C 0.19075 0.82701 0.62742
 H309 H 0.16612 0.79977 0.62452
 H310 H 0.20040 0.83401 0.62450
 H311 H 0.17168 0.82844 0.66660
 H312 H 0.15953 0.84059 0.65422
 N313 N 0.36049 0.68152 0.67086
 N314 N 0.36044 0.67079 0.68123
 C315 C 0.37231 0.67290 0.69062
 C316 C 0.38009 0.68557 0.68582
 C317 C 0.37237 0.69081 0.67330
 H318 H 0.37516 0.66574 0.70016
 H319 H 0.37524 0.70056 0.66643
 Cu320 Cu 0.34500 0.65502 0.68120
 Cu321 Cu 0.34538 0.68248 0.65480
 Cu322 Cu 0.31756 0.65465 0.65478
 N323 N 0.32924 0.63956 0.68121
 N324 N 0.31851 0.63951 0.67084
 C325 C 0.30923 0.62763 0.67327
 C326 C 0.31446 0.61990 0.68578
 C327 C 0.32713 0.62768 0.69060
 H328 H 0.29949 0.62476 0.66639
 H329 H 0.33427 0.62483 0.70014
 N330 N 0.31853 0.67091 0.63948
 N331 N 0.32912 0.68152 0.63949
 C332 C 0.32689 0.69078 0.62755
 C333 C 0.31434 0.68571 0.61976
 C334 C 0.30927 0.67316 0.62754
 H335 H 0.33389 0.70042 0.62464
 H336 H 0.29964 0.66615 0.62462
 H337 H 0.32833 0.67168 0.66672
 H338 H 0.34049 0.65956 0.65432
 N339 N 0.36069 0.18134 1.17073
 N340 N 0.36046 0.17080 1.18127
 C341 C 0.37238 0.17284 1.19061
 C342 C 0.38038 0.18530 1.18559
 C343 C 0.37274 0.19046 1.17300
 H344 H 0.37510 0.16582 1.20028
 H345 H 0.37575 0.20007 1.16599
 Cu346 Cu 0.34472 0.15533 1.18168
 Cu347 Cu 0.34554 0.18233 1.15472
 Cu348 Cu 0.31773 0.15454 1.15473
 N349 N 0.32925 0.13960 1.18127
 N350 N 0.31870 0.13938 1.17073
 C351 C 0.30958 0.12735 1.17300
 C352 C 0.31473 0.11969 1.18558
 C353 C 0.32719 0.12767 1.19061
 H354 H 0.29997 0.12435 1.16600
 H355 H 0.33422 0.12494 1.20028
 N356 N 0.31866 0.17082 1.13947
 N357 N 0.32926 0.18141 1.13946
 C358 C 0.32699 0.19070 1.12755
 C359 C 0.31441 0.18566 1.11979
 C360 C 0.30936 0.17309 1.12756
 H361 H 0.33399 0.20034 1.12463
 H362 H 0.29971 0.16610 1.12467
 H363 H 0.32831 0.17176 1.16658
 H364 H 0.34071 0.15937 1.15466
 N365 N 0.86049 0.68147 1.17084
 N366 N 0.86035 0.67083 1.18129
 C367 C 0.87223 0.67292 1.19067
 C368 C 0.88012 0.68549 1.18576
 C369 C 0.87244 0.69069 1.17319
 H370 H 0.87502 0.66583 1.20027
 H371 H 0.87539 0.70036 1.16625
 Cu372 Cu 0.84482 0.65516 1.18141
 Cu373 Cu 0.84538 0.68242 1.15478
 Cu374 Cu 0.81757 0.65459 1.15477
 N375 N 0.82916 0.63961 1.18128
 N376 N 0.81853 0.63947 1.17083
 C377 C 0.80932 0.62751 1.17317
 C378 C 0.81452 0.61982 1.18573
 C379 C 0.82708 0.62771 1.19065
 H380 H 0.79965 0.62456 1.16623
 H381 H 0.83417 0.62492 1.20025
 N382 N 0.81853 0.67085 1.13949
 N383 N 0.82912 0.68145 1.13948
 C384 C 0.82686 0.69073 1.12755
 C385 C 0.81431 0.68566 1.11979
 C386 C 0.80925 0.67310 1.12756
 H387 H 0.83386 0.70038 1.12464
 H388 H 0.79961 0.66610 1.12466
 H389 H 0.82825 0.67171 1.16667
 H390 H 0.84052 0.65948 1.15447
 N391 N 0.86052 0.18145 0.67074
 N392 N 0.86047 0.17073 0.68112
 C393 C 0.87233 0.17284 0.69052
 C394 C 0.88011 0.18552 0.68571
 C395 C 0.87239 0.19075 0.67318
 H396 H 0.87517 0.16569 0.70006
 H397 H 0.87527 0.20050 0.66632
 Cu398 Cu 0.84504 0.15494 0.68108
 Cu399 Cu 0.84541 0.18240 0.65467
 Cu400 Cu 0.81761 0.15455 0.65467
 N401 N 0.82930 0.13948 0.68110
 N402 N 0.81858 0.13942 0.67072
 C403 C 0.80931 0.12753 0.67315
 C404 C 0.81454 0.11981 0.68567
 C405 C 0.82720 0.12761 0.69049
 H406 H 0.79956 0.12466 0.66628
 H407 H 0.83434 0.12477 0.70004
 N408 N 0.81857 0.17080 0.63938
 N409 N 0.82916 0.18141 0.63937
 C410 C 0.82691 0.19066 0.62742
 C411 C 0.81437 0.18557 0.61964
 C412 C 0.80931 0.17303 0.62743
 H413 H 0.83391 0.20031 0.62450
 H414 H 0.79968 0.16601 0.62452
 H415 H 0.82837 0.17159 0.66660
 H416 H 0.84054 0.15947 0.65421
 N417 N 0.31845 0.36046 0.67071
 N418 N 0.32909 0.36030 0.68116
 C419 C 0.32700 0.37219 0.69053
 C420 C 0.31443 0.38010 0.68561
 C421 C 0.30923 0.37243 0.67306
 H422 H 0.33410 0.37498 0.70012
 H423 H 0.29957 0.37540 0.66612
 Cu424 Cu 0.34476 0.34473 0.68127
 Cu425 Cu 0.31751 0.34535 0.65466
 Cu426 Cu 0.34538 0.31749 0.65466
 N427 N 0.36034 0.32906 0.68117
 N428 N 0.36050 0.31842 0.67072
 C429 C 0.37247 0.30921 0.67308
 C430 C 0.38014 0.31439 0.68563
 C431 C 0.37223 0.32696 0.69054
 H432 H 0.37543 0.29954 0.66614
 H433 H 0.37502 0.33405 0.70013
 N434 N 0.32911 0.31848 0.63937
 N435 N 0.31850 0.32910 0.63937
 C436 C 0.30922 0.32685 0.62745
 C437 C 0.31430 0.31429 0.61968
 C438 C 0.32686 0.30922 0.62745
 H439 H 0.29956 0.33386 0.62455
 H440 H 0.33387 0.29956 0.62455
 H441 H 0.32822 0.32821 0.66653
 H442 H 0.34046 0.34044 0.65433
 N443 N 0.31865 0.86075 0.17036
 N444 N 0.32920 0.86052 0.18090
 C445 C 0.32714 0.87245 0.19023
 C446 C 0.31468 0.88045 0.18520
 C447 C 0.30952 0.87280 0.17262
 H448 H 0.33415 0.87515 0.19990
 H449 H 0.29989 0.87581 0.16563
 Cu450 Cu 0.34468 0.84476 0.18133
 Cu451 Cu 0.31768 0.84557 0.15440
 Cu452 Cu 0.34549 0.81772 0.15446
 N453 N 0.36042 0.82926 0.18096
 N454 N 0.36065 0.81870 0.17045
 C455 C 0.37269 0.80955 0.17274
 C456 C 0.38034 0.81472 0.18531
 C457 C 0.37234 0.82720 0.19031
 H458 H 0.37570 0.79992 0.16577
 H459 H 0.37505 0.83423 0.19996
 N460 N 0.32920 0.81864 0.13921
 N461 N 0.31860 0.82926 0.13918
 C462 C 0.30931 0.82699 0.12728
 C463 C 0.31436 0.81440 0.11955
 C464 C 0.32693 0.80934 0.12732
 H465 H 0.29966 0.83401 0.12436
 H466 H 0.33394 0.79968 0.12444
 H467 H 0.32825 0.82835 0.16631
 H468 H 0.34064 0.84068 0.15434
 N469 N 0.81855 0.36072 0.17041
 N470 N 0.82927 0.36064 0.18078
 C471 C 0.82717 0.37251 0.19016
 C472 C 0.81450 0.38033 0.18534
 C473 C 0.80926 0.37262 0.17283
 H474 H 0.83432 0.37534 0.19970
 H475 H 0.79951 0.37552 0.16597
 Cu476 Cu 0.84503 0.34516 0.18077
 Cu477 Cu 0.81757 0.34558 0.15438
 Cu478 Cu 0.84541 0.31769 0.15442
 N479 N 0.86048 0.32937 0.18082
 N480 N 0.86054 0.31864 0.17047
 C481 C 0.87244 0.30934 0.17291
 C482 C 0.88016 0.31458 0.18542
 C483 C 0.87236 0.32726 0.19021
 H484 H 0.87532 0.29959 0.16606
 H485 H 0.87520 0.33442 0.19973
 N486 N 0.82914 0.31867 0.13913
 N487 N 0.81854 0.32930 0.13911
 C488 C 0.80927 0.32706 0.12718
 C489 C 0.81434 0.31449 0.11943
 C490 C 0.82689 0.30940 0.12721
 H491 H 0.79963 0.33408 0.12427
 H492 H 0.83389 0.29974 0.12432
 H493 H 0.82836 0.32853 0.16632
 H494 H 0.84051 0.34062 0.15391
 N495 N 0.81851 0.86094 0.67061
 N496 N 0.82925 0.86088 0.68096
 C497 C 0.82714 0.87275 0.69035
 C498 C 0.81446 0.88055 0.68554
 C499 C 0.80922 0.87283 0.67304
 H500 H 0.83429 0.87559 0.69988
 H501 H 0.79945 0.87571 0.66619
 Cu502 Cu 0.84502 0.84540 0.68096
 Cu503 Cu 0.81754 0.84579 0.65458
 Cu504 Cu 0.84537 0.81790 0.65463
 N505 N 0.86047 0.82961 0.68101
 N506 N 0.86051 0.81886 0.67067
 C507 C 0.87239 0.80955 0.67312
 C508 C 0.88013 0.81480 0.68560
 C509 C 0.87235 0.82750 0.69039
 H510 H 0.87526 0.79978 0.66628
 H511 H 0.87521 0.83466 0.69990
 N512 N 0.82910 0.81888 0.63935
 N513 N 0.81850 0.82950 0.63932
 C514 C 0.80924 0.82726 0.62739
 C515 C 0.81430 0.81469 0.61964
 C516 C 0.82685 0.80960 0.62743
 H517 H 0.79960 0.83428 0.62447
 H518 H 0.83385 0.79994 0.62455
 H519 H 0.82833 0.82875 0.66655
 H520 H 0.84047 0.84083 0.65411
 N521 N 0.68153 0.63950 0.67096
 N522 N 0.67105 0.63980 0.68158
 C523 C 0.67314 0.62790 0.69094
 C524 C 0.68556 0.61984 0.68586
 C525 C 0.69065 0.62743 0.67321
 H526 H 0.66616 0.62523 0.70066
 H527 H 0.70020 0.62436 0.66614
 Cu528 Cu 0.65557 0.65558 0.68203
 Cu529 Cu 0.68242 0.65459 0.65488
 Cu530 Cu 0.65458 0.68241 0.65489
 N531 N 0.63979 0.67105 0.68159
 N532 N 0.63949 0.68153 0.67097
 C533 C 0.62742 0.69065 0.67323
 C534 C 0.61982 0.68556 0.68588
 C535 C 0.62788 0.67315 0.69096
 H536 H 0.62435 0.70020 0.66617
 H537 H 0.62521 0.66618 0.70068
 N538 N 0.67081 0.68141 0.63956
 N539 N 0.68142 0.67080 0.63955
 C540 C 0.69069 0.67304 0.62761
 C541 C 0.68560 0.68559 0.61982
 C542 C 0.67304 0.69067 0.62761
 H543 H 0.70035 0.66604 0.62471
 H544 H 0.66604 0.70033 0.62472
 H545 H 0.67189 0.67188 0.66671
 H546 H 0.65943 0.65944 0.65495
 N547 N 0.68166 0.13911 0.17057
 N548 N 0.67092 0.13916 0.18094
 C549 C 0.67303 0.12728 0.19032
 C550 C 0.68570 0.11947 0.18550
 C551 C 0.69094 0.12720 0.17299
 H552 H 0.66587 0.12443 0.19987
 H553 H 0.70070 0.12432 0.16612
 Cu554 Cu 0.65516 0.15464 0.18095
 Cu555 Cu 0.68264 0.15427 0.15455
 Cu556 Cu 0.65479 0.18215 0.15460
 N557 N 0.63969 0.17042 0.18100
 N558 N 0.63964 0.18117 0.17065
 C559 C 0.62774 0.19046 0.17309
 C560 C 0.62001 0.18520 0.18559
 C561 C 0.62781 0.17252 0.19039
 H562 H 0.62486 0.20022 0.16624
 H563 H 0.62495 0.16535 0.19992
 N564 N 0.67108 0.18119 0.13931
 N565 N 0.68168 0.17057 0.13929
 C566 C 0.69096 0.17283 0.12736
 C567 C 0.68589 0.18541 0.11961
 C568 C 0.67333 0.19048 0.12740
 H569 H 0.70060 0.16582 0.12443
 H570 H 0.66632 0.20014 0.12450
 H571 H 0.67184 0.17129 0.16650
 H572 H 0.65970 0.15921 0.15409
 N573 N 0.18139 0.63944 0.17046
 N574 N 0.17065 0.63950 0.18083
 C575 C 0.17275 0.62762 0.19021
 C576 C 0.18542 0.61980 0.18540
 C577 C 0.19067 0.62753 0.17288
 H578 H 0.16559 0.62478 0.19975
 H579 H 0.20043 0.62464 0.16602
 Cu580 Cu 0.15489 0.65499 0.18083
 Cu581 Cu 0.18237 0.65459 0.15442
 Cu582 Cu 0.15454 0.68249 0.15446
 N583 N 0.13943 0.67078 0.18087
 N584 N 0.13939 0.68152 0.17052
 C585 C 0.12749 0.69082 0.17296
 C586 C 0.11976 0.68557 0.18547
 C587 C 0.12755 0.67288 0.19026
 H588 H 0.12462 0.70058 0.16611
 H589 H 0.12470 0.66572 0.19979
 N590 N 0.17082 0.68152 0.13917
 N591 N 0.18142 0.67089 0.13916
 C592 C 0.19070 0.67314 0.12723
 C593 C 0.18565 0.68572 0.11947
 C594 C 0.17309 0.69080 0.12725
 H595 H 0.20035 0.66612 0.12431
 H596 H 0.16609 0.70047 0.12436
 H597 H 0.17157 0.67163 0.16637
 H598 H 0.15943 0.65955 0.15396
 N599 N 0.18135 0.13895 0.67074
 N600 N 0.17080 0.13917 0.68129
 C601 C 0.17287 0.12725 0.69063
 C602 C 0.18535 0.11925 0.68561
 C603 C 0.19050 0.12690 0.67301
 H604 H 0.16586 0.12454 0.70032
 H605 H 0.20012 0.12390 0.66601
 Cu606 Cu 0.15531 0.15494 0.68171
 Cu607 Cu 0.18233 0.15412 0.65475
 Cu608 Cu 0.15451 0.18199 0.65480
 N609 N 0.13956 0.17045 0.68134
 N610 N 0.13935 0.18102 0.67081
 C611 C 0.12731 0.19017 0.67310
 C612 C 0.11964 0.18500 0.68569
 C613 C 0.12763 0.17252 0.69069
 H614 H 0.12431 0.19980 0.66612
 H615 H 0.12491 0.16548 0.70035
 N616 N 0.17081 0.18106 0.63953
 N617 N 0.18140 0.17044 0.63951
 C618 C 0.19070 0.17271 0.62759
 C619 C 0.18565 0.18531 0.61986
 C620 C 0.17308 0.19037 0.62764
 H621 H 0.20035 0.16570 0.62467
 H622 H 0.16608 0.20004 0.62476
 H623 H 0.17175 0.17134 0.66664
 H624 H 0.15935 0.15902 0.65470
 N625 N 0.31841 0.63940 0.32912
 N626 N 0.32906 0.63955 0.31866
 C627 C 0.32697 0.62766 0.30929
 C628 C 0.31440 0.61978 0.31421
 C629 C 0.30920 0.62745 0.32677
 H630 H 0.33407 0.62488 0.29969
 H631 H 0.29952 0.62450 0.33372
 Cu632 Cu 0.34472 0.65509 0.31855
 Cu633 Cu 0.31745 0.65451 0.34518
 Cu634 Cu 0.34530 0.68232 0.34517
 N635 N 0.36028 0.67074 0.31864
 N636 N 0.36042 0.68136 0.32910
 C637 C 0.37238 0.69057 0.32674
 C638 C 0.38006 0.68539 0.31418
 C639 C 0.37217 0.67284 0.30926
 H640 H 0.37533 0.70024 0.33368
 H641 H 0.37496 0.66575 0.29966
 N642 N 0.32903 0.68135 0.36047
 N643 N 0.31842 0.67075 0.36047
 C644 C 0.30914 0.67301 0.37240
 C645 C 0.31421 0.68556 0.38017
 C646 C 0.32677 0.69061 0.37239
 H647 H 0.29949 0.66602 0.37531
 H648 H 0.33377 0.70025 0.37529
 H649 H 0.32816 0.67163 0.33330
 H650 H 0.34040 0.65938 0.34549
 N651 N 0.31845 0.13926 0.82923
 N652 N 0.32909 0.13942 0.81877
 C653 C 0.32701 0.12754 0.80939
 C654 C 0.31445 0.11964 0.81432
 C655 C 0.30925 0.12730 0.82688
 H656 H 0.33412 0.12475 0.79979
 H657 H 0.29959 0.12434 0.83384
 Cu658 Cu 0.34475 0.15497 0.81867
 Cu659 Cu 0.31750 0.15435 0.84532
 Cu660 Cu 0.34534 0.18216 0.84533
 N661 N 0.36031 0.17063 0.81878
 N662 N 0.36046 0.18124 0.82925
 C663 C 0.37242 0.19045 0.82689
 C664 C 0.38009 0.18529 0.81431
 C665 C 0.37220 0.17274 0.80938
 H666 H 0.37537 0.20010 0.83384
 H667 H 0.37499 0.16567 0.79977
 N668 N 0.32909 0.18116 0.86064
 N669 N 0.31848 0.17057 0.86064
 C670 C 0.30920 0.17281 0.87257
 C671 C 0.31427 0.18534 0.88036
 C672 C 0.32683 0.19041 0.87259
 H673 H 0.29955 0.16582 0.87547
 H674 H 0.33383 0.20005 0.87549
 H675 H 0.32820 0.17150 0.83346
 H676 H 0.34045 0.15923 0.84562
 N677 N 0.81855 0.63934 0.82926
 N678 N 0.82902 0.63965 0.81864
 C679 C 0.82695 0.62775 0.80928
 C680 C 0.81456 0.61969 0.81438
 C681 C 0.80946 0.62728 0.82703
 H682 H 0.83393 0.62509 0.79956
 H683 H 0.79991 0.62421 0.83411
 Cu684 Cu 0.84446 0.65542 0.81816
 Cu685 Cu 0.81764 0.65442 0.84533
 Cu686 Cu 0.84541 0.68224 0.84528
 N687 N 0.86021 0.67089 0.81859
 N688 N 0.86049 0.68136 0.82920
 C689 C 0.87254 0.69048 0.82694
 C690 C 0.88015 0.68539 0.81429
 C691 C 0.87211 0.67299 0.80922
 H692 H 0.87559 0.70002 0.83400
 H693 H 0.87480 0.66602 0.79950
 N694 N 0.82919 0.68124 0.86062
 N695 N 0.81861 0.67064 0.86064
 C696 C 0.80934 0.67287 0.87259
 C697 C 0.81440 0.68543 0.88036
 C698 C 0.82695 0.69050 0.87256
 H699 H 0.79970 0.66587 0.87551
 H700 H 0.83393 0.70016 0.87544
 H701 H 0.82812 0.67172 0.83348
 H702 H 0.84061 0.65927 0.84524
 N703 N 0.81863 0.13916 0.32926
 N704 N 0.82918 0.13940 0.31871
 C705 C 0.82714 0.12748 0.30937
 C706 C 0.81469 0.11947 0.31440
 C707 C 0.80952 0.12711 0.32700
 H708 H 0.83418 0.12476 0.29971
 H709 H 0.79992 0.12409 0.33401
 Cu710 Cu 0.84464 0.15515 0.31830
 Cu711 Cu 0.81765 0.15429 0.34528
 Cu712 Cu 0.84544 0.18212 0.34525
 N713 N 0.86036 0.17064 0.31867
 N714 N 0.86058 0.18118 0.32922
 C715 C 0.87260 0.19032 0.32693
 C716 C 0.88026 0.18518 0.31432
 C717 C 0.87228 0.17271 0.30932
 H718 H 0.87560 0.19992 0.33393
 H719 H 0.87501 0.16569 0.29965
 N720 N 0.82916 0.18116 0.36054
 N721 N 0.81857 0.17056 0.36055
 C722 C 0.80927 0.17282 0.37247
 C723 C 0.81431 0.18539 0.38022
 C724 C 0.82688 0.19045 0.37245
 H725 H 0.79963 0.16582 0.37537
 H726 H 0.83387 0.20010 0.37534
 H727 H 0.82821 0.17153 0.33343
 H728 H 0.84062 0.15916 0.34534
 N729 N 0.68151 0.36046 0.32908
 N730 N 0.67078 0.36041 0.31871
 C731 C 0.67288 0.37230 0.30933
 C732 C 0.68554 0.38009 0.31415
 C733 C 0.69078 0.37235 0.32666
 H734 H 0.66573 0.37515 0.29980
 H735 H 0.70053 0.37523 0.33353
 Cu736 Cu 0.65502 0.34497 0.31874
 Cu737 Cu 0.68247 0.34534 0.34514
 Cu738 Cu 0.65464 0.31751 0.34515
 N739 N 0.63958 0.32920 0.31871
 N740 N 0.63953 0.31847 0.32909
 C741 C 0.62765 0.30919 0.32666
 C742 C 0.61993 0.31442 0.31414
 C743 C 0.62772 0.32709 0.30932
 H744 H 0.62478 0.29944 0.33352
 H745 H 0.62487 0.33424 0.29977
 N746 N 0.67090 0.31849 0.36045
 N747 N 0.68150 0.32909 0.36044
 C748 C 0.69076 0.32684 0.37238
 C749 C 0.68569 0.31430 0.38016
 C750 C 0.67314 0.30923 0.37239
 H751 H 0.70040 0.33385 0.37528
 H752 H 0.66614 0.29959 0.37530
 H753 H 0.67169 0.32831 0.33321
 H754 H 0.65953 0.34044 0.34560
 N755 N 0.68144 0.86059 0.82919
 N756 N 0.67080 0.86045 0.81874
 C757 C 0.67289 0.87234 0.80937
 C758 C 0.68545 0.88023 0.81428
 C759 C 0.69065 0.87254 0.82684
 H760 H 0.66578 0.87515 0.79978
 H761 H 0.70031 0.87550 0.83379
 Cu762 Cu 0.65512 0.84491 0.81867
 Cu763 Cu 0.68237 0.84550 0.84528
 Cu764 Cu 0.65450 0.81772 0.84535
 N765 N 0.63954 0.82928 0.81880
 N766 N 0.63938 0.81866 0.82929
 C767 C 0.62741 0.80947 0.82695
 C768 C 0.61973 0.81465 0.81438
 C769 C 0.62765 0.82719 0.80943
 H770 H 0.62444 0.79982 0.83392
 H771 H 0.62487 0.83427 0.79982
 N772 N 0.67076 0.81869 0.86065
 N773 N 0.68138 0.82927 0.86061
 C774 C 0.69066 0.82703 0.87254
 C775 C 0.68558 0.81450 0.88035
 C776 C 0.67301 0.80944 0.87259
 H777 H 0.70032 0.83401 0.87542
 H778 H 0.66600 0.79981 0.87553
 H779 H 0.67165 0.82836 0.83346
 H780 H 0.65941 0.84064 0.84562
 N781 N 0.18129 0.36056 0.82922
 N782 N 0.17065 0.36041 0.81877
 C783 C 0.17272 0.37227 0.80937
 C784 C 0.18529 0.38017 0.81426
 C785 C 0.19049 0.37251 0.82683
 H786 H 0.16562 0.37503 0.79976
 H787 H 0.20017 0.37548 0.83375
 Cu788 Cu 0.15504 0.34483 0.81875
 Cu789 Cu 0.18226 0.34545 0.84532
 Cu790 Cu 0.15441 0.31760 0.84532
 N791 N 0.13946 0.32923 0.81878
 N792 N 0.13930 0.31858 0.82924
 C793 C 0.12734 0.30939 0.82685
 C794 C 0.11968 0.31460 0.81428
 C795 C 0.12759 0.32716 0.80938
 H796 H 0.12436 0.29971 0.83378
 H797 H 0.12483 0.33426 0.79978
 N798 N 0.17067 0.31858 0.86063
 N799 N 0.18128 0.32918 0.86063
 C800 C 0.19055 0.32692 0.87255
 C801 C 0.18549 0.31437 0.88033
 C802 C 0.17293 0.30931 0.87256
 H803 H 0.20020 0.33392 0.87544
 H804 H 0.16593 0.29966 0.87546
 H805 H 0.17159 0.32828 0.83355
 H806 H 0.15935 0.34049 0.84571
 N807 N 0.18137 0.86056 0.32911
 N808 N 0.17064 0.86051 0.31874
 C809 C 0.17276 0.87237 0.30934
 C810 C 0.18543 0.88016 0.31415
 C811 C 0.19066 0.87244 0.32667
 H812 H 0.16561 0.87523 0.29980
 H813 H 0.20040 0.87531 0.33354
 Cu814 Cu 0.15487 0.84508 0.31878
 Cu815 Cu 0.18231 0.84546 0.34519
 Cu816 Cu 0.15446 0.81765 0.34522
 N817 N 0.13941 0.82932 0.31877
 N818 N 0.13935 0.81861 0.32915
 C819 C 0.12746 0.80933 0.32673
 C820 C 0.11974 0.81456 0.31420
 C821 C 0.12755 0.82722 0.30937
 H822 H 0.12457 0.79960 0.33361
 H823 H 0.12471 0.83436 0.29983
 N824 N 0.17071 0.81863 0.36053
 N825 N 0.18132 0.82922 0.36051
 C826 C 0.19058 0.82699 0.37245
 C827 C 0.18550 0.81445 0.38026
 C828 C 0.17294 0.80938 0.37249
 H829 H 0.20023 0.83398 0.37535
 H830 H 0.16594 0.79975 0.37541
 H831 H 0.17151 0.82842 0.33327
 H832 H 0.15936 0.84058 0.34565
 O833 O 0.25168 1.01489 0.23075
 O834 O 0.23069 0.98520 0.25131
 O835 O 0.23072 1.01491 0.25133
 O836 O 0.25166 0.98519 0.23073
 O837 O 0.26928 0.98514 0.24857
 O838 O 0.24833 1.01485 0.26916
 O839 O 0.24831 0.98514 0.26915
 O840 O 0.26929 1.01484 0.24859
 Cu841 Cu 0.23941 1.00005 0.23923
 Cu842 Cu 0.26058 0.99999 0.26067
 C843 C 0.26392 1.02002 0.23631
 C844 C 0.23607 0.98001 0.26359
 C845 C 0.23611 1.02005 0.26361
 C846 C 0.26390 0.98001 0.23628
 O847 O 0.26926 0.48510 0.74860
 O848 O 0.24829 0.51477 0.76924
 O849 O 0.24831 0.48507 0.76919
 O850 O 0.26923 0.51482 0.74864
 O851 O 0.25159 0.51486 0.73082
 O852 O 0.23068 0.48511 0.75137
 O853 O 0.23066 0.51482 0.75142
 O854 O 0.25163 0.48515 0.73078
 Cu855 Cu 0.26055 0.49994 0.76072
 Cu856 Cu 0.23936 0.49999 0.73930
 C857 C 0.26387 0.47997 0.73632
 C858 C 0.23605 0.51995 0.76371
 C859 C 0.23607 0.47992 0.76365
 C860 C 0.26382 0.52002 0.73637
 O861 O 0.75184 -0.01517 0.26934
 O862 O 0.73095 0.01459 0.24873
 O863 O 0.73091 -0.01511 0.24875
 O864 O 0.75188 0.01455 0.26931
 O865 O 0.76953 0.01450 0.25149
 O866 O 0.74856 -0.01516 0.23092
 O867 O 0.74860 0.01454 0.23090
 O868 O 0.76949 -0.01522 0.25151
 Cu869 Cu 0.73962 -0.00028 0.26083
 Cu870 Cu 0.76083 -0.00034 0.23941
 C871 C 0.76408 -0.02036 0.26380
 C872 C 0.73636 0.01973 0.23644
 C873 C 0.73631 -0.02029 0.23647
 C874 C 0.76413 0.01969 0.26376
 O875 O 0.75175 0.48501 0.76937
 O876 O 0.73080 0.51473 0.74875
 O877 O 0.73082 0.48501 0.74877
 O878 O 0.75173 0.51472 0.76934
 O879 O 0.76938 0.51471 0.75151
 O880 O 0.74847 0.48500 0.73095
 O881 O 0.74844 0.51472 0.73092
 O882 O 0.76940 0.48500 0.75154
 Cu883 Cu 0.73950 0.49987 0.76085
 Cu884 Cu 0.76070 0.49986 0.73943
 C885 C 0.76400 0.47984 0.76383
 C886 C 0.73619 0.51989 0.73647
 C887 C 0.73623 0.47983 0.73650
 C888 C 0.76397 0.51988 0.76379
 O889 O 0.25162 0.48513 0.26917
 O890 O 0.23067 0.51487 0.24859
 O891 O 0.23068 0.48516 0.24859
 O892 O 0.25161 0.51484 0.26917
 O893 O 0.26925 0.51483 0.25133
 O894 O 0.24832 0.48515 0.23076
 O895 O 0.24831 0.51486 0.23075
 O896 O 0.26926 0.48512 0.25133
 Cu897 Cu 0.23937 0.50000 0.26068
 Cu898 Cu 0.26056 0.49999 0.23924
 C899 C 0.26386 0.47995 0.26362
 C900 C 0.23607 0.52003 0.23630
 C901 C 0.23608 0.48000 0.23631
 C902 C 0.26385 0.51999 0.26361
 O903 O 0.74820 1.01512 0.76939
 O904 O 0.76911 0.98535 0.74881
 O905 O 0.76913 1.01505 0.74878
 O906 O 0.74818 0.98540 0.76943
 O907 O 0.73053 0.98542 0.75162
 O908 O 0.75148 1.01508 0.73097
 O909 O 0.75146 0.98538 0.73101
 O910 O 0.73055 1.01515 0.75159
 Cu911 Cu 0.76043 1.00023 0.76091
 Cu912 Cu 0.73922 1.00026 0.73950
 C913 C 0.73596 1.02032 0.76385
 C914 C 0.76371 0.98020 0.73654
 C915 C 0.76373 1.02021 0.73650
 C916 C 0.73594 0.98025 0.76389
 O917 O 0.75163 0.51490 0.23081
 O918 O 0.73070 0.48519 0.25140
 O919 O 0.73070 0.51491 0.25141
 O920 O 0.75164 0.48520 0.23080
 O921 O 0.76928 0.48516 0.24862
 O922 O 0.74833 0.51487 0.26923
 O923 O 0.74833 0.48515 0.26922
 O924 O 0.76927 0.51486 0.24863
 Cu925 Cu 0.73939 0.50005 0.23931
 Cu926 Cu 0.76058 0.50000 0.26073
 C927 C 0.76387 0.52004 0.23636
 C928 C 0.73610 0.48001 0.26367
 C929 C 0.73609 0.52005 0.26369
 C930 C 0.76389 0.48002 0.23634
 O931 O 0.24865 -0.01517 0.73096
 O932 O 0.26960 0.01446 0.75160
 O933 O 0.26961 -0.01527 0.75152
 O934 O 0.24864 0.01453 0.73103
 O935 O 0.23102 0.01450 0.74889
 O936 O 0.25199 -0.01531 0.76938
 O937 O 0.25198 0.01442 0.76945
 O938 O 0.23103 -0.01520 0.74882
 Cu939 Cu 0.26090 -0.00036 0.73948
 Cu940 Cu 0.23973 -0.00040 0.76094
 C941 C 0.23641 -0.02033 0.73651
 C942 C 0.26420 0.01960 0.76389
 C943 C 0.26422 -0.02048 0.76379
 C944 C 0.23639 0.01969 0.73660
 O945 O 0.24844 0.26915 0.98518
 O946 O 0.26921 0.24833 1.01484
 O947 O 0.26918 0.24829 0.98518
 O948 O 0.24847 0.26917 1.01483
 O949 O 0.23067 0.25149 1.01489
 O950 O 0.25139 0.23061 0.98524
 O951 O 0.25142 0.23064 1.01490
 O952 O 0.23064 0.25147 0.98524
 Cu953 Cu 0.26062 0.26052 1.00000
 Cu954 Cu 0.23923 0.23927 1.00007
 C955 C 0.23614 0.26371 0.98005
 C956 C 0.26371 0.23609 1.02002
 C957 C 0.26367 0.23603 0.98006
 C958 C 0.23619 0.26374 1.02002
 O959 O 0.26934 0.74854 0.51476
 O960 O 0.24859 0.76935 0.48508
 O961 O 0.24858 0.76938 0.51472
 O962 O 0.26934 0.74851 0.48510
 O963 O 0.25155 0.73081 0.48514
 O964 O 0.23080 0.75169 0.51476
 O965 O 0.23080 0.75166 0.48512
 O966 O 0.25155 0.73085 0.51480
 Cu967 Cu 0.26076 0.76073 0.49991
 Cu968 Cu 0.23938 0.73947 0.49996
 C969 C 0.26384 0.73630 0.51994
 C970 C 0.23630 0.76391 0.47994
 C971 C 0.23629 0.76395 0.51989
 C972 C 0.26383 0.73625 0.47997
 O973 O 0.26956 0.75153 -0.01505
 O974 O 0.24876 0.73083 0.01467
 O975 O 0.24876 0.73078 -0.01498
 O976 O 0.26956 0.75158 0.01461
 O977 O 0.25181 0.76935 0.01457
 O978 O 0.23100 0.74855 -0.01501
 O979 O 0.23100 0.74861 0.01464
 O980 O 0.25181 0.76930 -0.01509
 Cu981 Cu 0.26095 0.73939 -0.00019
 Cu982 Cu 0.23962 0.76075 -0.00023
 C983 C 0.26408 0.76379 -0.02024
 C984 C 0.23648 0.73634 0.01981
 C985 C 0.23648 0.73626 -0.02013
 C986 C 0.26408 0.76386 0.01974
 O987 O 0.26917 0.25139 0.48527
 O988 O 0.24839 0.23063 0.51496
 O989 O 0.24840 0.23062 0.48530
 O990 O 0.26917 0.25140 0.51493
 O991 O 0.25139 0.26915 0.51492
 O992 O 0.23062 0.24837 0.48530
 O993 O 0.23062 0.24838 0.51495
 O994 O 0.25140 0.26914 0.48527
 Cu995 Cu 0.26058 0.23922 0.50012
 Cu996 Cu 0.23922 0.26055 0.50011
 C997 C 0.26368 0.26366 0.48011
 C998 C 0.23611 0.23611 0.52011
 C999 C 0.23612 0.23610 0.48015
 C1000 C 0.26368 0.26368 0.52007
 O1001 O 0.74859 0.76933 0.98519
 O1002 O 0.76931 0.74845 1.01483
 O1003 O 0.76933 0.74847 0.98518
 O1004 O 0.74857 0.76930 1.01484
 O1005 O 0.73077 0.75162 1.01483
 O1006 O 0.75153 0.73079 0.98517
 O1007 O 0.75151 0.73077 1.01482
 O1008 O 0.73079 0.75165 0.98518
 Cu1009 Cu 0.76074 0.76067 1.00001
 Cu1010 Cu 0.73935 0.73942 1.00000
 C1011 C 0.73630 0.76391 0.98003
 C1012 C 0.76379 0.73620 1.01998
 C1013 C 0.76383 0.73623 0.98002
 C1014 C 0.73627 0.76386 1.01999
 O1015 O 0.73063 0.25141 0.51477
 O1016 O 0.75138 0.23059 0.48510
 O1017 O 0.75138 0.23056 0.51474
 O1018 O 0.73064 0.25145 0.48511
 O1019 O 0.74844 0.26913 0.48512
 O1020 O 0.76918 0.24825 0.51474
 O1021 O 0.76918 0.24828 0.48509
 O1022 O 0.74842 0.26909 0.51477
 Cu1023 Cu 0.73921 0.23922 0.49993
 Cu1024 Cu 0.76060 0.26047 0.49993
 C1025 C 0.73614 0.26365 0.51993
 C1026 C 0.76367 0.23603 0.47994
 C1027 C 0.76367 0.23599 0.51989
 C1028 C 0.73615 0.26370 0.47996
 O1029 O 0.76918 0.25168 -0.01501
 O1030 O 0.74850 0.23078 0.01465
 O1031 O 0.74848 0.23083 -0.01501
 O1032 O 0.76922 0.25162 0.01464
 O1033 O 0.75138 0.26931 0.01469
 O1034 O 0.73065 0.24852 -0.01497
 O1035 O 0.73067 0.24847 0.01469
 O1036 O 0.75135 0.26937 -0.01496
 Cu1037 Cu 0.76064 0.23944 -0.00019
 Cu1038 Cu 0.73921 0.26070 -0.00013
 C1039 C 0.76365 0.26394 -0.02014
 C1040 C 0.73621 0.23621 0.01983
 C1041 C 0.73618 0.23627 -0.02014
 C1042 C 0.76369 0.26386 0.01982
 O1043 O 0.73067 0.74858 0.48532
 O1044 O 0.75145 0.76937 0.51494
 O1045 O 0.75140 0.76939 0.48528
 O1046 O 0.73070 0.74856 0.51497
 O1047 O 0.74850 0.73085 0.51494
 O1048 O 0.76920 0.75167 0.48525
 O1049 O 0.76925 0.75165 0.51491
 O1050 O 0.74847 0.73086 0.48529
 Cu1051 Cu 0.73926 0.76076 0.50013
 Cu1052 Cu 0.76065 0.73947 0.50010
 C1053 C 0.73617 0.73632 0.48015
 C1054 C 0.76374 0.76391 0.52007
 C1055 C 0.76368 0.76393 0.48010
 C1056 C 0.73621 0.73630 0.52012
 O1057 O 0.98505 0.24835 0.26918
 O1058 O 1.01479 0.26936 0.24870
 O1059 O 0.98506 0.26935 0.24865
 O1060 O 1.01478 0.24838 0.26924
 O1061 O 1.01486 0.23081 0.25137
 O1062 O 0.98514 0.25178 0.23078
 O1063 O 1.01487 0.25179 0.23083
 O1064 O 0.98513 0.23078 0.25131
 Cu1065 Cu 0.99991 0.26063 0.26075
 Cu1066 Cu 1.00000 0.23952 0.23927
 C1067 C 0.97993 0.23613 0.26360
 C1068 C 1.02000 0.26401 0.23642
 C1069 C 0.97994 0.26400 0.23635
 C1070 C 1.01998 0.23617 0.26367
 O1071 O 0.51492 0.23057 0.75147
 O1072 O 0.48519 0.25153 0.73088
 O1073 O 0.51492 0.25152 0.73089
 O1074 O 0.48518 0.23059 0.75146
 O1075 O 0.48515 0.24819 0.76930
 O1076 O 0.51489 0.26913 0.74873
 O1077 O 0.48515 0.26913 0.74871
 O1078 O 0.51489 0.24818 0.76931
 Cu1079 Cu 0.50006 0.23928 0.73938
 Cu1080 Cu 0.50001 0.26043 0.76081
 C1081 C 0.52007 0.23595 0.76375
 C1082 C 0.48001 0.26376 0.73643
 C1083 C 0.52007 0.26375 0.73645
 C1084 C 0.47999 0.23597 0.76374
 O1085 O -0.01498 0.26928 0.75141
 O1086 O 0.01478 0.24826 0.73090
 O1087 O -0.01496 0.24831 0.73089
 O1088 O 0.01475 0.26925 0.75143
 O1089 O 0.01473 0.25167 0.76931
 O1090 O -0.01498 0.23073 0.74877
 O1091 O 0.01476 0.23069 0.74878
 O1092 O -0.01500 0.25171 0.76930
 Cu1093 Cu -0.00010 0.26055 0.73935
 Cu1094 Cu -0.00012 0.23943 0.76085
 C1095 C -0.02016 0.26393 0.76371
 C1096 C 0.01993 0.23603 0.73648
 C1097 C -0.02013 0.23610 0.73647
 C1098 C 0.01990 0.26388 0.76373
 O1099 O 0.48527 0.23051 0.24871
 O1100 O 0.51498 0.25149 0.26920
 O1101 O 0.48525 0.25148 0.26925
 O1102 O 0.51500 0.23051 0.24868
 O1103 O 0.51496 0.24810 0.23080
 O1104 O 0.48521 0.26906 0.25136
 O1105 O 0.51494 0.26907 0.25132
 O1106 O 0.48523 0.24809 0.23083
 Cu1107 Cu 0.50013 0.23923 0.26077
 Cu1108 Cu 0.50008 0.26035 0.23928
 C1109 C 0.48009 0.23587 0.23642
 C1110 C 0.52012 0.26371 0.26361
 C1111 C 0.48006 0.26370 0.26367
 C1112 C 0.52015 0.23588 0.23638
 O1113 O 1.01481 0.76945 0.74871
 O1114 O 0.98507 0.74851 0.76927
 O1115 O 1.01481 0.74851 0.76929
 O1116 O 0.98508 0.76946 0.74869
 O1117 O 0.98512 0.75186 0.73085
 O1118 O 1.01485 0.73090 0.75145
 O1119 O 0.98512 0.73090 0.75143
 O1120 O 1.01485 0.75185 0.73087
 Cu1121 Cu 0.99994 0.76076 0.76079
 Cu1122 Cu 0.99998 0.73960 0.73935
 C1123 C 1.02000 0.76407 0.73643
 C1124 C 0.97993 0.73628 0.76372
 C1125 C 1.01999 0.73628 0.76373
 C1126 C 0.97994 0.76408 0.73640
 O1127 O 0.51481 0.76933 0.24874
 O1128 O 0.48507 0.74835 0.26926
 O1129 O 0.51480 0.74836 0.26930
 O1130 O 0.48508 0.76933 0.24871
 O1131 O 0.48514 0.75174 0.23085
 O1132 O 0.51486 0.73078 0.25144
 O1133 O 0.48514 0.73076 0.25140
 O1134 O 0.51487 0.75175 0.23088
 Cu1135 Cu 0.49993 0.76061 0.26080
 Cu1136 Cu 0.50001 0.73948 0.23934
 C1137 C 0.52000 0.76397 0.23645
 C1138 C 0.47994 0.73612 0.26368
 C1139 C 0.52000 0.73615 0.26373
 C1140 C 0.47996 0.76396 0.23641
 O1141 O -0.01504 0.76937 0.25135
 O1142 O 0.01473 0.74840 0.23081
 O1143 O -0.01500 0.74838 0.23083
 O1144 O 0.01470 0.76938 0.25132
 O1145 O 0.01473 0.75181 0.26921
 O1146 O -0.01497 0.73081 0.24872
 O1147 O 0.01476 0.73082 0.24869
 O1148 O -0.01500 0.75180 0.26924
 Cu1149 Cu -0.00016 0.76066 0.23928
 Cu1150 Cu -0.00012 0.73954 0.26077
 C1151 C -0.02019 0.76401 0.26366
 C1152 C 0.01992 0.73619 0.23639
 C1153 C -0.02014 0.73616 0.23642
 C1154 C 0.01988 0.76403 0.26362
 O1155 O 0.48492 0.76948 0.75156
 O1156 O 0.51470 0.74852 0.73100
 O1157 O 0.48496 0.74853 0.73100
 O1158 O 0.51467 0.76947 0.75156
 O1159 O 0.51467 0.75186 0.76941
 O1160 O 0.48497 0.73092 0.74886
 O1161 O 0.51471 0.73092 0.74885
 O1162 O 0.48493 0.75188 0.76942
 Cu1163 Cu 0.49981 0.76077 0.73948
 Cu1164 Cu 0.49982 0.73962 0.76094
 C1165 C 0.47975 0.76410 0.76385
 C1166 C 0.51988 0.73629 0.73656
 C1167 C 0.47980 0.73630 0.73656
 C1168 C 0.51984 0.76409 0.76384
 C1169 C 0.43889 0.28256 0.30061
 C1170 C 0.43522 0.29976 0.30108
 C1171 C 0.41894 0.29625 0.29592
 C1172 C 0.42239 0.27916 0.29555
 C1173 C 0.44349 0.28421 0.28391
 C1174 C 0.42720 0.28071 0.27876
 C1175 C 0.44004 0.30130 0.28426
 C1176 C 0.42354 0.29790 0.27922
 C1177 C 0.40518 0.30283 0.30254
 C1178 C 0.39380 0.30816 0.30797
 C1179 C 0.45694 0.27727 0.27702
 C1180 C 0.46771 0.27126 0.27110
 H1181 H 0.44535 0.27618 0.30933
 H1182 H 0.43835 0.30767 0.31034
 H1183 H 0.41499 0.27013 0.30025
 H1184 H 0.42404 0.27281 0.26950
 H1185 H 0.44745 0.31032 0.27955
 H1186 H 0.41707 0.30426 0.27049
 C1187 C 0.43774 0.80097 0.78110
 C1188 C 0.42136 0.79499 0.77882
 C1189 C 0.41853 0.79672 0.79590
 C1190 C 0.43469 0.80281 0.79829
 C1191 C 0.44311 0.78463 0.78400
 C1192 C 0.44029 0.78635 0.80108
 C1193 C 0.42694 0.77856 0.78162
 C1194 C 0.42391 0.78038 0.79879
 C1195 C 0.40474 0.80332 0.80248
 C1196 C 0.39335 0.80866 0.80787
 C1197 C 0.45659 0.77767 0.77716
 C1198 C 0.46738 0.77166 0.77126
 H1199 H 0.44358 0.80936 0.77375
 H1200 H 0.41343 0.79859 0.76974
 H1201 H 0.43772 0.81286 0.80522
 H1202 H 0.44822 0.78273 0.81016
 H1203 H 0.42390 0.76850 0.77469
 H1204 H 0.41807 0.77198 0.80613
 C1205 C -0.07210 0.28599 0.77556
 C1206 C -0.08025 0.28017 0.78997
 C1207 C -0.08138 0.29659 0.79569
 C1208 C -0.07343 0.30252 0.78138
 C1209 C -0.05680 0.28449 0.78380
 C1210 C -0.05792 0.30091 0.78951
 C1211 C -0.06476 0.27857 0.79811
 C1212 C -0.06609 0.29510 0.80394
 C1213 C -0.09515 0.30321 0.80226
 C1214 C -0.10653 0.30857 0.80766
 C1215 C -0.04332 0.27753 0.77698
 C1216 C -0.03254 0.27150 0.77109
 H1217 H -0.07442 0.28218 0.76381
 H1218 H -0.08958 0.27172 0.79022
 H1219 H -0.07716 0.31243 0.77456
 H1220 H -0.04858 0.30936 0.78925
 H1221 H -0.06104 0.26865 0.80492
 H1222 H -0.06378 0.29891 0.81569
 C1223 C -0.06707 0.77652 0.29541
 C1224 C -0.06746 0.79126 0.30496
 C1225 C -0.08133 0.79660 0.29585
 C1226 C -0.08114 0.78196 0.28641
 C1227 C -0.05678 0.78454 0.28386
 C1228 C -0.07066 0.78987 0.27475
 C1229 C -0.05695 0.79917 0.29329
 C1230 C -0.07105 0.80462 0.28429
 C1231 C -0.09509 0.80319 0.30246
 C1232 C -0.10646 0.80853 0.30788
 C1233 C -0.04332 0.77759 0.27699
 C1234 C -0.03255 0.77157 0.27107
 H1235 H -0.06528 0.76490 0.29992
 H1236 H -0.06630 0.79190 0.31746
 H1237 H -0.09124 0.77496 0.28365
 H1238 H -0.07183 0.78922 0.26226
 H1239 H -0.04685 0.80617 0.29604
 H1240 H -0.07286 0.81624 0.27977
 C1241 C 0.57078 0.71104 0.27489
 C1242 C 0.58087 0.71875 0.28699
 C1243 C 0.58123 0.70378 0.29591
 C1244 C 0.57134 0.69597 0.28390
 C1245 C 0.55662 0.71573 0.28393
 C1246 C 0.55696 0.70076 0.29285
 C1247 C 0.56652 0.72354 0.29593
 C1248 C 0.56708 0.70847 0.30496
 C1249 C 0.59501 0.69724 0.30252
 C1250 C 0.60638 0.69193 0.30794
 C1251 C 0.54314 0.72262 0.27707
 C1252 C 0.53236 0.72861 0.27116
 H1253 H 0.57215 0.71217 0.26244
 H1254 H 0.59085 0.72607 0.28464
 H1255 H 0.57348 0.68456 0.27902
 H1256 H 0.54698 0.69345 0.29518
 H1257 H 0.56439 0.73495 0.30081
 H1258 H 0.56573 0.70735 0.31741
 C1259 C 0.56201 0.21810 0.80026
 C1260 C 0.56514 0.20085 0.80179
 C1261 C 0.58132 0.20344 0.79579
 C1262 C 0.57839 0.22057 0.79437
 C1263 C 0.55671 0.21547 0.78390
 C1264 C 0.57290 0.21805 0.77791
 C1265 C 0.55963 0.19834 0.78531
 C1266 C 0.57602 0.20083 0.77943
 C1267 C 0.59510 0.19685 0.80236
 C1268 C 0.60648 0.19151 0.80776
 C1269 C 0.54323 0.22241 0.77707
 C1270 C 0.53244 0.22841 0.77117
 H1271 H 0.55610 0.22527 0.80875
 H1272 H 0.56212 0.19370 0.81169
 H1273 H 0.58626 0.22964 0.79814
 H1274 H 0.57594 0.22520 0.76801
 H1275 H 0.55176 0.18928 0.78153
 H1276 H 0.58194 0.19367 0.77093
 C1277 C 1.06447 0.70143 0.77802
 C1278 C 1.08001 0.70951 0.77943
 C1279 C 1.08123 0.70386 0.79584
 C1280 C 1.06589 0.69567 0.79454
 C1281 C 1.05663 0.71584 0.78391
 C1282 C 1.05783 0.71020 0.80032
 C1283 C 1.07197 0.72402 0.78521
 C1284 C 1.07339 0.71828 0.80173
 C1285 C 1.09500 0.69729 0.80244
 C1286 C 1.10637 0.69195 0.80786
 C1287 C 1.04314 0.72275 0.77706
 C1288 C 1.03236 0.72874 0.77115
 H1289 H 1.06065 0.69457 0.76820
 H1290 H 1.08928 0.70916 0.77091
 H1291 H 1.06356 0.68393 0.79845
 H1292 H 1.04856 0.71056 0.80883
 H1293 H 1.07432 0.73576 0.78131
 H1294 H 1.07722 0.72514 0.81154
 C1295 C 1.07086 0.21130 0.27485
 C1296 C 1.08081 0.21889 0.28714
 C1297 C 1.08121 0.20380 0.29583
 C1298 C 1.07146 0.19610 0.28363
 C1299 C 1.05661 0.21575 0.28386
 C1300 C 1.05699 0.20065 0.29255
 C1301 C 1.06637 0.22345 0.29605
 C1302 C 1.06697 0.20824 0.30485
 C1303 C 1.09499 0.19724 0.30244
 C1304 C 1.10636 0.19193 0.30786
 C1305 C 1.04313 0.22265 0.27700
 C1306 C 1.03235 0.22863 0.27109
 H1307 H 1.07231 0.21263 0.26243
 H1308 H 1.09075 0.22632 0.28498
 H1309 H 1.07373 0.18478 0.27859
 H1310 H 1.04704 0.19323 0.29470
 H1311 H 1.06412 0.23477 0.30109
 H1312 H 1.06553 0.20692 0.31727
 C1313 C 0.55668 0.29491 0.70253
 C1314 C 0.56796 0.30544 0.71095
 C1315 C 0.58123 0.29626 0.70432
 C1316 C 0.57018 0.28585 0.69579
 C1317 C 0.55667 0.28422 0.71627
 C1318 C 0.56995 0.27506 0.70964
 C1319 C 0.56773 0.29463 0.72480
 C1320 C 0.58120 0.28557 0.71806
 C1321 C 0.59499 0.30285 0.69772
 C1322 C 0.60635 0.30820 0.69229
 C1323 C 0.54320 0.27729 0.72312
 C1324 C 0.53243 0.27129 0.72903
 H1325 H 0.54645 0.29868 0.69621
 H1326 H 0.56731 0.31801 0.71143
 H1327 H 0.57135 0.28229 0.68379
 H1328 H 0.57062 0.26249 0.70916
 H1329 H 0.56656 0.29818 0.73681
 H1330 H 0.59142 0.28179 0.72438
 C1331 C 0.55660 0.79512 0.20251
 C1332 C 0.56790 0.80563 0.21092
 C1333 C 0.58115 0.79642 0.20429
 C1334 C 0.57008 0.78602 0.19578
 C1335 C 0.55658 0.78445 0.21627
 C1336 C 0.56984 0.77525 0.20964
 C1337 C 0.56766 0.79485 0.22478
 C1338 C 0.58111 0.78575 0.21805
 C1339 C 0.59492 0.80297 0.19768
 C1340 C 0.60630 0.80827 0.19226
 C1341 C 0.54312 0.77753 0.22314
 C1342 C 0.53235 0.77153 0.22905
 H1343 H 0.54637 0.79889 0.19621
 H1344 H 0.56727 0.81820 0.21138
 H1345 H 0.57124 0.78245 0.18378
 H1346 H 0.57049 0.76268 0.20918
 H1347 H 0.56651 0.79841 0.23679
 H1348 H 0.59133 0.78196 0.22436
 C1349 C 1.07052 0.28971 0.22542
 C1350 C 1.08098 0.28178 0.21376
 C1351 C 1.08121 0.29644 0.20435
 C1352 C 1.07094 0.30448 0.21591
 C1353 C 1.05663 0.28447 0.21630
 C1354 C 1.05684 0.29913 0.20690
 C1355 C 1.06690 0.27644 0.20474
 C1356 C 1.06733 0.29120 0.19522
 C1357 C 1.09497 0.30300 0.19774
 C1358 C 1.10633 0.30832 0.19230
 C1359 C 1.04315 0.27756 0.22315
 C1360 C 1.03237 0.27157 0.22904
 H1361 H 1.07168 0.28903 0.23792
 H1362 H 1.09106 0.27472 0.21652
 H1363 H 1.07277 0.31608 0.22044
 H1364 H 1.04675 0.30618 0.20415
 H1365 H 1.06509 0.26483 0.20022
 H1366 H 1.06618 0.29188 0.18272
 C1367 C 1.07285 0.78167 0.72209
 C1368 C 1.07821 0.77929 0.70556
 C1369 C 1.08123 0.79641 0.70429
 C1370 C 1.07607 0.79889 0.72073
 C1371 C 1.05664 0.78446 0.71626
 C1372 C 1.05965 0.80158 0.71501
 C1373 C 1.06180 0.78197 0.69983
 C1374 C 1.06503 0.79920 0.69846
 C1375 C 1.09500 0.80296 0.69768
 C1376 C 1.10636 0.80827 0.69224
 C1377 C 1.04316 0.77757 0.72312
 C1378 C 1.03237 0.77160 0.72903
 H1379 H 1.07591 0.77439 0.73188
 H1380 H 1.08599 0.77019 0.70162
 H1381 H 1.08210 0.80590 0.72925
 H1382 H 1.05187 0.81067 0.71896
 H1383 H 1.05578 0.77495 0.69131
 H1384 H 1.06199 0.80649 0.68866
 C1385 C 0.42900 0.72486 0.71185
 C1386 C 0.42849 0.71602 0.69671
 C1387 C 0.41870 0.70382 0.70439
 C1388 C 0.41902 0.71256 0.71943
 C1389 C 0.44324 0.71583 0.71637
 C1390 C 0.43345 0.70364 0.72406
 C1391 C 0.44294 0.70709 0.70133
 C1392 C 0.43293 0.69478 0.70891
 C1393 C 0.40496 0.69723 0.69777
 C1394 C 0.39362 0.69188 0.69233
 C1395 C 0.45669 0.72276 0.72323
 C1396 C 0.46745 0.72876 0.72915
 H1397 H 0.42754 0.73730 0.71312
 H1398 H 0.42628 0.72105 0.68539
 H1399 H 0.40904 0.71475 0.72681
 H1400 H 0.43565 0.69861 0.73538
 H1401 H 0.45292 0.70492 0.69396
 H1402 H 0.43438 0.68233 0.70764
 C1403 C 0.42934 0.22442 0.21168
 C1404 C 0.42885 0.21561 0.19652
 C1405 C 0.41904 0.20340 0.20417
 C1406 C 0.41934 0.21212 0.21922
 C1407 C 0.44356 0.21538 0.21621
 C1408 C 0.43375 0.20318 0.22386
 C1409 C 0.44328 0.20666 0.20115
 C1410 C 0.43325 0.19435 0.20870
 C1411 C 0.40530 0.19685 0.19752
 C1412 C 0.39394 0.19155 0.19208
 C1413 C 0.45700 0.22230 0.22309
 C1414 C 0.46775 0.22830 0.22901
 H1415 H 0.42789 0.23687 0.21297
 H1416 H 0.42667 0.22066 0.18521
 H1417 H 0.40935 0.21430 0.22658
 H1418 H 0.43592 0.19813 0.23518
 H1419 H 0.45328 0.20450 0.19380
 H1420 H 0.43469 0.18190 0.20741
 C1421 C -0.05868 0.69866 0.21291
 C1422 C -0.07481 0.69940 0.21990
 C1423 C -0.08122 0.70364 0.20428
 C1424 C -0.06531 0.70280 0.19717
 C1425 C -0.05668 0.71564 0.21626
 C1426 C -0.06309 0.71989 0.20064
 C1427 C -0.07259 0.71648 0.22335
 C1428 C -0.07920 0.72062 0.20764
 C1429 C -0.09497 0.69708 0.19767
 C1430 C -0.10633 0.69177 0.19224
 C1431 C -0.04323 0.72258 0.22312
 C1432 C -0.03248 0.72859 0.22902
 H1433 H -0.05008 0.68972 0.21514
 H1434 H -0.07979 0.69091 0.22775
 H1435 H -0.06248 0.69710 0.18633
 H1436 H -0.05812 0.72838 0.19280
 H1437 H -0.07544 0.72218 0.23420
 H1438 H -0.08779 0.72957 0.20542
 C1439 C -0.06397 0.20072 0.72152
 C1440 C -0.07978 0.20842 0.72097
 C1441 C -0.08127 0.20371 0.70430
 C1442 C -0.06567 0.19590 0.70473
 C1443 C -0.05672 0.21568 0.71628
 C1444 C -0.05820 0.21098 0.69960
 C1445 C -0.07233 0.22347 0.71584
 C1446 C -0.07402 0.21867 0.69906
 C1447 C -0.09502 0.19715 0.69767
 C1448 C -0.10637 0.19182 0.69223
 C1449 C -0.04326 0.22258 0.72315
 C1450 C -0.03249 0.22856 0.72906
 H1451 H -0.05967 0.19341 0.73082
 H1452 H -0.08880 0.20731 0.72969
 H1453 H -0.06310 0.18448 0.70009
 H1454 H -0.04918 0.21210 0.69089
 H1455 H -0.07492 0.23489 0.72048
 H1456 H -0.07832 0.22599 0.68977
 C1457 C 0.28355 0.43929 0.30074
 C1458 C 0.27933 0.42280 0.29641
 C1459 C 0.29631 0.41879 0.29584
 C1460 C 0.30064 0.43508 0.30027
 C1461 C 0.28431 0.44335 0.28383
 C1462 C 0.30128 0.43935 0.28325
 C1463 C 0.27999 0.42705 0.27941
 C1464 C 0.29705 0.42285 0.27894
 C1465 C 0.30287 0.40503 0.30247
 C1466 C 0.30818 0.39366 0.30790
 C1467 C 0.27739 0.45681 0.27696
 C1468 C 0.27140 0.46759 0.27104
 H1469 H 0.27793 0.44621 0.30962
 H1470 H 0.27038 0.41583 0.30188
 H1471 H 0.30921 0.43821 0.30893
 H1472 H 0.31023 0.44631 0.27777
 H1473 H 0.27142 0.42390 0.27076
 H1474 H 0.30266 0.41592 0.27004
 C1475 C 0.29111 -0.07052 0.77465
 C1476 C 0.30518 -0.07083 0.78516
 C1477 C 0.29673 -0.08178 0.79576
 C1478 C 0.28277 -0.08168 0.78534
 C1479 C 0.28470 -0.05718 0.78386
 C1480 C 0.27626 -0.06814 0.79445
 C1481 C 0.29867 -0.05727 0.79427
 C1482 C 0.29033 -0.06845 0.80497
 C1483 C 0.30332 -0.09556 0.80234
 C1484 C 0.30866 -0.10694 0.80776
 C1485 C 0.27777 -0.04368 0.77704
 C1486 C 0.27177 -0.03288 0.77117
 H1487 H 0.29136 -0.07123 0.76210
 H1488 H 0.31714 -0.07210 0.78140
 H1489 H 0.27630 -0.09186 0.78174
 H1490 H 0.26429 -0.06689 0.79821
 H1491 H 0.30512 -0.04708 0.79787
 H1492 H 0.29007 -0.06775 0.81752
 C1493 C 0.79183 0.43037 0.77493
 C1494 C 0.80521 0.43016 0.78632
 C1495 C 0.79643 0.41867 0.79605
 C1496 C 0.78317 0.41867 0.78476
 C1497 C 0.78445 0.44325 0.78407
 C1498 C 0.77568 0.43175 0.79379
 C1499 C 0.79771 0.44326 0.79535
 C1500 C 0.78905 0.43154 0.80519
 C1501 C 0.80299 0.40489 0.80265
 C1502 C 0.80830 0.39350 0.80806
 C1503 C 0.77754 0.45672 0.77719
 C1504 C 0.77155 0.46749 0.77126
 H1505 H 0.79291 0.43003 0.76241
 H1506 H 0.81742 0.42934 0.78331
 H1507 H 0.77726 0.40842 0.78047
 H1508 H 0.76347 0.43255 0.79680
 H1509 H 0.80361 0.45352 0.79963
 H1510 H 0.78797 0.43186 0.81771
 C1511 C 0.79086 -0.07038 0.27491
 C1512 C 0.80491 -0.07066 0.28546
 C1513 C 0.79641 -0.08155 0.29608
 C1514 C 0.78248 -0.08147 0.28563
 C1515 C 0.78446 -0.05699 0.28405
 C1516 C 0.77597 -0.06788 0.29467
 C1517 C 0.79840 -0.05705 0.29450
 C1518 C 0.79001 -0.06817 0.30523
 C1519 C 0.80296 -0.09532 0.30273
 C1520 C 0.80826 -0.10669 0.30816
 C1521 C 0.77757 -0.04351 0.27716
 C1522 C 0.77160 -0.03274 0.27123
 H1523 H 0.79115 -0.07114 0.26237
 H1524 H 0.81688 -0.07197 0.28174
 H1525 H 0.77600 -0.09165 0.28206
 H1526 H 0.76399 -0.06659 0.29839
 H1527 H 0.80486 -0.04686 0.29807
 H1528 H 0.78972 -0.06742 0.31777
 C1529 C 0.30124 0.56050 0.71660
 C1530 C 0.30039 0.56496 0.69964
 C1531 C 0.29623 0.58124 0.70430
 C1532 C 0.29719 0.57699 0.72115
 C1533 C 0.28424 0.55666 0.71623
 C1534 C 0.28008 0.57294 0.72088
 C1535 C 0.28327 0.56090 0.69938
 C1536 C 0.27923 0.57739 0.70394
 C1537 C 0.30281 0.59500 0.69771
 C1538 C 0.30815 0.60636 0.69228
 C1539 C 0.27733 0.54318 0.72307
 C1540 C 0.27135 0.53239 0.72897
 H1541 H 0.31022 0.55340 0.72187
 H1542 H 0.30882 0.56184 0.69082
 H1543 H 0.30296 0.58376 0.73003
 H1544 H 0.27165 0.57608 0.72969
 H1545 H 0.27749 0.55414 0.69050
 H1546 H 0.27024 0.58449 0.69868
 C1547 C 0.27712 1.06593 0.20339
 C1548 C 0.28107 1.08060 0.21218
 C1549 C 0.29652 1.08104 0.20411
 C1550 C 0.29267 1.06657 0.19521
 C1551 C 0.28446 1.05653 0.21609
 C1552 C 0.29991 1.05696 0.20803
 C1553 C 0.28831 1.07101 0.22498
 C1554 C 0.30387 1.07165 0.21681
 C1555 C 0.30312 1.09478 0.19749
 C1556 C 0.30845 1.10613 0.19206
 C1557 C 0.27751 1.04310 0.22297
 C1558 C 0.27149 1.03235 0.22889
 H1559 H 0.26604 1.06342 0.19795
 H1560 H 0.27340 1.09047 0.21382
 H1561 H 0.29453 1.06491 0.18289
 H1562 H 0.30757 1.04708 0.20640
 H1563 H 0.28644 1.07269 0.23730
 H1564 H 0.31493 1.07417 0.22226
 C1565 C 0.80135 0.56041 0.21652
 C1566 C 0.80050 0.56485 0.19956
 C1567 C 0.79636 0.58114 0.20421
 C1568 C 0.79732 0.57691 0.22106
 C1569 C 0.78435 0.55659 0.21616
 C1570 C 0.78021 0.57288 0.22080
 C1571 C 0.78338 0.56081 0.19931
 C1572 C 0.77935 0.57731 0.20386
 C1573 C 0.80293 0.59490 0.19761
 C1574 C 0.80825 0.60626 0.19220
 C1575 C 0.77742 0.54314 0.22302
 C1576 C 0.77142 0.53238 0.22893
 H1577 H 0.81032 0.55331 0.22180
 H1578 H 0.80893 0.56172 0.19074
 H1579 H 0.80310 0.58369 0.22993
 H1580 H 0.77179 0.57604 0.22961
 H1581 H 0.77758 0.55404 0.19044
 H1582 H 0.77037 0.58441 0.19859
 C1583 C 0.77874 1.06418 0.70149
 C1584 C 0.77966 1.07988 0.70931
 C1585 C 0.79629 1.08121 0.70422
 C1586 C 0.79548 1.06572 0.69629
 C1587 C 0.78424 1.05670 0.71622
 C1588 C 0.80087 1.05801 0.71114
 C1589 C 0.78506 1.07220 0.72413
 C1590 C 0.80179 1.07373 0.71895
 C1591 C 0.80289 1.09494 0.69761
 C1592 C 0.80823 1.10628 0.69218
 C1593 C 0.77730 1.04327 0.72310
 C1594 C 0.77129 1.03253 0.72904
 H1595 H 0.76919 1.06010 0.69439
 H1596 H 0.77101 1.08902 0.70850
 H1597 H 0.79983 1.06322 0.68476
 H1598 H 0.80951 1.04887 0.71196
 H1599 H 0.78070 1.07471 0.73566
 H1600 H 0.81133 1.07782 0.72606
 C1601 C 0.72497 0.57031 0.28963
 C1602 C 0.71373 0.58112 0.28152
 C1603 C 0.70384 0.58131 0.29585
 C1604 C 0.71497 0.57070 0.30406
 C1605 C 0.71573 0.55670 0.28388
 C1606 C 0.70584 0.55687 0.29821
 C1607 C 0.70460 0.56732 0.27567
 C1608 C 0.69459 0.56771 0.29010
 C1609 C 0.69731 0.59509 0.30246
 C1610 C 0.69201 0.60646 0.30789
 C1611 C 0.72260 0.54321 0.27702
 C1612 C 0.72857 0.53242 0.27111
 H1613 H 0.73753 0.57122 0.28937
 H1614 H 0.71692 0.59124 0.27473
 H1615 H 0.71918 0.57226 0.31580
 H1616 H 0.70267 0.54675 0.30499
 H1617 H 0.70040 0.56577 0.26392
 H1618 H 0.68202 0.56681 0.29036
 C1619 C 0.70761 1.05757 0.79943
 C1620 C 0.71647 1.07226 0.80326
 C1621 C 0.70372 1.08165 0.79595
 C1622 C 0.69475 1.06719 0.79222
 C1623 C 0.71563 1.05703 0.78399
 C1624 C 0.70289 1.06643 0.77667
 C1625 C 0.72459 1.07150 0.78773
 C1626 C 0.71175 1.08110 0.78051
 C1627 C 0.69719 1.09544 0.80256
 C1628 C 0.69187 1.10681 0.80799
 C1629 C 0.72250 1.04352 0.77715
 C1630 C 0.72846 1.03272 0.77125
 H1631 H 0.70597 1.04775 0.80713
 H1632 H 0.72199 1.07482 0.81426
 H1633 H 0.68240 1.06558 0.79413
 H1634 H 0.69738 1.06388 0.76567
 H1635 H 0.73694 1.07313 0.78581
 H1636 H 0.71340 1.09091 0.77280
 C1637 C 0.19852 0.55921 0.78602
 C1638 C 0.20164 0.56507 0.80227
 C1639 C 0.20369 0.58116 0.79587
 C1640 C 0.20046 0.57551 0.77973
 C1641 C 0.21563 0.55656 0.78391
 C1642 C 0.21768 0.57265 0.77753
 C1643 C 0.21887 0.56220 0.80005
 C1644 C 0.22080 0.57849 0.79376
 C1645 C 0.19715 0.59494 0.80247
 C1646 C 0.19185 0.60631 0.80789
 C1647 C 0.22252 0.54308 0.77706
 C1648 C 0.22851 0.53230 0.77114
 H1649 H 0.18944 0.55112 0.78276
 H1650 H 0.19497 0.56212 0.81252
 H1651 H 0.19284 0.58115 0.77145
 H1652 H 0.22434 0.57562 0.76728
 H1653 H 0.22650 0.55657 0.80832
 H1654 H 0.22990 0.58658 0.79700
 C1655 C 0.19862 1.05936 0.28590
 C1656 C 0.20176 1.06522 0.30215
 C1657 C 0.20382 1.08130 0.29575
 C1658 C 0.20058 1.07566 0.27962
 C1659 C 0.21573 1.05669 0.28379
 C1660 C 0.21778 1.07279 0.27740
 C1661 C 0.21898 1.06233 0.29992
 C1662 C 0.22093 1.07863 0.29363
 C1663 C 0.19729 1.09508 0.30236
 C1664 C 0.19198 1.10644 0.30779
 C1665 C 0.22261 1.04321 0.27693
 C1666 C 0.22858 1.03242 0.27102
 H1667 H 0.18953 1.05128 0.28265
 H1668 H 0.19509 1.06227 0.31241
 H1669 H 0.19295 1.08131 0.27134
 H1670 H 0.22445 1.07575 0.26715
 H1671 H 0.22662 1.05670 0.30819
 H1672 H 0.23003 1.08670 0.29687
 C1673 C 0.72013 0.42694 0.72079
 C1674 C 0.70306 0.42278 0.72125
 C1675 C 0.70384 0.41869 0.70436
 C1676 C 0.72082 0.42265 0.70380
 C1677 C 0.71583 0.44324 0.71632
 C1678 C 0.71661 0.43916 0.69943
 C1679 C 0.69885 0.43929 0.71688
 C1680 C 0.69952 0.43499 0.69987
 C1681 C 0.69727 0.40495 0.69774
 C1682 C 0.69193 0.39361 0.69230
 C1683 C 0.72273 0.45670 0.72318
 C1684 C 0.72871 0.46747 0.72909
 H1685 H 0.72869 0.42377 0.72947
 H1686 H 0.69744 0.41589 0.73015
 H1687 H 0.72978 0.41566 0.69837
 H1688 H 0.72225 0.44604 0.69053
 H1689 H 0.68989 0.44628 0.72233
 H1690 H 0.69097 0.43814 0.69119
 C1691 C 0.72006 -0.07308 0.22070
 C1692 C 0.70298 -0.07721 0.22117
 C1693 C 0.70374 -0.08128 0.20427
 C1694 C 0.72072 -0.07735 0.20371
 C1695 C 0.71578 -0.05677 0.21625
 C1696 C 0.71655 -0.06084 0.19935
 C1697 C 0.69879 -0.06069 0.21682
 C1698 C 0.69945 -0.06498 0.19980
 C1699 C 0.69717 -0.09502 0.19766
 C1700 C 0.69185 -0.10638 0.19225
 C1701 C 0.72272 -0.04334 0.22312
 C1702 C 0.72874 -0.03260 0.22904
 H1703 H 0.72861 -0.07626 0.22937
 H1704 H 0.69734 -0.08409 0.23007
 H1705 H 0.72967 -0.08436 0.19827
 H1706 H 0.72219 -0.05395 0.19046
 H1707 H 0.68985 -0.05368 0.22227
 H1708 H 0.69089 -0.06181 0.19113
 C1709 C 0.20343 0.44350 0.20376
 C1710 C 0.21239 0.43100 0.19521
 C1711 C 0.20370 0.41887 0.20421
 C1712 C 0.19463 0.43114 0.21265
 C1713 C 0.21566 0.44343 0.21615
 C1714 C 0.20698 0.43129 0.22514
 C1715 C 0.22472 0.43115 0.20771
 C1716 C 0.21593 0.41882 0.21660
 C1717 C 0.19714 0.40512 0.19761
 C1718 C 0.19182 0.39377 0.19220
 C1719 C 0.22256 0.45689 0.22299
 C1720 C 0.22855 0.46765 0.22890
 H1721 H 0.19836 0.45380 0.19856
 H1722 H 0.21455 0.43072 0.18283
 H1723 H 0.18218 0.43096 0.21462
 H1724 H 0.20482 0.43156 0.23753
 H1725 H 0.23717 0.43131 0.20574
 H1726 H 0.22101 0.40853 0.22181
 C1727 C 0.19874 -0.05969 0.71494
 C1728 C 0.20113 -0.06505 0.69839
 C1729 C 0.20383 -0.08126 0.70422
 C1730 C 0.20133 -0.07611 0.72066
 C1731 C 0.21588 -0.05676 0.71622
 C1732 C 0.21857 -0.07298 0.72204
 C1733 C 0.21839 -0.06191 0.69979
 C1734 C 0.22097 -0.07832 0.70551
 C1735 C 0.19723 -0.09497 0.69760
 C1736 C 0.19188 -0.10630 0.69217
 C1737 C 0.22283 -0.04335 0.72311
 C1738 C 0.22884 -0.03263 0.72905
 H1739 H 0.18967 -0.05187 0.71889
 H1740 H 0.19388 -0.06195 0.68859
 H1741 H 0.19426 -0.08211 0.72917
 H1742 H 0.22583 -0.07610 0.73184
 H1743 H 0.22547 -0.05591 0.69128
 H1744 H 0.23005 -0.08614 0.70158
 C1745 C 0.27541 0.29429 0.43244
 C1746 C 0.28924 0.30513 0.43215
 C1747 C 0.29595 0.29591 0.41898
 C1748 C 0.28221 0.28518 0.41907
 C1749 C 0.28399 0.28395 0.44354
 C1750 C 0.29070 0.27474 0.43036
 C1751 C 0.29773 0.29468 0.44347
 C1752 C 0.30454 0.28557 0.43007
 C1753 C 0.30251 0.30247 0.40522
 C1754 C 0.30786 0.30783 0.39385
 C1755 C 0.27712 0.27708 0.45700
 C1756 C 0.27116 0.27113 0.46777
 H1757 H 0.26335 0.29781 0.43357
 H1758 H 0.28871 0.31770 0.43272
 H1759 H 0.27590 0.28134 0.40889
 H1760 H 0.29123 0.26217 0.42977
 H1761 H 0.30404 0.29851 0.45365
 H1762 H 0.31659 0.28205 0.42893
 C1763 C 0.30150 0.78472 -0.06017
 C1764 C 0.29828 0.77943 -0.07659
 C1765 C 0.29633 0.79608 -0.08137
 C1766 C 0.29965 0.80149 -0.06517
 C1767 C 0.28440 0.78408 -0.05682
 C1768 C 0.28243 0.80073 -0.06160
 C1769 C 0.28108 0.77868 -0.07303
 C1770 C 0.27922 0.79543 -0.07801
 C1771 C 0.30289 0.80268 -0.09513
 C1772 C 0.30824 0.80806 -0.10649
 C1773 C 0.27752 0.77719 -0.04336
 C1774 C 0.27157 0.77125 -0.03260
 H1775 H 0.31059 0.78025 -0.05269
 H1776 H 0.30486 0.77074 -0.08291
 H1777 H 0.30737 0.81095 -0.06210
 H1778 H 0.27585 0.80941 -0.05529
 H1779 H 0.27337 0.76922 -0.07612
 H1780 H 0.27013 0.79988 -0.08550
 C1781 C 0.79934 0.27987 -0.06335
 C1782 C 0.79206 0.27955 -0.07931
 C1783 C 0.79581 0.29646 -0.08117
 C1784 C 0.80320 0.29691 -0.06542
 C1785 C 0.78389 0.28441 -0.05664
 C1786 C 0.78763 0.30133 -0.05849
 C1787 C 0.77651 0.28398 -0.07240
 C1788 C 0.78035 0.30100 -0.07446
 C1789 C 0.80236 0.30307 -0.09491
 C1790 C 0.80771 0.30845 -0.10627
 C1791 C 0.77703 0.27748 -0.04320
 C1792 C 0.77110 0.27148 -0.03246
 H1793 H 0.80708 0.27112 -0.05862
 H1794 H 0.79394 0.27066 -0.08801
 H1795 H 0.81425 0.30230 -0.06271
 H1796 H 0.78574 0.31021 -0.04978
 H1797 H 0.76546 0.27859 -0.07513
 H1798 H 0.77261 0.30974 -0.07920
 C1799 C 0.77524 0.79462 0.43242
 C1800 C 0.78906 0.80547 0.43211
 C1801 C 0.79575 0.79627 0.41892
 C1802 C 0.78203 0.78552 0.41903
 C1803 C 0.78388 0.78429 0.44350
 C1804 C 0.79056 0.77509 0.43030
 C1805 C 0.79759 0.79503 0.44340
 C1806 C 0.80439 0.78594 0.42998
 C1807 C 0.80228 0.80286 0.40514
 C1808 C 0.80761 0.80822 0.39377
 C1809 C 0.77704 0.77739 0.45697
 C1810 C 0.77113 0.77143 0.46774
 H1811 H 0.76319 0.79812 0.43358
 H1812 H 0.78851 0.81804 0.43268
 H1813 H 0.77570 0.78168 0.40887
 H1814 H 0.79111 0.76252 0.42970
 H1815 H 0.80392 0.79887 0.45357
 H1816 H 0.81644 0.78244 0.42881
 C1817 C 0.71876 0.27823 0.57266
 C1818 C 0.72109 0.29482 0.57794
 C1819 C 0.70397 0.29602 0.58105
 C1820 C 0.70154 0.27953 0.57598
 C1821 C 0.71587 0.28401 0.55650
 C1822 C 0.69875 0.28521 0.55960
 C1823 C 0.71830 0.30050 0.56157
 C1824 C 0.70107 0.30181 0.56490
 C1825 C 0.69743 0.30261 0.59482
 C1826 C 0.69209 0.30798 0.60619
 C1827 C 0.72273 0.27711 0.54304
 C1828 C 0.72867 0.27115 0.53228
 H1829 H 0.72611 0.26846 0.57572
 H1830 H 0.73020 0.29882 0.58563
 H1831 H 0.69459 0.27097 0.58206
 H1832 H 0.68964 0.28119 0.55191
 H1833 H 0.72527 0.30905 0.55550
 H1834 H 0.69372 0.31159 0.56187
 C1835 C 0.71382 0.77568 1.07158
 C1836 C 0.72014 0.78965 1.08011
 C1837 C 0.70397 0.79613 1.08108
 C1838 C 0.69754 0.78226 1.07275
 C1839 C 0.71595 0.78418 1.05653
 C1840 C 0.69978 0.79066 1.05749
 C1841 C 0.72239 0.79805 1.06487
 C1842 C 0.70611 0.80465 1.06604
 C1843 C 0.69739 0.80270 1.09483
 C1844 C 0.69203 0.80804 1.10620
 C1845 C 0.72284 0.77730 1.04308
 C1846 C 0.72880 0.77135 1.03233
 H1847 H 0.71706 0.76370 1.07372
 H1848 H 0.72844 0.78930 1.08956
 H1849 H 0.68726 0.77583 1.07616
 H1850 H 0.69149 0.79100 1.04803
 H1851 H 0.73268 0.80448 1.06147
 H1852 H 0.70287 0.81664 1.06392
 C1853 C 0.21586 0.30119 1.06016
 C1854 C 0.19896 0.29992 1.06488
 C1855 C 0.20400 0.29613 1.08110
 C1856 C 0.22079 0.29750 1.07659
 C1857 C 0.21593 0.28414 1.05655
 C1858 C 0.22096 0.28036 1.07278
 C1859 C 0.19914 0.28276 1.06106
 C1860 C 0.20408 0.27908 1.07749
 C1861 C 0.19744 0.30270 1.09486
 C1862 C 0.19209 0.30806 1.10622
 C1863 C 0.22280 0.27724 1.04310
 C1864 C 0.22873 0.27126 1.03235
 H1865 H 0.22078 0.31020 1.05288
 H1866 H 0.18983 0.30805 1.06180
 H1867 H 0.22962 0.30362 1.08314
 H1868 H 0.23009 0.27223 1.07589
 H1869 H 0.19031 0.27663 1.05452
 H1870 H 0.19917 0.27006 1.08478
 C1871 C 0.22209 0.78190 0.57250
 C1872 C 0.22030 0.79912 0.57552
 C1873 C 0.20396 0.79626 0.58093
 C1874 C 0.20566 0.77915 0.57811
 C1875 C 0.21596 0.78432 0.55639
 C1876 C 0.19962 0.78146 0.56179
 C1877 C 0.21427 0.80144 0.55920
 C1878 C 0.19782 0.79869 0.56483
 C1879 C 0.19738 0.80281 0.59469
 C1880 C 0.19203 0.80814 0.60606
 C1881 C 0.22285 0.77743 0.54295
 C1882 C 0.22881 0.77147 0.53221
 H1883 H 0.23214 0.77492 0.57551
 H1884 H 0.22873 0.80643 0.58133
 H1885 H 0.20206 0.77006 0.58603
 H1886 H 0.19120 0.77414 0.55599
 H1887 H 0.21788 0.81052 0.55128
 H1888 H 0.18776 0.80567 0.56184
 C1889 C 0.28004 0.72071 0.57275
 C1890 C 0.27907 0.70375 0.57723
 C1891 C 0.29608 0.70399 0.58105
 C1892 C 0.29714 0.72086 0.57677
 C1893 C 0.28413 0.71597 0.55650
 C1894 C 0.30114 0.71622 0.56032
 C1895 C 0.28306 0.69910 0.56079
 C1896 C 0.30019 0.69924 0.56482
 C1897 C 0.30264 0.69742 0.59482
 C1898 C 0.30799 0.69207 0.60619
 C1899 C 0.27726 0.72286 0.54305
 C1900 C 0.27131 0.72881 0.53229
 H1901 H 0.27167 0.72961 0.57587
 H1902 H 0.27006 0.69856 0.58434
 H1903 H 0.30300 0.72973 0.58350
 H1904 H 0.31015 0.72142 0.55322
 H1905 H 0.27720 0.69024 0.55406
 H1906 H 0.30855 0.69034 0.56173
 C1907 C 0.27815 0.21854 1.07272
 C1908 C 0.27961 0.20133 1.07595
 C1909 C 0.29606 0.20390 1.08113
 C1910 C 0.29469 0.22101 1.07810
 C1911 C 0.28405 0.21580 1.05657
 C1912 C 0.30050 0.21838 1.06175
 C1913 C 0.28541 0.19869 1.05959
 C1914 C 0.30198 0.20115 1.06498
 C1915 C 0.30266 0.19736 1.09488
 C1916 C 0.30803 0.19202 1.10624
 C1917 C 0.27715 0.22266 1.04312
 C1918 C 0.27119 0.22860 1.03236
 H1919 H 0.26828 0.22576 1.07576
 H1920 H 0.27109 0.19426 1.08195
 H1921 H 0.29857 0.23012 1.08586
 H1922 H 0.30901 0.22546 1.05575
 H1923 H 0.28152 0.18958 1.05183
 H1924 H 0.31185 0.19392 1.06197
 C1925 C 0.79790 0.70525 1.05663
 C1926 C 0.80453 0.71437 1.07009
 C1927 C 0.79600 0.70392 1.08111
 C1928 C 0.78947 0.69469 1.06788
 C1929 C 0.78404 0.71585 1.05654
 C1930 C 0.77551 0.70540 1.06757
 C1931 C 0.79057 0.72507 1.06978
 C1932 C 0.78215 0.71452 1.08100
 C1933 C 0.80257 0.69736 1.09487
 C1934 C 0.80794 0.69202 1.10623
 C1935 C 0.77718 0.72273 1.04308
 C1936 C 0.77125 0.72869 1.03232
 H1937 H 0.80429 0.70151 1.04646
 H1938 H 0.81654 0.71799 1.07129
 H1939 H 0.78908 0.68211 1.06726
 H1940 H 0.76350 0.70178 1.06638
 H1941 H 0.79096 0.73765 1.07042
 H1942 H 0.77574 0.71827 1.09117
 C1943 C 0.77813 0.21837 0.57254
 C1944 C 0.77960 0.20116 0.57577
 C1945 C 0.79605 0.20374 0.58093
 C1946 C 0.79467 0.22085 0.57791
 C1947 C 0.78402 0.21564 0.55639
 C1948 C 0.80047 0.21822 0.56155
 C1949 C 0.78539 0.19853 0.55940
 C1950 C 0.80195 0.20100 0.56479
 C1951 C 0.80265 0.19721 0.59469
 C1952 C 0.80801 0.19190 0.60607
 C1953 C 0.77711 0.22251 0.54295
 C1954 C 0.77115 0.22848 0.53221
 H1955 H 0.76825 0.22559 0.57559
 H1956 H 0.77108 0.19409 0.58177
 H1957 H 0.79855 0.22996 0.58567
 H1958 H 0.80898 0.22531 0.55556
 H1959 H 0.78150 0.18943 0.55164
 H1960 H 0.81183 0.19377 0.56177
 C1961 C 0.71351 0.72452 0.42866
 C1962 C 0.72001 0.71069 0.42002
 C1963 C 0.70394 0.70399 0.41913
 C1964 C 0.69734 0.71774 0.42757
 C1965 C 0.71588 0.71598 0.44365
 C1966 C 0.69980 0.70929 0.44278
 C1967 C 0.72248 0.70224 0.43520
 C1968 C 0.70630 0.69543 0.43411
 C1969 C 0.69739 0.69741 0.40538
 C1970 C 0.69206 0.69206 0.39402
 C1971 C 0.72275 0.72288 0.45709
 C1972 C 0.72869 0.72884 0.46783
 H1973 H 0.71655 0.73657 0.42656
 H1974 H 0.72825 0.71119 0.41051
 H1975 H 0.68693 0.72404 0.42427
 H1976 H 0.69157 0.70880 0.45229
 H1977 H 0.73289 0.69594 0.43849
 H1978 H 0.70326 0.68339 0.43619
 C1979 C 0.71878 0.19948 -0.06192
 C1980 C 0.70155 0.19776 -0.06502
 C1981 C 0.70408 0.20377 -0.08116
 C1982 C 0.72119 0.20539 -0.07827
 C1983 C 0.71595 0.21586 -0.05665
 C1984 C 0.71846 0.22186 -0.07280
 C1985 C 0.69882 0.21425 -0.05954
 C1986 C 0.70125 0.22015 -0.07589
 C1987 C 0.69756 0.19714 -0.09490
 C1988 C 0.69223 0.19175 -0.10626
 C1989 C 0.72279 0.22279 -0.04322
 C1990 C 0.72871 0.22877 -0.03247
 H1991 H 0.72606 0.19106 -0.05602
 H1992 H 0.69452 0.18776 -0.06198
 H1993 H 0.73032 0.20170 -0.08612
 H1994 H 0.72549 0.23185 -0.07586
 H1995 H 0.68970 0.21796 -0.05169
 H1996 H 0.69398 0.22857 -0.08180
 C1997 C 0.19945 0.71796 -0.06138
 C1998 C 0.20484 0.72101 -0.07780
 C1999 C 0.20405 0.70390 -0.08103
 C2000 C 0.19855 0.70073 -0.06482
 C2001 C 0.21607 0.71588 -0.05655
 C2002 C 0.21530 0.69878 -0.05976
 C2003 C 0.22156 0.71904 -0.07277
 C2004 C 0.22068 0.70184 -0.07619
 C2005 C 0.19745 0.69733 -0.09475
 C2006 C 0.19209 0.69198 -0.10610
 C2007 C 0.22299 0.72279 -0.04314
 C2008 C 0.22897 0.72875 -0.03242
 H2009 H 0.19079 0.72465 -0.05514
 H2010 H 0.20048 0.73008 -0.08537
 H2011 H 0.18901 0.69313 -0.06171
 H2012 H 0.21966 0.68971 -0.05219
 H2013 H 0.23111 0.72665 -0.07589
 H2014 H 0.22934 0.69515 -0.08244
 C2015 C 0.22217 0.21797 0.42754
 C2016 C 0.22014 0.20076 0.42465
 C2017 C 0.20391 0.20387 0.41907
 C2018 C 0.20585 0.22097 0.42176
 C2019 C 0.21584 0.21581 0.44362
 C2020 C 0.19961 0.21892 0.43803
 C2021 C 0.21390 0.19870 0.44094
 C2022 C 0.19756 0.20170 0.43514
 C2023 C 0.19736 0.19731 0.40531
 C2024 C 0.19202 0.19198 0.39395
 C2025 C 0.22271 0.22268 0.45706
 C2026 C 0.22865 0.22863 0.46782
 H2027 H 0.23238 0.22473 0.42456
 H2028 H 0.22851 0.19324 0.41899
 H2029 H 0.20249 0.23006 0.41372
 H2030 H 0.19125 0.22646 0.44369
 H2031 H 0.21728 0.18962 0.44898
 H2032 H 0.18736 0.19493 0.43809
 C2033 C 0.30144 0.44074 0.71403
 C2034 C 0.29945 0.42441 0.72026
 C2035 C 0.29629 0.41882 0.70409
 C2036 C 0.29838 0.43492 0.69775
 C2037 C 0.28432 0.44340 0.71607
 C2038 C 0.28115 0.43781 0.69990
 C2039 C 0.28223 0.42729 0.72240
 C2040 C 0.27917 0.42150 0.70614
 C2041 C 0.30284 0.40505 0.69749
 C2042 C 0.30815 0.39368 0.69208
 C2043 C 0.27741 0.45686 0.72294
 C2044 C 0.27142 0.46763 0.72887
 H2045 H 0.31052 0.44880 0.71735
 H2046 H 0.30703 0.41875 0.72856
 H2047 H 0.30510 0.43790 0.68754
 H2048 H 0.27356 0.44347 0.69161
 H2049 H 0.27551 0.42430 0.73261
 H2050 H 0.27008 0.41344 0.70283
 C2051 C 0.28145 0.93815 0.19968
 C2052 C 0.29870 0.93523 0.19773
 C2053 C 0.29646 0.91906 0.20384
 C2054 C 0.27933 0.92177 0.20568
 C2055 C 0.28442 0.94353 0.21595
 C2056 C 0.28218 0.92735 0.22205
 C2057 C 0.30155 0.94083 0.21412
 C2058 C 0.29942 0.92444 0.22012
 C2059 C 0.30305 0.90534 0.19716
 C2060 C 0.30838 0.89400 0.19170
 C2061 C 0.27747 0.95695 0.22288
 C2062 C 0.27146 0.96768 0.22883
 H2063 H 0.27400 0.94394 0.19135
 H2064 H 0.30557 0.93830 0.18764
 H2065 H 0.27025 0.91378 0.20216
 H2066 H 0.27531 0.92427 0.23214
 H2067 H 0.31061 0.94882 0.21766
 H2068 H 0.30686 0.91864 0.22845
 C2069 C 0.79461 0.43225 0.22457
 C2070 C 0.78550 0.41895 0.21764
 C2071 C 0.79632 0.41895 0.20399
 C2072 C 0.80554 0.43206 0.21082
 C2073 C 0.78434 0.44349 0.21605
 C2074 C 0.79516 0.44351 0.20240
 C2075 C 0.77514 0.43037 0.20922
 C2076 C 0.78605 0.43018 0.19546
 C2077 C 0.80288 0.40521 0.19733
 C2078 C 0.80820 0.39387 0.19187
 C2079 C 0.77743 0.45693 0.22295
 C2080 C 0.77144 0.46768 0.22889
 H2081 H 0.79805 0.43326 0.23662
 H2082 H 0.78159 0.40870 0.22383
 H2083 H 0.81812 0.43258 0.21141
 H2084 H 0.79906 0.45376 0.19622
 H2085 H 0.76256 0.42983 0.20863
 H2086 H 0.78260 0.42916 0.18342
 C2087 C 0.78782 0.94180 0.69934
 C2088 C 0.80346 0.93497 0.70365
 C2089 C 0.79619 0.91914 0.70420
 C2090 C 0.78066 0.92575 0.69979
 C2091 C 0.78418 0.94366 0.71625
 C2092 C 0.77692 0.92782 0.71680
 C2093 C 0.79971 0.93705 0.72067
 C2094 C 0.79255 0.92101 0.72111
 C2095 C 0.80278 0.90541 0.69754
 C2096 C 0.80813 0.89407 0.69208
 C2097 C 0.77725 0.95710 0.72316
 C2098 C 0.77125 0.96786 0.72910
 H2099 H 0.78580 0.95049 0.69047
 H2100 H 0.81446 0.93774 0.69817
 H2101 H 0.77289 0.92094 0.69114
 H2102 H 0.76593 0.92503 0.72228
 H2103 H 0.80747 0.94185 0.72933
 H2104 H 0.79455 0.91231 0.72999
 C2105 C 0.70050 0.56346 0.72117
 C2106 C 0.70796 0.57937 0.72110
 C2107 C 0.70372 0.58109 0.70431
 C2108 C 0.69614 0.56539 0.70428
 C2109 C 0.71573 0.55650 0.71626
 C2110 C 0.71149 0.55821 0.69948
 C2111 C 0.72329 0.57221 0.71629
 C2112 C 0.71895 0.57413 0.69941
 C2113 C 0.69714 0.59486 0.69772
 C2114 C 0.69182 0.60625 0.69232
 C2115 C 0.72265 0.54303 0.72312
 C2116 C 0.72865 0.53225 0.72904
 H2117 H 0.69299 0.55892 0.73019
 H2118 H 0.70646 0.58821 0.72992
 H2119 H 0.68490 0.56275 0.69927
 H2120 H 0.71301 0.54936 0.69067
 H2121 H 0.73453 0.57487 0.72130
 H2122 H 0.72647 0.57867 0.69040
 C2123 C 0.72321 0.06552 0.20330
 C2124 C 0.70758 0.06626 0.19528
 C2125 C 0.70392 0.08083 0.20411
 C2126 C 0.71944 0.08030 0.21202
 C2127 C 0.71592 0.05629 0.21615
 C2128 C 0.71226 0.07087 0.22496
 C2129 C 0.70039 0.05681 0.20824
 C2130 C 0.69663 0.07161 0.21696
 C2131 C 0.69735 0.09458 0.19746
 C2132 C 0.69201 0.10593 0.19201
 C2133 C 0.72283 0.04284 0.22305
 C2134 C 0.72882 0.03208 0.22899
 H2135 H 0.73421 0.06286 0.19775
 H2136 H 0.70559 0.06453 0.18299
 H2137 H 0.72721 0.09010 0.21351
 H2138 H 0.71426 0.07262 0.23725
 H2139 H 0.69264 0.04700 0.20676
 H2140 H 0.68564 0.07428 0.22251
 C2141 C 0.22290 0.56584 0.20320
 C2142 C 0.20727 0.56659 0.19518
 C2143 C 0.20362 0.58116 0.20402
 C2144 C 0.21914 0.58062 0.21192
 C2145 C 0.21561 0.55661 0.21605
 C2146 C 0.21196 0.57119 0.22487
 C2147 C 0.20008 0.55714 0.20815
 C2148 C 0.19633 0.57193 0.21687
 C2149 C 0.19705 0.59491 0.19737
 C2150 C 0.19172 0.60626 0.19191
 C2151 C 0.22252 0.54315 0.22294
 C2152 C 0.22852 0.53238 0.22887
 H2153 H 0.23390 0.56318 0.19765
 H2154 H 0.20528 0.56486 0.18290
 H2155 H 0.22691 0.59041 0.21342
 H2156 H 0.21395 0.57293 0.23716
 H2157 H 0.19233 0.54733 0.20667
 H2158 H 0.18534 0.57461 0.22242
 C2159 C 0.22302 0.06543 0.70346
 C2160 C 0.20738 0.06608 0.69546
 C2161 C 0.20367 0.08066 0.70426
 C2162 C 0.21920 0.08021 0.71215
 C2163 C 0.21579 0.05620 0.71634
 C2164 C 0.21208 0.07078 0.72513
 C2165 C 0.20026 0.05663 0.70845
 C2166 C 0.19644 0.07143 0.71714
 C2167 C 0.19704 0.09438 0.69758
 C2168 C 0.19167 0.10571 0.69212
 C2169 C 0.22277 0.04278 0.72325
 C2170 C 0.22881 0.03203 0.72918
 H2171 H 0.23403 0.06282 0.69791
 H2172 H 0.20538 0.06432 0.68317
 H2173 H 0.22692 0.09005 0.71361
 H2174 H 0.21408 0.07257 0.73741
 H2175 H 0.19255 0.04679 0.70700
 H2176 H 0.18544 0.07406 0.72270
 C2177 C 0.28013 0.57283 0.27918
 C2178 C 0.27927 0.57723 0.29613
 C2179 C 0.29628 0.58109 0.29575
 C2180 C 0.29723 0.57689 0.27890
 C2181 C 0.28429 0.55654 0.28380
 C2182 C 0.30130 0.56039 0.28341
 C2183 C 0.28333 0.56073 0.30066
 C2184 C 0.30045 0.56480 0.30038
 C2185 C 0.30283 0.59485 0.30234
 C2186 C 0.30814 0.60621 0.30774
 C2187 C 0.27738 0.54308 0.27695
 C2188 C 0.27139 0.53233 0.27103
 H2189 H 0.27169 0.57599 0.27039
 H2190 H 0.27029 0.58430 0.30142
 H2191 H 0.30300 0.58370 0.27002
 H2192 H 0.31027 0.55331 0.27811
 H2193 H 0.27755 0.55393 0.30953
 H2194 H 0.30889 0.56166 0.30918
 C2195 C 0.28325 0.07218 0.77713
 C2196 C 0.27940 0.07857 0.79300
 C2197 C 0.29643 0.08085 0.79594
 C2198 C 0.30038 0.07466 0.78016
 C2199 C 0.28454 0.05623 0.78405
 C2200 C 0.30158 0.05849 0.78699
 C2201 C 0.28058 0.06242 0.79982
 C2202 C 0.29773 0.06491 0.80288
 C2203 C 0.30294 0.09465 0.80250
 C2204 C 0.30822 0.10604 0.80788
 C2205 C 0.27768 0.04274 0.77722
 C2206 C 0.27172 0.03196 0.77131
 H2207 H 0.27722 0.07502 0.76646
 H2208 H 0.27035 0.08697 0.79553
 H2209 H 0.30858 0.07985 0.77215
 H2210 H 0.31062 0.05009 0.78445
 H2211 H 0.27237 0.05723 0.80784
 H2212 H 0.30376 0.06208 0.81355
 C2213 C 0.78320 0.57241 0.77710
 C2214 C 0.77939 0.57878 0.79299
 C2215 C 0.79643 0.58098 0.79593
 C2216 C 0.80035 0.57481 0.78013
 C2217 C 0.78443 0.55644 0.78398
 C2218 C 0.80148 0.55863 0.78691
 C2219 C 0.78051 0.56261 0.79978
 C2220 C 0.79767 0.56501 0.80282
 C2221 C 0.80300 0.59474 0.80252
 C2222 C 0.80831 0.60611 0.80792
 C2223 C 0.77750 0.54299 0.77712
 C2224 C 0.77151 0.53223 0.77121
 H2225 H 0.77717 0.57531 0.76644
 H2226 H 0.77037 0.58721 0.79555
 H2227 H 0.80856 0.57999 0.77212
 H2228 H 0.81048 0.55019 0.78434
 H2229 H 0.77229 0.55744 0.80778
 H2230 H 0.80370 0.56213 0.81348
 C2231 C 0.78275 0.07233 0.27745
 C2232 C 0.77947 0.07828 0.29362
 C2233 C 0.79658 0.08078 0.29591
 C2234 C 0.79995 0.07503 0.27983
 C2235 C 0.78459 0.05624 0.28394
 C2236 C 0.80170 0.05873 0.28621
 C2237 C 0.78120 0.06200 0.30001
 C2238 C 0.79842 0.06471 0.30240
 C2239 C 0.80314 0.09454 0.30252
 C2240 C 0.80844 0.10590 0.30794
 C2241 C 0.77767 0.04279 0.27708
 C2242 C 0.77168 0.03203 0.27117
 H2243 H 0.77623 0.07531 0.26712
 H2244 H 0.77040 0.08647 0.29672
 H2245 H 0.80772 0.08055 0.27160
 H2246 H 0.81076 0.05054 0.28310
 H2247 H 0.77343 0.05649 0.30823
 H2248 H 0.80494 0.06174 0.31274
 C2249 C 0.71797 0.43831 0.30029
 C2250 C 0.70073 0.43498 0.30143
 C2251 C 0.70371 0.41879 0.29570
 C2252 C 0.72084 0.42191 0.29467
 C2253 C 0.71568 0.44339 0.28381
 C2254 C 0.71866 0.42719 0.27809
 C2255 C 0.69855 0.44027 0.28482
 C2256 C 0.70143 0.42386 0.27921
 C2257 C 0.69715 0.40501 0.30227
 C2258 C 0.69183 0.39364 0.30767
 C2259 C 0.72258 0.45687 0.27698
 C2260 C 0.72856 0.46765 0.27108
 H2261 H 0.72483 0.44440 0.30889
 H2262 H 0.69327 0.43802 0.31111
 H2263 H 0.72993 0.41420 0.29877
 H2264 H 0.72611 0.42413 0.26841
 H2265 H 0.68947 0.44798 0.28071
 H2266 H 0.69458 0.41776 0.27061
 C2267 C 0.70535 0.93243 0.77540
 C2268 C 0.71446 0.91908 0.78231
 C2269 C 0.70358 0.91899 0.79590
 C2270 C 0.69436 0.93214 0.78910
 C2271 C 0.71555 0.94361 0.78403
 C2272 C 0.70467 0.94354 0.79763
 C2273 C 0.72476 0.93045 0.79083
 C2274 C 0.71378 0.93016 0.80454
 C2275 C 0.69702 0.90520 0.80245
 C2276 C 0.69171 0.89381 0.80783
 C2277 C 0.72244 0.95710 0.77721
 C2278 C 0.72841 0.96788 0.77131
 H2279 H 0.70196 0.93352 0.76334
 H2280 H 0.71843 0.90888 0.77607
 H2281 H 0.68178 0.93267 0.78845
 H2282 H 0.70072 0.95375 0.80385
 H2283 H 0.73733 0.92991 0.79148
 H2284 H 0.71718 0.92906 0.81659
 C2285 C 0.20537 0.43217 0.77529
 C2286 C 0.21446 0.41883 0.78225
 C2287 C 0.20359 0.41883 0.79586
 C2288 C 0.19440 0.43197 0.78901
 C2289 C 0.21560 0.44337 0.78386
 C2290 C 0.20474 0.44338 0.79747
 C2291 C 0.22479 0.43022 0.79071
 C2292 C 0.21383 0.43002 0.80443
 C2293 C 0.19696 0.40508 0.80241
 C2294 C 0.19158 0.39372 0.80778
 C2295 C 0.22253 0.45681 0.77698
 C2296 C 0.22853 0.46757 0.77106
 H2297 H 0.20195 0.43319 0.76324
 H2298 H 0.21841 0.40859 0.77608
 H2299 H 0.18182 0.43251 0.78840
 H2300 H 0.20082 0.45363 0.80365
 H2301 H 0.23737 0.42967 0.79133
 H2302 H 0.21727 0.42899 0.81648
 C2303 C 0.21789 0.93835 0.30022
 C2304 C 0.20064 0.93503 0.30135
 C2305 C 0.20362 0.91883 0.29564
 C2306 C 0.22075 0.92194 0.29461
 C2307 C 0.21561 0.94341 0.28373
 C2308 C 0.21858 0.92720 0.27803
 C2309 C 0.19848 0.94031 0.28475
 C2310 C 0.20135 0.92389 0.27915
 C2311 C 0.19705 0.90506 0.30223
 C2312 C 0.19172 0.89370 0.30765
 C2313 C 0.22253 0.95688 0.27689
 C2314 C 0.22852 0.96765 0.27099
 H2315 H 0.22475 0.94445 0.30881
 H2316 H 0.19319 0.93808 0.31103
 H2317 H 0.22984 0.91423 0.29872
 H2318 H 0.22603 0.92414 0.26836
 H2319 H 0.18940 0.94802 0.28062
 H2320 H 0.19449 0.91779 0.27055
 C2321 C 0.43167 0.29364 0.72498
 C2322 C 0.43151 0.30535 0.71189
 C2323 C 0.41885 0.29621 0.70417
 C2324 C 0.41880 0.28461 0.71716
 C2325 C 0.44341 0.28422 0.71618
 C2326 C 0.43074 0.27509 0.70846
 C2327 C 0.44348 0.29582 0.70319
 C2328 C 0.43059 0.28679 0.69537
 C2329 C 0.40508 0.30278 0.69755
 C2330 C 0.39371 0.30810 0.69212
 C2331 C 0.45688 0.27730 0.72306
 C2332 C 0.46765 0.27131 0.72899
 H2333 H 0.43226 0.29638 0.73723
 H2334 H 0.43166 0.31787 0.71323
 H2335 H 0.40851 0.28006 0.72283
 H2336 H 0.43058 0.26256 0.70712
 H2337 H 0.45377 0.30035 0.69753
 H2338 H 0.42998 0.28403 0.68312
 C2339 C 0.43170 0.79394 0.22483
 C2340 C 0.43162 0.80564 0.21173
 C2341 C 0.41896 0.79652 0.20398
 C2342 C 0.41884 0.78493 0.21697
 C2343 C 0.44346 0.78449 0.21608
 C2344 C 0.43079 0.77538 0.20832
 C2345 C 0.44359 0.79608 0.20309
 C2346 C 0.43072 0.78707 0.19522
 C2347 C 0.40524 0.80311 0.19729
 C2348 C 0.39389 0.80844 0.19182
 C2349 C 0.45688 0.77754 0.22301
 C2350 C 0.46762 0.77153 0.22896
 H2351 H 0.43226 0.79669 0.23708
 H2352 H 0.43178 0.81816 0.21307
 H2353 H 0.40852 0.78041 0.22261
 H2354 H 0.43061 0.76285 0.20699
 H2355 H 0.45392 0.80059 0.19746
 H2356 H 0.43015 0.78431 0.18297
 C2357 C 0.93161 0.29387 0.22486
 C2358 C 0.93146 0.30557 0.21177
 C2359 C 0.91881 0.29641 0.20404
 C2360 C 0.91876 0.28482 0.21704
 C2361 C 0.94337 0.28446 0.21608
 C2362 C 0.93072 0.27531 0.20836
 C2363 C 0.94344 0.29605 0.20309
 C2364 C 0.93057 0.28700 0.19526
 C2365 C 0.90505 0.30296 0.19739
 C2366 C 0.89370 0.30828 0.19194
 C2367 C 0.95683 0.27755 0.22298
 C2368 C 0.96760 0.27155 0.22891
 H2369 H 0.93219 0.29663 0.23711
 H2370 H 0.93159 0.31810 0.21310
 H2371 H 0.90847 0.28027 0.22270
 H2372 H 0.93057 0.26278 0.20703
 H2373 H 0.95374 0.30059 0.19744
 H2374 H 0.92998 0.28423 0.18301
 C2375 C 0.93886 0.78307 0.69942
 C2376 C 0.92237 0.77950 0.70437
 C2377 C 0.91879 0.79656 0.70417
 C2378 C 0.93508 0.80025 0.69912
 C2379 C 0.94336 0.78456 0.71616
 C2380 C 0.93979 0.80162 0.71598
 C2381 C 0.92707 0.78088 0.72120
 C2382 C 0.92329 0.79804 0.72091
 C2383 C 0.90503 0.80314 0.69755
 C2384 C 0.89368 0.80848 0.69211
 C2385 C 0.95682 0.77764 0.72304
 C2386 C 0.96759 0.77164 0.72897
 H2387 H 0.94542 0.77684 0.69066
 H2388 H 0.91505 0.77047 0.69954
 H2389 H 0.93820 0.80829 0.68996
 H2390 H 0.94711 0.81064 0.72082
 H2391 H 0.92392 0.77284 0.73036
 H2392 H 0.91673 0.80426 0.72968
 C2393 C 0.56505 0.29808 0.27724
 C2394 C 0.56619 0.30469 0.29346
 C2395 C 0.58129 0.29621 0.29562
 C2396 C 0.58036 0.28971 0.27951
 C2397 C 0.55672 0.28420 0.28370
 C2398 C 0.57183 0.27573 0.28587
 C2399 C 0.55764 0.29070 0.29981
 C2400 C 0.57296 0.28233 0.30207
 C2401 C 0.59504 0.30279 0.30221
 C2402 C 0.60639 0.30812 0.30763
 C2403 C 0.54325 0.27727 0.27688
 C2404 C 0.53248 0.27127 0.27100
 H2405 H 0.56164 0.30448 0.26696
 H2406 H 0.56404 0.31668 0.29665
 H2407 H 0.58984 0.28936 0.27124
 H2408 H 0.57399 0.26374 0.28267
 H2409 H 0.54814 0.29103 0.30808
 H2410 H 0.57637 0.27591 0.31235
 C2411 C 0.56937 0.79179 0.77482
 C2412 C 0.56956 0.80523 0.78611
 C2413 C 0.58102 0.79650 0.79592
 C2414 C 0.58103 0.78316 0.78473
 C2415 C 0.55645 0.78451 0.78399
 C2416 C 0.56792 0.77579 0.79380
 C2417 C 0.55642 0.79785 0.79518
 C2418 C 0.56811 0.78922 0.80510
 C2419 C 0.59479 0.80306 0.80251
 C2420 C 0.60617 0.80838 0.80791
 C2421 C 0.54297 0.77761 0.77715
 C2422 C 0.53220 0.77162 0.77125
 H2423 H 0.56973 0.79277 0.76229
 H2424 H 0.57039 0.81741 0.78302
 H2425 H 0.59130 0.77719 0.78049
 H2426 H 0.56710 0.76361 0.79689
 H2427 H 0.54615 0.80381 0.79941
 H2428 H 0.56776 0.78823 0.81762
 C2429 C 0.07009 0.29022 0.77477
 C2430 C 0.07038 0.30461 0.78483
 C2431 C 0.08100 0.29634 0.79590
 C2432 C 0.08090 0.28206 0.78595
 C2433 C 0.05645 0.28435 0.78392
 C2434 C 0.06707 0.27608 0.79499
 C2435 C 0.05654 0.29864 0.79388
 C2436 C 0.06737 0.29047 0.80506
 C2437 C 0.09475 0.30296 0.80245
 C2438 C 0.10612 0.30832 0.80781
 C2439 C 0.04300 0.27744 0.77705
 C2440 C 0.03225 0.27144 0.77114
 H2441 H 0.07107 0.29007 0.76224
 H2442 H 0.07194 0.31642 0.78074
 H2443 H 0.09105 0.27529 0.78277
 H2444 H 0.06553 0.26427 0.79909
 H2445 H 0.04637 0.30538 0.79706
 H2446 H 0.06641 0.29061 0.81760
 C2447 C 0.06209 0.78134 0.29990
 C2448 C 0.07841 0.77932 0.29368
 C2449 C 0.08108 0.79642 0.29566
 C2450 C 0.06496 0.79856 0.30199
 C2451 C 0.05649 0.78447 0.28372
 C2452 C 0.05914 0.80158 0.28569
 C2453 C 0.07262 0.78234 0.27741
 C2454 C 0.07548 0.79955 0.27948
 C2455 C 0.09484 0.80297 0.30227
 C2456 C 0.10620 0.80828 0.30770
 C2457 C 0.04302 0.77757 0.27689
 C2458 C 0.03224 0.77158 0.27100
 H2459 H 0.05642 0.77379 0.30823
 H2460 H 0.08648 0.77023 0.29702
 H2461 H 0.06197 0.80531 0.31218
 H2462 H 0.05107 0.81066 0.28234
 H2463 H 0.07562 0.77560 0.26722
 H2464 H 0.08115 0.80709 0.27115
 C2465 C 0.56023 0.71592 0.69937
 C2466 C 0.57674 0.72061 0.70320
 C2467 C 0.58108 0.70376 0.70439
 C2468 C 0.56479 0.69896 0.70046
 C2469 C 0.55651 0.71580 0.71637
 C2470 C 0.56084 0.69895 0.71757
 C2471 C 0.57281 0.72059 0.72029
 C2472 C 0.57735 0.70365 0.72139
 C2473 C 0.59485 0.69717 0.69778
 C2474 C 0.60623 0.69184 0.69236
 C2475 C 0.54303 0.72274 0.72323
 C2476 C 0.53225 0.72874 0.72915
 H2477 H 0.55305 0.72103 0.69039
 H2478 H 0.58343 0.72945 0.69723
 H2479 H 0.56165 0.68998 0.69223
 H2480 H 0.55415 0.69012 0.72355
 H2481 H 0.57597 0.72957 0.72851
 H2482 H 0.58454 0.69855 0.73037
 C2483 C 0.56018 0.21500 0.19912
 C2484 C 0.57666 0.22012 0.20248
 C2485 C 0.58133 0.20341 0.20418
 C2486 C 0.56507 0.19817 0.20072
 C2487 C 0.55676 0.21541 0.21618
 C2488 C 0.56143 0.19869 0.21788
 C2489 C 0.57304 0.22063 0.21963
 C2490 C 0.57791 0.20382 0.22123
 C2491 C 0.59510 0.19684 0.19755
 C2492 C 0.60646 0.19150 0.19211
 C2493 C 0.54329 0.22233 0.22305
 C2494 C 0.53251 0.22833 0.22897
 H2495 H 0.55274 0.21967 0.19011
 H2496 H 0.58308 0.22887 0.19609
 H2497 H 0.56196 0.18886 0.19286
 H2498 H 0.55501 0.18996 0.22429
 H2499 H 0.57616 0.22995 0.22749
 H2500 H 0.58535 0.19917 0.23025
 C2501 C 0.07126 0.72450 0.21296
 C2502 C 0.08046 0.71120 0.21983
 C2503 C 0.08109 0.70376 0.20411
 C2504 C 0.07209 0.71697 0.19715
 C2505 C 0.05653 0.71573 0.21616
 C2506 C 0.05714 0.70830 0.20044
 C2507 C 0.06554 0.70252 0.22313
 C2508 C 0.06637 0.69498 0.20730
 C2509 C 0.09485 0.69720 0.19746
 C2510 C 0.10621 0.69188 0.19200
 C2511 C 0.04306 0.72264 0.22305
 C2512 C 0.03228 0.72863 0.22897
 H2513 H 0.07312 0.73672 0.21536
 H2514 H 0.09020 0.71233 0.22773
 H2515 H 0.07494 0.72285 0.18640
 H2516 H 0.04741 0.70718 0.19255
 H2517 H 0.06269 0.69665 0.23388
 H2518 H 0.06453 0.68275 0.20490
 C2519 C 0.06270 0.21938 0.70049
 C2520 C 0.07887 0.22033 0.70729
 C2521 C 0.08098 0.20330 0.70425
 C2522 C 0.06501 0.20224 0.69734
 C2523 C 0.05647 0.21542 0.71626
 C2524 C 0.05857 0.19838 0.71322
 C2525 C 0.07245 0.21647 0.72316
 C2526 C 0.07476 0.19934 0.72002
 C2527 C 0.09473 0.19667 0.69762
 C2528 C 0.10608 0.19131 0.69218
 C2529 C 0.04303 0.22240 0.72314
 C2530 C 0.03228 0.22844 0.72907
 H2531 H 0.05758 0.22770 0.69253
 H2532 H 0.08737 0.22929 0.70480
 H2533 H 0.06212 0.19631 0.68664
 H2534 H 0.05007 0.18944 0.71572
 H2535 H 0.07536 0.22240 0.73385
 H2536 H 0.07988 0.19104 0.72798
 C2537 C 0.44323 0.70556 0.29803
 C2538 C 0.42938 0.71462 0.30402
 C2539 C 0.41878 0.70357 0.29572
 C2540 C 0.43240 0.69441 0.28983
 C2541 C 0.44335 0.71561 0.28381
 C2542 C 0.43274 0.70456 0.27551
 C2543 C 0.42971 0.72476 0.28970
 C2544 C 0.41891 0.71362 0.28151
 C2545 C 0.40501 0.69699 0.30230
 C2546 C 0.39363 0.69167 0.30770
 C2547 C 0.45682 0.72255 0.27697
 C2548 C 0.46759 0.72856 0.27108
 H2549 H 0.45339 0.70233 0.30474
 H2550 H 0.42783 0.71869 0.31582
 H2551 H 0.43334 0.68184 0.28996
 H2552 H 0.43428 0.70050 0.26371
 H2553 H 0.42876 0.73732 0.28957
 H2554 H 0.40876 0.71686 0.27478
 C2555 C 0.42725 0.21762 0.77760
 C2556 C 0.42442 0.20041 0.77966
 C2557 C 0.41880 0.20349 0.79584
 C2558 C 0.42144 0.22061 0.79388
 C2559 C 0.44338 0.21551 0.78391
 C2560 C 0.43776 0.21860 0.80009
 C2561 C 0.44075 0.19839 0.78586
 C2562 C 0.43492 0.20137 0.80216
 C2563 C 0.40503 0.19691 0.80243
 C2564 C 0.39366 0.19158 0.80783
 C2565 C 0.45685 0.22243 0.77706
 C2566 C 0.46763 0.22843 0.77115
 H2567 H 0.42424 0.22438 0.76742
 H2568 H 0.41877 0.19287 0.77133
 H2569 H 0.41335 0.22967 0.79723
 H2570 H 0.44341 0.22615 0.80841
 H2571 H 0.44885 0.18934 0.78250
 H2572 H 0.43791 0.19461 0.81235
 C2573 C 0.94329 0.70568 0.79811
 C2574 C 0.92943 0.71470 0.80412
 C2575 C 0.91884 0.70364 0.79583
 C2576 C 0.93248 0.69450 0.78993
 C2577 C 0.94338 0.71573 0.78390
 C2578 C 0.93279 0.70467 0.77561
 C2579 C 0.92973 0.72485 0.78980
 C2580 C 0.91894 0.71369 0.78162
 C2581 C 0.90509 0.69702 0.80242
 C2582 C 0.89372 0.69168 0.80782
 C2583 C 0.95683 0.72270 0.77705
 C2584 C 0.96758 0.72872 0.77114
 H2585 H 0.95346 0.70247 0.80482
 H2586 H 0.92788 0.71877 0.81592
 H2587 H 0.93345 0.68194 0.79004
 H2588 H 0.93432 0.70061 0.76381
 H2589 H 0.92874 0.73741 0.78968
 H2590 H 0.90878 0.71691 0.77490
 C2591 C 0.94256 0.20892 0.29984
 C2592 C 0.92725 0.21727 0.30225
 C2593 C 0.91889 0.20344 0.29576
 C2594 C 0.93397 0.19497 0.29345
 C2595 C 0.94339 0.21553 0.28376
 C2596 C 0.93502 0.20171 0.27727
 C2597 C 0.92830 0.22399 0.28607
 C2598 C 0.91973 0.21006 0.27969
 C2599 C 0.90516 0.19682 0.30239
 C2600 C 0.89381 0.19147 0.30783
 C2601 C 0.95683 0.22251 0.27690
 C2602 C 0.96758 0.22854 0.27099
 H2603 H 0.95209 0.20852 0.30804
 H2604 H 0.92389 0.22361 0.31258
 H2605 H 0.93614 0.18296 0.29656
 H2606 H 0.93838 0.19538 0.26693
 H2607 H 0.92611 0.23600 0.28297
 H2608 H 0.91020 0.21047 0.27148
 C2609 C 0.27741 0.28231 0.57257
 C2610 C 0.29356 0.27892 0.57862
 C2611 C 0.29598 0.29600 0.58106
 C2612 C 0.27993 0.29949 0.57521
 C2613 C 0.28401 0.28402 0.55655
 C2614 C 0.28642 0.30110 0.55898
 C2615 C 0.30006 0.28051 0.56239
 C2616 C 0.30260 0.29771 0.56504
 C2617 C 0.30256 0.30257 0.59479
 C2618 C 0.30792 0.30793 0.60614
 C2619 C 0.27712 0.27713 0.54312
 C2620 C 0.27116 0.27117 0.53239
 H2621 H 0.26697 0.27591 0.57553
 H2622 H 0.29655 0.26986 0.58684
 H2623 H 0.27172 0.30736 0.58065
 H2624 H 0.28342 0.31015 0.55076
 H2625 H 0.30827 0.27264 0.55697
 H2626 H 0.31304 0.30412 0.56211
 C2627 C 0.28430 0.80120 0.05994
 C2628 C 0.27938 0.79746 0.07637
 C2629 C 0.29617 0.79611 0.08087
 C2630 C 0.30121 0.79996 0.06465
 C2631 C 0.28431 0.78416 0.05629
 C2632 C 0.30111 0.78280 0.06079
 C2633 C 0.27928 0.78033 0.07251
 C2634 C 0.29617 0.77907 0.07721
 C2635 C 0.30269 0.80268 0.09463
 C2636 C 0.30802 0.80803 0.10600
 C2637 C 0.27748 0.77729 0.04283
 C2638 C 0.27155 0.77134 0.03207
 H2639 H 0.27935 0.81023 0.05268
 H2640 H 0.27051 0.80355 0.08293
 H2641 H 0.31031 0.80811 0.06158
 H2642 H 0.30996 0.77670 0.05422
 H2643 H 0.27019 0.77218 0.07560
 H2644 H 0.30111 0.77004 0.08447
 C2645 C 0.77485 0.29129 0.06930
 C2646 C 0.78497 0.28272 0.08080
 C2647 C 0.79603 0.29618 0.08080
 C2648 C 0.78600 0.30487 0.06949
 C2649 C 0.78404 0.28420 0.05630
 C2650 C 0.79509 0.29767 0.05627
 C2651 C 0.79406 0.27553 0.06761
 C2652 C 0.80523 0.28910 0.06781
 C2653 C 0.80261 0.30277 0.09453
 C2654 C 0.80797 0.30812 0.10588
 C2655 C 0.77713 0.27731 0.04287
 C2656 C 0.77117 0.27135 0.03214
 H2657 H 0.76228 0.29212 0.06976
 H2658 H 0.78088 0.27664 0.09103
 H2659 H 0.78275 0.31700 0.07043
 H2660 H 0.79917 0.30375 0.04604
 H2661 H 0.79731 0.26339 0.06669
 H2662 H 0.81780 0.28826 0.06736
 C2663 C 0.77515 0.78808 0.57100
 C2664 C 0.78802 0.78087 0.58054
 C2665 C 0.79603 0.79633 0.58102
 C2666 C 0.78326 0.80365 0.57168
 C2667 C 0.78408 0.78429 0.55653
 C2668 C 0.79209 0.79976 0.55700
 C2669 C 0.79685 0.77697 0.56587
 C2670 C 0.80498 0.79254 0.56656
 C2671 C 0.80260 0.80293 0.59475
 C2672 C 0.80794 0.80831 0.60610
 C2673 C 0.77719 0.77738 0.54311
 C2674 C 0.77124 0.77141 0.53238
 H2675 H 0.76280 0.78617 0.57268
 H2676 H 0.78641 0.77317 0.59036
 H2677 H 0.77774 0.81468 0.57424
 H2678 H 0.79369 0.80745 0.54717
 H2679 H 0.80237 0.76594 0.56334
 H2680 H 0.81732 0.79445 0.56490
 C2681 C 0.28522 0.72401 0.42806
 C2682 C 0.30181 0.71836 0.42655
 C2683 C 0.29595 0.70388 0.41884
 C2684 C 0.27947 0.70944 0.42015
 C2685 C 0.28406 0.71587 0.44341
 C2686 C 0.27820 0.70140 0.43570
 C2687 C 0.30055 0.71032 0.44211
 C2688 C 0.29479 0.69573 0.43418
 C2689 C 0.30250 0.69730 0.40508
 C2690 C 0.30784 0.69193 0.39372
 C2691 C 0.27722 0.72277 0.45687
 C2692 C 0.27129 0.72874 0.46763
 H2693 H 0.28121 0.73572 0.42569
 H2694 H 0.31158 0.72527 0.42262
 H2695 H 0.27087 0.70902 0.41097
 H2696 H 0.26842 0.69449 0.43961
 H2697 H 0.30914 0.71075 0.45130
 H2698 H 0.29880 0.68402 0.43653
 C2699 C 0.29705 0.20409 0.94357
 C2700 C 0.28832 0.19449 0.93173
 C2701 C 0.29593 0.20364 0.91902
 C2702 C 0.30477 0.21313 0.93063
 C2703 C 0.28396 0.21563 0.94355
 C2704 C 0.29158 0.22477 0.93082
 C2705 C 0.27513 0.20614 0.93193
 C2706 C 0.28285 0.21517 0.91901
 C2707 C 0.30252 0.19706 0.90527
 C2708 C 0.30789 0.19170 0.89391
 C2709 C 0.27708 0.22253 0.95699
 C2710 C 0.27114 0.22851 0.96773
 H2711 H 0.30280 0.19961 0.95382
 H2712 H 0.28704 0.18196 0.93194
 H2713 H 0.31704 0.21594 0.92993
 H2714 H 0.29285 0.23729 0.93059
 H2715 H 0.26286 0.20333 0.93261
 H2716 H 0.27708 0.21966 0.90877
 C2717 C 0.79722 0.70427 0.94356
 C2718 C 0.78848 0.69466 0.93173
 C2719 C 0.79611 0.70379 0.91900
 C2720 C 0.80495 0.71329 0.93060
 C2721 C 0.78414 0.71582 0.94352
 C2722 C 0.79177 0.72494 0.93078
 C2723 C 0.77530 0.70632 0.93191
 C2724 C 0.78303 0.71533 0.91898
 C2725 C 0.80268 0.69718 0.90526
 C2726 C 0.80803 0.69180 0.89391
 C2727 C 0.77726 0.72274 0.95695
 C2728 C 0.77131 0.72872 0.96769
 H2729 H 0.80298 0.69981 0.95381
 H2730 H 0.78720 0.68214 0.93196
 H2731 H 0.81722 0.71609 0.92989
 H2732 H 0.79305 0.73746 0.93053
 H2733 H 0.76304 0.70352 0.93260
 H2734 H 0.77726 0.71981 0.90873
 C2735 C 0.79587 0.20287 0.44346
 C2736 C 0.78685 0.19477 0.43074
 C2737 C 0.79599 0.20369 0.41889
 C2738 C 0.80511 0.21168 0.43137
 C2739 C 0.78401 0.21567 0.44342
 C2740 C 0.79314 0.22457 0.43155
 C2741 C 0.77489 0.20767 0.43092
 C2742 C 0.78413 0.21648 0.41886
 C2743 C 0.80257 0.19711 0.40513
 C2744 C 0.80793 0.19175 0.39377
 C2745 C 0.77711 0.22256 0.45686
 C2746 C 0.77116 0.22853 0.46761
 H2747 H 0.80062 0.19736 0.45372
 H2748 H 0.78434 0.18245 0.43025
 H2749 H 0.81761 0.21326 0.43139
 H2750 H 0.79566 0.23690 0.43203
 H2751 H 0.76239 0.20609 0.43088
 H2752 H 0.77937 0.22200 0.40861
 C2753 C 0.72378 0.29597 0.43342
 C2754 C 0.71886 0.28697 0.41920
 C2755 C 0.70396 0.29604 0.41886
 C2756 C 0.70878 0.30515 0.43288
 C2757 C 0.71590 0.28407 0.44342
 C2758 C 0.70100 0.29314 0.44310
 C2759 C 0.71108 0.27497 0.42939
 C2760 C 0.69607 0.28414 0.42885
 C2761 C 0.69739 0.30260 0.40510
 C2762 C 0.69204 0.30795 0.39373
 C2763 C 0.72276 0.27718 0.45687
 C2764 C 0.72869 0.27121 0.46763
 H2765 H 0.73525 0.30077 0.43545
 H2766 H 0.72613 0.28450 0.40922
 H2767 H 0.70776 0.31764 0.43415
 H2768 H 0.69373 0.29560 0.45308
 H2769 H 0.71210 0.26248 0.42809
 H2770 H 0.68461 0.27934 0.42680
 C2771 C 0.71907 0.77871 0.92734
 C2772 C 0.70185 0.77967 0.92396
 C2773 C 0.70395 0.79625 0.91901
 C2774 C 0.72107 0.79539 0.92219
 C2775 C 0.71597 0.78430 0.94353
 C2776 C 0.71808 0.80088 0.93859
 C2777 C 0.69884 0.78516 0.94036
 C2778 C 0.70084 0.80185 0.93519
 C2779 C 0.69734 0.80280 0.90526
 C2780 C 0.69196 0.80814 0.89390
 C2781 C 0.72287 0.77741 0.95697
 C2782 C 0.72883 0.77143 0.96771
 H2783 H 0.72664 0.76912 0.92425
 H2784 H 0.69511 0.77102 0.91778
 H2785 H 0.73014 0.79965 0.91457
 H2786 H 0.72482 0.80952 0.94476
 H2787 H 0.68978 0.78088 0.94798
 H2788 H 0.69326 0.81145 0.93826
 C2789 C 0.20133 0.29382 0.94335
 C2790 C 0.20940 0.30523 0.93269
 C2791 C 0.20382 0.29605 0.91899
 C2792 C 0.19565 0.28475 0.92943
 C2793 C 0.21580 0.28408 0.94353
 C2794 C 0.21023 0.27491 0.92983
 C2795 C 0.22398 0.29537 0.93308
 C2796 C 0.21829 0.28630 0.91918
 C2797 C 0.19723 0.30263 0.90524
 C2798 C 0.19186 0.30799 0.89388
 C2799 C 0.22270 0.27718 0.95697
 C2800 C 0.22865 0.27121 0.96772
 H2801 H 0.19444 0.29683 0.95344
 H2802 H 0.20900 0.31778 0.93370
 H2803 H 0.18393 0.28043 0.92778
 H2804 H 0.21064 0.26236 0.92880
 H2805 H 0.23570 0.29967 0.93474
 H2806 H 0.22520 0.28328 0.90911
 C2807 C 0.20455 0.79748 0.44346
 C2808 C 0.21359 0.80498 0.43038
 C2809 C 0.20387 0.79620 0.41892
 C2810 C 0.19472 0.78881 0.43177
 C2811 C 0.21592 0.78425 0.44344
 C2812 C 0.20619 0.77547 0.43197
 C2813 C 0.22506 0.79164 0.43057
 C2814 C 0.21523 0.78296 0.41891
 C2815 C 0.19725 0.80275 0.40518
 C2816 C 0.19187 0.80810 0.39382
 C2817 C 0.22284 0.77736 0.45687
 C2818 C 0.22881 0.77140 0.46761
 H2819 H 0.20024 0.80338 0.45370
 H2820 H 0.21657 0.81719 0.42956
 H2821 H 0.18217 0.78771 0.43210
 H2822 H 0.20322 0.76326 0.43276
 H2823 H 0.23761 0.79273 0.43022
 H2824 H 0.21955 0.77706 0.40867
 C2825 C 0.71513 0.72384 0.57211
 C2826 C 0.69841 0.71868 0.57372
 C2827 C 0.70393 0.70391 0.58116
 C2828 C 0.72055 0.70898 0.57975
 C2829 C 0.71591 0.71591 0.55664
 C2830 C 0.72143 0.70114 0.56408
 C2831 C 0.69928 0.71085 0.55803
 C2832 C 0.70469 0.69596 0.56570
 C2833 C 0.69734 0.69732 0.59491
 C2834 C 0.69198 0.69196 0.60627
 C2835 C 0.72279 0.72282 0.54320
 C2836 C 0.72874 0.72879 0.53245
 H2837 H 0.71950 0.73538 0.57461
 H2838 H 0.68888 0.72583 0.57785
 H2839 H 0.72922 0.70814 0.58883
 H2840 H 0.73096 0.69400 0.55997
 H2841 H 0.69061 0.71169 0.54895
 H2842 H 0.70032 0.68442 0.56322
 C2843 C 0.71527 0.22371 0.07186
 C2844 C 0.69855 0.21853 0.07351
 C2845 C 0.70412 0.20376 0.08093
 C2846 C 0.72073 0.20886 0.07948
 C2847 C 0.71601 0.21579 0.05638
 C2848 C 0.72157 0.20103 0.06380
 C2849 C 0.69939 0.21071 0.05782
 C2850 C 0.70485 0.19583 0.06546
 C2851 C 0.69758 0.19716 0.09469
 C2852 C 0.69224 0.19179 0.10605
 C2853 C 0.72285 0.22271 0.04292
 C2854 C 0.72876 0.22869 0.03216
 H2855 H 0.71962 0.23526 0.07434
 H2856 H 0.68903 0.22566 0.07767
 H2857 H 0.72943 0.20804 0.08853
 H2858 H 0.73111 0.19390 0.05965
 H2859 H 0.69070 0.21154 0.04876
 H2860 H 0.70049 0.18428 0.06299
 C2861 C 0.21527 0.72397 0.07180
 C2862 C 0.19853 0.71883 0.07338
 C2863 C 0.20402 0.70405 0.08083
 C2864 C 0.22065 0.70910 0.07945
 C2865 C 0.21606 0.71603 0.05633
 C2866 C 0.22155 0.70126 0.06378
 C2867 C 0.19942 0.71100 0.05770
 C2868 C 0.20480 0.69610 0.06537
 C2869 C 0.19741 0.69747 0.09457
 C2870 C 0.19204 0.69210 0.10592
 C2871 C 0.22298 0.72292 0.04290
 C2872 C 0.22897 0.72887 0.03215
 H2873 H 0.21965 0.73550 0.07431
 H2874 H 0.18901 0.72598 0.07749
 H2875 H 0.22931 0.70825 0.08855
 H2876 H 0.23108 0.69410 0.05969
 H2877 H 0.19077 0.71185 0.04860
 H2878 H 0.20043 0.68457 0.06289
 C2879 C 0.21625 0.22310 0.57243
 C2880 C 0.19925 0.21913 0.57453
 C2881 C 0.20392 0.20371 0.58120
 C2882 C 0.22081 0.20759 0.57930
 C2883 C 0.21582 0.21574 0.55666
 C2884 C 0.22049 0.20033 0.56334
 C2885 C 0.19892 0.21188 0.55855
 C2886 C 0.20349 0.19635 0.56544
 C2887 C 0.19737 0.19710 0.59496
 C2888 C 0.19202 0.19171 0.60631
 C2889 C 0.22268 0.22266 0.54321
 C2890 C 0.22863 0.22862 0.53245
 H2891 H 0.22156 0.23418 0.57516
 H2892 H 0.19045 0.22680 0.57930
 H2893 H 0.22974 0.20576 0.58799
 H2894 H 0.22930 0.19267 0.55858
 H2895 H 0.19000 0.21372 0.54987
 H2896 H 0.19817 0.18527 0.56274
   
