data_POSCAR
  _audit_creation_date              2014-09-24
  _audit_creation_method            'ToBaCCo'
  _symmetry_space_group_name_H-M    'P1'
  _symmetry_Int_Tables_number       1
  _symmetry_cell_setting            triclinic
  loop_
  _symmetry_equiv_pos_as_xyz
 x,y,z
_cell_length_a 74.6346
_cell_length_b 74.6247
_cell_length_c 74.5695
_cell_angle_alpha 89.991400
_cell_angle_beta 89.998400
_cell_angle_gamma 89.935400
loop_
  _atom_site_label
  _atom_site_type_symbol
  _atom_site_fract_x
  _atom_site_fract_y
  _atom_site_fract_z
C1 C 0.36543 1.35299 0.33904
 C2 C 0.36540 1.33968 0.35232
 C3 C 0.35226 1.33970 0.36544
 C4 C 0.33899 1.35301 0.36545
 C5 C 0.33901 1.36617 0.35232
 C6 C 0.35231 1.36615 0.33903
 C7 C 0.37624 1.35598 0.32437
 N8 N 0.36993 1.37059 0.31562
 C9 C 0.35534 1.37695 0.32436
 C10 C 0.32434 1.37698 0.35534
 N11 N 0.31559 1.37062 0.36993
 C12 C 0.32432 1.35601 0.37624
 C13 C 0.35523 1.32500 0.37622
 N14 N 0.36981 1.31622 0.36990
 C15 C 0.37616 1.32498 0.35532
 H16 H 0.38766 1.34802 0.32024
 H17 H 0.34743 1.38840 0.32022
 H18 H 0.32021 1.38842 0.34741
 H19 H 0.32018 1.34806 0.38766
 H20 H 0.34729 1.32086 0.38764
 H21 H 0.38759 1.32081 0.34740
 C22 C 0.36492 0.85266 0.83961
 C23 C 0.36506 0.83950 0.85303
 C24 C 0.35204 0.83960 0.86628
 C25 C 0.33872 0.85287 0.86626
 C26 C 0.33858 0.86588 0.85299
 C27 C 0.35176 0.86578 0.83959
 C28 C 0.37556 0.85553 0.82480
 N29 N 0.36912 0.87001 0.81594
 C30 C 0.35460 0.87640 0.82476
 C31 C 0.32389 0.87667 0.85600
 N32 N 0.31527 0.87045 0.87072
 C33 C 0.32411 0.85594 0.87713
 C34 C 0.35515 0.82502 0.87716
 N35 N 0.36969 0.81622 0.87079
 C36 C 0.37589 0.82485 0.85607
 H37 H 0.38696 0.84757 0.82062
 H38 H 0.34660 0.88776 0.82055
 H39 H 0.31965 0.88800 0.84797
 H40 H 0.32009 0.84809 0.88867
 H41 H 0.34731 0.82096 0.88868
 H42 H 0.38724 0.82064 0.84808
 C43 C 0.86457 1.35248 0.83825
 C44 C 0.86453 1.33924 0.85160
 C45 C 0.85137 1.33930 0.86470
 C46 C 0.83808 1.35260 0.86461
 C47 C 0.83811 1.36569 0.85142
 C48 C 0.85144 1.36563 0.83816
 C49 C 0.87543 1.35544 0.82361
 N50 N 0.86914 1.37002 0.81480
 C51 C 0.85451 1.37640 0.82347
 C52 C 0.82345 1.37653 0.85438
 N53 N 0.81469 1.37027 0.86900
 C54 C 0.82341 1.35568 0.87540
 C55 C 0.85437 1.32469 0.87558
 N56 N 0.86898 1.31591 0.86934
 C57 C 0.87533 1.32459 0.85472
 H58 H 0.88689 1.34750 0.81956
 H59 H 0.84661 1.38784 0.81928
 H60 H 0.81935 1.38796 0.84641
 H61 H 0.81927 1.34780 0.88687
 H62 H 0.84643 1.32061 0.88703
 H63 H 0.88680 1.32042 0.84685
 C64 C 0.86575 0.85247 0.33854
 C65 C 0.86576 0.83919 0.35185
 C66 C 0.85260 0.83919 0.36496
 C67 C 0.83928 0.85246 0.36492
 C68 C 0.83927 0.86558 0.35177
 C69 C 0.85258 0.86559 0.33850
 C70 C 0.87657 0.85549 0.32388
 N71 N 0.87023 0.87007 0.31511
 C72 C 0.85560 0.87639 0.32382
 C73 C 0.82457 0.87635 0.35476
 N74 N 0.81582 0.87002 0.36936
 C75 C 0.82460 0.85545 0.37570
 C76 C 0.85562 0.82454 0.37578
 N77 N 0.87024 0.81580 0.36950
 C78 C 0.87657 0.82454 0.35490
 H79 H 0.88804 0.84757 0.31979
 H80 H 0.84765 0.88781 0.31967
 H81 H 0.82041 0.88778 0.34683
 H82 H 0.82047 0.84754 0.38714
 H83 H 0.84769 0.82040 0.38721
 H84 H 0.88803 0.82040 0.34701
 C85 C 0.63364 0.64659 0.33938
 C86 C 0.63381 0.65997 0.35258
 C87 C 0.64712 0.66006 0.36553
 C88 C 0.66042 0.64677 0.36544
 C89 C 0.66026 0.63355 0.35239
 C90 C 0.64679 0.63346 0.33929
 C91 C 0.62269 0.64353 0.32482
 N92 N 0.62895 0.62891 0.31607
 C93 C 0.64364 0.62261 0.32468
 C94 C 0.67503 0.62284 0.35523
 N95 N 0.68399 0.62929 0.36963
 C96 C 0.67528 0.64389 0.37600
 C97 C 0.64429 0.67483 0.37623
 N98 N 0.62963 0.68356 0.37003
 C99 C 0.62309 0.67470 0.35561
 H100 H 0.61123 0.65147 0.32076
 H101 H 0.65156 0.61118 0.32049
 H102 H 0.67911 0.61139 0.34730
 H103 H 0.67960 0.65193 0.38728
 H104 H 0.65239 0.67907 0.38750
 H105 H 0.61157 0.67881 0.34779
 C106 C 0.63503 0.14744 0.83815
 C107 C 0.63515 0.16082 0.85135
 C108 C 0.64842 0.16093 0.86434
 C109 C 0.66173 0.14765 0.86430
 C110 C 0.66162 0.13442 0.85125
 C111 C 0.64819 0.13431 0.83810
 C112 C 0.62409 0.14434 0.82360
 N113 N 0.63036 0.12969 0.81489
 C114 C 0.64505 0.12342 0.82352
 C115 C 0.67637 0.12368 0.85416
 N116 N 0.68526 0.13015 0.86861
 C117 C 0.67654 0.14477 0.87494
 C118 C 0.64552 0.17569 0.87505
 N119 N 0.63086 0.18439 0.86881
 C120 C 0.62439 0.17552 0.85436
 H121 H 0.61261 0.15225 0.81953
 H122 H 0.65296 0.11197 0.81937
 H123 H 0.68045 0.11221 0.84625
 H124 H 0.68079 0.15281 0.88626
 H125 H 0.65357 0.17993 0.88635
 H126 H 0.61288 0.17962 0.84651
 C127 C 1.13463 0.64694 0.83978
 C128 C 1.13470 0.66040 0.85290
 C129 C 1.14794 0.66060 0.86592
 C130 C 1.16127 0.64734 0.86599
 C131 C 1.16119 0.63403 0.85302
 C132 C 1.14779 0.63383 0.83984
 C133 C 1.12377 0.64377 0.82519
 N134 N 1.13008 0.62910 0.81655
 C135 C 1.14473 0.62290 0.82529
 C136 C 1.17596 0.62334 0.85599
 N137 N 1.18483 0.62991 0.87041
 C138 C 1.17608 0.64454 0.87665
 C139 C 1.14503 0.67545 0.87650
 N140 N 1.13040 0.68412 0.87016
 C141 C 1.12395 0.67514 0.85576
 H142 H 1.11231 0.65164 0.82101
 H143 H 1.15268 0.61146 0.82119
 H144 H 1.18009 0.61185 0.84814
 H145 H 1.18031 0.65267 0.88791
 H146 H 1.15308 0.67978 0.88777
 H147 H 1.11248 0.67920 0.84785
 C148 C 1.13449 0.14671 0.33895
 C149 C 1.13455 0.16008 0.35216
 C150 C 1.14776 0.16016 0.36522
 C151 C 1.16107 0.14687 0.36522
 C152 C 1.16100 0.13366 0.35216
 C153 C 1.14764 0.13358 0.33895
 C154 C 1.12366 0.14366 0.32430
 N155 N 1.12999 0.12905 0.31559
 C156 C 1.14461 0.12274 0.32431
 C157 C 1.17576 0.12294 0.35509
 N158 N 1.18461 0.12940 0.36957
 C159 C 1.17585 0.14400 0.37590
 C160 C 1.14486 0.17494 0.37589
 N161 N 1.13026 0.18369 0.36957
 C162 C 1.12383 0.17482 0.35510
 H163 H 1.11223 0.15161 0.32016
 H164 H 1.15257 0.11132 0.32017
 H165 H 1.17989 0.11151 0.34716
 H166 H 1.18008 0.15205 0.38722
 H167 H 1.15289 0.17919 0.38721
 H168 H 1.11239 0.17896 0.34717
 C169 C 0.63510 1.35177 0.66203
 C170 C 0.63508 1.33850 0.64872
 C171 C 0.64815 1.33854 0.63552
 C172 C 0.66140 1.35185 0.63547
 C173 C 0.66143 1.36497 0.64863
 C174 C 0.64820 1.36493 0.66199
 C175 C 0.62436 1.35473 0.67676
 N176 N 0.63069 1.36932 0.68550
 C177 C 0.64522 1.37570 0.67670
 C178 C 0.67605 1.37578 0.64554
 N179 N 0.68474 1.36949 0.63089
 C180 C 0.67599 1.35490 0.62460
 C181 C 0.64514 1.32389 0.62472
 N182 N 0.63061 1.31509 0.63110
 C183 C 0.62433 1.32381 0.64573
 H184 H 0.61297 1.34677 0.68092
 H185 H 0.65314 1.38714 0.68082
 H186 H 0.68021 1.38721 0.65345
 H187 H 0.68009 1.34700 0.61313
 H188 H 0.65302 1.31977 0.61324
 H189 H 0.61294 1.31963 0.65371
 C190 C 0.63408 0.85267 1.16095
 C191 C 0.63415 0.83937 1.14767
 C192 C 0.64734 0.83936 1.13459
 C193 C 0.66062 0.85263 1.13464
 C194 C 0.66056 0.86577 1.14777
 C195 C 0.64721 0.86579 1.16101
 C196 C 0.62325 0.85565 1.17561
 N197 N 0.62956 0.87022 1.18440
 C198 C 0.64417 0.87656 1.17570
 C199 C 0.67528 0.87650 1.14486
 N200 N 0.68412 0.87013 1.13033
 C201 C 0.67537 0.85558 1.12395
 C202 C 0.64443 0.82465 1.12383
 N203 N 0.62984 0.81589 1.13011
 C204 C 0.62342 0.82467 1.14465
 H205 H 0.61183 0.84770 1.17972
 H206 H 0.65211 0.88796 1.17989
 H207 H 0.67942 0.88789 1.15282
 H208 H 0.67959 0.84761 1.11257
 H209 H 0.65243 0.82048 1.11245
 H210 H 0.61199 0.82051 1.15255
 C211 C 1.13451 1.35331 1.15976
 C212 C 1.13444 1.34003 1.14646
 C213 C 1.14750 1.34001 1.13325
 C214 C 1.16079 1.35328 1.13318
 C215 C 1.16086 1.36641 1.14632
 C216 C 1.14765 1.36642 1.15969
 C217 C 1.12386 1.35628 1.17454
 N218 N 1.13026 1.37082 1.18329
 C219 C 1.14477 1.37715 1.17443
 C220 C 1.17556 1.37713 1.14329
 N221 N 1.18425 1.37076 1.12866
 C222 C 1.17544 1.35622 1.12234
 C223 C 1.14447 1.32531 1.12251
 N224 N 1.12995 1.31655 1.12894
 C225 C 1.12368 1.32533 1.14355
 H226 H 1.11249 1.34834 1.17878
 H227 H 1.15276 1.38853 1.17858
 H228 H 1.17977 1.38852 1.15124
 H229 H 1.17954 1.34824 1.11091
 H230 H 1.15237 1.32112 1.11107
 H231 H 1.11233 1.32117 1.15157
 C232 C 1.13315 0.85353 0.65956
 C233 C 1.13325 0.84015 0.64636
 C234 C 1.14646 0.84006 0.63331
 C235 C 1.15973 0.85334 0.63330
 C236 C 1.15964 0.86656 0.64635
 C237 C 1.14627 0.86665 0.65956
 C238 C 1.12231 0.85659 0.67420
 N239 N 1.12860 0.87120 0.68292
 C240 C 1.14320 0.87749 0.67419
 C241 C 1.17437 0.87726 0.64341
 N242 N 1.18325 0.87080 0.62894
 C243 C 1.17451 0.85621 0.62263
 C244 C 1.14359 0.82527 0.62264
 N245 N 1.12900 0.81654 0.62896
 C246 C 1.12254 0.82541 0.64343
 H247 H 1.11090 0.84866 0.67835
 H248 H 1.15112 0.88890 0.67835
 H249 H 1.17850 0.88871 0.65132
 H250 H 1.17876 0.84818 0.61131
 H251 H 1.15162 0.82102 0.61132
 H252 H 1.11110 0.82129 0.65134
 C253 C 0.36506 0.64716 0.66054
 C254 C 0.36502 0.66049 0.64729
 C255 C 0.35188 0.66053 0.63416
 C256 C 0.33861 0.64724 0.63413
 C257 C 0.33865 0.63406 0.64723
 C258 C 0.35195 0.63402 0.66051
 C259 C 0.37583 0.64413 0.67523
 N260 N 0.36952 0.62953 0.68396
 C261 C 0.35496 0.62322 0.67518
 C262 C 0.32397 0.62330 0.64423
 N263 N 0.31518 0.62970 0.62968
 C264 C 0.32391 0.64430 0.62337
 C265 C 0.35481 0.67528 0.62346
 N266 N 0.36936 0.68404 0.62982
 C267 C 0.37574 0.67522 0.64435
 H268 H 0.38723 0.65207 0.67941
 H269 H 0.34704 0.61179 0.67932
 H270 H 0.31984 0.61186 0.65216
 H271 H 0.31973 0.65230 0.61198
 H272 H 0.34683 0.67950 0.61208
 H273 H 0.38714 0.67936 0.65231
 C274 C 0.36548 0.14655 1.15968
 C275 C 0.36548 0.15992 1.14647
 C276 C 0.35228 0.16009 1.13340
 C277 C 0.33892 0.14689 1.13339
 C278 C 0.33893 0.13367 1.14646
 C279 C 0.35228 0.13350 1.15968
 C280 C 0.37631 0.14341 1.17430
 N281 N 0.36995 0.12883 1.18303
 C282 C 0.35530 0.12263 1.17431
 C283 C 0.32417 0.12300 1.14349
 N284 N 0.31538 0.12949 1.12898
 C285 C 0.32417 0.14406 1.12267
 C286 C 0.35529 0.17483 1.12271
 N287 N 0.36994 0.18346 1.12903
 C288 C 0.37630 0.17456 1.14352
 H289 H 0.38779 0.15125 1.17845
 H290 H 0.34732 0.11125 1.17845
 H291 H 0.32002 0.11156 1.15139
 H292 H 0.32000 0.15210 1.11131
 H293 H 0.34731 0.17912 1.11136
 H294 H 0.38778 0.17859 1.15143
 C295 C 0.86649 0.64670 1.15972
 C296 C 0.86631 0.66010 1.14654
 C297 C 0.85311 0.66014 1.13348
 C298 C 0.83992 0.64677 1.13344
 C299 C 0.84009 0.63352 1.14647
 C300 C 0.85345 0.63349 1.15969
 C301 C 0.87734 0.64368 1.17435
 N302 N 0.87115 0.62900 1.18304
 C303 C 0.85659 0.62264 1.17430
 C304 C 0.82545 0.62271 1.14349
 N305 N 0.81655 0.62913 1.12902
 C306 C 0.82517 0.64380 1.12275
 C307 C 0.85591 0.67496 1.12284
 N308 N 0.87044 0.68376 1.12918
 C309 C 0.87693 0.67490 1.14364
 H310 H 0.88870 0.65166 1.17852
 H311 H 0.84875 0.61115 1.17842
 H312 H 0.82141 0.61121 1.15136
 H313 H 0.82088 0.65182 1.11143
 H314 H 0.84786 0.67918 1.11151
 H315 H 0.88835 0.67907 1.15156
 C316 C 0.86526 0.14745 0.66127
 C317 C 0.86524 0.16075 0.64799
 C318 C 0.85211 0.16076 0.63484
 C319 C 0.83884 0.14746 0.63483
 C320 C 0.83887 0.13431 0.64796
 C321 C 0.85215 0.13431 0.66126
 C322 C 0.87604 0.14444 0.67596
 N323 N 0.86973 0.12984 0.68469
 C324 C 0.85516 0.12350 0.67593
 C325 C 0.82423 0.12352 0.64494
 N326 N 0.81546 0.12984 0.63035
 C327 C 0.82418 0.14444 0.62403
 C328 C 0.85510 0.17544 0.62406
 N329 N 0.86967 0.18420 0.63041
 C330 C 0.87599 0.17543 0.64500
 H331 H 0.88745 0.15239 0.68012
 H332 H 0.84724 0.11207 0.68005
 H333 H 0.82011 0.11208 0.65286
 H334 H 0.82001 0.15237 0.61260
 H335 H 0.84718 0.17960 0.61263
 H336 H 0.88741 0.17957 0.65294
 C337 C 1.35340 0.36558 0.66023
 C338 C 1.34017 0.36562 0.64688
 C339 C 1.34012 0.35241 0.63382
 C340 C 1.35331 0.33902 0.63395
 C341 C 1.36639 0.33898 0.64714
 C342 C 1.36643 0.35234 0.66036
 C343 C 1.35639 0.37641 0.67487
 N344 N 1.37087 0.37001 0.68375
 C345 C 1.37715 0.35533 0.67510
 C346 C 1.37706 0.32418 0.64429
 N347 N 1.37070 0.31540 0.62972
 C348 C 1.35622 0.32425 0.62326
 C349 C 1.32549 0.35545 0.62298
 N350 N 1.31680 0.37013 0.62920
 C351 C 1.32556 0.37648 0.64377
 H352 H 1.34852 0.38791 0.67893
 H353 H 1.38848 0.34732 0.67937
 H354 H 1.38841 0.31997 0.65231
 H355 H 1.34828 0.32011 0.61183
 H356 H 1.32131 0.34747 0.61160
 H357 H 1.32145 0.38797 0.65164
 C358 C 1.35223 0.86474 1.16151
 C359 C 1.33893 0.86468 1.14823
 C360 C 1.33891 0.85147 1.13517
 C361 C 1.35220 0.83817 1.13522
 C362 C 1.36535 0.83823 1.14835
 C363 C 1.36537 0.85159 1.16157
 C364 C 1.35527 0.87564 1.17610
 N365 N 1.36988 0.86935 1.18486
 C366 C 1.37620 0.85469 1.17620
 C367 C 1.37616 0.82355 1.14537
 N368 N 1.36981 0.81475 1.13082
 C369 C 1.35520 0.82347 1.12447
 C370 C 1.32424 0.85445 1.12436
 N371 N 1.31550 0.86908 1.13061
 C372 C 1.32427 0.87548 1.14515
 H373 H 1.34735 0.88711 1.18016
 H374 H 1.38764 0.84678 1.18036
 H375 H 1.38762 0.81946 1.15330
 H376 H 1.34726 0.81930 1.11306
 H377 H 1.32009 0.84647 1.11297
 H378 H 1.32015 0.88697 1.15301
 C379 C 0.85258 0.36498 1.16164
 C380 C 0.83922 0.36492 1.14841
 C381 C 0.83921 0.35175 1.13530
 C382 C 0.85254 0.33851 1.13526
 C383 C 0.86575 0.33857 1.14833
 C384 C 0.86577 0.35189 1.16160
 C385 C 0.85563 0.37583 1.17627
 N386 N 0.87030 0.36957 1.18494
 C387 C 0.87664 0.35497 1.17620
 C388 C 0.87659 0.32392 1.14528
 N389 N 0.87021 0.31515 1.13072
 C390 C 0.85555 0.32384 1.12446
 C391 C 0.82448 0.35470 1.12457
 N392 N 0.81571 0.36928 1.13090
 C393 C 0.82450 0.37566 1.14544
 H394 H 0.84768 0.38725 1.18041
 H395 H 0.88813 0.34709 1.18029
 H396 H 0.88809 0.31984 1.15315
 H397 H 0.84756 0.31967 1.11307
 H398 H 0.82032 0.34675 1.11317
 H399 H 0.82036 0.38710 1.15335
 C400 C 0.85320 0.86636 0.65998
 C401 C 0.83988 0.86636 0.64672
 C402 C 0.83981 0.85318 0.63363
 C403 C 0.85307 0.83985 0.63365
 C404 C 0.86623 0.83985 0.64675
 C405 C 0.86630 0.85318 0.66000
 C406 C 0.85626 0.87718 0.67462
 N407 N 0.87084 0.87084 0.68337
 C408 C 0.87712 0.85620 0.67465
 C409 C 0.87697 0.82512 0.64376
 N410 N 0.87057 0.81634 0.62922
 C411 C 0.85600 0.82512 0.62290
 C412 C 0.82511 0.85619 0.62288
 N413 N 0.81640 0.87082 0.62919
 C414 C 0.82522 0.87717 0.64373
 H415 H 0.84836 0.88864 0.67875
 H416 H 0.88853 0.84825 0.67881
 H417 H 0.88840 0.82096 0.65167
 H418 H 0.84803 0.82097 0.61151
 H419 H 0.82090 0.84823 0.61150
 H420 H 0.82112 0.88863 0.65163
 C421 C 0.64643 0.63300 0.65977
 C422 C 0.65981 0.63313 0.64656
 C423 C 0.65987 0.64639 0.63354
 C424 C 0.64655 0.65967 0.63358
 C425 C 0.63334 0.65953 0.64663
 C426 C 0.63328 0.64612 0.65980
 C427 C 0.64342 0.62214 0.67439
 N428 N 0.62881 0.62840 0.68315
 C429 C 0.62248 0.64302 0.67445
 C430 C 0.62262 0.67429 0.64376
 N431 N 0.62906 0.68322 0.62933
 C432 C 0.64366 0.67450 0.62298
 C433 C 0.67468 0.64357 0.62289
 N434 N 0.68345 0.62897 0.62918
 C435 C 0.67458 0.62246 0.64361
 H436 H 0.65139 0.61073 0.67852
 H437 H 0.61105 0.65094 0.67865
 H438 H 0.61118 0.67840 0.65170
 H439 H 0.65171 0.67880 0.61169
 H440 H 0.67893 0.65166 0.61161
 H441 H 0.67874 0.61101 0.65151
 C442 C 0.64692 1.13446 1.16107
 C443 C 0.66030 1.13461 1.14787
 C444 C 0.66035 1.14787 1.13486
 C445 C 0.64703 1.16113 1.13489
 C446 C 0.63380 1.16099 1.14794
 C447 C 0.63375 1.14757 1.16111
 C448 C 0.64389 1.12355 1.17566
 N449 N 0.62924 1.12979 1.18439
 C450 C 0.62290 1.14443 1.17572
 C451 C 0.62303 1.17570 1.14504
 N452 N 0.62946 1.18461 1.13059
 C453 C 0.64410 1.17594 1.12425
 C454 C 0.67514 1.14503 1.12418
 N455 N 0.68391 1.13043 1.13045
 C456 C 0.67506 1.12392 1.14490
 H457 H 0.65185 1.11212 1.17977
 H458 H 0.61145 1.15233 1.17988
 H459 H 0.61156 1.17976 1.15296
 H460 H 0.65213 1.18021 1.11293
 H461 H 0.67936 1.15310 1.11288
 H462 H 0.67920 1.11245 1.15277
 C463 C 0.14759 0.63534 1.16164
 C464 C 0.16091 0.63547 1.14838
 C465 C 0.16093 0.64872 1.13536
 C466 C 0.14763 0.66202 1.13546
 C467 C 0.13447 0.66190 1.14858
 C468 C 0.13445 0.64848 1.16175
 C469 C 0.14458 0.62442 1.17623
 N470 N 0.12998 0.63067 1.18502
 C471 C 0.12364 0.64535 1.17639
 C472 C 0.12370 0.67663 1.14570
 N473 N 0.13008 0.68551 1.13120
 C474 C 0.14467 0.67681 1.12481
 C475 C 0.17563 0.64583 1.12458
 N476 N 0.18439 0.63118 1.13079
 C477 C 0.17560 0.62471 1.14530
 H478 H 0.15253 0.61295 1.18027
 H479 H 0.11221 0.65325 1.18059
 H480 H 0.11226 0.68071 1.15366
 H481 H 0.15265 0.68105 1.11344
 H482 H 0.17980 0.65387 1.11324
 H483 H 0.17974 0.61321 1.15313
 C484 C 0.14720 1.13483 0.66142
 C485 C 0.16057 1.13487 0.64821
 C486 C 0.16062 1.14802 0.63509
 C487 C 0.14730 1.16129 0.63503
 C488 C 0.13408 1.16126 0.64808
 C489 C 0.13403 1.14795 0.66136
 C490 C 0.14415 1.12401 0.67607
 N491 N 0.12950 1.13031 0.68475
 C492 C 0.12317 1.14491 0.67599
 C493 C 0.12329 1.17593 0.64503
 N494 N 0.12971 1.18470 0.63048
 C495 C 0.14435 1.17598 0.62423
 C496 C 0.17537 1.14507 0.62440
 N497 N 0.18413 1.13050 0.63076
 C498 C 0.17530 1.12413 0.64528
 H499 H 0.15210 1.11260 0.68024
 H500 H 0.11171 1.15283 0.68008
 H501 H 0.11180 1.18005 0.65290
 H502 H 0.15236 1.18014 0.61286
 H503 H 0.17958 1.15304 0.61302
 H504 H 0.17944 1.11270 0.65323
 C505 C 1.35214 0.63533 0.33861
 C506 C 1.33893 0.63544 0.35197
 C507 C 1.33901 0.64865 0.36503
 C508 C 1.35230 0.66191 0.36488
 C509 C 1.36537 0.66180 0.35167
 C510 C 1.36529 0.64843 0.33846
 C511 C 1.35505 0.62444 0.32398
 N512 N 1.36960 0.63069 0.31511
 C513 C 1.37600 0.64532 0.32374
 C514 C 1.37619 0.67647 0.35453
 N515 N 1.36994 0.68531 0.36911
 C516 C 1.35538 0.67663 0.37558
 C517 C 1.32439 0.64573 0.37592
 N518 N 1.31559 0.63113 0.36972
 C519 C 1.32426 0.62470 0.35512
 H520 H 1.34708 0.61300 0.31995
 H521 H 1.38742 0.65320 0.31949
 H522 H 1.38758 0.68053 0.34650
 H523 H 1.34751 0.68085 0.38703
 H524 H 1.32031 0.65373 0.38733
 H525 H 1.32006 0.61324 0.34728
 C526 C 1.35266 1.13484 0.83973
 C527 C 1.33943 1.13493 0.85308
 C528 C 1.33946 1.14815 0.86612
 C529 C 1.35272 1.16145 0.86597
 C530 C 1.36580 1.16136 0.85277
 C531 C 1.36577 1.14798 0.83957
 C532 C 1.35558 1.12398 0.82509
 N533 N 1.37009 1.13026 0.81620
 C534 C 1.37646 1.14489 0.82483
 C535 C 1.37655 1.17609 0.85559
 N536 N 1.37023 1.18495 0.87014
 C537 C 1.35571 1.17623 0.87662
 C538 C 1.32480 1.14525 0.87696
 N539 N 1.31603 1.13064 0.87076
 C540 C 1.32476 1.12419 0.85620
 H541 H 1.34764 1.11254 0.82104
 H542 H 1.38783 1.15281 0.82055
 H543 H 1.38791 1.18020 0.84755
 H544 H 1.34778 1.18046 0.88803
 H545 H 1.32067 1.15328 0.88833
 H546 H 1.32058 1.11273 0.84834
 C547 C 0.85264 0.63401 0.83992
 C548 C 0.83942 0.63412 0.85329
 C549 C 0.83950 0.64734 0.86634
 C550 C 0.85280 0.66060 0.86617
 C551 C 0.86585 0.66049 0.85295
 C552 C 0.86577 0.64711 0.83975
 C553 C 0.85553 0.62315 0.82527
 N554 N 0.87005 0.62940 0.81637
 C555 C 0.87645 0.64402 0.82501
 C556 C 0.87664 0.67518 0.85577
 N557 N 0.87039 0.68406 0.87033
 C558 C 0.85585 0.67537 0.87682
 C559 C 0.82486 0.64446 0.87720
 N560 N 0.81605 0.62987 0.87100
 C561 C 0.82474 0.62341 0.85642
 H562 H 0.84756 0.61172 0.82122
 H563 H 0.88783 0.65191 0.82072
 H564 H 0.88800 0.67927 0.84773
 H565 H 0.84799 0.67962 0.88825
 H566 H 0.82076 0.65249 0.88858
 H567 H 0.82052 0.61196 0.84857
 C568 C 0.85344 1.13301 0.34087
 C569 C 0.84017 1.13318 0.35418
 C570 C 0.84024 1.14640 0.36723
 C571 C 0.85358 1.15961 0.36713
 C572 C 0.86670 1.15945 0.35397
 C573 C 0.86663 1.14607 0.34077
 C574 C 0.85631 1.12219 0.32619
 N575 N 0.87087 1.12841 0.31734
 C576 C 0.87731 1.14298 0.32603
 C577 C 0.87748 1.17414 0.35679
 N578 N 0.87117 1.18307 0.37129
 C579 C 0.85660 1.17440 0.37774
 C580 C 0.82551 1.14360 0.37799
 N581 N 0.81666 1.12906 0.37173
 C582 C 0.82540 1.12256 0.35721
 H583 H 0.84828 1.11083 0.32209
 H584 H 0.88871 1.15086 0.32176
 H585 H 0.88886 1.17821 0.34877
 H586 H 0.84866 1.17872 0.38911
 H587 H 0.82137 1.15167 0.38933
 H588 H 0.82116 1.11115 0.34932
 C589 C 0.64732 0.36572 0.33912
 C590 C 0.66071 0.36577 0.35232
 C591 C 0.66083 0.35268 0.36550
 C592 C 0.64757 0.33939 0.36566
 C593 C 0.63433 0.33934 0.35263
 C594 C 0.63421 0.35258 0.33928
 C595 C 0.64421 0.37643 0.32440
 N596 N 0.62958 0.37004 0.31577
 C597 C 0.62332 0.35549 0.32465
 C598 C 0.62361 0.32466 0.35576
 N599 N 0.63008 0.31595 0.37032
 C600 C 0.64469 0.32474 0.37651
 C601 C 0.67560 0.35571 0.37615
 N602 N 0.68429 0.37027 0.36969
 C603 C 0.67540 0.37655 0.35515
 H604 H 0.65212 0.38782 0.32013
 H605 H 0.61190 0.34752 0.32061
 H606 H 0.61214 0.32048 0.34793
 H607 H 0.65272 0.32062 0.38788
 H608 H 0.67986 0.34782 0.38757
 H609 H 0.67948 0.38794 0.34714
 C610 C 0.64679 0.86611 0.83995
 C611 C 0.66019 0.86610 0.85313
 C612 C 0.66033 0.85295 0.86625
 C613 C 0.64707 0.83965 0.86635
 C614 C 0.63383 0.83966 0.85332
 C615 C 0.63369 0.85297 0.84005
 C616 C 0.64368 0.87688 0.82529
 N617 N 0.62905 0.87055 0.81662
 C618 C 0.62281 0.85597 0.82543
 C619 C 0.62313 0.82495 0.85638
 N620 N 0.62962 0.81616 0.87089
 C621 C 0.64422 0.82493 0.87712
 C622 C 0.67512 0.85592 0.87688
 N623 N 0.68381 0.87050 0.87048
 C624 C 0.67490 0.87685 0.85599
 H625 H 0.65157 0.88830 0.82107
 H626 H 0.61138 0.84803 0.82134
 H627 H 0.61166 0.82078 0.84852
 H628 H 0.65227 0.82076 0.88845
 H629 H 0.67941 0.84796 0.88825
 H630 H 0.67897 0.88827 0.84801
 C631 C 0.14706 0.36622 0.83923
 C632 C 0.16036 0.36635 0.85251
 C633 C 0.16046 0.35329 0.86573
 C634 C 0.14725 0.33994 0.86582
 C635 C 0.13410 0.33981 0.85270
 C636 C 0.13401 0.35302 0.83933
 C637 C 0.14400 0.37689 0.82447
 N638 N 0.12945 0.37042 0.81577
 C639 C 0.12320 0.35587 0.82462
 C640 C 0.12343 0.32508 0.85578
 N641 N 0.12985 0.31642 0.87040
 C642 C 0.14437 0.32529 0.87667
 C643 C 0.17514 0.35641 0.87646
 N644 N 0.18381 0.37099 0.87003
 C645 C 0.17499 0.37720 0.85543
 H646 H 0.15188 0.38831 0.82024
 H647 H 0.11183 0.34784 0.82053
 H648 H 0.11204 0.32082 0.84788
 H649 H 0.15236 0.32123 0.88809
 H650 H 0.17935 0.34855 0.88793
 H651 H 0.17907 0.38860 0.84742
 C652 C 0.14703 0.86578 0.33881
 C653 C 0.16032 0.86593 0.35209
 C654 C 0.16046 0.85283 0.36527
 C655 C 0.14731 0.83942 0.36531
 C656 C 0.13417 0.83927 0.35219
 C657 C 0.13402 0.85253 0.33885
 C658 C 0.14392 0.87649 0.32408
 N659 N 0.12941 0.86999 0.31535
 C660 C 0.12321 0.85538 0.32415
 C661 C 0.12354 0.82451 0.35524
 N662 N 0.12998 0.81584 0.36984
 C663 C 0.14447 0.82474 0.37614
 C664 C 0.17512 0.85598 0.37602
 N665 N 0.18373 0.87061 0.36964
 C666 C 0.17490 0.87683 0.35505
 H667 H 0.15176 0.88797 0.31990
 H668 H 0.11187 0.84732 0.32003
 H669 H 0.11216 0.82023 0.34733
 H670 H 0.15245 0.82069 0.38757
 H671 H 0.17936 0.84810 0.38746
 H672 H 0.17893 0.88827 0.34708
 O673 O 1.06458 1.01751 1.08951
 O674 O 1.08538 1.01749 1.11051
 C675 C 1.07080 1.02359 1.10414
 C676 C 1.06118 1.03818 1.11357
 C677 C 1.06688 1.04407 1.13053
 H678 H 1.07812 1.03763 1.13712
 O679 O 0.93510 0.98261 1.08920
 O680 O 0.91426 0.98256 1.11017
 C681 C 0.92884 0.97647 1.10380
 C682 C 0.93845 0.96186 1.11321
 C683 C 0.93274 0.95593 1.13015
 H684 H 0.92149 0.96235 1.13674
 O685 O 1.01728 1.08939 1.06502
 O686 O 1.01726 1.11031 1.08590
 C687 C 1.02337 1.10398 1.07131
 C688 C 1.03794 1.11341 1.06170
 C689 C 1.04382 1.13036 1.06740
 H690 H 1.03739 1.13694 1.07865
 O691 O 0.98248 0.91086 1.06459
 O692 O 0.98242 0.88986 1.08540
 C693 C 0.97636 0.89626 1.07082
 C694 C 0.96176 0.88689 1.06118
 C695 C 0.95576 0.87000 1.06691
 H696 H 0.96213 0.86340 1.07819
 O697 O 1.08909 1.06489 1.01773
 O698 O 1.11003 1.08571 1.01782
 C699 C 1.10368 1.07112 1.02388
 C700 C 1.11309 1.06148 1.03847
 C701 C 1.13002 1.06717 1.04439
 H702 H 1.13660 1.07842 1.03797
 O703 O 0.91068 0.93555 1.01725
 O704 O 0.88974 0.91473 1.01720
 C705 C 0.89608 0.92929 1.02334
 C706 C 0.88665 0.93885 1.03797
 C707 C 0.86978 0.93303 1.04396
 H708 H 0.86325 0.92174 1.03756
 O709 O 0.98236 1.06478 1.08948
 O710 O 0.98229 1.08555 1.11051
 C711 C 0.97624 1.07098 1.10411
 C712 C 0.96167 1.06132 1.11349
 C713 C 0.95580 1.06690 1.13051
 H714 H 0.96224 1.07809 1.13717
 O715 O 1.01737 0.93533 1.08925
 O716 O 1.01736 0.91447 1.11020
 C717 C 1.02345 0.92905 1.10387
 C718 C 1.03802 0.93864 1.11333
 C719 C 1.04392 0.93288 1.13028
 H720 H 1.03749 0.92162 1.13683
 O721 O 1.08917 0.98260 1.06494
 O722 O 1.11011 0.98253 1.08580
 C723 C 1.10378 0.97647 1.07120
 C724 C 1.11321 0.96190 1.06156
 C725 C 1.13013 0.95594 1.06730
 H726 H 1.13669 0.96232 1.07858
 O727 O 0.91058 1.01765 1.06471
 O728 O 0.88961 1.01765 1.08554
 C729 C 0.89598 1.02377 1.07097
 C730 C 0.88658 1.03842 1.06140
 C731 C 0.86971 1.04444 1.06721
 H732 H 0.86315 1.03806 1.07849
 O733 O 0.93514 1.08955 1.01761
 O734 O 0.91432 1.11054 1.01766
 C735 C 0.92888 1.10415 1.02376
 C736 C 0.93847 1.11351 1.03841
 C737 C 0.93275 1.13044 1.04437
 H738 H 0.92152 1.13705 1.03794
 O739 O 1.06474 0.91091 1.01747
 O740 O 1.08560 0.88996 1.01747
 C741 C 1.07102 0.89630 1.02357
 C742 C 1.06143 0.88687 1.03818
 C743 C 1.06730 0.87002 1.04423
 H744 H 1.07864 0.86351 1.03789
 O745 O 0.93511 1.01755 1.08927
 O746 O 0.91427 1.01754 1.11024
 C747 C 0.92886 1.02362 1.10390
 C748 C 0.93849 1.03814 1.11339
 C749 C 0.93283 1.04393 1.13040
 H750 H 0.92162 1.03746 1.13698
 O751 O 1.06459 0.98257 1.08944
 O752 O 1.08539 0.98249 1.11045
 C753 C 1.07083 0.97642 1.10405
 C754 C 1.06121 0.96182 1.11343
 C755 C 1.06689 0.95585 1.13038
 H756 H 1.07812 0.96224 1.13700
 O757 O 1.01743 0.91081 1.06468
 O758 O 1.01743 0.88982 1.08550
 C759 C 1.02355 0.89620 1.07093
 C760 C 1.03820 0.88682 1.06135
 C761 C 1.04428 0.86997 1.06719
 H762 H 1.03792 0.86342 1.07850
 O763 O 0.98234 1.08939 1.06500
 O764 O 0.98227 1.11030 1.08589
 C765 C 0.97621 1.10398 1.07128
 C766 C 0.96162 1.11342 1.06166
 C767 C 0.95569 1.13035 1.06741
 H768 H 0.96210 1.13690 1.07869
 O769 O 0.91063 1.06503 1.01751
 O770 O 0.88967 1.08588 1.01757
 C771 C 0.89602 1.07128 1.02363
 C772 C 0.88661 1.06166 1.03823
 C773 C 0.86973 1.06747 1.04424
 H774 H 0.86319 1.07879 1.03789
 O775 O 1.08925 0.93545 1.01755
 O776 O 1.11024 0.91463 1.01753
 C777 C 1.10386 0.92919 1.02366
 C778 C 1.11325 0.93876 1.03830
 C779 C 1.13017 0.93301 1.04424
 H780 H 1.13676 0.92177 1.03780
 O781 O 0.98243 0.93533 1.08921
 O782 O 0.98237 0.91447 1.11015
 C783 C 0.97629 0.92906 1.10380
 C784 C 0.96167 0.93866 1.11321
 C785 C 0.95575 0.93294 1.13015
 H786 H 0.96217 0.92169 1.13674
 O787 O 1.01730 1.06481 1.08954
 O788 O 1.01728 1.08560 1.11056
 C789 C 1.02339 1.07103 1.10417
 C790 C 1.03798 1.06140 1.11359
 C791 C 1.04389 1.06708 1.13056
 H792 H 1.03747 1.07832 1.13716
 O793 O 0.91058 0.98269 1.06463
 O794 O 0.88961 0.98264 1.08546
 C795 C 0.89598 0.97658 1.07087
 C796 C 0.88660 0.96199 1.06123
 C797 C 0.86973 0.95596 1.06701
 H798 H 0.86316 0.96230 1.07833
 O799 O 1.08912 1.01755 1.06498
 O800 O 1.11007 1.01753 1.08584
 C801 C 1.10371 1.02365 1.07125
 C802 C 1.11311 1.03826 1.06166
 C803 C 1.13005 1.04416 1.06738
 H804 H 1.13664 1.03773 1.07862
 O805 O 0.93526 0.91104 1.01725
 O806 O 0.91444 0.89008 1.01720
 C807 C 0.92901 0.89643 1.02333
 C808 C 0.93859 0.88698 1.03794
 C809 C 0.93280 0.87009 1.04389
 H810 H 0.92152 0.86357 1.03748
 O811 O 1.06455 1.08944 1.01774
 O812 O 1.08536 1.11040 1.01783
 C813 C 1.07078 1.10403 1.02389
 C814 C 1.06114 1.11343 1.03849
 C815 C 1.06680 1.13037 1.04440
 H816 H 1.07803 1.13697 1.03797
 Cu817 Cu 1.07478 1.00006 1.07513
 Cu818 Cu 1.09984 1.00001 1.10026
 Cu819 Cu 0.92493 1.00013 1.07486
 Cu820 Cu 0.89983 1.00010 1.09995
 Cu821 Cu 0.99983 1.07501 1.07517
 Cu822 Cu 0.99977 1.10004 1.10033
 Cu823 Cu 0.99993 0.92517 1.07485
 Cu824 Cu 0.99989 0.90004 1.09991
 C825 C 1.04661 1.04682 1.10530
 H826 H 1.04228 1.04251 1.09212
 C827 C 1.05823 1.05841 1.13900
 C828 C 0.95304 0.95324 1.10493
 H829 H 0.95738 0.95759 1.09177
 C830 C 0.94138 0.94157 1.13860
 C831 C 1.04658 1.10514 1.04712
 H832 H 1.04228 1.09198 1.04278
 C833 C 1.05815 1.13882 1.05875
 C834 C 0.95319 0.89519 1.04657
 H835 H 0.95758 0.90832 1.04221
 C836 C 0.94138 0.86162 1.05827
 C837 C 1.10483 1.04690 1.04709
 H838 H 1.09167 1.04258 1.04274
 C839 C 1.13848 1.05852 1.05874
 C840 C 0.89486 0.95345 1.04659
 H841 H 0.90797 0.95787 1.04220
 C842 C 0.86135 0.94158 1.05838
 C843 C 0.95302 1.04682 1.10513
 H844 H 0.95732 1.04259 1.09191
 C845 C 0.94149 1.05820 1.13894
 C846 C 1.04665 0.95323 1.10510
 H847 H 1.04234 0.95760 1.09194
 C848 C 1.05824 0.94148 1.13878
 C849 C 1.10496 0.95332 1.04694
 H850 H 1.09181 0.95768 1.04259
 C851 C 1.13859 0.94160 1.05864
 C852 C 0.89484 1.04701 1.04679
 H853 H 0.90795 1.04260 1.04238
 C854 C 0.86131 1.05887 1.05863
 C855 C 0.95302 1.10519 1.04704
 H856 H 0.95737 1.09204 1.04268
 C857 C 0.94136 1.13883 1.05876
 C858 C 1.04676 0.89507 1.04672
 H859 H 1.04230 0.90816 1.04229
 C860 C 1.05873 0.86160 1.05864
 O861 O 1.06478 0.98300 0.91073
 O862 O 1.08562 0.98300 0.88976
 C863 C 1.07103 0.97692 0.89610
 C864 C 1.06140 0.96238 0.88663
 C865 C 1.06703 0.95659 0.86961
 H866 H 1.07822 0.96307 0.86300
 O867 O 0.93531 1.01802 0.91065
 O868 O 0.91453 1.01807 0.88963
 C869 C 0.92908 1.02415 0.89602
 C870 C 0.93869 1.03875 0.88663
 C871 C 0.93299 1.04468 0.86968
 H872 H 0.92176 1.03827 0.86308
 O873 O 0.98247 1.08971 0.93534
 O874 O 0.98247 1.11073 0.91455
 C875 C 0.97636 1.10434 0.92911
 C876 C 0.96176 1.11374 0.93874
 C877 C 0.95580 1.13067 0.93303
 H878 H 0.96220 1.13726 0.92177
 O879 O 1.01758 0.91113 0.93513
 O880 O 1.01765 0.89023 0.91422
 C881 C 1.02372 0.89655 0.92883
 C882 C 1.03834 0.88712 0.93842
 C883 C 1.04437 0.87026 0.93259
 H884 H 1.03803 0.86374 0.92127
 O885 O 1.08926 0.93556 0.98257
 O886 O 1.11025 0.91473 0.98252
 C887 C 1.10387 0.92933 0.97645
 C888 C 1.11329 0.93897 0.96187
 C889 C 1.13025 0.93327 0.95598
 H890 H 1.13684 0.92203 0.96241
 O891 O 0.91065 1.06515 0.98253
 O892 O 0.88969 1.08600 0.98254
 C893 C 0.89606 1.07144 0.97640
 C894 C 0.88669 1.06191 0.96173
 C895 C 0.86986 1.06778 0.95565
 H896 H 0.86331 1.07909 0.96202
 O897 O 1.01747 1.06521 0.91079
 O898 O 1.01751 1.08608 0.88985
 C899 C 1.02360 1.07149 0.89620
 C900 C 1.03821 1.06189 0.88678
 C901 C 1.04412 1.06760 0.86983
 H902 H 1.03768 1.07884 0.86324
 O903 O 0.98263 0.93575 0.91063
 O904 O 0.98264 0.91497 0.88960
 C905 C 0.97654 0.92954 0.89599
 C906 C 0.96197 0.93919 0.88656
 C907 C 0.95612 0.93355 0.86957
 H908 H 0.96258 0.92233 0.86296
 O909 O 1.08930 1.01786 0.93536
 O910 O 1.11029 1.01791 0.91454
 C911 C 1.10391 1.02397 0.92913
 C912 C 1.11330 1.03853 0.93880
 C913 C 1.13023 1.04447 0.93312
 H914 H 1.13684 1.03809 0.92186
 O915 O 0.91077 0.98305 0.93512
 O916 O 0.88984 0.98306 0.91424
 C917 C 0.89618 0.97695 0.92883
 C918 C 0.88678 0.96233 0.93840
 C919 C 0.86987 0.95641 0.93263
 H920 H 0.86330 0.96285 0.92137
 O921 O 1.06460 1.08951 0.98276
 O922 O 1.08541 1.11047 0.98282
 C923 C 1.07085 1.10413 0.97669
 C924 C 1.06125 1.11359 0.96209
 C925 C 1.06698 1.13053 0.95622
 H926 H 1.07821 1.13708 0.96268
 O927 O 0.93529 0.91107 0.98228
 O928 O 0.91448 0.89011 0.98219
 C929 C 0.92906 0.89647 0.97614
 C930 C 0.93872 0.88707 0.96155
 C931 C 0.93306 0.87013 0.95561
 H932 H 0.92182 0.86353 0.96201
 O933 O 0.93534 0.98308 0.91061
 O934 O 0.91455 0.98308 0.88959
 C935 C 0.92912 0.97699 0.89598
 C936 C 0.93877 0.96241 0.88655
 C937 C 0.93313 0.95656 0.86956
 H938 H 0.92192 0.96301 0.86294
 O939 O 1.06478 1.01794 0.91079
 O940 O 1.08563 1.01799 0.88983
 C941 C 1.07105 1.02408 0.89619
 C942 C 1.06143 1.03869 0.88678
 C943 C 1.06713 1.04461 0.86982
 H944 H 1.07837 1.03818 0.86323
 O945 O 0.98264 0.91113 0.93510
 O946 O 0.98266 0.89022 0.91421
 C947 C 0.97655 0.89654 0.92881
 C948 C 0.96196 0.88711 0.93839
 C949 C 0.95609 0.87017 0.93265
 H950 H 0.96255 0.86360 0.92141
 O951 O 1.01741 1.08970 0.93539
 O952 O 1.01746 1.11071 0.91459
 C953 C 1.02353 1.10431 0.92917
 C954 C 1.03810 1.11368 0.93884
 C955 C 1.04404 1.13063 0.93318
 H956 H 1.03765 1.13725 0.92192
 O957 O 0.91076 0.93564 0.98228
 O958 O 0.88982 0.91482 0.98218
 C959 C 0.89617 0.92941 0.97613
 C960 C 0.88677 0.93906 0.96154
 C961 C 0.86987 0.93335 0.95556
 H962 H 0.86330 0.92207 0.96193
 O963 O 1.08917 1.06498 0.98275
 O964 O 1.11011 1.08580 0.98281
 C965 C 1.10377 1.07124 0.97668
 C966 C 1.11323 1.06167 0.96207
 C967 C 1.13016 1.06739 0.95619
 H968 H 1.13672 1.07862 0.96266
 O969 O 1.01756 0.93574 0.91064
 O970 O 1.01761 0.91497 0.88959
 C971 C 1.02368 0.92954 0.89600
 C972 C 1.03823 0.93920 0.88658
 C973 C 1.04405 0.93362 0.86956
 H974 H 1.03759 0.92244 0.86291
 O975 O 0.98253 1.06525 0.91072
 O976 O 0.98252 1.08613 0.88978
 C977 C 0.97643 1.07154 0.89611
 C978 C 0.96186 1.06195 0.88666
 C979 C 0.95594 1.06768 0.86971
 H980 H 0.96234 1.07893 0.86314
 O981 O 0.91073 1.01801 0.93515
 O982 O 0.88981 1.01807 0.91427
 C983 C 0.89615 1.02414 0.92887
 C984 C 0.88673 1.03876 0.93846
 C985 C 0.86990 1.04485 0.93260
 H986 H 0.86338 1.03852 0.92126
 O987 O 1.08928 0.98292 0.93531
 O988 O 1.11026 0.98291 0.91449
 C989 C 1.10389 0.97680 0.92906
 C990 C 1.11330 0.96219 0.93868
 C991 C 1.13025 0.95628 0.93299
 H992 H 1.13685 0.96272 0.92176
 O993 O 1.06477 0.91101 0.98249
 O994 O 1.08563 0.89005 0.98244
 C995 C 1.07105 0.89643 0.97634
 C996 C 1.06149 0.88706 0.96168
 C997 C 1.06732 0.87020 0.95563
 H998 H 1.07860 0.86364 0.96202
 O999 O 0.93520 1.08964 0.98263
 O1000 O 0.91437 1.11063 0.98264
 C1001 C 0.92895 1.10427 0.97654
 C1002 C 0.93856 1.11371 0.96196
 C1003 C 0.93282 1.13064 0.95604
 H1004 H 0.92156 1.13721 0.96246
 Cu1005 Cu 1.07495 1.00043 0.92513
 Cu1006 Cu 1.10005 1.00045 0.90005
 Cu1007 Cu 0.92512 1.00054 0.92498
 Cu1008 Cu 0.90008 1.00057 0.89983
 Cu1009 Cu 1.07477 1.07511 1.00024
 Cu1010 Cu 1.09983 1.10020 1.00033
 Cu1011 Cu 1.07491 0.92532 1.00003
 Cu1012 Cu 1.10003 0.90024 0.99998
 Cu1013 Cu 0.92499 1.07525 1.00007
 Cu1014 Cu 0.89991 1.10037 1.00011
 Cu1015 Cu 0.92508 0.92541 0.99977
 Cu1016 Cu 0.90002 0.90033 0.99968
 Cu1017 Cu 0.99997 1.07538 0.92514
 Cu1018 Cu 0.99999 1.10052 0.90009
 Cu1019 Cu 1.00010 0.92552 0.92497
 Cu1020 Cu 1.00014 0.90050 0.89980
 C1021 C 1.04688 0.95370 0.89493
 H1022 H 1.04262 0.95794 0.90815
 C1023 C 1.05834 0.94232 0.86109
 C1024 C 0.95325 1.04736 0.89492
 H1025 H 0.95758 1.04301 0.90809
 C1026 C 0.94161 1.05904 0.86125
 C1027 C 0.95315 1.10545 0.95332
 H1028 H 0.95751 1.09229 0.95766
 C1029 C 0.94144 1.13910 0.94168
 C1030 C 1.04688 0.89533 0.95309
 H1031 H 1.04246 0.90843 0.95752
 C1032 C 1.05876 0.86183 0.94119
 C1033 C 1.10501 0.95355 0.95324
 H1034 H 1.09184 0.95787 0.95756
 C1035 C 1.13870 0.94193 0.94164
 C1036 C 0.89493 1.04728 0.95315
 H1037 H 0.90801 1.04282 0.95760
 C1038 C 0.86148 1.05926 0.94119
 C1039 C 1.04685 1.04731 0.89506
 H1040 H 1.04253 1.04298 0.90823
 C1041 C 1.05847 1.05896 0.86137
 C1042 C 0.95331 0.95374 0.89486
 H1043 H 0.95759 0.95803 0.90806
 C1044 C 0.94181 0.94223 0.86109
 C1045 C 1.10499 1.04711 0.95339
 H1046 H 1.09183 1.04277 0.95770
 C1047 C 1.13864 1.05880 0.94182
 C1048 C 0.89504 0.95367 0.95298
 H1049 H 0.90817 0.95801 0.95736
 C1050 C 0.86144 0.94202 0.94121
 C1051 C 1.04670 1.10536 0.95342
 H1052 H 1.04235 1.09219 0.95772
 C1053 C 1.05837 1.13903 0.94187
 C1054 C 0.95329 0.89536 0.95296
 H1055 H 0.95759 0.90852 0.95731
 C1056 C 0.94174 0.86170 0.94127
 O1057 O 1.06475 0.51724 0.58953
 O1058 O 1.08552 0.51724 0.61056
 C1059 C 1.07095 0.52333 0.60417
 C1060 C 1.06128 0.53789 0.61360
 C1061 C 1.06690 0.54375 0.63059
 H1062 H 1.07812 0.53730 0.63721
 O1063 O 0.93530 0.48220 0.58918
 O1064 O 0.91441 0.48218 0.61010
 C1065 C 0.92901 0.47609 0.60377
 C1066 C 0.93860 0.46149 0.61322
 C1067 C 0.93283 0.45554 0.63013
 H1068 H 0.92154 0.46194 0.63668
 O1069 O 1.01745 0.58896 0.56490
 O1070 O 1.01739 0.60993 0.58574
 C1071 C 1.02352 0.60357 0.57116
 C1072 C 1.03810 0.61300 0.56156
 C1073 C 1.04395 0.62997 0.56725
 H1074 H 1.03749 0.63656 0.57848
 O1075 O 0.98273 0.41050 0.56472
 O1076 O 0.98269 0.38952 0.58555
 C1077 C 0.97662 0.39589 0.57095
 C1078 C 0.96206 0.38648 0.56131
 C1079 C 0.95610 0.36958 0.56706
 H1080 H 0.96248 0.36301 0.57835
 O1081 O 1.08937 0.56452 0.51770
 O1082 O 1.11029 0.58537 0.51779
 C1083 C 1.10394 0.57079 0.52386
 C1084 C 1.11334 0.56119 0.53850
 C1085 C 1.13024 0.56692 0.54446
 H1086 H 1.13682 0.57816 0.53804
 O1087 O 0.91099 0.43502 0.51726
 O1088 O 0.89006 0.41418 0.51721
 C1089 C 0.89638 0.42876 0.52333
 C1090 C 0.88691 0.43835 0.53792
 C1091 C 0.86999 0.43261 0.54383
 H1092 H 0.86345 0.42135 0.53740
 O1093 O 0.98248 0.56442 0.58936
 O1094 O 0.98236 0.58525 0.61034
 C1095 C 0.97631 0.57067 0.60395
 C1096 C 0.96172 0.56104 0.61333
 C1097 C 0.95577 0.56671 0.63029
 H1098 H 0.96216 0.57794 0.63691
 O1099 O 1.01757 0.43505 0.58936
 O1100 O 1.01758 0.41421 0.61033
 C1101 C 1.02366 0.42879 0.60399
 C1102 C 1.03822 0.43840 0.61345
 C1103 C 1.04409 0.43268 0.63041
 H1104 H 1.03766 0.42144 0.63698
 O1105 O 1.08939 0.48234 0.56499
 O1106 O 1.11032 0.48231 0.58587
 C1107 C 1.10399 0.47624 0.57126
 C1108 C 1.11346 0.46169 0.56162
 C1109 C 1.13046 0.45586 0.56728
 H1110 H 1.13704 0.46232 0.57851
 O1111 O 0.91084 0.51717 0.56455
 O1112 O 0.88982 0.51721 0.58534
 C1113 C 0.89622 0.52330 0.57077
 C1114 C 0.88684 0.53791 0.56113
 C1115 C 0.86992 0.54390 0.56685
 H1116 H 0.86332 0.53751 0.57811
 O1117 O 0.93545 0.58901 0.51731
 O1118 O 0.91461 0.60998 0.51729
 C1119 C 0.92917 0.60361 0.52341
 C1120 C 0.93874 0.61302 0.53804
 C1121 C 0.93304 0.62999 0.54389
 H1122 H 0.92185 0.63660 0.53740
 O1123 O 1.06505 0.41056 0.51760
 O1124 O 1.08591 0.38961 0.51768
 C1125 C 1.07131 0.39596 0.52374
 C1126 C 1.06168 0.38654 0.53832
 C1127 C 1.06741 0.36961 0.54427
 H1128 H 1.07869 0.36304 0.53787
 O1129 O 0.93528 0.51715 0.58919
 O1130 O 0.91439 0.51717 0.61012
 C1131 C 0.92898 0.52325 0.60380
 C1132 C 0.93856 0.53783 0.61325
 C1133 C 0.93282 0.54371 0.63021
 H1134 H 0.92158 0.53727 0.63677
 O1135 O 1.06481 0.48230 0.58950
 O1136 O 1.08559 0.48225 0.61052
 C1137 C 1.07103 0.47617 0.60412
 C1138 C 1.06141 0.46158 0.61351
 C1139 C 1.06707 0.45565 0.63048
 H1140 H 1.07830 0.46206 0.63710
 O1141 O 1.01767 0.41052 0.56481
 O1142 O 1.01769 0.38954 0.58564
 C1143 C 1.02380 0.39592 0.57107
 C1144 C 1.03843 0.38652 0.56148
 C1145 C 1.04438 0.36959 0.56722
 H1146 H 1.03795 0.36301 0.57846
 O1147 O 0.98252 0.58896 0.56481
 O1148 O 0.98241 0.60993 0.58564
 C1149 C 0.97638 0.60357 0.57103
 C1150 C 0.96183 0.61300 0.56135
 C1151 C 0.95593 0.62997 0.56700
 H1152 H 0.96232 0.63656 0.57825
 O1153 O 0.91095 0.56447 0.51725
 O1154 O 0.88997 0.58531 0.51723
 C1155 C 0.89633 0.57072 0.52333
 C1156 C 0.88690 0.56112 0.53792
 C1157 C 0.86998 0.56689 0.54385
 H1158 H 0.86343 0.57817 0.53744
 O1159 O 1.08955 0.43511 0.51766
 O1160 O 1.11055 0.41429 0.51773
 C1161 C 1.10416 0.42887 0.52380
 C1162 C 1.11354 0.43851 0.53840
 C1163 C 1.13053 0.43289 0.54426
 H1164 H 1.13717 0.42169 0.53780
 O1165 O 0.98262 0.43500 0.58931
 O1166 O 0.98259 0.41415 0.61028
 C1167 C 0.97649 0.42873 0.60391
 C1168 C 0.96184 0.43831 0.61329
 C1169 C 0.95586 0.43257 0.63021
 H1170 H 0.96227 0.42132 0.63681
 O1171 O 1.01742 0.56444 0.58947
 O1172 O 1.01735 0.58527 0.61045
 C1173 C 1.02348 0.57069 0.60410
 C1174 C 1.03805 0.56107 0.61357
 C1175 C 1.04387 0.56672 0.63056
 H1176 H 1.03740 0.57794 0.63716
 O1177 O 0.91083 0.48223 0.56457
 O1178 O 0.88980 0.48221 0.58535
 C1179 C 0.89621 0.47612 0.57078
 C1180 C 0.88683 0.46153 0.56114
 C1181 C 0.86991 0.45558 0.56684
 H1182 H 0.86331 0.46198 0.57810
 O1183 O 1.08934 0.51728 0.56503
 O1184 O 1.11025 0.51730 0.58592
 C1185 C 1.10391 0.52340 0.57133
 C1186 C 1.11332 0.53801 0.56173
 C1187 C 1.13023 0.54395 0.56749
 H1188 H 1.13680 0.53754 0.57877
 O1189 O 0.93557 0.41051 0.51732
 O1190 O 0.91478 0.38953 0.51728
 C1191 C 0.92932 0.39590 0.52341
 C1192 C 0.93891 0.38648 0.53805
 C1193 C 0.93316 0.36958 0.54401
 H1194 H 0.92191 0.36301 0.53759
 O1195 O 1.06478 0.58902 0.51764
 O1196 O 1.08556 0.61001 0.51773
 C1197 C 1.07098 0.60363 0.52378
 C1198 C 1.06132 0.61303 0.53837
 C1199 C 1.06695 0.62999 0.54426
 H1200 H 1.07817 0.63660 0.53783
 Cu1201 Cu 1.07499 0.49979 0.57517
 Cu1202 Cu 1.10002 0.49977 0.60033
 Cu1203 Cu 0.92515 0.49969 0.57479
 Cu1204 Cu 0.90000 0.49970 0.59982
 Cu1205 Cu 0.99998 0.57461 0.57505
 Cu1206 Cu 0.99987 0.59970 0.60015
 Cu1207 Cu 1.00015 0.42486 0.57496
 Cu1208 Cu 1.00014 0.39975 0.60005
 C1209 C 1.04673 0.54653 0.60528
 H1210 H 1.04247 0.54224 0.59208
 C1211 C 1.05819 0.55806 0.63905
 C1212 C 0.95323 0.45289 0.60499
 H1213 H 0.95761 0.45725 0.59185
 C1214 C 0.94146 0.44118 0.63860
 C1215 C 1.04677 0.60473 0.54700
 H1216 H 1.04250 0.59155 0.54268
 C1217 C 1.05827 0.63844 0.55860
 C1218 C 0.95348 0.39474 0.54668
 H1219 H 0.95784 0.40788 0.54232
 C1220 C 0.94176 0.36115 0.55841
 C1221 C 1.10507 0.54661 0.54712
 H1222 H 1.09194 0.54226 0.54274
 C1223 C 1.13867 0.55830 0.55885
 C1224 C 0.89514 0.45294 0.54655
 H1225 H 0.90828 0.45730 0.54223
 C1226 C 0.86151 0.44122 0.55819
 C1227 C 0.95313 0.54648 0.60501
 H1228 H 0.95749 0.54218 0.59184
 C1229 C 0.94142 0.55805 0.63870
 C1230 C 1.04686 0.45297 0.60519
 H1231 H 1.04255 0.45731 0.59201
 C1232 C 1.05841 0.44130 0.63890
 C1233 C 1.10520 0.45303 0.54707
 H1234 H 1.09200 0.45729 0.54277
 C1235 C 1.13897 0.44157 0.55859
 C1236 C 0.89513 0.54651 0.54654
 H1237 H 0.90828 0.54213 0.54220
 C1238 C 0.86152 0.55828 0.55821
 C1239 C 0.95326 0.60472 0.54675
 H1240 H 0.95758 0.59154 0.54246
 C1241 C 0.94164 0.63845 0.55827
 C1242 C 1.04707 0.39480 0.54691
 H1243 H 1.04271 0.40795 0.54255
 C1244 C 1.05877 0.36116 0.55861
 O1245 O 1.06523 0.48242 0.41080
 O1246 O 1.08611 0.48239 0.38987
 C1247 C 1.07152 0.47631 0.39620
 C1248 C 1.06194 0.46172 0.38675
 C1249 C 1.06769 0.45582 0.36981
 H1250 H 1.07895 0.46225 0.36326
 O1251 O 0.93577 0.51724 0.41049
 O1252 O 0.91500 0.51727 0.38945
 C1253 C 0.92956 0.52335 0.39585
 C1254 C 0.93919 0.53793 0.38644
 C1255 C 0.93357 0.54378 0.36944
 H1256 H 0.92238 0.53732 0.36281
 O1257 O 0.98287 0.58906 0.43512
 O1258 O 0.98285 0.61004 0.41428
 C1259 C 0.97675 0.60367 0.42886
 C1260 C 0.96213 0.61308 0.43845
 C1261 C 0.95622 0.63003 0.43275
 H1262 H 0.96266 0.63662 0.42152
 O1263 O 1.01803 0.41056 0.43519
 O1264 O 1.01814 0.38960 0.41434
 C1265 C 1.02418 0.39597 0.42894
 C1266 C 1.03879 0.38657 0.43858
 C1267 C 1.04483 0.36969 0.43280
 H1268 H 1.03850 0.36314 0.42148
 O1269 O 1.08963 0.43512 0.48269
 O1270 O 1.11063 0.41430 0.48272
 C1271 C 1.10426 0.42888 0.47661
 C1272 C 1.11370 0.43849 0.46203
 C1273 C 1.13065 0.43278 0.45615
 H1274 H 1.13723 0.42153 0.46258
 O1275 O 0.91103 0.56450 0.48227
 O1276 O 0.89005 0.58533 0.48221
 C1277 C 0.89643 0.57076 0.47612
 C1278 C 0.88707 0.56117 0.46148
 C1279 C 0.87020 0.56697 0.45544
 H1280 H 0.86363 0.57826 0.46181
 O1281 O 1.01791 0.56457 0.41063
 O1282 O 1.01794 0.58541 0.38966
 C1283 C 1.02404 0.57083 0.39603
 C1284 C 1.03868 0.56124 0.38664
 C1285 C 1.04463 0.56698 0.36972
 H1286 H 1.03821 0.57822 0.36312
 O1287 O 0.98309 0.43507 0.41055
 O1288 O 0.98314 0.41424 0.38958
 C1289 C 0.97701 0.42881 0.39593
 C1290 C 0.96241 0.43840 0.38648
 C1291 C 0.95651 0.43265 0.36954
 H1292 H 0.96294 0.42140 0.36298
 O1293 O 1.08968 0.51736 0.43539
 O1294 O 1.11070 0.51738 0.41460
 C1295 C 1.10429 0.52347 0.42917
 C1296 C 1.11366 0.53807 0.43881
 C1297 C 1.13056 0.54407 0.43310
 H1298 H 1.13717 0.53770 0.42182
 O1299 O 0.91120 0.48231 0.43498
 O1300 O 0.89028 0.48231 0.41409
 C1301 C 0.89661 0.47621 0.42870
 C1302 C 0.88718 0.46163 0.43830
 C1303 C 0.87026 0.45573 0.43255
 H1304 H 0.86370 0.46217 0.42128
 O1305 O 1.06490 0.58906 0.48266
 O1306 O 1.08568 0.61004 0.48271
 C1307 C 1.07114 0.60367 0.47657
 C1308 C 1.06157 0.61309 0.46193
 C1309 C 1.06730 0.63001 0.45601
 H1310 H 1.07853 0.63658 0.46247
 O1311 O 0.93568 0.41054 0.48235
 O1312 O 0.91490 0.38956 0.48225
 C1313 C 0.92948 0.39594 0.47621
 C1314 C 0.93916 0.38653 0.46164
 C1315 C 0.93353 0.36957 0.45573
 H1316 H 0.92229 0.36297 0.46214
 O1317 O 0.93576 0.48229 0.41046
 O1318 O 0.91498 0.48228 0.38943
 C1319 C 0.92955 0.47619 0.39583
 C1320 C 0.93918 0.46158 0.38643
 C1321 C 0.93349 0.45563 0.36949
 H1322 H 0.92223 0.46203 0.36289
 O1323 O 1.06524 0.51737 0.41074
 O1324 O 1.08612 0.51738 0.38981
 C1325 C 1.07152 0.52348 0.39614
 C1326 C 1.06192 0.53807 0.38669
 C1327 C 1.06767 0.54401 0.36976
 H1328 H 1.07895 0.53761 0.36320
 O1329 O 0.98308 0.41059 0.43516
 O1330 O 0.98315 0.38962 0.41433
 C1331 C 0.97702 0.39598 0.42890
 C1332 C 0.96243 0.38656 0.43850
 C1333 C 0.95658 0.36960 0.43280
 H1334 H 0.96306 0.36301 0.42157
 O1335 O 1.01781 0.58908 0.43520
 O1336 O 1.01785 0.61006 0.41437
 C1337 C 1.02391 0.60369 0.42897
 C1338 C 1.03847 0.61310 0.43863
 C1339 C 1.04441 0.63002 0.43292
 H1340 H 1.03804 0.63660 0.42163
 O1341 O 0.91109 0.43505 0.48229
 O1342 O 0.89016 0.41421 0.48219
 C1343 C 0.89652 0.42879 0.47613
 C1344 C 0.88713 0.43842 0.46150
 C1345 C 0.87021 0.43273 0.45554
 H1346 H 0.86361 0.42149 0.46195
 O1347 O 1.08948 0.56454 0.48273
 O1348 O 1.11039 0.58539 0.48278
 C1349 C 1.10408 0.57081 0.47665
 C1350 C 1.11355 0.56124 0.46206
 C1351 C 1.13045 0.56702 0.45613
 H1352 H 1.13697 0.57829 0.46256
 O1353 O 1.01803 0.43514 0.41067
 O1354 O 1.01814 0.41431 0.38969
 C1355 C 1.02418 0.42890 0.39607
 C1356 C 1.03878 0.43852 0.38668
 C1357 C 1.04474 0.43283 0.36974
 H1358 H 1.03835 0.42159 0.36312
 O1359 O 0.98297 0.56453 0.41057
 O1360 O 0.98295 0.58536 0.38959
 C1361 C 0.97689 0.57077 0.39594
 C1362 C 0.96235 0.56113 0.38648
 C1363 C 0.95652 0.56677 0.36947
 H1364 H 0.96297 0.57799 0.36287
 O1365 O 0.91116 0.51725 0.43496
 O1366 O 0.89025 0.51730 0.41406
 C1367 C 0.89657 0.52338 0.42867
 C1368 C 0.88714 0.53799 0.43825
 C1369 C 0.87026 0.54400 0.43243
 H1370 H 0.86374 0.53763 0.42112
 O1371 O 1.08971 0.48242 0.43539
 O1372 O 1.11073 0.48239 0.41461
 C1373 C 1.10434 0.47630 0.42918
 C1374 C 1.11373 0.46170 0.43882
 C1375 C 1.13069 0.45578 0.43315
 H1376 H 1.13729 0.46220 0.42191
 O1377 O 1.06515 0.41056 0.48262
 O1378 O 1.08601 0.38961 0.48265
 C1379 C 1.07145 0.39597 0.47652
 C1380 C 1.06191 0.38657 0.46186
 C1381 C 1.06775 0.36969 0.45587
 H1382 H 1.07903 0.36314 0.46228
 O1383 O 0.93552 0.58904 0.48233
 O1384 O 0.91468 0.61001 0.48227
 C1385 C 0.92927 0.60365 0.47621
 C1386 C 0.93890 0.61307 0.46163
 C1387 C 0.93320 0.63003 0.45572
 H1388 H 0.92195 0.63662 0.46214
 Cu1389 Cu 1.07537 0.49990 0.42516
 Cu1390 Cu 1.10053 0.49988 0.40012
 Cu1391 Cu 0.92556 0.49977 0.42481
 Cu1392 Cu 0.90053 0.49979 0.39965
 Cu1393 Cu 1.07505 0.57470 0.50018
 Cu1394 Cu 1.10008 0.59981 0.50026
 Cu1395 Cu 1.07525 0.42492 0.50014
 Cu1396 Cu 1.10038 0.39985 0.50020
 Cu1397 Cu 0.92533 0.57467 0.49979
 Cu1398 Cu 0.90022 0.59976 0.49975
 Cu1399 Cu 0.92541 0.42487 0.49981
 Cu1400 Cu 0.90038 0.39976 0.49972
 Cu1401 Cu 1.00039 0.57472 0.42497
 Cu1402 Cu 1.00040 0.59982 0.39987
 Cu1403 Cu 1.00055 0.42493 0.42498
 Cu1404 Cu 1.00065 0.39984 0.39988
 C1405 C 1.04737 0.45309 0.39500
 H1406 H 1.04300 0.45741 0.40816
 C1407 C 1.05909 0.44148 0.36133
 C1408 C 0.95370 0.54659 0.39477
 H1409 H 0.95796 0.54231 0.40798
 C1410 C 0.94224 0.55809 0.36098
 C1411 C 0.95349 0.60479 0.45301
 H1412 H 0.95781 0.59162 0.45734
 C1413 C 0.94186 0.63848 0.44138
 C1414 C 1.04731 0.39481 0.45323
 H1415 H 1.04288 0.40792 0.45762
 C1416 C 1.05921 0.36128 0.44144
 C1417 C 1.10543 0.45307 0.45339
 H1418 H 1.09226 0.45741 0.45769
 C1419 C 1.13912 0.44142 0.44181
 C1420 C 0.89535 0.54656 0.45290
 H1421 H 0.90846 0.54216 0.45732
 C1422 C 0.86182 0.55839 0.44102
 C1423 C 1.04730 0.54666 0.39493
 H1424 H 1.04293 0.54231 0.40808
 C1425 C 1.05902 0.55837 0.36130
 C1426 C 0.95377 0.45299 0.39473
 H1427 H 0.95809 0.45735 0.40789
 C1428 C 0.94215 0.44127 0.36107
 C1429 C 1.10535 0.54664 0.45342
 H1430 H 1.09222 0.54225 0.45775
 C1431 C 1.13893 0.55844 0.44175
 C1432 C 0.89542 0.45299 0.45289
 H1433 H 0.90857 0.45730 0.45726
 C1434 C 0.86180 0.44139 0.44117
 C1435 C 1.04703 0.60482 0.45326
 H1436 H 1.04268 0.59167 0.45759
 C1437 C 1.05873 0.63845 0.44161
 C1438 C 0.95373 0.39483 0.45304
 H1439 H 0.95801 0.40801 0.45737
 C1440 C 0.94224 0.36113 0.44141
 O1441 O 0.56434 1.01723 0.58938
 O1442 O 0.58515 1.01716 0.61037
 C1443 C 0.57059 1.02329 0.60401
 C1444 C 0.56098 1.03789 0.61346
 C1445 C 0.56671 1.04379 0.63040
 H1446 H 0.57797 1.03736 0.63697
 O1447 O 0.43492 0.98233 0.58907
 O1448 O 0.41404 0.98226 0.61000
 C1449 C 0.42863 0.97617 0.60365
 C1450 C 0.43819 0.96150 0.61303
 C1451 C 0.43236 0.95545 0.62989
 H1452 H 0.42106 0.96182 0.63645
 O1453 O 0.51714 1.08909 0.56491
 O1454 O 0.51712 1.11002 0.58579
 C1455 C 0.52323 1.10368 0.57120
 C1456 C 0.53784 1.11310 0.56162
 C1457 C 0.54382 1.12998 0.56741
 H1458 H 0.53743 1.13653 0.57871
 O1459 O 0.48222 0.91052 0.56441
 O1460 O 0.48219 0.88950 0.58520
 C1461 C 0.47611 0.89590 0.57062
 C1462 C 0.46151 0.88653 0.56098
 C1463 C 0.45547 0.86966 0.56676
 H1464 H 0.46181 0.86308 0.57807
 O1465 O 0.58892 1.06458 0.51760
 O1466 O 0.60989 1.08538 0.51767
 C1467 C 0.60352 1.07080 0.52374
 C1468 C 0.61292 1.06116 0.53833
 C1469 C 0.62986 1.06683 0.54428
 H1470 H 0.63645 1.07808 0.53787
 O1471 O 0.41059 0.93525 0.51701
 O1472 O 0.38961 0.91446 0.51697
 C1473 C 0.39597 0.92902 0.52309
 C1474 C 0.38654 0.93862 0.53770
 C1475 C 0.36960 0.93290 0.54358
 H1476 H 0.36304 0.92167 0.53713
 O1477 O 0.48219 1.06451 0.58936
 O1478 O 0.48210 1.08530 0.61037
 C1479 C 0.47604 1.07073 0.60397
 C1480 C 0.46145 1.06110 0.61335
 C1481 C 0.45549 1.06677 0.63030
 H1482 H 0.46189 1.07800 0.63692
 O1483 O 0.51708 0.93502 0.58906
 O1484 O 0.51710 0.91415 0.61001
 C1485 C 0.52317 0.92874 0.60368
 C1486 C 0.53771 0.93836 0.61316
 C1487 C 0.54352 0.93268 0.63016
 H1488 H 0.53706 0.92146 0.63674
 O1489 O 0.58886 0.98232 0.56473
 O1490 O 0.60981 0.98221 0.58559
 C1491 C 0.60347 0.97618 0.57097
 C1492 C 0.61291 0.96164 0.56130
 C1493 C 0.62990 0.95578 0.56694
 H1494 H 0.63648 0.96219 0.57818
 O1495 O 0.41046 1.01739 0.56456
 O1496 O 0.38946 1.01738 0.58537
 C1497 C 0.39585 1.02351 0.57081
 C1498 C 0.38647 1.03816 0.56123
 C1499 C 0.36961 1.04422 0.56706
 H1500 H 0.36306 1.03787 0.57836
 O1501 O 0.43506 1.08920 0.51739
 O1502 O 0.41423 1.11019 0.51741
 C1503 C 0.42880 1.10380 0.52352
 C1504 C 0.43837 1.11317 0.53818
 C1505 C 0.43261 1.13009 0.54413
 H1506 H 0.42138 1.13669 0.53770
 O1507 O 0.56448 0.91065 0.51719
 O1508 O 0.58534 0.88969 0.51722
 C1509 C 0.57075 0.89604 0.52330
 C1510 C 0.56114 0.88660 0.53789
 C1511 C 0.56693 0.86970 0.54385
 H1512 H 0.57822 0.86316 0.53745
 O1513 O 0.43496 1.01728 0.58915
 O1514 O 0.41409 1.01726 0.61009
 C1515 C 0.42868 1.02335 0.60377
 C1516 C 0.43827 1.03791 0.61325
 C1517 C 0.43252 1.04379 0.63020
 H1518 H 0.42126 1.03737 0.63675
 O1519 O 0.56430 0.98229 0.58926
 O1520 O 0.58511 0.98217 0.61026
 C1521 C 0.57053 0.97613 0.60387
 C1522 C 0.56089 0.96154 0.61325
 C1523 C 0.56649 0.95566 0.63025
 H1524 H 0.57768 0.96210 0.63690
 O1525 O 0.51716 0.91054 0.56445
 O1526 O 0.51719 0.88953 0.58525
 C1527 C 0.52329 0.89593 0.57068
 C1528 C 0.53792 0.88655 0.56107
 C1529 C 0.54392 0.86964 0.56682
 H1530 H 0.53753 0.86305 0.57809
 O1531 O 0.48220 1.08908 0.56484
 O1532 O 0.48212 1.11002 0.58571
 C1533 C 0.47607 1.10368 0.57110
 C1534 C 0.46149 1.11311 0.56146
 C1535 C 0.45552 1.13003 0.56721
 H1536 H 0.46189 1.13658 0.57851
 O1537 O 0.41052 1.06471 0.51731
 O1538 O 0.38956 1.08557 0.51734
 C1539 C 0.39592 1.07098 0.52343
 C1540 C 0.38650 1.06139 0.53804
 C1541 C 0.36965 1.06724 0.54408
 H1542 H 0.36312 1.07856 0.53773
 O1543 O 0.58898 0.93519 0.51725
 O1544 O 0.60997 0.91436 0.51728
 C1545 C 0.60359 0.92893 0.52338
 C1546 C 0.61297 0.93852 0.53800
 C1547 C 0.62996 0.93287 0.54385
 H1548 H 0.63659 0.92169 0.53736
 O1549 O 0.48214 0.93500 0.58901
 O1550 O 0.48211 0.91411 0.60994
 C1551 C 0.47601 0.92870 0.60359
 C1552 C 0.46137 0.93827 0.61300
 C1553 C 0.45533 0.93243 0.62986
 H1554 H 0.46168 0.92110 0.63639
 O1555 O 0.51712 1.06452 0.58944
 O1556 O 0.51709 1.08531 0.61045
 C1557 C 0.52321 1.07075 0.60407
 C1558 C 0.53780 1.06111 0.61349
 C1559 C 0.54373 1.06681 0.63044
 H1560 H 0.53733 1.07807 0.63703
 O1561 O 0.41048 0.98244 0.56443
 O1562 O 0.38946 0.98239 0.58522
 C1563 C 0.39586 0.97633 0.57063
 C1564 C 0.38648 0.96177 0.56095
 C1565 C 0.36954 0.95584 0.56663
 H1566 H 0.36293 0.96223 0.57789
 O1567 O 0.58887 1.01726 0.56483
 O1568 O 0.60982 1.01719 0.58568
 C1569 C 0.60347 1.02333 0.57111
 C1570 C 0.61290 1.03793 0.56152
 C1571 C 0.62983 1.04382 0.56726
 H1572 H 0.63640 1.03737 0.57851
 O1573 O 0.43508 0.91065 0.51701
 O1574 O 0.41423 0.88973 0.51697
 C1575 C 0.42880 0.89605 0.52310
 C1576 C 0.43836 0.88661 0.53773
 C1577 C 0.43253 0.86974 0.54372
 H1578 H 0.42124 0.86323 0.53732
 O1579 O 0.56438 1.08913 0.51762
 O1580 O 0.58521 1.11006 0.51769
 C1581 C 0.57063 1.10371 0.52377
 C1582 C 0.56103 1.11311 0.53839
 C1583 C 0.56679 1.13000 0.54439
 H1584 H 0.57806 1.13656 0.53800
 Cu1585 Cu 0.57451 0.99978 0.57496
 Cu1586 Cu 0.59957 0.99967 0.60008
 Cu1587 Cu 0.42480 0.99986 0.57472
 Cu1588 Cu 0.39966 0.99982 0.59977
 Cu1589 Cu 0.49967 1.07472 0.57505
 Cu1590 Cu 0.49960 1.09976 0.60019
 Cu1591 Cu 0.49965 0.92486 0.57465
 Cu1592 Cu 0.49965 0.89971 0.59970
 C1593 C 0.54640 1.04653 0.60520
 H1594 H 0.54205 1.04220 0.59204
 C1595 C 0.55809 1.05815 0.63887
 C1596 C 0.45281 0.95293 0.60478
 H1597 H 0.45724 0.95737 0.59168
 C1598 C 0.44092 0.94101 0.63828
 C1599 C 0.54643 1.10486 0.54699
 H1600 H 0.54206 1.09174 0.54259
 C1601 C 0.55819 1.13841 0.55880
 C1602 C 0.45297 0.89480 0.54634
 H1603 H 0.45740 0.90791 0.54196
 C1604 C 0.44108 0.86129 0.55813
 C1605 C 0.60464 1.04658 0.54694
 H1606 H 0.59148 1.04227 0.54258
 C1607 C 0.63828 1.05816 0.55863
 C1608 C 0.39478 0.95318 0.54636
 H1609 H 0.40794 0.95752 0.54205
 C1610 C 0.36113 0.94151 0.55795
 C1611 C 0.45285 1.04654 0.60502
 H1612 H 0.45722 1.04224 0.59185
 C1613 C 0.44113 1.05812 0.63870
 C1614 C 0.54637 0.95291 0.60490
 H1615 H 0.54212 0.95722 0.59170
 C1616 C 0.55781 0.94134 0.63868
 C1617 C 0.60464 0.95303 0.54671
 H1618 H 0.59145 0.95732 0.54242
 C1619 C 0.63840 0.94150 0.55821
 C1620 C 0.39472 1.04673 0.54660
 H1621 H 0.40781 1.04229 0.54218
 C1622 C 0.36123 1.05866 0.55849
 C1623 C 0.45292 1.10488 0.54683
 H1624 H 0.45729 1.09173 0.54246
 C1625 C 0.44119 1.13849 0.55855
 C1626 C 0.54651 0.89483 0.54648
 H1627 H 0.54212 0.90797 0.54212
 C1628 C 0.55832 0.86124 0.55821
 O1629 O 0.56459 0.98258 0.41046
 O1630 O 0.58546 0.98259 0.38952
 C1631 C 0.57088 0.97650 0.39585
 C1632 C 0.56129 0.96192 0.38639
 C1633 C 0.56704 0.95600 0.36945
 H1634 H 0.57830 0.96241 0.36289
 O1635 O 0.43522 1.01760 0.41039
 O1636 O 0.41443 1.01769 0.38937
 C1637 C 0.42900 1.02374 0.39577
 C1638 C 0.43864 1.03831 0.38637
 C1639 C 0.43304 1.04417 0.36936
 H1640 H 0.42185 1.03771 0.36272
 O1641 O 0.48238 1.08935 0.43512
 O1642 O 0.48237 1.11036 0.41432
 C1643 C 0.47627 1.10397 0.42889
 C1644 C 0.46167 1.11337 0.43852
 C1645 C 0.45575 1.13032 0.43283
 H1646 H 0.46217 1.13693 0.42159
 O1647 O 0.51736 0.91076 0.43484
 O1648 O 0.51743 0.88983 0.41397
 C1649 C 0.52349 0.89616 0.42858
 C1650 C 0.53808 0.88673 0.43821
 C1651 C 0.54403 0.86980 0.43248
 H1652 H 0.53764 0.86323 0.42121
 O1653 O 0.58906 0.93522 0.48228
 O1654 O 0.61004 0.91438 0.48226
 C1655 C 0.60368 0.92897 0.47618
 C1656 C 0.61311 0.93859 0.46159
 C1657 C 0.63005 0.93288 0.45569
 H1658 H 0.63663 0.92162 0.46211
 O1659 O 0.41058 1.06476 0.48233
 O1660 O 0.38962 1.08561 0.48232
 C1661 C 0.39599 1.07104 0.47620
 C1662 C 0.38661 1.06149 0.46154
 C1663 C 0.36974 1.06730 0.45554
 H1664 H 0.36317 1.07858 0.46194
 O1665 O 0.51737 1.06485 0.41056
 O1666 O 0.51741 1.08573 0.38962
 C1667 C 0.52349 1.07113 0.39596
 C1668 C 0.53807 1.06151 0.38652
 C1669 C 0.54396 1.06721 0.36956
 H1670 H 0.53753 1.07846 0.36298
 O1671 O 0.48243 0.93535 0.41029
 O1672 O 0.48245 0.91456 0.38928
 C1673 C 0.47634 0.92912 0.39566
 C1674 C 0.46174 0.93875 0.38624
 C1675 C 0.45580 0.93302 0.36931
 H1676 H 0.46221 0.92176 0.36273
 O1677 O 0.58903 1.01747 0.43513
 O1678 O 0.61004 1.01754 0.41434
 C1679 C 0.60365 1.02359 0.42893
 C1680 C 0.61303 1.03814 0.43862
 C1681 C 0.63000 1.04404 0.43301
 H1682 H 0.63663 1.03764 0.42176
 O1683 O 0.41063 0.98266 0.43485
 O1684 O 0.38968 0.98272 0.41400
 C1685 C 0.39603 0.97659 0.42858
 C1686 C 0.38659 0.96201 0.43818
 C1687 C 0.36963 0.95618 0.43249
 H1688 H 0.36303 0.96266 0.42127
 O1689 O 0.56442 1.08920 0.48264
 O1690 O 0.58526 1.11013 0.48267
 C1691 C 0.57069 1.10380 0.47654
 C1692 C 0.56111 1.11324 0.46193
 C1693 C 0.56685 1.13018 0.45605
 H1694 H 0.57807 1.13674 0.46252
 O1695 O 0.43513 0.91071 0.48203
 O1696 O 0.41428 0.88978 0.48194
 C1697 C 0.42887 0.89613 0.47588
 C1698 C 0.43850 0.88673 0.46127
 C1699 C 0.43277 0.86983 0.45527
 H1700 H 0.42150 0.86325 0.46165
 O1701 O 0.43518 0.98265 0.41031
 O1702 O 0.41436 0.98269 0.38931
 C1703 C 0.42893 0.97657 0.39568
 C1704 C 0.43854 0.96196 0.38625
 C1705 C 0.43280 0.95603 0.36932
 H1706 H 0.42154 0.96244 0.36274
 O1707 O 0.56459 1.01753 0.41049
 O1708 O 0.58546 1.01759 0.38955
 C1709 C 0.57086 1.02367 0.39590
 C1710 C 0.56125 1.03828 0.38649
 C1711 C 0.56694 1.04418 0.36952
 H1712 H 0.57816 1.03774 0.36291
 O1713 O 0.48242 0.91077 0.43480
 O1714 O 0.48244 0.88984 0.41392
 C1715 C 0.47633 0.89618 0.42851
 C1716 C 0.46173 0.88675 0.43809
 C1717 C 0.45579 0.86986 0.43231
 H1718 H 0.46221 0.86330 0.42103
 O1719 O 0.51732 1.08932 0.43518
 O1720 O 0.51736 1.11033 0.41438
 C1721 C 0.52343 1.10393 0.42897
 C1722 C 0.53800 1.11331 0.43864
 C1723 C 0.54394 1.13025 0.43297
 H1724 H 0.53756 1.13687 0.42170
 O1725 O 0.41060 0.93529 0.48204
 O1726 O 0.38962 0.91450 0.48196
 C1727 C 0.39600 0.92908 0.47591
 C1728 C 0.38658 0.93876 0.46134
 C1729 C 0.36962 0.93313 0.45544
 H1730 H 0.36301 0.92190 0.46186
 O1731 O 0.58892 1.06460 0.48262
 O1732 O 0.60989 1.08540 0.48266
 C1733 C 0.60353 1.07084 0.47653
 C1734 C 0.61297 1.06125 0.46192
 C1735 C 0.62994 1.06693 0.45610
 H1736 H 0.63652 1.07813 0.46260
 O1737 O 0.51737 0.93534 0.41034
 O1738 O 0.51744 0.91455 0.38932
 C1739 C 0.52351 0.92912 0.39572
 C1740 C 0.53811 0.93874 0.38633
 C1741 C 0.54406 0.93304 0.36939
 H1742 H 0.53766 0.92180 0.36279
 O1743 O 0.48243 1.06486 0.41052
 O1744 O 0.48242 1.08573 0.38958
 C1745 C 0.47635 1.07113 0.39591
 C1746 C 0.46180 1.06152 0.38644
 C1747 C 0.45599 1.06716 0.36943
 H1748 H 0.46245 1.07838 0.36283
 O1749 O 0.41065 1.01760 0.43490
 O1750 O 0.38972 1.01771 0.41403
 C1751 C 0.39606 1.02376 0.42864
 C1752 C 0.38665 1.03836 0.43827
 C1753 C 0.36977 1.04438 0.43247
 H1754 H 0.36323 1.03804 0.42115
 O1755 O 0.58910 0.98253 0.43503
 O1756 O 0.61011 0.98255 0.41423
 C1757 C 0.60372 0.97643 0.42879
 C1758 C 0.61313 0.96182 0.43841
 C1759 C 0.63008 0.95589 0.43271
 H1760 H 0.63667 0.96232 0.42147
 O1761 O 0.56453 0.91070 0.48221
 O1762 O 0.58538 0.88973 0.48220
 C1763 C 0.57081 0.89610 0.47609
 C1764 C 0.56123 0.88671 0.46146
 C1765 C 0.56697 0.86978 0.45553
 H1766 H 0.57821 0.86319 0.46197
 O1767 O 0.43510 1.08929 0.48241
 O1768 O 0.41427 1.11027 0.48240
 C1769 C 0.42885 1.10391 0.47631
 C1770 C 0.43847 1.11334 0.46173
 C1771 C 0.43276 1.13030 0.45583
 H1772 H 0.42150 1.13687 0.46226
 Cu1773 Cu 0.57474 1.00003 0.42486
 Cu1774 Cu 0.59987 1.00007 0.39981
 Cu1775 Cu 0.42501 1.00012 0.42470
 Cu1776 Cu 0.39995 1.00021 0.39957
 Cu1777 Cu 0.57457 1.07479 0.50012
 Cu1778 Cu 0.59966 1.09984 0.50017
 Cu1779 Cu 0.57468 0.92503 0.49973
 Cu1780 Cu 0.59979 0.89994 0.49974
 Cu1781 Cu 0.42490 1.07490 0.49986
 Cu1782 Cu 0.39982 1.10001 0.49987
 Cu1783 Cu 0.42494 0.92505 0.49952
 Cu1784 Cu 0.39984 0.90002 0.49945
 Cu1785 Cu 0.49987 1.07500 0.42493
 Cu1786 Cu 0.49989 1.10015 0.39988
 Cu1787 Cu 0.49989 0.92514 0.42466
 Cu1788 Cu 0.49995 0.90010 0.39952
 C1789 C 0.54670 0.95330 0.39464
 H1790 H 0.54234 0.95763 0.40780
 C1791 C 0.55842 0.94167 0.36098
 C1792 C 0.45314 1.04697 0.39472
 H1793 H 0.45739 1.04268 0.40793
 C1794 C 0.44171 1.05849 0.36091
 C1795 C 0.45305 1.10507 0.45309
 H1796 H 0.45738 1.09190 0.45740
 C1797 C 0.44139 1.13876 0.44149
 C1798 C 0.54667 0.89499 0.45282
 H1799 H 0.54231 0.90814 0.45716
 C1800 C 0.55837 0.86135 0.44115
 C1801 C 0.60484 0.95318 0.45297
 H1802 H 0.59168 0.95752 0.45730
 C1803 C 0.63851 0.94153 0.44135
 C1804 C 0.39487 1.04689 0.45293
 H1805 H 0.40799 1.04248 0.45732
 C1806 C 0.36134 1.05876 0.44110
 C1807 C 0.54670 1.04693 0.39479
 H1808 H 0.54239 1.04260 0.40797
 C1809 C 0.55829 1.05855 0.36108
 C1810 C 0.45313 0.95334 0.39452
 H1811 H 0.45748 0.95769 0.40767
 C1812 C 0.44143 0.94166 0.36087
 C1813 C 0.60470 1.04674 0.45320
 H1814 H 0.59152 1.04243 0.45747
 C1815 C 0.63843 1.05832 0.44175
 C1816 C 0.39488 0.95332 0.45272
 H1817 H 0.40805 0.95759 0.45704
 C1818 C 0.36116 0.94184 0.44112
 C1819 C 0.54657 1.10500 0.45324
 H1820 H 0.54222 1.09184 0.45754
 C1821 C 0.55826 1.13866 0.44167
 C1822 C 0.45310 0.89499 0.45269
 H1823 H 0.45744 0.90812 0.45708
 C1824 C 0.44142 0.86142 0.44089
 O1825 O 0.48265 0.43517 0.91093
 O1826 O 0.48262 0.41437 0.88992
 C1827 C 0.47654 0.42896 0.89630
 C1828 C 0.46197 0.43861 0.88688
 C1829 C 0.45608 0.43294 0.86991
 H1830 H 0.46250 0.42170 0.86331
 O1831 O 0.51756 0.56462 0.91104
 O1832 O 0.51765 0.58545 0.89005
 C1833 C 0.52370 0.57084 0.89642
 C1834 C 0.53825 0.56116 0.88700
 C1835 C 0.54408 0.56675 0.86998
 H1836 H 0.53763 0.57796 0.86335
 O1837 O 0.41082 0.48263 0.93539
 O1838 O 0.38988 0.48265 0.91452
 C1839 C 0.39622 0.47655 0.92912
 C1840 C 0.38677 0.46198 0.93873
 C1841 C 0.36981 0.45615 0.93303
 H1842 H 0.36323 0.46263 0.92180
 O1843 O 0.58928 0.51717 0.93565
 O1844 O 0.61028 0.51721 0.91484
 C1845 C 0.60389 0.52328 0.92943
 C1846 C 0.61328 0.53786 0.93908
 C1847 C 0.63023 0.54377 0.93341
 H1848 H 0.63684 0.53737 0.92216
 O1849 O 0.43525 0.41071 0.98263
 O1850 O 0.41439 0.38980 0.98257
 C1851 C 0.42898 0.39613 0.97650
 C1852 C 0.43858 0.38670 0.96189
 C1853 C 0.43277 0.36985 0.95586
 H1854 H 0.42145 0.36333 0.96222
 O1855 O 0.56468 0.58901 0.98300
 O1856 O 0.58553 0.60993 0.98303
 C1857 C 0.57096 0.60361 0.97690
 C1858 C 0.56139 0.61306 0.96229
 C1859 C 0.56712 0.63000 0.95641
 H1860 H 0.57835 0.63655 0.96288
 O1861 O 0.43542 0.51752 0.91087
 O1862 O 0.41463 0.51757 0.88985
 C1863 C 0.42919 0.52364 0.89624
 C1864 C 0.43881 0.53823 0.88683
 C1865 C 0.43311 0.54415 0.86988
 H1866 H 0.42188 0.53774 0.86328
 O1867 O 0.56483 0.48226 0.91100
 O1868 O 0.58569 0.48224 0.89006
 C1869 C 0.57111 0.47615 0.89640
 C1870 C 0.56154 0.46155 0.88696
 C1871 C 0.56734 0.45556 0.87006
 H1872 H 0.57863 0.46193 0.86352
 O1873 O 0.51754 0.41052 0.93548
 O1874 O 0.51757 0.38959 0.91461
 C1875 C 0.52366 0.39592 0.92920
 C1876 C 0.53828 0.38650 0.93880
 C1877 C 0.54435 0.36966 0.93294
 H1878 H 0.53802 0.36314 0.92160
 O1879 O 0.48262 0.58924 0.93552
 O1880 O 0.48266 0.61022 0.91470
 C1881 C 0.47654 0.60386 0.92927
 C1882 C 0.46196 0.61331 0.93889
 C1883 C 0.45610 0.63029 0.93322
 H1884 H 0.46255 0.63688 0.92198
 O1885 O 0.41079 0.56482 0.98272
 O1886 O 0.38985 0.58570 0.98265
 C1887 C 0.39621 0.57111 0.97656
 C1888 C 0.38684 0.56155 0.96191
 C1889 C 0.36999 0.56739 0.95584
 H1890 H 0.36343 0.57869 0.96220
 O1891 O 0.58926 0.43493 0.98289
 O1892 O 0.61022 0.41408 0.98290
 C1893 C 0.60387 0.42866 0.97680
 C1894 C 0.61330 0.43827 0.96219
 C1895 C 0.63022 0.43251 0.95624
 H1896 H 0.63679 0.42124 0.96264
 O1897 O 0.48263 0.56474 0.91094
 O1898 O 0.48266 0.58558 0.88997
 C1899 C 0.47655 0.57101 0.89632
 C1900 C 0.46198 0.56142 0.88687
 C1901 C 0.45607 0.56714 0.86991
 H1902 H 0.46248 0.57839 0.86334
 O1903 O 0.51759 0.43507 0.91093
 O1904 O 0.51761 0.41426 0.88993
 C1905 C 0.52371 0.42882 0.89631
 C1906 C 0.53833 0.43839 0.88692
 C1907 C 0.54434 0.43261 0.87003
 H1908 H 0.53796 0.42135 0.86345
 O1909 O 0.58928 0.48222 0.93563
 O1910 O 0.61028 0.48222 0.91482
 C1911 C 0.60390 0.47611 0.92939
 C1912 C 0.61330 0.46149 0.93900
 C1913 C 0.63022 0.45553 0.93326
 H1914 H 0.63680 0.46195 0.92201
 O1915 O 0.41087 0.51758 0.93540
 O1916 O 0.38994 0.51764 0.91451
 C1917 C 0.39628 0.52372 0.92911
 C1918 C 0.38688 0.53836 0.93869
 C1919 C 0.37003 0.54441 0.93284
 H1920 H 0.36350 0.53805 0.92152
 O1921 O 0.43533 0.58932 0.98279
 O1922 O 0.41453 0.61033 0.98274
 C1923 C 0.42911 0.60394 0.97668
 C1924 C 0.43876 0.61335 0.96210
 C1925 C 0.43311 0.63033 0.95622
 H1926 H 0.42189 0.63695 0.96266
 O1927 O 0.56471 0.41043 0.98283
 O1928 O 0.58554 0.38945 0.98284
 C1929 C 0.57098 0.39583 0.97671
 C1930 C 0.56143 0.38645 0.96205
 C1931 C 0.56729 0.36961 0.95598
 H1932 H 0.57860 0.36307 0.96234
 O1933 O 0.56477 0.51721 0.91107
 O1934 O 0.58563 0.51724 0.89011
 C1935 C 0.57103 0.52332 0.89646
 C1936 C 0.56141 0.53791 0.88702
 C1937 C 0.56703 0.54370 0.87000
 H1938 H 0.57822 0.53720 0.86338
 O1939 O 0.43542 0.48257 0.91090
 O1940 O 0.41462 0.48258 0.88989
 C1941 C 0.42918 0.47647 0.89628
 C1942 C 0.43880 0.46186 0.88686
 C1943 C 0.43312 0.45598 0.86989
 H1944 H 0.42190 0.46243 0.86329
 O1945 O 0.51755 0.58916 0.93557
 O1946 O 0.51765 0.61014 0.91473
 C1947 C 0.52370 0.60376 0.92934
 C1948 C 0.53827 0.61313 0.93900
 C1949 C 0.54421 0.63007 0.93333
 H1950 H 0.53783 0.63668 0.92206
 O1951 O 0.48259 0.41058 0.93543
 O1952 O 0.48256 0.38964 0.91456
 C1953 C 0.47646 0.39601 0.92915
 C1954 C 0.46182 0.38664 0.93872
 C1955 C 0.45579 0.36978 0.93290
 H1956 H 0.46218 0.36321 0.92162
 O1957 O 0.58917 0.56440 0.98301
 O1958 O 0.61015 0.58519 0.98303
 C1959 C 0.60379 0.57063 0.97692
 C1960 C 0.61323 0.56102 0.96233
 C1961 C 0.63017 0.56672 0.95645
 H1962 H 0.63674 0.57795 0.96290
 O1963 O 0.41073 0.43530 0.98262
 O1964 O 0.38974 0.41452 0.98257
 C1965 C 0.39612 0.42909 0.97650
 C1966 C 0.38673 0.43875 0.96191
 C1967 C 0.36976 0.43313 0.95600
 H1968 H 0.36315 0.42191 0.96242
 Cu1969 Cu 0.50009 0.42492 0.92528
 Cu1970 Cu 0.50009 0.39986 0.90015
 Cu1971 Cu 0.50008 0.57485 0.92536
 Cu1972 Cu 0.50016 0.59995 0.90026
 Cu1973 Cu 0.42521 0.50007 0.92523
 Cu1974 Cu 0.40017 0.50011 0.90009
 Cu1975 Cu 0.57495 0.49971 0.92542
 Cu1976 Cu 0.60008 0.49973 0.90036
 C1977 C 0.45335 0.45319 0.89516
 H1978 H 0.45766 0.45750 0.90835
 C1979 C 0.44176 0.44163 0.86144
 C1980 C 0.54690 0.54662 0.89533
 H1981 H 0.54264 0.54238 0.90855
 C1982 C 0.55836 0.55802 0.86150
 C1983 C 0.39504 0.45330 0.95329
 H1984 H 0.40821 0.45757 0.95761
 C1985 C 0.36133 0.44183 0.94167
 C1986 C 0.60498 0.54646 0.95367
 H1987 H 0.59181 0.54213 0.95797
 C1988 C 0.63865 0.55810 0.94209
 C1989 C 0.45323 0.39490 0.95334
 H1990 H 0.45765 0.40800 0.95775
 C1991 C 0.44137 0.36141 0.94147
 C1992 C 0.54684 0.60482 0.95361
 H1993 H 0.54249 0.59167 0.95791
 C1994 C 0.55854 0.63848 0.94203
 C1995 C 0.45336 0.54684 0.89513
 H1996 H 0.45769 0.54249 0.90830
 C1997 C 0.44174 0.55851 0.86145
 C1998 C 0.54691 0.45299 0.89519
 H1999 H 0.54251 0.45737 0.90832
 C2000 C 0.55874 0.44119 0.86162
 C2001 C 0.54680 0.39470 0.95347
 H2002 H 0.54236 0.40779 0.95792
 C2003 C 0.55876 0.36124 0.94152
 C2004 C 0.45331 0.60504 0.95345
 H2005 H 0.45759 0.59185 0.95776
 C2006 C 0.44178 0.63878 0.94188
 C2007 C 0.39509 0.54691 0.95334
 H2008 H 0.40818 0.54248 0.95778
 C2009 C 0.36161 0.55882 0.94141
 C2010 C 0.60503 0.45287 0.95359
 H2011 H 0.59189 0.45724 0.95795
 C2012 C 0.63865 0.44115 0.94188
 O2013 O 0.51724 0.43504 1.08966
 O2014 O 0.51720 0.41419 1.11064
 C2015 C 0.52331 0.42876 1.10429
 C2016 C 0.53788 0.43834 1.11376
 C2017 C 0.54377 0.43261 1.13071
 H2018 H 0.53733 0.42136 1.13728
 O2019 O 0.48231 0.56458 1.08972
 O2020 O 0.48228 0.58539 1.11072
 C2021 C 0.47618 0.57083 1.10433
 C2022 C 0.46156 0.56125 1.11371
 C2023 C 0.45556 0.56700 1.13063
 H2024 H 0.46195 0.57825 1.13722
 O2025 O 0.41057 0.51750 1.06496
 O2026 O 0.38956 0.51752 1.08576
 C2027 C 0.39596 0.52363 1.07120
 C2028 C 0.38659 0.53827 1.06159
 C2029 C 0.36969 0.54430 1.06735
 H2030 H 0.36311 0.53792 1.07862
 O2031 O 0.58906 0.48213 1.06524
 O2032 O 0.61000 0.48208 1.08611
 C2033 C 0.60365 0.47600 1.07151
 C2034 C 0.61308 0.46140 1.06190
 C2035 C 0.63000 0.45545 1.06765
 H2036 H 0.63656 0.46184 1.07893
 O2037 O 0.56464 0.41042 1.01781
 O2038 O 0.58546 0.38943 1.01788
 C2039 C 0.57088 0.39582 1.02395
 C2040 C 0.56125 0.38644 1.03857
 C2041 C 0.56701 0.36954 1.04459
 H2042 H 0.57830 0.36295 1.03823
 O2043 O 0.43525 0.58929 1.01777
 O2044 O 0.41444 0.61029 1.01776
 C2045 C 0.42899 0.60390 1.02389
 C2046 C 0.43857 0.61327 1.03853
 C2047 C 0.43282 0.63019 1.04450
 H2048 H 0.42158 0.63679 1.03808
 O2049 O 0.43505 0.48247 1.08950
 O2050 O 0.41418 0.48244 1.11044
 C2051 C 0.42877 0.47635 1.10410
 C2052 C 0.43836 0.46173 1.11352
 C2053 C 0.43265 0.45583 1.13048
 H2054 H 0.42141 0.46228 1.13706
 O2055 O 0.56451 0.51712 1.08975
 O2056 O 0.58531 0.51711 1.11077
 C2057 C 0.57074 0.52322 1.10438
 C2058 C 0.56111 0.53780 1.11381
 C2059 C 0.56675 0.54364 1.13080
 H2060 H 0.57796 0.53718 1.13741
 O2061 O 0.48236 0.41057 1.06500
 O2062 O 0.48228 0.38958 1.08583
 C2063 C 0.47624 0.39596 1.07123
 C2064 C 0.46168 0.38657 1.06155
 C2065 C 0.45578 0.36961 1.06720
 H2066 H 0.46220 0.36299 1.07844
 O2067 O 0.51732 0.58906 1.06524
 O2068 O 0.51735 0.61000 1.08610
 C2069 C 0.52344 0.60364 1.07151
 C2070 C 0.53806 0.61303 1.06191
 C2071 C 0.54398 0.62996 1.06763
 H2072 H 0.53756 0.63656 1.07887
 O2073 O 0.41070 0.43528 1.01759
 O2074 O 0.38972 0.41449 1.01757
 C2075 C 0.39608 0.42906 1.02368
 C2076 C 0.38663 0.43869 1.03825
 C2077 C 0.36966 0.43302 1.04409
 H2078 H 0.36309 0.42180 1.03763
 O2079 O 0.58914 0.56438 1.01798
 O2080 O 0.61013 0.58516 1.01804
 C2081 C 0.60375 0.57059 1.02411
 C2082 C 0.61316 0.56093 1.03869
 C2083 C 0.63014 0.56654 1.04455
 H2084 H 0.63675 0.57775 1.03810
 O2085 O 0.51726 0.56448 1.08975
 O2086 O 0.51728 0.58528 1.11075
 C2087 C 0.52335 0.57069 1.10438
 C2088 C 0.53792 0.56103 1.11381
 C2089 C 0.54377 0.56666 1.13081
 H2090 H 0.53732 0.57788 1.13742
 O2091 O 0.48230 0.43511 1.08955
 O2092 O 0.48221 0.41426 1.11052
 C2093 C 0.47615 0.42886 1.10415
 C2094 C 0.46155 0.43849 1.11355
 C2095 C 0.45562 0.43281 1.13050
 H2096 H 0.46204 0.42156 1.13711
 O2097 O 0.58910 0.51708 1.06525
 O2098 O 0.61004 0.51707 1.08612
 C2099 C 0.60370 0.52316 1.07152
 C2100 C 0.61314 0.53773 1.06189
 C2101 C 0.63012 0.54355 1.06755
 H2102 H 0.63671 0.53708 1.07878
 O2103 O 0.41056 0.48255 1.06491
 O2104 O 0.38954 0.48252 1.08571
 C2105 C 0.39594 0.47645 1.07113
 C2106 C 0.38655 0.46188 1.06147
 C2107 C 0.36958 0.45600 1.06710
 H2108 H 0.36295 0.46243 1.07833
 O2109 O 0.56462 0.58896 1.01798
 O2110 O 0.58547 0.60988 1.01805
 C2111 C 0.57088 0.60355 1.02412
 C2112 C 0.56127 0.61297 1.03872
 C2113 C 0.56699 0.62990 1.04464
 H2114 H 0.57824 0.63646 1.03822
 O2115 O 0.43520 0.41069 1.01761
 O2116 O 0.41436 0.38976 1.01759
 C2117 C 0.42893 0.39609 1.02370
 C2118 C 0.43853 0.38664 1.03830
 C2119 C 0.43284 0.36967 1.04415
 H2120 H 0.42163 0.36310 1.03767
 O2121 O 0.56452 0.48218 1.08978
 O2122 O 0.58532 0.48212 1.11080
 C2123 C 0.57074 0.47606 1.10441
 C2124 C 0.56110 0.46149 1.11382
 C2125 C 0.56678 0.45554 1.13077
 H2126 H 0.57802 0.46193 1.13738
 O2127 O 0.43504 0.51742 1.08958
 O2128 O 0.41417 0.51744 1.11051
 C2129 C 0.42876 0.52352 1.10419
 C2130 C 0.43835 0.53810 1.11364
 C2131 C 0.43256 0.54405 1.13056
 H2132 H 0.42128 0.53766 1.13710
 O2133 O 0.48238 0.58913 1.06518
 O2134 O 0.48235 0.61007 1.08604
 C2135 C 0.47628 0.60374 1.07144
 C2136 C 0.46170 0.61319 1.06181
 C2137 C 0.45575 0.63011 1.06757
 H2138 H 0.46213 0.63665 1.07886
 O2139 O 0.51731 0.41055 1.06506
 O2140 O 0.51727 0.38958 1.08590
 C2141 C 0.52340 0.39594 1.07133
 C2142 C 0.53803 0.38651 1.06175
 C2143 C 0.54400 0.36962 1.06756
 H2144 H 0.53759 0.36308 1.07885
 O2145 O 0.58917 0.43493 1.01787
 O2146 O 0.61013 0.41407 1.01793
 C2147 C 0.60376 0.42866 1.02401
 C2148 C 0.61313 0.43824 1.03865
 C2149 C 0.63005 0.43250 1.04461
 H2150 H 0.63665 0.42125 1.03819
 O2151 O 0.41071 0.56480 1.01770
 O2152 O 0.38976 0.58566 1.01768
 C2153 C 0.39610 0.57107 1.02379
 C2154 C 0.38666 0.56149 1.03839
 C2155 C 0.36977 0.56730 1.04436
 H2156 H 0.36324 0.57861 1.03796
 Cu2157 Cu 0.49981 0.42490 1.07523
 Cu2158 Cu 0.49973 0.39980 1.10032
 Cu2159 Cu 0.49982 0.57473 1.07538
 Cu2160 Cu 0.49982 0.59979 1.10051
 Cu2161 Cu 0.42506 0.42508 1.00012
 Cu2162 Cu 0.39995 0.40005 1.00007
 Cu2163 Cu 0.57486 0.42476 1.00034
 Cu2164 Cu 0.59994 0.39965 1.00039
 Cu2165 Cu 0.42510 0.57497 1.00025
 Cu2166 Cu 0.40004 0.60010 1.00021
 Cu2167 Cu 0.57481 0.57461 1.00049
 Cu2168 Cu 0.59992 0.59964 1.00054
 Cu2169 Cu 0.42489 0.49999 1.07515
 Cu2170 Cu 0.39976 0.49998 1.10021
 Cu2171 Cu 0.57471 0.49963 1.07542
 Cu2172 Cu 0.59976 0.49959 1.10055
 C2173 C 0.54653 0.45291 1.10551
 H2174 H 0.54223 0.45726 1.09233
 C2175 C 0.55811 0.44120 1.13920
 C2176 C 0.45296 0.54668 1.10541
 H2177 H 0.45735 0.54232 1.09227
 C2178 C 0.44117 0.55840 1.13902
 C2179 C 0.39487 0.54685 1.04699
 H2180 H 0.40799 0.54244 1.04262
 C2181 C 0.36131 0.55872 1.05874
 C2182 C 0.60484 0.45281 1.04728
 H2183 H 0.59169 0.45717 1.04292
 C2184 C 0.63846 0.44110 1.05900
 C2185 C 0.54664 0.39473 1.04713
 H2186 H 0.54227 0.40785 1.04272
 C2187 C 0.55838 0.36116 1.05899
 C2188 C 0.45313 0.60497 1.04717
 H2189 H 0.45749 0.59183 1.04280
 C2190 C 0.44141 0.63858 1.05892
 C2191 C 0.45293 0.45308 1.10525
 H2192 H 0.45727 0.45739 1.09208
 C2193 C 0.44128 0.44148 1.13894
 C2194 C 0.54657 0.54648 1.10550
 H2195 H 0.54229 0.54220 1.09230
 C2196 C 0.55808 0.55797 1.13928
 C2197 C 0.45307 0.39489 1.04698
 H2198 H 0.45738 0.40807 1.04269
 C2199 C 0.44147 0.36118 1.05849
 C2200 C 0.54668 0.60473 1.04734
 H2201 H 0.54234 0.59158 1.04300
 C2202 C 0.55835 0.63837 1.05899
 C2203 C 0.39488 0.45324 1.04692
 H2204 H 0.40806 0.45754 1.04264
 C2205 C 0.36116 0.44167 1.05841
 C2206 C 0.60485 0.54640 1.04734
 H2207 H 0.59166 0.54214 1.04305
 C2208 C 0.63859 0.55785 1.05888
 C2209 C 1.12335 1.12239 1.30050
 C2210 C 1.11739 1.11637 1.28674
 C2211 C 1.11040 1.10928 1.27021
 C2212 C 1.12206 1.10502 1.25615
 C2213 C 1.11532 1.09831 1.24001
 C2214 C 1.09678 1.09578 1.23771
 C2215 C 1.08516 1.10007 1.25195
 C2216 C 1.09194 1.10677 1.26809
 C2217 C 1.08961 1.08883 1.22049
 C2218 C 1.07386 1.09608 1.21303
 C2219 C 1.06730 1.08974 1.19666
 C2220 C 1.07636 1.07607 1.18754
 C2221 C 1.09196 1.06870 1.19489
 C2222 C 1.09855 1.07502 1.21125
 C2223 C 1.06980 1.06978 1.17052
 C2224 C 1.06445 1.06457 1.15619
 H2225 H 1.13637 1.10698 1.25763
 H2226 H 1.12458 1.09538 1.22923
 H2227 H 1.07085 1.09806 1.25067
 H2228 H 1.08279 1.10999 1.27891
 H2229 H 1.06681 1.10688 1.21969
 H2230 H 1.05525 1.09559 1.19105
 H2231 H 1.09905 1.05809 1.18796
 H2232 H 1.11056 1.06901 1.21675
 C2233 C 1.12301 0.62193 0.80069
 C2234 C 1.11699 0.61583 0.78699
 C2235 C 1.10988 0.60867 0.77055
 C2236 C 1.12110 0.59939 0.75872
 C2237 C 1.11430 0.59269 0.74259
 C2238 C 1.09616 0.59521 0.73807
 C2239 C 1.08497 0.60449 0.75011
 C2240 C 1.09180 0.61116 0.76624
 C2241 C 1.08902 0.58837 0.72079
 C2242 C 1.07696 0.59874 0.71063
 C2243 C 1.07049 0.59244 0.69421
 C2244 C 1.07594 0.57570 0.68774
 C2245 C 1.08783 0.56523 0.69779
 C2246 C 1.09434 0.57151 0.71421
 C2247 C 1.06955 0.56939 0.67067
 C2248 C 1.06431 0.56419 0.65630
 H2249 H 1.13514 0.59745 0.76189
 H2250 H 1.12331 0.58583 0.73351
 H2251 H 1.07091 0.60644 0.74712
 H2252 H 1.08299 0.61830 0.77532
 H2253 H 1.07280 0.61187 0.71521
 H2254 H 1.06134 0.60068 0.68650
 H2255 H 1.09212 0.55224 0.69291
 H2256 H 1.10341 0.56312 0.72182
 C2257 C 0.62356 1.12296 0.79990
 C2258 C 0.61742 1.11691 0.78623
 C2259 C 0.61016 1.10982 0.76983
 C2260 C 0.61329 1.09194 0.76509
 C2261 C 0.60645 1.08513 0.74902
 C2262 C 0.59638 1.09614 0.73746
 C2263 C 0.59325 1.11408 0.74239
 C2264 C 0.60010 1.12085 0.75846
 C2265 C 0.58933 1.08902 0.72025
 C2266 C 0.57209 1.09376 0.71424
 C2267 C 0.56560 1.08728 0.69790
 C2268 C 0.57624 1.07600 0.68734
 C2269 C 0.59337 1.07114 0.69323
 C2270 C 0.59988 1.07758 0.70957
 C2271 C 0.56970 1.06961 0.67035
 C2272 C 0.56434 1.06435 0.65604
 H2273 H 0.62103 1.08327 0.77381
 H2274 H 0.60890 1.07122 0.74571
 H2275 H 0.58576 1.12295 0.73368
 H2276 H 0.59766 1.13474 0.76196
 H2277 H 0.56356 1.10234 0.72226
 H2278 H 0.55230 1.09110 0.69347
 H2279 H 0.60175 1.06246 0.68512
 H2280 H 0.61330 1.07389 0.71370
 C2281 C 0.62219 0.62225 1.30104
 C2282 C 0.61611 0.61625 1.28732
 C2283 C 0.60896 0.60920 1.27085
 C2284 C 0.61210 0.59132 1.26611
 C2285 C 0.60541 0.58456 1.24996
 C2286 C 0.59547 0.59561 1.23833
 C2287 C 0.59232 0.61354 1.24327
 C2288 C 0.59903 0.62027 1.25942
 C2289 C 0.58859 0.58854 1.22103
 C2290 C 0.57142 0.59332 1.21486
 C2291 C 0.56508 0.58689 1.19844
 C2292 C 0.57582 0.57562 1.18796
 C2293 C 0.59288 0.57071 1.19401
 C2294 C 0.59924 0.57712 1.21044
 C2295 C 0.56944 0.56929 1.17089
 C2296 C 0.56421 0.56408 1.15652
 H2297 H 0.61974 0.58262 1.27488
 H2298 H 0.60787 0.57065 1.24665
 H2299 H 0.58493 0.62245 1.23450
 H2300 H 0.59658 0.63415 1.26292
 H2301 H 0.56282 0.60190 1.22281
 H2302 H 0.55184 0.59074 1.19389
 H2303 H 0.60132 0.56205 1.18597
 H2304 H 0.61260 0.57339 1.21469
 C2305 C 0.87692 0.87674 1.30006
 C2306 C 0.88297 0.88275 1.28633
 C2307 C 0.89011 0.88983 1.26986
 C2308 C 0.90004 0.87877 1.25840
 C2309 C 0.90677 0.88554 1.24228
 C2310 C 0.90365 0.90349 1.23738
 C2311 C 0.89370 0.91452 1.24903
 C2312 C 0.88699 0.90772 1.26516
 C2313 C 0.91057 0.91061 1.22012
 C2314 C 0.89996 0.92209 1.20954
 C2315 C 0.90637 0.92855 1.19315
 C2316 C 0.92344 0.92366 1.18713
 C2317 C 0.93414 0.91233 1.19759
 C2318 C 0.92776 0.90584 1.21397
 C2319 C 0.92988 0.93008 1.17011
 C2320 C 0.93518 0.93537 1.15579
 H2321 H 0.90247 0.86488 1.26188
 H2322 H 0.91416 0.87665 1.23350
 H2323 H 0.89126 0.92844 1.24575
 H2324 H 0.87935 0.91640 1.27395
 H2325 H 0.88659 0.92581 1.21378
 H2326 H 0.89795 0.93726 1.18513
 H2327 H 0.94739 0.90849 1.19306
 H2328 H 0.93633 0.89722 1.22191
 C2329 C 0.87590 0.37666 0.79976
 C2330 C 0.88202 0.38263 0.78604
 C2331 C 0.88926 0.38965 0.76959
 C2332 C 0.88643 0.40761 0.76495
 C2333 C 0.89326 0.41436 0.74886
 C2334 C 0.90304 0.40322 0.73717
 C2335 C 0.90587 0.38521 0.74200
 C2336 C 0.89902 0.37848 0.75810
 C2337 C 0.91010 0.41029 0.71995
 C2338 C 0.92721 0.40527 0.71380
 C2339 C 0.93372 0.41173 0.69745
 C2340 C 0.92324 0.42328 0.68703
 C2341 C 0.90624 0.42843 0.69306
 C2342 C 0.89970 0.42200 0.70941
 C2343 C 0.92980 0.42967 0.67005
 C2344 C 0.93518 0.43496 0.65576
 H2345 H 0.87892 0.41638 0.77377
 H2346 H 0.89104 0.42833 0.74563
 H2347 H 0.91313 0.37623 0.73320
 H2348 H 0.90124 0.36455 0.76153
 H2349 H 0.93563 0.39647 0.72171
 H2350 H 0.94692 0.40768 0.69292
 H2351 H 0.89798 0.43731 0.68506
 H2352 H 0.88639 0.42592 0.71364
 C2353 C 0.37596 0.87686 0.79984
 C2354 C 0.38179 0.88268 0.78594
 C2355 C 0.38865 0.88952 0.76925
 C2356 C 0.40464 0.89929 0.76892
 C2357 C 0.41133 0.90584 0.75268
 C2358 C 0.40210 0.90266 0.73653
 C2359 C 0.38601 0.89285 0.73702
 C2360 C 0.37935 0.88634 0.75328
 C2361 C 0.40922 0.90950 0.71924
 C2362 C 0.40842 0.89887 0.70367
 C2363 C 0.41501 0.90534 0.68737
 C2364 C 0.42249 0.92250 0.68639
 C2365 C 0.42339 0.93317 0.70179
 C2366 C 0.41682 0.92672 0.71812
 C2367 C 0.42911 0.92916 0.66954
 C2368 C 0.43455 0.93463 0.65534
 H2369 H 0.41197 0.90179 0.78121
 H2370 H 0.42385 0.91315 0.75271
 H2371 H 0.37847 0.89040 0.72486
 H2372 H 0.36693 0.87883 0.75338
 H2373 H 0.40288 0.88548 0.70414
 H2374 H 0.41429 0.89696 0.67553
 H2375 H 0.42911 0.94650 0.70117
 H2376 H 0.41743 0.93530 0.72982
 C2377 C 0.37662 0.37723 1.30055
 C2378 C 0.38267 0.38320 1.28680
 C2379 C 0.38983 0.39021 1.27031
 C2380 C 0.38681 0.40811 1.26559
 C2381 C 0.39356 0.41485 1.24945
 C2382 C 0.40342 0.40375 1.23781
 C2383 C 0.40645 0.38579 1.24273
 C2384 C 0.39968 0.37908 1.25887
 C2385 C 0.41038 0.41080 1.22054
 C2386 C 0.42754 0.40592 1.21439
 C2387 C 0.43395 0.41235 1.19799
 C2388 C 0.42332 0.42373 1.18752
 C2389 C 0.40628 0.42874 1.19355
 C2390 C 0.39984 0.42234 1.20995
 C2391 C 0.42978 0.43008 1.17049
 C2392 C 0.43508 0.43532 1.15615
 H2393 H 0.37923 0.41686 1.27438
 H2394 H 0.39120 0.42879 1.24616
 H2395 H 0.41377 0.37684 1.23395
 H2396 H 0.40204 0.36518 1.26236
 H2397 H 0.43606 0.39726 1.22233
 H2398 H 0.44717 0.40842 1.19346
 H2399 H 0.39791 0.43749 1.18552
 H2400 H 0.38650 0.42615 1.21419
 C2401 C 0.87637 1.12317 0.69978
 C2402 C 0.88235 1.11715 0.71354
 C2403 C 0.88937 1.11005 0.73005
 C2404 C 0.90790 1.10905 0.73277
 C2405 C 0.91471 1.10235 0.74890
 C2406 C 0.90305 1.09654 0.76254
 C2407 C 0.88444 1.09754 0.75964
 C2408 C 0.87767 1.10425 0.74351
 C2409 C 0.91023 1.08960 0.77978
 C2410 C 0.90226 1.07474 0.78821
 C2411 C 0.90886 1.06840 0.80457
 C2412 C 0.92349 1.07681 0.81272
 C2413 C 0.93157 1.09154 0.80441
 C2414 C 0.92501 1.09790 0.78804
 C2415 C 0.93004 1.07048 0.82974
 C2416 C 0.93539 1.06524 0.84406
 H2417 H 0.91708 1.11347 0.72242
 H2418 H 0.92909 1.10154 0.75064
 H2419 H 0.87511 1.09340 0.76997
 H2420 H 0.86330 1.10502 0.74157
 H2421 H 0.89103 1.06792 0.78208
 H2422 H 0.90252 1.05696 0.81088
 H2423 H 0.94286 1.09819 0.81065
 H2424 H 0.93128 1.10950 0.78201
 C2425 C 0.87826 0.62197 0.19895
 C2426 C 0.88432 0.61599 0.21269
 C2427 C 0.89146 0.60898 0.22919
 C2428 C 0.88828 0.59114 0.23401
 C2429 C 0.89497 0.58442 0.25019
 C2430 C 0.90495 0.59547 0.26175
 C2431 C 0.90815 0.61336 0.25673
 C2432 C 0.90143 0.62006 0.24056
 C2433 C 0.91182 0.58845 0.27908
 C2434 C 0.92901 0.59316 0.28521
 C2435 C 0.93533 0.58679 0.30167
 C2436 C 0.92456 0.57564 0.31222
 C2437 C 0.90749 0.57079 0.30620
 C2438 C 0.90114 0.57714 0.28974
 C2439 C 0.93093 0.56936 0.32932
 C2440 C 0.93615 0.56419 0.34371
 H2441 H 0.88060 0.58244 0.22529
 H2442 H 0.89247 0.57053 0.25357
 H2443 H 0.91556 0.62227 0.26545
 H2444 H 0.90392 0.63391 0.23698
 H2445 H 0.93763 0.60166 0.27721
 H2446 H 0.94859 0.59060 0.30619
 H2447 H 0.89902 0.56222 0.31430
 H2448 H 0.88777 0.57346 0.28551
 C2449 C 0.37698 1.12173 0.19894
 C2450 C 0.38299 1.11569 0.21268
 C2451 C 0.39008 1.10862 0.22917
 C2452 C 0.37887 1.09941 0.24104
 C2453 C 0.38566 1.09279 0.25721
 C2454 C 0.40379 1.09532 0.26173
 C2455 C 0.41498 1.10454 0.24966
 C2456 C 0.40815 1.11114 0.23349
 C2457 C 0.41094 1.08855 0.27904
 C2458 C 0.42295 1.09897 0.28918
 C2459 C 0.42942 1.09273 0.30563
 C2460 C 0.42401 1.07601 0.31216
 C2461 C 0.41216 1.06549 0.30213
 C2462 C 0.40566 1.07171 0.28568
 C2463 C 0.43040 1.06976 0.32925
 C2464 C 0.43563 1.06459 0.34365
 H2465 H 0.36484 1.09745 0.23786
 H2466 H 0.37666 1.08597 0.26632
 H2467 H 0.42903 1.10651 0.25266
 H2468 H 0.41696 1.11823 0.22438
 H2469 H 0.42708 1.11208 0.28455
 H2470 H 0.43854 1.10100 0.31332
 H2471 H 0.40791 1.05251 0.30705
 H2472 H 0.39662 1.06328 0.27809
 C2473 C 0.37653 0.62250 0.69992
 C2474 C 0.38248 0.61651 0.71370
 C2475 C 0.38947 0.60944 0.73024
 C2476 C 0.40787 0.60633 0.73215
 C2477 C 0.41465 0.59964 0.74831
 C2478 C 0.40310 0.59595 0.76276
 C2479 C 0.38462 0.59908 0.76066
 C2480 C 0.37787 0.60578 0.74451
 C2481 C 0.41028 0.58900 0.77999
 C2482 C 0.40102 0.57563 0.78953
 C2483 C 0.40764 0.56930 0.80589
 C2484 C 0.42357 0.57622 0.81293
 C2485 C 0.43293 0.58945 0.80350
 C2486 C 0.42635 0.59580 0.78713
 C2487 C 0.43015 0.56992 0.82993
 C2488 C 0.43552 0.56470 0.84426
 H2489 H 0.41696 0.60908 0.72117
 H2490 H 0.42891 0.59717 0.74943
 H2491 H 0.37541 0.59662 0.77161
 H2492 H 0.36361 0.60820 0.74319
 H2493 H 0.38875 0.56996 0.78428
 H2494 H 0.40030 0.55903 0.81307
 H2495 H 0.44525 0.59495 0.80886
 H2496 H 0.43366 0.60625 0.78022
 C2497 C 1.12155 0.87824 0.69886
 C2498 C 1.11555 0.88422 0.71262
 C2499 C 1.10848 0.89123 0.72915
 C2500 C 1.09965 0.87986 0.74116
 C2501 C 1.09302 0.88658 0.75735
 C2502 C 1.09516 0.90479 0.76176
 C2503 C 1.10400 0.91613 0.74955
 C2504 C 1.11061 0.90938 0.73336
 C2505 C 1.08837 0.91185 0.77910
 C2506 C 1.09858 0.92417 0.78908
 C2507 C 1.09234 0.93056 0.80556
 C2508 C 1.07582 0.92477 0.81227
 C2509 C 1.06551 0.91262 0.80240
 C2510 C 1.07173 0.90619 0.78592
 C2511 C 1.06958 0.93109 0.82939
 C2512 C 1.06442 0.93627 0.84381
 H2513 H 1.09800 0.86577 0.73806
 H2514 H 1.08651 0.87746 0.76657
 H2515 H 1.10565 0.93025 0.75246
 H2516 H 1.11739 0.91831 0.72414
 H2517 H 1.11154 0.92860 0.78431
 H2518 H 1.10046 0.93992 0.81313
 H2519 H 1.05269 0.90807 0.80746
 H2520 H 1.06346 0.89691 0.77845
 C2521 C 1.12342 0.37775 0.19936
 C2522 C 1.11762 0.38366 0.21324
 C2523 C 1.11081 0.39062 0.22990
 C2524 C 1.12131 0.38970 0.24542
 C2525 C 1.11472 0.39635 0.26165
 C2526 C 1.09751 0.40403 0.26258
 C2527 C 1.08707 0.40490 0.24689
 C2528 C 1.09369 0.39824 0.23066
 C2529 C 1.09049 0.41100 0.27986
 C2530 C 1.07254 0.40806 0.28481
 C2531 C 1.06603 0.41442 0.30121
 C2532 C 1.07735 0.42380 0.31284
 C2533 C 1.09519 0.42688 0.30799
 C2534 C 1.10173 0.42053 0.29162
 C2535 C 1.07075 0.43010 0.32984
 C2536 C 1.06536 0.43532 0.34415
 H2537 H 1.13456 0.38377 0.24499
 H2538 H 1.12299 0.39526 0.27353
 H2539 H 1.07386 0.41092 0.24712
 H2540 H 1.08547 0.39906 0.21871
 H2541 H 1.06362 0.40058 0.27616
 H2542 H 1.05220 0.41191 0.30486
 H2543 H 1.10406 0.43417 0.31688
 H2544 H 1.11554 0.42322 0.28808
 C2545 C 0.62290 0.87682 0.19951
 C2546 C 0.61689 0.88274 0.21330
 C2547 C 0.60979 0.88967 0.22984
 C2548 C 0.60667 0.87811 0.24428
 C2549 C 0.59991 0.88481 0.26043
 C2550 C 0.59619 0.90320 0.26235
 C2551 C 0.59936 0.91472 0.24775
 C2552 C 0.60611 0.90798 0.23160
 C2553 C 0.58917 0.91033 0.27957
 C2554 C 0.59549 0.92669 0.28648
 C2555 C 0.58908 0.93323 0.30284
 C2556 C 0.57626 0.92353 0.31249
 C2557 C 0.56981 0.90731 0.30569
 C2558 C 0.57620 0.90073 0.28934
 C2559 C 0.56991 0.93009 0.32949
 C2560 C 0.56464 0.93545 0.34380
 H2561 H 0.60954 0.86392 0.24308
 H2562 H 0.59786 0.87564 0.27149
 H2563 H 0.59643 0.92890 0.24874
 H2564 H 0.60844 0.91704 0.22049
 H2565 H 0.60563 0.93427 0.27940
 H2566 H 0.59422 0.94578 0.30803
 H2567 H 0.55986 0.89971 0.31304
 H2568 H 0.57090 0.88823 0.28427
 C2569 C 0.62405 0.37594 0.70061
 C2570 C 0.61805 0.38187 0.71440
 C2571 C 0.61092 0.38882 0.73094
 C2572 C 0.60598 0.40687 0.73224
 C2573 C 0.59915 0.41362 0.74835
 C2574 C 0.59715 0.40237 0.76337
 C2575 C 0.60214 0.38424 0.76190
 C2576 C 0.60898 0.37753 0.74579
 C2577 C 0.59001 0.40952 0.78053
 C2578 C 0.57798 0.39933 0.79090
 C2579 C 0.57147 0.40595 0.80718
 C2580 C 0.57687 0.42282 0.81333
 C2581 C 0.58875 0.43309 0.80309
 C2582 C 0.59527 0.42651 0.78679
 C2583 C 0.57040 0.42945 0.83025
 C2584 C 0.56505 0.43488 0.84451
 H2585 H 0.60739 0.41572 0.72081
 H2586 H 0.59522 0.42758 0.74899
 H2587 H 0.60101 0.37530 0.77328
 H2588 H 0.61283 0.36355 0.74494
 H2589 H 0.57349 0.38632 0.78633
 H2590 H 0.56225 0.39790 0.81498
 H2591 H 0.59306 0.44614 0.80776
 H2592 H 0.60468 0.43457 0.77925
 C2593 C 1.30022 1.12300 1.12239
 C2594 C 1.28638 1.11715 1.11645
 C2595 C 1.26979 1.11028 1.10944
 C2596 C 1.26808 1.09203 1.10548
 C2597 C 1.25190 1.08534 1.09883
 C2598 C 1.23720 1.09685 1.09604
 C2599 C 1.23909 1.11518 1.10003
 C2600 C 1.25527 1.12183 1.10669
 C2601 C 1.21995 1.08977 1.08912
 C2602 C 1.20997 1.09953 1.07642
 C2603 C 1.19360 1.09298 1.07011
 C2604 C 1.18697 1.07661 1.07640
 C2605 C 1.19683 1.06676 1.08897
 C2606 C 1.21321 1.07327 1.09528
 C2607 C 1.16997 1.07007 1.07013
 C2608 C 1.15565 1.06472 1.06492
 H2609 H 1.27925 1.08297 1.10753
 H2610 H 1.25093 1.07121 1.09568
 H2611 H 1.22796 1.12434 1.09827
 H2612 H 1.25643 1.13597 1.10978
 H2613 H 1.21490 1.11215 1.07124
 H2614 H 1.18610 1.10071 1.06036
 H2615 H 1.19178 1.05410 1.09397
 H2616 H 1.22046 1.06555 1.10522
 C2617 C 1.30005 0.62313 0.62308
 C2618 C 1.28625 0.61723 0.61712
 C2619 C 1.26969 0.61032 0.61008
 C2620 C 1.25512 0.62182 0.60739
 C2621 C 1.23897 0.61514 0.60067
 C2622 C 1.23717 0.59682 0.59657
 C2623 C 1.25191 0.58536 0.59930
 C2624 C 1.26806 0.59208 0.60601
 C2625 C 1.21996 0.58971 0.58957
 C2626 C 1.21329 0.57313 0.59559
 C2627 C 1.19695 0.56659 0.58920
 C2628 C 1.18706 0.57650 0.57670
 C2629 C 1.19362 0.59294 0.57055
 C2630 C 1.20995 0.59952 0.57693
 C2631 C 1.17010 0.56992 0.57035
 C2632 C 1.15581 0.56454 0.56508
 H2633 H 1.25621 0.63595 0.61056
 H2634 H 1.22780 0.62425 0.59896
 H2635 H 1.25102 0.57125 0.59607
 H2636 H 1.27927 0.58307 0.60801
 H2637 H 1.22056 0.56537 0.60548
 H2638 H 1.19196 0.55386 0.59410
 H2639 H 1.18609 0.60071 0.56084
 H2640 H 1.21483 0.61220 0.57185
 C2641 C 0.79956 1.12278 0.62332
 C2642 C 0.78582 1.11672 0.61736
 C2643 C 0.76935 1.10955 0.61037
 C2644 C 0.75650 1.10252 0.62207
 C2645 C 0.74039 1.09574 0.61534
 C2646 C 0.73692 1.09591 0.59679
 C2647 C 0.74996 1.10296 0.58513
 C2648 C 0.76606 1.10973 0.59189
 C2649 C 0.71970 1.08892 0.58968
 C2650 C 0.71070 1.09794 0.57576
 C2651 C 0.69434 1.09152 0.56929
 C2652 C 0.68677 1.07600 0.57660
 C2653 C 0.69567 1.06687 0.59037
 C2654 C 0.71202 1.07327 0.59688
 C2655 C 0.66977 1.06960 0.57016
 C2656 C 0.65546 1.06433 0.56486
 H2657 H 0.75888 1.10237 0.63640
 H2658 H 0.73053 1.09063 0.62468
 H2659 H 0.74778 1.10308 0.57078
 H2660 H 0.77594 1.11511 0.58271
 H2661 H 0.71614 1.11014 0.57011
 H2662 H 0.68753 1.09873 0.55867
 H2663 H 0.68995 1.05482 0.59610
 H2664 H 0.71874 1.06590 0.60743
 C2665 C 0.80057 0.62213 1.12208
 C2666 C 0.78678 0.61619 1.11615
 C2667 C 0.77022 0.60921 1.10916
 C2668 C 0.75749 0.62087 1.10183
 C2669 C 0.74130 0.61417 1.09522
 C2670 C 0.73763 0.59569 1.09588
 C2671 C 0.75055 0.58407 1.10324
 C2672 C 0.76674 0.59080 1.10983
 C2673 C 0.72033 0.58861 1.08905
 C2674 C 0.71119 0.57504 1.09843
 C2675 C 0.69476 0.56859 1.09216
 C2676 C 0.68726 0.57559 1.07644
 C2677 C 0.69629 0.58901 1.06697
 C2678 C 0.71271 0.59549 1.07321
 C2679 C 0.67019 0.56919 1.07018
 C2680 C 0.65583 0.56396 1.06500
 H2681 H 0.76002 0.63516 1.10131
 H2682 H 0.73153 0.62349 1.08987
 H2683 H 0.74821 0.56976 1.10373
 H2684 H 0.77652 0.58166 1.11545
 H2685 H 0.71658 0.56963 1.11078
 H2686 H 0.68784 0.55825 1.09963
 H2687 H 0.69062 0.59450 1.05477
 H2688 H 0.71953 0.60576 1.06558
 C2689 C 1.30022 0.87710 0.87742
 C2690 C 1.28647 0.88309 0.88346
 C2691 C 1.26999 0.89013 0.89060
 C2692 C 1.26631 0.90849 0.88953
 C2693 C 1.25018 0.91527 0.89624
 C2694 C 1.23750 0.90375 0.90413
 C2695 C 1.24137 0.88532 0.90520
 C2696 C 1.25750 0.87857 0.89847
 C2697 C 1.22025 0.91089 0.91105
 C2698 C 1.21295 0.90437 0.92718
 C2699 C 1.19657 0.91088 0.93353
 C2700 C 1.18726 0.92399 0.92386
 C2701 C 1.19443 0.93063 0.90785
 C2702 C 1.21082 0.92414 0.90148
 C2703 C 1.17023 0.93044 0.93022
 C2704 C 1.15590 0.93574 0.93547
 H2705 H 1.27590 0.91756 0.88350
 H2706 H 1.24769 0.92955 0.89543
 H2707 H 1.23179 0.87608 0.91096
 H2708 H 1.26019 0.86432 0.89930
 H2709 H 1.21999 0.89434 0.93497
 H2710 H 1.19115 0.90568 0.94596
 H2711 H 1.18730 0.94072 0.90022
 H2712 H 1.21596 0.92925 0.88890
 C2713 C 1.30051 0.37725 0.37661
 C2714 C 1.28675 0.38319 0.38267
 C2715 C 1.27025 0.39010 0.38988
 C2716 C 1.26725 0.40860 0.39057
 C2717 C 1.25113 0.41528 0.39743
 C2718 C 1.23780 0.40352 0.40370
 C2719 C 1.24098 0.38494 0.40300
 C2720 C 1.25710 0.37830 0.39613
 C2721 C 1.22058 0.41057 0.41080
 C2722 C 1.21252 0.40273 0.42595
 C2723 C 1.19617 0.40918 0.43244
 C2724 C 1.18764 0.42354 0.42388
 C2725 C 1.19558 0.43149 0.40886
 C2726 C 1.21195 0.42507 0.40236
 C2727 C 1.17063 0.42994 0.43033
 C2728 C 1.15631 0.43522 0.43563
 H2729 H 1.27736 0.41786 0.38581
 H2730 H 1.24917 0.42965 0.39800
 H2731 H 1.23090 0.37554 0.40749
 H2732 H 1.25926 0.36395 0.39560
 H2733 H 1.21895 0.39171 0.43289
 H2734 H 1.19015 0.40295 0.44409
 H2735 H 1.18906 0.44257 0.40209
 H2736 H 1.21768 0.43123 0.39053
 C2737 C 0.79989 0.87704 0.37641
 C2738 C 0.78613 0.88298 0.38245
 C2739 C 0.76962 0.88992 0.38963
 C2740 C 0.76668 0.90843 0.39036
 C2741 C 0.75056 0.91515 0.39716
 C2742 C 0.73716 0.90342 0.40335
 C2743 C 0.74028 0.88483 0.40260
 C2744 C 0.75640 0.87815 0.39578
 C2745 C 0.71994 0.91051 0.41040
 C2746 C 0.71181 0.90266 0.42551
 C2747 C 0.69546 0.90916 0.43197
 C2748 C 0.68702 0.92357 0.42342
 C2749 C 0.69502 0.93153 0.40844
 C2750 C 0.71138 0.92506 0.40197
 C2751 C 0.67001 0.93001 0.42985
 C2752 C 0.65569 0.93531 0.43515
 H2753 H 0.77684 0.91767 0.38566
 H2754 H 0.74865 0.92953 0.39776
 H2755 H 0.73014 0.87545 0.40702
 H2756 H 0.75852 0.86379 0.39522
 H2757 H 0.71818 0.89160 0.43244
 H2758 H 0.68939 0.90292 0.44359
 H2759 H 0.68856 0.94265 0.40168
 H2760 H 0.71717 0.93123 0.39018
 C2761 C 0.79966 0.37700 0.87567
 C2762 C 0.78594 0.38306 0.88171
 C2763 C 0.76950 0.39018 0.88886
 C2764 C 0.76663 0.39050 0.90740
 C2765 C 0.75055 0.39718 0.91433
 C2766 C 0.73711 0.40366 0.90277
 C2767 C 0.74016 0.40335 0.88415
 C2768 C 0.75624 0.39665 0.87726
 C2769 C 0.71992 0.41058 0.91008
 C2770 C 0.71178 0.42588 0.90262
 C2771 C 0.69547 0.43220 0.90932
 C2772 C 0.68707 0.42335 0.92356
 C2773 C 0.69509 0.40818 0.93115
 C2774 C 0.71142 0.40183 0.92447
 C2775 C 0.67010 0.42967 0.93020
 C2776 C 0.65581 0.43493 0.93561
 H2777 H 0.77681 0.38555 0.91650
 H2778 H 0.74869 0.39745 0.92873
 H2779 H 0.72999 0.40801 0.87490
 H2780 H 0.75830 0.39641 0.86287
 H2781 H 0.71811 0.43304 0.89169
 H2782 H 0.68938 0.44398 0.90337
 H2783 H 0.68867 0.40118 0.94213
 H2784 H 0.71722 0.38990 0.93035
 C2785 C 0.70015 0.87704 1.12343
 C2786 C 0.71400 0.88289 1.11754
 C2787 C 0.73063 0.88973 1.11059
 C2788 C 0.74689 0.88216 1.11610
 C2789 C 0.76307 0.88872 1.10934
 C2790 C 0.76322 0.90296 1.09697
 C2791 C 0.74680 0.91050 1.09153
 C2792 C 0.73062 0.90390 1.09830
 C2793 C 0.78043 0.90991 1.08980
 C2794 C 0.78311 0.92844 1.08760
 C2795 C 0.79941 0.93496 1.08104
 C2796 C 0.81320 0.92305 1.07658
 C2797 C 0.81064 0.90460 1.07864
 C2798 C 0.79437 0.89806 1.08520
 C2799 C 0.83007 0.92974 1.07006
 C2800 C 0.84428 0.93521 1.06469
 H2801 H 0.74706 0.87122 1.12564
 H2802 H 0.77549 0.88280 1.11398
 H2803 H 0.74645 0.92132 1.08187
 H2804 H 0.71810 0.90982 1.09391
 H2805 H 0.77273 0.93792 1.09122
 H2806 H 0.80128 0.94928 1.07956
 H2807 H 0.82121 0.89526 1.07518
 H2808 H 0.79263 0.88371 1.08651
 C2809 C 0.70059 0.37655 0.62373
 C2810 C 0.71428 0.38253 0.61760
 C2811 C 0.73071 0.38953 0.61032
 C2812 C 0.73435 0.40790 0.61126
 C2813 C 0.75042 0.41465 0.60439
 C2814 C 0.76306 0.40310 0.59646
 C2815 C 0.75923 0.38466 0.59552
 C2816 C 0.74316 0.37794 0.60241
 C2817 C 0.78025 0.41020 0.58937
 C2818 C 0.78744 0.40360 0.57322
 C2819 C 0.80376 0.41009 0.56672
 C2820 C 0.81311 0.42324 0.57626
 C2821 C 0.80604 0.42996 0.59229
 C2822 C 0.78971 0.42350 0.59881
 C2823 C 0.83008 0.42967 0.56975
 C2824 C 0.84437 0.43498 0.56441
 H2825 H 0.72479 0.41699 0.61733
 H2826 H 0.75288 0.42893 0.60512
 H2827 H 0.76878 0.37539 0.58973
 H2828 H 0.74050 0.36369 0.60166
 H2829 H 0.78037 0.39354 0.56553
 H2830 H 0.80910 0.40483 0.55428
 H2831 H 0.81320 0.44009 0.59982
 H2832 H 0.78466 0.42867 0.61140
 C2833 C 0.19931 0.87765 0.62205
 C2834 C 0.21318 0.88345 0.61616
 C2835 C 0.22984 0.89021 0.60920
 C2836 C 0.23055 0.90720 0.60128
 C2837 C 0.24677 0.91376 0.59457
 C2838 C 0.26249 0.90339 0.59568
 C2839 C 0.26161 0.88632 0.60366
 C2840 C 0.24539 0.87979 0.61037
 C2841 C 0.27974 0.91034 0.58864
 C2842 C 0.29158 0.89896 0.57934
 C2843 C 0.30793 0.90544 0.57292
 C2844 C 0.31269 0.92336 0.57571
 C2845 C 0.30098 0.93481 0.58487
 C2846 C 0.28461 0.92836 0.59128
 C2847 C 0.32966 0.92991 0.56936
 C2848 C 0.34396 0.93527 0.56412
 H2849 H 0.21858 0.91536 0.60027
 H2850 H 0.24696 0.92686 0.58832
 H2851 H 0.27351 0.87811 0.60494
 H2852 H 0.24500 0.86664 0.61652
 H2853 H 0.28812 0.88509 0.57687
 H2854 H 0.31688 0.89647 0.56582
 H2855 H 0.30456 0.94869 0.58715
 H2856 H 0.27589 0.93739 0.59858
 C2857 C 0.19937 0.37730 1.12202
 C2858 C 0.21317 0.38317 1.11603
 C2859 C 0.22973 0.39006 1.10897
 C2860 C 0.23179 0.40847 1.10603
 C2861 C 0.24796 0.41516 1.09935
 C2862 C 0.26230 0.40350 1.09552
 C2863 C 0.26006 0.38501 1.09848
 C2864 C 0.24388 0.37836 1.10516
 C2865 C 0.27956 0.41059 1.08861
 C2866 C 0.28901 0.40136 1.07514
 C2867 C 0.30540 0.40788 1.06885
 C2868 C 0.31256 0.42369 1.07593
 C2869 C 0.30323 0.43302 1.08927
 C2870 C 0.28683 0.42653 1.09557
 C2871 C 0.32960 0.43019 1.06969
 C2872 C 0.34395 0.43550 1.06452
 H2873 H 0.22090 0.41764 1.10890
 H2874 H 0.24919 0.42943 1.09701
 H2875 H 0.27092 0.37573 1.09590
 H2876 H 0.24246 0.36409 1.10745
 H2877 H 0.28366 0.38919 1.06935
 H2878 H 0.31251 0.40057 1.05850
 H2879 H 0.30869 0.44524 1.09489
 H2880 H 0.27999 0.43382 1.10611
 C2881 C 0.70045 1.12361 0.87514
 C2882 C 0.71431 1.11775 0.88104
 C2883 C 0.73093 1.11090 0.88803
 C2884 C 0.73088 1.09858 0.90219
 C2885 C 0.74706 1.09202 0.90903
 C2886 C 0.76351 1.09774 0.90181
 C2887 C 0.76340 1.11010 0.88756
 C2888 C 0.74722 1.11663 0.88073
 C2889 C 0.78072 1.09087 0.90910
 C2890 C 0.79545 1.10241 0.91131
 C2891 C 0.81170 1.09592 0.91803
 C2892 C 0.81345 1.07783 0.92262
 C2893 C 0.79887 1.06624 0.92053
 C2894 C 0.78260 1.07270 0.91383
 C2895 C 0.83028 1.07115 0.92930
 C2896 C 0.84445 1.06567 0.93478
 H2897 H 0.71835 1.09410 0.90798
 H2898 H 0.74670 1.08269 0.92015
 H2899 H 0.77582 1.11457 0.88154
 H2900 H 0.74741 1.12612 0.86974
 H2901 H 0.79436 1.11651 0.90803
 H2902 H 0.82289 1.10502 0.91963
 H2903 H 0.80011 1.05219 0.92399
 H2904 H 0.77159 1.06344 0.91208
 C2905 C 0.70010 0.62242 0.37641
 C2906 C 0.71402 0.61659 0.38219
 C2907 C 0.73073 0.60977 0.38901
 C2908 C 0.73084 0.59739 0.40312
 C2909 C 0.74710 0.59085 0.40978
 C2910 C 0.76347 0.59664 0.40243
 C2911 C 0.76319 0.60907 0.38823
 C2912 C 0.74693 0.61557 0.38158
 C2913 C 0.78076 0.58979 0.40953
 C2914 C 0.79547 0.60137 0.41167
 C2915 C 0.81179 0.59490 0.41822
 C2916 C 0.81364 0.57679 0.42271
 C2917 C 0.79908 0.56516 0.42069
 C2918 C 0.78273 0.57161 0.41415
 C2919 C 0.83052 0.57016 0.42927
 C2920 C 0.84474 0.56472 0.43467
 H2921 H 0.71838 0.59285 0.40900
 H2922 H 0.74687 0.58147 0.42086
 H2923 H 0.77555 0.61359 0.38212
 H2924 H 0.74699 0.62512 0.37063
 H2925 H 0.79430 0.61548 0.40846
 H2926 H 0.82296 0.60403 0.41977
 H2927 H 0.80039 0.55110 0.42408
 H2928 H 0.77173 0.56232 0.41245
 C2929 C 0.19983 1.12292 0.37606
 C2930 C 0.21373 1.11710 0.38192
 C2931 C 0.23041 1.11029 0.38882
 C2932 C 0.23045 1.09764 0.40267
 C2933 C 0.24668 1.09109 0.40940
 C2934 C 0.26309 1.09715 0.40236
 C2935 C 0.26288 1.10985 0.38841
 C2936 C 0.24665 1.11637 0.38170
 C2937 C 0.28035 1.09027 0.40952
 C2938 C 0.29495 1.10191 0.41205
 C2939 C 0.31125 1.09542 0.41864
 C2940 C 0.31318 1.07723 0.42278
 C2941 C 0.29873 1.06554 0.42037
 C2942 C 0.28240 1.07201 0.41379
 C2943 C 0.33005 1.07057 0.42936
 C2944 C 0.34426 1.06512 0.43477
 H2945 H 0.21795 1.09288 0.40832
 H2946 H 0.24640 1.08148 0.42028
 H2947 H 0.27527 1.11459 0.38254
 H2948 H 0.24676 1.12612 0.37094
 H2949 H 0.29372 1.11607 0.40913
 H2950 H 0.32234 1.10458 0.42050
 H2951 H 0.30010 1.05143 0.42347
 H2952 H 0.27149 1.06268 0.41178
 C2953 C 0.20006 0.62346 0.87693
 C2954 C 0.21395 0.61767 0.88281
 C2955 C 0.23063 0.61086 0.88971
 C2956 C 0.23140 0.59382 0.89751
 C2957 C 0.24764 0.58719 0.90410
 C2958 C 0.26336 0.59753 0.90295
 C2959 C 0.26243 0.61466 0.89512
 C2960 C 0.24617 0.62127 0.88856
 C2961 C 0.28067 0.59047 0.90981
 C2962 C 0.29664 0.59336 0.90021
 C2963 C 0.31295 0.58680 0.90670
 C2964 C 0.31353 0.57727 0.92285
 C2965 C 0.29772 0.57428 0.93249
 C2966 C 0.28139 0.58083 0.92602
 C2967 C 0.33037 0.57065 0.92953
 C2968 C 0.34456 0.56520 0.93501
 H2969 H 0.21945 0.58563 0.89843
 H2970 H 0.24797 0.57386 0.90985
 H2971 H 0.27423 0.62305 0.89426
 H2972 H 0.24572 0.63450 0.88259
 H2973 H 0.29650 0.60051 0.88758
 H2974 H 0.32510 0.58914 0.89911
 H2975 H 0.29803 0.56697 0.94504
 H2976 H 0.26936 0.57857 0.93382
 C2977 C 1.12297 1.30056 1.12203
 C2978 C 1.11705 1.28674 1.11613
 C2979 C 1.11011 1.27016 1.10918
 C2980 C 1.09182 1.26843 1.10541
 C2981 C 1.08509 1.25224 1.09881
 C2982 C 1.09658 1.23757 1.09587
 C2983 C 1.11495 1.23947 1.09967
 C2984 C 1.12165 1.25565 1.10628
 C2985 C 1.08945 1.22032 1.08899
 C2986 C 1.09910 1.21039 1.07617
 C2987 C 1.09253 1.19402 1.06989
 C2988 C 1.07624 1.18735 1.07634
 C2989 C 1.06649 1.19715 1.08902
 C2990 C 1.07303 1.21354 1.09530
 C2991 C 1.06967 1.17033 1.07010
 C2992 C 1.06433 1.15601 1.06491
 H2993 H 1.08278 1.27959 1.10757
 H2994 H 1.07093 1.25127 1.09581
 H2995 H 1.12410 1.22835 1.09780
 H2996 H 1.13582 1.25683 1.10922
 H2997 H 1.11166 1.21536 1.07087
 H2998 H 1.10016 1.18655 1.06005
 H2999 H 1.05389 1.19207 1.09414
 H3000 H 1.06541 1.22075 1.10534
 C3001 C 1.12212 0.80050 0.62206
 C3002 C 1.11629 0.78664 0.61616
 C3003 C 1.10947 0.77001 0.60920
 C3004 C 1.09124 0.76825 0.60518
 C3005 C 1.08461 0.75203 0.59856
 C3006 C 1.09616 0.73735 0.59586
 C3007 C 1.11447 0.73928 0.59991
 C3008 C 1.12106 0.75551 0.60654
 C3009 C 1.08915 0.72006 0.58894
 C3010 C 1.09899 0.71010 0.57629
 C3011 C 1.09252 0.69370 0.56998
 C3012 C 1.07614 0.68704 0.57622
 C3013 C 1.06621 0.69688 0.58872
 C3014 C 1.07265 0.71329 0.59504
 C3015 C 1.06968 0.67000 0.56995
 C3016 C 1.06440 0.65565 0.56474
 H3017 H 1.08215 0.77941 0.60715
 H3018 H 1.07050 0.75102 0.59535
 H3019 H 1.12365 0.72817 0.59822
 H3020 H 1.13519 0.75671 0.60967
 H3021 H 1.11162 0.71506 0.57116
 H3022 H 1.10030 0.68620 0.56027
 H3023 H 1.05354 0.69181 0.59368
 H3024 H 1.06488 0.72053 0.60494
 C3025 C 0.62360 1.29917 0.62405
 C3026 C 0.61764 1.28542 0.61802
 C3027 C 0.61066 1.26893 0.61089
 C3028 C 0.59247 1.26746 0.60661
 C3029 C 0.58569 1.25138 0.59979
 C3030 C 0.59705 1.23654 0.59715
 C3031 C 0.61533 1.23818 0.60147
 C3032 C 0.62207 1.25426 0.60830
 C3033 C 0.58988 1.21941 0.59002
 C3034 C 0.59975 1.20936 0.57746
 C3035 C 0.59311 1.19310 0.57096
 C3036 C 0.57655 1.18666 0.57690
 C3037 C 0.56658 1.19658 0.58932
 C3038 C 0.57318 1.21286 0.59584
 C3039 C 0.56991 1.16975 0.57044
 C3040 C 0.56449 1.15551 0.56510
 H3041 H 0.58352 1.27874 0.60853
 H3042 H 0.57161 1.25061 0.59639
 H3043 H 0.62437 1.22694 0.59984
 H3044 H 0.63617 1.25524 0.61162
 H3045 H 0.61253 1.21415 0.57255
 H3046 H 0.60092 1.18554 0.56132
 H3047 H 0.55377 1.19168 0.59406
 H3048 H 0.56538 1.22016 0.60566
 C3049 C 0.62293 0.79991 1.12310
 C3050 C 0.61706 0.78610 1.11712
 C3051 C 0.61017 0.76953 1.11007
 C3052 C 0.59195 0.76788 1.10596
 C3053 C 0.58526 0.75172 1.09926
 C3054 C 0.59674 0.73699 1.09656
 C3055 C 0.61504 0.73881 1.10069
 C3056 C 0.62170 0.75497 1.10741
 C3057 C 0.58965 0.71975 1.08958
 C3058 C 0.59948 0.70974 1.07696
 C3059 C 0.59293 0.69339 1.07060
 C3060 C 0.57648 0.68683 1.07674
 C3061 C 0.56656 0.69671 1.08922
 C3062 C 0.57308 0.71308 1.09560
 C3063 C 0.56993 0.66984 1.07042
 C3064 C 0.56458 0.65553 1.06518
 H3065 H 0.58292 0.77909 1.10794
 H3066 H 0.57116 0.75081 1.09600
 H3067 H 0.62417 0.72764 1.09901
 H3068 H 0.63582 0.75608 1.11060
 H3069 H 0.61216 0.71463 1.07189
 H3070 H 0.60070 0.68586 1.06091
 H3071 H 0.55384 0.69172 1.09412
 H3072 H 0.56531 0.72035 1.10548
 C3073 C 0.87604 1.30005 0.87651
 C3074 C 0.88205 1.28635 0.88264
 C3075 C 0.88912 1.26992 0.88988
 C3076 C 0.90760 1.26675 0.88981
 C3077 C 0.91444 1.25069 0.89664
 C3078 C 0.90285 1.23757 0.90364
 C3079 C 0.88429 1.24091 0.90370
 C3080 C 0.87749 1.25698 0.89685
 C3081 C 0.91006 1.22039 0.91070
 C3082 C 0.90284 1.21265 0.92632
 C3083 C 0.90943 1.19634 0.93277
 C3084 C 0.92331 1.18754 0.92372
 C3085 C 0.93065 1.19516 0.90823
 C3086 C 0.92409 1.21148 0.90176
 C3087 C 0.92983 1.17056 0.93016
 C3088 C 0.93518 1.15626 0.93546
 H3089 H 0.91673 1.27670 0.88448
 H3090 H 0.92880 1.24861 0.89662
 H3091 H 0.87501 1.23098 0.90876
 H3092 H 0.86315 1.25926 0.89690
 H3093 H 0.89220 1.21929 0.93363
 H3094 H 0.90368 1.19057 0.94480
 H3095 H 0.94135 1.18843 0.90108
 H3096 H 0.92976 1.21697 0.88958
 C3097 C 0.87729 0.79990 0.37659
 C3098 C 0.88329 0.78617 0.38266
 C3099 C 0.89032 0.76970 0.38984
 C3100 C 0.90849 0.76553 0.38784
 C3101 C 0.91526 0.74941 0.39461
 C3102 C 0.90392 0.73724 0.40349
 C3103 C 0.88568 0.74161 0.40549
 C3104 C 0.87894 0.75772 0.39870
 C3105 C 0.91102 0.72000 0.41048
 C3106 C 0.90527 0.71331 0.42716
 C3107 C 0.91175 0.69693 0.43358
 C3108 C 0.92403 0.68703 0.42344
 C3109 C 0.92991 0.69361 0.40688
 C3110 C 0.92346 0.70999 0.40043
 C3111 C 0.93042 0.67001 0.42989
 C3112 C 0.93568 0.65568 0.43519
 H3113 H 0.91743 0.77472 0.38103
 H3114 H 0.92940 0.74654 0.39305
 H3115 H 0.87656 0.73242 0.41204
 H3116 H 0.86483 0.76079 0.40027
 H3117 H 0.89589 0.72081 0.43531
 H3118 H 0.90714 0.69198 0.44644
 H3119 H 0.93937 0.68601 0.39889
 H3120 H 0.92796 0.71465 0.38745
 C3121 C 0.37679 1.30026 0.37693
 C3122 C 0.38271 1.28648 0.38294
 C3123 C 0.38965 1.26994 0.39006
 C3124 C 0.40815 1.26749 0.39193
 C3125 C 0.41488 1.25135 0.39870
 C3126 C 0.40317 1.23745 0.40370
 C3127 C 0.38459 1.24008 0.40181
 C3128 C 0.37790 1.25622 0.39503
 C3129 C 0.41028 1.22023 0.41074
 C3130 C 0.40169 1.21145 0.42506
 C3131 C 0.40822 1.19510 0.43147
 C3132 C 0.42339 1.18729 0.42367
 C3133 C 0.43208 1.19595 0.40949
 C3134 C 0.42559 1.21232 0.40306
 C3135 C 0.42987 1.17028 0.43005
 C3136 C 0.43518 1.15595 0.43531
 H3137 H 0.41737 1.27804 0.38816
 H3138 H 0.42923 1.24982 0.40020
 H3139 H 0.37524 1.22956 0.40530
 H3140 H 0.36355 1.25796 0.39358
 H3141 H 0.39003 1.21731 0.43141
 H3142 H 0.40141 1.18852 0.44248
 H3143 H 0.44380 1.18999 0.40331
 H3144 H 0.43235 1.21862 0.39188
 C3145 C 0.37677 0.80033 0.87788
 C3146 C 0.38280 0.78660 0.88392
 C3147 C 0.38990 0.77014 0.89105
 C3148 C 0.40815 0.76619 0.88930
 C3149 C 0.41499 0.75006 0.89598
 C3150 C 0.40363 0.73766 0.90452
 C3151 C 0.38531 0.74180 0.90627
 C3152 C 0.37851 0.75793 0.89957
 C3153 C 0.41081 0.72041 0.91141
 C3154 C 0.40486 0.71345 0.92791
 C3155 C 0.41139 0.69706 0.93423
 C3156 C 0.42394 0.68741 0.92416
 C3157 C 0.43002 0.69426 0.90779
 C3158 C 0.42352 0.71065 0.90145
 C3159 C 0.43037 0.67036 0.93050
 C3160 C 0.43564 0.65600 0.93573
 H3161 H 0.41709 0.77556 0.88275
 H3162 H 0.42918 0.74736 0.89462
 H3163 H 0.37619 0.73244 0.91255
 H3164 H 0.36434 0.76082 0.90093
 H3165 H 0.39526 0.72075 0.93599
 H3166 H 0.40662 0.69189 0.94694
 H3167 H 0.43969 0.68686 0.89986
 H3168 H 0.42818 0.71553 0.88860
 C3169 C 1.12350 0.70022 0.87695
 C3170 C 1.11763 0.71412 0.88273
 C3171 C 1.11077 0.73082 0.88953
 C3172 C 1.11690 0.74705 0.88242
 C3173 C 1.11031 0.76330 0.88903
 C3174 C 1.09748 0.76354 0.90285
 C3175 C 1.09137 0.74714 0.90989
 C3176 C 1.09799 0.73090 0.90327
 C3177 C 1.09052 0.78082 0.90988
 C3178 C 1.07222 0.78287 0.91397
 C3179 C 1.06569 0.79921 0.92044
 C3180 C 1.07734 0.81368 0.92294
 C3181 C 1.09556 0.81174 0.91898
 C3182 C 1.10213 0.79544 0.91249
 C3183 C 1.07062 0.83055 0.92945
 C3184 C 1.06514 0.84476 0.93484
 H3185 H 1.12675 0.74714 0.87175
 H3186 H 1.11510 0.77567 0.88316
 H3187 H 1.08167 0.74689 0.92068
 H3188 H 1.09319 0.71841 0.90891
 H3189 H 1.06292 0.77195 0.91190
 H3190 H 1.05154 0.80058 0.92342
 H3191 H 1.10471 0.82285 0.92091
 H3192 H 1.11631 0.79420 0.90971
 C3193 C 1.12338 0.19976 0.37645
 C3194 C 1.11756 0.21364 0.38232
 C3195 C 1.11074 0.23031 0.38924
 C3196 C 1.09774 0.23033 0.40276
 C3197 C 1.09119 0.24656 0.40951
 C3198 C 1.09761 0.26298 0.40282
 C3199 C 1.11067 0.26279 0.38921
 C3200 C 1.11718 0.24657 0.38248
 C3201 C 1.09073 0.28023 0.40999
 C3202 C 1.10245 0.29468 0.41300
 C3203 C 1.09596 0.31098 0.41957
 C3204 C 1.07769 0.31308 0.42322
 C3205 C 1.06592 0.29878 0.42034
 C3206 C 1.07239 0.28245 0.41378
 C3207 C 1.07104 0.32997 0.42975
 C3208 C 1.06558 0.34419 0.43513
 H3209 H 1.09270 0.21782 0.40812
 H3210 H 1.08130 0.24626 0.42012
 H3211 H 1.11570 0.27520 0.38361
 H3212 H 1.12722 0.24670 0.37198
 H3213 H 1.11667 0.29332 0.41045
 H3214 H 1.10520 0.32196 0.42179
 H3215 H 1.05174 0.30029 0.42307
 H3216 H 1.06300 0.27166 0.41140
 C3217 C 0.62276 0.69960 0.37700
 C3218 C 0.61692 0.71344 0.38295
 C3219 C 0.61009 0.73006 0.38998
 C3220 C 0.62119 0.74513 0.39082
 C3221 C 0.61458 0.76133 0.39753
 C3222 C 0.59674 0.76267 0.40349
 C3223 C 0.58568 0.74743 0.40261
 C3224 C 0.59233 0.73123 0.39590
 C3225 C 0.58969 0.77992 0.41051
 C3226 C 0.57232 0.78574 0.40602
 C3227 C 0.56581 0.80212 0.41240
 C3228 C 0.57656 0.81288 0.42337
 C3229 C 0.59381 0.80717 0.42799
 C3230 C 0.60035 0.79081 0.42161
 C3231 C 0.56999 0.82987 0.42970
 C3232 C 0.56462 0.84418 0.43495
 H3233 H 0.63494 0.74439 0.38621
 H3234 H 0.62335 0.77287 0.39781
 H3235 H 0.57196 0.74797 0.40730
 H3236 H 0.58363 0.71963 0.39534
 H3237 H 0.56387 0.77778 0.39731
 H3238 H 0.55245 0.80644 0.40869
 H3239 H 0.60223 0.81538 0.43650
 H3240 H 0.61368 0.78660 0.42551
 C3241 C 0.62392 0.20040 0.87577
 C3242 C 0.61803 0.21423 0.88171
 C3243 C 0.61111 0.23083 0.88870
 C3244 C 0.59832 0.23072 0.90243
 C3245 C 0.59166 0.24687 0.90924
 C3246 C 0.59774 0.26336 0.90240
 C3247 C 0.61059 0.26331 0.88859
 C3248 C 0.61721 0.24715 0.88179
 C3249 C 0.59075 0.28054 0.90964
 C3250 C 0.60232 0.29516 0.91242
 C3251 C 0.59571 0.31138 0.91907
 C3252 C 0.57748 0.31324 0.92302
 C3253 C 0.56586 0.29877 0.92037
 C3254 C 0.57244 0.28252 0.91373
 C3255 C 0.57071 0.33004 0.92965
 C3256 C 0.56519 0.34421 0.93512
 H3257 H 0.59355 0.21815 0.90791
 H3258 H 0.58195 0.24646 0.92002
 H3259 H 0.61535 0.27577 0.88287
 H3260 H 0.62707 0.24740 0.87113
 H3261 H 0.61651 0.29399 0.90963
 H3262 H 0.60483 0.32249 0.92111
 H3263 H 0.55171 0.30009 0.92333
 H3264 H 0.56316 0.27159 0.91153
 C3265 C 0.87723 0.69987 1.12233
 C3266 C 0.88301 0.71378 1.11651
 C3267 C 0.88979 0.73048 1.10967
 C3268 C 0.88303 0.74670 1.11621
 C3269 C 0.88955 0.76296 1.10959
 C3270 C 0.90295 0.76320 1.09631
 C3271 C 0.90969 0.74680 1.08984
 C3272 C 0.90313 0.73056 1.09648
 C3273 C 0.90985 0.78048 1.08927
 C3274 C 0.92827 0.78280 1.08592
 C3275 C 0.93475 0.79916 1.07948
 C3276 C 0.92294 0.81337 1.07627
 C3277 C 0.90460 0.81117 1.07948
 C3278 C 0.89809 0.79485 1.08594
 C3279 C 0.92960 0.83027 1.06983
 C3280 C 0.93505 0.84452 1.06452
 H3281 H 0.87274 0.74679 1.12646
 H3282 H 0.88427 0.77534 1.11502
 H3283 H 0.91985 0.74655 1.07948
 H3284 H 0.90843 0.71807 1.09129
 H3285 H 0.93768 0.77208 1.08856
 H3286 H 0.94898 0.80074 1.07709
 H3287 H 0.89533 0.82208 1.07700
 H3288 H 0.88382 0.79340 1.08814
 C3289 C 0.87669 0.20014 0.62341
 C3290 C 0.88269 0.21391 0.61747
 C3291 C 0.88980 0.23043 0.61053
 C3292 C 0.89455 0.23182 0.59243
 C3293 C 0.90136 0.24792 0.58570
 C3294 C 0.90353 0.26286 0.59701
 C3295 C 0.89874 0.26130 0.61520
 C3296 C 0.89192 0.24520 0.62190
 C3297 C 0.91066 0.28001 0.58989
 C3298 C 0.92284 0.29024 0.60002
 C3299 C 0.92933 0.30653 0.59344
 C3300 C 0.92375 0.31282 0.57666
 C3301 C 0.91172 0.30271 0.56643
 C3302 C 0.90523 0.28641 0.57298
 C3303 C 0.93019 0.32976 0.57008
 C3304 C 0.93550 0.34402 0.56469
 H3305 H 0.89300 0.22045 0.58352
 H3306 H 0.90512 0.24863 0.57169
 H3307 H 0.90001 0.27262 0.62419
 H3308 H 0.88823 0.24429 0.63592
 H3309 H 0.92746 0.28558 0.61297
 H3310 H 0.93866 0.31424 0.60145
 H3311 H 0.90727 0.30749 0.55346
 H3312 H 0.89570 0.27896 0.56497
 C3313 C 0.37626 0.70008 0.62293
 C3314 C 0.38212 0.71394 0.61705
 C3315 C 0.38899 0.73058 0.61015
 C3316 C 0.38263 0.74686 0.61694
 C3317 C 0.38922 0.76306 0.61025
 C3318 C 0.40229 0.76318 0.59665
 C3319 C 0.40863 0.74673 0.58993
 C3320 C 0.40200 0.73054 0.59664
 C3321 C 0.40925 0.78041 0.58952
 C3322 C 0.42761 0.78250 0.58573
 C3323 C 0.43415 0.79880 0.57920
 C3324 C 0.42246 0.81319 0.57635
 C3325 C 0.40418 0.81122 0.58001
 C3326 C 0.39761 0.79495 0.58655
 C3327 C 0.42919 0.83003 0.56983
 C3328 C 0.43469 0.84423 0.56445
 H3329 H 0.37259 0.74704 0.62744
 H3330 H 0.38425 0.77548 0.61588
 H3331 H 0.41852 0.74639 0.57931
 H3332 H 0.40698 0.71801 0.59125
 H3333 H 0.43694 0.77163 0.58808
 H3334 H 0.44834 0.80020 0.57646
 H3335 H 0.39500 0.82227 0.57782
 H3336 H 0.38338 0.79369 0.58911
 C3337 C 0.37699 0.19942 1.12211
 C3338 C 0.38303 0.21320 1.11624
 C3339 C 0.39018 0.22974 1.10938
 C3340 C 0.39652 0.24281 1.12122
 C3341 C 0.40329 0.25898 1.11462
 C3342 C 0.40379 0.26228 1.09605
 C3343 C 0.39742 0.24903 1.08424
 C3344 C 0.39067 0.23286 1.09088
 C3345 C 0.41077 0.27955 1.08905
 C3346 C 0.40215 0.28830 1.07472
 C3347 C 0.40856 0.30470 1.06835
 C3348 C 0.42367 0.31257 1.07617
 C3349 C 0.43240 0.30393 1.09035
 C3350 C 0.42601 0.28754 1.09676
 C3351 C 0.43005 0.32962 1.06982
 C3352 C 0.43531 0.34397 1.06461
 H3353 H 0.39615 0.24055 1.13557
 H3354 H 0.40786 0.26900 1.12406
 H3355 H 0.39783 0.25108 1.06987
 H3356 H 0.38582 0.22281 1.08159
 H3357 H 0.39026 0.28262 1.06866
 H3358 H 0.40166 0.31131 1.05740
 H3359 H 0.44413 0.30989 1.09649
 H3360 H 0.43308 0.28103 1.10765
 C3361 C 1.12281 1.12363 0.69980
 C3362 C 1.11680 1.11758 0.71354
 C3363 C 1.10977 1.11043 0.73002
 C3364 C 1.12081 1.10033 0.74134
 C3365 C 1.11409 1.09356 0.75747
 C3366 C 1.09622 1.09684 0.76252
 C3367 C 1.08520 1.10695 0.75100
 C3368 C 1.09195 1.11369 0.73486
 C3369 C 1.08916 1.08988 0.77979
 C3370 C 1.07786 1.10053 0.79051
 C3371 C 1.07146 1.09409 0.80691
 C3372 C 1.07623 1.07693 0.81281
 C3373 C 1.08738 1.06619 0.80221
 C3374 C 1.09381 1.07261 0.78581
 C3375 C 1.06988 1.07046 0.82984
 C3376 C 1.06464 1.06516 0.84417
 H3377 H 1.13465 1.09777 0.73774
 H3378 H 1.12298 1.08604 0.76615
 H3379 H 1.07133 1.10951 0.75440
 H3380 H 1.08327 1.12147 0.72618
 H3381 H 1.07423 1.11396 0.78638
 H3382 H 1.06289 1.10254 0.81505
 H3383 H 1.09114 1.05288 0.80663
 H3384 H 1.10230 1.06401 0.77776
 C3385 C 1.12333 0.62388 0.20004
 C3386 C 1.11736 0.61774 0.21375
 C3387 C 1.11035 0.61048 0.23019
 C3388 C 1.09242 0.61336 0.23488
 C3389 C 1.08569 0.60652 0.25098
 C3390 C 1.09683 0.59669 0.26263
 C3391 C 1.11482 0.59380 0.25775
 C3392 C 1.12152 0.60066 0.24164
 C3393 C 1.08978 0.58964 0.27987
 C3394 C 1.09476 0.57250 0.28599
 C3395 C 1.08833 0.56600 0.30236
 C3396 C 1.07686 0.57653 0.31282
 C3397 C 1.07176 0.59355 0.30682
 C3398 C 1.07816 0.60008 0.29046
 C3399 C 1.07050 0.56998 0.32982
 C3400 C 1.06524 0.56461 0.34413
 H3401 H 1.08365 0.62091 0.22610
 H3402 H 1.07173 0.60878 0.25425
 H3403 H 1.12379 0.58651 0.26653
 H3404 H 1.13544 0.59841 0.23818
 H3405 H 1.10350 0.56406 0.27804
 H3406 H 1.09234 0.55279 0.30686
 H3407 H 1.06293 0.60184 0.31485
 H3408 H 1.07427 0.61341 0.28624
 C3409 C 0.62258 1.12304 0.19943
 C3410 C 0.61659 1.11696 0.21316
 C3411 C 0.60956 1.10978 0.22963
 C3412 C 0.62062 1.09974 0.24099
 C3413 C 0.61390 1.09299 0.25713
 C3414 C 0.59601 1.09623 0.26214
 C3415 C 0.58498 1.10628 0.25059
 C3416 C 0.59172 1.11300 0.23445
 C3417 C 0.58895 1.08931 0.27943
 C3418 C 0.57763 1.09997 0.29012
 C3419 C 0.57123 1.09357 0.30653
 C3420 C 0.57603 1.07644 0.31248
 C3421 C 0.58720 1.06569 0.30192
 C3422 C 0.59363 1.07206 0.28550
 C3423 C 0.56968 1.07001 0.32952
 C3424 C 0.56444 1.06473 0.34387
 H3425 H 0.63447 1.09723 0.23742
 H3426 H 0.62279 1.08552 0.26584
 H3427 H 0.57109 1.10880 0.25396
 H3428 H 0.58304 1.12074 0.22574
 H3429 H 0.57399 1.11339 0.28594
 H3430 H 0.56265 1.10204 0.31464
 H3431 H 0.59097 1.05239 0.30638
 H3432 H 0.60213 1.06345 0.27748
 C3433 C 0.62184 0.62134 0.69910
 C3434 C 0.61592 0.61533 0.71288
 C3435 C 0.60897 0.60824 0.72942
 C3436 C 0.59110 0.61133 0.73421
 C3437 C 0.58443 0.60471 0.75043
 C3438 C 0.59557 0.59490 0.76208
 C3439 C 0.61349 0.59179 0.75709
 C3440 C 0.62013 0.59843 0.74087
 C3441 C 0.58861 0.58811 0.77946
 C3442 C 0.59346 0.57099 0.78572
 C3443 C 0.58711 0.56474 0.80222
 C3444 C 0.57585 0.57551 0.81267
 C3445 C 0.57088 0.59252 0.80653
 C3446 C 0.57720 0.59879 0.79003
 C3447 C 0.56959 0.56922 0.82980
 C3448 C 0.56443 0.56406 0.84421
 H3449 H 0.58233 0.61888 0.72543
 H3450 H 0.57052 0.60713 0.75379
 H3451 H 0.62247 0.58450 0.76588
 H3452 H 0.63401 0.59603 0.73733
 H3453 H 0.60203 0.56236 0.77779
 H3454 H 0.59102 0.55153 0.80683
 H3455 H 0.56222 0.60099 0.81455
 H3456 H 0.57341 0.61212 0.78570
 C3457 C 0.87789 0.87790 0.69928
 C3458 C 0.88387 0.88395 0.71302
 C3459 C 0.89088 0.89110 0.72951
 C3460 C 0.87976 0.90104 0.74090
 C3461 C 0.88645 0.90778 0.75705
 C3462 C 0.90437 0.90466 0.76203
 C3463 C 0.91546 0.89472 0.75044
 C3464 C 0.90874 0.88799 0.73429
 C3465 C 0.91139 0.91158 0.77933
 C3466 C 0.92280 0.90097 0.78997
 C3467 C 0.92916 0.90736 0.80640
 C3468 C 0.92423 0.92443 0.81241
 C3469 C 0.91297 0.93514 0.80188
 C3470 C 0.90659 0.92877 0.78545
 C3471 C 0.93051 0.93084 0.82948
 C3472 C 0.93570 0.93610 0.84385
 H3473 H 0.86589 0.90347 0.73736
 H3474 H 0.87752 0.91517 0.76579
 H3475 H 0.92937 0.89228 0.75379
 H3476 H 0.91747 0.88034 0.72555
 H3477 H 0.92655 0.88760 0.78575
 H3478 H 0.93781 0.89894 0.81448
 H3479 H 0.90910 0.94839 0.80639
 H3480 H 0.89802 0.93735 0.77746
 C3481 C 0.87702 0.37630 0.19995
 C3482 C 0.88308 0.38239 0.21365
 C3483 C 0.89021 0.38958 0.23007
 C3484 C 0.87929 0.39983 0.24137
 C3485 C 0.88610 0.40661 0.25745
 C3486 C 0.90396 0.40321 0.26247
 C3487 C 0.91486 0.39294 0.25098
 C3488 C 0.90802 0.38618 0.23489
 C3489 C 0.91113 0.41019 0.27969
 C3490 C 0.92235 0.39949 0.29044
 C3491 C 0.92884 0.40595 0.30679
 C3492 C 0.92424 0.42318 0.31260
 C3493 C 0.91317 0.43397 0.30197
 C3494 C 0.90665 0.42753 0.28561
 C3495 C 0.93066 0.42967 0.32959
 C3496 C 0.93595 0.43502 0.34390
 H3497 H 0.86546 0.40248 0.23780
 H3498 H 0.87731 0.41425 0.26611
 H3499 H 0.92872 0.39027 0.25435
 H3500 H 0.91660 0.37829 0.22623
 H3501 H 0.92585 0.38600 0.28637
 H3502 H 0.93735 0.39746 0.31496
 H3503 H 0.90955 0.44734 0.30633
 H3504 H 0.89823 0.43617 0.27754
 C3505 C 0.37657 0.87613 0.19987
 C3506 C 0.38260 0.88227 0.21355
 C3507 C 0.38967 0.88953 0.22997
 C3508 C 0.37864 0.89960 0.24131
 C3509 C 0.38541 0.90646 0.25739
 C3510 C 0.40333 0.90331 0.26234
 C3511 C 0.41433 0.89321 0.25081
 C3512 C 0.40754 0.88638 0.23473
 C3513 C 0.41044 0.91036 0.27955
 C3514 C 0.42185 0.89981 0.29025
 C3515 C 0.42832 0.90634 0.30659
 C3516 C 0.42350 0.92349 0.31244
 C3517 C 0.41223 0.93413 0.30187
 C3518 C 0.40574 0.92763 0.28553
 C3519 C 0.42991 0.93004 0.32942
 C3520 C 0.43520 0.93541 0.34371
 H3521 H 0.36477 0.90207 0.23779
 H3522 H 0.37653 0.91397 0.26608
 H3523 H 0.42824 0.89075 0.25414
 H3524 H 0.41621 0.87862 0.22603
 H3525 H 0.42552 0.88638 0.28615
 H3526 H 0.43698 0.89796 0.31470
 H3527 H 0.40844 0.94745 0.30626
 H3528 H 0.39717 0.93616 0.27750
 C3529 C 0.37782 0.37705 0.69971
 C3530 C 0.38371 0.38308 0.71350
 C3531 C 0.39059 0.39023 0.73004
 C3532 C 0.37876 0.39596 0.74343
 C3533 C 0.38538 0.40275 0.75959
 C3534 C 0.40397 0.40389 0.76258
 C3535 C 0.41575 0.39813 0.74901
 C3536 C 0.40909 0.39135 0.73285
 C3537 C 0.41099 0.41090 0.77984
 C3538 C 0.42580 0.40272 0.78820
 C3539 C 0.43221 0.40915 0.80459
 C3540 C 0.42395 0.42383 0.81284
 C3541 C 0.40928 0.43213 0.80459
 C3542 C 0.40284 0.42573 0.78820
 C3543 C 0.43034 0.43022 0.82988
 C3544 C 0.43560 0.43547 0.84423
 H3545 H 0.36441 0.39509 0.74142
 H3546 H 0.37597 0.40683 0.76985
 H3547 H 0.43012 0.39904 0.75082
 H3548 H 0.41837 0.38699 0.72256
 H3549 H 0.43221 0.39115 0.78222
 H3550 H 0.44353 0.40258 0.81090
 H3551 H 0.40281 0.44353 0.81084
 H3552 H 0.39158 0.43246 0.78199
 C3553 C 1.12271 0.87652 1.30023
 C3554 C 1.11667 0.88241 1.28643
 C3555 C 1.10955 0.88933 1.26989
 C3556 C 1.10568 0.90761 1.26819
 C3557 C 1.09893 0.91435 1.25204
 C3558 C 1.09595 0.90287 1.23738
 C3559 C 1.09984 0.88450 1.23925
 C3560 C 1.10659 0.87780 1.25539
 C3561 C 1.08892 0.91001 1.22016
 C3562 C 1.07608 0.90034 1.21030
 C3563 C 1.06968 0.90693 1.19396
 C3564 C 1.07600 0.92325 1.18726
 C3565 C 1.08869 0.93302 1.19700
 C3566 C 1.09511 0.92646 1.21335
 C3567 C 1.06965 0.92983 1.17027
 C3568 C 1.06441 0.93521 1.15595
 H3569 H 1.10789 0.91665 1.27934
 H3570 H 1.09587 0.92850 1.25110
 H3571 H 1.09792 0.87537 1.22813
 H3572 H 1.10960 0.86364 1.25654
 H3573 H 1.07088 0.88775 1.21530
 H3574 H 1.05982 0.89928 1.18655
 H3575 H 1.09373 0.94564 1.19189
 H3576 H 1.10515 0.93410 1.22050
 C3577 C 1.12278 0.37691 0.80062
 C3578 C 1.11675 0.38275 0.78680
 C3579 C 1.10964 0.38961 0.77022
 C3580 C 1.10576 0.40788 0.76846
 C3581 C 1.09901 0.41455 0.75229
 C3582 C 1.09604 0.40302 0.73766
 C3583 C 1.09994 0.38466 0.73960
 C3584 C 1.10670 0.37803 0.75577
 C3585 C 1.08902 0.41009 0.72041
 C3586 C 1.07620 0.40038 0.71057
 C3587 C 1.06981 0.40691 0.69421
 C3588 C 1.07613 0.42322 0.68745
 C3589 C 1.08881 0.43302 0.69717
 C3590 C 1.09521 0.42652 0.71355
 C3591 C 1.06979 0.42974 0.67043
 C3592 C 1.06457 0.43508 0.65610
 H3593 H 1.10795 0.41696 0.77958
 H3594 H 1.09593 0.42870 0.75129
 H3595 H 1.09804 0.37548 0.72852
 H3596 H 1.10972 0.36387 0.75698
 H3597 H 1.07100 0.38781 0.71561
 H3598 H 1.05997 0.39923 0.68681
 H3599 H 1.09384 0.44563 0.69202
 H3600 H 1.10524 0.43419 0.72068
 C3601 C 0.62196 0.87756 0.80070
 C3602 C 0.61595 0.88355 0.78694
 C3603 C 0.60892 0.89063 0.77043
 C3604 C 0.62007 0.90030 0.75886
 C3605 C 0.61335 0.90698 0.74269
 C3606 C 0.59537 0.90405 0.73785
 C3607 C 0.58424 0.89436 0.74961
 C3608 C 0.59099 0.88771 0.76579
 C3609 C 0.58831 0.91090 0.72053
 C3610 C 0.57672 0.90034 0.71006
 C3611 C 0.57033 0.90667 0.69361
 C3612 C 0.57541 0.92362 0.68741
 C3613 C 0.58685 0.93427 0.69776
 C3614 C 0.59326 0.92796 0.71421
 C3615 C 0.56908 0.92996 0.67032
 C3616 C 0.56389 0.93519 0.65594
 H3617 H 0.63399 0.90258 0.76229
 H3618 H 0.62231 0.91416 0.73382
 H3619 H 0.57029 0.89208 0.74637
 H3620 H 0.58223 0.88027 0.77466
 H3621 H 0.57285 0.88706 0.71443
 H3622 H 0.56153 0.89829 0.68567
 H3623 H 0.59084 0.94742 0.69310
 H3624 H 0.60198 0.93650 0.72206
 C3625 C 0.62286 0.37656 1.30066
 C3626 C 0.61679 0.38243 1.28687
 C3627 C 0.60963 0.38932 1.27033
 C3628 C 0.60556 0.40755 1.26867
 C3629 C 0.59876 0.41425 1.25252
 C3630 C 0.59595 0.40277 1.23782
 C3631 C 0.60005 0.38445 1.23965
 C3632 C 0.60685 0.37779 1.25580
 C3633 C 0.58888 0.40987 1.22060
 C3634 C 0.57619 0.40007 1.21068
 C3635 C 0.56976 0.40663 1.19434
 C3636 C 0.57590 0.42305 1.18769
 C3637 C 0.58845 0.43294 1.19749
 C3638 C 0.59490 0.42642 1.21385
 C3639 C 0.56953 0.42959 1.17070
 C3640 C 0.56428 0.43495 1.15638
 H3641 H 0.60762 0.41659 1.27985
 H3642 H 0.59553 0.42837 1.25160
 H3643 H 0.59827 0.37532 1.22851
 H3644 H 0.61002 0.36366 1.25692
 H3645 H 0.57113 0.38741 1.21563
 H3646 H 0.56002 0.39888 1.18687
 H3647 H 0.59335 0.44563 1.19243
 H3648 H 0.60483 0.43416 1.22105
 C3649 C 0.87769 1.12139 1.30131
 C3650 C 0.88349 1.11541 1.28745
 C3651 C 0.89030 1.10838 1.27082
 C3652 C 0.87863 1.10533 1.25646
 C3653 C 0.88522 1.09868 1.24022
 C3654 C 0.90360 1.09501 1.23813
 C3655 C 0.91522 1.09810 1.25267
 C3656 C 0.90860 1.10473 1.26891
 C3657 C 0.91062 1.08814 1.22080
 C3658 C 0.92690 1.09459 1.21382
 C3659 C 0.93334 1.08834 1.19736
 C3660 C 0.92361 1.07555 1.18768
 C3661 C 0.90746 1.06898 1.19456
 C3662 C 0.90100 1.07522 1.21101
 C3663 C 0.93007 1.06936 1.17059
 C3664 C 0.93534 1.06424 1.15620
 H3665 H 0.86445 1.10817 1.25778
 H3666 H 0.87598 1.09669 1.22921
 H3667 H 0.92939 1.09520 1.25154
 H3668 H 0.91774 1.10702 1.27995
 H3669 H 0.93449 1.10470 1.22092
 H3670 H 0.94582 1.09356 1.19212
 H3671 H 0.89985 1.05906 1.18719
 H3672 H 0.88854 1.06983 1.21614
 C3673 C 0.87693 0.62231 0.80039
 C3674 C 0.88278 0.61627 0.78658
 C3675 C 0.88966 0.60916 0.77002
 C3676 C 0.87812 0.60644 0.75548
 C3677 C 0.88477 0.59969 0.73931
 C3678 C 0.90309 0.59557 0.73746
 C3679 C 0.91457 0.59833 0.75217
 C3680 C 0.90789 0.60507 0.76834
 C3681 C 0.91017 0.58857 0.72022
 C3682 C 0.92670 0.59462 0.71347
 C3683 C 0.93321 0.58824 0.69708
 C3684 C 0.92330 0.57572 0.68725
 C3685 C 0.90690 0.56954 0.69389
 C3686 C 0.90037 0.57591 0.71026
 C3687 C 0.92983 0.56941 0.67023
 C3688 C 0.93518 0.56419 0.65590
 H3689 H 0.86400 0.60962 0.75661
 H3690 H 0.87564 0.59796 0.72817
 H3691 H 0.92869 0.59509 0.75123
 H3692 H 0.91693 0.60710 0.77952
 H3693 H 0.93445 0.60452 0.72070
 H3694 H 0.94589 0.59316 0.69203
 H3695 H 0.89915 0.55982 0.68640
 H3696 H 0.88772 0.57082 0.71521
 C3697 C 0.37699 1.12316 0.80023
 C3698 C 0.38283 1.11709 0.78643
 C3699 C 0.38966 1.10990 0.76988
 C3700 C 0.40780 1.10540 0.76830
 C3701 C 0.41443 1.09856 0.75215
 C3702 C 0.40298 1.09612 0.73736
 C3703 C 0.38475 1.10065 0.73911
 C3704 C 0.37816 1.10750 0.75526
 C3705 C 0.41001 1.08900 0.72014
 C3706 C 0.39997 1.07662 0.71007
 C3707 C 0.40647 1.07015 0.69372
 C3708 C 0.42306 1.07595 0.68721
 C3709 C 0.43319 1.08819 0.69716
 C3710 C 0.42673 1.09467 0.71352
 C3711 C 0.42955 1.06955 0.67020
 C3712 C 0.43489 1.06429 0.65588
 H3713 H 0.41681 1.10717 0.77955
 H3714 H 0.42847 1.09500 0.75129
 H3715 H 0.37565 1.09916 0.72790
 H3716 H 0.36410 1.11100 0.75631
 H3717 H 0.38717 1.07182 0.71491
 H3718 H 0.39853 1.06065 0.68613
 H3719 H 0.44603 1.09283 0.69220
 H3720 H 0.43466 1.10436 0.72084
 C3721 C 0.37616 0.62393 1.30003
 C3722 C 0.38207 0.61782 1.28627
 C3723 C 0.38899 0.61061 1.26977
 C3724 C 0.40719 0.60634 1.26824
 C3725 C 0.41393 0.59946 1.25214
 C3726 C 0.40252 0.59676 1.23736
 C3727 C 0.38424 0.60106 1.23906
 C3728 C 0.37754 0.60795 1.25516
 C3729 C 0.40965 0.58959 1.22020
 C3730 C 0.39978 0.57701 1.21022
 C3731 C 0.40637 0.57048 1.19393
 C3732 C 0.42290 0.57644 1.18739
 C3733 C 0.43287 0.58888 1.19725
 C3734 C 0.42631 0.59541 1.21355
 C3735 C 0.42948 0.56998 1.17044
 C3736 C 0.43487 0.56465 1.15616
 H3737 H 0.41617 0.60831 1.27948
 H3738 H 0.42802 0.59608 1.25132
 H3739 H 0.37516 0.59938 1.22786
 H3740 H 0.36344 0.61127 1.25618
 H3741 H 0.38703 0.57209 1.21509
 H3742 H 0.39855 0.56083 1.18641
 H3743 H 0.44565 0.59363 1.19227
 H3744 H 0.43412 0.60525 1.22080
 C3745 C 1.12297 1.30046 0.87749
 C3746 C 1.11712 1.28667 0.88354
 C3747 C 1.11024 1.27013 0.89067
 C3748 C 1.12175 1.25555 0.89332
 C3749 C 1.11509 1.23941 0.90009
 C3750 C 1.09679 1.23763 0.90430
 C3751 C 1.08534 1.25239 0.90162
 C3752 C 1.09203 1.26853 0.89486
 C3753 C 1.08970 1.22042 0.91132
 C3754 C 1.07309 1.21377 0.90535
 C3755 C 1.06657 1.19742 0.91174
 C3756 C 1.07652 1.18751 0.92419
 C3757 C 1.09299 1.19405 0.93029
 C3758 C 1.09955 1.21039 0.92391
 C3759 C 1.06997 1.17052 0.93050
 C3760 C 1.06461 1.15620 0.93572
 H3761 H 1.13585 1.25663 0.89006
 H3762 H 1.12420 1.22824 0.90176
 H3763 H 1.07124 1.25151 0.90494
 H3764 H 1.08301 1.27975 0.89290
 H3765 H 1.06530 1.22106 0.89550
 H3766 H 1.05383 1.19244 0.90688
 H3767 H 1.10079 1.18650 0.93995
 H3768 H 1.11225 1.21526 0.92893
 C3769 C 1.12313 0.79985 0.37692
 C3770 C 1.11731 0.78605 0.38296
 C3771 C 1.11047 0.76949 0.39009
 C3772 C 1.12183 0.75468 0.39194
 C3773 C 1.11521 0.73853 0.39874
 C3774 C 1.09710 0.73698 0.40376
 C3775 C 1.08580 0.75197 0.40187
 C3776 C 1.09245 0.76811 0.39509
 C3777 C 1.09004 0.71977 0.41083
 C3778 C 1.07306 0.71350 0.40555
 C3779 C 1.06655 0.69716 0.41198
 C3780 C 1.07690 0.68688 0.42379
 C3781 C 1.09375 0.69304 0.42921
 C3782 C 1.10029 0.70937 0.42278
 C3783 C 1.07035 0.66990 0.43015
 C3784 C 1.06498 0.65561 0.43542
 H3785 H 1.13579 0.75558 0.38806
 H3786 H 1.12419 0.72717 0.39979
 H3787 H 1.07186 0.75127 0.40583
 H3788 H 1.08355 0.77951 0.39374
 H3789 H 1.06495 0.72108 0.39619
 H3790 H 1.05351 0.69248 0.40765
 H3791 H 1.10185 0.68520 0.43837
 H3792 H 1.11330 0.71393 0.42728
 C3793 C 0.62317 1.30001 0.37743
 C3794 C 0.61728 1.28624 0.38348
 C3795 C 0.61036 1.26972 0.39061
 C3796 C 0.62187 1.25516 0.39340
 C3797 C 0.61517 1.23903 0.40015
 C3798 C 0.59684 1.23724 0.40420
 C3799 C 0.58539 1.25197 0.40138
 C3800 C 0.59212 1.26810 0.39463
 C3801 C 0.58970 1.22003 0.41119
 C3802 C 0.57316 1.21335 0.40509
 C3803 C 0.56661 1.19699 0.41145
 C3804 C 0.57647 1.18713 0.42401
 C3805 C 0.59287 1.19371 0.43024
 C3806 C 0.59946 1.21005 0.42389
 C3807 C 0.56989 1.17014 0.43031
 C3808 C 0.56451 1.15583 0.43552
 H3809 H 0.63600 1.25625 0.39027
 H3810 H 0.62428 1.22787 0.40193
 H3811 H 0.57126 1.25108 0.40457
 H3812 H 0.58311 1.27930 0.39256
 H3813 H 0.56545 1.22060 0.39515
 H3814 H 0.55392 1.19199 0.40649
 H3815 H 0.60059 1.18619 0.43999
 H3816 H 0.61211 1.21494 0.42902
 C3817 C 0.62275 0.80016 0.87791
 C3818 C 0.61692 0.78635 0.88390
 C3819 C 0.61008 0.76976 0.89097
 C3820 C 0.62162 0.75518 0.89349
 C3821 C 0.61502 0.73900 0.90021
 C3822 C 0.59675 0.73718 0.90450
 C3823 C 0.58526 0.75194 0.90196
 C3824 C 0.59190 0.76812 0.89524
 C3825 C 0.58971 0.71993 0.91149
 C3826 C 0.57307 0.71330 0.90560
 C3827 C 0.56660 0.69692 0.91198
 C3828 C 0.57663 0.68697 0.92433
 C3829 C 0.59314 0.69350 0.93035
 C3830 C 0.59965 0.70986 0.92398
 C3831 C 0.57011 0.66997 0.93066
 C3832 C 0.56477 0.65565 0.93588
 H3833 H 0.63571 0.75630 0.89017
 H3834 H 0.62415 0.72783 0.90178
 H3835 H 0.57118 0.75103 0.90534
 H3836 H 0.58286 0.77933 0.89338
 H3837 H 0.56522 0.72061 0.89583
 H3838 H 0.55383 0.69195 0.90719
 H3839 H 0.60100 0.68592 0.93993
 H3840 H 0.61238 0.71472 0.92895
 C3841 C 0.87688 1.30010 1.12401
 C3842 C 0.88286 1.28637 1.11793
 C3843 C 0.88987 1.26991 1.11072
 C3844 C 0.87851 1.25805 1.10168
 C3845 C 0.88523 1.24194 1.09485
 C3846 C 0.90343 1.23747 1.09698
 C3847 C 0.91476 1.24952 1.10604
 C3848 C 0.90801 1.26563 1.11285
 C3849 C 0.91051 1.22024 1.08994
 C3850 C 0.92282 1.21010 1.10002
 C3851 C 0.92925 1.19374 1.09352
 C3852 C 0.92350 1.18731 1.07687
 C3853 C 0.91133 1.19733 1.06669
 C3854 C 0.90487 1.21369 1.07317
 C3855 C 0.92989 1.17031 1.07036
 C3856 C 0.93516 1.15600 1.06501
 H3857 H 0.86444 1.26120 1.10001
 H3858 H 0.87612 1.23285 1.08817
 H3859 H 0.92887 1.24657 1.10769
 H3860 H 0.91693 1.27474 1.11979
 H3861 H 0.92723 1.21466 1.11308
 H3862 H 0.93862 1.18606 1.10154
 H3863 H 0.90681 1.19248 1.05377
 H3864 H 0.89559 1.22128 1.06499
 C3865 C 0.87753 0.80036 0.62221
 C3866 C 0.88343 0.78656 0.61622
 C3867 C 0.89034 0.77000 0.60912
 C3868 C 0.87854 0.75680 0.60299
 C3869 C 0.88519 0.74062 0.59626
 C3870 C 0.90377 0.73743 0.59561
 C3871 C 0.91552 0.75081 0.60177
 C3872 C 0.90884 0.76699 0.60848
 C3873 C 0.91081 0.72014 0.58868
 C3874 C 0.92529 0.71157 0.59722
 C3875 C 0.93171 0.69515 0.59087
 C3876 C 0.92379 0.68709 0.57590
 C3877 C 0.90946 0.69555 0.56724
 C3878 C 0.90301 0.71197 0.57357
 C3879 C 0.93020 0.67003 0.56959
 C3880 C 0.93547 0.65567 0.56438
 H3881 H 0.86419 0.75897 0.60349
 H3882 H 0.87579 0.73050 0.59186
 H3883 H 0.92989 0.74884 0.60124
 H3884 H 0.91809 0.77714 0.61316
 H3885 H 0.93143 0.71739 0.60901
 H3886 H 0.94277 0.68867 0.59772
 H3887 H 0.90326 0.68945 0.55562
 H3888 H 0.89201 0.71834 0.56657
 C3889 C 0.37721 1.30020 0.62320
 C3890 C 0.38303 1.28632 0.61730
 C3891 C 0.38982 1.26968 0.61030
 C3892 C 0.37907 1.25434 0.61058
 C3893 C 0.38561 1.23813 0.60383
 C3894 C 0.40304 1.23706 0.59669
 C3895 C 0.41375 1.25257 0.59647
 C3896 C 0.40717 1.26877 0.60323
 C3897 C 0.41000 1.21981 0.58958
 C3898 C 0.42778 1.21450 0.59298
 C3899 C 0.43423 1.19814 0.58649
 C3900 C 0.42303 1.18690 0.57652
 C3901 C 0.40536 1.19210 0.57299
 C3902 C 0.39888 1.20844 0.57947
 C3903 C 0.42957 1.16993 0.57009
 C3904 C 0.43493 1.15564 0.56479
 H3905 H 0.36564 1.25488 0.61608
 H3906 H 0.37713 1.22639 0.60442
 H3907 H 0.42713 1.25222 0.59087
 H3908 H 0.41559 1.28058 0.60290
 H3909 H 0.43660 1.22285 0.60091
 H3910 H 0.44792 1.19421 0.58935
 H3911 H 0.39658 1.18351 0.56525
 H3912 H 0.38521 1.21225 0.57642
 C3913 C 0.37648 0.79968 1.12416
 C3914 C 0.38247 0.78593 1.11812
 C3915 C 0.38946 0.76944 1.11094
 C3916 C 0.37773 0.75625 1.10466
 C3917 C 0.38446 0.74016 1.09782
 C3918 C 0.40305 0.73704 1.09717
 C3919 C 0.41474 0.75041 1.10349
 C3920 C 0.40797 0.76651 1.11032
 C3921 C 0.41018 0.71985 1.09008
 C3922 C 0.42469 0.71126 1.09855
 C3923 C 0.43120 0.69494 1.09205
 C3924 C 0.42333 0.68699 1.07700
 C3925 C 0.40896 0.69546 1.06841
 C3926 C 0.40242 0.71178 1.07490
 C3927 C 0.42982 0.67002 1.07052
 C3928 C 0.43516 0.65573 1.06518
 H3929 H 0.36337 0.75836 1.10514
 H3930 H 0.37511 0.73004 1.09329
 H3931 H 0.42911 0.74851 1.10297
 H3932 H 0.41718 0.77665 1.11512
 H3933 H 0.43080 0.71701 1.11040
 H3934 H 0.44229 0.68845 1.09884
 H3935 H 0.40279 0.68943 1.05673
 H3936 H 0.39140 0.71817 1.06794
 C3937 C 0.87744 0.70006 0.87716
 C3938 C 0.88347 0.71387 0.88298
 C3939 C 0.89058 0.73044 0.88980
 C3940 C 0.89316 0.74498 0.87823
 C3941 C 0.89992 0.76114 0.88483
 C3942 C 0.90417 0.76299 0.90312
 C3943 C 0.90156 0.74828 0.91464
 C3944 C 0.89481 0.73211 0.90800
 C3945 C 0.91119 0.78023 0.91016
 C3946 C 0.90526 0.78695 0.92677
 C3947 C 0.91166 0.80332 0.93324
 C3948 C 0.92405 0.81319 0.92322
 C3949 C 0.93011 0.80658 0.90673
 C3950 C 0.92373 0.79022 0.90023
 C3951 C 0.93038 0.83020 0.92971
 C3952 C 0.93560 0.84452 0.93504
 H3953 H 0.88987 0.74384 0.86413
 H3954 H 0.90155 0.77229 0.87568
 H3955 H 0.90491 0.74921 0.92873
 H3956 H 0.89289 0.72093 0.91706
 H3957 H 0.89545 0.77969 0.93462
 H3958 H 0.90683 0.80835 0.94599
 H3959 H 0.93973 0.81410 0.89888
 H3960 H 0.92872 0.78531 0.88752
 C3961 C 0.87815 0.19912 0.37806
 C3962 C 0.88411 0.21299 0.38380
 C3963 C 0.89113 0.22965 0.39050
 C3964 C 0.89875 0.23047 0.40763
 C3965 C 0.90547 0.24670 0.41415
 C3966 C 0.90467 0.26231 0.40359
 C3967 C 0.89700 0.26132 0.38638
 C3968 C 0.89028 0.24509 0.37990
 C3969 C 0.91172 0.27959 0.41051
 C3970 C 0.92130 0.29122 0.39917
 C3971 C 0.92769 0.30760 0.40560
 C3972 C 0.92461 0.31258 0.42343
 C3973 C 0.91518 0.30108 0.43484
 C3974 C 0.90878 0.28468 0.42844
 C3975 C 0.93092 0.32960 0.42991
 C3976 C 0.93613 0.34393 0.43522
 H3977 H 0.89951 0.21858 0.41593
 H3978 H 0.91149 0.24698 0.42736
 H3979 H 0.89596 0.27315 0.37804
 H3980 H 0.88435 0.24462 0.36665
 H3981 H 0.92398 0.28758 0.38537
 H3982 H 0.93501 0.31640 0.39666
 H3983 H 0.91266 0.30484 0.44865
 H3984 H 0.90126 0.27612 0.43743
 C3985 C 0.37665 0.70040 0.37564
 C3986 C 0.38270 0.71417 0.38154
 C3987 C 0.38984 0.73068 0.38848
 C3988 C 0.39268 0.74522 0.37697
 C3989 C 0.39946 0.76133 0.38370
 C3990 C 0.40348 0.76311 0.40205
 C3991 C 0.40061 0.74840 0.41350
 C3992 C 0.39384 0.73229 0.40674
 C3993 C 0.41053 0.78029 0.40921
 C3994 C 0.40446 0.78700 0.42577
 C3995 C 0.41091 0.80331 0.43237
 C3996 C 0.42351 0.81310 0.42253
 C3997 C 0.42971 0.80649 0.40610
 C3998 C 0.42328 0.79020 0.39947
 C3999 C 0.42990 0.83003 0.42916
 C4000 C 0.43519 0.84429 0.43458
 H4001 H 0.38958 0.74413 0.36282
 H4002 H 0.40129 0.77247 0.37459
 H4003 H 0.40378 0.74928 0.42764
 H4004 H 0.39172 0.72110 0.41575
 H4005 H 0.39449 0.77981 0.43347
 H4006 H 0.40597 0.80833 0.44507
 H4007 H 0.43949 0.81395 0.39839
 H4008 H 0.42839 0.78528 0.38680
 C4009 C 0.37679 0.20015 0.87658
 C4010 C 0.38268 0.21402 0.88241
 C4011 C 0.38955 0.23066 0.88929
 C4012 C 0.40364 0.23066 0.90167
 C4013 C 0.41024 0.24685 0.90840
 C4014 C 0.40280 0.26327 0.90284
 C4015 C 0.38865 0.26312 0.89036
 C4016 C 0.38209 0.24692 0.88364
 C4017 C 0.40974 0.28049 0.90999
 C4018 C 0.39789 0.29448 0.91444
 C4019 C 0.40442 0.31076 0.92101
 C4020 C 0.42286 0.31328 0.92321
 C4021 C 0.43477 0.29943 0.91890
 C4022 C 0.42826 0.28313 0.91234
 C4023 C 0.42954 0.33014 0.92975
 C4024 C 0.43501 0.34435 0.93514
 H4025 H 0.40948 0.21814 0.90617
 H4026 H 0.42099 0.24651 0.91815
 H4027 H 0.38281 0.27553 0.88562
 H4028 H 0.37121 0.24708 0.87402
 H4029 H 0.38355 0.29278 0.91303
 H4030 H 0.39509 0.32137 0.92435
 H4031 H 0.44907 0.30127 0.92050
 H4032 H 0.43773 0.27271 0.90883
 C4033 C 1.12349 0.70069 1.12468
 C4034 C 1.11758 0.71453 1.11878
 C4035 C 1.11068 0.73114 1.11179
 C4036 C 1.11689 0.74746 1.11861
 C4037 C 1.11032 0.76363 1.11178
 C4038 C 1.09743 0.76369 1.09800
 C4039 C 1.09124 0.74720 1.09126
 C4040 C 1.09784 0.73104 1.09811
 C4041 C 1.09050 0.78087 1.09071
 C4042 C 1.07220 0.78293 1.08664
 C4043 C 1.06569 0.79918 1.07995
 C4044 C 1.07737 0.81358 1.07719
 C4045 C 1.09560 0.81165 1.08112
 C4046 C 1.10214 0.79542 1.08783
 C4047 C 1.07066 0.83039 1.07052
 C4048 C 1.06516 0.84457 1.06504
 H4049 H 1.12679 0.74769 1.12923
 H4050 H 1.11517 0.77608 1.11742
 H4051 H 1.08149 0.74680 1.08052
 H4052 H 1.09299 0.71848 1.09270
 H4053 H 1.06287 0.77206 1.08892
 H4054 H 1.05153 0.80055 1.07701
 H4055 H 1.10477 0.82270 1.07900
 H4056 H 1.11633 0.79419 1.09058
 C4057 C 1.12310 0.19979 0.62379
 C4058 C 1.11718 0.21355 0.61772
 C4059 C 1.11025 0.23005 0.61051
 C4060 C 1.12203 0.24314 0.60410
 C4061 C 1.11537 0.25927 0.59725
 C4062 C 1.09680 0.26252 0.59674
 C4063 C 1.08506 0.24925 0.60318
 C4064 C 1.09176 0.23312 0.61001
 C4065 C 1.08974 0.27975 0.58967
 C4066 C 1.07536 0.28845 0.59824
 C4067 C 1.06891 0.30481 0.59176
 C4068 C 1.07672 0.31269 0.57663
 C4069 C 1.09097 0.30410 0.56795
 C4070 C 1.09744 0.28774 0.57442
 C4071 C 1.07029 0.32969 0.57017
 C4072 C 1.06499 0.34399 0.56485
 H4073 H 1.13638 0.24093 0.60448
 H4074 H 1.12476 0.26930 0.59263
 H4075 H 1.07070 0.25125 0.60276
 H4076 H 1.08252 0.22306 0.61491
 H4077 H 1.06930 0.28277 0.61015
 H4078 H 1.05793 0.31139 0.59862
 H4079 H 1.09709 0.31006 0.55621
 H4080 H 1.10837 0.28126 0.56739
 C4081 C 0.62221 0.69933 0.62253
 C4082 C 0.61640 0.71325 0.61673
 C4083 C 0.60961 0.72997 0.60990
 C4084 C 0.61632 0.74618 0.61649
 C4085 C 0.60983 0.76245 0.60984
 C4086 C 0.59651 0.76273 0.59649
 C4087 C 0.58982 0.74635 0.58996
 C4088 C 0.59635 0.73008 0.59663
 C4089 C 0.58966 0.78003 0.58940
 C4090 C 0.57127 0.78240 0.58594
 C4091 C 0.56484 0.79877 0.57945
 C4092 C 0.57668 0.81295 0.57630
 C4093 C 0.59500 0.81070 0.57961
 C4094 C 0.60146 0.79436 0.58612
 C4095 C 0.57006 0.82987 0.56982
 C4096 C 0.56464 0.84413 0.56448
 H4097 H 0.62655 0.74625 0.62680
 H4098 H 0.61507 0.77482 0.61531
 H4099 H 0.57973 0.74612 0.57954
 H4100 H 0.59109 0.71761 0.59139
 H4101 H 0.56183 0.77170 0.58854
 H4102 H 0.55062 0.80039 0.57698
 H4103 H 0.60429 0.82157 0.57718
 H4104 H 0.61571 0.79287 0.58841
 C4105 C 0.62289 0.19980 1.12409
 C4106 C 0.61697 0.21366 1.11824
 C4107 C 0.61000 0.23029 1.11137
 C4108 C 0.61319 0.24629 1.12059
 C4109 C 0.60649 0.26248 1.11395
 C4110 C 0.59651 0.26288 1.09794
 C4111 C 0.59338 0.24671 1.08875
 C4112 C 0.60009 0.23052 1.09544
 C4113 C 0.58943 0.28010 1.09087
 C4114 C 0.58998 0.28385 1.07238
 C4115 C 0.58351 0.30016 1.06579
 C4116 C 0.57639 0.31292 1.07757
 C4117 C 0.57570 0.30928 1.09596
 C4118 C 0.58217 0.29299 1.10258
 C4119 C 0.56997 0.32982 1.07084
 C4120 C 0.56465 0.34406 1.06535
 H4121 H 0.62091 0.24627 1.13290
 H4122 H 0.60934 0.27472 1.12119
 H4123 H 0.58557 0.24655 1.07652
 H4124 H 0.59751 0.21820 1.08821
 H4125 H 0.59569 0.27430 1.06306
 H4126 H 0.58416 0.30287 1.05153
 H4127 H 0.57018 0.31904 1.10519
 H4128 H 0.58134 0.29040 1.11685
 C4129 C 1.30009 1.12372 0.87783
 C4130 C 1.28631 1.11782 0.88386
 C4131 C 1.26977 1.11090 0.89095
 C4132 C 1.25527 1.12243 0.89386
 C4133 C 1.23912 1.11573 0.90057
 C4134 C 1.23726 1.09737 0.90445
 C4135 C 1.25194 1.08589 0.90150
 C4136 C 1.26809 1.09262 0.89480
 C4137 C 1.22004 1.09023 0.91141
 C4138 C 1.21328 1.07377 0.90517
 C4139 C 1.19692 1.06722 0.91152
 C4140 C 1.18712 1.07700 0.92418
 C4141 C 1.19377 1.09332 0.93054
 C4142 C 1.21012 1.09991 0.92421
 C4143 C 1.17013 1.07042 0.93046
 C4144 C 1.15582 1.06505 0.93567
 H4145 H 1.25640 1.13659 0.89086
 H4146 H 1.22800 1.12487 0.90245
 H4147 H 1.25100 1.07173 0.90456
 H4148 H 1.27925 1.08358 0.89262
 H4149 H 1.22048 1.06612 0.89515
 H4150 H 1.19186 1.05459 0.90645
 H4151 H 1.18630 1.10098 0.94037
 H4152 H 1.21507 1.11250 0.92945
 C4153 C 1.29969 0.62417 0.37688
 C4154 C 1.28597 0.61824 0.38298
 C4155 C 1.26950 0.61124 0.39015
 C4156 C 1.26798 0.59298 0.39418
 C4157 C 1.25191 0.58616 0.40097
 C4158 C 1.23713 0.59754 0.40384
 C4159 C 1.23882 0.61588 0.39979
 C4160 C 1.25490 0.62267 0.39299
 C4161 C 1.21999 0.59031 0.41089
 C4162 C 1.21000 0.60002 0.42363
 C4163 C 1.19373 0.59333 0.43006
 C4164 C 1.18722 0.57689 0.42386
 C4165 C 1.19708 0.56709 0.41127
 C4166 C 1.21337 0.57373 0.40482
 C4167 C 1.17030 0.57021 0.43025
 C4168 C 1.15605 0.56477 0.43553
 H4169 H 1.27922 0.58402 0.39206
 H4170 H 1.25110 0.57203 0.40416
 H4171 H 1.22762 0.62494 0.40161
 H4172 H 1.25590 0.63681 0.38986
 H4173 H 1.21485 0.61270 0.42874
 H4174 H 1.18622 0.60102 0.43984
 H4175 H 1.19213 0.55437 0.40633
 H4176 H 1.22062 0.56606 0.39486
 C4177 C 0.80060 1.12228 0.37870
 C4178 C 0.78673 1.11652 0.38463
 C4179 C 0.77008 1.10974 0.39158
 C4180 C 0.76892 1.09205 0.39770
 C4181 C 0.75268 1.08544 0.40430
 C4182 C 0.73738 1.09647 0.40486
 C4183 C 0.73871 1.11425 0.39871
 C4184 C 0.75495 1.12082 0.39211
 C4185 C 0.72008 1.08946 0.41174
 C4186 C 0.70901 1.10021 0.42260
 C4187 C 0.69260 1.09370 0.42884
 C4188 C 0.68703 1.07639 0.42434
 C4189 C 0.69797 1.06555 0.41362
 C4190 C 0.71439 1.07202 0.40736
 C4191 C 0.66999 1.06985 0.43053
 C4192 C 0.65564 1.06451 0.43567
 H4193 H 0.78056 1.08337 0.39738
 H4194 H 0.75214 1.07178 0.40914
 H4195 H 0.72712 1.12299 0.39874
 H4196 H 0.75569 1.13452 0.38735
 H4197 H 0.71311 1.11360 0.42639
 H4198 H 0.68425 1.10219 0.43717
 H4199 H 0.69375 1.05214 0.41000
 H4200 H 0.72250 1.06351 0.39884
 C4201 C 0.80010 0.62297 0.87810
 C4202 C 0.78632 0.61710 0.88414
 C4203 C 0.76979 0.61019 0.89124
 C4204 C 0.75528 0.62172 0.89416
 C4205 C 0.73914 0.61502 0.90087
 C4206 C 0.73727 0.59666 0.90474
 C4207 C 0.75195 0.58518 0.90179
 C4208 C 0.76810 0.59191 0.89509
 C4209 C 0.72005 0.58953 0.91169
 C4210 C 0.71329 0.57307 0.90544
 C4211 C 0.69692 0.56652 0.91178
 C4212 C 0.68713 0.57628 0.92445
 C4213 C 0.69378 0.59260 0.93083
 C4214 C 0.71013 0.59919 0.92450
 C4215 C 0.67014 0.56970 0.93074
 C4216 C 0.65582 0.56433 0.93594
 H4217 H 0.75643 0.63588 0.89115
 H4218 H 0.72802 0.62416 0.90275
 H4219 H 0.75101 0.57102 0.90485
 H4220 H 0.77926 0.58287 0.89291
 H4221 H 0.72048 0.56544 0.89541
 H4222 H 0.69186 0.55390 0.90670
 H4223 H 0.68632 0.60025 0.94067
 H4224 H 0.71509 0.61178 0.92975
 C4225 C 1.29960 0.87612 1.12351
 C4226 C 1.28586 0.88210 1.11745
 C4227 C 1.26938 0.88913 1.11029
 C4228 C 1.25568 0.87745 1.10510
 C4229 C 1.23960 0.88424 1.09830
 C4230 C 1.23699 0.90284 1.09661
 C4231 C 1.25087 0.91448 1.10183
 C4232 C 1.26696 0.90766 1.10861
 C4233 C 1.21982 0.91005 1.08956
 C4234 C 1.21189 0.92529 1.09736
 C4235 C 1.19557 0.93189 1.09091
 C4236 C 1.18699 0.92337 1.07657
 C4237 C 1.19482 0.90828 1.06865
 C4238 C 1.21112 0.90165 1.07509
 C4239 C 1.17003 0.92995 1.07016
 C4240 C 1.15574 0.93533 1.06487
 H4241 H 1.25740 0.86308 1.10641
 H4242 H 1.22909 0.87494 1.09464
 H4243 H 1.24936 0.92885 1.10048
 H4244 H 1.27749 0.91682 1.11255
 H4245 H 1.21813 0.93192 1.10866
 H4246 H 1.18959 0.94354 1.09718
 H4247 H 1.18830 0.90160 1.05752
 H4248 H 1.21700 0.89005 1.06864
 C4249 C 1.30090 0.37718 0.62213
 C4250 C 1.28716 0.38319 0.61611
 C4251 C 1.27067 0.39025 0.60902
 C4252 C 1.25915 0.37916 0.59924
 C4253 C 1.24298 0.38591 0.59260
 C4254 C 1.23811 0.40387 0.59567
 C4255 C 1.24982 0.41494 0.60545
 C4256 C 1.26599 0.40816 0.61208
 C4257 C 1.22079 0.41096 0.58886
 C4258 C 1.21030 0.42247 0.59951
 C4259 C 1.19386 0.42889 0.59322
 C4260 C 1.18769 0.42393 0.57622
 C4261 C 1.19806 0.41257 0.56548
 C4262 C 1.21451 0.40612 0.57174
 C4263 C 1.17060 0.43027 0.56991
 C4264 C 1.15622 0.43548 0.56471
 H4265 H 1.26261 0.36525 0.59686
 H4266 H 1.23415 0.37699 0.58533
 H4267 H 1.24656 0.42887 0.60785
 H4268 H 1.27483 0.41687 0.61961
 H4269 H 1.21465 0.42625 0.61284
 H4270 H 1.18590 0.43762 0.60168
 H4271 H 1.19342 0.40867 0.55227
 H4272 H 1.22237 0.39748 0.56313
 C4273 C 0.80046 0.87786 0.62220
 C4274 C 0.78668 0.88387 0.61625
 C4275 C 0.77016 0.89095 0.60926
 C4276 C 0.76564 0.88831 0.59124
 C4277 C 0.74945 0.89494 0.58453
 C4278 C 0.73756 0.90434 0.59577
 C4279 C 0.74227 0.90700 0.61385
 C4280 C 0.75846 0.90033 0.62054
 C4281 C 0.72023 0.91117 0.58874
 C4282 C 0.71374 0.92810 0.59396
 C4283 C 0.69729 0.93438 0.58755
 C4284 C 0.68711 0.92384 0.57585
 C4285 C 0.69347 0.90703 0.57051
 C4286 C 0.70992 0.90072 0.57689
 C4287 C 0.67002 0.93017 0.56953
 C4288 C 0.65564 0.93538 0.56432
 H4289 H 0.77462 0.88109 0.58239
 H4290 H 0.74631 0.89288 0.57051
 H4291 H 0.73330 0.91395 0.62290
 H4292 H 0.76180 0.90240 0.63452
 H4293 H 0.72146 0.93654 0.60288
 H4294 H 0.69250 0.94743 0.59174
 H4295 H 0.68566 0.89874 0.56152
 H4296 H 0.71443 0.88754 0.57282
 C4297 C 0.79974 0.37626 1.12389
 C4298 C 0.78596 0.38219 1.11788
 C4299 C 0.76942 0.38913 1.11077
 C4300 C 0.75542 0.37743 1.10649
 C4301 C 0.73930 0.38413 1.09970
 C4302 C 0.73695 0.40267 1.09710
 C4303 C 0.75112 0.41433 1.10142
 C4304 C 0.76725 0.40759 1.10820
 C4305 C 0.71975 0.40979 1.09003
 C4306 C 0.71222 0.42555 1.09717
 C4307 C 0.69589 0.43207 1.09069
 C4308 C 0.68688 0.42297 1.07699
 C4309 C 0.69431 0.40736 1.06972
 C4310 C 0.71063 0.40080 1.07618
 C4311 C 0.66991 0.42950 1.07056
 C4312 C 0.65562 0.43485 1.06525
 H4313 H 0.75694 0.36313 1.10849
 H4314 H 0.72857 0.37484 1.09675
 H4315 H 0.74981 0.42863 1.09937
 H4316 H 0.77801 0.41676 1.11143
 H4317 H 0.71879 0.43264 1.10799
 H4318 H 0.69022 0.44414 1.09646
 H4319 H 0.68747 0.40023 1.05908
 H4320 H 0.71620 0.38878 1.07024
 C4321 C 0.69998 1.12358 1.12354
 C4322 C 0.71386 1.11775 1.11765
 C4323 C 0.73051 1.11091 1.11074
 C4324 C 0.73051 1.09775 1.09737
 C4325 C 0.74672 1.09113 1.09066
 C4326 C 0.76315 1.09762 1.09723
 C4327 C 0.76299 1.11085 1.11068
 C4328 C 0.74678 1.11743 1.11738
 C4329 C 0.78039 1.09066 1.09011
 C4330 C 0.79483 1.10234 1.08692
 C4331 C 0.81110 1.09577 1.08037
 C4332 C 0.81319 1.07746 1.07692
 C4333 C 0.79890 1.06572 1.07999
 C4334 C 0.78259 1.07227 1.08653
 C4335 C 0.83004 1.07073 1.07038
 C4336 C 0.84424 1.06524 1.06498
 H4337 H 0.71799 1.09264 1.09210
 H4338 H 0.74640 1.08111 1.08016
 H4339 H 0.77541 1.11594 1.11619
 H4340 H 0.74693 1.12758 1.12777
 H4341 H 0.79348 1.11659 1.08931
 H4342 H 0.82207 1.10498 1.07800
 H4343 H 0.80039 1.05151 1.07742
 H4344 H 0.77181 1.06291 1.08906
 C4345 C 0.69956 0.62217 0.62233
 C4346 C 0.71349 0.61640 0.61650
 C4347 C 0.73020 0.60964 0.60965
 C4348 C 0.73032 0.59631 0.59644
 C4349 C 0.74658 0.58978 0.58979
 C4350 C 0.76295 0.59653 0.59626
 C4351 C 0.76268 0.60991 0.60955
 C4352 C 0.74641 0.61641 0.61619
 C4353 C 0.78026 0.58965 0.58921
 C4354 C 0.79457 0.60145 0.58587
 C4355 C 0.81092 0.59497 0.57941
 C4356 C 0.81319 0.57663 0.57619
 C4357 C 0.79902 0.56479 0.57940
 C4358 C 0.78265 0.57125 0.58585
 C4359 C 0.83012 0.57000 0.56976
 C4360 C 0.84438 0.56458 0.56445
 H4361 H 0.71784 0.59101 0.59125
 H4362 H 0.74635 0.57964 0.57941
 H4363 H 0.77504 0.61520 0.61498
 H4364 H 0.74647 0.62668 0.62646
 H4365 H 0.79307 0.61571 0.58808
 H4366 H 0.82179 0.60425 0.57693
 H4367 H 0.80066 0.55056 0.57701
 H4368 H 0.77196 0.56181 0.58850
 C4369 C 0.20016 1.12356 0.62385
 C4370 C 0.21400 1.11767 0.61795
 C4371 C 0.23063 1.11078 0.61100
 C4372 C 0.23056 1.09769 0.59756
 C4373 C 0.24673 1.09106 0.59078
 C4374 C 0.26320 1.09747 0.59736
 C4375 C 0.26310 1.11061 0.61089
 C4376 C 0.24692 1.11721 0.61765
 C4377 C 0.28040 1.09050 0.59016
 C4378 C 0.29487 1.10217 0.58703
 C4379 C 0.31113 1.09559 0.58043
 C4380 C 0.31316 1.07730 0.57686
 C4381 C 0.29884 1.06558 0.57987
 C4382 C 0.28255 1.07213 0.58646
 C4383 C 0.32999 1.07057 0.57028
 C4384 C 0.34418 1.06506 0.56485
 H4385 H 0.21801 1.09265 0.59228
 H4386 H 0.24636 1.08111 0.58023
 H4387 H 0.27554 1.11564 0.61641
 H4388 H 0.24713 1.12730 0.62810
 H4389 H 0.29356 1.11640 0.58951
 H4390 H 0.32211 1.10478 0.57811
 H4391 H 0.30028 1.05138 0.57721
 H4392 H 0.27175 1.06279 0.58894
 C4393 C 0.20034 0.62423 1.12373
 C4394 C 0.21413 0.61832 1.11770
 C4395 C 0.23066 0.61139 1.11059
 C4396 C 0.23150 0.59385 1.10397
 C4397 C 0.24761 0.58710 1.09717
 C4398 C 0.26311 0.59781 1.09689
 C4399 C 0.26211 0.61543 1.10355
 C4400 C 0.24600 0.62215 1.11035
 C4401 C 0.28028 0.59065 1.08978
 C4402 C 0.29153 0.60148 1.07922
 C4403 C 0.30780 0.59482 1.07275
 C4404 C 0.31306 0.57726 1.07674
 C4405 C 0.30193 0.56634 1.08716
 C4406 C 0.28564 0.57297 1.09363
 C4407 C 0.32997 0.57055 1.07032
 C4408 C 0.34421 0.56508 1.06500
 H4409 H 0.21969 0.58542 1.10405
 H4410 H 0.24789 0.57356 1.09195
 H4411 H 0.27386 0.62393 1.10376
 H4412 H 0.24552 0.63572 1.11550
 H4413 H 0.28767 0.61505 1.07582
 H4414 H 0.31630 0.60337 1.06466
 H4415 H 0.30591 0.55275 1.09038
 H4416 H 0.27739 0.56438 1.10191
 C4417 C 0.69984 0.87747 0.87730
 C4418 C 0.71369 0.88342 0.88308
 C4419 C 0.73032 0.89045 0.88984
 C4420 C 0.74595 0.88896 0.87959
 C4421 C 0.76214 0.89572 0.88611
 C4422 C 0.76292 0.90407 0.90301
 C4423 C 0.74712 0.90551 0.91322
 C4424 C 0.73093 0.89875 0.90665
 C4425 C 0.78015 0.91117 0.90997
 C4426 C 0.78485 0.90892 0.92811
 C4427 C 0.80120 0.91537 0.93457
 C4428 C 0.81306 0.92417 0.92300
 C4429 C 0.80847 0.92656 0.90497
 C4430 C 0.79214 0.92011 0.89848
 C4431 C 0.83002 0.93055 0.92956
 C4432 C 0.84430 0.93583 0.93494
 H4433 H 0.74564 0.88251 0.86657
 H4434 H 0.77411 0.89418 0.87805
 H4435 H 0.74724 0.91206 0.92617
 H4436 H 0.71889 0.90001 0.91468
 H4437 H 0.77601 0.90190 0.93723
 H4438 H 0.80465 0.91340 0.94854
 H4439 H 0.81754 0.93338 0.89591
 H4440 H 0.78881 0.92226 0.88451
 C4441 C 0.70029 0.37730 0.37654
 C4442 C 0.71410 0.38329 0.38237
 C4443 C 0.73067 0.39036 0.38924
 C4444 C 0.73214 0.39511 0.40733
 C4445 C 0.74830 0.40181 0.41401
 C4446 C 0.76322 0.40387 0.40266
 C4447 C 0.76158 0.39909 0.38447
 C4448 C 0.74542 0.39238 0.37783
 C4449 C 0.78045 0.41085 0.40975
 C4450 C 0.79076 0.42295 0.39960
 C4451 C 0.80710 0.42931 0.40617
 C4452 C 0.81336 0.42367 0.42294
 C4453 C 0.80318 0.41171 0.43317
 C4454 C 0.78682 0.40534 0.42664
 C4455 C 0.83034 0.42999 0.42952
 C4456 C 0.84464 0.43522 0.43490
 H4457 H 0.72079 0.39363 0.41627
 H4458 H 0.74907 0.40558 0.42801
 H4459 H 0.77288 0.40028 0.37545
 H4460 H 0.74445 0.38868 0.36381
 H4461 H 0.78611 0.42762 0.38667
 H4462 H 0.81487 0.43859 0.39816
 H4463 H 0.80793 0.40722 0.44614
 H4464 H 0.77931 0.39587 0.43466
 C4465 C 0.19962 0.87777 0.37662
 C4466 C 0.21334 0.88386 0.38257
 C4467 C 0.22980 0.89102 0.38959
 C4468 C 0.23388 0.88916 0.40781
 C4469 C 0.25001 0.89587 0.41458
 C4470 C 0.26228 0.90455 0.40318
 C4471 C 0.25800 0.90643 0.38489
 C4472 C 0.24188 0.89969 0.37816
 C4473 C 0.27954 0.91144 0.41028
 C4474 C 0.28638 0.92800 0.40442
 C4475 C 0.30278 0.93432 0.41089
 C4476 C 0.31256 0.92418 0.42330
 C4477 C 0.30583 0.90774 0.42928
 C4478 C 0.28943 0.90140 0.42283
 C4479 C 0.32960 0.93052 0.42969
 C4480 C 0.34395 0.93573 0.43495
 H4481 H 0.22462 0.88250 0.41678
 H4482 H 0.25281 0.89442 0.42875
 H4483 H 0.26726 0.91282 0.37573
 H4484 H 0.23888 0.90114 0.36401
 H4485 H 0.27898 0.93614 0.39494
 H4486 H 0.30785 0.94708 0.40620
 H4487 H 0.31333 0.89975 0.43882
 H4488 H 0.28465 0.88850 0.42742
 C4489 C 0.19973 0.37809 0.87698
 C4490 C 0.21348 0.38414 0.88290
 C4491 C 0.22998 0.39126 0.88988
 C4492 C 0.23297 0.39172 0.90840
 C4493 C 0.24911 0.39841 0.91516
 C4494 C 0.26248 0.40473 0.90346
 C4495 C 0.25930 0.40427 0.88486
 C4496 C 0.24316 0.39757 0.87813
 C4497 C 0.27973 0.41162 0.91059
 C4498 C 0.28786 0.42681 0.90294
 C4499 C 0.30425 0.43309 0.90947
 C4500 C 0.31273 0.42429 0.92371
 C4501 C 0.30472 0.40922 0.93147
 C4502 C 0.28832 0.40293 0.92497
 C4503 C 0.32977 0.43056 0.93017
 C4504 C 0.34412 0.43574 0.93548
 H4505 H 0.22284 0.38690 0.91761
 H4506 H 0.25106 0.39879 0.92954
 H4507 H 0.26942 0.40881 0.87550
 H4508 H 0.24102 0.39721 0.86377
 H4509 H 0.28147 0.43393 0.89202
 H4510 H 0.31033 0.44479 0.90339
 H4511 H 0.31120 0.40227 0.94245
 H4512 H 0.28252 0.39107 0.93099
   
