data_POSCAR
  _audit_creation_date              2014-09-24
  _audit_creation_method            'ToBaCCo'
  _symmetry_space_group_name_H-M    'P1'
  _symmetry_Int_Tables_number       1
  _symmetry_cell_setting            triclinic
  loop_
  _symmetry_equiv_pos_as_xyz
 x,y,z
_cell_length_a 41.5065
_cell_length_b 41.4719
_cell_length_c 41.3826
_cell_angle_alpha 90.031500
_cell_angle_beta 89.962700
_cell_angle_gamma 89.978500
loop_
  _atom_site_label
  _atom_site_type_symbol
  _atom_site_fract_x
  _atom_site_fract_y
  _atom_site_fract_z
O1 O 0.87602 0.16977 0.79143
 O2 O 0.90963 0.12428 0.78146
 O3 O 0.79079 0.12466 0.83032
 O4 O 0.77801 0.09369 0.87220
 O5 O 0.83137 0.20924 0.87630
 O6 O 0.87645 0.21732 0.91122
 O7 O 0.87394 0.04072 0.91834
 O8 O 0.83645 0.03289 0.87610
 O9 O 0.95677 0.07853 0.87557
 O10 O 0.96769 0.12462 0.83931
 O11 O 0.91862 0.12220 0.95816
 O12 O 0.87332 0.15885 0.96880
 O13 O 0.87504 0.07903 0.95764
 O14 O 0.83833 0.12552 0.96777
 O15 O 0.95751 0.12183 0.91947
 O16 O 0.96788 0.15875 0.87352
 O17 O 0.91749 0.04041 0.87540
 O18 O 0.87300 0.03178 0.83780
 O19 O 0.87631 0.20850 0.83041
 O20 O 0.91226 0.21643 0.87540
 O21 O 0.79183 0.17127 0.87556
 O22 O 0.78386 0.12607 0.91318
 O23 O 0.82934 0.12539 0.79118
 O24 O 0.87355 0.08909 0.78181
 Zr25 Zr 0.87307 0.12607 0.81700
 O26 O 0.90289 0.09540 0.84430
 Zr27 Zr 0.81663 0.12693 0.87392
 O28 O 0.84371 0.09562 0.90346
 Zr29 Zr 0.87436 0.18241 0.87404
 O30 O 0.90378 0.15395 0.90413
 Zr31 Zr 0.87433 0.06698 0.87501
 O32 O 0.84408 0.09519 0.84506
 Zr33 Zr 0.93180 0.12273 0.87565
 O34 O 0.90492 0.15378 0.84526
 Zr35 Zr 0.87506 0.12309 0.93232
 O36 O 0.84541 0.15467 0.90520
 O37 O 0.84376 0.15653 0.84397
 O38 O 0.90488 0.09264 0.90563
 C39 C 0.87710 0.19931 0.80073
 C40 C 0.79982 0.12440 0.80061
 C41 C 0.80163 0.20067 0.87681
 C42 C 0.87450 0.04954 0.94806
 C43 C 0.94720 0.04903 0.87554
 C44 C 0.94818 0.12177 0.94908
 H45 H 0.91609 0.08216 0.82952
 H46 H 0.91725 0.16824 0.91763
 H47 H 0.83021 0.17057 0.83021
 H48 H 0.82904 0.08211 0.91651
 H49 H 0.81998 0.04040 0.86052
 H50 H 0.78492 0.07413 0.88396
 H51 H 0.96369 0.17435 0.89111
 H52 H 0.92885 0.20873 0.86003
 H53 H 0.89012 0.03679 0.82197
 H54 H 0.85820 0.07242 0.78930
 H55 H 0.89021 0.17495 0.96396
 H56 H 0.86185 0.20972 0.92854
 H57 H 0.92750 0.13785 0.78956
 H58 H 0.96294 0.10755 0.82332
 H59 H 0.79069 0.14313 0.92845
 H60 H 0.82293 0.10782 0.96355
 O61 O 0.83135 0.70907 0.37442
 O62 O 0.87659 0.71760 0.40905
 O63 O 0.87646 0.66748 0.29039
 O64 O 0.90619 0.62446 0.27867
 O65 O 0.78972 0.62542 0.33026
 O66 O 0.77958 0.59131 0.37571
 O67 O 0.95552 0.57739 0.37653
 O68 O 0.96554 0.61865 0.33820
 O69 O 0.91798 0.62340 0.45808
 O70 O 0.87277 0.66082 0.46782
 O71 O 0.87195 0.54157 0.42019
 O72 O 0.83561 0.53185 0.37429
 O73 O 0.91564 0.53983 0.37693
 O74 O 0.86944 0.53103 0.33980
 O75 O 0.87392 0.58061 0.45870
 O76 O 0.83782 0.62759 0.46799
 O77 O 0.95683 0.62109 0.41940
 O78 O 0.96770 0.65730 0.37450
 O79 O 0.79137 0.67154 0.37508
 O80 O 0.78101 0.62739 0.41114
 O81 O 0.82830 0.62400 0.29121
 O82 O 0.87222 0.58486 0.28438
 O83 O 0.87643 0.70697 0.32860
 O84 O 0.91227 0.71560 0.37332
 Zr85 Zr 0.87412 0.68184 0.37271
 O86 O 0.90325 0.65383 0.40341
 Zr87 Zr 0.87220 0.62441 0.31680
 O88 O 0.90183 0.59408 0.34485
 Zr89 Zr 0.81580 0.62708 0.37380
 O90 O 0.84254 0.59642 0.40418
 Zr91 Zr 0.93100 0.62170 0.37568
 O92 O 0.90447 0.65231 0.34454
 Zr93 Zr 0.87430 0.62402 0.43237
 O94 O 0.84487 0.65513 0.40454
 Zr95 Zr 0.87272 0.56680 0.37617
 O96 O 0.84281 0.59466 0.34555
 O97 O 0.84324 0.65570 0.34316
 O98 O 0.90366 0.59260 0.40625
 C99 C 0.80153 0.70083 0.37542
 C100 C 0.87757 0.69719 0.29912
 C101 C 0.79876 0.62406 0.30060
 C102 C 0.94544 0.54809 0.37698
 C103 C 0.94753 0.62213 0.44900
 C104 C 0.87285 0.55097 0.44972
 H105 H 0.91676 0.66830 0.41665
 H106 H 0.82759 0.58366 0.41765
 H107 H 0.82995 0.66976 0.32917
 H108 H 0.91507 0.58034 0.33052
 H109 H 0.95905 0.63444 0.32147
 H110 H 0.92509 0.61195 0.28603
 H111 H 0.82202 0.61019 0.46404
 H112 H 0.78922 0.64217 0.42803
 H113 H 0.96270 0.67382 0.39099
 H114 H 0.92892 0.70728 0.35833
 H115 H 0.81953 0.53743 0.39103
 H116 H 0.78671 0.57366 0.36126
 H117 H 0.86194 0.71057 0.42656
 H118 H 0.89013 0.67639 0.46288
 H119 H 0.85451 0.57034 0.29110
 H120 H 0.88733 0.53450 0.32439
 O121 O 0.37645 0.17097 0.29015
 O122 O 0.41043 0.12551 0.28037
 O123 O 0.29165 0.12585 0.32954
 O124 O 0.27916 0.09484 0.37151
 O125 O 0.33223 0.21059 0.37510
 O126 O 0.37750 0.21896 0.40972
 O127 O 0.37531 0.04244 0.41780
 O128 O 0.33739 0.03448 0.37572
 O129 O 0.45779 0.08010 0.37437
 O130 O 0.46861 0.12600 0.33802
 O131 O 0.41987 0.12430 0.45699
 O132 O 0.37442 0.16087 0.46753
 O133 O 0.37648 0.08093 0.45687
 O134 O 0.33966 0.12735 0.46691
 O135 O 0.45865 0.12353 0.41819
 O136 O 0.46879 0.16038 0.37203
 O137 O 0.41845 0.04197 0.37464
 O138 O 0.37400 0.03296 0.33740
 O139 O 0.37690 0.20985 0.32898
 O140 O 0.41314 0.21796 0.37371
 O141 O 0.29281 0.17251 0.37458
 O142 O 0.28491 0.12762 0.41234
 O143 O 0.33007 0.12625 0.29027
 O144 O 0.37444 0.09025 0.28083
 Zr145 Zr 0.37388 0.12731 0.31593
 O146 O 0.40377 0.09678 0.34333
 Zr147 Zr 0.31764 0.12826 0.37304
 O148 O 0.34481 0.09719 0.40272
 Zr149 Zr 0.37528 0.18388 0.37271
 O150 O 0.40483 0.15561 0.40285
 Zr151 Zr 0.37534 0.06849 0.37430
 O152 O 0.34504 0.09648 0.34422
 Zr153 Zr 0.43280 0.12429 0.37443
 O154 O 0.40579 0.15518 0.34396
 Zr155 Zr 0.37623 0.12486 0.43130
 O156 O 0.34647 0.15623 0.40408
 O157 O 0.34461 0.15780 0.34287
 O158 O 0.40599 0.09433 0.40466
 C159 C 0.37748 0.20056 0.29932
 C160 C 0.30058 0.12532 0.29981
 C161 C 0.30253 0.20192 0.37571
 C162 C 0.37601 0.05134 0.44752
 C163 C 0.44811 0.05066 0.37456
 C164 C 0.44940 0.12373 0.44783
 H165 H 0.41693 0.08348 0.32856
 H166 H 0.41832 0.16999 0.41624
 H167 H 0.33096 0.17173 0.32911
 H168 H 0.33022 0.08372 0.41591
 H169 H 0.32099 0.04181 0.35998
 H170 H 0.28601 0.07550 0.38367
 H171 H 0.46469 0.17599 0.38963
 H172 H 0.42967 0.21019 0.35831
 H173 H 0.39081 0.03811 0.32129
 H174 H 0.35926 0.07349 0.28846
 H175 H 0.39136 0.17691 0.46264
 H176 H 0.36295 0.21146 0.42712
 H177 H 0.42814 0.13942 0.28826
 H178 H 0.46360 0.10909 0.32192
 H179 H 0.29190 0.14460 0.42762
 H180 H 0.32428 0.10960 0.46284
 O181 O 0.12357 0.32955 0.29150
 O182 O 0.08720 0.37328 0.28216
 O183 O 0.20658 0.37841 0.32964
 O184 O 0.21761 0.41077 0.37126
 O185 O 0.17064 0.29228 0.37564
 O186 O 0.12649 0.28186 0.41121
 O187 O 0.11966 0.45820 0.41899
 O188 O 0.15681 0.46790 0.37654
 O189 O 0.03879 0.41640 0.37643
 O190 O 0.03010 0.36981 0.34003
 O191 O 0.07934 0.37493 0.45879
 O192 O 0.12644 0.33995 0.46878
 O193 O 0.12151 0.41981 0.45814
 O194 O 0.15980 0.37490 0.46788
 O195 O 0.04056 0.37293 0.42009
 O196 O 0.03157 0.33588 0.37423
 O197 O 0.07617 0.45644 0.37639
 O198 O 0.11974 0.46762 0.33865
 O199 O 0.12488 0.29074 0.33034
 O200 O 0.09031 0.28078 0.37591
 O201 O 0.20811 0.33230 0.37491
 O202 O 0.21429 0.37758 0.41234
 O203 O 0.16754 0.37632 0.29110
 O204 O 0.12157 0.41011 0.28202
 Zr205 Zr 0.12421 0.37329 0.31723
 O206 O 0.09322 0.40243 0.34487
 Zr207 Zr 0.18111 0.37524 0.37354
 O208 O 0.15270 0.40492 0.40360
 Zr209 Zr 0.12628 0.31681 0.37405
 O210 O 0.09561 0.34368 0.40444
 Zr211 Zr 0.12054 0.43210 0.37553
 O212 O 0.15185 0.40558 0.34507
 Zr213 Zr 0.06596 0.37352 0.37621
 O214 O 0.09409 0.34386 0.34560
 Zr215 Zr 0.12288 0.37586 0.43262
 O216 O 0.15398 0.34602 0.40502
 O217 O 0.15524 0.34431 0.34380
 O218 O 0.09146 0.40484 0.40620
 C219 C 0.12364 0.29997 0.30069
 C220 C 0.19708 0.37840 0.30005
 C221 C 0.19990 0.30247 0.37599
 C222 C 0.12027 0.44931 0.44868
 C223 C 0.04695 0.44626 0.37657
 C224 C 0.04977 0.37372 0.44966
 H225 H 0.07929 0.41504 0.33023
 H226 H 0.08291 0.32871 0.41795
 H227 H 0.16933 0.33096 0.32986
 H228 H 0.16678 0.41909 0.41661
 H229 H 0.17335 0.46140 0.36055
 H230 H 0.21015 0.42953 0.38399
 H231 H 0.03678 0.32028 0.39152
 H232 H 0.07307 0.28764 0.36088
 H233 H 0.10299 0.46168 0.32276
 H234 H 0.13581 0.42771 0.28956
 H235 H 0.10994 0.32337 0.46422
 H236 H 0.14076 0.29028 0.42841
 H237 H 0.07041 0.35830 0.29011
 H238 H 0.03386 0.38718 0.32410
 H239 H 0.20824 0.36042 0.42782
 H240 H 0.17470 0.39294 0.46331
 O241 O 0.62571 0.83168 0.28893
 O242 O 0.59028 0.87603 0.27925
 O243 O 0.70915 0.87871 0.32830
 O244 O 0.71982 0.91136 0.36999
 O245 O 0.67119 0.79337 0.37360
 O246 O 0.62643 0.78346 0.40847
 O247 O 0.62211 0.95983 0.41695
 O248 O 0.65988 0.96921 0.37505
 O249 O 0.54121 0.91935 0.37300
 O250 O 0.53228 0.87304 0.33644
 O251 O 0.57999 0.87686 0.45584
 O252 O 0.62669 0.84115 0.46613
 O253 O 0.62281 0.92122 0.45594
 O254 O 0.66021 0.87592 0.46612
 O255 O 0.54170 0.87594 0.41661
 O256 O 0.53290 0.83892 0.37050
 O257 O 0.57907 0.95893 0.37375
 O258 O 0.62333 0.96960 0.33662
 O259 O 0.62604 0.79274 0.32766
 O260 O 0.59073 0.78309 0.37267
 O261 O 0.70927 0.83281 0.37364
 O262 O 0.71573 0.87793 0.41104
 O263 O 0.67053 0.87792 0.28929
 O264 O 0.62511 0.91232 0.27976
 Zr265 Zr 0.62679 0.87531 0.31483
 O266 O 0.59583 0.90476 0.34221
 Zr267 Zr 0.68295 0.87617 0.37187
 O268 O 0.65454 0.90612 0.40171
 Zr269 Zr 0.62724 0.81859 0.37148
 O270 O 0.59655 0.84574 0.40157
 Zr271 Zr 0.62313 0.93392 0.37337
 O272 O 0.65449 0.90708 0.34320
 Zr273 Zr 0.56773 0.87612 0.37308
 O274 O 0.59586 0.84622 0.34269
 Zr275 Zr 0.62391 0.87739 0.43023
 O276 O 0.65497 0.84726 0.40290
 O277 O 0.65701 0.84574 0.34169
 O278 O 0.59327 0.90694 0.40354
 C279 C 0.62523 0.80207 0.29803
 C280 C 0.70002 0.87919 0.29858
 C281 C 0.70059 0.80310 0.37449
 C282 C 0.62217 0.95078 0.44661
 C283 C 0.54972 0.94910 0.37343
 C284 C 0.55051 0.87630 0.44631
 H285 H 0.58227 0.91763 0.32744
 H286 H 0.58346 0.83090 0.41486
 H287 H 0.67107 0.83222 0.32790
 H288 H 0.66865 0.92002 0.41497
 H289 H 0.67655 0.96256 0.35925
 H290 H 0.71259 0.93002 0.38300
 H291 H 0.53747 0.82337 0.38802
 H292 H 0.57375 0.79031 0.35752
 H293 H 0.60667 0.96398 0.32052
 H294 H 0.63947 0.92971 0.28759
 H295 H 0.60978 0.82500 0.46150
 H296 H 0.64059 0.79160 0.42590
 H297 H 0.57312 0.86133 0.28692
 H298 H 0.53656 0.89033 0.32056
 H299 H 0.70909 0.86100 0.42653
 H300 H 0.67559 0.89357 0.46163
 O301 O 0.62435 0.67038 0.20650
 O302 O 0.58800 0.62636 0.21584
 O303 O 0.70765 0.62200 0.16854
 O304 O 0.71889 0.58929 0.12708
 O305 O 0.67088 0.70753 0.12193
 O306 O 0.62656 0.71716 0.08627
 O307 O 0.62152 0.54089 0.07922
 O308 O 0.65896 0.53183 0.12172
 O309 O 0.54037 0.58202 0.12209
 O310 O 0.53128 0.62881 0.15843
 O311 O 0.58031 0.62369 0.03946
 O312 O 0.62728 0.65937 0.02952
 O313 O 0.62288 0.57943 0.04024
 O314 O 0.66054 0.62431 0.02998
 O315 O 0.54153 0.62529 0.07823
 O316 O 0.53202 0.66235 0.12382
 O317 O 0.57808 0.54226 0.12212
 O318 O 0.62176 0.53167 0.15968
 O319 O 0.62514 0.70871 0.16717
 O320 O 0.59057 0.71831 0.12178
 O321 O 0.70874 0.66786 0.12302
 O322 O 0.71554 0.62252 0.08588
 O323 O 0.66852 0.62356 0.20707
 O324 O 0.62281 0.58987 0.21647
 Zr325 Zr 0.62522 0.62640 0.18094
 O326 O 0.59462 0.59670 0.15342
 Zr327 Zr 0.68218 0.62463 0.12459
 O328 O 0.65405 0.59463 0.09460
 Zr329 Zr 0.62679 0.68250 0.12371
 O330 O 0.59626 0.65528 0.09363
 Zr331 Zr 0.62218 0.56714 0.12274
 O332 O 0.65313 0.59416 0.15316
 Zr333 Zr 0.56700 0.62521 0.12204
 O334 O 0.59485 0.65537 0.15239
 Zr335 Zr 0.62390 0.62333 0.06558
 O336 O 0.65482 0.65344 0.09294
 O337 O 0.65599 0.65548 0.15416
 O338 O 0.59280 0.59407 0.09209
 C339 C 0.62412 0.69988 0.19689
 C340 C 0.69810 0.62182 0.19814
 C341 C 0.70025 0.69763 0.12171
 C342 C 0.62192 0.54990 0.04947
 C343 C 0.54877 0.55222 0.12202
 C344 C 0.55072 0.62453 0.04864
 H345 H 0.58085 0.58400 0.16813
 H346 H 0.58338 0.67006 0.08008
 H347 H 0.66997 0.66900 0.16801
 H348 H 0.66826 0.58057 0.08158
 H349 H 0.67532 0.53848 0.13782
 H350 H 0.71176 0.57060 0.11408
 H351 H 0.53718 0.67807 0.10662
 H352 H 0.57324 0.71123 0.13660
 H353 H 0.60511 0.53761 0.17569
 H354 H 0.63687 0.57214 0.20887
 H355 H 0.61014 0.67543 0.03363
 H356 H 0.64115 0.70891 0.06923
 H357 H 0.57134 0.64152 0.20797
 H358 H 0.53514 0.61142 0.17430
 H359 H 0.70919 0.63939 0.07021
 H360 H 0.67599 0.60685 0.03497
 O361 O 0.37409 0.83148 0.70577
 O362 O 0.40996 0.87558 0.71516
 O363 O 0.29101 0.88091 0.66684
 O364 O 0.27970 0.91212 0.62477
 O365 O 0.32732 0.79399 0.62139
 O366 O 0.37168 0.78361 0.58601
 O367 O 0.37760 0.95999 0.57761
 O368 O 0.34049 0.96962 0.62023
 O369 O 0.45879 0.91844 0.62109
 O370 O 0.46748 0.87194 0.65735
 O371 O 0.41859 0.87642 0.53854
 O372 O 0.37167 0.84137 0.52840
 O373 O 0.37655 0.92113 0.53885
 O374 O 0.33829 0.87624 0.52903
 O375 O 0.45749 0.87542 0.57715
 O376 O 0.46617 0.83787 0.62307
 O377 O 0.42133 0.95844 0.62059
 O378 O 0.37772 0.96982 0.65793
 O379 O 0.37282 0.79282 0.66673
 O380 O 0.40766 0.78275 0.62153
 O381 O 0.28970 0.83389 0.62203
 O382 O 0.28368 0.87903 0.58413
 O383 O 0.32951 0.87828 0.70588
 O384 O 0.37537 0.91228 0.71500
 Zr385 Zr 0.37311 0.87527 0.67992
 O386 O 0.40416 0.90441 0.65221
 Zr387 Zr 0.31659 0.87694 0.62318
 O388 O 0.34502 0.90659 0.59320
 Zr389 Zr 0.37157 0.81871 0.62308
 O390 O 0.40234 0.84547 0.59278
 Zr391 Zr 0.37698 0.93401 0.62128
 O392 O 0.34564 0.90745 0.65171
 Zr393 Zr 0.43177 0.87553 0.62101
 O394 O 0.40352 0.84594 0.65163
 Zr395 Zr 0.37502 0.87741 0.56449
 O396 O 0.34388 0.84762 0.59193
 O397 O 0.34233 0.84616 0.65319
 O398 O 0.40625 0.90665 0.59084
 C399 C 0.37411 0.80188 0.69638
 C400 C 0.30007 0.88084 0.69652
 C401 C 0.29801 0.80406 0.62101
 C402 C 0.37736 0.95071 0.54796
 C403 C 0.45058 0.94828 0.62077
 C404 C 0.44817 0.87586 0.54754
 H405 H 0.41799 0.91711 0.66688
 H406 H 0.41515 0.83051 0.57934
 H407 H 0.32821 0.83288 0.66714
 H408 H 0.33094 0.92064 0.58007
 H409 H 0.32404 0.96314 0.63631
 H410 H 0.28747 0.93116 0.61268
 H411 H 0.46151 0.82266 0.60525
 H412 H 0.42499 0.78993 0.63630
 H413 H 0.39395 0.96359 0.67425
 H414 H 0.36108 0.92978 0.70730
 H415 H 0.38813 0.82478 0.53311
 H416 H 0.35730 0.79182 0.56881
 H417 H 0.42688 0.86067 0.70732
 H418 H 0.46342 0.88916 0.67339
 H419 H 0.28966 0.86159 0.56892
 H420 H 0.32331 0.89427 0.53348
 O421 O 0.87420 0.33080 0.70922
 O422 O 0.91003 0.37493 0.71878
 O423 O 0.79117 0.38020 0.67029
 O424 O 0.77967 0.41124 0.62821
 O425 O 0.82783 0.29339 0.62451
 O426 O 0.87239 0.28327 0.58932
 O427 O 0.87745 0.45967 0.58148
 O428 O 0.84036 0.46908 0.62414
 O429 O 0.95882 0.41832 0.62489
 O430 O 0.96759 0.37174 0.66118
 O431 O 0.91887 0.37646 0.54229
 O432 O 0.87211 0.34114 0.53197
 O433 O 0.87690 0.42086 0.54266
 O434 O 0.83865 0.37600 0.53259
 O435 O 0.95774 0.37526 0.58092
 O436 O 0.96657 0.33781 0.62677
 O437 O 0.92121 0.45817 0.62437
 O438 O 0.87754 0.46925 0.66186
 O439 O 0.87309 0.29226 0.67006
 O440 O 0.90818 0.28241 0.62500
 O441 O 0.79006 0.33314 0.62538
 O442 O 0.78397 0.37841 0.58754
 O443 O 0.82961 0.37738 0.70939
 O444 O 0.87529 0.41155 0.71870
 Zr445 Zr 0.87323 0.37465 0.68350
 O446 O 0.90421 0.40400 0.65596
 Zr447 Zr 0.81679 0.37629 0.62666
 O448 O 0.84515 0.40614 0.59686
 Zr449 Zr 0.87198 0.31825 0.62649
 O450 O 0.90271 0.34520 0.59637
 Zr451 Zr 0.87696 0.43358 0.62509
 O452 O 0.84567 0.40681 0.65535
 Zr453 Zr 0.93197 0.37529 0.62475
 O454 O 0.90378 0.34549 0.65520
 Zr455 Zr 0.87529 0.37711 0.56815
 O456 O 0.84421 0.34714 0.59540
 O457 O 0.84259 0.34553 0.65662
 O458 O 0.90637 0.40639 0.59464
 C459 C 0.87424 0.30125 0.69973
 C460 C 0.80019 0.37996 0.69998
 C461 C 0.79849 0.30336 0.62416
 C462 C 0.87749 0.45041 0.55183
 C463 C 0.95050 0.44813 0.62454
 C464 C 0.94842 0.37587 0.55133
 H465 H 0.91797 0.41671 0.67068
 H466 H 0.91560 0.33032 0.58290
 H467 H 0.82845 0.33216 0.67048
 H468 H 0.83104 0.42017 0.58374
 H469 H 0.82391 0.46247 0.64017
 H470 H 0.78748 0.43044 0.61641
 H471 H 0.96184 0.32247 0.60909
 H472 H 0.92541 0.28959 0.63989
 H473 H 0.89392 0.46314 0.67807
 H474 H 0.86101 0.42905 0.71100
 H475 H 0.88878 0.32472 0.53652
 H476 H 0.85804 0.29147 0.57208
 H477 H 0.92698 0.36006 0.71094
 H478 H 0.96352 0.38901 0.67717
 H479 H 0.79001 0.36100 0.57232
 H480 H 0.82367 0.39403 0.53702
 O481 O 0.79285 0.87354 0.16736
 O482 O 0.78362 0.90849 0.12254
 O483 O 0.83211 0.78941 0.12030
 O484 O 0.87417 0.77733 0.08953
 O485 O 0.87674 0.82794 0.20669
 O486 O 0.91176 0.87263 0.21627
 O487 O 0.92111 0.87464 0.03945
 O488 O 0.87904 0.83698 0.03032
 O489 O 0.87774 0.95654 0.07871
 O490 O 0.84168 0.96667 0.12472
 O491 O 0.95994 0.91700 0.12247
 O492 O 0.96990 0.87097 0.15829
 O493 O 0.95980 0.87435 0.07825
 O494 O 0.96909 0.83654 0.12422
 O495 O 0.92148 0.95603 0.12227
 O496 O 0.87515 0.96559 0.15952
 O497 O 0.87835 0.91793 0.03969
 O498 O 0.84107 0.87391 0.02934
 O499 O 0.83128 0.87368 0.20657
 O500 O 0.87644 0.90872 0.21592
 O501 O 0.87650 0.78942 0.16752
 O502 O 0.91461 0.78236 0.12259
 O503 O 0.79315 0.82801 0.12172
 O504 O 0.78424 0.87320 0.08638
 Zr505 Zr 0.81891 0.87175 0.12376
 O506 O 0.84662 0.90220 0.09405
 Zr507 Zr 0.87553 0.81521 0.12378
 O508 O 0.90551 0.84288 0.09346
 Zr509 Zr 0.87510 0.87166 0.18086
 O510 O 0.90555 0.90167 0.15336
 Zr511 Zr 0.87755 0.87422 0.06524
 O512 O 0.84718 0.84344 0.09238
 Zr513 Zr 0.87762 0.93050 0.12242
 O514 O 0.84685 0.90296 0.15255
 Zr515 Zr 0.93398 0.87354 0.12209
 O516 O 0.90641 0.84325 0.15268
 O517 O 0.84537 0.84170 0.15385
 O518 O 0.90782 0.90414 0.09200
 C519 C 0.80177 0.87448 0.19707
 C520 C 0.80252 0.79848 0.12002
 C521 C 0.87732 0.79841 0.19721
 C522 C 0.95068 0.87477 0.04855
 C523 C 0.87817 0.94743 0.04901
 C524 C 0.95099 0.94661 0.12238
 H525 H 0.83206 0.91573 0.08094
 H526 H 0.91888 0.91480 0.16812
 H527 H 0.83142 0.82788 0.16744
 H528 H 0.91866 0.82850 0.07970
 H529 H 0.86314 0.82053 0.03713
 H530 H 0.88621 0.78464 0.07026
 H531 H 0.89305 0.96151 0.17474
 H532 H 0.86161 0.92580 0.20831
 H533 H 0.82496 0.89057 0.03490
 H534 H 0.79186 0.85821 0.06939
 H535 H 0.96478 0.88739 0.17485
 H536 H 0.92901 0.85806 0.20850
 H537 H 0.79144 0.92589 0.13692
 H538 H 0.82538 0.96179 0.10799
 H539 H 0.92960 0.78871 0.14007
 H540 H 0.96523 0.82167 0.10594
 O541 O 0.37310 0.33214 0.20744
 O542 O 0.40808 0.37719 0.21674
 O543 O 0.28903 0.37947 0.16823
 O544 O 0.27708 0.41044 0.12612
 O545 O 0.32756 0.29345 0.12298
 O546 O 0.37250 0.28438 0.08755
 O547 O 0.37389 0.46059 0.07905
 O548 O 0.33586 0.46911 0.12148
 O549 O 0.45573 0.42171 0.12269
 O550 O 0.46539 0.37540 0.15967
 O551 O 0.41710 0.37807 0.04044
 O552 O 0.37106 0.34160 0.03032
 O553 O 0.37405 0.42158 0.04042
 O554 O 0.33704 0.37590 0.03039
 O555 O 0.45586 0.37800 0.07921
 O556 O 0.46572 0.34151 0.12517
 O557 O 0.41699 0.46049 0.12235
 O558 O 0.37309 0.47073 0.15927
 O559 O 0.37300 0.29348 0.16838
 O560 O 0.40812 0.28416 0.12346
 O561 O 0.28902 0.33246 0.12344
 O562 O 0.28186 0.37718 0.08556
 O563 O 0.32752 0.37789 0.20735
 O564 O 0.37240 0.41284 0.21677
 Zr565 Zr 0.37121 0.37592 0.18155
 O566 O 0.40143 0.40601 0.15393
 Zr567 Zr 0.31479 0.37612 0.12463
 O568 O 0.34248 0.40640 0.09463
 Zr569 Zr 0.37124 0.31931 0.12476
 O570 O 0.40150 0.34689 0.09468
 Zr571 Zr 0.37350 0.43473 0.12282
 O572 O 0.34293 0.40736 0.15326
 Zr573 Zr 0.42999 0.37788 0.12293
 O574 O 0.40244 0.34741 0.15335
 Zr575 Zr 0.37341 0.37796 0.06617
 O576 O 0.34291 0.34746 0.09351
 O577 O 0.34123 0.34604 0.15475
 O578 O 0.40368 0.40814 0.09258
 C579 C 0.37387 0.30255 0.19804
 C580 C 0.29805 0.37970 0.19792
 C581 C 0.29802 0.30285 0.12249
 C582 C 0.37419 0.45119 0.04943
 C583 C 0.44650 0.45132 0.12240
 C584 C 0.44665 0.37812 0.04958
 H585 H 0.41481 0.41915 0.16862
 H586 H 0.41478 0.33224 0.08134
 H587 H 0.32740 0.33242 0.16866
 H588 H 0.32810 0.42003 0.08138
 H589 H 0.31970 0.46231 0.13772
 H590 H 0.28420 0.42945 0.11360
 H591 H 0.46101 0.32555 0.10805
 H592 H 0.42532 0.29189 0.13811
 H593 H 0.38904 0.46474 0.17595
 H594 H 0.35779 0.43005 0.20903
 H595 H 0.38818 0.32567 0.03494
 H596 H 0.35761 0.29201 0.07051
 H597 H 0.42530 0.36259 0.20896
 H598 H 0.46124 0.39311 0.17515
 H599 H 0.28855 0.36010 0.07024
 H600 H 0.32143 0.39337 0.03487
 O601 O 0.37705 0.67082 0.78911
 O602 O 0.41040 0.62487 0.77966
 O603 O 0.29160 0.62694 0.82867
 O604 O 0.27853 0.59660 0.87090
 O605 O 0.33319 0.71158 0.87384
 O606 O 0.37859 0.71943 0.90848
 O607 O 0.37378 0.54303 0.91745
 O608 O 0.33596 0.53537 0.87525
 O609 O 0.45699 0.57923 0.87406
 O610 O 0.46833 0.62493 0.83717
 O611 O 0.41964 0.62396 0.95623
 O612 O 0.37500 0.66169 0.96660
 O613 O 0.37518 0.58174 0.95635
 O614 O 0.33944 0.62895 0.96604
 O615 O 0.45846 0.62308 0.91748
 O616 O 0.46927 0.65923 0.87124
 O617 O 0.41713 0.54165 0.87437
 O618 O 0.37265 0.53311 0.83709
 O619 O 0.37783 0.70991 0.82773
 O620 O 0.41421 0.71780 0.87242
 O621 O 0.29327 0.67402 0.87333
 O622 O 0.28477 0.62945 0.91146
 O623 O 0.33004 0.62682 0.78943
 O624 O 0.37388 0.59010 0.78026
 Zr625 Zr 0.37383 0.62736 0.81515
 O626 O 0.40326 0.59655 0.84273
 Zr627 Zr 0.31753 0.62941 0.87219
 O628 O 0.34424 0.59812 0.90203
 Zr629 Zr 0.37589 0.68423 0.87162
 O630 O 0.40506 0.65569 0.90193
 Zr631 Zr 0.37440 0.56881 0.87380
 O632 O 0.34452 0.59709 0.84357
 Zr633 Zr 0.43262 0.62381 0.87372
 O634 O 0.40607 0.65495 0.84309
 Zr635 Zr 0.37602 0.62549 0.93052
 O636 O 0.34669 0.65713 0.90312
 O637 O 0.34493 0.65840 0.84189
 O638 O 0.40537 0.59438 0.90407
 C639 C 0.37835 0.70045 0.79812
 C640 C 0.30054 0.62623 0.79895
 C641 C 0.30337 0.70332 0.87436
 C642 C 0.37431 0.55216 0.94708
 C643 C 0.44692 0.54991 0.87437
 C644 C 0.44918 0.62317 0.94711
 H645 H 0.41625 0.58298 0.82806
 H646 H 0.41876 0.66992 0.91526
 H647 H 0.33147 0.67243 0.82802
 H648 H 0.32941 0.58495 0.91526
 H649 H 0.31970 0.54287 0.85945
 H650 H 0.28518 0.57714 0.88298
 H651 H 0.46507 0.67530 0.88839
 H652 H 0.43062 0.70973 0.85704
 H653 H 0.38954 0.53796 0.82096
 H654 H 0.35844 0.57362 0.78796
 H655 H 0.39232 0.67731 0.96170
 H656 H 0.36403 0.71213 0.92596
 H657 H 0.42832 0.63850 0.78754
 H658 H 0.46341 0.60763 0.82148
 H659 H 0.29183 0.64659 0.92654
 H660 H 0.32364 0.61158 0.96194
 O661 O 0.12317 0.67133 0.70718
 O662 O 0.08891 0.62572 0.71685
 O663 O 0.20798 0.62680 0.66785
 O664 O 0.22041 0.59540 0.62595
 O665 O 0.16633 0.71089 0.62206
 O666 O 0.12102 0.71844 0.58708
 O667 O 0.12449 0.54214 0.57956
 O668 O 0.16311 0.53483 0.62134
 O669 O 0.04218 0.57913 0.62367
 O670 O 0.03116 0.62517 0.66002
 O671 O 0.07903 0.62301 0.54056
 O672 O 0.12404 0.66088 0.53009
 O673 O 0.12368 0.58080 0.54063
 O674 O 0.15900 0.62754 0.53006
 O675 O 0.04071 0.62207 0.57981
 O676 O 0.03014 0.65911 0.62566
 O677 O 0.08187 0.54135 0.62310
 O678 O 0.12671 0.53289 0.66004
 O679 O 0.12115 0.70974 0.66797
 O680 O 0.08560 0.71772 0.62308
 O681 O 0.20618 0.67322 0.62263
 O682 O 0.21460 0.62842 0.58504
 O683 O 0.16934 0.62665 0.70691
 O684 O 0.12537 0.59082 0.71687
 Zr685 Zr 0.12559 0.62751 0.68143
 O686 O 0.09612 0.59641 0.65424
 Zr687 Zr 0.18182 0.62871 0.62429
 O688 O 0.15481 0.59739 0.59462
 Zr689 Zr 0.12356 0.68374 0.62439
 O690 O 0.09405 0.65509 0.59460
 Zr691 Zr 0.12471 0.56832 0.62312
 O692 O 0.15469 0.59677 0.65317
 Zr693 Zr 0.06669 0.62355 0.62331
 O694 O 0.09340 0.65497 0.65340
 Zr695 Zr 0.12290 0.62465 0.56610
 O696 O 0.15261 0.65622 0.59315
 O697 O 0.15453 0.65814 0.65433
 O698 O 0.09365 0.59384 0.59294
 C699 C 0.12125 0.70081 0.69768
 C700 C 0.19884 0.62609 0.69757
 C701 C 0.19613 0.70254 0.62145
 C702 C 0.12407 0.55127 0.54987
 C703 C 0.05212 0.54977 0.62340
 C704 C 0.04956 0.62203 0.55011
 H705 H 0.08320 0.58300 0.66911
 H706 H 0.08027 0.66924 0.58126
 H707 H 0.16805 0.67226 0.66804
 H708 H 0.16950 0.58407 0.58137
 H709 H 0.17944 0.54226 0.63712
 H710 H 0.21395 0.57628 0.61323
 H711 H 0.03388 0.67464 0.60792
 H712 H 0.06875 0.70963 0.63794
 H713 H 0.10986 0.53783 0.67619
 H714 H 0.14024 0.57384 0.70908
 H715 H 0.10622 0.67611 0.53450
 H716 H 0.13577 0.71099 0.56981
 H717 H 0.07146 0.64009 0.70923
 H718 H 0.03639 0.60831 0.67607
 H719 H 0.20731 0.64516 0.56966
 H720 H 0.17532 0.61081 0.53475
 O721 O 0.12344 0.16879 0.20826
 O722 O 0.08906 0.12316 0.21725
 O723 O 0.20825 0.12461 0.16854
 O724 O 0.22045 0.09327 0.12639
 O725 O 0.16713 0.20918 0.12375
 O726 O 0.12193 0.21748 0.08877
 O727 O 0.12445 0.04138 0.07882
 O728 O 0.16293 0.03322 0.12059
 O729 O 0.04217 0.07816 0.12327
 O730 O 0.03131 0.12360 0.16020
 O731 O 0.07952 0.12294 0.04089
 O732 O 0.12488 0.16085 0.03117
 O733 O 0.12385 0.08054 0.04045
 O734 O 0.15944 0.12705 0.03051
 O735 O 0.04111 0.12179 0.08004
 O736 O 0.03075 0.15826 0.12655
 O737 O 0.08172 0.04023 0.12229
 O738 O 0.12647 0.03094 0.15916
 O739 O 0.12171 0.20767 0.16951
 O740 O 0.08649 0.21654 0.12461
 O741 O 0.20684 0.17135 0.12382
 O742 O 0.21511 0.12703 0.08580
 O743 O 0.16951 0.12390 0.20749
 O744 O 0.12536 0.08811 0.21683
 Zr745 Zr 0.12581 0.12530 0.18192
 O746 O 0.09624 0.09472 0.15424
 Zr747 Zr 0.18218 0.12697 0.12493
 O748 O 0.15506 0.09622 0.09476
 Zr749 Zr 0.12419 0.18226 0.12561
 O750 O 0.09457 0.15420 0.09538
 Zr751 Zr 0.12473 0.06693 0.12277
 O752 O 0.15481 0.09480 0.15330
 Zr753 Zr 0.06698 0.12243 0.12362
 O754 O 0.09382 0.15329 0.15418
 Zr755 Zr 0.12334 0.12401 0.06654
 O756 O 0.15318 0.15503 0.09408
 O757 O 0.15496 0.15614 0.15529
 O758 O 0.09386 0.09300 0.09289
 C759 C 0.12162 0.19838 0.19910
 C760 C 0.19904 0.12350 0.19822
 C761 C 0.19691 0.20072 0.12303
 C762 C 0.12406 0.05085 0.04921
 C763 C 0.05200 0.04877 0.12263
 C764 C 0.05003 0.12207 0.05036
 H765 H 0.08322 0.08117 0.16888
 H766 H 0.08091 0.16861 0.08222
 H767 H 0.16848 0.17005 0.16922
 H768 H 0.16969 0.08299 0.08134
 H769 H 0.17929 0.04035 0.13647
 H770 H 0.21403 0.07452 0.11310
 H771 H 0.03445 0.17388 0.10887
 H772 H 0.06949 0.20834 0.13924
 H773 H 0.10965 0.03578 0.17539
 H774 H 0.14017 0.07117 0.20883
 H775 H 0.10693 0.17593 0.03556
 H776 H 0.13672 0.21021 0.07145
 H777 H 0.07165 0.13766 0.20976
 H778 H 0.03653 0.10661 0.17612
 H779 H 0.20783 0.14387 0.07051
 H780 H 0.17576 0.11029 0.03513
 O781 O 0.70754 0.37720 0.83083
 O782 O 0.71570 0.41256 0.87582
 O783 O 0.67017 0.29221 0.87686
 O784 O 0.62861 0.27964 0.90866
 O785 O 0.62450 0.33021 0.79135
 O786 O 0.58864 0.37426 0.78181
 O787 O 0.57853 0.37580 0.95847
 O788 O 0.62123 0.33876 0.96762
 O789 O 0.62041 0.45825 0.91944
 O790 O 0.65690 0.46909 0.87365
 O791 O 0.53949 0.41755 0.87548
 O792 O 0.53100 0.37095 0.83886
 O793 O 0.54029 0.37427 0.91918
 O794 O 0.53146 0.33720 0.87342
 O795 O 0.57728 0.45718 0.87563
 O796 O 0.62342 0.46779 0.83892
 O797 O 0.62081 0.41985 0.95862
 O798 O 0.65869 0.37632 0.96890
 O799 O 0.66897 0.37634 0.79177
 O800 O 0.62347 0.41078 0.78221
 O801 O 0.62533 0.29134 0.83012
 O802 O 0.58789 0.28321 0.87506
 O803 O 0.70805 0.33188 0.87658
 O804 O 0.71592 0.37714 0.91186
 Zr805 Zr 0.68135 0.37497 0.87443
 O806 O 0.65288 0.40470 0.90422
 Zr807 Zr 0.62604 0.31711 0.87406
 O808 O 0.59529 0.34424 0.90427
 Zr809 Zr 0.62525 0.37378 0.81729
 O810 O 0.59419 0.40322 0.84462
 Zr811 Zr 0.62234 0.37611 0.93286
 O812 O 0.65354 0.34602 0.90568
 Zr813 Zr 0.62150 0.43240 0.87573
 O814 O 0.65287 0.40559 0.84561
 Zr815 Zr 0.56629 0.37443 0.87561
 O816 O 0.59457 0.34460 0.84522
 O817 O 0.65560 0.34439 0.84421
 O818 O 0.59165 0.40547 0.90595
 C819 C 0.69844 0.37766 0.80111
 C820 C 0.69955 0.30211 0.87760
 C821 C 0.62436 0.30062 0.80048
 C822 C 0.54908 0.37503 0.94889
 C823 C 0.62025 0.44934 0.94914
 C824 C 0.54794 0.44733 0.87554
 H825 H 0.66711 0.41849 0.91744
 H826 H 0.58068 0.41613 0.82983
 H827 H 0.66980 0.33086 0.83059
 H828 H 0.58234 0.32957 0.91789
 H829 H 0.63753 0.32264 0.96090
 H830 H 0.61550 0.28632 0.92747
 H831 H 0.60600 0.46313 0.82330
 H832 H 0.63797 0.42810 0.78990
 H833 H 0.67449 0.39331 0.96349
 H834 H 0.70847 0.36217 0.92893
 H835 H 0.53501 0.38844 0.82313
 H836 H 0.57165 0.35934 0.78946
 H837 H 0.70768 0.42961 0.86114
 H838 H 0.67295 0.46472 0.89075
 H839 H 0.57248 0.28955 0.85795
 H840 H 0.53638 0.32156 0.89077
 O841 O 0.12505 0.83251 0.78972
 O842 O 0.08892 0.87645 0.78052
 O843 O 0.20825 0.88084 0.82827
 O844 O 0.21906 0.91329 0.86998
 O845 O 0.17199 0.79474 0.87376
 O846 O 0.12775 0.78428 0.90927
 O847 O 0.12120 0.96052 0.91798
 O848 O 0.15837 0.97042 0.87558
 O849 O 0.04026 0.91909 0.87483
 O850 O 0.03159 0.87271 0.83829
 O851 O 0.08059 0.87703 0.95719
 O852 O 0.12774 0.84189 0.96694
 O853 O 0.12284 0.92186 0.95687
 O854 O 0.16094 0.87699 0.96652
 O855 O 0.04189 0.87555 0.91839
 O856 O 0.03301 0.83856 0.87228
 O857 O 0.07764 0.95913 0.87510
 O858 O 0.12134 0.97047 0.83768
 O859 O 0.12614 0.79356 0.82843
 O860 O 0.09168 0.78335 0.87389
 O861 O 0.20955 0.83468 0.87340
 O862 O 0.21572 0.87982 0.91098
 O863 O 0.16927 0.87911 0.78965
 O864 O 0.12345 0.91317 0.78067
 Zr865 Zr 0.12584 0.87614 0.81568
 O866 O 0.09480 0.90519 0.84341
 Zr867 Zr 0.18260 0.87770 0.87211
 O868 O 0.15412 0.90726 0.90226
 Zr869 Zr 0.12766 0.81939 0.87226
 O870 O 0.09692 0.84614 0.90268
 Zr871 Zr 0.12204 0.93469 0.87432
 O872 O 0.15342 0.90826 0.84378
 Zr873 Zr 0.06740 0.87619 0.87455
 O874 O 0.09559 0.84665 0.84386
 Zr875 Zr 0.12419 0.87810 0.93108
 O876 O 0.15535 0.84838 0.90341
 O877 O 0.15674 0.84695 0.84218
 O878 O 0.09286 0.90730 0.90478
 C879 C 0.12494 0.80290 0.79881
 C880 C 0.19883 0.88096 0.79865
 C881 C 0.20129 0.80485 0.87428
 C882 C 0.12173 0.95142 0.94762
 C883 C 0.04839 0.94896 0.87511
 C884 C 0.05103 0.87605 0.94799
 H885 H 0.08093 0.91790 0.82880
 H886 H 0.08417 0.83112 0.91609
 H887 H 0.17081 0.83361 0.82821
 H888 H 0.16820 0.92133 0.91539
 H889 H 0.17493 0.96398 0.85958
 H890 H 0.21165 0.93191 0.88295
 H891 H 0.03797 0.82303 0.88972
 H892 H 0.07435 0.79041 0.85907
 H893 H 0.10486 0.96445 0.82154
 H894 H 0.13776 0.93066 0.78834
 H895 H 0.11109 0.82546 0.96238
 H896 H 0.14211 0.79255 0.92647
 H897 H 0.07205 0.86149 0.78835
 H898 H 0.03549 0.89007 0.82239
 H899 H 0.20957 0.86265 0.92640
 H900 H 0.17602 0.89488 0.96192
 O901 O 0.70808 0.12636 0.66895
 O902 O 0.71834 0.09197 0.62358
 O903 O 0.66713 0.21005 0.62266
 O904 O 0.62512 0.22117 0.59122
 O905 O 0.62301 0.16952 0.70809
 O906 O 0.58842 0.12393 0.71657
 O907 O 0.58056 0.12363 0.53992
 O908 O 0.62188 0.16268 0.53181
 O909 O 0.62551 0.04242 0.57835
 O910 O 0.66257 0.03305 0.62445
 O911 O 0.54268 0.07892 0.62219
 O912 O 0.53137 0.12438 0.65894
 O913 O 0.54192 0.12220 0.57886
 O914 O 0.53098 0.15889 0.62501
 O915 O 0.58230 0.04109 0.62200
 O916 O 0.62852 0.03209 0.65878
 O917 O 0.62480 0.08148 0.53982
 O918 O 0.66054 0.12642 0.53009
 O919 O 0.66907 0.12490 0.70760
 O920 O 0.62489 0.08888 0.71651
 O921 O 0.62207 0.20840 0.66933
 O922 O 0.58455 0.21522 0.62428
 O923 O 0.70696 0.17233 0.62373
 O924 O 0.71751 0.12796 0.58812
 Zr925 Zr 0.68232 0.12800 0.62508
 O926 O 0.65562 0.09735 0.59461
 Zr927 Zr 0.62427 0.18314 0.62529
 O928 O 0.59513 0.15500 0.59458
 Zr929 Zr 0.62558 0.12614 0.68168
 O930 O 0.59635 0.09546 0.65368
 Zr931 Zr 0.62407 0.12483 0.56600
 O932 O 0.65357 0.15593 0.59378
 Zr933 Zr 0.62529 0.06787 0.62245
 O934 O 0.65492 0.09585 0.65329
 Zr935 Zr 0.56738 0.12318 0.62271
 O936 O 0.59384 0.15404 0.65365
 O937 O 0.65482 0.15708 0.65526
 O938 O 0.59454 0.09376 0.59227
 C939 C 0.69867 0.12493 0.69856
 C940 C 0.69693 0.20166 0.62240
 C941 C 0.62157 0.19912 0.69892
 C942 C 0.55102 0.12253 0.54923
 C943 C 0.62522 0.05187 0.54876
 C944 C 0.55256 0.04955 0.62188
 H945 H 0.67060 0.08438 0.58137
 H946 H 0.58333 0.08176 0.66820
 H947 H 0.66830 0.17109 0.66911
 H948 H 0.58163 0.16919 0.58099
 H949 H 0.63761 0.17922 0.53882
 H950 H 0.61283 0.21395 0.57207
 H951 H 0.61095 0.03594 0.67447
 H952 H 0.63995 0.07207 0.70871
 H953 H 0.67751 0.11077 0.53598
 H954 H 0.70956 0.14272 0.57110
 H955 H 0.53652 0.10745 0.67496
 H956 H 0.57116 0.13856 0.70900
 H957 H 0.71087 0.07435 0.63786
 H958 H 0.67808 0.03788 0.60696
 H959 H 0.56930 0.20800 0.64119
 H960 H 0.53490 0.17448 0.60737
 C961 C 0.37500 0.77606 0.72082
 C962 C 0.37751 0.78189 0.75263
 C963 C 0.37772 0.75661 0.77799
 C964 C 0.37968 0.72480 0.77222
 H965 H 0.37872 0.80660 0.76101
 H966 H 0.37613 0.76503 0.80272
 H967 H 0.37313 0.75169 0.71181
 H968 H 0.38182 0.71572 0.74786
 C969 C 0.37859 0.22507 0.27356
 C970 C 0.37690 0.25688 0.27951
 C971 C 0.37653 0.28233 0.25429
 C972 C 0.37513 0.27666 0.22239
 H973 H 0.37549 0.26516 0.30430
 H974 H 0.37677 0.30702 0.26285
 H975 H 0.38034 0.21606 0.24914
 H976 H 0.37444 0.25233 0.21315
 C977 C 0.62432 0.77762 0.27223
 C978 C 0.62411 0.74580 0.27823
 C979 C 0.62388 0.72033 0.25305
 C980 C 0.62338 0.72590 0.22111
 H981 H 0.62444 0.73752 0.30305
 H982 H 0.62444 0.69568 0.26167
 H983 H 0.62409 0.78668 0.24780
 H984 H 0.62282 0.75017 0.21174
 C985 C 0.12298 0.27548 0.27490
 C986 C 0.12252 0.24365 0.28083
 C987 C 0.12273 0.21831 0.25550
 C988 C 0.12002 0.22403 0.22369
 H989 H 0.12270 0.23530 0.30563
 H990 H 0.12538 0.19369 0.26383
 H991 H 0.12337 0.28454 0.25046
 H992 H 0.11691 0.24825 0.21468
 C993 C 0.11985 0.72669 0.72204
 C994 C 0.12295 0.72117 0.75384
 C995 C 0.12304 0.74663 0.77904
 C996 C 0.12405 0.77842 0.77301
 H997 H 0.12566 0.69661 0.76231
 H998 H 0.12303 0.73835 0.80386
 H999 H 0.11660 0.75086 0.71293
 H1000 H 0.12471 0.78738 0.74853
 C1001 C 0.87860 0.22386 0.77508
 C1002 C 0.87679 0.25562 0.78110
 C1003 C 0.87690 0.28104 0.75591
 C1004 C 0.87491 0.27535 0.72404
 H1005 H 0.87507 0.26387 0.80588
 H1006 H 0.87792 0.30572 0.76444
 H1007 H 0.88085 0.21492 0.75068
 H1008 H 0.87324 0.25105 0.71486
 C1009 C 0.77449 0.38213 0.72441
 C1010 C 0.78009 0.37947 0.75625
 C1011 C 0.75472 0.37990 0.78149
 C1012 C 0.72297 0.37887 0.77544
 H1013 H 0.80463 0.37661 0.76468
 H1014 H 0.76297 0.38003 0.80632
 H1015 H 0.75037 0.38562 0.71532
 H1016 H 0.71406 0.37798 0.75095
 C1017 C 0.27469 0.62533 0.77462
 C1018 C 0.28042 0.62557 0.74267
 C1019 C 0.25510 0.62561 0.71737
 C1020 C 0.22331 0.62518 0.72330
 H1021 H 0.30510 0.62614 0.73416
 H1022 H 0.26345 0.62634 0.69258
 H1023 H 0.25040 0.62486 0.78391
 H1024 H 0.21422 0.62446 0.74772
 C1025 C 0.27473 0.12428 0.27545
 C1026 C 0.28052 0.12396 0.24352
 C1027 C 0.25524 0.12393 0.21817
 C1028 C 0.22347 0.12232 0.22399
 H1029 H 0.30521 0.12432 0.23504
 H1030 H 0.26361 0.12556 0.19342
 H1031 H 0.25041 0.12428 0.28469
 H1032 H 0.21439 0.12047 0.24836
 C1033 C 0.77405 0.12356 0.77616
 C1034 C 0.77994 0.12444 0.74426
 C1035 C 0.75477 0.12462 0.71880
 C1036 C 0.72294 0.12388 0.72449
 H1037 H 0.80464 0.12545 0.73588
 H1038 H 0.76328 0.12575 0.69408
 H1039 H 0.74972 0.12261 0.78532
 H1040 H 0.71368 0.12278 0.74884
 C1041 C 0.72455 0.88046 0.27284
 C1042 C 0.75629 0.87820 0.27867
 C1043 C 0.78162 0.87772 0.25333
 C1044 C 0.77588 0.87587 0.22144
 H1045 H 0.76457 0.87639 0.30342
 H1046 H 0.80631 0.87815 0.26179
 H1047 H 0.71560 0.88269 0.24845
 H1048 H 0.75155 0.87485 0.21230
 C1049 C 0.77771 0.72716 0.37625
 C1050 C 0.74583 0.72170 0.37628
 C1051 C 0.72073 0.74711 0.37597
 C1052 C 0.72656 0.77893 0.37582
 H1053 H 0.73713 0.69708 0.37609
 H1054 H 0.69603 0.73869 0.37548
 H1055 H 0.78718 0.75140 0.37636
 H1056 H 0.75089 0.78810 0.37631
 C1057 C 0.77232 0.27937 0.62311
 C1058 C 0.77797 0.24751 0.62223
 C1059 C 0.75274 0.22224 0.62227
 C1060 C 0.72090 0.22785 0.62122
 H1061 H 0.80263 0.23895 0.62208
 H1062 H 0.76131 0.19760 0.62342
 H1063 H 0.74803 0.28867 0.62361
 H1064 H 0.71159 0.25212 0.61978
 C1065 C 0.72642 0.72162 0.12075
 C1066 C 0.72091 0.75351 0.11965
 C1067 C 0.74634 0.77863 0.11993
 C1068 C 0.77810 0.77273 0.11834
 H1069 H 0.69629 0.76217 0.11930
 H1070 H 0.73805 0.80334 0.12173
 H1071 H 0.75068 0.71225 0.12163
 H1072 H 0.78709 0.74840 0.11611
 C1073 C 0.27217 0.27851 0.12155
 C1074 C 0.27800 0.24668 0.12183
 C1075 C 0.25279 0.22132 0.12195
 C1076 C 0.22091 0.22690 0.12200
 H1077 H 0.30270 0.23828 0.12236
 H1078 H 0.26140 0.19667 0.12239
 H1079 H 0.24783 0.28765 0.12105
 H1080 H 0.21152 0.25117 0.12162
 C1081 C 0.27941 0.72957 0.87545
 C1082 C 0.24755 0.72392 0.87522
 C1083 C 0.22218 0.74908 0.87532
 C1084 C 0.22762 0.78098 0.87517
 H1085 H 0.23903 0.69924 0.87462
 H1086 H 0.19757 0.74040 0.87511
 H1087 H 0.28869 0.75388 0.87611
 H1088 H 0.25187 0.79040 0.87526
 C1089 C 0.27831 0.22785 0.37704
 C1090 C 0.24652 0.22185 0.37685
 C1091 C 0.22098 0.24682 0.37711
 C1092 C 0.22628 0.27873 0.37687
 H1093 H 0.23823 0.19710 0.37617
 H1094 H 0.19642 0.23799 0.37700
 H1095 H 0.28737 0.25223 0.37782
 H1096 H 0.25047 0.28830 0.37682
 C1097 C 0.52500 0.62473 1.02414
 C1098 C 0.53076 0.62249 0.99230
 C1099 C 0.50542 0.62279 0.96700
 C1100 C 0.47361 0.62238 0.97291
 H1101 H 0.55541 0.62069 0.98389
 H1102 H 0.51380 0.62323 0.94220
 H1103 H 0.50073 0.62696 1.03324
 H1104 H 0.46451 0.62144 0.99733
 C1105 C 0.47385 0.12351 0.47360
 C1106 C 0.50563 0.12233 0.46765
 C1107 C 0.53100 0.12268 0.49290
 C1108 C 0.52526 0.12163 0.52481
 H1109 H 0.51396 0.12155 0.44284
 H1110 H 0.55566 0.12381 0.48440
 H1111 H 0.46479 0.12471 0.49802
 H1112 H 0.50098 0.12002 0.53401
 C1113 C 0.52447 0.87603 0.47055
 C1114 C 0.52996 0.87639 0.50251
 C1115 C 0.50444 0.87611 0.52767
 C1116 C 0.47263 0.87583 0.52169
 H1117 H 0.55458 0.87690 0.51116
 H1118 H 0.51270 0.87627 0.55249
 H1119 H 0.50022 0.87547 0.46117
 H1120 H 0.46359 0.87583 0.49724
 C1121 C 1.02411 0.37311 0.47421
 C1122 C 1.02992 0.37537 0.50603
 C1123 C 1.00462 0.37500 0.53137
 C1124 C 0.97283 0.37604 0.52549
 H1125 H 1.05457 0.37732 0.51438
 H1126 H 1.01300 0.37429 0.55614
 H1127 H 0.99984 0.37060 0.46520
 H1128 H 0.96375 0.37744 0.50110
 C1129 C -0.02610 0.87543 1.02408
 C1130 C 0.00581 0.87570 1.02982
 C1131 C 0.03107 0.87644 1.00439
 C1132 C 0.02528 0.87535 0.97250
 H1133 H 0.01445 0.87555 1.05453
 H1134 H 0.05575 0.87777 1.01278
 H1135 H -0.03506 0.87589 0.99960
 H1136 H 0.00100 0.87380 0.96335
 C1137 C -0.02742 0.12135 -0.02510
 C1138 C 0.00439 0.12119 -0.03107
 C1139 C 0.02979 0.12144 -0.00586
 C1140 C 0.02413 0.12138 0.02607
 H1141 H 0.01271 0.12115 -0.05589
 H1142 H 0.05445 0.12184 -0.01444
 H1143 H -0.03652 0.12147 -0.00067
 H1144 H -0.00014 0.12084 0.03540
 C1145 C 0.12381 1.02792 1.02445
 C1146 C 0.12343 0.99594 1.02980
 C1147 C 0.12326 0.97100 1.00407
 C1148 C 0.12117 0.97709 0.97226
 H1149 H 0.12357 0.98700 1.05440
 H1150 H 0.12493 0.94623 1.01218
 H1151 H 0.12396 1.03715 1.00005
 H1152 H 0.11914 1.00147 0.96337
 C1153 C 0.11960 0.47520 0.47306
 C1154 C 0.12212 0.46955 0.50490
 C1155 C 0.12216 0.49497 0.53015
 C1156 C 0.12405 0.52671 0.52415
 H1157 H 0.12402 0.44492 0.51337
 H1158 H 0.12107 0.48671 0.55495
 H1159 H 0.11699 0.49945 0.46395
 H1160 H 0.12574 0.53561 0.49969
 C1161 C 0.37476 0.47545 1.02345
 C1162 C 0.37453 0.50733 1.02907
 C1163 C 0.37504 0.53244 1.00353
 C1164 C 0.37379 0.52646 0.97165
 H1165 H 0.37415 0.51592 1.05379
 H1166 H 0.37630 0.55719 1.01181
 H1167 H 0.37551 0.46615 0.99910
 H1168 H 0.37223 0.50210 0.96262
 C1169 C 0.87262 0.52552 0.47450
 C1170 C 0.87617 0.53163 0.50616
 C1171 C 0.87621 0.50658 0.53172
 C1172 C 0.87812 0.47479 0.52600
 H1173 H 0.87867 0.55636 0.51422
 H1174 H 0.87499 0.51510 0.55644
 H1175 H 0.86933 0.50117 0.46585
 H1176 H 0.88019 0.46569 0.50164
 C1177 C 0.87446 1.02358 -0.02766
 C1178 C 0.87682 1.02921 0.00421
 C1179 C 0.87688 1.00378 0.02941
 C1180 C 0.87849 0.97202 0.02334
 H1181 H 0.87840 1.05385 0.01275
 H1182 H 0.87584 1.01202 0.05423
 H1183 H 0.87230 0.99932 -0.03686
 H1184 H 0.88018 0.96312 -0.00112
 C1185 C 0.62157 -0.02348 0.47114
 C1186 C 0.62346 -0.02940 0.50298
 C1187 C 0.62348 -0.00422 0.52846
 C1188 C 0.62533 0.02758 0.52278
 H1189 H 0.62486 -0.05413 0.51128
 H1190 H 0.62230 -0.01272 0.55318
 H1191 H 0.61958 0.00087 0.46215
 H1192 H 0.62700 0.03675 0.49843
 C1193 C 0.47224 1.02462 0.37470
 C1194 C 0.50407 1.03033 0.37456
 C1195 C 0.52931 1.00504 0.37454
 C1196 C 0.52364 0.97319 0.37354
 H1197 H 0.51256 1.05502 0.37452
 H1198 H 0.55397 1.01356 0.37522
 H1199 H 0.46300 1.00029 0.37497
 H1200 H 0.49936 0.96391 0.37272
 C1201 C -0.02317 -0.02904 0.12247
 C1202 C -0.02906 0.00279 0.12207
 C1203 C -0.00390 0.02819 0.12237
 C1204 C 0.02797 0.02263 0.12220
 H1205 H -0.05378 0.01116 0.12166
 H1206 H -0.01252 0.05284 0.12270
 H1207 H 0.00118 -0.03816 0.12297
 H1208 H 0.03735 -0.00164 0.12166
 C1209 C 0.52259 0.52823 0.12185
 C1210 C 0.52811 0.49631 0.12160
 C1211 C 0.50271 0.47114 0.12170
 C1212 C 0.47093 0.47708 0.12210
 H1213 H 0.55273 0.48765 0.12140
 H1214 H 0.51103 0.44638 0.12152
 H1215 H 0.49835 0.53767 0.12198
 H1216 H 0.46189 0.50148 0.12222
 C1217 C -0.02329 0.47208 0.62433
 C1218 C -0.02892 0.50395 0.62360
 C1219 C -0.00369 0.52922 0.62352
 C1220 C 0.02815 0.52358 0.62341
 H1221 H -0.05357 0.51253 0.62317
 H1222 H -0.01226 0.55389 0.62351
 H1223 H 0.00098 0.46274 0.62484
 H1224 H 0.03748 0.49927 0.62325
 C1225 C 0.47074 0.52352 0.87477
 C1226 C 0.50263 0.52887 0.87527
 C1227 C 0.52767 0.50335 0.87556
 C1228 C 0.52185 0.47149 0.87545
 H1229 H 0.51138 0.55347 0.87543
 H1230 H 0.55238 0.51174 0.87581
 H1231 H 0.46126 0.49929 0.87465
 H1232 H 0.49751 0.46233 0.87525
 C1233 C 0.62140 0.52662 1.02506
 C1234 C 0.62020 0.49473 1.03085
 C1235 C 0.62021 0.46945 1.00544
 C1236 C 0.61945 0.47523 0.97352
 H1237 H 0.61962 0.48613 1.05557
 H1238 H 0.62094 0.44474 1.01388
 H1239 H 0.62221 0.53551 1.00056
 H1240 H 0.61836 0.49953 0.96429
 C1241 C 0.37628 1.02679 0.47067
 C1242 C 0.37737 1.03239 0.50270
 C1243 C 0.37751 1.00697 0.52796
 C1244 C 0.37789 0.97513 0.52209
 H1245 H 0.37796 1.05701 0.51145
 H1246 H 0.37722 1.01533 0.55276
 H1247 H 0.37554 1.00239 0.46160
 H1248 H 0.37837 0.96599 0.49767
 C1249 C -0.02803 0.62208 0.47480
 C1250 C 0.00374 0.62060 0.46879
 C1251 C 0.02920 0.62127 0.49393
 C1252 C 0.02362 0.62082 0.52587
 H1253 H 0.01200 0.61935 0.44399
 H1254 H 0.05382 0.62213 0.48529
 H1255 H -0.03702 0.62377 0.49921
 H1256 H -0.00062 0.61948 0.53522
 C1257 C 0.47120 0.37830 1.02387
 C1258 C 0.50295 0.37752 1.03002
 C1259 C 0.52850 0.37751 1.00494
 C1260 C 0.52306 0.37494 0.97309
 H1261 H 0.51112 0.37716 1.05487
 H1262 H 0.55306 0.37939 1.01356
 H1263 H 0.46230 0.37927 0.99938
 H1264 H 0.49888 0.37260 0.96380
 C1265 C 0.47688 -0.02788 0.62067
 C1266 C 0.47138 0.00402 0.62047
 C1267 C 0.49671 0.02918 0.62075
 C1268 C 0.52853 0.02342 0.62140
 H1269 H 0.44677 0.01271 0.62019
 H1270 H 0.48823 0.05388 0.62051
 H1271 H 0.50112 -0.03732 0.62089
 H1272 H 0.53777 -0.00091 0.62160
 C1273 C -0.03071 0.52179 0.37748
 C1274 C 0.00114 0.52734 0.37754
 C1275 C 0.02631 0.50203 0.37756
 C1276 C 0.02067 0.47015 0.37693
 H1277 H 0.00977 0.55199 0.37748
 H1278 H 0.05095 0.51059 0.37789
 H1279 H -0.04009 0.49752 0.37769
 H1280 H -0.00360 0.46081 0.37657
 C1281 C -0.02982 1.02434 0.87567
 C1282 C 0.00211 1.02997 0.87592
 C1283 C 0.02743 1.00473 0.87585
 C1284 C 0.02201 0.97281 0.87544
 H1285 H 0.01080 1.05461 0.87612
 H1286 H 0.05205 1.01340 0.87605
 H1287 H -0.03883 0.99990 0.87555
 H1288 H -0.00222 0.96335 0.87525
 C1289 C 0.77304 0.62330 0.27608
 C1290 C 0.77908 0.62132 0.24425
 C1291 C 0.75407 0.62141 0.21866
 C1292 C 0.72223 0.62027 0.22418
 H1293 H 0.80383 0.62026 0.23601
 H1294 H 0.76271 0.62263 0.19399
 H1295 H 0.74865 0.62487 0.28504
 H1296 H 0.71291 0.61866 0.24849
 C1297 C 0.27437 0.88317 0.72102
 C1298 C 0.28016 0.88179 0.75292
 C1299 C 0.25494 0.88246 0.77837
 C1300 C 0.22310 0.88235 0.77267
 H1301 H 0.30479 0.87964 0.76128
 H1302 H 0.26343 0.88206 0.80311
 H1303 H 0.25014 0.88566 0.71193
 H1304 H 0.21389 0.88225 0.74829
 C1305 C 0.22126 0.37995 0.27405
 C1306 C 0.25308 0.38067 0.27973
 C1307 C 0.27823 0.38041 0.25427
 C1308 C 0.27234 0.38148 0.22239
 H1309 H 0.26161 0.38059 0.30447
 H1310 H 0.30292 0.37888 0.26261
 H1311 H 0.21201 0.37957 0.24969
 H1312 H 0.24804 0.38335 0.21329
 C1313 C 0.87951 0.72131 0.27310
 C1314 C 0.87854 0.75318 0.27879
 C1315 C 0.87891 0.77841 0.25343
 C1316 C 0.87815 0.77255 0.22155
 H1317 H 0.87706 0.76171 0.30349
 H1318 H 0.87914 0.80314 0.26187
 H1319 H 0.88125 0.71202 0.24879
 H1320 H 0.87756 0.74819 0.21239
 C1321 C 0.62377 0.27616 0.77468
 C1322 C 0.62263 0.24435 0.78062
 C1323 C 0.62275 0.21902 0.75529
 C1324 C 0.62003 0.22477 0.72350
 H1325 H 0.62231 0.23600 0.80541
 H1326 H 0.62527 0.19439 0.76363
 H1327 H 0.62474 0.28519 0.75024
 H1328 H 0.61698 0.24900 0.71451
 C1329 C 0.77750 0.22676 0.87810
 C1330 C 0.74565 0.22102 0.87817
 C1331 C 0.72026 0.24621 0.87830
 C1332 C 0.72574 0.27810 0.87891
 H1333 H 0.73720 0.19632 0.87761
 H1334 H 0.69565 0.23757 0.87738
 H1335 H 0.78670 0.25110 0.87856
 H1336 H 0.74998 0.28747 0.87982
 C1337 C 0.27174 0.78016 0.62018
 C1338 C 0.27726 0.74827 0.61999
 C1339 C 0.25195 0.72308 0.62029
 C1340 C 0.22009 0.72874 0.62010
 H1341 H 0.30189 0.73962 0.62010
 H1342 H 0.26049 0.69840 0.62102
 H1343 H 0.24748 0.78956 0.62022
 H1344 H 0.21079 0.75304 0.61929
   
