data_POSCAR
  _audit_creation_date              2014-09-24
  _audit_creation_method            'ToBaCCo'
  _symmetry_space_group_name_H-M    'P1'
  _symmetry_Int_Tables_number       1
  _symmetry_cell_setting            triclinic
  loop_
  _symmetry_equiv_pos_as_xyz
 x,y,z
_cell_length_a 89.5092
_cell_length_b 89.7594
_cell_length_c 89.0304
_cell_angle_alpha 89.989100
_cell_angle_beta 89.981800
_cell_angle_gamma 89.899500
loop_
  _atom_site_label
  _atom_site_type_symbol
  _atom_site_fract_x
  _atom_site_fract_y
  _atom_site_fract_z
N1 N 0.36946 0.32924 0.34538
 N2 N 0.37069 0.33963 0.33503
 C3 C 0.38203 0.33606 0.32573
 C4 C 0.38816 0.32281 0.33060
 C5 C 0.37993 0.31870 0.34301
 H6 H 0.38537 0.34240 0.31597
 H7 H 0.38122 0.30864 0.34958
 Cu8 Cu 0.35703 0.35650 0.33416
 Cu9 Cu 0.35414 0.32991 0.36088
 Cu10 Cu 0.32787 0.35816 0.35820
 N11 N 0.34115 0.37118 0.33192
 N12 N 0.32980 0.37171 0.34130
 C13 C 0.32029 0.38250 0.33693
 C14 C 0.32603 0.38908 0.32422
 C15 C 0.33923 0.38168 0.32124
 H16 H 0.30981 0.38513 0.34239
 H17 H 0.34666 0.38362 0.31187
 N18 N 0.32784 0.34337 0.37451
 N19 N 0.33781 0.33254 0.37550
 C20 C 0.33415 0.32361 0.38709
 C21 C 0.32136 0.32917 0.39364
 C22 C 0.31759 0.34162 0.38544
 H23 H 0.33988 0.31342 0.39007
 H24 H 0.30770 0.34841 0.38687
 H25 H 0.33890 0.34095 0.34730
 H26 H 0.35020 0.35262 0.36047
 N27 N 0.37047 0.83094 -0.15824
 N28 N 0.36952 0.84112 -0.16885
 C29 C 0.38036 0.83867 -0.17909
 C30 C 0.38844 0.82639 -0.17452
 C31 C 0.38192 0.82169 -0.16134
 H32 H 0.38202 0.84504 -0.18927
 H33 H 0.38494 0.81200 -0.15477
 Cu34 Cu 0.35353 0.85586 -0.16865
 Cu35 Cu 0.35620 0.82981 -0.14176
 Cu36 Cu 0.32771 0.85602 -0.14120
 N37 N 0.33764 0.87069 -0.16818
 N38 N 0.32755 0.87065 -0.15741
 C39 C 0.31752 0.88155 -0.16002
 C40 C 0.32163 0.88876 -0.17303
 C41 C 0.33435 0.88164 -0.17802
 H42 H 0.30777 0.88378 -0.15319
 H43 H 0.34050 0.88404 -0.18820
 N44 N 0.32984 0.84032 -0.12582
 N45 N 0.34076 0.83040 -0.12603
 C46 C 0.33872 0.82068 -0.11468
 C47 C 0.32600 0.82473 -0.10702
 C48 C 0.32056 0.83714 -0.11432
 H49 H 0.34559 0.81099 -0.11252
 H50 H 0.31030 0.84302 -0.11181
 H51 H 0.33836 0.83943 -0.15310
 H52 H 0.35036 0.85218 -0.14176
 N53 N 0.87051 0.33275 -0.16068
 N54 N 0.86713 0.34182 -0.17179
 C55 C 0.87755 0.34058 -0.18263
 C56 C 0.88795 0.33023 -0.17798
 C57 C 0.88320 0.32542 -0.16408
 H58 H 0.87731 0.34637 -0.19328
 H59 H 0.88825 0.31681 -0.15725
 Cu60 Cu 0.84899 0.35367 -0.17161
 Cu61 Cu 0.85744 0.33013 -0.14341
 Cu62 Cu 0.82769 0.35459 -0.14039
 N63 N 0.83431 0.36925 -0.16826
 N64 N 0.82597 0.36963 -0.15609
 C65 C 0.81650 0.38129 -0.15699
 C66 C 0.81921 0.38853 -0.17038
 C67 C 0.83049 0.38066 -0.17731
 H68 H 0.80812 0.38410 -0.14869
 H69 H 0.83536 0.38288 -0.18820
 N70 N 0.83147 0.33854 -0.12574
 N71 N 0.84288 0.32924 -0.12686
 C72 C 0.84183 0.31891 -0.11592
 C73 C 0.82923 0.32194 -0.10758
 C74 C 0.82288 0.33438 -0.11405
 H75 H 0.84924 0.30948 -0.11457
 H76 H 0.81241 0.33955 -0.11091
 H77 H 0.83758 0.33766 -0.15269
 H78 H 0.85029 0.35208 -0.14445
 N79 N 0.86872 0.83170 0.34116
 N80 N 0.86719 0.84153 0.33030
 C81 C 0.87801 0.83938 0.32002
 C82 C 0.88674 0.82762 0.32473
 C83 C 0.88058 0.82293 0.33813
 H84 H 0.87925 0.84568 0.30974
 H85 H 0.88424 0.81365 0.34496
 Cu86 Cu 0.85084 0.85577 0.33008
 Cu87 Cu 0.85468 0.83063 0.35790
 Cu88 Cu 0.82880 0.85919 0.36055
 N89 N 0.83811 0.87306 0.33307
 N90 N 0.82961 0.87444 0.34505
 C91 C 0.82111 0.88676 0.34364
 C92 C 0.82459 0.89338 0.33013
 C93 C 0.83533 0.88445 0.32362
 H94 H 0.81246 0.89014 0.35142
 H95 H 0.84017 0.88571 0.31256
 N96 N 0.82973 0.84264 0.37502
 N97 N 0.83949 0.83163 0.37394
 C98 C 0.83634 0.82134 0.38451
 C99 C 0.82411 0.82621 0.39256
 C100 C 0.82014 0.83966 0.38628
 H101 H 0.84201 0.81077 0.38577
 H102 H 0.81050 0.84634 0.38919
 H103 H 0.83648 0.84128 0.34819
 H104 H 0.85091 0.85342 0.35723
 N105 N 0.62896 0.67081 0.33855
 N106 N 0.63044 0.66204 0.32680
 C107 C 0.61957 0.66510 0.31682
 C108 C 0.61087 0.67637 0.32264
 C109 C 0.61708 0.67983 0.33640
 H110 H 0.61828 0.65976 0.30601
 H111 H 0.61345 0.68844 0.34408
 Cu112 Cu 0.64675 0.64790 0.32514
 Cu113 Cu 0.64303 0.67022 0.35533
 Cu114 Cu 0.66884 0.64143 0.35495
 N115 N 0.65922 0.63026 0.32634
 N116 N 0.66783 0.62770 0.33804
 C117 C 0.67579 0.61519 0.33560
 C118 C 0.67184 0.60968 0.32170
 C119 C 0.66137 0.61946 0.31607
 H120 H 0.68418 0.61073 0.34310
 H121 H 0.65608 0.61901 0.30516
 N122 N 0.66808 0.65651 0.37100
 N123 N 0.65829 0.66754 0.37115
 C124 C 0.66129 0.67650 0.38292
 C125 C 0.67347 0.67076 0.39044
 C126 C 0.67755 0.65816 0.38263
 H127 H 0.65545 0.68675 0.38549
 H128 H 0.68710 0.65111 0.38491
 H129 H 0.66112 0.66066 0.34453
 H130 H 0.64671 0.64773 0.35238
 N131 N 0.62568 0.16973 -0.15906
 N132 N 0.62726 0.16138 -0.17110
 C133 C 0.61627 0.16461 -0.18090
 C134 C 0.60739 0.17550 -0.17459
 C135 C 0.61364 0.17857 -0.16079
 H136 H 0.61521 0.15994 -0.19205
 H137 H 0.61016 0.18712 -0.15298
 Cu138 Cu 0.64428 0.14818 -0.17361
 Cu139 Cu 0.64033 0.16978 -0.14294
 Cu140 Cu 0.66819 0.14316 -0.14470
 N141 N 0.65799 0.13142 -0.17290
 N142 N 0.66729 0.12947 -0.16162
 C143 C 0.67582 0.11740 -0.16434
 C144 C 0.67153 0.11156 -0.17797
 C145 C 0.66027 0.12066 -0.18319
 H146 H 0.68471 0.11342 -0.15714
 H147 H 0.65443 0.11973 -0.19379
 N148 N 0.66699 0.15809 -0.12853
 N149 N 0.65621 0.16812 -0.12775
 C150 C 0.65887 0.17724 -0.11604
 C151 C 0.67188 0.17267 -0.10919
 C152 C 0.67681 0.16057 -0.11733
 H153 H 0.65224 0.18689 -0.11312
 H154 H 0.68710 0.15446 -0.11562
 H155 H 0.65858 0.16155 -0.15464
 H156 H 0.64557 0.14743 -0.14635
 N157 N 0.12545 0.67082 -0.15916
 N158 N 0.12705 0.66260 -0.17128
 C159 C 0.11618 0.66609 -0.18114
 C160 C 0.10737 0.67701 -0.17478
 C161 C 0.11352 0.67982 -0.16089
 H162 H 0.11512 0.66150 -0.19232
 H163 H 0.11002 0.68827 -0.15296
 Cu164 Cu 0.14387 0.64905 -0.17368
 Cu165 Cu 0.13987 0.67043 -0.14284
 Cu166 Cu 0.16763 0.64367 -0.14474
 N167 N 0.15780 0.63241 -0.17326
 N168 N 0.16703 0.63031 -0.16195
 C169 C 0.17568 0.61836 -0.16484
 C170 C 0.17156 0.61271 -0.17863
 C171 C 0.16025 0.62184 -0.18373
 H172 H 0.18452 0.61428 -0.15764
 H173 H 0.15448 0.62104 -0.19436
 N174 N 0.16623 0.65825 -0.12828
 N175 N 0.15552 0.66836 -0.12748
 C176 C 0.15816 0.67734 -0.11566
 C177 C 0.17107 0.67259 -0.10875
 C178 C 0.17598 0.66054 -0.11699
 H179 H 0.15165 0.68708 -0.11276
 H180 H 0.18626 0.65441 -0.11531
 H181 H 0.15818 0.66230 -0.15458
 H182 H 0.14507 0.64817 -0.14647
 N183 N 0.12680 0.17058 0.34342
 N184 N 0.12726 0.16270 0.33097
 C185 C 0.11579 0.16673 0.32208
 C186 C 0.10776 0.17765 0.32937
 C187 C 0.11503 0.17994 0.34283
 H188 H 0.11391 0.16265 0.31081
 H189 H 0.11252 0.18843 0.35109
 Cu190 Cu 0.14358 0.14910 0.32671
 Cu191 Cu 0.14272 0.16968 0.35833
 Cu192 Cu 0.17245 0.14603 0.35045
 N193 N 0.15727 0.13231 0.32572
 N194 N 0.16858 0.13116 0.33508
 C195 C 0.17685 0.11919 0.33136
 C196 C 0.17028 0.11249 0.31911
 C197 C 0.15793 0.12105 0.31573
 H198 H 0.18712 0.11591 0.33685
 H199 H 0.15033 0.11952 0.30641
 N200 N 0.17157 0.15860 0.36852
 N201 N 0.16009 0.16729 0.37175
 C202 C 0.16310 0.17480 0.38450
 C203 C 0.17703 0.17053 0.38945
 C204 C 0.18216 0.16030 0.37913
 H205 H 0.15601 0.18324 0.38946
 H206 H 0.19297 0.15491 0.37909
 H207 H 0.15932 0.16402 0.34363
 H208 H 0.14989 0.14816 0.35323
 N209 N 0.63098 0.32978 0.65516
 N210 N 0.63069 0.33983 0.66591
 C211 C 0.61946 0.33663 0.67544
 C212 C 0.61243 0.32395 0.67038
 C213 C 0.61996 0.31981 0.65752
 H214 H 0.61680 0.34278 0.68555
 H215 H 0.61784 0.31013 0.65063
 Cu216 Cu 0.64566 0.35554 0.66685
 Cu217 Cu 0.64600 0.32997 0.63929
 Cu218 Cu 0.67239 0.35820 0.64043
 N219 N 0.66046 0.37141 0.66734
 N220 N 0.67087 0.37233 0.65694
 C221 C 0.68021 0.38358 0.66034
 C222 C 0.67535 0.39000 0.67350
 C223 C 0.66284 0.38208 0.67771
 H224 H 0.69012 0.38646 0.65404
 H225 H 0.65638 0.38364 0.68787
 N226 N 0.67206 0.34284 0.62463
 N227 N 0.66205 0.33205 0.62422
 C228 C 0.66535 0.32283 0.61274
 C229 C 0.67795 0.32813 0.60566
 C230 C 0.68200 0.34075 0.61344
 H231 H 0.65943 0.31267 0.61008
 H232 H 0.69179 0.34751 0.61145
 H233 H 0.66254 0.34062 0.65151
 H234 H 0.65001 0.35273 0.63997
 N235 N 0.63071 0.83228 1.15932
 N236 N 0.63244 0.84184 1.17038
 C237 C 0.62166 0.83961 1.18070
 C238 C 0.61276 0.82807 1.17580
 C239 C 0.61877 0.82362 1.16224
 H240 H 0.62059 0.84565 1.19115
 H241 H 0.61500 0.81451 1.15526
 Cu242 Cu 0.64904 0.85580 1.17082
 Cu243 Cu 0.64469 0.83118 1.14254
 Cu244 Cu 0.67153 0.85879 1.14063
 N245 N 0.66255 0.87257 1.16828
 N246 N 0.67125 0.87376 1.15643
 C247 C 0.68016 0.88572 1.15809
 C248 C 0.67678 0.89233 1.17164
 C249 C 0.66563 0.88375 1.17788
 H250 H 0.68894 0.88894 1.15040
 H251 H 0.66062 0.88516 1.18884
 N252 N 0.67008 0.84263 1.12576
 N253 N 0.65990 0.83202 1.12650
 C254 C 0.66264 0.82194 1.11560
 C255 C 0.67505 0.82654 1.10768
 C256 C 0.67954 0.83961 1.11438
 H257 H 0.65653 0.81168 1.11399
 H258 H 0.68940 0.84599 1.11164
 H259 H 0.66300 0.84093 1.15263
 H260 H 0.64911 0.85375 1.14363
 N261 N 0.12846 0.33116 1.15467
 N262 N 0.13011 0.34056 1.16588
 C263 C 0.11919 0.33822 1.17602
 C264 C 0.11033 0.32682 1.17080
 C265 C 0.11646 0.32251 1.15730
 H266 H 0.11805 0.34399 1.18662
 H267 H 0.11283 0.31341 1.15023
 Cu268 Cu 0.14677 0.35440 1.16667
 Cu269 Cu 0.14268 0.32993 1.13824
 Cu270 Cu 0.17207 0.35494 1.13862
 N271 N 0.16282 0.36897 1.16608
 N272 N 0.17266 0.36917 1.15510
 C273 C 0.18256 0.38017 1.15762
 C274 C 0.17863 0.38718 1.17082
 C275 C 0.16611 0.37986 1.17595
 H276 H 0.19201 0.38275 1.15052
 H277 H 0.16000 0.38220 1.18616
 N278 N 0.16956 0.33974 1.12286
 N279 N 0.15824 0.33033 1.12264
 C280 C 0.16017 0.32066 1.11124
 C281 C 0.17327 0.32421 1.10399
 C282 C 0.17901 0.33628 1.11159
 H283 H 0.15306 0.31122 1.10887
 H284 H 0.18964 0.34162 1.10953
 H285 H 0.16083 0.33815 1.14983
 H286 H 0.14912 0.35204 1.13949
 N287 N 0.12673 0.83156 0.65503
 N288 N 0.12789 0.84158 0.66575
 C289 C 0.11679 0.83951 0.67576
 C290 C 0.10829 0.82765 0.67094
 C291 C 0.11486 0.82280 0.65783
 H292 H 0.11534 0.84569 0.68609
 H293 H 0.11165 0.81321 0.65123
 Cu294 Cu 0.14451 0.85550 0.66611
 Cu295 Cu 0.14154 0.82950 0.63913
 Cu296 Cu 0.17128 0.85421 0.63969
 N297 N 0.16101 0.86956 0.66613
 N298 N 0.17146 0.86899 0.65574
 C299 C 0.18169 0.87962 0.65851
 C300 C 0.17735 0.88719 0.67125
 C301 C 0.16426 0.88057 0.67588
 H302 H 0.19164 0.88156 0.65190
 H303 H 0.15777 0.88344 0.68571
 N304 N 0.16909 0.83848 0.62437
 N305 N 0.15768 0.82917 0.62409
 C306 C 0.15975 0.81928 0.61289
 C307 C 0.17303 0.82260 0.60584
 C308 C 0.17872 0.83475 0.61334
 H309 H 0.15249 0.80998 0.61042
 H310 H 0.18936 0.84008 0.61128
 H311 H 0.15918 0.83817 0.65110
 H312 H 0.14828 0.85154 0.63930
 N313 N 0.37197 0.67261 0.66211
 N314 N 0.37300 0.66209 0.67234
 C315 C 0.38547 0.66430 0.68050
 C316 C 0.39251 0.67683 0.67498
 C317 C 0.38366 0.68190 0.66342
 H318 H 0.38876 0.65777 0.69017
 H319 H 0.38520 0.69198 0.65694
 Cu320 Cu 0.35708 0.64765 0.67514
 Cu321 Cu 0.35477 0.67444 0.64906
 Cu322 Cu 0.33273 0.64282 0.64657
 N323 N 0.34392 0.63053 0.67420
 N324 N 0.33469 0.62850 0.66289
 C325 C 0.32643 0.61625 0.66551
 C326 C 0.33082 0.61034 0.67910
 C327 C 0.34187 0.61963 0.68439
 H328 H 0.31741 0.61237 0.65844
 H329 H 0.34754 0.61884 0.69509
 N330 N 0.33232 0.65892 0.63146
 N331 N 0.34044 0.67112 0.63277
 C332 C 0.33721 0.68041 0.62137
 C333 C 0.32657 0.67374 0.61252
 C334 C 0.32360 0.66018 0.61916
 H335 H 0.34205 0.69132 0.61975
 H336 H 0.31542 0.65208 0.61555
 H337 H 0.33880 0.66061 0.65920
 H338 H 0.35417 0.65156 0.64832
 N339 N 0.37468 0.16935 1.15927
 N340 N 0.37322 0.16093 1.17128
 C341 C 0.38442 0.16391 1.18090
 C342 C 0.39329 0.17472 1.17452
 C343 C 0.38684 0.17801 1.16086
 H344 H 0.38564 0.15909 1.19196
 H345 H 0.39031 0.18655 1.15304
 Cu346 Cu 0.35614 0.14790 1.17398
 Cu347 Cu 0.35989 0.16953 1.14328
 Cu348 Cu 0.33178 0.14325 1.14550
 N349 N 0.34202 0.13153 1.17369
 N350 N 0.33250 0.12973 1.16259
 C351 C 0.32372 0.11793 1.16559
 C352 C 0.32808 0.11208 1.17922
 C353 C 0.33965 0.12092 1.18413
 H354 H 0.31464 0.11410 1.15858
 H355 H 0.34566 0.11991 1.19462
 N356 N 0.33305 0.15797 1.12913
 N357 N 0.34385 0.16793 1.12826
 C358 C 0.34131 0.17686 1.11637
 C359 C 0.32836 0.17224 1.10949
 C360 C 0.32332 0.16031 1.11781
 H361 H 0.34803 0.18639 1.11328
 H362 H 0.31308 0.15418 1.11606
 H363 H 0.34177 0.16168 1.15528
 H364 H 0.35452 0.14742 1.14678
 N365 N 0.87154 0.66923 1.16226
 N366 N 0.87006 0.66045 1.17400
 C367 C 0.88099 0.66342 1.18394
 C368 C 0.88973 0.67461 1.17807
 C369 C 0.88347 0.67812 1.16436
 H370 H 0.88222 0.65816 1.19481
 H371 H 0.88704 0.68679 1.15673
 Cu372 Cu 0.85357 0.64661 1.17581
 Cu373 Cu 0.85725 0.66906 1.14572
 Cu374 Cu 0.83084 0.64096 1.14625
 N375 N 0.84075 0.62927 1.17457
 N376 N 0.83187 0.62704 1.16302
 C377 C 0.82378 0.61463 1.16546
 C378 C 0.82794 0.60885 1.17919
 C379 C 0.83865 0.61837 1.18473
 H380 H 0.81521 0.61040 1.15805
 H381 H 0.84417 0.61767 1.19552
 N382 N 0.83168 0.65619 1.13032
 N383 N 0.84175 0.66693 1.13010
 C384 C 0.83886 0.67606 1.11842
 C385 C 0.82644 0.67074 1.11102
 C386 C 0.82212 0.65821 1.11880
 H387 H 0.84494 0.68614 1.11584
 H388 H 0.81239 0.65143 1.11658
 H389 H 0.83915 0.65980 1.15673
 H390 H 0.85315 0.64656 1.14855
 N391 N 0.87296 0.16863 0.66070
 N392 N 0.87381 0.15789 0.67072
 C393 C 0.88504 0.16090 0.68033
 C394 C 0.89150 0.17416 0.67604
 C395 C 0.88360 0.17884 0.66360
 H396 H 0.88803 0.15422 0.68998
 H397 H 0.88522 0.18907 0.65740
 Cu398 Cu 0.85962 0.14146 0.67105
 Cu399 Cu 0.85773 0.16885 0.64507
 Cu400 Cu 0.83154 0.14055 0.64580
 N401 N 0.84411 0.12627 0.67174
 N402 N 0.83319 0.12596 0.66186
 C403 C 0.82371 0.11486 0.66540
 C404 C 0.82902 0.10790 0.67811
 C405 C 0.84192 0.11537 0.68192
 H406 H 0.81346 0.11237 0.65949
 H407 H 0.84887 0.11332 0.69164
 N408 N 0.83160 0.15626 0.63038
 N409 N 0.84153 0.16713 0.63014
 C410 C 0.83822 0.17647 0.61875
 C411 C 0.82569 0.17115 0.61156
 C412 C 0.82172 0.15840 0.61915
 H413 H 0.84421 0.18658 0.61611
 H414 H 0.81211 0.15146 0.61691
 H415 H 0.84211 0.15742 0.65758
 H416 H 0.85404 0.14616 0.64458
 N417 N 0.32686 0.37120 0.65541
 N418 N 0.33552 0.37128 0.66734
 C419 C 0.33156 0.38269 0.67631
 C420 C 0.31983 0.39011 0.66962
 C421 C 0.31703 0.38256 0.65641
 H422 H 0.33647 0.38511 0.68714
 H423 H 0.30821 0.38484 0.64844
 Cu424 Cu 0.35040 0.35589 0.67083
 Cu425 Cu 0.32838 0.35574 0.64009
 Cu426 Cu 0.35796 0.33108 0.64353
 N427 N 0.36824 0.34356 0.67132
 N428 N 0.37123 0.33396 0.66057
 C429 C 0.38371 0.32636 0.66414
 C430 C 0.38875 0.33154 0.67779
 C431 C 0.37872 0.34239 0.68212
 H432 H 0.38842 0.31733 0.65763
 H433 H 0.37876 0.34857 0.69255
 N434 N 0.34330 0.32991 0.62712
 N435 N 0.33198 0.33929 0.62583
 C436 C 0.32338 0.33502 0.61419
 C437 C 0.32965 0.32244 0.60793
 C438 C 0.34220 0.31943 0.61634
 H439 H 0.31302 0.34028 0.61086
 H440 H 0.34959 0.30996 0.61508
 H441 H 0.33833 0.33935 0.65282
 H442 H 0.35098 0.35323 0.64367
 N443 N 0.33014 0.87351 0.15702
 N444 N 0.34029 0.87213 0.16763
 C445 C 0.33805 0.88282 0.17805
 C446 C 0.32595 0.89127 0.17360
 C447 C 0.32116 0.88510 0.16029
 H448 H 0.34445 0.88413 0.18826
 H449 H 0.31157 0.88850 0.15373
 Cu450 Cu 0.35498 0.85608 0.16697
 Cu451 Cu 0.32855 0.85958 0.14035
 Cu452 Cu 0.35500 0.83136 0.13860
 N453 N 0.36992 0.84030 0.16569
 N454 N 0.36998 0.83080 0.15444
 C455 C 0.38110 0.82086 0.15648
 C456 C 0.38832 0.82438 0.16967
 C457 C 0.38100 0.83671 0.17528
 H458 H 0.38348 0.81154 0.14915
 H459 H 0.38338 0.84238 0.18573
 N460 N 0.33894 0.83373 0.12366
 N461 N 0.32879 0.84441 0.12437
 C462 C 0.31856 0.84218 0.11349
 C463 C 0.32258 0.82959 0.10561
 C464 C 0.33546 0.82446 0.11230
 H465 H 0.30852 0.84871 0.11190
 H466 H 0.34133 0.81427 0.10960
 H467 H 0.33829 0.84159 0.15100
 H468 H 0.35090 0.85402 0.13998
 N469 N 0.83000 0.37216 0.15613
 N470 N 0.83816 0.37088 0.16835
 C471 C 0.83496 0.38220 0.17772
 C472 C 0.82426 0.39098 0.17097
 C473 C 0.82127 0.38434 0.15734
 H474 H 0.83953 0.38355 0.18888
 H475 H 0.81286 0.38768 0.14929
 Cu476 Cu 0.85114 0.35389 0.17164
 Cu477 Cu 0.83018 0.35705 0.14045
 Cu478 Cu 0.85683 0.32925 0.14363
 N479 N 0.86803 0.34038 0.17170
 N480 N 0.87025 0.33071 0.16081
 C481 C 0.88241 0.32246 0.16406
 C482 C 0.88803 0.32733 0.17762
 C483 C 0.87870 0.33865 0.18221
 H484 H 0.88665 0.31341 0.15726
 H485 H 0.87943 0.34495 0.19255
 N486 N 0.84213 0.32995 0.12713
 N487 N 0.83210 0.34069 0.12583
 C488 C 0.82306 0.33762 0.11415
 C489 C 0.82767 0.32439 0.10784
 C490 C 0.83972 0.31975 0.11629
 H491 H 0.81338 0.34410 0.11093
 H492 H 0.84579 0.30940 0.11506
 H493 H 0.83803 0.33906 0.15286
 H494 H 0.85241 0.35177 0.14453
 N495 N 0.82498 0.87112 0.65694
 N496 N 0.83349 0.87105 0.66898
 C497 C 0.82960 0.88249 0.67793
 C498 C 0.81807 0.89007 0.67110
 C499 C 0.81532 0.88262 0.65784
 H500 H 0.83450 0.88488 0.68877
 H501 H 0.80669 0.88512 0.64971
 Cu502 Cu 0.84825 0.85562 0.67252
 Cu503 Cu 0.82656 0.85574 0.64156
 Cu504 Cu 0.85617 0.83114 0.64501
 N505 N 0.86633 0.84369 0.67284
 N506 N 0.86945 0.83418 0.66204
 C507 C 0.88214 0.82688 0.66550
 C508 C 0.88717 0.83218 0.67911
 C509 C 0.87693 0.84277 0.68355
 H510 H 0.88703 0.81800 0.65891
 H511 H 0.87690 0.84895 0.69398
 N512 N 0.84145 0.82990 0.62860
 N513 N 0.83017 0.83932 0.62727
 C514 C 0.82164 0.83513 0.61555
 C515 C 0.82790 0.82255 0.60927
 C516 C 0.84039 0.81946 0.61777
 H517 H 0.81134 0.84047 0.61215
 H518 H 0.84780 0.81002 0.61649
 H519 H 0.83646 0.83921 0.65423
 H520 H 0.84919 0.85323 0.64538
 N521 N 0.66831 0.62829 0.65954
 N522 N 0.65768 0.62729 0.66970
 C523 C 0.66077 0.61585 0.67898
 C524 C 0.67393 0.60936 0.67430
 C525 C 0.67849 0.61749 0.66199
 H526 H 0.65424 0.61275 0.68871
 H527 H 0.68868 0.61596 0.65563
 Cu528 Cu 0.64132 0.64158 0.67059
 Cu529 Cu 0.66862 0.64407 0.64456
 Cu530 Cu 0.64035 0.67040 0.64630
 N531 N 0.62599 0.65695 0.67174
 N532 N 0.62563 0.66812 0.66218
 C533 C 0.61445 0.67744 0.66599
 C534 C 0.60751 0.67178 0.67856
 C535 C 0.61507 0.65883 0.68201
 H536 H 0.61192 0.68785 0.66042
 H537 H 0.61310 0.65165 0.69156
 N538 N 0.65623 0.67086 0.63100
 N539 N 0.66703 0.66083 0.63037
 C540 C 0.67648 0.66448 0.61918
 C541 C 0.67131 0.67734 0.61252
 C542 C 0.65852 0.68116 0.62022
 H543 H 0.68657 0.65849 0.61631
 H544 H 0.65166 0.69091 0.61834
 H545 H 0.65737 0.65947 0.65772
 H546 H 0.64595 0.64813 0.64439
 N547 N 0.66766 0.12786 0.16210
 N548 N 0.65890 0.13014 0.17375
 C549 C 0.66109 0.11925 0.18390
 C550 C 0.67172 0.10967 0.17824
 C551 C 0.67575 0.11541 0.16446
 H552 H 0.65574 0.11861 0.19478
 H553 H 0.68429 0.11117 0.15699
 Cu554 Cu 0.64619 0.14757 0.17515
 Cu555 Cu 0.66868 0.14189 0.14545
 Cu556 Cu 0.64259 0.17040 0.14529
 N557 N 0.62981 0.16160 0.17351
 N558 N 0.62838 0.17053 0.16188
 C559 C 0.61641 0.17940 0.16402
 C560 C 0.61008 0.17569 0.17764
 C561 C 0.61881 0.16443 0.18342
 H562 H 0.61281 0.18813 0.15645
 H563 H 0.61749 0.15899 0.19418
 N564 N 0.65800 0.16816 0.12961
 N565 N 0.66791 0.15723 0.12965
 C566 C 0.67742 0.15917 0.11808
 C567 C 0.67323 0.17184 0.11045
 C568 C 0.66095 0.17734 0.11800
 H569 H 0.68704 0.15225 0.11574
 H570 H 0.65501 0.18756 0.11556
 H571 H 0.66054 0.16084 0.15613
 H572 H 0.64634 0.14790 0.14790
 N573 N 0.16542 0.62731 0.16368
 N574 N 0.15409 0.62847 0.17302
 C575 C 0.15543 0.61795 0.18377
 C576 C 0.16822 0.60986 0.18086
 C577 C 0.17432 0.61604 0.16811
 H578 H 0.14789 0.61648 0.19314
 H579 H 0.18460 0.61275 0.16264
 Cu580 Cu 0.13897 0.64393 0.17062
 Cu581 Cu 0.16816 0.64076 0.14682
 Cu582 Cu 0.14253 0.66934 0.14283
 N583 N 0.12530 0.66073 0.16857
 N584 N 0.12671 0.67060 0.15774
 C585 C 0.11630 0.68132 0.15948
 C586 C 0.10798 0.67792 0.17203
 C587 C 0.11395 0.66488 0.17760
 H588 H 0.11519 0.69109 0.15246
 H589 H 0.11061 0.65917 0.18776
 N590 N 0.15927 0.66624 0.12883
 N591 N 0.16912 0.65538 0.13040
 C592 C 0.17955 0.65661 0.11954
 C593 C 0.17598 0.66875 0.11078
 C594 C 0.16315 0.67465 0.11692
 H595 H 0.18922 0.64948 0.11831
 H596 H 0.15736 0.68458 0.11322
 H597 H 0.15738 0.65863 0.15697
 H598 H 0.14592 0.64665 0.14422
 N599 N 0.16764 0.12959 0.66213
 N600 N 0.15770 0.13075 0.67296
 C601 C 0.15992 0.11970 0.68297
 C602 C 0.17182 0.11125 0.67809
 C603 C 0.17653 0.11777 0.66489
 H604 H 0.15356 0.11810 0.69317
 H605 H 0.18589 0.11437 0.65801
 Cu606 Cu 0.14317 0.14685 0.67352
 Cu607 Cu 0.16861 0.14380 0.64564
 Cu608 Cu 0.14048 0.17020 0.64396
 N609 N 0.12659 0.16070 0.67134
 N610 N 0.12547 0.16964 0.65968
 C611 C 0.11362 0.17869 0.66158
 C612 C 0.10701 0.17515 0.67507
 C613 C 0.11548 0.16378 0.68106
 H614 H 0.11053 0.18771 0.65414
 H615 H 0.11408 0.15867 0.69197
 N616 N 0.15668 0.16907 0.62911
 N617 N 0.16756 0.15914 0.62985
 C618 C 0.17747 0.16191 0.61880
 C619 C 0.17248 0.17409 0.61081
 C620 C 0.15936 0.17842 0.61758
 H621 H 0.18779 0.15590 0.61701
 H622 H 0.15262 0.18801 0.61469
 H623 H 0.15821 0.16161 0.65613
 H624 H 0.14588 0.14787 0.64635
 N625 N 0.33387 0.62680 0.33478
 N626 N 0.34376 0.62953 0.32420
 C627 C 0.34209 0.61946 0.31308
 C628 C 0.33062 0.60999 0.31703
 C629 C 0.32562 0.61493 0.33079
 H630 H 0.34847 0.61922 0.30276
 H631 H 0.31638 0.61047 0.33719
 Cu632 Cu 0.35751 0.64629 0.32565
 Cu633 Cu 0.33167 0.63940 0.35241
 Cu634 Cu 0.35712 0.66807 0.35660
 N635 N 0.37215 0.66202 0.32879
 N636 N 0.37213 0.67031 0.34098
 C637 C 0.38309 0.68054 0.33994
 C638 C 0.39030 0.67847 0.32642
 C639 C 0.38313 0.66670 0.31959
 H640 H 0.38535 0.68912 0.34815
 H641 H 0.38551 0.66217 0.30859
 N642 N 0.34106 0.66413 0.37117
 N643 N 0.33122 0.65331 0.36950
 C644 C 0.32087 0.65439 0.38045
 C645 C 0.32448 0.66638 0.38939
 C646 C 0.33726 0.67235 0.38324
 H647 H 0.31105 0.64746 0.38144
 H648 H 0.34286 0.68239 0.38684
 H649 H 0.34061 0.65869 0.34330
 H650 H 0.35388 0.64558 0.35276
 N651 N 0.33421 0.12460 0.83790
 N652 N 0.34524 0.12478 0.82815
 C653 C 0.34304 0.11392 0.81793
 C654 C 0.32998 0.10663 0.82159
 C655 C 0.32463 0.11364 0.83426
 H656 H 0.35010 0.11178 0.80831
 H657 H 0.31430 0.11125 0.84008
 Cu658 Cu 0.36099 0.13971 0.82898
 Cu659 Cu 0.33257 0.13915 0.85396
 Cu660 Cu 0.35869 0.16747 0.85448
 N661 N 0.37472 0.15651 0.82885
 N662 N 0.37376 0.16736 0.83874
 C663 C 0.38415 0.17775 0.83559
 C664 C 0.39199 0.17309 0.82311
 C665 C 0.38577 0.15964 0.81906
 H666 H 0.38565 0.18807 0.84166
 H667 H 0.38879 0.15288 0.80947
 N668 N 0.34266 0.16571 0.86955
 N669 N 0.33273 0.15486 0.86937
 C670 C 0.32282 0.15706 0.88055
 C671 C 0.32678 0.16985 0.88807
 C672 C 0.33934 0.17512 0.88088
 H673 H 0.31315 0.15020 0.88276
 H674 H 0.34527 0.18530 0.88341
 H675 H 0.34317 0.15573 0.84191
 H676 H 0.35493 0.14471 0.85528
 N677 N 0.83128 0.62929 0.83954
 N678 N 0.84024 0.63036 0.82788
 C679 C 0.83727 0.61925 0.81820
 C680 C 0.82587 0.61082 0.82413
 C681 C 0.82223 0.61745 0.83764
 H682 H 0.84272 0.61764 0.80747
 H683 H 0.81343 0.61416 0.84527
 Cu684 Cu 0.85434 0.64659 0.82575
 Cu685 Cu 0.83161 0.64385 0.85579
 Cu686 Cu 0.86013 0.66986 0.85482
 N687 N 0.87183 0.65924 0.82674
 N688 N 0.87411 0.66835 0.83808
 C689 C 0.88642 0.67652 0.83530
 C690 C 0.89207 0.67217 0.82156
 C691 C 0.88259 0.66126 0.81638
 H692 H 0.89054 0.68540 0.84237
 H693 H 0.88312 0.65569 0.80562
 N694 N 0.84480 0.66950 0.87073
 N695 N 0.83394 0.65955 0.87109
 C696 C 0.82468 0.66280 0.88256
 C697 C 0.83001 0.67532 0.88970
 C698 C 0.84271 0.67936 0.88197
 H699 H 0.81446 0.65692 0.88514
 H700 H 0.84951 0.68910 0.88398
 H701 H 0.84117 0.66157 0.84442
 H702 H 0.85422 0.64763 0.85298
 N703 N 0.83255 0.13040 0.33880
 N704 N 0.84060 0.13196 0.32654
 C705 C 0.83724 0.12096 0.31687
 C706 C 0.82655 0.11210 0.32346
 C707 C 0.82372 0.11835 0.33733
 H708 H 0.84196 0.11969 0.30575
 H709 H 0.81562 0.11464 0.34553
 Cu710 Cu 0.85426 0.14843 0.32391
 Cu711 Cu 0.83359 0.14464 0.35525
 Cu712 Cu 0.86185 0.17081 0.35330
 N713 N 0.87202 0.16066 0.32446
 N714 N 0.87501 0.16942 0.33591
 C715 C 0.88767 0.17697 0.33302
 C716 C 0.89282 0.17257 0.31911
 C717 C 0.88266 0.16229 0.31391
 H718 H 0.89254 0.18532 0.34028
 H719 H 0.88279 0.15672 0.30314
 N720 N 0.84727 0.17017 0.36990
 N721 N 0.83655 0.16009 0.37066
 C722 C 0.82782 0.16308 0.38261
 C723 C 0.83336 0.17555 0.38965
 C724 C 0.84563 0.17985 0.38136
 H725 H 0.81776 0.15710 0.38554
 H726 H 0.85241 0.18965 0.38314
 H727 H 0.84241 0.16275 0.34385
 H728 H 0.85607 0.14863 0.35109
 N729 N 0.67193 0.37012 0.34573
 N730 N 0.66169 0.37183 0.33527
 C731 C 0.66553 0.38335 0.32639
 C732 C 0.67879 0.38910 0.33160
 C733 C 0.68264 0.38049 0.34384
 H734 H 0.65938 0.38707 0.31663
 H735 H 0.69267 0.38144 0.35055
 Cu736 Cu 0.64478 0.35837 0.33360
 Cu737 Cu 0.67094 0.35409 0.36044
 Cu738 Cu 0.64125 0.32954 0.35757
 N739 N 0.62857 0.34410 0.33181
 N740 N 0.62716 0.33294 0.34128
 C741 C 0.61552 0.32443 0.33706
 C742 C 0.60936 0.33065 0.32435
 C743 C 0.61786 0.34305 0.32123
 H744 H 0.61213 0.31418 0.34245
 H745 H 0.61659 0.35045 0.31172
 N746 N 0.65664 0.32793 0.37330
 N747 N 0.66801 0.33725 0.37433
 C748 C 0.67707 0.33270 0.38552
 C749 C 0.67109 0.31999 0.39174
 C750 C 0.65820 0.31721 0.38379
 H751 H 0.68753 0.33790 0.38857
 H752 H 0.65084 0.30776 0.38520
 H753 H 0.65917 0.33948 0.34696
 H754 H 0.64800 0.35145 0.35994
 N755 N 0.67357 0.86865 0.84500
 N756 N 0.66498 0.86860 0.83301
 C757 C 0.66893 0.87992 0.82394
 C758 C 0.68060 0.88740 0.83062
 C759 C 0.68336 0.88000 0.84393
 H760 H 0.66387 0.88239 0.81319
 H761 H 0.69196 0.88253 0.85206
 Cu762 Cu 0.64977 0.85355 0.82990
 Cu763 Cu 0.67165 0.85359 0.86069
 Cu764 Cu 0.64113 0.83011 0.85806
 N765 N 0.63126 0.84237 0.82997
 N766 N 0.62783 0.83329 0.84104
 C767 C 0.61496 0.82627 0.83772
 C768 C 0.61014 0.83132 0.82391
 C769 C 0.62070 0.84147 0.81924
 H770 H 0.60987 0.81764 0.84447
 H771 H 0.62100 0.84726 0.80859
 N772 N 0.65594 0.82866 0.87437
 N773 N 0.66762 0.83759 0.87534
 C774 C 0.67625 0.83314 0.88690
 C775 C 0.66964 0.82090 0.89346
 C776 C 0.65684 0.81828 0.88528
 H777 H 0.68688 0.83799 0.88993
 H778 H 0.64916 0.80911 0.88677
 H779 H 0.66107 0.83709 0.84851
 H780 H 0.64894 0.85184 0.85708
 N781 N 0.17032 0.37365 0.84216
 N782 N 0.15983 0.37261 0.83186
 C783 C 0.16192 0.38340 0.82151
 C784 C 0.17428 0.39155 0.82571
 C785 C 0.17938 0.38511 0.83877
 H786 H 0.15522 0.38500 0.81153
 H787 H 0.18924 0.38822 0.84504
 Cu788 Cu 0.14511 0.35670 0.83277
 Cu789 Cu 0.17213 0.35948 0.85864
 Cu790 Cu 0.14607 0.33086 0.85996
 N791 N 0.13046 0.34072 0.83350
 N792 N 0.13093 0.33061 0.84419
 C793 C 0.11992 0.32064 0.84195
 C794 C 0.11219 0.32479 0.82923
 C795 C 0.11912 0.33751 0.82407
 H796 H 0.11786 0.31095 0.84887
 H797 H 0.11622 0.34379 0.81412
 N798 N 0.16227 0.33309 0.87486
 N799 N 0.17212 0.34403 0.87438
 C800 C 0.18219 0.34204 0.88545
 C801 C 0.17842 0.32934 0.89323
 C802 C 0.16583 0.32386 0.88627
 H803 H 0.19191 0.34892 0.88737
 H804 H 0.16010 0.31360 0.88896
 H805 H 0.16224 0.34183 0.84785
 H806 H 0.14975 0.35365 0.85962
 N807 N 0.17034 0.87224 0.34222
 N808 N 0.16004 0.87128 0.33173
 C809 C 0.16256 0.88187 0.32127
 C810 C 0.17502 0.88981 0.32560
 C811 C 0.17973 0.88344 0.33885
 H812 H 0.15613 0.88343 0.31112
 H813 H 0.18952 0.88643 0.34528
 Cu814 Cu 0.14494 0.85568 0.33252
 Cu815 Cu 0.17153 0.85826 0.35891
 Cu816 Cu 0.14458 0.83056 0.36047
 N817 N 0.12980 0.84015 0.33344
 N818 N 0.12968 0.83038 0.34446
 C819 C 0.11856 0.82054 0.34214
 C820 C 0.11138 0.82444 0.32902
 C821 C 0.11874 0.83685 0.32372
 H822 H 0.11616 0.81104 0.34921
 H823 H 0.11645 0.84275 0.31339
 N824 N 0.16059 0.83262 0.37555
 N825 N 0.17088 0.84314 0.37492
 C826 C 0.18084 0.84092 0.38604
 C827 C 0.17653 0.82851 0.39401
 C828 C 0.16374 0.82345 0.38711
 H829 H 0.19086 0.84740 0.38781
 H830 H 0.15763 0.81344 0.38989
 H831 H 0.16135 0.84054 0.34813
 H832 H 0.14903 0.85309 0.35940
 C833 C 0.24835 1.04096 0.24905
 C834 C 0.26020 1.03336 0.24235
 C835 C 0.26080 1.01778 0.24291
 C836 C 0.24908 1.00948 0.24952
 C837 C 0.23700 1.01745 0.25594
 C838 C 0.23686 1.03306 0.25600
 C839 C 0.24945 0.99271 0.24967
 C840 C 0.24097 0.98446 0.26021
 C841 C 0.24109 0.96885 0.26004
 C842 C 0.25021 0.96124 0.24991
 C843 C 0.25894 0.96910 0.23965
 C844 C 0.25829 0.98468 0.23924
 H845 H 0.24807 1.05305 0.24887
 H846 H 0.27051 1.01235 0.23819
 H847 H 0.22759 1.01173 0.26088
 H848 H 0.23430 0.98996 0.26869
 H849 H 0.25049 0.94915 0.24999
 H850 H 0.26464 0.99034 0.23064
 C851 C 0.25036 0.54128 0.75016
 C852 C 0.26132 0.53331 0.74240
 C853 C 0.26070 0.51774 0.74181
 C854 C 0.24865 0.50991 0.74837
 C855 C 0.23745 0.51826 0.75582
 C856 C 0.23852 0.53379 0.75698
 C857 C 0.24776 0.49322 0.74746
 C858 C 0.23964 0.48500 0.75827
 C859 C 0.23860 0.46947 0.75727
 C860 C 0.24615 0.46186 0.74592
 C861 C 0.25452 0.46967 0.73532
 C862 C 0.25508 0.48527 0.73584
 H863 H 0.25101 0.55333 0.75081
 H864 H 0.26971 0.51189 0.73624
 H865 H 0.22779 0.51288 0.76066
 H866 H 0.23421 0.49047 0.76762
 H867 H 0.24560 0.44979 0.74539
 H868 H 0.26121 0.49101 0.72713
 C869 C 0.75062 -0.03939 0.25100
 C870 C 0.75806 -0.03169 0.26237
 C871 C 0.75739 -0.01612 0.26295
 C872 C 0.74988 -0.00794 0.25167
 C873 C 0.74274 -0.01596 0.24004
 C874 C 0.74280 -0.03156 0.23996
 C875 C 0.74949 0.00877 0.25205
 C876 C 0.73800 0.01679 0.24472
 C877 C 0.73792 0.03238 0.24472
 C878 C 0.74879 0.04022 0.25265
 C879 C 0.76000 0.03253 0.26031
 C880 C 0.76061 0.01696 0.25973
 H881 H 0.75089 -0.05147 0.25076
 H882 H 0.76269 -0.01057 0.27231
 H883 H 0.73713 -0.01026 0.23094
 H884 H 0.72903 0.01110 0.23899
 H885 H 0.74857 0.05230 0.25282
 H886 H 0.76986 0.01143 0.26520
 C887 C 0.74822 0.45976 0.75371
 C888 C 0.75644 0.46788 0.76416
 C889 C 0.75696 0.48345 0.76324
 C890 C 0.74984 0.49114 0.75132
 C891 C 0.74189 0.48257 0.74063
 C892 C 0.74080 0.46707 0.74207
 C893 C 0.75067 0.50788 0.75009
 C894 C 0.74020 0.51601 0.74139
 C895 C 0.74110 0.53155 0.74022
 C896 C 0.75195 0.53932 0.74826
 C897 C 0.76216 0.53162 0.75720
 C898 C 0.76184 0.51604 0.75778
 H899 H 0.74764 0.44772 0.75460
 H900 H 0.76291 0.48932 0.77197
 H901 H 0.73656 0.48770 0.73104
 H902 H 0.73115 0.51051 0.73562
 H903 H 0.75234 0.55139 0.74769
 H904 H 0.77038 0.51052 0.76430
 C905 C 0.25130 0.45953 0.24718
 C906 C 0.25982 0.46727 0.25772
 C907 C 0.25927 0.48286 0.25821
 C908 C 0.25067 0.49098 0.24765
 C909 C 0.24242 0.48288 0.23684
 C910 C 0.24251 0.46727 0.23685
 C911 C 0.25039 0.50772 0.24787
 C912 C 0.23808 0.51572 0.24196
 C913 C 0.23804 0.53133 0.24183
 C914 C 0.24992 0.53918 0.24815
 C915 C 0.26202 0.53153 0.25437
 C916 C 0.26243 0.51593 0.25396
 H917 H 0.25155 0.44744 0.24699
 H918 H 0.26551 0.48849 0.26691
 H919 H 0.23600 0.48856 0.22828
 H920 H 0.22844 0.50997 0.23749
 H921 H 0.24975 0.55127 0.24824
 H922 H 0.27222 0.51036 0.25835
 C923 C 0.74847 1.03994 0.75143
 C924 C 0.75971 1.03214 0.74391
 C925 C 0.75990 1.01654 0.74422
 C926 C 0.74846 1.00850 0.75158
 C927 C 0.73705 1.01662 0.75889
 C928 C 0.73726 1.03222 0.75905
 C929 C 0.74840 0.99180 0.75156
 C930 C 0.74157 0.98370 0.76333
 C931 C 0.74130 0.96809 0.76307
 C932 C 0.74831 0.96037 0.75141
 C933 C 0.75534 0.96816 0.73984
 C934 C 0.75516 0.98375 0.73973
 H935 H 0.74845 1.05203 0.75138
 H936 H 0.76906 1.01081 0.73877
 H937 H 0.72790 1.01096 0.76441
 H938 H 0.73653 0.98938 0.77278
 H939 H 0.74831 0.94829 0.75135
 H940 H 0.76023 0.98946 0.73032
 C941 C 0.75025 0.53803 0.25112
 C942 C 0.76159 0.53024 0.24373
 C943 C 0.76182 0.51465 0.24405
 C944 C 0.75028 0.50659 0.25121
 C945 C 0.73875 0.51470 0.25836
 C946 C 0.73895 0.53029 0.25857
 C947 C 0.75030 0.48988 0.25120
 C948 C 0.74304 0.48175 0.26267
 C949 C 0.74296 0.46614 0.26248
 C950 C 0.75059 0.45843 0.25123
 C951 C 0.75805 0.46625 0.23995
 C952 C 0.75765 0.48183 0.23972
 H953 H 0.75022 0.55011 0.25106
 H954 H 0.77110 0.50898 0.23875
 H955 H 0.72951 0.50905 0.26372
 H956 H 0.73751 0.48739 0.27187
 H957 H 0.75074 0.44635 0.25126
 H958 H 0.76305 0.48752 0.23050
 C959 C 0.24833 -0.04122 0.74978
 C960 C 0.25610 -0.03349 0.76089
 C961 C 0.25575 -0.01788 0.76118
 C962 C 0.24821 -0.00975 0.74985
 C963 C 0.24072 -0.01786 0.73849
 C964 C 0.24051 -0.03346 0.73871
 C965 C 0.24824 0.00701 0.74982
 C966 C 0.23684 0.01519 0.74248
 C967 C 0.23719 0.03079 0.74210
 C968 C 0.24847 0.03848 0.74962
 C969 C 0.25965 0.03068 0.75722
 C970 C 0.25975 0.01507 0.75705
 H971 H 0.24840 -0.05331 0.74974
 H972 H 0.26134 -0.01227 0.77033
 H973 H 0.23512 -0.01222 0.72935
 H974 H 0.22760 0.00960 0.73707
 H975 H 0.24858 0.05057 0.74951
 H976 H 0.26893 0.00940 0.76249
 C977 C 0.25007 0.24439 1.03839
 C978 C 0.23938 0.25258 1.03051
 C979 C 0.23961 0.25283 1.01480
 C980 C 0.25108 0.24552 1.00672
 C981 C 0.26197 0.23753 1.01494
 C982 C 0.26126 0.23673 1.03063
 C983 C 0.25180 0.24647 0.98992
 C984 C 0.25901 0.23531 0.98137
 C985 C 0.26002 0.23651 0.96571
 C986 C 0.25324 0.24846 0.95830
 C987 C 0.24573 0.25940 0.96651
 C988 C 0.24533 0.25864 0.98220
 H989 H 0.24977 0.24409 1.05057
 H990 H 0.23082 0.25881 1.00904
 H991 H 0.27118 0.23205 1.00931
 H992 H 0.26384 0.22561 0.98671
 H993 H 0.25379 0.24923 0.94615
 H994 H 0.23998 0.26765 0.98823
 C995 C 0.25070 0.74464 0.53885
 C996 C 0.23990 0.75276 0.53104
 C997 C 0.23977 0.75265 0.51533
 C998 C 0.25097 0.74504 0.50713
 C999 C 0.26201 0.73716 0.51528
 C1000 C 0.26162 0.73669 0.53101
 C1001 C 0.25114 0.74539 0.49026
 C1002 C 0.25812 0.73396 0.48186
 C1003 C 0.25836 0.73445 0.46613
 C1004 C 0.25107 0.74598 0.45853
 C1005 C 0.24388 0.75724 0.46661
 C1006 C 0.24423 0.75717 0.48232
 H1007 H 0.25064 0.74453 0.55103
 H1008 H 0.23084 0.75852 0.50966
 H1009 H 0.27102 0.73145 0.50959
 H1010 H 0.26334 0.72456 0.48738
 H1011 H 0.25098 0.74618 0.44635
 H1012 H 0.23908 0.76639 0.48818
 C1013 C 0.25084 0.74590 -0.03956
 C1014 C 0.26161 0.75382 -0.03154
 C1015 C 0.26183 0.75319 -0.01583
 C1016 C 0.25075 0.74523 -0.00785
 C1017 C 0.23977 0.73755 -0.01620
 C1018 C 0.24006 0.73762 -0.03193
 C1019 C 0.25055 0.74512 0.00901
 C1020 C 0.24361 0.73344 0.01707
 C1021 C 0.24301 0.73370 0.03279
 C1022 C 0.24994 0.74519 0.04072
 C1023 C 0.25716 0.75662 0.03299
 C1024 C 0.25717 0.75680 0.01728
 H1025 H 0.25082 0.74623 -0.05174
 H1026 H 0.27070 0.75896 -0.01001
 H1027 H 0.23084 0.73160 -0.01066
 H1028 H 0.23863 0.72408 0.01130
 H1029 H 0.24967 0.74526 0.05290
 H1030 H 0.26232 0.76618 0.01169
 C1031 C 0.24881 0.24745 0.46071
 C1032 C 0.25631 0.25871 0.46843
 C1033 C 0.25694 0.25848 0.48413
 C1034 C 0.25057 0.24662 0.49233
 C1035 C 0.24329 0.23516 0.48429
 C1036 C 0.24217 0.23578 0.46862
 C1037 C 0.25139 0.24630 0.50913
 C1038 C 0.24035 0.23894 0.51767
 C1039 C 0.24116 0.23862 0.53336
 C1040 C 0.25263 0.24612 0.54079
 C1041 C 0.26353 0.25367 0.53257
 C1042 C 0.26314 0.25350 0.51685
 H1043 H 0.24812 0.24779 0.44855
 H1044 H 0.26231 0.26768 0.48981
 H1045 H 0.23850 0.22569 0.49006
 H1046 H 0.23098 0.23354 0.51228
 H1047 H 0.25304 0.24612 0.55297
 H1048 H 0.27204 0.25899 0.51079
 C1049 C 0.75052 0.74621 1.04041
 C1050 C 0.74193 0.75665 1.03261
 C1051 C 0.74150 0.75636 1.01689
 C1052 C 0.74907 0.74513 1.00873
 C1053 C 0.75739 0.73444 1.01691
 C1054 C 0.75838 0.73522 1.03260
 C1055 C 0.74834 0.74463 0.99186
 C1056 C 0.75975 0.73767 0.98337
 C1057 C 0.75898 0.73715 0.96766
 C1058 C 0.74719 0.74411 0.96014
 C1059 C 0.73598 0.75134 0.96827
 C1060 C 0.73632 0.75128 0.98400
 H1061 H 0.75107 0.74663 1.05258
 H1062 H 0.73530 0.76503 1.01120
 H1063 H 0.76307 0.72539 1.01126
 H1064 H 0.76938 0.73277 0.98878
 H1065 H 0.74681 0.74401 0.94796
 H1066 H 0.72715 0.75649 0.98992
 C1067 C 0.75229 0.24741 0.53896
 C1068 C 0.74423 0.25803 0.53084
 C1069 C 0.74386 0.25736 0.51513
 C1070 C 0.75109 0.24568 0.50733
 C1071 C 0.75893 0.23487 0.51580
 C1072 C 0.75976 0.23593 0.53148
 C1073 C 0.75055 0.24489 0.49050
 C1074 C 0.76213 0.23789 0.48231
 C1075 C 0.76165 0.23721 0.46661
 C1076 C 0.74995 0.24399 0.45880
 C1077 C 0.73853 0.25122 0.46664
 C1078 C 0.73862 0.25136 0.48238
 H1079 H 0.75271 0.24805 0.55113
 H1080 H 0.73798 0.26606 0.50915
 H1081 H 0.76435 0.22553 0.51036
 H1082 H 0.77169 0.23311 0.48800
 H1083 H 0.74980 0.24377 0.44662
 H1084 H 0.72935 0.25660 0.48814
 C1085 C 0.75302 0.24435 -0.04005
 C1086 C 0.76410 0.25190 -0.03211
 C1087 C 0.76411 0.25168 -0.01637
 C1088 C 0.75250 0.24457 -0.00828
 C1089 C 0.74118 0.23733 -0.01664
 C1090 C 0.74170 0.23691 -0.03236
 C1091 C 0.75214 0.24479 0.00865
 C1092 C 0.74361 0.23427 0.01683
 C1093 C 0.74292 0.23481 0.03254
 C1094 C 0.75132 0.24530 0.04041
 C1095 C 0.76015 0.25552 0.03265
 C1096 C 0.76027 0.25554 0.01691
 H1097 H 0.75318 0.24432 -0.05224
 H1098 H 0.77326 0.25709 -0.01067
 H1099 H 0.73181 0.23206 -0.01117
 H1100 H 0.73748 0.22553 0.01123
 H1101 H 0.75098 0.24551 0.05259
 H1102 H 0.76668 0.26410 0.01134
 C1103 C 0.74957 0.74505 0.46037
 C1104 C 0.75776 0.75608 0.46771
 C1105 C 0.75795 0.75667 0.48342
 C1106 C 0.75048 0.74578 0.49208
 C1107 C 0.74255 0.73447 0.48439
 C1108 C 0.74182 0.73437 0.46866
 C1109 C 0.75075 0.74638 0.50895
 C1110 C 0.73926 0.73973 0.51754
 C1111 C 0.73958 0.74021 0.53325
 C1112 C 0.75096 0.74788 0.54064
 C1113 C 0.76228 0.75477 0.53241
 C1114 C 0.76240 0.75375 0.51671
 H1115 H 0.74914 0.74485 0.44819
 H1116 H 0.76381 0.76579 0.48871
 H1117 H 0.73691 0.72568 0.49044
 H1118 H 0.72994 0.73424 0.51219
 H1119 H 0.75102 0.74847 0.55281
 H1120 H 0.77166 0.75870 0.51071
 C1121 C 1.04117 0.25730 0.25324
 C1122 C 1.03341 0.24897 0.26393
 C1123 C 1.01780 0.24846 0.26360
 C1124 C 1.00973 0.25568 0.25206
 C1125 C 1.01780 0.26383 0.24119
 C1126 C 1.03338 0.26484 0.24198
 C1127 C 0.99309 0.25441 0.25116
 C1128 C 0.98441 0.26565 0.24427
 C1129 C 0.96888 0.26415 0.24308
 C1130 C 0.96176 0.25179 0.24931
 C1131 C 0.97012 0.24074 0.25645
 C1132 C 0.98569 0.24183 0.25708
 H1133 H 1.05327 0.25775 0.25356
 H1134 H 1.01208 0.24233 0.27234
 H1135 H 1.01213 0.26921 0.23192
 H1136 H 0.98957 0.27562 0.23984
 H1137 H 0.94970 0.25079 0.24864
 H1138 H 0.99188 0.23278 0.26217
 C1139 C 0.53976 0.25373 0.74903
 C1140 C 0.53205 0.24582 0.76005
 C1141 C 0.51646 0.24656 0.76077
 C1142 C 0.50822 0.25465 0.74994
 C1143 C 0.51628 0.26244 0.73870
 C1144 C 0.53196 0.26219 0.73848
 C1145 C 0.49142 0.25481 0.75035
 C1146 C 0.48319 0.26643 0.74348
 C1147 C 0.46754 0.26631 0.74358
 C1148 C 0.45986 0.25507 0.75115
 C1149 C 0.46773 0.24371 0.75835
 C1150 C 0.48335 0.24332 0.75762
 H1151 H 0.55187 0.25324 0.74864
 H1152 H 0.51095 0.24076 0.76985
 H1153 H 0.51058 0.26858 0.72997
 H1154 H 0.48876 0.27565 0.73806
 H1155 H 0.44774 0.25514 0.75140
 H1156 H 0.48901 0.23393 0.76268
 C1157 C -0.04005 0.25480 0.74852
 C1158 C -0.03249 0.26595 0.75633
 C1159 C -0.01685 0.26602 0.75676
 C1160 C -0.00852 0.25447 0.74994
 C1161 C -0.01646 0.24306 0.74239
 C1162 C -0.03208 0.24347 0.74136
 C1163 C 0.00827 0.25434 0.75062
 C1164 C 0.01669 0.24648 0.73977
 C1165 C 0.03228 0.24591 0.74061
 C1166 C 0.03981 0.25377 0.75176
 C1167 C 0.03182 0.26198 0.76238
 C1168 C 0.01614 0.26202 0.76206
 H1169 H -0.05216 0.25491 0.74802
 H1170 H -0.01137 0.27518 0.76237
 H1171 H -0.01071 0.23373 0.73732
 H1172 H 0.01133 0.24077 0.73056
 H1173 H 0.05192 0.25347 0.75220
 H1174 H 0.01028 0.26796 0.77084
 C1175 C 0.46008 0.25165 0.25228
 C1176 C 0.46786 0.25991 0.26302
 C1177 C 0.48350 0.26063 0.26248
 C1178 C 0.49152 0.25359 0.25075
 C1179 C 0.48334 0.24573 0.23975
 C1180 C 0.46781 0.24445 0.24077
 C1181 C 0.50825 0.25424 0.25005
 C1182 C 0.51648 0.24294 0.24268
 C1183 C 0.53206 0.24365 0.24178
 C1184 C 0.53974 0.25522 0.24880
 C1185 C 0.53188 0.26630 0.25646
 C1186 C 0.51623 0.26605 0.25679
 H1187 H 0.44801 0.25080 0.25291
 H1188 H 0.48924 0.26657 0.27132
 H1189 H 0.48890 0.24054 0.23031
 H1190 H 0.51096 0.23343 0.23772
 H1191 H 0.55186 0.25552 0.24842
 H1192 H 0.51044 0.27509 0.26235
 C1193 C 1.03841 0.75575 0.75070
 C1194 C 1.03068 0.74745 0.76143
 C1195 C 1.01504 0.74754 0.76160
 C1196 C 1.00689 0.75540 0.75053
 C1197 C 1.01496 0.76346 0.73957
 C1198 C 1.03059 0.76386 0.73989
 C1199 C 0.99015 0.75506 0.75033
 C1200 C 0.98185 0.76682 0.74385
 C1201 C 0.96623 0.76629 0.74338
 C1202 C 0.95863 0.75436 0.74991
 C1203 C 0.96662 0.74279 0.75666
 C1204 C 0.98225 0.74295 0.75659
 H1205 H 1.05053 0.75578 0.75070
 H1206 H 1.00940 0.74143 0.77040
 H1207 H 1.00925 0.76933 0.73063
 H1208 H 0.98737 0.77649 0.73920
 H1209 H 0.94652 0.75409 0.74976
 H1210 H 0.98808 0.73353 0.76142
 C1211 C 0.53957 0.75311 0.24926
 C1212 C 0.53170 0.74237 0.25734
 C1213 C 0.51606 0.74231 0.25709
 C1214 C 0.50800 0.75348 0.24930
 C1215 C 0.51626 0.76447 0.24147
 C1216 C 0.53192 0.76405 0.24119
 C1217 C 0.49117 0.75364 0.24936
 C1218 C 0.48301 0.76086 0.23783
 C1219 C 0.46735 0.76112 0.23804
 C1220 C 0.45959 0.75365 0.24935
 C1221 C 0.46736 0.74621 0.26068
 C1222 C 0.48301 0.74648 0.26091
 H1223 H 0.55169 0.75296 0.24925
 H1224 H 0.51037 0.73342 0.26294
 H1225 H 0.51070 0.77347 0.23564
 H1226 H 0.48864 0.76623 0.22855
 H1227 H 0.44747 0.75360 0.24932
 H1228 H 0.48862 0.74109 0.27019
 C1229 C -0.04037 0.75412 0.24971
 C1230 C -0.03273 0.76527 0.25746
 C1231 C -0.01709 0.76586 0.25691
 C1232 C -0.00881 0.75480 0.24918
 C1233 C -0.01683 0.74341 0.24174
 C1234 C -0.03247 0.74332 0.24171
 C1235 C 0.00801 0.75506 0.24896
 C1236 C 0.01612 0.74765 0.23752
 C1237 C 0.03176 0.74734 0.23770
 C1238 C 0.03957 0.75503 0.24881
 C1239 C 0.03185 0.76274 0.25999
 C1240 C 0.01620 0.76251 0.26029
 H1241 H -0.05248 0.75384 0.24993
 H1242 H -0.01157 0.77501 0.26251
 H1243 H -0.01111 0.73444 0.23601
 H1244 H 0.01048 0.74207 0.22839
 H1245 H 0.05170 0.75493 0.24880
 H1246 H 0.01061 0.76803 0.26951
 C1247 C 0.46078 0.75569 0.74751
 C1248 C 0.46820 0.76403 0.75842
 C1249 C 0.48384 0.76379 0.75915
 C1250 C 0.49230 0.75567 0.74848
 C1251 C 0.48452 0.74774 0.73724
 C1252 C 0.46891 0.74743 0.73706
 C1253 C 0.50904 0.75525 0.74916
 C1254 C 0.51712 0.74319 0.74292
 C1255 C 0.53275 0.74297 0.74322
 C1256 C 0.54055 0.75437 0.75041
 C1257 C 0.53279 0.76621 0.75697
 C1258 C 0.51718 0.76686 0.75605
 H1259 H 0.44866 0.75553 0.74722
 H1260 H 0.48923 0.76979 0.76817
 H1261 H 0.49044 0.74169 0.72857
 H1262 H 0.51144 0.73384 0.73784
 H1263 H 0.55266 0.75403 0.75089
 H1264 H 0.51156 0.77648 0.76069
 C1265 C 0.39997 0.31449 0.32355
 C1266 C 0.40972 0.30749 0.31739
 C1267 C 0.42114 0.29913 0.30970
 C1268 C 0.43211 0.30660 0.30139
 C1269 C 0.44263 0.29852 0.29309
 C1270 C 0.44222 0.28292 0.29303
 C1271 C 0.43143 0.27543 0.30157
 C1272 C 0.42091 0.28351 0.30989
 C1273 C 0.45197 0.27469 0.28318
 C1274 C 0.45956 0.26790 0.27431
 H1275 H 0.43235 0.31867 0.30109
 H1276 H 0.45082 0.30443 0.28640
 H1277 H 0.43092 0.26337 0.30151
 H1278 H 0.41243 0.27762 0.31620
 C1279 C 0.39956 0.81941 0.81779
 C1280 C 0.40925 0.81302 0.81092
 C1281 C 0.42060 0.80515 0.80264
 C1282 C 0.42641 0.79175 0.80825
 C1283 C 0.43693 0.78372 0.79990
 C1284 C 0.44169 0.78906 0.78591
 C1285 C 0.43601 0.80255 0.78039
 C1286 C 0.42549 0.81058 0.78873
 C1287 C 0.45167 0.78031 0.77679
 C1288 C 0.45953 0.77290 0.76870
 H1289 H 0.42264 0.78742 0.81896
 H1290 H 0.44117 0.77325 0.80424
 H1291 H 0.43953 0.80672 0.76953
 H1292 H 0.42102 0.82089 0.78425
 C1293 C -0.10001 0.32414 0.81332
 C1294 C -0.09015 0.31860 0.80598
 C1295 C -0.07871 0.31145 0.79723
 C1296 C -0.06776 0.30283 0.80438
 C1297 C -0.05746 0.29473 0.79585
 C1298 C -0.05805 0.29522 0.78014
 C1299 C -0.06876 0.30414 0.77298
 C1300 C -0.07908 0.31224 0.78151
 C1301 C -0.04852 0.28561 0.77146
 C1302 C -0.04097 0.27696 0.76442
 H1303 H -0.06745 0.30206 0.81652
 H1304 H -0.04930 0.28778 0.80150
 H1305 H -0.06939 0.30450 0.76083
 H1306 H -0.08755 0.31881 0.77587
 C1307 C -0.10115 0.82085 0.31659
 C1308 C -0.09122 0.81511 0.30947
 C1309 C -0.07968 0.80805 0.30069
 C1310 C -0.06974 0.79801 0.30745
 C1311 C -0.05923 0.79038 0.29870
 C1312 C -0.05859 0.79276 0.28316
 C1313 C -0.06831 0.80304 0.27644
 C1314 C -0.07882 0.81068 0.28519
 C1315 C -0.04882 0.78380 0.27399
 C1316 C -0.04116 0.77570 0.26639
 H1317 H -0.07033 0.79585 0.31941
 H1318 H -0.05185 0.78236 0.30400
 H1319 H -0.06801 0.80489 0.26442
 H1320 H -0.08648 0.81838 0.27983
 C1321 C 0.59877 0.68383 0.31512
 C1322 C 0.58889 0.69008 0.30838
 C1323 C 0.57747 0.69769 0.29993
 C1324 C 0.56875 0.70877 0.30675
 C1325 C 0.55845 0.71690 0.29822
 C1326 C 0.55680 0.71399 0.28284
 C1327 C 0.56529 0.70270 0.27609
 C1328 C 0.57559 0.69456 0.28462
 C1329 C 0.54732 0.72337 0.27380
 C1330 C 0.53989 0.73173 0.26625
 H1331 H 0.57015 0.71133 0.31855
 H1332 H 0.55203 0.72569 0.30353
 H1333 H 0.56420 0.70043 0.26419
 H1334 H 0.58231 0.68606 0.27921
 C1335 C 0.59592 0.18386 0.81796
 C1336 C 0.58672 0.19111 0.81132
 C1337 C 0.57629 0.19999 0.80291
 C1338 C 0.56427 0.20705 0.81009
 C1339 C 0.55465 0.21628 0.80187
 C1340 C 0.55707 0.21845 0.78648
 C1341 C 0.56897 0.21123 0.77929
 C1342 C 0.57855 0.20202 0.78749
 C1343 C 0.54766 0.22825 0.77793
 C1344 C 0.54027 0.23637 0.77013
 H1345 H 0.56243 0.20555 0.82202
 H1346 H 0.54546 0.22181 0.80751
 H1347 H 0.57092 0.21283 0.76739
 H1348 H 0.58781 0.19663 0.78183
 C1349 C 1.09581 0.68542 0.81792
 C1350 C 1.08647 0.69273 0.81151
 C1351 C 1.07582 0.70170 0.80346
 C1352 C 1.07725 0.70330 0.78788
 C1353 C 1.06745 0.71256 0.78001
 C1354 C 1.05615 0.72027 0.78764
 C1355 C 1.05457 0.71855 0.80321
 C1356 C 1.06440 0.70927 0.81112
 C1357 C 1.04650 0.73007 0.77933
 C1358 C 1.03897 0.73813 0.77159
 H1359 H 1.08604 0.69753 0.78185
 H1360 H 1.06876 0.71381 0.76797
 H1361 H 1.04586 0.72446 0.80922
 H1362 H 1.06321 0.70811 0.82317
 C1363 C 1.09638 0.18683 0.32276
 C1364 C 1.08734 0.19460 0.31648
 C1365 C 1.07722 0.20390 0.30812
 C1366 C 1.07945 0.20564 0.29266
 C1367 C 1.07008 0.21496 0.28436
 C1368 C 1.05841 0.22261 0.29146
 C1369 C 1.05608 0.22084 0.30693
 C1370 C 1.06550 0.21149 0.31527
 C1371 C 1.04902 0.23224 0.28264
 C1372 C 1.04165 0.24006 0.27450
 H1373 H 1.08851 0.19988 0.28703
 H1374 H 1.07199 0.21627 0.27241
 H1375 H 1.04709 0.22673 0.31252
 H1376 H 1.06371 0.21025 0.32724
 C1377 C 0.60055 0.31605 0.67777
 C1378 C 0.59077 0.30952 0.68436
 C1379 C 0.57934 0.30181 0.69270
 C1380 C 0.57419 0.30774 0.70631
 C1381 C 0.56364 0.29999 0.71484
 C1382 C 0.55814 0.28625 0.70982
 C1383 C 0.56316 0.28039 0.69612
 C1384 C 0.57374 0.28815 0.68757
 C1385 C 0.54814 0.27783 0.71924
 C1386 C 0.54034 0.27074 0.72767
 H1387 H 0.57851 0.31824 0.71044
 H1388 H 0.55997 0.30456 0.72549
 H1389 H 0.55911 0.26971 0.69218
 H1390 H 0.57771 0.28342 0.67711
 C1391 C 0.60069 0.82116 0.18387
 C1392 C 0.59076 0.81518 0.19080
 C1393 C 0.57919 0.80776 0.19921
 C1394 C 0.57021 0.79701 0.19225
 C1395 C 0.55964 0.78909 0.20064
 C1396 C 0.55798 0.79187 0.21605
 C1397 C 0.56676 0.80282 0.22295
 C1398 C 0.57733 0.81075 0.21455
 C1399 C 0.54812 0.78273 0.22493
 C1400 C 0.54038 0.77454 0.23236
 H1401 H 0.57157 0.79454 0.18042
 H1402 H 0.55301 0.78057 0.19520
 H1403 H 0.56568 0.80500 0.23487
 H1404 H 0.58424 0.81899 0.22008
 C1405 C 1.09846 0.31959 0.17879
 C1406 C 1.08881 0.31334 0.18577
 C1407 C 1.07769 0.30564 0.19442
 C1408 C 1.07284 0.29149 0.18996
 C1409 C 1.06292 0.28349 0.19901
 C1410 C 1.05783 0.28962 0.21255
 C1411 C 1.06242 0.30391 0.21684
 C1412 C 1.07233 0.31191 0.20779
 C1413 C 1.04872 0.28091 0.22251
 C1414 C 1.04151 0.27358 0.23120
 H1415 H 1.07697 0.28652 0.17967
 H1416 H 1.05948 0.27242 0.19562
 H1417 H 1.05859 0.30873 0.22732
 H1418 H 1.07607 0.32282 0.21137
 C1419 C 1.09650 0.82040 0.67902
 C1420 C 1.08688 0.81399 0.68593
 C1421 C 1.07577 0.80598 0.69432
 C1422 C 1.07097 0.81134 0.70828
 C1423 C 1.06091 0.80303 0.71689
 C1424 C 1.05562 0.78934 0.71155
 C1425 C 1.06024 0.78408 0.69748
 C1426 C 1.07030 0.79239 0.68888
 C1427 C 1.04621 0.78032 0.72097
 C1428 C 1.03880 0.77278 0.72932
 H1429 H 1.07520 0.82179 0.71264
 H1430 H 1.05751 0.80713 0.72781
 H1431 H 1.05633 0.77344 0.69331
 H1432 H 1.07403 0.78811 0.67814
 C1433 C 0.40479 0.68465 0.68159
 C1434 C 0.41468 0.69174 0.68729
 C1435 C 0.42592 0.70070 0.69438
 C1436 C 0.43259 0.69584 0.70774
 C1437 C 0.44233 0.70521 0.71551
 C1438 C 0.44543 0.71948 0.70995
 C1439 C 0.43907 0.72421 0.69639
 C1440 C 0.42932 0.71482 0.68861
 C1441 C 0.45421 0.72958 0.71878
 C1442 C 0.46113 0.73788 0.72678
 H1443 H 0.42993 0.68499 0.71236
 H1444 H 0.44711 0.70151 0.72605
 H1445 H 0.44130 0.73527 0.69208
 H1446 H 0.42413 0.71872 0.67835
 C1447 C 0.40506 0.18278 0.18181
 C1448 C 0.41452 0.18981 0.18829
 C1449 C 0.42527 0.19849 0.19646
 C1450 C 0.43221 0.21073 0.18965
 C1451 C 0.44159 0.21997 0.19807
 C1452 C 0.44404 0.21697 0.21331
 C1453 C 0.43738 0.20452 0.22002
 C1454 C 0.42801 0.19530 0.21161
 C1455 C 0.45279 0.22694 0.22235
 C1456 C 0.45979 0.23510 0.23045
 H1457 H 0.43011 0.21332 0.17795
 H1458 H 0.44669 0.22958 0.19279
 H1459 H 0.43919 0.20212 0.23181
 H1460 H 0.42264 0.18590 0.21701
 C1461 C -0.09833 0.68221 0.18561
 C1462 C -0.08861 0.68872 0.19227
 C1463 C -0.07740 0.69675 0.20053
 C1464 C -0.07556 0.69415 0.21594
 C1465 C -0.06548 0.70274 0.22424
 C1466 C -0.05719 0.71395 0.21716
 C1467 C -0.05880 0.71633 0.20168
 C1468 C -0.06888 0.70775 0.19339
 C1469 C -0.04790 0.72373 0.22590
 C1470 C -0.04059 0.73239 0.23318
 H1471 H -0.08214 0.68572 0.22160
 H1472 H -0.06441 0.70087 0.23622
 H1473 H -0.05252 0.72504 0.19611
 H1474 H -0.07027 0.70990 0.18149
 C1475 C -0.09700 0.18217 0.68391
 C1476 C -0.08759 0.18892 0.69082
 C1477 C -0.07668 0.19709 0.69941
 C1478 C -0.07647 0.19584 0.71510
 C1479 C -0.06651 0.20438 0.72358
 C1480 C -0.05667 0.21422 0.71643
 C1481 C -0.05669 0.21529 0.70072
 C1482 C -0.06666 0.20673 0.69222
 C1483 C -0.04738 0.22396 0.72525
 C1484 C -0.04010 0.23257 0.73265
 H1485 H -0.08420 0.18847 0.72079
 H1486 H -0.06670 0.20356 0.73572
 H1487 H -0.04923 0.22295 0.69506
 H1488 H -0.06675 0.20783 0.68010
 C1489 C 0.31902 0.40059 0.31549
 C1490 C 0.31261 0.41012 0.30843
 C1491 C 0.30434 0.42129 0.30031
 C1492 C 0.29188 0.42804 0.30702
 C1493 C 0.28327 0.43829 0.29895
 C1494 C 0.28707 0.44185 0.28412
 C1495 C 0.29966 0.43526 0.27747
 C1496 C 0.30828 0.42500 0.28555
 C1497 C 0.27754 0.45146 0.27539
 C1498 C 0.26946 0.45900 0.26764
 H1499 H 0.28870 0.42518 0.31840
 H1500 H 0.27349 0.44318 0.30416
 H1501 H 0.30261 0.43784 0.26596
 H1502 H 0.31784 0.41980 0.28021
 C1503 C 0.31396 -0.10024 0.81983
 C1504 C 0.30700 -0.09065 0.81339
 C1505 C 0.29848 -0.07948 0.80553
 C1506 C 0.30510 -0.07115 0.79401
 C1507 C 0.29656 -0.06089 0.78585
 C1508 C 0.28138 -0.05890 0.78918
 C1509 C 0.27482 -0.06709 0.80084
 C1510 C 0.28336 -0.07735 0.80900
 C1511 C 0.27236 -0.04931 0.77990
 C1512 C 0.26488 -0.04178 0.77158
 H1513 H 0.31676 -0.07278 0.79116
 H1514 H 0.30172 -0.05473 0.77676
 H1515 H 0.26307 -0.06575 0.80343
 H1516 H 0.27811 -0.08381 0.81782
 C1517 C 0.81156 0.40027 0.82378
 C1518 C 0.80479 0.41048 0.81816
 C1519 C 0.79672 0.42231 0.81085
 C1520 C 0.80405 0.43151 0.80050
 C1521 C 0.79594 0.44198 0.79218
 C1522 C 0.78047 0.44330 0.79419
 C1523 C 0.77321 0.43441 0.80486
 C1524 C 0.78132 0.42394 0.81319
 C1525 C 0.77191 0.45271 0.78432
 C1526 C 0.76480 0.45998 0.77546
 H1527 H 0.81594 0.43030 0.79855
 H1528 H 0.80165 0.44870 0.78387
 H1529 H 0.76123 0.43525 0.80641
 H1530 H 0.77553 0.41683 0.82110
 C1531 C 0.81693 -0.09543 0.32331
 C1532 C 0.80987 -0.08588 0.31697
 C1533 C 0.80115 -0.07498 0.30900
 C1534 C 0.80767 -0.06665 0.29743
 C1535 C 0.79888 -0.05706 0.28876
 C1536 C 0.78353 -0.05576 0.29162
 C1537 C 0.77708 -0.06383 0.30342
 C1538 C 0.78588 -0.07342 0.31210
 C1539 C 0.77433 -0.04692 0.28183
 C1540 C 0.76678 -0.03983 0.27319
 H1541 H 0.81945 -0.06784 0.29488
 H1542 H 0.80396 -0.05092 0.27961
 H1543 H 0.76522 -0.06296 0.30569
 H1544 H 0.78072 -0.07987 0.32098
 C1545 C 0.32371 0.59846 0.68718
 C1546 C 0.31743 0.58882 0.69416
 C1547 C 0.30951 0.57774 0.70269
 C1548 C 0.30905 0.57871 0.71839
 C1549 C 0.30030 0.56875 0.72665
 C1550 C 0.29201 0.55776 0.71925
 C1551 C 0.29273 0.55657 0.70357
 C1552 C 0.30147 0.56654 0.69530
 C1553 C 0.28183 0.54855 0.72761
 C1554 C 0.27278 0.54133 0.73448
 H1555 H 0.31515 0.58738 0.72420
 H1556 H 0.29971 0.56986 0.73875
 H1557 H 0.28625 0.54820 0.69772
 H1558 H 0.30168 0.56574 0.68316
 C1559 C 0.32104 1.10018 0.18732
 C1560 C 0.31486 1.09040 0.19419
 C1561 C 0.30706 1.07904 0.20243
 C1562 C 0.29653 1.07008 0.19512
 C1563 C 0.28805 1.05986 0.20332
 C1564 C 0.29004 1.05855 0.21887
 C1565 C 0.30082 1.06726 0.22614
 C1566 C 0.30932 1.07749 0.21793
 C1567 C 0.28022 1.04914 0.22744
 C1568 C 0.27141 1.04170 0.23439
 H1569 H 0.29465 1.07125 0.18315
 H1570 H 0.27967 1.05326 0.19760
 H1571 H 0.30239 1.06641 0.23818
 H1572 H 0.31739 1.08441 0.22370
 C1573 C 0.82117 0.59662 0.18701
 C1574 C 0.81522 0.58667 0.19383
 C1575 C 0.80769 0.57520 0.20218
 C1576 C 0.81065 0.57334 0.21753
 C1577 C 0.80229 0.56320 0.22599
 C1578 C 0.79096 0.55489 0.21912
 C1579 C 0.78829 0.55645 0.20369
 C1580 C 0.79664 0.56659 0.19524
 C1581 C 0.78127 0.54566 0.22803
 C1582 C 0.77260 0.53839 0.23532
 H1583 H 0.81913 0.58000 0.22302
 H1584 H 0.80439 0.56214 0.23792
 H1585 H 0.77949 0.55015 0.19829
 H1586 H 0.79421 0.56800 0.18340
 C1587 C 0.82166 1.09643 0.68657
 C1588 C 0.81512 1.08705 0.69370
 C1589 C 0.80686 1.07617 0.70219
 C1590 C 0.81031 1.07354 0.71732
 C1591 C 0.80153 1.06378 0.72583
 C1592 C 0.78927 1.05662 0.71923
 C1593 C 0.78602 1.05903 0.70403
 C1594 C 0.79479 1.06877 0.69553
 C1595 C 0.77945 1.04753 0.72817
 C1596 C 0.77072 1.04030 0.73547
 H1597 H 0.81958 1.07925 0.72260
 H1598 H 0.80409 1.06208 0.73760
 H1599 H 0.77652 1.05363 0.69884
 H1600 H 0.79197 1.07078 0.68387
 C1601 C 0.67869 0.59747 0.31387
 C1602 C 0.68477 0.58751 0.30716
 C1603 C 0.69249 0.57599 0.29904
 C1604 C 0.68951 0.57368 0.28376
 C1605 C 0.69796 0.56338 0.27556
 C1606 C 0.70941 0.55535 0.28263
 C1607 C 0.71215 0.55741 0.29798
 C1608 C 0.70371 0.56770 0.30617
 C1609 C 0.71915 0.54593 0.27396
 C1610 C 0.72788 0.53853 0.26684
 H1611 H 0.68091 0.58010 0.27812
 H1612 H 0.69582 0.56196 0.26367
 H1613 H 0.72106 0.55134 0.30352
 H1614 H 0.70617 0.56947 0.31795
 C1615 C 0.67809 1.10009 0.81458
 C1616 C 0.68415 1.09011 0.80790
 C1617 C 0.69178 1.07849 0.79986
 C1618 C 0.70357 1.07080 0.80672
 C1619 C 0.71179 1.06031 0.79856
 C1620 C 0.70825 1.05748 0.78350
 C1621 C 0.69623 1.06491 0.77674
 C1622 C 0.68800 1.07541 0.78491
 C1623 C 0.71776 1.04794 0.77473
 C1624 C 0.72633 1.04048 0.76749
 H1625 H 0.70663 1.07317 0.81825
 H1626 H 0.72113 1.05470 0.80387
 H1627 H 0.69347 1.06288 0.76507
 H1628 H 0.67895 1.08136 0.77949
 C1629 C 0.17856 0.60069 0.81336
 C1630 C 0.18472 0.59084 0.80654
 C1631 C 0.19250 0.57941 0.79829
 C1632 C 0.18925 0.57701 0.78309
 C1633 C 0.19773 0.56684 0.77474
 C1634 C 0.20946 0.55902 0.78158
 C1635 C 0.21244 0.56114 0.79688
 C1636 C 0.20398 0.57131 0.80522
 C1637 C 0.21911 0.54962 0.77274
 C1638 C 0.22768 0.54217 0.76547
 H1639 H 0.18040 0.58322 0.77762
 H1640 H 0.19536 0.56533 0.76290
 H1641 H 0.22153 0.55521 0.80227
 H1642 H 0.20660 0.57309 0.81696
 C1643 C 0.17629 1.10029 0.31059
 C1644 C 0.18192 1.09027 0.30357
 C1645 C 0.18942 1.07861 0.29542
 C1646 C 0.18679 1.07660 0.28003
 C1647 C 0.19528 1.06626 0.27189
 C1648 C 0.20640 1.05792 0.27912
 C1649 C 0.20874 1.05967 0.29457
 C1650 C 0.20027 1.06998 0.30270
 C1651 C 0.21633 1.04854 0.27061
 C1652 C 0.22533 1.04118 0.26378
 H1653 H 0.17849 1.08328 0.27427
 H1654 H 0.19347 1.06509 0.25991
 H1655 H 0.21742 1.05340 0.30025
 H1656 H 0.20248 1.07153 0.31456
 C1657 C 0.68297 0.40125 0.68199
 C1658 C 0.68976 0.41044 0.68909
 C1659 C 0.69832 0.42111 0.69751
 C1660 C 0.71358 0.42284 0.69450
 C1661 C 0.72212 0.43281 0.70296
 C1662 C 0.71542 0.44109 0.71448
 C1663 C 0.70013 0.43943 0.71744
 C1664 C 0.69159 0.42945 0.70897
 C1665 C 0.72436 0.45075 0.72371
 C1666 C 0.73188 0.45846 0.73181
 H1667 H 0.71891 0.41638 0.68571
 H1668 H 0.73395 0.43391 0.70065
 H1669 H 0.69487 0.44569 0.72640
 H1670 H 0.67981 0.42814 0.71144
 C1671 C 0.68494 -0.09593 0.17888
 C1672 C 0.69209 -0.08644 0.18519
 C1673 C 0.70090 -0.07555 0.19306
 C1674 C 0.71653 -0.07636 0.19252
 C1675 C 0.72516 -0.06657 0.20110
 C1676 C 0.71821 -0.05593 0.21025
 C1677 C 0.70258 -0.05491 0.21056
 C1678 C 0.69395 -0.06471 0.20197
 C1679 C 0.72705 -0.04684 0.22015
 C1680 C 0.73434 -0.03966 0.22891
 H1681 H 0.72203 -0.08475 0.18574
 H1682 H 0.73723 -0.06753 0.20088
 H1683 H 0.69709 -0.04680 0.21769
 H1684 H 0.68187 -0.06404 0.20254
 C1685 C 0.18641 0.39909 0.17820
 C1686 C 0.19300 0.40892 0.18458
 C1687 C 0.20100 0.42042 0.19246
 C1688 C 0.19436 0.42768 0.20469
 C1689 C 0.20247 0.43818 0.21293
 C1690 C 0.21726 0.44148 0.20897
 C1691 C 0.22381 0.43439 0.19658
 C1692 C 0.21570 0.42389 0.18834
 C1693 C 0.22601 0.45127 0.21825
 C1694 C 0.23348 0.45892 0.22646
 H1695 H 0.18304 0.42501 0.20804
 H1696 H 0.19734 0.44348 0.22258
 H1697 H 0.23528 0.43674 0.19350
 H1698 H 0.22097 0.41828 0.17895
 C1699 C 0.18524 -0.10100 0.67867
 C1700 C 0.19190 -0.09123 0.68508
 C1701 C 0.19995 -0.07981 0.69301
 C1702 C 0.21504 -0.07723 0.68976
 C1703 C 0.22315 -0.06684 0.69814
 C1704 C 0.21617 -0.05895 0.70978
 C1705 C 0.20101 -0.06132 0.71284
 C1706 C 0.19290 -0.07172 0.70446
 C1707 C 0.22479 -0.04930 0.71933
 C1708 C 0.23200 -0.04175 0.72785
 H1709 H 0.22061 -0.08346 0.68095
 H1710 H 0.23490 -0.06519 0.69576
 H1711 H 0.19554 -0.05539 0.72191
 H1712 H 0.18125 -0.07365 0.70710
 C1713 C 0.31243 0.32203 0.40490
 C1714 C 0.30478 0.31570 0.41401
 C1715 C 0.29557 0.30766 0.42445
 C1716 C 0.30116 0.30365 0.43859
 C1717 C 0.29262 0.29472 0.44818
 C1718 C 0.27849 0.28978 0.44365
 C1719 C 0.27275 0.29409 0.42967
 C1720 C 0.28128 0.30301 0.42009
 C1721 C 0.27036 0.27939 0.45279
 C1722 C 0.26380 0.27020 0.46011
 H1723 H 0.31222 0.30713 0.44204
 H1724 H 0.29718 0.29138 0.45894
 H1725 H 0.26187 0.29025 0.42603
 H1726 H 0.27689 0.30598 0.40915
 C1727 C 0.31880 0.81635 -0.09532
 C1728 C 0.31272 0.80890 -0.08586
 C1729 C 0.30531 0.79958 -0.07501
 C1730 C 0.29440 0.80557 -0.06545
 C1731 C 0.28642 0.79624 -0.05576
 C1732 C 0.28932 0.78089 -0.05557
 C1733 C 0.30043 0.77495 -0.06491
 C1734 C 0.30841 0.78428 -0.07459
 C1735 C 0.28016 0.77116 -0.04663
 C1736 C 0.27200 0.76313 -0.03954
 H1737 H 0.29185 0.81737 -0.06572
 H1738 H 0.27776 0.80093 -0.04867
 H1739 H 0.30267 0.76308 -0.06496
 H1740 H 0.31677 0.77951 -0.08198
 C1741 C 0.82275 0.31274 -0.09610
 C1742 C 0.81693 0.30497 -0.08675
 C1743 C 0.80946 0.29570 -0.07590
 C1744 C 0.79898 0.30200 -0.06608
 C1745 C 0.79079 0.29290 -0.05637
 C1746 C 0.79302 0.27745 -0.05642
 C1747 C 0.80374 0.27116 -0.06600
 C1748 C 0.81195 0.28028 -0.07572
 C1749 C 0.78354 0.26807 -0.04742
 C1750 C 0.77500 0.26051 -0.04023
 H1751 H 0.79691 0.31390 -0.06617
 H1752 H 0.78247 0.29787 -0.04908
 H1753 H 0.80551 0.25922 -0.06620
 H1754 H 0.81998 0.27528 -0.08332
 C1755 C 0.81570 0.81791 0.40344
 C1756 C 0.80833 0.81087 0.41227
 C1757 C 0.79926 0.80232 0.42245
 C1758 C 0.80444 0.79896 0.43692
 C1759 C 0.79576 0.79021 0.44657
 C1760 C 0.78187 0.78481 0.44178
 C1761 C 0.77663 0.78832 0.42738
 C1762 C 0.78530 0.79705 0.41775
 C1763 C 0.77328 0.77513 0.45131
 C1764 C 0.76615 0.76665 0.45897
 H1765 H 0.81522 0.80297 0.44067
 H1766 H 0.79994 0.78751 0.45766
 H1767 H 0.76595 0.78414 0.42354
 H1768 H 0.78119 0.79957 0.40658
 C1769 C 0.68634 0.32076 0.59407
 C1770 C 0.69340 0.31411 0.58467
 C1771 C 0.70176 0.30549 0.57393
 C1772 C 0.71456 0.31137 0.56704
 C1773 C 0.72320 0.30244 0.55747
 C1774 C 0.71905 0.28761 0.55479
 C1775 C 0.70610 0.28189 0.56144
 C1776 C 0.69749 0.29079 0.57098
 C1777 C 0.72830 0.27792 0.54585
 C1778 C 0.73574 0.26916 0.53879
 H1779 H 0.71799 0.32273 0.56927
 H1780 H 0.73321 0.30698 0.55241
 H1781 H 0.70281 0.27044 0.55950
 H1782 H 0.68766 0.28611 0.57629
 C1783 C 0.68314 0.81829 1.09647
 C1784 C 0.69031 0.81135 1.08737
 C1785 C 0.69924 0.80297 1.07688
 C1786 C 0.69242 0.79423 1.06579
 C1787 C 0.70116 0.78555 1.05612
 C1788 C 0.71677 0.78558 1.05747
 C1789 C 0.72359 0.79446 1.06842
 C1790 C 0.71485 0.80314 1.07809
 C1791 C 0.72572 0.77586 1.04824
 C1792 C 0.73318 0.76735 1.04090
 H1793 H 0.68036 0.79397 1.06479
 H1794 H 0.69575 0.77864 1.04776
 H1795 H 0.73563 0.79449 1.06964
 H1796 H 0.72026 0.80981 1.08664
 C1797 C 0.18067 0.31544 1.09274
 C1798 C 0.18700 0.30773 1.08365
 C1799 C 0.19477 0.29824 1.07324
 C1800 C 0.19113 0.28309 1.07231
 C1801 C 0.19936 0.27361 1.06297
 C1802 C 0.21126 0.27928 1.05449
 C1803 C 0.21473 0.29448 1.05523
 C1804 C 0.20651 0.30394 1.06458
 C1805 C 0.22049 0.26946 1.04572
 C1806 C 0.22879 0.26155 1.03864
 H1807 H 0.18211 0.27855 1.07903
 H1808 H 0.19666 0.26186 1.06257
 H1809 H 0.22399 0.29894 1.04881
 H1810 H 0.20948 0.31562 1.06526
 C1811 C 0.18040 0.81390 0.59448
 C1812 C 0.18678 0.80638 0.58527
 C1813 C 0.19469 0.79719 0.57464
 C1814 C 0.20570 0.80343 0.56540
 C1815 C 0.21408 0.79432 0.55582
 C1816 C 0.21152 0.77893 0.55545
 C1817 C 0.20034 0.77272 0.56450
 C1818 C 0.19194 0.78183 0.57407
 C1819 C 0.22097 0.76947 0.54647
 C1820 C 0.22933 0.76171 0.53927
 H1821 H 0.20798 0.81527 0.56580
 H1822 H 0.22276 0.79923 0.54893
 H1823 H 0.19831 0.76082 0.56436
 H1824 H 0.18352 0.77687 0.58123
 C1825 C 0.31918 0.68041 0.59988
 C1826 C 0.31305 0.68662 0.58959
 C1827 C 0.30567 0.69467 0.57775
 C1828 C 0.30949 0.70955 0.57498
 C1829 C 0.30150 0.71787 0.56440
 C1830 C 0.28967 0.71132 0.55651
 C1831 C 0.28609 0.69632 0.55901
 C1832 C 0.29408 0.68801 0.56961
 C1833 C 0.28043 0.72026 0.54684
 C1834 C 0.27216 0.72779 0.53930
 H1835 H 0.31839 0.71482 0.58127
 H1836 H 0.30429 0.72948 0.56266
 H1837 H 0.27689 0.69118 0.55306
 H1838 H 0.29099 0.67653 0.57172
 C1839 C 0.32074 0.17961 1.09739
 C1840 C 0.31430 0.18617 1.08751
 C1841 C 0.30645 0.19438 1.07609
 C1842 C 0.31075 0.20899 1.07266
 C1843 C 0.30240 0.21745 1.06246
 C1844 C 0.28972 0.21130 1.05564
 C1845 C 0.28565 0.19656 1.05878
 C1846 C 0.29399 0.18811 1.06899
 C1847 C 0.28026 0.22037 1.04630
 C1848 C 0.27185 0.22789 1.03892
 H1849 H 0.32035 0.21395 1.07811
 H1850 H 0.30563 0.22885 1.06016
 H1851 H 0.27583 0.19172 1.05361
 H1852 H 0.29054 0.17684 1.07157
 C1853 C 0.81843 0.67788 1.09900
 C1854 C 0.81143 0.68402 1.08920
 C1855 C 0.80277 0.69161 1.07788
 C1856 C 0.80874 0.70395 1.07035
 C1857 C 0.79991 0.71202 1.06023
 C1858 C 0.78507 0.70780 1.05759
 C1859 C 0.77921 0.69526 1.06487
 C1860 C 0.78804 0.68718 1.07498
 C1861 C 0.77563 0.71692 1.04823
 C1862 C 0.76772 0.72499 1.04085
 H1863 H 0.82009 0.70750 1.07252
 H1864 H 0.80455 0.72174 1.05473
 H1865 H 0.76773 0.69193 1.06297
 H1866 H 0.78328 0.67768 1.08077
 C1867 C 0.81754 0.17826 0.59962
 C1868 C 0.81059 0.18445 0.58982
 C1869 C 0.80221 0.19219 0.57841
 C1870 C 0.78810 0.18702 0.57401
 C1871 C 0.77961 0.19512 0.56361
 C1872 C 0.78521 0.20840 0.55757
 C1873 C 0.79941 0.21343 0.56180
 C1874 C 0.80789 0.20534 0.57218
 C1875 C 0.77611 0.21743 0.54780
 C1876 C 0.76859 0.22555 0.54007
 H1877 H 0.78357 0.17689 0.57880
 H1878 H 0.76859 0.19118 0.56052
 H1879 H 0.80379 0.22375 0.55731
 H1880 H 0.81874 0.20949 0.57555
 C1881 C 0.68156 0.67757 0.40257
 C1882 C 0.68861 0.68345 0.41247
 C1883 C 0.69725 0.69080 0.42393
 C1884 C 0.71156 0.68556 0.42763
 C1885 C 0.72043 0.69344 0.43785
 C1886 C 0.71502 0.70657 0.44442
 C1887 C 0.70058 0.71159 0.44100
 C1888 C 0.69172 0.70372 0.43079
 C1889 C 0.72462 0.71560 0.45366
 C1890 C 0.73255 0.72379 0.46084
 H1891 H 0.71597 0.67560 0.42236
 H1892 H 0.73161 0.68950 0.44034
 H1893 H 0.69632 0.72178 0.44593
 H1894 H 0.68072 0.70791 0.42797
 C1895 C 0.67981 0.18035 -0.09751
 C1896 C 0.68661 0.18711 -0.08802
 C1897 C 0.69494 0.19548 -0.07708
 C1898 C 0.69183 0.21063 -0.07487
 C1899 C 0.70059 0.21906 -0.06504
 C1900 C 0.71249 0.21237 -0.05735
 C1901 C 0.71543 0.19715 -0.05935
 C1902 C 0.70667 0.18873 -0.06918
 C1903 C 0.72224 0.22121 -0.04811
 C1904 C 0.73085 0.22848 -0.04072
 H1905 H 0.68281 0.21598 -0.08096
 H1906 H 0.69827 0.23084 -0.06366
 H1907 H 0.72467 0.19189 -0.05353
 H1908 H 0.70922 0.17703 -0.07083
 C1909 C 0.17906 0.68023 -0.09712
 C1910 C 0.18589 0.68700 -0.08767
 C1911 C 0.19420 0.69544 -0.07679
 C1912 C 0.19071 0.71046 -0.07434
 C1913 C 0.19936 0.71898 -0.06449
 C1914 C 0.21152 0.71249 -0.05705
 C1915 C 0.21486 0.69740 -0.05931
 C1916 C 0.20622 0.68888 -0.06917
 C1917 C 0.22110 0.72147 -0.04778
 C1918 C 0.22951 0.72891 -0.04036
 H1919 H 0.18148 0.71565 -0.08024
 H1920 H 0.19672 0.73066 -0.06289
 H1921 H 0.22430 0.69229 -0.05367
 H1922 H 0.20906 0.67729 -0.07104
 C1923 C 0.18532 0.17701 0.40158
 C1924 C 0.19230 0.18285 0.41152
 C1925 C 0.20062 0.19036 0.42306
 C1926 C 0.19399 0.20207 0.43104
 C1927 C 0.20238 0.21026 0.44137
 C1928 C 0.21745 0.20676 0.44376
 C1929 C 0.22401 0.19482 0.43604
 C1930 C 0.21560 0.18662 0.42571
 C1931 C 0.22639 0.21625 0.45315
 C1932 C 0.23371 0.22482 0.46050
 H1933 H 0.18244 0.20511 0.42901
 H1934 H 0.19724 0.21956 0.44717
 H1935 H 0.23569 0.19211 0.43772
 H1936 H 0.22086 0.17764 0.41952
 C1937 C 0.31115 0.40190 0.67623
 C1938 C 0.30395 0.41144 0.68246
 C1939 C 0.29547 0.42233 0.69075
 C1940 C 0.29281 0.41997 0.70606
 C1941 C 0.28456 0.43031 0.71433
 C1942 C 0.27889 0.44313 0.70739
 C1943 C 0.28153 0.44556 0.69205
 C1944 C 0.28983 0.43517 0.68374
 C1945 C 0.27025 0.45347 0.71620
 C1946 C 0.26305 0.46135 0.72446
 H1947 H 0.29711 0.41011 0.71160
 H1948 H 0.28255 0.42829 0.72616
 H1949 H 0.27716 0.45541 0.68655
 H1950 H 0.29182 0.43711 0.67189
 C1951 C 0.31867 0.90300 0.18181
 C1952 C 0.31200 0.91260 0.18853
 C1953 C 0.30340 0.92372 0.19638
 C1954 C 0.28815 0.92528 0.19322
 C1955 C 0.27946 0.93543 0.20131
 C1956 C 0.28596 0.94412 0.21260
 C1957 C 0.30129 0.94278 0.21560
 C1958 C 0.31000 0.93260 0.20750
 C1959 C 0.27668 0.95359 0.22174
 C1960 C 0.26866 0.96098 0.22969
 H1961 H 0.28292 0.91845 0.18468
 H1962 H 0.26761 0.93630 0.19896
 H1963 H 0.30642 0.94939 0.22437
 H1964 H 0.32178 0.93147 0.21006
 C1965 C 0.81604 0.40282 0.17796
 C1966 C 0.80896 0.41236 0.18428
 C1967 C 0.80032 0.42324 0.19235
 C1968 C 0.78488 0.42425 0.19001
 C1969 C 0.77623 0.43381 0.19886
 C1970 C 0.78300 0.44238 0.21009
 C1971 C 0.79850 0.44163 0.21220
 C1972 C 0.80714 0.43207 0.20335
 C1973 C 0.77399 0.45118 0.22011
 C1974 C 0.76659 0.45820 0.22893
 H1975 H 0.77948 0.41738 0.18161
 H1976 H 0.76424 0.43425 0.19720
 H1977 H 0.80384 0.44815 0.22091
 H1978 H 0.81906 0.43128 0.20533
 C1979 C 0.80969 0.90215 0.67749
 C1980 C 0.80276 0.91202 0.68349
 C1981 C 0.79465 0.92342 0.69139
 C1982 C 0.80201 0.93216 0.70211
 C1983 C 0.79393 0.94222 0.71093
 C1984 C 0.77845 0.94359 0.70908
 C1985 C 0.77113 0.93513 0.69810
 C1986 C 0.77922 0.92506 0.68927
 C1987 C 0.77003 0.95276 0.71928
 C1988 C 0.76320 0.96002 0.72837
 H1989 H 0.81391 0.93090 0.70393
 H1990 H 0.79969 0.94862 0.71947
 H1991 H 0.75914 0.93603 0.69666
 H1992 H 0.77340 0.91828 0.68108
 C1993 C 0.68198 0.59767 0.68179
 C1994 C 0.68871 0.58808 0.68844
 C1995 C 0.69676 0.57696 0.69684
 C1996 C 0.70860 0.56914 0.69021
 C1997 C 0.71696 0.55900 0.69872
 C1998 C 0.71348 0.55664 0.71389
 C1999 C 0.70148 0.56428 0.72044
 C2000 C 0.69313 0.57441 0.71194
 C2001 C 0.72279 0.54717 0.72300
 C2002 C 0.73092 0.53974 0.73080
 H2003 H 0.71154 0.57106 0.67856
 H2004 H 0.72629 0.55323 0.69357
 H2005 H 0.69877 0.56265 0.73218
 H2006 H 0.68404 0.58044 0.71719
 C2007 C 0.67865 0.09754 0.18608
 C2008 C 0.68470 0.08771 0.19300
 C2009 C 0.69230 0.07646 0.20159
 C2010 C 0.68863 0.07429 0.21674
 C2011 C 0.69698 0.06440 0.22551
 C2012 C 0.70902 0.05665 0.21915
 C2013 C 0.71244 0.05854 0.20392
 C2014 C 0.70410 0.06843 0.19515
 C2015 C 0.71856 0.04762 0.22842
 C2016 C 0.72709 0.04046 0.23600
 H2017 H 0.67958 0.08052 0.22184
 H2018 H 0.69431 0.06309 0.23731
 H2019 H 0.72180 0.05268 0.19893
 H2020 H 0.70709 0.07011 0.18348
 C2021 C 0.17462 0.59803 0.18964
 C2022 C 0.18066 0.58822 0.19663
 C2023 C 0.18872 0.57673 0.20451
 C2024 C 0.18639 0.57431 0.21989
 C2025 C 0.19531 0.56405 0.22768
 C2026 C 0.20656 0.55619 0.22009
 C2027 C 0.20859 0.55834 0.20464
 C2028 C 0.19970 0.56857 0.19688
 C2029 C 0.21686 0.54684 0.22819
 C2030 C 0.22617 0.53948 0.23461
 H2031 H 0.17795 0.58059 0.22592
 H2032 H 0.19370 0.56254 0.23964
 H2033 H 0.21732 0.55241 0.19868
 H2034 H 0.20165 0.57040 0.18501
 C2035 C 0.17873 0.09903 0.68588
 C2036 C 0.18473 0.08901 0.69260
 C2037 C 0.19221 0.07737 0.70082
 C2038 C 0.18902 0.07513 0.71607
 C2039 C 0.19713 0.06463 0.72436
 C2040 C 0.20846 0.05631 0.71744
 C2041 C 0.21141 0.05831 0.70211
 C2042 C 0.20331 0.06880 0.69382
 C2043 C 0.21788 0.04666 0.72625
 C2044 C 0.22635 0.03911 0.73356
 H2045 H 0.18051 0.08174 0.72161
 H2046 H 0.19483 0.06328 0.73623
 H2047 H 0.22023 0.05203 0.69667
 H2048 H 0.20592 0.07048 0.68206
 C2049 C 0.32408 0.59832 0.30816
 C2050 C 0.31797 0.58864 0.30105
 C2051 C 0.30995 0.57731 0.29293
 C2052 C 0.29840 0.56956 0.30011
 C2053 C 0.28975 0.55936 0.29209
 C2054 C 0.29258 0.55680 0.27683
 C2055 C 0.30434 0.56430 0.26969
 C2056 C 0.31302 0.57453 0.27774
 C2057 C 0.28264 0.54734 0.26843
 C2058 C 0.27360 0.53986 0.26180
 H2059 H 0.29587 0.57166 0.31182
 H2060 H 0.28061 0.55372 0.29769
 H2061 H 0.30657 0.56249 0.25787
 H2062 H 0.32190 0.58049 0.27206
 C2063 C 0.32256 0.09523 0.81310
 C2064 C 0.31593 0.08588 0.80605
 C2065 C 0.30750 0.07499 0.79776
 C2066 C 0.29580 0.06735 0.80481
 C2067 C 0.28688 0.05753 0.79658
 C2068 C 0.28961 0.05528 0.78125
 C2069 C 0.30149 0.06269 0.77425
 C2070 C 0.31043 0.07253 0.78249
 C2071 C 0.27961 0.04612 0.77260
 C2072 C 0.27077 0.03884 0.76550
 H2073 H 0.29340 0.06922 0.81659
 H2074 H 0.27767 0.05194 0.80210
 H2075 H 0.30365 0.06110 0.76238
 H2076 H 0.31942 0.07841 0.77691
 C2077 C 0.81840 0.59869 0.81680
 C2078 C 0.81224 0.58881 0.81007
 C2079 C 0.80492 0.57744 0.80140
 C2080 C 0.79348 0.56886 0.80776
 C2081 C 0.78571 0.55858 0.79891
 C2082 C 0.78935 0.55685 0.78370
 C2083 C 0.80099 0.56520 0.77744
 C2084 C 0.80876 0.57546 0.78627
 C2085 C 0.78041 0.54737 0.77428
 C2086 C 0.77241 0.53992 0.76641
 H2087 H 0.79038 0.57033 0.81943
 H2088 H 0.77665 0.55225 0.80384
 H2089 H 0.80382 0.56403 0.76566
 H2090 H 0.81754 0.58209 0.78123
 C2091 C 0.81897 0.09985 0.31654
 C2092 C 0.81260 0.08985 0.31021
 C2093 C 0.80493 0.07834 0.30210
 C2094 C 0.79342 0.07028 0.30899
 C2095 C 0.78521 0.05993 0.30067
 C2096 C 0.78848 0.05763 0.28545
 C2097 C 0.80021 0.06544 0.27866
 C2098 C 0.80843 0.07578 0.28699
 C2099 C 0.77904 0.04819 0.27654
 C2100 C 0.77064 0.04078 0.26908
 H2101 H 0.79059 0.07224 0.32066
 H2102 H 0.77609 0.05401 0.30598
 H2103 H 0.80276 0.06382 0.26688
 H2104 H 0.81726 0.08201 0.28155
 C2105 C 0.68742 0.40068 0.32465
 C2106 C 0.69448 0.41022 0.31831
 C2107 C 0.70273 0.42137 0.31018
 C2108 C 0.71814 0.42294 0.31243
 C2109 C 0.72634 0.43289 0.30357
 C2110 C 0.71914 0.44131 0.29246
 C2111 C 0.70367 0.43999 0.29046
 C2112 C 0.69549 0.43007 0.29932
 C2113 C 0.72768 0.45054 0.28243
 C2114 C 0.73473 0.45788 0.27358
 H2115 H 0.72387 0.41624 0.32076
 H2116 H 0.73831 0.43374 0.30514
 H2117 H 0.69801 0.44636 0.28183
 H2118 H 0.68358 0.42891 0.29745
 C2119 C 0.68874 0.89967 0.82429
 C2120 C 0.69539 0.90978 0.81840
 C2121 C 0.70317 0.92155 0.81068
 C2122 C 0.71862 0.92330 0.81253
 C2123 C 0.72636 0.93382 0.80393
 C2124 C 0.71868 0.94263 0.79346
 C2125 C 0.70318 0.94112 0.79189
 C2126 C 0.69545 0.93061 0.80048
 C2127 C 0.72680 0.95226 0.78343
 C2128 C 0.73348 0.95980 0.77446
 H2129 H 0.72472 0.91629 0.82032
 H2130 H 0.73836 0.93480 0.80515
 H2131 H 0.69715 0.94777 0.78373
 H2132 H 0.68353 0.92929 0.79888
 C2133 C 0.18155 0.40315 0.81735
 C2134 C 0.18811 0.41265 0.81042
 C2135 C 0.19636 0.42370 0.80217
 C2136 C 0.21100 0.42720 0.80647
 C2137 C 0.21939 0.43731 0.79801
 C2138 C 0.21316 0.44399 0.78525
 C2139 C 0.19846 0.44062 0.78104
 C2140 C 0.19007 0.43050 0.78949
 C2141 C 0.22210 0.45357 0.77594
 C2142 C 0.22963 0.46113 0.76771
 H2143 H 0.21600 0.42192 0.81619
 H2144 H 0.23079 0.43971 0.80128
 H2145 H 0.19360 0.44561 0.77109
 H2146 H 0.17879 0.42782 0.78601
 C2147 C 0.18250 0.90139 0.31739
 C2148 C 0.18922 0.91093 0.31066
 C2149 C 0.19772 0.92206 0.30278
 C2150 C 0.19096 0.93098 0.29178
 C2151 C 0.19950 0.94137 0.28379
 C2152 C 0.21480 0.94289 0.28680
 C2153 C 0.22148 0.93408 0.29791
 C2154 C 0.21297 0.92370 0.30588
 C2155 C 0.22386 0.95272 0.27785
 C2156 C 0.23166 0.96041 0.27000
 H2157 H 0.17919 0.92977 0.28925
 H2158 H 0.19423 0.94803 0.27512
 H2159 H 0.23332 0.93505 0.30023
 H2160 H 0.21832 0.91681 0.31431
 C2161 C 0.40068 0.32535 0.68658
 C2162 C 0.41047 0.31966 0.69388
 C2163 C 0.42186 0.31223 0.70248
 C2164 C 0.42275 0.31435 0.71806
 C2165 C 0.43296 0.30607 0.72656
 C2166 C 0.44231 0.29567 0.71950
 C2167 C 0.44166 0.29383 0.70389
 C2168 C 0.43146 0.30209 0.69540
 C2169 C 0.45173 0.28603 0.72829
 C2170 C 0.45919 0.27736 0.73541
 H2171 H 0.41531 0.32210 0.72365
 H2172 H 0.43330 0.30750 0.73863
 H2173 H 0.44875 0.28573 0.69834
 H2174 H 0.43079 0.30030 0.68339
 C2175 C 0.40010 0.81616 0.17687
 C2176 C 0.40979 0.80934 0.18333
 C2177 C 0.42108 0.80137 0.19161
 C2178 C 0.42679 0.78782 0.18625
 C2179 C 0.43711 0.77975 0.19487
 C2180 C 0.44175 0.78522 0.20885
 C2181 C 0.43622 0.79889 0.21406
 C2182 C 0.42593 0.80694 0.20547
 C2183 C 0.45142 0.77653 0.21838
 C2184 C 0.45901 0.76941 0.22699
 H2185 H 0.42308 0.78337 0.17557
 H2186 H 0.44124 0.76915 0.19077
 H2187 H 0.43965 0.80319 0.22489
 H2188 H 0.42154 0.81736 0.20975
 C2189 C 0.90018 0.32098 0.18598
 C2190 C 0.91013 0.31542 0.19317
 C2191 C 0.92171 0.30837 0.20184
 C2192 C 0.92237 0.31047 0.21743
 C2193 C 0.93285 0.30261 0.22600
 C2194 C 0.94271 0.29266 0.21900
 C2195 C 0.94229 0.29086 0.20338
 C2196 C 0.93182 0.29870 0.19482
 C2197 C 0.95242 0.28337 0.22784
 C2198 C 0.96016 0.27495 0.23496
 H2199 H 0.91457 0.31789 0.22298
 H2200 H 0.93301 0.30401 0.23809
 H2201 H 0.94980 0.28311 0.19787
 H2202 H 0.93136 0.29695 0.18279
 C2203 C 0.89932 0.82627 0.68779
 C2204 C 0.90929 0.82074 0.69498
 C2205 C 0.92085 0.81338 0.70340
 C2206 C 0.93009 0.80299 0.69621
 C2207 C 0.94026 0.79456 0.70455
 C2208 C 0.94124 0.79647 0.72013
 C2209 C 0.93232 0.80717 0.72729
 C2210 C 0.92213 0.81563 0.71892
 C2211 C 0.95051 0.78657 0.72877
 C2212 C 0.95788 0.77763 0.73563
 H2213 H 0.92913 0.80110 0.68423
 H2214 H 0.94702 0.78623 0.69893
 H2215 H 0.93293 0.80868 0.73935
 H2216 H 0.91498 0.82359 0.72460
 C2217 C 0.59768 0.32444 0.31528
 C2218 C 0.58806 0.31885 0.30768
 C2219 C 0.57684 0.31164 0.29870
 C2220 C 0.56686 0.30168 0.30546
 C2221 C 0.55681 0.29363 0.29664
 C2222 C 0.55666 0.29550 0.28102
 C2223 C 0.56640 0.30572 0.27427
 C2224 C 0.57646 0.31381 0.28311
 C2225 C 0.54741 0.28600 0.27196
 C2226 C 0.54007 0.27738 0.26470
 H2227 H 0.56713 0.29985 0.31748
 H2228 H 0.54946 0.28562 0.30195
 H2229 H 0.56650 0.30714 0.26219
 H2230 H 0.58418 0.32143 0.27776
 C2231 C 0.59815 0.82531 0.81512
 C2232 C 0.58840 0.81980 0.80764
 C2233 C 0.57718 0.81260 0.79867
 C2234 C 0.56624 0.80382 0.80560
 C2235 C 0.55629 0.79555 0.79685
 C2236 C 0.55724 0.79602 0.78115
 C2237 C 0.56790 0.80513 0.77422
 C2238 C 0.57786 0.81341 0.78297
 C2239 C 0.54815 0.78619 0.77229
 C2240 C 0.54094 0.77737 0.76513
 H2241 H 0.56569 0.80304 0.81773
 H2242 H 0.54816 0.78846 0.80233
 H2243 H 0.56880 0.80549 0.76208
 H2244 H 0.58634 0.82009 0.77750
 C2245 C 0.10020 0.31686 0.82207
 C2246 C 0.09032 0.31020 0.81578
 C2247 C 0.07875 0.30231 0.80783
 C2248 C 0.07454 0.28795 0.81234
 C2249 C 0.06397 0.27997 0.80399
 C2250 C 0.05756 0.28634 0.79113
 C2251 C 0.06165 0.30076 0.78676
 C2252 C 0.07219 0.30873 0.79509
 C2253 C 0.04768 0.27775 0.78175
 C2254 C 0.04001 0.27057 0.77329
 H2255 H 0.07962 0.28283 0.82211
 H2256 H 0.06104 0.26876 0.80738
 H2257 H 0.05692 0.30573 0.77673
 H2258 H 0.07545 0.31977 0.79143
 C2259 C 0.09957 0.81651 0.32158
 C2260 C 0.08984 0.80993 0.31496
 C2261 C 0.07847 0.80220 0.30661
 C2262 C 0.07364 0.78805 0.31116
 C2263 C 0.06323 0.78023 0.30248
 C2264 C 0.05760 0.78654 0.28923
 C2265 C 0.06225 0.80078 0.28483
 C2266 C 0.07264 0.80859 0.29350
 C2267 C 0.04786 0.77809 0.27958
 C2268 C 0.04023 0.77106 0.27096
 H2269 H 0.07811 0.78297 0.32124
 H2270 H 0.05979 0.76918 0.30594
 H2271 H 0.05807 0.80573 0.27455
 H2272 H 0.07633 0.81950 0.28984
 C2273 C 0.59610 0.67895 0.68731
 C2274 C 0.58678 0.68541 0.69462
 C2275 C 0.57602 0.69367 0.70329
 C2276 C 0.56579 0.70304 0.69602
 C2277 C 0.55623 0.71212 0.70444
 C2278 C 0.55685 0.71186 0.72016
 C2279 C 0.56684 0.70224 0.72744
 C2280 C 0.57640 0.69315 0.71902
 C2281 C 0.54800 0.72224 0.72870
 C2282 C 0.54089 0.73143 0.73553
 H2283 H 0.56545 0.70360 0.68387
 H2284 H 0.54862 0.71959 0.69869
 H2285 H 0.56748 0.70202 0.73959
 H2286 H 0.58432 0.68599 0.72475
 C2287 C 0.59802 0.18311 0.18518
 C2288 C 0.58822 0.18943 0.19192
 C2289 C 0.57696 0.19722 0.20036
 C2290 C 0.57622 0.19544 0.21597
 C2291 C 0.56615 0.20393 0.22440
 C2292 C 0.55678 0.21423 0.21724
 C2293 C 0.55725 0.21573 0.20158
 C2294 C 0.56733 0.20724 0.19315
 C2295 C 0.54757 0.22403 0.22604
 C2296 C 0.54029 0.23272 0.23332
 H2297 H 0.58367 0.18777 0.22166
 H2298 H 0.56593 0.20274 0.23651
 H2299 H 0.55011 0.22373 0.19594
 H2300 H 0.56787 0.20874 0.18108
 C2301 C 0.09670 0.68698 0.17901
 C2302 C 0.08750 0.69452 0.18536
 C2303 C 0.07693 0.70343 0.19361
 C2304 C 0.06681 0.71281 0.18615
 C2305 C 0.05693 0.72173 0.19443
 C2306 C 0.05716 0.72128 0.21017
 C2307 C 0.06719 0.71180 0.21757
 C2308 C 0.07703 0.70291 0.20932
 C2309 C 0.04752 0.73073 0.21895
 C2310 C 0.04000 0.73844 0.22708
 H2311 H 0.06664 0.71329 0.17399
 H2312 H 0.04923 0.72904 0.18859
 H2313 H 0.06750 0.71139 0.22973
 H2314 H 0.08481 0.69573 0.21521
 C2315 C 0.09559 0.18350 0.68261
 C2316 C 0.08641 0.19083 0.68919
 C2317 C 0.07599 0.19985 0.69744
 C2318 C 0.06701 0.21031 0.68999
 C2319 C 0.05758 0.21970 0.69824
 C2320 C 0.05714 0.21862 0.71393
 C2321 C 0.06602 0.20807 0.72133
 C2322 C 0.07543 0.19871 0.71311
 C2323 C 0.04796 0.22852 0.72262
 C2324 C 0.04062 0.23661 0.73050
 H2325 H 0.06746 0.21136 0.67788
 H2326 H 0.05080 0.22788 0.69243
 H2327 H 0.06582 0.20721 0.73347
 H2328 H 0.08242 0.19075 0.71898
 C2329 C 0.40183 0.68756 0.31997
 C2330 C 0.41130 0.69505 0.31401
 C2331 C 0.42234 0.70372 0.30615
 C2332 C 0.42850 0.69815 0.29283
 C2333 C 0.43846 0.70680 0.28448
 C2334 C 0.44235 0.72109 0.28941
 C2335 C 0.43640 0.72661 0.30288
 C2336 C 0.42641 0.71793 0.31126
 C2337 C 0.45170 0.73028 0.28007
 C2338 C 0.45911 0.73770 0.27159
 H2339 H 0.42538 0.68722 0.28874
 H2340 H 0.44288 0.70246 0.27403
 H2341 H 0.43926 0.73769 0.30675
 H2342 H 0.42169 0.72238 0.32153
 C2343 C 0.40329 0.18123 0.81509
 C2344 C 0.41255 0.18814 0.80815
 C2345 C 0.42330 0.19655 0.79960
 C2346 C 0.43368 0.20571 0.80690
 C2347 C 0.44354 0.21448 0.79850
 C2348 C 0.44307 0.21410 0.78276
 C2349 C 0.43287 0.20475 0.77548
 C2350 C 0.42302 0.19599 0.78388
 C2351 C 0.45233 0.22400 0.77409
 C2352 C 0.45962 0.23271 0.76684
 H2353 H 0.43399 0.20624 0.81906
 H2354 H 0.45132 0.22174 0.80425
 H2355 H 0.43235 0.20445 0.76333
 H2356 H 0.41504 0.18898 0.77810
 C2357 C 0.90377 0.67930 0.81322
 C2358 C 0.91323 0.68567 0.80606
 C2359 C 0.92409 0.69384 0.79748
 C2360 C 0.92592 0.69100 0.78210
 C2361 C 0.93542 0.69997 0.77350
 C2362 C 0.94310 0.71179 0.78027
 C2363 C 0.94156 0.71435 0.79571
 C2364 C 0.93208 0.70540 0.80429
 C2365 C 0.95174 0.72200 0.77138
 C2366 C 0.95868 0.73118 0.76440
 H2367 H 0.91975 0.68211 0.77671
 H2368 H 0.93649 0.69793 0.76155
 H2369 H 0.94739 0.72350 0.80103
 H2370 H 0.93069 0.70774 0.81615
 C2371 C 0.90514 0.17873 0.31093
 C2372 C 0.91518 0.18431 0.30392
 C2373 C 0.92674 0.19163 0.29553
 C2374 C 0.92708 0.19050 0.27983
 C2375 C 0.93714 0.19913 0.27155
 C2376 C 0.94688 0.20887 0.27896
 C2377 C 0.94688 0.20959 0.29467
 C2378 C 0.93683 0.20098 0.30294
 C2379 C 0.95569 0.21929 0.27054
 C2380 C 0.96254 0.22873 0.26388
 H2381 H 0.91926 0.18336 0.27399
 H2382 H 0.93697 0.19860 0.25939
 H2383 H 0.95427 0.21720 0.30049
 H2384 H 0.93658 0.20201 0.31506
 C2385 C 0.32325 0.31330 0.59638
 C2386 C 0.31743 0.30566 0.58692
 C2387 C 0.30986 0.29667 0.57592
 C2388 C 0.31280 0.28136 0.57488
 C2389 C 0.30442 0.27247 0.56510
 C2390 C 0.29309 0.27888 0.55634
 C2391 C 0.29043 0.29424 0.55713
 C2392 C 0.29879 0.30311 0.56689
 C2393 C 0.28339 0.26966 0.54745
 C2394 C 0.27466 0.26220 0.54043
 H2395 H 0.32129 0.27625 0.58187
 H2396 H 0.30650 0.26059 0.56465
 H2397 H 0.28163 0.29929 0.55049
 H2398 H 0.29636 0.31492 0.56768
 C2399 C 0.31382 0.82180 0.09465
 C2400 C 0.30656 0.81469 0.08580
 C2401 C 0.29808 0.80553 0.07568
 C2402 C 0.28449 0.81060 0.06972
 C2403 C 0.27596 0.80123 0.06054
 C2404 C 0.28101 0.78679 0.05733
 C2405 C 0.29465 0.78181 0.06319
 C2406 C 0.30315 0.79115 0.07234
 C2407 C 0.27214 0.77678 0.04845
 C2408 C 0.26509 0.76786 0.04127
 H2409 H 0.28042 0.82167 0.07233
 H2410 H 0.26539 0.80515 0.05613
 H2411 H 0.29861 0.77063 0.06085
 H2412 H 0.31358 0.78708 0.07699
 C2413 C 0.81990 0.31603 0.09651
 C2414 C 0.81301 0.30896 0.08732
 C2415 C 0.80443 0.30039 0.07671
 C2416 C 0.79136 0.30637 0.07045
 C2417 C 0.78253 0.29772 0.06086
 C2418 C 0.78674 0.28305 0.05749
 C2419 C 0.79992 0.27715 0.06360
 C2420 C 0.80874 0.28580 0.07318
 C2421 C 0.77729 0.27381 0.04832
 C2422 C 0.76941 0.26570 0.04098
 H2423 H 0.78788 0.31762 0.07317
 H2424 H 0.77233 0.30237 0.05627
 H2425 H 0.80325 0.26580 0.06114
 H2426 H 0.81877 0.28103 0.07802
 C2427 C 0.82161 0.81355 0.59752
 C2428 C 0.81588 0.80604 0.58787
 C2429 C 0.80845 0.79719 0.57664
 C2430 C 0.81078 0.78176 0.57597
 C2431 C 0.80249 0.77304 0.56594
 C2432 C 0.79186 0.77974 0.55654
 C2433 C 0.78982 0.79521 0.55696
 C2434 C 0.79809 0.80391 0.56697
 C2435 C 0.78216 0.77070 0.54741
 C2436 C 0.77343 0.76333 0.54027
 H2437 H 0.81870 0.77642 0.58345
 H2438 H 0.80409 0.76108 0.56581
 H2439 H 0.78154 0.80050 0.54984
 H2440 H 0.79613 0.81582 0.56745
 C2441 C 0.31557 0.67296 0.40107
 C2442 C 0.30827 0.67915 0.41059
 C2443 C 0.29982 0.68736 0.42160
 C2444 C 0.30585 0.70043 0.42767
 C2445 C 0.29735 0.70921 0.43742
 C2446 C 0.28275 0.70499 0.44117
 C2447 C 0.27681 0.69175 0.43537
 C2448 C 0.28534 0.68294 0.42558
 C2449 C 0.27377 0.71474 0.45033
 C2450 C 0.26656 0.72345 0.45769
 H2451 H 0.31701 0.70398 0.42463
 H2452 H 0.30205 0.71945 0.44179
 H2453 H 0.26553 0.68839 0.43817
 H2454 H 0.28055 0.67287 0.42092
 C2455 C 0.31845 0.17714 0.89974
 C2456 C 0.31130 0.18347 0.90928
 C2457 C 0.30266 0.19137 0.92035
 C2458 C 0.28812 0.18674 0.92388
 C2459 C 0.27937 0.19511 0.93384
 C2460 C 0.28516 0.20811 0.94032
 C2461 C 0.29980 0.21253 0.93703
 C2462 C 0.30853 0.20419 0.92708
 C2463 C 0.27594 0.21744 0.94966
 C2464 C 0.26851 0.22582 0.95716
 H2465 H 0.28347 0.17684 0.91874
 H2466 H 0.26805 0.19160 0.93627
 H2467 H 0.30437 0.22259 0.94193
 H2468 H 0.31974 0.20787 0.92443
 C2469 C 0.82258 0.68355 0.90138
 C2470 C 0.81589 0.69036 0.91093
 C2471 C 0.80735 0.69834 0.92204
 C2472 C 0.80995 0.71353 0.92461
 C2473 C 0.80086 0.72146 0.93463
 C2474 C 0.78916 0.71423 0.94212
 C2475 C 0.78676 0.69899 0.93976
 C2476 C 0.79583 0.69107 0.92975
 C2477 C 0.77906 0.72252 0.95155
 C2478 C 0.77015 0.72928 0.95910
 H2479 H 0.81879 0.71928 0.91867
 H2480 H 0.80278 0.73326 0.93632
 H2481 H 0.77771 0.69329 0.94543
 H2482 H 0.79368 0.67935 0.92782
 C2483 C 0.82627 0.18365 0.40161
 C2484 C 0.81971 0.19037 0.41132
 C2485 C 0.81118 0.19828 0.42248
 C2486 C 0.79933 0.19110 0.42976
 C2487 C 0.79005 0.19907 0.43952
 C2488 C 0.79258 0.21425 0.44207
 C2489 C 0.80464 0.22137 0.43506
 C2490 C 0.81394 0.21339 0.42529
 C2491 C 0.78221 0.22260 0.45113
 C2492 C 0.77307 0.22938 0.45837
 H2493 H 0.79704 0.17945 0.42761
 H2494 H 0.78071 0.19347 0.44480
 H2495 H 0.80665 0.23314 0.43689
 H2496 H 0.82303 0.21907 0.41967
 C2497 C 0.67790 0.31063 0.40289
 C2498 C 0.68401 0.30283 0.41205
 C2499 C 0.69185 0.29369 0.42276
 C2500 C 0.68934 0.27828 0.42336
 C2501 C 0.69782 0.26933 0.43304
 C2502 C 0.70882 0.27577 0.44215
 C2503 C 0.71107 0.29121 0.44178
 C2504 C 0.70261 0.30014 0.43212
 C2505 C 0.71853 0.26660 0.45116
 C2506 C 0.72731 0.25934 0.45841
 H2507 H 0.68103 0.27317 0.41616
 H2508 H 0.69601 0.25740 0.43320
 H2509 H 0.71957 0.29631 0.44874
 H2510 H 0.70466 0.31202 0.43175
 C2511 C 0.67598 0.81157 0.90494
 C2512 C 0.68175 0.80375 0.91431
 C2513 C 0.68926 0.79452 0.92519
 C2514 C 0.68700 0.77906 0.92532
 C2515 C 0.69540 0.77000 0.93495
 C2516 C 0.70608 0.77636 0.94449
 C2517 C 0.70805 0.79184 0.94463
 C2518 C 0.69967 0.80089 0.93501
 C2519 C 0.71586 0.76707 0.95330
 C2520 C 0.72469 0.75966 0.96032
 H2521 H 0.67902 0.77400 0.91773
 H2522 H 0.69384 0.75803 0.93469
 H2523 H 0.71635 0.79688 0.95187
 H2524 H 0.70158 0.81281 0.93495
 C2525 C 0.18709 0.32218 0.90472
 C2526 C 0.19464 0.31596 0.91401
 C2527 C 0.20391 0.30815 0.92461
 C2528 C 0.21941 0.30761 0.92242
 C2529 C 0.22834 0.29883 0.93180
 C2530 C 0.22181 0.29058 0.94342
 C2531 C 0.20637 0.29148 0.94590
 C2532 C 0.19743 0.30025 0.93651
 C2533 C 0.23068 0.28022 0.95195
 C2534 C 0.23777 0.27100 0.95874
 H2535 H 0.22452 0.31363 0.91322
 H2536 H 0.24025 0.29814 0.92972
 H2537 H 0.20119 0.28508 0.95481
 H2538 H 0.18546 0.30055 0.93828
 C2539 C 0.18495 0.82093 0.40543
 C2540 C 0.19210 0.81412 0.41463
 C2541 C 0.20065 0.80537 0.42509
 C2542 C 0.19625 0.79073 0.42821
 C2543 C 0.20510 0.78166 0.43733
 C2544 C 0.21843 0.78715 0.44340
 C2545 C 0.22269 0.80192 0.44061
 C2546 C 0.21380 0.81102 0.43146
 C2547 C 0.22789 0.77729 0.45192
 C2548 C 0.23542 0.76844 0.45873
 H2549 H 0.18613 0.78623 0.42332
 H2550 H 0.20171 0.77026 0.43942
 H2551 H 0.23297 0.80629 0.44527
 H2552 H 0.21732 0.82233 0.42911
 C2553 C 0.67854 0.68570 0.60084
 C2554 C 0.68493 0.69264 0.59120
 C2555 C 0.69300 0.70081 0.57991
 C2556 C 0.69016 0.71601 0.57765
 C2557 C 0.69874 0.72412 0.56737
 C2558 C 0.71017 0.71704 0.55930
 C2559 C 0.71281 0.70179 0.56136
 C2560 C 0.70424 0.69370 0.57164
 C2561 C 0.71989 0.72551 0.54966
 C2562 C 0.72857 0.73235 0.54196
 H2563 H 0.68152 0.72164 0.58404
 H2564 H 0.69667 0.73593 0.56593
 H2565 H 0.72169 0.69622 0.55526
 H2566 H 0.70658 0.68197 0.57334
 C2567 C 0.68130 0.17893 0.09847
 C2568 C 0.68841 0.18498 0.08872
 C2569 C 0.69723 0.19241 0.07747
 C2570 C 0.69181 0.20534 0.07052
 C2571 C 0.70086 0.21322 0.06047
 C2572 C 0.71537 0.20820 0.05733
 C2573 C 0.72067 0.19510 0.06403
 C2574 C 0.71162 0.18722 0.07408
 C2575 C 0.72510 0.21704 0.04805
 C2576 C 0.73327 0.22488 0.04073
 H2577 H 0.68074 0.20949 0.07311
 H2578 H 0.69668 0.22339 0.05543
 H2579 H 0.73190 0.19118 0.06177
 H2580 H 0.71596 0.17727 0.07944
 C2581 C 0.18466 0.67501 0.09879
 C2582 C 0.19189 0.68077 0.08895
 C2583 C 0.20039 0.68834 0.07756
 C2584 C 0.19478 0.70152 0.07131
 C2585 C 0.20346 0.70974 0.06126
 C2586 C 0.21781 0.70481 0.05738
 C2587 C 0.22330 0.69141 0.06330
 C2588 C 0.21459 0.68317 0.07339
 C2589 C 0.22712 0.71415 0.04817
 C2590 C 0.23457 0.72269 0.04091
 H2591 H 0.18384 0.70564 0.07450
 H2592 H 0.19913 0.72012 0.05680
 H2593 H 0.23440 0.68753 0.06041
 H2594 H 0.21904 0.67300 0.07818
 C2595 C 0.18027 0.18190 0.59914
 C2596 C 0.18692 0.18872 0.58960
 C2597 C 0.19512 0.19709 0.57858
 C2598 C 0.19126 0.21194 0.57559
 C2599 C 0.19989 0.22040 0.56567
 C2600 C 0.21240 0.21403 0.55871
 C2601 C 0.21608 0.19910 0.56147
 C2602 C 0.20745 0.19064 0.57139
 C2603 C 0.22199 0.22294 0.54941
 C2604 C 0.23049 0.23022 0.54193
 H2605 H 0.18176 0.21704 0.58113
 H2606 H 0.19700 0.23195 0.56365
 H2607 H 0.22577 0.19409 0.55619
 H2608 H 0.21056 0.17919 0.57366
   
