data_POSCAR
  _audit_creation_date              2014-09-24
  _audit_creation_method            'ToBaCCo'
  _symmetry_space_group_name_H-M    'P1'
  _symmetry_Int_Tables_number       1
  _symmetry_cell_setting            triclinic
  loop_
  _symmetry_equiv_pos_as_xyz
 x,y,z
_cell_length_a 56.8246
_cell_length_b 61.5803
_cell_length_c 58.8051
_cell_angle_alpha 89.940000
_cell_angle_beta 90.130800
_cell_angle_gamma 90.075500
loop_
  _atom_site_label
  _atom_site_type_symbol
  _atom_site_fract_x
  _atom_site_fract_y
  _atom_site_fract_z
O1 O 0.37351 0.33981 -0.02445
 O2 O 0.34299 0.37234 0.01902
 O3 O 0.37309 0.34032 0.01946
 O4 O 0.34347 0.37208 -0.02542
 O5 O 0.31478 0.34799 -0.02628
 O6 O 0.34310 0.31752 0.02009
 O7 O 0.31305 0.34951 0.01785
 O8 O 0.34428 0.31617 -0.02410
 Cu9 Cu 0.36117 0.35856 -0.00284
 Cu10 Cu 0.32584 0.33048 -0.00305
 C11 C 0.36420 0.32228 -0.03149
 C12 C 0.32266 0.36656 0.02568
 C13 C 0.36317 0.32344 0.02738
 C14 C 0.32412 0.36534 -0.03376
 O15 O 0.65734 0.62970 0.02561
 O16 O 0.62772 0.66047 -0.02005
 O17 O 0.65810 0.62859 -0.01856
 O18 O 0.62717 0.66163 0.02429
 O19 O 0.65684 0.68474 0.02453
 O20 O 0.68671 0.65276 -0.01956
 O21 O 0.65676 0.68427 -0.01985
 O22 O 0.68706 0.65277 0.02445
 Cu23 Cu 0.63961 0.64276 0.00286
 Cu24 Cu 0.67471 0.67105 0.00246
 C25 C 0.67750 0.63578 0.03252
 C26 C 0.63722 0.67765 -0.02776
 C27 C 0.67772 0.63505 -0.02649
 C28 C 0.63681 0.67881 0.03183
 O29 O 0.62485 0.33883 1.02262
 O30 O 0.65534 0.37032 0.97824
 O31 O 0.62456 0.33881 0.97827
 O32 O 0.65611 0.37011 1.02250
 O33 O 0.68450 0.34579 1.02229
 O34 O 0.65346 0.31493 0.97803
 O35 O 0.68397 0.34615 0.97803
 O36 O 0.65355 0.31476 1.02231
 Cu37 Cu 0.63732 0.35693 1.00047
 Cu38 Cu 0.67172 0.32801 1.00017
 C39 C 0.63398 0.32138 1.03004
 C40 C 0.67487 0.36357 0.97050
 C41 C 0.63377 0.32154 0.97049
 C42 C 0.67580 0.36330 1.02997
 O43 O 0.37429 0.66171 1.02203
 O44 O 0.34391 0.62956 0.97807
 O45 O 0.37490 0.66113 0.97808
 O46 O 0.34347 0.63011 1.02225
 O47 O 0.31474 0.65409 1.02146
 O48 O 0.34604 0.68507 0.97733
 O49 O 0.31536 0.65381 0.97706
 O50 O 0.34523 0.68546 1.02153
 Cu51 Cu 0.36200 0.64318 1.00017
 Cu52 Cu 0.32743 0.67197 0.99926
 C53 C 0.36498 0.67914 1.02920
 C54 C 0.32445 0.63625 0.97002
 C55 C 0.36592 0.67851 0.97031
 C56 C 0.32368 0.63677 1.02948
 O57 O -0.01838 0.37116 0.34416
 O58 O 0.02711 0.34080 0.37560
 O59 O 0.02723 0.37129 0.34467
 O60 O -0.01891 0.34040 0.37488
 O61 O -0.01731 0.31506 0.34852
 O62 O 0.02700 0.34672 0.31740
 O63 O 0.02826 0.31657 0.34803
 O64 O -0.01881 0.34570 0.31778
 Cu65 Cu 0.00418 0.35837 0.36258
 Cu66 Cu 0.00475 0.32854 0.33023
 C67 C -0.02633 0.36363 0.32557
 C68 C 0.03566 0.32360 0.36704
 C69 C 0.03487 0.36431 0.32574
 C70 C -0.02579 0.32221 0.36703
 O71 O 0.01898 0.65930 0.62529
 O72 O -0.02610 0.62824 0.65646
 O73 O -0.02661 0.65920 0.62601
 O74 O 0.01981 0.62840 0.65596
 O75 O 0.02013 0.65307 0.68312
 O76 O -0.02625 0.68351 0.65347
 O77 O -0.02565 0.65290 0.68364
 O78 O 0.01956 0.68369 0.65276
 Cu79 Cu -0.00349 0.64128 0.63822
 Cu80 Cu -0.00299 0.67073 0.67098
 C81 C 0.02688 0.67688 0.63366
 C82 C -0.03366 0.63533 0.67537
 C83 C -0.03438 0.67671 0.63462
 C84 C 0.02789 0.63550 0.67471
 O85 O 0.97805 0.65797 0.37537
 O86 O 1.02220 0.62593 0.34398
 O87 O 1.02365 0.65719 0.37394
 O88 O 0.97628 0.62616 0.34580
 O89 O 0.97497 0.65063 0.31841
 O90 O 1.02342 0.68068 0.34567
 O91 O 1.02041 0.64952 0.31575
 O92 O 0.97760 0.68201 0.34751
 Cu93 Cu 1.00012 0.63937 0.36256
 Cu94 Cu 0.99909 0.66813 0.32908
 C95 C 0.97040 0.67556 0.36678
 C96 C 1.02859 0.63218 0.32433
 C97 C 1.03168 0.67430 0.36466
 C98 C 0.96745 0.63316 0.32732
 O99 O 0.97535 0.34090 0.62752
 O100 O 1.02282 0.37050 0.65694
 O101 O 1.02090 0.33896 0.62718
 O102 O 0.97710 0.37217 0.65753
 O103 O 0.97519 0.34726 0.68449
 O104 O 1.02130 0.31578 0.65574
 O105 O 1.02075 0.34726 0.68546
 O106 O 0.97544 0.31627 0.65478
 Cu107 Cu 0.99916 0.35806 0.63950
 Cu108 Cu 0.99817 0.32920 0.67287
 C109 C 0.96746 0.32337 0.63600
 C110 C 1.02951 0.36420 0.67649
 C111 C 1.02869 0.32165 0.63629
 C112 C 0.96851 0.36525 0.67612
 O113 O 0.37057 0.02183 0.33886
 O114 O 0.33975 -0.02114 0.37090
 O115 O 0.37093 -0.02044 0.33841
 O116 O 0.33970 0.02129 0.37156
 O117 O 0.31091 0.02117 0.34632
 O118 O 0.34218 -0.02039 0.31316
 O119 O 0.31103 -0.02065 0.34558
 O120 O 0.34174 0.02206 0.31368
 Cu121 Cu 0.35812 0.00035 0.35748
 Cu122 Cu 0.32367 0.00056 0.32706
 C123 C 0.36133 0.02934 0.32079
 C124 C 0.31999 -0.02808 0.36378
 C125 C 0.36188 -0.02758 0.32011
 C126 C 0.31988 0.02825 0.36467
 O127 O 0.66128 -0.01992 0.62923
 O128 O 0.62983 0.02211 0.66170
 O129 O 0.66080 0.02248 0.62918
 O130 O 0.63028 -0.02032 0.66170
 O131 O 0.65876 -0.01980 0.68728
 O132 O 0.68947 0.02254 0.65455
 O133 O 0.65836 0.02220 0.68723
 O134 O 0.68990 -0.01946 0.65466
 Cu135 Cu 0.64267 0.00106 0.64289
 Cu136 Cu 0.67698 0.00141 0.67348
 C137 C 0.68104 -0.02678 0.63635
 C138 C 0.63868 0.02923 0.68010
 C139 C 0.68045 0.02971 0.63625
 C140 C 0.63926 -0.02727 0.68013
 O141 O 0.37010 0.97556 0.66424
 O142 O 0.33774 1.01788 0.63286
 O143 O 0.36976 1.01779 0.66469
 O144 O 0.33809 0.97563 0.63230
 O145 O 0.31034 0.97506 0.65845
 O146 O 0.34188 1.01729 0.69071
 O147 O 0.30997 1.01736 0.65899
 O148 O 0.34222 0.97503 0.69026
 Cu149 Cu 0.35671 0.99676 0.64590
 Cu150 Cu 0.32331 0.99612 0.67720
 C151 C 0.36171 0.96809 0.68267
 C152 C 0.31831 1.02489 0.64058
 C153 C 0.36124 1.02476 0.68326
 C154 C 0.31877 0.96814 0.63982
 O155 O 0.62999 0.98100 0.33717
 O156 O 0.66159 1.02356 0.36893
 O157 O 0.62943 1.02295 0.33707
 O158 O 0.66207 0.98121 0.36910
 O159 O 0.68992 0.98160 0.34304
 O160 O 0.65738 1.02332 0.31106
 O161 O 0.68920 1.02396 0.34269
 O162 O 0.65809 0.98102 0.31131
 Cu163 Cu 0.64303 1.00215 0.35575
 Cu164 Cu 0.67646 1.00249 0.32444
 C165 C 0.63863 0.97382 0.31876
 C166 C 0.68078 1.03119 0.36119
 C167 C 0.63779 1.03018 0.31853
 C168 C 0.68156 0.97421 0.36151
 C169 C 0.80988 0.81411 0.51049
 C170 C 0.81158 0.81430 0.48740
 C171 C 0.82789 0.79966 0.47498
 C172 C 0.79761 0.82980 0.47351
 C173 C 0.79601 0.83074 0.52268
 C174 C 0.82310 0.79845 0.52480
 C175 C 0.85182 0.79835 0.48096
 C176 C 0.86682 0.78421 0.46943
 C177 C 0.85833 0.77165 0.45127
 C178 C 0.83462 0.77347 0.44481
 C179 C 0.81951 0.78732 0.45661
 C180 C 0.80914 0.84471 0.45937
 C181 C 0.79626 0.85992 0.44686
 C182 C 0.77153 0.86034 0.44807
 C183 C 0.76002 0.84503 0.46193
 C184 C 0.77294 0.82989 0.47450
 C185 C 0.77616 0.82462 0.53526
 C186 C 0.76315 0.84026 0.54696
 C187 C 0.77017 0.86214 0.54664
 C188 C 0.79019 0.86818 0.53417
 C189 C 0.80294 0.85260 0.52216
 C190 C 0.82039 0.77595 0.52200
 C191 C 0.83396 0.76150 0.53489
 C192 C 0.85048 0.76932 0.55079
 C193 C 0.85278 0.79190 0.55372
 C194 C 0.83910 0.80627 0.54102
 H195 H 0.85890 0.80829 0.49452
 H196 H 0.88515 0.78335 0.47442
 H197 H 0.82772 0.76393 0.43083
 H198 H 0.80120 0.78825 0.45156
 H199 H 0.82818 0.84488 0.45841
 H200 H 0.80569 0.87163 0.43660
 H201 H 0.76372 0.81824 0.48505
 H202 H 0.77070 0.80778 0.53588
 H203 H 0.74788 0.83525 0.55663
 H204 H 0.79585 0.88498 0.53364
 H205 H 0.81836 0.85751 0.51264
 H206 H 0.80792 0.76963 0.50971
 H207 H 0.83148 0.74423 0.53245
 H208 H 0.86562 0.79854 0.56544
 H209 H 0.84154 0.82358 0.54332
 H210 H 0.74100 0.84465 0.46292
 C211 C 0.18848 0.18538 0.51569
 C212 C 0.19096 0.18609 0.49265
 C213 C 0.17846 0.20222 0.47828
 C214 C 0.20508 0.16955 0.48050
 C215 C 0.20230 0.16973 0.52951
 C216 C 0.17173 0.19963 0.52817
 C217 C 0.16404 0.19493 0.46047
 C218 C 0.15094 0.20964 0.44763
 C219 C 0.15215 0.23202 0.45216
 C220 C 0.16712 0.23939 0.46962
 C221 C 0.18027 0.22460 0.48250
 C222 C 0.19805 0.14770 0.48054
 C223 C 0.21088 0.13225 0.46840
 C224 C 0.23108 0.13838 0.45626
 C225 C 0.23824 0.16023 0.45645
 C226 C 0.22516 0.17575 0.46828
 C227 C 0.22698 0.17003 0.52911
 C228 C 0.23983 0.15480 0.54162
 C229 C 0.22822 0.13905 0.55482
 C230 C 0.20347 0.13908 0.55548
 C231 C 0.19065 0.15436 0.54301
 C232 C 0.17923 0.21053 0.54788
 C233 C 0.16373 0.22381 0.55992
 C234 C 0.14052 0.22662 0.55231
 C235 C 0.13285 0.21557 0.53280
 C236 C 0.14819 0.20185 0.52109
 H237 H 0.16233 0.17773 0.45696
 H238 H 0.13931 0.20340 0.43457
 H239 H 0.16866 0.25655 0.47330
 H240 H 0.19159 0.23057 0.49597
 H241 H 0.18246 0.14271 0.48973
 H242 H 0.20510 0.11548 0.46855
 H243 H 0.23071 0.19258 0.46800
 H244 H 0.23626 0.18203 0.51907
 H245 H 0.25886 0.15546 0.54109
 H246 H 0.19400 0.12702 0.56525
 H247 H 0.17160 0.15391 0.54351
 H248 H 0.19719 0.20888 0.55386
 H249 H 0.16992 0.23217 0.57500
 H250 H 0.11488 0.21728 0.52690
 H251 H 0.14164 0.19296 0.50651
 H252 H 0.25365 0.16533 0.44703
 C253 C 0.18977 0.81125 0.48695
 C254 C 0.18814 0.81133 0.51006
 C255 C 0.17168 0.79679 0.52251
 C256 C 0.20227 0.82669 0.52399
 C257 C 0.20376 0.82791 0.47485
 C258 C 0.17639 0.79572 0.47258
 C259 C 0.14774 0.79562 0.51656
 C260 C 0.13252 0.78186 0.52841
 C261 C 0.14081 0.76956 0.54687
 C262 C 0.16457 0.77119 0.55324
 C263 C 0.17988 0.78464 0.54111
 C264 C 0.19088 0.84144 0.53838
 C265 C 0.20390 0.85630 0.55121
 C266 C 0.22863 0.85655 0.55009
 C267 C 0.24001 0.84149 0.53589
 C268 C 0.22694 0.82668 0.52300
 C269 C 0.22368 0.82186 0.46236
 C270 C 0.23692 0.83758 0.45094
 C271 C 0.23007 0.85948 0.45145
 C272 C 0.20997 0.86545 0.46380
 C273 C 0.19699 0.84980 0.47552
 C274 C 0.17880 0.77320 0.47541
 C275 C 0.16506 0.75886 0.46253
 C276 C 0.14863 0.76681 0.44661
 C277 C 0.14669 0.78941 0.44357
 C278 C 0.16055 0.80367 0.45628
 H279 H 0.14078 0.80544 0.50283
 H280 H 0.11416 0.78113 0.52347
 H281 H 0.17131 0.76185 0.56744
 H282 H 0.19820 0.78548 0.54616
 H283 H 0.17185 0.84169 0.53935
 H284 H 0.19458 0.86785 0.56171
 H285 H 0.23606 0.81515 0.51228
 H286 H 0.22903 0.80500 0.46164
 H287 H 0.25225 0.83262 0.44135
 H288 H 0.20444 0.88226 0.46446
 H289 H 0.18154 0.85467 0.48499
 H290 H 0.19116 0.76676 0.48773
 H291 H 0.16730 0.74157 0.46504
 H292 H 0.13396 0.79616 0.43182
 H293 H 0.15835 0.82099 0.45392
 H294 H 0.25902 0.84100 0.53493
 C295 C 0.80883 0.19081 0.48649
 C296 C 0.80749 0.19022 0.50953
 C297 C 0.82175 0.20497 0.52390
 C298 C 0.79340 0.17346 0.52140
 C299 C 0.79480 0.17586 0.47216
 C300 C 0.82587 0.20510 0.47475
 C301 C 0.83813 0.19627 0.53925
 C302 C 0.85243 0.20995 0.55218
 C303 C 0.85050 0.23263 0.55015
 C304 C 0.83371 0.24131 0.53507
 C305 C 0.81941 0.22759 0.52211
 C306 C 0.80021 0.15158 0.52061
 C307 C 0.78752 0.13590 0.53262
 C308 C 0.76766 0.14182 0.54535
 C309 C 0.76067 0.16369 0.54584
 C310 C 0.77364 0.17944 0.53414
 C311 C 0.77013 0.17632 0.47267
 C312 C 0.75706 0.16146 0.45985
 C313 C 0.76846 0.14582 0.44637
 C314 C 0.79322 0.14564 0.44576
 C315 C 0.80623 0.16061 0.45841
 C316 C 0.81803 0.22354 0.46297
 C317 C 0.83415 0.23705 0.45189
 C318 C 0.85820 0.23191 0.45198
 C319 C 0.86600 0.21335 0.46359
 C320 C 0.84995 0.20013 0.47511
 H321 H 0.84023 0.17885 0.54081
 H322 H 0.86542 0.20276 0.56339
 H323 H 0.83156 0.25871 0.53340
 H324 H 0.80656 0.23458 0.51062
 H325 H 0.81556 0.14676 0.51096
 H326 H 0.79316 0.11911 0.53195
 H327 H 0.76827 0.19629 0.53498
 H328 H 0.76104 0.18814 0.48305
 H329 H 0.73805 0.16229 0.46041
 H330 H 0.80258 0.13360 0.43592
 H331 H 0.82527 0.15991 0.45796
 H332 H 0.79947 0.22752 0.46255
 H333 H 0.82787 0.25127 0.44289
 H334 H 0.88451 0.20917 0.46377
 H335 H 0.85622 0.18590 0.48409
 H336 H 0.74552 0.16862 0.55569
 C337 C 0.51692 0.81301 0.81230
 C338 C 0.49301 0.81338 0.81394
 C339 C 0.47881 0.82848 0.79982
 C340 C 0.47989 0.79928 0.83013
 C341 C 0.53152 0.79739 0.82538
 C342 C 0.52965 0.82937 0.79851
 C343 C 0.46406 0.84366 0.81032
 C344 C 0.45100 0.85826 0.79723
 C345 C 0.45230 0.85782 0.77335
 C346 C 0.46683 0.84232 0.76287
 C347 C 0.47992 0.82774 0.77600
 C348 C 0.48610 0.79834 0.85327
 C349 C 0.47385 0.78474 0.86816
 C350 C 0.45470 0.77237 0.86035
 C351 C 0.44801 0.77384 0.83740
 C352 C 0.46054 0.78712 0.82242
 C353 C 0.52747 0.77493 0.82406
 C354 C 0.54000 0.76062 0.83804
 C355 C 0.55696 0.76854 0.85342
 C356 C 0.56152 0.79098 0.85405
 C357 C 0.54902 0.80523 0.84009
 C358 C 0.54215 0.82299 0.77911
 C359 C 0.55387 0.83847 0.76590
 C360 C 0.55373 0.86045 0.77225
 C361 C 0.54149 0.86674 0.79188
 C362 C 0.52940 0.85133 0.80483
 H363 H 0.46299 0.84443 0.82869
 H364 H 0.44021 0.87017 0.80582
 H365 H 0.46789 0.84131 0.74452
 H366 H 0.49090 0.81585 0.76759
 H367 H 0.50042 0.80813 0.85982
 H368 H 0.47906 0.78413 0.88588
 H369 H 0.45528 0.78776 0.80472
 H370 H 0.51427 0.76854 0.81255
 H371 H 0.53637 0.74339 0.83690
 H372 H 0.57421 0.79764 0.86591
 H373 H 0.55238 0.82250 0.84142
 H374 H 0.54254 0.80608 0.77408
 H375 H 0.56335 0.83327 0.75090
 H376 H 0.54109 0.88362 0.79703
 H377 H 0.51992 0.85646 0.81985
 H378 H 0.43330 0.76444 0.83101
 C379 C 0.50861 0.18534 0.18611
 C380 C 0.48459 0.18591 0.18552
 C381 C 0.47019 0.17197 0.20073
 C382 C 0.47151 0.20002 0.16926
 C383 C 0.52301 0.20055 0.17228
 C384 C 0.52177 0.16916 0.20003
 C385 C 0.45363 0.15768 0.19129
 C386 C 0.44101 0.14348 0.20519
 C387 C 0.44450 0.14346 0.22888
 C388 C 0.46059 0.15830 0.23837
 C389 C 0.47326 0.17249 0.22442
 C390 C 0.47683 0.19995 0.14592
 C391 C 0.46494 0.21377 0.13098
 C392 C 0.44697 0.22737 0.13896
 C393 C 0.44098 0.22684 0.16210
 C394 C 0.45322 0.21334 0.17714
 C395 C 0.52006 0.22313 0.17403
 C396 C 0.53289 0.23715 0.16003
 C397 C 0.54903 0.22883 0.14418
 C398 C 0.55235 0.20624 0.14294
 C399 C 0.53956 0.19227 0.15694
 C400 C 0.54047 0.17604 0.21394
 C401 C 0.55320 0.16103 0.22686
 C402 C 0.54731 0.13890 0.22625
 C403 C 0.52879 0.13194 0.21221
 C404 C 0.51640 0.14688 0.19891
 H405 H 0.45102 0.15705 0.17305
 H406 H 0.42898 0.13208 0.19731
 H407 H 0.46337 0.15895 0.25658
 H408 H 0.48570 0.18368 0.23204
 H409 H 0.49027 0.18926 0.13928
 H410 H 0.46956 0.21367 0.11312
 H411 H 0.44862 0.21348 0.19500
 H412 H 0.50764 0.22984 0.18606
 H413 H 0.53023 0.25448 0.16163
 H414 H 0.56441 0.19931 0.13072
 H415 H 0.54207 0.17490 0.15536
 H416 H 0.54511 0.19308 0.21491
 H417 H 0.56744 0.16672 0.23758
 H418 H 0.52422 0.11489 0.21123
 H419 H 0.50265 0.14104 0.18769
 H420 H 0.42715 0.23719 0.16859
 C421 C 0.48779 0.18311 0.81470
 C422 C 0.51167 0.18423 0.81309
 C423 C 0.52488 0.16840 0.79919
 C424 C 0.52584 0.20009 0.82637
 C425 C 0.47434 0.19684 0.83087
 C426 C 0.47402 0.16759 0.80063
 C427 C 0.52537 0.14640 0.80538
 C428 C 0.53795 0.13149 0.79232
 C429 C 0.54994 0.13833 0.77273
 C430 C 0.54935 0.16035 0.76651
 C431 C 0.53713 0.17534 0.77983
 C432 C 0.54359 0.19252 0.84095
 C433 C 0.55594 0.20693 0.85485
 C434 C 0.55100 0.22930 0.85432
 C435 C 0.53367 0.23695 0.83919
 C436 C 0.52127 0.22248 0.82525
 C437 C 0.45509 0.20900 0.82304
 C438 C 0.44271 0.22246 0.83789
 C439 C 0.44949 0.22407 0.86080
 C440 C 0.46840 0.21153 0.86878
 C441 C 0.48048 0.19776 0.85402
 C442 C 0.47511 0.16826 0.77680
 C443 C 0.46252 0.15323 0.76375
 C444 C 0.44849 0.13732 0.77430
 C445 C 0.44718 0.13695 0.79818
 C446 C 0.45974 0.15200 0.81120
 H447 H 0.51610 0.14086 0.82038
 H448 H 0.53813 0.11456 0.79735
 H449 H 0.55863 0.16596 0.75154
 H450 H 0.53694 0.19230 0.77492
 H451 H 0.54734 0.17532 0.84215
 H452 H 0.56892 0.20045 0.86653
 H453 H 0.50786 0.22867 0.81387
 H454 H 0.44991 0.20836 0.80531
 H455 H 0.42816 0.23200 0.83140
 H456 H 0.47364 0.21225 0.88648
 H457 H 0.49476 0.18797 0.86062
 H458 H 0.48571 0.18044 0.76833
 H459 H 0.46358 0.15421 0.74540
 H460 H 0.43679 0.12475 0.80685
 H461 H 0.45867 0.15125 0.82958
 H462 H 0.52970 0.25411 0.83814
 C463 C 0.48800 0.81819 0.18424
 C464 C 0.51203 0.81844 0.18478
 C465 C 0.52539 0.83455 0.19855
 C466 C 0.52621 0.80295 0.17109
 C467 C 0.47471 0.80403 0.16825
 C468 C 0.47378 0.83245 0.19925
 C469 C 0.52036 0.85686 0.19715
 C470 C 0.53265 0.87172 0.21061
 C471 C 0.55073 0.86462 0.22508
 C472 C 0.55639 0.84247 0.22587
 C473 C 0.54375 0.82754 0.21279
 C474 C 0.54297 0.81093 0.15573
 C475 C 0.55562 0.79671 0.14192
 C476 C 0.55194 0.77416 0.14335
 C477 C 0.53556 0.76616 0.15919
 C478 C 0.52289 0.78042 0.17301
 C479 C 0.45639 0.79086 0.17643
 C480 C 0.44404 0.77719 0.16167
 C481 C 0.44995 0.77636 0.13853
 C482 C 0.46794 0.78982 0.13024
 C483 C 0.47994 0.80381 0.14490
 C484 C 0.47669 0.83207 0.22297
 C485 C 0.46391 0.84629 0.23674
 C486 C 0.44787 0.86106 0.22707
 C487 C 0.44464 0.86100 0.20334
 C488 C 0.45736 0.84676 0.18962
 H489 H 0.50687 0.86277 0.18568
 H490 H 0.52829 0.88881 0.20949
 H491 H 0.57033 0.83670 0.23692
 H492 H 0.54811 0.81045 0.21395
 H493 H 0.54579 0.82826 0.15401
 H494 H 0.56787 0.80343 0.12971
 H495 H 0.51031 0.77393 0.18505
 H496 H 0.45189 0.79093 0.19432
 H497 H 0.43019 0.76694 0.16838
 H498 H 0.47247 0.78968 0.11236
 H499 H 0.49343 0.81437 0.13805
 H500 H 0.48900 0.82088 0.23076
 H501 H 0.46650 0.84566 0.25498
 H502 H 0.43268 0.87234 0.19530
 H503 H 0.45486 0.84729 0.17136
 H504 H 0.53261 0.74887 0.16096
 C505 C 0.80567 0.51128 0.81068
 C506 C 0.80649 0.48916 0.80967
 C507 C 0.79146 0.47541 0.82446
 C508 C 0.82304 0.47742 0.79441
 C509 C 0.82007 0.52503 0.79531
 C510 C 0.79114 0.52299 0.82778
 C511 C 0.80206 0.46026 0.83902
 C512 C 0.78838 0.44765 0.85362
 C513 C 0.76374 0.44973 0.85376
 C514 C 0.75310 0.46466 0.83881
 C515 C 0.76685 0.47736 0.82423
 C516 C 0.84725 0.48218 0.79436
 C517 C 0.86258 0.47062 0.78031
 C518 C 0.85409 0.45364 0.76665
 C519 C 0.83000 0.44861 0.76699
 C520 C 0.81461 0.46045 0.78068
 C521 C 0.81838 0.52310 0.77157
 C522 C 0.83275 0.53569 0.75745
 C523 C 0.84891 0.55052 0.76685
 C524 C 0.85018 0.55264 0.79063
 C525 C 0.83581 0.54012 0.80468
 C526 C 0.77654 0.54013 0.82074
 C527 C 0.76357 0.55194 0.83663
 C528 C 0.76485 0.54666 0.85978
 C529 C 0.77937 0.52958 0.86694
 C530 C 0.79270 0.51803 0.85110
 H531 H 0.82103 0.45856 0.83945
 H532 H 0.79716 0.43659 0.86516
 H533 H 0.73415 0.46640 0.83827
 H534 H 0.75834 0.48875 0.81285
 H535 H 0.85434 0.49465 0.80538
 H536 H 0.88117 0.47452 0.78058
 H537 H 0.79607 0.45634 0.78061
 H538 H 0.80606 0.51176 0.76402
 H539 H 0.83113 0.53391 0.73920
 H540 H 0.86268 0.56365 0.79843
 H541 H 0.83738 0.54182 0.82296
 H542 H 0.77526 0.54442 0.80291
 H543 H 0.75256 0.56522 0.83092
 H544 H 0.78077 0.52556 0.88483
 H545 H 0.80446 0.50543 0.85707
 H546 H 0.82310 0.43557 0.75658
 C547 C 0.19340 0.51185 0.19088
 C548 C 0.19462 0.48984 0.19033
 C549 C 0.20895 0.47851 0.17306
 C550 C 0.17998 0.47609 0.20548
 C551 C 0.17619 0.52318 0.20547
 C552 C 0.20771 0.52553 0.17543
 C553 C 0.20267 0.47955 0.15000
 C554 C 0.21555 0.46805 0.13382
 C555 C 0.23504 0.45553 0.14043
 C556 C 0.24151 0.45478 0.16349
 C557 C 0.22838 0.46601 0.17973
 C558 C 0.16424 0.46107 0.19597
 C559 C 0.14972 0.44854 0.20990
 C560 C 0.15079 0.45062 0.23370
 C561 C 0.16686 0.46547 0.24322
 C562 C 0.18136 0.47806 0.22923
 C563 C 0.18400 0.53613 0.22357
 C564 C 0.16777 0.54703 0.23724
 C565 C 0.14357 0.54552 0.23261
 C566 C 0.13582 0.53264 0.21437
 C567 C 0.15202 0.52143 0.20098
 C568 C 0.23237 0.52523 0.17647
 C569 C 0.24564 0.53788 0.16144
 C570 C 0.23446 0.55094 0.14498
 C571 C 0.20971 0.55117 0.14412
 C572 C 0.19650 0.53873 0.15931
 H573 H 0.18758 0.48901 0.14465
 H574 H 0.21031 0.46890 0.11612
 H575 H 0.25637 0.44507 0.16896
 H576 H 0.23332 0.46498 0.19750
 H577 H 0.16281 0.45938 0.17768
 H578 H 0.13729 0.43754 0.20199
 H579 H 0.19366 0.48935 0.23690
 H580 H 0.20264 0.53768 0.22715
 H581 H 0.17410 0.55704 0.25111
 H582 H 0.11722 0.53122 0.21056
 H583 H 0.14577 0.51158 0.18695
 H584 H 0.24129 0.51525 0.18897
 H585 H 0.26463 0.53757 0.16284
 H586 H 0.20049 0.56065 0.13142
 H587 H 0.17747 0.53903 0.15815
 H588 H 0.16836 0.46721 0.26148
 C589 C 0.80899 0.48565 0.19192
 C590 C 0.80727 0.50770 0.19266
 C591 C 0.79255 0.51961 0.17600
 C592 C 0.82135 0.52120 0.20862
 C593 C 0.82601 0.47334 0.20622
 C594 C 0.79443 0.47278 0.17583
 C595 C 0.79864 0.51977 0.15290
 C596 C 0.78553 0.53199 0.13739
 C597 C 0.76601 0.54404 0.14473
 C598 C 0.75972 0.54357 0.16781
 C599 C 0.77308 0.53162 0.18339
 C600 C 0.83573 0.53773 0.19989
 C601 C 0.84970 0.55024 0.21435
 C602 C 0.84943 0.54669 0.23797
 C603 C 0.83475 0.53030 0.24678
 C604 C 0.82075 0.51772 0.23222
 C605 C 0.81831 0.45506 0.21842
 C606 C 0.83411 0.44301 0.23156
 C607 C 0.85787 0.44913 0.23287
 C608 C 0.86567 0.46728 0.22052
 C609 C 0.84995 0.47907 0.20701
 C610 C 0.76977 0.47302 0.17708
 C611 C 0.75629 0.46092 0.16170
 C612 C 0.76723 0.44836 0.14477
 C613 C 0.79198 0.44819 0.14367
 C614 C 0.80541 0.46014 0.15915
 H615 H 0.81378 0.51073 0.14700
 H616 H 0.79063 0.53207 0.11966
 H617 H 0.74484 0.55289 0.17385
 H618 H 0.76830 0.53174 0.20121
 H619 H 0.83658 0.54064 0.18174
 H620 H 0.86111 0.56242 0.20695
 H621 H 0.80953 0.50522 0.23933
 H622 H 0.79999 0.45018 0.21785
 H623 H 0.82773 0.42907 0.24096
 H624 H 0.88401 0.47206 0.22099
 H625 H 0.85652 0.49259 0.19710
 H626 H 0.76101 0.48249 0.19005
 H627 H 0.73732 0.46115 0.16328
 H628 H 0.80100 0.43904 0.13063
 H629 H 0.82442 0.45983 0.15789
 H630 H 0.83395 0.52734 0.26491
 C631 C 0.19358 0.49056 0.80557
 C632 C 0.19363 0.51264 0.80670
 C633 C 0.20836 0.52472 0.82337
 C634 C 0.17782 0.52581 0.79201
 C635 C 0.17653 0.47881 0.79104
 C636 C 0.20885 0.47692 0.82023
 C637 C 0.20788 0.51958 0.84667
 C638 C 0.22156 0.53132 0.86213
 C639 C 0.23532 0.54887 0.85469
 C640 C 0.23537 0.55438 0.83153
 C641 C 0.22207 0.54234 0.81599
 C642 C 0.17889 0.52440 0.76820
 C643 C 0.16355 0.53662 0.75466
 C644 C 0.14696 0.55056 0.76470
 C645 C 0.14616 0.55205 0.78855
 C646 C 0.16150 0.53988 0.80204
 C647 C 0.18453 0.46623 0.77278
 C648 C 0.16857 0.45447 0.75951
 C649 C 0.14446 0.45475 0.76471
 C650 C 0.13650 0.46734 0.78303
 C651 C 0.15241 0.47939 0.79603
 C652 C 0.23347 0.47860 0.81950
 C653 C 0.24742 0.46584 0.83392
 C654 C 0.23695 0.45125 0.84936
 C655 C 0.21225 0.44969 0.84989
 C656 C 0.19841 0.46220 0.83535
 H657 H 0.19672 0.50666 0.85295
 H658 H 0.22096 0.52707 0.88000
 H659 H 0.24584 0.56789 0.82546
 H660 H 0.22247 0.54678 0.79817
 H661 H 0.19163 0.51387 0.76014
 H662 H 0.16486 0.53535 0.73635
 H663 H 0.16038 0.54115 0.82038
 H664 H 0.20313 0.46554 0.76885
 H665 H 0.17507 0.44471 0.74557
 H666 H 0.11797 0.46782 0.78727
 H667 H 0.14603 0.48889 0.81023
 H668 H 0.24183 0.48977 0.80778
 H669 H 0.26637 0.46726 0.83284
 H670 H 0.20351 0.43907 0.86189
 H671 H 0.17943 0.46081 0.83630
 H672 H 0.13337 0.56237 0.79683
 C673 C 0.28548 0.40485 0.07450
 C674 C 0.31007 0.40673 0.07302
 C675 C 0.32220 0.39431 0.05685
 C676 C 0.30993 0.37982 0.04257
 C677 C 0.28529 0.37805 0.04443
 C678 C 0.27296 0.39066 0.06023
 C679 C 0.27260 0.41796 0.09133
 C680 C 0.24797 0.41633 0.09252
 C681 C 0.23579 0.42889 0.10846
 C682 C 0.24810 0.44271 0.12339
 C683 C 0.27279 0.44405 0.12212
 C684 C 0.28514 0.43183 0.10595
 C685 C 0.24834 0.38939 0.06202
 C686 C 0.23605 0.40208 0.07783
 C687 C 0.32199 0.42092 0.08780
 C688 C 0.30975 0.43319 0.10405
 H689 H 0.23849 0.37853 0.05106
 H690 H 0.21706 0.40065 0.07862
 H691 H 0.34095 0.42250 0.08686
 H692 H 0.31963 0.44386 0.11518
 H693 H 0.34118 0.39568 0.05560
 H694 H 0.27569 0.36706 0.03339
 H695 H 0.21679 0.42768 0.10958
 H696 H 0.28227 0.45479 0.13352
 C697 C 0.71488 0.59726 0.08122
 C698 C 0.72725 0.61205 0.06752
 C699 C 0.71480 0.62492 0.05196
 C700 C 0.69022 0.62280 0.04973
 C701 C 0.67808 0.60784 0.06357
 C702 C 0.69033 0.59514 0.07950
 C703 C 0.72792 0.58364 0.09758
 C704 C 0.71555 0.56905 0.11152
 C705 C 0.72806 0.55620 0.12712
 C706 C 0.75275 0.55765 0.12844
 C707 C 0.76488 0.57226 0.11424
 C708 C 0.75253 0.58543 0.09889
 C709 C 0.67857 0.58029 0.09367
 C710 C 0.69096 0.56754 0.10948
 C711 C 0.75184 0.61352 0.06949
 C712 C 0.76428 0.60037 0.08486
 H713 H 0.65963 0.57853 0.09254
 H714 H 0.68121 0.55632 0.12010
 H715 H 0.76157 0.62484 0.05898
 H716 H 0.78326 0.60192 0.08577
 H717 H 0.72431 0.63625 0.04125
 H718 H 0.65915 0.60617 0.06202
 H719 H 0.71873 0.54486 0.13796
 H720 H 0.78387 0.57355 0.11542
 C721 C 0.71114 0.39975 0.91914
 C722 C 0.69225 0.40940 0.93067
 C723 C 0.68021 0.39743 0.94730
 C724 C 0.68718 0.37605 0.95260
 C725 C 0.70616 0.36664 0.94081
 C726 C 0.71814 0.37838 0.92401
 C727 C 0.72403 0.41233 0.90182
 C728 C 0.74298 0.40267 0.89039
 C729 C 0.75547 0.41481 0.87427
 C730 C 0.74939 0.43658 0.86976
 C731 C 0.73013 0.44592 0.88121
 C732 C 0.71738 0.43385 0.89726
 C733 C 0.73707 0.36923 0.91208
 C734 C 0.74925 0.38115 0.89551
 C735 C 0.68593 0.43090 0.92546
 C736 C 0.69832 0.44294 0.90908
 H737 H 0.74259 0.35273 0.91565
 H738 H 0.76383 0.37353 0.88677
 H739 H 0.67139 0.43855 0.93423
 H740 H 0.69299 0.45952 0.90571
 H741 H 0.66568 0.40484 0.95632
 H742 H 0.71158 0.35017 0.94465
 H743 H 0.76999 0.40734 0.86529
 H744 H 0.72547 0.46273 0.87810
 C745 C 0.28766 0.59908 0.91986
 C746 C 0.28402 0.62159 0.92110
 C747 C 0.29615 0.63368 0.93757
 C748 C 0.31212 0.62345 0.95244
 C749 C 0.31589 0.60091 0.95072
 C750 C 0.30347 0.58859 0.93461
 C751 C 0.27451 0.58621 0.90294
 C752 C 0.27761 0.56360 0.90215
 C753 C 0.26467 0.55140 0.88633
 C754 C 0.24911 0.56176 0.87117
 C755 C 0.24645 0.58446 0.87196
 C756 C 0.25894 0.59676 0.88800
 C757 C 0.30633 0.56597 0.93310
 C758 C 0.29353 0.55367 0.91721
 C759 C 0.26826 0.63155 0.90590
 C760 C 0.25601 0.61936 0.88955
 H761 H 0.31844 0.55768 0.94441
 H762 H 0.29613 0.53625 0.91672
 H763 H 0.26536 0.64893 0.90665
 H764 H 0.24402 0.62767 0.87814
 H765 H 0.29330 0.65105 0.93872
 H766 H 0.32803 0.59292 0.96224
 H767 H 0.26681 0.53392 0.88561
 H768 H 0.23430 0.59241 0.86041
 C769 C 0.08830 0.28718 0.40264
 C770 C 0.08401 0.28294 0.37954
 C771 C 0.06695 0.29510 0.36797
 C772 C 0.05425 0.31147 0.37928
 C773 C 0.05907 0.31578 0.40236
 C774 C 0.07598 0.30355 0.41418
 C775 C 0.10565 0.27390 0.41508
 C776 C 0.10947 0.27767 0.43835
 C777 C 0.12527 0.26437 0.45030
 C778 C 0.13714 0.24737 0.43913
 C779 C 0.13355 0.24425 0.41564
 C780 C 0.11769 0.25734 0.40358
 C781 C 0.08057 0.30711 0.43738
 C782 C 0.09699 0.29435 0.44927
 C783 C 0.09667 0.26644 0.36854
 C784 C 0.11327 0.25388 0.38035
 H785 H 0.07121 0.31969 0.44648
 H786 H 0.09978 0.29745 0.46721
 H787 H 0.09357 0.26308 0.35070
 H788 H 0.12248 0.24117 0.37129
 H789 H 0.06348 0.29173 0.35018
 H790 H 0.04935 0.32830 0.41124
 H791 H 0.12769 0.26675 0.46842
 H792 H 0.14286 0.23145 0.40680
 C793 C 0.07672 0.71522 0.59678
 C794 C 0.07508 0.71754 0.62048
 C795 C 0.05880 0.70485 0.63248
 C796 C 0.04450 0.68970 0.62099
 C797 C 0.04667 0.68731 0.59727
 C798 C 0.06260 0.70021 0.58503
 C799 C 0.09338 0.72893 0.58400
 C800 C 0.09455 0.72706 0.56022
 C801 C 0.11008 0.74046 0.54811
 C802 C 0.12459 0.75535 0.55969
 C803 C 0.12342 0.75683 0.58354
 C804 C 0.10766 0.74379 0.59578
 C805 C 0.06449 0.69860 0.56127
 C806 C 0.08013 0.71186 0.54906
 C807 C 0.08964 0.73260 0.63166
 C808 C 0.10574 0.74543 0.61953
 H809 H 0.05366 0.68711 0.55201
 H810 H 0.08092 0.71022 0.53074
 H811 H 0.08858 0.73449 0.64995
 H812 H 0.11664 0.75686 0.62880
 H813 H 0.05731 0.70670 0.65076
 H814 H 0.03559 0.67580 0.58829
 H815 H 0.11111 0.73920 0.52975
 H816 H 0.13443 0.76844 0.59246
 C817 C 0.92137 0.71529 0.40285
 C818 C 0.92292 0.71698 0.37909
 C819 C 0.93892 0.70382 0.36741
 C820 C 0.95308 0.68883 0.37927
 C821 C 0.95101 0.68705 0.40307
 C822 C 0.93533 0.70044 0.41499
 C823 C 0.90499 0.72952 0.41527
 C824 C 0.90390 0.72828 0.43910
 C825 C 0.88862 0.74217 0.45084
 C826 C 0.87430 0.75693 0.43885
 C827 C 0.87540 0.75776 0.41497
 C828 C 0.89089 0.74422 0.40309
 C829 C 0.93352 0.69948 0.43880
 C830 C 0.91814 0.71323 0.45066
 C831 C 0.90853 0.73189 0.36750
 C832 C 0.89271 0.74522 0.37929
 H833 H 0.94421 0.68812 0.44837
 H834 H 0.91740 0.71207 0.46903
 H835 H 0.90953 0.73329 0.34916
 H836 H 0.88194 0.75652 0.36971
 H837 H 0.94031 0.70518 0.34908
 H838 H 0.96197 0.67566 0.41232
 H839 H 0.88765 0.74140 0.46924
 H840 H 0.86454 0.76926 0.40573
 C841 C 0.91541 0.28633 0.60026
 C842 C 0.92147 0.28055 0.62262
 C843 C 0.93832 0.29289 0.63431
 C844 C 0.94906 0.31093 0.62382
 C845 C 0.94251 0.31667 0.60148
 C846 C 0.92577 0.30434 0.58957
 C847 C 0.89815 0.27305 0.58768
 C848 C 0.89242 0.27856 0.56517
 C849 C 0.87648 0.26552 0.55308
 C850 C 0.86634 0.24707 0.56337
 C851 C 0.87202 0.24203 0.58611
 C852 C 0.88800 0.25489 0.59830
 C853 C 0.91939 0.30950 0.56711
 C854 C 0.90303 0.29680 0.55510
 C855 C 0.91074 0.26240 0.63275
 C856 C 0.89426 0.24980 0.62081
 H857 H 0.92726 0.32336 0.55867
 H858 H 0.89874 0.30123 0.53774
 H859 H 0.91524 0.25781 0.65002
 H860 H 0.88651 0.23585 0.62919
 H861 H 0.94315 0.28836 0.65152
 H862 H 0.95070 0.33048 0.59321
 H863 H 0.87248 0.26938 0.53551
 H864 H 0.86405 0.22806 0.59428
 C865 C 0.39633 0.07924 0.28289
 C866 C 0.40841 0.06867 0.30056
 C867 C 0.39684 0.05247 0.31309
 C868 C 0.37343 0.04670 0.30787
 C869 C 0.36160 0.05753 0.29008
 C870 C 0.37294 0.07385 0.27759
 C871 C 0.40846 0.09614 0.26953
 C872 C 0.39638 0.10664 0.25181
 C873 C 0.40809 0.12244 0.23892
 C874 C 0.43181 0.12762 0.24345
 C875 C 0.44358 0.11705 0.26146
 C876 C 0.43197 0.10130 0.27456
 C877 C 0.36139 0.08481 0.25983
 C878 C 0.37290 0.10096 0.24719
 C879 C 0.43188 0.07440 0.30522
 C880 C 0.44348 0.09041 0.29240
 H881 H 0.34332 0.08083 0.25562
 H882 H 0.36339 0.10896 0.23356
 H883 H 0.44141 0.06636 0.31879
 H884 H 0.46163 0.09423 0.29645
 H885 H 0.40612 0.04421 0.32669
 H886 H 0.34356 0.05330 0.28597
 H887 H 0.39877 0.13068 0.22533
 H888 H 0.46192 0.12066 0.26490
 C889 C 0.60123 0.07627 0.71935
 C890 C 0.59649 0.07439 0.69598
 C891 C 0.60873 0.05889 0.68317
 C892 C 0.62588 0.04564 0.69353
 C893 C 0.63059 0.04794 0.71693
 C894 C 0.61814 0.06309 0.72997
 C895 C 0.58816 0.09228 0.73299
 C896 C 0.59252 0.09379 0.75646
 C897 C 0.57982 0.10883 0.76940
 C898 C 0.56321 0.12252 0.75894
 C899 C 0.55922 0.12101 0.73536
 C900 C 0.57151 0.10573 0.72231
 C901 C 0.62217 0.06521 0.75345
 C902 C 0.60949 0.08024 0.76649
 C903 C 0.57961 0.08805 0.68593
 C904 C 0.56741 0.10352 0.69886
 H905 H 0.63514 0.05509 0.76184
 H906 H 0.61304 0.08129 0.78457
 H907 H 0.57583 0.08679 0.66791
 H908 H 0.55457 0.11376 0.69044
 H909 H 0.60511 0.05728 0.66514
 H910 H 0.64362 0.03768 0.72506
 H911 H 0.58301 0.11012 0.78753
 H912 H 0.54628 0.13146 0.72734
 C913 C 0.39989 0.92014 0.72050
 C914 C 0.41039 0.92981 0.70141
 C915 C 0.39774 0.94532 0.68892
 C916 C 0.37481 0.95130 0.69552
 C917 C 0.36455 0.94135 0.71470
 C918 C 0.37700 0.92574 0.72722
 C919 C 0.41319 0.90396 0.73382
 C920 C 0.40270 0.89435 0.75295
 C921 C 0.41548 0.87912 0.76567
 C922 C 0.43865 0.87356 0.75947
 C923 C 0.44885 0.88333 0.74016
 C924 C 0.43617 0.89852 0.72726
 C925 C 0.36707 0.91570 0.74641
 C926 C 0.37969 0.90024 0.75904
 C927 C 0.43339 0.92387 0.69530
 C928 C 0.44608 0.90851 0.70803
 H929 H 0.34940 0.91986 0.75174
 H930 H 0.37140 0.89293 0.77375
 H931 H 0.44170 0.93121 0.68061
 H932 H 0.46380 0.90445 0.70278
 H933 H 0.40583 0.95290 0.67424
 H934 H 0.34691 0.94576 0.71992
 H935 H 0.40735 0.87148 0.78029
 H936 H 0.46676 0.87941 0.73541
 C937 C 0.60126 0.92637 0.27981
 C938 C 0.62585 0.92772 0.27796
 C939 C 0.63802 0.94329 0.29080
 C940 C 0.62579 0.95712 0.30570
 C941 C 0.60118 0.95529 0.30765
 C942 C 0.58877 0.94009 0.29453
 C943 C 0.58831 0.91039 0.26593
 C944 C 0.56365 0.90947 0.26728
 C945 C 0.55140 0.89452 0.25372
 C946 C 0.56372 0.88035 0.23927
 C947 C 0.58843 0.88126 0.23833
 C948 C 0.60083 0.89645 0.25146
 C949 C 0.56413 0.93850 0.29563
 C950 C 0.55177 0.92351 0.28214
 C951 C 0.63775 0.91355 0.26324
 C952 C 0.62546 0.89809 0.25030
 H953 H 0.55430 0.94903 0.30688
 H954 H 0.53276 0.92290 0.28338
 H955 H 0.65673 0.91440 0.26172
 H956 H 0.63530 0.88745 0.23917
 H957 H 0.65699 0.94456 0.28933
 H958 H 0.59166 0.96603 0.31896
 H959 H 0.53236 0.89368 0.25455
 H960 H 0.59789 0.87043 0.22706
 C961 C 0.40052 0.28143 0.92149
 C962 C 0.37592 0.27999 0.92323
 C963 C 0.36412 0.29353 0.93856
 C964 C 0.37671 0.30864 0.95183
 C965 C 0.40133 0.31016 0.94957
 C966 C 0.41336 0.29641 0.93457
 C967 C 0.41307 0.26683 0.90581
 C968 C 0.43772 0.26786 0.90451
 C969 C 0.44959 0.25369 0.88984
 C970 C 0.43690 0.23886 0.87634
 C971 C 0.41220 0.23819 0.87766
 C972 C 0.40018 0.25203 0.89255
 C973 C 0.43799 0.29713 0.93260
 C974 C 0.44998 0.28304 0.91788
 C975 C 0.36365 0.26495 0.90971
 C976 C 0.37557 0.25126 0.89455
 H977 H 0.44811 0.30859 0.94263
 H978 H 0.46899 0.28404 0.91697
 H979 H 0.34466 0.26373 0.91087
 H980 H 0.36544 0.23989 0.88443
 H981 H 0.34516 0.29236 0.94012
 H982 H 0.41114 0.32163 0.95987
 H983 H 0.46862 0.25434 0.88867
 H984 H 0.40243 0.22666 0.86739
 C985 C 0.60356 0.71454 0.91965
 C986 C 0.59081 0.69821 0.93090
 C987 C 0.60195 0.68595 0.94794
 C988 C 0.62556 0.69015 0.95390
 C989 C 0.63805 0.70657 0.94235
 C990 C 0.62717 0.71876 0.92518
 C991 C 0.59188 0.72770 0.90196
 C992 C 0.60461 0.74413 0.89087
 C993 C 0.59329 0.75696 0.87450
 C994 C 0.56930 0.75369 0.86938
 C995 C 0.55689 0.73689 0.88045
 C996 C 0.56811 0.72385 0.89677
 C997 C 0.63940 0.73519 0.91354
 C998 C 0.62831 0.74763 0.89664
 C999 C 0.56713 0.69466 0.92504
 C1000 C 0.55595 0.70729 0.90830
 H1001 H 0.65765 0.73854 0.91761
 H1002 H 0.63832 0.76025 0.88817
 H1003 H 0.55708 0.68212 0.93358
 H1004 H 0.53760 0.70415 0.90446
 H1005 H 0.59216 0.67340 0.95676
 H1006 H 0.65626 0.70986 0.94669
 H1007 H 0.60309 0.76962 0.86586
 H1008 H 0.53836 0.73441 0.87689
 C1009 C 0.40108 0.71920 0.07730
 C1010 C 0.37645 0.72032 0.07573
 C1011 C 0.36468 0.70701 0.06006
 C1012 C 0.37736 0.69244 0.04633
 C1013 C 0.40201 0.69120 0.04846
 C1014 C 0.41400 0.70475 0.06375
 C1015 C 0.41360 0.73365 0.09324
 C1016 C 0.43828 0.73302 0.09430
 C1017 C 0.45012 0.74714 0.10912
 C1018 C 0.43738 0.76148 0.12303
 C1019 C 0.41264 0.76170 0.12202
 C1020 C 0.40065 0.74795 0.10695
 C1021 C 0.43866 0.70437 0.06554
 C1022 C 0.45061 0.71834 0.08048
 C1023 C 0.36410 0.73485 0.08971
 C1024 C 0.37599 0.74836 0.10514
 H1025 H 0.44883 0.69331 0.05515
 H1026 H 0.46965 0.71765 0.08121
 H1027 H 0.34509 0.73581 0.08869
 H1028 H 0.36582 0.75934 0.11561
 H1029 H 0.34569 0.70796 0.05857
 H1030 H 0.41189 0.68014 0.03779
 H1031 H 0.46918 0.74686 0.11005
 H1032 H 0.40285 0.77288 0.13263
 C1033 C 0.59838 0.28340 0.08045
 C1034 C 0.58651 0.30073 0.06999
 C1035 C 0.59832 0.31334 0.05371
 C1036 C 0.62175 0.30853 0.04773
 C1037 C 0.63338 0.29112 0.05850
 C1038 C 0.62180 0.27854 0.07490
 C1039 C 0.58596 0.26990 0.09733
 C1040 C 0.59780 0.25248 0.10766
 C1041 C 0.58580 0.23943 0.12335
 C1042 C 0.56202 0.24353 0.12858
 C1043 C 0.55049 0.26124 0.11823
 C1044 C 0.56239 0.27449 0.10258
 C1045 C 0.63313 0.26109 0.08574
 C1046 C 0.62134 0.24830 0.10188
 C1047 C 0.56299 0.30496 0.07585
 C1048 C 0.55112 0.29203 0.09184
 H1049 H 0.65122 0.25721 0.08164
 H1050 H 0.63067 0.23491 0.10975
 H1051 H 0.55362 0.31827 0.06789
 H1052 H 0.53294 0.29573 0.09574
 H1053 H 0.58918 0.32665 0.04548
 H1054 H 0.65143 0.28732 0.05411
 H1055 H 0.59493 0.22604 0.13145
 H1056 H 0.53212 0.26437 0.12189
 C1057 C 0.28032 0.07400 0.60424
 C1058 C 0.30022 0.06452 0.59424
 C1059 C 0.31269 0.04853 0.60624
 C1060 C 0.30526 0.04192 0.62804
 C1061 C 0.28523 0.05162 0.63778
 C1062 C 0.27273 0.06771 0.62598
 C1063 C 0.26713 0.09080 0.59169
 C1064 C 0.24724 0.10029 0.60170
 C1065 C 0.23471 0.11619 0.58966
 C1066 C 0.24184 0.12251 0.56769
 C1067 C 0.26187 0.11280 0.55793
 C1068 C 0.27460 0.09697 0.56988
 C1069 C 0.25277 0.07761 0.63546
 C1070 C 0.24026 0.09365 0.62354
 C1071 C 0.30720 0.07117 0.57240
 C1072 C 0.29459 0.08709 0.56041
 H1073 H 0.24676 0.07291 0.65223
 H1074 H 0.22496 0.10086 0.63146
 H1075 H 0.32252 0.06396 0.56449
 H1076 H 0.30053 0.09171 0.54359
 H1077 H 0.32803 0.04115 0.59855
 H1078 H 0.27938 0.04673 0.65455
 H1079 H 0.21953 0.12375 0.59746
 H1080 H 0.26732 0.11731 0.54091
 C1081 C 0.71697 0.08046 0.39672
 C1082 C 0.72538 0.07353 0.37552
 C1083 C 0.71333 0.05709 0.36384
 C1084 C 0.69276 0.04766 0.37306
 C1085 C 0.68449 0.05505 0.39433
 C1086 C 0.69663 0.07131 0.40628
 C1087 C 0.72981 0.09753 0.40921
 C1088 C 0.72167 0.10419 0.43062
 C1089 C 0.73423 0.12012 0.44262
 C1090 C 0.75471 0.12950 0.43328
 C1091 C 0.76236 0.12281 0.41160
 C1092 C 0.75009 0.10673 0.39959
 C1093 C 0.68890 0.07853 0.42766
 C1094 C 0.70126 0.09464 0.43966
 C1095 C 0.74571 0.08317 0.36641
 C1096 C 0.75782 0.09954 0.37821
 H1097 H 0.67324 0.07159 0.43524
 H1098 H 0.69478 0.09964 0.45615
 H1099 H 0.75234 0.07800 0.35003
 H1100 H 0.77344 0.10652 0.37060
 H1101 H 0.71998 0.05177 0.34750
 H1102 H 0.66878 0.04804 0.40177
 H1103 H 0.72835 0.12486 0.45941
 H1104 H 0.77783 0.13014 0.40404
 C1105 C 0.71890 0.92577 0.59800
 C1106 C 0.69447 0.92770 0.59497
 C1107 C 0.68212 0.94336 0.60747
 C1108 C 0.69401 0.95673 0.62317
 C1109 C 0.71849 0.95442 0.62613
 C1110 C 0.73105 0.93910 0.61344
 C1111 C 0.73202 0.90950 0.58475
 C1112 C 0.75651 0.90787 0.58748
 C1113 C 0.76893 0.89248 0.57474
 C1114 C 0.75694 0.87856 0.55968
 C1115 C 0.73237 0.88026 0.55725
 C1116 C 0.71982 0.89587 0.56962
 C1117 C 0.75554 0.93689 0.61581
 C1118 C 0.76808 0.92160 0.60297
 C1119 C 0.68290 0.91389 0.57955
 C1120 C 0.69534 0.89818 0.56716
 H1121 H 0.76511 0.94712 0.62763
 H1122 H 0.78696 0.92045 0.60526
 H1123 H 0.66405 0.91518 0.57709
 H1124 H 0.68574 0.88780 0.55552
 H1125 H 0.66326 0.94498 0.60519
 H1126 H 0.72780 0.96477 0.63805
 H1127 H 0.78783 0.89104 0.57677
 H1128 H 0.72315 0.86964 0.54553
 C1129 C 0.28193 0.92387 0.40137
 C1130 C 0.30635 0.92580 0.40459
 C1131 C 0.31881 0.94169 0.39240
 C1132 C 0.30702 0.95525 0.37680
 C1133 C 0.28256 0.95294 0.37368
 C1134 C 0.26990 0.93741 0.38606
 C1135 C 0.26869 0.90736 0.41426
 C1136 C 0.24421 0.90574 0.41131
 C1137 C 0.23167 0.89014 0.42372
 C1138 C 0.24350 0.87602 0.43868
 C1139 C 0.26806 0.87769 0.44131
 C1140 C 0.28075 0.89351 0.42927
 C1141 C 0.24543 0.93521 0.38347
 C1142 C 0.23278 0.91969 0.39596
 C1143 C 0.31777 0.91176 0.41989
 C1144 C 0.30521 0.89583 0.43194
 H1145 H 0.23596 0.94561 0.37173
 H1146 H 0.21392 0.91856 0.39351
 H1147 H 0.33660 0.91304 0.42251
 H1148 H 0.31471 0.88528 0.44350
 H1149 H 0.33765 0.94331 0.39481
 H1150 H 0.27332 0.96344 0.36185
 H1151 H 0.21278 0.88873 0.42153
 H1152 H 0.27716 0.86690 0.45295
 C1153 C 0.07944 0.40216 0.71379
 C1154 C 0.06462 0.38768 0.72543
 C1155 C 0.04870 0.37494 0.71302
 C1156 C 0.04721 0.37692 0.68919
 C1157 C 0.06217 0.39156 0.67778
 C1158 C 0.07848 0.40411 0.69001
 C1159 C 0.09616 0.41565 0.72679
 C1160 C 0.11124 0.42992 0.71516
 C1161 C 0.12720 0.44262 0.72764
 C1162 C 0.12773 0.44136 0.75153
 C1163 C 0.11238 0.42711 0.76292
 C1164 C 0.09668 0.41406 0.75062
 C1165 C 0.09377 0.41864 0.67898
 C1166 C 0.10995 0.43125 0.69134
 C1167 C 0.06582 0.38640 0.74925
 C1168 C 0.08152 0.39944 0.76165
 H1169 H 0.09324 0.42026 0.66064
 H1170 H 0.12146 0.44222 0.68217
 H1171 H 0.05444 0.37532 0.75841
 H1172 H 0.08182 0.39804 0.78002
 H1173 H 0.03711 0.36386 0.72195
 H1174 H 0.06118 0.39311 0.65944
 H1175 H 0.13894 0.45369 0.71887
 H1176 H 0.11297 0.42598 0.78132
 C1177 C 0.07742 0.59469 0.28547
 C1178 C 0.07730 0.59261 0.30927
 C1179 C 0.06109 0.60473 0.32200
 C1180 C 0.04549 0.61913 0.31107
 C1181 C 0.04600 0.62109 0.28721
 C1182 C 0.06178 0.60877 0.27431
 C1183 C 0.09429 0.58193 0.27197
 C1184 C 0.09409 0.58375 0.24816
 C1185 C 0.11009 0.57153 0.23539
 C1186 C 0.12646 0.55791 0.24629
 C1187 C 0.12659 0.55637 0.27018
 C1188 C 0.11034 0.56822 0.28313
 C1189 C 0.06219 0.61023 0.25048
 C1190 C 0.07801 0.59785 0.23761
 C1191 C 0.09347 0.57856 0.31981
 C1192 C 0.10979 0.56665 0.30696
 H1193 H 0.05015 0.62100 0.24169
 H1194 H 0.07773 0.59942 0.21925
 H1195 H 0.09359 0.57684 0.33814
 H1196 H 0.12203 0.55609 0.31577
 H1197 H 0.06085 0.60323 0.34037
 H1198 H 0.03391 0.63200 0.27866
 H1199 H 0.11014 0.57288 0.21700
 H1200 H 0.13912 0.54577 0.27857
 C1201 C 0.92322 0.39988 0.28703
 C1202 C 0.92497 0.37735 0.28377
 C1203 C 0.94145 0.36551 0.29652
 C1204 C 0.95581 0.37601 0.31268
 C1205 C 0.95352 0.39857 0.31600
 C1206 C 0.93742 0.41062 0.30304
 C1207 C 0.90633 0.41249 0.27328
 C1208 C 0.90504 0.43510 0.27611
 C1209 C 0.88923 0.44706 0.26271
 C1210 C 0.87456 0.43647 0.24690
 C1211 C 0.87588 0.41377 0.24446
 C1212 C 0.89192 0.40170 0.25747
 C1213 C 0.93542 0.43323 0.30557
 C1214 C 0.91957 0.44528 0.29226
 C1215 C 0.91030 0.36714 0.26774
 C1216 C 0.89397 0.37910 0.25489
 H1217 H 0.94632 0.44171 0.31783
 H1218 H 0.91869 0.46271 0.29464
 H1219 H 0.91144 0.34977 0.26511
 H1220 H 0.88298 0.37060 0.24272
 H1221 H 0.94304 0.34814 0.29394
 H1222 H 0.96466 0.40680 0.32827
 H1223 H 0.88809 0.46453 0.26472
 H1224 H 0.86472 0.40562 0.23215
 C1225 C 0.91430 0.59980 0.71265
 C1226 C 0.91976 0.62119 0.71901
 C1227 C 0.93672 0.63273 0.70665
 C1228 C 0.94812 0.62309 0.68796
 C1229 C 0.94219 0.60170 0.68163
 C1230 C 0.92538 0.58992 0.69402
 C1231 C 0.89687 0.58742 0.72595
 C1232 C 0.89174 0.56587 0.71991
 C1233 C 0.87566 0.55396 0.73305
 C1234 C 0.86477 0.56350 0.75210
 C1235 C 0.86981 0.58530 0.75757
 C1236 C 0.88595 0.59727 0.74466
 C1237 C 0.91958 0.56840 0.68832
 C1238 C 0.90309 0.55656 0.70108
 C1239 C 0.90829 0.63056 0.73771
 C1240 C 0.89163 0.61882 0.75030
 H1241 H 0.92800 0.56059 0.67399
 H1242 H 0.89928 0.53995 0.69624
 H1243 H 0.91232 0.64708 0.74274
 H1244 H 0.88329 0.62660 0.76469
 H1245 H 0.94104 0.64922 0.71161
 H1246 H 0.95090 0.59410 0.66731
 H1247 H 0.87214 0.53714 0.72885
 H1248 H 0.86125 0.59291 0.77196
 C1249 C 0.71415 0.59762 0.92499
 C1250 C 0.69364 0.58921 0.93494
 C1251 C 0.68131 0.60183 0.95080
 C1252 C 0.68965 0.62260 0.95714
 C1253 C 0.71042 0.63064 0.94695
 C1254 C 0.72257 0.61833 0.93077
 C1255 C 0.72713 0.58448 0.90824
 C1256 C 0.74742 0.59310 0.89800
 C1257 C 0.75958 0.58062 0.88196
 C1258 C 0.75180 0.55959 0.87654
 C1259 C 0.73162 0.55103 0.88704
 C1260 C 0.71903 0.56354 0.90281
 C1261 C 0.74301 0.62634 0.92026
 C1262 C 0.75516 0.61398 0.90406
 C1263 C 0.68597 0.56827 0.92893
 C1264 C 0.69851 0.55561 0.91323
 H1265 H 0.74964 0.64232 0.92454
 H1266 H 0.77080 0.62078 0.89631
 H1267 H 0.67020 0.56155 0.93652
 H1268 H 0.69205 0.53951 0.90916
 H1269 H 0.66547 0.59528 0.95845
 H1270 H 0.71713 0.64657 0.95143
 H1271 H 0.77521 0.58709 0.87383
 H1272 H 0.72568 0.53481 0.88272
 C1273 C 0.28937 0.40071 0.91471
 C1274 C 0.30956 0.40954 0.92494
 C1275 C 0.32142 0.39756 0.94176
 C1276 C 0.31285 0.37707 0.94880
 C1277 C 0.29249 0.36855 0.93821
 C1278 C 0.28085 0.38019 0.92109
 C1279 C 0.27666 0.41331 0.89723
 C1280 C 0.25652 0.40440 0.88700
 C1281 C 0.24420 0.41658 0.87078
 C1282 C 0.25144 0.43783 0.86513
 C1283 C 0.27193 0.44640 0.87536
 C1284 C 0.28466 0.43415 0.89136
 C1285 C 0.26073 0.37176 0.91033
 C1286 C 0.24883 0.38362 0.89349
 C1287 C 0.31729 0.43031 0.91833
 C1288 C 0.30499 0.44244 0.90192
 H1289 H 0.25405 0.35590 0.91504
 H1290 H 0.23331 0.37657 0.88571
 H1291 H 0.33283 0.43734 0.92609
 H1292 H 0.31139 0.45849 0.89753
 H1293 H 0.33698 0.40445 0.94967
 H1294 H 0.28566 0.35280 0.94317
 H1295 H 0.22882 0.40956 0.86270
 H1296 H 0.27760 0.46278 0.87140
 C1297 C 0.28695 0.60111 0.07939
 C1298 C 0.30799 0.59278 0.07054
 C1299 C 0.32034 0.60482 0.05416
 C1300 C 0.31158 0.62495 0.04629
 C1301 C 0.29032 0.63296 0.05545
 C1302 C 0.27807 0.62119 0.07207
 C1303 C 0.27384 0.58848 0.09655
 C1304 C 0.25287 0.59688 0.10548
 C1305 C 0.24037 0.58475 0.12164
 C1306 C 0.24844 0.56413 0.12861
 C1307 C 0.26962 0.55601 0.11948
 C1308 C 0.28243 0.56817 0.10353
 C1309 C 0.25704 0.62909 0.08146
 C1310 C 0.24470 0.61718 0.09795
 C1311 C 0.31616 0.57248 0.07811
 C1312 C 0.30355 0.56035 0.09426
 H1313 H 0.25003 0.64460 0.07600
 H1314 H 0.22853 0.62385 0.10472
 H1315 H 0.33236 0.56584 0.07140
 H1316 H 0.31040 0.54471 0.09951
 H1317 H 0.33658 0.59830 0.04736
 H1318 H 0.28329 0.64841 0.04978
 H1319 H 0.22438 0.59141 0.12880
 H1320 H 0.27589 0.54007 0.12439
 C1321 C 0.71348 0.39882 0.07947
 C1322 C 0.72206 0.37867 0.07215
 C1323 C 0.70944 0.36696 0.05573
 C1324 C 0.68814 0.37512 0.04668
 C1325 C 0.67967 0.39534 0.05453
 C1326 C 0.69237 0.40730 0.07078
 C1327 C 0.72696 0.41136 0.09646
 C1328 C 0.71863 0.43171 0.10354
 C1329 C 0.73176 0.44372 0.11941
 C1330 C 0.75302 0.43545 0.12831
 C1331 C 0.76087 0.41484 0.12119
 C1332 C 0.74803 0.40282 0.10518
 C1333 C 0.68449 0.42765 0.07841
 C1334 C 0.69742 0.43967 0.09446
 C1335 C 0.74318 0.37063 0.08132
 C1336 C 0.75591 0.38247 0.09760
 H1337 H 0.66824 0.43441 0.07184
 H1338 H 0.69077 0.45534 0.09977
 H1339 H 0.74996 0.35505 0.07584
 H1340 H 0.77213 0.37569 0.10421
 H1341 H 0.71627 0.35145 0.05008
 H1342 H 0.66340 0.40196 0.04782
 H1343 H 0.72564 0.45965 0.12449
 H1344 H 0.77693 0.40807 0.12818
 C1345 C 0.91440 0.71389 0.60021
 C1346 C 0.92383 0.69546 0.58957
 C1347 C 0.94048 0.68281 0.60125
 C1348 C 0.94815 0.68877 0.62327
 C1349 C 0.93830 0.70735 0.63362
 C1350 C 0.92137 0.71983 0.62225
 C1351 C 0.89719 0.72746 0.58788
 C1352 C 0.88783 0.74589 0.59854
 C1353 C 0.87193 0.75903 0.58660
 C1354 C 0.86576 0.75419 0.56392
 C1355 C 0.87511 0.73542 0.55360
 C1356 C 0.89078 0.72196 0.56555
 C1357 C 0.91143 0.73829 0.63242
 C1358 C 0.89487 0.75105 0.62081
 C1359 C 0.91667 0.69026 0.56733
 C1360 C 0.90051 0.70334 0.55549
 H1361 H 0.91660 0.74299 0.64947
 H1362 H 0.88774 0.76523 0.62922
 H1363 H 0.92382 0.67610 0.55891
 H1364 H 0.89570 0.69889 0.53828
 H1365 H 0.94781 0.66865 0.59295
 H1366 H 0.94377 0.71218 0.65056
 H1367 H 0.86454 0.77315 0.59492
 H1368 H 0.87078 0.73164 0.53609
 C1369 C 0.92448 0.28444 0.40275
 C1370 C 0.93554 0.27580 0.38348
 C1371 C 0.95171 0.28859 0.37146
 C1372 C 0.95739 0.30980 0.37886
 C1373 C 0.94613 0.31812 0.39841
 C1374 C 0.92950 0.30559 0.41025
 C1375 C 0.90736 0.27104 0.41537
 C1376 C 0.89589 0.27982 0.43440
 C1377 C 0.87950 0.26702 0.44623
 C1378 C 0.87509 0.24552 0.43938
 C1379 C 0.88687 0.23688 0.42046
 C1380 C 0.90286 0.24967 0.40820
 C1381 C 0.91779 0.31375 0.42946
 C1382 C 0.90118 0.30113 0.44125
 C1383 C 0.93037 0.25444 0.37669
 C1384 C 0.91441 0.24156 0.38892
 H1385 H 0.92145 0.33006 0.43540
 H1386 H 0.89251 0.30808 0.45593
 H1387 H 0.93885 0.24757 0.36187
 H1388 H 0.91103 0.22513 0.38318
 H1389 H 0.96017 0.28179 0.35658
 H1390 H 0.95011 0.33438 0.40435
 H1391 H 0.87044 0.27357 0.46090
 H1392 H 0.88333 0.22033 0.41519
 C1393 C 0.07704 0.28219 0.60110
 C1394 C 0.07172 0.27750 0.62387
 C1395 C 0.05566 0.29068 0.63552
 C1396 C 0.04525 0.30881 0.62472
 C1397 C 0.05131 0.31349 0.60193
 C1398 C 0.06690 0.30006 0.58998
 C1399 C 0.09343 0.26801 0.58860
 C1400 C 0.09818 0.27229 0.56559
 C1401 C 0.11344 0.25850 0.55368
 C1402 C 0.12427 0.24092 0.56483
 C1403 C 0.11961 0.23701 0.58795
 C1404 C 0.10394 0.25037 0.59987
 C1405 C 0.07233 0.30399 0.56703
 C1406 C 0.08759 0.29026 0.55500
 C1407 C 0.08248 0.25964 0.63453
 C1408 C 0.09843 0.24638 0.62278
 H1409 H 0.06457 0.31770 0.55822
 H1410 H 0.09117 0.29378 0.53729
 H1411 H 0.07857 0.25588 0.65213
 H1412 H 0.10638 0.23281 0.63165
 H1413 H 0.05141 0.28683 0.65303
 H1414 H 0.04347 0.32724 0.59324
 H1415 H 0.11718 0.26156 0.53589
 H1416 H 0.12788 0.22338 0.59647
 C1417 C 0.08370 0.71149 0.39807
 C1418 C 0.07419 0.69321 0.40897
 C1419 C 0.05733 0.68057 0.39758
 C1420 C 0.04950 0.68635 0.37555
 C1421 C 0.05946 0.70477 0.36488
 C1422 C 0.07660 0.71728 0.37601
 C1423 C 0.10111 0.72507 0.41015
 C1424 C 0.11053 0.74341 0.39927
 C1425 C 0.12665 0.75655 0.41099
 C1426 C 0.13301 0.75178 0.43366
 C1427 C 0.12355 0.73313 0.44420
 C1428 C 0.10765 0.71969 0.43249
 C1429 C 0.08661 0.73564 0.36560
 C1430 C 0.10335 0.74843 0.37700
 C1431 C 0.08148 0.68813 0.43121
 C1432 C 0.09785 0.70119 0.44280
 H1433 H 0.08136 0.74025 0.34854
 H1434 H 0.11052 0.76253 0.36840
 H1435 H 0.07427 0.67406 0.43983
 H1436 H 0.10276 0.69683 0.46002
 H1437 H 0.04994 0.66654 0.40615
 H1438 H 0.05386 0.70947 0.34794
 H1439 H 0.13409 0.77059 0.40251
 H1440 H 0.12797 0.72940 0.46170
 C1441 C 0.60304 0.92449 0.71921
 C1442 C 0.59835 0.92632 0.69583
 C1443 C 0.61014 0.94224 0.68309
 C1444 C 0.62684 0.95594 0.69352
 C1445 C 0.63151 0.95369 0.71695
 C1446 C 0.61949 0.93813 0.72992
 C1447 C 0.59046 0.90800 0.73277
 C1448 C 0.59478 0.90651 0.75624
 C1449 C 0.58256 0.89099 0.76910
 C1450 C 0.56647 0.87680 0.75855
 C1451 C 0.56252 0.87833 0.73496
 C1452 C 0.57432 0.89408 0.72200
 C1453 C 0.62348 0.93602 0.75341
 C1454 C 0.61125 0.92054 0.76637
 C1455 C 0.58197 0.91220 0.68569
 C1456 C 0.57024 0.89628 0.69853
 H1457 H 0.63608 0.94648 0.76187
 H1458 H 0.61477 0.91951 0.78445
 H1459 H 0.57822 0.91341 0.66766
 H1460 H 0.55779 0.88568 0.69003
 H1461 H 0.60655 0.94380 0.66505
 H1462 H 0.64419 0.96429 0.72514
 H1463 H 0.58574 0.88972 0.78724
 H1464 H 0.55000 0.86751 0.72685
 C1465 C 0.39817 0.92406 0.28128
 C1466 C 0.37480 0.92928 0.27576
 C1467 C 0.36301 0.94512 0.28850
 C1468 C 0.37439 0.95563 0.30677
 C1469 C 0.39781 0.95005 0.31215
 C1470 C 0.40982 0.93435 0.29939
 C1471 C 0.41073 0.90760 0.26774
 C1472 C 0.43421 0.90258 0.27305
 C1473 C 0.44620 0.88718 0.25988
 C1474 C 0.43484 0.87677 0.24152
 C1475 C 0.41117 0.88186 0.23665
 C1476 C 0.39908 0.89732 0.24962
 C1477 C 0.43328 0.92881 0.30428
 C1478 C 0.44528 0.91323 0.29131
 C1479 C 0.36370 0.91858 0.25756
 C1480 C 0.37562 0.90284 0.24474
 H1481 H 0.44248 0.93664 0.31819
 H1482 H 0.46339 0.90952 0.29558
 H1483 H 0.34565 0.92242 0.25315
 H1484 H 0.36643 0.89502 0.23081
 H1485 H 0.34498 0.94920 0.28425
 H1486 H 0.40678 0.95806 0.32611
 H1487 H 0.46449 0.88367 0.26359
 H1488 H 0.40213 0.87374 0.22281
 C1489 C 0.59924 0.07706 0.27977
 C1490 C 0.62381 0.07593 0.27752
 C1491 C 0.63635 0.06050 0.29022
 C1492 C 0.62452 0.04657 0.30540
 C1493 C 0.59991 0.04815 0.30770
 C1494 C 0.58714 0.06322 0.29472
 C1495 C 0.58592 0.09298 0.26613
 C1496 C 0.56128 0.09373 0.26794
 C1497 C 0.54868 0.10869 0.25467
 C1498 C 0.56063 0.12307 0.24008
 C1499 C 0.58533 0.12228 0.23865
 C1500 C 0.59807 0.10709 0.25148
 C1501 C 0.56251 0.06461 0.29624
 C1502 C 0.54979 0.07954 0.28299
 C1503 C 0.63532 0.09024 0.26259
 C1504 C 0.62268 0.10563 0.24988
 H1505 H 0.55297 0.05398 0.30767
 H1506 H 0.53080 0.08000 0.28459
 H1507 H 0.65427 0.08956 0.26075
 H1508 H 0.63224 0.11639 0.23860
 H1509 H 0.65530 0.05945 0.28847
 H1510 H 0.59068 0.03735 0.31922
 H1511 H 0.52966 0.10941 0.25589
 H1512 H 0.59452 0.13324 0.22727
 C1513 C 0.39816 0.07333 0.72155
 C1514 C 0.37549 0.06699 0.72830
 C1515 C 0.36349 0.05112 0.71569
 C1516 C 0.37396 0.04166 0.69638
 C1517 C 0.39669 0.04834 0.68979
 C1518 C 0.40890 0.06413 0.70237
 C1519 C 0.41094 0.08988 0.73488
 C1520 C 0.43369 0.09610 0.72825
 C1521 C 0.44586 0.11168 0.74113
 C1522 C 0.43539 0.12107 0.76048
 C1523 C 0.41246 0.11470 0.76676
 C1524 C 0.40020 0.09907 0.75407
 C1525 C 0.43166 0.07083 0.69622
 C1526 C 0.44386 0.08652 0.70896
 C1527 C 0.36529 0.07660 0.74756
 C1528 C 0.37742 0.09239 0.76021
 H1529 H 0.44016 0.06384 0.68146
 H1530 H 0.46141 0.09117 0.70366
 H1531 H 0.34779 0.07186 0.75293
 H1532 H 0.36893 0.09937 0.77496
 H1533 H 0.34600 0.04617 0.72091
 H1534 H 0.40496 0.04117 0.67501
 H1535 H 0.46360 0.11621 0.73631
 H1536 H 0.40409 0.12202 0.78140
 C1537 C 0.60117 0.71816 0.08099
 C1538 C 0.62473 0.72266 0.07561
 C1539 C 0.63634 0.70964 0.05963
 C1540 C 0.62458 0.69215 0.04910
 C1541 C 0.60098 0.68774 0.05492
 C1542 C 0.58916 0.70077 0.07077
 C1543 C 0.58874 0.73209 0.09745
 C1544 C 0.56506 0.72783 0.10257
 C1545 C 0.55319 0.74142 0.11786
 C1546 C 0.56486 0.75918 0.12800
 C1547 C 0.58874 0.76299 0.12287
 C1548 C 0.60072 0.74957 0.10754
 C1549 C 0.56551 0.69689 0.07647
 C1550 C 0.55366 0.71022 0.09206
 C1551 C 0.63617 0.74020 0.08619
 C1552 C 0.62438 0.75341 0.10191
 H1553 H 0.55604 0.68353 0.06870
 H1554 H 0.53538 0.70675 0.09585
 H1555 H 0.65437 0.74382 0.08222
 H1556 H 0.63382 0.76683 0.10960
 H1557 H 0.65450 0.71317 0.05537
 H1558 H 0.59172 0.67438 0.04689
 H1559 H 0.53475 0.73850 0.12142
 H1560 H 0.59798 0.77640 0.13080
 C1561 C 0.39871 0.28385 0.07643
 C1562 C 0.41181 0.29792 0.06254
 C1563 C 0.40000 0.31129 0.04694
 C1564 C 0.37532 0.31029 0.04485
 C1565 C 0.36245 0.29610 0.05894
 C1566 C 0.37406 0.28296 0.07490
 C1567 C 0.41105 0.26959 0.09270
 C1568 C 0.39794 0.25568 0.10676
 C1569 C 0.40978 0.24210 0.12215
 C1570 C 0.43453 0.24209 0.12314
 C1571 C 0.44742 0.25607 0.10887
 C1572 C 0.43575 0.27001 0.09373
 C1573 C 0.36154 0.26882 0.08924
 C1574 C 0.37327 0.25548 0.10498
 C1575 C 0.43648 0.29809 0.06429
 C1576 C 0.44826 0.28430 0.07955
 H1577 H 0.34252 0.26802 0.08827
 H1578 H 0.36296 0.24480 0.11571
 H1579 H 0.44679 0.30884 0.05363
 H1580 H 0.46731 0.28482 0.08024
 H1581 H 0.41005 0.32202 0.03602
 H1582 H 0.34345 0.29532 0.05748
 H1583 H 0.39984 0.23122 0.13302
 H1584 H 0.46648 0.25620 0.10976
 C1585 C 0.59887 0.28412 0.91903
 C1586 C 0.62267 0.28018 0.92395
 C1587 C 0.63393 0.29256 0.94074
 C1588 C 0.62165 0.30892 0.95251
 C1589 C 0.59784 0.31287 0.94714
 C1590 C 0.58631 0.30039 0.93049
 C1591 C 0.58681 0.27074 0.90176
 C1592 C 0.56286 0.27431 0.89716
 C1593 C 0.55131 0.26107 0.88122
 C1594 C 0.56357 0.24434 0.86996
 C1595 C 0.58772 0.24136 0.87448
 C1596 C 0.59937 0.25439 0.89046
 C1597 C 0.56243 0.30367 0.92523
 C1598 C 0.55090 0.29082 0.90889
 C1599 C 0.63470 0.26381 0.91212
 C1600 C 0.62326 0.25116 0.89562
 H1601 H 0.55252 0.31615 0.93393
 H1602 H 0.53242 0.29376 0.90551
 H1603 H 0.65309 0.26066 0.91573
 H1604 H 0.63314 0.23860 0.88699
 H1605 H 0.65228 0.28946 0.94460
 H1606 H 0.58821 0.32537 0.95613
 H1607 H 0.53267 0.26334 0.87810
 H1608 H 0.59741 0.22878 0.86567
 C1609 C 0.40366 0.71741 0.92225
 C1610 C 0.41599 0.70253 0.93590
 C1611 C 0.40347 0.68943 0.95121
 C1612 C 0.37887 0.69147 0.95324
 C1613 C 0.36680 0.70648 0.93940
 C1614 C 0.37909 0.71938 0.92375
 C1615 C 0.41674 0.73135 0.90624
 C1616 C 0.40436 0.74606 0.89242
 C1617 C 0.41688 0.75929 0.87724
 C1618 C 0.44159 0.75812 0.87614
 C1619 C 0.45375 0.74338 0.89020
 C1620 C 0.44137 0.72981 0.90517
 C1621 C 0.36734 0.73431 0.90967
 C1622 C 0.37976 0.74736 0.89420
 C1623 C 0.44061 0.70127 0.93415
 C1624 C 0.45310 0.71474 0.91912
 H1625 H 0.34839 0.73595 0.91063
 H1626 H 0.37002 0.75867 0.88365
 H1627 H 0.45034 0.68989 0.94462
 H1628 H 0.47209 0.71335 0.91841
 H1629 H 0.41291 0.67805 0.96194
 H1630 H 0.34786 0.70807 0.94079
 H1631 H 0.40751 0.77076 0.86656
 H1632 H 0.47277 0.74233 0.88924
 C1633 C 0.71951 0.92528 0.39826
 C1634 C 0.69987 0.93513 0.40835
 C1635 C 0.68743 0.95108 0.39624
 C1636 C 0.69463 0.95729 0.37424
 C1637 C 0.71444 0.94724 0.36443
 C1638 C 0.72688 0.93118 0.37633
 C1639 C 0.73265 0.90850 0.41091
 C1640 C 0.75225 0.89862 0.40078
 C1641 C 0.76474 0.88274 0.41291
 C1642 C 0.75788 0.87681 0.43510
 C1643 C 0.73812 0.88691 0.44495
 C1644 C 0.72542 0.90273 0.43291
 C1645 C 0.74657 0.92090 0.36675
 C1646 C 0.75901 0.90487 0.37876
 C1647 C 0.69312 0.92887 0.43038
 C1648 C 0.70570 0.91298 0.44247
 H1649 H 0.75241 0.92528 0.34983
 H1650 H 0.77410 0.89736 0.37075
 H1651 H 0.67801 0.93636 0.43838
 H1652 H 0.69993 0.90867 0.45944
 H1653 H 0.67227 0.95873 0.40399
 H1654 H 0.72010 0.95181 0.34750
 H1655 H 0.77968 0.87487 0.40501
 H1656 H 0.73286 0.88275 0.46212
 C1657 C 0.28106 0.91982 0.60191
 C1658 C 0.30079 0.92988 0.59214
 C1659 C 0.31321 0.94555 0.60469
 C1660 C 0.30590 0.95129 0.62678
 C1661 C 0.28605 0.94097 0.63627
 C1662 C 0.27361 0.92519 0.62394
 C1663 C 0.26786 0.90341 0.58876
 C1664 C 0.24813 0.89337 0.59852
 C1665 C 0.23554 0.87790 0.58590
 C1666 C 0.24244 0.87256 0.56358
 C1667 C 0.26236 0.88278 0.55410
 C1668 C 0.27515 0.89820 0.56663
 C1669 C 0.25382 0.91473 0.63316
 C1670 C 0.24132 0.89906 0.62068
 C1671 C 0.30762 0.92416 0.56999
 C1672 C 0.29499 0.90862 0.55744
 H1673 H 0.24791 0.91870 0.65016
 H1674 H 0.22613 0.89141 0.62842
 H1675 H 0.32280 0.93182 0.56225
 H1676 H 0.30081 0.90474 0.54039
 H1677 H 0.32840 0.95341 0.59716
 H1678 H 0.28028 0.94518 0.65326
 H1679 H 0.22048 0.86992 0.59352
 H1680 H 0.26766 0.87905 0.53685
 C1681 C 0.28220 0.07529 0.40386
 C1682 C 0.30662 0.07321 0.40688
 C1683 C 0.31892 0.05768 0.39412
 C1684 C 0.30698 0.04459 0.37818
 C1685 C 0.28252 0.04706 0.37526
 C1686 C 0.27001 0.06224 0.38819
 C1687 C 0.26913 0.09142 0.41737
 C1688 C 0.24465 0.09320 0.41464
 C1689 C 0.23229 0.10845 0.42762
 C1690 C 0.24430 0.12210 0.44294
 C1691 C 0.26887 0.12026 0.44535
 C1692 C 0.28137 0.10478 0.43273
 C1693 C 0.24553 0.06460 0.38584
 C1694 C 0.23305 0.07975 0.39890
 C1695 C 0.31823 0.08675 0.42254
 C1696 C 0.30584 0.10233 0.43517
 H1697 H 0.23592 0.05459 0.37384
 H1698 H 0.21418 0.08100 0.39661
 H1699 H 0.33707 0.08534 0.42500
 H1700 H 0.31548 0.11249 0.44700
 H1701 H 0.33776 0.05595 0.39639
 H1702 H 0.27316 0.03694 0.36316
 H1703 H 0.21339 0.11000 0.42557
 H1704 H 0.27812 0.13067 0.45726
 C1705 C 0.71744 0.07771 0.59751
 C1706 C 0.69299 0.07556 0.59477
 C1707 C 0.68092 0.05973 0.60741
 C1708 C 0.69312 0.04642 0.62297
 C1709 C 0.71760 0.04899 0.62565
 C1710 C 0.72989 0.06446 0.61280
 C1711 C 0.73027 0.09412 0.58408
 C1712 C 0.75479 0.09594 0.58649
 C1713 C 0.76694 0.11144 0.57355
 C1714 C 0.75468 0.12529 0.55862
 C1715 C 0.73007 0.12341 0.55654
 C1716 C 0.71778 0.10767 0.56909
 C1717 C 0.75439 0.06689 0.61486
 C1718 C 0.76665 0.08230 0.60185
 C1719 C 0.68113 0.08930 0.57949
 C1720 C 0.69330 0.10515 0.56695
 H1721 H 0.76420 0.05673 0.62657
 H1722 H 0.78555 0.08359 0.60390
 H1723 H 0.66226 0.08784 0.57726
 H1724 H 0.68346 0.11546 0.55542
 H1725 H 0.66206 0.05793 0.60533
 H1726 H 0.72715 0.03870 0.63745
 H1727 H 0.78586 0.11302 0.57533
 H1728 H 0.72063 0.13397 0.54493
 C1729 C 0.91410 0.59708 0.29216
 C1730 C 0.91806 0.61893 0.28649
 C1731 C 0.93529 0.63070 0.29831
 C1732 C 0.94849 0.62082 0.31580
 C1733 C 0.94394 0.59900 0.32161
 C1734 C 0.92688 0.58699 0.30969
 C1735 C 0.89662 0.58441 0.27915
 C1736 C 0.89314 0.56237 0.28432
 C1737 C 0.87718 0.55018 0.27124
 C1738 C 0.86481 0.55991 0.25308
 C1739 C 0.86810 0.58221 0.24862
 C1740 C 0.88411 0.59447 0.26144
 C1741 C 0.92262 0.56500 0.31464
 C1742 C 0.90608 0.55288 0.30214
 C1743 C 0.90493 0.62851 0.26887
 C1744 C 0.88820 0.61649 0.25659
 H1745 H 0.93234 0.55700 0.32812
 H1746 H 0.90356 0.53590 0.30633
 H1747 H 0.90777 0.64538 0.26439
 H1748 H 0.87862 0.62444 0.24299
 H1749 H 0.93853 0.64751 0.29379
 H1750 H 0.95406 0.59122 0.33497
 H1751 H 0.87499 0.53300 0.27469
 H1752 H 0.85839 0.58998 0.23498
 C1753 C 0.91847 0.40297 0.71323
 C1754 C 0.91888 0.38032 0.71595
 C1755 C 0.93522 0.36806 0.70362
 C1756 C 0.95080 0.37827 0.68837
 C1757 C 0.94984 0.40096 0.68549
 C1758 C 0.93387 0.41344 0.69811
 C1759 C 0.90177 0.41599 0.72668
 C1760 C 0.90184 0.43871 0.72451
 C1761 C 0.88624 0.45103 0.73771
 C1762 C 0.87044 0.44070 0.75263
 C1763 C 0.87041 0.41791 0.75438
 C1764 C 0.88621 0.40547 0.74160
 C1765 C 0.93319 0.43618 0.69617
 C1766 C 0.91752 0.44861 0.70922
 C1767 C 0.90306 0.37039 0.73108
 C1768 C 0.88692 0.38274 0.74361
 H1769 H 0.94500 0.44446 0.68460
 H1770 H 0.91770 0.46611 0.70733
 H1771 H 0.90318 0.35291 0.73327
 H1772 H 0.87503 0.37446 0.75509
 H1773 H 0.93578 0.35059 0.70582
 H1774 H 0.96192 0.40893 0.67392
 H1775 H 0.88618 0.46859 0.73626
 H1776 H 0.85840 0.40995 0.76603
 C1777 C 0.08035 0.59985 0.71157
 C1778 C 0.06956 0.59028 0.69254
 C1779 C 0.05265 0.60210 0.68026
 C1780 C 0.04636 0.62326 0.68707
 C1781 C 0.05752 0.63260 0.70614
 C1782 C 0.07453 0.62100 0.71841
 C1783 C 0.09787 0.58741 0.72475
 C1784 C 0.10850 0.59697 0.74386
 C1785 C 0.12484 0.58497 0.75657
 C1786 C 0.13043 0.56345 0.75047
 C1787 C 0.11974 0.55420 0.73108
 C1788 C 0.10344 0.56612 0.71817
 C1789 C 0.08570 0.63007 0.73752
 C1790 C 0.10243 0.61827 0.75000
 C1791 C 0.07575 0.56900 0.68635
 C1792 C 0.09237 0.55712 0.69896
 H1793 H 0.08138 0.64640 0.74293
 H1794 H 0.11054 0.62582 0.76470
 H1795 H 0.06757 0.56141 0.67171
 H1796 H 0.09651 0.54071 0.69368
 H1797 H 0.04414 0.59472 0.66567
 H1798 H 0.05293 0.64889 0.71150
 H1799 H 0.13322 0.59238 0.77120
 H1800 H 0.12369 0.53759 0.72638
 C1801 C 0.08619 0.40052 0.28814
 C1802 C 0.07526 0.41018 0.30698
 C1803 C 0.05872 0.39817 0.31951
 C1804 C 0.05293 0.37676 0.31310
 C1805 C 0.06421 0.36734 0.29421
 C1806 C 0.08088 0.37912 0.28171
 C1807 C 0.10331 0.41315 0.27469
 C1808 C 0.11409 0.40351 0.25578
 C1809 C 0.12999 0.41569 0.24278
 C1810 C 0.13495 0.43748 0.24838
 C1811 C 0.12415 0.44681 0.26759
 C1812 C 0.10831 0.43470 0.28082
 C1813 C 0.09219 0.36997 0.26280
 C1814 C 0.10855 0.38195 0.25007
 C1815 C 0.08090 0.43171 0.31273
 C1816 C 0.09711 0.44378 0.29985
 H1817 H 0.08827 0.35345 0.25771
 H1818 H 0.11678 0.37433 0.23552
 H1819 H 0.07260 0.43937 0.32722
 H1820 H 0.10082 0.46039 0.30477
 H1821 H 0.05011 0.40560 0.33396
 H1822 H 0.06000 0.35085 0.28918
 H1823 H 0.13847 0.40822 0.22828
 H1824 H 0.12759 0.46362 0.27191
   
