data_POSCAR
  _audit_creation_date              2014-09-24
  _audit_creation_method            'ToBaCCo'
  _symmetry_space_group_name_H-M    'P1'
  _symmetry_Int_Tables_number       1
  _symmetry_cell_setting            triclinic
  loop_
  _symmetry_equiv_pos_as_xyz
 x,y,z
_cell_length_a 65.7767
_cell_length_b 65.9693
_cell_length_c 65.7718
_cell_angle_alpha 89.286300
_cell_angle_beta 90.737500
_cell_angle_gamma 90.283400
loop_
  _atom_site_label
  _atom_site_type_symbol
  _atom_site_fract_x
  _atom_site_fract_y
  _atom_site_fract_z
C1 C 0.10718 0.02031 0.22476
 H2 H 0.11067 0.03165 0.23604
 C3 C 0.09777 0.02597 0.20641
 H4 H 0.09424 0.04179 0.20369
 C5 C 0.10833 -0.01393 0.21446
 H6 H 0.11269 -0.02944 0.21749
 C7 C 0.09875 -0.00897 0.19600
 H8 H 0.09541 -0.02092 0.18531
 N9 N 0.11206 0.00061 0.22855
 C10 C 0.11349 -0.00777 0.29457
 H11 H 0.12890 -0.01304 0.29690
 C12 C 0.10016 -0.00726 0.31094
 H13 H 0.10542 -0.01228 0.32582
 C14 C 0.08764 0.00407 0.27204
 H15 H 0.08269 0.00810 0.25681
 C16 C 0.07383 0.00479 0.28795
 H17 H 0.05843 0.00975 0.28480
 Zn18 Zn 0.12518 -0.00565 0.25373
 N19 N 0.10703 -0.00225 0.27557
 C20 C 0.14860 0.02568 0.27162
 N21 N 0.14761 0.01216 0.25619
 C22 C 0.16132 0.01262 0.24090
 C23 C 0.17664 0.02734 0.24055
 C24 C 0.16363 0.04068 0.27184
 C25 C 0.11785 -0.04677 0.25454
 C26 C 0.12177 -0.06744 0.25376
 C27 C 0.15770 -0.05987 0.25353
 C28 C 0.15297 -0.03920 0.25422
 N29 N 0.13328 -0.03311 0.25417
 H30 H 0.13730 0.02535 0.28339
 H31 H 0.15988 0.00199 0.22857
 H32 H 0.18698 0.02792 0.22787
 H33 H 0.16402 0.05150 0.28409
 H34 H 0.10232 -0.04151 0.25521
 H35 H 0.10877 -0.07744 0.25487
 H36 H 0.17358 -0.06372 0.25242
 H37 H 0.16507 -0.02806 0.25432
 C38 C 0.07993 -0.00120 0.30767
 C39 C 0.09322 0.01121 0.19177
 C40 C 0.14199 -0.07466 0.25260
 C41 C 0.17769 0.04185 0.25598
 C42 C 0.40390 0.02348 0.77128
 H43 H 0.40240 0.03631 0.76098
 C44 C 0.41789 0.02415 0.78734
 H45 H 0.42697 0.03770 0.78950
 C46 C 0.39364 -0.00973 0.78097
 H47 H 0.38416 -0.02288 0.77840
 C48 C 0.40744 -0.00969 0.79730
 H49 H 0.40864 -0.02299 0.80704
 N50 N 0.39245 0.00657 0.76815
 C51 C 0.38175 0.00526 0.70285
 H52 H 0.36533 0.00586 0.70183
 C53 C 0.39311 0.00206 0.68537
 H54 H 0.38532 0.00031 0.67089
 C55 C 0.41175 0.00533 0.72320
 H56 H 0.41899 0.00595 0.73798
 C57 C 0.42364 0.00214 0.70618
 H58 H 0.43997 0.00094 0.70806
 Zn59 Zn 0.37520 0.00695 0.74501
 N60 N 0.39117 0.00666 0.72131
 C61 C 0.35753 0.04442 0.73119
 N62 N 0.35908 0.03048 0.74654
 C63 C 0.34932 0.03301 0.76440
 C64 C 0.33700 0.04981 0.76725
 C65 C 0.34523 0.06150 0.73336
 C66 C 0.36758 -0.03459 0.74127
 C67 C 0.35586 -0.05211 0.73875
 C68 C 0.32562 -0.03194 0.74255
 C69 C 0.33791 -0.01482 0.74497
 N70 N 0.35849 -0.01642 0.74425
 H71 H 0.36567 0.04227 0.71723
 H72 H 0.35112 0.02184 0.77647
 H73 H 0.32952 0.05154 0.78169
 H74 H 0.34376 0.07222 0.72084
 H75 H 0.38397 -0.03536 0.74035
 H76 H 0.36337 -0.06633 0.73584
 H77 H 0.30926 -0.03035 0.74317
 H78 H 0.33093 -0.00021 0.74697
 C79 C 0.41433 0.00006 0.68701
 C80 C 0.42000 0.00730 0.80043
 C81 C 0.33456 -0.05087 0.73914
 C82 C 0.33461 0.06425 0.75154
 C83 C 0.89319 0.52844 0.28507
 H84 H 0.89073 0.54050 0.27402
 C85 C 0.90465 0.53214 0.30257
 H86 H 0.91016 0.54742 0.30479
 C87 C 0.88740 0.49448 0.29546
 H88 H 0.88063 0.47982 0.29255
 C89 C 0.89875 0.49750 0.31334
 H90 H 0.90090 0.48467 0.32350
 N91 N 0.88520 0.50979 0.28162
 C92 C 0.88149 0.50698 0.21562
 H93 H 0.86534 0.50469 0.21325
 C94 C 0.89466 0.50619 0.19916
 H95 H 0.88852 0.50325 0.18413
 C96 C 0.90921 0.51215 0.23837
 H97 H 0.91494 0.51391 0.25370
 C98 C 0.92289 0.51150 0.22237
 H99 H 0.93899 0.51328 0.22559
 Zn100 Zn 0.87077 0.50735 0.25675
 N101 N 0.88894 0.50977 0.23478
 C102 C 0.84983 0.54198 0.24062
 N103 N 0.85117 0.52813 0.25606
 C104 C 0.83849 0.52874 0.27219
 C105 C 0.82341 0.54344 0.27307
 C106 C 0.83492 0.55698 0.24087
 C107 C 0.86905 0.46483 0.25351
 C108 C 0.86006 0.44633 0.24830
 C109 C 0.82779 0.46342 0.24461
 C110 C 0.83733 0.48150 0.25000
 N111 N 0.85765 0.48196 0.25408
 H112 H 0.86026 0.54138 0.22808
 H113 H 0.84011 0.51767 0.28438
 H114 H 0.81361 0.54376 0.28616
 H115 H 0.83382 0.56770 0.22831
 H116 H 0.88528 0.46572 0.25629
 H117 H 0.86942 0.43293 0.24726
 H118 H 0.81167 0.46343 0.24106
 H119 H 0.82859 0.49530 0.24999
 C120 C 0.91571 0.50811 0.20251
 C121 C 0.90804 0.51651 0.31707
 C122 C 0.83925 0.44563 0.24331
 C123 C 0.82140 0.55777 0.25723
 C124 C 0.59688 0.51381 0.72668
 H125 H 0.59849 0.52563 0.73784
 C126 C 0.58365 0.51642 0.71016
 H127 H 0.57527 0.53046 0.70865
 C128 C 0.60669 0.48155 0.71483
 H129 H 0.61587 0.46810 0.71665
 C130 C 0.59353 0.48351 0.69805
 H131 H 0.59247 0.47131 0.68723
 N132 N 0.60799 0.49658 0.72876
 C133 C 0.62107 0.49217 0.79383
 H134 H 0.63749 0.49308 0.79439
 C135 C 0.61017 0.48913 0.81175
 H136 H 0.61828 0.48774 0.82613
 C137 C 0.59053 0.49185 0.77430
 H138 H 0.58289 0.49248 0.75969
 C139 C 0.57912 0.48866 0.79174
 H140 H 0.56274 0.48729 0.79037
 Zn141 Zn 0.62610 0.49560 0.75126
 N142 N 0.61113 0.49350 0.77559
 C143 C 0.64391 0.53264 0.76598
 N144 N 0.64150 0.51986 0.75004
 C145 C 0.64931 0.52442 0.73151
 C146 C 0.66029 0.54227 0.72847
 C147 C 0.65510 0.55062 0.76367
 C148 C 0.63529 0.45402 0.75303
 C149 C 0.64779 0.43693 0.75374
 C150 C 0.67673 0.45875 0.74770
 C151 C 0.66372 0.47540 0.74727
 N152 N 0.64341 0.47279 0.74998
 H153 H 0.63724 0.52895 0.78048
 H154 H 0.64680 0.51418 0.71899
 H155 H 0.66597 0.54566 0.71343
 H156 H 0.65731 0.56035 0.77665
 H157 H 0.61911 0.45239 0.75541
 H158 H 0.64108 0.42221 0.75682
 H159 H 0.69282 0.46122 0.74539
 H160 H 0.66996 0.49043 0.74507
 C161 C 0.58894 0.48706 0.81074
 C162 C 0.58180 0.50116 0.69557
 C163 C 0.66888 0.43919 0.75128
 C164 C 0.66356 0.55558 0.74471
 C165 C 0.29004 0.10299 0.96917
 H166 H 0.27745 0.10532 0.95867
 C167 C 0.30634 0.09086 0.96362
 H168 H 0.30625 0.08414 0.94868
 C169 C 0.30551 0.10940 1.00117
 H170 H 0.30531 0.11685 1.01568
 C171 C 0.32208 0.09728 0.99629
 H172 H 0.33418 0.09518 1.00742
 N173 N 0.28973 0.11171 0.98779
 C174 C 0.22472 0.12025 0.99549
 H175 H 0.22403 0.13659 0.99641
 C176 C 0.20706 0.10865 0.99773
 H177 H 0.19276 0.11616 1.00039
 C178 C 0.24451 0.09055 0.99223
 H179 H 0.25921 0.08354 0.99072
 C180 C 0.22727 0.07838 0.99453
 H181 H 0.22881 0.06205 0.99428
 Zn182 Zn 0.26654 0.12749 0.99387
 N183 N 0.24297 0.11108 0.99298
 C184 C 0.25312 0.14493 0.95708
 N185 N 0.26497 0.14819 0.97382
 C186 C 0.27805 0.16416 0.97467
 C187 C 0.27946 0.17774 0.95829
 C188 C 0.25454 0.15773 0.94009
 C189 C 0.26980 0.12252 1.03516
 C190 C 0.27092 0.12717 1.05570
 C191 C 0.26723 0.16255 1.04678
 C192 C 0.26638 0.15711 1.02622
 N193 N 0.26815 0.13737 1.02084
 H194 H 0.24344 0.13166 0.95642
 H195 H 0.28792 0.16600 0.98779
 H196 H 0.28981 0.19046 0.95958
 H197 H 0.24582 0.15395 0.92660
 H198 H 0.27016 0.10684 1.03053
 H199 H 0.27136 0.11445 1.06619
 H200 H 0.26664 0.17852 1.05010
 H201 H 0.26419 0.16870 1.01467
 C202 C 0.20830 0.08741 0.99770
 C203 C 0.32260 0.08768 0.97733
 C204 C 0.27008 0.14756 1.06220
 C205 C 0.26811 0.17430 0.94034
 C206 C 0.72936 0.41063 0.97923
 H207 H 0.74091 0.41243 0.96778
 C208 C 0.71196 0.42257 0.97826
 H209 H 0.71018 0.43334 0.96583
 C210 C 0.71766 0.39408 1.00907
 H211 H 0.71998 0.38296 1.02106
 C212 C 0.70001 0.40584 1.00875
 H213 H 0.68902 0.40383 1.02073
 N214 N 0.73205 0.39688 0.99459
 C215 C 0.79739 0.39179 1.00474
 H216 H 0.79899 0.37553 1.00578
 C217 C 0.81403 0.40416 1.00940
 H218 H 0.82839 0.39723 1.01362
 C219 C 0.77639 0.42052 0.99980
 H220 H 0.76165 0.42695 0.99657
 C221 C 0.79263 0.43346 1.00439
 H222 H 0.79023 0.44968 1.00408
 Zn223 Zn 0.75677 0.38205 0.99534
 N224 N 0.77904 0.40006 0.99982
 C225 C 0.77704 0.35679 0.96773
 N226 N 0.75988 0.36782 0.97047
 C227 C 0.74454 0.36771 0.95634
 C228 C 0.74604 0.35605 0.93884
 C229 C 0.77899 0.34463 0.95066
 C230 C 0.75856 0.37067 1.03644
 C231 C 0.76122 0.35757 1.05309
 C232 C 0.76024 0.32936 1.03008
 C233 C 0.75736 0.34304 1.01395
 N234 N 0.75698 0.36328 1.01733
 H235 H 0.78891 0.35667 0.97918
 H236 H 0.73074 0.37600 0.95890
 H237 H 0.73345 0.35562 0.92807
 H238 H 0.79244 0.33541 0.94905
 H239 H 0.75850 0.38689 1.03867
 H240 H 0.76360 0.36456 1.06769
 H241 H 0.75979 0.31344 1.02644
 H242 H 0.75567 0.33742 0.99866
 C243 C 0.81176 0.42530 1.00929
 C244 C 0.69713 0.42053 0.99334
 C245 C 0.76266 0.33634 1.05028
 C246 C 0.76326 0.34403 0.93610
 C247 C 0.21783 0.91291 0.47083
 H248 H 0.22989 0.91413 0.45983
 C249 C 0.20096 0.92548 0.46907
 H250 H 0.20003 0.93609 0.45641
 C251 C 0.20428 0.89697 0.50020
 H252 H 0.20564 0.88574 0.51224
 C253 C 0.18722 0.90945 0.49918
 H254 H 0.17573 0.90791 0.51073
 N255 N 0.21908 0.89881 0.48604
 C256 C 0.28446 0.88799 0.48873
 H257 H 0.28544 0.87187 0.48632
 C258 C 0.30221 0.89919 0.49242
 H259 H 0.31673 0.89153 0.49275
 C260 C 0.26435 0.91733 0.49266
 H261 H 0.24961 0.92432 0.49352
 C262 C 0.28164 0.92906 0.49638
 H263 H 0.27992 0.94506 0.49933
 Zn264 Zn 0.24181 0.88138 0.48702
 N265 N 0.26598 0.89716 0.48895
 C266 C 0.25412 0.84829 0.46298
 N267 N 0.24159 0.86465 0.46348
 C268 C 0.22781 0.86820 0.44822
 C269 C 0.22616 0.85509 0.43181
 C270 C 0.25257 0.83446 0.44708
 C271 C 0.24725 0.87291 0.52854
 C272 C 0.24836 0.86083 0.54610
 C273 C 0.23467 0.83285 0.52680
 C274 C 0.23374 0.84549 0.50964
 N275 N 0.24049 0.86496 0.51070
 H276 H 0.26460 0.84537 0.47544
 H277 H 0.21751 0.88078 0.44891
 H278 H 0.21476 0.85788 0.42009
 H279 H 0.26206 0.82108 0.44725
 H280 H 0.25238 0.88851 0.52898
 H281 H 0.25461 0.86715 0.55997
 H282 H 0.22967 0.81724 0.52560
 H283 H 0.22799 0.83963 0.49541
 C284 C 0.30087 0.91997 0.49660
 C285 C 0.18532 0.92384 0.48334
 C286 C 0.24250 0.84038 0.54521
 C287 C 0.23834 0.83780 0.43137
 C288 C 0.77100 0.60234 0.49368
 H289 H 0.75805 0.60184 0.48338
 C290 C 0.78761 0.58980 0.49048
 H291 H 0.78739 0.57994 0.47745
 C292 C 0.78703 0.61637 0.52275
 H293 H 0.78693 0.62694 0.53513
 C294 C 0.80389 0.60386 0.52029
 H295 H 0.81630 0.60464 0.53123
 N296 N 0.77078 0.61498 0.50983
 C297 C 0.70609 0.62095 0.52126
 H298 H 0.70433 0.63721 0.51991
 C299 C 0.68919 0.60866 0.52503
 H300 H 0.67442 0.61557 0.52672
 C301 C 0.72759 0.59224 0.52084
 H302 H 0.74258 0.58589 0.51931
 C303 C 0.71112 0.57939 0.52471
 H304 H 0.71359 0.56319 0.52573
 Zn305 Zn 0.74668 0.63020 0.51268
 N306 N 0.72474 0.61257 0.51881
 C307 C 0.72585 0.63748 0.47562
 N308 N 0.74196 0.64334 0.48732
 C309 C 0.75636 0.65629 0.47998
 C310 C 0.75528 0.66322 0.45980
 C311 C 0.72422 0.64396 0.45543
 C312 C 0.75338 0.64136 0.55293
 C313 C 0.75438 0.65418 0.56960
 C314 C 0.74449 0.68204 0.54751
 C315 C 0.74433 0.66876 0.53112
 N316 N 0.74881 0.64885 0.53411
 H317 H 0.71482 0.62682 0.48148
 H318 H 0.76924 0.66039 0.48949
 H319 H 0.76734 0.67271 0.45384
 H320 H 0.71167 0.63855 0.44613
 H321 H 0.75629 0.62534 0.55499
 H322 H 0.75885 0.64781 0.58420
 H323 H 0.74011 0.69763 0.54479
 H324 H 0.74004 0.67425 0.51612
 C325 C 0.69157 0.58755 0.52660
 C326 C 0.80422 0.59012 0.50412
 C327 C 0.74966 0.67486 0.56716
 C328 C 0.73938 0.65647 0.44712
 C329 C 0.02762 0.23082 0.08636
 H330 H 0.03962 0.24189 0.08849
 C331 C 0.03005 0.21521 0.07250
 H332 H 0.04403 0.21446 0.06403
 C333 C -0.00433 0.21750 0.09626
 H334 H -0.01738 0.21808 0.10604
 C335 C -0.00258 0.20167 0.08249
 H336 H -0.01466 0.19051 0.08142
 N337 N 0.01080 0.23152 0.09809
 C338 C 0.00927 0.29176 0.12396
 H339 H 0.01003 0.28752 0.13990
 C340 C 0.00558 0.31184 0.11833
 H341 H 0.00459 0.32282 0.13033
 C342 C 0.01009 0.28207 0.08948
 H343 H 0.01112 0.27023 0.07833
 C344 C 0.00657 0.30209 0.08309
 H345 H 0.00484 0.30505 0.06696
 Zn346 Zn 0.01138 0.25029 0.11952
 N347 N 0.01108 0.27730 0.10964
 C348 C 0.04961 0.25881 0.13959
 N349 N 0.03533 0.24459 0.13481
 C350 C 0.03811 0.22473 0.13969
 C351 C 0.05576 0.21841 0.14978
 C352 C 0.06743 0.25317 0.15007
 C353 C -0.03024 0.25206 0.12760
 C354 C -0.04748 0.25331 0.13970
 C355 C -0.02661 0.24479 0.16904
 C356 C -0.00978 0.24359 0.15637
 N357 N -0.01183 0.24749 0.13609
 H358 H 0.04725 0.27449 0.13528
 H359 H 0.02668 0.21369 0.13536
 H360 H 0.05774 0.20239 0.15291
 H361 H 0.07838 0.26477 0.15414
 H362 H -0.03135 0.25553 0.11151
 H363 H -0.06184 0.25771 0.13278
 H364 H -0.02463 0.24204 0.18521
 H365 H 0.00503 0.24036 0.16288
 C366 C 0.00352 0.31738 0.09759
 C367 C 0.01501 0.20012 0.07068
 C368 C -0.04570 0.25010 0.16079
 C369 C 0.07071 0.23268 0.15532
 C370 C 0.00125 0.77725 0.39631
 H371 H 0.01290 0.76583 0.39502
 C372 C 0.00557 0.79513 0.40646
 H373 H 0.02078 0.79735 0.41253
 C374 C -0.03229 0.78821 0.38892
 H375 H -0.04694 0.78550 0.38182
 C376 C -0.02875 0.80629 0.39947
 H377 H -0.04096 0.81712 0.40075
 N378 N -0.01741 0.77400 0.38790
 C379 C -0.01708 0.70817 0.38806
 H380 H -0.01518 0.70525 0.37205
 C381 C -0.01657 0.69212 0.40207
 H382 H -0.01354 0.67713 0.39645
 C383 C -0.02242 0.73163 0.41435
 H384 H -0.02489 0.74708 0.41900
 C385 C -0.02291 0.71594 0.42880
 H386 H -0.02613 0.71974 0.44436
 Zn387 Zn -0.01941 0.74868 0.37479
 N388 N -0.01932 0.72752 0.39445
 C389 C 0.01873 0.73326 0.36143
 N390 N 0.00370 0.74703 0.35792
 C391 C 0.00505 0.76093 0.34255
 C392 C 0.02145 0.76067 0.32933
 C393 C 0.03542 0.73247 0.34857
 C394 C -0.06189 0.74742 0.36790
 C395 C -0.07977 0.74295 0.35707
 C396 C -0.05934 0.73430 0.32826
 C397 C -0.04199 0.73919 0.33957
 N398 N -0.04349 0.74558 0.35902
 H399 H 0.01794 0.72294 0.37425
 H400 H -0.00682 0.77209 0.34045
 H401 H 0.02218 0.77181 0.31713
 H402 H 0.04696 0.72108 0.35130
 H403 H -0.06268 0.75173 0.38368
 H404 H -0.09383 0.74380 0.36530
 H405 H -0.05703 0.73009 0.31264
 H406 H -0.02725 0.73729 0.33286
 C407 C -0.01957 0.69576 0.42289
 C408 C -0.00962 0.80983 0.40865
 C409 C -0.07892 0.73577 0.33685
 C410 C 0.03680 0.74615 0.33212
 C411 C 0.51615 0.27346 0.91006
 H412 H 0.52820 0.26269 0.90763
 C413 C 0.51889 0.28886 0.92421
 H414 H 0.53312 0.28975 0.93261
 C415 C 0.48372 0.28625 0.90070
 H416 H 0.47028 0.28549 0.89112
 C417 C 0.48580 0.30189 0.91472
 H418 H 0.47364 0.31277 0.91611
 N419 N 0.49887 0.27253 0.89853
 C420 C 0.49115 0.21263 0.87320
 H421 H 0.48694 0.21747 0.85796
 C422 C 0.49058 0.19213 0.87836
 H423 H 0.48554 0.18141 0.86701
 C424 C 0.50249 0.22096 0.90640
 H425 H 0.50714 0.23228 0.91725
 C426 C 0.50249 0.20043 0.91215
 H427 H 0.50751 0.19616 0.92733
 Zn428 Zn 0.49831 0.25360 0.87718
 N429 N 0.49726 0.22656 0.88705
 C430 C 0.53497 0.24191 0.85803
 N431 N 0.52247 0.25761 0.86231
 C432 C 0.52720 0.27694 0.85666
 C433 C 0.54500 0.28107 0.84605
 C434 C 0.55290 0.24535 0.84729
 C435 C 0.45656 0.25307 0.86715
 C436 C 0.43967 0.25232 0.85405
 C437 C 0.46166 0.26082 0.82604
 C438 C 0.47809 0.26148 0.83967
 N439 N 0.47535 0.25731 0.85976
 H440 H 0.53103 0.22668 0.86282
 H441 H 0.51711 0.28917 0.86053
 H442 H 0.54856 0.29662 0.84196
 H443 H 0.56239 0.23258 0.84361
 H444 H 0.45486 0.24937 0.88311
 H445 H 0.42499 0.24811 0.86008
 H446 H 0.46423 0.26379 0.81005
 H447 H 0.49316 0.26446 0.83399
 C448 C 0.49682 0.18567 0.89788
 C449 C 0.50374 0.30356 0.92645
 C450 C 0.44221 0.25574 0.83311
 C451 C 0.55809 0.26515 0.84107
 C452 C 0.52748 0.72542 0.58823
 H453 H 0.53750 0.73815 0.58533
 C454 C 0.53077 0.70703 0.57864
 H455 H 0.54304 0.70607 0.56789
 C456 C 0.49933 0.71155 0.60578
 H457 H 0.48742 0.71330 0.61679
 C458 C 0.50236 0.69269 0.59686
 H459 H 0.49267 0.68011 0.60120
 N460 N 0.51192 0.72739 0.60141
 C461 C 0.50721 0.79309 0.60586
 H462 H 0.50846 0.79457 0.62219
 C463 C 0.50336 0.81015 0.59370
 H464 H 0.50170 0.82474 0.60084
 C465 C 0.50638 0.77195 0.57699
 H466 H 0.50686 0.75697 0.57059
 C467 C 0.50254 0.78863 0.56425
 H468 H 0.50072 0.78632 0.54805
 Zn469 Zn 0.51035 0.75207 0.61551
 N470 N 0.50860 0.77446 0.59739
 C471 C 0.54775 0.76872 0.63167
 N472 N 0.53380 0.75342 0.63243
 C473 C 0.53604 0.73755 0.64561
 C474 C 0.55223 0.73707 0.65943
 C475 C 0.56437 0.76878 0.64523
 C476 C 0.46835 0.75205 0.62173
 C477 C 0.45042 0.75533 0.63235
 C478 C 0.47054 0.76016 0.66291
 C479 C 0.48806 0.75677 0.65173
 N480 N 0.48668 0.75298 0.63148
 H481 H 0.54592 0.78097 0.62075
 H482 H 0.52492 0.72541 0.64561
 H483 H 0.55354 0.72442 0.67001
 H484 H 0.57509 0.78128 0.64491
 H485 H 0.46773 0.74942 0.60553
 H486 H 0.43601 0.75520 0.62419
 H487 H 0.47197 0.76337 0.67897
 H488 H 0.50275 0.75795 0.65914
 C489 C 0.50072 0.80802 0.57261
 C490 C 0.51842 0.69016 0.58320
 C491 C 0.45143 0.75984 0.65315
 C492 C 0.56646 0.75298 0.65961
 C493 C 0.90185 0.97545 0.72637
 H494 H 0.90473 0.96567 0.73942
 C495 C 0.91302 0.97370 0.70967
 H496 H 0.92449 0.96201 0.70932
 C497 C 0.88138 1.00148 0.71143
 H498 H 0.86946 1.01262 0.71231
 C499 C 0.89283 0.99961 0.69237
 H500 H 0.88914 1.01005 0.68007
 N501 N 0.88642 0.99071 0.72741
 C502 C 0.88830 1.00507 0.79323
 H503 H 0.87226 1.00615 0.79650
 C504 C 0.90205 1.00561 0.80839
 H505 H 0.89650 1.00684 0.82371
 C506 C 0.91374 1.00193 0.76810
 H507 H 0.91837 1.00024 0.75256
 C508 C 0.92947 1.00260 0.78424
 H509 H 0.94515 1.00211 0.77954
 Zn510 Zn 0.87427 0.99498 0.75303
 N511 N 0.89457 1.00171 0.77272
 C512 C 0.86577 0.96138 0.77915
 N513 N 0.86101 0.97049 0.76103
 C514 C 0.84698 0.96218 0.74818
 C515 C 0.83670 0.94436 0.75369
 C516 C 0.85559 0.94385 0.78542
 C517 C 0.86281 1.03547 0.74668
 C518 C 0.84965 1.05199 0.74503
 C519 C 0.82173 1.02966 0.75354
 C520 C 0.83542 1.01358 0.75504
 N521 N 0.85550 1.01668 0.75135
 H522 H 0.87749 0.96756 0.78887
 H523 H 0.84368 0.96950 0.73372
 H524 H 0.82540 0.93800 0.74345
 H525 H 0.85940 0.93692 0.79998
 H526 H 0.87888 1.03755 0.74402
 H527 H 0.85571 1.06672 0.74083
 H528 H 0.80582 1.02689 0.75663
 H529 H 0.82996 0.99865 0.75919
 C530 C 0.92415 1.00312 0.80401
 C531 C 0.90895 0.98702 0.69160
 C532 C 0.82876 1.04918 0.74834
 C533 C 0.84080 0.93522 0.77267
 C534 C 0.39916 0.48464 0.21670
 H535 H 0.40057 0.47009 0.22434
 C536 C 0.41026 0.48871 0.19909
 H537 H 0.42028 0.47724 0.19325
 C538 C 0.38471 0.51746 0.21521
 H539 H 0.37460 0.52861 0.22132
 C540 C 0.39568 0.52224 0.19777
 H541 H 0.39390 0.53704 0.19068
 N542 N 0.38698 0.49910 0.22459
 C543 C 0.38510 0.48949 0.29022
 H544 H 0.36883 0.48887 0.29242
 C545 C 0.39831 0.48778 0.30692
 H546 H 0.39206 0.48558 0.32194
 C547 C 0.41288 0.49273 0.26782
 H548 H 0.41851 0.49490 0.25259
 C549 C 0.42665 0.49110 0.28410
 H550 H 0.44279 0.49210 0.28118
 Zn551 Zn 0.37344 0.49359 0.24939
 N552 N 0.39253 0.49162 0.27111
 C553 C 0.36297 0.45302 0.26005
 N554 N 0.35874 0.46872 0.24706
 C555 C 0.34392 0.46702 0.23254
 C556 C 0.33164 0.44968 0.23175
 C557 C 0.35130 0.43527 0.25956
 C558 C 0.36436 0.53358 0.26020
 C559 C 0.35219 0.55043 0.26388
 C560 C 0.32252 0.52948 0.25820
 C561 C 0.33523 0.51303 0.25479
 N562 N 0.35577 0.51542 0.25538
 H563 H 0.37518 0.45430 0.27108
 H564 H 0.34119 0.47947 0.22200
 H565 H 0.31945 0.44885 0.22056
 H566 H 0.35444 0.42323 0.27048
 H567 H 0.38075 0.53502 0.26091
 H568 H 0.35936 0.56472 0.26767
 H569 H 0.30624 0.52729 0.25689
 H570 H 0.32856 0.49848 0.25145
 C571 C 0.41942 0.48846 0.30396
 C572 C 0.40883 0.50786 0.18966
 C573 C 0.33093 0.54856 0.26272
 C574 C 0.33507 0.43367 0.24563
 C575 C 0.60768 0.99657 0.28778
 H576 H 0.61770 0.98366 0.28815
 C577 C 0.59496 0.99937 0.30319
 H578 H 0.59498 0.98823 0.31538
 C579 C 0.59434 1.02474 0.26914
 H580 H 0.59352 1.03407 0.25557
 C581 C 0.58024 1.02864 0.28584
 H582 H 0.57079 1.04191 0.28430
 N583 N 0.60748 1.01011 0.27051
 C584 C 0.61259 1.01763 0.20819
 H585 H 0.62538 1.02797 0.20839
 C586 C 0.59987 1.01676 0.19102
 H587 H 0.60287 1.02672 0.17820
 C588 C 0.59286 0.99243 0.22486
 H589 H 0.59028 0.98301 0.23817
 C590 C 0.57991 0.99094 0.20801
 H591 H 0.56757 0.98003 0.20841
 Zn592 Zn 0.62519 1.00635 0.24835
 N593 N 0.60887 1.00552 0.22461
 C594 C 0.63676 0.96650 0.23768
 N595 N 0.63935 0.98140 0.25163
 C596 C 0.65226 0.97893 0.26781
 C597 C 0.66345 0.96112 0.27020
 C598 C 0.64736 0.94830 0.23971
 C599 C 0.63706 1.04768 0.24598
 C600 C 0.65044 1.06412 0.24716
 C601 C 0.67835 1.04061 0.24938
 C602 C 0.66441 1.02465 0.24795
 N603 N 0.64411 1.02835 0.24700
 H604 H 0.62671 0.96876 0.22476
 H605 H 0.65412 0.99100 0.27868
 H606 H 0.67390 0.95949 0.28297
 H607 H 0.64538 0.93671 0.22832
 H608 H 0.62097 1.05047 0.24463
 H609 H 0.64391 1.07912 0.24744
 H610 H 0.69434 1.03689 0.24988
 H611 H 0.66995 1.00929 0.24777
 C612 C 0.58325 1.00326 0.19079
 C613 C 0.58036 1.01666 0.30268
 C614 C 0.67154 1.06087 0.24953
 C615 C 0.66106 0.94559 0.25600
 C616 C 0.11040 0.49174 0.79712
 H617 H 0.11890 0.47799 0.79485
 C618 C 0.09854 0.49374 0.81452
 H619 H 0.09774 0.48131 0.82538
 C620 C 0.10089 0.52459 0.78566
 H621 H 0.10201 0.53658 0.77436
 C622 C 0.08899 0.52726 0.80277
 H623 H 0.08114 0.54149 0.80457
 N624 N 0.11109 0.50698 0.78302
 C625 C 0.11786 0.50291 0.71742
 H626 H 0.13425 0.50310 0.71622
 C627 C 0.10578 0.49961 0.70014
 H628 H 0.11301 0.49735 0.68565
 C629 C 0.08864 0.50424 0.73807
 H630 H 0.08203 0.50551 0.75294
 C631 C 0.07601 0.50087 0.72121
 H632 H 0.05972 0.50005 0.72324
 Zn633 Zn 0.12656 0.50587 0.75904
 N634 N 0.10917 0.50506 0.73592
 C635 C 0.13325 0.46403 0.75643
 N636 N 0.14272 0.48233 0.75797
 C637 C 0.16318 0.48417 0.75574
 C638 C 0.17487 0.46729 0.75123
 C639 C 0.14440 0.44671 0.75194
 C640 C 0.14418 0.54220 0.74262
 C641 C 0.15772 0.55859 0.74284
 C642 C 0.16907 0.54801 0.77639
 C643 C 0.15538 0.53186 0.77552
 N644 N 0.14356 0.52904 0.75868
 H645 H 0.11690 0.46308 0.75775
 H646 H 0.17041 0.49887 0.75650
 H647 H 0.19109 0.46914 0.74918
 H648 H 0.13651 0.43241 0.74997
 H649 H 0.13441 0.53987 0.72952
 H650 H 0.15845 0.56860 0.72969
 H651 H 0.17836 0.54994 0.78995
 H652 H 0.15434 0.52129 0.78818
 C653 C 0.08458 0.49821 0.70198
 C654 C 0.08745 0.51164 0.81738
 C655 C 0.17058 0.56150 0.75980
 C656 C 0.16543 0.44834 0.74881
 C657 C 0.78957 0.91132 0.01745
 H658 H 0.77789 0.91500 0.02821
 C659 C 0.80618 0.92433 0.01489
 H660 H 0.80725 0.93809 0.02366
 C661 C 0.80242 0.88898 -0.00717
 H662 H 0.80102 0.87511 -0.01563
 C663 C 0.81952 0.90131 -0.00986
 H664 H 0.83098 0.89704 -0.02065
 N665 N 0.78757 0.89446 0.00587
 C666 C 0.72176 0.88510 0.00768
 H667 H 0.72146 0.86885 0.01012
 C668 C 0.70374 0.89613 0.00844
 H669 H 0.68961 0.88827 0.01157
 C670 C 0.74076 0.91514 0.00168
 H671 H 0.75514 0.92250 -0.00118
 C672 C 0.72312 0.92677 0.00242
 H673 H 0.72415 0.94304 0.00025
 Zn674 Zn 0.76351 0.87864 0.00824
 N675 N 0.73988 0.89478 0.00516
 C676 C 0.74974 0.87227 0.04844
 N677 N 0.76350 0.86633 0.03444
 C678 C 0.77661 0.85088 0.03851
 C679 C 0.77452 0.83918 0.05620
 C680 C 0.74747 0.86130 0.06655
 C681 C 0.76432 0.86514 -0.03193
 C682 C 0.76477 0.85119 -0.04771
 C683 C 0.75979 0.82423 -0.02309
 C684 C 0.75953 0.83869 -0.00777
 N685 N 0.76238 0.85867 -0.01234
 H686 H 0.73998 0.88508 0.04530
 H687 H 0.78778 0.84680 0.02736
 H688 H 0.78401 0.82598 0.05862
 H689 H 0.73567 0.86544 0.07704
 H690 H 0.76612 0.88115 -0.03522
 H691 H 0.76718 0.85664 -0.06309
 H692 H 0.75756 0.80841 -0.01912
 H693 H 0.75694 0.83386 0.00772
 C694 C 0.70439 0.91732 0.00643
 C695 C 0.82123 0.91946 0.00089
 C696 C 0.76278 0.83038 -0.04335
 C697 C 0.75939 0.84407 0.07011
 C698 C 0.26999 0.41739 0.49403
 H699 H 0.25584 0.42480 0.49724
 C700 C 0.28757 0.42909 0.49174
 H701 H 0.28664 0.44541 0.49302
 C702 C 0.28865 0.38726 0.48924
 H703 H 0.28887 0.37091 0.48811
 C704 C 0.30664 0.39839 0.48695
 H705 H 0.32066 0.39050 0.48391
 N706 N 0.27066 0.39691 0.49199
 C707 C 0.20917 0.39253 0.50959
 H708 H 0.21122 0.37917 0.51902
 C709 C 0.19216 0.40466 0.51238
 H710 H 0.18146 0.40080 0.52422
 C711 C 0.22005 0.41356 0.48230
 H712 H 0.23085 0.41673 0.47040
 C713 C 0.20349 0.42643 0.48493
 H714 H 0.20162 0.43962 0.47514
 Zn715 Zn 0.24644 0.38098 0.49239
 N716 N 0.22302 0.39744 0.49510
 C717 C 0.24899 0.37119 0.53384
 N718 N 0.24791 0.36284 0.51505
 C719 C 0.24637 0.34242 0.51276
 C720 C 0.24433 0.32970 0.52978
 C721 C 0.24691 0.35905 0.55125
 C722 C 0.25700 0.36793 0.45249
 C723 C 0.25479 0.35598 0.43517
 C724 C 0.22373 0.34225 0.44902
 C725 C 0.22649 0.35448 0.46599
 N726 N 0.24326 0.36648 0.46777
 H727 H 0.25033 0.38747 0.53524
 H728 H 0.24611 0.33598 0.49775
 H729 H 0.24267 0.31354 0.52761
 H730 H 0.24662 0.36619 0.56598
 H731 H 0.26988 0.37804 0.45381
 H732 H 0.26632 0.35667 0.42357
 H733 H 0.21056 0.33238 0.44816
 H734 H 0.21553 0.35398 0.47812
 C735 C 0.18947 0.42205 0.50026
 C736 C 0.30612 0.41964 0.48768
 C737 C 0.23826 0.34254 0.43355
 C738 C 0.24396 0.33804 0.54934
 C739 C 0.23130 0.60331 0.01644
 H740 H 0.24509 0.60002 0.02497
 C741 C 0.21421 0.59097 0.01889
 H742 H 0.21505 0.57850 0.02972
 C743 C 0.21374 0.62385 -0.00762
 H744 H 0.21366 0.63665 -0.01803
 C745 C 0.19604 0.61239 -0.00512
 H746 H 0.18286 0.61636 -0.01430
 N747 N 0.23121 0.61844 0.00225
 C748 C 0.29603 0.61808 -0.01135
 H749 H 0.29903 0.63419 -0.01253
 C750 C 0.31223 0.60448 -0.01047
 H751 H 0.32761 0.61037 -0.01084
 C752 C 0.27235 0.59119 -0.00803
 H753 H 0.25682 0.58593 -0.00751
 C754 C 0.28804 0.57703 -0.00732
 H755 H 0.28431 0.56107 -0.00601
 Zn756 Zn 0.25629 0.63127 -0.00407
 N757 N 0.27666 0.61138 -0.00859
 C758 C 0.28017 0.64144 0.03017
 N759 N 0.26356 0.64697 0.01891
 C760 C 0.24980 0.66032 0.02621
 C761 C 0.25168 0.66733 0.04618
 C762 C 0.28273 0.64822 0.04996
 C763 C 0.24572 0.63415 -0.04373
 C764 C 0.24405 0.64149 -0.06349
 C765 C 0.25896 0.67315 -0.05258
 C766 C 0.25968 0.66533 -0.03257
 N767 N 0.25341 0.64596 -0.02873
 H768 H 0.29064 0.63036 0.02471
 H769 H 0.23647 0.66412 0.01717
 H770 H 0.23979 0.67663 0.05236
 H771 H 0.29550 0.64273 0.05899
 H772 H 0.24114 0.61872 -0.04032
 H773 H 0.23756 0.63169 -0.07498
 H774 H 0.26496 0.68815 -0.05572
 H775 H 0.26607 0.67432 -0.02040
 C776 C 0.30835 0.58369 -0.00748
 C777 C 0.19638 0.59489 0.00742
 C778 C 0.25154 0.66088 -0.06843
 C779 C 0.26784 0.66042 0.05856
 C780 C 0.70726 0.11145 0.50369
 H781 H 0.71015 0.11707 0.51881
 C782 C 0.68992 0.09973 0.49987
 H783 H 0.67978 0.09622 0.51227
 C784 C 0.71729 0.10868 0.46935
 H785 H 0.72812 0.11222 0.45758
 C786 C 0.70010 0.09702 0.46484
 H787 H 0.69768 0.09186 0.44943
 N788 N 0.72067 0.11538 0.48857
 C789 C 0.78578 0.11960 0.49829
 H790 H 0.78764 0.13561 0.50124
 C791 C 0.80210 0.10644 0.50136
 H792 H 0.81656 0.11249 0.50655
 C793 C 0.76417 0.09213 0.48948
 H794 H 0.74922 0.08651 0.48548
 C795 C 0.78007 0.07844 0.49238
 H796 H 0.77730 0.06245 0.48999
 Zn797 Zn 0.74489 0.13010 0.49355
 N798 N 0.76723 0.11226 0.49269
 C799 C 0.74851 0.12657 0.53493
 N800 N 0.74482 0.14065 0.52013
 C801 C 0.74192 0.16050 0.52470
 C802 C 0.74187 0.16661 0.54506
 C803 C 0.74895 0.13202 0.55525
 C804 C 0.76272 0.15137 0.46050
 C805 C 0.76258 0.16484 0.44394
 C806 C 0.72959 0.17656 0.45428
 C807 C 0.73040 0.16295 0.47067
 N808 N 0.74671 0.15059 0.47336
 H809 H 0.75104 0.11095 0.53088
 H810 H 0.73932 0.17151 0.51266
 H811 H 0.73882 0.18229 0.54854
 H812 H 0.75216 0.12045 0.56665
 H813 H 0.77536 0.14114 0.46268
 H814 H 0.77543 0.16517 0.43382
 H815 H 0.71611 0.18570 0.45201
 H816 H 0.71766 0.16164 0.48085
 C817 C 0.79924 0.08551 0.49877
 C818 C 0.68625 0.09217 0.48027
 C819 C 0.74571 0.17745 0.44047
 C820 C 0.74510 0.15216 0.56066
 C821 C 1.00236 0.71651 0.89162
 H822 H 0.98779 0.71916 0.88435
 C823 C 1.00473 0.70028 0.90389
 H824 H 0.99177 0.69043 0.90621
 C825 C 1.03591 0.72840 0.89851
 H826 H 1.04788 0.73946 0.89689
 C827 C 1.03927 0.71077 0.91205
 H828 H 1.05431 0.70920 0.91867
 N829 N 1.01873 0.73079 0.88880
 C830 C 1.01800 0.79765 0.87994
 H831 H 1.02149 0.79950 0.86399
 C832 C 1.01531 0.81400 0.89154
 H833 H 1.01641 0.82881 0.88440
 C834 C 1.01136 0.77492 0.90750
 H835 H 1.00903 0.75980 0.91354
 C836 C 1.00839 0.79237 0.92084
 H837 H 1.00545 0.78905 0.93667
 Zn838 Zn 1.01563 0.75432 0.87168
 N839 N 1.01559 0.77761 0.88839
 C840 C 0.97624 0.76765 0.85932
 N841 N 0.99025 0.75266 0.85753
 C842 C 0.98590 0.73559 0.84690
 C843 C 0.96656 0.73261 0.83851
 C844 C 0.95671 0.76538 0.85095
 C845 C 1.05681 0.75888 0.86013
 C846 C 1.07362 0.75571 0.84777
 C847 C 1.05065 0.74738 0.82020
 C848 C 1.03431 0.75052 0.83314
 N849 N 1.03763 0.75529 0.85298
 H850 H 0.97990 0.78108 0.86789
 H851 H 0.99722 0.72383 0.84576
 H852 H 0.96310 0.71855 0.83083
 H853 H 0.94544 0.77701 0.85328
 H854 H 1.05917 0.76358 0.87565
 H855 H 1.08873 0.75748 0.85422
 H856 H 1.04760 0.74312 0.80462
 H857 H 1.01903 0.74842 0.82739
 C858 C 1.00965 0.81153 0.91340
 C859 C 1.02437 0.69689 0.91504
 C860 C 1.07068 0.74919 0.82767
 C861 C 0.95156 0.74741 0.84092
 C862 C 0.49664 0.21868 0.38441
 H863 H 0.48209 0.22357 0.37840
 C864 C 0.49777 0.20099 0.39631
 H865 H 0.48405 0.19238 0.39927
 C866 C 0.53193 0.22456 0.38910
 H867 H 0.54515 0.23395 0.38666
 C868 C 0.53375 0.20706 0.40102
 H869 H 0.54852 0.20299 0.40724
 N870 N 0.51358 0.23016 0.38118
 C871 C 0.51969 0.29553 0.38000
 H872 H 0.52213 0.29857 0.36401
 C873 C 0.51767 0.31161 0.39343
 H874 H 0.51870 0.32698 0.38757
 C875 C 0.51309 0.27178 0.40647
 H876 H 0.51048 0.25630 0.41134
 C877 C 0.51121 0.28735 0.42044
 H878 H 0.50778 0.28357 0.43609
 Zn879 Zn 0.51212 0.25553 0.36728
 N880 N 0.51654 0.27616 0.38656
 C881 C 0.47473 0.27546 0.36229
 N882 N 0.48557 0.25932 0.35577
 C883 C 0.47711 0.24573 0.34267
 C884 C 0.45688 0.24791 0.33609
 C885 C 0.45464 0.27821 0.35609
 C886 C 0.55211 0.26007 0.35419
 C887 C 0.56846 0.25842 0.34103
 C888 C 0.54468 0.25166 0.31366
 C889 C 0.52876 0.25324 0.32743
 N890 N 0.53277 0.25682 0.34741
 H891 H 0.48132 0.28604 0.37285
 H892 H 0.48579 0.23275 0.33799
 H893 H 0.45012 0.23659 0.32628
 H894 H 0.44633 0.29107 0.36172
 H895 H 0.55493 0.26339 0.37003
 H896 H 0.58373 0.26000 0.34713
 H897 H 0.54116 0.24852 0.29788
 H898 H 0.51330 0.25106 0.32221
 C899 C 0.51257 0.30762 0.41380
 C900 C 0.51648 0.19518 0.40505
 C901 C 0.56492 0.25369 0.32051
 C902 C 0.44530 0.26413 0.34320
 C903 C 0.99746 0.27015 0.58833
 H904 H 0.99867 0.25542 0.58149
 C905 C 1.00053 0.28749 0.57639
 H906 H 1.00292 0.28546 0.56031
 C907 C 0.99291 0.29008 0.61753
 H908 H 0.99070 0.29089 0.63377
 C909 C 0.99573 0.30789 0.60614
 H910 H 0.99578 0.32208 0.61418
 N911 N 0.99391 0.27170 0.60854
 C912 C 1.00811 0.20944 0.61369
 H913 H 1.01995 0.21183 0.62495
 C914 C 1.00577 0.19037 0.60497
 H915 H 1.01597 0.17821 0.60940
 C916 C 0.97892 0.22147 0.59584
 H917 H 0.96798 0.23342 0.59313
 C918 C 0.97627 0.20274 0.58646
 H919 H 0.96331 0.20029 0.57647
 Zn920 Zn 0.99398 0.24810 0.62523
 N921 N 0.99450 0.22439 0.60933
 C922 C 0.96921 0.22753 0.65168
 N923 N 0.97036 0.24545 0.64135
 C924 C 0.95503 0.25920 0.64206
 C925 C 0.93783 0.25518 0.65389
 C926 C 0.95231 0.22281 0.66338
 C927 C 1.03599 0.25050 0.63335
 C928 C 1.05361 0.25347 0.64509
 C929 C 1.03271 0.25531 0.67489
 C930 C 1.01556 0.25206 0.66260
 N931 N 1.01745 0.24986 0.64221
 H932 H 0.98144 0.21671 0.65058
 H933 H 0.95605 0.27322 0.63344
 H934 H 0.92598 0.26645 0.65459
 H935 H 0.95170 0.20817 0.67096
 H936 H 1.03704 0.24913 0.61702
 H937 H 1.06792 0.25465 0.63724
 H938 H 1.03044 0.25650 0.69108
 H939 H 1.00067 0.25171 0.66936
 C940 C 0.98947 0.18684 0.59151
 C941 C 1.00016 0.30690 0.58520
 C942 C 1.05227 0.25636 0.66628
 C943 C 0.93632 0.23674 0.66482
 C944 C 0.48369 0.77008 0.08857
 H945 H 0.48433 0.75545 0.08144
 C946 C 0.48798 0.78749 0.07712
 H947 H 0.49146 0.78607 0.06115
 C948 C 0.47998 0.78966 0.11825
 H949 H 0.47762 0.79026 0.13448
 C950 C 0.48408 0.80751 0.10731
 H951 H 0.48481 0.82181 0.11519
 N952 N 0.48018 0.77140 0.10884
 C953 C 0.49400 0.70939 0.10984
 H954 H 0.50628 0.71056 0.12079
 C955 C 0.49302 0.69256 0.09712
 H956 H 0.50506 0.68145 0.09802
 C957 C 0.46331 0.72213 0.09564
 H958 H 0.45169 0.73368 0.09529
 C959 C 0.46161 0.70548 0.08282
 H960 H 0.44847 0.70431 0.07284
 Zn961 Zn 0.47968 0.74749 0.12509
 N962 N 0.47951 0.72402 0.10853
 C963 C 0.45541 0.72885 0.15346
 N964 N 0.45622 0.74564 0.14133
 C965 C 0.44113 0.75967 0.14129
 C966 C 0.42457 0.75723 0.15430
 C967 C 0.43924 0.72582 0.16663
 C968 C 0.52189 0.74549 0.13548
 C969 C 0.53881 0.74734 0.14844
 C970 C 0.51649 0.75846 0.17486
 C971 C 0.49999 0.75557 0.16169
 N972 N 0.50286 0.74890 0.14249
 H973 H 0.46754 0.71785 0.15299
 H974 H 0.44197 0.77279 0.13132
 H975 H 0.41287 0.76872 0.15443
 H976 H 0.43891 0.71227 0.17607
 H977 H 0.52397 0.74127 0.11982
 H978 H 0.55357 0.74353 0.14261
 H979 H 0.51354 0.76459 0.18969
 H980 H 0.48488 0.75928 0.16666
 C981 C 0.47674 0.69050 0.08322
 C982 C 0.48878 0.80643 0.08661
 C983 C 0.53634 0.75394 0.16856
 C984 C 0.42363 0.74021 0.16736
 O985 O 0.00913 0.98422 0.93894
 O986 O 0.04390 0.98970 0.94260
 O987 O -0.00605 0.94833 0.99145
 O988 O -0.00125 0.95346 1.02837
 O989 O -0.04287 1.00009 0.97600
 O990 O -0.03832 1.03576 0.97860
 O991 O 0.04649 1.00431 1.04548
 O992 O 0.04531 0.97100 1.03794
 O993 O 0.06434 1.03637 0.99345
 O994 O 0.05303 1.03740 0.95782
 O995 O 0.01287 1.05572 1.02467
 O996 O -0.02299 1.04306 1.02657
 O997 O 0.02007 1.02590 1.04964
 O998 O -0.01655 1.02138 1.04709
 O999 O 0.03388 1.06053 0.99793
 O1000 O 0.02901 1.05535 0.96087
 O1001 O 0.06954 1.01026 1.01570
 O1002 O 0.06530 0.97378 1.00734
 O1003 O -0.01756 1.00534 0.94396
 O1004 O -0.01925 1.03981 0.95418
 O1005 O -0.03720 0.97336 0.99743
 O1006 O -0.02565 0.97219 1.03161
 O1007 O 0.01477 0.95343 0.96456
 O1008 O 0.05051 0.96511 0.96636
 Zr1009 Zr 0.02433 0.98377 0.96733
 O1010 O 0.04391 1.00233 0.98468
 Zr1011 Zr -0.00656 0.97651 1.00630
 O1012 O 0.01175 0.99474 1.02519
 Zr1013 Zr -0.01450 1.01492 0.97422
 O1014 O 0.00348 1.03481 0.99167
 Zr1015 Zr 0.04197 0.99412 1.01554
 O1016 O 0.02407 0.97379 0.99796
 Zr1017 Zr 0.03408 1.03249 0.98321
 O1018 O 0.01567 1.01434 0.96405
 Zr1019 Zr 0.00328 1.02529 1.02224
 O1020 O -0.01677 1.00674 1.00511
 O1021 O -0.00603 0.98469 0.97576
 O1022 O 0.03371 1.02463 1.01396
 C1023 C -0.00678 0.99389 0.93270
 C1024 C 0.00326 0.94214 0.97560
 C1025 C -0.04883 0.98435 0.98604
 C1026 C 0.03618 1.01678 1.05610
 C1027 C 0.07555 1.02612 1.00596
 C1028 C 0.02452 1.06686 1.01361
 H1029 H 0.05797 1.00085 0.97977
 H1030 H -0.00181 1.04871 0.98981
 H1031 H -0.01495 0.97600 0.96726
 H1032 H 0.01074 0.98971 1.03937
 H1033 H 0.04176 0.95806 1.03130
 H1034 H 0.01081 0.94582 1.02405
 H1035 H 0.01644 1.06258 0.96443
 H1036 H -0.00662 1.04146 0.94628
 H1037 H 0.07616 0.97441 1.01791
 H1038 H 0.04911 0.95575 0.95472
 H1039 H -0.02349 1.05347 1.01562
 H1040 H -0.04306 1.03361 0.99269
 H1041 H 0.04153 1.00392 0.93823
 H1042 H 0.06270 1.02599 0.95726
 H1043 H -0.03287 0.98515 1.03347
 H1044 H -0.01364 1.00802 1.05343
 O1045 O 0.48190 0.44196 0.49231
 O1046 O 0.48507 0.44422 0.52729
 O1047 O 0.44718 0.49466 0.47527
 O1048 O 0.45214 0.53102 0.47968
 O1049 O 0.50100 0.47967 0.44243
 O1050 O 0.53652 0.48425 0.44907
 O1051 O 0.50000 0.54668 0.53271
 O1052 O 0.46653 0.53915 0.52861
 O1053 O 0.53048 0.49483 0.55187
 O1054 O 0.53254 0.45975 0.54000
 O1055 O 0.55307 0.52873 0.50270
 O1056 O 0.54362 0.53177 0.46629
 O1057 O 0.52377 0.55199 0.50831
 O1058 O 0.52009 0.55081 0.47035
 O1059 O 0.55636 0.50185 0.52434
 O1060 O 0.55243 0.46463 0.51754
 O1061 O 0.50384 0.51620 0.55557
 O1062 O 0.46748 0.50765 0.54801
 O1063 O 0.50571 0.44786 0.46810
 O1064 O 0.54012 0.45935 0.46848
 O1065 O 0.47439 0.50113 0.44594
 O1066 O 0.47322 0.53539 0.45761
 O1067 O 0.45079 0.46715 0.49609
 O1068 O 0.46033 0.46740 0.53258
 Zr1069 Zr 0.48063 0.46966 0.50779
 O1070 O 0.49792 0.48642 0.52892
 Zr1071 Zr 0.47561 0.50949 0.47672
 O1072 O 0.49240 0.52796 0.49677
 Zr1073 Zr 0.51454 0.47829 0.47157
 O1074 O 0.53321 0.49549 0.49113
 Zr1075 Zr 0.48969 0.51709 0.52672
 O1076 O 0.47066 0.50004 0.50697
 Zr1077 Zr 0.52878 0.48587 0.52132
 O1078 O 0.51184 0.46712 0.50149
 Zr1079 Zr 0.52351 0.52576 0.49052
 O1080 O 0.50653 0.50903 0.46886
 O1081 O 0.48368 0.47912 0.47772
 O1082 O 0.52070 0.51627 0.52064
 C1083 C 0.49314 0.43625 0.47758
 C1084 C 0.44025 0.47857 0.48406
 C1085 C 0.48560 0.48951 0.43529
 C1086 C 0.51383 0.55742 0.52402
 C1087 C 0.51943 0.50658 0.56252
 C1088 C 0.56311 0.51815 0.51587
 H1089 H 0.49550 0.48092 0.54274
 H1090 H 0.54754 0.49420 0.48701
 H1091 H 0.47549 0.47071 0.46828
 H1092 H 0.48746 0.54206 0.49564
 H1093 H 0.45378 0.53262 0.52389
 H1094 H 0.44426 0.52704 0.49181
 H1095 H 0.56116 0.46961 0.50639
 H1096 H 0.54136 0.45143 0.48131
 H1097 H 0.46742 0.51764 0.55916
 H1098 H 0.45087 0.45586 0.53027
 H1099 H 0.55337 0.52043 0.46579
 H1100 H 0.53425 0.49834 0.44426
 H1101 H 0.49950 0.44026 0.52612
 H1102 H 0.52052 0.45861 0.54884
 H1103 H 0.48665 0.53724 0.45120
 H1104 H 0.50770 0.55821 0.47417
 O1105 O 0.44400 -0.02781 0.49166
 O1106 O 0.45297 -0.02702 0.45787
 O1107 O 0.49804 -0.04827 0.52293
 O1108 O 0.52996 -0.03830 0.52754
 O1109 O 0.46503 0.00431 0.54445
 O1110 O 0.46336 0.03856 0.53377
 O1111 O 0.55023 0.00807 0.47118
 O1112 O 0.54744 -0.02620 0.47760
 O1113 O 0.49880 0.02588 0.43790
 O1114 O 0.46241 0.02211 0.44171
 O1115 O 0.51663 0.05882 0.48924
 O1116 O 0.51373 0.05452 0.52542
 O1117 O 0.54610 0.03401 0.49318
 O1118 O 0.53553 0.03375 0.53027
 O1119 O 0.49459 0.05503 0.46270
 O1120 O 0.45777 0.04369 0.46247
 O1121 O 0.52558 0.00464 0.44245
 O1122 O 0.52180 -0.03191 0.45192
 O1123 O 0.43945 -0.00151 0.51319
 O1124 O 0.44385 0.03490 0.50878
 O1125 O 0.49130 -0.01754 0.54914
 O1126 O 0.52837 -0.01112 0.54379
 O1127 O 0.47525 -0.05256 0.49706
 O1128 O 0.48150 -0.04627 0.46038
 Zr1129 Zr 0.47417 -0.02408 0.48218
 O1130 O 0.49163 -0.00553 0.46275
 Zr1131 Zr 0.50632 -0.01755 0.52101
 O1132 O 0.52564 0.00039 0.50289
 Zr1133 Zr 0.46759 0.01392 0.51406
 O1134 O 0.48544 0.03385 0.49642
 Zr1135 Zr 0.52218 -0.00704 0.47210
 O1136 O 0.50505 -0.02710 0.49055
 Zr1137 Zr 0.48374 0.02505 0.46588
 O1138 O 0.46429 0.00624 0.48331
 Zr1139 Zr 0.51633 0.03068 0.50439
 O1140 O 0.49808 0.01298 0.52418
 O1141 O 0.47583 -0.01638 0.51273
 O1142 O 0.51444 0.02349 0.47372
 C1143 C 0.43305 -0.01726 0.50361
 C1144 C 0.48583 -0.05923 0.51228
 C1145 C 0.47577 -0.00783 0.55552
 C1146 C 0.55667 0.02392 0.48048
 C1147 C 0.51486 0.01704 0.43164
 C1148 C 0.50731 0.06551 0.47328
 H1149 H 0.48988 -0.01017 0.44859
 H1150 H 0.48066 0.04788 0.49826
 H1151 H 0.46736 -0.02536 0.52137
 H1152 H 0.53989 -0.00146 0.50749
 H1153 H 0.54192 -0.03930 0.48260
 H1154 H 0.54013 -0.03642 0.51675
 H1155 H 0.45854 0.05426 0.47298
 H1156 H 0.43810 0.03195 0.49515
 H1157 H 0.53398 -0.03082 0.44323
 H1158 H 0.47187 -0.05783 0.46171
 H1159 H 0.50005 0.06047 0.52356
 H1160 H 0.47644 0.04051 0.54113
 H1161 H 0.44621 -0.01372 0.45616
 H1162 H 0.46466 0.00881 0.43538
 H1163 H 0.52389 0.00129 0.55072
 H1164 H 0.54655 0.02366 0.52930
 O1165 O 0.00574 0.46152 1.04823
 O1166 O 0.04010 0.47049 1.04709
 O1167 O -0.02602 0.51474 1.06210
 O1168 O -0.02965 0.54609 1.04981
 O1169 O -0.04584 0.47816 1.01125
 O1170 O -0.03429 0.47363 0.97788
 O1171 O 0.02725 0.56418 1.00362
 O1172 O 0.02002 0.56415 1.03761
 O1173 O 0.06126 0.51212 0.99255
 O1174 O 0.05737 0.47684 0.99756
 O1175 O 0.00973 0.52636 0.95492
 O1176 O -0.02625 0.52357 0.95816
 O1177 O 0.00567 0.55801 0.97712
 O1178 O -0.03147 0.54651 0.97698
 O1179 O 0.03652 0.50563 0.96152
 O1180 O 0.03659 0.46982 0.97619
 O1181 O 0.05594 0.54066 1.01075
 O1182 O 0.04543 0.53954 1.04696
 O1183 O -0.01471 0.45368 1.02115
 O1184 O -0.00907 0.45545 0.98431
 O1185 O -0.05123 0.50597 1.03045
 O1186 O -0.04572 0.54242 1.02176
 O1187 O 0.00058 0.49387 1.06926
 O1188 O 0.03726 0.50038 1.06403
 Zr1189 Zr 0.01586 0.49095 1.04158
 O1190 O 0.03545 0.50730 1.02241
 Zr1191 Zr -0.02306 0.52139 1.03088
 O1192 O -0.00468 0.53975 1.01213
 Zr1193 Zr -0.01520 0.48050 1.00298
 O1194 O 0.00256 0.49741 0.98231
 Zr1195 Zr 0.02597 0.53755 1.02105
 O1196 O 0.00724 0.52164 1.04178
 Zr1197 Zr 0.03298 0.49710 0.99235
 O1198 O 0.01543 0.47866 1.01214
 Zr1199 Zr -0.00555 0.52826 0.98256
 O1200 O -0.02547 0.51074 1.00092
 O1201 O -0.01454 0.49122 1.03250
 O1202 O 0.02505 0.52763 0.99105
 C1203 C -0.00598 0.44945 1.03833
 C1204 C -0.01526 0.50380 1.07443
 C1205 C -0.05731 0.48963 1.02174
 C1206 C 0.01831 0.56939 0.98691
 C1207 C 0.06727 0.52881 1.00055
 C1208 C 0.02570 0.51684 0.94949
 H1209 H 0.04948 0.50613 1.02789
 H1210 H 0.00092 0.49156 0.96863
 H1211 H -0.02346 0.48338 1.04174
 H1212 H -0.00934 0.55396 1.01259
 H1213 H 0.01465 0.55965 1.05092
 H1214 H -0.01940 0.55669 1.04685
 H1215 H 0.02633 0.46962 0.96506
 H1216 H 0.00425 0.44999 0.98884
 H1217 H 0.05410 0.55178 1.04532
 H1218 H 0.03588 0.49149 1.07623
 H1219 H -0.02465 0.50941 0.95373
 H1220 H -0.04162 0.48628 0.97432
 H1221 H 0.04101 0.46178 1.03499
 H1222 H 0.06191 0.47852 1.01184
 H1223 H -0.05222 0.53707 1.00926
 H1224 H -0.03052 0.55842 0.98594
 O1225 O -0.03698 0.50339 0.45947
 O1226 O -0.03633 0.46937 0.46849
 O1227 O -0.05433 0.53388 0.51352
 O1228 O -0.04376 0.53560 0.54580
 O1229 O -0.00336 0.55530 0.47942
 O1230 O 0.03118 0.54478 0.47714
 O1231 O 0.00316 0.48022 0.56469
 O1232 O -0.03105 0.48656 0.56301
 O1233 O 0.01780 0.44795 0.51243
 O1234 O 0.01239 0.45285 0.47611
 O1235 O 0.05344 0.49915 0.52797
 O1236 O 0.04902 0.53512 0.52618
 O1237 O 0.02962 0.50190 0.55940
 O1238 O 0.03010 0.53872 0.54917
 O1239 O 0.04759 0.47297 0.50653
 O1240 O 0.03438 0.47312 0.47074
 O1241 O -0.00227 0.45175 0.53994
 O1242 O -0.03854 0.46168 0.53761
 O1243 O -0.01027 0.52480 0.45423
 O1244 O 0.02610 0.52074 0.45724
 O1245 O -0.02243 0.55966 0.50763
 O1246 O -0.01615 0.55276 0.54390
 O1247 O -0.06020 0.50794 0.49173
 O1248 O -0.05459 0.47131 0.49760
 Zr1249 Zr -0.03210 0.49308 0.48957
 O1250 O -0.01328 0.47317 0.50643
 Zr1251 Zr -0.02345 0.53082 0.52170
 O1252 O -0.00481 0.51219 0.54019
 Zr1253 Zr 0.00624 0.52501 0.48183
 O1254 O 0.02657 0.50669 0.49872
 Zr1255 Zr -0.01309 0.48161 0.53707
 O1256 O -0.03360 0.50049 0.52062
 Zr1257 Zr 0.01703 0.47630 0.49739
 O1258 O -0.00215 0.49444 0.47865
 Zr1259 Zr 0.02519 0.51376 0.52975
 O1260 O 0.00689 0.53410 0.51240
 O1261 O -0.02374 0.52350 0.49112
 O1262 O 0.01726 0.48320 0.52821
 C1263 C -0.02650 0.51555 0.44824
 C1264 C -0.06604 0.52330 0.50192
 C1265 C -0.01384 0.56624 0.49139
 C1266 C 0.01945 0.48941 0.57057
 C1267 C 0.00928 0.44116 0.52865
 C1268 C 0.05927 0.48364 0.51802
 H1269 H -0.01836 0.45914 0.50483
 H1270 H 0.04037 0.50868 0.49326
 H1271 H -0.03281 0.53245 0.48296
 H1272 H -0.00588 0.51644 0.55450
 H1273 H -0.04432 0.49171 0.55797
 H1274 H -0.04018 0.52571 0.55665
 H1275 H 0.04468 0.48409 0.47053
 H1276 H 0.02300 0.50715 0.45174
 H1277 H -0.03724 0.45280 0.54983
 H1278 H -0.06642 0.47281 0.48820
 H1279 H 0.05398 0.53399 0.51211
 H1280 H 0.03307 0.55245 0.48987
 H1281 H -0.02340 0.46801 0.46110
 H1282 H -0.00088 0.44640 0.47903
 H1283 H -0.00303 0.55899 0.53994
 H1284 H 0.02004 0.53786 0.56021
 O1285 O 0.52560 0.93949 0.00720
 O1286 O 0.52224 0.93686 -0.02712
 O1287 O 0.56426 0.99125 0.01615
 O1288 O 0.56405 1.02426 0.01003
 O1289 O 0.50817 0.98437 0.05064
 O1290 O 0.47375 0.98923 0.04300
 O1291 O 0.51746 1.03807 -0.04894
 O1292 O 0.55035 1.02750 -0.04301
 O1293 O 0.48074 0.98929 -0.06021
 O1294 O 0.47512 0.95630 -0.04479
 O1295 O 0.46229 1.03003 -0.01662
 O1296 O 0.47144 1.03820 0.01698
 O1297 O 0.49462 1.04985 -0.02630
 O1298 O 0.49878 1.05193 0.01303
 O1299 O 0.45558 1.00072 -0.03318
 O1300 O 0.45716 0.96399 -0.02159
 O1301 O 0.50982 1.00677 -0.06668
 O1302 O 0.54488 0.99473 -0.05793
 O1303 O 0.50207 0.94943 0.03005
 O1304 O 0.46788 0.96376 0.02579
 O1305 O 0.53705 1.00239 0.04466
 O1306 O 0.53996 1.03603 0.02649
 O1307 O 0.55857 0.96172 -0.00046
 O1308 O 0.54822 0.95741 -0.03667
 Zr1309 Zr 0.52871 0.96451 -0.01232
 O1310 O 0.51284 0.97960 -0.03596
 Zr1311 Zr 0.53694 1.00722 0.01292
 O1312 O 0.52277 1.02433 -0.01043
 Zr1313 Zr 0.49542 0.97990 0.02164
 O1314 O 0.47890 0.99684 -0.00034
 Zr1315 Zr 0.52432 1.00914 -0.03819
 O1316 O 0.54138 0.99368 -0.01555
 Zr1317 Zr 0.48204 0.98314 -0.02876
 O1318 O 0.49727 0.96525 -0.00642
 Zr1319 Zr 0.49161 1.02602 -0.00441
 O1320 O 0.50604 1.01012 0.02003
 O1321 O 0.52634 0.97768 0.01614
 O1322 O 0.49337 1.01238 -0.03262
 C1323 C 0.51412 0.93617 0.02254
 C1324 C 0.57002 0.97393 0.00970
 C1325 C 0.52431 0.99367 0.05663
 C1326 C 0.50518 1.05158 -0.04264
 C1327 C 0.49286 0.99875 -0.07226
 C1328 C 0.45060 1.01847 -0.02715
 H1329 H 0.51457 0.97228 -0.04886
 H1330 H 0.46456 0.99746 0.00391
 H1331 H 0.53386 0.97004 0.02686
 H1332 H 0.52919 1.03789 -0.01147
 H1333 H 0.56203 1.02011 -0.03690
 H1334 H 0.56406 1.02974 -0.00402
 H1335 H 0.44891 0.97093 -0.01134
 H1336 H 0.46750 0.95294 0.01550
 H1337 H 0.54598 1.00319 -0.07044
 H1338 H 0.55709 0.94594 -0.03245
 H1339 H 0.46280 1.02690 0.02189
 H1340 H 0.47611 1.00390 0.04506
 H1341 H 0.50730 0.93506 -0.02690
 H1342 H 0.48754 0.95214 -0.05190
 H1343 H 0.52819 1.03767 0.03555
 H1344 H 0.51006 1.05925 0.00631
 O1345 O 0.50107 0.44698 -0.02720
 O1346 O 0.46731 0.45620 -0.02991
 O1347 O 0.53367 0.49968 -0.04818
 O1348 O 0.53532 0.53254 -0.04039
 O1349 O 0.55257 0.46954 0.00722
 O1350 O 0.54007 0.46940 0.04107
 O1351 O 0.47790 0.55403 0.00153
 O1352 O 0.48621 0.55027 -0.03204
 O1353 O 0.44412 0.50301 0.01887
 O1354 O 0.44915 0.46604 0.01662
 O1355 O 0.49291 0.52192 0.05539
 O1356 O 0.52989 0.51867 0.05387
 O1357 O 0.49817 0.55063 0.02963
 O1358 O 0.53491 0.54070 0.03323
 O1359 O 0.46748 0.49904 0.05044
 O1360 O 0.46749 0.46291 0.04085
 O1361 O 0.44952 0.52893 -0.00349
 O1362 O 0.46121 0.52443 -0.03877
 O1363 O 0.52123 0.44327 0.00098
 O1364 O 0.51616 0.44902 0.03657
 O1365 O 0.55767 0.49589 -0.01476
 O1366 O 0.55143 0.53226 -0.01170
 O1367 O 0.50818 0.47680 -0.05300
 O1368 O 0.47130 0.48376 -0.05067
 Zr1369 Zr 0.49147 0.47720 -0.02601
 O1370 O 0.47084 0.49509 -0.01005
 Zr1371 Zr 0.52924 0.50984 -0.01830
 O1372 O 0.51007 0.52938 -0.00240
 Zr1373 Zr 0.52156 0.47209 0.01468
 O1374 O 0.50230 0.49013 0.03230
 Zr1375 Zr 0.47986 0.52557 -0.01221
 O1376 O 0.49942 0.50795 -0.03009
 Zr1377 Zr 0.47231 0.48800 0.02108
 O1378 O 0.49125 0.46827 0.00484
 Zr1379 Zr 0.50987 0.52094 0.02850
 O1380 O 0.53091 0.50264 0.01296
 O1381 O 0.52156 0.47934 -0.01609
 O1382 O 0.47972 0.51866 0.01883
 C1383 C 0.51222 0.43630 -0.01501
 C1384 C 0.52388 0.48672 -0.05906
 C1385 C 0.56400 0.48069 -0.00411
 C1386 C 0.48615 0.56091 0.01790
 C1387 C 0.43812 0.51854 0.00846
 C1388 C 0.47699 0.51221 0.06122
 H1389 H 0.45703 0.49309 -0.01582
 H1390 H 0.50337 0.48572 0.04668
 H1391 H 0.53081 0.47053 -0.02375
 H1392 H 0.51459 0.54357 -0.00446
 H1393 H 0.49196 0.54444 -0.04451
 H1394 H 0.52579 0.54377 -0.03797
 H1395 H 0.47828 0.46313 0.05147
 H1396 H 0.50240 0.44357 0.03362
 H1397 H 0.45248 0.53665 -0.03910
 H1398 H 0.47331 0.47362 -0.06147
 H1399 H 0.52704 0.50563 0.06089
 H1400 H 0.54720 0.48256 0.04258
 H1401 H 0.46497 0.44975 -0.01647
 H1402 H 0.44245 0.46897 0.00336
 H1403 H 0.55684 0.52920 0.00211
 H1404 H 0.53487 0.55089 0.02208
 O1405 O -0.06609 0.00128 0.51882
 O1406 O -0.06258 -0.03227 0.50877
 O1407 O -0.01131 0.00843 0.55703
 O1408 O 0.02214 0.01066 0.55312
 O1409 O -0.02982 0.05503 0.51110
 O1410 O -0.02472 0.05625 0.47450
 O1411 O 0.04058 -0.03099 0.49509
 O1412 O 0.03190 -0.03522 0.52877
 O1413 O -0.01220 -0.04589 0.46082
 O1414 O -0.04772 -0.03376 0.46089
 O1415 O 0.02060 0.00805 0.44799
 O1416 O 0.02156 0.04229 0.46423
 O1417 O 0.04503 -0.00144 0.47747
 O1418 O 0.04190 0.03391 0.48565
 O1419 O -0.00625 -0.01240 0.44048
 O1420 O -0.04323 -0.00824 0.44509
 O1421 O 0.01090 -0.05340 0.48567
 O1422 O 0.00215 -0.05530 0.52193
 O1423 O -0.06077 0.03047 0.50081
 O1424 O -0.04998 0.03818 0.46741
 O1425 O -0.00917 0.04477 0.53724
 O1426 O 0.02721 0.03517 0.53355
 O1427 O -0.04048 -0.00845 0.54884
 O1428 O -0.03918 -0.04203 0.53278
 Zr1429 Zr -0.03777 -0.01354 0.51745
 O1430 O -0.02039 -0.03005 0.49676
 Zr1431 Zr 0.00150 0.01629 0.52884
 O1432 O 0.02037 0.00119 0.50856
 Zr1433 Zr -0.03038 0.02957 0.49170
 O1434 O -0.01314 0.01463 0.46964
 Zr1435 Zr 0.01047 -0.02880 0.50529
 O1436 O -0.00712 -0.01436 0.52747
 Zr1437 Zr -0.02166 -0.01613 0.46799
 O1438 O -0.04073 -0.00050 0.48817
 Zr1439 Zr 0.01737 0.01403 0.47925
 O1440 O 0.00043 0.03102 0.50026
 O1441 O -0.02907 0.01656 0.52061
 O1442 O 0.00906 -0.01630 0.47602
 C1443 C -0.07215 0.01820 0.51091
 C1444 C -0.02797 -0.00065 0.56175
 C1445 C -0.02097 0.05767 0.52846
 C1446 C 0.05144 -0.01848 0.48462
 C1447 C 0.00064 -0.05791 0.46964
 C1448 C 0.00982 -0.00249 0.43552
 H1449 H -0.02541 -0.04420 0.49648
 H1450 H -0.01483 0.02168 0.45639
 H1451 H -0.03776 0.02343 0.53057
 H1452 H 0.03453 0.00177 0.51377
 H1453 H 0.02473 -0.03351 0.54179
 H1454 H 0.03092 -0.00061 0.54892
 H1455 H -0.03950 0.00530 0.43963
 H1456 H -0.05715 0.02569 0.46313
 H1457 H 0.01290 -0.06560 0.52013
 H1458 H -0.05094 -0.04206 0.54208
 H1459 H 0.01060 0.04384 0.45390
 H1460 H -0.01102 0.06110 0.47858
 H1461 H -0.06720 -0.02754 0.49514
 H1462 H -0.04828 -0.04519 0.47076
 H1463 H 0.02610 0.04658 0.52368
 H1464 H 0.04749 0.03005 0.49917
 O1465 O 0.73847 0.25022 0.29757
 O1466 O 0.74474 0.28406 0.29290
 O1467 O 0.70316 0.23362 0.24466
 O1468 O 0.70666 0.23397 0.21110
 O1469 O 0.75405 0.19626 0.26433
 O1470 O 0.78947 0.19926 0.26188
 O1471 O 0.76053 0.28224 0.19052
 O1472 O 0.72682 0.28266 0.19848
 O1473 O 0.79346 0.30091 0.24185
 O1474 O 0.79464 0.29126 0.27733
 O1475 O 0.81111 0.24822 0.21193
 O1476 O 0.79953 0.21411 0.21050
 O1477 O 0.78091 0.25482 0.18670
 O1478 O 0.77463 0.21710 0.19287
 O1479 O 0.81669 0.26974 0.23810
 O1480 O 0.81109 0.26599 0.27577
 O1481 O 0.76781 0.30600 0.21894
 O1482 O 0.73118 0.30365 0.22779
 O1483 O 0.75951 0.22312 0.29484
 O1484 O 0.79478 0.22046 0.28440
 O1485 O 0.72800 0.20120 0.24184
 O1486 O 0.72932 0.21220 0.20560
 O1487 O 0.70826 0.25536 0.27078
 O1488 O 0.72139 0.29068 0.26802
 Zr1489 Zr 0.73912 0.26386 0.26866
 O1490 O 0.75869 0.28207 0.25107
 Zr1491 Zr 0.73182 0.23121 0.23122
 O1492 O 0.75020 0.24868 0.21168
 Zr1493 Zr 0.76959 0.22415 0.26441
 O1494 O 0.78996 0.24044 0.24579
 Zr1495 Zr 0.75046 0.27918 0.22038
 O1496 O 0.72959 0.26225 0.23805
 Zr1497 Zr 0.78863 0.27130 0.25300
 O1498 O 0.76958 0.25472 0.27291
 Zr1499 Zr 0.78053 0.23938 0.21511
 O1500 O 0.76185 0.22048 0.23347
 O1501 O 0.73946 0.23314 0.26185
 O1502 O 0.78076 0.27002 0.22227
 C1503 C 0.74782 0.23473 0.30508
 C1504 C 0.69686 0.24380 0.25985
 C1505 C 0.73839 0.19005 0.25428
 C1506 C 0.77219 0.27106 0.17994
 C1507 C 0.78379 0.31186 0.22870
 C1508 C 0.82264 0.25992 0.22252
 H1509 H 0.75769 0.29631 0.25546
 H1510 H 0.80377 0.23487 0.24781
 H1511 H 0.73031 0.22500 0.27060
 H1512 H 0.74511 0.24727 0.19755
 H1513 H 0.71395 0.27948 0.20551
 H1514 H 0.70957 0.24566 0.20204
 H1515 H 0.81865 0.25367 0.27208
 H1516 H 0.79581 0.23300 0.29247
 H1517 H 0.73226 0.31409 0.21686
 H1518 H 0.71136 0.28995 0.27916
 H1519 H 0.80708 0.21153 0.22336
 H1520 H 0.78805 0.19447 0.24773
 H1521 H 0.75912 0.28221 0.29711
 H1522 H 0.78296 0.30057 0.27826
 H1523 H 0.74050 0.20224 0.20672
 H1524 H 0.76337 0.22202 0.18403
 O1525 O 0.75562 0.71906 0.71236
 O1526 O 0.78795 0.71399 0.72663
 O1527 O 0.71479 0.69967 0.75902
 O1528 O 0.70838 0.70742 0.79110
 O1529 O 0.70581 0.75775 0.72790
 O1530 O 0.72214 0.79029 0.73157
 O1531 O 0.76678 0.74349 0.82333
 O1532 O 0.75450 0.71127 0.81735
 O1533 O 0.80939 0.75748 0.77930
 O1534 O 0.80929 0.75682 0.74161
 O1535 O 0.76172 0.79890 0.79059
 O1536 O 0.72529 0.80010 0.78119
 O1537 O 0.74999 0.77309 0.81752
 O1538 O 0.71609 0.78058 0.80264
 O1539 O 0.78982 0.79189 0.77226
 O1540 O 0.79505 0.78297 0.73694
 O1541 O 0.79727 0.73504 0.80272
 O1542 O 0.78193 0.70183 0.79533
 O1543 O 0.74015 0.74947 0.70670
 O1544 O 0.74739 0.78374 0.71433
 O1545 O 0.69478 0.73548 0.75203
 O1546 O 0.69562 0.73724 0.78899
 O1547 O 0.74271 0.69351 0.74014
 O1548 O 0.77809 0.69250 0.75214
 Zr1549 Zr 0.76147 0.71893 0.74387
 O1550 O 0.78068 0.73214 0.76584
 Zr1551 Zr 0.72024 0.72907 0.77040
 O1552 O 0.73775 0.74277 0.79351
 Zr1553 Zr 0.73684 0.76207 0.73572
 O1554 O 0.75523 0.77714 0.75731
 Zr1555 Zr 0.76692 0.73026 0.79442
 O1556 O 0.74866 0.71480 0.77288
 Zr1557 Zr 0.78393 0.76324 0.75990
 O1558 O 0.76628 0.74970 0.73650
 Zr1559 Zr 0.74263 0.77353 0.78632
 O1560 O 0.72294 0.76040 0.76432
 O1561 O 0.73250 0.73137 0.74153
 O1562 O 0.77165 0.76115 0.78887
 C1563 C 0.74783 0.73275 0.70060
 C1564 C 0.72549 0.68830 0.74755
 C1565 C 0.69177 0.74728 0.73664
 C1566 C 0.75940 0.76042 0.82926
 C1567 C 0.81166 0.74555 0.79484
 C1568 C 0.77928 0.80350 0.78351
 H1569 H 0.79386 0.72499 0.76589
 H1570 H 0.75633 0.79156 0.75321
 H1571 H 0.72387 0.72474 0.73108
 H1572 H 0.73100 0.74093 0.80676
 H1573 H 0.74837 0.69948 0.81034
 H1574 H 0.71605 0.70892 0.80402
 H1575 H 0.78494 0.79386 0.73480
 H1576 H 0.76169 0.78021 0.71153
 H1577 H 0.78830 0.70007 0.80899
 H1578 H 0.77680 0.68249 0.74105
 H1579 H 0.73129 0.80751 0.76954
 H1580 H 0.71258 0.79162 0.74297
 H1581 H 0.79182 0.72719 0.72045
 H1582 H 0.81381 0.74288 0.74495
 H1583 H 0.69256 0.75164 0.78590
 H1584 H 0.71280 0.76882 0.81150
 O1585 O 0.28141 0.20688 0.74346
 O1586 O 0.28066 0.21687 0.70975
 O1587 O 0.30091 0.26102 0.77482
 O1588 O 0.29023 0.29275 0.77816
 O1589 O 0.24964 0.22605 0.79671
 O1590 O 0.21480 0.22393 0.78617
 O1591 O 0.24281 0.31230 0.72292
 O1592 O 0.27719 0.31058 0.72923
 O1593 O 0.22666 0.26101 0.68945
 O1594 O 0.23162 0.22445 0.69386
 O1595 O 0.19269 0.27588 0.74097
 O1596 O 0.19739 0.27260 0.77715
 O1597 O 0.21709 0.30656 0.74509
 O1598 O 0.21707 0.29523 0.78168
 O1599 O 0.19719 0.25465 0.71454
 O1600 O 0.20968 0.21898 0.71387
 O1601 O 0.24749 0.28821 0.69382
 O1602 O 0.28379 0.28587 0.70366
 O1603 O 0.25503 0.20118 0.76490
 O1604 O 0.21886 0.20448 0.76191
 O1605 O 0.27118 0.25283 0.80058
 O1606 O 0.26297 0.28936 0.79556
 O1607 O 0.30571 0.23886 0.74916
 O1608 O 0.29940 0.24578 0.71240
 Zr1609 Zr 0.27720 0.23724 0.73409
 O1610 O 0.25816 0.25444 0.71457
 Zr1611 Zr 0.26997 0.26842 0.77257
 O1612 O 0.25120 0.28721 0.75445
 Zr1613 Zr 0.23937 0.22886 0.76626
 O1614 O 0.21891 0.24599 0.74822
 Zr1615 Zr 0.25873 0.28479 0.72369
 O1616 O 0.27944 0.26802 0.74211
 Zr1617 Zr 0.22772 0.24538 0.71762
 O1618 O 0.24701 0.22641 0.73543
 Zr1619 Zr 0.22107 0.27670 0.75600
 O1620 O 0.23956 0.25909 0.77600
 O1621 O 0.26952 0.23807 0.76460
 O1622 O 0.22828 0.27591 0.72526
 C1623 C 0.27075 0.19532 0.75515
 C1624 C 0.31213 0.24922 0.76443
 C1625 C 0.26215 0.23683 0.80725
 C1626 C 0.22697 0.31793 0.73260
 C1627 C 0.23549 0.27725 0.68296
 C1628 C 0.18616 0.26637 0.72524
 H1629 H 0.26291 0.25314 0.70045
 H1630 H 0.20502 0.24058 0.75009
 H1631 H 0.27873 0.22962 0.77314
 H1632 H 0.25260 0.30136 0.75906
 H1633 H 0.29044 0.30547 0.73437
 H1634 H 0.28651 0.30378 0.76853
 H1635 H 0.19960 0.21857 0.72491
 H1636 H 0.22095 0.19964 0.74791
 H1637 H 0.28257 0.29829 0.69509
 H1638 H 0.31118 0.23650 0.71381
 H1639 H 0.19195 0.25871 0.77544
 H1640 H 0.21324 0.23657 0.79395
 H1641 H 0.26746 0.20981 0.70796
 H1642 H 0.24446 0.22793 0.68694
 H1643 H 0.25063 0.28423 0.80242
 H1644 H 0.22762 0.30597 0.78136
 O1645 O 0.17966 0.73125 0.28152
 O1646 O 0.19458 0.69996 0.28851
 O1647 O 0.22758 0.77427 0.29428
 O1648 O 0.25702 0.78401 0.28170
 O1649 O 0.19060 0.77666 0.23751
 O1650 O 0.19307 0.75925 0.20614
 O1651 O 0.28934 0.72311 0.25160
 O1652 O 0.28457 0.73643 0.28317
 O1653 O 0.24453 0.67724 0.24491
 O1654 O 0.20859 0.67547 0.24510
 O1655 O 0.25365 0.72249 0.19736
 O1656 O 0.24426 0.75681 0.19267
 O1657 O 0.28167 0.73756 0.22090
 O1658 O 0.26372 0.77058 0.21188
 O1659 O 0.23894 0.69348 0.20919
 O1660 O 0.20170 0.68923 0.21871
 O1661 O 0.27028 0.69146 0.26335
 O1662 O 0.26396 0.70917 0.29591
 O1663 O 0.17198 0.74328 0.24978
 O1664 O 0.17847 0.73267 0.21551
 O1665 O 0.21439 0.79149 0.25784
 O1666 O 0.25238 0.79221 0.25141
 O1667 O 0.20992 0.74638 0.30462
 O1668 O 0.22150 0.71141 0.30722
 Zr1669 Zr 0.21128 0.72628 0.28015
 O1670 O 0.23291 0.70712 0.26726
 Zr1671 Zr 0.23546 0.76788 0.26407
 O1672 O 0.25855 0.75019 0.25125
 Zr1673 Zr 0.19998 0.74658 0.23508
 O1674 O 0.22148 0.72870 0.22029
 Zr1675 Zr 0.26118 0.72198 0.26623
 O1676 O 0.23998 0.74075 0.28087
 Zr1677 Zr 0.22553 0.70154 0.23674
 O1678 O 0.20236 0.71858 0.25036
 Zr1679 Zr 0.25011 0.74293 0.22131
 O1680 O 0.22780 0.76230 0.23348
 O1681 O 0.20722 0.75381 0.26503
 O1682 O 0.25420 0.71506 0.23611
 C1683 C 0.16695 0.73742 0.26775
 C1684 C 0.21803 0.76382 0.30780
 C1685 C 0.19788 0.79195 0.24708
 C1686 C 0.29431 0.72990 0.23392
 C1687 C 0.26110 0.67620 0.25537
 C1688 C 0.24871 0.70372 0.19573
 H1689 H 0.23357 0.69453 0.27555
 H1690 H 0.21686 0.72631 0.20617
 H1691 H 0.19704 0.76224 0.27190
 H1692 H 0.27157 0.75772 0.25188
 H1693 H 0.27784 0.74363 0.29434
 H1694 H 0.26883 0.77495 0.28357
 H1695 H 0.20178 0.69616 0.20529
 H1696 H 0.17597 0.71891 0.22115
 H1697 H 0.27759 0.70288 0.29723
 H1698 H 0.21112 0.71298 0.31791
 H1699 H 0.23069 0.75216 0.18803
 H1700 H 0.20398 0.76921 0.20313
 H1701 H 0.18749 0.69510 0.27612
 H1702 H 0.20994 0.67384 0.26003
 H1703 H 0.24610 0.79551 0.23802
 H1704 H 0.27434 0.77416 0.22201
 O1705 O 0.30706 0.75519 0.70209
 O1706 O 0.29841 0.72097 0.70063
 O1707 O 0.24999 0.78541 0.68956
 O1708 O 0.21922 0.78692 0.70357
 O1709 O 0.28855 0.80382 0.74118
 O1710 O 0.29426 0.78972 0.77418
 O1711 O 0.20532 0.72792 0.74614
 O1712 O 0.20458 0.73691 0.71213
 O1713 O 0.25973 0.69426 0.75479
 O1714 O 0.29586 0.70069 0.74637
 O1715 O 0.24446 0.73864 0.79475
 O1716 O 0.24950 0.77704 0.79417
 O1717 O 0.21251 0.74756 0.77355
 O1718 O 0.22345 0.78234 0.77856
 O1719 O 0.26773 0.71548 0.78503
 O1720 O 0.30230 0.71772 0.77063
 O1721 O 0.22974 0.70005 0.73829
 O1722 O 0.22903 0.71231 0.70221
 O1723 O 0.31404 0.77443 0.72987
 O1724 O 0.31431 0.76699 0.76575
 O1725 O 0.26000 0.80891 0.72207
 O1726 O 0.22463 0.80200 0.73156
 O1727 O 0.27276 0.76126 0.68105
 O1728 O 0.26810 0.72459 0.68384
 Zr1729 Zr 0.27750 0.74414 0.70764
 O1730 O 0.26235 0.72228 0.72546
 Zr1731 Zr 0.24564 0.78041 0.72106
 O1732 O 0.22924 0.76004 0.73961
 Zr1733 Zr 0.28790 0.77254 0.74792
 O1734 O 0.27342 0.75172 0.76765
 Zr1735 Zr 0.23173 0.73046 0.72855
 O1736 O 0.24627 0.75120 0.70861
 Zr1737 Zr 0.27438 0.72268 0.75500
 O1738 O 0.29106 0.74304 0.73672
 Zr1739 Zr 0.24229 0.75845 0.76903
 O1740 O 0.25730 0.78084 0.75108
 O1741 O 0.27622 0.77363 0.71842
 O1742 O 0.24360 0.72910 0.75801
 C1743 C 0.31893 0.76651 0.71283
 C1744 C 0.26097 0.77613 0.67657
 C1745 C 0.27628 0.81526 0.73096
 C1746 C 0.20055 0.73610 0.76309
 C1747 C 0.24224 0.68849 0.74804
 C1748 C 0.25511 0.72250 0.79777
 H1749 H 0.26356 0.70879 0.71921
 H1750 H 0.28000 0.75203 0.78123
 H1751 H 0.28341 0.78342 0.70948
 H1752 H 0.21491 0.76446 0.73980
 H1753 H 0.20870 0.74317 0.69903
 H1754 H 0.20895 0.77655 0.70717
 H1755 H 0.30334 0.72766 0.78174
 H1756 H 0.31951 0.75362 0.76160
 H1757 H 0.21707 0.70326 0.70391
 H1758 H 0.27689 0.72699 0.67188
 H1759 H 0.26166 0.77137 0.80113
 H1760 H 0.28116 0.79558 0.77837
 H1761 H 0.30732 0.71900 0.71273
 H1762 H 0.29074 0.69422 0.73380
 H1763 H 0.23013 0.80721 0.74457
 H1764 H 0.21342 0.78498 0.76751
 O1765 O 0.27339 0.19695 0.21173
 O1766 O 0.30350 0.20167 0.22980
 O1767 O 0.22874 0.18499 0.25649
 O1768 O 0.21642 0.20017 0.28387
 O1769 O 0.21591 0.23016 0.20909
 O1770 O 0.22785 0.26328 0.20244
 O1771 O 0.26154 0.25146 0.30973
 O1772 O 0.25880 0.21739 0.31183
 O1773 O 0.30991 0.26197 0.26727
 O1774 O 0.31560 0.25132 0.23223
 O1775 O 0.25545 0.29563 0.26109
 O1776 O 0.22165 0.28892 0.24915
 O1777 O 0.24281 0.27607 0.29382
 O1778 O 0.21088 0.27246 0.27215
 O1779 O 0.28700 0.28903 0.24933
 O1780 O 0.29780 0.27167 0.21824
 O1781 O 0.29681 0.24771 0.29593
 O1782 O 0.29072 0.21024 0.29692
 O1783 O 0.25350 0.21995 0.19489
 O1784 O 0.25693 0.25675 0.19245
 O1785 O 0.20526 0.21270 0.23701
 O1786 O 0.20010 0.22528 0.27150
 O1787 O 0.26005 0.17827 0.24414
 O1788 O 0.29312 0.18753 0.25979
 Zr1789 Zr 0.27425 0.20683 0.24176
 O1790 O 0.28786 0.22920 0.25997
 Zr1791 Zr 0.22824 0.21676 0.25895
 O1792 O 0.23993 0.23909 0.27839
 Zr1793 Zr 0.24512 0.24074 0.21775
 O1794 O 0.25714 0.26454 0.23556
 Zr1795 Zr 0.27032 0.23286 0.28600
 O1796 O 0.25774 0.20892 0.26883
 Zr1797 Zr 0.28695 0.25746 0.24505
 O1798 O 0.27560 0.23455 0.22558
 Zr1799 Zr 0.24108 0.26710 0.26291
 O1800 O 0.22732 0.24506 0.24379
 O1801 O 0.24443 0.21277 0.23251
 O1802 O 0.27097 0.26139 0.27190
 C1803 C 0.26470 0.20392 0.19552
 C1804 C 0.24247 0.17270 0.25046
 C1805 C 0.20262 0.21962 0.21885
 C1806 C 0.25067 0.26754 0.30981
 C1807 C 0.31069 0.25748 0.28634
 C1808 C 0.27322 0.30124 0.25531
 H1809 H 0.30191 0.22511 0.26358
 H1810 H 0.25666 0.27727 0.22750
 H1811 H 0.23837 0.20202 0.22394
 H1812 H 0.23135 0.23951 0.29060
 H1813 H 0.25583 0.20332 0.30760
 H1814 H 0.22313 0.20550 0.29623
 H1815 H 0.28666 0.28000 0.21241
 H1816 H 0.27158 0.25344 0.19190
 H1817 H 0.29562 0.21424 0.31063
 H1818 H 0.29487 0.17451 0.25262
 H1819 H 0.22707 0.29212 0.23552
 H1820 H 0.21749 0.26778 0.21217
 H1821 H 0.30655 0.21320 0.22054
 H1822 H 0.32148 0.23956 0.23964
 H1823 H 0.19499 0.23690 0.26328
 H1824 H 0.20840 0.26416 0.28451
 O1825 O 0.73002 0.80476 0.24405
 O1826 O 0.76322 0.79871 0.25057
 O1827 O 0.71484 0.75984 0.19821
 O1828 O 0.71166 0.72681 0.19576
 O1829 O 0.67407 0.76859 0.25083
 O1830 O 0.67623 0.76029 0.28514
 O1831 O 0.75893 0.69522 0.24760
 O1832 O 0.76058 0.70950 0.21560
 O1833 O 0.77736 0.73843 0.28940
 O1834 O 0.76773 0.77277 0.29722
 O1835 O 0.72351 0.70526 0.29769
 O1836 O 0.68864 0.70796 0.28483
 O1837 O 0.73012 0.68764 0.26491
 O1838 O 0.69296 0.69507 0.25769
 O1839 O 0.74552 0.72894 0.30989
 O1840 O 0.74172 0.76717 0.31200
 O1841 O 0.78309 0.72163 0.26010
 O1842 O 0.78185 0.73753 0.22558
 O1843 O 0.70139 0.79799 0.26211
 O1844 O 0.69792 0.78081 0.29492
 O1845 O 0.67987 0.75337 0.22066
 O1846 O 0.69013 0.71722 0.21604
 O1847 O 0.73632 0.78458 0.20918
 O1848 O 0.77081 0.77900 0.22396
 Zr1849 Zr 0.74289 0.77621 0.23967
 O1850 O 0.75986 0.75465 0.25646
 Zr1851 Zr 0.70955 0.74166 0.22391
 O1852 O 0.72592 0.71844 0.23885
 Zr1853 Zr 0.70177 0.76621 0.26680
 O1854 O 0.71671 0.74337 0.28400
 Zr1855 Zr 0.75668 0.72648 0.24237
 O1856 O 0.74093 0.74832 0.22454
 Zr1857 Zr 0.74787 0.75022 0.28567
 O1858 O 0.73263 0.77395 0.26987
 Zr1859 Zr 0.71526 0.71561 0.26863
 O1860 O 0.69759 0.73776 0.25314
 O1861 O 0.71186 0.77001 0.23714
 O1862 O 0.74612 0.72208 0.27182
 C1863 C 0.71409 0.81025 0.25358
 C1864 C 0.72599 0.77558 0.19519
 C1865 C 0.66826 0.76230 0.23329
 C1866 C 0.74700 0.68268 0.25668
 C1867 C 0.78860 0.72784 0.27779
 C1868 C 0.73552 0.71219 0.31146
 H1869 H 0.77424 0.75906 0.25698
 H1870 H 0.71063 0.74229 0.29764
 H1871 H 0.70432 0.78051 0.22927
 H1872 H 0.72448 0.70571 0.23117
 H1873 H 0.75794 0.71888 0.20401
 H1874 H 0.72449 0.71910 0.19632
 H1875 H 0.72931 0.76150 0.31828
 H1876 H 0.71076 0.78816 0.29787
 H1877 H 0.79213 0.72661 0.22510
 H1878 H 0.77079 0.79182 0.21590
 H1879 H 0.68765 0.71732 0.29641
 H1880 H 0.67192 0.74623 0.28218
 H1881 H 0.76130 0.79940 0.26544
 H1882 H 0.77770 0.77604 0.28652
 H1883 H 0.67946 0.71641 0.22651
 H1884 H 0.69819 0.68887 0.24519
 O1885 O 0.70123 0.25113 0.78940
 O1886 O 0.70839 0.21698 0.79394
 O1887 O 0.75978 0.28053 0.79594
 O1888 O 0.78969 0.28058 0.78034
 O1889 O 0.71885 0.29546 0.74486
 O1890 O 0.71208 0.27916 0.71333
 O1891 O 0.80027 0.21794 0.74481
 O1892 O 0.80229 0.22909 0.77761
 O1893 O 0.74467 0.18465 0.74120
 O1894 O 0.70923 0.19228 0.75024
 O1895 O 0.75872 0.22590 0.69590
 O1896 O 0.75651 0.26317 0.69250
 O1897 O 0.79266 0.23493 0.71539
 O1898 O 0.78222 0.27004 0.70755
 O1899 O 0.73579 0.20375 0.70914
 O1900 O 0.70199 0.20789 0.72494
 O1901 O 0.77533 0.19099 0.75610
 O1902 O 0.77749 0.20613 0.79077
 O1903 O 0.69353 0.26765 0.75969
 O1904 O 0.69177 0.25724 0.72464
 O1905 O 0.74849 0.30146 0.76184
 O1906 O 0.78336 0.29295 0.75116
 O1907 O 0.73752 0.25714 0.80847
 O1908 O 0.73937 0.22033 0.80902
 Zr1909 Zr 0.73006 0.23859 0.78376
 O1910 O 0.74380 0.21499 0.76774
 Zr1911 Zr 0.76233 0.27289 0.76502
 O1912 O 0.77743 0.25060 0.74838
 Zr1913 Zr 0.71886 0.26381 0.74097
 O1914 O 0.73206 0.24119 0.72306
 Zr1915 Zr 0.77446 0.22212 0.76268
 O1916 O 0.76138 0.24486 0.78067
 Zr1917 Zr 0.73077 0.21326 0.73868
 O1918 O 0.71541 0.23540 0.75538
 Zr1919 Zr 0.76332 0.24697 0.71972
 O1920 O 0.74949 0.27112 0.73558
 O1921 O 0.73176 0.26702 0.76978
 O1922 O 0.76160 0.21862 0.73382
 C1923 C 0.68922 0.26164 0.77782
 C1924 C 0.74986 0.27211 0.81052
 C1925 C 0.73177 0.30740 0.75344
 C1926 C 0.80478 0.22451 0.72693
 C1927 C 0.76220 0.17899 0.74795
 C1928 C 0.74734 0.20998 0.69483
 H1929 H 0.74245 0.20207 0.77541
 H1930 H 0.72492 0.24059 0.70977
 H1931 H 0.72531 0.27758 0.77807
 H1932 H 0.79185 0.25468 0.74729
 H1933 H 0.79880 0.23662 0.79001
 H1934 H 0.79916 0.26920 0.77844
 H1935 H 0.70080 0.21681 0.71278
 H1936 H 0.68617 0.24461 0.73066
 H1937 H 0.78901 0.19659 0.78964
 H1938 H 0.73142 0.22414 0.82111
 H1939 H 0.74239 0.25980 0.68841
 H1940 H 0.72510 0.28486 0.70840
 H1941 H 0.69927 0.21403 0.78225
 H1942 H 0.71441 0.18714 0.76351
 H1943 H 0.77715 0.29755 0.73812
 H1944 H 0.79330 0.27251 0.71753
 C1945 C 0.07587 1.01203 1.13646
 C1946 C 0.06120 1.02677 1.13692
 C1947 C 0.05638 1.03705 1.15452
 C1948 C 0.06709 1.03190 1.17242
 C1949 C 0.08241 1.01677 1.17247
 C1950 C 0.08684 1.00677 1.15406
 O1951 O 0.07763 1.00366 1.11829
 C1952 C 0.06373 1.01334 1.10705
 C1953 C 0.05332 1.02765 1.11775
 C1954 C 0.03780 1.03923 1.10915
 C1955 C 0.03262 1.03579 1.08874
 C1956 C 0.04288 1.02089 1.07730
 C1957 C 0.05886 1.00966 1.08667
 H1958 H 0.04458 1.04842 1.15454
 H1959 H 0.06308 1.03943 1.18632
 H1960 H 0.09846 0.99525 1.15339
 H1961 H 0.02979 1.05037 1.11791
 H1962 H 0.02041 1.04462 1.08197
 H1963 H 0.06694 0.99810 1.07852
 C1964 C 0.56069 0.50094 0.64177
 C1965 C 0.54252 0.51074 0.64435
 C1966 C 0.53605 0.51728 0.66318
 C1967 C 0.54893 0.51374 0.68002
 C1968 C 0.56794 0.50392 0.67775
 C1969 C 0.57376 0.49733 0.65826
 O1970 O 0.56394 0.49588 0.62262
 C1971 C 0.54747 0.50264 0.61292
 C1972 C 0.53392 0.51192 0.62549
 C1973 C 0.51571 0.52019 0.61844
 C1974 C 0.51121 0.51868 0.59759
 C1975 C 0.52482 0.50891 0.58429
 C1976 C 0.54329 0.50089 0.59218
 H1977 H 0.52161 0.52483 0.66487
 H1978 H 0.54402 0.51858 0.69482
 H1979 H 0.58822 0.49002 0.65588
 H1980 H 0.50531 0.52747 0.62863
 H1981 H 0.49699 0.52487 0.59192
 H1982 H 0.55407 0.49340 0.58254
 C1983 C 0.43477 -0.00101 0.63356
 C1984 C 0.45016 -0.01492 0.63592
 C1985 C 0.45454 -0.02449 0.65438
 C1986 C 0.44260 -0.01948 0.67109
 C1987 C 0.42666 -0.00509 0.66910
 C1988 C 0.42268 0.00418 0.64995
 O1989 O 0.43328 0.00653 0.61481
 C1990 C 0.44805 -0.00283 0.60514
 C1991 C 0.45883 -0.01612 0.61734
 C1992 C 0.47510 -0.02732 0.61031
 C1993 C 0.48052 -0.02464 0.58986
 C1994 C 0.46968 -0.01093 0.57694
 C1995 C 0.45313 0.00003 0.58482
 H1996 H 0.46671 -0.03541 0.65587
 H1997 H 0.44564 -0.02698 0.68554
 H1998 H 0.41079 0.01533 0.64794
 H1999 H 0.48339 -0.03766 0.62023
 H2000 H 0.49321 -0.03319 0.58419
 H2001 H 0.44452 0.01067 0.57551
 C2002 C -0.06016 0.50996 1.15053
 C2003 C -0.04281 0.49895 1.15433
 C2004 C -0.03802 0.49077 1.17334
 C2005 C -0.05171 0.49404 1.18912
 C2006 C -0.06979 0.50535 1.18567
 C2007 C -0.07401 0.51341 1.16600
 O2008 O -0.06189 0.51624 1.13132
 C2009 C -0.04526 0.50899 1.12283
 C2010 C -0.03311 0.49828 1.13627
 C2011 C -0.01510 0.48917 1.13060
 C2012 C -0.00934 0.49116 1.11022
 C2013 C -0.02157 0.50215 1.09594
 C2014 C -0.03982 0.51121 1.10248
 H2015 H -0.02432 0.48203 1.17591
 H2016 H -0.04840 0.48741 1.20392
 H2017 H -0.08759 0.52217 1.16285
 H2018 H -0.00583 0.48077 1.14146
 H2019 H 0.00465 0.48408 1.10562
 H2020 H -0.04958 0.51961 1.09205
 C2021 C -0.06940 0.51226 0.36955
 C2022 C -0.05499 0.52734 0.36864
 C2023 C -0.05186 0.53912 0.35138
 C2024 C -0.06416 0.53533 0.33430
 C2025 C -0.07951 0.51990 0.33456
 C2026 C -0.08183 0.50812 0.35271
 O2027 O -0.06989 0.50289 0.38755
 C2028 C -0.05540 0.51228 0.39815
 C2029 C -0.04584 0.52734 0.38723
 C2030 C -0.03018 0.53909 0.39524
 C2031 C -0.02403 0.53510 0.41536
 C2032 C -0.03357 0.51958 0.42709
 C2033 C -0.04959 0.50807 0.41827
 H2034 H -0.04020 0.55076 0.35099
 H2035 H -0.06095 0.54408 0.32071
 H2036 H -0.09344 0.49656 0.35422
 H2037 H -0.02291 0.55089 0.38631
 H2038 H -0.01183 0.54417 0.42176
 H2039 H -0.05719 0.49610 0.42670
 C2040 C 0.44572 1.00007 -0.14830
 C2041 C 0.46454 1.00835 -0.15210
 C2042 C 0.46983 1.01633 -0.17097
 C2043 C 0.45507 1.01580 -0.18655
 C2044 C 0.43547 1.00742 -0.18300
 C2045 C 0.43084 0.99935 -0.16356
 O2046 O 0.44367 0.99368 -0.12923
 C2047 C 0.46158 0.99803 -0.12082
 C2048 C 0.47490 1.00702 -0.13416
 C2049 C 0.49433 1.01324 -0.12842
 C2050 C 0.50024 1.01016 -0.10805
 C2051 C 0.48675 1.00098 -0.09390
 C2052 C 0.46715 0.99474 -0.10054
 H2053 H 0.48474 1.02279 -0.17359
 H2054 H 0.45897 1.02177 -0.20141
 H2055 H 0.41598 0.99309 -0.16027
 H2056 H 0.50449 1.02039 -0.13918
 H2057 H 0.51527 1.01511 -0.10333
 H2058 H 0.45636 0.98790 -0.09019
 C2059 C 0.56813 0.48888 -0.13595
 C2060 C 0.55318 0.47429 -0.13722
 C2061 C 0.54944 0.46316 -0.15467
 C2062 C 0.56152 0.46735 -0.17162
 C2063 C 0.57698 0.48244 -0.17084
 C2064 C 0.58044 0.49321 -0.15261
 O2065 O 0.56876 0.49803 -0.11806
 C2066 C 0.55387 0.48899 -0.10786
 C2067 C 0.54392 0.47435 -0.11892
 C2068 C 0.52762 0.46326 -0.11141
 C2069 C 0.52125 0.46742 -0.09166
 C2070 C 0.53116 0.48252 -0.07981
 C2071 C 0.54782 0.49340 -0.08812
 H2072 H 0.53755 0.45178 -0.15528
 H2073 H 0.55886 0.45882 -0.18537
 H2074 H 0.59197 0.50494 -0.15163
 H2075 H 0.51999 0.45186 -0.12048
 H2076 H 0.50853 0.45886 -0.08568
 H2077 H 0.55570 0.50505 -0.07961
 C2078 C 0.05600 0.00164 0.35974
 C2079 C 0.03690 -0.00582 0.35543
 C2080 C 0.03083 -0.01169 0.33606
 C2081 C 0.04506 -0.00986 0.32044
 C2082 C 0.06497 -0.00228 0.32439
 C2083 C 0.07045 0.00356 0.34442
 O2084 O 0.05868 0.00614 0.37924
 C2085 C 0.04088 0.00136 0.38740
 C2086 C 0.02708 -0.00606 0.37345
 C2087 C 0.00764 -0.01237 0.37867
 C2088 C 0.00218 -0.01104 0.39913
 C2089 C 0.01606 -0.00341 0.41396
 C2090 C 0.03572 0.00297 0.40788
 H2091 H 0.01574 -0.01764 0.33310
 H2092 H 0.04069 -0.01477 0.30536
 H2093 H 0.08545 0.00946 0.34796
 H2094 H -0.00291 -0.01822 0.36740
 H2095 H -0.01294 -0.01593 0.40336
 H2096 H 0.04674 0.00871 0.41877
 C2097 C 0.15432 1.06735 0.99874
 C2098 C 0.15653 1.05135 1.01218
 C2099 C 0.17508 1.04618 1.02110
 C2100 C 0.19207 1.05805 1.01604
 C2101 C 0.19022 1.07475 1.00230
 C2102 C 0.17099 1.07944 0.99357
 O2103 O 0.13542 1.06943 0.99172
 C2104 C 0.12549 1.05443 1.00096
 C2105 C 0.13772 1.04298 1.01368
 C2106 C 0.13053 1.02642 1.02472
 C2107 C 0.10993 1.02128 1.02240
 C2108 C 0.09695 1.03264 1.00912
 C2109 C 0.10494 1.04960 0.99839
 H2110 H 0.17643 1.03349 1.03162
 H2111 H 0.20659 1.05445 1.02309
 H2112 H 0.16912 1.09197 0.98294
 H2113 H 0.14048 1.01764 1.03464
 H2114 H 0.10423 1.00826 1.03077
 H2115 H 0.09558 1.05857 0.98808
 C2116 C 0.63917 0.56439 0.52120
 C2117 C 0.64081 0.54796 0.53418
 C2118 C 0.65841 0.54380 0.54540
 C2119 C 0.67501 0.55706 0.54302
 C2120 C 0.67372 0.57408 0.52963
 C2121 C 0.65541 0.57778 0.51868
 O2122 O 0.62133 0.56540 0.51161
 C2123 C 0.61148 0.54926 0.51869
 C2124 C 0.62269 0.53807 0.53255
 C2125 C 0.61535 0.52038 0.54159
 C2126 C 0.59567 0.51395 0.53608
 C2127 C 0.58379 0.52518 0.52171
 C2128 C 0.59192 0.54318 0.51300
 H2129 H 0.65937 0.53075 0.55549
 H2130 H 0.68884 0.55411 0.55164
 H2131 H 0.65402 0.59041 0.50808
 H2132 H 0.62447 0.51179 0.55242
 H2133 H 0.58978 0.50018 0.54297
 H2134 H 0.58338 0.55217 0.50200
 C2135 C 0.64320 0.44007 -0.00234
 C2136 C 0.64595 0.45989 -0.00840
 C2137 C 0.66478 0.46784 -0.01365
 C2138 C 0.68151 0.45479 -0.01274
 C2139 C 0.67917 0.43411 -0.00685
 C2140 C 0.65965 0.42674 -0.00140
 O2141 O 0.62394 0.43561 0.00181
 C2142 C 0.61437 0.45303 -0.00177
 C2143 C 0.62721 0.46830 -0.00811
 C2144 C 0.62049 0.48763 -0.01320
 C2145 C 0.59964 0.49143 -0.01176
 C2146 C 0.58594 0.47602 -0.00520
 C2147 C 0.59351 0.45653 0.00000
 H2148 H 0.66654 0.48355 -0.01828
 H2149 H 0.69632 0.46087 -0.01652
 H2150 H 0.65726 0.41105 0.00298
 H2151 H 0.63091 0.49935 -0.01824
 H2152 H 0.59421 0.50646 -0.01568
 H2153 H 0.58347 0.44441 0.00490
 C2154 C 0.13084 -0.05809 0.48432
 C2155 C 0.13310 -0.03866 0.47690
 C2156 C 0.15183 -0.03041 0.47176
 C2157 C 0.16898 -0.04277 0.47422
 C2158 C 0.16709 -0.06306 0.48150
 C2159 C 0.14763 -0.07073 0.48667
 O2160 O 0.11175 -0.06278 0.48879
 C2161 C 0.10175 -0.04591 0.48405
 C2162 C 0.11413 -0.03077 0.47660
 C2163 C 0.10694 -0.01182 0.47077
 C2164 C 0.08614 -0.00819 0.47295
 C2165 C 0.07299 -0.02339 0.48104
 C2166 C 0.08099 -0.04262 0.48649
 H2167 H 0.15323 -0.01495 0.46621
 H2168 H 0.18372 -0.03641 0.47062
 H2169 H 0.14552 -0.08615 0.49208
 H2170 H 0.11702 -0.00016 0.46493
 H2171 H 0.08043 0.00666 0.46874
 H2172 H 0.07146 -0.05454 0.49272
 C2173 C 0.35445 -0.05886 0.49680
 C2174 C 0.35313 -0.04475 0.51193
 C2175 C 0.33544 -0.04160 0.52273
 C2176 C 0.31837 -0.05340 0.51765
 C2177 C 0.31923 -0.06798 0.50194
 C2178 C 0.33767 -0.07077 0.49148
 O2179 O 0.37263 -0.05934 0.48830
 C2180 C 0.38299 -0.04522 0.49830
 C2181 C 0.37176 -0.03583 0.51290
 C2182 C 0.37956 -0.02041 0.52496
 C2183 C 0.39978 -0.01439 0.52182
 C2184 C 0.41176 -0.02384 0.50683
 C2185 C 0.40313 -0.03955 0.49497
 H2186 H 0.33479 -0.03044 0.53463
 H2187 H 0.30453 -0.05130 0.52608
 H2188 H 0.33882 -0.08160 0.47932
 H2189 H 0.37039 -0.01321 0.53633
 H2190 H 0.40606 -0.00239 0.53110
 H2191 H 0.41172 -0.04706 0.48335
 C2192 C -0.13510 0.44712 1.01275
 C2193 C -0.13824 0.46372 1.02475
 C2194 C -0.15729 0.46866 1.03212
 C2195 C -0.17371 0.45596 1.02694
 C2196 C -0.17083 0.43870 1.01459
 C2197 C -0.15115 0.43431 1.00745
 O2198 O -0.11595 0.44518 1.00709
 C2199 C -0.10677 0.46089 1.01569
 C2200 C -0.11968 0.47272 1.02670
 C2201 C -0.11315 0.49005 1.03675
 C2202 C -0.09251 0.49545 1.03529
 C2203 C -0.07889 0.48353 1.02388
 C2204 C -0.08628 0.46592 1.01406
 H2205 H -0.15942 0.48180 1.04154
 H2206 H -0.18860 0.45942 1.03276
 H2207 H -0.14844 0.42145 0.99780
 H2208 H -0.12358 0.49917 1.04529
 H2209 H -0.08723 0.50898 1.04290
 H2210 H -0.07645 0.45646 1.00516
 C2211 C -0.14272 0.56789 0.50444
 C2212 C -0.14672 0.54886 0.49708
 C2213 C -0.16618 0.54232 0.49188
 C2214 C -0.18220 0.55598 0.49435
 C2215 C -0.17854 0.57588 0.50168
 C2216 C -0.15838 0.58181 0.50680
 O2217 O -0.12318 0.57095 0.50877
 C2218 C -0.11468 0.55346 0.50401
 C2219 C -0.12842 0.53947 0.49669
 C2220 C -0.12280 0.52021 0.49065
 C2221 C -0.10217 0.51512 0.49226
 C2222 C -0.08765 0.52917 0.50000
 C2223 C -0.09411 0.54865 0.50594
 H2224 H -0.16897 0.52717 0.48632
 H2225 H -0.19749 0.55087 0.49082
 H2226 H -0.15489 0.59686 0.51226
 H2227 H -0.13391 0.50948 0.48491
 H2228 H -0.09757 0.50012 0.48771
 H2229 H -0.08346 0.55978 0.51180
 C2230 C 0.37550 1.06552 -0.02597
 C2231 C 0.37161 1.04820 -0.03680
 C2232 C 0.35221 1.04305 -0.04371
 C2233 C 0.33621 1.05623 -0.03920
 C2234 C 0.33981 1.07422 -0.02797
 C2235 C 0.35988 1.07889 -0.02143
 O2236 O 0.39478 1.06729 -0.02010
 C2237 C 0.40326 1.05070 -0.02732
 C2238 C 0.38980 1.03851 -0.03771
 C2239 C 0.39544 1.02003 -0.04588
 C2240 C 0.41569 1.01376 -0.04294
 C2241 C 0.42980 1.02593 -0.03192
 C2242 C 0.42340 1.04484 -0.02430
 H2243 H 0.34943 1.02920 -0.05197
 H2244 H 0.32096 1.05213 -0.04403
 H2245 H 0.36330 1.09247 -0.01296
 H2246 H 0.38456 1.01059 -0.05388
 H2247 H 0.42020 0.99924 -0.04885
 H2248 H 0.43357 1.05450 -0.01566
 C2249 C 0.01646 1.14617 1.05178
 C2250 C 0.02674 1.14883 1.03388
 C2251 C 0.03293 1.16778 1.02675
 C2252 C 0.02856 1.18465 1.03871
 C2253 C 0.01828 1.18233 1.05748
 C2254 C 0.01205 1.16270 1.06394
 O2255 O 0.01179 1.12693 1.05573
 C2256 C 0.01933 1.11722 1.03997
 C2257 C 0.02871 1.12992 1.02622
 C2258 C 0.03770 1.12295 1.00866
 C2259 C 0.03674 1.10206 1.00496
 C2260 C 0.02677 1.08859 1.01869
 C2261 C 0.01811 1.09640 1.03658
 H2262 H 0.04086 1.16951 1.01251
 H2263 H 0.03318 1.19952 1.03331
 H2264 H 0.00447 1.16023 1.07828
 H2265 H 0.04505 1.13324 0.99809
 H2266 H 0.04341 1.09650 0.99115
 H2267 H 0.01038 1.08665 1.04739
 C2268 C 0.51181 0.63735 0.56159
 C2269 C 0.53165 0.63272 0.55736
 C2270 C 0.54775 0.64579 0.56147
 C2271 C 0.54324 0.66447 0.57022
 C2272 C 0.52282 0.66999 0.57433
 C2273 C 0.50691 0.65601 0.56998
 O2274 O 0.49883 0.62267 0.55661
 C2275 C 0.51076 0.60854 0.54900
 C2276 C 0.53096 0.61405 0.54900
 C2277 C 0.54607 0.60189 0.54113
 C2278 C 0.54011 0.58329 0.53285
 C2279 C 0.51941 0.57710 0.53288
 C2280 C 0.50453 0.58985 0.54124
 H2281 H 0.56327 0.64168 0.55820
 H2282 H 0.55577 0.67448 0.57396
 H2283 H 0.49115 0.65962 0.57267
 H2284 H 0.56185 0.60664 0.54119
 H2285 H 0.55165 0.57359 0.52660
 H2286 H 0.48862 0.58556 0.54126
 C2287 C -0.02158 0.64293 0.44680
 C2288 C -0.01723 0.64717 0.46678
 C2289 C -0.01341 0.66671 0.47348
 C2290 C -0.01407 0.68253 0.45900
 C2291 C -0.01907 0.67875 0.43823
 C2292 C -0.02306 0.65845 0.43230
 O2293 O -0.02350 0.62324 0.44329
 C2294 C -0.02035 0.61486 0.46149
 C2295 C -0.01674 0.62885 0.47647
 C2296 C -0.01312 0.62335 0.49668
 C2297 C -0.01301 0.60257 0.50158
 C2298 C -0.01593 0.58788 0.48624
 C2299 C -0.01976 0.59413 0.46593
 H2300 H -0.00951 0.66963 0.48922
 H2301 H -0.01018 0.69758 0.46411
 H2302 H -0.02723 0.65457 0.41688
 H2303 H -0.01036 0.63463 0.50821
 H2304 H -0.00995 0.59788 0.51716
 H2305 H -0.02204 0.58319 0.45396
 C2306 C 0.49591 1.13475 -0.07430
 C2307 C 0.50190 1.12233 -0.08970
 C2308 C 0.50664 1.12943 -0.10900
 C2309 C 0.50500 1.15027 -0.11274
 C2310 C 0.49848 1.16362 -0.09735
 C2311 C 0.49398 1.15565 -0.07774
 O2312 O 0.49288 1.12477 -0.05686
 C2313 C 0.49710 1.10566 -0.06145
 C2314 C 0.50261 1.10349 -0.08141
 C2315 C 0.50813 1.08511 -0.08961
 C2316 C 0.50832 1.06819 -0.07665
 C2317 C 0.50316 1.06983 -0.05579
 C2318 C 0.49708 1.08886 -0.04816
 H2319 H 0.51169 1.11931 -0.12072
 H2320 H 0.50918 1.15599 -0.12761
 H2321 H 0.48902 1.16533 -0.06561
 H2322 H 0.51238 1.08387 -0.10538
 H2323 H 0.51272 1.05377 -0.08291
 H2324 H 0.49318 1.09063 -0.03234
 C2325 C 0.50508 0.35712 -0.05368
 C2326 C 0.51541 0.35439 -0.03555
 C2327 C 0.52187 0.33544 -0.02867
 C2328 C 0.51767 0.31869 -0.04108
 C2329 C 0.50720 0.32115 -0.05999
 C2330 C 0.50077 0.34074 -0.06623
 O2331 O 0.50020 0.37628 -0.05748
 C2332 C 0.50759 0.38590 -0.04139
 C2333 C 0.51710 0.37326 -0.02752
 C2334 C 0.52590 0.38031 -0.00959
 C2335 C 0.52463 0.40119 -0.00572
 C2336 C 0.51463 0.41451 -0.01969
 C2337 C 0.50614 0.40661 -0.03787
 H2338 H 0.52989 0.33361 -0.01430
 H2339 H 0.52251 0.30381 -0.03591
 H2340 H 0.49307 0.34331 -0.08066
 H2341 H 0.53334 0.37010 0.00112
 H2342 H 0.53117 0.40686 0.00830
 H2343 H 0.49839 0.41622 -0.04893
 C2344 C -0.00860 -0.13581 0.42772
 C2345 C 0.00519 -0.13787 0.44346
 C2346 C 0.01377 -0.15625 0.44917
 C2347 C 0.00823 -0.17331 0.43796
 C2348 C -0.00532 -0.17177 0.42097
 C2349 C -0.01409 -0.15263 0.41600
 O2350 O -0.01544 -0.11692 0.42552
 C2351 C -0.00564 -0.10692 0.44018
 C2352 C 0.00728 -0.11915 0.45137
 C2353 C 0.01912 -0.11219 0.46740
 C2354 C 0.01734 -0.09180 0.47250
 C2355 C 0.00361 -0.07872 0.46183
 C2356 C -0.00786 -0.08642 0.44515
 H2357 H 0.02422 -0.15748 0.46196
 H2358 H 0.01451 -0.18777 0.44269
 H2359 H -0.02451 -0.15079 0.40326
 H2360 H 0.02924 -0.12217 0.47585
 H2361 H 0.02639 -0.08644 0.48522
 H2362 H -0.01852 -0.07698 0.43673
 C2363 C 0.49797 -0.13851 0.55137
 C2364 C 0.48364 -0.14081 0.53614
 C2365 C 0.47462 -0.15939 0.53180
 C2366 C 0.48052 -0.17623 0.54371
 C2367 C 0.49523 -0.17423 0.55960
 C2368 C 0.50409 -0.15501 0.56334
 O2369 O 0.50468 -0.11961 0.55308
 C2370 C 0.49434 -0.10975 0.53865
 C2371 C 0.48125 -0.12198 0.52783
 C2372 C 0.46900 -0.11466 0.51201
 C2373 C 0.47041 -0.09391 0.50708
 C2374 C 0.48391 -0.08097 0.51796
 C2375 C 0.49596 -0.08915 0.53405
 H2376 H 0.46332 -0.16084 0.51979
 H2377 H 0.47331 -0.19071 0.54082
 H2378 H 0.51546 -0.15294 0.57518
 H2379 H 0.45879 -0.12457 0.50371
 H2380 H 0.46106 -0.08802 0.49471
 H2381 H 0.50646 -0.07984 0.54270
 C2382 C -0.00242 0.36574 1.06757
 C2383 C -0.01321 0.37699 1.08108
 C2384 C -0.01902 0.36958 1.09994
 C2385 C -0.01346 0.34972 1.10521
 C2386 C -0.00211 0.33744 1.09172
 C2387 C 0.00318 0.34580 1.07239
 O2388 O 0.00259 0.37616 1.05091
 C2389 C -0.00527 0.39438 1.05404
 C2390 C -0.01515 0.39559 1.07231
 C2391 C -0.02341 0.41347 1.07939
 C2392 C -0.02106 0.43095 1.06735
 C2393 C -0.01077 0.43021 1.04859
 C2394 C -0.00302 0.41162 1.04162
 H2395 H -0.02749 0.37881 1.11033
 H2396 H -0.01875 0.34391 1.11966
 H2397 H 0.01232 0.33761 1.06172
 H2398 H -0.03079 0.41409 1.09398
 H2399 H -0.02668 0.44525 1.07288
 H2400 H 0.00546 0.41089 1.02765
 C2401 C 0.76719 0.31538 0.10259
 C2402 C 0.77521 0.29667 0.09884
 C2403 C 0.77912 0.29013 0.07934
 C2404 C 0.77471 0.30343 0.06305
 C2405 C 0.76653 0.32325 0.06625
 C2406 C 0.76282 0.32894 0.08676
 O2407 O 0.76380 0.31845 0.12214
 C2408 C 0.76993 0.30131 0.13093
 C2409 C 0.77716 0.28747 0.11740
 C2410 C 0.78400 0.26836 0.12345
 C2411 C 0.78303 0.26324 0.14424
 C2412 C 0.77514 0.27714 0.15843
 C2413 C 0.76878 0.29656 0.15156
 H2414 H 0.78546 0.27529 0.07672
 H2415 H 0.77882 0.29828 0.04814
 H2416 H 0.75567 0.34304 0.09067
 H2417 H 0.78957 0.25765 0.11252
 H2418 H 0.78786 0.24828 0.14915
 H2419 H 0.76265 0.30758 0.16188
 C2420 C 0.24646 0.81918 0.59895
 C2421 C 0.25521 0.80075 0.59517
 C2422 C 0.25964 0.79423 0.57574
 C2423 C 0.25498 0.80730 0.55943
 C2424 C 0.24614 0.82653 0.56278
 C2425 C 0.24180 0.83253 0.58290
 O2426 O 0.24357 0.82231 0.61865
 C2427 C 0.25075 0.80550 0.62745
 C2428 C 0.25810 0.79195 0.61367
 C2429 C 0.26667 0.77355 0.61932
 C2430 C 0.26767 0.76880 0.64007
 C2431 C 0.26003 0.78230 0.65482
 C2432 C 0.25138 0.80099 0.64833
 H2433 H 0.26660 0.77965 0.57324
 H2434 H 0.25874 0.80262 0.54422
 H2435 H 0.23504 0.84710 0.58594
 H2436 H 0.27242 0.76320 0.60814
 H2437 H 0.27423 0.75438 0.64455
 H2438 H 0.24548 0.81166 0.65912
 C2439 C 0.74641 0.69411 0.62117
 C2440 C 0.75024 0.71441 0.61822
 C2441 C 0.75418 0.72279 0.59918
 C2442 C 0.75415 0.70970 0.58250
 C2443 C 0.74981 0.68865 0.58500
 C2444 C 0.74576 0.68094 0.60480
 O2445 O 0.74382 0.68901 0.64055
 C2446 C 0.74600 0.70651 0.65006
 C2447 C 0.74973 0.72258 0.63708
 C2448 C 0.75227 0.74233 0.64384
 C2449 C 0.75107 0.74560 0.66484
 C2450 C 0.74782 0.72915 0.67856
 C2451 C 0.74521 0.70933 0.67101
 H2452 H 0.75750 0.73878 0.59727
 H2453 H 0.75787 0.71602 0.56776
 H2454 H 0.74201 0.66518 0.60755
 H2455 H 0.75512 0.75476 0.63335
 H2456 H 0.75318 0.76083 0.67048
 H2457 H 0.74260 0.69653 0.68113
 C2458 C 0.26641 0.17463 0.11126
 C2459 C 0.27517 0.16051 0.12400
 C2460 C 0.28282 0.14233 0.11729
 C2461 C 0.28122 0.13827 0.09654
 C2462 C 0.27189 0.15226 0.08244
 C2463 C 0.26472 0.17104 0.09035
 O2464 O 0.25989 0.19089 0.12106
 C2465 C 0.26479 0.18681 0.14039
 C2466 C 0.27421 0.16839 0.14285
 C2467 C 0.28063 0.16081 0.16157
 C2468 C 0.27732 0.17273 0.17860
 C2469 C 0.26766 0.19196 0.17679
 C2470 C 0.26122 0.19905 0.15728
 H2471 H 0.28996 0.13162 0.12770
 H2472 H 0.28832 0.12445 0.09171
 H2473 H 0.25698 0.18225 0.08102
 H2474 H 0.28794 0.14619 0.16304
 H2475 H 0.28228 0.16680 0.19325
 H2476 H 0.25381 0.21357 0.15530
 C2477 C 0.26029 0.19985 0.88867
 C2478 C 0.27911 0.20845 0.88584
 C2479 C 0.29476 0.20686 0.90012
 C2480 C 0.29092 0.19581 0.91803
 C2481 C 0.27151 0.18689 0.92162
 C2482 C 0.25594 0.18924 0.90660
 O2483 O 0.24784 0.20238 0.87277
 C2484 C 0.25909 0.21283 0.85965
 C2485 C 0.27829 0.21707 0.86701
 C2486 C 0.29263 0.22782 0.85586
 C2487 C 0.28696 0.23450 0.83629
 C2488 C 0.26735 0.23006 0.82815
 C2489 C 0.25323 0.21901 0.84004
 H2490 H 0.30958 0.21345 0.89736
 H2491 H 0.30339 0.19377 0.92871
 H2492 H 0.24089 0.18291 0.90861
 H2493 H 0.30766 0.23093 0.86198
 H2494 H 0.29800 0.24280 0.82732
 H2495 H 0.23816 0.21544 0.83426
 C2496 C 0.74285 0.68288 0.39574
 C2497 C 0.73941 0.66666 0.38321
 C2498 C 0.73608 0.64708 0.39043
 C2499 C 0.73622 0.64403 0.41152
 C2500 C 0.73963 0.66044 0.42493
 C2501 C 0.74323 0.68015 0.41689
 O2502 O 0.74480 0.70035 0.38560
 C2503 C 0.74249 0.69497 0.36627
 C2504 C 0.73921 0.67449 0.36410
 C2505 C 0.73558 0.66551 0.34544
 C2506 C 0.73496 0.67817 0.32825
 C2507 C 0.73796 0.69944 0.32993
 C2508 C 0.74216 0.70793 0.34923
 H2509 H 0.73329 0.63462 0.38020
 H2510 H 0.73377 0.62883 0.41743
 H2511 H 0.74571 0.69296 0.42676
 H2512 H 0.73293 0.64936 0.34420
 H2513 H 0.73193 0.67139 0.31360
 H2514 H 0.74426 0.72410 0.35100
 C2515 C 0.23036 0.81331 0.38031
 C2516 C 0.22448 0.79416 0.38638
 C2517 C 0.22381 0.78810 0.40669
 C2518 C 0.22916 0.80247 0.42140
 C2519 C 0.23471 0.82248 0.41556
 C2520 C 0.23536 0.82796 0.39470
 O2521 O 0.23064 0.81571 0.36023
 C2522 C 0.22469 0.79770 0.35348
 C2523 C 0.22053 0.78409 0.36890
 C2524 C 0.21407 0.76437 0.36534
 C2525 C 0.21226 0.75826 0.34507
 C2526 C 0.21720 0.77171 0.32878
 C2527 C 0.22324 0.79187 0.33315
 H2528 H 0.21932 0.77287 0.41107
 H2529 H 0.22844 0.79824 0.43733
 H2530 H 0.23959 0.84315 0.38990
 H2531 H 0.21082 0.75396 0.37774
 H2532 H 0.20772 0.74276 0.34217
 H2533 H 0.22722 0.80252 0.32117
 C2534 C 0.75960 0.32085 0.88388
 C2535 C 0.76272 0.30079 0.88887
 C2536 C 0.76677 0.29408 0.90861
 C2537 C 0.76749 0.30864 0.92393
 C2538 C 0.76387 0.32938 0.91933
 C2539 C 0.75989 0.33558 0.89897
 O2540 O 0.75593 0.32390 0.86414
 C2541 C 0.75661 0.30532 0.85658
 C2542 C 0.76053 0.29068 0.87117
 C2543 C 0.76100 0.27012 0.86694
 C2544 C 0.75725 0.26438 0.84682
 C2545 C 0.75352 0.27914 0.83138
 C2546 C 0.75336 0.29996 0.83626
 H2547 H 0.76914 0.27819 0.91212
 H2548 H 0.77031 0.30372 0.93948
 H2549 H 0.75702 0.35132 0.89510
 H2550 H 0.76389 0.25889 0.87875
 H2551 H 0.75748 0.24841 0.84318
 H2552 H 0.75031 0.31147 0.82475
 C2553 C 0.82330 0.39076 0.23850
 C2554 C 0.81037 0.39201 0.22193
 C2555 C 0.80650 0.41009 0.21156
 C2556 C 0.81629 0.42762 0.21863
 C2557 C 0.82962 0.42679 0.23578
 C2558 C 0.83332 0.40799 0.24570
 O2559 O 0.82416 0.37231 0.24670
 C2560 C 0.81148 0.36170 0.23507
 C2561 C 0.80268 0.37302 0.21967
 C2562 C 0.78831 0.36511 0.20623
 C2563 C 0.78257 0.34475 0.20894
 C2564 C 0.79120 0.33277 0.22493
 C2565 C 0.80611 0.34142 0.23797
 H2566 H 0.79615 0.41072 0.19864
 H2567 H 0.81350 0.44186 0.21073
 H2568 H 0.84318 0.40692 0.25898
 H2569 H 0.78147 0.37438 0.19432
 H2570 H 0.77116 0.33845 0.19878
 H2571 H 0.81283 0.33287 0.25049
 C2572 C 0.31506 0.89504 0.73873
 C2573 C 0.29788 0.89721 0.72679
 C2574 C 0.29176 0.91576 0.71861
 C2575 C 0.30389 0.93278 0.72288
 C2576 C 0.32173 0.93100 0.73516
 C2577 C 0.32733 0.91176 0.74318
 O2578 O 0.31815 0.87608 0.74498
 C2579 C 0.30259 0.86607 0.73678
 C2580 C 0.28975 0.87831 0.72551
 C2581 C 0.27250 0.87099 0.71560
 C2582 C 0.26826 0.85019 0.71743
 C2583 C 0.28122 0.83715 0.72903
 C2584 C 0.29869 0.84534 0.73880
 H2585 H 0.27822 0.91707 0.70918
 H2586 H 0.29954 0.94727 0.71630
 H2587 H 0.34073 0.90986 0.75273
 H2588 H 0.26263 0.88093 0.70680
 H2589 H 0.25482 0.84432 0.70980
 H2590 H 0.30892 0.83592 0.74778
 C2591 C 0.16858 0.87579 0.25240
 C2592 C 0.15326 0.86373 0.24499
 C2593 C 0.13417 0.87100 0.23991
 C2594 C 0.13054 0.89165 0.24258
 C2595 C 0.14594 0.90507 0.25032
 C2596 C 0.16545 0.89654 0.25511
 O2597 O 0.18562 0.86559 0.25644
 C2598 C 0.18083 0.84669 0.25130
 C2599 C 0.16120 0.84488 0.24415
 C2600 C 0.15283 0.82669 0.23777
 C2601 C 0.16520 0.80954 0.23875
 C2602 C 0.18561 0.81073 0.24612
 C2603 C 0.19350 0.82969 0.25258
 H2604 H 0.12245 0.86113 0.23383
 H2605 H 0.11586 0.89698 0.23737
 H2606 H 0.17776 0.90527 0.26167
 H2607 H 0.13729 0.82571 0.23222
 H2608 H 0.15869 0.79525 0.23390
 H2609 H 0.20895 0.83116 0.25827
 C2610 C 0.69032 0.38597 0.74848
 C2611 C 0.70890 0.38873 0.75788
 C2612 C 0.71530 0.40732 0.76537
 C2613 C 0.70203 0.42379 0.76307
 C2614 C 0.68275 0.42149 0.75330
 C2615 C 0.67689 0.40218 0.74592
 O2616 O 0.68708 0.36695 0.74280
 C2617 C 0.70398 0.35752 0.74876
 C2618 C 0.71781 0.37020 0.75804
 C2619 C 0.73642 0.36352 0.76567
 C2620 C 0.74095 0.34289 0.76379
 C2621 C 0.72692 0.32932 0.75442
 C2622 C 0.70816 0.33690 0.74671
 H2623 H 0.72992 0.40905 0.77291
 H2624 H 0.70667 0.43824 0.76926
 H2625 H 0.66240 0.39983 0.73832
 H2626 H 0.74703 0.37381 0.77296
 H2627 H 0.75536 0.33751 0.76983
 H2628 H 0.69703 0.32705 0.73959
 C2629 C 0.68310 0.60976 0.74799
 C2630 C 0.69900 0.60896 0.73470
 C2631 C 0.70444 0.59142 0.72474
 C2632 C 0.69286 0.57394 0.72843
 C2633 C 0.67598 0.57427 0.74172
 C2634 C 0.67117 0.59254 0.75175
 O2635 O 0.68100 0.62790 0.75631
 C2636 C 0.69592 0.63874 0.74803
 C2637 C 0.70725 0.62781 0.73463
 C2638 C 0.72374 0.63590 0.72436
 C2639 C 0.72906 0.65603 0.72829
 C2640 C 0.71803 0.66770 0.74245
 C2641 C 0.70098 0.65891 0.75225
 H2642 H 0.71727 0.59115 0.71461
 H2643 H 0.69724 0.56008 0.72106
 H2644 H 0.65842 0.59345 0.76193
 H2645 H 0.73237 0.62694 0.71387
 H2646 H 0.74208 0.66235 0.72049
 H2647 H 0.69231 0.66726 0.76321
 C2648 C 0.20025 0.09459 0.25724
 C2649 C 0.21970 0.09094 0.25085
 C2650 C 0.22655 0.07161 0.24634
 C2651 C 0.21273 0.05542 0.24838
 C2652 C 0.19253 0.05882 0.25485
 C2653 C 0.18633 0.07876 0.25944
 O2654 O 0.19659 0.11406 0.26032
 C2655 C 0.21412 0.12293 0.25577
 C2656 C 0.22876 0.10949 0.24989
 C2657 C 0.24811 0.11564 0.24411
 C2658 C 0.25253 0.13648 0.24442
 C2659 C 0.23766 0.15072 0.25044
 C2660 C 0.21816 0.14369 0.25623
 H2661 H 0.24192 0.06910 0.24128
 H2662 H 0.21777 0.04025 0.24494
 H2663 H 0.17094 0.08197 0.26401
 H2664 H 0.25937 0.10480 0.23943
 H2665 H 0.26753 0.14147 0.23990
 H2666 H 0.20638 0.15403 0.26080
 C2667 C 0.31314 0.11751 0.75012
 C2668 C 0.29545 0.11452 0.76067
 C2669 C 0.28948 0.09566 0.76816
 C2670 C 0.30235 0.07921 0.76479
 C2671 C 0.32091 0.08184 0.75421
 C2672 C 0.32624 0.10135 0.74664
 O2673 O 0.31589 0.13667 0.74426
 C2674 C 0.29958 0.14593 0.75130
 C2675 C 0.28665 0.13303 0.76150
 C2676 C 0.26874 0.13948 0.77023
 C2677 C 0.26384 0.16007 0.76827
 C2678 C 0.27676 0.17379 0.75763
 C2679 C 0.29497 0.16650 0.74908
 H2680 H 0.27539 0.09368 0.77629
 H2681 H 0.29776 0.06438 0.77033
 H2682 H 0.34032 0.10397 0.73866
 H2683 H 0.25884 0.12902 0.77822
 H2684 H 0.24981 0.16521 0.77488
 H2685 H 0.30521 0.17647 0.74088
 C2686 C 0.79481 0.60834 0.25349
 C2687 C 0.77599 0.60333 0.26097
 C2688 C 0.77088 0.58372 0.26706
 C2689 C 0.78583 0.56873 0.26549
 C2690 C 0.80547 0.57357 0.25801
 C2691 C 0.80988 0.59372 0.25181
 O2692 O 0.79673 0.62786 0.24885
 C2693 C 0.77873 0.63535 0.25351
 C2694 C 0.76547 0.62101 0.26102
 C2695 C 0.74596 0.62575 0.26727
 C2696 C 0.73988 0.64611 0.26570
 C2697 C 0.75330 0.66119 0.25793
 C2698 C 0.77301 0.65558 0.25173
 H2699 H 0.75596 0.58011 0.27289
 H2700 H 0.78208 0.55335 0.27004
 H2701 H 0.82476 0.59803 0.24635
 H2702 H 0.73583 0.61423 0.27326
 H2703 H 0.72477 0.65007 0.27059
 H2704 H 0.78375 0.66664 0.24593
 C2705 C 0.90077 0.25162 0.18138
 C2706 C 0.90401 0.26238 0.19891
 C2707 C 0.92317 0.26909 0.20505
 C2708 C 0.93965 0.26464 0.19254
 C2709 C 0.93675 0.25372 0.17424
 C2710 C 0.91693 0.24712 0.16865
 O2711 O 0.88140 0.24650 0.17844
 C2712 C 0.87223 0.25425 0.19444
 C2713 C 0.88538 0.26419 0.20737
 C2714 C 0.87901 0.27347 0.22503
 C2715 C 0.85826 0.27231 0.22966
 C2716 C 0.84432 0.26190 0.21674
 C2717 C 0.85153 0.25284 0.19878
 H2718 H 0.92534 0.27755 0.21891
 H2719 H 0.95461 0.27011 0.19690
 H2720 H 0.91420 0.23868 0.15486
 H2721 H 0.88965 0.28123 0.23496
 H2722 H 0.85316 0.27930 0.24349
 H2723 H 0.84142 0.24478 0.18855
 C2724 C 0.39728 0.76037 0.67209
 C2725 C 0.39838 0.77618 0.68549
 C2726 C 0.41613 0.78715 0.68902
 C2727 C 0.43349 0.78162 0.67829
 C2728 C 0.43285 0.76531 0.66437
 C2729 C 0.41436 0.75462 0.66121
 O2730 O 0.37905 0.75164 0.67135
 C2731 C 0.36843 0.76218 0.68459
 C2732 C 0.37957 0.77737 0.69363
 C2733 C 0.37166 0.78990 0.70836
 C2734 C 0.35150 0.78648 0.71422
 C2735 C 0.33966 0.77075 0.70532
 C2736 C 0.34828 0.75859 0.69007
 H2737 H 0.41662 0.79952 0.69968
 H2738 H 0.44737 0.79020 0.68065
 H2739 H 0.41339 0.74199 0.65088
 H2740 H 0.38078 0.80170 0.71531
 H2741 H 0.34522 0.79599 0.72585
 H2742 H 0.33981 0.74632 0.68314
 C2743 C 0.38942 0.25576 0.80930
 C2744 C 0.39297 0.24556 0.79159
 C2745 C 0.41212 0.23865 0.78641
 C2746 C 0.42826 0.24232 0.80008
 C2747 C 0.42502 0.25271 0.81856
 C2748 C 0.40523 0.25951 0.82315
 O2749 O 0.37013 0.26108 0.81131
 C2750 C 0.36130 0.25406 0.79453
 C2751 C 0.37457 0.24439 0.78197
 C2752 C 0.36845 0.23577 0.76368
 C2753 C 0.34782 0.23726 0.75806
 C2754 C 0.33380 0.24735 0.77067
 C2755 C 0.34079 0.25581 0.78923
 H2756 H 0.41454 0.23060 0.77241
 H2757 H 0.44319 0.23670 0.79644
 H2758 H 0.40223 0.26756 0.83703
 H2759 H 0.37917 0.22818 0.75406
 H2760 H 0.34285 0.23071 0.74382
 H2761 H 0.33058 0.26351 0.79931
 C2762 C 0.86728 0.73186 0.31999
 C2763 C 0.86913 0.71915 0.30378
 C2764 C 0.88763 0.71138 0.29790
 C2765 C 0.90500 0.71694 0.30912
 C2766 C 0.90390 0.73024 0.32617
 C2767 C 0.88427 0.73749 0.33155
 O2768 O 0.84843 0.73845 0.32239
 C2769 C 0.83819 0.72963 0.30736
 C2770 C 0.85014 0.71759 0.29557
 C2771 C 0.84270 0.70759 0.27852
 C2772 C 0.82216 0.71042 0.27320
 C2773 C 0.80955 0.72316 0.28486
 C2774 C 0.81773 0.73260 0.30242
 H2775 H 0.88870 0.70136 0.28506
 H2776 H 0.91903 0.70988 0.30475
 H2777 H 0.88202 0.74830 0.34350
 H2778 H 0.85245 0.69831 0.26938
 H2779 H 0.81627 0.70306 0.25972
 H2780 H 0.80872 0.74263 0.31154
 C2781 C 0.08970 0.74049 0.31100
 C2782 C 0.08579 0.74337 0.29059
 C2783 C 0.06642 0.74714 0.28278
 C2784 C 0.05040 0.74799 0.29660
 C2785 C 0.05398 0.74514 0.31779
 C2786 C 0.07400 0.74128 0.32501
 O2787 O 0.10924 0.73737 0.31524
 C2788 C 0.11783 0.73831 0.29709
 C2789 C 0.10412 0.74195 0.28153
 C2790 C 0.10981 0.74388 0.26135
 C2791 C 0.13052 0.74210 0.25701
 C2792 C 0.14510 0.73842 0.27277
 C2793 C 0.13854 0.73636 0.29313
 H2794 H 0.06374 0.74934 0.26664
 H2795 H 0.03516 0.75063 0.29075
 H2796 H 0.07732 0.73928 0.34107
 H2797 H 0.09872 0.74682 0.24938
 H2798 H 0.13514 0.74368 0.24132
 H2799 H 0.14920 0.73372 0.30554
 C2800 C 0.61197 0.26235 0.82132
 C2801 C 0.61122 0.27689 0.80619
 C2802 C 0.59383 0.28804 0.80170
 C2803 C 0.57649 0.28408 0.81330
 C2804 C 0.57678 0.26921 0.82913
 C2805 C 0.59491 0.25822 0.83314
 O2806 O 0.62983 0.25305 0.82266
 C2807 C 0.64055 0.26191 0.80802
 C2808 C 0.62983 0.27662 0.79754
 C2809 C 0.63783 0.28742 0.78123
 C2810 C 0.65761 0.28269 0.77525
 C2811 C 0.66900 0.26735 0.78557
 C2812 C 0.66035 0.25702 0.80241
 H2813 H 0.59355 0.29923 0.78952
 H2814 H 0.56272 0.29235 0.80964
 H2815 H 0.59578 0.24684 0.84512
 H2816 H 0.62905 0.29888 0.77318
 H2817 H 0.66392 0.29086 0.76240
 H2818 H 0.66848 0.24509 0.81047
 C2819 C 0.61802 0.75615 0.68595
 C2820 C 0.61257 0.75103 0.70547
 C2821 C 0.59263 0.74715 0.71105
 C2822 C 0.57761 0.74834 0.69584
 C2823 C 0.58270 0.75325 0.67544
 C2824 C 0.60322 0.75754 0.67050
 O2825 O 0.63801 0.75849 0.68391
 C2826 C 0.64526 0.75470 0.70255
 C2827 C 0.63024 0.75004 0.71621
 C2828 C 0.63421 0.74475 0.73633
 C2829 C 0.65455 0.74410 0.74271
 C2830 C 0.67054 0.74876 0.72905
 C2831 C 0.66577 0.75438 0.70866
 H2832 H 0.58880 0.74308 0.72654
 H2833 H 0.56198 0.74529 0.69991
 H2834 H 0.60758 0.76109 0.65504
 H2835 H 0.62208 0.74100 0.74671
 H2836 H 0.65782 0.73995 0.75839
 H2837 H 0.67759 0.75783 0.69784
 C2838 C 0.12548 0.22887 0.17437
 C2839 C 0.12389 0.21263 0.18754
 C2840 C 0.10565 0.20267 0.19122
 C2841 C 0.08829 0.20957 0.18073
 C2842 C 0.08940 0.22605 0.16662
 C2843 C 0.10842 0.23586 0.16352
 O2844 O 0.14410 0.23683 0.17397
 C2845 C 0.15444 0.22533 0.18720
 C2846 C 0.14274 0.21024 0.19580
 C2847 C 0.15014 0.19691 0.21058
 C2848 C 0.17028 0.19952 0.21721
 C2849 C 0.18263 0.21536 0.20914
 C2850 C 0.17466 0.22816 0.19352
 H2851 H 0.10473 0.19021 0.20203
 H2852 H 0.07394 0.20219 0.18392
 H2853 H 0.10997 0.24844 0.15294
 H2854 H 0.14057 0.18522 0.21716
 H2855 H 0.17606 0.18953 0.22911
 H2856 H 0.18351 0.24061 0.18731
 C2857 C -0.05150 1.00257 0.85567
 C2858 C -0.03400 0.99208 0.85196
 C2859 C -0.02898 0.98556 0.83271
 C2860 C -0.04269 0.98976 0.81669
 C2861 C -0.06129 1.00035 0.82000
 C2862 C -0.06535 1.00697 0.84005
 O2863 O -0.05347 1.00746 0.87504
 C2864 C -0.03687 0.99977 0.88375
 C2865 C -0.02445 0.99014 0.87033
 C2866 C -0.00634 0.98090 0.87636
 C2867 C -0.00074 0.98182 0.89704
 C2868 C -0.01322 0.99192 0.91115
 C2869 C -0.03163 1.00090 0.90426
 H2870 H -0.01515 0.97720 0.83015
 H2871 H -0.03903 0.98365 0.80203
 H2872 H -0.07866 1.01568 0.84365
 H2873 H 0.00319 0.97335 0.86554
 H2874 H 0.01342 0.97491 0.90194
 H2875 H -0.04159 1.00871 0.91451
 C2876 C 0.44301 0.49251 0.35655
 C2877 C 0.46026 0.48110 0.35436
 C2878 C 0.46518 0.47191 0.33617
 C2879 C 0.45173 0.47456 0.31959
 C2880 C 0.43375 0.48621 0.32147
 C2881 C 0.42946 0.49535 0.34030
 O2882 O 0.44099 0.49976 0.37514
 C2883 C 0.45731 0.49274 0.38493
 C2884 C 0.46961 0.48123 0.37292
 C2885 C 0.48735 0.47220 0.38024
 C2886 C 0.49259 0.47511 0.40077
 C2887 C 0.48013 0.48690 0.41354
 C2888 C 0.46224 0.49587 0.40533
 H2889 H 0.47879 0.46289 0.33482
 H2890 H 0.45514 0.46720 0.30542
 H2891 H 0.41602 0.50449 0.34226
 H2892 H 0.49676 0.46315 0.37052
 H2893 H 0.50633 0.46809 0.40668
 H2894 H 0.45228 0.50487 0.41455
 C2895 C 0.55882 0.01599 0.35496
 C2896 C 0.54145 0.02712 0.35191
 C2897 C 0.53596 0.03520 0.33308
 C2898 C 0.54890 0.03169 0.31670
 C2899 C 0.56723 0.02026 0.31927
 C2900 C 0.57198 0.01241 0.33901
 O2901 O 0.56112 0.00931 0.37394
 C2902 C 0.54478 0.01634 0.38306
 C2903 C 0.53227 0.02739 0.37028
 C2904 C 0.51420 0.03594 0.37668
 C2905 C 0.50873 0.03278 0.39704
 C2906 C 0.52127 0.02115 0.41049
 C2907 C 0.53966 0.01298 0.40330
 H2908 H 0.52202 0.04366 0.33097
 H2909 H 0.54392 0.03732 0.30198
 H2910 H 0.58583 0.00422 0.34239
 H2911 H 0.50457 0.04457 0.36633
 H2912 H 0.49459 0.03916 0.40219
 H2913 H 0.54962 0.00403 0.41306
 C2914 C 0.06703 0.51047 0.87113
 C2915 C 0.04898 0.52055 0.86810
 C2916 C 0.04240 0.52749 0.84914
 C2917 C 0.05505 0.52411 0.83256
 C2918 C 0.07400 0.51409 0.83517
 C2919 C 0.07993 0.50699 0.85481
 O2920 O 0.07030 0.50514 0.89046
 C2921 C 0.05396 0.51206 0.89979
 C2922 C 0.04053 0.52165 0.88674
 C2923 C 0.02253 0.53023 0.89314
 C2924 C 0.01805 0.52877 0.91386
 C2925 C 0.03146 0.51875 0.92780
 C2926 C 0.04976 0.51031 0.92055
 H2927 H 0.02804 0.53525 0.84716
 H2928 H 0.04999 0.52926 0.81765
 H2929 H 0.09432 0.49942 0.85739
 H2930 H 0.01226 0.53776 0.88254
 H2931 H 0.00395 0.53530 0.91893
 H2932 H 0.06035 0.50259 0.93069
 C2933 C 0.06295 0.49643 0.64843
 C2934 C 0.04748 0.48255 0.65090
 C2935 C 0.04322 0.47344 0.66954
 C2936 C 0.05544 0.47881 0.68631
 C2937 C 0.07157 0.49305 0.68417
 C2938 C 0.07533 0.50193 0.66486
 O2939 O 0.06420 0.50363 0.62956
 C2940 C 0.04921 0.49407 0.61989
 C2941 C 0.03854 0.48096 0.63223
 C2942 C 0.02203 0.46966 0.62526
 C2943 C 0.01612 0.47215 0.60478
 C2944 C 0.02670 0.48582 0.59175
 C2945 C 0.04365 0.49676 0.59951
 H2946 H 0.03093 0.46258 0.67114
 H2947 H 0.05253 0.47164 0.70088
 H2948 H 0.08736 0.51299 0.66274
 H2949 H 0.01383 0.45946 0.63527
 H2950 H 0.00313 0.46364 0.59922
 H2951 H 0.05203 0.50741 0.59014
 C2952 C 0.56404 1.00148 0.13632
 C2953 C 0.54372 0.99765 0.13930
 C2954 C 0.53528 0.99604 0.15850
 C2955 C 0.54835 0.99829 0.17535
 C2956 C 0.56950 1.00186 0.17276
 C2957 C 0.57734 1.00361 0.15284
 O2958 O 0.56897 1.00245 0.11682
 C2959 C 0.55137 0.99912 0.10730
 C2960 C 0.53548 0.99600 0.12037
 C2961 C 0.51580 0.99182 0.11367
 C2962 C 0.51234 0.99088 0.09261
 C2963 C 0.52843 0.99429 0.07875
 C2964 C 0.54825 0.99849 0.08630
 H2965 H 0.51920 0.99316 0.16046
 H2966 H 0.54193 0.99733 0.19040
 H2967 H 0.59338 1.00607 0.15022
 H2968 H 0.50356 0.98931 0.12426
 H2969 H 0.49707 0.98774 0.08714
 H2970 H 0.56088 1.00102 0.07617
 C2971 C 0.43427 0.50540 0.13854
 C2972 C 0.44459 0.52360 0.13828
 C2973 C 0.44387 0.53722 0.15422
 C2974 C 0.43201 0.53188 0.17107
 C2975 C 0.42132 0.51313 0.17176
 C2976 C 0.42259 0.49968 0.15524
 O2977 O 0.43670 0.49480 0.12175
 C2978 C 0.44885 0.50652 0.11067
 C2979 C 0.45421 0.52428 0.12011
 C2980 C 0.46698 0.53865 0.11124
 C2981 C 0.47454 0.53452 0.09185
 C2982 C 0.46909 0.51637 0.08170
 C2983 C 0.45599 0.50222 0.09134
 H2984 H 0.45208 0.55147 0.15367
 H2985 H 0.43130 0.54223 0.18368
 H2986 H 0.41445 0.48537 0.15525
 H2987 H 0.47102 0.55251 0.11898
 H2988 H 0.48446 0.54556 0.08468
 H2989 H 0.45161 0.48817 0.08412
 C2990 C -0.07089 -0.00718 0.63892
 C2991 C -0.05067 -0.01111 0.64252
 C2992 C -0.04307 -0.01647 0.66160
 C2993 C -0.05680 -0.01764 0.67772
 C2994 C -0.07780 -0.01297 0.67476
 C2995 C -0.08478 -0.00772 0.65479
 O2996 O -0.07509 -0.00301 0.61951
 C2997 C -0.05707 -0.00414 0.61074
 C2998 C -0.04158 -0.00881 0.62421
 C2999 C -0.02139 -0.01025 0.61839
 C3000 C -0.01702 -0.00691 0.59778
 C3001 C -0.03280 -0.00268 0.58348
 C3002 C -0.05313 -0.00126 0.59009
 H3003 H -0.02707 -0.01959 0.66404
 H3004 H -0.05066 -0.02117 0.69267
 H3005 H -0.10063 -0.00471 0.65142
 H3006 H -0.00944 -0.01381 0.62931
 H3007 H -0.00142 -0.00814 0.59286
 H3008 H -0.06544 0.00207 0.57949
 C3009 C -0.12582 0.94047 0.99405
 C3010 C -0.13013 0.96017 0.98844
 C3011 C -0.14988 0.96755 0.98703
 C3012 C -0.16582 0.95404 0.99149
 C3013 C -0.16175 0.93358 0.99694
 C3014 C -0.14145 0.92671 0.99818
 O3015 O -0.10604 0.93671 0.99527
 C3016 C -0.09767 0.95439 0.99025
 C3017 C -0.11173 0.96921 0.98575
 C3018 C -0.10622 0.98888 0.98022
 C3019 C -0.08538 0.99354 0.97960
 C3020 C -0.07058 0.97868 0.98476
 C3021 C -0.07692 0.95875 0.98996
 H3022 H -0.15289 0.98316 0.98279
 H3023 H -0.18134 0.95939 0.99042
 H3024 H -0.13795 0.91120 1.00250
 H3025 H -0.11756 1.00029 0.97675
 H3026 H -0.08082 1.00889 0.97573
 H3027 H -0.06604 0.94705 0.99399
 C3028 C 0.36065 0.43840 0.48748
 C3029 C 0.35880 0.45535 0.47522
 C3030 C 0.34035 0.46145 0.46667
 C3031 C 0.32311 0.44959 0.47094
 C3032 C 0.32457 0.43198 0.48352
 C3033 C 0.34372 0.42631 0.49182
 O3034 O 0.37946 0.43553 0.49444
 C3035 C 0.38970 0.45100 0.48638
 C3036 C 0.37778 0.46354 0.47445
 C3037 C 0.38537 0.48079 0.46479
 C3038 C 0.40607 0.48542 0.46769
 C3039 C 0.41871 0.47287 0.48016
 C3040 C 0.41029 0.45529 0.48949
 H3041 H 0.33925 0.47488 0.45711
 H3042 H 0.30865 0.45400 0.46423
 H3043 H 0.34534 0.41310 0.50164
 H3044 H 0.37568 0.49046 0.45550
 H3045 H 0.41211 0.49893 0.46043
 H3046 H 0.41936 0.44538 0.49916
 C3047 C 0.36034 0.55931 -0.00577
 C3048 C 0.35743 0.54453 0.00885
 C3049 C 0.33879 0.54122 0.01804
 C3050 C 0.32259 0.55384 0.01213
 C3051 C 0.32522 0.56938 -0.00282
 C3052 C 0.34443 0.57192 -0.01200
 O3053 O 0.37931 0.56025 -0.01232
 C3054 C 0.38857 0.54578 -0.00158
 C3055 C 0.37590 0.53569 0.01161
 C3056 C 0.38261 0.52011 0.02444
 C3057 C 0.40320 0.51463 0.02351
 C3058 C 0.41659 0.52478 0.00994
 C3059 C 0.40902 0.54066 -0.00270
 H3060 H 0.33689 0.52961 0.02964
 H3061 H 0.30820 0.55189 0.01972
 H3062 H 0.34704 0.58350 -0.02349
 H3063 H 0.37237 0.51243 0.03476
 H3064 H 0.40864 0.50246 0.03331
 H3065 H 0.41869 0.54877 -0.01327
 C3066 C -0.14848 0.06244 0.50289
 C3067 C -0.15261 0.04457 0.51306
 C3068 C -0.17218 0.03905 0.51877
 C3069 C -0.18802 0.05254 0.51387
 C3070 C -0.18405 0.07112 0.50342
 C3071 C -0.16392 0.07601 0.49787
 O3072 O -0.12901 0.06481 0.49855
 C3073 C -0.12064 0.04809 0.50614
 C3074 C -0.13432 0.03515 0.51522
 C3075 C -0.12859 0.01662 0.52384
 C3076 C -0.10796 0.01116 0.52283
 C3077 C -0.09364 0.02423 0.51328
 C3078 C -0.10023 0.04305 0.50503
 H3079 H -0.17513 0.02492 0.52676
 H3080 H -0.20330 0.04867 0.51851
 H3081 H -0.16036 0.08990 0.48969
 H3082 H -0.13961 0.00662 0.53088
 H3083 H -0.10325 -0.00332 0.52918
 H3084 H -0.08987 0.05346 0.49756
 C3085 C 0.63335 0.06939 0.48170
 C3086 C 0.63552 0.05328 0.46885
 C3087 C 0.65365 0.04917 0.45912
 C3088 C 0.67022 0.06215 0.46284
 C3089 C 0.66840 0.07891 0.47606
 C3090 C 0.64956 0.08254 0.48553
 O3091 O 0.61499 0.07041 0.48973
 C3092 C 0.60537 0.05459 0.48180
 C3093 C 0.61723 0.04363 0.46890
 C3094 C 0.61023 0.02633 0.45914
 C3095 C 0.59020 0.02002 0.46291
 C3096 C 0.57764 0.03098 0.47632
 C3097 C 0.58545 0.04861 0.48579
 H3098 H 0.65505 0.03629 0.44920
 H3099 H 0.68457 0.05885 0.45575
 H3100 H 0.64752 0.09523 0.49557
 H3101 H 0.61986 0.01792 0.44906
 H3102 H 0.58457 0.00653 0.45546
 H3103 H 0.57639 0.05738 0.49610
 C3104 C 0.14401 0.57344 1.00266
 C3105 C 0.14815 0.55310 1.00430
 C3106 C 0.16756 0.54571 1.00810
 C3107 C 0.18344 0.55984 1.00995
 C3108 C 0.17987 0.58106 1.00744
 C3109 C 0.15961 0.58777 1.00385
 O3110 O 0.12435 0.57734 1.00012
 C3111 C 0.11595 0.55901 0.99995
 C3112 C 0.12990 0.54365 1.00215
 C3113 C 0.12445 0.52326 1.00228
 C3114 C 0.10370 0.51853 1.00050
 C3115 C 0.08895 0.53412 0.99912
 C3116 C 0.09521 0.55466 0.99861
 H3117 H 0.17039 0.52961 1.00956
 H3118 H 0.19865 0.55399 1.01218
 H3119 H 0.15586 0.60369 1.00259
 H3120 H 0.13573 0.51145 1.00397
 H3121 H 0.09906 0.50276 1.00115
 H3122 H 0.08426 0.56686 0.99766
 C3123 C 0.13651 0.44171 0.50811
 C3124 C 0.14068 0.46145 0.51332
 C3125 C 0.16033 0.46936 0.51388
 C3126 C 0.17633 0.45633 0.50904
 C3127 C 0.17240 0.43581 0.50410
 C3128 C 0.15220 0.42842 0.50364
 O3129 O 0.11678 0.43742 0.50769
 C3130 C 0.10830 0.45480 0.51285
 C3131 C 0.12225 0.46993 0.51666
 C3132 C 0.11664 0.48935 0.52224
 C3133 C 0.09578 0.49346 0.52357
 C3134 C 0.08105 0.47830 0.51903
 C3135 C 0.08750 0.45861 0.51382
 H3136 H 0.16322 0.48501 0.51781
 H3137 H 0.19179 0.46204 0.50951
 H3138 H 0.14884 0.41283 0.49977
 H3139 H 0.12790 0.50101 0.52518
 H3140 H 0.09113 0.50865 0.52740
 H3141 H 0.07667 0.44673 0.51023
 C3142 C 0.64976 0.93506 0.00626
 C3143 C 0.65152 0.95196 0.01820
 C3144 C 0.66998 0.95856 0.02628
 C3145 C 0.68734 0.94720 0.02201
 C3146 C 0.68596 0.92956 0.00988
 C3147 C 0.66681 0.92346 0.00190
 O3148 O 0.63087 0.93169 -0.00029
 C3149 C 0.62050 0.94679 0.00773
 C3150 C 0.63243 0.95954 0.01923
 C3151 C 0.62481 0.97651 0.02876
 C3152 C 0.60407 0.98071 0.02606
 C3153 C 0.59139 0.96805 0.01392
 C3154 C 0.59980 0.95065 0.00486
 H3155 H 0.67098 0.97196 0.03559
 H3156 H 0.70179 0.95190 0.02850
 H3157 H 0.66527 0.91018 -0.00752
 H3158 H 0.63453 0.98633 0.03772
 H3159 H 0.59803 0.99409 0.03316
 H3160 H 0.59070 0.94073 -0.00462
 C3161 C 0.00896 0.86439 0.93365
 C3162 C -0.00329 0.86173 0.95022
 C3163 C -0.01176 0.84314 0.95543
 C3164 C -0.00740 0.82654 0.94313
 C3165 C 0.00539 0.82855 0.92576
 C3166 C 0.01347 0.84812 0.92108
 O3167 O 0.01573 0.88330 0.93156
 C3168 C 0.00749 0.89275 0.94715
 C3169 C -0.00432 0.88023 0.95900
 C3170 C -0.01424 0.88694 0.97619
 C3171 C -0.01183 0.90739 0.98144
 C3172 C 0.00041 0.92069 0.96955
 C3173 C 0.01013 0.91313 0.95207
 H3174 H -0.02152 0.84146 0.96847
 H3175 H -0.01481 0.81237 0.94695
 H3176 H 0.02368 0.85071 0.90855
 H3177 H -0.02344 0.87676 0.98531
 H3178 H -0.01939 0.91276 0.99485
 H3179 H 0.01961 0.92274 0.94264
 C3180 C 0.50942 0.35922 0.43806
 C3181 C 0.49331 0.35625 0.45091
 C3182 C 0.48338 0.33772 0.45288
 C3183 C 0.49017 0.32168 0.44095
 C3184 C 0.50672 0.32436 0.42743
 C3185 C 0.51654 0.34347 0.42619
 O3186 O 0.51651 0.37806 0.43814
 C3187 C 0.50459 0.38719 0.45128
 C3188 C 0.49015 0.37455 0.45956
 C3189 C 0.47602 0.38112 0.47357
 C3190 C 0.47693 0.40154 0.47937
 C3191 C 0.49175 0.41489 0.47105
 C3192 C 0.50571 0.40747 0.45672
 H3193 H 0.47061 0.33577 0.46295
 H3194 H 0.48207 0.30738 0.44182
 H3195 H 0.52922 0.34610 0.41615
 H3196 H 0.46474 0.37090 0.47984
 H3197 H 0.46612 0.40689 0.49033
 H3198 H 0.51728 0.41711 0.45007
 C3199 C 0.00265 0.36108 0.56766
 C3200 C 0.01479 0.35936 0.55096
 C3201 C 0.02237 0.34093 0.54465
 C3202 C 0.01731 0.32354 0.55603
 C3203 C 0.00481 0.32466 0.57360
 C3204 C -0.00251 0.34404 0.57932
 O3205 O -0.00346 0.37994 0.57074
 C3206 C 0.00510 0.39034 0.55567
 C3207 C 0.01650 0.37846 0.54317
 C3208 C 0.02652 0.38618 0.52626
 C3209 C 0.02451 0.40697 0.52190
 C3210 C 0.01254 0.41958 0.53435
 C3211 C 0.00289 0.41103 0.55164
 H3212 H 0.03196 0.33996 0.53145
 H3213 H 0.02401 0.30943 0.55140
 H3214 H -0.01261 0.34597 0.59198
 H3215 H 0.03537 0.37651 0.51662
 H3216 H 0.03200 0.41311 0.50860
 H3217 H -0.00644 0.42007 0.56144
 C3218 C 0.49555 0.85997 0.06587
 C3219 C 0.51296 0.85750 0.05484
 C3220 C 0.52291 0.83907 0.05342
 C3221 C 0.51463 0.82241 0.06385
 C3222 C 0.49672 0.82441 0.07547
 C3223 C 0.48712 0.84356 0.07659
 O3224 O 0.48824 0.87872 0.06459
 C3225 C 0.50136 0.88824 0.05250
 C3226 C 0.51677 0.87587 0.04624
 C3227 C 0.53197 0.88238 0.03326
 C3228 C 0.53116 0.90242 0.02611
 C3229 C 0.51524 0.91560 0.03190
 C3230 C 0.50024 0.90840 0.04558
 H3231 H 0.53655 0.83755 0.04454
 H3232 H 0.52233 0.80797 0.06309
 H3233 H 0.47339 0.84551 0.08526
 H3234 H 0.54392 0.87229 0.02856
 H3235 H 0.54287 0.90754 0.01581
 H3236 H 0.48780 0.91792 0.05018
 C3237 C 0.48126 0.63759 0.06166
 C3238 C 0.47319 0.64059 0.04249
 C3239 C 0.46614 0.65932 0.03564
 C3240 C 0.46745 0.67563 0.04912
 C3241 C 0.47553 0.67298 0.06914
 C3242 C 0.48253 0.65354 0.07539
 O3243 O 0.48744 0.61870 0.06503
 C3244 C 0.48317 0.60958 0.04760
 C3245 C 0.47435 0.62227 0.03333
 C3246 C 0.46867 0.61584 0.01401
 C3247 C 0.47234 0.59552 0.00916
 C3248 C 0.48170 0.58212 0.02351
 C3249 C 0.48709 0.58937 0.04307
 H3250 H 0.46005 0.66137 0.02040
 H3251 H 0.46243 0.69038 0.04378
 H3252 H 0.48861 0.65079 0.09053
 H3253 H 0.46174 0.62611 0.00303
 H3254 H 0.46814 0.59034 -0.00589
 H3255 H 0.49417 0.57961 0.05444
 C3256 C -0.01947 0.13978 0.56034
 C3257 C -0.02526 0.12647 0.57548
 C3258 C -0.02641 0.13188 0.59579
 C3259 C -0.02142 0.15188 0.60074
 C3260 C -0.01557 0.16598 0.58546
 C3261 C -0.01475 0.15994 0.56491
 O3262 O -0.01794 0.13102 0.54230
 C3263 C -0.02286 0.11179 0.54620
 C3264 C -0.02758 0.10834 0.56629
 C3265 C -0.03189 0.08923 0.57420
 C3266 C -0.03077 0.07284 0.56100
 C3267 C -0.02545 0.07578 0.54034
 C3268 C -0.02191 0.09560 0.53264
 H3269 H -0.03065 0.12099 0.60744
 H3270 H -0.02211 0.15647 0.61647
 H3271 H -0.01006 0.17044 0.55307
 H3272 H -0.03527 0.08692 0.59012
 H3273 H -0.03334 0.05768 0.56702
 H3274 H -0.01725 0.09812 0.51708
 C3275 C 0.50943 0.14294 0.42853
 C3276 C 0.52149 0.14465 0.44566
 C3277 C 0.53205 0.16226 0.45047
 C3278 C 0.53019 0.17881 0.43701
 C3279 C 0.51797 0.17747 0.41910
 C3280 C 0.50734 0.15923 0.41491
 O3281 O 0.50078 0.12479 0.42681
 C3282 C 0.50753 0.11487 0.44324
 C3283 C 0.52025 0.12637 0.45524
 C3284 C 0.52915 0.11903 0.47309
 C3285 C 0.52476 0.09897 0.47886
 C3286 C 0.51163 0.08667 0.46681
 C3287 C 0.50291 0.09487 0.44869
 H3288 H 0.54137 0.16325 0.46411
 H3289 H 0.53812 0.19274 0.44068
 H3290 H 0.49801 0.15766 0.40134
 H3291 H 0.53914 0.12839 0.48225
 H3292 H 0.53162 0.09310 0.49276
 H3293 H 0.49290 0.08597 0.43908
 C3294 C 0.01847 0.64564 0.93965
 C3295 C 0.03316 0.64675 0.95459
 C3296 C 0.04524 0.66376 0.95746
 C3297 C 0.04218 0.68038 0.94433
 C3298 C 0.02720 0.67990 0.92837
 C3299 C 0.01510 0.66200 0.92634
 O3300 O 0.00860 0.62798 0.93966
 C3301 C 0.01729 0.61780 0.95501
 C3302 C 0.03241 0.62868 0.96459
 C3303 C 0.04350 0.62113 0.98107
 C3304 C 0.03876 0.60157 0.98810
 C3305 C 0.02312 0.58989 0.97867
 C3306 C 0.01231 0.59819 0.96173
 H3307 H 0.05652 0.66433 0.96956
 H3308 H 0.05113 0.69380 0.94740
 H3309 H 0.00385 0.66031 0.91436
 H3310 H 0.05536 0.63001 0.98832
 H3311 H 0.04736 0.59559 1.00097
 H3312 H 0.00028 0.58979 0.95417
 C3313 C 0.24994 0.69102 0.88166
 C3314 C 0.25363 0.67555 0.86845
 C3315 C 0.25784 0.65588 0.87466
 C3316 C 0.25779 0.65169 0.89547
 C3317 C 0.25300 0.66691 0.90974
 C3318 C 0.24942 0.68708 0.90270
 O3319 O 0.24729 0.70883 0.87216
 C3320 C 0.24930 0.70430 0.85257
 C3321 C 0.25299 0.68404 0.84972
 C3322 C 0.25577 0.67557 0.83084
 C3323 C 0.25536 0.68859 0.81404
 C3324 C 0.25252 0.70980 0.81624
 C3325 C 0.24889 0.71779 0.83581
 H3326 H 0.26126 0.64418 0.86385
 H3327 H 0.26152 0.63643 0.90041
 H3328 H 0.24597 0.69911 0.91313
 H3329 H 0.25847 0.65952 0.82912
 H3330 H 0.25773 0.68210 0.79922
 H3331 H 0.24676 0.73388 0.83796
 C3332 C 0.74947 0.19654 0.38609
 C3333 C 0.74029 0.21513 0.38756
 C3334 C 0.73311 0.22255 0.40579
 C3335 C 0.73531 0.21021 0.42322
 C3336 C 0.74446 0.19080 0.42212
 C3337 C 0.75175 0.18400 0.40319
 O3338 O 0.75520 0.19233 0.36733
 C3339 C 0.74949 0.20862 0.35671
 C3340 C 0.74023 0.22297 0.36837
 C3341 C 0.73284 0.24109 0.36033
 C3342 C 0.73518 0.24464 0.33943
 C3343 C 0.74490 0.23020 0.32698
 C3344 C 0.75211 0.21187 0.33587
 H3345 H 0.72603 0.23729 0.40658
 H3346 H 0.72992 0.21583 0.43756
 H3347 H 0.75852 0.16919 0.40167
 H3348 H 0.72554 0.25212 0.36982
 H3349 H 0.72962 0.25879 0.33304
 H3350 H 0.75953 0.20049 0.32690
 C3351 C 0.24111 0.31852 0.38149
 C3352 C 0.23637 0.29880 0.38653
 C3353 C 0.23168 0.29255 0.40617
 C3354 C 0.23194 0.30724 0.42135
 C3355 C 0.23698 0.32773 0.41677
 C3356 C 0.24160 0.33344 0.39645
 O3357 O 0.24553 0.32102 0.36192
 C3358 C 0.24364 0.30241 0.35453
 C3359 C 0.23816 0.28831 0.36908
 C3360 C 0.23625 0.26778 0.36515
 C3361 C 0.24031 0.26140 0.34543
 C3362 C 0.24589 0.27552 0.33001
 C3363 C 0.24734 0.29642 0.33452
 H3364 H 0.22819 0.27687 0.40973
 H3365 H 0.22876 0.30252 0.43682
 H3366 H 0.24556 0.34892 0.39247
 H3367 H 0.23213 0.25699 0.37695
 H3368 H 0.23909 0.24539 0.34211
 H3369 H 0.25187 0.30743 0.32309
 C3370 C 0.75780 0.80507 0.90550
 C3371 C 0.76792 0.78719 0.90925
 C3372 C 0.77642 0.78235 0.92815
 C3373 C 0.77447 0.79656 0.94374
 C3374 C 0.76414 0.81519 0.94023
 C3375 C 0.75562 0.81934 0.92075
 O3376 O 0.75111 0.80697 0.88648
 C3377 C 0.75716 0.78993 0.87800
 C3378 C 0.76751 0.77727 0.89122
 C3379 C 0.77540 0.75875 0.88527
 C3380 C 0.77256 0.75313 0.86486
 C3381 C 0.76198 0.76603 0.85090
 C3382 C 0.75416 0.78468 0.85776
 H3383 H 0.78445 0.76826 0.93074
 H3384 H 0.78139 0.79321 0.95842
 H3385 H 0.74748 0.83326 0.91752
 H3386 H 0.78357 0.74904 0.89592
 H3387 H 0.77871 0.73884 0.85996
 H3388 H 0.74610 0.79501 0.84763
 C3389 C 0.74717 0.82202 0.12181
 C3390 C 0.74048 0.80307 0.11624
 C3391 C 0.74055 0.79640 0.09629
 C3392 C 0.74758 0.80993 0.08135
 C3393 C 0.75403 0.82975 0.08656
 C3394 C 0.75385 0.83591 0.10709
 O3395 O 0.74638 0.82499 0.14174
 C3396 C 0.73891 0.80756 0.14884
 C3397 C 0.73485 0.79380 0.13378
 C3398 C 0.72679 0.77468 0.13761
 C3399 C 0.72310 0.76932 0.15788
 C3400 C 0.72777 0.78290 0.17393
 C3401 C 0.73564 0.80243 0.16925
 H3402 H 0.73535 0.78134 0.09235
 H3403 H 0.74749 0.80522 0.06563
 H3404 H 0.75868 0.85099 0.11138
 H3405 H 0.72367 0.76417 0.12545
 H3406 H 0.71726 0.75426 0.16106
 H3407 H 0.73943 0.81311 0.18109
 C3408 C 0.24344 0.31708 0.60330
 C3409 C 0.22906 0.30199 0.60149
 C3410 C 0.21938 0.29761 0.58314
 C3411 C 0.22461 0.30937 0.56602
 C3412 C 0.23936 0.32514 0.56746
 C3413 C 0.24893 0.32891 0.58648
 O3414 O 0.25089 0.31876 0.62206
 C3415 C 0.24099 0.30443 0.63231
 C3416 C 0.22744 0.29372 0.62046
 C3417 C 0.21564 0.27791 0.62817
 C3418 C 0.21807 0.27280 0.64887
 C3419 C 0.23210 0.28350 0.66143
 C3420 C 0.24357 0.29969 0.65290
 H3421 H 0.20806 0.28569 0.58207
 H3422 H 0.21679 0.30646 0.55176
 H3423 H 0.26035 0.34066 0.58817
 H3424 H 0.20508 0.26968 0.61855
 H3425 H 0.20915 0.26038 0.65502
 H3426 H 0.25451 0.30815 0.66189
 C3427 C 0.74965 0.17963 0.61111
 C3428 C 0.74162 0.16504 0.62378
 C3429 C 0.73389 0.14673 0.61695
 C3430 C 0.73474 0.14303 0.59613
 C3431 C 0.74355 0.15739 0.58252
 C3432 C 0.75089 0.17616 0.59018
 O3433 O 0.75553 0.19624 0.62097
 C3434 C 0.75109 0.19189 0.64026
 C3435 C 0.74269 0.17289 0.64261
 C3436 C 0.73675 0.16496 0.66119
 C3437 C 0.73913 0.17724 0.67815
 C3438 C 0.74713 0.19727 0.67639
 C3439 C 0.75358 0.20459 0.65712
 H3440 H 0.72729 0.13571 0.62729
 H3441 H 0.72838 0.12894 0.59063
 H3442 H 0.75765 0.18748 0.58028
 H3443 H 0.73032 0.14988 0.66256
 H3444 H 0.73441 0.17109 0.69270
 H3445 H 0.75970 0.21975 0.65522
 C3446 C 0.26261 0.68304 0.11090
 C3447 C 0.26589 0.66605 0.12281
 C3448 C 0.27017 0.64721 0.11481
 C3449 C 0.27110 0.64578 0.09364
 C3450 C 0.26766 0.66301 0.08089
 C3451 C 0.26329 0.68194 0.08970
 O3452 O 0.25832 0.69934 0.12168
 C3453 C 0.25882 0.69240 0.14074
 C3454 C 0.26329 0.67209 0.14220
 C3455 C 0.26366 0.66143 0.16056
 C3456 C 0.25904 0.67211 0.17818
 C3457 C 0.25447 0.69309 0.17714
 C3458 C 0.25460 0.70343 0.15815
 H3459 H 0.27249 0.63403 0.12452
 H3460 H 0.27401 0.63109 0.08715
 H3461 H 0.26045 0.69529 0.08036
 H3462 H 0.26700 0.64539 0.16125
 H3463 H 0.25899 0.66406 0.19264
 H3464 H 0.25080 0.71936 0.15689
 C3465 C 0.19532 0.61298 0.75282
 C3466 C 0.21423 0.60942 0.76126
 C3467 C 0.21987 0.59068 0.76932
 C3468 C 0.20541 0.57498 0.76869
 C3469 C 0.18572 0.57826 0.76015
 C3470 C 0.18071 0.59761 0.75205
 O3471 O 0.19300 0.63186 0.74604
 C3472 C 0.21084 0.64040 0.75029
 C3473 C 0.22436 0.62735 0.75962
 C3474 C 0.24387 0.63322 0.76550
 C3475 C 0.24969 0.65338 0.76158
 C3476 C 0.23602 0.66720 0.75191
 C3477 C 0.21629 0.66047 0.74621
 H3478 H 0.23487 0.58821 0.77581
 H3479 H 0.20966 0.56020 0.77465
 H3480 H 0.16580 0.60073 0.74563
 H3481 H 0.25423 0.62268 0.77288
 H3482 H 0.26483 0.65818 0.76610
 H3483 H 0.20539 0.67053 0.73892
 C3484 C 0.69407 0.11304 0.24924
 C3485 C 0.71184 0.10965 0.25987
 C3486 C 0.71745 0.09059 0.26702
 C3487 C 0.70412 0.07435 0.26322
 C3488 C 0.68531 0.07730 0.25248
 C3489 C 0.68051 0.09721 0.24537
 O3490 O 0.69171 0.13225 0.24348
 C3491 C 0.70835 0.14119 0.25074
 C3492 C 0.72114 0.12805 0.26097
 C3493 C 0.73941 0.13425 0.26981
 C3494 C 0.74478 0.15480 0.26788
 C3495 C 0.73198 0.16866 0.25713
 C3496 C 0.71341 0.16164 0.24854
 H3497 H 0.73153 0.08830 0.27542
 H3498 H 0.70826 0.05975 0.26961
 H3499 H 0.66696 0.10047 0.23647
 H3500 H 0.74923 0.12363 0.27781
 H3501 H 0.75908 0.15979 0.27450
 H3502 H 0.70324 0.17171 0.24026
 C3503 C 0.80598 0.10175 0.75064
 C3504 C 0.78731 0.09844 0.74160
 C3505 C 0.78123 0.07955 0.73453
 C3506 C 0.79495 0.06342 0.73687
 C3507 C 0.81436 0.06639 0.74615
 C3508 C 0.81985 0.08594 0.75312
 O3509 O 0.80881 0.12082 0.75626
 C3510 C 0.79156 0.12976 0.75062
 C3511 C 0.77790 0.11675 0.74157
 C3512 C 0.75893 0.12300 0.73442
 C3513 C 0.75384 0.14350 0.73668
 C3514 C 0.76767 0.15731 0.74598
 C3515 C 0.78683 0.15018 0.75304
 H3516 H 0.76649 0.07733 0.72738
 H3517 H 0.79057 0.04869 0.73116
 H3518 H 0.83441 0.08875 0.76044
 H3519 H 0.74843 0.11249 0.72731
 H3520 H 0.73914 0.14856 0.73109
 H3521 H 0.79783 0.16021 0.76013
 C3522 C 0.30932 0.60186 0.26101
 C3523 C 0.29079 0.59846 0.26986
 C3524 C 0.28484 0.57963 0.27743
 C3525 C 0.29844 0.56350 0.27558
 C3526 C 0.31749 0.56630 0.26596
 C3527 C 0.32305 0.58594 0.25882
 O3528 O 0.31175 0.62088 0.25447
 C3529 C 0.29429 0.62961 0.25922
 C3530 C 0.28094 0.61644 0.26854
 C3531 C 0.26137 0.62189 0.27384
 C3532 C 0.25524 0.64174 0.26931
 C3533 C 0.26872 0.65574 0.25996
 C3534 C 0.28865 0.64971 0.25500
 H3535 H 0.27017 0.57740 0.28441
 H3536 H 0.29403 0.54880 0.28159
 H3537 H 0.33729 0.58864 0.25114
 H3538 H 0.25107 0.61115 0.28090
 H3539 H 0.23997 0.64629 0.27312
 H3540 H 0.29907 0.66008 0.24758
 C3541 C 0.31513 0.37981 0.24961
 C3542 C 0.29453 0.38327 0.24991
 C3543 C 0.28626 0.40259 0.24826
 C3544 C 0.29977 0.41904 0.24639
 C3545 C 0.32112 0.41595 0.24640
 C3546 C 0.32886 0.39597 0.24802
 O3547 O 0.31981 0.36027 0.25101
 C3548 C 0.30177 0.35121 0.25231
 C3549 C 0.28583 0.36462 0.25186
 C3550 C 0.26566 0.35842 0.25322
 C3551 C 0.26173 0.33753 0.25489
 C3552 C 0.27786 0.32327 0.25495
 C3553 C 0.29821 0.33034 0.25374
 H3554 H 0.26999 0.40494 0.24846
 H3555 H 0.29364 0.43423 0.24539
 H3556 H 0.34505 0.39313 0.24797
 H3557 H 0.25336 0.36927 0.25289
 H3558 H 0.24606 0.33248 0.25568
 H3559 H 0.31089 0.31993 0.25379
 C3560 C 0.81908 0.88220 0.77375
 C3561 C 0.80970 0.88197 0.79235
 C3562 C 0.80988 0.89862 0.80513
 C3563 C 0.82022 0.91613 0.79850
 C3564 C 0.82979 0.91676 0.77928
 C3565 C 0.82911 0.89954 0.76672
 O3566 O 0.81727 0.86482 0.76398
 C3567 C 0.80645 0.85339 0.77661
 C3568 C 0.80129 0.86316 0.79414
 C3569 C 0.78936 0.85409 0.80909
 C3570 C 0.78231 0.83424 0.80568
 C3571 C 0.78759 0.82385 0.78775
 C3572 C 0.80001 0.83358 0.77314
 H3573 H 0.80243 0.89811 0.81970
 H3574 H 0.82064 0.92927 0.80821
 H3575 H 0.83645 0.89957 0.75207
 H3576 H 0.78534 0.86212 0.82270
 H3577 H 0.77275 0.82698 0.81694
 H3578 H 0.80397 0.82622 0.75912
 C3579 C 0.67704 0.89067 0.25659
 C3580 C 0.69778 0.89285 0.25841
 C3581 C 0.70733 0.91161 0.26011
 C3582 C 0.69499 0.92889 0.25980
 C3583 C 0.67359 0.92710 0.25751
 C3584 C 0.66449 0.90768 0.25593
 O3585 O 0.67107 0.87146 0.25518
 C3586 C 0.68846 0.86131 0.25599
 C3587 C 0.70523 0.87374 0.25780
 C3588 C 0.72500 0.86645 0.25816
 C3589 C 0.72762 0.84547 0.25659
 C3590 C 0.71059 0.83224 0.25500
 C3591 C 0.69069 0.84029 0.25484
 H3592 H 0.72370 0.91291 0.26152
 H3593 H 0.70210 0.94369 0.26083
 H3594 H 0.64819 0.90591 0.25420
 H3595 H 0.73795 0.87656 0.25942
 H3596 H 0.74293 0.83950 0.25684
 H3597 H 0.67745 0.83057 0.25344
 C3598 C 0.18538 0.39502 0.74372
 C3599 C 0.19969 0.39788 0.72887
 C3600 C 0.20354 0.41670 0.71997
 C3601 C 0.19217 0.43323 0.72666
 C3602 C 0.17732 0.43069 0.74201
 C3603 C 0.17388 0.41121 0.75056
 O3604 O 0.18441 0.37605 0.75055
 C3605 C 0.19840 0.36674 0.73979
 C3606 C 0.20819 0.37937 0.72628
 C3607 C 0.22373 0.37276 0.71388
 C3608 C 0.22957 0.35234 0.71566
 C3609 C 0.21986 0.33905 0.72970
 C3610 C 0.20387 0.34645 0.74174
 H3611 H 0.21491 0.41860 0.70834
 H3612 H 0.19479 0.44796 0.71971
 H3613 H 0.16285 0.40878 0.76244
 H3614 H 0.23129 0.38300 0.70341
 H3615 H 0.24184 0.34703 0.70631
 H3616 H 0.19618 0.33688 0.75274
 C3617 C 0.12342 0.74695 0.80499
 C3618 C 0.12122 0.73072 0.79221
 C3619 C 0.10301 0.72015 0.79007
 C3620 C 0.08645 0.72648 0.80165
 C3621 C 0.08826 0.74324 0.81498
 C3622 C 0.10714 0.75360 0.81654
 O3623 O 0.14197 0.75495 0.80480
 C3624 C 0.15168 0.74353 0.79161
 C3625 C 0.13969 0.72850 0.78343
 C3626 C 0.14679 0.71508 0.76901
 C3627 C 0.16700 0.71739 0.76261
 C3628 C 0.17968 0.73286 0.77077
 C3629 C 0.17182 0.74597 0.78565
 H3630 H 0.10163 0.70737 0.77998
 H3631 H 0.07237 0.71800 0.80050
 H3632 H 0.10912 0.76654 0.82633
 H3633 H 0.13705 0.70339 0.76273
 H3634 H 0.17269 0.70723 0.75123
 H3635 H 0.18091 0.75810 0.79205
 C3636 C 0.61733 0.25508 0.29717
 C3637 C 0.61546 0.23990 0.28312
 C3638 C 0.59745 0.22923 0.27999
 C3639 C 0.58075 0.23422 0.29201
 C3640 C 0.58226 0.24974 0.30678
 C3641 C 0.60088 0.26045 0.30911
 O3642 O 0.63592 0.26294 0.29822
 C3643 C 0.64603 0.25247 0.28456
 C3644 C 0.63421 0.23822 0.27486
 C3645 C 0.64183 0.22540 0.26021
 C3646 C 0.66248 0.22737 0.25534
 C3647 C 0.67509 0.24192 0.26518
 C3648 C 0.66660 0.25464 0.28004
 H3649 H 0.59640 0.21719 0.26899
 H3650 H 0.56688 0.22549 0.29023
 H3651 H 0.60266 0.27247 0.32004
 H3652 H 0.63226 0.21423 0.25284
 H3653 H 0.66861 0.21745 0.24398
 H3654 H 0.67568 0.26591 0.28787
 C3655 C 0.59021 0.76134 0.18951
 C3656 C 0.58662 0.76099 0.21003
 C3657 C 0.56743 0.75788 0.21802
 C3658 C 0.55118 0.75518 0.20431
 C3659 C 0.55411 0.75626 0.18288
 C3660 C 0.57416 0.75941 0.17554
 O3661 O 0.60983 0.76306 0.18516
 C3662 C 0.61877 0.76389 0.20337
 C3663 C 0.60516 0.76298 0.21906
 C3664 C 0.61111 0.76339 0.23938
 C3665 C 0.63199 0.76437 0.24376
 C3666 C 0.64648 0.76445 0.22792
 C3667 C 0.63969 0.76445 0.20738
 H3668 H 0.56511 0.75702 0.23427
 H3669 H 0.53644 0.75188 0.21063
 H3670 H 0.57738 0.76046 0.15949
 H3671 H 0.60009 0.76264 0.25145
 H3672 H 0.63687 0.76411 0.25955
 H3673 H 0.65035 0.76434 0.19497
 C3674 C 0.10637 0.25906 0.68478
 C3675 C 0.10407 0.26996 0.70222
 C3676 C 0.08530 0.27660 0.70873
 C3677 C 0.06814 0.27187 0.69678
 C3678 C 0.06983 0.26069 0.67840
 C3679 C 0.08956 0.25432 0.67249
 O3680 O 0.12553 0.25371 0.68161
 C3681 C 0.13551 0.26152 0.69740
 C3682 C 0.12307 0.27169 0.71040
 C3683 C 0.13027 0.28091 0.72797
 C3684 C 0.15113 0.27944 0.73244
 C3685 C 0.16438 0.26875 0.71948
 C3686 C 0.15633 0.25978 0.70158
 H3687 H 0.08388 0.28521 0.72254
 H3688 H 0.05373 0.27780 0.70164
 H3689 H 0.09192 0.24523 0.65917
 H3690 H 0.12016 0.28882 0.73798
 H3691 H 0.15685 0.28637 0.74623
 H3692 H 0.16589 0.25148 0.69134
 C3693 C 0.88216 0.23245 0.68417
 C3694 C 0.88526 0.22078 0.70138
 C3695 C 0.90442 0.21448 0.70782
 C3696 C 0.92107 0.22019 0.69590
 C3697 C 0.91839 0.23181 0.67769
 C3698 C 0.89851 0.23815 0.67192
 O3699 O 0.86278 0.23747 0.68125
 C3700 C 0.85349 0.22874 0.69695
 C3701 C 0.86658 0.21824 0.70962
 C3702 C 0.86023 0.20829 0.72719
 C3703 C 0.83961 0.20960 0.73219
 C3704 C 0.82577 0.22087 0.71976
 C3705 C 0.83288 0.23025 0.70162
 H3706 H 0.90652 0.20563 0.72164
 H3707 H 0.93608 0.21565 0.70104
 H3708 H 0.89577 0.24696 0.65818
 H3709 H 0.87085 0.20013 0.73693
 H3710 H 0.83462 0.20231 0.74611
 H3711 H 0.82290 0.23917 0.69187
 C3712 C 0.37090 0.73832 0.18990
 C3713 C 0.37523 0.73053 0.20895
 C3714 C 0.39489 0.72605 0.21548
 C3715 C 0.41071 0.72958 0.20176
 C3716 C 0.40668 0.73738 0.18187
 C3717 C 0.38640 0.74195 0.17599
 O3718 O 0.35119 0.74150 0.18673
 C3719 C 0.34293 0.73558 0.20415
 C3720 C 0.35697 0.72870 0.21824
 C3721 C 0.35159 0.72170 0.23747
 C3722 C 0.33089 0.72192 0.24244
 C3723 C 0.31604 0.72911 0.22824
 C3724 C 0.32229 0.73595 0.20875
 H3725 H 0.39794 0.72004 0.23059
 H3726 H 0.42613 0.72632 0.20669
 H3727 H 0.38273 0.74773 0.16091
 H3728 H 0.36293 0.71632 0.24829
 H3729 H 0.32652 0.71662 0.25741
 H3730 H 0.31147 0.74153 0.19750
 C3731 C 0.39456 0.26448 0.31525
 C3732 C 0.38187 0.26935 0.33090
 C3733 C 0.38880 0.27254 0.35063
 C3734 C 0.40972 0.27076 0.35440
 C3735 C 0.42326 0.26582 0.33856
 C3736 C 0.41548 0.26254 0.31868
 O3737 O 0.38468 0.26136 0.29782
 C3738 C 0.36535 0.26425 0.30263
 C3739 C 0.36286 0.26915 0.32271
 C3740 C 0.34390 0.27167 0.33137
 C3741 C 0.32674 0.26859 0.31893
 C3742 C 0.32885 0.26332 0.29822
 C3743 C 0.34846 0.26154 0.28984
 H3744 H 0.37845 0.27608 0.36273
 H3745 H 0.41533 0.27291 0.36978
 H3746 H 0.42539 0.25869 0.30631
 H3747 H 0.34236 0.27525 0.34729
 H3748 H 0.31179 0.26987 0.32551
 H3749 H 0.35048 0.25701 0.27423
 C3750 C 0.89771 0.75197 0.82000
 C3751 C 0.88977 0.73393 0.82702
 C3752 C 0.90106 0.71975 0.83803
 C3753 C 0.92148 0.72433 0.84209
 C3754 C 0.93016 0.74291 0.83533
 C3755 C 0.91805 0.75701 0.82415
 O3756 O 0.88419 0.76309 0.80959
 C3757 C 0.86736 0.75179 0.81019
 C3758 C 0.87009 0.73391 0.82083
 C3759 C 0.85471 0.71984 0.82380
 C3760 C 0.83562 0.72424 0.81539
 C3761 C 0.83215 0.74241 0.80400
 C3762 C 0.84837 0.75643 0.80133
 H3763 H 0.89437 0.70566 0.84335
 H3764 H 0.93047 0.71358 0.85090
 H3765 H 0.92431 0.77130 0.81883
 H3766 H 0.85730 0.70591 0.83230
 H3767 H 0.82362 0.71316 0.81752
 H3768 H 0.84627 0.77040 0.79277
   
