data_POSCAR
  _audit_creation_date              2014-09-24
  _audit_creation_method            'ToBaCCo'
  _symmetry_space_group_name_H-M    'P1'
  _symmetry_Int_Tables_number       1
  _symmetry_cell_setting            triclinic
  loop_
  _symmetry_equiv_pos_as_xyz
 x,y,z
_cell_length_a 67.6956
_cell_length_b 68.8782
_cell_length_c 67.5519
_cell_angle_alpha 89.989200
_cell_angle_beta 90.041600
_cell_angle_gamma 90.017000
loop_
  _atom_site_label
  _atom_site_type_symbol
  _atom_site_fract_x
  _atom_site_fract_y
  _atom_site_fract_z
C1 C 0.30424 0.44295 0.92124
 C2 C 0.29616 0.42628 0.92999
 C3 C 0.30469 0.41814 0.94697
 C4 C 0.32134 0.42705 0.95542
 C5 C 0.33001 0.44375 0.94690
 C6 C 0.32099 0.45163 0.92981
 H7 H 0.28343 0.41937 0.92330
 H8 H 0.32704 0.42109 0.96908
 H9 H 0.32770 0.46369 0.92209
 C10 C 0.44215 0.83526 0.44339
 C11 C 0.45092 0.82681 0.42647
 C12 C 0.44274 0.81032 0.41736
 C13 C 0.42568 0.80189 0.42540
 C14 C 0.41667 0.80983 0.44223
 C15 C 0.42503 0.82632 0.45115
 H16 H 0.46369 0.83342 0.41963
 H17 H 0.41892 0.78959 0.41803
 H18 H 0.41842 0.83161 0.46468
 C19 C 0.94393 0.91663 0.80521
 C20 C 0.92708 0.92510 0.79682
 C21 C 0.91845 0.94161 0.80527
 C22 C 0.92707 0.94990 0.82218
 C23 C 0.94408 0.94175 0.83106
 C24 C 0.95241 0.92508 0.82213
 H25 H 0.92066 0.91885 0.78358
 H26 H 0.92040 0.96288 0.82818
 H27 H 0.96469 0.91764 0.82903
 C28 C 0.44569 -0.08218 0.30562
 C29 C 0.45358 -0.07382 0.32286
 C30 C 0.44488 -0.05734 0.33142
 C31 C 0.42824 -0.04901 0.32233
 C32 C 0.42017 -0.05713 0.30504
 C33 C 0.42909 -0.07363 0.29672
 H34 H 0.46658 -0.08018 0.32962
 H35 H 0.42099 -0.03676 0.32927
 H36 H 0.42279 -0.08012 0.28356
 C37 C 0.80366 0.30850 0.32996
 C38 C 0.82061 0.29968 0.32208
 C39 C 0.83028 0.30762 0.30557
 C40 C 0.82260 0.32447 0.29673
 C41 C 0.80563 0.33352 0.30437
 C42 C 0.79621 0.32536 0.32093
 H43 H 0.82658 0.28681 0.32910
 H44 H 0.83008 0.33079 0.28411
 H45 H 0.78328 0.33238 0.32708
 C46 C -0.19198 0.83573 0.80674
 C47 C -0.17478 0.82722 0.79857
 C48 C -0.16619 0.81058 0.80700
 C49 C -0.17505 0.80204 0.82358
 C50 C -0.19206 0.81007 0.83206
 C51 C -0.20049 0.82670 0.82352
 H52 H -0.16707 0.83418 0.78649
 H53 H -0.16872 0.78900 0.82990
 H54 H -0.21387 0.83236 0.83005
 C55 C 0.94504 0.33176 0.44536
 C56 C 0.92810 0.32310 0.45384
 C57 C 0.91896 0.30689 0.44513
 C58 C 0.92702 0.29891 0.42784
 C59 C 0.94390 0.30702 0.41911
 C60 C 0.95286 0.32322 0.42802
 H61 H 0.92124 0.32939 0.46678
 H62 H 0.91961 0.28687 0.42065
 H63 H 0.96640 0.32865 0.42160
 C64 C 0.44623 0.44197 0.82986
 C65 C 0.42951 0.45028 0.82089
 C66 C 0.42084 0.44171 0.80413
 C67 C 0.42923 0.42474 0.79621
 C68 C 0.44591 0.41621 0.80500
 C69 C 0.45442 0.42506 0.82167
 H70 H 0.42265 0.46288 0.82757
 H71 H 0.42247 0.41789 0.78347
 H72 H 0.46749 0.41873 0.82832
 C73 C 0.80703 0.91741 0.94445
 C74 C 0.79849 0.92617 0.92757
 C75 C 0.80726 0.94224 0.91831
 C76 C 0.82461 0.95010 0.92626
 C77 C 0.83340 0.94193 0.94312
 C78 C 0.82451 0.92576 0.95216
 H79 H 0.78456 0.92101 0.92176
 H80 H 0.83153 0.96241 0.91908
 H81 H 0.83220 0.91899 0.96438
 C82 C 0.30507 0.83224 0.30414
 C83 C 0.32247 0.82379 0.29639
 C84 C 0.33122 0.80751 0.30536
 C85 C 0.32239 0.79933 0.32218
 C86 C 0.30511 0.80729 0.33017
 C87 C 0.29646 0.82346 0.32097
 H88 H 0.33022 0.83056 0.28422
 H89 H 0.32922 0.78695 0.32931
 H90 H 0.28258 0.82871 0.32679
 C91 C 0.80375 0.41845 0.44505
 C92 C 0.82047 0.42687 0.45389
 C93 C 0.82974 0.44340 0.44561
 C94 C 0.82138 0.45145 0.42825
 C95 C 0.80466 0.44318 0.41926
 C96 C 0.79587 0.42683 0.42788
 H97 H 0.82606 0.42041 0.46735
 H98 H 0.82862 0.46331 0.42067
 H99 H 0.78279 0.42058 0.42118
 C100 C 0.94565 0.83299 -0.05536
 C101 C 0.92902 0.82403 -0.04663
 C102 C 0.92020 0.80752 -0.05503
 C103 C 0.92842 0.79941 -0.07216
 C104 C 0.94509 0.80776 -0.08109
 C105 C 0.95364 0.82439 -0.07258
 H106 H 0.92307 0.82940 -0.03283
 H107 H 0.92158 0.78677 -0.07881
 H108 H 0.96568 0.83128 -0.08041
 C109 C 0.30596 0.33172 0.80538
 C110 C 0.29704 0.32409 0.82247
 C111 C 0.30493 0.30770 0.83199
 C112 C 0.32185 0.29881 0.82410
 C113 C 0.33102 0.30623 0.80706
 C114 C 0.32288 0.32260 0.79771
 H115 H 0.28415 0.33117 0.82863
 H116 H 0.32815 0.28630 0.83149
 H117 H 0.32999 0.32853 0.78469
 C118 C 0.16853 0.55677 0.55579
 C119 C 0.17718 0.54887 0.57289
 C120 C 0.19432 0.55711 0.58110
 C121 C 0.20291 0.57334 0.57188
 C122 C 0.19445 0.58145 0.55478
 C123 C 0.17741 0.57292 0.54674
 H124 H 0.17003 0.53685 0.58035
 H125 H 0.21595 0.57995 0.57829
 H126 H 0.17101 0.57888 0.53335
 C127 C 0.58191 0.69236 0.05525
 C128 C 0.57358 0.67557 0.04689
 C129 C 0.55661 0.66703 0.05510
 C130 C 0.54778 0.67569 0.07171
 C131 C 0.55587 0.69250 0.08029
 C132 C 0.57288 0.70078 0.07188
 H133 H 0.58028 0.66915 0.03389
 H134 H 0.53481 0.66909 0.07825
 H135 H 0.57964 0.71328 0.07886
 C136 C 0.69422 0.19288 0.66925
 C137 C 0.67740 0.20079 0.67828
 C138 C 0.66968 0.19261 0.69565
 C139 C 0.67911 0.17644 0.70412
 C140 C 0.69598 0.16800 0.69531
 C141 C 0.70347 0.17674 0.67793
 H142 H 0.66978 0.21279 0.67128
 H143 H 0.67251 0.16999 0.71711
 H144 H 0.71697 0.17148 0.67128
 C145 C 1.08139 0.05706 0.19437
 C146 C 1.07284 0.04865 0.17747
 C147 C 1.05569 0.05656 0.16863
 C148 C 1.04718 0.07315 0.17756
 C149 C 1.05557 0.08173 0.19445
 C150 C 1.07256 0.07348 0.20282
 H151 H 1.08060 0.03675 0.17051
 H152 H 1.03385 0.07951 0.17158
 H153 H 1.07892 0.07984 0.21603
 C154 C 0.05389 0.16814 1.05402
 C155 C 0.07096 0.17670 1.04614
 C156 C 0.07892 0.19359 1.05458
 C157 C 0.06946 0.20207 1.07095
 C158 C 0.05235 0.19372 1.07937
 C159 C 0.04462 0.17684 1.07037
 H160 H 0.07862 0.16969 1.03401
 H161 H 0.07624 0.21468 1.07760
 H162 H 0.03094 0.17055 1.07559
 C163 C 0.17091 0.69212 0.69550
 C164 C 0.17956 0.70032 0.67854
 C165 C 0.19630 0.69183 0.66978
 C166 C 0.20449 0.67505 0.67834
 C167 C 0.19602 0.66663 0.69527
 C168 C 0.17939 0.67541 0.70385
 H169 H 0.17268 0.71277 0.67157
 H170 H 0.21721 0.66826 0.67154
 H171 H 0.17300 0.66919 0.71711
 C172 C 1.19426 0.16681 0.19638
 C173 C 1.20308 0.17552 0.17980
 C174 C 1.19496 0.19233 0.17125
 C175 C 1.17794 0.20057 0.17969
 C176 C 1.16893 0.19208 0.19631
 C177 C 1.17733 0.17533 0.20465
 H178 H 1.21603 0.16891 0.17323
 H179 H 1.17112 0.21305 0.17271
 H180 H 1.17065 0.16887 0.21765
 C181 C 0.66748 1.05901 0.55514
 C182 C 0.67635 1.05070 0.57205
 C183 C 0.69316 1.05896 0.58077
 C184 C 0.70150 1.07566 0.57237
 C185 C 0.69317 1.08457 0.55552
 C186 C 0.67628 1.07584 0.54698
 H187 H 0.66949 1.03854 0.57948
 H188 H 0.71502 1.08121 0.57877
 H189 H 0.66974 1.08237 0.53405
 C190 C 0.55570 0.55817 0.16919
 C191 C 0.54691 0.57459 0.17777
 C192 C 0.55491 0.58317 0.19484
 C193 C 0.57168 0.57481 0.20364
 C194 C 0.58065 0.55828 0.19536
 C195 C 0.57248 0.55001 0.17818
 H196 H 0.53377 0.58075 0.17111
 H197 H 0.57805 0.58144 0.21670
 H198 H 0.57975 0.53778 0.17124
 C199 C 0.67111 0.69460 0.19655
 C200 C 0.67995 0.67826 0.20527
 C201 C 0.69656 0.66946 0.19668
 C202 C 0.70469 0.67753 0.17942
 C203 C 0.69616 0.69398 0.17054
 C204 C 0.67942 0.70247 0.17927
 H205 H 0.67382 0.67231 0.21877
 H206 H 0.71738 0.67071 0.17259
 H207 H 0.67226 0.71463 0.17205
 C208 C 0.17226 0.05556 1.05202
 C209 C 0.18125 0.07234 1.04410
 C210 C 0.19736 0.08131 1.05347
 C211 C 0.20511 0.07306 1.07079
 C212 C 0.19673 0.05622 1.07891
 C213 C 0.18053 0.04751 1.06939
 H214 H 0.17616 0.07838 1.03022
 H215 H 0.21708 0.08027 1.07850
 H216 H 0.17389 0.03496 1.07630
 C217 C 0.57904 0.19358 0.55376
 C218 C 0.57010 0.17705 0.54553
 C219 C 0.55330 0.16870 0.55428
 C220 C 0.54519 0.17735 0.57127
 C221 C 0.55388 0.19396 0.57967
 C222 C 0.57070 0.20204 0.57071
 H223 H 0.57629 0.17063 0.53228
 H224 H 0.53272 0.17058 0.57855
 H225 H 0.57765 0.21467 0.57727
 C226 C 0.08259 0.55795 0.69355
 C227 C 0.07353 0.54992 0.67672
 C228 C 0.05647 0.55833 0.66853
 C229 C 0.04835 0.57489 0.67754
 C230 C 0.05715 0.58314 0.69441
 C231 C 0.07421 0.57449 0.70237
 H232 H 0.08000 0.53729 0.66973
 H233 H 0.03534 0.58159 0.67116
 H234 H 0.08120 0.58086 0.71524
 C235 C 0.66856 0.55915 0.05487
 C236 C 0.67762 0.55074 0.07152
 C237 C 0.69466 0.55904 0.07989
 C238 C 0.70275 0.57581 0.07125
 C239 C 0.69388 0.58445 0.05464
 C240 C 0.67690 0.57590 0.04646
 H241 H 0.67086 0.53826 0.07853
 H242 H 0.71574 0.58243 0.07776
 H243 H 0.67018 0.58230 0.03345
 C244 C 0.05363 0.69235 0.57939
 C245 C 0.04554 0.67546 0.57106
 C246 C 0.05436 0.66652 0.55461
 C247 C 0.07131 0.67494 0.54620
 C248 C 0.07959 0.69190 0.55428
 C249 C 0.07054 0.70057 0.57078
 H250 H 0.03230 0.66922 0.57745
 H251 H 0.07863 0.66776 0.53397
 H252 H 0.07700 0.71348 0.57725
 C253 C 0.55220 1.05317 0.67249
 C254 C 0.56933 1.04551 0.68149
 C255 C 0.57820 1.05454 0.69787
 C256 C 0.56946 1.07120 0.70593
 C257 C 0.55222 1.07902 0.69758
 C258 C 0.54362 1.06986 0.68109
 H259 H 0.57575 1.03211 0.67617
 H260 H 0.57662 1.07864 0.71810
 H261 H 0.53077 1.07654 0.67448
 C262 C 0.44401 0.33378 0.94463
 C263 C 0.45202 0.32490 0.92757
 C264 C 0.44307 0.30863 0.91882
 C265 C 0.42601 0.30077 0.92743
 C266 C 0.41777 0.30910 0.94447
 C267 C 0.42688 0.32541 0.95301
 H268 H 0.46571 0.33011 0.92127
 H269 H 0.41865 0.28864 0.92038
 H270 H 0.41988 0.33197 0.96574
 C271 C 0.94474 0.44088 0.33053
 C272 C 0.92782 0.44950 0.32225
 C273 C 0.91867 0.44142 0.30549
 C274 C 0.92681 0.42470 0.29685
 C275 C 0.94364 0.41582 0.30494
 C276 C 0.95261 0.42411 0.32168
 H277 H 0.92120 0.46196 0.32943
 H278 H 0.92003 0.41858 0.28373
 H279 H 0.96548 0.41723 0.32812
 C280 C 0.30539 0.94114 0.41826
 C281 C 0.29719 0.92416 0.42673
 C282 C 0.30564 0.91543 0.44353
 C283 C 0.32234 0.92391 0.45224
 C284 C 0.33079 0.94075 0.44428
 C285 C 0.32218 0.94932 0.42751
 H286 H 0.28506 0.91674 0.41956
 H287 H 0.32876 0.91743 0.46537
 H288 H 0.32870 0.96254 0.42191
 O289 O 0.27594 0.44735 0.75037
 O290 O 0.27312 0.45411 0.71658
 O291 O 0.30364 0.49742 0.77506
 O292 O 0.29825 0.52954 0.77603
 O293 O 0.25156 0.47365 0.80242
 O294 O 0.21714 0.47554 0.79510
 O295 O 0.25061 0.55044 0.72471
 O296 O 0.28415 0.54451 0.72852
 O297 O 0.22532 0.50191 0.69830
 O298 O 0.22620 0.46681 0.70462
 O299 O 0.19964 0.52519 0.74889
 O300 O 0.20643 0.52347 0.78434
 O301 O 0.22680 0.55045 0.74857
 O302 O 0.22878 0.54280 0.78522
 O303 O 0.19910 0.50208 0.72482
 O304 O 0.20601 0.46615 0.72658
 O305 O 0.24907 0.52532 0.69873
 O306 O 0.28478 0.51827 0.70499
 O307 O 0.25182 0.44709 0.77397
 O308 O 0.21674 0.45475 0.77228
 O309 O 0.27571 0.49669 0.80290
 O310 O 0.27301 0.53194 0.79536
 O311 O 0.30321 0.47405 0.75118
 O312 O 0.29540 0.47908 0.71558
 Zr313 Zr 0.27465 0.47569 0.73886
 O314 O 0.25714 0.49308 0.72017
 Zr315 Zr 0.27494 0.50917 0.77440
 O316 O 0.25804 0.52822 0.75686
 Zr317 Zr 0.23982 0.47540 0.77362
 O318 O 0.22106 0.49323 0.75660
 Zr319 Zr 0.26251 0.52239 0.72668
 O320 O 0.28157 0.50508 0.74419
 Zr321 Zr 0.22708 0.48887 0.72642
 O322 O 0.24447 0.46955 0.74344
 Zr323 Zr 0.22790 0.52262 0.76160
 O324 O 0.24482 0.50477 0.78075
 O325 O 0.26973 0.48001 0.76892
 O326 O 0.23240 0.51820 0.73149
 C327 C 0.26576 0.43902 0.76399
 C328 C 0.31172 0.48374 0.76500
 C329 C 0.26547 0.48315 0.81099
 C330 C 0.23656 0.55849 0.73446
 C331 C 0.23489 0.51602 0.69043
 C332 C 0.19128 0.51605 0.73462
 H333 H 0.26031 0.49017 0.70619
 H334 H 0.20715 0.49028 0.75987
 H335 H 0.27809 0.47152 0.77727
 H336 H 0.26158 0.54180 0.76000
 H337 H 0.29659 0.53812 0.73265
 H338 H 0.29532 0.53979 0.76623
 H339 H 0.19691 0.46840 0.73779
 H340 H 0.21784 0.44828 0.75925
 H341 H 0.28434 0.52947 0.69578
 H342 H 0.30540 0.46860 0.71659
 H343 H 0.19857 0.51139 0.78346
 H344 H 0.21754 0.48849 0.80143
 H345 H 0.25957 0.44872 0.71697
 H346 H 0.23839 0.46784 0.69664
 H347 H 0.26084 0.52967 0.80315
 H348 H 0.23987 0.55184 0.78277
 O349 O 0.30284 -0.00281 0.27525
 O350 O 0.29663 0.03045 0.27354
 O351 O 0.25071 -0.02694 0.30118
 O352 O 0.21818 -0.02714 0.29498
 O353 O 0.27570 -0.05261 0.24880
 O354 O 0.27439 -0.04447 0.21447
 O355 O 0.19900 0.02505 0.24853
 O356 O 0.20426 0.02023 0.28212
 O357 O 0.24936 0.05074 0.22506
 O358 O 0.28496 0.04387 0.22660
 O359 O 0.22546 0.00233 0.19721
 O360 O 0.22613 -0.03255 0.20297
 O361 O 0.19902 0.00245 0.22386
 O362 O 0.20601 -0.03368 0.22488
 O363 O 0.24944 0.02548 0.19792
 O364 O 0.28571 0.02296 0.20573
 O365 O 0.22509 0.05007 0.24836
 O366 O 0.23139 0.04274 0.28406
 O367 O 0.30313 -0.02514 0.25029
 O368 O 0.29599 -0.02252 0.21510
 O369 O 0.25165 -0.05333 0.27236
 O370 O 0.21595 -0.04522 0.26903
 O371 O 0.27503 -0.00407 0.30203
 O372 O 0.27076 0.03121 0.29527
 Zr373 Zr 0.27423 0.00898 0.27380
 O374 O 0.25729 0.02819 0.25647
 Zr375 Zr 0.23946 -0.02518 0.27218
 O376 O 0.22080 -0.00708 0.25540
 Zr377 Zr 0.27456 -0.02403 0.23780
 O378 O 0.25718 -0.00642 0.21918
 Zr379 Zr 0.22724 0.02223 0.26098
 O380 O 0.24408 0.00414 0.27990
 Zr381 Zr 0.26209 0.02289 0.22626
 O382 O 0.28101 0.00529 0.24356
 Zr383 Zr 0.22704 -0.01093 0.22521
 O384 O 0.24445 -0.03059 0.24192
 O385 O 0.26935 -0.02023 0.26781
 O386 O 0.23204 0.01836 0.23076
 C387 C 0.31127 -0.01592 0.26470
 C388 C 0.26468 -0.01765 0.30990
 C389 C 0.26557 -0.06120 0.26226
 C390 C 0.19091 0.01610 0.23396
 C391 C 0.23498 0.05844 0.23460
 C392 C 0.23528 0.01631 0.18944
 H393 H 0.26046 0.04174 0.26016
 H394 H 0.26044 -0.00927 0.20522
 H395 H 0.27767 -0.02880 0.27609
 H396 H 0.20685 -0.01000 0.25856
 H397 H 0.21041 0.01565 0.29458
 H398 H 0.20805 -0.01718 0.29219
 H399 H 0.28347 0.01224 0.19625
 H400 H 0.30282 -0.00991 0.21669
 H401 H 0.22018 0.05200 0.28366
 H402 H 0.28114 0.02966 0.30553
 H403 H 0.23873 -0.03192 0.19560
 H404 H 0.26115 -0.05057 0.21455
 H405 H 0.30227 0.03054 0.26003
 H406 H 0.28370 0.05143 0.23898
 H407 H 0.21842 -0.05258 0.25669
 H408 H 0.19664 -0.03144 0.23588
 O409 O 0.50118 0.69911 0.22484
 O410 O 0.46741 0.70576 0.22743
 O411 O 0.52566 0.74917 0.19686
 O412 O 0.52628 0.78134 0.20207
 O413 O 0.55299 0.72588 0.24920
 O414 O 0.54560 0.72784 0.28370
 O415 O 0.47512 0.80219 0.24976
 O416 O 0.47899 0.79619 0.21612
 O417 O 0.44891 0.75363 0.27505
 O418 O 0.45543 0.71849 0.27430
 O419 O 0.49923 0.77720 0.30087
 O420 O 0.53477 0.77548 0.29411
 O421 O 0.49896 0.80235 0.27363
 O422 O 0.53543 0.79496 0.27188
 O423 O 0.47528 0.75401 0.30144
 O424 O 0.47720 0.71809 0.29470
 O425 O 0.44926 0.77699 0.25120
 O426 O 0.45559 0.76985 0.21549
 O427 O 0.52474 0.69909 0.24904
 O428 O 0.52305 0.70685 0.28406
 O429 O 0.55336 0.74883 0.22491
 O430 O 0.54566 0.78397 0.22739
 O431 O 0.50196 0.72566 0.19734
 O432 O 0.46639 0.73061 0.20498
 Zr433 Zr 0.48958 0.72741 0.22589
 O434 O 0.47082 0.74480 0.24331
 Zr435 Zr 0.52486 0.76109 0.22554
 O436 O 0.50727 0.78010 0.24240
 Zr437 Zr 0.52423 0.72745 0.26089
 O438 O 0.50711 0.74522 0.27958
 Zr439 Zr 0.47719 0.77412 0.23786
 O440 O 0.49474 0.75681 0.21886
 Zr441 Zr 0.47703 0.74070 0.27346
 O442 O 0.49414 0.72142 0.25616
 Zr443 Zr 0.51201 0.77459 0.27263
 O444 O 0.53121 0.75682 0.25575
 O445 O 0.51955 0.73191 0.23088
 O446 O 0.48198 0.77003 0.26805
 C447 C 0.51480 0.69089 0.23513
 C448 C 0.51573 0.73537 0.18881
 C449 C 0.56149 0.73539 0.23526
 C450 C 0.48484 0.81030 0.26383
 C451 C 0.44100 0.76767 0.26541
 C452 C 0.48499 0.76806 0.30924
 H453 H 0.45689 0.74180 0.24009
 H454 H 0.51036 0.74233 0.29354
 H455 H 0.52794 0.72343 0.22259
 H456 H 0.51037 0.79368 0.23883
 H457 H 0.48313 0.78978 0.20367
 H458 H 0.51663 0.79169 0.20509
 H459 H 0.48840 0.72040 0.30381
 H460 H 0.51001 0.70042 0.28309
 H461 H 0.44638 0.78105 0.21585
 H462 H 0.46747 0.72009 0.19501
 H463 H 0.53367 0.76362 0.30228
 H464 H 0.55188 0.74082 0.28324
 H465 H 0.46779 0.70041 0.24103
 H466 H 0.44738 0.71954 0.26213
 H467 H 0.55336 0.78187 0.23967
 H468 H 0.53311 0.80379 0.26057
 O469 O 0.00177 0.69857 0.72470
 O470 O -0.03202 0.70527 0.72771
 O471 O 0.02612 0.74870 0.69685
 O472 O 0.02727 0.78079 0.70225
 O473 O 0.05360 0.72499 0.74912
 O474 O 0.04628 0.72703 0.78369
 O475 O -0.02384 0.80174 0.74996
 O476 O -0.01996 0.79574 0.71624
 O477 O -0.05024 0.75354 0.77531
 O478 O -0.04408 0.71826 0.77439
 O479 O 0.00029 0.77653 0.80108
 O480 O 0.03575 0.77472 0.79417
 O481 O -0.00009 0.80177 0.77392
 O482 O 0.03642 0.79425 0.77192
 O483 O -0.02376 0.75344 0.80162
 O484 O -0.02226 0.71760 0.79474
 O485 O -0.04976 0.77683 0.75140
 O486 O -0.04360 0.76957 0.71569
 O487 O 0.02529 0.69845 0.74894
 O488 O 0.02360 0.70611 0.78403
 O489 O 0.05403 0.74790 0.72480
 O490 O 0.04663 0.78315 0.72754
 O491 O 0.00229 0.72532 0.69736
 O492 O -0.03316 0.73013 0.70524
 Zr493 Zr -0.00984 0.72690 0.72601
 O494 O -0.02848 0.74441 0.74344
 Zr495 Zr 0.02564 0.76043 0.72562
 O496 O 0.00819 0.77953 0.74253
 Zr497 Zr 0.02488 0.72676 0.76090
 O498 O 0.00788 0.74460 0.77964
 Zr499 Zr -0.02191 0.77370 0.73801
 O500 O -0.00451 0.75629 0.71899
 Zr501 Zr -0.02225 0.74027 0.77357
 O502 O -0.00525 0.72089 0.75626
 Zr503 Zr 0.01293 0.77397 0.77275
 O504 O 0.03202 0.75610 0.75582
 O505 O 0.02015 0.73128 0.73091
 O506 O -0.01712 0.76956 0.76818
 C507 C 0.01541 0.69031 0.73494
 C508 C 0.01602 0.73504 0.68878
 C509 C 0.06210 0.73439 0.73510
 C510 C -0.01418 0.80978 0.76412
 C511 C -0.05804 0.76768 0.76569
 C512 C -0.01395 0.76739 0.80946
 H513 H -0.04244 0.74153 0.74025
 H514 H 0.01114 0.74166 0.79358
 H515 H 0.02846 0.72280 0.72252
 H516 H 0.01134 0.79311 0.73897
 H517 H -0.01592 0.78928 0.70379
 H518 H 0.01759 0.79112 0.70524
 H519 H -0.01089 0.71967 0.80370
 H520 H 0.01056 0.69968 0.78299
 H521 H -0.05270 0.78084 0.71604
 H522 H -0.03219 0.71958 0.69529
 H523 H 0.03470 0.76278 0.80223
 H524 H 0.05272 0.73992 0.78314
 H525 H -0.03154 0.69991 0.74130
 H526 H -0.05213 0.71941 0.76223
 H527 H 0.05436 0.78092 0.73978
 H528 H 0.03404 0.80318 0.76070
 O529 O 0.00327 0.05110 0.02349
 O530 O -0.03048 0.04436 0.02096
 O531 O 0.02798 0.00104 0.05127
 O532 O 0.02879 -0.03109 0.04594
 O533 O 0.05503 0.02454 -0.00123
 O534 O 0.04742 0.02272 -0.03565
 O535 O -0.02257 -0.05202 -0.00159
 O536 O -0.01855 -0.04607 0.03207
 O537 O -0.04908 -0.00357 -0.02671
 O538 O -0.04277 0.03158 -0.02587
 O539 O 0.00120 -0.02681 -0.05279
 O540 O 0.03678 -0.02498 -0.04605
 O541 O 0.00107 -0.05208 -0.02562
 O542 O 0.03751 -0.04459 -0.02392
 O543 O -0.02278 -0.00366 -0.05317
 O544 O -0.02105 0.03222 -0.04628
 O545 O -0.04852 -0.02695 -0.00288
 O546 O -0.04207 -0.01984 0.03281
 O547 O 0.02671 0.05127 -0.00079
 O548 O 0.02478 0.04358 -0.03584
 O549 O 0.05561 0.00155 0.02302
 O550 O 0.04800 -0.03359 0.02057
 O551 O 0.00418 0.02444 0.05094
 O552 O -0.03137 0.01945 0.04335
 Zr553 Zr -0.00826 0.02276 0.02239
 O554 O -0.02706 0.00533 0.00502
 Zr555 Zr 0.02713 -0.01078 0.02253
 O556 O 0.00952 -0.02984 0.00569
 Zr557 Zr 0.02619 0.02293 -0.01272
 O558 O 0.00905 0.00512 -0.03139
 Zr559 Zr -0.02055 -0.02398 0.01036
 O560 O -0.00296 -0.00664 0.02934
 Zr561 Zr -0.02102 0.00952 -0.02514
 O562 O -0.00388 0.02883 -0.00788
 Zr563 Zr 0.01407 -0.02426 -0.02454
 O564 O 0.03329 -0.00644 -0.00770
 O565 O 0.02170 0.01839 0.01730
 O566 O -0.01595 -0.01981 -0.01983
 C567 C 0.01680 0.05940 0.01318
 C568 C 0.01799 0.01473 0.05942
 C569 C 0.06365 0.01500 0.01263
 C570 C -0.01296 -0.06009 -0.01574
 C571 C -0.05688 -0.01768 -0.01706
 C572 C -0.01307 -0.01763 -0.06108
 H573 H -0.04098 0.00825 0.00829
 H574 H 0.01222 0.00807 -0.04535
 H575 H 0.03011 0.02687 0.02559
 H576 H 0.01267 -0.04342 0.00923
 H577 H -0.01439 -0.03966 0.04451
 H578 H 0.01909 -0.04142 0.04299
 H579 H -0.00985 0.03004 -0.05540
 H580 H 0.01176 0.05003 -0.03472
 H581 H -0.05122 -0.03108 0.03247
 H582 H -0.03029 0.02997 0.05333
 H583 H 0.03555 -0.01315 -0.05425
 H584 H 0.05370 0.00975 -0.03531
 H585 H -0.03020 0.04970 0.00736
 H586 H -0.05072 0.03049 -0.01365
 H587 H 0.05557 -0.03148 0.00823
 H588 H 0.03527 -0.05345 -0.01262
 O589 O -0.00110 0.47241 0.44843
 O590 O 0.03267 0.47542 0.45504
 O591 O -0.02529 0.44688 0.50063
 O592 O -0.02578 0.45329 0.53322
 O593 O -0.05297 0.49703 0.47481
 O594 O -0.04578 0.53097 0.47549
 O595 O 0.02526 0.50125 0.55236
 O596 O 0.02144 0.46799 0.54769
 O597 O 0.05110 0.52413 0.50180
 O598 O 0.04444 0.52186 0.46601
 O599 O 0.00072 0.55016 0.52479
 O600 O -0.03478 0.54317 0.52354
 O601 O 0.00135 0.52455 0.55163
 O602 O -0.03515 0.52224 0.54436
 O603 O 0.02458 0.54988 0.50108
 O604 O 0.02262 0.54176 0.46485
 O605 O 0.05098 0.50166 0.52653
 O606 O 0.04474 0.46636 0.52079
 O607 O -0.02476 0.49601 0.44750
 O608 O -0.02329 0.53065 0.45402
 O609 O -0.05312 0.47422 0.49923
 O610 O -0.04532 0.47811 0.53491
 O611 O -0.00167 0.44654 0.47661
 O612 O 0.03386 0.45442 0.48126
 Zr613 Zr 0.01057 0.47466 0.47720
 O614 O 0.02931 0.49253 0.49415
 Zr615 Zr -0.02457 0.47548 0.51163
 O616 O -0.00700 0.49289 0.53027
 Zr617 Zr -0.02426 0.50874 0.47592
 O618 O -0.00715 0.52788 0.49320
 Zr619 Zr 0.02308 0.48837 0.52428
 O620 O 0.00556 0.46894 0.50746
 Zr621 Zr 0.02294 0.52187 0.48875
 O622 O 0.00583 0.50405 0.46988
 Zr623 Zr -0.01188 0.52226 0.52344
 O624 O -0.03108 0.50488 0.50609
 O625 O -0.01940 0.47955 0.48167
 O626 O 0.01815 0.51776 0.51888
 C627 C -0.01477 0.48211 0.43967
 C628 C -0.01537 0.43849 0.48687
 C629 C -0.06136 0.48372 0.48511
 C630 C 0.01556 0.51535 0.56009
 C631 C 0.05913 0.51526 0.51645
 C632 C 0.01486 0.55807 0.51506
 H633 H 0.04325 0.48933 0.49120
 H634 H -0.01049 0.54142 0.48969
 H635 H -0.02777 0.47103 0.47338
 H636 H -0.01001 0.48994 0.54427
 H637 H 0.01733 0.45551 0.54169
 H638 H -0.01616 0.45677 0.54365
 H639 H 0.01131 0.55064 0.46678
 H640 H -0.01028 0.52951 0.44744
 H641 H 0.05398 0.46720 0.53216
 H642 H 0.03281 0.44422 0.47093
 H643 H -0.03383 0.55066 0.51109
 H644 H -0.05203 0.53095 0.48873
 H645 H 0.03220 0.48852 0.44903
 H646 H 0.05263 0.51008 0.46763
 H647 H -0.05303 0.49005 0.53233
 H648 H -0.03273 0.51152 0.55381
 O649 O 0.55030 0.02661 0.50243
 O650 O 0.54394 0.02368 0.46857
 O651 O 0.49814 0.05213 0.52645
 O652 O 0.46565 0.04582 0.52679
 O653 O 0.52349 0.00170 0.55419
 O654 O 0.52306 -0.03211 0.54682
 O655 O 0.44666 -0.00189 0.47538
 O656 O 0.45146 0.03131 0.47921
 O657 O 0.49727 -0.02490 0.44969
 O658 O 0.53284 -0.02290 0.45657
 O659 O 0.47373 -0.05092 0.49998
 O660 O 0.47491 -0.04412 0.53557
 O661 O 0.44715 -0.02520 0.49935
 O662 O 0.45432 -0.02303 0.53599
 O663 O 0.49752 -0.05070 0.47620
 O664 O 0.53382 -0.04274 0.47853
 O665 O 0.47261 -0.00241 0.44973
 O666 O 0.47845 0.03287 0.45605
 O667 O 0.55106 0.00297 0.52610
 O668 O 0.54450 -0.03171 0.52437
 O669 O 0.49925 0.02463 0.55430
 O670 O 0.46369 0.02094 0.54616
 O671 O 0.52220 0.05249 0.50287
 O672 O 0.51781 0.04467 0.46720
 Zr673 Zr 0.52166 0.02440 0.49056
 O674 O 0.50482 0.00660 0.47164
 Zr675 Zr 0.48712 0.02356 0.52558
 O676 O 0.46856 0.00628 0.50781
 Zr677 Zr 0.52267 -0.00978 0.52535
 O678 O 0.50541 -0.02884 0.50812
 Zr679 Zr 0.47474 0.01085 0.47771
 O680 O 0.49146 0.03019 0.49542
 Zr681 Zr 0.51004 -0.02278 0.47801
 O682 O 0.52886 -0.00502 0.49526
 Zr683 Zr 0.47524 -0.02311 0.51271
 O684 O 0.49255 -0.00586 0.53206
 O685 O 0.51704 0.01944 0.52056
 O686 O 0.47998 -0.01856 0.48265
 C687 C 0.55895 0.01688 0.51616
 C688 C 0.51190 0.06053 0.51656
 C689 C 0.51317 0.01496 0.56262
 C690 C 0.43884 -0.01594 0.48509
 C691 C 0.48271 -0.01599 0.44158
 C692 C 0.48343 -0.05882 0.48581
 H693 H 0.50787 0.00982 0.45771
 H694 H 0.50883 -0.04240 0.51145
 H695 H 0.52527 0.02791 0.52905
 H696 H 0.45459 0.00929 0.51076
 H697 H 0.45746 0.04377 0.48338
 H698 H 0.45540 0.04252 0.51693
 H699 H 0.53165 -0.05177 0.48970
 H700 H 0.55115 -0.03047 0.51139
 H701 H 0.46717 0.03207 0.44670
 H702 H 0.52809 0.05488 0.46836
 H703 H 0.48727 -0.05172 0.53460
 H704 H 0.50975 -0.03229 0.55287
 H705 H 0.54987 0.01056 0.46903
 H706 H 0.53149 -0.01096 0.44854
 H707 H 0.46620 0.00901 0.55394
 H708 H 0.44487 -0.01236 0.53348
 O709 O 0.47442 0.44857 -0.00052
 O710 O 0.47727 0.45516 0.03328
 O711 O 0.44706 0.49909 -0.02490
 O712 O 0.45278 0.53113 -0.02577
 O713 O 0.49887 0.47495 -0.05245
 O714 O 0.53333 0.47660 -0.04524
 O715 O 0.50079 0.55134 0.02561
 O716 O 0.46714 0.54576 0.02183
 O717 O 0.52559 0.50244 0.05173
 O718 O 0.52440 0.46743 0.04524
 O719 O 0.55136 0.52575 0.00115
 O720 O 0.54441 0.52426 -0.03435
 O721 O 0.52450 0.55126 0.00166
 O722 O 0.52237 0.54390 -0.03495
 O723 O 0.55176 0.50257 0.02516
 O724 O 0.54449 0.46667 0.02317
 O725 O 0.50205 0.52604 0.05145
 O726 O 0.46626 0.51939 0.04521
 O727 O 0.49856 0.44829 -0.02409
 O728 O 0.53364 0.45570 -0.02258
 O729 O 0.47491 0.49817 -0.05280
 O730 O 0.47802 0.53339 -0.04512
 O731 O 0.44733 0.47556 -0.00118
 O732 O 0.45526 0.48032 0.03446
 Zr733 Zr 0.47594 0.47687 0.01111
 O734 O 0.49364 0.49402 0.02986
 Zr735 Zr 0.47588 0.51054 -0.02426
 O736 O 0.49299 0.52936 -0.00665
 Zr737 Zr 0.51071 0.47650 -0.02369
 O738 O 0.52967 0.49407 -0.00663
 Zr739 Zr 0.48855 0.52342 0.02351
 O740 O 0.46929 0.50635 0.00595
 Zr741 Zr 0.52366 0.48959 0.02353
 O742 O 0.50605 0.47052 0.00646
 Zr743 Zr 0.52305 0.52353 -0.01149
 O744 O 0.50594 0.50593 -0.03070
 O745 O 0.48084 0.48130 -0.01893
 O746 O 0.51859 0.51899 0.01861
 C747 C 0.48458 0.44024 -0.01414
 C748 C 0.43887 0.48542 -0.01490
 C749 C 0.48501 0.48456 -0.06094
 C750 C 0.51489 0.55931 0.01586
 C751 C 0.51616 0.51658 0.05969
 C752 C 0.55968 0.51651 0.01537
 H753 H 0.49047 0.49106 0.04383
 H754 H 0.54354 0.49102 -0.00994
 H755 H 0.47239 0.47292 -0.02728
 H756 H 0.48957 0.54299 -0.00972
 H757 H 0.45464 0.53952 0.01767
 H758 H 0.45580 0.54129 -0.01590
 H759 H 0.55367 0.46899 0.01204
 H760 H 0.53259 0.44919 -0.00955
 H761 H 0.46684 0.53054 0.05448
 H762 H 0.44513 0.46995 0.03339
 H763 H 0.55226 0.51218 -0.03346
 H764 H 0.53299 0.48957 -0.05155
 H765 H 0.49078 0.44969 0.03289
 H766 H 0.51220 0.46848 0.05321
 H767 H 0.49013 0.53103 -0.05296
 H768 H 0.51128 0.55293 -0.03250
 O769 O 0.74926 0.27695 0.44748
 O770 O 0.71555 0.27391 0.45384
 O771 O 0.77311 0.30280 0.49978
 O772 O 0.77369 0.29651 0.53234
 O773 O 0.80110 0.25268 0.47422
 O774 O 0.79415 0.21875 0.47512
 O775 O 0.72242 0.24874 0.55136
 O776 O 0.72605 0.28185 0.54645
 O777 O 0.69701 0.22533 0.50061
 O778 O 0.70396 0.22720 0.46500
 O779 O 0.74738 0.19964 0.52444
 O780 O 0.78259 0.20650 0.52359
 O781 O 0.74647 0.22557 0.55105
 O782 O 0.78320 0.22804 0.54377
 O783 O 0.72365 0.19965 0.50056
 O784 O 0.72596 0.20750 0.46418
 O785 O 0.69686 0.24792 0.52521
 O786 O 0.70303 0.28323 0.51931
 O787 O 0.77298 0.25340 0.44680
 O788 O 0.77163 0.21871 0.45363
 O789 O 0.80105 0.27560 0.49853
 O790 O 0.79305 0.27173 0.53431
 O791 O 0.74968 0.30295 0.47554
 O792 O 0.71410 0.29495 0.47998
 Zr793 Zr 0.73750 0.27479 0.47618
 O794 O 0.71873 0.25690 0.49304
 Zr795 Zr 0.77247 0.27425 0.51084
 O796 O 0.75479 0.25695 0.52946
 Zr797 Zr 0.77246 0.24082 0.47532
 O798 O 0.75538 0.22172 0.49267
 Zr799 Zr 0.72473 0.26131 0.52318
 O800 O 0.74234 0.28070 0.50642
 Zr801 Zr 0.72529 0.22755 0.48793
 O802 O 0.74240 0.24537 0.46906
 Zr803 Zr 0.75985 0.22757 0.52291
 O804 O 0.77911 0.24485 0.50552
 O805 O 0.76746 0.27002 0.48086
 O806 O 0.72984 0.23190 0.51807
 C807 C 0.76297 0.26724 0.43884
 C808 C 0.76327 0.31109 0.48589
 C809 C 0.80939 0.26610 0.48447
 C810 C 0.73219 0.23480 0.55932
 C811 C 0.68882 0.23427 0.51509
 C812 C 0.73332 0.19161 0.51469
 H813 H 0.70481 0.26002 0.48993
 H814 H 0.75880 0.20817 0.48930
 H815 H 0.77583 0.27854 0.47257
 H816 H 0.75771 0.26004 0.54345
 H817 H 0.73022 0.29430 0.54042
 H818 H 0.76370 0.29332 0.54249
 H819 H 0.73716 0.19854 0.46643
 H820 H 0.75870 0.21984 0.44689
 H821 H 0.69366 0.28240 0.53056
 H822 H 0.71521 0.30515 0.46966
 H823 H 0.78223 0.19942 0.51087
 H824 H 0.80030 0.21884 0.48842
 H825 H 0.71603 0.26076 0.44796
 H826 H 0.69585 0.23907 0.46629
 H827 H 0.80105 0.25999 0.53166
 H828 H 0.78046 0.23854 0.55338
 O829 O 0.77636 0.80308 0.00071
 O830 O 0.77357 0.79611 0.03445
 O831 O 0.80316 0.75270 -0.02441
 O832 O 0.79725 0.72074 -0.02575
 O833 O 0.75142 0.77763 -0.05142
 O834 O 0.71696 0.77598 -0.04410
 O835 O 0.74951 0.70017 0.02569
 O836 O 0.78314 0.70560 0.02180
 O837 O 0.72518 0.74887 0.05256
 O838 O 0.72642 0.78394 0.04645
 O839 O 0.69892 0.72630 0.00173
 O840 O 0.70553 0.72809 -0.03361
 O841 O 0.72566 0.70065 0.00184
 O842 O 0.72770 0.70859 -0.03479
 O843 O 0.69878 0.74912 0.02608
 O844 O 0.70618 0.78502 0.02453
 O845 O 0.74860 0.72516 0.05188
 O846 O 0.78435 0.73169 0.04549
 O847 O 0.75205 0.80382 -0.02272
 O848 O 0.71688 0.79658 -0.02109
 O849 O 0.77516 0.75421 -0.05212
 O850 O 0.77186 0.71886 -0.04491
 O851 O 0.80320 0.77595 -0.00041
 O852 O 0.79546 0.77081 0.03521
 Zr853 Zr 0.77466 0.77467 0.01201
 O854 O 0.75697 0.75738 0.03062
 Zr855 Zr 0.77428 0.74143 -0.02378
 O856 O 0.75720 0.72248 -0.00632
 Zr857 Zr 0.73969 0.77568 -0.02263
 O858 O 0.72074 0.75798 -0.00571
 Zr859 Zr 0.76188 0.72804 0.02388
 O860 O 0.78111 0.74521 0.00644
 Zr861 Zr 0.72694 0.76203 0.02449
 O862 O 0.74455 0.78123 0.00758
 Zr863 Zr 0.72716 0.72855 -0.01097
 O864 O 0.74422 0.74631 -0.03004
 O865 O 0.76954 0.77063 -0.01805
 O866 O 0.73182 0.73267 0.01917
 C867 C 0.76618 0.81164 -0.01278
 C868 C 0.81149 0.76621 -0.01432
 C869 C 0.76519 0.76803 -0.06005
 C870 C 0.73532 0.69238 0.01589
 C871 C 0.73462 0.73462 0.06031
 C872 C 0.69073 0.73537 0.01613
 H873 H 0.76025 0.76015 0.04460
 H874 H 0.70687 0.76113 -0.00892
 H875 H 0.77800 0.77907 -0.02633
 H876 H 0.76053 0.70888 -0.00958
 H877 H 0.79566 0.71183 0.01765
 H878 H 0.79430 0.71051 -0.01592
 H879 H 0.69695 0.78290 0.01338
 H880 H 0.71808 0.80293 -0.00800
 H881 H 0.78380 0.72042 0.05462
 H882 H 0.80563 0.78114 0.03422
 H883 H 0.69805 0.74039 -0.03281
 H884 H 0.71726 0.76312 -0.05064
 H885 H 0.76011 0.80170 0.03414
 H886 H 0.73870 0.78279 0.05430
 H887 H 0.75980 0.72147 -0.05276
 H888 H 0.73858 0.69930 -0.03237
 O889 O 1.05070 0.22309 0.24864
 O890 O 1.04441 0.22598 0.28250
 O891 O 0.99876 0.19668 0.22488
 O892 O 0.96613 0.20254 0.22488
 O893 O 1.02334 0.24709 0.19675
 O894 O 1.02231 0.28102 0.20384
 O895 O 0.94687 0.25042 0.27590
 O896 O 0.95204 0.21723 0.27229
 O897 O 0.99724 0.27428 0.30118
 O898 O 1.03289 0.27244 0.29422
 O899 O 0.97338 0.29966 0.25076
 O900 O 0.97428 0.29251 0.21524
 O901 O 0.94697 0.27365 0.25184
 O902 O 0.95382 0.27129 0.21522
 O903 O 0.99735 0.29985 0.27440
 O904 O 1.03360 0.29217 0.27217
 O905 O 0.97290 0.25146 0.30143
 O906 O 0.97915 0.21619 0.29538
 O907 O 1.05099 0.24656 0.22476
 O908 O 1.04398 0.28109 0.22613
 O909 O 0.99927 0.22396 0.19695
 O910 O 0.96373 0.22725 0.20521
 O911 O 1.02301 0.19676 0.24830
 O912 O 1.01855 0.20465 0.28398
 Zr913 Zr 1.02207 0.22489 0.26055
 O914 O 1.00514 0.24261 0.27944
 Zr915 Zr 0.98730 0.22509 0.22571
 O916 O 0.96866 0.24229 0.24344
 Zr917 Zr 1.02244 0.25886 0.22549
 O918 O 1.00511 0.27782 0.24272
 Zr919 Zr 0.97507 0.23800 0.27354
 O920 O 0.99191 0.21872 0.25589
 Zr921 Zr 1.01000 0.27200 0.27286
 O922 O 1.02889 0.25437 0.25560
 Zr923 Zr 0.97498 0.27172 0.23832
 O924 O 0.99232 0.25453 0.21898
 O925 O 1.01720 0.22962 0.23054
 O926 O 0.97995 0.26744 0.26838
 C927 C 1.05914 0.23286 0.23481
 C928 C 1.01276 0.18854 0.23467
 C929 C 1.01310 0.23365 0.18849
 C930 C 0.93884 0.26436 0.26618
 C931 C 0.98282 0.26527 0.30941
 C932 C 0.98318 0.30779 0.26475
 H933 H 1.00830 0.23953 0.29339
 H934 H 1.00838 0.29138 0.23926
 H935 H 1.02551 0.22122 0.22208
 H936 H 0.95471 0.23911 0.24059
 H937 H 0.95818 0.20482 0.26818
 H938 H 0.95580 0.20589 0.23463
 H939 H 1.03141 0.30099 0.26083
 H940 H 1.05073 0.28008 0.23909
 H941 H 0.96791 0.21693 0.30475
 H942 H 1.02895 0.19457 0.28283
 H943 H 0.98660 0.30019 0.21603
 H944 H 1.00903 0.28081 0.19771
 H945 H 1.05010 0.23921 0.28204
 H946 H 1.03152 0.26068 0.30251
 H947 H 0.96600 0.23921 0.19739
 H948 H 0.94458 0.26046 0.21781
 O949 O 0.74940 1.05269 0.72495
 O950 O 0.78310 1.04591 0.72690
 O951 O 0.72408 1.00257 0.69768
 O952 O 0.72332 0.97046 0.70309
 O953 O 0.69787 1.02638 0.75036
 O954 O 0.70581 1.02448 0.78466
 O955 O 0.77571 0.94972 0.75004
 O956 O 0.77107 0.95547 0.71644
 O957 O 0.80223 0.99821 0.77473
 O958 O 0.79594 1.03332 0.77384
 O959 O 0.75214 0.97509 0.80143
 O960 O 0.71674 0.97647 0.79512
 O961 O 0.75240 0.94971 0.77439
 O962 O 0.71566 0.95707 0.77280
 O963 O 0.77620 0.99818 0.80149
 O964 O 0.77437 1.03406 0.79442
 O965 O 0.80145 0.97488 0.75086
 O966 O 0.79446 0.98183 0.71519
 O967 O 0.72630 1.05295 0.74956
 O968 O 0.72860 1.04523 0.78466
 O969 O 0.69695 1.00320 0.72632
 O970 O 0.70464 0.96794 0.72880
 O971 O 0.74786 1.02599 0.69760
 O972 O 0.78360 1.02090 0.70466
 Zr973 Zr 0.76082 1.02433 0.72595
 O974 O 0.77984 1.00702 0.74317
 Zr975 Zr 0.72541 0.99080 0.72642
 O976 O 0.74329 0.97178 0.74302
 Zr977 Zr 0.72683 1.02462 0.76154
 O978 O 0.74417 1.00683 0.78001
 Zr979 Zr 0.77330 0.97769 0.73797
 O980 O 0.75542 0.99492 0.71917
 Zr981 Zr 0.77416 1.01126 0.77341
 O982 O 0.75684 1.03051 0.75626
 Zr983 Zr 0.73911 0.97742 0.77328
 O984 O 0.71965 0.99523 0.75670
 O985 O 0.73093 1.01999 0.73148
 O986 O 0.76905 0.98192 0.76821
 C987 C 0.73605 1.06104 0.73545
 C988 C 0.73389 1.01629 0.68937
 C989 C 0.68906 1.01678 0.73668
 C990 C 0.76638 0.94171 0.76443
 C991 C 0.80994 0.98415 0.76498
 C992 C 0.76648 0.98428 0.80956
 H993 H 0.79372 1.00996 0.73972
 H994 H 0.74114 1.00980 0.79400
 H995 H 0.72243 1.02848 0.72329
 H996 H 0.74014 0.95818 0.73956
 H997 H 0.76671 0.96180 0.70402
 H998 H 0.73324 0.96027 0.70577
 H999 H 0.76334 1.03183 0.80375
 H1000 H 0.74153 1.05180 0.78327
 H1001 H 0.80368 0.97064 0.71547
 H1002 H 0.78234 1.03132 0.69460
 H1003 H 0.71760 0.98862 0.80288
 H1004 H 0.69944 1.01154 0.78436
 H1005 H 0.78315 1.05120 0.74052
 H1006 H 0.80374 1.03221 0.76152
 H1007 H 0.69712 0.97017 0.74115
 H1008 H 0.71812 0.94788 0.76182
 O1009 O 0.69855 0.52669 0.24868
 O1010 O 0.70491 0.52337 0.28246
 O1011 O 0.75065 0.55308 0.22516
 O1012 O 0.78310 0.54693 0.22429
 O1013 O 0.72529 0.50298 0.19663
 O1014 O 0.72648 0.46896 0.20336
 O1015 O 0.80242 0.49896 0.27545
 O1016 O 0.79733 0.53212 0.27195
 O1017 O 0.75213 0.47505 0.30072
 O1018 O 0.71652 0.47673 0.29384
 O1019 O 0.77586 0.44988 0.24996
 O1020 O 0.77494 0.45700 0.21480
 O1021 O 0.80220 0.47593 0.25120
 O1022 O 0.79491 0.47875 0.21435
 O1023 O 0.75212 0.44956 0.27380
 O1024 O 0.71577 0.45716 0.27166
 O1025 O 0.77646 0.49788 0.30102
 O1026 O 0.77027 0.53317 0.29507
 O1027 O 0.69799 0.50328 0.22477
 O1028 O 0.70503 0.46865 0.22591
 O1029 O 0.74937 0.52609 0.19687
 O1030 O 0.78515 0.52231 0.20480
 O1031 O 0.72647 0.55289 0.24861
 O1032 O 0.73082 0.54458 0.28418
 Zr1033 Zr 0.72721 0.52461 0.26052
 O1034 O 0.74422 0.50673 0.27919
 Zr1035 Zr 0.76176 0.52456 0.22546
 O1036 O 0.78050 0.50729 0.24304
 Zr1037 Zr 0.72653 0.49090 0.22523
 O1038 O 0.74401 0.47181 0.24221
 Zr1039 Zr 0.77424 0.51141 0.27319
 O1040 O 0.75734 0.53078 0.25570
 Zr1041 Zr 0.73932 0.47739 0.27242
 O1042 O 0.72032 0.49518 0.25541
 Zr1043 Zr 0.77413 0.47790 0.23774
 O1044 O 0.75662 0.49518 0.21858
 O1045 O 0.73188 0.52011 0.23046
 O1046 O 0.76934 0.48200 0.26786
 C1047 C 0.68998 0.51701 0.23486
 C1048 C 0.73679 0.56121 0.23512
 C1049 C 0.73539 0.51656 0.18845
 C1050 C 0.81039 0.48509 0.26562
 C1051 C 0.76653 0.48407 0.30898
 C1052 C 0.76623 0.44168 0.26401
 H1053 H 0.74112 0.50973 0.29317
 H1054 H 0.74073 0.45826 0.23868
 H1055 H 0.72355 0.52865 0.22216
 H1056 H 0.79444 0.51049 0.24014
 H1057 H 0.79121 0.54456 0.26790
 H1058 H 0.79323 0.54381 0.23435
 H1059 H 0.71800 0.44835 0.26031
 H1060 H 0.69834 0.46962 0.23889
 H1061 H 0.78154 0.53238 0.30443
 H1062 H 0.72045 0.55472 0.28313
 H1063 H 0.76224 0.44990 0.21503
 H1064 H 0.73969 0.46927 0.19710
 H1065 H 0.69915 0.51017 0.28186
 H1066 H 0.71775 0.48856 0.30204
 H1067 H 0.78251 0.51064 0.19666
 H1068 H 0.80453 0.48918 0.21727
 O1069 O 0.55173 0.22245 0.75010
 O1070 O 0.54545 0.22559 0.78396
 O1071 O 0.49967 0.19598 0.72665
 O1072 O 0.46712 0.20197 0.72612
 O1073 O 0.52447 0.24632 0.69821
 O1074 O 0.52343 0.28026 0.70513
 O1075 O 0.44781 0.24978 0.77712
 O1076 O 0.45310 0.21660 0.77367
 O1077 O 0.49807 0.27392 0.80238
 O1078 O 0.53369 0.27210 0.79565
 O1079 O 0.47431 0.29909 0.75187
 O1080 O 0.47520 0.29187 0.71648
 O1081 O 0.44793 0.27299 0.75305
 O1082 O 0.45492 0.27045 0.71635
 O1083 O 0.49829 0.29936 0.77549
 O1084 O 0.53460 0.29159 0.77339
 O1085 O 0.47375 0.25108 0.80267
 O1086 O 0.48014 0.21578 0.79684
 O1087 O 0.55203 0.24589 0.72621
 O1088 O 0.54499 0.28046 0.72751
 O1089 O 0.50050 0.22310 0.69842
 O1090 O 0.46488 0.22658 0.70653
 O1091 O 0.52396 0.19611 0.75002
 O1092 O 0.51959 0.20425 0.78561
 Zr1093 Zr 0.52310 0.22434 0.76204
 O1094 O 0.50610 0.24212 0.78083
 Zr1095 Zr 0.48837 0.22443 0.72711
 O1096 O 0.46968 0.24166 0.74476
 Zr1097 Zr 0.52349 0.25820 0.72688
 O1098 O 0.50609 0.27720 0.74397
 Zr1099 Zr 0.47606 0.23746 0.77488
 O1100 O 0.49294 0.21816 0.75732
 Zr1101 Zr 0.51094 0.27150 0.77414
 O1102 O 0.52989 0.25381 0.75700
 Zr1103 Zr 0.47596 0.27109 0.73955
 O1104 O 0.49339 0.25386 0.72030
 O1105 O 0.51826 0.22896 0.73201
 O1106 O 0.48090 0.26689 0.76963
 C1107 C 0.56017 0.23219 0.73625
 C1108 C 0.51361 0.18782 0.73651
 C1109 C 0.51435 0.23279 0.68998
 C1110 C 0.43977 0.26369 0.76738
 C1111 C 0.48361 0.26496 0.81059
 C1112 C 0.48413 0.30728 0.76580
 H1113 H 0.50923 0.23910 0.79480
 H1114 H 0.50937 0.29076 0.74048
 H1115 H 0.52657 0.22049 0.72362
 H1116 H 0.45574 0.23844 0.74189
 H1117 H 0.45930 0.20420 0.76964
 H1118 H 0.45694 0.20517 0.73608
 H1119 H 0.53239 0.30043 0.76206
 H1120 H 0.55180 0.27942 0.74044
 H1121 H 0.46888 0.21655 0.80619
 H1122 H 0.53002 0.19419 0.78455
 H1123 H 0.48765 0.29938 0.71709
 H1124 H 0.51016 0.28004 0.69897
 H1125 H 0.55112 0.23883 0.78342
 H1126 H 0.53243 0.26027 0.80385
 H1127 H 0.46727 0.23843 0.69859
 H1128 H 0.44559 0.25973 0.71906
 O1129 O 0.19752 0.72223 0.49979
 O1130 O 0.20377 0.72532 0.46595
 O1131 O 0.24990 0.69661 0.52352
 O1132 O 0.28239 0.70300 0.52383
 O1133 O 0.22436 0.74661 0.55163
 O1134 O 0.22511 0.78057 0.54464
 O1135 O 0.30097 0.75101 0.47247
 O1136 O 0.29629 0.71776 0.47625
 O1137 O 0.25025 0.77409 0.44722
 O1138 O 0.21465 0.77193 0.45428
 O1139 O 0.27397 0.79986 0.49756
 O1140 O 0.27315 0.79291 0.53302
 O1141 O 0.30059 0.77419 0.49656
 O1142 O 0.29365 0.77168 0.53333
 O1143 O 0.25008 0.79971 0.47384
 O1144 O 0.21384 0.79174 0.47628
 O1145 O 0.27489 0.75159 0.44702
 O1146 O 0.26916 0.71625 0.45320
 O1147 O 0.19689 0.74581 0.52353
 O1148 O 0.20352 0.78049 0.52224
 O1149 O 0.24872 0.72380 0.55149
 O1150 O 0.28433 0.72779 0.54335
 O1151 O 0.22563 0.69636 0.50011
 O1152 O 0.22991 0.70434 0.46444
 Zr1153 Zr 0.22612 0.72451 0.48789
 O1154 O 0.24284 0.74244 0.46901
 Zr1155 Zr 0.26086 0.72520 0.52279
 O1156 O 0.27930 0.74259 0.50503
 Zr1157 Zr 0.22528 0.75849 0.52292
 O1158 O 0.24241 0.77766 0.50571
 Zr1159 Zr 0.27295 0.73818 0.47494
 O1160 O 0.25635 0.71873 0.49262
 Zr1161 Zr 0.23761 0.77177 0.47557
 O1162 O 0.21892 0.75390 0.49282
 Zr1163 Zr 0.27262 0.77195 0.51012
 O1164 O 0.25545 0.75457 0.52948
 O1165 O 0.23091 0.72931 0.51789
 O1166 O 0.26770 0.76756 0.48007
 C1167 C 0.18894 0.73195 0.51356
 C1168 C 0.23603 0.68827 0.51372
 C1169 C 0.23468 0.73323 0.55989
 C1170 C 0.30882 0.76506 0.48217
 C1171 C 0.26476 0.76524 0.43901
 C1172 C 0.26420 0.80782 0.48346
 H1173 H 0.23971 0.73930 0.45507
 H1174 H 0.23899 0.79119 0.50913
 H1175 H 0.22269 0.72077 0.52631
 H1176 H 0.29330 0.73960 0.50790
 H1177 H 0.29033 0.70528 0.48041
 H1178 H 0.29260 0.70637 0.51396
 H1179 H 0.21606 0.80069 0.48750
 H1180 H 0.19682 0.77942 0.50926
 H1181 H 0.28038 0.71713 0.44380
 H1182 H 0.21964 0.69412 0.46559
 H1183 H 0.26057 0.80020 0.53243
 H1184 H 0.23840 0.78052 0.55077
 H1185 H 0.19784 0.73844 0.46647
 H1186 H 0.21610 0.76015 0.44604
 H1187 H 0.28174 0.73960 0.55128
 H1188 H 0.30318 0.76113 0.53062
 O1189 O 0.19767 0.22431 1.00232
 O1190 O 0.20385 0.22760 0.96856
 O1191 O 0.25031 0.19870 1.02578
 O1192 O 0.28268 0.20531 1.02638
 O1193 O 0.22437 0.24840 1.05431
 O1194 O 0.22501 0.28240 1.04762
 O1195 O 0.30101 0.25356 0.97522
 O1196 O 0.29639 0.22035 0.97862
 O1197 O 0.25015 0.27679 0.95013
 O1198 O 0.21465 0.27453 0.95716
 O1199 O 0.27385 0.30223 1.00074
 O1200 O 0.27321 0.29511 1.03596
 O1201 O 0.30061 0.27658 0.99947
 O1202 O 0.29355 0.27372 1.03630
 O1203 O 0.24994 0.30222 0.97704
 O1204 O 0.21369 0.29402 0.97942
 O1205 O 0.27486 0.25437 0.94974
 O1206 O 0.26924 0.21895 0.95563
 O1207 O 0.19692 0.24774 1.02620
 O1208 O 0.20349 0.28247 1.02517
 O1209 O 0.24882 0.22569 1.05400
 O1210 O 0.28449 0.22997 1.04588
 O1211 O 0.22599 0.19851 1.00243
 O1212 O 0.23012 0.20683 0.96680
 Zr1213 Zr 0.22627 0.22677 0.99044
 O1214 O 0.24288 0.24493 0.97169
 Zr1215 Zr 0.26100 0.22737 1.02534
 O1216 O 0.27938 0.24492 1.00768
 Zr1217 Zr 0.22529 0.26050 1.02571
 O1218 O 0.24237 0.27985 1.00867
 Zr1219 Zr 0.27301 0.24072 0.97755
 O1220 O 0.25652 0.22109 0.99512
 Zr1221 Zr 0.23757 0.27420 0.97849
 O1222 O 0.21896 0.25611 0.99557
 Zr1223 Zr 0.27261 0.27421 1.01300
 O1224 O 0.25548 0.25667 1.03224
 O1225 O 0.23103 0.23137 1.02048
 O1226 O 0.26769 0.27005 0.98291
 C1227 C 0.18903 0.23392 1.01612
 C1228 C 0.23650 0.19035 1.01591
 C1229 C 0.23473 0.23500 1.06247
 C1230 C 0.30887 0.26751 0.98505
 C1231 C 0.26466 0.26802 0.94182
 C1232 C 0.26401 0.31029 0.98675
 H1233 H 0.23975 0.24189 0.95772
 H1234 H 0.23892 0.29335 1.01221
 H1235 H 0.22285 0.22272 1.02881
 H1236 H 0.29338 0.24193 1.01051
 H1237 H 0.29048 0.20782 0.98272
 H1238 H 0.29268 0.20858 1.01626
 H1239 H 0.21593 0.30296 0.99066
 H1240 H 0.19673 0.28141 1.01222
 H1241 H 0.28042 0.21996 0.94621
 H1242 H 0.21995 0.19651 0.96791
 H1243 H 0.26044 0.30207 1.03572
 H1244 H 0.23829 0.28234 1.05377
 H1245 H 0.19796 0.24074 0.96908
 H1246 H 0.21602 0.26272 0.94894
 H1247 H 0.28173 0.24160 1.05404
 H1248 H 0.30323 0.26336 1.03340
 C1249 C 0.28378 0.38507 0.78091
 C1250 C 0.30415 0.38192 0.78236
 C1251 C 0.31134 0.36443 0.78995
 C1252 C 0.29824 0.34982 0.79623
 C1253 C 0.27778 0.35299 0.79443
 C1254 C 0.27060 0.37053 0.78683
 C1255 C 0.27659 0.40364 0.77432
 C1256 C 0.27122 0.41959 0.76930
 H1257 H 0.31448 0.39314 0.77798
 H1258 H 0.32716 0.36258 0.79145
 H1259 H 0.26734 0.34194 0.79896
 H1260 H 0.25480 0.37284 0.78582
 C1261 C 0.28228 -0.11527 0.27997
 C1262 C 0.29311 -0.12793 0.26802
 C1263 C 0.30036 -0.14537 0.27579
 C1264 C 0.29695 -0.15052 0.29580
 C1265 C 0.28562 -0.13758 0.30747
 C1266 C 0.27844 -0.12021 0.29962
 C1267 C 0.27599 -0.09667 0.27261
 C1268 C 0.27101 -0.08068 0.26736
 H1269 H 0.29612 -0.12425 0.25271
 H1270 H 0.30819 -0.15491 0.26580
 H1271 H 0.28310 -0.14009 0.32306
 H1272 H 0.27029 -0.11037 0.30910
 C1273 C 0.78485 0.88847 0.78333
 C1274 C 0.79553 0.87589 0.77116
 C1275 C 0.80299 0.85846 0.77873
 C1276 C 0.79994 0.85318 0.79877
 C1277 C 0.78888 0.86610 0.81073
 C1278 C 0.78149 0.88348 0.80307
 C1279 C 0.77797 0.90689 0.77593
 C1280 C 0.77247 0.92261 0.77033
 H1281 H 0.79816 0.87958 0.75579
 H1282 H 0.81063 0.84896 0.76855
 H1283 H 0.78665 0.86351 0.82634
 H1284 H 0.77345 0.89325 0.81273
 C1285 C 0.46791 0.86395 0.28260
 C1286 C 0.46279 0.87895 0.26961
 C1287 C 0.45589 0.89665 0.27706
 C1288 C 0.45403 0.89951 0.29760
 C1289 C 0.45946 0.88439 0.31051
 C1290 C 0.46635 0.86675 0.30305
 C1291 C 0.47417 0.84540 0.27514
 C1292 C 0.47917 0.82953 0.26956
 H1293 H 0.46395 0.87692 0.25375
 H1294 H 0.45198 0.90808 0.26677
 H1295 H 0.45789 0.88602 0.32638
 H1296 H 0.47017 0.85518 0.31323
 C1297 C -0.03306 0.86307 0.78211
 C1298 C -0.02008 0.87780 0.78801
 C1299 C -0.02751 0.89533 0.79538
 C1300 C -0.04802 0.89830 0.79693
 C1301 C -0.06091 0.88341 0.79085
 C1302 C -0.05347 0.86594 0.78350
 C1303 C -0.02565 0.84468 0.77529
 C1304 C -0.02006 0.82893 0.76993
 H1305 H -0.00425 0.87570 0.78704
 H1306 H -0.01724 0.90659 0.79980
 H1307 H -0.07675 0.88510 0.79217
 H1308 H -0.06364 0.85457 0.77913
 C1309 C -0.03132 -0.11385 -0.03297
 C1310 C -0.05091 -0.11901 -0.02931
 C1311 C -0.05840 -0.13656 -0.03641
 C1312 C -0.04643 -0.14947 -0.04746
 C1313 C -0.02653 -0.14404 -0.05078
 C1314 C -0.01911 -0.12643 -0.04360
 C1315 C -0.02414 -0.09523 -0.02651
 C1316 C -0.01873 -0.07934 -0.02138
 H1317 H -0.06057 -0.10924 -0.02130
 H1318 H -0.07394 -0.13930 -0.03400
 H1319 H -0.01634 -0.15352 -0.05842
 H1320 H -0.00385 -0.12259 -0.04645
 C1321 C -0.03181 0.38433 0.46907
 C1322 C -0.04173 0.37129 0.48138
 C1323 C -0.04900 0.35379 0.47377
 C1324 C -0.04656 0.34896 0.45353
 C1325 C -0.03603 0.36223 0.44148
 C1326 C -0.02883 0.37966 0.44918
 C1327 C -0.02559 0.40298 0.47638
 C1328 C -0.02073 0.41899 0.48168
 H1329 H -0.04403 0.37471 0.49687
 H1330 H -0.05609 0.34398 0.48403
 H1331 H -0.03422 0.35991 0.42576
 H1332 H -0.02135 0.38978 0.43944
 C1333 C 0.46491 -0.11221 0.46754
 C1334 C 0.44507 -0.11708 0.47016
 C1335 C 0.43765 -0.13447 0.46254
 C1336 C 0.44994 -0.14746 0.45196
 C1337 C 0.47010 -0.14235 0.44978
 C1338 C 0.47744 -0.12493 0.45747
 C1339 C 0.47211 -0.09374 0.47442
 C1340 C 0.47760 -0.07796 0.47984
 H1341 H 0.43517 -0.10721 0.47774
 H1342 H 0.42197 -0.13701 0.46415
 H1343 H 0.48053 -0.15194 0.44264
 H1344 H 0.49289 -0.12134 0.45545
 C1345 C 0.46770 0.38626 -0.03204
 C1346 C 0.45740 0.37354 -0.01969
 C1347 C 0.44991 0.35609 -0.02719
 C1348 C 0.45251 0.35099 -0.04733
 C1349 C 0.46338 0.36395 -0.05942
 C1350 C 0.47081 0.38134 -0.05184
 C1351 C 0.47416 0.40486 -0.02484
 C1352 C 0.47918 0.42082 -0.01953
 H1353 H 0.45499 0.37717 -0.00427
 H1354 H 0.44253 0.34652 -0.01689
 H1355 H 0.46532 0.36143 -0.07509
 H1356 H 0.47856 0.39123 -0.06161
 C1357 C 0.78032 0.36499 0.46799
 C1358 C 0.78556 0.37993 0.48102
 C1359 C 0.79292 0.39749 0.47362
 C1360 C 0.79513 0.40026 0.45309
 C1361 C 0.78960 0.38520 0.44016
 C1362 C 0.78226 0.36771 0.44757
 C1363 C 0.77375 0.34648 0.47535
 C1364 C 0.76869 0.33054 0.48066
 H1365 H 0.78416 0.37795 0.49686
 H1366 H 0.79688 0.40889 0.48393
 H1367 H 0.79143 0.38675 0.42431
 H1368 H 0.77839 0.35619 0.43736
 C1369 C 0.78356 0.86536 -0.03101
 C1370 C 0.79459 0.87796 -0.01915
 C1371 C 0.80208 0.89524 -0.02705
 C1372 C 0.79872 0.90030 -0.04710
 C1373 C 0.78722 0.88741 -0.05869
 C1374 C 0.77980 0.87020 -0.05071
 C1375 C 0.77698 0.84690 -0.02349
 C1376 C 0.77181 0.83102 -0.01809
 H1377 H 0.79754 0.87436 -0.00382
 H1378 H 0.81005 0.90475 -0.01713
 H1379 H 0.78472 0.88983 -0.07430
 H1380 H 0.77150 0.86039 -0.06012
 C1381 C 0.77950 0.28601 0.38412
 C1382 C 0.78110 0.30607 0.38126
 C1383 C 0.78852 0.31339 0.36347
 C1384 C 0.79448 0.30071 0.34828
 C1385 C 0.79247 0.28056 0.35114
 C1386 C 0.78504 0.27327 0.36898
 C1387 C 0.77312 0.27864 0.40299
 C1388 C 0.76824 0.27305 0.41917
 H1389 H 0.77699 0.31605 0.39294
 H1390 H 0.79017 0.32894 0.36185
 H1391 H 0.79675 0.27046 0.33964
 H1392 H 0.78389 0.25771 0.37105
 C1393 C 0.78402 0.78637 -0.11416
 C1394 C 0.80446 0.78812 -0.11661
 C1395 C 0.81218 0.79563 -0.13416
 C1396 C 0.79955 0.80152 -0.14958
 C1397 C 0.77900 0.79958 -0.14707
 C1398 C 0.77129 0.79205 -0.12944
 C1399 C 0.77635 0.77944 -0.09560
 C1400 C 0.77076 0.77398 -0.07960
 H1401 H 0.81444 0.78391 -0.10481
 H1402 H 0.82803 0.79722 -0.13551
 H1403 H 0.76892 0.80381 -0.15876
 H1404 H 0.75543 0.79079 -0.12768
 C1405 C 0.28182 0.46492 0.86602
 C1406 C 0.28334 0.44490 0.86915
 C1407 C 0.29037 0.43777 0.88718
 C1408 C 0.29598 0.45060 0.90239
 C1409 C 0.29421 0.47072 0.89920
 C1410 C 0.28717 0.47782 0.88110
 C1411 C 0.27553 0.47205 0.84700
 C1412 C 0.27068 0.47745 0.83073
 H1413 H 0.27939 0.43478 0.85751
 H1414 H 0.29188 0.42223 0.88904
 H1415 H 0.29826 0.48093 0.91068
 H1416 H 0.28609 0.49336 0.87882
 C1417 C 0.28228 -0.03567 0.36459
 C1418 C 0.30196 -0.03244 0.36978
 C1419 C 0.30950 -0.03981 0.38749
 C1420 C 0.29748 -0.05072 0.40055
 C1421 C 0.27748 -0.05360 0.39510
 C1422 C 0.27002 -0.04616 0.37732
 C1423 C 0.27511 -0.02896 0.34573
 C1424 C 0.26990 -0.02360 0.32956
 H1425 H 0.31167 -0.02455 0.35988
 H1426 H 0.32509 -0.03771 0.39017
 H1427 H 0.26725 -0.06112 0.40471
 H1428 H 0.25469 -0.04870 0.37347
 C1429 C -0.03227 -0.03584 -0.11518
 C1430 C -0.02008 -0.04586 -0.12834
 C1431 C -0.02773 -0.05305 -0.14613
 C1432 C -0.04787 -0.05038 -0.15117
 C1433 C -0.05984 -0.03995 -0.13768
 C1434 C -0.05210 -0.03283 -0.11993
 C1435 C -0.02475 -0.02919 -0.09644
 C1436 C -0.01906 -0.02379 -0.08045
 H1437 H -0.00464 -0.04818 -0.12485
 H1438 H -0.01756 -0.06019 -0.15609
 H1439 H -0.07550 -0.03803 -0.14008
 H1440 H -0.06175 -0.02528 -0.10971
 C1441 C -0.03162 0.46337 0.38500
 C1442 C -0.03305 0.44331 0.38204
 C1443 C -0.04045 0.43602 0.36422
 C1444 C -0.04655 0.44871 0.34908
 C1445 C -0.04484 0.46886 0.35209
 C1446 C -0.03743 0.47613 0.36995
 C1447 C -0.02508 0.47067 0.40385
 C1448 C -0.02007 0.47623 0.42001
 H1449 H -0.02876 0.43330 0.39364
 H1450 H -0.04189 0.42045 0.36252
 H1451 H -0.04926 0.47897 0.34064
 H1452 H -0.03644 0.49169 0.37212
 C1453 C 0.46576 -0.03492 0.38701
 C1454 C 0.46026 -0.02212 0.37188
 C1455 C 0.45364 -0.02936 0.35369
 C1456 C 0.45248 -0.04951 0.35044
 C1457 C 0.45818 -0.06222 0.36572
 C1458 C 0.46477 -0.05496 0.38385
 C1459 C 0.47199 -0.02764 0.40597
 C1460 C 0.47701 -0.02205 0.42211
 H1461 H 0.46097 -0.00657 0.37418
 H1462 H 0.44952 -0.01922 0.34215
 H1463 H 0.45713 -0.07780 0.36380
 H1464 H 0.46888 -0.06500 0.39551
 C1465 C 0.46844 0.46562 -0.11560
 C1466 C 0.46722 0.44552 -0.11822
 C1467 C 0.46025 0.43787 -0.13604
 C1468 C 0.45439 0.45024 -0.15154
 C1469 C 0.45584 0.47046 -0.14885
 C1470 C 0.46283 0.47810 -0.13097
 C1471 C 0.47474 0.47323 -0.09679
 C1472 C 0.47965 0.47884 -0.08062
 H1473 H 0.47137 0.43573 -0.10636
 H1474 H 0.45898 0.42226 -0.13749
 H1475 H 0.45160 0.48034 -0.16058
 H1476 H 0.46368 0.49369 -0.12906
 C1477 C 0.46663 0.78769 0.36310
 C1478 C 0.46505 0.80776 0.36591
 C1479 C 0.45750 0.81511 0.38363
 C1480 C 0.45141 0.80248 0.39882
 C1481 C 0.45320 0.78232 0.39592
 C1482 C 0.46077 0.77498 0.37817
 C1483 C 0.47359 0.78026 0.34446
 C1484 C 0.47904 0.77444 0.32854
 H1485 H 0.46939 0.81772 0.35428
 H1486 H 0.45599 0.83068 0.38525
 H1487 H 0.44878 0.77225 0.40741
 H1488 H 0.46189 0.75942 0.37613
 C1489 C -0.03254 0.78570 0.86374
 C1490 C -0.05292 0.78700 0.86692
 C1491 C -0.06017 0.79399 0.88490
 C1492 C -0.04713 0.79981 0.90001
 C1493 C -0.02665 0.79837 0.89672
 C1494 C -0.01941 0.79134 0.87869
 C1495 C -0.02527 0.77899 0.84492
 C1496 C -0.01976 0.77357 0.82888
 H1497 H -0.06321 0.78279 0.85540
 H1498 H -0.07600 0.79524 0.88683
 H1499 H -0.01625 0.80259 0.90813
 H1500 H -0.00360 0.79041 0.87638
 C1501 C 0.38670 0.78576 0.28377
 C1502 C 0.38343 0.78753 0.30413
 C1503 C 0.36535 0.79446 0.31114
 C1504 C 0.35026 0.79973 0.29784
 C1505 C 0.35365 0.79784 0.27738
 C1506 C 0.37178 0.79088 0.27040
 C1507 C 0.40558 0.77910 0.27674
 C1508 C 0.42163 0.77373 0.27131
 H1509 H 0.39492 0.78373 0.31461
 H1510 H 0.36332 0.79607 0.32695
 H1511 H 0.34226 0.80164 0.26681
 H1512 H 0.37417 0.78958 0.25460
 C1513 C -0.11159 0.78742 0.78458
 C1514 C -0.12630 0.79355 0.77140
 C1515 C -0.14409 0.80110 0.77862
 C1516 C -0.14737 0.80257 0.79913
 C1517 C -0.13245 0.79640 0.81222
 C1518 C -0.11472 0.78888 0.80499
 C1519 C -0.09305 0.78006 0.77734
 C1520 C -0.07723 0.77417 0.77179
 H1521 H -0.12400 0.79253 0.75556
 H1522 H -0.15535 0.80561 0.76819
 H1523 H -0.13438 0.79766 0.82808
 H1524 H -0.10338 0.78434 0.81532
 C1525 C 0.86414 0.28439 0.46768
 C1526 C 0.87902 0.27162 0.46160
 C1527 C 0.89698 0.27889 0.45449
 C1528 C 0.90025 0.29905 0.45339
 C1529 C 0.88523 0.31173 0.45970
 C1530 C 0.86733 0.30444 0.46679
 C1531 C 0.84525 0.27714 0.47409
 C1532 C 0.82906 0.27172 0.47908
 H1533 H 0.87668 0.25607 0.46217
 H1534 H 0.90832 0.26878 0.44986
 H1535 H 0.88712 0.32731 0.45869
 H1536 H 0.85585 0.31447 0.47130
 C1537 C 0.86609 0.78442 -0.03148
 C1538 C 0.88100 0.77178 -0.03778
 C1539 C 0.89877 0.77921 -0.04520
 C1540 C 0.90179 0.79940 -0.04640
 C1541 C 0.88676 0.81194 -0.03982
 C1542 C 0.86906 0.80449 -0.03243
 C1543 C 0.84733 0.77706 -0.02487
 C1544 C 0.83118 0.77167 -0.01977
 H1545 H 0.87882 0.75621 -0.03716
 H1546 H 0.91013 0.76920 -0.04998
 H1547 H 0.88848 0.82754 -0.04087
 H1548 H 0.85756 0.81441 -0.02774
 C1549 C -0.11109 -0.03620 -0.03536
 C1550 C -0.12602 -0.04126 -0.02197
 C1551 C -0.14413 -0.04831 -0.02893
 C1552 C -0.14752 -0.05035 -0.04938
 C1553 C -0.13241 -0.04519 -0.06269
 C1554 C -0.11435 -0.03817 -0.05571
 C1555 C -0.09226 -0.02938 -0.02835
 C1556 C -0.07623 -0.02387 -0.02295
 H1557 H -0.12363 -0.03982 -0.00618
 H1558 H -0.15553 -0.05202 -0.01835
 H1559 H -0.13444 -0.04691 -0.07849
 H1560 H -0.10285 -0.03442 -0.06619
 C1561 C -0.11642 0.46602 0.46862
 C1562 C -0.12164 0.44673 0.47215
 C1563 C -0.13949 0.43936 0.46496
 C1564 C -0.15259 0.45117 0.45390
 C1565 C -0.14716 0.47081 0.45088
 C1566 C -0.12928 0.47809 0.45814
 C1567 C -0.09738 0.47303 0.47489
 C1568 C -0.08111 0.47828 0.47978
 H1569 H -0.11167 0.43718 0.48007
 H1570 H -0.14222 0.42407 0.46723
 H1571 H -0.15683 0.48088 0.44333
 H1572 H -0.12542 0.49313 0.45541
 C1573 C 0.38492 -0.03581 0.46746
 C1574 C 0.38249 -0.05590 0.46561
 C1575 C 0.36476 -0.06351 0.45841
 C1576 C 0.34919 -0.05110 0.45293
 C1577 C 0.35166 -0.03092 0.45510
 C1578 C 0.36943 -0.02333 0.46231
 C1579 C 0.40358 -0.02814 0.47402
 C1580 C 0.41952 -0.02224 0.47922
 H1581 H 0.39443 -0.06569 0.46946
 H1582 H 0.36342 -0.07908 0.45665
 H1583 H 0.33985 -0.02102 0.45120
 H1584 H 0.37116 -0.00775 0.46370
 C1585 C 0.38385 0.46734 -0.03106
 C1586 C 0.37902 0.44796 -0.02745
 C1587 C 0.36121 0.44029 -0.03437
 C1588 C 0.34771 0.45186 -0.04521
 C1589 C 0.35277 0.47158 -0.04838
 C1590 C 0.37064 0.47917 -0.04140
 C1591 C 0.40283 0.47464 -0.02497
 C1592 C 0.41910 0.47999 -0.02017
 H1593 H 0.38927 0.43859 -0.01966
 H1594 H 0.35878 0.42495 -0.03204
 H1595 H 0.34282 0.48146 -0.05582
 H1596 H 0.37420 0.49426 -0.04420
 C1597 C 0.36636 0.46492 0.78149
 C1598 C 0.38169 0.47749 0.78691
 C1599 C 0.39956 0.46997 0.79397
 C1600 C 0.40229 0.44978 0.79571
 C1601 C 0.38685 0.43730 0.78999
 C1602 C 0.36903 0.44483 0.78295
 C1603 C 0.34754 0.47245 0.77522
 C1604 C 0.33139 0.47804 0.77033
 H1605 H 0.37976 0.49307 0.78588
 H1606 H 0.41124 0.47993 0.79810
 H1607 H 0.38833 0.42172 0.79148
 H1608 H 0.35721 0.43498 0.77894
 C1609 C 0.36587 -0.03431 0.28168
 C1610 C 0.36892 -0.05437 0.28257
 C1611 C 0.38668 -0.06176 0.28989
 C1612 C 0.40168 -0.04915 0.29644
 C1613 C 0.39858 -0.02898 0.29529
 C1614 C 0.38075 -0.02161 0.28795
 C1615 C 0.34706 -0.02698 0.27517
 C1616 C 0.33092 -0.02153 0.27013
 H1617 H 0.35742 -0.06433 0.27792
 H1618 H 0.38845 -0.07735 0.29092
 H1619 H 0.40992 -0.01893 0.30007
 H1620 H 0.37851 -0.00604 0.28738
 C1621 C 0.13726 0.53483 0.71591
 C1622 C 0.12240 0.54054 0.72909
 C1623 C 0.10452 0.54790 0.72186
 C1624 C 0.10129 0.54962 0.70135
 C1625 C 0.11629 0.54371 0.68826
 C1626 C 0.13412 0.53638 0.69550
 C1627 C 0.15597 0.52788 0.72318
 C1628 C 0.17193 0.52231 0.72872
 H1629 H 0.12468 0.53943 0.74492
 H1630 H 0.09319 0.55216 0.73230
 H1631 H 0.11441 0.54515 0.67240
 H1632 H 0.14557 0.53212 0.68517
 C1633 C 0.13653 0.03496 0.21656
 C1634 C 0.12157 0.02209 0.21086
 C1635 C 0.10352 0.02923 0.20386
 C1636 C 0.10022 0.04936 0.20250
 C1637 C 0.11531 0.06216 0.20844
 C1638 C 0.13332 0.05500 0.21541
 C1639 C 0.15541 0.02777 0.22304
 C1640 C 0.17149 0.02218 0.22819
 H1641 H 0.12391 0.00655 0.21167
 H1642 H 0.09212 0.01903 0.19956
 H1643 H 0.11336 0.07772 0.20727
 H1644 H 0.14485 0.06509 0.21967
 C1645 C 0.61638 0.71727 0.21898
 C1646 C 0.61966 0.69723 0.21848
 C1647 C 0.63754 0.68992 0.21143
 C1648 C 0.65245 0.70257 0.20477
 C1649 C 0.64910 0.72272 0.20549
 C1650 C 0.63115 0.73002 0.21256
 C1651 C 0.59746 0.72448 0.22526
 C1652 C 0.58122 0.72983 0.23010
 H1653 H 0.60826 0.68723 0.22325
 H1654 H 0.63950 0.67433 0.21072
 H1655 H 0.66036 0.73281 0.20060
 H1656 H 0.62872 0.74556 0.21282
 C1657 C 0.11658 0.71544 0.71830
 C1658 C 0.11939 0.69536 0.71725
 C1659 C 0.13714 0.68782 0.71007
 C1660 C 0.15237 0.70029 0.70381
 C1661 C 0.14949 0.72049 0.70506
 C1662 C 0.13168 0.72801 0.71227
 C1663 C 0.09783 0.72295 0.72477
 C1664 C 0.08172 0.72855 0.72977
 H1665 H 0.10774 0.68549 0.72172
 H1666 H 0.13874 0.67221 0.70896
 H1667 H 0.16100 0.73044 0.70051
 H1668 H 0.12963 0.74359 0.71296
 C1669 C 0.63420 0.21556 0.53170
 C1670 C 0.63090 0.19554 0.53274
 C1671 C 0.61282 0.18842 0.53955
 C1672 C 0.59777 0.20126 0.54544
 C1673 C 0.60112 0.22138 0.54408
 C1674 C 0.61924 0.22848 0.53725
 C1675 C 0.65319 0.22270 0.52555
 C1676 C 0.66935 0.22823 0.52065
 H1677 H 0.64242 0.18541 0.52858
 H1678 H 0.61083 0.17286 0.54073
 H1679 H 0.58975 0.23161 0.54834
 H1680 H 0.62165 0.24401 0.53649
 C1681 C 0.63660 0.71577 0.03339
 C1682 C 0.63391 0.69567 0.03464
 C1683 C 0.61605 0.68808 0.04151
 C1684 C 0.60059 0.70051 0.04725
 C1685 C 0.60337 0.72071 0.04579
 C1686 C 0.62127 0.72829 0.03890
 C1687 C 0.65534 0.72340 0.02700
 C1688 C 0.67134 0.72921 0.02189
 H1689 H 0.64573 0.68585 0.03054
 H1690 H 0.61451 0.67248 0.04277
 H1691 H 0.59168 0.73064 0.04992
 H1692 H 0.62321 0.74388 0.03800
 C1693 C 0.11887 0.03267 0.02837
 C1694 C 0.12396 0.05203 0.02504
 C1695 C 0.14172 0.05944 0.03236
 C1696 C 0.15486 0.04761 0.04335
 C1697 C 0.14963 0.02788 0.04606
 C1698 C 0.13182 0.02055 0.03868
 C1699 C 0.09980 0.02571 0.02223
 C1700 C 0.08346 0.02049 0.01757
 H1701 H 0.11391 0.06161 0.01726
 H1702 H 0.14432 0.07479 0.03032
 H1703 H 0.15935 0.01780 0.05353
 H1704 H 0.12805 0.00547 0.04124
 C1705 C 0.11337 0.53425 0.53409
 C1706 C 0.11669 0.55429 0.53462
 C1707 C 0.13468 0.56157 0.54150
 C1708 C 0.14965 0.54888 0.54797
 C1709 C 0.14622 0.52874 0.54731
 C1710 C 0.12818 0.52148 0.54039
 C1711 C 0.09454 0.52698 0.52756
 C1712 C 0.07850 0.52138 0.52233
 H1713 H 0.10528 0.56430 0.52990
 H1714 H 0.13671 0.57715 0.54216
 H1715 H 0.15752 0.51862 0.55204
 H1716 H 0.12575 0.50593 0.54007
 C1717 C 0.61364 0.03572 0.53269
 C1718 C 0.61818 0.05530 0.52986
 C1719 C 0.63597 0.06292 0.53691
 C1720 C 0.64974 0.05109 0.54711
 C1721 C 0.64495 0.03120 0.54951
 C1722 C 0.62711 0.02367 0.54239
 C1723 C 0.59474 0.02834 0.52642
 C1724 C 0.57858 0.02275 0.52152
 H1725 H 0.60772 0.06484 0.52258
 H1726 H 0.63818 0.07838 0.53523
 H1727 H 0.65511 0.02116 0.55642
 H1728 H 0.62379 0.00843 0.54458
 C1729 C 0.61381 0.53595 0.03285
 C1730 C 0.61656 0.55603 0.03417
 C1731 C 0.63442 0.56355 0.04113
 C1732 C 0.64983 0.55106 0.04690
 C1733 C 0.64699 0.53086 0.04542
 C1734 C 0.62907 0.52337 0.03843
 C1735 C 0.59508 0.52841 0.02633
 C1736 C 0.57908 0.52265 0.02115
 H1737 H 0.60479 0.56590 0.03003
 H1738 H 0.63601 0.57914 0.04241
 H1739 H 0.65863 0.52090 0.04958
 H1740 H 0.62709 0.50778 0.03749
 C1741 C 0.03393 0.03315 0.11451
 C1742 C 0.04416 0.02130 0.12778
 C1743 C 0.05100 0.02884 0.14574
 C1744 C 0.04782 0.04855 0.15084
 C1745 C 0.03703 0.06014 0.13732
 C1746 C 0.03025 0.05251 0.11940
 C1747 C 0.02798 0.02584 0.09545
 C1748 C 0.02326 0.02035 0.07917
 H1749 H 0.04698 0.00622 0.12420
 H1750 H 0.05835 0.01892 0.15573
 H1751 H 0.03465 0.07546 0.13981
 H1752 H 0.02252 0.06190 0.10911
 C1753 C 0.03314 0.53526 0.61416
 C1754 C 0.03431 0.55536 0.61700
 C1755 C 0.04155 0.56286 0.63481
 C1756 C 0.04778 0.55033 0.65004
 C1757 C 0.04630 0.53014 0.64715
 C1758 C 0.03904 0.52267 0.62932
 C1759 C 0.02657 0.52768 0.59541
 C1760 C 0.02137 0.52177 0.57944
 H1761 H 0.02990 0.56524 0.60532
 H1762 H 0.04278 0.57845 0.63645
 H1763 H 0.05079 0.52014 0.65868
 H1764 H 0.03821 0.50709 0.62728
 C1765 C 0.52998 0.03063 0.61825
 C1766 C 0.51731 0.04029 0.63124
 C1767 C 0.52441 0.04734 0.64932
 C1768 C 0.54447 0.04494 0.65477
 C1769 C 0.55687 0.03468 0.64152
 C1770 C 0.54968 0.02768 0.62352
 C1771 C 0.52323 0.02465 0.59901
 C1772 C 0.51827 0.02001 0.58255
 H1773 H 0.50195 0.04255 0.62733
 H1774 H 0.51392 0.05429 0.65907
 H1775 H 0.57250 0.03293 0.64426
 H1776 H 0.55968 0.02040 0.61344
 C1777 C 0.53410 0.53552 0.11395
 C1778 C 0.53510 0.55557 0.11704
 C1779 C 0.54198 0.56289 0.13504
 C1780 C 0.54797 0.55024 0.15026
 C1781 C 0.54686 0.53007 0.14706
 C1782 C 0.53995 0.52277 0.12900
 C1783 C 0.52751 0.52821 0.09513
 C1784 C 0.52218 0.52262 0.07908
 H1785 H 0.53074 0.56557 0.10545
 H1786 H 0.54298 0.57848 0.13691
 H1787 H 0.55122 0.51998 0.15855
 H1788 H 0.53926 0.50721 0.12674
 C1789 C 0.21698 0.53504 0.63616
 C1790 C 0.21614 0.55507 0.63281
 C1791 C 0.20901 0.56223 0.61483
 C1792 C 0.20259 0.54942 0.59991
 C1793 C 0.20364 0.52930 0.60335
 C1794 C 0.21080 0.52216 0.62138
 C1795 C 0.22364 0.52784 0.65502
 C1796 C 0.22894 0.52222 0.67106
 H1797 H 0.22077 0.56517 0.64420
 H1798 H 0.20807 0.57779 0.61277
 H1799 H 0.19896 0.51909 0.59209
 H1800 H 0.21136 0.50663 0.62383
 C1801 C 0.21773 0.03450 0.13476
 C1802 C 0.19744 0.03563 0.13098
 C1803 C 0.19064 0.04255 0.11278
 C1804 C 0.20407 0.04844 0.09806
 C1805 C 0.22445 0.04723 0.10196
 C1806 C 0.23123 0.04028 0.12022
 C1807 C 0.22451 0.02784 0.15378
 C1808 C 0.22969 0.02244 0.16994
 H1809 H 0.18686 0.03133 0.14219
 H1810 H 0.17487 0.04367 0.11038
 H1811 H 0.23512 0.05155 0.09087
 H1812 H 0.24697 0.03949 0.12301
 C1813 C 0.71497 0.21569 0.61376
 C1814 C 0.70895 0.22839 0.62877
 C1815 C 0.70232 0.22104 0.64691
 C1816 C 0.70165 0.20087 0.65023
 C1817 C 0.70780 0.18826 0.63505
 C1818 C 0.71441 0.19563 0.61696
 C1819 C 0.72130 0.22305 0.59486
 C1820 C 0.72641 0.22870 0.57876
 H1821 H 0.70931 0.24395 0.62643
 H1822 H 0.69783 0.23110 0.65837
 H1823 H 0.70715 0.17267 0.63701
 H1824 H 0.71891 0.18567 0.60540
 C1825 C 0.71748 0.71580 0.11488
 C1826 C 0.71203 0.72875 0.12988
 C1827 C 0.70530 0.72169 0.14810
 C1828 C 0.70397 0.70157 0.15151
 C1829 C 0.70963 0.68870 0.13636
 C1830 C 0.71633 0.69579 0.11819
 C1831 C 0.72378 0.72293 0.09588
 C1832 C 0.72885 0.72849 0.07975
 H1833 H 0.71285 0.74428 0.12747
 H1834 H 0.70120 0.73194 0.15953
 H1835 H 0.70845 0.67315 0.13839
 H1836 H 0.72040 0.68564 0.10664
 C1837 C 0.53267 0.71617 0.13437
 C1838 C 0.53860 0.72862 0.11911
 C1839 C 0.54586 0.72096 0.10136
 C1840 C 0.54729 0.70073 0.09869
 C1841 C 0.54107 0.68838 0.11406
 C1842 C 0.53382 0.69606 0.13176
 C1843 C 0.52621 0.72384 0.15310
 C1844 C 0.52119 0.72955 0.16919
 H1845 H 0.53781 0.74422 0.12100
 H1846 H 0.55037 0.73083 0.08973
 H1847 H 0.54230 0.67277 0.11262
 H1848 H 0.52943 0.68629 0.14353
 C1849 C 0.03159 0.71615 0.63386
 C1850 C 0.03714 0.72858 0.61845
 C1851 C 0.04392 0.72090 0.60052
 C1852 C 0.04525 0.70067 0.59784
 C1853 C 0.03933 0.68833 0.61334
 C1854 C 0.03256 0.69603 0.63120
 C1855 C 0.02571 0.72380 0.65276
 C1856 C 0.02111 0.72941 0.66901
 H1857 H 0.03647 0.74418 0.62037
 H1858 H 0.04820 0.73075 0.58879
 H1859 H 0.04049 0.67272 0.61189
 H1860 H 0.02842 0.68628 0.64309
 C1861 C 0.53170 0.63690 0.21736
 C1862 C 0.53738 0.62222 0.23052
 C1863 C 0.54469 0.60459 0.22326
 C1864 C 0.54641 0.60148 0.20274
 C1865 C 0.54049 0.61629 0.18968
 C1866 C 0.53319 0.63385 0.19695
 C1867 C 0.52518 0.65548 0.22456
 C1868 C 0.52014 0.67144 0.22982
 H1869 H 0.53634 0.62446 0.24636
 H1870 H 0.54898 0.59340 0.23367
 H1871 H 0.54195 0.61450 0.17382
 H1872 H 0.52900 0.64518 0.18663
 C1873 C 0.03402 0.63657 0.71790
 C1874 C 0.05444 0.63375 0.71646
 C1875 C 0.06194 0.61628 0.70912
 C1876 C 0.04910 0.60133 0.70308
 C1877 C 0.02858 0.60421 0.70481
 C1878 C 0.02110 0.62173 0.71216
 C1879 C 0.02653 0.65505 0.72445
 C1880 C 0.02098 0.67093 0.72951
 H1881 H 0.06458 0.64519 0.72071
 H1882 H 0.07779 0.61467 0.70768
 H1883 H 0.01833 0.59291 0.70046
 H1884 H 0.00527 0.62377 0.71316
 C1885 C 0.03291 0.11365 0.03105
 C1886 C 0.03929 0.12816 0.01801
 C1887 C 0.04595 0.14600 0.02540
 C1888 C 0.04629 0.14951 0.04593
 C1889 C 0.03973 0.13483 0.05885
 C1890 C 0.03310 0.11707 0.05145
 C1891 C 0.02682 0.09494 0.02377
 C1892 C 0.02203 0.07890 0.01848
 H1893 H 0.03925 0.12565 0.00218
 H1894 H 0.05076 0.15706 0.01508
 H1895 H 0.04014 0.13693 0.07474
 H1896 H 0.02835 0.10589 0.06169
 C1897 C 0.03245 0.61191 0.53288
 C1898 C 0.03856 0.62624 0.51952
 C1899 C 0.04557 0.64409 0.52651
 C1900 C 0.04651 0.64781 0.54698
 C1901 C 0.04025 0.63331 0.56025
 C1902 C 0.03328 0.61551 0.55324
 C1903 C 0.02587 0.59325 0.52591
 C1904 C 0.02064 0.57733 0.52065
 H1905 H 0.03802 0.62358 0.50372
 H1906 H 0.05014 0.65503 0.51594
 H1907 H 0.04113 0.63556 0.57609
 H1908 H 0.02874 0.60447 0.56372
 C1909 C 0.52982 0.11463 0.53291
 C1910 C 0.51695 0.12941 0.53887
 C1911 C 0.52452 0.14715 0.54560
 C1912 C 0.54506 0.15026 0.54643
 C1913 C 0.55782 0.13532 0.54025
 C1914 C 0.55024 0.11767 0.53354
 C1915 C 0.52237 0.09601 0.52680
 C1916 C 0.51705 0.08001 0.52194
 H1917 H 0.50111 0.12719 0.53847
 H1918 H 0.51433 0.15843 0.55012
 H1919 H 0.57369 0.13711 0.54106
 H1920 H 0.56033 0.10626 0.52911
 C1921 C 0.53388 0.61289 0.03305
 C1922 C 0.55428 0.61587 0.03447
 C1923 C 0.56164 0.63357 0.04136
 C1924 C 0.54869 0.64857 0.04696
 C1925 C 0.52819 0.64551 0.04529
 C1926 C 0.52085 0.62776 0.03837
 C1927 C 0.52648 0.59432 0.02668
 C1928 C 0.52085 0.57848 0.02159
 H1929 H 0.56450 0.60441 0.03051
 H1930 H 0.57748 0.63535 0.04278
 H1931 H 0.51786 0.65684 0.04929
 H1932 H 0.50503 0.62560 0.03733
 C1933 C 0.71589 0.13784 0.53299
 C1934 C 0.70610 0.12497 0.52037
 C1935 C 0.69887 0.10731 0.52761
 C1936 C 0.70124 0.10211 0.54777
 C1937 C 0.71151 0.11528 0.56016
 C1938 C 0.71867 0.13290 0.55283
 C1939 C 0.72241 0.15648 0.52588
 C1940 C 0.72758 0.17237 0.52046
 H1941 H 0.70398 0.12860 0.50491
 H1942 H 0.69198 0.09761 0.51709
 H1943 H 0.71321 0.11268 0.57585
 H1944 H 0.72604 0.14287 0.56281
 C1945 C 0.71641 0.63866 0.03263
 C1946 C 0.69603 0.63563 0.03407
 C1947 C 0.68872 0.61790 0.04094
 C1948 C 0.70174 0.60292 0.04648
 C1949 C 0.72222 0.60603 0.04478
 C1950 C 0.72950 0.62380 0.03789
 C1951 C 0.72374 0.65728 0.02636
 C1952 C 0.72935 0.67316 0.02141
 H1953 H 0.68577 0.64708 0.03015
 H1954 H 0.67290 0.61609 0.04238
 H1955 H 0.73259 0.59471 0.04876
 H1956 H 0.74531 0.62601 0.03685
 C1957 C 0.21831 0.61231 0.71731
 C1958 C 0.23149 0.62689 0.71147
 C1959 C 0.22431 0.64469 0.70452
 C1960 C 0.20384 0.64810 0.70335
 C1961 C 0.19075 0.63338 0.70942
 C1962 C 0.19795 0.61564 0.71634
 C1963 C 0.22547 0.59367 0.72371
 C1964 C 0.23087 0.57775 0.72879
 H1965 H 0.24728 0.62445 0.71214
 H1966 H 0.23474 0.65580 0.70012
 H1967 H 0.17492 0.63542 0.70837
 H1968 H 0.18761 0.60441 0.72070
 C1969 C 0.21644 0.11231 0.21799
 C1970 C 0.22963 0.12711 0.21281
 C1971 C 0.22247 0.14498 0.20603
 C1972 C 0.20201 0.14822 0.20437
 C1973 C 0.18890 0.13329 0.20980
 C1974 C 0.19608 0.11548 0.21656
 C1975 C 0.22363 0.09362 0.22419
 C1976 C 0.22911 0.07769 0.22911
 H1977 H 0.24543 0.12480 0.21385
 H1978 H 0.23291 0.15626 0.20212
 H1979 H 0.17309 0.13521 0.20837
 H1980 H 0.18574 0.10407 0.22041
 C1981 C 0.71974 1.11534 0.71807
 C1982 C 0.71000 1.12821 0.73070
 C1983 C 0.70255 1.14575 0.72339
 C1984 C 0.70462 1.15079 0.70317
 C1985 C 0.71500 1.13770 0.69080
 C1986 C 0.72238 1.12021 0.69820
 C1987 C 0.72603 1.09661 0.72508
 C1988 C 0.73086 1.08055 0.73024
 H1989 H 0.70796 1.12462 0.74618
 H1990 H 0.69559 1.15543 0.73387
 H1991 H 0.71652 1.14017 0.67508
 H1992 H 0.72971 1.11022 0.68822
 C1993 C 0.71926 0.61551 0.21912
 C1994 C 0.69890 0.61885 0.21853
 C1995 C 0.69158 0.63650 0.21153
 C1996 C 0.70456 0.65112 0.20501
 C1997 C 0.72505 0.64774 0.20587
 C1998 C 0.73235 0.63002 0.21289
 C1999 C 0.72645 0.59682 0.22528
 C2000 C 0.73164 0.58075 0.23003
 H2001 H 0.68864 0.60765 0.22315
 H2002 H 0.67574 0.63850 0.21071
 H2003 H 0.73539 0.65878 0.20111
 H2004 H 0.74815 0.62755 0.21324
 C2005 C 0.52987 0.13346 0.71922
 C2006 C 0.53579 0.11906 0.73261
 C2007 C 0.54283 0.10123 0.72562
 C2008 C 0.54403 0.09760 0.70515
 C2009 C 0.53790 0.11214 0.69186
 C2010 C 0.53087 0.12991 0.69886
 C2011 C 0.52359 0.15222 0.72614
 C2012 C 0.51875 0.16830 0.73126
 H2013 H 0.53515 0.12169 0.74840
 H2014 H 0.54734 0.09027 0.73620
 H2015 H 0.53900 0.10996 0.67603
 H2016 H 0.52650 0.14101 0.68837
 C2017 C 1.03159 0.13496 0.21745
 C2018 C 1.05204 0.13245 0.21597
 C2019 C 1.05978 0.11506 0.20873
 C2020 C 1.04717 0.09988 0.20285
 C2021 C 1.02660 0.10244 0.20458
 C2022 C 1.01887 0.11990 0.21183
 C2023 C 1.02389 0.15335 0.22401
 C2024 C 1.01829 0.16919 0.22913
 H2025 H 1.06201 0.14406 0.22013
 H2026 H 1.07565 0.11367 0.20730
 H2027 H 1.01653 0.09095 0.20036
 H2028 H 1.00301 0.12171 0.21288
 C2029 C 0.21796 0.63451 0.53096
 C2030 C 0.19754 0.63169 0.53212
 C2031 C 0.18995 0.61433 0.53957
 C2032 C 0.20270 0.59948 0.54599
 C2033 C 0.22324 0.60233 0.54455
 C2034 C 0.23082 0.61977 0.53708
 C2035 C 0.22545 0.65294 0.52434
 C2036 C 0.23081 0.66884 0.51922
 H2037 H 0.18745 0.64307 0.52757
 H2038 H 0.17408 0.61274 0.54081
 H2039 H 0.23342 0.59110 0.54922
 H2040 H 0.24667 0.62183 0.53630
 C2041 C 0.21967 0.13586 1.03208
 C2042 C 0.23284 0.12163 1.03877
 C2043 C 0.22569 0.10375 1.04557
 C2044 C 0.20525 0.09995 1.04574
 C2045 C 0.19219 0.11436 1.03888
 C2046 C 0.19936 0.13215 1.03210
 C2047 C 0.22665 0.15464 1.02592
 C2048 C 0.23162 0.17076 1.02110
 H2049 H 0.24860 0.12439 1.03888
 H2050 H 0.23610 0.09290 1.05062
 H2051 H 0.17637 0.11204 1.03917
 H2052 H 0.18902 0.14313 1.02713
 C2053 C 0.21837 0.71467 0.61480
 C2054 C 0.21711 0.69460 0.61773
 C2055 C 0.21021 0.68719 0.63569
 C2056 C 0.20444 0.69978 0.65103
 C2057 C 0.20594 0.71996 0.64804
 C2058 C 0.21286 0.72735 0.63002
 C2059 C 0.22458 0.72206 0.59586
 C2060 C 0.22942 0.72757 0.57963
 H2061 H 0.22119 0.68465 0.60599
 H2062 H 0.20891 0.67161 0.63737
 H2063 H 0.20177 0.73001 0.65963
 H2064 H 0.21373 0.74292 0.62790
 C2065 C 0.21803 0.21586 1.11702
 C2066 C 0.21209 0.22835 1.13223
 C2067 C 0.20486 0.22074 1.15003
 C2068 C 0.20347 0.20053 1.15278
 C2069 C 0.20968 0.18813 1.13745
 C2070 C 0.21690 0.19575 1.11972
 C2071 C 0.22445 0.22346 1.09825
 C2072 C 0.22941 0.22913 1.08212
 H2073 H 0.21286 0.24394 1.13027
 H2074 H 0.20034 0.23065 1.16162
 H2075 H 0.20846 0.17252 1.13895
 H2076 H 0.22129 0.18595 1.10798
 C2077 C 0.71814 0.53560 0.13401
 C2078 C 0.71211 0.52308 0.11885
 C2079 C 0.70472 0.53066 0.10109
 C2080 C 0.70328 0.55087 0.09833
 C2081 C 0.70959 0.56329 0.11361
 C2082 C 0.71695 0.55570 0.13130
 C2083 C 0.72474 0.52802 0.15274
 C2084 C 0.72986 0.52238 0.16883
 H2085 H 0.71291 0.50749 0.12081
 H2086 H 0.70014 0.52074 0.08953
 H2087 H 0.70834 0.57890 0.11210
 H2088 H 0.72143 0.56552 0.14301
 C2089 C 0.71611 1.03530 0.63507
 C2090 C 0.71484 1.05541 0.63245
 C2091 C 0.70759 1.06306 0.61474
 C2092 C 0.70150 1.05069 0.59932
 C2093 C 0.70298 1.03047 0.60201
 C2094 C 0.71024 1.02284 0.61979
 C2095 C 0.72280 1.02768 0.65375
 C2096 C 0.72808 1.02203 0.66980
 H2097 H 0.71920 1.06520 0.64423
 H2098 H 0.70634 1.07867 0.61327
 H2099 H 0.69856 1.02059 0.59035
 H2100 H 0.71113 1.00724 0.62168
 C2101 C 0.53191 0.21610 0.63491
 C2102 C 0.51865 0.21051 0.62005
 C2103 C 0.52574 0.20353 0.60195
 C2104 C 0.54620 0.20206 0.59852
 C2105 C 0.55936 0.20787 0.61352
 C2106 C 0.55226 0.21484 0.63156
 C2107 C 0.52486 0.22243 0.65392
 C2108 C 0.51966 0.22738 0.67021
 H2109 H 0.50287 0.21139 0.62252
 H2110 H 0.51526 0.19930 0.59062
 H2111 H 0.57518 0.20658 0.61150
 H2112 H 0.56264 0.21898 0.64302
 C2113 C 1.02896 0.21624 0.13311
 C2114 C 1.03894 0.22850 0.12004
 C2115 C 1.04622 0.22129 0.10212
 C2116 C 1.04376 0.20152 0.09689
 C2117 C 1.03310 0.18954 0.11016
 C2118 C 1.02587 0.19683 0.12803
 C2119 C 1.02286 0.22314 0.15225
 C2120 C 1.01817 0.22830 0.16863
 H2121 H 1.04130 0.24362 0.12378
 H2122 H 1.05340 0.23149 0.09231
 H2123 H 1.03124 0.17416 0.10754
 H2124 H 1.01833 0.18714 0.13816
 C2125 C 0.61493 0.21432 0.71910
 C2126 C 0.61834 0.19432 0.71804
 C2127 C 0.63622 0.18729 0.71066
 C2128 C 0.65101 0.20019 0.70423
 C2129 C 0.64753 0.22030 0.70550
 C2130 C 0.62959 0.22731 0.71290
 C2131 C 0.59603 0.22132 0.72572
 C2132 C 0.57984 0.22661 0.73082
 H2133 H 0.60703 0.18413 0.72263
 H2134 H 0.63828 0.17174 0.70952
 H2135 H 0.65869 0.23057 0.70078
 H2136 H 0.62708 0.24283 0.71359
 C2137 C 1.11391 0.21465 0.21817
 C2138 C 1.11688 0.19461 0.21683
 C2139 C 1.13484 0.18731 0.20992
 C2140 C 1.15013 0.19999 0.20425
 C2141 C 1.14706 0.22014 0.20577
 C2142 C 1.12904 0.22743 0.21269
 C2143 C 1.09501 0.22191 0.22449
 C2144 C 1.07882 0.22730 0.22944
 H2145 H 1.10521 0.18460 0.22087
 H2146 H 1.13658 0.17174 0.20859
 H2147 H 1.15861 0.23025 0.20166
 H2148 H 1.12687 0.24298 0.21363
 C2149 C 0.13441 0.71425 0.53159
 C2150 C 0.11973 0.70791 0.51848
 C2151 C 0.10180 0.70076 0.52580
 C2152 C 0.09836 0.69990 0.54633
 C2153 C 0.11321 0.70639 0.55933
 C2154 C 0.13107 0.71351 0.55200
 C2155 C 0.15321 0.72090 0.52435
 C2156 C 0.16933 0.72617 0.51902
 H2157 H 0.12219 0.70836 0.50264
 H2158 H 0.09060 0.69600 0.51543
 H2159 H 0.11118 0.70557 0.57521
 H2160 H 0.14239 0.71822 0.56229
 C2161 C 0.13424 0.21612 1.03331
 C2162 C 0.11971 0.21022 1.01983
 C2163 C 0.10161 0.20303 1.02669
 C2164 C 0.09786 0.20168 1.04714
 C2165 C 0.11256 0.20772 1.06053
 C2166 C 0.13059 0.21488 1.05365
 C2167 C 0.15319 0.22282 1.02649
 C2168 C 0.16938 0.22812 1.02141
 H2169 H 0.12240 0.21105 1.00405
 H2170 H 0.09053 0.19859 1.01604
 H2171 H 0.11029 0.20650 1.07635
 H2172 H 0.14179 0.21925 1.06422
 C2173 C 0.63525 0.53561 0.21831
 C2174 C 0.63212 0.55567 0.21745
 C2175 C 0.61426 0.56302 0.21030
 C2176 C 0.59922 0.55039 0.20389
 C2177 C 0.60240 0.53022 0.20504
 C2178 C 0.62031 0.52289 0.21220
 C2179 C 0.65413 0.52827 0.22465
 C2180 C 0.67031 0.52275 0.22956
 H2181 H 0.64364 0.56565 0.22200
 H2182 H 0.61243 0.57861 0.20929
 H2183 H 0.59104 0.52013 0.20037
 H2184 H 0.62259 0.50733 0.21276
 C2185 C 0.63389 1.03370 0.71992
 C2186 C 0.61928 1.03975 0.73323
 C2187 C 0.60107 1.04645 0.72615
 C2188 C 0.59729 1.04713 0.70567
 C2189 C 0.61210 1.04099 0.69248
 C2190 C 0.63023 1.03432 0.69957
 C2191 C 0.65293 1.02739 0.72685
 C2192 C 0.66925 1.02234 0.73179
 H2193 H 0.62200 1.03938 0.74904
 H2194 H 0.58991 1.05097 0.73666
 H2195 H 0.60981 1.04169 0.67663
 H2196 H 0.64149 1.02983 0.68913
 C2197 C 0.86423 0.46530 0.28351
 C2198 C 0.86677 0.44519 0.28469
 C2199 C 0.88451 0.43746 0.29169
 C2200 C 0.90002 0.44977 0.29762
 C2201 C 0.89738 0.47000 0.29632
 C2202 C 0.87957 0.47771 0.28930
 C2203 C 0.84563 0.47302 0.27687
 C2204 C 0.82971 0.47887 0.27155
 H2205 H 0.85494 0.43545 0.28039
 H2206 H 0.88595 0.42184 0.29284
 H2207 H 0.90910 0.47983 0.30063
 H2208 H 0.87774 0.49331 0.28847
 C2209 C 0.86402 0.96464 0.78244
 C2210 C 0.87926 0.97727 0.78795
 C2211 C 0.89711 0.96983 0.79514
 C2212 C 0.89989 0.94966 0.79691
 C2213 C 0.88453 0.93711 0.79113
 C2214 C 0.86673 0.94456 0.78396
 C2215 C 0.84530 0.97212 0.77586
 C2216 C 0.82931 0.97790 0.77069
 H2217 H 0.87729 0.99284 0.78684
 H2218 H 0.90874 0.97984 0.79928
 H2219 H 0.88610 0.92153 0.79260
 H2220 H 0.85498 0.93466 0.77985
 C2221 C 0.38561 0.28220 0.78571
 C2222 C 0.37081 0.28755 0.77229
 C2223 C 0.35293 0.29515 0.77919
 C2224 C 0.34965 0.29749 0.79963
 C2225 C 0.36457 0.29189 0.81298
 C2226 C 0.38241 0.28432 0.80605
 C2227 C 0.40438 0.27521 0.77872
 C2228 C 0.42039 0.26972 0.77330
 H2229 H 0.37316 0.28601 0.75651
 H2230 H 0.34166 0.29916 0.76858
 H2231 H 0.36264 0.29381 0.82877
 H2232 H 0.39382 0.28036 0.81656
 C2233 C 0.88477 0.28324 0.28441
 C2234 C 0.88122 0.28471 0.30475
 C2235 C 0.86342 0.29245 0.31160
 C2236 C 0.84890 0.29884 0.29818
 C2237 C 0.85255 0.29718 0.27774
 C2238 C 0.87038 0.28942 0.27091
 C2239 C 0.90351 0.27607 0.27752
 C2240 C 0.91949 0.27046 0.27214
 H2241 H 0.89232 0.28012 0.31532
 H2242 H 0.86121 0.29384 0.32741
 H2243 H 0.84158 0.30181 0.26706
 H2244 H 0.87301 0.28839 0.25513
 C2245 C 0.36240 0.78549 0.46415
 C2246 C 0.36491 0.80564 0.46331
 C2247 C 0.38261 0.81352 0.45636
 C2248 C 0.39808 0.80134 0.45011
 C2249 C 0.39546 0.78109 0.45110
 C2250 C 0.37772 0.77322 0.45808
 C2251 C 0.34386 0.77758 0.47078
 C2252 C 0.32803 0.77152 0.47613
 H2253 H 0.35310 0.81527 0.46786
 H2254 H 0.38404 0.82916 0.45549
 H2255 H 0.40717 0.77135 0.44657
 H2256 H 0.37593 0.75760 0.45865
 C2257 C 0.36291 0.28686 0.96715
 C2258 C 0.36597 0.30690 0.96579
 C2259 C 0.38387 0.31413 0.95862
 C2260 C 0.39900 0.30138 0.95270
 C2261 C 0.39583 0.28124 0.95424
 C2262 C 0.37789 0.27403 0.96143
 C2263 C 0.34414 0.27956 0.97384
 C2264 C 0.32817 0.27383 0.97915
 H2265 H 0.35442 0.31695 0.97004
 H2266 H 0.38571 0.32969 0.95729
 H2267 H 0.40726 0.27109 0.94993
 H2268 H 0.37566 0.25849 0.96239
 C2269 C 0.78365 0.46524 0.36355
 C2270 C 0.78474 0.44522 0.36681
 C2271 C 0.79140 0.43808 0.38498
 C2272 C 0.79708 0.45090 0.40018
 C2273 C 0.79585 0.47102 0.39680
 C2274 C 0.78917 0.47814 0.37859
 C2275 C 0.77733 0.47239 0.34457
 C2276 C 0.77226 0.47795 0.32843
 H2277 H 0.78063 0.43511 0.35523
 H2278 H 0.79250 0.42252 0.38699
 H2279 H 0.79997 0.48123 0.40828
 H2280 H 0.78840 0.49368 0.37620
 C2281 C 0.78425 0.96513 0.86378
 C2282 C 0.78470 0.94507 0.86701
 C2283 C 0.79189 0.93768 0.88486
 C2284 C 0.79875 0.95026 0.89976
 C2285 C 0.79802 0.97043 0.89648
 C2286 C 0.79082 0.97781 0.87857
 C2287 C 0.77767 0.97251 0.84499
 C2288 C 0.77241 0.97819 0.82895
 H2289 H 0.77977 0.93513 0.85560
 H2290 H 0.79254 0.92208 0.88682
 H2291 H 0.80302 0.98048 0.90774
 H2292 H 0.79054 0.99336 0.87621
 C2293 C 0.28208 0.78451 0.38471
 C2294 C 0.28265 0.80456 0.38149
 C2295 C 0.28984 0.81192 0.36363
 C2296 C 0.29657 0.79930 0.34871
 C2297 C 0.29572 0.77914 0.35198
 C2298 C 0.28851 0.77180 0.36989
 C2299 C 0.27557 0.77715 0.40353
 C2300 C 0.27045 0.77145 0.41959
 H2301 H 0.27783 0.81453 0.39291
 H2302 H 0.29060 0.82751 0.36168
 H2303 H 0.30062 0.76907 0.34070
 H2304 H 0.28814 0.75624 0.37225
 C2305 C 0.28165 0.28673 0.88717
 C2306 C 0.28309 0.30670 0.88368
 C2307 C 0.29030 0.31353 0.86558
 C2308 C 0.29619 0.30043 0.85073
 C2309 C 0.29439 0.28037 0.85427
 C2310 C 0.28717 0.27358 0.87239
 C2311 C 0.27522 0.27980 0.90620
 C2312 C 0.27021 0.27426 0.92236
 H2313 H 0.27897 0.31701 0.89506
 H2314 H 0.29178 0.32903 0.86343
 H2315 H 0.29862 0.26995 0.84305
 H2316 H 0.28612 0.25808 0.87495
 C2317 C 0.46551 0.28498 0.86438
 C2318 C 0.45909 0.27251 0.87943
 C2319 C 0.45193 0.28015 0.89724
 C2320 C 0.45114 0.30036 0.90019
 C2321 C 0.45774 0.31273 0.88499
 C2322 C 0.46487 0.30508 0.86723
 C2323 C 0.47224 0.27731 0.84576
 C2324 C 0.47762 0.27139 0.82986
 H2325 H 0.45950 0.25692 0.87737
 H2326 H 0.44711 0.27026 0.90873
 H2327 H 0.45702 0.32835 0.88667
 H2328 H 0.46967 0.31487 0.85563
 C2329 C 0.96545 0.28448 0.36380
 C2330 C 0.95934 0.27172 0.37872
 C2331 C 0.95250 0.27899 0.39681
 C2332 C 0.95171 0.29914 0.40019
 C2333 C 0.95802 0.31182 0.38511
 C2334 C 0.96483 0.30452 0.36707
 C2335 C 0.97188 0.27716 0.34490
 C2336 C 0.97703 0.27148 0.32883
 H2337 H 0.95974 0.25617 0.37633
 H2338 H 0.94792 0.26887 0.40818
 H2339 H 0.95729 0.32740 0.38712
 H2340 H 0.96941 0.31454 0.35558
 C2341 C 0.46732 0.36136 0.78353
 C2342 C 0.46188 0.37589 0.77010
 C2343 C 0.45515 0.39386 0.77702
 C2344 C 0.45378 0.39748 0.79747
 C2345 C 0.45945 0.38281 0.81082
 C2346 C 0.46616 0.36490 0.80388
 C2347 C 0.47355 0.34258 0.77660
 C2348 C 0.47853 0.32659 0.77136
 H2349 H 0.46271 0.37329 0.75430
 H2350 H 0.45106 0.40492 0.76639
 H2351 H 0.45825 0.38502 0.82665
 H2352 H 0.47021 0.35371 0.81441
 C2353 C 0.96517 0.36159 0.28208
 C2354 C 0.97854 0.37613 0.28760
 C2355 C 0.97159 0.39391 0.29480
 C2356 C 0.95117 0.39733 0.29655
 C2357 C 0.93789 0.38267 0.29078
 C2358 C 0.94485 0.36494 0.28360
 C2359 C 0.97214 0.34295 0.27553
 C2360 C 0.97746 0.32704 0.27039
 H2361 H 0.99430 0.37366 0.28651
 H2362 H 0.98216 0.40498 0.29896
 H2363 H 0.92210 0.38472 0.29227
 H2364 H 0.93438 0.35373 0.27951
 C2365 C 0.28286 0.86128 0.46555
 C2366 C 0.30325 0.86432 0.46432
 C2367 C 0.31062 0.88195 0.45729
 C2368 C 0.29768 0.89686 0.45138
 C2369 C 0.27718 0.89370 0.45272
 C2370 C 0.26982 0.87601 0.45978
 C2371 C 0.27550 0.84279 0.47223
 C2372 C 0.26998 0.82699 0.47755
 H2373 H 0.31348 0.85296 0.46860
 H2374 H 0.32646 0.88379 0.45612
 H2375 H 0.26686 0.90495 0.44843
 H2376 H 0.25400 0.87379 0.46064
 C2377 C 0.28228 0.36411 0.96962
 C2378 C 0.30264 0.36739 0.96864
 C2379 C 0.30989 0.38506 0.96157
 C2380 C 0.29683 0.39975 0.95536
 C2381 C 0.27635 0.39641 0.95660
 C2382 C 0.26913 0.37868 0.96369
 C2383 C 0.27506 0.34549 0.97605
 C2384 C 0.26965 0.32958 0.98112
 H2385 H 0.31295 0.35616 0.97307
 H2386 H 0.32572 0.38706 0.96050
 H2387 H 0.26594 0.40750 0.95210
 H2388 H 0.25333 0.37628 0.96436
 C2389 C 0.78448 0.38782 0.28116
 C2390 C 0.80478 0.38451 0.28310
 C2391 C 0.81166 0.36674 0.29032
 C2392 C 0.79830 0.35201 0.29574
 C2393 C 0.77792 0.35539 0.29349
 C2394 C 0.77106 0.37319 0.28625
 C2395 C 0.77752 0.40651 0.27465
 C2396 C 0.77210 0.42243 0.26958
 H2397 H 0.81530 0.39578 0.27933
 H2398 H 0.82742 0.36472 0.29217
 H2399 H 0.76729 0.34427 0.29735
 H2400 H 0.75531 0.37561 0.28482
   
