data_POSCAR
  _audit_creation_date              2014-09-24
  _audit_creation_method            'ToBaCCo'
  _symmetry_space_group_name_H-M    'P1'
  _symmetry_Int_Tables_number       1
  _symmetry_cell_setting            triclinic
  loop_
  _symmetry_equiv_pos_as_xyz
 x,y,z
_cell_length_a 66.6813
_cell_length_b 64.4192
_cell_length_c 62.8725
_cell_angle_alpha 91.603000
_cell_angle_beta 89.847800
_cell_angle_gamma 90.149200
loop_
  _atom_site_label
  _atom_site_type_symbol
  _atom_site_fract_x
  _atom_site_fract_y
  _atom_site_fract_z
C1 C 0.72928 0.66928 0.97862
 H2 H 0.74343 0.67017 0.97023
 C3 C 0.71267 0.68025 0.97144
 H4 H 0.71424 0.68986 0.95768
 C5 C 0.70992 0.65517 1.00640
 H6 H 0.70866 0.64488 1.01960
 C7 C 0.69298 0.66586 0.99980
 H8 H 0.67892 0.66364 1.00808
 N9 N 0.72762 0.65701 0.99579
 C10 C 0.78811 0.64578 1.01896
 H11 H 0.78715 0.62907 1.01997
 C12 C 0.80576 0.65606 1.02473
 H13 H 0.81829 0.64714 1.03045
 C14 C 0.77269 0.67762 1.01056
 H15 H 0.75973 0.68592 1.00505
 C16 C 0.79011 0.68858 1.01628
 H17 H 0.79048 0.70530 1.01491
 Zn18 Zn 0.74971 0.64031 1.00327
 N19 N 0.77217 0.65656 1.01165
 C20 C 0.77487 0.62597 0.96987
 N21 N 0.75649 0.62365 0.97894
 C22 C 0.74247 0.61080 0.96993
 C23 C 0.74683 0.59949 0.95115
 C24 C 0.77980 0.61509 0.95113
 C25 C 0.73956 0.63459 1.04541
 C26 C 0.73340 0.62425 1.06349
 C27 C 0.73444 0.59201 1.04304
 C28 C 0.74066 0.60307 1.02536
 N29 N 0.74265 0.62403 1.02675
 H30 H 0.78567 0.63664 0.97683
 H31 H 0.72779 0.60960 0.97715
 H32 H 0.73542 0.58956 0.94401
 H33 H 0.79456 0.61714 0.94425
 H34 H 0.74132 0.65130 1.04607
 H35 H 0.72997 0.63391 1.07732
 H36 H 0.73375 0.57532 1.04107
 H37 H 0.74384 0.59485 1.01053
 C38 C 0.80703 0.67771 1.02318
 C39 C 0.69415 0.67844 0.98196
 C40 C 0.73028 0.60245 1.06275
 C41 C 0.76566 0.60175 0.94142
 C42 C 0.72698 0.32561 0.50166
 H43 H 0.74146 0.31858 0.49880
 C44 C 0.71051 0.31312 0.50663
 H45 H 0.71247 0.29649 0.50757
 C46 C 0.70662 0.35572 0.50350
 H47 H 0.70528 0.37237 0.50229
 C48 C 0.68981 0.34386 0.50837
 H49 H 0.67561 0.35158 0.51120
 N50 N 0.72477 0.34654 0.50050
 C51 C 0.77791 0.35169 0.46679
 H52 H 0.77073 0.36124 0.45523
 C53 C 0.79595 0.34190 0.46155
 H54 H 0.80239 0.34403 0.44593
 C55 C 0.77895 0.33838 0.50152
 H56 H 0.77230 0.33737 0.51718
 C57 C 0.79711 0.32838 0.49697
 H58 H 0.80423 0.31939 0.50912
 Zn59 Zn 0.74619 0.36461 0.49402
 N60 N 0.76973 0.34972 0.48647
 C61 C 0.76816 0.39501 0.51692
 N62 N 0.75233 0.38174 0.51810
 C63 C 0.74192 0.37964 0.53655
 C64 C 0.74734 0.39114 0.55479
 C65 C 0.77411 0.40680 0.53480
 C66 C 0.73080 0.36975 0.45354
 C67 C 0.72330 0.38016 0.43614
 C68 C 0.72963 0.41274 0.45494
 C69 C 0.73703 0.40167 0.47204
 N70 N 0.73755 0.38056 0.47098
 H71 H 0.77641 0.39609 0.50215
 H72 H 0.72962 0.36875 0.53734
 H73 H 0.73883 0.38924 0.56930
 H74 H 0.78707 0.41689 0.53368
 H75 H 0.73119 0.35296 0.45324
 H76 H 0.71821 0.37124 0.42233
 H77 H 0.72901 0.42952 0.45617
 H78 H 0.74205 0.40995 0.48623
 C79 C 0.80585 0.33012 0.47675
 C80 C 0.69163 0.32227 0.51010
 C81 C 0.72254 0.40195 0.43672
 C82 C 0.76376 0.40479 0.55414
 C83 C 0.23269 -0.16627 0.01983
 H84 H 0.24654 -0.16563 0.02875
 C85 C 0.21704 -0.17904 0.02644
 H86 H 0.21916 -0.18854 0.04019
 C87 C 0.21285 -0.15402 -0.00836
 H88 H 0.21099 -0.14384 -0.02156
 C89 C 0.19684 -0.16654 -0.00231
 H90 H 0.18285 -0.16574 -0.01095
 N91 N 0.23030 -0.15392 0.00281
 C92 C 0.28878 -0.13660 -0.02243
 H93 H 0.28554 -0.12063 -0.02593
 C94 C 0.30703 -0.14524 -0.02887
 H95 H 0.31790 -0.13560 -0.03678
 C96 C 0.27835 -0.16856 -0.00827
 H97 H 0.26706 -0.17773 -0.00056
 C98 C 0.29649 -0.17785 -0.01441
 H99 H 0.29890 -0.19411 -0.01136
 Zn100 Zn 0.25072 -0.13452 -0.00411
 N101 N 0.27496 -0.14817 -0.01208
 C102 C 0.27168 -0.10371 0.02005
 N103 N 0.25540 -0.11648 0.01987
 C104 C 0.24272 -0.11695 0.03686
 C105 C 0.24671 -0.10499 0.05524
 C106 C 0.27623 -0.09149 0.03810
 C107 C 0.24155 -0.12901 -0.04678
 C108 C 0.23464 -0.11882 -0.06460
 C109 C 0.22978 -0.08798 -0.04252
 C110 C 0.23681 -0.09886 -0.02513
 N111 N 0.24227 -0.11906 -0.02752
 H112 H 0.28145 -0.10326 0.00637
 H113 H 0.22952 -0.12669 0.03628
 H114 H 0.23652 -0.10574 0.06863
 H115 H 0.28968 -0.08204 0.03814
 H116 H 0.24632 -0.14503 -0.04827
 H117 H 0.23529 -0.12744 -0.07955
 H118 H 0.22460 -0.07236 -0.03922
 H119 H 0.23739 -0.09130 -0.00957
 C120 C 0.31112 -0.16612 -0.02484
 C121 C 0.19869 -0.17904 0.01551
 C122 C 0.22817 -0.09786 -0.06293
 C123 C 0.26384 -0.09230 0.05615
 C124 C 0.22573 0.17065 0.48037
 H125 H 0.24005 0.17153 0.47232
 C126 C 0.20943 0.18205 0.47313
 H127 H 0.21141 0.19198 0.45967
 C128 C 0.20563 0.15617 0.50735
 H129 H 0.20397 0.14560 0.52026
 C130 C 0.18899 0.16729 0.50068
 H131 H 0.17474 0.16510 0.50861
 N132 N 0.22357 0.15801 0.49720
 C133 C 0.28273 0.14586 0.52318
 H134 H 0.28148 0.12915 0.52393
 C135 C 0.29993 0.15587 0.53071
 H136 H 0.31199 0.14670 0.53706
 C137 C 0.26855 0.17794 0.51351
 H138 H 0.25619 0.18646 0.50695
 C139 C 0.28562 0.18863 0.52077
 H140 H 0.28626 0.20537 0.51980
 Zn141 Zn 0.24533 0.14100 0.50497
 N142 N 0.26755 0.15690 0.51464
 C143 C 0.27171 0.12684 0.47260
 N144 N 0.25285 0.12486 0.48059
 C145 C 0.23896 0.11259 0.47056
 C146 C 0.24391 0.10155 0.45180
 C147 C 0.27726 0.11618 0.45392
 C148 C 0.23393 0.13418 0.54662
 C149 C 0.22775 0.12318 0.56426
 C150 C 0.22967 0.09146 0.54291
 C151 C 0.23587 0.10311 0.52563
 N152 N 0.23755 0.12411 0.52771
 H153 H 0.28245 0.13698 0.48045
 H154 H 0.22393 0.11163 0.47699
 H155 H 0.23261 0.09210 0.44385
 H156 H 0.29239 0.11791 0.44792
 H157 H 0.23557 0.15088 0.54786
 H158 H 0.22439 0.13160 0.57897
 H159 H 0.22833 0.07476 0.54100
 H160 H 0.23924 0.09535 0.51060
 C161 C 0.30158 0.17753 0.52951
 C162 C 0.19070 0.18032 0.48323
 C163 C 0.22540 0.10154 0.56252
 C164 C 0.26326 0.10345 0.44317
 C165 C 0.15184 0.47098 0.23336
 H166 H 0.15125 0.46407 0.24883
 C167 C 0.16268 0.46131 0.21683
 H168 H 0.17070 0.44710 0.21981
 C169 C 0.14169 0.49768 0.21058
 H170 H 0.13302 0.51150 0.20797
 C171 C 0.15233 0.48856 0.19365
 H172 H 0.15172 0.49556 0.17821
 N173 N 0.14161 0.48882 0.22997
 C174 C 0.13038 0.51869 0.29194
 H175 H 0.11439 0.52109 0.29051
 C176 C 0.14043 0.52586 0.31013
 H177 H 0.13207 0.53397 0.32257
 C178 C 0.16069 0.50577 0.27700
 H179 H 0.16853 0.49809 0.26395
 C180 C 0.17138 0.51274 0.29493
 H181 H 0.18738 0.51006 0.29566
 Zn182 Zn 0.12518 0.49986 0.25210
 N183 N 0.14052 0.50865 0.27596
 C184 C 0.10659 0.47205 0.28016
 N185 N 0.10709 0.47865 0.25980
 C186 C 0.09579 0.46927 0.24431
 C187 C 0.08328 0.45257 0.24907
 C188 C 0.09424 0.45552 0.28562
 C189 C 0.12283 0.54037 0.23855
 C190 C 0.11402 0.55836 0.23108
 C191 C 0.08168 0.54144 0.23277
 C192 C 0.09114 0.52373 0.24022
 N193 N 0.11141 0.52343 0.24260
 H194 H 0.11610 0.47922 0.29213
 H195 H 0.09675 0.47458 0.22817
 H196 H 0.07441 0.44525 0.23655
 H197 H 0.09442 0.45022 0.30181
 H198 H 0.13887 0.53979 0.24093
 H199 H 0.12340 0.57167 0.22793
 H200 H 0.06560 0.54125 0.23044
 H201 H 0.08230 0.51021 0.24390
 C202 C 0.16120 0.52284 0.31185
 C203 C 0.16287 0.47003 0.19659
 C204 C 0.09320 0.55898 0.22788
 C205 C 0.08247 0.44547 0.26997
 C206 C -0.14911 0.02306 0.23650
 H207 H -0.14974 0.03086 0.25196
 C208 C -0.15972 0.03104 0.21944
 H209 H -0.16807 0.04520 0.22234
 C210 C -0.13569 -0.00369 0.21429
 H211 H -0.12602 -0.01702 0.21218
 C212 C -0.14600 0.00370 0.19680
 H213 H -0.14461 -0.00498 0.18192
 N214 N -0.13725 0.00611 0.23362
 C215 C -0.12513 -0.01875 0.29606
 H216 H -0.10893 -0.01911 0.29512
 C217 C -0.13486 -0.02646 0.31383
 H218 H -0.12601 -0.03290 0.32645
 C219 C -0.15624 -0.01065 0.28019
 H220 H -0.16447 -0.00469 0.26691
 C221 C -0.16663 -0.01828 0.29770
 H222 H -0.18286 -0.01785 0.29788
 Zn223 Zn -0.12068 -0.00194 0.25633
 N224 N -0.13585 -0.01093 0.27979
 C225 C -0.10658 0.02979 0.28448
 N226 N -0.10499 0.02149 0.26442
 C227 C -0.09361 0.03076 0.24939
 C228 C -0.08327 0.04918 0.25431
 C229 C -0.09655 0.04815 0.29005
 C230 C -0.11448 -0.04278 0.24343
 C231 C -0.10406 -0.06047 0.23662
 C232 C -0.07323 -0.04070 0.23859
 C233 C -0.08428 -0.02333 0.24546
 N234 N -0.10456 -0.02463 0.24743
 H235 H -0.11604 0.02252 0.29608
 H236 H -0.09296 0.02408 0.23342
 H237 H -0.07466 0.05661 0.24203
 H238 H -0.09804 0.05450 0.30611
 H239 H -0.13060 -0.04338 0.24530
 H240 H -0.11234 -0.07461 0.23300
 H241 H -0.05711 -0.03944 0.23703
 H242 H -0.07665 -0.00887 0.24913
 C243 C -0.15589 -0.02630 0.31483
 C244 C -0.15801 0.02168 0.19889
 C245 C -0.08317 -0.05956 0.23401
 C246 C -0.08490 0.05823 0.27482
 C247 C 0.35087 0.51987 0.73559
 H248 H 0.35023 0.52759 0.75108
 C249 C 0.34046 0.52807 0.71849
 H250 H 0.33183 0.54214 0.72098
 C251 C 0.36410 0.49298 0.71326
 H252 H 0.37375 0.47966 0.71109
 C253 C 0.35395 0.50062 0.69578
 H254 H 0.35554 0.49271 0.68044
 N255 N 0.36254 0.50274 0.73266
 C256 C 0.37441 0.47762 0.79505
 H257 H 0.39060 0.47703 0.79405
 C258 C 0.36463 0.47011 0.81287
 H259 H 0.37344 0.46358 0.82548
 C260 C 0.34337 0.48616 0.77928
 H261 H 0.33518 0.49224 0.76602
 C262 C 0.33293 0.47872 0.79685
 H263 H 0.31671 0.47942 0.79711
 Zn264 Zn 0.37901 0.49446 0.75536
 N265 N 0.36375 0.48559 0.77880
 C266 C 0.39349 0.52597 0.78359
 N267 N 0.39489 0.51772 0.76350
 C268 C 0.40628 0.52693 0.74843
 C269 C 0.41682 0.54521 0.75334
 C270 C 0.40374 0.54421 0.78917
 C271 C 0.38507 0.45358 0.74226
 C272 C 0.39550 0.43589 0.73544
 C273 C 0.42636 0.45557 0.73780
 C274 C 0.41531 0.47293 0.74465
 N275 N 0.39501 0.47168 0.74643
 H276 H 0.38404 0.51875 0.79524
 H277 H 0.40679 0.52028 0.73244
 H278 H 0.42544 0.55259 0.74103
 H279 H 0.40242 0.55051 0.80525
 H280 H 0.36894 0.45301 0.74401
 H281 H 0.38721 0.42179 0.73168
 H282 H 0.44250 0.45679 0.73641
 H283 H 0.42296 0.48734 0.74849
 C284 C 0.34361 0.47061 0.81398
 C285 C 0.34223 0.51861 0.69816
 C286 C 0.41641 0.43676 0.73301
 C287 C 0.41541 0.55421 0.77389
 C288 C 0.65562 0.97195 0.73392
 H289 H 0.65575 0.96513 0.74946
 C290 C 0.66664 0.96282 0.71723
 H291 H 0.67553 0.94916 0.72014
 C292 C 0.64338 0.99772 0.71117
 H293 H 0.63381 1.01090 0.70865
 C294 C 0.65417 0.98912 0.69405
 H295 H 0.65276 0.99588 0.67856
 N296 N 0.64424 0.98903 0.73061
 C297 C 0.63174 1.01737 0.79294
 H298 H 0.61562 1.01859 0.79162
 C299 C 0.64138 1.02498 0.81120
 H300 H 0.63220 1.03254 0.82329
 C301 C 0.66272 1.00719 0.77757
 H302 H 0.67097 1.00029 0.76437
 C303 C 0.67305 1.01468 0.79555
 H304 H 0.68912 1.01257 0.79585
 Zn305 Zn 0.62742 0.99882 0.75296
 N306 N 0.64242 1.00846 0.77673
 C307 C 0.61198 0.96893 0.78072
 N308 N 0.61096 0.97626 0.76069
 C309 C 0.59968 0.96650 0.74541
 C310 C 0.58891 0.94852 0.75003
 C311 C 0.60150 0.95104 0.78601
 C312 C 0.62248 1.03909 0.73969
 C313 C 0.61254 1.05664 0.73275
 C314 C 0.58122 1.03786 0.73492
 C315 C 0.59179 1.02062 0.74188
 N316 N 0.61209 1.02148 0.74383
 H317 H 0.62135 0.97656 0.79254
 H318 H 0.59948 0.97240 0.72947
 H319 H 0.58041 0.94064 0.73756
 H320 H 0.60257 0.94544 0.80205
 H321 H 0.63861 1.03936 0.74156
 H322 H 0.62119 1.07032 0.72901
 H323 H 0.56507 1.03695 0.73343
 H324 H 0.58378 1.00661 0.74569
 C325 C 0.66245 1.02369 0.81299
 C326 C 0.66580 0.97128 0.69689
 C327 C 0.59164 1.05615 0.73017
 C328 C 0.59000 0.94042 0.77051
 C329 C 0.01861 0.23584 -0.15769
 H330 H 0.02697 0.25026 -0.15779
 C331 C 0.02546 0.21859 -0.16958
 H332 H 0.03914 0.21989 -0.17875
 C333 C -0.00856 0.21629 -0.14436
 H334 H -0.02149 0.21521 -0.13409
 C335 C -0.00231 0.19873 -0.15602
 H336 H -0.01086 0.18448 -0.15493
 N337 N 0.00201 0.23434 -0.14522
 C338 C -0.01950 0.29684 -0.12953
 H339 H -0.01977 0.29581 -0.11238
 C340 C -0.02641 0.31472 -0.13907
 H341 H -0.03174 0.32753 -0.12909
 C342 C -0.01206 0.28126 -0.16322
 H343 H -0.00673 0.26804 -0.17253
 C344 C -0.01885 0.29893 -0.17346
 H345 H -0.01873 0.29911 -0.19068
 Zn346 Zn -0.00458 0.25695 -0.12658
 N347 N -0.01246 0.28061 -0.14161
 C348 C 0.02721 0.28220 -0.11098
 N349 N 0.01856 0.26310 -0.11013
 C350 C 0.02714 0.24765 -0.09900
 C351 C 0.04516 0.25115 -0.08815
 C352 C 0.04520 0.28634 -0.10043
 C353 C -0.04443 0.24729 -0.11926
 C354 C -0.06150 0.24144 -0.10806
 C355 C -0.04169 0.24129 -0.07600
 C356 C -0.02499 0.24719 -0.08794
 N357 N -0.02657 0.24965 -0.10923
 H358 H 0.02045 0.29417 -0.12025
 H359 H 0.02018 0.23247 -0.09896
 H360 H 0.05200 0.23855 -0.07975
 H361 H 0.05182 0.30166 -0.10131
 H362 H -0.04539 0.24992 -0.13615
 H363 H -0.07530 0.24070 -0.11697
 H364 H -0.03909 0.23843 -0.05941
 H365 H -0.01068 0.24944 -0.08017
 C366 C -0.02627 0.31591 -0.16133
 C367 C 0.01515 0.19959 -0.16850
 C368 C -0.06057 0.23784 -0.08592
 C369 C 0.05454 0.27065 -0.08901
 C370 C 0.47647 0.22710 0.15047
 H371 H 0.46881 0.24188 0.15126
 C372 C 0.46887 0.21029 0.16161
 H373 H 0.45529 0.21228 0.17091
 C374 C 0.50279 0.20625 0.13632
 H375 H 0.51571 0.20450 0.12606
 C376 C 0.49574 0.18910 0.14717
 H377 H 0.50369 0.17451 0.14550
 N378 N 0.49313 0.22479 0.13810
 C379 C 0.51801 0.28629 0.12734
 H380 H 0.51921 0.28509 0.11018
 C381 C 0.52506 0.30398 0.13818
 H382 H 0.53146 0.31648 0.12919
 C383 C 0.50804 0.27134 0.15973
 H384 H 0.50165 0.25844 0.16805
 C385 C 0.51488 0.28886 0.17126
 H386 H 0.51373 0.28927 0.18845
 Zn387 Zn 0.50153 0.24718 0.12123
 N388 N 0.50962 0.27047 0.13814
 C389 C 0.47165 0.27382 0.10588
 N390 N 0.47958 0.25444 0.10387
 C391 C 0.47101 0.23965 0.09094
 C392 C 0.45366 0.24412 0.07947
 C393 C 0.45437 0.27892 0.09477
 C394 C 0.54113 0.23566 0.11611
 C395 C 0.55866 0.22931 0.10579
 C396 C 0.54128 0.23086 0.07220
 C397 C 0.52397 0.23717 0.08323
 N398 N 0.52416 0.23910 0.10483
 H399 H 0.47837 0.28525 0.11655
 H400 H 0.47737 0.22422 0.08995
 H401 H 0.44674 0.23203 0.06966
 H402 H 0.44829 0.29443 0.09668
 H403 H 0.54093 0.23767 0.13325
 H404 H 0.57199 0.22663 0.11512
 H405 H 0.54082 0.22893 0.05504
 H406 H 0.51041 0.24035 0.07454
 C407 C 0.52363 0.30543 0.16045
 C408 C 0.47842 0.19089 0.15982
 C409 C 0.55884 0.22659 0.08356
 C410 C 0.44497 0.26391 0.08158
 C411 C 0.97668 0.72604 0.64900
 H412 H 0.96904 0.74083 0.64987
 C413 C 0.96905 0.70918 0.66003
 H414 H 0.95547 0.71114 0.66934
 C415 C 1.00301 0.70524 0.63479
 H416 H 1.01596 0.70355 0.62457
 C417 C 0.99593 0.68804 0.64554
 H418 H 1.00387 0.67345 0.64382
 N419 N 0.99337 0.72379 0.63667
 C420 C 1.01840 0.78545 0.62710
 H421 H 1.01971 0.78461 0.60994
 C422 C 1.02539 0.80293 0.63837
 H423 H 1.03183 0.81563 0.62970
 C424 C 1.00824 0.76984 0.65908
 H425 H 1.00182 0.75675 0.66708
 C426 C 1.01501 0.78712 0.67103
 H427 H 1.01376 0.78716 0.68820
 Zn428 Zn 1.00191 0.74638 0.62015
 N429 N 1.00995 0.76940 0.63750
 C430 C 0.97220 0.77332 0.60496
 N431 N 0.98008 0.75392 0.60276
 C432 C 0.97151 0.73930 0.58964
 C433 C 0.95419 0.74393 0.57819
 C434 C 0.95496 0.77858 0.59386
 C435 C 1.04151 0.73480 0.61517
 C436 C 1.05905 0.72839 0.60491
 C437 C 1.04188 0.73030 0.57123
 C438 C 1.02455 0.73666 0.58220
 N439 N 1.02463 0.73843 0.60381
 H440 H 0.97892 0.78462 0.61576
 H441 H 0.97784 0.72386 0.58850
 H442 H 0.94726 0.73196 0.56825
 H443 H 0.94893 0.79410 0.59592
 H444 H 1.04121 0.73668 0.63232
 H445 H 1.07230 0.72554 0.61431
 H446 H 1.04150 0.72848 0.55406
 H447 H 1.01106 0.73998 0.57345
 C448 C 1.02381 0.80391 0.66064
 C449 C 0.97860 0.68979 0.65819
 C450 C 1.05935 0.72581 0.58268
 C451 C 0.94554 0.76373 0.58050
 C452 C 0.51742 0.73739 0.34173
 H453 H 0.52558 0.75191 0.34141
 C454 C 0.52403 0.72031 0.32943
 H455 H 0.53735 0.72185 0.31972
 C456 C 0.49101 0.71739 0.35601
 H457 H 0.47848 0.71608 0.36681
 C458 C 0.49704 0.69999 0.34396
 H459 H 0.48872 0.68563 0.34529
 N460 N 0.50130 0.73558 0.35486
 C461 C 0.48021 0.79797 0.37162
 H462 H 0.48061 0.79691 0.38876
 C463 C 0.47319 0.81600 0.36246
 H464 H 0.46900 0.82873 0.37310
 C465 C 0.48643 0.78254 0.33770
 H466 H 0.49128 0.76927 0.32814
 C467 C 0.47953 0.80032 0.32777
 H468 H 0.47888 0.79994 0.31059
 Zn469 Zn 0.49518 0.75804 0.37387
 N470 N 0.48675 0.78176 0.35926
 C471 C 0.52739 0.78329 0.38855
 N472 N 0.51880 0.76417 0.38953
 C473 C 0.52766 0.74870 0.40040
 C474 C 0.54582 0.75224 0.41097
 C475 C 0.54553 0.78748 0.39882
 C476 C 0.45561 0.74777 0.38275
 C477 C 0.43904 0.74204 0.39482
 C478 C 0.46005 0.74277 0.42608
 C479 C 0.47626 0.74856 0.41338
 N480 N 0.47382 0.75060 0.39206
 H481 H 0.52042 0.79526 0.37946
 H482 H 0.52074 0.73350 0.40054
 H483 H 0.55282 0.73965 0.41923
 H484 H 0.55205 0.80283 0.39790
 H485 H 0.45407 0.74972 0.36579
 H486 H 0.42481 0.73931 0.38695
 H487 H 0.46223 0.74114 0.44301
 H488 H 0.49074 0.75135 0.42057
 C489 C 0.47258 0.81758 0.34009
 C490 C 0.51401 0.70117 0.33076
 C491 C 0.44115 0.73932 0.41678
 C492 C 0.55508 0.77180 0.41008
 C493 C 0.36689 0.00504 0.25013
 C494 C 0.12107 1.00167 0.75174
 C495 C 0.62074 0.50487 0.24845
 C496 C 0.86757 0.50339 0.74804
 C497 C 0.25081 0.35512 0.00050
 C498 C 0.75681 0.13300 1.00708
 C499 C 0.25718 0.63137 0.50624
 C500 C 0.75156 0.85605 0.49999
 C501 C 0.00016 0.25563 0.37630
 C502 C 1.00538 0.74865 0.11979
 C503 C 0.50429 0.24442 0.61947
 C504 C 0.50334 0.75117 0.87392
 C505 C 0.46345 -0.14092 0.30034
 C506 C 0.45023 -0.12789 0.31162
 C507 C 0.44436 -0.13288 0.33217
 C508 C 0.45165 -0.15076 0.34151
 C509 C 0.46511 -0.16422 0.33047
 C510 C 0.47080 -0.15889 0.30959
 C511 C 0.44230 -0.10952 0.30217
 C512 C 0.43510 -0.09415 0.29481
 C513 C 0.42598 -0.07625 0.28675
 C514 C 0.41754 -0.06115 0.28028
 C515 C 0.40661 -0.04347 0.27299
 C516 C 0.39673 -0.03038 0.28767
 C517 C 0.38448 -0.01440 0.28065
 C518 C 0.38122 -0.01168 0.25868
 C519 C 0.39283 -0.02383 0.24420
 C520 C 0.40504 -0.03983 0.25125
 H521 H 0.46817 -0.13715 0.28440
 H522 H 0.43391 -0.12303 0.34097
 H523 H 0.44589 -0.15424 0.35709
 H524 H 0.48153 -0.16802 0.30047
 H525 H 0.39829 -0.03268 0.30459
 H526 H 0.37759 -0.00434 0.29259
 H527 H 0.39177 -0.02143 0.22726
 H528 H 0.41294 -0.04960 0.23972
 C529 C 0.94117 0.36241 0.82702
 C530 C 0.95101 0.37069 0.80950
 C531 C 0.96818 0.36090 0.80123
 C532 C 0.97554 0.34296 0.81055
 C533 C 0.96582 0.33465 0.82832
 C534 C 0.94848 0.34454 0.83636
 C535 C 0.94329 0.38919 0.80018
 C536 C 0.93619 0.40465 0.79289
 C537 C 0.92710 0.42260 0.78489
 C538 C 0.91865 0.43770 0.77844
 C539 C 0.90766 0.45533 0.77113
 C540 C 0.90626 0.45904 0.74939
 C541 C 0.89394 0.47492 0.74228
 C542 C 0.88205 0.48686 0.75669
 C543 C 0.88515 0.48411 0.77868
 C544 C 0.89752 0.46825 0.78575
 H545 H 0.92780 0.36977 0.83349
 H546 H 0.97592 0.36717 0.78765
 H547 H 0.98901 0.33581 0.80413
 H548 H 0.94046 0.33835 0.84978
 H549 H 0.91437 0.44941 0.73790
 H550 H 0.89300 0.47737 0.72534
 H551 H 0.87805 0.49404 0.79058
 H552 H 0.89894 0.46589 0.80268
 C553 C 0.04047 1.16312 0.79110
 C554 C 0.03984 1.14432 0.80175
 C555 C 0.03077 1.14352 0.82179
 C556 C 0.02252 1.16142 0.83127
 C557 C 0.02321 1.18046 0.82083
 C558 C 0.03220 1.18109 0.80057
 C559 C 0.04918 1.12595 0.79273
 C560 C 0.05723 1.11036 0.78600
 C561 C 0.06699 1.09195 0.77904
 C562 C 0.07568 1.07621 0.77384
 C563 C 0.08657 1.05749 0.76851
 C564 C 0.10219 1.05132 0.78164
 C565 C 0.11308 1.03336 0.77665
 C566 C 0.10819 1.02067 0.75865
 C567 C 0.09285 1.02767 0.74512
 C568 C 0.08197 1.04569 0.75017
 H569 H 0.04750 1.16393 0.77559
 H570 H 0.03035 1.12911 0.83026
 H571 H 0.01608 1.16044 0.84703
 H572 H 0.03282 1.19546 0.79206
 H573 H 0.10620 1.06062 0.79562
 H574 H 0.12567 1.02989 0.78672
 H575 H 0.08934 1.01913 0.73052
 H576 H 0.07014 1.05053 0.73963
 C577 C 0.53014 0.64542 0.32003
 C578 C 0.53855 0.64650 0.29969
 C579 C 0.53848 0.66537 0.28915
 C580 C 0.53022 0.68314 0.29904
 C581 C 0.52193 0.68223 0.31962
 C582 C 0.52191 0.66311 0.32993
 C583 C 0.54800 0.62838 0.29024
 C584 C 0.55619 0.61299 0.28319
 C585 C 0.56615 0.59481 0.27589
 C586 C 0.57502 0.57924 0.27049
 C587 C 0.58612 0.56069 0.26502
 C588 C 0.58178 0.54903 0.24650
 C589 C 0.59275 0.53105 0.24146
 C590 C 0.60788 0.52395 0.25518
 C591 C 0.61258 0.53654 0.27330
 C592 C 0.60162 0.55446 0.27827
 H593 H 0.53026 0.63095 0.32841
 H594 H 0.54499 0.66640 0.27341
 H595 H 0.53031 0.69757 0.29062
 H596 H 0.51602 0.66192 0.34592
 H597 H 0.57005 0.55392 0.23587
 H598 H 0.58942 0.52259 0.22676
 H599 H 0.62504 0.53299 0.28352
 H600 H 0.60545 0.56366 0.29239
 C601 C 0.55667 0.35131 0.17605
 C602 C 0.54574 0.36052 0.19280
 C603 C 0.52781 0.35137 0.19951
 C604 C 0.52073 0.33321 0.18927
 C605 C 0.53146 0.32408 0.17214
 C606 C 0.54961 0.33324 0.16580
 C607 C 0.55293 0.37959 0.20260
 C608 C 0.55963 0.39560 0.21003
 C609 C 0.56829 0.41432 0.21787
 C610 C 0.57640 0.43016 0.22390
 C611 C 0.58700 0.44879 0.23034
 C612 C 0.57707 0.46526 0.24078
 C613 C 0.58756 0.48340 0.24660
 C614 C 0.60812 0.48565 0.24150
 C615 C 0.61797 0.46841 0.23184
 C616 C 0.60749 0.45037 0.22607
 H617 H 0.57060 0.35820 0.17077
 H618 H 0.51922 0.35839 0.21246
 H619 H 0.50663 0.32660 0.19439
 H620 H 0.55839 0.32641 0.15290
 H621 H 0.56127 0.46402 0.24459
 H622 H 0.57952 0.49537 0.25545
 H623 H 0.63391 0.46901 0.22859
 H624 H 0.61543 0.43759 0.21830
 C625 C 0.05684 0.84938 0.67759
 C626 C 0.04585 0.85819 0.69452
 C627 C 0.02786 0.84892 0.70086
 C628 C 0.02078 0.83104 0.69010
 C629 C 0.03159 0.82231 0.67281
 C630 C 0.04979 0.83159 0.66682
 C631 C 0.05306 0.87696 0.70489
 C632 C 0.05979 0.89276 0.71277
 C633 C 0.06851 0.91125 0.72109
 C634 C 0.07668 0.92694 0.72744
 C635 C 0.08735 0.94544 0.73414
 C636 C 0.07748 0.96186 0.74471
 C637 C 0.08797 0.98001 0.75049
 C638 C 0.10848 0.98230 0.74519
 C639 C 0.11832 0.96507 0.73549
 C640 C 0.10782 0.94702 0.72977
 H641 H 0.07082 0.85637 0.67260
 H642 H 0.01921 0.85563 0.71393
 H643 H 0.00664 0.82434 0.69496
 H644 H 0.05863 0.82505 0.65381
 H645 H 0.06169 0.96061 0.74859
 H646 H 0.07997 0.99197 0.75938
 H647 H 0.13423 0.96573 0.73207
 H648 H 0.11572 0.93429 0.72189
 C649 C 0.96174 0.63444 0.66733
 C650 C 0.95353 0.63615 0.68780
 C651 C 0.95366 0.65537 0.69876
 C652 C 0.96191 0.67284 0.68923
 C653 C 0.97015 0.67127 0.66862
 C654 C 0.96999 0.65184 0.65781
 C655 C 0.94445 0.61825 0.69714
 C656 C 0.93658 0.60314 0.70444
 C657 C 0.92694 0.58542 0.71242
 C658 C 0.91825 0.57038 0.71879
 C659 C 0.90717 0.55265 0.72592
 C660 C 0.90512 0.54905 0.74764
 C661 C 0.89292 0.53284 0.75447
 C662 C 0.88183 0.52043 0.73977
 C663 C 0.88557 0.52317 0.71786
 C664 C 0.89779 0.53936 0.71107
 H665 H 0.96158 0.61968 0.65863
 H666 H 0.94730 0.65688 0.71460
 H667 H 0.96197 0.68753 0.69804
 H668 H 0.97588 0.65016 0.64179
 H669 H 0.91266 0.55897 0.75930
 H670 H 0.89150 0.53045 0.77139
 H671 H 0.87911 0.51295 0.70579
 H672 H 0.89975 0.54163 0.69418
 C673 C 0.46157 0.13553 0.16895
 C674 C 0.45329 0.13724 0.18939
 C675 C 0.45338 0.15647 0.20034
 C676 C 0.46164 0.17395 0.19083
 C677 C 0.46994 0.17238 0.17024
 C678 C 0.46982 0.15294 0.15944
 C679 C 0.44420 0.11933 0.19871
 C680 C 0.43632 0.10422 0.20598
 C681 C 0.42667 0.08651 0.21396
 C682 C 0.41794 0.07149 0.22036
 C683 C 0.40682 0.05382 0.22758
 C684 C 0.40502 0.05016 0.24930
 C685 C 0.39273 0.03409 0.25626
 C686 C 0.38130 0.02186 0.24169
 C687 C 0.38480 0.02462 0.21974
 C688 C 0.39711 0.04068 0.21282
 H689 H 0.46144 0.12077 0.16026
 H690 H 0.44697 0.15798 0.21616
 H691 H 0.46166 0.18864 0.19963
 H692 H 0.47575 0.15126 0.14344
 H693 H 0.41281 0.05996 0.26089
 H694 H 0.39149 0.03167 0.27319
 H695 H 0.37807 0.01452 0.20774
 H696 H 0.39887 0.04299 0.19591
 C697 C 0.30668 0.44075 -0.15239
 C698 C 0.31474 0.44391 -0.13201
 C699 C 0.33168 0.45653 -0.12918
 C700 C 0.34078 0.46562 -0.14668
 C701 C 0.33306 0.46217 -0.16730
 C702 C 0.31575 0.44986 -0.16994
 C703 C 0.30617 0.43352 -0.11415
 C704 C 0.29925 0.42448 -0.09928
 C705 C 0.29128 0.41351 -0.08205
 C706 C 0.28445 0.40382 -0.06758
 C707 C 0.27610 0.39185 -0.05069
 C708 C 0.28176 0.39577 -0.02957
 C709 C 0.27357 0.38400 -0.01331
 C710 C 0.25902 0.36847 -0.01773
 C711 C 0.25438 0.36405 -0.03935
 C712 C 0.26258 0.37583 -0.05554
 H713 H 0.29361 0.43094 -0.15478
 H714 H 0.33803 0.45911 -0.11348
 H715 H 0.35392 0.47526 -0.14410
 H716 H 0.30959 0.44673 -0.18562
 H717 H 0.29260 0.40783 -0.02566
 H718 H 0.27848 0.38712 0.00287
 H719 H 0.24471 0.35125 -0.04404
 H720 H 0.25853 0.37225 -0.07192
 C721 C 0.83215 0.95901 0.37149
 C722 C 0.81542 0.94613 0.36845
 C723 C 0.80750 0.94299 0.34801
 C724 C 0.81650 0.95238 0.33060
 C725 C 0.83361 0.96496 0.33343
 C726 C 0.84118 0.96838 0.35411
 C727 C 0.80692 0.93547 0.38616
 C728 C 0.80005 0.92621 0.40090
 C729 C 0.79213 0.91499 0.41797
 C730 C 0.78533 0.90511 0.43231
 C731 C 0.77702 0.89297 0.44906
 C732 C 0.76339 0.87708 0.44410
 C733 C 0.75516 0.86521 0.46019
 C734 C 0.75989 0.86940 0.48182
 C735 C 0.77457 0.88476 0.48635
 C736 C 0.78279 0.89663 0.47019
 H737 H 0.83838 0.96157 0.38724
 H738 H 0.79460 0.93297 0.34548
 H739 H 0.81046 0.94926 0.31486
 H740 H 0.85416 0.97822 0.35684
 H741 H 0.75925 0.87371 0.42770
 H742 H 0.74538 0.85253 0.45541
 H743 H 0.77954 0.88771 0.50254
 H744 H 0.79370 0.90860 0.47418
 C745 C 0.83175 0.03605 1.14250
 C746 C 0.81525 0.04916 1.14511
 C747 C 0.80717 0.05279 1.16539
 C748 C 0.81572 0.04356 1.18308
 C749 C 0.83265 0.03044 1.18088
 C750 C 0.84035 0.02678 1.16009
 C751 C 0.80707 0.05934 1.12700
 C752 C 0.80057 0.06801 1.11175
 C753 C 0.79326 0.07836 1.09388
 C754 C 0.78714 0.08740 1.07868
 C755 C 0.77987 0.09847 1.06071
 C756 C 0.77608 0.11974 1.06274
 C757 C 0.76881 0.13053 1.04544
 C758 C 0.76456 0.12019 1.02583
 C759 C 0.76953 0.09889 1.02377
 C760 C 0.77683 0.08813 1.04114
 H761 H 0.83826 0.03329 1.12687
 H762 H 0.79427 0.06283 1.16756
 H763 H 0.80855 0.04642 1.19831
 H764 H 0.85370 0.01764 1.15720
 H765 H 0.77877 0.12802 1.07770
 H766 H 0.76617 0.14706 1.04742
 H767 H 0.76819 0.09045 1.00876
 H768 H 0.78024 0.07174 1.03924
 C769 C 0.33510 0.53820 0.64235
 C770 C 0.31603 0.54710 0.64381
 C771 C 0.30529 0.54641 0.66295
 C772 C 0.31367 0.53698 0.68062
 C773 C 0.33290 0.52808 0.67933
 C774 C 0.34349 0.52877 0.65996
 C775 C 0.30777 0.55732 0.62576
 C776 C 0.30121 0.56603 0.61056
 C777 C 0.29381 0.57643 0.59276
 C778 C 0.28763 0.58552 0.57762
 C779 C 0.28030 0.59665 0.55972
 C780 C 0.27734 0.58640 0.54008
 C781 C 0.27004 0.59724 0.52276
 C782 C 0.26497 0.61850 0.52494
 C783 C 0.26915 0.62876 0.54461
 C784 C 0.27643 0.61790 0.56186
 H785 H 0.34360 0.53875 0.62767
 H786 H 0.29050 0.55326 0.66424
 H787 H 0.30508 0.53655 0.69524
 H788 H 0.35847 0.52242 0.65854
 H789 H 0.28082 0.57004 0.53809
 H790 H 0.26876 0.58887 0.50769
 H791 H 0.26644 0.64526 0.54668
 H792 H 0.27907 0.62611 0.57687
 C793 C 0.17323 0.53684 0.36943
 C794 C 0.19176 0.54684 0.36743
 C795 C 0.20065 0.54840 0.34734
 C796 C 0.19091 0.54026 0.32927
 C797 C 0.17210 0.53052 0.33108
 C798 C 0.16346 0.52872 0.35140
 C799 C 0.20122 0.55619 0.38588
 C800 C 0.20887 0.56440 0.40130
 C801 C 0.21760 0.57445 0.41925
 C802 C 0.22492 0.58344 0.43440
 C803 C 0.23358 0.59470 0.45222
 C804 C 0.24719 0.61076 0.44867
 C805 C 0.25510 0.62235 0.46578
 C806 C 0.25002 0.61774 0.48702
 C807 C 0.23566 0.60192 0.49017
 C808 C 0.22776 0.59035 0.47299
 H809 H 0.16622 0.53552 0.38491
 H810 H 0.21495 0.55620 0.34560
 H811 H 0.19783 0.54210 0.31383
 H812 H 0.14914 0.52104 0.35334
 H813 H 0.25138 0.61464 0.43260
 H814 H 0.26471 0.63529 0.46210
 H815 H 0.23048 0.59857 0.50605
 H816 H 0.21689 0.57823 0.47592
 C817 C 0.67202 0.04141 0.86943
 C818 C 0.69194 0.04797 0.86828
 C819 C 0.70236 0.04601 0.84903
 C820 C 0.69283 0.03776 0.83088
 C821 C 0.67250 0.03138 0.83155
 C822 C 0.66240 0.03319 0.85137
 C823 C 0.70139 0.05737 0.88672
 C824 C 0.70899 0.06562 0.90215
 C825 C 0.71761 0.07573 0.92011
 C826 C 0.72484 0.08479 0.93528
 C827 C 0.73338 0.09614 0.95309
 C828 C 0.74703 0.11215 0.94954
 C829 C 0.75487 0.12381 0.96664
 C830 C 0.74967 0.11933 0.98787
 C831 C 0.73524 0.10357 0.99102
 C832 C 0.72742 0.09193 0.97386
 H833 H 0.66385 0.04269 0.88433
 H834 H 0.71778 0.05122 0.84793
 H835 H 0.70131 0.03745 0.81620
 H836 H 0.64719 0.02773 0.85335
 H837 H 0.75133 0.11594 0.93347
 H838 H 0.76453 0.13672 0.96294
 H839 H 0.72996 0.10032 1.00689
 H840 H 0.71649 0.07986 0.97677
 C841 C 0.69376 0.96301 0.64466
 C842 C 0.69313 0.94136 0.64221
 C843 C 0.68427 0.92947 0.65799
 C844 C 0.67578 0.93917 0.67600
 C845 C 0.67602 0.96095 0.67846
 C846 C 0.68527 0.97276 0.66266
 C847 C 0.70104 0.93131 0.62327
 C848 C 0.70738 0.92264 0.60742
 C849 C 0.71460 0.91218 0.58894
 C850 C 0.72070 0.90296 0.57329
 C851 C 0.72802 0.89158 0.55485
 C852 C 0.73095 0.87017 0.55578
 C853 C 0.73835 0.85907 0.53809
 C854 C 0.74362 0.86921 0.51920
 C855 C 0.73946 0.89069 0.51820
 C856 C 0.73203 0.90177 0.53596
 H857 H 0.70062 0.97236 0.63255
 H858 H 0.68364 0.91270 0.65622
 H859 H 0.66851 0.92966 0.68769
 H860 H 0.68588 0.98953 0.66421
 H861 H 0.72751 0.86203 0.57019
 H862 H 0.74033 0.84246 0.53921
 H863 H 0.74156 0.89904 0.50370
 H864 H 0.72928 0.91828 0.53490
 C865 C 0.18062 0.42794 0.15757
 C866 C 0.19063 0.43965 0.14240
 C867 C 0.19224 0.46120 0.14533
 C868 C 0.18359 0.47105 0.16319
 C869 C 0.17318 0.45946 0.17835
 C870 C 0.17196 0.43776 0.17544
 C871 C 0.19878 0.42958 0.12359
 C872 C 0.20538 0.42101 0.10780
 C873 C 0.21292 0.41072 0.08936
 C874 C 0.21929 0.40164 0.07375
 C875 C 0.22690 0.39040 0.05535
 C876 C 0.23089 0.40065 0.03649
 C877 C 0.23848 0.38967 0.01874
 C878 C 0.24282 0.36823 0.01973
 C879 C 0.23765 0.35804 0.03861
 C880 C 0.23008 0.36904 0.05628
 H881 H 0.17924 0.41125 0.15542
 H882 H 0.20000 0.47041 0.13372
 H883 H 0.18499 0.48775 0.16512
 H884 H 0.16383 0.42843 0.18666
 H885 H 0.22797 0.41713 0.03543
 H886 H 0.24053 0.39805 0.00425
 H887 H 0.23978 0.34144 0.03973
 H888 H 0.22667 0.36084 0.07067
 C889 C -0.13977 0.31326 0.48077
 C890 C -0.13653 0.30442 0.46046
 C891 C -0.15234 0.30309 0.44590
 C892 C -0.17121 0.31097 0.45140
 C893 C -0.17453 0.32034 0.47158
 C894 C -0.15868 0.32114 0.48633
 C895 C -0.11684 0.29760 0.45398
 C896 C -0.10055 0.29218 0.44762
 C897 C -0.08181 0.28609 0.43905
 C898 C -0.06619 0.28106 0.43073
 C899 C -0.04811 0.27519 0.41956
 C900 C -0.03690 0.29021 0.40913
 C901 C -0.02091 0.28430 0.39590
 C902 C -0.01632 0.26309 0.39214
 C903 C -0.02650 0.24840 0.40455
 C904 C -0.04251 0.25433 0.41775
 H905 H -0.12761 0.31445 0.49213
 H906 H -0.15001 0.29627 0.43014
 H907 H -0.18317 0.30988 0.43981
 H908 H -0.16072 0.32845 0.50190
 H909 H -0.04078 0.30649 0.41087
 H910 H -0.01241 0.29647 0.38855
 H911 H -0.02264 0.23210 0.40320
 H912 H -0.05084 0.24258 0.42606
 C913 C 0.35746 0.82109 0.94230
 C914 C 0.36778 0.80781 0.95566
 C915 C 0.35941 0.80266 0.97527
 C916 C 0.34085 0.81091 0.98156
 C917 C 0.33048 0.82448 0.96831
 C918 C 0.33896 0.82936 0.94855
 C919 C 0.38694 0.79962 0.94904
 C920 C 0.40290 0.79315 0.94273
 C921 C 0.42136 0.78596 0.93439
 C922 C 0.43685 0.78008 0.92637
 C923 C 0.45487 0.77333 0.91562
 C924 C 0.45992 0.75228 0.91454
 C925 C 0.47599 0.74551 0.90186
 C926 C 0.48680 0.75954 0.88922
 C927 C 0.48275 0.78095 0.89228
 C928 C 0.46670 0.78769 0.90500
 H929 H 0.36375 0.82509 0.92704
 H930 H 0.36728 0.79239 0.98574
 H931 H 0.33479 0.80702 0.99695
 H932 H 0.33122 0.83947 0.93785
 H933 H 0.45111 0.74103 0.92305
 H934 H 0.47943 0.72909 0.90108
 H935 H 0.49175 0.79265 0.88478
 H936 H 0.46327 0.80412 0.90619
 C937 C 1.15958 0.79944 0.05288
 C938 C 1.14592 0.79031 0.03856
 C939 C 1.15003 0.79016 0.01672
 C940 C 1.16752 0.79954 0.00920
 C941 C 1.18110 0.80924 0.02346
 C942 C 1.17704 0.80882 0.04541
 C943 C 1.12723 0.78225 0.04637
 C944 C 1.11155 0.77625 0.05357
 C945 C 1.09326 0.77007 0.06286
 C946 C 1.07783 0.76549 0.07160
 C947 C 1.05975 0.76084 0.08309
 C948 C 1.04321 0.75174 0.07281
 C949 C 1.02560 0.74778 0.08422
 C950 C 1.02403 0.75344 0.10607
 C951 C 1.04128 0.76171 0.11625
 C952 C 1.05877 0.76562 0.10486
 H953 H 1.15648 0.79977 0.06982
 H954 H 1.13955 0.78316 0.00549
 H955 H 1.17033 0.79940 -0.00778
 H956 H 1.18698 0.81643 0.05679
 H957 H 1.04397 0.74756 0.05602
 H958 H 1.01348 0.73996 0.07588
 H959 H 1.04109 0.76535 0.13317
 H960 H 1.07158 0.77239 0.11308
 C961 C 0.63792 0.30350 0.51493
 C962 C 0.63972 0.28854 0.53051
 C963 C 0.65869 0.28361 0.53841
 C964 C 0.67573 0.29404 0.53121
 C965 C 0.67396 0.30964 0.51611
 C966 C 0.65491 0.31397 0.50775
 C967 C 0.62197 0.27965 0.53966
 C968 C 0.60701 0.27307 0.54794
 C969 C 0.58951 0.26634 0.55839
 C970 C 0.57467 0.26139 0.56802
 C971 C 0.55723 0.25641 0.58042
 C972 C 0.55723 0.26090 0.60227
 C973 C 0.54022 0.25696 0.61445
 C974 C 0.52250 0.24896 0.60500
 C975 C 0.52312 0.24348 0.58305
 C976 C 0.54024 0.24748 0.57086
 H977 H 0.62332 0.30749 0.50874
 H978 H 0.66023 0.27217 0.55060
 H979 H 0.69015 0.29053 0.53809
 H980 H 0.65312 0.32569 0.49590
 H981 H 0.57040 0.26755 0.60992
 H982 H 0.54074 0.26046 0.63139
 H983 H 0.51063 0.23584 0.57521
 H984 H 0.54024 0.24355 0.55400
 C985 C 0.34743 0.19100 0.56258
 C986 C 0.35663 0.20615 0.55036
 C987 C 0.34733 0.21276 0.53179
 C988 C 0.32908 0.20390 0.52526
 C989 C 0.32003 0.18823 0.53718
 C990 C 0.32927 0.18210 0.55607
 C991 C 0.37601 0.21405 0.55661
 C992 C 0.39239 0.21969 0.56247
 C993 C 0.41162 0.22517 0.57012
 C994 C 0.42797 0.22895 0.57739
 C995 C 0.44730 0.23242 0.58701
 C996 C 0.45935 0.24916 0.58132
 C997 C 0.47781 0.25258 0.59140
 C998 C 0.48488 0.23900 0.60700
 C999 C 0.47208 0.22257 0.61293
 C1000 C 0.45371 0.21919 0.60283
 H1001 H 0.35447 0.18580 0.57700
 H1002 H 0.35436 0.22444 0.52217
 H1003 H 0.32239 0.20878 0.51055
 H1004 H 0.32252 0.17030 0.56574
 H1005 H 0.45437 0.25976 0.56936
 H1006 H 0.48657 0.26604 0.58718
 H1007 H 0.47574 0.21259 0.62588
 H1008 H 0.44426 0.20646 0.60773
 C1009 C 0.86250 0.68939 0.02902
 C1010 C 0.86223 0.70763 0.04161
 C1011 C 0.84387 0.71673 0.04734
 C1012 C 0.82583 0.70736 0.04088
 C1013 C 0.82599 0.68867 0.02875
 C1014 C 0.84454 0.67998 0.02261
 C1015 C 0.88079 0.71602 0.04976
 C1016 C 0.89654 0.72208 0.05701
 C1017 C 0.91510 0.72807 0.06605
 C1018 C 0.93094 0.73226 0.07434
 C1019 C 0.94969 0.73615 0.08503
 C1020 C 0.96189 0.75292 0.07971
 C1021 C 0.97992 0.75656 0.09058
 C1022 C 0.98642 0.74315 0.10659
 C1023 C 0.97341 0.72678 0.11220
 C1024 C 0.95548 0.72319 0.10133
 H1025 H 0.87661 0.68218 0.02452
 H1026 H 0.84348 0.73078 0.05721
 H1027 H 0.81179 0.71431 0.04597
 H1028 H 0.84514 0.66579 0.01298
 H1029 H 0.95737 0.76332 0.06737
 H1030 H 0.98879 0.77000 0.08658
 H1031 H 0.97661 0.71697 0.12543
 H1032 H 0.94591 0.71045 0.10594
 C1033 C 0.65407 0.69670 0.94412
 C1034 C 0.63967 0.70473 0.95831
 C1035 C 0.64347 0.70512 0.98019
 C1036 C 0.66144 0.69711 0.98789
 C1037 C 0.67583 0.68856 0.97377
 C1038 C 0.67204 0.68869 0.95177
 C1039 C 0.62072 0.71180 0.95037
 C1040 C 0.60486 0.71728 0.94329
 C1041 C 0.58643 0.72328 0.93436
 C1042 C 0.57091 0.72811 0.92608
 C1043 C 0.55279 0.73362 0.91523
 C1044 C 0.54761 0.75446 0.91318
 C1045 C 0.53126 0.75982 0.90062
 C1046 C 0.52026 0.74447 0.88909
 C1047 C 0.52452 0.72344 0.89311
 C1048 C 0.54086 0.71812 0.90569
 H1049 H 0.65124 0.69625 0.92715
 H1050 H 0.63244 0.71133 0.99132
 H1051 H 0.66402 0.69746 1.00489
 H1052 H 0.68266 0.68196 0.94051
 H1053 H 0.55649 0.76661 0.92085
 H1054 H 0.52772 0.77610 0.89907
 H1055 H 0.51545 0.71095 0.88647
 H1056 H 0.54440 0.70188 0.90769
 C1057 C 0.15157 0.20033 0.44527
 C1058 C 0.13709 0.20827 0.45943
 C1059 C 0.14057 0.20805 0.48135
 C1060 C 0.15828 0.19950 0.48911
 C1061 C 0.17272 0.19102 0.47502
 C1062 C 0.16928 0.19179 0.45298
 C1063 C 0.11831 0.21572 0.45141
 C1064 C 0.10256 0.22145 0.44431
 C1065 C 0.08418 0.22764 0.43541
 C1066 C 0.06865 0.23256 0.42719
 C1067 C 0.05045 0.23805 0.41647
 C1068 C 0.04492 0.25886 0.41496
 C1069 C 0.02836 0.26421 0.40270
 C1070 C 0.01750 0.24892 0.39092
 C1071 C 0.02218 0.22788 0.39435
 C1072 C 0.03872 0.22256 0.40665
 H1073 H 0.14898 0.20033 0.42826
 H1074 H 0.12948 0.21417 0.49246
 H1075 H 0.16060 0.19937 0.50615
 H1076 H 0.17994 0.18513 0.44173
 H1077 H 0.05364 0.27099 0.42287
 H1078 H 0.02450 0.28046 0.40162
 H1079 H 0.01326 0.21537 0.38752
 H1080 H 0.04252 0.20634 0.40824
 C1081 C 0.57749 0.11203 0.72026
 C1082 C 0.56263 0.10945 0.70474
 C1083 C 0.55661 0.08945 0.69820
 C1084 C 0.56569 0.07207 0.70686
 C1085 C 0.58098 0.07451 0.72211
 C1086 C 0.58659 0.09469 0.72891
 C1087 C 0.55426 0.12731 0.69485
 C1088 C 0.54762 0.14228 0.68624
 C1089 C 0.54015 0.15974 0.67581
 C1090 C 0.53394 0.17453 0.66658
 C1091 C 0.52660 0.19200 0.65519
 C1092 C 0.52178 0.18964 0.63366
 C1093 C 0.51467 0.20651 0.62250
 C1094 C 0.51162 0.22606 0.63277
 C1095 C 0.51755 0.22839 0.65429
 C1096 C 0.52468 0.21144 0.66542
 H1097 H 0.58224 0.12745 0.72545
 H1098 H 0.54518 0.08728 0.68613
 H1099 H 0.56120 0.05675 0.70113
 H1100 H 0.59812 0.09706 0.74085
 H1101 H 0.52362 0.17475 0.62544
 H1102 H 0.51129 0.20430 0.60575
 H1103 H 0.51714 0.24329 0.66259
 H1104 H 0.52892 0.21356 0.68197
 C1105 C 1.05637 0.60270 0.21863
 C1106 C 1.06602 0.61331 0.20236
 C1107 C 1.08444 0.60617 0.19445
 C1108 C 1.09324 0.58851 0.20275
 C1109 C 1.08372 0.57772 0.21913
 C1110 C 1.06516 0.58499 0.22696
 C1111 C 1.05703 0.63140 0.19349
 C1112 C 1.04987 0.64648 0.18557
 C1113 C 1.04185 0.66400 0.17571
 C1114 C 1.03522 0.67880 0.16679
 C1115 C 1.02751 0.69619 0.15556
 C1116 C 1.02289 0.69388 0.13398
 C1117 C 1.01572 0.71074 0.12283
 C1118 C 1.01243 0.73022 0.13315
 C1119 C 1.01804 0.73247 0.15478
 C1120 C 1.02524 0.71554 0.16590
 H1121 H 1.04209 0.60811 0.22486
 H1122 H 1.09198 0.61420 0.18178
 H1123 H 1.10736 0.58312 0.19613
 H1124 H 1.05757 0.57714 0.23970
 H1125 H 1.02498 0.67907 0.12568
 H1126 H 1.01260 0.70859 0.10602
 H1127 H 1.01741 0.74734 0.16314
 H1128 H 1.02931 0.71762 0.18249
 C1129 C 0.93221 0.88437 0.22417
 C1130 C 0.94685 0.88639 0.20838
 C1131 C 0.95242 0.90615 0.20173
 C1132 C 0.94306 0.92382 0.21050
 C1133 C 0.92795 0.92190 0.22598
 C1134 C 0.92283 0.90199 0.23294
 C1135 C 0.95543 0.86816 0.19829
 C1136 C 0.96224 0.85290 0.18947
 C1137 C 0.96990 0.83512 0.17871
 C1138 C 0.97631 0.82007 0.16916
 C1139 C 0.98390 0.80236 0.15729
 C1140 C 0.99724 0.80526 0.14047
 C1141 C 1.00435 0.78823 0.12851
 C1142 C 0.99875 0.76773 0.13355
 C1143 C 0.98452 0.76525 0.15001
 C1144 C 0.97743 0.78234 0.16194
 H1145 H 0.92781 0.86914 0.22945
 H1146 H 0.96367 0.90788 0.18944
 H1147 H 0.94716 0.93891 0.20465
 H1148 H 0.91145 0.90005 0.24504
 H1149 H 1.00190 0.82076 0.13634
 H1150 H 1.01385 0.79136 0.11503
 H1151 H 0.97891 0.74996 0.15364
 H1152 H 0.96672 0.77994 0.17464
 C1153 C 0.43192 0.38071 0.72321
 C1154 C 0.44679 0.38279 0.70767
 C1155 C 0.45241 0.40257 0.70113
 C1156 C 0.44290 0.42021 0.70979
 C1157 C 0.42758 0.41823 0.72503
 C1158 C 0.42238 0.39830 0.73185
 C1159 C 0.45552 0.36459 0.69769
 C1160 C 0.46243 0.34933 0.68896
 C1161 C 0.47016 0.33151 0.67832
 C1162 C 0.47654 0.31640 0.66886
 C1163 C 0.48401 0.29855 0.65712
 C1164 C 0.49721 0.30123 0.64013
 C1165 C 0.50402 0.28406 0.62816
 C1166 C 0.49821 0.26366 0.63332
 C1167 C 0.48420 0.26142 0.65004
 C1168 C 0.47741 0.27863 0.66197
 H1169 H 0.42747 0.36547 0.72840
 H1170 H 0.46384 0.40434 0.68904
 H1171 H 0.44707 0.43531 0.70405
 H1172 H 0.41083 0.39632 0.74377
 H1173 H 0.50196 0.31666 0.63585
 H1174 H 0.51339 0.28705 0.61454
 H1175 H 0.47848 0.24621 0.65382
 H1176 H 0.46681 0.27642 0.67480
 C1177 C 0.42489 0.60809 0.79748
 C1178 C 0.44447 0.61198 0.79063
 C1179 C 0.45452 0.59717 0.77787
 C1180 C 0.44503 0.57841 0.77216
 C1181 C 0.42544 0.57426 0.77930
 C1182 C 0.41542 0.58940 0.79186
 C1183 C 0.45426 0.63093 0.79747
 C1184 C 0.46181 0.64684 0.80410
 C1185 C 0.46987 0.66540 0.81295
 C1186 C 0.47612 0.68112 0.82143
 C1187 C 0.48281 0.69960 0.83269
 C1188 C 0.50323 0.70423 0.83438
 C1189 C 0.50960 0.72111 0.84714
 C1190 C 0.49573 0.73313 0.85923
 C1191 C 0.47509 0.72928 0.85573
 C1192 C 0.46876 0.71247 0.84294
 H1193 H 0.41697 0.61946 0.80734
 H1194 H 0.46972 0.59999 0.77255
 H1195 H 0.45315 0.56699 0.76259
 H1196 H 0.40021 0.58683 0.79726
 H1197 H 0.51425 0.69462 0.82615
 H1198 H 0.52551 0.72437 0.84819
 H1199 H 0.46365 0.73914 0.86279
 H1200 H 0.45286 0.70936 0.84126
 C1201 C -0.07628 0.11234 0.29823
 C1202 C -0.05670 0.11647 0.29153
 C1203 C -0.04637 0.10175 0.27893
 C1204 C -0.05557 0.08284 0.27323
 C1205 C -0.07516 0.07844 0.28021
 C1206 C -0.08546 0.09349 0.29262
 C1207 C -0.04719 0.13557 0.29842
 C1208 C -0.03990 0.15157 0.30514
 C1209 C -0.03214 0.17023 0.31410
 C1210 C -0.02615 0.18598 0.32272
 C1211 C -0.01976 0.20446 0.33419
 C1212 C 0.00056 0.20966 0.33557
 C1213 C 0.00671 0.22644 0.34857
 C1214 C -0.00725 0.23778 0.36123
 C1215 C -0.02785 0.23343 0.35803
 C1216 C -0.03396 0.21671 0.34499
 H1217 H -0.08442 0.12363 0.30797
 H1218 H -0.03116 0.10477 0.27373
 H1219 H -0.04723 0.07149 0.26377
 H1220 H -0.10068 0.09073 0.29791
 H1221 H 0.01168 0.20054 0.32691
 H1222 H 0.02254 0.23014 0.34940
 H1223 H -0.03941 0.24280 0.36555
 H1224 H -0.04980 0.21317 0.34356
 C1225 C 0.06008 0.39125 0.26806
 C1226 C 0.05015 0.39086 0.28769
 C1227 C 0.04970 0.40872 0.30086
 C1228 C 0.05965 0.42672 0.29477
 C1229 C 0.07022 0.42709 0.27539
 C1230 C 0.07000 0.40929 0.26189
 C1231 C 0.04175 0.37181 0.29519
 C1232 C 0.03532 0.35599 0.30242
 C1233 C 0.02847 0.33771 0.31196
 C1234 C 0.02319 0.32240 0.32104
 C1235 C 0.01755 0.30457 0.33298
 C1236 C 0.03236 0.29295 0.34281
 C1237 C 0.02704 0.27693 0.35624
 C1238 C 0.00668 0.27271 0.36082
 C1239 C -0.00800 0.28336 0.34917
 C1240 C -0.00264 0.29942 0.33576
 H1241 H 0.06064 0.37746 0.25781
 H1242 H 0.04210 0.40858 0.31611
 H1243 H 0.05933 0.44027 0.30536
 H1244 H 0.07819 0.40903 0.24699
 H1245 H 0.04808 0.29644 0.34031
 H1246 H 0.03903 0.26799 0.36295
 H1247 H -0.02375 0.27970 0.35108
 H1248 H -0.01425 0.30806 0.32789
 C1249 C 0.55083 0.89765 0.77383
 C1250 C 0.56079 0.88337 0.78642
 C1251 C 0.58034 0.88753 0.79332
 C1252 C 0.58985 0.90597 0.78794
 C1253 C 0.57992 0.92060 0.77558
 C1254 C 0.56037 0.91616 0.76836
 C1255 C 0.55092 0.86480 0.79321
 C1256 C 0.54337 0.84928 0.79995
 C1257 C 0.53540 0.83128 0.80908
 C1258 C 0.52930 0.81617 0.81795
 C1259 C 0.52288 0.79857 0.82983
 C1260 C 0.53717 0.78663 0.84010
 C1261 C 0.53115 0.77105 0.85373
 C1262 C 0.51060 0.76760 0.85807
 C1263 C 0.49645 0.77843 0.84588
 C1264 C 0.50251 0.79409 0.83229
 H1265 H 0.53564 0.89462 0.76849
 H1266 H 0.58820 0.87659 0.80307
 H1267 H 0.60503 0.90877 0.79341
 H1268 H 0.55232 0.92719 0.75892
 H1269 H 0.55303 0.78959 0.83785
 H1270 H 0.54275 0.76188 0.86086
 H1271 H 0.48057 0.77531 0.84758
 H1272 H 0.49130 0.80297 0.82408
 C1273 C 0.71557 0.59125 0.11836
 C1274 C 0.70613 0.57205 0.11561
 C1275 C 0.70557 0.56247 0.09545
 C1276 C 0.71400 0.57224 0.07795
 C1277 C 0.72314 0.59215 0.08009
 C1278 C 0.72401 0.60115 0.10098
 C1279 C 0.69631 0.56262 0.13334
 C1280 C 0.68770 0.55504 0.14813
 C1281 C 0.67722 0.54640 0.16530
 C1282 C 0.66794 0.53910 0.17979
 C1283 C 0.65647 0.53036 0.19680
 C1284 C 0.64080 0.51658 0.19207
 C1285 C 0.62938 0.50822 0.20841
 C1286 C 0.63379 0.51297 0.23002
 C1287 C 0.64907 0.52774 0.23437
 C1288 C 0.66047 0.53608 0.21797
 H1289 H 0.71635 0.59871 0.13401
 H1290 H 0.69815 0.54760 0.09311
 H1291 H 0.71195 0.56442 0.06270
 H1292 H 0.73176 0.61557 0.10450
 H1293 H 0.63720 0.51251 0.17568
 H1294 H 0.61685 0.49841 0.20389
 H1295 H 0.65222 0.53275 0.25060
 H1296 H 0.67229 0.54712 0.22181
 C1297 C 0.21649 1.08488 0.61919
 C1298 C 0.20193 1.06941 0.61618
 C1299 C 0.19571 1.06375 0.59557
 C1300 C 0.20371 1.07383 0.57804
 C1301 C 0.21801 1.08976 0.58094
 C1302 C 0.22449 1.09498 0.60170
 C1303 C 0.19274 1.05999 0.63427
 C1304 C 0.18468 1.05237 0.64937
 C1305 C 0.17483 1.04366 0.66690
 C1306 C 0.16608 1.03626 0.68169
 C1307 C 0.15522 1.02737 0.69904
 C1308 C 0.13972 1.01325 0.69479
 C1309 C 0.12883 1.00479 0.71147
 C1310 C 0.13363 1.00978 0.73293
 C1311 C 0.14875 1.02483 0.73681
 C1312 C 0.15962 1.03328 0.72007
 H1313 H 0.22143 1.08935 0.63507
 H1314 H 0.18440 1.05184 0.59307
 H1315 H 0.19825 1.06962 0.56230
 H1316 H 0.23568 1.10697 0.60441
 H1317 H 0.13581 1.00901 0.67853
 H1318 H 0.11637 0.99473 0.70732
 H1319 H 0.15219 1.03001 0.75292
 H1320 H 0.17131 1.04457 0.72354
 C1321 C 0.21064 0.94422 0.90229
 C1322 C 0.20351 0.93273 0.88476
 C1323 C 0.20492 0.91115 0.88445
 C1324 C 0.21325 0.90099 0.90164
 C1325 C 0.22047 0.91218 0.91989
 C1326 C 0.21901 0.93419 0.91960
 C1327 C 0.19418 0.94293 0.86729
 C1328 C 0.18601 0.95111 0.85265
 C1329 C 0.17603 0.96031 0.83556
 C1330 C 0.16715 0.96792 0.82104
 C1331 C 0.15611 0.97674 0.80387
 C1332 C 0.13570 0.98095 0.80639
 C1333 C 0.12477 0.98908 0.78966
 C1334 C 0.13412 0.99379 0.77017
 C1335 C 0.15461 0.98860 0.76765
 C1336 C 0.16551 0.98044 0.78444
 H1337 H 0.20977 0.96102 0.90261
 H1338 H 0.19920 0.90206 0.87102
 H1339 H 0.21274 0.88424 0.90070
 H1340 H 0.22497 0.94412 0.93217
 H1341 H 0.12815 0.97774 0.82122
 H1342 H 0.10888 0.99179 0.79193
 H1343 H 0.16226 0.99026 0.75262
 H1344 H 0.18121 0.97670 0.78214
 C1345 C 0.71499 0.44204 0.39428
 C1346 C 0.69801 0.43412 0.38377
 C1347 C 0.68899 0.41587 0.39068
 C1348 C 0.69692 0.40550 0.40794
 C1349 C 0.71404 0.41323 0.41856
 C1350 C 0.72296 0.43167 0.41160
 C1351 C 0.68970 0.44460 0.36592
 C1352 C 0.68229 0.45298 0.35096
 C1353 C 0.67308 0.46240 0.33351
 C1354 C 0.66476 0.47018 0.31874
 C1355 C 0.65426 0.47922 0.30131
 C1356 C 0.63387 0.48373 0.30334
 C1357 C 0.62344 0.49210 0.28640
 C1358 C 0.63327 0.49674 0.26716
 C1359 C 0.65373 0.49125 0.26511
 C1360 C 0.66414 0.48285 0.28213
 H1361 H 0.72210 0.45616 0.38905
 H1362 H 0.67579 0.40966 0.38273
 H1363 H 0.68951 0.39153 0.41312
 H1364 H 0.73625 0.43789 0.41932
 H1365 H 0.62594 0.48057 0.31797
 H1366 H 0.60754 0.49504 0.28831
 H1367 H 0.66173 0.49285 0.25028
 H1368 H 0.67983 0.47888 0.28019
 C1369 C 0.78447 0.44713 0.59130
 C1370 C 0.78462 0.43702 0.61072
 C1371 C 0.77757 0.41660 0.61173
 C1372 C 0.77058 0.40624 0.59339
 C1373 C 0.77054 0.41616 0.57372
 C1374 C 0.77747 0.43678 0.57291
 C1375 C 0.79282 0.44716 0.62946
 C1376 C 0.80013 0.45516 0.64518
 C1377 C 0.80929 0.46398 0.66353
 C1378 C 0.81770 0.47106 0.67906
 C1379 C 0.82855 0.47899 0.69731
 C1380 C 0.83835 0.46523 0.71054
 C1381 C 0.85041 0.47278 0.72717
 C1382 C 0.85357 0.49436 0.73042
 C1383 C 0.84205 0.50796 0.71811
 C1384 C 0.83001 0.50036 0.70145
 H1385 H 0.78994 0.46293 0.59034
 H1386 H 0.77778 0.40857 0.62664
 H1387 H 0.76567 0.39027 0.59451
 H1388 H 0.77743 0.44491 0.55807
 H1389 H 0.83685 0.44861 0.70787
 H1390 H 0.85719 0.46155 0.73735
 H1391 H 0.84298 0.52459 0.72093
 H1392 H 0.82213 0.51118 0.69159
 C1393 C 0.27332 -0.07968 0.11458
 C1394 C 0.28198 -0.05992 0.11368
 C1395 C 0.28393 -0.05032 0.09407
 C1396 C 0.27760 -0.06061 0.07538
 C1397 C 0.26926 -0.08068 0.07607
 C1398 C 0.26697 -0.08999 0.09592
 C1399 C 0.29002 -0.05010 0.13266
 C1400 C 0.29740 -0.04231 0.14846
 C1401 C 0.30679 -0.03368 0.16675
 C1402 C 0.31551 -0.02672 0.18215
 C1403 C 0.32678 -0.01891 0.20016
 C1404 C 0.32867 0.00245 0.20414
 C1405 C 0.34111 0.00991 0.22052
 C1406 C 0.35261 -0.00382 0.23270
 C1407 C 0.34908 -0.02536 0.22959
 C1408 C 0.33661 -0.03277 0.21325
 H1409 H 0.27189 -0.08732 0.12964
 H1410 H 0.29067 -0.03505 0.09319
 H1411 H 0.27935 -0.05294 0.06039
 H1412 H 0.26089 -0.10553 0.09697
 H1413 H 0.32080 0.01335 0.19437
 H1414 H 0.34234 0.02653 0.22325
 H1415 H 0.35585 -0.03667 0.23969
 H1416 H 0.33481 -0.04938 0.21068
 C1417 C 0.28670 0.09261 0.38904
 C1418 C 0.28132 0.07186 0.38515
 C1419 C 0.26939 0.06154 0.39989
 C1420 C 0.26312 0.07189 0.41863
 C1421 C 0.26886 0.09264 0.42286
 C1422 C 0.28052 0.10294 0.40773
 C1423 C 0.28893 0.06113 0.36644
 C1424 C 0.29617 0.05278 0.35084
 C1425 C 0.30561 0.04373 0.33274
 C1426 C 0.31448 0.03660 0.31749
 C1427 C 0.32602 0.02879 0.29964
 C1428 C 0.32802 0.00743 0.29575
 C1429 C 0.34074 0.00003 0.27953
 C1430 C 0.35239 0.01382 0.26744
 C1431 C 0.34878 0.03534 0.27047
 C1432 C 0.33605 0.04269 0.28664
 H1433 H 0.29592 0.10076 0.37775
 H1434 H 0.26521 0.04544 0.39707
 H1435 H 0.25427 0.06353 0.43006
 H1436 H 0.28490 0.11900 0.41037
 H1437 H 0.32002 -0.00351 0.30544
 H1438 H 0.34203 -0.01659 0.27685
 H1439 H 0.35568 0.04668 0.26042
 H1440 H 0.33418 0.05929 0.28915
 C1441 C 0.78687 0.59057 0.88633
 C1442 C 0.78210 0.56956 0.88318
 C1443 C 0.77119 0.55917 0.89873
 C1444 C 0.76538 0.56972 0.91753
 C1445 C 0.77059 0.59072 0.92103
 C1446 C 0.78115 0.60109 0.90508
 C1447 C 0.78944 0.55866 0.86444
 C1448 C 0.79651 0.55025 0.84879
 C1449 C 0.80582 0.54120 0.83060
 C1450 C 0.81463 0.53414 0.81529
 C1451 C 0.82617 0.52649 0.79735
 C1452 C 0.82846 0.50516 0.79344
 C1453 C 0.84129 0.49796 0.77724
 C1454 C 0.85280 0.51193 0.76522
 C1455 C 0.84885 0.53338 0.76821
 C1456 C 0.83599 0.54054 0.78436
 H1457 H 0.79530 0.59877 0.87442
 H1458 H 0.76750 0.54287 0.89649
 H1459 H 0.75737 0.56132 0.92959
 H1460 H 0.78508 0.61734 0.90714
 H1461 H 0.82061 0.49410 0.80313
 H1462 H 0.84282 0.48136 0.77455
 H1463 H 0.85562 0.54483 0.75818
 H1464 H 0.83390 0.55710 0.78687
 C1465 C 0.10235 0.72002 0.54311
 C1466 C 0.11359 0.70431 0.55235
 C1467 C 0.10680 0.69533 0.57104
 C1468 C 0.08904 0.70215 0.58067
 C1469 C 0.07776 0.71813 0.57175
 C1470 C 0.08448 0.72687 0.55273
 C1471 C 0.13233 0.69746 0.54318
 C1472 C 0.14820 0.69105 0.53656
 C1473 C 0.16686 0.68277 0.52998
 C1474 C 0.18276 0.67500 0.52532
 C1475 C 0.20158 0.66486 0.52086
 C1476 C 0.20822 0.64949 0.53437
 C1477 C 0.22614 0.63902 0.53012
 C1478 C 0.23827 0.64410 0.51250
 C1479 C 0.23090 0.65921 0.49862
 C1480 C 0.21291 0.66968 0.50292
 H1481 H 0.10749 0.72710 0.52864
 H1482 H 0.11533 0.68310 0.57829
 H1483 H 0.08409 0.69487 0.59509
 H1484 H 0.07618 0.73930 0.54559
 H1485 H 0.19931 0.64527 0.54803
 H1486 H 0.22996 0.62649 0.54042
 H1487 H 0.23909 0.66280 0.48428
 H1488 H 0.20772 0.68129 0.49210
 C1489 C 0.60169 0.22106 1.04380
 C1490 C 0.61312 0.20551 1.05305
 C1491 C 0.60649 0.19651 1.07180
 C1492 C 0.58871 0.20319 1.08148
 C1493 C 0.57725 0.21903 1.07257
 C1494 C 0.58380 0.22777 1.05347
 C1495 C 0.63187 0.19882 1.04382
 C1496 C 0.64777 0.19255 1.03716
 C1497 C 0.66646 0.18439 1.03055
 C1498 C 0.68239 0.17669 1.02590
 C1499 C 0.70123 0.16657 1.02151
 C1500 C 0.70790 0.15132 1.03513
 C1501 C 0.72581 0.14083 1.03095
 C1502 C 0.73791 0.14577 1.01326
 C1503 C 0.73052 0.16077 0.99927
 C1504 C 0.71252 0.17125 1.00350
 H1505 H 0.60670 0.22815 1.02929
 H1506 H 0.61516 0.18440 1.07905
 H1507 H 0.58389 0.19592 1.09596
 H1508 H 0.57535 0.24009 1.04633
 H1509 H 0.69899 0.14719 1.04883
 H1510 H 0.72964 0.12838 1.04134
 H1511 H 0.73868 0.16424 0.98488
 H1512 H 0.70730 0.18275 0.99257
 C1513 C 0.88966 0.21466 0.92582
 C1514 C 0.88912 0.21629 0.94795
 C1515 C 0.90520 0.22538 0.95891
 C1516 C 0.92187 0.23272 0.94778
 C1517 C 0.92294 0.23114 0.92519
 C1518 C 0.90620 0.22192 0.91458
 C1519 C 0.87224 0.20790 0.95919
 C1520 C 0.85792 0.20024 0.96773
 C1521 C 0.84106 0.19048 0.97672
 C1522 C 0.82666 0.18143 0.98352
 C1523 C 0.80960 0.16974 0.99060
 C1524 C 0.79321 0.17966 1.00035
 C1525 C 0.77624 0.16818 1.00599
 C1526 C 0.77510 0.14660 1.00131
 C1527 C 0.79233 0.13679 0.99263
 C1528 C 0.80921 0.14826 0.98706
 H1529 H 0.87738 0.20735 0.91716
 H1530 H 0.90488 0.22685 0.97612
 H1531 H 0.93335 0.24035 0.95723
 H1532 H 0.90593 0.21898 0.89760
 H1533 H 0.79353 0.19626 1.00357
 H1534 H 0.76422 0.17634 1.01416
 H1535 H 0.79249 0.12015 0.98970
 H1536 H 0.82192 0.14035 0.97979
 C1537 C 0.38790 0.73239 0.43686
 C1538 C 0.39045 0.71697 0.45185
 C1539 C 0.40971 0.70958 0.45615
 C1540 C 0.42630 0.71726 0.44517
 C1541 C 0.42381 0.73237 0.42966
 C1542 C 0.40445 0.74007 0.42586
 C1543 C 0.37321 0.70777 0.46173
 C1544 C 0.35869 0.69957 0.46932
 C1545 C 0.34167 0.68936 0.47743
 C1546 C 0.32718 0.68008 0.48367
 C1547 C 0.31000 0.66828 0.49025
 C1548 C 0.30957 0.64685 0.48631
 C1549 C 0.29265 0.63532 0.49165
 C1550 C 0.27544 0.64502 0.50052
 C1551 C 0.27661 0.66653 0.50554
 C1552 C 0.29361 0.67807 0.50014
 H1553 H 0.37306 0.73819 0.43338
 H1554 H 0.41184 0.69754 0.46760
 H1555 H 0.44096 0.71086 0.44828
 H1556 H 0.40208 0.75190 0.41423
 H1557 H 0.32229 0.63903 0.47896
 H1558 H 0.29279 0.61871 0.48848
 H1559 H 0.26461 0.67458 0.51385
 H1560 H 0.29398 0.69461 0.50370
 C1561 C 0.59752 0.77276 0.45037
 C1562 C 0.61191 0.78463 0.43988
 C1563 C 0.60790 0.79182 0.41955
 C1564 C 0.58952 0.78744 0.40982
 C1565 C 0.57481 0.77581 0.42030
 C1566 C 0.57908 0.76831 0.44062
 C1567 C 0.63051 0.79031 0.45010
 C1568 C 0.64608 0.79603 0.45805
 C1569 C 0.66420 0.80387 0.46665
 C1570 C 0.67949 0.81160 0.47336
 C1571 C 0.69740 0.82213 0.48058
 C1572 C 0.69909 0.84350 0.47792
 C1573 C 0.71646 0.85400 0.48422
 C1574 C 0.73292 0.84332 0.49284
 C1575 C 0.73056 0.82186 0.49640
 C1576 C 0.71306 0.81134 0.49003
 H1577 H 0.60043 0.76720 0.46617
 H1578 H 0.61892 0.80100 0.41127
 H1579 H 0.58683 0.79312 0.39403
 H1580 H 0.56800 0.75944 0.44914
 H1581 H 0.68694 0.85209 0.47092
 H1582 H 0.71723 0.87060 0.48210
 H1583 H 0.74195 0.81311 0.50439
 H1584 H 0.71172 0.79484 0.49259
 C1585 C 0.09675 0.27151 -0.04845
 C1586 C 0.11128 0.28319 -0.05893
 C1587 C 0.10745 0.29027 -0.07935
 C1588 C 0.08910 0.28598 -0.08916
 C1589 C 0.07424 0.27455 -0.07868
 C1590 C 0.07834 0.26714 -0.05829
 C1591 C 0.12985 0.28884 -0.04865
 C1592 C 0.14542 0.29456 -0.04070
 C1593 C 0.16354 0.30246 -0.03219
 C1594 C 0.17884 0.31026 -0.02560
 C1595 C 0.19675 0.32088 -0.01856
 C1596 C 0.19837 0.34222 -0.02143
 C1597 C 0.21573 0.35283 -0.01526
 C1598 C 0.23223 0.34227 -0.00657
 C1599 C 0.22994 0.32084 -0.00282
 C1600 C 0.21246 0.31022 -0.00905
 H1601 H 0.09953 0.26604 -0.03259
 H1602 H 0.11859 0.29932 -0.08761
 H1603 H 0.08655 0.29157 -0.10501
 H1604 H 0.06714 0.25841 -0.04978
 H1605 H 0.18619 0.35072 -0.02849
 H1606 H 0.21645 0.36941 -0.01752
 H1607 H 0.24137 0.31221 0.00524
 H1608 H 0.21116 0.29374 -0.00633
 C1609 C 0.40417 0.26743 0.03966
 C1610 C 0.38967 0.27917 0.05073
 C1611 C 0.39310 0.28547 0.07188
 C1612 C 0.41099 0.28032 0.08189
 C1613 C 0.42580 0.26878 0.07088
 C1614 C 0.42213 0.26219 0.04970
 C1615 C 0.37146 0.28551 0.04055
 C1616 C 0.35606 0.29179 0.03308
 C1617 C 0.33798 0.30026 0.02559
 C1618 C 0.32260 0.30845 0.02033
 C1619 C 0.30444 0.31937 0.01548
 C1620 C 0.29798 0.33528 0.02936
 C1621 C 0.28073 0.34651 0.02490
 C1622 C 0.26903 0.34170 0.00667
 C1623 C 0.27628 0.32609 -0.00763
 C1624 C 0.29363 0.31484 -0.00312
 H1625 H 0.40170 0.26253 0.02325
 H1626 H 0.38198 0.29453 0.08062
 H1627 H 0.41320 0.28530 0.09831
 H1628 H 0.43331 0.25340 0.04080
 H1629 H 0.30654 0.33931 0.04351
 H1630 H 0.27707 0.35937 0.03560
 H1631 H 0.26848 0.32269 -0.02241
 H1632 H 0.29874 0.30284 -0.01425
 C1633 C 0.90466 0.76764 0.53869
 C1634 C 0.89024 0.77942 0.54985
 C1635 C 0.89375 0.78561 0.57101
 C1636 C 0.91163 0.78032 0.58095
 C1637 C 0.92637 0.76875 0.56986
 C1638 C 0.92262 0.76227 0.54866
 C1639 C 0.87202 0.78587 0.53975
 C1640 C 0.85662 0.79223 0.53235
 C1641 C 0.83854 0.80078 0.52495
 C1642 C 0.82317 0.80903 0.51975
 C1643 C 0.80502 0.82000 0.51494
 C1644 C 0.79856 0.83583 0.52891
 C1645 C 0.78135 0.84715 0.52448
 C1646 C 0.76970 0.84250 0.50617
 C1647 C 0.77695 0.82696 0.49179
 C1648 C 0.79426 0.81563 0.49628
 H1649 H 0.90213 0.76282 0.52227
 H1650 H 0.88268 0.79468 0.57982
 H1651 H 0.91388 0.78521 0.59739
 H1652 H 0.93374 0.75346 0.53969
 H1653 H 0.80709 0.83975 0.54312
 H1654 H 0.77771 0.85996 0.53524
 H1655 H 0.76921 0.82369 0.47696
 H1656 H 0.79939 0.80371 0.48508
   
