data_POSCAR
  _audit_creation_date              2014-09-24
  _audit_creation_method            'ToBaCCo'
  _symmetry_space_group_name_H-M    'P1'
  _symmetry_Int_Tables_number       1
  _symmetry_cell_setting            triclinic
  loop_
  _symmetry_equiv_pos_as_xyz
 x,y,z
_cell_length_a 53.8600
_cell_length_b 53.9016
_cell_length_c 53.9733
_cell_angle_alpha 89.931800
_cell_angle_beta 90.054400
_cell_angle_gamma 90.060600
loop_
  _atom_site_label
  _atom_site_type_symbol
  _atom_site_fract_x
  _atom_site_fract_y
  _atom_site_fract_z
N1 N 0.34725 1.34659 0.34744
 N2 N 0.34925 0.84847 0.84800
 N3 N 0.84738 1.34890 0.84865
 N4 N 0.84820 0.84714 0.34652
 N5 N 0.65146 0.65123 0.34865
 N6 N 0.65315 0.15240 0.84751
 N7 N 1.15055 0.65126 0.84919
 N8 N 1.15091 0.15175 0.34842
 N9 N 0.65100 1.34943 0.65109
 N10 N 0.65553 0.84557 1.15604
 N11 N 1.15368 1.34749 1.15310
 N12 N 1.15145 0.84861 0.65215
 N13 N 0.34996 0.64963 0.64997
 N14 N 0.35153 0.14882 1.14910
 N15 N 0.84840 0.65219 1.15076
 N16 N 0.84741 0.15175 0.65204
 N17 N 1.34535 0.34527 0.65539
 N18 N 1.35079 0.85058 1.15024
 N19 N 0.84899 0.34959 1.15031
 N20 N 0.84884 0.84860 0.65135
 N21 N 0.65051 0.65008 0.65032
 N22 N 0.65315 1.15300 1.15391
 N23 N 0.15093 0.65002 1.15126
 N24 N 0.15055 1.15145 0.65091
 N25 N 1.34815 0.65126 0.34829
 N26 N 1.35208 1.14870 0.85032
 N27 N 0.84870 0.65196 0.84896
 N28 N 0.84882 1.15209 0.34885
 N29 N 0.64714 0.35278 0.35197
 N30 N 0.65120 0.84877 0.84810
 N31 N 0.15034 0.34987 0.84965
 N32 N 0.15021 0.84887 0.34959
 O33 O 0.97412 0.91220 0.87671
 O34 O 0.97367 0.88334 0.84778
 C35 C 0.96537 0.90352 0.85664
 C36 C 0.94476 0.91652 0.84389
 C37 C 0.93494 0.90702 0.82177
 H38 H 0.94350 0.89097 0.81328
 O39 O 1.02480 1.09093 0.87773
 O40 O 1.02503 1.12011 0.84906
 C41 C 1.03336 1.09981 0.85766
 C42 C 1.05350 1.08654 0.84451
 C43 C 1.06260 1.09531 0.82169
 H44 H 1.05478 1.11200 0.81374
 O45 O 0.87594 0.97783 0.91116
 O46 O 0.84677 0.97826 0.88246
 C47 C 0.85568 0.96948 0.90245
 C48 C 0.84283 0.94876 0.91521
 C49 C 0.82059 0.93914 0.90563
 H50 H 0.81209 0.94788 0.88967
 O51 O 1.12362 1.02437 0.91006
 O52 O 1.15225 1.02447 0.88087
 C53 C 1.14372 1.03289 0.90113
 C54 C 1.15693 1.05320 0.91412
 C55 C 1.17982 1.06198 0.90527
 H56 H 1.18841 1.05310 0.88946
 O57 O 0.90962 0.87817 0.97625
 O58 O 0.88053 0.84934 0.97639
 C59 C 0.90080 0.85798 0.96792
 C60 C 0.91386 0.84486 0.94767
 C61 C 0.90560 0.82155 0.93952
 H62 H 0.89070 0.81247 0.94945
 O63 O 1.09126 1.12360 0.97657
 O64 O 1.12031 1.15246 0.97639
 C65 C 1.09988 1.14390 0.96824
 C66 C 1.08623 1.15728 0.94849
 C67 C 1.09392 1.18094 0.94065
 H68 H 1.10937 1.18993 0.94984
 O69 O 0.91002 1.02629 0.87731
 O70 O 0.88094 1.02688 0.84852
 C71 C 0.90126 1.03510 0.85730
 C72 C 0.91451 1.05558 0.84457
 C73 C 0.90547 1.06537 0.82216
 H74 H 0.88891 1.05754 0.81386
 O75 O 1.08931 0.97594 0.87641
 O76 O 1.11785 0.97596 0.84714
 C77 C 1.09779 0.96746 0.85615
 C78 C 1.08436 0.94722 0.84327
 C79 C 1.09295 0.93796 0.82049
 H80 H 1.10963 0.94573 0.81244
 O81 O 1.02282 0.87778 0.91013
 O82 O 1.02237 0.84900 0.88113
 C83 C 1.03117 0.85764 0.90119
 C84 C 1.05188 0.84459 0.91379
 C85 C 1.06102 0.82214 0.90429
 H86 H 1.05192 0.81365 0.88853
 O87 O 0.97633 1.12446 0.91203
 O88 O 0.97641 1.15363 0.88334
 C89 C 0.96780 1.14465 0.90335
 C90 C 0.94704 1.15733 0.91613
 C91 C 0.93747 1.17962 0.90667
 H92 H 0.94636 1.18828 0.89088
 O93 O 0.87645 1.09045 0.97775
 O94 O 0.84743 1.11929 0.97823
 C95 C 0.85607 1.09912 0.96965
 C96 C 0.84280 1.08606 0.94944
 C97 C 0.81947 1.09436 0.94128
 H98 H 0.81049 1.10980 0.95047
 O99 O 1.12401 0.90998 0.97463
 O100 O 1.15282 0.88094 0.97414
 C101 C 1.14406 0.90120 0.96589
 C102 C 1.15683 0.91438 0.94544
 C103 C 1.17921 0.90529 0.93561
 H104 H 1.18753 0.88875 0.94343
 O105 O 0.97632 1.09084 0.87784
 O106 O 0.97654 1.11995 0.84909
 C107 C 0.96789 1.09978 0.85774
 C108 C 0.94722 1.08706 0.84477
 C109 C 0.93805 1.09642 0.82228
 H110 H 0.94717 1.11213 0.81366
 O111 O 1.02255 0.91198 0.87631
 O112 O 1.02206 0.88326 0.84725
 C113 C 1.03074 0.90335 0.85602
 C114 C 1.05119 0.91631 0.84300
 C115 C 1.05952 0.90785 0.81988
 H116 H 1.04953 0.89298 0.81081
 O117 O 1.12344 0.97596 0.91022
 O118 O 1.15206 0.97607 0.88102
 C119 C 1.14350 0.96752 0.90123
 C120 C 1.15654 0.94696 0.91394
 C121 C 1.17900 0.93779 0.90454
 H122 H 1.18755 0.94687 0.88880
 O123 O 0.87602 1.02623 0.91125
 O124 O 0.84679 1.02676 0.88262
 C125 C 0.85579 1.03493 0.90280
 C126 C 0.84293 1.05504 0.91637
 C127 C 0.81987 1.06402 0.90814
 H128 H 0.81103 1.05587 0.89204
 O129 O 0.91052 1.12437 0.97699
 O130 O 0.88166 1.15336 0.97718
 C131 C 0.90168 1.14449 0.96845
 C132 C 0.91453 1.15724 0.94774
 C133 C 0.90507 1.17944 0.93780
 H134 H 0.88844 1.18755 0.94562
 O135 O 1.08937 0.87669 0.97458
 O136 O 1.11805 0.84753 0.97409
 C137 C 1.09789 0.85658 0.96580
 C138 C 1.08456 0.84407 0.94527
 C139 C 1.09355 0.82172 0.93535
 H140 H 1.11007 0.81333 0.94313
 O141 O 1.08894 1.02436 0.87676
 O142 O 1.11746 1.02437 0.84747
 C143 C 1.09740 1.03284 0.85649
 C144 C 1.08433 1.05337 0.84376
 C145 C 1.09262 1.06189 0.82064
 H146 H 1.10739 1.05197 0.81137
 O147 O 0.90918 0.97783 0.87663
 O148 O 0.88012 0.97829 0.84783
 C149 C 0.90018 0.96946 0.85653
 C150 C 0.91281 0.94869 0.84372
 C151 C 0.90310 0.93875 0.82163
 H152 H 0.88657 0.94678 0.81348
 O153 O 1.02486 1.12447 0.91212
 O154 O 1.02490 1.15377 0.88357
 C155 C 1.03335 1.14477 0.90365
 C156 C 1.05363 1.15770 0.91698
 C157 C 1.06161 1.18130 0.90933
 H158 H 1.05255 1.19026 0.89380
 O159 O 0.97423 0.87797 0.91041
 O160 O 0.97382 0.84906 0.88154
 C161 C 0.96551 0.85788 0.90172
 C162 C 0.94518 0.84498 0.91499
 C163 C 0.93609 0.82205 0.90654
 H164 H 0.94409 0.81390 0.89007
 O165 O 1.12502 1.08938 0.97576
 O166 O 1.15425 1.11806 0.97551
 C167 C 1.14514 1.09804 0.96702
 C168 C 1.15768 1.08500 0.94637
 C169 C 1.18056 1.09354 0.93723
 H170 H 1.18938 1.10949 0.94570
 O171 O 0.87560 0.91209 0.97622
 O172 O 0.84637 0.88342 0.97635
 C173 C 0.85536 0.90344 0.96771
 C174 C 0.84264 0.91642 0.94705
 C175 C 0.82044 0.90697 0.93705
 H176 H 0.81222 0.89040 0.94492
 Cu177 Cu 0.99847 0.89785 0.89632
 Cu178 Cu 0.99795 0.86327 0.86153
 Cu179 Cu 1.00062 1.10475 0.89780
 Cu180 Cu 1.00076 1.13981 0.86341
 Cu181 Cu 0.89572 1.00203 0.89693
 Cu182 Cu 0.86073 1.00264 0.86247
 Cu183 Cu 1.10346 1.00014 0.89629
 Cu184 Cu 1.13778 1.00025 0.86119
 C185 C 0.93375 0.93752 0.85457
 H186 H 0.94104 0.94472 0.87184
 C187 C 0.91396 0.91778 0.81062
 C188 C 1.06450 1.06555 0.85535
 H189 H 1.05808 1.05909 0.87325
 C190 C 1.08219 1.08308 0.80951
 C191 C 0.85357 0.93744 0.93609
 H192 H 0.87092 0.94455 0.94336
 C193 C 0.80936 0.91812 0.91624
 C194 C 1.14613 1.06468 0.93482
 H195 H 1.12831 1.05823 0.94154
 C196 C 1.19177 1.08217 0.91667
 C197 C 0.93394 0.85620 0.93557
 H198 H 0.94038 0.87420 0.94177
 C199 C 0.91636 0.81000 0.91874
 C200 C 1.06590 1.14596 0.93672
 H201 H 1.06006 1.12759 0.94246
 C202 C 1.08168 1.19313 0.92110
 C203 C 0.93551 1.06646 0.85561
 H204 H 0.94229 1.05935 0.87314
 C205 C 0.91707 1.08586 0.81090
 C206 C 1.06346 0.93627 0.85433
 H207 H 1.05715 0.94284 0.87221
 C208 C 1.08062 0.91827 0.80852
 C209 C 1.06361 0.85526 0.93445
 H210 H 1.05686 0.87274 0.94167
 C211 C 1.08196 0.81064 0.91480
 C212 C 0.93561 1.14643 0.93683
 H213 H 0.94272 1.12907 0.94404
 C214 C 0.91634 1.19069 0.91715
 C215 C 0.85418 1.06612 0.93711
 H216 H 0.87224 1.05971 0.94320
 C217 C 0.80802 1.08352 0.92060
 C218 C 1.14577 0.93533 0.93458
 H219 H 1.12826 0.94214 0.94171
 C220 C 1.19038 0.91683 0.91506
 O221 O 1.02517 0.90963 1.12227
 O222 O 1.02511 0.88053 1.15103
 C223 C 1.03369 0.90073 1.14234
 C224 C 1.05434 0.91354 1.15525
 C225 C 1.06365 0.90415 1.17767
 H226 H 1.05470 0.88832 1.18622
 O227 O 0.97776 1.09064 1.12398
 O228 O 0.97825 1.11953 1.15287
 C229 C 0.96947 1.09948 1.14416
 C230 C 0.94894 1.08666 1.15720
 C231 C 0.93919 1.09641 1.17925
 H232 H 0.94744 1.11283 1.18739
 O233 O 0.87889 1.02521 1.09150
 O234 O 0.85020 1.02502 1.12063
 C235 C 0.85882 1.03368 1.10048
 C236 C 0.84577 1.05428 1.08779
 C237 C 0.82342 1.06357 1.09735
 H238 H 0.81512 1.05491 1.11346
 O239 O 1.12466 0.97493 1.08860
 O240 O 1.15384 0.97458 1.11730
 C241 C 1.14489 0.96633 1.09711
 C242 C 1.15776 0.94614 1.08365
 C243 C 1.18121 0.93781 1.09141
 H244 H 1.19044 0.94697 1.10672
 O245 O 1.08999 0.87593 1.02295
 O246 O 1.11877 0.84686 1.02258
 C247 C 1.09872 0.85568 1.03127
 C248 C 1.08590 0.84274 1.05185
 C249 C 1.09529 0.82034 1.06125
 H250 H 1.11114 0.81177 1.05239
 O251 O 0.91149 1.12450 1.02533
 O252 O 0.88279 1.15364 1.02565
 C253 C 0.90307 1.14478 1.03382
 C254 C 0.91669 1.15777 1.05386
 C255 C 0.90864 1.18100 1.06244
 H256 H 0.89308 1.19004 1.05349
 O257 O 0.91295 0.97636 1.12490
 O258 O 0.88438 0.97626 1.15414
 C259 C 0.90436 0.96771 1.14506
 C260 C 0.91722 0.94682 1.15748
 C261 C 0.90838 0.93737 1.18010
 H262 H 0.89276 0.94609 1.18926
 O263 O 1.09109 1.02335 1.12282
 O264 O 1.11999 1.02299 1.15178
 C265 C 1.09985 1.03166 1.14303
 C266 C 1.08674 1.05198 1.15612
 C267 C 1.09487 1.06010 1.17949
 H268 H 1.11065 1.05118 1.18818
 O269 O 0.97650 0.87593 1.08832
 O270 O 0.97655 0.84655 1.11679
 C271 C 0.96801 0.85563 1.09678
 C272 C 0.94754 0.84290 1.08355
 C273 C 0.93947 0.81925 1.09100
 H274 H 0.94871 0.80992 1.10622
 O275 O 1.02635 1.12424 1.08977
 O276 O 1.02699 1.15307 1.11872
 C277 C 1.03521 1.14426 1.09852
 C278 C 1.05586 1.15690 1.08550
 C279 C 1.06543 1.17947 1.09441
 H280 H 1.05704 1.18835 1.11033
 O281 O 0.87622 0.91229 1.02474
 O282 O 0.84696 0.88365 1.02502
 C283 C 0.85611 0.90367 1.03349
 C284 C 0.84381 0.91663 1.05434
 C285 C 0.82137 0.90765 1.06421
 H286 H 0.81246 0.89161 1.05600
 O287 O 1.12560 1.08899 1.02419
 O288 O 1.15491 1.11758 1.02402
 C289 C 1.14593 1.09751 1.03256
 C290 C 1.15886 1.08421 1.05284
 C291 C 1.18194 1.09258 1.06164
 H292 H 1.19082 1.10852 1.05318
 O293 O 1.02617 1.08959 1.12311
 O294 O 1.02670 1.11826 1.15222
 C295 C 1.03484 1.09801 1.14331
 C296 C 1.05496 1.08439 1.15622
 C297 C 1.06328 1.09213 1.17963
 H298 H 1.05414 1.10749 1.18877
 O299 O 0.97672 0.90936 1.12277
 O300 O 0.97659 0.88012 1.15138
 C301 C 0.96821 0.90042 1.14284
 C302 C 0.94802 0.91353 1.15607
 C303 C 0.93850 0.90402 1.17837
 H304 H 0.94624 0.88727 1.18636
 O305 O 1.12537 1.02324 1.08910
 O306 O 1.15446 1.02295 1.11788
 C307 C 1.14572 1.03149 1.09773
 C308 C 1.15893 1.05168 1.08451
 C309 C 1.18231 1.05995 1.09264
 H310 H 1.19135 1.05096 1.10818
 O311 O 0.87873 0.97680 1.09107
 O312 O 0.85010 0.97663 1.12026
 C313 C 0.85860 0.96832 1.09994
 C314 C 0.84526 0.94813 1.08691
 C315 C 0.82293 0.93880 1.09652
 H316 H 0.81488 0.94715 1.11290
 O317 O 1.09202 1.12317 1.02481
 O318 O 1.12122 1.15189 1.02469
 C319 C 1.10108 1.14318 1.03334
 C320 C 1.08837 1.15610 1.05391
 C321 C 1.09796 1.17838 1.06341
 H322 H 1.11439 1.18662 1.05524
 O323 O 0.90965 0.87775 1.02439
 O324 O 0.88053 0.84895 1.02455
 C325 C 0.90094 0.85748 1.03275
 C326 C 0.91453 0.84396 1.05244
 C327 C 0.90665 0.82036 1.06024
 H328 H 0.89092 0.81161 1.05125
 O329 O 1.09106 0.97481 1.12287
 O330 O 1.12008 0.97436 1.15171
 C331 C 1.09985 0.96600 1.14288
 C332 C 1.08677 0.94535 1.15555
 C333 C 1.09595 0.93551 1.17790
 H334 H 1.11243 0.94345 1.18623
 O335 O 0.91303 1.02490 1.12526
 O336 O 0.88438 1.02478 1.15442
 C337 C 0.90441 1.03339 1.14544
 C338 C 0.91729 1.05414 1.15802
 C339 C 0.90790 1.06406 1.18018
 H340 H 0.89163 1.05587 1.18870
 O341 O 0.97785 1.12430 1.08971
 O342 O 0.97844 1.15328 1.11851
 C343 C 0.96964 1.14455 1.09846
 C344 C 0.94922 1.15766 1.08549
 C345 C 0.94082 1.18083 1.09390
 H346 H 0.94967 1.18939 1.10976
 O347 O 1.02502 0.87551 1.08856
 O348 O 1.02507 0.84633 1.11723
 C349 C 1.03358 0.85530 1.09719
 C350 C 1.05414 0.84256 1.08416
 C351 C 1.06396 0.82025 1.09344
 H352 H 1.05605 0.81201 1.10997
 O353 O 1.12393 0.90998 1.02296
 O354 O 1.15287 0.88107 1.02254
 C355 C 1.14419 0.90120 1.03120
 C356 C 1.15743 0.91429 1.05143
 C357 C 1.18083 0.90614 1.05954
 H358 H 1.18943 0.89032 1.05067
 O359 O 0.87734 1.09065 1.02609
 O360 O 0.84848 1.11962 1.02666
 C361 C 0.85739 1.09945 1.03500
 C362 C 0.84493 1.08640 1.05575
 C363 C 0.82248 1.09536 1.06555
 H364 H 0.81377 1.11156 1.05745
 Cu365 Cu 1.00083 0.89550 1.10259
 Cu366 Cu 1.00081 0.86046 1.13699
 Cu367 Cu 1.00198 1.10433 1.10373
 Cu368 Cu 1.00268 1.13894 1.13848
 Cu369 Cu 0.89562 0.89801 1.00040
 Cu370 Cu 0.86059 0.86353 1.00060
 Cu371 Cu 1.10395 0.89605 0.99882
 Cu372 Cu 1.13849 0.86115 0.99832
 Cu373 Cu 0.89682 1.10460 1.00150
 Cu374 Cu 0.86219 1.13939 1.00197
 Cu375 Cu 1.10558 1.10339 1.00031
 Cu376 Cu 1.14064 1.13786 1.00009
 Cu377 Cu 0.89882 1.00082 1.10530
 Cu378 Cu 0.86440 1.00062 1.14029
 Cu379 Cu 1.10512 0.99914 1.10301
 Cu380 Cu 1.13996 0.99871 1.13760
 C381 C 1.06585 0.93432 1.14448
 H382 H 1.05896 0.94145 1.12702
 C383 C 1.08457 0.91483 1.18904
 C384 C 0.93799 1.06541 1.14685
 H385 H 0.94511 1.05808 1.12959
 C386 C 0.91863 1.08529 1.19082
 C387 C 0.85628 1.06570 1.06687
 H388 H 0.87375 1.05889 1.05966
 C389 C 0.81170 1.08412 1.08644
 C390 C 1.14616 0.93443 1.06349
 H391 H 1.12795 0.94058 1.05758
 C392 C 1.19292 0.91781 1.07948
 C393 C 1.06514 0.85355 1.06326
 H394 H 1.05800 0.87100 1.05630
 C395 C 1.08462 0.80904 1.08218
 C396 C 0.93716 1.14640 1.06533
 H397 H 0.94327 1.12835 1.05900
 C398 C 0.92056 1.19269 1.08247
 C399 C 0.93732 0.93500 1.14583
 H400 H 0.94414 0.94207 1.12832
 C401 C 0.91882 0.91592 1.19046
 C402 C 1.06665 1.06413 1.14474
 H403 H 1.06051 1.05824 1.12655
 C404 C 1.08323 1.08014 1.19143
 C405 C 0.93511 0.85497 1.06407
 H406 H 0.94105 0.87332 1.05840
 C407 C 0.91905 0.80783 1.07944
 C408 C 1.06725 1.14557 1.06501
 H409 H 1.06010 1.12808 1.05815
 C410 C 1.08655 1.19015 1.08355
 C411 C 0.85545 0.93706 1.06568
 H412 H 0.87294 0.94387 1.05846
 C413 C 0.81096 0.91852 1.08542
 C414 C 1.14756 1.06369 1.06434
 H415 H 1.12949 1.05750 1.05804
 C416 C 1.19378 1.08043 1.08136
 O417 O 0.97454 0.41152 0.37637
 O418 O 0.97427 0.38263 0.34747
 C419 C 0.96592 0.40283 0.35626
 C420 C 0.94549 0.41590 0.34332
 C421 C 0.93636 0.40681 0.32075
 H422 H 0.94530 0.39102 0.31217
 O423 O 1.02425 0.58950 0.37679
 O424 O 1.02465 0.61854 0.34799
 C425 C 1.03282 0.59819 0.35665
 C426 C 1.05291 0.58476 0.34357
 C427 C 1.06095 0.59251 0.32004
 H428 H 1.05163 0.60778 0.31090
 O429 O 0.87550 0.47709 0.40971
 O430 O 0.84626 0.47739 0.38108
 C431 C 0.85514 0.46880 0.40115
 C432 C 0.84207 0.44860 0.41446
 C433 C 0.81838 0.44067 0.40689
 H434 H 0.80912 0.45007 0.39172
 O435 O 1.12355 0.52390 0.41096
 O436 O 1.15266 0.52398 0.38225
 C437 C 1.14383 0.53235 0.40241
 C438 C 1.15696 0.55243 0.41583
 C439 C 1.18044 0.56059 0.40796
 H440 H 1.18912 0.55189 0.39210
 O441 O 0.90944 0.37738 0.47535
 O442 O 0.88041 0.34849 0.47523
 C443 C 0.90072 0.35716 0.46694
 C444 C 0.91413 0.34397 0.44699
 C445 C 0.90646 0.32032 0.43920
 H446 H 0.89111 0.31122 0.44848
 O447 O 1.09004 0.62295 0.47695
 O448 O 1.11908 0.65183 0.47703
 C449 C 1.09884 0.64314 0.46854
 C450 C 1.08563 0.65625 0.44829
 C451 C 1.09356 0.67976 0.44024
 H452 H 1.10896 0.68883 0.44946
 O453 O 0.90972 0.52546 0.37597
 O454 O 0.88067 0.52592 0.34716
 C455 C 0.90092 0.53425 0.35596
 C456 C 0.91401 0.55491 0.34336
 C457 C 0.90476 0.56491 0.32114
 H458 H 0.88834 0.55696 0.31267
 O459 O 1.08966 0.47560 0.37678
 O460 O 1.11862 0.47555 0.34793
 C461 C 1.09841 0.46709 0.35667
 C462 C 1.08515 0.44678 0.34369
 C463 C 1.09422 0.43720 0.32124
 H464 H 1.11099 0.44490 0.31330
 O465 O 1.02321 0.37714 0.40968
 O466 O 1.02308 0.34834 0.38069
 C467 C 1.03172 0.35705 0.40078
 C468 C 1.05234 0.34417 0.41359
 C469 C 1.06225 0.32204 0.40400
 H470 H 1.05438 0.31404 0.38735
 O471 O 0.97635 0.62389 0.41095
 O472 O 0.97681 0.65318 0.38239
 C473 C 0.96822 0.64432 0.40246
 C474 C 0.94818 0.65754 0.41580
 C475 C 0.94023 0.68107 0.40790
 H476 H 0.94950 0.69008 0.39252
 O477 O 0.87694 0.59047 0.47602
 O478 O 0.84809 0.61948 0.47608
 C479 C 0.85674 0.59926 0.46762
 C480 C 0.84346 0.58605 0.44750
 C481 C 0.81981 0.59387 0.43982
 H482 H 0.81081 0.60907 0.44935
 O483 O 1.12240 0.41026 0.47600
 O484 O 1.15117 0.38118 0.47612
 C485 C 1.14260 0.40144 0.46766
 C486 C 1.15582 0.41442 0.44738
 C487 C 1.17838 0.40515 0.43833
 H488 H 1.18681 0.38917 0.44714
 O489 O 0.97570 0.59020 0.37682
 O490 O 0.97606 0.61939 0.34817
 C491 C 0.96721 0.59931 0.35681
 C492 C 0.94634 0.58683 0.34392
 C493 C 0.93670 0.59664 0.32180
 H494 H 0.94529 0.61282 0.31350
 O495 O 1.02301 0.41153 0.37622
 O496 O 1.02274 0.38280 0.34717
 C497 C 1.03139 0.40287 0.35602
 C498 C 1.05205 0.41574 0.34323
 C499 C 1.06101 0.40683 0.32052
 H500 H 1.05146 0.39162 0.31154
 O501 O 1.12361 0.47553 0.41074
 O502 O 1.15271 0.47549 0.38203
 C503 C 1.14380 0.46698 0.40212
 C504 C 1.15651 0.44645 0.41526
 C505 C 1.17912 0.43686 0.40645
 H506 H 1.18776 0.44499 0.39024
 O507 O 0.87608 0.52541 0.41016
 O508 O 0.84681 0.52581 0.38157
 C509 C 0.85582 0.53404 0.40173
 C510 C 0.84298 0.55416 0.41531
 C511 C 0.81936 0.56230 0.40785
 H512 H 0.81032 0.55356 0.39219
 O513 O 0.91111 0.62439 0.47629
 O514 O 0.88246 0.65358 0.47631
 C515 C 0.90263 0.64472 0.46792
 C516 C 0.91613 0.65780 0.44786
 C517 C 0.90847 0.68136 0.43973
 H518 H 0.89281 0.69031 0.44854
 O519 O 1.08804 0.37660 0.47540
 O520 O 1.11680 0.34751 0.47541
 C521 C 1.09678 0.35650 0.46679
 C522 C 1.08403 0.34391 0.44600
 C523 C 1.09351 0.32171 0.43631
 H524 H 1.10936 0.31303 0.44511
 O525 O 1.08962 0.52399 0.37691
 O526 O 1.11851 0.52406 0.34798
 C527 C 1.09830 0.53247 0.35673
 C528 C 1.08495 0.55265 0.34365
 C529 C 1.09280 0.56073 0.32018
 H530 H 1.10857 0.55189 0.31145
 O531 O 0.90935 0.47701 0.37574
 O532 O 0.88033 0.47723 0.34690
 C533 C 0.90046 0.46856 0.35565
 C534 C 0.91337 0.44793 0.34288
 C535 C 0.90432 0.43836 0.32036
 H536 H 0.88800 0.44648 0.31189
 O537 O 1.02474 0.62318 0.41110
 O538 O 1.02517 0.65240 0.38247
 C539 C 1.03341 0.64341 0.40264
 C540 C 1.05358 0.65635 0.41615
 C541 C 1.06166 0.67992 0.40851
 H542 H 1.05278 0.68890 0.39287
 O543 O 0.97479 0.37727 0.41020
 O544 O 0.97466 0.34826 0.38143
 C545 C 0.96637 0.35699 0.40165
 C546 C 0.94635 0.34381 0.41513
 C547 C 0.93852 0.32009 0.40768
 H548 H 0.94755 0.31107 0.39220
 O549 O 1.12393 0.58890 0.47675
 O550 O 1.15315 0.61759 0.47680
 C551 C 1.14421 0.59749 0.46832
 C552 C 1.15716 0.58425 0.44807
 C553 C 1.18069 0.59209 0.43999
 H554 H 1.18990 0.60729 0.44937
 O555 O 0.87565 0.41160 0.47498
 O556 O 0.84646 0.38288 0.47488
 C557 C 0.85537 0.40304 0.46651
 C558 C 0.84225 0.41646 0.44644
 C559 C 0.81861 0.40878 0.43860
 H560 H 0.80980 0.39307 0.44753
 Cu561 Cu 0.99888 0.39724 0.39603
 Cu562 Cu 0.99860 0.36264 0.36125
 Cu563 Cu 1.00025 0.60375 0.39675
 Cu564 Cu 1.00076 0.63878 0.36234
 Cu565 Cu 0.89559 0.50119 0.39573
 Cu566 Cu 0.86062 0.50164 0.36125
 Cu567 Cu 1.10372 0.49976 0.39672
 Cu568 Cu 1.13854 0.49982 0.36215
 C569 C 0.93407 0.43663 0.35410
 H570 H 0.94087 0.44354 0.37168
 C571 C 0.91564 0.41767 0.30925
 C572 C 1.06486 0.56465 0.35508
 H573 H 1.05894 0.55875 0.37334
 C574 C 1.08087 0.58059 0.30816
 C575 C 0.85372 0.43652 0.43440
 H576 H 0.87209 0.44233 0.44017
 C577 C 0.80645 0.42082 0.41893
 C578 C 1.14558 0.56424 0.43603
 H579 H 1.12732 0.55828 0.44198
 C580 C 1.19250 0.58036 0.41996
 C581 C 0.93421 0.35545 0.43498
 H582 H 0.93997 0.37385 0.44065
 C583 C 0.91861 0.30820 0.41963
 C584 C 1.06550 0.64480 0.43624
 H585 H 1.05952 0.62652 0.44209
 C586 C 1.08159 0.69177 0.42044
 C587 C 0.93498 0.56584 0.35444
 H588 H 0.94202 0.55846 0.37174
 C589 C 0.91590 0.58586 0.31033
 C590 C 1.06401 0.43595 0.35448
 H591 H 1.05729 0.44279 0.37210
 C592 C 1.08229 0.41717 0.30946
 C593 C 1.06327 0.35484 0.43469
 H594 H 1.05607 0.37214 0.44189
 C595 C 1.08294 0.31074 0.41517
 C596 C 0.93616 0.64618 0.43593
 H597 H 0.94197 0.62789 0.44188
 C598 C 0.92042 0.69314 0.41976
 C599 C 0.85477 0.56603 0.43530
 H600 H 0.87313 0.56008 0.44095
 C601 C 0.80758 0.58211 0.42003
 C602 C 1.14517 0.43523 0.43588
 H603 H 1.12754 0.44222 0.44253
 C604 C 1.19010 0.41611 0.41780
 O605 O 1.02321 0.40959 0.62366
 O606 O 1.02301 0.38056 0.65248
 C607 C 1.03158 0.40077 0.64383
 C608 C 1.05176 0.41399 0.65704
 C609 C 1.05977 0.40607 0.68054
 H610 H 1.05062 0.39057 0.68950
 O611 O 0.97566 0.58946 0.62435
 O612 O 0.97566 0.61833 0.65326
 C613 C 0.96705 0.59825 0.64441
 C614 C 0.94639 0.58527 0.65713
 C615 C 0.93681 0.59427 0.67962
 H616 H 0.94490 0.61064 0.68801
 O617 O 0.87642 0.52466 0.58952
 O618 O 0.84719 0.52459 0.61812
 C619 C 0.85618 0.53314 0.59808
 C620 C 0.84327 0.55347 0.58484
 C621 C 0.81980 0.56164 0.59266
 H622 H 0.81064 0.55243 0.60799
 O623 O 1.12273 0.47456 0.59058
 O624 O 1.15169 0.47403 0.61949
 C625 C 1.14273 0.46567 0.59936
 C626 C 1.15522 0.44498 0.58631
 C627 C 1.17744 0.43482 0.59554
 H628 H 1.18579 0.44250 0.61211
 O629 O 1.08776 0.37595 0.52378
 O630 O 1.11638 0.34671 0.52369
 C631 C 1.09622 0.35556 0.53206
 C632 C 1.08282 0.34239 0.55210
 C633 C 1.09062 0.31884 0.56006
 H634 H 1.10583 0.30973 0.55063
 O635 O 0.91104 0.62404 0.52463
 O636 O 0.88235 0.65321 0.52472
 C637 C 0.90247 0.64425 0.53317
 C638 C 0.91581 0.65711 0.55347
 C639 C 0.90789 0.68046 0.56185
 H640 H 0.89243 0.68960 0.55280
 O641 O 0.90993 0.47582 0.62335
 O642 O 0.88089 0.47576 0.65212
 C643 C 0.90108 0.46727 0.64342
 C644 C 0.91409 0.44684 0.65640
 C645 C 0.90557 0.43820 0.67943
 H646 H 0.89005 0.44735 0.68830
 O647 O 1.08941 0.52338 0.62439
 O648 O 1.11832 0.52316 0.65335
 C649 C 1.09818 0.53176 0.64457
 C650 C 1.08499 0.55200 0.65764
 C651 C 1.09300 0.56016 0.68104
 H652 H 1.10853 0.55108 0.69003
 O653 O 0.97446 0.37634 0.58947
 O654 O 0.97410 0.34714 0.61812
 C655 C 0.96570 0.35620 0.59804
 C656 C 0.94506 0.34367 0.58488
 C657 C 0.93535 0.32111 0.59372
 H658 H 0.94348 0.31238 0.60989
 O659 O 1.02478 0.62277 0.59063
 O660 O 1.02504 0.65159 0.61959
 C661 C 1.03355 0.64276 0.59949
 C662 C 1.05436 0.65545 0.58672
 C663 C 1.06407 0.67769 0.59616
 H664 H 1.05536 0.68628 0.61206
 O665 O 0.87542 0.41163 0.52329
 O666 O 0.84614 0.38299 0.52315
 C667 C 0.85507 0.40311 0.53160
 C668 C 0.84206 0.41641 0.55175
 C669 C 0.81847 0.40867 0.55971
 H670 H 0.80922 0.39356 0.55022
 O671 O 1.12388 0.58848 0.52505
 O672 O 1.15319 0.61708 0.52514
 C673 C 1.14421 0.59692 0.53350
 C674 C 1.15717 0.58342 0.55363
 C675 C 1.18067 0.59116 0.56186
 H676 H 1.18986 0.60657 0.55279
 O677 O 1.02412 0.58875 0.62452
 O678 O 1.02417 0.61744 0.65362
 C679 C 1.03252 0.59725 0.64480
 C680 C 1.05266 0.58382 0.65786
 C681 C 1.06081 0.59159 0.68133
 H682 H 1.05186 0.60718 0.69028
 O683 O 0.97482 0.41004 0.62350
 O684 O 0.97451 0.38102 0.65233
 C685 C 0.96622 0.40130 0.64360
 C686 C 0.94596 0.41457 0.65653
 C687 C 0.93711 0.40614 0.67952
 H688 H 0.94551 0.39003 0.68812
 O689 O 1.12325 0.52295 0.59028
 O690 O 1.15237 0.52256 0.61903
 C691 C 1.14364 0.53111 0.59886
 C692 C 1.15695 0.55114 0.58552
 C693 C 1.18052 0.55907 0.59340
 H694 H 1.18933 0.55008 0.60907
 O695 O 0.87602 0.47629 0.58923
 O696 O 0.84683 0.47623 0.61786
 C697 C 0.85565 0.46794 0.59768
 C698 C 0.84239 0.44805 0.58412
 C699 C 0.81884 0.43998 0.59191
 H700 H 0.81018 0.44862 0.60780
 O701 O 1.09035 0.62282 0.52539
 O702 O 1.11952 0.65156 0.52556
 C703 C 1.09934 0.64280 0.53408
 C704 C 1.08655 0.65551 0.55480
 C705 C 1.09610 0.67770 0.56465
 H706 H 1.11263 0.68588 0.55666
 O707 O 0.90924 0.37757 0.52370
 O708 O 0.88006 0.34883 0.52360
 C709 C 0.90025 0.35750 0.53221
 C710 C 0.91300 0.34446 0.55276
 C711 C 0.90353 0.32200 0.56195
 H712 H 0.88744 0.31363 0.55325
 O713 O 1.08860 0.47502 0.62424
 O714 O 1.11739 0.47473 0.65333
 C715 C 1.09712 0.46649 0.64447
 C716 C 1.08362 0.44635 0.65744
 C717 C 1.09123 0.43830 0.68099
 H718 H 1.10676 0.44731 0.69005
 O719 O 0.91026 0.52423 0.62362
 O720 O 0.88115 0.52421 0.65233
 C721 C 0.90143 0.53266 0.64373
 C722 C 0.91445 0.55304 0.65679
 C723 C 0.90531 0.56212 0.67936
 H724 H 0.88951 0.55313 0.68794
 O725 O 0.97632 0.62331 0.59023
 O726 O 0.97654 0.65233 0.61900
 C727 C 0.96808 0.64363 0.59880
 C728 C 0.94803 0.65688 0.58543
 C729 C 0.93994 0.68030 0.59344
 H730 H 0.94883 0.68904 0.60919
 O731 O 1.02283 0.37592 0.58942
 O732 O 1.02262 0.34666 0.61801
 C733 C 1.03107 0.35553 0.59789
 C734 C 1.05103 0.34238 0.58438
 C735 C 1.05916 0.31886 0.59215
 H736 H 1.05049 0.31009 0.60801
 O737 O 1.12179 0.41000 0.52441
 O738 O 1.15045 0.38082 0.52444
 C739 C 1.14179 0.40097 0.53301
 C740 C 1.15471 0.41353 0.55373
 C741 C 1.17701 0.40385 0.56304
 H742 H 1.18547 0.38805 0.55400
 O743 O 0.87680 0.59027 0.52433
 O744 O 0.84793 0.61926 0.52441
 C745 C 0.85658 0.59897 0.53274
 C746 C 0.84339 0.58556 0.55279
 C747 C 0.81985 0.59337 0.56078
 H748 H 0.81097 0.60905 0.55186
 Cu749 Cu 0.99890 0.39588 0.60365
 Cu750 Cu 0.99857 0.36090 0.63812
 Cu751 Cu 1.00018 0.60318 0.60455
 Cu752 Cu 1.00037 0.63783 0.63926
 Cu753 Cu 0.89536 0.39742 0.49931
 Cu754 Cu 0.86035 0.36289 0.49917
 Cu755 Cu 1.10211 0.39613 0.49990
 Cu756 Cu 1.13660 0.36115 0.49994
 Cu757 Cu 0.89685 0.60440 0.50030
 Cu758 Cu 0.86232 0.63931 0.50037
 Cu759 Cu 1.10411 0.60294 0.50101
 Cu760 Cu 1.13914 0.63743 0.50112
 Cu761 Cu 0.89608 0.50023 0.60356
 Cu762 Cu 0.86111 0.50018 0.63802
 Cu763 Cu 1.10312 0.49904 0.60448
 Cu764 Cu 1.13787 0.49862 0.63919
 C765 C 1.06369 0.43426 0.64575
 H766 H 1.05788 0.44022 0.62747
 C767 C 1.07940 0.41822 0.69269
 C768 C 0.93517 0.56455 0.64598
 H769 H 0.94212 0.55781 0.62841
 C770 C 0.91617 0.58287 0.69083
 C771 C 0.85481 0.56543 0.56477
 H772 H 0.87308 0.55946 0.55888
 C773 C 0.80792 0.58151 0.58069
 C774 C 1.14410 0.43426 0.56531
 H775 H 1.12672 0.44163 0.55838
 C776 C 1.18839 0.41414 0.58408
 C777 C 1.06284 0.35387 0.56420
 H778 H 1.05694 0.37217 0.55835
 C779 C 1.07894 0.30692 0.58008
 C780 C 0.93602 0.64558 0.56526
 H781 H 0.94198 0.62740 0.55915
 C782 C 0.91989 0.69222 0.58177
 C783 C 0.93446 0.43507 0.64524
 H784 H 0.94092 0.44143 0.62732
 C785 C 0.91691 0.41783 0.69112
 C786 C 1.06470 0.56383 0.64631
 H787 H 1.05868 0.55790 0.62810
 C788 C 1.08094 0.57986 0.69306
 C789 C 0.93389 0.35505 0.56423
 H790 H 0.94103 0.37261 0.55751
 C791 C 0.91450 0.31026 0.58244
 C792 C 1.06557 0.64464 0.56588
 H793 H 1.05839 0.62730 0.55870
 C794 C 1.08504 0.68887 0.58541
 C795 C 0.85373 0.43628 0.56389
 H796 H 0.87205 0.44215 0.55804
 C797 C 0.80670 0.42033 0.57978
 C798 C 1.14557 0.56327 0.56545
 H799 H 1.12727 0.55745 0.55945
 C800 C 1.19250 0.57905 0.58168
 O801 O 0.59088 1.02267 0.62241
 O802 O 0.62010 1.02219 0.65105
 C803 C 0.59991 1.03090 0.64254
 C804 C 0.58717 1.05124 0.65583
 C805 C 0.59648 1.06005 0.67847
 H806 H 0.61244 1.05112 0.68683
 O807 O 0.41084 0.97485 0.62306
 O808 O 0.38227 0.97445 0.65230
 C809 C 0.40226 0.96598 0.64312
 C810 C 0.41532 0.94516 0.65547
 C811 C 0.40658 0.93553 0.67806
 H812 H 0.39053 0.94377 0.68690
 O813 O 0.52571 1.12207 0.59017
 O814 O 0.52605 1.15071 0.61932
 C815 C 0.53437 1.14211 0.59904
 C816 C 0.55486 1.15513 0.58611
 C817 C 0.56418 1.17755 0.59547
 H818 H 0.55533 1.18602 0.61136
 O819 O 0.47601 0.87508 0.58743
 O820 O 0.47617 0.84578 0.61598
 C821 C 0.46756 0.85479 0.59598
 C822 C 0.44701 0.84202 0.58289
 C823 C 0.43872 0.81857 0.59071
 H824 H 0.44827 0.80918 0.60570
 O825 O 0.62445 1.08902 0.52331
 O826 O 0.65370 1.11768 0.52356
 C827 C 0.64483 1.09738 0.53172
 C828 C 0.65794 1.08358 0.55158
 C829 C 0.68149 1.09122 0.55980
 H830 H 0.69032 1.10714 0.55126
 O831 O 0.37548 0.91085 0.52423
 O832 O 0.34621 0.88220 0.52430
 C833 C 0.35522 0.90230 0.53273
 C834 C 0.34234 0.91566 0.55294
 C835 C 0.31881 0.90795 0.56108
 H836 H 0.30957 0.89271 0.55180
 O837 O 0.47738 1.08806 0.62438
 O838 O 0.47782 1.11654 0.65368
 C839 C 0.46918 1.09651 0.64475
 C840 C 0.44901 1.08316 0.65784
 C841 C 0.44100 1.09092 0.68135
 H842 H 0.45025 1.10626 0.69046
 O843 O 0.52467 0.90883 0.62135
 O844 O 0.52469 0.87981 0.65018
 C845 C 0.53321 0.90000 0.64145
 C846 C 0.55356 0.91313 0.65451
 C847 C 0.56210 0.90470 0.67763
 H848 H 0.55368 0.88839 0.68576
 O849 O 0.62412 0.97424 0.58783
 O850 O 0.65334 0.97374 0.61647
 C851 C 0.64437 0.96560 0.59628
 C852 C 0.65730 0.94552 0.58276
 C853 C 0.68070 0.93716 0.59064
 H854 H 0.68982 0.94624 0.60606
 O855 O 0.37706 1.02443 0.59051
 O856 O 0.34851 1.02429 0.61976
 C857 C 0.35716 1.03308 0.59968
 C858 C 0.34440 1.05403 0.58722
 C859 C 0.32203 1.06347 0.59667
 H860 H 0.31343 1.05455 0.61248
 O861 O 0.41123 1.12431 0.52569
 O862 O 0.38267 1.15359 0.52625
 C863 C 0.40283 1.14448 0.53445
 C864 C 0.41624 1.15691 0.55498
 C865 C 0.40750 1.17939 0.56485
 H866 H 0.39130 1.18823 0.55687
 O867 O 0.58961 0.87590 0.52181
 O868 O 0.61843 0.84687 0.52144
 C869 C 0.59836 0.85565 0.53011
 C870 C 0.58553 0.84264 0.55062
 C871 C 0.59494 0.82023 0.55998
 H872 H 0.61082 0.81171 0.55112
 O873 O 0.41141 1.02322 0.62410
 O874 O 0.38300 1.02288 0.65349
 C875 C 0.40316 1.03129 0.64460
 C876 C 0.41684 1.05112 0.65782
 C877 C 0.40920 1.05904 0.68139
 H878 H 0.39349 1.05014 0.69026
 O879 O 0.59010 0.97431 0.62186
 O880 O 0.61918 0.97381 0.65064
 C881 C 0.59880 0.96567 0.64197
 C882 C 0.58537 0.94547 0.65496
 C883 C 0.59319 0.93723 0.67841
 H884 H 0.60817 0.94691 0.68765
 O885 O 0.52450 0.87513 0.58725
 O886 O 0.52470 0.84601 0.61599
 C887 C 0.53314 0.85497 0.59591
 C888 C 0.55371 0.84230 0.58287
 C889 C 0.56355 0.81999 0.59211
 H890 H 0.55563 0.81169 0.60859
 O891 O 0.47722 1.12236 0.59065
 O892 O 0.47757 1.15093 0.61986
 C893 C 0.46889 1.14244 0.59967
 C894 C 0.44843 1.15570 0.58697
 C895 C 0.43934 1.17808 0.59659
 H896 H 0.44807 1.18624 0.61275
 O897 O 0.37690 1.09073 0.52610
 O898 O 0.34819 1.11986 0.52665
 C899 C 0.35696 1.09961 0.53496
 C900 C 0.34428 1.08656 0.55558
 C901 C 0.32196 1.09577 0.56538
 H902 H 0.31369 1.11228 0.55745
 O903 O 0.62383 0.90967 0.52181
 O904 O 0.65278 0.88077 0.52139
 C905 C 0.64408 0.90087 0.53007
 C906 C 0.65723 0.91388 0.55037
 C907 C 0.68058 0.90568 0.55861
 H908 H 0.68925 0.88990 0.54973
 O909 O 0.47616 0.90900 0.62137
 O910 O 0.47617 0.87981 0.65003
 C911 C 0.46767 0.90006 0.64143
 C912 C 0.44725 0.91293 0.65453
 C913 C 0.43815 0.90354 0.67702
 H914 H 0.44682 0.88744 0.68536
 O915 O 0.52584 1.08808 0.62412
 O916 O 0.52627 1.11664 0.65334
 C917 C 0.53460 1.09658 0.64428
 C918 C 0.55518 1.08333 0.65680
 C919 C 0.56478 1.09191 0.67947
 H920 H 0.55663 1.10802 0.68826
 O921 O 0.37631 0.97598 0.58966
 O922 O 0.34758 0.97579 0.61874
 C923 C 0.35607 0.96760 0.59838
 C924 C 0.34268 0.94768 0.58497
 C925 C 0.31917 0.93966 0.59291
 H926 H 0.31054 0.94845 0.60874
 O927 O 0.62425 1.02263 0.58788
 O928 O 0.65358 1.02211 0.61641
 C929 C 0.64467 1.03080 0.59639
 C930 C 0.65783 1.05101 0.58317
 C931 C 0.68143 1.05884 0.59102
 H932 H 0.69053 1.04923 0.60614
 O933 O 0.40924 0.87660 0.52362
 O934 O 0.38019 0.84774 0.52360
 C935 C 0.40056 0.85630 0.53189
 C936 C 0.41413 0.84283 0.55165
 C937 C 0.40604 0.81943 0.55979
 H938 H 0.38986 0.81102 0.55132
 O939 O 0.59087 1.12334 0.52437
 O940 O 0.61992 1.15219 0.52473
 C941 C 0.59981 1.14327 0.53324
 C942 C 0.58697 1.15573 0.55409
 C943 C 0.59618 1.17809 0.56393
 H944 H 0.61254 1.18657 0.55588
 Cu945 Cu 0.60441 0.99849 0.60213
 Cu946 Cu 0.63949 0.99789 0.63652
 Cu947 Cu 0.39675 0.99964 0.60390
 Cu948 Cu 0.36246 0.99933 0.63900
 Cu949 Cu 0.50148 1.10226 0.60443
 Cu950 Cu 0.50194 1.13661 0.63945
 Cu951 Cu 0.50033 0.89491 0.60146
 Cu952 Cu 0.50042 0.85993 0.63593
 C953 C 0.56637 1.06284 0.64528
 H954 H 0.55933 1.05636 0.62763
 C955 C 0.58551 1.08044 0.69038
 C956 C 0.43583 0.93387 0.64399
 H957 H 0.44248 0.94095 0.62641
 C958 C 0.41780 0.91464 0.68886
 C959 C 0.56621 1.14450 0.56525
 H960 H 0.55930 1.12702 0.55812
 C961 C 0.58496 1.18908 0.58471
 C962 C 0.43476 0.85386 0.56318
 H963 H 0.44086 0.87207 0.55725
 C964 C 0.41825 0.80709 0.57927
 C965 C 0.64637 1.06332 0.56326
 H966 H 0.62804 1.05757 0.55730
 C967 C 0.69341 1.07894 0.57950
 C968 C 0.35399 0.93571 0.56483
 H969 H 0.37228 0.94155 0.55884
 C970 C 0.30707 0.91982 0.58106
 C971 C 0.43694 1.06312 0.64634
 H972 H 0.44276 1.05730 0.62804
 C973 C 0.42116 1.07891 0.69330
 C974 C 0.56528 0.93356 0.64338
 H975 H 0.55920 0.93978 0.62527
 C976 C 0.58179 0.91672 0.68994
 C977 C 0.64586 0.93394 0.56246
 H978 H 0.62768 0.94012 0.55647
 C979 C 0.69250 0.91723 0.57872
 C980 C 0.35523 1.06557 0.56652
 H981 H 0.37265 1.05860 0.55932
 C982 C 0.31071 1.08440 0.58596
 C983 C 0.43690 1.14537 0.56602
 H984 H 0.44352 1.12785 0.55879
 C985 C 0.41885 1.18997 0.58577
 C986 C 0.56473 0.85338 0.56201
 H987 H 0.55757 0.87084 0.55510
 C988 C 0.58425 0.80886 0.58085
 O989 O 0.58920 0.97685 0.37615
 O990 O 0.61760 0.97688 0.34674
 C991 C 0.59755 0.96839 0.35585
 C992 C 0.58411 0.94801 0.34317
 C993 C 0.59314 0.93801 0.32085
 H994 H 0.60983 0.94558 0.31259
 O995 O 0.40912 1.02605 0.37801
 O996 O 0.38012 1.02643 0.34913
 C997 C 0.40045 1.03465 0.35787
 C998 C 0.41387 1.05477 0.34480
 C999 C 0.40601 1.06282 0.32133
 H1000 H 0.39032 1.05388 0.31247
 O1001 O 0.47583 1.12467 0.41193
 O1002 O 0.47572 1.15384 0.38324
 C1003 C 0.46745 1.14500 0.40346
 C1004 C 0.44740 1.15808 0.41689
 C1005 C 0.43912 1.18143 0.40885
 H1006 H 0.44803 1.19049 0.39327
 O1007 O 0.52273 0.87732 0.40967
 O1008 O 0.52222 0.84885 0.38036
 C1009 C 0.53107 0.85729 0.40048
 C1010 C 0.55181 0.84416 0.41288
 C1011 C 0.56099 0.82177 0.40326
 H1012 H 0.55190 0.81334 0.38746
 O1013 O 0.62342 0.91016 0.47346
 O1014 O 0.65221 0.88110 0.47300
 C1015 C 0.64344 0.90135 0.46471
 C1016 C 0.65623 0.91436 0.44418
 C1017 C 0.67824 0.90471 0.43418
 H1018 H 0.68654 0.88831 0.44231
 O1019 O 0.37618 1.09088 0.47777
 O1020 O 0.34739 1.11993 0.47821
 C1021 C 0.35592 1.09973 0.46960
 C1022 C 0.34259 1.08667 0.44943
 C1023 C 0.31922 1.09491 0.44128
 H1024 H 0.31052 1.11064 0.45023
 O1025 O 0.52361 1.09057 0.37731
 O1026 O 0.52354 1.11959 0.34848
 C1027 C 0.53192 1.09930 0.35708
 C1028 C 0.55192 1.08598 0.34378
 C1029 C 0.55967 1.09385 0.32019
 H1030 H 0.55022 1.10915 0.31122
 O1031 O 0.47390 0.91207 0.37687
 O1032 O 0.47350 0.88365 0.34752
 C1033 C 0.46517 0.90367 0.35667
 C1034 C 0.44466 0.91693 0.34405
 C1035 C 0.43558 0.90849 0.32116
 H1036 H 0.44443 0.89290 0.31214
 O1037 O 0.62392 1.02484 0.40991
 O1038 O 0.65248 1.02510 0.38066
 C1039 C 0.64401 1.03337 0.40102
 C1040 C 0.65717 1.05361 0.41418
 C1041 C 0.68045 1.06203 0.40595
 H1042 H 0.68946 1.05309 0.39040
 O1043 O 0.37474 0.97771 0.41173
 O1044 O 0.34550 0.97818 0.38310
 C1045 C 0.35436 0.96950 0.40314
 C1046 C 0.34126 0.94922 0.41630
 C1047 C 0.31768 0.94124 0.40846
 H1048 H 0.30849 0.95075 0.39334
 O1049 O 0.59020 1.12413 0.47599
 O1050 O 0.61910 1.15314 0.47619
 C1051 C 0.59883 1.14446 0.46776
 C1052 C 0.58536 1.15768 0.44776
 C1053 C 0.59308 1.18127 0.43971
 H1054 H 0.60855 1.19037 0.44878
 O1055 O 0.40858 0.87707 0.47535
 O1056 O 0.37944 0.84830 0.47516
 C1057 C 0.39961 0.85709 0.46665
 C1058 C 0.41252 0.84443 0.44600
 C1059 C 0.40325 0.82213 0.43612
 H1060 H 0.38674 0.81380 0.44400
 O1061 O 0.40859 0.97766 0.37769
 O1062 O 0.37949 0.97800 0.34891
 C1063 C 0.39967 0.96935 0.35755
 C1064 C 0.41261 0.94901 0.34442
 C1065 C 0.40378 0.94027 0.32153
 H1066 H 0.38764 0.94882 0.31312
 O1067 O 0.58935 1.02522 0.37646
 O1068 O 0.61767 1.02539 0.34698
 C1069 C 0.59763 1.03377 0.35614
 C1070 C 0.58405 1.05396 0.34334
 C1071 C 0.59157 1.06215 0.31980
 H1072 H 0.60725 1.05340 0.31082
 O1073 O 0.47418 0.87778 0.41058
 O1074 O 0.47377 0.84934 0.38124
 C1075 C 0.46548 0.85781 0.40157
 C1076 C 0.44493 0.84479 0.41435
 C1077 C 0.43558 0.82241 0.40491
 H1078 H 0.44454 0.81389 0.38911
 O1079 O 0.52420 1.12446 0.41135
 O1080 O 0.52410 1.15366 0.38269
 C1081 C 0.53264 1.14474 0.40276
 C1082 C 0.55290 1.15777 0.41604
 C1083 C 0.56075 1.18140 0.40838
 H1084 H 0.55161 1.19038 0.39290
 O1085 O 0.37504 0.91137 0.47601
 O1086 O 0.34573 0.88278 0.47600
 C1087 C 0.35463 0.90299 0.46770
 C1088 C 0.34143 0.91666 0.44785
 C1089 C 0.31791 0.90889 0.43972
 H1090 H 0.30922 0.89292 0.44830
 O1091 O 0.62418 1.09025 0.47498
 O1092 O 0.65329 1.11905 0.47511
 C1093 C 0.64431 1.09906 0.46641
 C1094 C 0.65707 1.08610 0.44583
 C1095 C 0.68006 1.09462 0.43692
 H1096 H 0.68893 1.11057 0.44537
 O1097 O 0.52241 0.91240 0.37678
 O1098 O 0.52189 0.88393 0.34747
 C1099 C 0.53062 0.90391 0.35643
 C1100 C 0.55116 0.91678 0.34347
 C1101 C 0.56020 0.90738 0.32102
 H1102 H 0.55092 0.89176 0.31243
 O1103 O 0.47512 1.09111 0.37762
 O1104 O 0.47502 1.12011 0.34877
 C1105 C 0.46648 1.09996 0.35756
 C1106 C 0.44599 1.08687 0.34468
 C1107 C 0.43770 1.09482 0.32127
 H1108 H 0.44685 1.11021 0.31212
 O1109 O 0.37530 1.02609 0.41209
 O1110 O 0.34613 1.02660 0.38339
 C1111 C 0.35511 1.03480 0.40357
 C1112 C 0.34232 1.05501 0.41702
 C1113 C 0.31902 1.06358 0.40907
 H1114 H 0.30989 1.05470 0.39354
 O1115 O 0.62391 0.97643 0.40928
 O1116 O 0.65244 0.97656 0.38000
 C1117 C 0.64386 0.96786 0.40014
 C1118 C 0.65663 0.94698 0.41266
 C1119 C 0.67876 0.93711 0.40300
 H1120 H 0.68714 0.94538 0.38672
 O1121 O 0.58933 0.87630 0.47348
 O1122 O 0.61803 0.84716 0.47303
 C1123 C 0.59787 0.85618 0.46475
 C1124 C 0.58454 0.84362 0.44427
 C1125 C 0.59353 0.82130 0.43431
 H1126 H 0.61006 0.81290 0.44207
 O1127 O 0.41046 1.12459 0.47733
 O1128 O 0.38187 1.15385 0.47774
 C1129 C 0.40184 1.14489 0.46899
 C1130 C 0.41496 1.15784 0.44861
 C1131 C 0.40657 1.18094 0.43988
 H1132 H 0.39064 1.18975 0.44837
 Cu1133 Cu 0.60378 1.00084 0.39589
 Cu1134 Cu 0.63791 1.00107 0.36065
 Cu1135 Cu 0.39484 1.00183 0.39776
 Cu1136 Cu 0.35988 1.00237 0.36324
 Cu1137 Cu 0.60452 1.10383 0.49963
 Cu1138 Cu 0.63941 1.13842 0.49993
 Cu1139 Cu 0.60366 0.89592 0.49769
 Cu1140 Cu 0.63825 0.86105 0.49719
 Cu1141 Cu 0.39656 1.10472 0.50165
 Cu1142 Cu 0.36216 1.13975 0.50223
 Cu1143 Cu 0.39502 0.89682 0.49983
 Cu1144 Cu 0.35997 0.86235 0.49980
 Cu1145 Cu 0.49970 1.10477 0.39740
 Cu1146 Cu 0.49961 1.13971 0.36289
 Cu1147 Cu 0.49834 0.89773 0.39644
 Cu1148 Cu 0.49780 0.86359 0.36121
 C1149 C 0.56303 0.93730 0.35426
 H1150 H 0.55631 0.94445 0.37176
 C1151 C 0.58139 0.91753 0.30975
 C1152 C 0.43405 1.06673 0.35619
 H1153 H 0.44007 1.06074 0.37439
 C1154 C 0.41783 1.08277 0.30940
 C1155 C 0.43546 1.14662 0.43703
 H1156 H 0.44168 1.12856 0.44326
 C1157 C 0.41869 1.19285 0.42017
 C1158 C 0.56356 0.85478 0.43354
 H1159 H 0.55679 0.87222 0.44083
 C1160 C 0.58191 0.81024 0.41376
 C1161 C 0.64569 0.93562 0.43342
 H1162 H 0.62845 0.94287 0.44075
 C1163 C 0.68955 0.91587 0.41356
 C1164 C 0.35384 1.06653 0.43733
 H1165 H 0.37198 1.06026 0.44330
 C1166 C 0.30733 1.08348 0.42110
 C1167 C 0.56407 1.06586 0.35507
 H1168 H 0.55839 1.05987 0.37338
 C1169 C 0.57946 1.08204 0.30803
 C1170 C 0.43320 0.93735 0.35542
 H1171 H 0.43988 0.94373 0.37324
 C1172 C 0.41511 0.91998 0.30979
 C1173 C 0.64584 1.06554 0.43437
 H1174 H 0.62786 1.05921 0.44077
 C1175 C 0.69187 1.08254 0.41718
 C1176 C 0.35283 0.93698 0.43617
 H1177 H 0.37114 0.94284 0.44211
 C1178 C 0.30583 0.92109 0.42008
 C1179 C 0.56514 1.14620 0.43591
 H1180 H 0.55931 1.12786 0.44174
 C1181 C 0.58076 1.19332 0.42012
 C1182 C 0.43347 0.85549 0.43507
 H1183 H 0.44041 0.87294 0.44223
 C1184 C 0.41462 0.81103 0.41548
 O1185 O 0.47465 0.41196 0.87612
 O1186 O 0.47405 0.38349 0.84681
 C1187 C 0.46579 0.40356 0.85599
 C1188 C 0.44529 0.41702 0.84353
 C1189 C 0.43532 0.40829 0.82108
 H1190 H 0.44295 0.39176 0.81261
 O1191 O 0.52398 0.59175 0.87709
 O1192 O 0.52392 0.62091 0.84839
 C1193 C 0.53225 0.60054 0.85686
 C1194 C 0.55209 0.58709 0.84344
 C1195 C 0.55987 0.59481 0.81980
 H1196 H 0.55061 0.61022 0.81082
 O1197 O 0.37638 0.47767 0.91166
 O1198 O 0.34726 0.47796 0.88292
 C1199 C 0.35626 0.46910 0.90282
 C1200 C 0.34365 0.44804 0.91527
 C1201 C 0.32123 0.43868 0.90582
 H1202 H 0.31243 0.44790 0.89030
 O1203 O 0.62249 0.52532 0.90983
 O1204 O 0.65138 0.52556 0.88090
 C1205 C 0.64270 0.53381 0.90116
 C1206 C 0.65596 0.55383 0.91452
 C1207 C 0.67923 0.56216 0.90627
 H1208 H 0.68764 0.55363 0.89018
 O1209 O 0.41063 0.37594 0.97527
 O1210 O 0.38172 0.34693 0.97517
 C1211 C 0.40192 0.35576 0.96677
 C1212 C 0.41516 0.34289 0.94647
 C1213 C 0.40757 0.31929 0.93840
 H1214 H 0.39254 0.30988 0.94787
 O1215 O 0.59013 0.62409 0.97675
 O1216 O 0.61915 0.65299 0.97690
 C1217 C 0.59883 0.64442 0.96852
 C1218 C 0.58545 0.65782 0.94861
 C1219 C 0.59330 0.68145 0.94088
 H1220 H 0.60864 0.69042 0.95029
 O1221 O 0.40985 0.52688 0.87809
 O1222 O 0.38073 0.52721 0.84934
 C1223 C 0.40098 0.53559 0.85807
 C1224 C 0.41406 0.55606 0.84517
 C1225 C 0.40552 0.56488 0.82219
 H1226 H 0.38983 0.55596 0.81333
 O1227 O 0.58826 0.47730 0.87554
 O1228 O 0.61711 0.47744 0.84658
 C1229 C 0.59690 0.46897 0.85531
 C1230 C 0.58366 0.44876 0.84220
 C1231 C 0.59214 0.44020 0.81915
 H1232 H 0.60776 0.44930 0.81034
 O1233 O 0.52348 0.37754 0.90900
 O1234 O 0.52323 0.34908 0.87968
 C1235 C 0.53193 0.35756 0.89987
 C1236 C 0.55258 0.34451 0.91250
 C1237 C 0.56198 0.32222 0.90292
 H1238 H 0.55312 0.31385 0.88696
 O1239 O 0.47622 0.62549 0.91200
 O1240 O 0.47613 0.65490 0.88355
 C1241 C 0.46782 0.64588 0.90368
 C1242 C 0.44782 0.65887 0.91730
 C1243 C 0.43982 0.68251 0.90980
 H1244 H 0.44862 0.69146 0.89412
 O1245 O 0.37644 0.59139 0.97732
 O1246 O 0.34753 0.62033 0.97763
 C1247 C 0.35616 0.60016 0.96907
 C1248 C 0.34288 0.58693 0.94900
 C1249 C 0.31928 0.59474 0.94105
 H1250 H 0.31025 0.61007 0.95034
 O1251 O 0.62242 0.41090 0.97420
 O1252 O 0.65160 0.38222 0.97387
 C1253 C 0.64269 0.40245 0.96567
 C1254 C 0.65570 0.41601 0.94565
 C1255 C 0.67922 0.40829 0.93759
 H1256 H 0.68836 0.39297 0.94684
 O1257 O 0.47560 0.59192 0.87783
 O1258 O 0.47543 0.62113 0.84918
 C1259 C 0.46692 0.60091 0.85787
 C1260 C 0.44635 0.58796 0.84503
 C1261 C 0.43755 0.59652 0.82206
 H1262 H 0.44621 0.61248 0.81343
 O1263 O 0.52308 0.41174 0.87531
 O1264 O 0.52259 0.38341 0.84587
 C1265 C 0.53127 0.40338 0.85489
 C1266 C 0.55155 0.41669 0.84196
 C1267 C 0.56037 0.40831 0.81895
 H1268 H 0.55189 0.39226 0.81033
 O1269 O 0.62239 0.47695 0.90940
 O1270 O 0.65138 0.47717 0.88057
 C1271 C 0.64261 0.46857 0.90068
 C1272 C 0.65569 0.44831 0.91385
 C1273 C 0.67919 0.44025 0.90595
 H1274 H 0.68798 0.44919 0.89025
 O1275 O 0.37598 0.52622 0.91221
 O1276 O 0.34678 0.52643 0.88355
 C1277 C 0.35567 0.53468 0.90373
 C1278 C 0.34263 0.55475 0.91715
 C1279 C 0.31910 0.56284 0.90940
 H1280 H 0.31024 0.55398 0.89370
 O1281 O 0.41096 0.62492 0.97753
 O1282 O 0.38226 0.65407 0.97788
 C1283 C 0.40241 0.64529 0.96936
 C1284 C 0.41581 0.65856 0.94938
 C1285 C 0.40813 0.68224 0.94168
 H1286 H 0.39291 0.69130 0.95114
 O1287 O 0.58893 0.37642 0.97401
 O1288 O 0.61796 0.34761 0.97360
 C1289 C 0.59777 0.35645 0.96519
 C1290 C 0.58481 0.34390 0.94444
 C1291 C 0.59407 0.32169 0.93444
 H1292 H 0.61053 0.31332 0.94238
 O1293 O 0.58839 0.52569 0.87599
 O1294 O 0.61712 0.52585 0.84690
 C1295 C 0.59700 0.53428 0.85583
 C1296 C 0.58371 0.55460 0.84298
 C1297 C 0.59127 0.56259 0.81940
 H1298 H 0.60679 0.55354 0.81043
 O1299 O 0.41018 0.47845 0.87761
 O1300 O 0.38108 0.47885 0.84883
 C1301 C 0.40130 0.47025 0.85740
 C1302 C 0.41406 0.44987 0.84417
 C1303 C 0.40463 0.44112 0.82157
 H1304 H 0.38901 0.45047 0.81308
 O1305 O 0.52459 0.62514 0.91161
 O1306 O 0.52459 0.65452 0.88314
 C1307 C 0.53309 0.64544 0.90317
 C1308 C 0.55334 0.65830 0.91660
 C1309 C 0.56148 0.68189 0.90906
 H1310 H 0.55265 0.69089 0.89342
 O1311 O 0.47510 0.37723 0.90937
 O1312 O 0.47480 0.34859 0.88021
 C1313 C 0.46664 0.35705 0.90060
 C1314 C 0.44680 0.34361 0.91406
 C1315 C 0.43893 0.32006 0.90619
 H1316 H 0.44768 0.31156 0.89027
 O1317 O 0.62373 0.58971 0.97606
 O1318 O 0.65291 0.61845 0.97612
 C1319 C 0.64391 0.59842 0.96752
 C1320 C 0.65663 0.58541 0.94697
 C1321 C 0.67997 0.59344 0.93850
 H1322 H 0.68927 0.60864 0.94779
 O1323 O 0.37698 0.41016 0.97522
 O1324 O 0.34790 0.38134 0.97494
 C1325 C 0.35680 0.40153 0.96658
 C1326 C 0.34396 0.41485 0.94622
 C1327 C 0.32162 0.40565 0.93632
 H1328 H 0.31353 0.38888 0.94391
 Cu1329 Cu 0.49909 0.39748 0.89536
 Cu1330 Cu 0.49860 0.36329 0.86018
 Cu1331 Cu 0.50015 0.60564 0.89748
 Cu1332 Cu 0.50003 0.64081 0.86319
 Cu1333 Cu 0.39600 0.50233 0.89780
 Cu1334 Cu 0.36103 0.50266 0.86329
 Cu1335 Cu 0.60249 0.50128 0.89559
 Cu1336 Cu 0.63714 0.50153 0.86082
 C1337 C 0.43459 0.43791 0.85485
 H1338 H 0.44176 0.44441 0.87244
 C1339 C 0.41488 0.42016 0.81002
 C1340 C 0.56397 0.56682 0.85472
 H1341 H 0.55827 0.56094 0.87306
 C1342 C 0.57940 0.58259 0.80757
 C1343 C 0.35474 0.43615 0.93564
 H1344 H 0.37220 0.44309 0.94282
 C1345 C 0.31017 0.41737 0.91604
 C1346 C 0.64492 0.56543 0.93501
 H1347 H 0.62681 0.55931 0.94125
 C1348 C 0.69145 0.58188 0.91817
 C1349 C 0.43496 0.35474 0.93434
 H1350 H 0.44072 0.37306 0.94028
 C1351 C 0.41941 0.30767 0.91830
 C1352 C 0.56531 0.64653 0.93652
 H1353 H 0.55935 0.62819 0.94221
 C1354 C 0.58141 0.69366 0.92113
 C1355 C 0.43462 0.56759 0.85632
 H1356 H 0.44110 0.56109 0.87419
 C1357 C 0.41715 0.58510 0.81049
 C1358 C 0.56319 0.43706 0.85331
 H1359 H 0.55677 0.44336 0.87124
 C1360 C 0.58069 0.41993 0.80741
 C1361 C 0.56395 0.35504 0.93343
 H1362 H 0.55699 0.37240 0.94072
 C1363 C 0.58282 0.31074 0.91361
 C1364 C 0.43584 0.64716 0.93725
 H1365 H 0.44167 0.62878 0.94290
 C1366 C 0.42002 0.69437 0.92191
 C1367 C 0.35424 0.56676 0.93710
 H1368 H 0.37255 0.56082 0.94293
 C1369 C 0.30719 0.58275 0.92128
 C1370 C 0.64421 0.43618 0.93384
 H1371 H 0.62593 0.44204 0.93981
 C1372 C 0.69113 0.42027 0.91774
 O1373 O 0.52407 0.40987 1.12323
 O1374 O 0.52415 0.38098 1.15220
 C1375 C 0.53248 0.40126 1.14348
 C1376 C 0.55260 0.41472 1.15656
 C1377 C 0.56056 0.40717 1.18020
 H1378 H 0.55117 0.39199 1.18947
 O1379 O 0.47613 0.58918 1.12421
 O1380 O 0.47622 0.61770 1.15347
 C1381 C 0.46760 0.59770 1.14441
 C1382 C 0.44707 0.58447 1.15710
 C1383 C 0.43785 0.59299 1.17991
 H1384 H 0.44609 0.60917 1.18851
 O1385 O 0.37674 0.52403 1.08970
 O1386 O 0.34765 0.52371 1.11843
 C1387 C 0.35652 0.53242 1.09844
 C1388 C 0.34354 0.55288 1.08548
 C1389 C 0.32003 0.56089 1.09341
 H1390 H 0.31088 0.55147 1.10861
 O1391 O 0.62327 0.47486 1.08858
 O1392 O 0.65242 0.47434 1.11729
 C1393 C 0.64341 0.46611 1.09714
 C1394 C 0.65629 0.44597 1.08366
 C1395 C 0.67958 0.43749 1.09166
 H1396 H 0.68787 0.44569 1.10799
 O1397 O 0.58883 0.37645 1.02254
 O1398 O 0.61789 0.34767 1.02222
 C1399 C 0.59780 0.35637 1.03098
 C1400 C 0.58528 0.34351 1.05181
 C1401 C 0.59490 0.32120 1.06120
 H1402 H 0.61063 0.31263 1.05212
 O1403 O 0.41090 0.62457 1.02581
 O1404 O 0.38219 0.65370 1.02626
 C1405 C 0.40239 0.64474 1.03449
 C1406 C 0.41594 0.65754 1.05467
 C1407 C 0.40828 0.68097 1.06303
 H1408 H 0.39282 0.69020 1.05406
 O1409 O 0.41060 0.47493 1.12297
 O1410 O 0.38154 0.47465 1.15173
 C1411 C 0.40168 0.46615 1.14292
 C1412 C 0.41436 0.44528 1.15557
 C1413 C 0.40476 0.43558 1.17772
 H1414 H 0.38888 0.44438 1.18629
 O1415 O 0.59030 0.52364 1.12282
 O1416 O 0.61938 0.52325 1.15160
 C1417 C 0.59922 0.53193 1.14297
 C1418 C 0.58613 0.55208 1.15628
 C1419 C 0.59480 0.56056 1.17932
 H1420 H 0.61136 0.55233 1.18717
 O1421 O 0.47623 0.37563 1.08875
 O1422 O 0.47651 0.34629 1.11725
 C1423 C 0.46800 0.35521 1.09715
 C1424 C 0.44789 0.34211 1.08370
 C1425 C 0.44005 0.31843 1.09124
 H1426 H 0.44916 0.30940 1.10670
 O1427 O 0.52519 0.62302 1.09099
 O1428 O 0.52567 0.65155 1.12023
 C1429 C 0.53409 0.64289 1.10002
 C1430 C 0.55488 0.65557 1.08717
 C1431 C 0.56507 0.67764 1.09669
 H1432 H 0.55737 0.68576 1.11333
 O1433 O 0.37685 0.41004 1.02351
 O1434 O 0.34763 0.38135 1.02339
 C1435 C 0.35650 0.40151 1.03182
 C1436 C 0.34340 0.41494 1.05185
 C1437 C 0.31987 0.40710 1.05992
 H1438 H 0.31079 0.39169 1.05075
 O1439 O 0.62435 0.58937 1.02446
 O1440 O 0.65356 0.61808 1.02455
 C1441 C 0.64465 0.59791 1.03292
 C1442 C 0.65767 0.58451 1.05307
 C1443 C 0.68066 0.59299 1.06202
 H1444 H 0.68940 0.60912 1.05378
 O1445 O 0.52453 0.58852 1.12435
 O1446 O 0.52474 0.61689 1.15376
 C1447 C 0.53302 0.59679 1.14470
 C1448 C 0.55336 0.58334 1.15740
 C1449 C 0.56181 0.59105 1.18079
 H1450 H 0.55206 0.60579 1.19026
 O1451 O 0.47560 0.40916 1.12300
 O1452 O 0.47554 0.38000 1.15169
 C1453 C 0.46691 0.40013 1.14295
 C1454 C 0.44610 0.41288 1.15562
 C1455 C 0.43606 0.40330 1.17771
 H1456 H 0.44392 0.38669 1.18584
 O1457 O 0.62437 0.52325 1.08893
 O1458 O 0.65358 0.52274 1.11759
 C1459 C 0.64479 0.53138 1.09750
 C1460 C 0.65797 0.55164 1.08438
 C1461 C 0.68126 0.56003 1.09266
 H1462 H 0.69031 0.55098 1.10816
 O1463 O 0.37679 0.47561 1.08878
 O1464 O 0.34765 0.47537 1.11746
 C1465 C 0.35647 0.46715 1.09724
 C1466 C 0.34334 0.44712 1.08374
 C1467 C 0.31981 0.43902 1.09153
 H1468 H 0.31100 0.44784 1.10725
 O1469 O 0.59009 0.62296 1.02507
 O1470 O 0.61921 0.65176 1.02524
 C1471 C 0.59906 0.64292 1.03378
 C1472 C 0.58644 0.65555 1.05462
 C1473 C 0.59614 0.67769 1.06423
 H1474 H 0.61199 0.68627 1.05532
 O1475 O 0.41069 0.37586 1.02358
 O1476 O 0.38170 0.34694 1.02357
 C1477 C 0.40197 0.35562 1.03198
 C1478 C 0.41540 0.34240 1.05201
 C1479 C 0.40771 0.31875 1.05992
 H1480 H 0.39226 0.30970 1.05077
 O1481 O 0.58969 0.47524 1.12289
 O1482 O 0.61869 0.47485 1.15176
 C1483 C 0.59832 0.46669 1.14307
 C1484 C 0.58479 0.44673 1.15628
 C1485 C 0.59251 0.43890 1.17987
 H1486 H 0.60828 0.44782 1.18859
 O1487 O 0.41098 0.52344 1.12342
 O1488 O 0.38199 0.52317 1.15224
 C1489 C 0.40221 0.53174 1.14360
 C1490 C 0.41523 0.55210 1.15672
 C1491 C 0.40638 0.56079 1.17957
 H1492 H 0.39073 0.55164 1.18826
 O1493 O 0.47673 0.62357 1.09066
 O1494 O 0.47708 0.65229 1.11973
 C1495 C 0.46855 0.64381 1.09947
 C1496 C 0.44846 0.65719 1.08631
 C1497 C 0.44061 0.68069 1.09433
 H1498 H 0.44974 0.68942 1.10995
 O1499 O 0.52465 0.37609 1.08915
 O1500 O 0.52505 0.34702 1.11792
 C1501 C 0.53345 0.35601 1.09782
 C1502 C 0.55404 0.34341 1.08467
 C1503 C 0.56412 0.32119 1.09392
 H1504 H 0.55649 0.31300 1.11060
 O1505 O 0.62306 0.41024 1.02241
 O1506 O 0.65224 0.38157 1.02205
 C1507 C 0.64344 0.40166 1.03062
 C1508 C 0.65657 0.41481 1.05085
 C1509 C 0.68023 0.40705 1.05867
 H1510 H 0.68949 0.39233 1.04871
 O1511 O 0.37695 0.59054 1.02551
 O1512 O 0.34801 0.61945 1.02593
 C1513 C 0.35674 0.59910 1.03404
 C1514 C 0.34361 0.58544 1.05392
 C1515 C 0.32005 0.59307 1.06197
 H1516 H 0.31115 0.60886 1.05326
 Cu1517 Cu 0.50014 0.39560 1.10319
 Cu1518 Cu 0.50034 0.36065 1.13766
 Cu1519 Cu 0.50060 0.60324 1.10463
 Cu1520 Cu 0.50093 0.63748 1.13973
 Cu1521 Cu 0.39670 0.39586 0.99943
 Cu1522 Cu 0.36180 0.36126 0.99930
 Cu1523 Cu 0.60285 0.39633 0.99832
 Cu1524 Cu 0.63778 0.36181 0.99790
 Cu1525 Cu 0.39669 0.60496 1.00149
 Cu1526 Cu 0.36211 0.63983 1.00197
 Cu1527 Cu 0.60418 0.60364 1.00053
 Cu1528 Cu 0.63912 0.63822 1.00069
 Cu1529 Cu 0.39669 0.49954 1.10335
 Cu1530 Cu 0.36183 0.49918 1.13789
 Cu1531 Cu 0.60400 0.49931 1.10292
 Cu1532 Cu 0.63895 0.49873 1.13744
 C1533 C 0.56467 0.43469 1.14490
 H1534 H 0.55886 0.44042 1.12655
 C1535 C 0.58045 0.41923 1.19206
 C1536 C 0.43574 0.56389 1.14577
 H1537 H 0.44246 0.55748 1.12799
 C1538 C 0.41746 0.58130 1.19127
 C1539 C 0.35506 0.56515 1.06561
 H1540 H 0.37334 0.55931 1.05964
 C1541 C 0.30812 0.58089 1.08168
 C1542 C 0.64496 0.43455 1.06320
 H1543 H 0.62672 0.44061 1.05729
 C1544 C 0.69194 0.41820 1.07918
 C1545 C 0.56468 0.35432 1.06351
 H1546 H 0.55736 0.37170 1.05656
 C1547 C 0.58464 0.31000 1.08237
 C1548 C 0.43617 0.64591 1.06630
 H1549 H 0.44194 0.62767 1.06019
 C1550 C 0.42055 0.69272 1.08279
 C1551 C 0.43519 0.43397 1.14481
 H1552 H 0.44249 0.44119 1.12755
 C1553 C 0.41529 0.41446 1.18883
 C1554 C 0.56538 0.56357 1.14551
 H1555 H 0.55898 0.55756 1.12745
 C1556 C 0.58270 0.57995 1.19191
 C1557 C 0.43563 0.35380 1.06390
 H1558 H 0.44142 0.37218 1.05816
 C1559 C 0.42001 0.30659 1.07944
 C1560 C 0.56564 0.64477 1.06604
 H1561 H 0.55826 0.62750 1.05889
 C1562 C 0.58583 0.68874 1.08540
 C1563 C 0.35486 0.43512 1.06373
 H1564 H 0.37315 0.44105 1.05785
 C1565 C 0.30792 0.41904 1.07974
 C1566 C 0.64654 0.56376 1.06431
 H1567 H 0.62853 0.55749 1.05791
 C1568 C 0.69257 0.58073 1.08165
 C1569 C 1.11987 1.11726 1.28491
 C1570 C 1.12522 1.10290 1.30607
 C1571 C 1.13517 1.11431 1.32707
 C1572 C 1.13961 1.13993 1.32723
 C1573 C 1.13344 1.15371 1.30608
 N1574 N 1.12399 1.14219 1.28577
 C1575 C 1.11003 1.10651 1.26152
 N1576 N 1.10246 1.12239 1.24339
 C1577 C 1.09374 1.11446 1.22114
 C1578 C 1.09234 1.08900 1.21588
 C1579 C 1.10007 1.07222 1.23422
 C1580 C 1.10896 1.08083 1.25697
 H1581 H 1.13942 1.10318 1.34323
 H1582 H 1.13666 1.17352 1.30549
 H1583 H 1.08840 1.12812 1.20743
 H1584 H 1.09914 1.05241 1.23105
 H1585 H 1.12180 1.08318 1.30674
 H1586 H 1.11515 1.06733 1.27040
 C1587 C 1.11693 0.61795 0.78625
 C1588 C 1.10208 0.63018 0.80384
 C1589 C 1.11310 0.64068 0.82475
 C1590 C 1.13886 0.63928 0.82824
 C1591 C 1.15304 0.62679 0.81039
 N1592 N 1.14190 0.61672 0.79014
 C1593 C 1.10668 0.60733 0.76299
 N1594 N 1.12279 0.60110 0.74456
 C1595 C 1.11509 0.59192 0.72240
 C1596 C 1.08969 0.58871 0.71758
 C1597 C 1.07274 0.59457 0.73637
 C1598 C 1.08109 0.60368 0.75910
 H1599 H 1.10154 0.65014 0.83813
 H1600 H 1.17300 0.62554 0.81225
 H1601 H 1.12880 0.58773 0.70837
 H1602 H 1.05300 0.59190 0.73354
 H1603 H 1.08229 0.63232 0.80147
 H1604 H 1.06750 0.60755 0.77326
 C1605 C 0.62686 1.11904 0.78111
 C1606 C 0.65131 1.11455 0.78903
 C1607 C 0.65988 1.12527 0.81092
 C1608 C 0.64422 1.14041 0.82520
 C1609 C 0.61962 1.14364 0.81709
 N1610 N 0.61173 1.13312 0.79558
 C1611 C 0.61696 1.10881 0.75759
 N1612 N 0.59191 1.10699 0.75453
 C1613 C 0.58145 1.09808 0.73338
 C1614 C 0.59648 1.09033 0.71361
 C1615 C 0.62231 1.09237 0.71623
 C1616 C 0.63260 1.10165 0.73804
 H1617 H 0.67889 1.12189 0.81644
 H1618 H 0.60669 1.15460 0.82779
 H1619 H 0.56143 1.09678 0.73214
 H1620 H 0.63458 1.08724 0.70120
 H1621 H 0.66376 1.10275 0.77869
 H1622 H 0.65254 1.10364 0.73915
 C1623 C 0.62205 0.61744 1.28386
 C1624 C 0.64615 0.61147 1.29157
 C1625 C 0.65590 0.62264 1.31274
 C1626 C 0.64149 0.63932 1.32668
 C1627 C 0.61722 0.64440 1.31839
 N1628 N 0.60838 0.63376 1.29733
 C1629 C 0.61167 0.60712 1.26083
 N1630 N 0.59956 0.62241 1.24485
 C1631 C 0.59015 0.61421 1.22297
 C1632 C 0.59235 0.58909 1.21619
 C1633 C 0.60435 0.57296 1.23285
 C1634 C 0.61425 0.58195 1.25499
 H1635 H 0.67484 0.61846 1.31795
 H1636 H 0.60529 0.65688 1.32857
 H1637 H 0.58151 0.62754 1.21073
 H1638 H 0.60597 0.55334 1.22895
 H1639 H 0.65758 0.59889 1.28090
 H1640 H 0.62350 0.56932 1.26759
 C1641 C 0.87684 0.87525 1.27933
 C1642 C 0.85460 0.86164 1.27912
 C1643 C 0.84495 0.85266 1.30137
 C1644 C 0.85765 0.85687 1.32359
 C1645 C 0.87979 0.87050 1.32310
 N1646 N 0.88863 0.87949 1.30126
 C1647 C 0.88753 0.88523 1.25624
 N1648 N 0.89769 0.90838 1.25618
 C1649 C 0.90765 0.91861 1.23539
 C1650 C 0.90821 0.90509 1.21323
 C1651 C 0.89827 0.88107 1.21297
 C1652 C 0.88770 0.87115 1.23438
 H1653 H 0.82778 0.84220 1.30132
 H1654 H 0.88985 0.87410 1.34008
 H1655 H 0.91533 0.93716 1.23619
 H1656 H 0.89843 0.87017 1.19612
 H1657 H 0.84463 0.85830 1.26201
 H1658 H 0.88010 0.85254 1.23398
 C1659 C 0.87698 0.37955 0.78260
 C1660 C 0.85120 0.37977 0.78647
 C1661 C 0.84146 0.36985 0.80827
 C1662 C 0.85730 0.35970 0.82625
 C1663 C 0.88294 0.35988 0.82175
 N1664 N 0.89202 0.36966 0.80037
 C1665 C 0.88784 0.38960 0.75943
 N1666 N 0.87260 0.39773 0.74099
 C1667 C 0.88143 0.40689 0.71926
 C1668 C 0.90711 0.40824 0.71500
 C1669 C 0.92319 0.40000 0.73376
 C1670 C 0.91365 0.39068 0.75595
 H1671 H 0.82155 0.36979 0.81098
 H1672 H 0.89570 0.35229 0.83527
 H1673 H 0.86833 0.41267 0.70518
 H1674 H 0.94312 0.40097 0.73138
 H1675 H 0.83864 0.38741 0.77279
 H1676 H 0.92636 0.38445 0.77020
 C1677 C 0.37935 0.87328 0.77961
 C1678 C 0.38153 0.84817 0.78639
 C1679 C 0.37165 0.84004 0.80883
 C1680 C 0.35989 0.85680 0.82484
 C1681 C 0.35848 0.88179 0.81765
 N1682 N 0.36809 0.88927 0.79558
 C1683 C 0.38921 0.88310 0.75587
 N1684 N 0.39207 0.90809 0.75324
 C1685 C 0.40095 0.91860 0.73211
 C1686 C 0.40772 0.90366 0.71196
 C1687 C 0.40462 0.87792 0.71408
 C1688 C 0.39527 0.86759 0.73584
 H1689 H 0.37306 0.82058 0.81362
 H1690 H 0.34979 0.89533 0.82959
 H1691 H 0.40307 0.93855 0.73121
 H1692 H 0.40905 0.86580 0.69872
 H1693 H 0.39094 0.83481 0.77484
 H1694 H 0.39252 0.84775 0.73652
 C1695 C 0.37256 0.37384 1.27823
 C1696 C 0.34740 0.36735 1.28119
 C1697 C 0.33906 0.35848 1.30400
 C1698 C 0.35564 0.35584 1.32383
 C1699 C 0.38067 0.36181 1.32004
 N1700 N 0.38836 0.37064 1.29771
 C1701 C 0.38266 0.38392 1.25466
 N1702 N 0.40776 0.38480 1.25158
 C1703 C 0.41858 0.39418 1.23081
 C1704 C 0.40389 0.40366 1.21150
 C1705 C 0.37799 0.40291 1.21425
 C1706 C 0.36733 0.39326 1.23573
 H1707 H 0.31973 0.35342 1.30617
 H1708 H 0.39399 0.35978 1.33491
 H1709 H 0.43863 0.39463 1.22963
 H1710 H 0.36589 0.40971 1.19973
 H1711 H 0.33420 0.36866 1.26618
 H1712 H 0.34736 0.39364 1.23735
 C1713 C 0.87629 1.12730 0.72097
 C1714 C 0.86960 1.15236 0.71786
 C1715 C 0.86016 1.16038 0.69516
 C1716 C 0.85706 1.14359 0.67562
 C1717 C 0.86333 1.11867 0.67956
 N1718 N 0.87272 1.11128 0.70176
 C1719 C 0.88681 1.11755 0.74448
 N1720 N 0.88762 1.09252 0.74797
 C1721 C 0.89712 1.08200 0.76884
 C1722 C 0.90671 1.09695 0.78788
 C1723 C 0.90618 1.12278 0.78464
 C1724 C 0.89646 1.13312 0.76303
 H1725 H 0.85499 1.17966 0.69290
 H1726 H 0.86104 1.10520 0.66488
 H1727 H 0.89744 1.06199 0.77037
 H1728 H 0.91309 1.13508 0.79892
 H1729 H 0.87119 1.16572 0.73266
 H1730 H 0.89694 1.15305 0.76104
 C1731 C 0.87515 0.62813 0.22084
 C1732 C 0.87555 0.65355 0.21483
 C1733 C 0.86635 0.66147 0.19200
 C1734 C 0.85703 0.64427 0.17487
 C1735 C 0.85665 0.61913 0.18163
 N1736 N 0.86569 0.61183 0.20401
 C1737 C 0.88535 0.61819 0.24446
 N1738 N 0.88822 0.59318 0.24680
 C1739 C 0.89771 0.58244 0.26756
 C1740 C 0.90523 0.59716 0.28763
 C1741 C 0.90223 0.62293 0.28582
 C1742 C 0.89220 0.63350 0.26445
 H1743 H 0.86665 0.68108 0.18763
 H1744 H 0.84965 0.60526 0.16894
 H1745 H 0.89975 0.56248 0.26820
 H1746 H 0.90729 0.63489 0.30113
 H1747 H 0.88319 0.66735 0.22714
 H1748 H 0.88975 0.65337 0.26404
 C1749 C 0.38028 1.11703 0.21527
 C1750 C 0.36895 1.10174 0.19741
 C1751 C 0.35962 1.11219 0.17567
 C1752 C 0.36132 1.13784 0.17154
 C1753 C 0.37233 1.15254 0.18999
 N1754 N 0.38139 1.14193 0.21100
 C1755 C 0.39049 1.10725 0.23894
 N1756 N 0.39658 1.12369 0.25714
 C1757 C 0.40571 1.11642 0.27949
 C1758 C 0.40902 1.09114 0.28473
 C1759 C 0.40328 1.07386 0.26619
 C1760 C 0.39421 1.08177 0.24330
 H1761 H 0.35114 1.10017 0.16201
 H1762 H 0.37353 1.17246 0.18782
 H1763 H 0.40983 1.13035 0.29333
 H1764 H 0.40602 1.05421 0.26936
 H1765 H 0.36684 1.08200 0.20005
 H1766 H 0.39048 1.06791 0.22936
 C1767 C 0.37842 0.62295 0.71826
 C1768 C 0.35263 0.62473 0.71484
 C1769 C 0.34326 0.63366 0.69245
 C1770 C 0.35947 0.64080 0.67340
 C1771 C 0.38511 0.63898 0.67759
 N1772 N 0.39382 0.63017 0.69956
 C1773 C 0.38893 0.61326 0.74176
 N1774 N 0.37345 0.60586 0.76030
 C1775 C 0.38199 0.59676 0.78219
 C1776 C 0.40761 0.59471 0.78651
 C1777 C 0.42394 0.60224 0.76768
 C1778 C 0.41470 0.61148 0.74533
 H1779 H 0.32336 0.63508 0.68997
 H1780 H 0.39816 0.64424 0.66328
 H1781 H 0.36874 0.59151 0.79632
 H1782 H 0.44384 0.60073 0.77013
 H1783 H 0.33978 0.61926 0.72926
 H1784 H 0.42761 0.61712 0.73102
 C1785 C 1.11859 0.87928 0.71668
 C1786 C 1.10472 0.86320 0.70171
 C1787 C 1.11525 0.85372 0.68014
 C1788 C 1.13981 0.85975 0.67365
 C1789 C 1.15289 0.87628 0.68909
 N1790 N 1.14206 0.88559 0.70984
 C1791 C 1.10835 0.88896 0.74002
 N1792 N 1.11138 0.91332 0.74585
 C1793 C 1.10251 0.92312 0.76731
 C1794 C 1.09017 0.90799 0.78468
 C1795 C 1.08735 0.88267 0.77900
 C1796 C 1.09611 0.87321 0.75665
 H1797 H 1.10425 0.84148 0.66863
 H1798 H 1.17188 0.88139 0.68504
 H1799 H 1.10491 0.94277 0.77055
 H1800 H 1.07881 0.86995 0.79196
 H1801 H 1.08588 0.85815 0.70660
 H1802 H 1.09394 0.85364 0.75268
 C1803 C 1.12149 0.37639 0.21895
 C1804 C 1.10944 0.35726 0.20613
 C1805 C 1.11977 0.34808 0.18435
 C1806 C 1.14231 0.35768 0.17524
 C1807 C 1.15366 0.37701 0.18872
 N1808 N 1.14303 0.38583 0.20978
 C1809 C 1.11128 0.38638 0.24223
 N1810 N 1.11316 0.41108 0.24706
 C1811 C 1.10404 0.42133 0.26819
 C1812 C 1.09245 0.40638 0.28618
 C1813 C 1.09088 0.38074 0.28166
 C1814 C 1.10006 0.37075 0.25972
 H1815 H 1.11005 0.33340 0.17472
 H1816 H 1.17114 0.38492 0.18285
 H1817 H 1.10556 0.44118 0.27070
 H1818 H 1.08292 0.36826 0.29523
 H1819 H 1.09202 0.34967 0.21271
 H1820 H 1.09889 0.35092 0.25673
 C1821 C 0.62238 0.87256 0.22184
 C1822 C 0.62828 0.84720 0.21974
 C1823 C 0.63868 0.83830 0.19787
 C1824 C 0.64356 0.85449 0.17818
 C1825 C 0.63758 0.87963 0.18091
 N1826 N 0.62730 0.88791 0.20236
 C1827 C 0.61161 0.88334 0.24474
 N1828 N 0.61147 0.90848 0.24746
 C1829 C 0.60205 0.91984 0.26789
 C1830 C 0.59190 0.90568 0.28724
 C1831 C 0.59184 0.87976 0.28481
 C1832 C 0.60139 0.86857 0.26364
 H1833 H 0.64353 0.81885 0.19651
 H1834 H 0.64121 0.89261 0.16604
 H1835 H 0.60224 0.93989 0.26883
 H1836 H 0.58456 0.86802 0.29939
 H1837 H 0.62559 0.83427 0.23478
 H1838 H 0.60038 0.84861 0.26232
 C1839 C 0.62102 0.38111 0.71640
 C1840 C 0.64680 0.38154 0.71254
 C1841 C 0.65666 0.37133 0.69097
 C1842 C 0.64095 0.36065 0.67320
 C1843 C 0.61529 0.36067 0.67765
 N1844 N 0.60609 0.37075 0.69881
 C1845 C 0.61006 0.39137 0.73940
 N1846 N 0.62521 0.39961 0.75786
 C1847 C 0.61629 0.40889 0.77947
 C1848 C 0.59059 0.41027 0.78360
 C1849 C 0.57459 0.40194 0.76481
 C1850 C 0.58423 0.39249 0.74274
 H1851 H 0.67658 0.37142 0.68829
 H1852 H 0.60261 0.35269 0.66428
 H1853 H 0.62934 0.41473 0.79357
 H1854 H 0.55465 0.40292 0.76708
 H1855 H 0.65928 0.38956 0.72608
 H1856 H 0.57158 0.38617 0.72848
 C1857 C 1.28621 1.11824 1.11844
 C1858 C 1.30918 1.11337 1.10716
 C1859 C 1.33075 1.12384 1.11703
 C1860 C 1.32939 1.13862 1.13826
 C1861 C 1.30619 1.14303 1.14903
 N1862 N 1.28536 1.13307 1.13884
 C1863 C 1.26287 1.10798 1.10845
 N1864 N 1.24208 1.12232 1.10855
 C1865 C 1.21995 1.11396 1.09975
 C1866 C 1.21780 1.08969 1.09070
 C1867 C 1.23884 1.07443 1.09079
 C1868 C 1.26151 1.08359 1.09943
 H1869 H 1.34852 1.12023 1.10840
 H1870 H 1.30471 1.15450 1.16540
 H1871 H 1.20397 1.12612 1.10011
 H1872 H 1.23772 1.05556 1.08398
 H1873 H 1.31038 1.10198 1.09069
 H1874 H 1.27764 1.07162 1.09952
 C1875 C 1.28625 0.61522 0.61881
 C1876 C 1.30495 0.60050 0.62958
 C1877 C 1.32609 0.61180 0.63942
 C1878 C 1.32869 0.63768 0.63880
 C1879 C 1.30977 0.65171 0.62774
 N1880 N 1.28935 0.64031 0.61828
 C1881 C 1.26276 0.60477 0.60876
 N1882 N 1.24432 0.62083 0.60237
 C1883 C 1.22201 0.61312 0.59345
 C1884 C 1.21706 0.58773 0.59065
 C1885 C 1.23579 0.57077 0.59685
 C1886 C 1.25866 0.57915 0.60575
 H1887 H 1.34037 0.60037 0.64773
 H1888 H 1.31098 0.67173 0.62708
 H1889 H 1.20801 0.62683 0.58907
 H1890 H 1.23283 0.55103 0.59457
 H1891 H 1.30342 0.58058 0.63096
 H1892 H 1.27271 0.56552 0.60995
 C1893 C 0.78658 1.11580 0.61753
 C1894 C 0.80749 1.12239 0.60332
 C1895 C 0.82780 1.13364 0.61481
 C1896 C 0.82755 1.13810 0.64038
 C1897 C 0.80687 1.13035 0.65408
 N1898 N 0.78716 1.11974 0.64246
 C1899 C 0.76351 1.10537 0.60655
 N1900 N 0.74539 1.09733 0.62220
 C1901 C 0.72320 1.08854 0.61405
 C1902 C 0.71797 1.08764 0.58858
 C1903 C 0.73636 1.09570 0.57203
 C1904 C 0.75906 1.10460 0.58085
 H1905 H 0.84364 1.13919 0.60377
 H1906 H 0.80604 1.13353 0.67385
 H1907 H 0.70946 1.08287 0.62754
 H1908 H 0.73321 1.09512 0.55222
 H1909 H 0.80841 1.11920 0.58360
 H1910 H 0.77247 1.11112 0.56751
 C1911 C 0.78411 0.61935 1.12020
 C1912 C 0.80730 0.61479 1.10923
 C1913 C 0.82856 0.62581 1.11920
 C1914 C 0.82669 0.64080 1.14025
 C1915 C 0.80330 0.64477 1.15079
 N1916 N 0.78277 0.63432 1.14047
 C1917 C 0.76102 0.60885 1.10986
 N1918 N 0.74009 0.62299 1.10966
 C1919 C 0.71819 0.61446 1.10047
 C1920 C 0.71641 0.59021 1.09130
 C1921 C 0.73759 0.57514 1.09168
 C1922 C 0.76003 0.58449 1.10072
 H1923 H 0.84646 0.62258 1.11070
 H1924 H 0.80139 0.65646 1.16696
 H1925 H 0.70209 0.62647 1.10064
 H1926 H 0.73676 0.55629 1.08480
 H1927 H 0.80889 0.60333 1.09285
 H1928 H 0.77628 0.57267 1.10102
 C1929 C 1.28032 0.87691 0.87291
 C1930 C 1.28324 0.87029 0.84785
 C1931 C 1.30597 0.86110 0.83965
 C1932 C 1.32575 0.85821 0.85626
 C1933 C 1.32203 0.86450 0.88116
 N1934 N 1.29977 0.87361 0.88873
 C1935 C 1.25674 0.88707 0.88287
 N1936 N 1.25349 0.88779 0.90789
 C1937 C 1.23260 0.89702 0.91858
 C1938 C 1.21332 0.90646 0.90382
 C1939 C 1.21628 0.90595 0.87799
 C1940 C 1.23790 0.89649 0.86748
 H1941 H 1.30807 0.85589 0.82039
 H1942 H 1.33690 0.86235 0.89449
 H1943 H 1.23126 0.89732 0.93858
 H1944 H 1.20178 0.91273 0.86584
 H1945 H 1.26824 0.87167 0.83464
 H1946 H 1.23968 0.89703 0.84756
 C1947 C 1.28051 0.37392 0.37933
 C1948 C 1.28823 0.34957 0.38451
 C1949 C 1.31021 0.34066 0.37424
 C1950 C 1.32477 0.35588 0.35887
 C1951 C 1.31683 0.38041 0.35490
 N1952 N 1.29523 0.38864 0.36501
 C1953 C 1.25696 0.38412 0.38921
 N1954 N 1.25418 0.40918 0.39094
 C1955 C 1.23309 0.41984 0.39979
 C1956 C 1.21314 0.40500 0.40763
 C1957 C 1.21543 0.37916 0.40555
 C1958 C 1.23716 0.36868 0.39631
 H1959 H 1.31558 0.32173 0.37818
 H1960 H 1.32774 0.39302 0.34372
 H1961 H 1.23207 0.43985 0.40106
 H1962 H 1.20024 0.36705 0.41072
 H1963 H 1.27769 0.33747 0.39653
 H1964 H 1.23805 0.34875 0.39436
 C1965 C 0.77870 0.87280 0.37327
 C1966 C 0.78487 0.84753 0.37548
 C1967 C 0.80756 0.83906 0.36644
 C1968 C 0.82442 0.85563 0.35553
 C1969 C 0.81759 0.88068 0.35359
 N1970 N 0.79533 0.88851 0.36247
 C1971 C 0.75511 0.88313 0.38302
 N1972 N 0.75322 0.90814 0.38620
 C1973 C 0.73247 0.91906 0.39551
 C1974 C 0.71202 0.90453 0.40251
 C1975 C 0.71333 0.87881 0.39893
 C1976 C 0.73466 0.86806 0.38908
 H1977 H 0.81197 0.81954 0.36802
 H1978 H 0.83011 0.89405 0.34536
 H1979 H 0.73216 0.93899 0.39793
 H1980 H 0.69769 0.86701 0.40352
 H1981 H 0.77274 0.83433 0.38445
 H1982 H 0.73476 0.84826 0.38610
 C1983 C 0.78490 0.38330 0.88166
 C1984 C 0.80555 0.39781 0.87480
 C1985 C 0.82632 0.38638 0.86444
 C1986 C 0.82679 0.36062 0.86105
 C1987 C 0.80624 0.34670 0.86883
 N1988 N 0.78610 0.35823 0.87862
 C1989 C 0.76151 0.39404 0.89154
 N1990 N 0.74329 0.37812 0.89891
 C1991 C 0.72095 0.38601 0.90747
 C1992 C 0.71569 0.41146 0.90891
 C1993 C 0.73414 0.42828 0.90150
 C1994 C 0.75698 0.41973 0.89281
 H1995 H 0.84201 0.39764 0.85884
 H1996 H 0.80589 0.32678 0.86642
 H1997 H 0.70717 0.37233 0.91264
 H1998 H 0.73096 0.44809 0.90254
 H1999 H 0.80595 0.41768 0.87712
 H2000 H 0.77051 0.43331 0.88699
 C2001 C 0.72194 0.87847 1.12917
 C2002 C 0.71642 0.87950 1.15462
 C2003 C 0.69455 0.86886 1.16341
 C2004 C 0.67783 0.85751 1.14700
 C2005 C 0.68365 0.85748 1.12166
 N2006 N 0.70524 0.86773 1.11353
 C2007 C 0.74524 0.88879 1.11869
 N2008 N 0.74685 0.89223 1.09371
 C2009 C 0.76758 0.90146 1.08262
 C2010 C 0.78832 0.90799 1.09693
 C2011 C 0.78725 0.90427 1.12261
 C2012 C 0.76592 0.89458 1.13353
 H2013 H 0.69088 0.86923 1.18312
 H2014 H 0.67111 0.84918 1.10836
 H2015 H 0.76769 0.90403 1.06273
 H2016 H 0.80311 0.90851 1.13422
 H2017 H 0.72857 0.88847 1.16779
 H2018 H 0.76610 0.89135 1.15328
 C2019 C 0.71326 0.38343 0.61703
 C2020 C 0.69247 0.39792 0.62331
 C2021 C 0.67181 0.38663 0.63414
 C2022 C 0.67160 0.36101 0.63849
 C2023 C 0.69230 0.34707 0.63127
 N2024 N 0.71233 0.35847 0.62102
 C2025 C 0.73648 0.39410 0.60664
 N2026 N 0.75436 0.37819 0.59860
 C2027 C 0.77659 0.38608 0.58968
 C2028 C 0.78209 0.41151 0.58861
 C2029 C 0.76395 0.42832 0.59667
 C2030 C 0.74123 0.41977 0.60572
 H2031 H 0.65598 0.39788 0.63926
 H2032 H 0.69283 0.32724 0.63441
 H2033 H 0.79013 0.37240 0.58402
 H2034 H 0.76732 0.44812 0.59596
 H2035 H 0.69184 0.41767 0.62007
 H2036 H 0.72801 0.43331 0.61223
 C2037 C 0.21402 0.88261 0.61875
 C2038 C 0.19225 0.89656 0.62241
 C2039 C 0.17150 0.88531 0.63316
 C2040 C 0.17231 0.86027 0.64011
 C2041 C 0.19404 0.84680 0.63546
 N2042 N 0.21404 0.85816 0.62517
 C2043 C 0.23713 0.89332 0.60828
 N2044 N 0.25523 0.87747 0.60063
 C2045 C 0.27738 0.88546 0.59163
 C2046 C 0.28257 0.91093 0.59011
 C2047 C 0.26424 0.92768 0.59789
 C2048 C 0.24157 0.91901 0.60702
 H2049 H 0.15481 0.89608 0.63613
 H2050 H 0.19527 0.82741 0.64052
 H2051 H 0.29110 0.87185 0.58624
 H2052 H 0.26742 0.94750 0.59691
 H2053 H 0.19096 0.91581 0.61699
 H2054 H 0.22814 0.93240 0.61342
 C2055 C 0.21575 0.38146 1.11890
 C2056 C 0.19337 0.39476 1.12100
 C2057 C 0.17283 0.38354 1.13219
 C2058 C 0.17453 0.35922 1.14120
 C2059 C 0.19691 0.34638 1.13821
 N2060 N 0.21666 0.35767 1.12736
 C2061 C 0.23853 0.39217 1.10780
 N2062 N 0.25685 0.37640 1.10053
 C2063 C 0.27879 0.38450 1.09111
 C2064 C 0.28353 0.41000 1.08884
 C2065 C 0.26493 0.42667 1.09619
 C2066 C 0.24246 0.41788 1.10567
 H2067 H 0.15559 0.39372 1.13384
 H2068 H 0.19884 0.32754 1.14483
 H2069 H 0.29273 0.37100 1.08605
 H2070 H 0.26779 0.44650 1.09465
 H2071 H 0.19148 0.41342 1.11391
 H2072 H 0.22878 0.43117 1.11179
 C2073 C 0.71668 1.12310 0.88267
 C2074 C 0.69320 1.11332 0.88850
 C2075 C 0.67211 1.12311 0.87702
 C2076 C 0.67447 1.14279 0.86029
 C2077 C 0.69811 1.15233 0.85527
 N2078 N 0.71843 1.14217 0.86619
 C2079 C 0.73966 1.11250 0.89310
 N2080 N 0.76020 1.11114 0.87848
 C2081 C 0.78203 1.10164 0.88680
 C2082 C 0.78417 1.09332 0.91132
 C2083 C 0.76340 1.09488 0.92687
 C2084 C 0.74100 1.10425 0.91775
 H2085 H 0.65400 1.11532 0.88098
 H2086 H 0.70036 1.16741 0.84221
 H2087 H 0.79781 1.10094 0.87441
 H2088 H 0.76450 1.08870 0.94593
 H2089 H 0.69126 1.09785 0.90115
 H2090 H 0.72510 1.10548 0.92994
 C2091 C 0.71367 0.61888 0.38411
 C2092 C 0.69191 0.60475 0.38087
 C2093 C 0.67118 0.61556 0.36969
 C2094 C 0.67198 0.64035 0.36193
 C2095 C 0.69356 0.65413 0.36645
 N2096 N 0.71361 0.64317 0.37711
 C2097 C 0.73695 0.60835 0.39441
 N2098 N 0.75516 0.62429 0.40171
 C2099 C 0.77753 0.61639 0.41027
 C2100 C 0.78284 0.59094 0.41162
 C2101 C 0.76436 0.57411 0.40425
 C2102 C 0.74148 0.58268 0.39561
 H2103 H 0.65459 0.60458 0.36679
 H2104 H 0.69472 0.67336 0.36079
 H2105 H 0.79134 0.63005 0.41540
 H2106 H 0.76761 0.55431 0.40514
 H2107 H 0.69068 0.58564 0.38680
 H2108 H 0.72797 0.56922 0.38943
 C2109 C 0.21427 1.12089 0.38367
 C2110 C 0.19606 1.13289 0.39797
 C2111 C 0.17500 1.14257 0.38641
 C2112 C 0.17199 1.14056 0.36068
 C2113 C 0.19048 1.12835 0.34707
 N2114 N 0.21083 1.11908 0.35872
 C2115 C 0.23764 1.11097 0.39442
 N2116 N 0.25628 1.10458 0.37865
 C2117 C 0.27845 1.09566 0.38668
 C2118 C 0.28302 1.09279 0.41212
 C2119 C 0.26408 1.09903 0.42878
 C2120 C 0.24136 1.10795 0.42007
 H2121 H 0.16113 1.15189 0.39752
 H2122 H 0.18902 1.12669 0.32715
 H2123 H 0.29263 1.09125 0.37320
 H2124 H 0.26673 1.09667 0.44854
 H2125 H 0.19802 1.13542 0.41771
 H2126 H 0.22703 1.11207 0.43342
 C2127 C 0.21357 0.61844 0.88315
 C2128 C 0.19265 0.60372 0.87770
 C2129 C 0.17185 0.61457 0.86669
 C2130 C 0.17162 0.64000 0.86132
 C2131 C 0.19251 0.65419 0.86764
 N2132 N 0.21266 0.64320 0.87810
 C2133 C 0.23682 0.60816 0.89391
 N2134 N 0.25467 0.62433 0.90167
 C2135 C 0.27690 0.61673 0.91087
 C2136 C 0.28247 0.59135 0.91249
 C2137 C 0.26433 0.57430 0.90480
 C2138 C 0.24161 0.58255 0.89547
 H2139 H 0.15586 0.60316 0.86239
 H2140 H 0.19301 0.67388 0.86376
 H2141 H 0.29043 0.63058 0.91625
 H2142 H 0.26771 0.55453 0.90595
 H2143 H 0.19198 0.58414 0.88184
 H2144 H 0.22844 0.56882 0.88919
 C2145 C 1.12760 1.27956 1.12427
 C2146 C 1.14465 1.27939 1.14398
 C2147 C 1.15325 1.30184 1.15356
 C2148 C 1.14524 1.32424 1.14321
 C2149 C 1.12825 1.32372 1.12360
 N2150 N 1.11974 1.30165 1.11483
 C2151 C 1.11759 1.25630 1.11394
 N2152 N 1.09339 1.25536 1.10668
 C2153 C 1.08303 1.23442 1.09713
 C2154 C 1.09745 1.21302 1.09398
 C2155 C 1.12251 1.21369 1.10097
 C2156 C 1.13261 1.23523 1.11113
 H2157 H 1.16610 1.30184 1.16900
 H2158 H 1.12157 1.34086 1.11554
 H2159 H 1.06367 1.23457 1.09172
 H2160 H 1.13415 1.19746 1.09880
 H2161 H 1.15082 1.26215 1.15223
 H2162 H 1.15203 1.23554 1.11633
 C2163 C 1.12629 0.77856 0.62694
 C2164 C 1.13352 0.78147 0.65185
 C2165 C 1.14200 0.80448 0.66009
 C2166 C 1.14355 0.82452 0.64364
 C2167 C 1.13711 0.82073 0.61879
 N2168 N 1.12862 0.79822 0.61120
 C2169 C 1.11611 0.75491 0.61714
 N2170 N 1.11480 0.75173 0.59213
 C2171 C 1.10518 0.73091 0.58160
 C2172 C 1.09589 0.71167 0.59651
 C2173 C 1.09703 0.71455 0.62233
 C2174 C 1.10694 0.73607 0.63269
 H2175 H 1.14736 0.80675 0.67930
 H2176 H 1.13833 0.83582 0.60560
 H2177 H 1.10441 0.72963 0.56161
 H2178 H 1.09037 0.70009 0.63458
 H2179 H 1.13293 0.76631 0.66494
 H2180 H 1.10686 0.73784 0.65262
 C2181 C 0.62413 1.27959 0.62668
 C2182 C 0.62877 1.28354 0.65206
 C2183 C 0.63750 1.30654 0.66005
 C2184 C 0.64192 1.32560 0.64295
 C2185 C 0.63756 1.32089 0.61779
 N2186 N 0.62883 1.29839 0.61043
 C2187 C 0.61435 1.25574 0.61682
 N2188 N 0.61337 1.25253 0.59178
 C2189 C 0.60435 1.23152 0.58111
 C2190 C 0.59539 1.21203 0.59589
 C2191 C 0.59631 1.21486 0.62172
 C2192 C 0.60558 1.23658 0.63223
 H2193 H 0.64111 1.30942 0.67958
 H2194 H 0.64083 1.33519 0.60408
 H2195 H 0.60378 1.23027 0.56111
 H2196 H 0.58998 1.20018 0.63389
 H2197 H 0.62607 1.26926 0.66582
 H2198 H 0.60543 1.23807 0.65215
 C2199 C 0.62992 0.77764 1.12580
 C2200 C 0.65544 0.78100 1.13045
 C2201 C 0.66389 0.80349 1.14003
 C2202 C 0.64711 0.82261 1.14520
 C2203 C 0.62183 0.81854 1.14064
 N2204 N 0.61400 0.79653 1.13115
 C2205 C 0.61950 0.75423 1.11559
 N2206 N 0.59435 0.75137 1.11500
 C2207 C 0.58318 0.73071 1.10574
 C2208 C 0.59754 0.71127 1.09615
 C2209 C 0.62348 0.71374 1.09667
 C2210 C 0.63449 0.73511 1.10616
 H2211 H 0.68349 0.80585 1.14388
 H2212 H 0.60836 0.83288 1.14460
 H2213 H 0.56311 0.72973 1.10550
 H2214 H 0.63534 0.69906 1.08984
 H2215 H 0.66893 0.76658 1.12726
 H2216 H 0.65448 0.73637 1.10569
 C2217 C 0.87520 1.27989 0.87424
 C2218 C 0.86989 1.28317 0.84890
 C2219 C 0.86078 1.30588 0.84053
 C2220 C 0.85661 1.32529 0.85724
 C2221 C 0.86151 1.32120 0.88241
 N2222 N 0.87064 1.29898 0.89015
 C2223 C 0.88555 1.25641 0.88439
 N2224 N 0.88626 1.25328 0.90945
 C2225 C 0.89578 1.23258 0.92032
 C2226 C 0.90553 1.21337 0.90574
 C2227 C 0.90495 1.21617 0.87990
 C2228 C 0.89520 1.23758 0.86919
 H2229 H 0.85673 1.30828 0.82102
 H2230 H 0.85840 1.33578 0.89582
 H2231 H 0.89607 1.23136 0.94033
 H2232 H 0.91192 1.20171 0.86786
 H2233 H 0.87234 1.26855 0.83549
 H2234 H 0.89570 1.23916 0.84926
 C2235 C 0.88332 0.78630 0.38213
 C2236 C 0.87310 0.80555 0.39648
 C2237 C 0.86222 0.82592 0.38475
 C2238 C 0.86130 0.82725 0.35882
 C2239 C 0.87239 0.80813 0.34516
 N2240 N 0.88274 0.78841 0.35697
 C2241 C 0.89370 0.76315 0.39301
 N2242 N 0.90049 0.74463 0.37726
 C2243 C 0.90935 0.72245 0.38531
 C2244 C 0.91164 0.71765 0.41076
 C2245 C 0.90504 0.73647 0.42741
 C2246 C 0.89620 0.75922 0.41869
 H2247 H 0.85408 0.84049 0.39589
 H2248 H 0.87208 0.80842 0.32512
 H2249 H 0.91402 0.70839 0.37180
 H2250 H 0.90689 0.73364 0.44720
 H2251 H 0.87284 0.80498 0.41646
 H2252 H 0.89147 0.77324 0.43213
 C2253 C 0.38133 1.28369 0.37918
 C2254 C 0.38724 1.30737 0.38833
 C2255 C 0.37616 1.32826 0.37771
 C2256 C 0.35976 1.32548 0.35780
 C2257 C 0.35465 1.30165 0.34890
 N2258 N 0.36517 1.28154 0.35987
 C2259 C 0.39144 1.26096 0.39054
 N2260 N 0.37664 1.24055 0.39229
 C2261 C 0.38480 1.21886 0.40223
 C2262 C 0.40936 1.21673 0.41055
 C2263 C 0.42505 1.23741 0.40870
 C2264 C 0.41608 1.25967 0.39894
 H2265 H 0.38016 1.34653 0.38502
 H2266 H 0.34181 1.29908 0.33369
 H2267 H 0.37230 1.20314 0.40313
 H2268 H 0.44417 1.23629 0.41485
 H2269 H 0.39966 1.30963 0.40395
 H2270 H 0.42842 1.27547 0.39740
 C2271 C 0.38322 0.78764 0.88443
 C2272 C 0.39774 0.80824 0.87745
 C2273 C 0.38645 0.82852 0.86596
 C2274 C 0.36081 0.82853 0.86162
 C2275 C 0.34682 0.80814 0.86966
 N2276 N 0.35823 0.78847 0.88051
 C2277 C 0.39389 0.76460 0.89518
 N2278 N 0.37793 0.74655 0.90286
 C2279 C 0.38578 0.72436 0.91184
 C2280 C 0.41124 0.71903 0.91330
 C2281 C 0.42811 0.73738 0.90572
 C2282 C 0.41959 0.76010 0.89665
 H2283 H 0.39771 0.84414 0.86018
 H2284 H 0.32698 0.80750 0.86657
 H2285 H 0.37208 0.71066 0.91716
 H2286 H 0.44792 0.73416 0.90678
 H2287 H 0.41753 0.80894 0.88049
 H2288 H 0.43319 0.77348 0.89056
 C2289 C 1.12292 0.72083 0.87324
 C2290 C 1.12772 0.71689 0.84790
 C2291 C 1.13698 0.69406 0.84006
 C2292 C 1.14176 0.67520 0.85727
 C2293 C 1.13743 0.67997 0.88240
 N2294 N 1.12815 0.70227 0.88962
 C2295 C 1.11237 0.74438 0.88294
 N2296 N 1.11148 0.74775 0.90794
 C2297 C 1.10191 0.76853 0.91851
 C2298 C 1.09231 0.78765 0.90364
 C2299 C 1.09294 0.78459 0.87784
 C2300 C 1.10277 0.76306 0.86744
 H2301 H 1.14051 0.69107 0.82054
 H2302 H 1.14097 0.66581 0.89618
 H2303 H 1.10154 0.76993 0.93850
 H2304 H 1.08608 0.79897 0.86561
 H2305 H 1.12464 0.73103 0.83408
 H2306 H 1.10245 0.76135 0.84753
 C2307 C 1.12549 0.22160 0.37388
 C2308 C 1.15092 0.21806 0.36896
 C2309 C 1.15920 0.19513 0.36041
 C2310 C 1.14232 0.17578 0.35637
 C2311 C 1.11706 0.18017 0.36063
 N2312 N 1.10941 0.20258 0.36930
 C2313 C 1.11546 0.24515 0.38408
 N2314 N 1.09036 0.24830 0.38488
 C2315 C 1.07957 0.26897 0.39446
 C2316 C 1.09428 0.28813 0.40424
 C2317 C 1.12017 0.28535 0.40354
 C2318 C 1.13080 0.26397 0.39368
 H2319 H 1.17879 0.19243 0.35686
 H2320 H 1.10355 0.16562 0.35760
 H2321 H 1.05952 0.27019 0.39484
 H2322 H 1.13229 0.29978 0.41050
 H2323 H 1.16448 0.23259 0.37145
 H2324 H 1.15076 0.26241 0.39410
 C2325 C 0.62312 0.72044 0.37268
 C2326 C 0.63072 0.71757 0.34790
 C2327 C 0.64016 0.69482 0.34000
 C2328 C 0.64220 0.67499 0.35666
 C2329 C 0.63518 0.67873 0.38135
 N2330 N 0.62586 0.70099 0.38861
 C2331 C 0.61247 0.74393 0.38229
 N2332 N 0.61122 0.74725 0.40727
 C2333 C 0.60155 0.76806 0.41769
 C2334 C 0.59222 0.78720 0.40269
 C2335 C 0.59310 0.78411 0.37689
 C2336 C 0.60305 0.76255 0.36664
 H2337 H 0.64597 0.69263 0.32093
 H2338 H 0.63674 0.66382 0.39471
 H2339 H 0.60092 0.76947 0.43768
 H2340 H 0.58635 0.79847 0.36458
 H2341 H 0.62980 0.73262 0.33470
 H2342 H 0.60292 0.76062 0.34672
 C2343 C 0.62393 0.22118 0.87177
 C2344 C 0.63057 0.21810 0.84673
 C2345 C 0.64008 0.19542 0.83874
 C2346 C 0.64321 0.17585 0.85553
 C2347 C 0.63700 0.17976 0.88042
 N2348 N 0.62757 0.20195 0.88778
 C2349 C 0.61340 0.24466 0.88158
 N2350 N 0.61224 0.24782 0.90660
 C2351 C 0.60268 0.26859 0.91721
 C2352 C 0.59336 0.28787 0.90239
 C2353 C 0.59428 0.28500 0.87656
 C2354 C 0.60408 0.26349 0.86611
 H2355 H 0.64528 0.19317 0.81950
 H2356 H 0.63936 0.16509 0.89391
 H2357 H 0.60206 0.26982 0.93721
 H2358 H 0.58759 0.29949 0.86436
 H2359 H 0.62890 0.23292 0.83335
 H2360 H 0.60392 0.26181 0.84618
 C2361 C 0.88274 0.71391 1.11587
 C2362 C 0.89751 0.69581 1.12755
 C2363 C 0.88625 0.67512 1.13833
 C2364 C 0.86036 0.67241 1.13782
 C2365 C 0.84632 0.69048 1.12541
 N2366 N 0.85767 0.71053 1.11513
 C2367 C 0.89313 0.73730 1.10557
 N2368 N 0.87711 0.75601 1.09987
 C2369 C 0.88487 0.77837 1.09117
 C2370 C 0.91028 0.78314 1.08793
 C2371 C 0.92716 0.76408 1.09329
 C2372 C 0.91872 0.74114 1.10192
 H2373 H 0.89771 0.66143 1.14754
 H2374 H 0.82630 0.68912 1.12461
 H2375 H 0.87121 0.79260 1.08739
 H2376 H 0.94689 0.76686 1.09059
 H2377 H 0.91740 0.69767 1.12916
 H2378 H 0.93225 0.72680 1.10547
 C2379 C 0.87260 0.21991 0.62153
 C2380 C 0.84743 0.21325 0.61936
 C2381 C 0.83918 0.19089 0.62939
 C2382 C 0.85587 0.17485 0.64129
 C2383 C 0.88091 0.18192 0.64270
 N2384 N 0.88851 0.20392 0.63294
 C2385 C 0.88256 0.24355 0.61149
 N2386 N 0.90759 0.24604 0.60873
 C2387 C 0.91823 0.26708 0.59970
 C2388 C 0.90339 0.28727 0.59266
 C2389 C 0.87761 0.28529 0.59565
 C2390 C 0.86714 0.26363 0.60515
 H2391 H 0.81968 0.18618 0.62798
 H2392 H 0.89440 0.16994 0.65150
 H2393 H 0.93820 0.26788 0.59768
 H2394 H 0.86556 0.30069 0.59100
 H2395 H 0.83413 0.22483 0.60984
 H2396 H 0.84728 0.26307 0.60781
 C2397 C 0.38091 0.71357 0.61600
 C2398 C 0.37548 0.69255 0.60151
 C2399 C 0.36543 0.67146 0.61272
 C2400 C 0.36100 0.67107 0.63830
 C2401 C 0.36715 0.69214 0.65221
 N2402 N 0.37671 0.71254 0.64088
 C2403 C 0.39101 0.73696 0.60541
 N2404 N 0.39947 0.75466 0.62131
 C2405 C 0.40845 0.77689 0.61346
 C2406 C 0.40916 0.78256 0.58808
 C2407 C 0.40055 0.76463 0.57129
 C2408 C 0.39142 0.74193 0.57981
 H2409 H 0.36119 0.65536 0.60151
 H2410 H 0.36393 0.69252 0.67199
 H2411 H 0.41450 0.79027 0.62712
 H2412 H 0.40093 0.76813 0.55154
 H2413 H 0.37902 0.69201 0.58183
 H2414 H 0.38446 0.72887 0.56634
 C2415 C 0.38504 0.21240 1.11664
 C2416 C 0.40010 0.19349 1.12657
 C2417 C 0.38908 0.17243 1.13690
 C2418 C 0.36316 0.17010 1.13764
 C2419 C 0.34880 0.18911 1.12715
 N2420 N 0.35992 0.20946 1.11724
 C2421 C 0.39517 0.23590 1.10626
 N2422 N 0.37885 0.25416 1.09995
 C2423 C 0.38625 0.27654 1.09097
 C2424 C 0.41159 0.28181 1.08806
 C2425 C 0.42879 0.26323 1.09408
 C2426 C 0.42073 0.24029 1.10304
 H2427 H 0.40079 0.15797 1.14447
 H2428 H 0.32874 0.18807 1.12731
 H2429 H 0.37235 0.29039 1.08672
 H2430 H 0.44851 0.26642 1.09172
 H2431 H 0.42008 0.19476 1.12688
 H2432 H 0.43458 0.22646 1.10724
 C2433 C 1.12067 1.11990 0.71690
 C2434 C 1.13748 1.10648 0.70267
 C2435 C 1.14634 1.11660 0.68068
 C2436 C 1.13937 1.14056 0.67284
 C2437 C 1.12195 1.15438 0.68660
 N2438 N 1.11278 1.14341 0.70818
 C2439 C 1.11118 1.11025 0.74060
 N2440 N 1.08683 1.11328 0.74651
 C2441 C 1.07714 1.10476 0.76819
 C2442 C 1.09238 1.09271 0.78566
 C2443 C 1.11773 1.09004 0.77998
 C2444 C 1.12708 1.09849 0.75745
 H2445 H 1.15911 1.10564 0.66979
 H2446 H 1.10987 1.15468 0.70227
 H2447 H 1.05748 1.10711 0.77151
 H2448 H 1.13052 1.08177 0.79305
 H2449 H 1.14353 1.08817 0.70833
 H2450 H 1.14667 1.09640 0.75348
 C2451 C 1.11810 0.61667 0.21450
 C2452 C 1.12352 0.60205 0.19359
 C2453 C 1.13410 0.61308 0.17269
 C2454 C 1.13908 0.63859 0.17237
 C2455 C 1.13279 0.65267 0.19325
 N2456 N 1.12274 0.64151 0.21348
 C2457 C 1.10776 0.60625 0.23783
 N2458 N 1.10000 0.62233 0.25566
 C2459 C 1.09107 0.61464 0.27792
 C2460 C 1.08969 0.58924 0.28352
 C2461 C 1.09747 0.57227 0.26543
 C2462 C 1.10656 0.58062 0.24268
 H2463 H 1.13840 0.60174 0.15672
 H2464 H 1.13638 0.67242 0.19368
 H2465 H 1.08563 0.62844 0.29141
 H2466 H 1.09653 0.55250 0.26886
 H2467 H 1.11968 0.58240 0.19302
 H2468 H 1.11287 0.56696 0.22952
 C2469 C 0.61693 1.11901 0.21486
 C2470 C 0.62410 1.10448 0.19441
 C2471 C 0.63553 1.11577 0.17411
 C2472 C 0.63965 1.14143 0.17392
 C2473 C 0.63145 1.15542 0.19417
 N2474 N 0.62065 1.14401 0.21387
 C2475 C 0.60619 1.10833 0.23790
 N2476 N 0.59858 1.12424 0.25594
 C2477 C 0.58959 1.11636 0.27811
 C2478 C 0.58804 1.09091 0.28340
 C2479 C 0.59552 1.07409 0.26505
 C2480 C 0.60459 1.08264 0.24237
 H2481 H 0.64142 1.10449 0.15860
 H2482 H 0.63436 1.17528 0.19467
 H2483 H 0.58432 1.13002 0.29180
 H2484 H 0.59437 1.05428 0.26824
 H2485 H 0.62126 1.08467 0.19382
 H2486 H 0.61057 1.06905 0.22899
 C2487 C 0.61704 0.61749 0.71364
 C2488 C 0.62277 0.60259 0.69300
 C2489 C 0.63366 0.61335 0.67211
 C2490 C 0.63865 0.63885 0.67153
 C2491 C 0.63213 0.65319 0.69218
 N2492 N 0.62178 0.64229 0.71240
 C2493 C 0.60634 0.60740 0.73697
 N2494 N 0.59900 0.62372 0.75477
 C2495 C 0.58991 0.61633 0.77707
 C2496 C 0.58797 0.59099 0.78276
 C2497 C 0.59517 0.57378 0.76466
 C2498 C 0.60439 0.58182 0.74187
 H2499 H 0.63813 0.60181 0.65633
 H2500 H 0.63573 0.67294 0.69242
 H2501 H 0.58487 0.63028 0.79055
 H2502 H 0.59374 0.55404 0.76814
 H2503 H 0.61897 0.58294 0.69261
 H2504 H 0.61024 0.56795 0.72872
 C2505 C 0.87365 0.87439 0.72136
 C2506 C 0.86940 0.84886 0.71767
 C2507 C 0.86117 0.84044 0.69467
 C2508 C 0.85686 0.85725 0.67535
 C2509 C 0.86061 0.88257 0.67984
 N2510 N 0.86891 0.89037 0.70233
 C2511 C 0.88337 0.88466 0.74506
 N2512 N 0.88453 0.90978 0.74781
 C2513 C 0.89381 0.92079 0.76853
 C2514 C 0.90293 0.90628 0.78813
 C2515 C 0.90170 0.88039 0.78583
 C2516 C 0.89212 0.86953 0.76444
 H2517 H 0.85803 0.82079 0.69192
 H2518 H 0.85736 0.89605 0.66532
 H2519 H 0.89454 0.94083 0.76942
 H2520 H 0.90811 0.86843 0.80064
 H2521 H 0.87217 0.83529 0.73211
 H2522 H 0.89209 0.84955 0.76336
 C2523 C 0.87717 0.37543 0.21882
 C2524 C 0.86876 0.35078 0.21666
 C2525 C 0.85985 0.34226 0.19397
 C2526 C 0.85889 0.35821 0.17354
 C2527 C 0.86725 0.38266 0.17632
 N2528 N 0.87602 0.39058 0.19860
 C2529 C 0.88685 0.38557 0.24248
 N2530 N 0.88790 0.41065 0.24556
 C2531 C 0.89670 0.42134 0.26665
 C2532 C 0.90535 0.40653 0.28624
 C2533 C 0.90443 0.38066 0.28345
 C2534 C 0.89543 0.37015 0.26166
 H2535 H 0.85321 0.32336 0.19240
 H2536 H 0.86669 0.39539 0.16081
 H2537 H 0.89734 0.44137 0.26789
 H2538 H 0.91061 0.36847 0.29817
 H2539 H 0.86846 0.33822 0.23227
 H2540 H 0.89570 0.35019 0.25996
 C2541 C 0.37710 0.88011 0.21817
 C2542 C 0.37553 0.85428 0.21511
 C2543 C 0.36679 0.84456 0.19281
 C2544 C 0.35964 0.86045 0.17350
 C2545 C 0.36129 0.88614 0.17732
 N2546 N 0.36990 0.89520 0.19921
 C2547 C 0.38658 0.89097 0.24159
 N2548 N 0.39414 0.87575 0.26028
 C2549 C 0.40321 0.88456 0.28204
 C2550 C 0.40513 0.91022 0.28606
 C2551 C 0.39733 0.92630 0.26713
 C2552 C 0.38809 0.91677 0.24490
 H2553 H 0.36549 0.82464 0.19064
 H2554 H 0.35599 0.89895 0.16280
 H2555 H 0.40863 0.87149 0.29628
 H2556 H 0.39870 0.94621 0.26938
 H2557 H 0.38100 0.84167 0.22975
 H2558 H 0.38230 0.92948 0.23046
 C2559 C 0.37116 0.37925 0.72132
 C2560 C 0.34585 0.37317 0.71883
 C2561 C 0.33735 0.36243 0.69694
 C2562 C 0.35389 0.35742 0.67760
 C2563 C 0.37897 0.36361 0.68071
 N2564 N 0.38686 0.37419 0.70218
 C2565 C 0.38157 0.39026 0.74430
 N2566 N 0.40668 0.39059 0.74738
 C2567 C 0.41775 0.40005 0.76797
 C2568 C 0.40330 0.41000 0.78717
 C2569 C 0.37739 0.41000 0.78432
 C2570 C 0.36650 0.40042 0.76296
 H2571 H 0.31793 0.35746 0.69528
 H2572 H 0.39222 0.35992 0.66612
 H2573 H 0.43780 0.39997 0.76920
 H2574 H 0.36543 0.41716 0.79875
 H2575 H 0.33265 0.37597 0.73359
 H2576 H 0.34655 0.40128 0.76134
 C2577 C 1.12423 0.87312 1.27943
 C2578 C 1.12894 0.84773 1.28349
 C2579 C 1.13754 0.83981 1.30655
 C2580 C 1.14178 0.85698 1.32553
 C2581 C 1.13753 0.88216 1.32067
 N2582 N 1.12888 0.88946 1.29814
 C2583 C 1.11433 0.88289 1.25561
 N2584 N 1.11349 0.90794 1.25221
 C2585 C 1.10431 0.91854 1.23124
 C2586 C 1.09502 0.90368 1.21200
 C2587 C 1.09575 0.87783 1.21505
 C2588 C 1.10519 0.86739 1.23673
 H2589 H 1.14106 0.82027 1.30960
 H2590 H 1.14068 0.89591 1.33492
 H2591 H 1.10389 0.93857 1.22983
 H2592 H 1.08915 0.86559 1.20057
 H2593 H 1.12630 0.83394 1.26926
 H2594 H 1.10488 0.84745 1.23843
 C2595 C 1.11725 0.38294 0.78627
 C2596 C 1.12957 0.39793 0.80374
 C2597 C 1.14003 0.38708 0.82477
 C2598 C 1.13851 0.36138 0.82850
 C2599 C 1.12598 0.34707 0.81074
 N2600 N 1.11594 0.35803 0.79037
 C2601 C 1.10663 0.39299 0.76291
 N2602 N 1.10050 0.37677 0.74456
 C2603 C 1.09134 0.38429 0.72231
 C2604 C 1.08808 0.40963 0.71734
 C2605 C 1.09381 0.42670 0.73608
 C2606 C 1.10289 0.41852 0.75889
 H2607 H 1.14954 0.39874 0.83808
 H2608 H 1.12464 0.32714 0.81277
 H2609 H 1.08724 0.37051 0.70832
 H2610 H 1.09109 0.44639 0.73313
 H2611 H 1.13179 0.41767 0.80118
 H2612 H 1.10667 0.43218 0.77301
 C2613 C 0.61858 0.87801 0.78254
 C2614 C 0.61208 0.85412 0.79046
 C2615 C 0.62288 0.84442 0.81187
 C2616 C 0.63973 0.85868 0.82584
 C2617 C 0.64539 0.88273 0.81731
 N2618 N 0.63509 0.89152 0.79603
 C2619 C 0.60849 0.88835 0.75937
 N2620 N 0.62401 0.90001 0.74327
 C2621 C 0.61596 0.90928 0.72124
 C2622 C 0.59078 0.90738 0.71442
 C2623 C 0.57443 0.89592 0.73125
 C2624 C 0.58325 0.88617 0.75353
 H2625 H 0.61826 0.82564 0.81725
 H2626 H 0.65803 0.89454 0.82748
 H2627 H 0.62945 0.91755 0.70891
 H2628 H 0.55476 0.89459 0.72735
 H2629 H 0.59934 0.84281 0.77981
 H2630 H 0.57043 0.87732 0.76622
 C2631 C 0.61732 0.38516 1.28669
 C2632 C 0.62408 0.40040 1.30679
 C2633 C 0.63389 0.38972 1.32823
 C2634 C 0.63683 0.36396 1.32992
 C2635 C 0.62967 0.34934 1.30968
 N2636 N 0.62030 0.36014 1.28892
 C2637 C 0.60722 0.39506 1.26300
 N2638 N 0.59964 0.37858 1.24541
 C2639 C 0.59070 0.38577 1.22296
 C2640 C 0.58912 0.41104 1.21691
 C2641 C 0.59662 0.42841 1.23476
 C2642 C 0.60569 0.42059 1.25770
 H2643 H 0.63902 0.40152 1.34363
 H2644 H 0.63179 0.32939 1.31030
 H2645 H 0.58543 0.37169 1.20968
 H2646 H 0.59545 0.44812 1.23100
 H2647 H 0.62187 0.42028 1.30639
 H2648 H 0.61158 0.43461 1.27068
 C2649 C 0.87644 1.12769 1.27937
 C2650 C 0.87682 1.15312 1.28522
 C2651 C 0.86729 1.16116 1.30783
 C2652 C 0.85769 1.14404 1.32491
 C2653 C 0.85733 1.11888 1.31831
 N2654 N 0.86669 1.11146 1.29613
 C2655 C 0.88702 1.11768 1.25600
 N2656 N 0.89050 1.09271 1.25406
 C2657 C 0.90038 1.08195 1.23354
 C2658 C 0.90766 1.09660 1.21331
 C2659 C 0.90401 1.12231 1.21471
 C2660 C 0.89360 1.13290 1.23584
 H2661 H 0.86761 1.18078 1.31209
 H2662 H 0.85010 1.10509 1.33097
 H2663 H 0.90288 1.06204 1.23320
 H2664 H 0.90885 1.13420 1.19925
 H2665 H 0.88475 1.16683 1.27296
 H2666 H 0.89059 1.15269 1.23593
 C2667 C 0.87454 0.62336 0.78065
 C2668 C 0.84976 0.63131 0.78288
 C2669 C 0.84134 0.64065 0.80541
 C2670 C 0.85752 0.64254 0.82561
 C2671 C 0.88218 0.63486 0.82268
 N2672 N 0.88997 0.62558 0.80057
 C2673 C 0.88449 0.61291 0.75724
 N2674 N 0.90956 0.61189 0.75395
 C2675 C 0.92009 0.60250 0.73307
 C2676 C 0.90514 0.59323 0.71385
 C2677 C 0.87928 0.59398 0.71692
 C2678 C 0.86892 0.60356 0.73852
 H2679 H 0.82226 0.64672 0.80707
 H2680 H 0.89510 0.63608 0.83800
 H2681 H 0.94013 0.60199 0.73166
 H2682 H 0.86696 0.58732 0.70251
 H2683 H 0.83695 0.63081 0.76748
 H2684 H 0.84896 0.60320 0.74042
 C2685 C 0.38378 1.11472 0.78682
 C2686 C 0.37339 1.09985 0.80562
 C2687 C 0.36332 1.11102 0.82665
 C2688 C 0.36334 1.13692 0.82907
 C2689 C 0.37403 1.15110 0.81006
 N2690 N 0.38372 1.13983 0.78975
 C2691 C 0.39407 1.10438 0.76345
 N2692 N 0.40063 1.12052 0.74513
 C2693 C 0.40966 1.11291 0.72290
 C2694 C 0.41237 1.08753 0.71787
 C2695 C 0.40605 1.07050 0.73649
 C2696 C 0.39706 1.07877 0.75928
 H2697 H 0.35535 1.09946 0.84101
 H2698 H 0.37424 1.17114 0.81114
 H2699 H 0.41414 1.12668 0.70900
 H2700 H 0.40825 1.05076 0.73348
 H2701 H 0.37253 1.07990 0.80430
 H2702 H 0.39269 1.06505 0.77318
 C2703 C 0.37822 0.62009 1.28277
 C2704 C 0.39422 0.63034 1.30061
 C2705 C 0.38436 0.64039 1.32229
 C2706 C 0.35864 0.64016 1.32633
 C2707 C 0.34330 0.62953 1.30819
 N2708 N 0.35331 0.61999 1.28717
 C2709 C 0.38794 0.60978 1.25923
 N2710 N 0.41289 0.60859 1.25525
 C2711 C 0.42271 0.59955 1.23388
 C2712 C 0.40710 0.59101 1.21485
 C2713 C 0.38133 0.59209 1.21859
 C2714 C 0.37172 0.60137 1.24068
 H2715 H 0.39674 0.64837 1.33594
 H2716 H 0.32335 0.62924 1.31054
 H2717 H 0.44269 0.59883 1.23191
 H2718 H 0.36857 0.58613 1.20427
 H2719 H 0.41411 0.63078 1.29778
 H2720 H 0.35178 0.60214 1.24307
 C2721 C 1.11734 1.28686 0.88338
 C2722 C 1.10265 1.30777 0.87793
 C2723 C 1.11356 1.32859 0.86702
 C2724 C 1.13902 1.32882 0.86173
 C2725 C 1.15317 1.30794 0.86803
 N2726 N 1.14213 1.28779 0.87841
 C2727 C 1.10704 1.26358 0.89402
 N2728 N 1.12324 1.24564 0.90145
 C2729 C 1.11565 1.22337 0.91053
 C2730 C 1.09025 1.21786 0.91238
 C2731 C 1.07317 1.23609 0.90503
 C2732 C 1.08141 1.25885 0.89581
 H2733 H 1.10219 1.34457 0.86270
 H2734 H 1.17288 1.30745 0.86420
 H2735 H 1.12952 1.20978 0.91564
 H2736 H 1.05339 1.23274 0.90637
 H2737 H 1.08305 1.30841 0.88198
 H2738 H 1.06765 1.27211 0.88983
 C2739 C 1.11698 0.78536 0.38243
 C2740 C 1.10207 0.80273 0.36986
 C2741 C 1.11296 0.82380 0.35946
 C2742 C 1.13865 0.82766 0.36130
 C2743 C 1.15288 0.80998 0.37406
 N2744 N 1.14188 0.78959 0.38404
 C2745 C 1.10689 0.76200 0.39306
 N2746 N 1.12313 0.74371 0.39948
 C2747 C 1.11558 0.72147 0.40869
 C2748 C 1.09020 0.71643 0.41171
 C2749 C 1.07312 0.73510 0.40568
 C2750 C 1.08133 0.75790 0.39654
 H2751 H 1.10136 0.83702 0.34976
 H2752 H 1.17280 0.81211 0.37564
 H2753 H 1.12937 0.70754 0.41303
 H2754 H 1.05339 0.73210 0.40820
 H2755 H 1.08235 0.80006 0.36741
 H2756 H 1.06764 0.77198 0.39252
 C2757 C 0.61479 1.28764 0.38248
 C2758 C 0.59943 1.30631 0.37256
 C2759 C 0.61007 1.32776 0.36269
 C2760 C 0.63593 1.33076 0.36244
 C2761 C 0.65063 1.31174 0.37243
 N2762 N 0.63986 1.29103 0.38199
 C2763 C 0.60497 1.26402 0.39288
 N2764 N 0.62147 1.24583 0.39895
 C2765 C 0.61429 1.22344 0.40810
 C2766 C 0.58902 1.21811 0.41143
 C2767 C 0.57166 1.23661 0.40568
 C2768 C 0.57948 1.25956 0.39657
 H2769 H 0.59810 1.34208 0.35525
 H2770 H 0.67066 1.31322 0.37238
 H2771 H 0.62829 1.20963 0.41216
 H2772 H 0.55200 1.23337 0.40839
 H2773 H 0.57948 1.30459 0.37198
 H2774 H 0.56552 1.27336 0.39268
 C2775 C 0.61836 0.78699 0.88391
 C2776 C 0.60429 0.80869 0.88026
 C2777 C 0.61522 0.82925 0.86885
 C2778 C 0.64006 0.82832 0.86127
 C2779 C 0.65374 0.80678 0.86611
 N2780 N 0.64268 0.78692 0.87700
 C2781 C 0.60778 0.76391 0.89461
 N2782 N 0.62371 0.74576 0.90206
 C2783 C 0.61577 0.72355 0.91097
 C2784 C 0.59029 0.71832 0.91254
 C2785 C 0.57348 0.73675 0.90507
 C2786 C 0.58208 0.75948 0.89608
 H2787 H 0.60431 0.84583 0.86571
 H2788 H 0.67301 0.80553 0.86060
 H2789 H 0.62943 0.70977 0.91616
 H2790 H 0.55365 0.73358 0.90613
 H2791 H 0.58515 0.81004 0.88607
 H2792 H 0.56861 0.77294 0.88983
 C2793 C 0.88290 1.28551 1.12019
 C2794 C 0.89710 1.30712 1.12402
 C2795 C 0.88583 1.32823 1.13380
 C2796 C 0.86047 1.32810 1.13938
 C2797 C 0.84683 1.30639 1.13511
 N2798 N 0.85821 1.28596 1.12575
 C2799 C 0.89365 1.26220 1.11022
 N2800 N 0.87785 1.24405 1.10247
 C2801 C 0.88594 1.22197 1.09344
 C2802 C 0.91147 1.21694 1.09189
 C2803 C 0.92813 1.23530 1.09987
 C2804 C 0.91937 1.25783 1.10910
 H2805 H 0.89680 1.34479 1.13692
 H2806 H 0.82724 1.30565 1.13950
 H2807 H 0.87237 1.20821 1.08794
 H2808 H 0.94798 1.23231 1.09887
 H2809 H 0.91658 1.30807 1.11938
 H2810 H 0.93278 1.27125 1.11556
 C2811 C 0.88330 0.78515 0.61997
 C2812 C 0.89786 0.80300 0.63229
 C2813 C 0.88656 0.82403 0.64225
 C2814 C 0.86082 0.82737 0.64020
 C2815 C 0.84695 0.80920 0.62776
 N2816 N 0.85835 0.78887 0.61821
 C2817 C 0.89379 0.76188 0.60964
 N2818 N 0.87779 0.74346 0.60296
 C2819 C 0.88562 0.72137 0.59375
 C2820 C 0.91106 0.71661 0.59092
 C2821 C 0.92794 0.73536 0.59736
 C2822 C 0.91944 0.75802 0.60655
 H2823 H 0.89789 0.83765 0.65172
 H2824 H 0.82701 0.81090 0.62606
 H2825 H 0.87197 0.70735 0.58916
 H2826 H 0.94771 0.73258 0.59503
 H2827 H 0.91762 0.80078 0.63481
 H2828 H 0.93297 0.77217 0.61085
 C2829 C 0.37901 1.27910 0.62918
 C2830 C 0.37975 1.28472 0.65462
 C2831 C 0.36888 1.30653 0.66319
 C2832 C 0.35757 1.32308 0.64659
 C2833 C 0.35785 1.31717 0.62127
 N2834 N 0.36831 1.29566 0.61336
 C2835 C 0.38948 1.25583 0.61885
 N2836 N 0.39245 1.25395 0.59384
 C2837 C 0.40162 1.23321 0.58284
 C2838 C 0.40859 1.21271 0.59725
 C2839 C 0.40546 1.21407 0.62299
 C2840 C 0.39582 1.23542 0.63384
 H2841 H 0.36902 1.31027 0.68289
 H2842 H 0.34960 1.32958 0.60782
 H2843 H 0.40377 1.23289 0.56290
 H2844 H 0.41006 1.19841 0.63471
 H2845 H 0.38862 1.27271 0.66796
 H2846 H 0.39306 1.23545 0.65365
 C2847 C 0.38490 0.78648 1.11986
 C2848 C 0.39973 0.80524 1.13040
 C2849 C 0.38853 0.82647 1.14003
 C2850 C 0.36264 0.82913 1.13942
 C2851 C 0.34850 0.81013 1.12864
 N2852 N 0.35980 0.78962 1.11938
 C2853 C 0.39523 0.76295 1.10993
 N2854 N 0.37906 0.74456 1.10362
 C2855 C 0.38664 0.72226 1.09473
 C2856 C 0.41201 0.71724 1.09184
 C2857 C 0.42909 0.73591 1.09798
 C2858 C 0.42085 0.75877 1.10688
 H2859 H 0.40005 0.84081 1.14813
 H2860 H 0.32846 0.81136 1.12802
 H2861 H 0.37283 0.70831 1.09041
 H2862 H 0.44883 0.73290 1.09564
 H2863 H 0.41966 0.80368 1.13173
 H2864 H 0.43457 0.77277 1.11102
 C2865 C 0.87901 0.71707 0.88137
 C2866 C 0.86447 0.70114 0.89582
 C2867 C 0.85522 0.67935 0.88543
 C2868 C 0.85979 0.67367 0.86040
 C2869 C 0.87489 0.69009 0.84675
 N2870 N 0.88407 0.71101 0.85746
 C2871 C 0.88829 0.74063 0.89151
 N2872 N 0.91255 0.74694 0.88850
 C2873 C 0.92197 0.76864 0.89728
 C2874 C 0.90650 0.78582 0.90944
 C2875 C 0.88127 0.77960 0.91228
 C2876 C 0.87224 0.75696 0.90366
 H2877 H 0.84427 0.66709 0.89696
 H2878 H 0.87898 0.68670 0.82744
 H2879 H 0.94157 0.77223 0.89493
 H2880 H 0.86829 0.79234 0.92070
 H2881 H 0.86045 0.70545 0.91499
 H2882 H 0.85274 0.75252 0.90586
 C2883 C 0.88297 0.21395 0.38356
 C2884 C 0.89781 0.19565 0.37236
 C2885 C 0.88660 0.17492 0.36166
 C2886 C 0.86069 0.17234 0.36179
 C2887 C 0.84658 0.19057 0.37378
 N2888 N 0.85788 0.21066 0.38399
 C2889 C 0.89326 0.23743 0.39375
 N2890 N 0.87708 0.25583 0.39987
 C2891 C 0.88467 0.27827 0.40849
 C2892 C 0.91006 0.28344 0.41118
 C2893 C 0.92713 0.26472 0.40535
 C2894 C 0.91888 0.24170 0.39681
 H2895 H 0.89812 0.16107 0.35279
 H2896 H 0.82654 0.18930 0.37430
 H2897 H 0.87087 0.29223 0.41264
 H2898 H 0.94687 0.26783 0.40760
 H2899 H 0.91774 0.19734 0.37110
 H2900 H 0.93259 0.22767 0.39283
 C2901 C 0.37496 0.72093 0.37316
 C2902 C 0.37009 0.71722 0.34778
 C2903 C 0.36133 0.69429 0.33965
 C2904 C 0.35708 0.67508 0.35661
 C2905 C 0.36159 0.67956 0.38178
 N2906 N 0.37037 0.70199 0.38929
 C2907 C 0.38488 0.74466 0.38312
 N2908 N 0.38560 0.74788 0.40816
 C2909 C 0.39475 0.76880 0.41890
 C2910 C 0.40412 0.78816 0.40420
 C2911 C 0.40348 0.78530 0.37837
 C2912 C 0.39409 0.76367 0.36779
 H2913 H 0.35760 0.69157 0.32013
 H2914 H 0.35843 0.66513 0.39537
 H2915 H 0.39510 0.77008 0.43891
 H2916 H 0.41014 0.79988 0.36625
 H2917 H 0.37264 0.73166 0.33416
 H2918 H 0.39452 0.76210 0.34787
 C2919 C 0.38472 0.21336 0.88114
 C2920 C 0.39973 0.19272 0.87561
 C2921 C 0.38897 0.17143 0.86550
 C2922 C 0.36335 0.17047 0.86111
 C2923 C 0.34893 0.19118 0.86728
 N2924 N 0.35982 0.21178 0.87691
 C2925 C 0.39478 0.23693 0.89135
 N2926 N 0.37842 0.25440 0.89941
 C2927 C 0.38578 0.27679 0.90839
 C2928 C 0.41110 0.28288 0.90950
 C2929 C 0.42834 0.26516 0.90140
 C2930 C 0.42034 0.24229 0.89227
 H2931 H 0.40057 0.15561 0.86124
 H2932 H 0.32910 0.19110 0.86410
 H2933 H 0.37179 0.28999 0.91408
 H2934 H 0.44808 0.26896 0.90214
 H2935 H 0.41946 0.19260 0.87911
 H2936 H 0.43419 0.22943 0.88573
 C2937 C 1.12639 0.71960 1.12398
 C2938 C 1.15177 0.71587 1.12906
 C2939 C 1.15976 0.69304 1.13822
 C2940 C 1.14266 0.67397 1.14267
 C2941 C 1.11746 0.67855 1.13815
 N2942 N 1.11010 0.70086 1.12893
 C2943 C 1.11660 0.74310 1.11335
 N2944 N 1.09153 0.74640 1.11233
 C2945 C 1.08092 0.76711 1.10258
 C2946 C 1.09579 0.78620 1.09289
 C2947 C 1.12166 0.78322 1.09371
 C2948 C 1.13211 0.76178 1.10373
 H2949 H 1.17932 0.69019 1.14192
 H2950 H 1.10377 0.66423 1.14146
 H2951 H 1.06088 0.76845 1.10208
 H2952 H 1.13391 0.79758 1.08681
 H2953 H 1.16551 0.73017 1.12626
 H2954 H 1.15206 0.76011 1.10349
 C2955 C 1.11659 0.21382 0.61714
 C2956 C 1.10260 0.19208 0.62099
 C2957 C 1.11387 0.17139 0.63178
 C2958 C 1.13897 0.17219 0.63856
 C2959 C 1.15250 0.19384 0.63363
 N2960 N 1.14112 0.21383 0.62334
 C2961 C 1.10578 0.23694 0.60680
 N2962 N 1.12156 0.25511 0.59905
 C2963 C 1.11347 0.27727 0.59020
 C2964 C 1.08795 0.28241 0.58895
 C2965 C 1.07128 0.26400 0.59683
 C2966 C 1.08006 0.24133 0.60580
 H2967 H 1.10304 0.15474 0.63493
 H2968 H 1.17195 0.19507 0.63856
 H2969 H 1.12703 0.29105 0.58472
 H2970 H 1.05144 0.26712 0.59606
 H2971 H 1.08330 0.19079 0.61572
 H2972 H 1.06671 0.22785 0.61230
 C2973 C 0.62605 0.71951 0.62269
 C2974 C 0.65141 0.71582 0.62787
 C2975 C 0.65938 0.69303 0.63714
 C2976 C 0.64227 0.67397 0.64157
 C2977 C 0.61709 0.67850 0.63692
 N2978 N 0.60975 0.70077 0.62762
 C2979 C 0.61626 0.74297 0.61201
 N2980 N 0.59119 0.74620 0.61088
 C2981 C 0.58057 0.76689 0.60110
 C2982 C 0.59544 0.78602 0.59152
 C2983 C 0.62131 0.78311 0.59243
 C2984 C 0.63176 0.76169 0.60246
 H2985 H 0.67892 0.69021 0.64093
 H2986 H 0.60340 0.66417 0.64022
 H2987 H 0.56053 0.76818 0.60053
 H2988 H 0.63354 0.79752 0.58559
 H2989 H 0.66515 0.73013 0.62508
 H2990 H 0.65173 0.76007 0.60231
 C2991 C 0.62756 0.22117 1.12412
 C2992 C 0.65270 0.21858 1.13079
 C2993 C 0.66111 0.19613 1.14052
 C2994 C 0.64461 0.17631 1.14390
 C2995 C 0.61960 0.17974 1.13761
 N2996 N 0.61184 0.20171 1.12796
 C2997 C 0.61741 0.24441 1.11334
 N2998 N 0.59232 0.24752 1.11264
 C2999 C 0.58145 0.26812 1.10293
 C3000 C 0.59609 0.28726 1.09299
 C3001 C 0.62198 0.28441 1.09340
 C3002 C 0.63268 0.26307 1.10335
 H3003 H 0.68044 0.19426 1.14570
 H3004 H 0.60634 0.16484 1.14011
 H3005 H 0.56140 0.26936 1.10271
 H3006 H 0.63406 0.29879 1.08623
 H3007 H 0.66584 0.23362 1.12900
 H3008 H 0.65265 0.26135 1.10277
 C3009 C 1.28428 1.12068 0.87891
 C3010 C 1.30304 1.12831 0.89532
 C3011 C 1.32534 1.13759 0.88594
 C3012 C 1.32904 1.13926 0.86027
 C3013 C 1.30981 1.13156 0.84449
 N3014 N 1.28827 1.12260 0.85405
 C3015 C 1.26037 1.11063 0.88819
 N3016 N 1.25636 1.10850 0.91303
 C3017 C 1.23478 1.09947 0.92249
 C3018 C 1.21556 1.09185 0.90663
 C3019 C 1.21931 1.09385 0.88097
 C3020 C 1.24161 1.10320 0.87171
 H3021 H 1.33983 1.14327 0.89865
 H3022 H 1.31189 1.13282 0.82459
 H3023 H 1.23278 1.09801 0.94239
 H3024 H 1.20485 1.08856 0.86806
 H3025 H 1.30058 1.12708 0.91519
 H3026 H 1.24404 1.10467 0.85185
 C3027 C 1.28577 0.61717 0.38214
 C3028 C 1.30645 0.60264 0.37554
 C3029 C 1.32710 0.61393 0.36470
 C3030 C 1.32742 0.63960 0.36062
 C3031 C 1.30680 0.65356 0.36806
 N3032 N 1.28679 0.64215 0.37833
 C3033 C 1.26260 0.60652 0.39268
 N3034 N 1.24470 0.62247 0.40066
 C3035 C 1.22253 0.61461 0.40975
 C3036 C 1.21708 0.58918 0.41105
 C3037 C 1.23524 0.57234 0.40309
 C3038 C 1.25791 0.58086 0.39388
 H3039 H 1.34286 0.60266 0.35943
 H3040 H 1.30634 0.67341 0.36514
 H3041 H 1.20897 0.62830 0.41534
 H3042 H 1.23193 0.55254 0.40400
 H3043 H 1.30701 0.58286 0.37856
 H3044 H 1.27115 0.56728 0.38750
 C3045 C 0.78402 1.12005 0.37911
 C3046 C 0.80710 1.11526 0.39026
 C3047 C 0.82853 1.12595 0.38035
 C3048 C 0.82695 1.14086 0.35918
 C3049 C 0.80366 1.14506 0.34845
 N3050 N 0.78296 1.13492 0.35872
 C3051 C 0.76077 1.10988 0.38939
 N3052 N 0.74002 1.12429 0.38945
 C3053 C 0.71798 1.11604 0.39856
 C3054 C 0.71587 1.09181 0.40777
 C3055 C 0.73687 1.07649 0.40755
 C3056 C 0.75945 1.08555 0.39861
 H3057 H 0.84635 1.12258 0.38902
 H3058 H 0.80197 1.15670 0.33219
 H3059 H 0.70202 1.12823 0.39827
 H3060 H 0.73578 1.05764 0.41445
 H3061 H 0.80847 1.10386 0.40674
 H3062 H 0.77555 1.07353 0.39842
 C3063 C 0.78436 0.61844 0.87930
 C3064 C 0.80563 0.60396 0.87480
 C3065 C 0.82676 0.61504 0.86471
 C3066 C 0.82696 0.64046 0.85948
 C3067 C 0.80554 0.65434 0.86428
 N3068 N 0.78510 0.64316 0.87395
 C3069 C 0.76111 0.60798 0.88981
 N3070 N 0.74343 0.62398 0.89815
 C3071 C 0.72138 0.61615 0.90757
 C3072 C 0.71588 0.59072 0.90887
 C3073 C 0.73381 0.57386 0.90044
 C3074 C 0.75632 0.58235 0.89083
 H3075 H 0.84312 0.60391 0.86124
 H3076 H 0.80507 0.67400 0.86020
 H3077 H 0.70797 0.62985 0.91348
 H3078 H 0.73045 0.55407 0.90126
 H3079 H 0.80636 0.58444 0.87922
 H3080 H 0.76936 0.56881 0.88397
 C3081 C 1.28663 0.88082 1.11606
 C3082 C 1.30764 0.87533 1.10157
 C3083 C 1.32880 0.86551 1.11286
 C3084 C 1.32927 0.86136 1.13848
 C3085 C 1.30819 0.86751 1.15237
 N3086 N 1.28773 0.87685 1.14098
 C3087 C 1.26316 0.89074 1.10548
 N3088 N 1.24518 0.89845 1.12144
 C3089 C 1.22290 0.90730 1.11363
 C3090 C 1.21745 0.90870 1.08824
 C3091 C 1.23564 0.90086 1.07139
 C3092 C 1.25841 0.89184 1.07986
 H3093 H 1.34489 0.86122 1.10165
 H3094 H 1.30786 0.86448 1.17219
 H3095 H 1.20930 0.91274 1.12733
 H3096 H 1.23232 0.90181 1.05162
 H3097 H 1.30812 0.87858 1.08185
 H3098 H 1.27170 0.88558 1.06629
 C3099 C 1.27764 0.37040 0.62416
 C3100 C 1.28107 0.34491 0.62883
 C3101 C 1.30351 0.33661 0.63870
 C3102 C 1.32251 0.35351 0.64412
 C3103 C 1.31840 0.37874 0.63945
 N3104 N 1.29643 0.38642 0.62971
 C3105 C 1.25422 0.38070 0.61384
 N3106 N 1.25132 0.40582 0.61324
 C3107 C 1.23060 0.41691 0.60405
 C3108 C 1.21109 0.40249 0.59455
 C3109 C 1.21362 0.37659 0.59502
 C3110 C 1.23507 0.36565 0.60444
 H3111 H 1.30590 0.31705 0.64261
 H3112 H 1.33266 0.39228 0.64357
 H3113 H 1.22958 0.43696 0.60382
 H3114 H 1.19890 0.36469 0.58825
 H3115 H 1.26673 0.33134 0.62546
 H3116 H 1.23636 0.34569 0.60398
 C3117 C 0.78567 0.88011 0.61650
 C3118 C 0.80700 0.87492 0.60236
 C3119 C 0.82789 0.86482 0.61389
 C3120 C 0.82777 0.86007 0.63942
 C3121 C 0.80645 0.86609 0.65300
 N3122 N 0.78626 0.87569 0.64136
 C3123 C 0.76239 0.89009 0.60560
 N3124 N 0.74417 0.89772 0.62132
 C3125 C 0.72198 0.90655 0.61323
 C3126 C 0.71689 0.90803 0.58776
 C3127 C 0.73533 0.90024 0.57114
 C3128 C 0.75800 0.89123 0.57992
 H3129 H 0.84419 0.86068 0.60293
 H3130 H 0.80567 0.86263 0.67273
 H3131 H 0.70819 0.91192 0.62675
 H3132 H 0.73227 0.90123 0.55133
 H3133 H 0.80789 0.87860 0.58272
 H3134 H 0.77150 0.88499 0.56654
 C3135 C 0.78429 0.38172 1.11859
 C3136 C 0.79068 0.38740 1.14307
 C3137 C 0.81176 0.37673 1.15357
 C3138 C 0.82698 0.36082 1.13956
 C3139 C 0.81997 0.35601 1.11486
 N3140 N 0.79893 0.36615 1.10526
 C3141 C 0.76148 0.39176 1.10747
 N3142 N 0.74552 0.37623 1.09561
 C3143 C 0.72355 0.38423 1.08612
 C3144 C 0.71661 0.40933 1.08815
 C3145 C 0.73338 0.42572 1.09965
 C3146 C 0.75561 0.41696 1.10957
 H3147 H 0.81588 0.38077 1.17276
 H3148 H 0.83111 0.34419 1.10315
 H3149 H 0.71127 0.37076 1.07772
 H3150 H 0.72941 0.44534 1.10103
 H3151 H 0.77907 0.39943 1.15418
 H3152 H 0.76819 0.42974 1.11865
 C3153 C 0.72143 1.12293 1.12862
 C3154 C 0.71499 1.12093 1.15381
 C3155 C 0.69258 1.13081 1.16209
 C3156 C 0.67628 1.14239 1.14543
 C3157 C 0.68314 1.14363 1.12038
 N3158 N 0.70518 1.13403 1.11275
 C3159 C 0.74510 1.11304 1.11860
 N3160 N 0.74747 1.11033 1.09360
 C3161 C 0.76849 1.10140 1.08289
 C3162 C 0.78878 1.09439 1.09762
 C3163 C 0.78694 1.09735 1.12335
 C3164 C 0.76530 1.10676 1.13389
 H3165 H 0.68804 1.12954 1.18159
 H3166 H 0.67096 1.15217 1.10690
 H3167 H 0.76917 1.09940 1.06296
 H3168 H 0.80241 1.09272 1.13532
 H3169 H 0.72677 1.11168 1.16711
 H3170 H 0.76485 1.10937 1.15372
 C3171 C 0.71394 0.61796 0.61651
 C3172 C 0.69595 0.62982 0.60175
 C3173 C 0.67484 0.63982 0.61284
 C3174 C 0.67153 0.63830 0.63857
 C3175 C 0.68973 0.62612 0.65264
 N3176 N 0.71018 0.61653 0.64144
 C3177 C 0.73748 0.60796 0.60623
 N3178 N 0.75595 0.60174 0.62233
 C3179 C 0.77832 0.59301 0.61468
 C3180 C 0.78331 0.59026 0.58933
 C3181 C 0.76452 0.59622 0.57235
 C3182 C 0.74158 0.60488 0.58067
 H3183 H 0.66118 0.64907 0.60136
 H3184 H 0.68802 0.62479 0.67256
 H3185 H 0.79236 0.58875 0.62839
 H3186 H 0.76749 0.59391 0.55265
 H3187 H 0.69815 0.63206 0.58200
 H3188 H 0.72742 0.60882 0.56705
 C3189 C 0.22055 1.12563 0.62633
 C3190 C 0.21781 1.13387 0.65092
 C3191 C 0.19484 1.14265 0.65893
 C3192 C 0.17466 1.14343 0.64257
 C3193 C 0.17830 1.13601 0.61799
 N3194 N 0.20079 1.12729 0.61062
 C3195 C 0.24420 1.11521 0.61684
 N3196 N 0.24763 1.11374 0.59188
 C3197 C 0.26854 1.10406 0.58165
 C3198 C 0.28765 1.09490 0.59682
 C3199 C 0.28445 1.09604 0.62259
 C3200 C 0.26281 1.10602 0.63266
 H3201 H 0.19269 1.14879 0.67790
 H3202 H 0.16311 1.13665 0.60487
 H3203 H 0.27005 1.10324 0.56167
 H3204 H 0.29877 1.08941 0.63503
 H3205 H 0.23311 1.13383 0.66388
 H3206 H 0.26076 1.10604 0.65256
 C3207 C 0.21431 0.61774 1.11750
 C3208 C 0.19646 0.62982 1.10274
 C3209 C 0.17540 0.63995 1.11381
 C3210 C 0.17201 0.63834 1.13952
 C3211 C 0.19011 0.62600 1.15359
 N3212 N 0.21050 0.61629 1.14241
 C3213 C 0.23775 0.60751 1.10724
 N3214 N 0.25613 0.60101 1.12335
 C3215 C 0.27844 0.59212 1.11570
 C3216 C 0.28347 0.58952 1.09035
 C3217 C 0.26476 0.59570 1.07336
 C3218 C 0.24188 0.60451 1.08167
 H3219 H 0.16182 0.64931 1.10234
 H3220 H 0.18834 0.62460 1.17351
 H3221 H 0.29241 0.58767 1.12942
 H3222 H 0.26777 0.59351 1.05365
 H3223 H 0.19871 0.63210 1.08300
 H3224 H 0.22779 0.60866 1.06804
 C3225 C 0.72028 0.87642 0.87365
 C3226 C 0.71789 0.86862 0.84888
 C3227 C 0.69514 0.85950 0.84045
 C3228 C 0.67487 0.85796 0.85659
 C3229 C 0.67812 0.86518 0.88130
 N3230 N 0.70038 0.87419 0.88907
 C3231 C 0.74372 0.88687 0.88373
 N3232 N 0.74662 0.88822 0.90877
 C3233 C 0.76729 0.89793 0.91955
 C3234 C 0.78667 0.90727 0.90486
 C3235 C 0.78406 0.90613 0.87901
 C3236 C 0.76268 0.89613 0.86839
 H3237 H 0.69333 0.85349 0.82140
 H3238 H 0.66286 0.86397 0.89427
 H3239 H 0.76837 0.89869 0.93955
 H3240 H 0.79864 0.91285 0.86693
 H3241 H 0.73329 0.86912 0.83608
 H3242 H 0.76109 0.89616 0.84844
 C3243 C 0.71182 0.38374 0.38468
 C3244 C 0.69180 0.37645 0.39983
 C3245 C 0.67051 0.36635 0.38905
 C3246 C 0.66893 0.36355 0.36330
 C3247 C 0.68903 0.37136 0.34878
 N3248 N 0.70964 0.38101 0.35967
 C3249 C 0.73546 0.39401 0.39465
 N3250 N 0.75317 0.40147 0.37823
 C3251 C 0.77562 0.41045 0.38546
 C3252 C 0.78156 0.41218 0.41071
 C3253 C 0.76357 0.40485 0.42803
 C3254 C 0.74061 0.39577 0.42016
 H3255 H 0.65517 0.36078 0.40077
 H3256 H 0.68848 0.36945 0.32883
 H3257 H 0.78901 0.41563 0.37143
 H3258 H 0.76724 0.40617 0.44771
 H3259 H 0.69218 0.37840 0.41971
 H3260 H 0.72749 0.39006 0.43414
 C3261 C 0.21273 0.88285 0.38330
 C3262 C 0.19161 0.87741 0.39768
 C3263 C 0.17095 0.86642 0.38653
 C3264 C 0.17108 0.86106 0.36114
 C3265 C 0.19216 0.86738 0.34729
 N3266 N 0.21216 0.87784 0.35856
 C3267 C 0.23582 0.89359 0.39389
 N3268 N 0.25365 0.90181 0.37798
 C3269 C 0.27578 0.91103 0.38585
 C3270 C 0.28124 0.91219 0.41125
 C3271 C 0.26313 0.90396 0.42805
 C3272 C 0.24051 0.89461 0.41951
 H3273 H 0.15480 0.86211 0.39767
 H3274 H 0.19294 0.86351 0.32764
 H3275 H 0.28931 0.91681 0.37220
 H3276 H 0.26646 0.90471 0.44782
 H3277 H 0.19070 0.88158 0.41721
 H3278 H 0.22734 0.88788 0.43301
 C3279 C 0.22013 0.37690 0.87412
 C3280 C 0.21625 0.37211 0.84876
 C3281 C 0.19332 0.36315 0.84076
 C3282 C 0.17430 0.35862 0.85785
 C3283 C 0.17900 0.36294 0.88301
 N3284 N 0.20140 0.37194 0.89038
 C3285 C 0.24380 0.38715 0.88395
 N3286 N 0.24736 0.38749 0.90895
 C3287 C 0.26825 0.39687 0.91959
 C3288 C 0.28723 0.40688 0.90482
 C3289 C 0.28399 0.40674 0.87902
 C3290 C 0.26238 0.39709 0.86854
 H3291 H 0.19040 0.35958 0.82124
 H3292 H 0.16471 0.35956 0.89669
 H3293 H 0.26981 0.39685 0.93958
 H3294 H 0.29826 0.41393 0.86685
 H3295 H 0.23056 0.37494 0.83506
 H3296 H 0.26046 0.39788 0.84865
   
