data_POSCAR
  _audit_creation_date              2014-09-24
  _audit_creation_method            'ToBaCCo'
  _symmetry_space_group_name_H-M    'P1'
  _symmetry_Int_Tables_number       1
  _symmetry_cell_setting            triclinic
  loop_
  _symmetry_equiv_pos_as_xyz
 x,y,z
_cell_length_a 69.2374
_cell_length_b 69.4697
_cell_length_c 73.5582
_cell_angle_alpha 89.262500
_cell_angle_beta 91.126600
_cell_angle_gamma 91.157300
loop_
  _atom_site_label
  _atom_site_type_symbol
  _atom_site_fract_x
  _atom_site_fract_y
  _atom_site_fract_z
C1 C 0.40857 0.01808 0.27347
 C2 C 0.39610 0.03599 0.27028
 C3 C 0.38464 0.03529 0.25496
 C4 C 0.38668 0.01661 0.24413
 C5 C 0.39415 0.00117 0.27313
 C6 C 0.38278 0.00024 0.25796
 C7 C 0.41978 0.01657 0.25577
 C8 C 0.40851 0.01595 0.24036
 H9 H 0.39673 0.04852 0.27879
 H10 H 0.37726 0.01590 0.23178
 H11 H 0.39312 -0.00937 0.28408
 H12 H 0.43541 0.01670 0.25558
 C13 C 0.09084 -0.00654 0.76850
 C14 C 0.10133 -0.02578 0.76650
 C15 C 0.11267 -0.02664 0.75154
 C16 C 0.11253 -0.00792 0.73995
 C17 C 0.10732 0.00849 0.76835
 C18 C 0.11855 0.00800 0.75348
 C19 C 0.08046 -0.00379 0.75137
 C20 C 0.09208 -0.00477 0.73546
 H21 H 0.10124 -0.03719 0.77658
 H22 H 0.12223 -0.00800 0.72817
 H23 H 0.10982 0.01880 0.77913
 H24 H 0.06483 -0.00352 0.75080
 C25 C 0.59229 0.49725 0.27006
 C26 C 0.60528 0.47964 0.26925
 C27 C 0.61686 0.47924 0.25448
 C28 C 0.61459 0.49693 0.24178
 C29 C 0.60606 0.51464 0.26856
 C30 C 0.61773 0.51458 0.25398
 C31 C 0.58119 0.49699 0.25171
 C32 C 0.59279 0.49683 0.23691
 H33 H 0.60468 0.46812 0.27928
 H34 H 0.62406 0.49689 0.22978
 H35 H 0.60636 0.52626 0.27826
 H36 H 0.56565 0.49669 0.25029
 C37 C 0.91073 0.51780 0.77382
 C38 C 0.89580 0.53399 0.77196
 C39 C 0.88345 0.53226 0.75730
 C40 C 0.88706 0.51430 0.74588
 C41 C 0.89860 0.49920 0.77383
 C42 C 0.88632 0.49718 0.75938
 C43 C 0.92076 0.51816 0.75540
 C44 C 0.90850 0.51648 0.74078
 H45 H 0.89557 0.54634 0.78069
 H46 H 0.87724 0.51250 0.73389
 H47 H 0.89957 0.48849 0.78464
 H48 H 0.93606 0.52126 0.75404
 C49 C 0.27730 0.36856 0.99058
 C50 C 0.27445 0.35664 1.00795
 C51 C 0.25781 0.34595 1.00833
 C52 C 0.24531 0.34793 0.99092
 C53 C 0.27537 0.35401 0.97512
 C54 C 0.25882 0.34302 0.97522
 C55 C 0.25882 0.38046 0.98855
 C56 C 0.24197 0.36982 0.98902
 H57 H 0.28475 0.35701 1.01923
 H58 H 0.23192 0.33897 0.99142
 H59 H 0.28585 0.35330 0.96444
 H60 H 0.25895 0.39581 0.98610
 C61 C 0.76573 0.13253 1.00263
 C62 C 0.76581 0.14735 0.98716
 C63 C 0.75068 0.15947 0.98698
 C64 C 0.73634 0.15539 1.00244
 C65 C 0.76429 0.14444 1.01997
 C66 C 0.74900 0.15656 1.01997
 C67 C 0.74708 0.12261 1.00120
 C68 C 0.73058 0.13495 1.00096
 H69 H 0.77706 0.14811 0.97712
 H70 H 0.72456 0.16589 1.00207
 H71 H 0.77384 0.14247 1.03165
 H72 H 0.74578 0.10736 1.00400
 C73 C 0.27062 0.63283 0.50379
 C74 C 0.26945 0.64465 0.48623
 C75 C 0.25390 0.65614 0.48471
 C76 C 0.24049 0.65476 0.50114
 C77 C 0.26941 0.64754 0.51909
 C78 C 0.25367 0.65906 0.51788
 C79 C 0.25117 0.62183 0.50474
 C80 C 0.23516 0.63304 0.50308
 H81 H 0.28040 0.64419 0.47593
 H82 H 0.22815 0.66455 0.49959
 H83 H 0.27889 0.64728 0.53096
 H84 H 0.25047 0.60667 0.50809
 C85 C 0.76957 0.87026 0.49012
 C86 C 0.76867 0.85481 0.50509
 C87 C 0.75258 0.84327 0.50457
 C88 C 0.73853 0.84828 0.48884
 C89 C 0.76677 0.85924 0.47227
 C90 C 0.75068 0.84764 0.47161
 C91 C 0.75059 0.88126 0.49178
 C92 C 0.73429 0.86983 0.49118
 H93 H 0.77949 0.85400 0.51589
 H94 H 0.72550 0.83876 0.48820
 H95 H 0.77662 0.86064 0.46105
 H96 H 0.74987 0.89678 0.49173
 C97 C -0.01270 0.27994 0.39927
 C98 C 0.00490 0.28346 0.38704
 C99 C 0.00780 0.26896 0.37525
 C100 C -0.00744 0.25268 0.37616
 C101 C -0.02869 0.27714 0.38641
 C102 C -0.02597 0.26217 0.37345
 C103 C -0.00940 0.26019 0.40812
 C104 C -0.00655 0.24596 0.39604
 H105 H 0.01442 0.29598 0.38770
 H106 H -0.00428 0.24113 0.36654
 H107 H -0.04126 0.28607 0.38645
 H108 H -0.00835 0.25794 0.42271
 C109 C -0.00061 0.75942 0.09432
 C110 C -0.01522 0.76423 0.10906
 C111 C -0.01441 0.75232 0.12383
 C112 C 0.00093 0.73690 0.12286
 C113 C 0.01887 0.76011 0.10465
 C114 C 0.01970 0.74848 0.11966
 C115 C -0.00426 0.73817 0.09016
 C116 C -0.00355 0.72631 0.10503
 H117 H -0.02454 0.77652 0.10861
 H118 H 0.00128 0.72757 0.13520
 H119 H 0.03057 0.76985 0.10091
 H120 H -0.00664 0.73302 0.07645
 C121 C 0.51149 0.25946 0.60555
 C122 C 0.49511 0.26384 0.61858
 C123 C 0.49224 0.25010 0.63161
 C124 C 0.50575 0.23302 0.63041
 C125 C 0.52906 0.25572 0.61792
 C126 C 0.52601 0.24222 0.63110
 C127 C 0.50582 0.23964 0.59785
 C128 C 0.50279 0.22585 0.61089
 H129 H 0.48625 0.27647 0.61725
 H130 H 0.50332 0.22191 0.64114
 H131 H 0.54248 0.26392 0.61685
 H132 H 0.50375 0.23668 0.58357
 C133 C 0.48984 0.77422 0.89639
 C134 C 0.50526 0.78101 0.88285
 C135 C 0.50975 0.76756 0.87041
 C136 C 0.49796 0.74866 0.87235
 C137 C 0.47258 0.76839 0.88405
 C138 C 0.47687 0.75513 0.87131
 C139 C 0.49694 0.75641 0.90411
 C140 C 0.50151 0.74220 0.89106
 H141 H 0.51187 0.79527 0.88302
 H142 H 0.50158 0.73814 0.86186
 H143 H 0.45880 0.77541 0.88405
 H144 H 0.49727 0.75371 0.91865
 C145 C -0.23233 0.66373 0.97531
 C146 C -0.21545 0.64969 0.97665
 C147 C -0.21544 0.63808 0.99180
 C148 C -0.23267 0.64151 1.00423
 C149 C -0.25048 0.65108 0.97702
 C150 C -0.25079 0.63945 0.99191
 C151 C -0.23090 0.67478 0.99328
 C152 C -0.23104 0.66321 1.00842
 H153 H -0.20421 0.64950 0.96664
 H154 H -0.23319 0.63219 1.01658
 H155 H -0.26221 0.65123 0.96703
 H156 H -0.22787 0.69006 0.99414
 C157 C -0.25251 0.33889 0.48311
 C158 C -0.27126 0.35005 0.48553
 C159 C -0.27088 0.36204 0.50013
 C160 C -0.25167 0.36144 0.51116
 C161 C -0.23659 0.35441 0.48257
 C162 C -0.23604 0.36626 0.49708
 C163 C -0.24966 0.32883 0.50038
 C164 C -0.24934 0.34104 0.51601
 H165 H -0.28359 0.34870 0.47633
 H166 H -0.25084 0.37146 0.52274
 H167 H -0.22652 0.35584 0.47152
 H168 H -0.25194 0.31345 0.50172
 C169 C 0.24356 -0.16356 -0.02108
 C170 C 0.22636 -0.14978 -0.02096
 C171 C 0.22677 -0.13739 -0.00669
 C172 C 0.24449 -0.13982 0.00613
 C173 C 0.26131 -0.15008 -0.02057
 C174 C 0.26201 -0.13777 -0.00642
 C175 C 0.24337 -0.17297 -0.00335
 C176 C 0.24396 -0.16017 0.01190
 H177 H 0.21442 -0.15002 -0.03061
 H178 H 0.24533 -0.12906 0.01708
 H179 H 0.27235 -0.15008 -0.03082
 H180 H 0.24106 -0.18836 -0.00210
 C181 C 0.26400 1.16314 0.47524
 C182 C 0.28048 1.14861 0.47774
 C183 C 0.27872 1.13670 0.49257
 C184 C 0.26034 1.14012 0.50341
 C185 C 0.24565 1.15053 0.47485
 C186 C 0.24350 1.13866 0.48947
 C187 C 0.26357 1.17357 0.49348
 C188 C 0.26188 1.16163 0.50826
 H189 H 0.29264 1.14769 0.46891
 H190 H 0.25844 1.13048 0.51542
 H191 H 0.23519 1.15088 0.46369
 H192 H 0.26613 1.18894 0.49464
 C193 C 0.11738 0.52690 0.25704
 C194 C 0.10271 0.52473 0.24135
 C195 C 0.09083 0.50894 0.24247
 C196 C 0.09484 0.49637 0.25947
 C197 C 0.10529 0.52596 0.27425
 C198 C 0.09333 0.51019 0.27562
 C199 C 0.12821 0.50773 0.25744
 C200 C 0.11652 0.49165 0.25846
 H201 H 0.10264 0.53447 0.22973
 H202 H 0.08498 0.48366 0.26039
 H203 H 0.10671 0.53669 0.28477
 H204 H 0.14373 0.50677 0.25771
 C205 C -0.11366 1.02006 0.24360
 C206 C -0.09926 1.01974 0.25953
 C207 C -0.08787 1.00407 0.26032
 C208 C -0.09220 0.98968 0.24487
 C209 C -0.10126 1.01772 0.22665
 C210 C -0.08996 1.00180 0.22722
 C211 C -0.12450 1.00196 0.24487
 C212 C -0.11298 0.98490 0.24570
 H213 H -0.09834 1.03108 0.26952
 H214 H -0.08218 0.97753 0.24566
 H215 H -0.10276 1.02657 0.21452
 H216 H -0.13996 1.00169 0.24267
 C217 C 0.38313 0.51269 -0.25095
 C218 C 0.39783 0.51218 -0.23524
 C219 C 0.40988 0.49699 -0.23529
 C220 C 0.40586 0.48311 -0.25114
 C221 C 0.39524 0.51129 -0.26814
 C222 C 0.40727 0.49598 -0.26828
 C223 C 0.37241 0.49310 -0.25001
 C224 C 0.38419 0.47755 -0.25028
 H225 H 0.39867 0.52322 -0.22497
 H226 H 0.41571 0.47071 -0.25116
 H227 H 0.39352 0.52099 -0.27967
 H228 H 0.35686 0.49155 -0.25055
 C229 C 0.62114 0.02231 -0.24336
 C230 C 0.60685 0.02041 -0.25937
 C231 C 0.59434 0.00506 -0.25838
 C232 C 0.59774 -0.00761 -0.24125
 C233 C 0.60855 0.02181 -0.22643
 C234 C 0.59622 0.00633 -0.22525
 C235 C 0.63144 0.00287 -0.24265
 C236 C 0.61932 -0.01285 -0.24149
 H237 H 0.60725 0.03029 -0.27086
 H238 H 0.58767 -0.02013 -0.24014
 H239 H 0.60993 0.03255 -0.21592
 H240 H 0.64688 0.00140 -0.24320
 C241 C 0.02760 0.23411 0.85908
 C242 C 0.03332 0.25069 0.87186
 C243 C 0.01888 0.25618 0.88281
 C244 C -0.00002 0.24441 0.88006
 C245 C 0.02009 0.21800 0.87156
 C246 C 0.00563 0.22329 0.88256
 C247 C 0.01068 0.24122 0.84924
 C248 C -0.00473 0.24673 0.86072
 H249 H 0.04703 0.25840 0.87116
 H250 H -0.01146 0.24889 0.88930
 H251 H 0.02607 0.20371 0.87184
 H252 H 0.00989 0.24263 0.83462
 C253 C 0.50606 0.25070 0.15218
 C254 C 0.50722 0.23515 0.13748
 C255 C 0.49438 0.23750 0.12344
 C256 C 0.48170 0.25509 0.12510
 C257 C 0.50876 0.26965 0.14149
 C258 C 0.49613 0.27198 0.12730
 C259 C 0.48487 0.25035 0.15774
 C260 C 0.47207 0.25250 0.14360
 H261 H 0.51717 0.22340 0.13772
 H262 H 0.47156 0.25666 0.11338
 H263 H 0.52009 0.28007 0.14477
 H264 H 0.48053 0.24836 0.17171
 C265 C 0.00732 0.75589 0.64568
 C266 C 0.01247 0.74361 0.62924
 C267 C -0.00151 0.74296 0.61601
 C268 C -0.01919 0.75493 0.62008
 C269 C 0.00299 0.77564 0.63708
 C270 C -0.01067 0.77511 0.62352
 C271 C -0.01218 0.74789 0.65191
 C272 C -0.02605 0.74737 0.63858
 H273 H 0.02594 0.73610 0.62815
 H274 H -0.03041 0.75447 0.60910
 H275 H 0.01174 0.78842 0.63965
 H276 H -0.01483 0.74351 0.66584
 C277 C 0.52682 0.73849 0.35493
 C278 C 0.53007 0.75660 0.36642
 C279 C 0.51595 0.75968 0.37858
 C280 C 0.49972 0.74432 0.37815
 C281 C 0.52394 0.72209 0.36872
 C282 C 0.50971 0.72498 0.38078
 C283 C 0.50671 0.74127 0.34607
 C284 C 0.49262 0.74435 0.35830
 H285 H 0.54227 0.76638 0.36460
 H286 H 0.48795 0.74661 0.38785
 H287 H 0.53230 0.70908 0.36859
 H288 H 0.50384 0.74218 0.33161
 Zr289 Zr 0.01391 -0.01977 1.02051
 O290 O 0.03210 -0.01371 1.04330
 O291 O 0.01199 -0.05005 1.02161
 O292 O 0.00062 -0.02644 1.04561
 O293 O 0.05073 -0.01635 0.98937
 O294 O -0.02936 -0.01369 1.04235
 O295 O 0.04256 -0.02896 1.01700
 O296 O -0.00772 -0.05764 0.99745
 O297 O -0.01495 -0.02551 1.01288
 O298 O 0.01390 -0.02668 0.99293
 O299 O -0.00085 0.00574 1.02574
 O300 O 0.02711 0.00412 1.00720
 Zr301 Zr -0.01787 0.01701 0.97573
 Zr302 Zr -0.02934 0.00027 1.01688
 Zr303 Zr 0.02562 -0.00275 0.97954
 Zr304 Zr -0.01479 -0.03129 0.98509
 O305 O 0.04948 0.01657 0.97724
 O306 O -0.04115 -0.04533 0.99206
 O307 O -0.00280 -0.00824 0.97016
 O308 O -0.03077 -0.00662 0.98926
 O309 O -0.01795 0.02438 1.00323
 O310 O 0.01093 0.02275 0.98343
 C311 C 0.00298 -0.06221 1.01125
 C312 C 0.05454 -0.02614 1.00396
 C313 C -0.01631 -0.02272 1.05154
 O314 O -0.05433 -0.01770 1.01800
 O315 O -0.05336 0.01629 1.00826
 O316 O -0.04584 0.02765 0.98002
 C317 C -0.05723 0.02598 0.99365
 O318 O 0.03074 0.02961 1.03337
 Zr319 Zr 0.01087 0.02900 1.01098
 O320 O -0.01701 0.04708 0.97487
 O321 O -0.03603 0.02004 1.03737
 O322 O -0.00178 0.04497 1.03189
 O323 O 0.03617 0.04465 1.00350
 O324 O 0.00163 0.05544 0.99959
 C325 C -0.00928 0.05949 0.98574
 O326 O -0.03701 0.01086 0.95365
 O327 O 0.03375 -0.02346 0.96042
 O328 O -0.00528 0.02209 0.94997
 O329 O 0.02449 0.00874 0.95309
 O330 O -0.00226 -0.04876 0.96522
 O331 O -0.03213 -0.03162 0.96092
 C332 C 0.01133 0.01749 0.94381
 H333 H 0.02154 -0.03817 0.99031
 H334 H -0.04428 -0.00880 0.98498
 H335 H 0.01678 0.03351 0.97634
 H336 H -0.00018 0.00886 1.03883
 H337 H -0.04101 -0.05845 0.98695
 H338 H -0.06250 -0.01257 1.02766
 H339 H -0.04888 0.01616 1.04205
 H340 H 0.00482 0.05776 1.03223
 H341 H -0.00970 -0.06110 0.96486
 H342 H 0.04656 -0.01932 0.95581
 H343 H 0.05774 0.01150 0.96762
 H344 H 0.03537 0.05767 1.00875
 H345 H -0.03760 -0.04474 0.95906
 H346 H -0.04036 0.02333 0.94778
 H347 H 0.03555 -0.02622 1.04904
 H348 H 0.03345 0.04313 1.03687
 Zr349 Zr 0.51876 0.48293 0.52721
 O350 O 0.53587 0.49143 0.55002
 O351 O 0.51885 0.45287 0.52961
 O352 O 0.50497 0.47631 0.55205
 O353 O 0.55613 0.48536 0.49665
 O354 O 0.47467 0.48795 0.54751
 O355 O 0.54771 0.47447 0.52482
 O356 O 0.49881 0.44278 0.50646
 O357 O 0.49027 0.47567 0.51948
 O358 O 0.51952 0.47423 0.50014
 O359 O 0.50297 0.50810 0.53084
 O360 O 0.53152 0.50629 0.51282
 Zr361 Zr 0.48665 0.51571 0.48003
 Zr362 Zr 0.47489 0.50113 0.52173
 Zr363 Zr 0.53074 0.49760 0.48563
 Zr364 Zr 0.49113 0.46806 0.49219
 O365 O 0.55397 0.51755 0.48252
 O366 O 0.46503 0.45380 0.49958
 O367 O 0.50265 0.49059 0.47620
 O368 O 0.47425 0.49249 0.49458
 O369 O 0.48578 0.52475 0.50702
 O370 O 0.51513 0.52278 0.48786
 C371 C 0.51017 0.43972 0.52019
 C372 C 0.55985 0.47662 0.51185
 C373 C 0.48763 0.47944 0.55725
 O374 O 0.45014 0.48283 0.52314
 O375 O 0.45067 0.51610 0.51204
 O376 O 0.45838 0.52609 0.48341
 C377 C 0.44683 0.52495 0.49697
 O378 O 0.53352 0.53334 0.53775
 Zr379 Zr 0.51430 0.53074 0.51499
 O380 O 0.48693 0.54570 0.47727
 O381 O 0.46736 0.52158 0.54132
 O382 O 0.50050 0.54762 0.53454
 O383 O 0.53935 0.54667 0.50730
 O384 O 0.50477 0.55610 0.50179
 C385 C 0.49426 0.55900 0.48742
 O386 O 0.46797 0.50757 0.45819
 O387 O 0.54003 0.47602 0.46790
 O388 O 0.49950 0.51954 0.45425
 O389 O 0.52957 0.50719 0.45853
 O390 O 0.50462 0.44965 0.47370
 O391 O 0.47431 0.46548 0.46782
 C392 C 0.51631 0.51495 0.44857
 H393 H 0.52762 0.46289 0.49824
 H394 H 0.46089 0.48968 0.49020
 H395 H 0.52084 0.53323 0.48027
 H396 H 0.50321 0.51188 0.54378
 H397 H 0.46571 0.44032 0.49542
 H398 H 0.44175 0.48816 0.53253
 H399 H 0.45453 0.51756 0.54596
 H400 H 0.50667 0.56062 0.53427
 H401 H 0.49768 0.43704 0.47413
 H402 H 0.55277 0.48033 0.46326
 H403 H 0.56259 0.51211 0.47338
 H404 H 0.53807 0.55993 0.51189
 H405 H 0.46931 0.45208 0.46673
 H406 H 0.46433 0.51955 0.45157
 H407 H 0.53985 0.47952 0.55653
 H408 H 0.53557 0.54713 0.54063
 Zr409 Zr 0.47689 0.99598 0.53607
 O410 O 0.45599 0.98331 0.55337
 O411 O 0.48114 1.02318 0.54762
 O412 O 0.48836 0.99208 0.56274
 O413 O 0.44408 1.00952 0.50248
 O414 O 0.51640 0.97629 0.55833
 O415 O 0.44996 1.00983 0.53311
 O416 O 0.50529 1.03654 0.53071
 O417 O 0.50682 0.99998 0.53377
 O418 O 0.48116 1.01341 0.51306
 O419 O 0.48813 0.96818 0.53388
 O420 O 0.46322 0.98117 0.51428
 Zr421 Zr 0.51003 0.97500 0.48537
 Zr422 Zr 0.51782 0.97247 0.53014
 Zr423 Zr 0.46908 0.99829 0.49127
 Zr424 Zr 0.51087 1.01654 0.51030
 O425 O 0.44429 0.98494 0.47928
 O426 O 0.53751 1.02280 0.52390
 O427 O 0.49877 1.00287 0.48735
 O428 O 0.52340 0.98967 0.50720
 O429 O 0.50587 0.95721 0.50821
 O430 O 0.48017 0.97098 0.48779
 C431 C 0.49309 1.03694 0.54368
 C432 C 0.43937 1.01340 0.51886
 C433 C 0.50407 0.98421 0.56859
 O434 O 0.54443 0.98459 0.53950
 O435 O 0.54072 0.95732 0.51905
 O436 O 0.53614 0.95982 0.48834
 C437 C 0.54568 0.95412 0.50259
 O438 O 0.45360 0.94782 0.52964
 Zr439 Zr 0.47607 0.95428 0.51112
 O440 O 0.50563 0.94789 0.47382
 O441 O 0.51932 0.94528 0.54334
 O442 O 0.48422 0.92942 0.52621
 O443 O 0.45048 0.94631 0.49653
 O444 O 0.48376 0.93313 0.49240
 C445 C 0.49527 0.93329 0.47886
 O446 O 0.53207 0.98691 0.46883
 O447 O 0.46537 1.02645 0.48058
 O448 O 0.50005 0.98137 0.45861
 O449 O 0.47300 0.99876 0.46306
 O450 O 0.50270 1.04253 0.49709
 O451 O 0.53103 1.02424 0.48990
 C452 C 0.48563 0.99136 0.45279
 H453 H 0.47510 1.02614 0.51390
 H454 H 0.53745 0.99142 0.50531
 H455 H 0.47409 0.96474 0.47703
 H456 H 0.48554 0.96041 0.54497
 H457 H 0.53931 1.03699 0.52390
 H458 H 0.55054 0.97482 0.54756
 H459 H 0.53178 0.94509 0.55019
 H460 H 0.47645 0.91839 0.52144
 H461 H 0.51103 1.05302 0.50213
 H462 H 0.45307 1.02628 0.47346
 H463 H 0.43803 0.99480 0.47144
 H464 H 0.44925 0.93208 0.49710
 H465 H 0.53756 1.03658 0.49308
 H466 H 0.53488 0.97725 0.45947
 H467 H 0.45296 0.99305 0.56258
 H468 H 0.44927 0.93424 0.52820
 Zr469 Zr -0.01635 0.49652 1.03303
 O470 O -0.03764 0.48330 1.04957
 O471 O -0.01243 0.52329 1.04534
 O472 O -0.00558 0.49213 1.05986
 O473 O -0.04843 0.51020 0.99899
 O474 O 0.02298 0.47709 1.05585
 O475 O -0.04337 0.51023 1.02972
 O476 O 0.01210 0.53731 1.02937
 O477 O 0.01361 0.50095 1.03142
 O478 O -0.01171 0.51448 1.01045
 O479 O -0.00461 0.46897 1.03073
 O480 O -0.02930 0.48201 1.01075
 Zr481 Zr 0.01831 0.47680 0.98272
 Zr482 Zr 0.02513 0.47371 1.02763
 Zr483 Zr -0.02301 0.49958 0.98816
 Zr484 Zr 0.01803 0.51802 1.00836
 O485 O -0.04734 0.48625 0.97534
 O486 O 0.04450 0.52428 1.02226
 O487 O 0.00671 0.50454 0.98494
 O488 O 0.03096 0.49134 1.00504
 O489 O 0.01384 0.45866 1.00528
 O490 O -0.01157 0.47244 0.98453
 C491 C -0.00029 0.53711 1.04223
 C492 C -0.05364 0.51381 1.01526
 C493 C 0.01018 0.48454 1.06593
 O494 O 0.05131 0.48605 1.03778
 O495 O 0.04869 0.45931 1.01679
 O496 O 0.04458 0.46196 0.98604
 C497 C 0.05404 0.45638 1.00039
 O498 O -0.03889 0.44849 1.02553
 Zr499 Zr -0.01602 0.45538 1.00757
 O500 O 0.01465 0.44964 0.97090
 O501 O 0.02672 0.44628 1.04034
 O502 O -0.00807 0.43035 1.02251
 O503 O -0.04114 0.44731 0.99230
 O504 O -0.00761 0.43464 0.98889
 C505 C 0.00429 0.43491 0.97567
 O506 O 0.04053 0.48925 0.96675
 O507 O -0.02675 0.52790 0.97789
 O508 O 0.00876 0.48342 0.95583
 O509 O -0.01844 0.50064 0.96009
 O510 O 0.00959 0.54419 0.99567
 O511 O 0.03836 0.52651 0.98836
 C512 C -0.00560 0.49346 0.94991
 H513 H -0.01793 0.52712 1.01145
 H514 H 0.04503 0.49333 1.00344
 H515 H -0.01732 0.46629 0.97357
 H516 H -0.00735 0.46096 1.04165
 H517 H 0.04611 0.53848 1.02259
 H518 H 0.05736 0.47625 1.04585
 H519 H 0.03900 0.44616 1.04750
 H520 H -0.01569 0.41935 1.01747
 H521 H 0.01759 0.55468 1.00114
 H522 H -0.03892 0.52777 0.97055
 H523 H -0.05354 0.49622 0.96759
 H524 H -0.04223 0.43306 0.99273
 H525 H 0.04448 0.53899 0.99177
 H526 H 0.04368 0.47976 0.95734
 H527 H -0.04098 0.49279 1.05891
 H528 H -0.04313 0.43493 1.02381
 Zr529 Zr -0.02628 0.49930 0.47866
 O530 O -0.04346 0.50634 0.45548
 O531 O -0.02442 0.46936 0.47660
 O532 O -0.01174 0.49409 0.45410
 O533 O -0.06445 0.49976 0.50832
 O534 O 0.01813 0.50758 0.45922
 O535 O -0.05492 0.48834 0.48104
 O536 O -0.00592 0.46064 0.50124
 O537 O 0.00222 0.49417 0.48723
 O538 O -0.02740 0.49061 0.50595
 O539 O -0.01130 0.52562 0.47471
 O540 O -0.04006 0.52176 0.49218
 Zr541 Zr 0.00361 0.53456 0.52576
 Zr542 Zr 0.01672 0.52074 0.48462
 Zr543 Zr -0.03961 0.51321 0.51961
 Zr544 Zr 0.00094 0.48655 0.51471
 O545 O -0.06338 0.53161 0.52203
 O546 O 0.02752 0.47403 0.50804
 O547 O -0.01160 0.50827 0.52987
 O548 O 0.01704 0.51222 0.51201
 O549 O 0.00480 0.54354 0.49851
 O550 O -0.02486 0.53953 0.51707
 C551 C -0.01603 0.45677 0.48683
 C552 C -0.06750 0.49027 0.49359
 C553 C 0.00568 0.49837 0.44927
 O554 O 0.04218 0.50439 0.48438
 O555 O 0.03990 0.53789 0.49416
 O556 O 0.03177 0.54682 0.52268
 C557 C 0.04334 0.54684 0.50910
 O558 O -0.04276 0.54865 0.46681
 Zr559 Zr -0.02364 0.54745 0.48974
 O560 O 0.00197 0.56447 0.52777
 O561 O 0.02399 0.54155 0.46448
 O562 O -0.01022 0.56504 0.46966
 O563 O -0.04908 0.56187 0.49683
 O564 O -0.01451 0.57347 0.50201
 C565 C -0.00490 0.57724 0.51675
 O566 O 0.02195 0.52787 0.54824
 O567 O -0.04882 0.49081 0.53741
 O568 O -0.01020 0.53756 0.55115
 O569 O -0.03935 0.52241 0.54654
 O570 O -0.01245 0.46755 0.53366
 O571 O 0.01755 0.48510 0.53928
 C572 C -0.02686 0.53136 0.55664
 H573 H -0.03517 0.47869 0.50795
 H574 H 0.03039 0.51039 0.51669
 H575 H -0.03109 0.54954 0.52426
 H576 H -0.01136 0.52939 0.46168
 H577 H 0.02713 0.46052 0.51253
 H578 H 0.05062 0.51033 0.47505
 H579 H 0.03707 0.53851 0.46025
 H580 H -0.01675 0.57761 0.46944
 H581 H -0.00529 0.45533 0.53372
 H582 H -0.06178 0.49421 0.54171
 H583 H -0.07202 0.52557 0.53115
 H584 H -0.04797 0.57522 0.49199
 H585 H 0.02271 0.47198 0.54086
 H586 H 0.02494 0.54011 0.55460
 H587 H -0.04675 0.49410 0.44922
 H588 H -0.04530 0.56227 0.46361
 Zr589 Zr 0.47358 -0.00558 -0.02336
 O590 O 0.45562 0.00157 -0.04598
 O591 O 0.47659 -0.03529 -0.02647
 O592 O 0.48775 -0.00947 -0.04838
 O593 O 0.43675 -0.00832 0.00773
 O594 O 0.51705 0.00539 -0.04363
 O595 O 0.44518 -0.01731 -0.02069
 O596 O 0.49661 -0.04399 -0.00288
 O597 O 0.50262 -0.00949 -0.01586
 O598 O 0.47394 -0.01548 0.00362
 O599 O 0.48714 0.02158 -0.02680
 O600 O 0.45933 0.01553 -0.00844
 Zr601 Zr 0.50353 0.02915 0.02413
 Zr602 Zr 0.51573 0.01782 -0.01792
 Zr603 Zr 0.46128 0.00583 0.01863
 Zr604 Zr 0.50279 -0.01838 0.01132
 O605 O 0.43659 0.02264 0.02260
 O606 O 0.52963 -0.02923 0.00315
 O607 O 0.48986 0.00198 0.02779
 O608 O 0.51750 0.00817 0.00910
 O609 O 0.50325 0.03941 -0.00277
 O610 O 0.47453 0.03287 0.01652
 C611 C 0.48603 -0.04780 -0.01701
 C612 C 0.43317 -0.01674 -0.00747
 C613 C 0.50488 -0.00433 -0.05344
 O614 O 0.54209 0.00307 -0.01940
 O615 O 0.53828 0.03593 -0.00860
 O616 O 0.53076 0.04325 0.02052
 C617 C 0.54179 0.04448 0.00655
 O618 O 0.45492 0.04355 -0.03321
 Zr619 Zr 0.47433 0.04208 -0.01051
 O620 O 0.49969 0.05858 0.02788
 O621 O 0.52111 0.03952 -0.03776
 O622 O 0.48685 0.06140 -0.02970
 O623 O 0.44798 0.05432 -0.00269
 O624 O 0.48146 0.06784 0.00323
 C625 C 0.49093 0.07130 0.01812
 O626 O 0.52324 0.02259 0.04559
 O627 O 0.45414 -0.01776 0.03591
 O628 O 0.49064 0.03026 0.05010
 O629 O 0.46196 0.01412 0.04586
 O630 O 0.49105 -0.03868 0.03006
 O631 O 0.52054 -0.02011 0.03517
 C632 C 0.47439 0.02326 0.05585
 H633 H 0.46676 -0.02780 0.00539
 H634 H 0.53110 0.00688 0.01326
 H635 H 0.46787 0.04207 0.02429
 H636 H 0.48647 0.02583 -0.03969
 H637 H 0.53008 -0.04291 0.00710
 H638 H 0.54985 0.00975 -0.02884
 H639 H 0.53420 0.03737 -0.04245
 H640 H 0.47979 0.07364 -0.02918
 H641 H 0.49870 -0.05055 0.02938
 H642 H 0.44119 -0.01531 0.04081
 H643 H 0.42867 0.01575 0.03179
 H644 H 0.44810 0.06790 -0.00699
 H645 H 0.52627 -0.03304 0.03606
 H646 H 0.52573 0.03465 0.05240
 H647 H 0.45262 -0.01056 -0.05253
 H648 H 0.45206 0.05719 -0.03600
 Zr649 Zr 0.53458 0.51239 -0.03274
 O650 O 0.55446 0.50153 -0.05136
 O651 O 0.53193 0.54093 -0.04200
 O652 O 0.52273 0.51129 -0.05962
 O653 O 0.56854 0.52057 0.00158
 O654 O 0.49308 0.49713 -0.05560
 O655 O 0.56280 0.52451 -0.02884
 O656 O 0.50889 0.55275 -0.02367
 O657 O 0.50505 0.51721 -0.02946
 O658 O 0.53194 0.52701 -0.00823
 O659 O 0.52107 0.48494 -0.03266
 O660 O 0.54714 0.49444 -0.01251
 Zr661 Zr 0.50026 0.48637 0.01663
 Zr662 Zr 0.49188 0.48992 -0.02797
 Zr663 Zr 0.54291 0.50879 0.01198
 Zr664 Zr 0.50259 0.53083 -0.00457
 O665 O 0.56695 0.49334 0.02211
 O666 O 0.47606 0.53964 -0.01658
 O667 O 0.51374 0.51391 0.01689
 O668 O 0.48791 0.50424 -0.00355
 O669 O 0.50274 0.47148 -0.00776
 O670 O 0.52972 0.48164 0.01324
 C671 C 0.52069 0.55430 -0.03694
 C672 C 0.57366 0.52602 -0.01440
 C673 C 0.50611 0.50502 -0.06558
 O674 O 0.46624 0.50423 -0.03568
 O675 O 0.46796 0.47443 -0.01804
 O676 O 0.47304 0.47218 0.01260
 C677 C 0.46294 0.46888 -0.00204
 O678 O 0.55375 0.46276 -0.03094
 Zr679 Zr 0.53220 0.46781 -0.01147
 O680 O 0.50286 0.45793 0.02571
 O681 O 0.48788 0.46465 -0.04349
 O682 O 0.52166 0.44533 -0.02844
 O683 O 0.55740 0.45727 0.00179
 O684 O 0.52322 0.44475 0.00551
 C685 C 0.51207 0.44373 0.01931
 O686 O 0.47934 0.49686 0.03442
 O687 O 0.54859 0.53527 0.02517
 O688 O 0.51125 0.48889 0.04368
 O689 O 0.53977 0.50536 0.04011
 O690 O 0.51338 0.55482 0.01032
 O691 O 0.48371 0.53685 0.01699
 C692 C 0.52681 0.49717 0.05002
 H693 H 0.53899 0.53955 -0.00815
 H694 H 0.47405 0.50623 -0.00127
 H695 H 0.53551 0.47389 0.02324
 H696 H 0.52283 0.47841 -0.04438
 H697 H 0.47538 0.55379 -0.01530
 H698 H 0.45916 0.49583 -0.04445
 H699 H 0.47534 0.46582 -0.05009
 H700 H 0.52856 0.43347 -0.02484
 H701 H 0.50590 0.56618 0.00630
 H702 H 0.56098 0.53392 0.03199
 H703 H 0.57402 0.50189 0.03076
 H704 H 0.55748 0.44315 0.00002
 H705 H 0.47843 0.54989 0.01522
 H706 H 0.47593 0.48616 0.04292
 H707 H 0.55805 0.51230 -0.05970
 H708 H 0.55691 0.44892 -0.03077
 Zr709 Zr 0.02648 1.01464 0.46950
 O710 O 0.04588 1.00385 0.45040
 O711 O 0.02473 1.04362 0.46124
 O712 O 0.01453 1.01470 0.44264
 O713 O 0.06112 1.02033 0.50373
 O714 O -0.01570 1.00176 0.44636
 O715 O 0.05504 1.02574 0.47353
 O716 O 0.00305 1.05577 0.48076
 O717 O -0.00272 1.02065 0.47328
 O718 O 0.02478 1.02826 0.49462
 O719 O 0.01181 0.98779 0.46873
 O720 O 0.03854 0.99534 0.48889
 Zr721 Zr -0.00826 0.98804 0.51828
 Zr722 Zr -0.01704 0.99388 0.47387
 Zr723 Zr 0.03526 1.00878 0.51399
 Zr724 Zr -0.00427 1.03320 0.49879
 O725 O 0.05856 0.99169 0.52311
 O726 O -0.03038 1.04371 0.48726
 O727 O 0.00642 1.01493 0.51943
 O728 O -0.02007 1.00725 0.49894
 O729 O -0.00674 0.97421 0.49324
 O730 O 0.02088 0.98213 0.51443
 C731 C 0.01452 1.05736 0.46725
 C732 C 0.06609 1.02649 0.48789
 C733 C -0.00229 1.00920 0.43651
 O734 O -0.04192 1.00976 0.46684
 O735 O -0.04157 0.97923 0.48361
 O736 O -0.03609 0.97527 0.51407
 C737 C -0.04656 0.97316 0.49947
 O738 O 0.04408 0.96459 0.46968
 Zr739 Zr 0.02242 0.96933 0.48912
 O740 O -0.00743 0.95901 0.52589
 O741 O -0.02248 0.96930 0.45770
 O742 O 0.01154 0.94819 0.47084
 O743 O 0.04661 0.95663 0.50231
 O744 O 0.01141 0.94581 0.50445
 C745 C 0.00021 0.94460 0.51821
 O746 O -0.02831 0.99878 0.53680
 O747 O 0.04251 1.03435 0.52817
 O748 O 0.00324 0.98874 0.54527
 O749 O 0.03209 1.00477 0.54209
 O750 O 0.00763 1.05593 0.51471
 O751 O -0.02275 1.03905 0.52070
 C752 C 0.01895 0.99656 0.55177
 H753 H 0.03230 1.04052 0.49513
 H754 H -0.03378 1.00976 0.50147
 H755 H 0.02626 0.97362 0.52408
 H756 H 0.01320 0.98165 0.45677
 H757 H -0.03039 1.05782 0.48908
 H758 H -0.04951 1.00200 0.45791
 H759 H -0.03499 0.97130 0.45124
 H760 H 0.01805 0.93595 0.47388
 H761 H 0.00063 1.06779 0.51130
 H762 H 0.05485 1.03207 0.53484
 H763 H 0.06617 0.99952 0.53196
 H764 H 0.04584 0.94263 0.49986
 H765 H -0.02755 1.05234 0.51943
 H766 H -0.03219 0.98789 0.54488
 H767 H 0.04978 1.01480 0.44238
 H768 H 0.04706 0.95072 0.46947
 Zr769 Zr 0.73065 0.26396 0.22651
 O770 O 0.73687 0.28115 0.20328
 O771 O 0.70031 0.26156 0.22487
 O772 O 0.72427 0.24958 0.20181
 O773 O 0.73354 0.30212 0.25633
 O774 O 0.73753 0.22007 0.20629
 O775 O 0.72102 0.29254 0.22894
 O776 O 0.69265 0.24255 0.24927
 O777 O 0.72526 0.23543 0.23488
 O778 O 0.72322 0.26496 0.25388
 O779 O 0.75657 0.24947 0.22223
 O780 O 0.75421 0.27799 0.23989
 Zr781 Zr 0.76744 0.23468 0.27288
 Zr782 Zr 0.75143 0.22137 0.23184
 Zr783 Zr 0.74685 0.27751 0.26739
 Zr784 Zr 0.71900 0.23658 0.26249
 O785 O 0.76602 0.30148 0.26989
 O786 O 0.70552 0.20976 0.25613
 O787 O 0.74172 0.24947 0.27745
 O788 O 0.74413 0.22091 0.25931
 O789 O 0.77529 0.23360 0.24560
 O790 O 0.77275 0.26318 0.26449
 C791 C 0.68810 0.25263 0.23513
 C792 C 0.72383 0.30518 0.24148
 C793 C 0.72825 0.23247 0.19658
 O794 O 0.73392 0.19607 0.23118
 O795 O 0.76773 0.19804 0.24139
 O796 O 0.77935 0.20713 0.26926
 C797 C 0.77774 0.19511 0.25604
 O798 O 0.78032 0.28082 0.21407
 Zr799 Zr 0.77953 0.26206 0.23712
 O800 O 0.79749 0.23708 0.27503
 O801 O 0.77158 0.21429 0.21185
 O802 O 0.79613 0.24873 0.21707
 O803 O 0.79462 0.28790 0.24402
 O804 O 0.80600 0.25387 0.24950
 C805 C 0.81009 0.24443 0.26424
 O806 O 0.76136 0.21591 0.29504
 O807 O 0.72537 0.28633 0.28544
 O808 O 0.77138 0.24806 0.29849
 O809 O 0.75732 0.27723 0.29429
 O810 O 0.70093 0.24966 0.28153
 O811 O 0.71854 0.22032 0.28716
 C812 C 0.76601 0.26458 0.30421
 H813 H 0.71154 0.27253 0.25599
 H814 H 0.74216 0.20758 0.26394
 H815 H 0.78322 0.26956 0.27169
 H816 H 0.75986 0.24964 0.20919
 H817 H 0.69226 0.20987 0.26095
 H818 H 0.73927 0.18769 0.22179
 H819 H 0.76797 0.20123 0.20749
 H820 H 0.80892 0.25540 0.21687
 H821 H 0.68862 0.24213 0.28179
 H822 H 0.72935 0.29927 0.28984
 H823 H 0.76058 0.30995 0.27916
 H824 H 0.80783 0.28707 0.23917
 H825 H 0.70538 0.21487 0.28898
 H826 H 0.77385 0.21316 0.30131
 H827 H 0.72436 0.28425 0.19721
 H828 H 0.79393 0.28352 0.21080
 Zr829 Zr 0.74362 0.72954 0.71175
 O830 O 0.72993 0.71050 0.69307
 O831 O 0.77177 0.73139 0.70194
 O832 O 0.74223 0.74203 0.68538
 O833 O 0.75196 0.69442 0.74455
 O834 O 0.72995 0.77173 0.69016
 O835 O 0.75504 0.70149 0.71436
 O836 O 0.78688 0.75262 0.72113
 O837 O 0.75086 0.75866 0.71568
 O838 O 0.75979 0.73095 0.73601
 O839 O 0.71715 0.74386 0.71271
 O840 O 0.72583 0.71680 0.73178
 Zr841 Zr 0.72306 0.76283 0.76248
 Zr842 Zr 0.72455 0.77265 0.71810
 Zr843 Zr 0.74189 0.71976 0.75608
 Zr844 Zr 0.76612 0.75987 0.74035
 O845 O 0.72503 0.69593 0.76523
 O846 O 0.77620 0.78602 0.72836
 O847 O 0.74958 0.74848 0.76175
 O848 O 0.74063 0.77531 0.74235
 O849 O 0.70654 0.76167 0.73836
 O850 O 0.71578 0.73382 0.75834
 C851 C 0.78664 0.74121 0.70745
 C852 C 0.75690 0.69016 0.72833
 C853 C 0.73662 0.75874 0.67980
 O854 O 0.74033 0.79789 0.71082
 O855 O 0.71132 0.79670 0.72934
 O856 O 0.71040 0.79019 0.75977
 C857 C 0.70694 0.80100 0.74572
 O858 O 0.69273 0.71180 0.71390
 Zr859 Zr 0.70036 0.73262 0.73385
 O860 O 0.69485 0.76124 0.77201
 O861 O 0.69862 0.77795 0.70334
 O862 O 0.67766 0.74409 0.71752
 O863 O 0.68842 0.70775 0.74673
 O864 O 0.67887 0.74223 0.75139
 C865 C 0.67944 0.75312 0.76545
 O866 O 0.73625 0.78284 0.78056
 O867 O 0.76849 0.71282 0.76899
 O868 O 0.72656 0.75128 0.78910
 O869 O 0.73987 0.72206 0.78434
 O870 O 0.79017 0.74844 0.75483
 O871 O 0.77458 0.77815 0.76218
 C872 C 0.73358 0.73516 0.79478
 H873 H 0.77190 0.72364 0.73576
 H874 H 0.74376 0.78896 0.74506
 H875 H 0.70808 0.72812 0.76833
 H876 H 0.70985 0.74261 0.70106
 H877 H 0.79050 0.78615 0.72930
 H878 H 0.73191 0.80539 0.70242
 H879 H 0.70037 0.79058 0.69709
 H880 H 0.66550 0.73748 0.72117
 H881 H 0.80183 0.75578 0.75094
 H882 H 0.76648 0.70031 0.77539
 H883 H 0.73346 0.68826 0.77347
 H884 H 0.67419 0.70828 0.74517
 H885 H 0.78764 0.78363 0.75994
 H886 H 0.72634 0.78642 0.78941
 H887 H 0.73985 0.70677 0.68429
 H888 H 0.67867 0.70892 0.71433
 Zr889 Zr 0.24791 0.21819 0.77522
 O890 O 0.25798 0.20061 0.79698
 O891 O 0.21817 0.21821 0.77960
 O892 O 0.24415 0.23159 0.80067
 O893 O 0.24655 0.18161 0.74363
 O894 O 0.25659 0.26189 0.79614
 O895 O 0.23777 0.18935 0.77233
 O896 O 0.20649 0.23841 0.75747
 O897 O 0.24114 0.24675 0.76863
 O898 O 0.23643 0.21808 0.74871
 O899 O 0.27410 0.23388 0.77776
 O900 O 0.26927 0.20593 0.75909
 Zr901 Zr 0.27737 0.25130 0.72693
 Zr902 Zr 0.26748 0.26205 0.76974
 Zr903 Zr 0.25787 0.20738 0.73249
 Zr904 Zr 0.23066 0.24653 0.74189
 O905 O 0.27668 0.18463 0.72698
 O906 O 0.21827 0.27229 0.75091
 O907 O 0.25110 0.23554 0.72423
 O908 O 0.25613 0.26328 0.74319
 O909 O 0.28913 0.25157 0.75336
 O910 O 0.28397 0.22278 0.73365
 C911 C 0.20438 0.22697 0.77123
 C912 C 0.23879 0.17750 0.75899
 C913 C 0.24827 0.24887 0.80600
 O914 O 0.25056 0.28682 0.77266
 O915 O 0.28283 0.28625 0.75986
 O916 O 0.28960 0.27928 0.73050
 C917 C 0.29044 0.29042 0.74444
 O918 O 0.29874 0.20317 0.78217
 Zr919 Zr 0.29467 0.22304 0.76029
 O920 O 0.30697 0.25059 0.72204
 O921 O 0.29010 0.26896 0.78845
 O922 O 0.31399 0.23615 0.77936
 O923 O 0.30899 0.19849 0.75085
 O924 O 0.31906 0.23335 0.74611
 C925 C 0.32102 0.24355 0.73149
 O926 O 0.26776 0.27047 0.70620
 O927 O 0.23383 0.19819 0.71636
 O928 O 0.27827 0.23899 0.70066
 O929 O 0.26395 0.20945 0.70477
 O930 O 0.20994 0.23344 0.72412
 O931 O 0.22613 0.26402 0.71832
 C932 C 0.27167 0.22265 0.69471
 H933 H 0.22457 0.21000 0.74732
 H934 H 0.25349 0.27670 0.73934
 H935 H 0.29336 0.21724 0.72529
 H936 H 0.27913 0.23337 0.79045
 H937 H 0.20432 0.27168 0.74765
 H938 H 0.25722 0.29497 0.78190
 H939 H 0.28719 0.28169 0.79354
 H940 H 0.32673 0.23009 0.77814
 H941 H 0.19756 0.24013 0.72560
 H942 H 0.23717 0.18568 0.71103
 H943 H 0.26990 0.17631 0.71796
 H944 H 0.32277 0.19982 0.75463
 H945 H 0.21274 0.26877 0.71816
 H946 H 0.27920 0.27420 0.69894
 H947 H 0.24652 0.19653 0.80406
 H948 H 0.31273 0.20101 0.78413
 Zr949 Zr 0.26140 0.78292 0.28156
 O950 O 0.25146 0.80358 0.29991
 O951 O 0.28967 0.77856 0.29149
 O952 O 0.25945 0.77152 0.30845
 O953 O 0.27064 0.81647 0.24743
 O954 O 0.24177 0.74370 0.30468
 O955 O 0.27509 0.81030 0.27777
 O956 O 0.30047 0.75506 0.27315
 O957 O 0.26470 0.75323 0.27846
 O958 O 0.27609 0.77944 0.25727
 O959 O 0.23316 0.77098 0.28102
 O960 O 0.24415 0.79610 0.26104
 Zr961 Zr 0.23400 0.74951 0.23194
 Zr962 Zr 0.23665 0.74156 0.27663
 Zr963 Zr 0.25849 0.79103 0.23675
 Zr964 Zr 0.27843 0.74995 0.25372
 O965 O 0.24418 0.81539 0.22590
 O966 O 0.28602 0.72311 0.26562
 O967 O 0.26221 0.76165 0.23199
 O968 O 0.25111 0.73665 0.25246
 O969 O 0.21892 0.75298 0.25605
 O970 O 0.23065 0.77914 0.23511
 C971 C 0.30247 0.76656 0.28664
 C972 C 0.27648 0.82124 0.26349
 C973 C 0.25070 0.75624 0.31460
 O974 O 0.25042 0.71617 0.28570
 O975 O 0.22123 0.71764 0.26638
 O976 O 0.21917 0.72271 0.23574
 C977 C 0.21590 0.71258 0.25026
 O978 O 0.21258 0.80475 0.27867
 Zr979 Zr 0.21671 0.78259 0.25956
 O980 O 0.20554 0.75291 0.22275
 O981 O 0.21034 0.73840 0.29063
 O982 O 0.19358 0.77367 0.27639
 O983 O 0.20754 0.80795 0.24584
 O984 O 0.19323 0.77431 0.24247
 C985 C 0.19168 0.76280 0.22891
 O986 O 0.24382 0.72832 0.21407
 O987 O 0.28554 0.79556 0.22432
 O988 O 0.23676 0.76030 0.20498
 O989 O 0.25542 0.78750 0.20853
 O990 O 0.30312 0.75950 0.23927
 O991 O 0.28354 0.73074 0.23215
 C992 C 0.24616 0.77510 0.19866
 H993 H 0.28899 0.78585 0.25743
 H994 H 0.25263 0.72273 0.25028
 H995 H 0.22317 0.78511 0.22498
 H996 H 0.22650 0.77336 0.29253
 H997 H 0.30015 0.72172 0.26436
 H998 H 0.24143 0.70946 0.29409
 H999 H 0.21087 0.72604 0.29748
 H1000 H 0.18208 0.78107 0.27254
 H1001 H 0.31407 0.75145 0.24337
 H1002 H 0.28476 0.80785 0.21738
 H1003 H 0.25325 0.82197 0.21749
 H1004 H 0.19337 0.80871 0.24729
 H1005 H 0.29644 0.72503 0.23387
 H1006 H 0.23299 0.72525 0.20549
 H1007 H 0.26235 0.80665 0.30843
 H1008 H 0.19891 0.80870 0.27817
 Zr1009 Zr 0.23390 0.76239 0.72579
 O1010 O 0.24203 0.78124 0.70428
 O1011 O 0.20373 0.76067 0.72219
 O1012 O 0.22882 0.75008 0.69989
 O1013 O 0.23485 0.79793 0.75837
 O1014 O 0.24123 0.72003 0.70293
 O1015 O 0.22434 0.79075 0.72963
 O1016 O 0.19408 0.74017 0.74485
 O1017 O 0.22748 0.73343 0.73185
 O1018 O 0.22474 0.76143 0.75271
 O1019 O 0.25977 0.74772 0.72186
 O1020 O 0.25677 0.77493 0.74136
 Zr1021 Zr 0.26708 0.72894 0.77187
 Zr1022 Zr 0.25355 0.71908 0.72923
 Zr1023 Zr 0.24766 0.77250 0.76832
 Zr1024 Zr 0.21944 0.73260 0.75906
 O1025 O 0.26687 0.79606 0.77300
 O1026 O 0.20593 0.70664 0.75013
 O1027 O 0.24137 0.74387 0.77612
 O1028 O 0.24446 0.71670 0.75614
 O1029 O 0.27667 0.72976 0.74507
 O1030 O 0.27345 0.75786 0.76574
 C1031 C 0.19069 0.75132 0.73113
 C1032 C 0.22614 0.80223 0.74324
 C1033 C 0.23276 0.73335 0.69368
 O1034 O 0.23576 0.69421 0.72592
 O1035 O 0.26907 0.69489 0.73804
 O1036 O 0.27830 0.70133 0.76728
 C1037 C 0.27772 0.69051 0.75314
 O1038 O 0.28432 0.77940 0.71738
 Zr1039 Zr 0.28192 0.75869 0.73878
 O1040 O 0.29705 0.73039 0.77575
 O1041 O 0.27481 0.71319 0.70988
 O1042 O 0.29945 0.74688 0.71857
 O1043 O 0.29734 0.78333 0.74839
 O1044 O 0.30737 0.74858 0.75169
 C1045 C 0.31041 0.73805 0.76597
 O1046 O 0.25921 0.70884 0.79246
 O1047 O 0.22540 0.77997 0.78609
 O1048 O 0.26976 0.74029 0.79839
 O1049 O 0.25715 0.77033 0.79555
 O1050 O 0.20026 0.74443 0.77787
 O1051 O 0.21720 0.71457 0.78251
 C1052 C 0.26491 0.75663 0.80488
 H1053 H 0.21302 0.76898 0.75470
 H1054 H 0.24195 0.70310 0.75973
 H1055 H 0.28364 0.76341 0.77384
 H1056 H 0.26387 0.74884 0.70907
 H1057 H 0.19237 0.70668 0.75420
 H1058 H 0.24161 0.68647 0.71631
 H1059 H 0.27129 0.70056 0.70450
 H1060 H 0.31234 0.75329 0.71953
 H1061 H 0.18789 0.73703 0.77697
 H1062 H 0.22920 0.79254 0.79146
 H1063 H 0.26101 0.80398 0.78246
 H1064 H 0.31077 0.78251 0.74407
 H1065 H 0.20392 0.70906 0.78315
 H1066 H 0.27121 0.70534 0.79921
 H1067 H 0.23002 0.78500 0.69768
 H1068 H 0.29814 0.78210 0.71497
 Zr1069 Zr 0.24211 0.23389 0.21498
 O1070 O 0.22961 0.21175 0.19882
 O1071 O 0.26845 0.23905 0.20219
 O1072 O 0.23689 0.24401 0.18812
 O1073 O 0.25860 0.20366 0.24923
 O1074 O 0.21897 0.27085 0.19188
 O1075 O 0.25728 0.20777 0.21843
 O1076 O 0.28115 0.26490 0.21738
 O1077 O 0.24468 0.26396 0.21609
 O1078 O 0.26042 0.24013 0.23715
 O1079 O 0.21380 0.24388 0.21763
 O1080 O 0.22889 0.22073 0.23773
 Zr1081 Zr 0.22160 0.26839 0.26512
 Zr1082 Zr 0.21675 0.27380 0.22016
 Zr1083 Zr 0.24675 0.22857 0.25988
 Zr1084 Zr 0.26215 0.26996 0.23874
 O1085 O 0.23518 0.20394 0.27334
 O1086 O 0.26651 0.29637 0.22449
 O1087 O 0.25003 0.25848 0.26260
 O1088 O 0.23472 0.28125 0.24231
 O1089 O 0.20302 0.26231 0.24301
 O1090 O 0.21894 0.23840 0.26384
 C1091 C 0.28148 0.25223 0.20476
 C1092 C 0.26190 0.19814 0.23298
 C1093 C 0.22756 0.25868 0.18193
 O1094 O 0.22735 0.30012 0.20909
 O1095 O 0.20140 0.29677 0.23095
 O1096 O 0.20532 0.29368 0.26170
 C1097 C 0.19880 0.30242 0.24732
 O1098 O 0.19558 0.20860 0.22395
 Zr1099 Zr 0.20145 0.23238 0.24124
 O1100 O 0.19494 0.26354 0.27745
 O1101 O 0.18866 0.27347 0.20829
 O1102 O 0.17558 0.23822 0.22644
 O1103 O 0.19512 0.20750 0.25722
 O1104 O 0.18048 0.24031 0.25996
 C1105 C 0.18054 0.25249 0.27300
 O1106 O 0.23336 0.29145 0.28059
 O1107 O 0.27563 0.22672 0.26965
 O1108 O 0.22913 0.25976 0.29206
 O1109 O 0.24833 0.23395 0.28785
 O1110 O 0.28928 0.26340 0.25094
 O1111 O 0.26990 0.29110 0.25835
 C1112 C 0.24032 0.24632 0.29798
 H1113 H 0.27342 0.23467 0.23598
 H1114 H 0.23594 0.29539 0.24363
 H1115 H 0.21337 0.23260 0.27498
 H1116 H 0.20567 0.24036 0.20690
 H1117 H 0.28064 0.29886 0.22397
 H1118 H 0.21689 0.30536 0.20120
 H1119 H 0.18756 0.28547 0.20093
 H1120 H 0.16512 0.23018 0.23182
 H1121 H 0.29913 0.27188 0.24516
 H1122 H 0.27639 0.21484 0.27721
 H1123 H 0.24575 0.19856 0.28099
 H1124 H 0.18089 0.20562 0.25705
 H1125 H 0.28206 0.29775 0.25477
 H1126 H 0.22392 0.29433 0.29012
 H1127 H 0.23910 0.20877 0.18938
 H1128 H 0.18229 0.20362 0.22597
 Zr1129 Zr 0.74883 0.72536 0.27136
 O1130 O 0.75766 0.70773 0.29356
 O1131 O 0.71889 0.72583 0.27450
 O1132 O 0.74382 0.73885 0.29653
 O1133 O 0.74755 0.68922 0.23942
 O1134 O 0.75727 0.76883 0.29265
 O1135 O 0.73862 0.69659 0.26813
 O1136 O 0.70864 0.74678 0.25234
 O1137 O 0.74296 0.75409 0.26464
 O1138 O 0.73845 0.72566 0.24448
 O1139 O 0.77523 0.74052 0.27500
 O1140 O 0.77065 0.71279 0.25601
 Zr1141 Zr 0.78094 0.75819 0.22441
 Zr1142 Zr 0.76952 0.76885 0.26684
 Zr1143 Zr 0.76037 0.71464 0.22906
 Zr1144 Zr 0.73357 0.75427 0.23757
 O1145 O 0.77880 0.69134 0.22449
 O1146 O 0.72138 0.78032 0.24612
 O1147 O 0.75451 0.74296 0.22064
 O1148 O 0.75929 0.77050 0.23992
 O1149 O 0.79163 0.75807 0.25123
 O1150 O 0.78672 0.72951 0.23127
 C1151 C 0.70570 0.73520 0.26586
 C1152 C 0.73947 0.68497 0.25460
 C1153 C 0.74798 0.75607 0.30202
 O1154 O 0.75315 0.79407 0.26914
 O1155 O 0.78603 0.79263 0.25779
 O1156 O 0.79329 0.78609 0.22845
 C1157 C 0.79407 0.79693 0.24261
 O1158 O 0.79910 0.70924 0.28008
 Zr1159 Zr 0.79634 0.72940 0.25824
 O1160 O 0.81072 0.75706 0.22079
 O1161 O 0.79132 0.77510 0.28659
 O1162 O 0.81500 0.74204 0.27816
 O1163 O 0.81066 0.70468 0.24919
 O1164 O 0.82157 0.73941 0.24511
 C1165 C 0.82427 0.74975 0.23068
 O1166 O 0.77255 0.77749 0.20332
 O1167 O 0.73699 0.70627 0.21171
 O1168 O 0.78298 0.74585 0.19823
 O1169 O 0.76806 0.71653 0.20176
 O1170 O 0.71324 0.74163 0.21912
 O1171 O 0.73040 0.77186 0.21388
 C1172 C 0.77654 0.72955 0.19206
 H1173 H 0.72648 0.71784 0.24261
 H1174 H 0.75708 0.78400 0.23606
 H1175 H 0.79638 0.72382 0.22329
 H1176 H 0.77965 0.73985 0.28787
 H1177 H 0.70757 0.78003 0.24231
 H1178 H 0.75958 0.80201 0.27868
 H1179 H 0.78844 0.78787 0.29163
 H1180 H 0.82769 0.73578 0.27738
 H1181 H 0.70097 0.74860 0.22019
 H1182 H 0.74024 0.69367 0.20650
 H1183 H 0.77230 0.68320 0.21515
 H1184 H 0.82428 0.70573 0.25352
 H1185 H 0.71711 0.77686 0.21319
 H1186 H 0.78437 0.78105 0.19653
 H1187 H 0.74582 0.70379 0.30015
 H1188 H 0.81295 0.70688 0.28260
 Zr1189 Zr 0.76575 0.27899 0.78217
 O1190 O 0.75528 0.29812 0.80169
 O1191 O 0.79505 0.27755 0.78991
 O1192 O 0.76645 0.26693 0.80891
 O1193 O 0.77020 0.31374 0.74826
 O1194 O 0.75364 0.23671 0.80498
 O1195 O 0.77655 0.30760 0.77828
 O1196 O 0.80689 0.25586 0.77019
 O1197 O 0.77186 0.24993 0.77800
 O1198 O 0.77884 0.27751 0.75684
 O1199 O 0.73896 0.26413 0.78316
 O1200 O 0.74587 0.29097 0.76321
 Zr1201 Zr 0.73813 0.24444 0.73336
 Zr1202 Zr 0.74510 0.23543 0.77757
 Zr1203 Zr 0.75876 0.28788 0.73787
 Zr1204 Zr 0.78391 0.24862 0.75230
 O1205 O 0.74115 0.31088 0.72908
 O1206 O 0.79479 0.22255 0.76334
 O1207 O 0.76501 0.25923 0.73205
 O1208 O 0.75796 0.23269 0.75228
 O1209 O 0.72488 0.24572 0.75864
 O1210 O 0.73208 0.27339 0.73762
 C1211 C 0.80871 0.26736 0.78372
 C1212 C 0.77676 0.31870 0.76402
 C1213 C 0.76118 0.25008 0.81490
 O1214 O 0.76134 0.21071 0.78412
 O1215 O 0.73035 0.21086 0.76773
 O1216 O 0.72573 0.21659 0.73739
 C1217 C 0.72401 0.20598 0.75184
 O1218 O 0.71566 0.29636 0.78280
 Zr1219 Zr 0.71991 0.27472 0.76319
 O1220 O 0.70872 0.24498 0.72636
 O1221 O 0.72081 0.22979 0.79398
 O1222 O 0.69923 0.26404 0.78189
 O1223 O 0.70655 0.29856 0.75020
 O1224 O 0.69599 0.26325 0.74850
 C1225 C 0.69442 0.25214 0.73466
 O1226 O 0.74851 0.22463 0.71441
 O1227 O 0.78407 0.29556 0.72354
 O1228 O 0.73835 0.25594 0.70647
 O1229 O 0.75447 0.28469 0.70978
 O1230 O 0.80630 0.26076 0.73627
 O1231 O 0.78944 0.23044 0.73004
 C1232 C 0.74622 0.27156 0.70005
 H1233 H 0.79106 0.28512 0.75624
 H1234 H 0.76052 0.21907 0.74954
 H1235 H 0.72329 0.27868 0.72811
 H1236 H 0.73306 0.26541 0.79522
 H1237 H 0.80890 0.22263 0.76133
 H1238 H 0.75379 0.20306 0.79307
 H1239 H 0.72303 0.21732 0.80030
 H1240 H 0.68689 0.27055 0.77913
 H1241 H 0.81832 0.25386 0.73946
 H1242 H 0.78149 0.30784 0.71700
 H1243 H 0.74874 0.31855 0.72019
 H1244 H 0.69259 0.29765 0.75288
 H1245 H 0.80283 0.22574 0.73109
 H1246 H 0.73740 0.22074 0.70646
 H1247 H 0.76644 0.30206 0.80956
 H1248 H 0.70179 0.29954 0.78306
 C1249 C 0.44359 1.01234 0.32310
 C1250 C 0.44570 0.99982 0.30849
 C1251 C 0.43475 1.00220 0.29248
 C1252 C 0.42147 1.01724 0.29054
 C1253 C 0.41949 1.02982 0.30523
 C1254 C 0.43048 1.02745 0.32121
 C1255 C 0.45408 1.00910 0.34067
 C1256 C 0.46128 1.02478 0.35079
 C1257 C 0.46913 1.02195 0.36823
 C1258 C 0.46998 1.00337 0.37596
 C1259 C 0.46377 0.98757 0.36549
 C1260 C 0.45587 0.99040 0.34802
 C1261 C 0.47542 1.00075 0.39545
 C1262 C 0.48713 0.98552 0.40148
 C1263 C 0.49102 0.98264 0.42011
 C1264 C 0.48298 0.99477 0.43298
 C1265 C 0.47155 1.01013 0.42684
 C1266 C 0.46787 1.01310 0.40835
 H1267 H 0.45571 0.98806 0.30949
 H1268 H 0.43637 0.99197 0.28166
 H1269 H 0.40904 1.04113 0.30493
 H1270 H 0.42814 1.03705 0.33240
 H1271 H 0.46048 1.03931 0.34536
 H1272 H 0.47411 1.03437 0.37588
 H1273 H 0.46407 0.97311 0.37116
 H1274 H 0.45031 0.97803 0.34064
 H1275 H 0.49317 0.97581 0.39180
 H1276 H 0.49985 0.97068 0.42444
 H1277 H 0.46523 1.01983 0.43637
 H1278 H 0.45857 1.02477 0.40418
 C1279 C -0.05083 0.51432 0.82137
 C1280 C -0.04868 0.50221 0.80646
 C1281 C -0.06063 0.50407 0.79102
 C1282 C -0.07512 0.51804 0.79003
 C1283 C -0.07695 0.53042 0.80490
 C1284 C -0.06489 0.52863 0.82028
 C1285 C -0.03943 0.51134 0.83848
 C1286 C -0.03237 0.52718 0.84846
 C1287 C -0.02375 0.52449 0.86562
 C1288 C -0.02207 0.50592 0.87325
 C1289 C -0.02814 0.49000 0.86285
 C1290 C -0.03673 0.49269 0.84564
 C1291 C -0.01606 0.50337 0.89265
 C1292 C -0.00430 0.48809 0.89850
 C1293 C -0.00019 0.48510 0.91709
 C1294 C -0.00803 0.49718 0.93012
 C1295 C -0.01936 0.51269 0.92414
 C1296 C -0.02329 0.51574 0.90570
 H1297 H -0.03791 0.49112 0.80683
 H1298 H -0.05894 0.49413 0.77996
 H1299 H -0.08803 0.54107 0.80524
 H1300 H -0.06715 0.53795 0.83170
 H1301 H -0.03390 0.54169 0.84316
 H1302 H -0.01887 0.53702 0.87316
 H1303 H -0.02724 0.47554 0.86841
 H1304 H -0.04217 0.48021 0.83835
 H1305 H 0.00155 0.47837 0.88872
 H1306 H 0.00857 0.47303 0.92130
 H1307 H -0.02554 0.52237 0.93378
 H1308 H -0.03264 0.52744 0.90173
 C1309 C 0.05704 0.00250 0.81704
 C1310 C 0.06002 0.01736 0.80425
 C1311 C 0.07024 0.01403 0.78842
 C1312 C 0.07791 -0.00421 0.78498
 C1313 C 0.07367 -0.01938 0.79728
 C1314 C 0.06349 -0.01600 0.81312
 C1315 C 0.04859 0.00651 0.83500
 C1316 C 0.05711 -0.00127 0.85086
 C1317 C 0.05008 0.00305 0.86793
 C1318 C 0.03430 0.01526 0.86965
 C1319 C 0.02543 0.02278 0.85382
 C1320 C 0.03262 0.01857 0.83663
 C1321 C 0.02747 0.01988 0.88808
 C1322 C 0.00778 0.01840 0.89243
 C1323 C 0.00206 0.01931 0.91062
 C1324 C 0.01599 0.02168 0.92461
 C1325 C 0.03540 0.02481 0.92001
 C1326 C 0.04106 0.02399 0.90197
 H1327 H 0.05520 0.03179 0.80686
 H1328 H 0.07279 0.02594 0.77907
 H1329 H 0.07821 -0.03389 0.79504
 H1330 H 0.06091 -0.02788 0.82250
 H1331 H 0.06956 -0.01040 0.85011
 H1332 H 0.05702 -0.00322 0.87986
 H1333 H 0.01323 0.03220 0.85477
 H1334 H 0.02570 0.02469 0.82463
 H1335 H -0.00300 0.01526 0.88196
 H1336 H -0.01297 0.01674 0.91383
 H1337 H 0.04642 0.02689 0.93051
 H1338 H 0.05625 0.02566 0.89897
 C1339 C 0.56184 0.50171 0.32116
 C1340 C 0.55139 0.50275 0.30462
 C1341 C 0.56076 0.50093 0.28801
 C1342 C 0.58085 0.49796 0.28758
 C1343 C 0.59115 0.49694 0.30424
 C1344 C 0.58183 0.49877 0.32072
 C1345 C 0.55227 0.50403 0.33891
 C1346 C 0.55816 0.49289 0.35402
 C1347 C 0.55090 0.49631 0.37119
 C1348 C 0.53744 0.51084 0.37372
 C1349 C 0.53067 0.52133 0.35853
 C1350 C 0.53809 0.51801 0.34126
 C1351 C 0.53148 0.51532 0.39241
 C1352 C 0.51191 0.51616 0.39705
 C1353 C 0.50671 0.51744 0.41537
 C1354 C 0.52106 0.51795 0.42918
 C1355 C 0.54058 0.51866 0.42424
 C1356 C 0.54570 0.51733 0.40611
 H1357 H 0.53596 0.50495 0.30451
 H1358 H 0.55211 0.50224 0.27573
 H1359 H 0.60665 0.49507 0.30446
 H1360 H 0.59044 0.49835 0.33317
 H1361 H 0.56864 0.48168 0.35263
 H1362 H 0.55603 0.48773 0.38264
 H1363 H 0.52027 0.53259 0.36016
 H1364 H 0.53332 0.52689 0.32990
 H1365 H 0.50069 0.51471 0.38667
 H1366 H 0.49157 0.51683 0.41878
 H1367 H 0.55200 0.51936 0.43451
 H1368 H 0.56089 0.51716 0.40283
 C1369 C 0.56920 0.49589 0.18221
 C1370 C 0.58616 0.50659 0.18634
 C1371 C 0.59400 0.50664 0.20403
 C1372 C 0.58494 0.49614 0.21800
 C1373 C 0.56813 0.48524 0.21383
 C1374 C 0.56038 0.48507 0.19613
 C1375 C 0.56065 0.49625 0.16349
 C1376 C 0.55349 0.47928 0.15531
 C1377 C 0.54623 0.47962 0.13738
 C1378 C 0.54594 0.49694 0.12729
 C1379 C 0.55244 0.51399 0.13576
 C1380 C 0.55976 0.51363 0.15359
 C1381 C 0.54018 0.49719 0.10766
 C1382 C 0.55085 0.50857 0.09540
 C1383 C 0.54618 0.50867 0.07690
 C1384 C 0.53070 0.49733 0.06998
 C1385 C 0.51982 0.48603 0.08221
 C1386 C 0.52457 0.48590 0.10089
 H1387 H 0.59343 0.51489 0.17585
 H1388 H 0.60689 0.51526 0.20685
 H1389 H 0.56098 0.47676 0.22426
 H1390 H 0.54727 0.47676 0.19340
 H1391 H 0.55406 0.46564 0.16257
 H1392 H 0.54152 0.46622 0.13121
 H1393 H 0.55203 0.52765 0.12853
 H1394 H 0.56474 0.52701 0.15966
 H1395 H 0.56317 0.51714 0.10003
 H1396 H 0.55495 0.51758 0.06798
 H1397 H 0.50786 0.47710 0.07734
 H1398 H 0.51601 0.47704 0.11002
 C1399 C 0.06647 0.99467 0.68218
 C1400 C 0.08469 0.98665 0.68544
 C1401 C 0.09338 0.98716 0.70281
 C1402 C 0.08393 0.99547 0.71756
 C1403 C 0.06565 1.00357 0.71405
 C1404 C 0.05714 1.00324 0.69666
 C1405 C 0.05730 0.99439 0.66370
 C1406 C 0.04840 1.01092 0.65655
 C1407 C 0.04029 1.01097 0.63899
 C1408 C 0.04073 0.99445 0.62818
 C1409 C 0.04915 0.97773 0.63548
 C1410 C 0.05747 0.97774 0.65301
 C1411 C 0.03375 0.99521 0.60893
 C1412 C 0.02225 0.98029 0.60134
 C1413 C 0.01660 0.98095 0.58288
 C1414 C 0.02273 0.99635 0.57168
 C1415 C 0.03395 1.01134 0.57942
 C1416 C 0.03928 1.01083 0.59779
 H1417 H 0.09231 0.98006 0.67449
 H1418 H 0.10711 0.98021 0.70460
 H1419 H 0.05792 1.01073 0.72457
 H1420 H 0.04308 1.00955 0.69459
 H1421 H 0.04813 1.02400 0.66438
 H1422 H 0.03383 1.02404 0.63375
 H1423 H 0.04984 0.96485 0.62740
 H1424 H 0.06404 0.96473 0.65823
 H1425 H 0.01772 0.96811 0.60966
 H1426 H 0.00805 0.96916 0.57724
 H1427 H 0.03885 1.02343 0.57116
 H1428 H 0.04828 1.02243 0.60318
 C1429 C -0.07064 0.52794 0.68681
 C1430 C -0.06112 0.51489 0.69856
 C1431 C -0.06803 0.51098 0.71600
 C1432 C -0.08483 0.51968 0.72198
 C1433 C -0.09456 0.53246 0.71028
 C1434 C -0.08744 0.53672 0.69299
 C1435 C -0.06341 0.53193 0.66806
 C1436 C -0.07645 0.53581 0.65364
 C1437 C -0.06996 0.53836 0.63591
 C1438 C -0.05028 0.53666 0.63190
 C1439 C -0.03709 0.53355 0.64635
 C1440 C -0.04356 0.53133 0.66422
 C1441 C -0.04404 0.53645 0.61259
 C1442 C -0.02609 0.54426 0.60707
 C1443 C -0.02040 0.54307 0.58885
 C1444 C -0.03257 0.53405 0.57585
 C1445 C -0.05054 0.52650 0.58149
 C1446 C -0.05609 0.52756 0.59949
 H1447 H -0.04845 0.50746 0.69425
 H1448 H -0.06031 0.50102 0.72480
 H1449 H -0.10734 0.53966 0.71473
 H1450 H -0.09499 0.54716 0.68461
 H1451 H -0.09183 0.53623 0.65585
 H1452 H -0.08053 0.54122 0.62522
 H1453 H -0.02184 0.53211 0.64381
 H1454 H -0.03297 0.52888 0.67497
 H1455 H -0.01648 0.55130 0.61680
 H1456 H -0.00646 0.54900 0.58500
 H1457 H -0.06037 0.51930 0.57204
 H1458 H -0.06973 0.52087 0.60320
 C1459 C 0.43216 0.01920 0.18642
 C1460 C 0.44192 0.02789 0.20119
 C1461 C 0.43428 0.02678 0.21862
 C1462 C 0.41672 0.01684 0.22182
 C1463 C 0.40692 0.00818 0.20707
 C1464 C 0.41453 0.00936 0.18959
 C1465 C 0.44027 0.02040 0.16780
 C1466 C 0.43837 0.00466 0.15605
 C1467 C 0.44510 0.00598 0.13830
 C1468 C 0.45402 0.02302 0.13185
 C1469 C 0.45663 0.03855 0.14372
 C1470 C 0.44974 0.03729 0.16151
 C1471 C 0.45930 0.02474 0.11243
 C1472 C 0.47748 0.03194 0.10701
 C1473 C 0.48244 0.03210 0.08855
 C1474 C 0.46921 0.02523 0.07527
 C1475 C 0.45075 0.01892 0.08082
 C1476 C 0.44592 0.01863 0.09908
 H1477 H 0.45559 0.03542 0.19932
 H1478 H 0.44207 0.03402 0.22954
 H1479 H 0.39346 0.00031 0.20903
 H1480 H 0.40644 0.00274 0.17850
 H1481 H 0.43164 -0.00872 0.16055
 H1482 H 0.44319 -0.00633 0.12951
 H1483 H 0.46333 0.05188 0.13904
 H1484 H 0.45131 0.04976 0.17013
 H1485 H 0.48802 0.03682 0.11708
 H1486 H 0.49674 0.03710 0.08475
 H1487 H 0.43999 0.01377 0.07107
 H1488 H 0.43167 0.01343 0.10282
 C1489 C 0.33365 0.39780 -0.00444
 C1490 C 0.31663 0.40821 -0.00247
 C1491 C 0.29844 0.39915 -0.00444
 C1492 C 0.29676 0.37943 -0.00868
 C1493 C 0.31389 0.36904 -0.01027
 C1494 C 0.33202 0.37808 -0.00832
 C1495 C 0.35305 0.40743 -0.00263
 C1496 C 0.36794 0.40267 -0.01438
 C1497 C 0.38599 0.41198 -0.01316
 C1498 C 0.38969 0.42637 -0.00020
 C1499 C 0.37500 0.43085 0.01187
 C1500 C 0.35685 0.42154 0.01063
 C1501 C 0.40846 0.43729 -0.00014
 C1502 C 0.41837 0.44212 0.01614
 C1503 C 0.43614 0.45229 0.01574
 C1504 C 0.44423 0.45796 -0.00095
 C1505 C 0.43411 0.45319 -0.01713
 C1506 C 0.41656 0.44304 -0.01672
 H1507 H 0.31734 0.42343 0.00051
 H1508 H 0.28587 0.40767 -0.00216
 H1509 H 0.31326 0.35370 -0.01276
 H1510 H 0.34481 0.36949 -0.00949
 H1511 H 0.36552 0.39202 -0.02484
 H1512 H 0.39707 0.40800 -0.02252
 H1513 H 0.37735 0.44194 0.02193
 H1514 H 0.34579 0.42537 0.02006
 H1515 H 0.41250 0.43782 0.02914
 H1516 H 0.44351 0.45572 0.02844
 H1517 H 0.43972 0.45729 -0.03029
 H1518 H 0.40917 0.43991 -0.02948
 C1519 C -0.17504 0.90101 0.49585
 C1520 C -0.19214 0.90992 0.50089
 C1521 C -0.21009 0.90041 0.49881
 C1522 C -0.21141 0.88178 0.49142
 C1523 C -0.19415 0.87280 0.48681
 C1524 C -0.17628 0.88230 0.48886
 C1525 C -0.15596 0.91120 0.49763
 C1526 C -0.14232 0.90976 0.48385
 C1527 C -0.12455 0.91957 0.48514
 C1528 C -0.11991 0.93110 0.50024
 C1529 C -0.13334 0.93226 0.51424
 C1530 C -0.15123 0.92248 0.51291
 C1531 C -0.10146 0.94246 0.50075
 C1532 C -0.08983 0.94370 0.51664
 C1533 C -0.07206 0.95385 0.51648
 C1534 C -0.06567 0.96303 0.50046
 C1535 C -0.07765 0.96212 0.48478
 C1536 C -0.09522 0.95201 0.48494
 H1537 H -0.19168 0.92432 0.50635
 H1538 H -0.22270 0.90766 0.50341
 H1539 H -0.19446 0.85821 0.48181
 H1540 H -0.16335 0.87484 0.48524
 H1541 H -0.14554 0.90135 0.47183
 H1542 H -0.11442 0.91819 0.47422
 H1543 H -0.13021 0.94111 0.52599
 H1544 H -0.16134 0.92369 0.52386
 H1545 H -0.09427 0.93643 0.52902
 H1546 H -0.06321 0.95425 0.52879
 H1547 H -0.07343 0.96913 0.47220
 H1548 H -0.10401 0.95170 0.47260
 C1549 C -0.18201 0.09887 0.99793
 C1550 C -0.19994 0.09127 0.99193
 C1551 C -0.21684 0.10175 0.99368
 C1552 C -0.21636 0.11999 1.00192
 C1553 C -0.19826 0.12765 1.00761
 C1554 C -0.18138 0.11720 1.00577
 C1555 C -0.16403 0.08778 0.99589
 C1556 C -0.14681 0.09698 0.99032
 C1557 C -0.12982 0.08658 0.98881
 C1558 C -0.12962 0.06678 0.99296
 C1559 C -0.14691 0.05754 0.99827
 C1560 C -0.16391 0.06790 0.99967
 C1561 C -0.11132 0.05595 0.99257
 C1562 C -0.10679 0.04290 1.00667
 C1563 C -0.08940 0.03308 1.00682
 C1564 C -0.07604 0.03595 0.99281
 C1565 C -0.08069 0.04878 0.97850
 C1566 C -0.09810 0.05876 0.97845
 H1567 H -0.20084 0.07739 0.98540
 H1568 H -0.23010 0.09565 0.98806
 H1569 H -0.19711 0.14194 1.01328
 H1570 H -0.16779 0.12348 1.01054
 H1571 H -0.14650 0.11223 0.98708
 H1572 H -0.11670 0.09413 0.98482
 H1573 H -0.14727 0.04226 1.00139
 H1574 H -0.17689 0.06041 1.00410
 H1575 H -0.11652 0.04059 1.01787
 H1576 H -0.08638 0.02332 1.01807
 H1577 H -0.07082 0.05126 0.96745
 H1578 H -0.10128 0.06861 0.96731
 C1579 C 0.32268 0.59882 0.50051
 C1580 C 0.30482 0.59159 0.49395
 C1581 C 0.28805 0.60228 0.49547
 C1582 C 0.28852 0.62032 0.50405
 C1583 C 0.30653 0.62764 0.51034
 C1584 C 0.32334 0.61698 0.50872
 C1585 C 0.34056 0.58754 0.49854
 C1586 C 0.35800 0.59660 0.49339
 C1587 C 0.37483 0.58596 0.49177
 C1588 C 0.37463 0.56605 0.49540
 C1589 C 0.35713 0.55696 0.50031
 C1590 C 0.34030 0.56756 0.50182
 C1591 C 0.39276 0.55493 0.49502
 C1592 C 0.39688 0.54156 0.50896
 C1593 C 0.41420 0.53163 0.50928
 C1594 C 0.42791 0.53468 0.49560
 C1595 C 0.42360 0.54770 0.48136
 C1596 C 0.40626 0.55783 0.48114
 H1597 H 0.30391 0.57788 0.48712
 H1598 H 0.27480 0.59657 0.48943
 H1599 H 0.30779 0.64185 0.51615
 H1600 H 0.33689 0.62298 0.51388
 H1601 H 0.35860 0.61193 0.49054
 H1602 H 0.38812 0.59340 0.48811
 H1603 H 0.35648 0.54161 0.50304
 H1604 H 0.32714 0.56017 0.50590
 H1605 H 0.38691 0.53916 0.51996
 H1606 H 0.41692 0.52170 0.52046
 H1607 H 0.43375 0.55031 0.47055
 H1608 H 0.40339 0.56791 0.47011
 C1609 C 0.17684 0.60891 0.50736
 C1610 C 0.19260 0.59708 0.50422
 C1611 C 0.21123 0.60490 0.50247
 C1612 C 0.21489 0.62488 0.50413
 C1613 C 0.19893 0.63673 0.50689
 C1614 C 0.18024 0.62886 0.50861
 C1615 C 0.15693 0.60044 0.50871
 C1616 C 0.14368 0.60735 0.52124
 C1617 C 0.12496 0.59929 0.52225
 C1618 C 0.11906 0.58425 0.51066
 C1619 C 0.13244 0.57722 0.49835
 C1620 C 0.15104 0.58523 0.49734
 C1621 C 0.09897 0.57611 0.51077
 C1622 C 0.08967 0.57152 0.49422
 C1623 C 0.07153 0.56250 0.49389
 C1624 C 0.06196 0.55786 0.51012
 C1625 C 0.07076 0.56323 0.52674
 C1626 C 0.08915 0.57226 0.52706
 H1627 H 0.19058 0.58163 0.50320
 H1628 H 0.22261 0.59505 0.49963
 H1629 H 0.20056 0.65213 0.50775
 H1630 H 0.16836 0.63846 0.51060
 H1631 H 0.14782 0.61890 0.53035
 H1632 H 0.11499 0.60508 0.53183
 H1633 H 0.12851 0.56545 0.48941
 H1634 H 0.16072 0.57968 0.48738
 H1635 H 0.09652 0.57479 0.48140
 H1636 H 0.06507 0.55900 0.48079
 H1637 H 0.06373 0.55993 0.53946
 H1638 H 0.09593 0.57564 0.54005
 C1639 C 0.67289 0.11148 0.00340
 C1640 C 0.68847 0.10000 -0.00110
 C1641 C 0.70714 0.10783 -0.00234
 C1642 C 0.71116 0.12751 0.00117
 C1643 C 0.69521 0.13910 0.00512
 C1644 C 0.67647 0.13116 0.00638
 C1645 C 0.65302 0.10287 0.00454
 C1646 C 0.64028 0.10820 0.01822
 C1647 C 0.62179 0.09962 0.01935
 C1648 C 0.61559 0.08563 0.00674
 C1649 C 0.62839 0.08032 -0.00685
 C1650 C 0.64676 0.08885 -0.00798
 C1651 C 0.59584 0.07665 0.00732
 C1652 C 0.58570 0.07294 -0.00902
 C1653 C 0.56803 0.06299 -0.00901
 C1654 C 0.55977 0.05653 0.00734
 C1655 C 0.56934 0.06104 0.02384
 C1656 C 0.58726 0.07098 0.02382
 H1657 H 0.68631 0.08476 -0.00352
 H1658 H 0.71821 0.09815 -0.00642
 H1659 H 0.69679 0.15428 0.00763
 H1660 H 0.66470 0.14053 0.00950
 H1661 H 0.64471 0.11882 0.02819
 H1662 H 0.61225 0.10411 0.02992
 H1663 H 0.62426 0.06939 -0.01662
 H1664 H 0.65604 0.08454 -0.01882
 H1665 H 0.59155 0.07758 -0.02194
 H1666 H 0.56090 0.06017 -0.02197
 H1667 H 0.56332 0.05631 0.03666
 H1668 H 0.59470 0.07361 0.03665
 C1669 C 0.67675 0.89293 0.49310
 C1670 C 0.68021 0.87610 0.48332
 C1671 C 0.69883 0.86860 0.48269
 C1672 C 0.71445 0.87769 0.49186
 C1673 C 0.71096 0.89449 0.50164
 C1674 C 0.69242 0.90204 0.50218
 C1675 C 0.65693 0.90094 0.49399
 C1676 C 0.65066 0.90942 0.51003
 C1677 C 0.63228 0.91729 0.51089
 C1678 C 0.61949 0.91674 0.49580
 C1679 C 0.62568 0.90816 0.47975
 C1680 C 0.64417 0.90038 0.47885
 C1681 C 0.59990 0.92523 0.49692
 C1682 C 0.59150 0.93515 0.48203
 C1683 C 0.57362 0.94407 0.48361
 C1684 C 0.56381 0.94341 0.50017
 C1685 C 0.57194 0.93304 0.51486
 C1686 C 0.58965 0.92399 0.51323
 H1687 H 0.66849 0.86858 0.47631
 H1688 H 0.70096 0.85583 0.47477
 H1689 H 0.72255 0.90179 0.50906
 H1690 H 0.69043 0.91518 0.50962
 H1691 H 0.65992 0.90989 0.52206
 H1692 H 0.62822 0.92404 0.52340
 H1693 H 0.61618 0.90730 0.46791
 H1694 H 0.64854 0.89416 0.46620
 H1695 H 0.59902 0.93656 0.46930
 H1696 H 0.56778 0.95199 0.47205
 H1697 H 0.56467 0.93198 0.52775
 H1698 H 0.59535 0.91607 0.52484
 C1699 C 0.18530 0.39541 0.98966
 C1700 C 0.18761 0.37672 0.98301
 C1701 C 0.20592 0.36851 0.98262
 C1702 C 0.22247 0.37874 0.98881
 C1703 C 0.22010 0.39750 0.99537
 C1704 C 0.20183 0.40571 0.99572
 C1705 C 0.16574 0.40398 0.99070
 C1706 C 0.16098 0.41532 1.00560
 C1707 C 0.14268 0.42333 1.00675
 C1708 C 0.12852 0.42016 0.99307
 C1709 C 0.13326 0.40888 0.97811
 C1710 C 0.15163 0.40087 0.97695
 C1711 C 0.10894 0.42858 0.99459
 C1712 C 0.09907 0.43611 0.97924
 C1713 C 0.08107 0.44479 0.98098
 C1714 C 0.07254 0.44617 0.99811
 C1715 C 0.08224 0.43822 1.01334
 C1716 C 0.10012 0.42952 1.01160
 H1717 H 0.17520 0.36825 0.97843
 H1718 H 0.20696 0.35413 0.97743
 H1719 H 0.23230 0.40581 1.00065
 H1720 H 0.20068 0.42022 1.00075
 H1721 H 0.17134 0.41783 1.01657
 H1722 H 0.13969 0.43216 1.01833
 H1723 H 0.12268 0.40600 0.96740
 H1724 H 0.15483 0.39238 0.96519
 H1725 H 0.10548 0.43578 0.96595
 H1726 H 0.07405 0.45076 0.96896
 H1727 H 0.07608 0.43881 1.02674
 H1728 H 0.10705 0.42350 1.02364
 C1729 C -0.02113 0.32356 0.43995
 C1730 C -0.00257 0.31984 0.43371
 C1731 C 0.00016 0.30558 0.42097
 C1732 C -0.01568 0.29510 0.41362
 C1733 C -0.03403 0.29775 0.42108
 C1734 C -0.03676 0.31201 0.43392
 C1735 C -0.02417 0.34056 0.45135
 C1736 C -0.03975 0.35268 0.44747
 C1737 C -0.04049 0.37073 0.45545
 C1738 C -0.02559 0.37704 0.46729
 C1739 C -0.01087 0.36429 0.47230
 C1740 C -0.01023 0.34616 0.46447
 C1741 C -0.02423 0.39741 0.47282
 C1742 C -0.01726 0.40244 0.49020
 C1743 C -0.01443 0.42174 0.49472
 C1744 C -0.01867 0.43637 0.48197
 C1745 C -0.02595 0.43135 0.46470
 C1746 C -0.02861 0.41208 0.46014
 H1747 H 0.00983 0.32840 0.43816
 H1748 H 0.01477 0.30296 0.41689
 H1749 H -0.04636 0.28894 0.41690
 H1750 H -0.05114 0.31415 0.43897
 H1751 H -0.05069 0.34879 0.43739
 H1752 H -0.05226 0.38010 0.45168
 H1753 H 0.00084 0.36872 0.48138
 H1754 H 0.00171 0.33691 0.46801
 H1755 H -0.01394 0.39145 0.50029
 H1756 H -0.00905 0.42518 0.50824
 H1757 H -0.02932 0.44230 0.45458
 H1758 H -0.03358 0.40867 0.44649
 C1759 C 0.48076 -0.18181 -0.06354
 C1760 C 0.46486 -0.19234 -0.07060
 C1761 C 0.46756 -0.20691 -0.08314
 C1762 C 0.48623 -0.21109 -0.08901
 C1763 C 0.50215 -0.20168 -0.08061
 C1764 C 0.49946 -0.18703 -0.06827
 C1765 C 0.47799 -0.16422 -0.05285
 C1766 C 0.49133 -0.15893 -0.03908
 C1767 C 0.49110 -0.14057 -0.03170
 C1768 C 0.47733 -0.12724 -0.03777
 C1769 C 0.46298 -0.13311 -0.05039
 C1770 C 0.46338 -0.15138 -0.05794
 C1771 C 0.47894 -0.10689 -0.03216
 C1772 C 0.47543 -0.09205 -0.04491
 C1773 C 0.47781 -0.07283 -0.04002
 C1774 C 0.48401 -0.06807 -0.02235
 C1775 C 0.48758 -0.08286 -0.00959
 C1776 C 0.48495 -0.10209 -0.01442
 H1777 H 0.45030 -0.18905 -0.06670
 H1778 H 0.45493 -0.21470 -0.08813
 H1779 H 0.51677 -0.20520 -0.08411
 H1780 H 0.51206 -0.17922 -0.06313
 H1781 H 0.50251 -0.16869 -0.03459
 H1782 H 0.50237 -0.13650 -0.02200
 H1783 H 0.45189 -0.12331 -0.05497
 H1784 H 0.45293 -0.15495 -0.06857
 H1785 H 0.47124 -0.09527 -0.05882
 H1786 H 0.47503 -0.06171 -0.05014
 H1787 H 0.49210 -0.07957 0.00422
 H1788 H 0.48754 -0.11318 -0.00425
 C1789 C 0.00193 -0.19963 1.04977
 C1790 C 0.01698 -0.21257 1.05277
 C1791 C 0.01545 -0.22678 1.06625
 C1792 C -0.00090 -0.22792 1.07733
 C1793 C -0.01690 -0.21661 1.07260
 C1794 C -0.01541 -0.20246 1.05910
 C1795 C 0.00514 -0.18167 1.03922
 C1796 C -0.00983 -0.17385 1.02853
 C1797 C -0.00835 -0.15494 1.02205
 C1798 C 0.00815 -0.14357 1.02611
 C1799 C 0.02371 -0.15187 1.03563
 C1800 C 0.02222 -0.17077 1.04213
 C1801 C 0.00836 -0.12276 1.02176
 C1802 C 0.01524 -0.10935 1.03465
 C1803 C 0.01374 -0.08962 1.03124
 C1804 C 0.00523 -0.08297 1.01493
 C1805 C -0.00118 -0.09642 1.00188
 C1806 C 0.00042 -0.11608 1.00525
 H1807 H 0.03028 -0.21108 1.04532
 H1808 H 0.02756 -0.23614 1.06874
 H1809 H -0.03039 -0.21804 1.07967
 H1810 H -0.02740 -0.19288 1.05688
 H1811 H -0.02306 -0.18202 1.02596
 H1812 H -0.02061 -0.14890 1.01479
 H1813 H 0.03671 -0.14351 1.03867
 H1814 H 0.03393 -0.17636 1.05048
 H1815 H 0.02118 -0.11413 1.04763
 H1816 H 0.01884 -0.07961 1.04152
 H1817 H -0.00753 -0.09179 0.98902
 H1818 H -0.00473 -0.12608 0.99498
 C1819 C 0.52418 0.30800 0.56986
 C1820 C 0.52263 0.31018 0.58870
 C1821 C 0.51861 0.29440 0.59982
 C1822 C 0.51562 0.27598 0.59246
 C1823 C 0.51755 0.27368 0.57358
 C1824 C 0.52171 0.28959 0.56239
 C1825 C 0.52707 0.32527 0.55823
 C1826 C 0.51619 0.32761 0.54207
 C1827 C 0.51579 0.34549 0.53323
 C1828 C 0.52602 0.36138 0.54055
 C1829 C 0.53818 0.35851 0.55583
 C1830 C 0.53886 0.34059 0.56443
 C1831 C 0.52243 0.38117 0.53371
 C1832 C 0.53708 0.39546 0.53463
 C1833 C 0.53295 0.41459 0.53051
 C1834 C 0.51425 0.41967 0.52493
 C1835 C 0.49978 0.40541 0.52323
 C1836 C 0.50376 0.38635 0.52781
 H1837 H 0.52404 0.32421 0.59487
 H1838 H 0.51766 0.29660 0.61433
 H1839 H 0.51612 0.25978 0.56728
 H1840 H 0.52307 0.28750 0.54791
 H1841 H 0.50701 0.31603 0.53692
 H1842 H 0.50675 0.34707 0.52115
 H1843 H 0.54623 0.37035 0.56194
 H1844 H 0.54779 0.33902 0.57659
 H1845 H 0.55171 0.39194 0.53870
 H1846 H 0.54444 0.42538 0.53144
 H1847 H 0.48527 0.40910 0.51886
 H1848 H 0.49201 0.37585 0.52731
 C1849 C 0.48649 1.16802 0.59707
 C1850 C 0.47840 1.18360 0.58748
 C1851 C 0.48334 1.20245 0.59222
 C1852 C 0.49640 1.20603 0.60667
 C1853 C 0.50365 1.19050 0.61687
 C1854 C 0.49878 1.17164 0.61210
 C1855 C 0.48406 1.14825 0.59017
 C1856 C 0.48194 1.13244 0.60215
 C1857 C 0.48243 1.11367 0.59561
 C1858 C 0.48523 1.11052 0.57705
 C1859 C 0.48638 1.12630 0.56501
 C1860 C 0.48580 1.14498 0.57150
 C1861 C 0.48813 1.09101 0.57017
 C1862 C 0.50350 1.08781 0.55854
 C1863 C 0.50557 1.06995 0.55060
 C1864 C 0.49225 1.05490 0.55408
 C1865 C 0.47737 1.05782 0.56646
 C1866 C 0.47536 1.07578 0.57450
 H1867 H 0.46863 1.18118 0.57601
 H1868 H 0.47710 1.21421 0.58445
 H1869 H 0.51379 1.19285 0.62802
 H1870 H 0.50545 1.15991 0.61957
 H1871 H 0.48043 1.13462 0.61660
 H1872 H 0.48148 1.10165 0.60510
 H1873 H 0.48826 1.12417 0.55059
 H1874 H 0.48770 1.15686 0.56198
 H1875 H 0.51376 1.09928 0.55535
 H1876 H 0.51733 1.06815 0.54132
 H1877 H 0.46689 1.04649 0.56943
 H1878 H 0.46343 1.07798 0.58349
 C1879 C -0.00923 0.66493 1.10020
 C1880 C 0.00197 0.67302 1.11436
 C1881 C 0.00338 0.69294 1.11620
 C1882 C -0.00639 0.70518 1.10397
 C1883 C -0.01840 0.69703 1.09038
 C1884 C -0.01976 0.67711 1.08848
 C1885 C -0.00842 0.64411 1.09650
 C1886 C -0.02497 0.63386 1.09045
 C1887 C -0.02348 0.61505 1.08427
 C1888 C -0.00541 0.60622 1.08404
 C1889 C 0.01089 0.61604 1.09115
 C1890 C 0.00941 0.63482 1.09730
 C1891 C -0.00325 0.58774 1.07469
 C1892 C 0.01194 0.58556 1.06257
 C1893 C 0.01312 0.56894 1.05231
 C1894 C -0.00086 0.55413 1.05397
 C1895 C -0.01575 0.55607 1.06652
 C1896 C -0.01697 0.57277 1.07675
 H1897 H 0.01005 0.66395 1.12373
 H1898 H 0.01276 0.69861 1.12678
 H1899 H -0.02653 0.70604 1.08100
 H1900 H -0.02840 0.67129 1.07733
 H1901 H -0.03893 0.64061 1.08992
 H1902 H -0.03626 0.60782 1.07877
 H1903 H 0.02493 0.60943 1.09132
 H1904 H 0.02245 0.64240 1.10174
 H1905 H 0.02254 0.59701 1.06051
 H1906 H 0.02481 0.56788 1.04282
 H1907 H -0.02673 0.54489 1.06817
 H1908 H -0.02874 0.57408 1.08610
 C1909 C 0.52058 0.68717 -0.09182
 C1910 C 0.51209 0.68967 -0.10915
 C1911 C 0.50646 0.70790 -0.11519
 C1912 C 0.50884 0.72404 -0.10386
 C1913 C 0.51840 0.72151 -0.08692
 C1914 C 0.52432 0.70340 -0.08109
 C1915 C 0.52360 0.66761 -0.08416
 C1916 C 0.51907 0.66374 -0.06593
 C1917 C 0.51983 0.64510 -0.05893
 C1918 C 0.52491 0.62980 -0.07002
 C1919 C 0.53024 0.63365 -0.08804
 C1920 C 0.52956 0.65244 -0.09508
 C1921 C 0.52351 0.60988 -0.06283
 C1922 C 0.53805 0.59654 -0.06584
 C1923 C 0.53699 0.57817 -0.05783
 C1924 C 0.52139 0.57297 -0.04670
 C1925 C 0.50656 0.58614 -0.04433
 C1926 C 0.50758 0.60433 -0.05235
 H1927 H 0.50880 0.67740 -0.11768
 H1928 H 0.49904 0.70878 -0.12820
 H1929 H 0.52163 0.73353 -0.07809
 H1930 H 0.53147 0.70204 -0.06792
 H1931 H 0.51414 0.67500 -0.05720
 H1932 H 0.51599 0.64257 -0.04488
 H1933 H 0.53422 0.62207 -0.09685
 H1934 H 0.53335 0.65503 -0.10912
 H1935 H 0.55047 0.60051 -0.07389
 H1936 H 0.54862 0.56829 -0.05990
 H1937 H 0.49418 0.58248 -0.03611
 H1938 H 0.49592 0.61417 -0.05022
 C1939 C 0.01182 1.18977 0.41237
 C1940 C -0.00212 1.19199 0.39837
 C1941 C -0.00797 1.21032 0.39290
 C1942 C -0.00019 1.22666 0.40154
 C1943 C 0.01413 1.22454 0.41512
 C1944 C 0.02018 1.20628 0.42039
 C1945 C 0.01638 1.17039 0.41966
 C1946 C 0.01858 1.16755 0.43852
 C1947 C 0.02055 1.14910 0.44579
 C1948 C 0.02015 1.13305 0.43439
 C1949 C 0.01904 1.13587 0.41548
 C1950 C 0.01716 1.15442 0.40816
 C1951 C 0.01901 1.11350 0.44246
 C1952 C 0.02975 1.09833 0.43567
 C1953 C 0.02833 1.07995 0.44362
 C1954 C 0.01605 1.07650 0.45838
 C1955 C 0.00517 1.09172 0.46489
 C1956 C 0.00662 1.10995 0.45703
 H1957 H -0.00904 1.17957 0.39210
 H1958 H -0.01897 1.21172 0.38233
 H1959 H 0.02072 1.23704 0.42156
 H1960 H 0.03127 1.20507 0.43091
 H1961 H 0.01783 1.17947 0.44780
 H1962 H 0.02170 1.14731 0.46042
 H1963 H 0.01868 1.12370 0.40642
 H1964 H 0.01583 1.15622 0.39355
 H1965 H 0.03939 1.10076 0.42442
 H1966 H 0.03688 1.06851 0.43827
 H1967 H -0.00454 1.08962 0.47615
 H1968 H -0.00216 1.12128 0.46225
 C1969 C 0.75817 0.69377 0.92395
 C1970 C 0.76357 0.67442 0.92456
 C1971 C 0.76777 0.66534 0.94111
 C1972 C 0.76676 0.67532 0.95759
 C1973 C 0.76201 0.69499 0.95686
 C1974 C 0.75797 0.70415 0.94017
 C1975 C 0.75155 0.70243 0.90647
 C1976 C 0.75892 0.72028 0.90029
 C1977 C 0.75396 0.72718 0.88285
 C1978 C 0.74148 0.71635 0.87143
 C1979 C 0.73319 0.69914 0.87819
 C1980 C 0.73823 0.69223 0.89545
 C1981 C 0.73858 0.72167 0.85198
 C1982 C 0.73951 0.70728 0.83883
 C1983 C 0.73752 0.71178 0.82044
 C1984 C 0.73455 0.73085 0.81455
 C1985 C 0.73333 0.74533 0.82766
 C1986 C 0.73548 0.74079 0.84625
 H1987 H 0.76401 0.66614 0.91220
 H1988 H 0.77093 0.65013 0.94112
 H1989 H 0.76039 0.70321 0.96907
 H1990 H 0.75369 0.71906 0.94001
 H1991 H 0.76916 0.72843 0.90861
 H1992 H 0.76062 0.74045 0.87796
 H1993 H 0.72319 0.69071 0.86987
 H1994 H 0.73199 0.67866 0.90009
 H1995 H 0.74223 0.69249 0.84275
 H1996 H 0.73848 0.70022 0.81078
 H1997 H 0.73112 0.76016 0.82354
 H1998 H 0.73467 0.75215 0.85612
 C1999 C 0.26148 0.19919 0.42631
 C2000 C 0.27807 0.18847 0.43028
 C2001 C 0.27960 0.17752 0.44629
 C2002 C 0.26450 0.17696 0.45886
 C2003 C 0.24857 0.18893 0.45547
 C2004 C 0.24700 0.19979 0.43938
 C2005 C 0.25878 0.20850 0.40811
 C2006 C 0.24996 0.22651 0.40601
 C2007 C 0.24719 0.23476 0.38866
 C2008 C 0.25324 0.22519 0.37310
 C2009 C 0.26181 0.20711 0.37527
 C2010 C 0.26455 0.19891 0.39249
 C2011 C 0.25066 0.23360 0.35452
 C2012 C 0.26523 0.23150 0.34173
 C2013 C 0.26207 0.23664 0.32357
 C2014 C 0.24434 0.24426 0.31772
 C2015 C 0.23021 0.24775 0.33066
 C2016 C 0.23332 0.24239 0.34895
 H2017 H 0.28980 0.18823 0.42075
 H2018 H 0.29254 0.16937 0.44833
 H2019 H 0.23683 0.18915 0.46498
 H2020 H 0.23403 0.20790 0.43680
 H2021 H 0.24540 0.23430 0.41778
 H2022 H 0.24059 0.24873 0.38742
 H2023 H 0.26615 0.19909 0.36355
 H2024 H 0.27085 0.18479 0.39352
 H2025 H 0.27893 0.22529 0.34566
 H2026 H 0.27335 0.23408 0.31394
 H2027 H 0.21640 0.25356 0.32646
 H2028 H 0.22182 0.24419 0.35851
 C2029 C 0.75197 0.30748 0.43243
 C2030 C 0.75790 0.29882 0.44892
 C2031 C 0.75599 0.30841 0.46541
 C2032 C 0.74777 0.32684 0.46587
 C2033 C 0.74191 0.33539 0.44927
 C2034 C 0.74391 0.32587 0.43285
 C2035 C 0.75486 0.29797 0.41469
 C2036 C 0.74117 0.30015 0.40050
 C2037 C 0.74477 0.29334 0.38317
 C2038 C 0.76201 0.28393 0.37964
 C2039 C 0.77527 0.28067 0.39395
 C2040 C 0.77178 0.28773 0.41134
 C2041 C 0.76641 0.27898 0.36069
 C2042 C 0.77030 0.26002 0.35566
 C2043 C 0.77151 0.25530 0.33719
 C2044 C 0.76897 0.26956 0.32363
 C2045 C 0.76661 0.28874 0.32894
 C2046 C 0.76524 0.29335 0.34721
 H2047 H 0.76421 0.28469 0.44908
 H2048 H 0.76161 0.30150 0.47758
 H2049 H 0.73632 0.34984 0.44891
 H2050 H 0.73973 0.33327 0.42039
 H2051 H 0.72778 0.30749 0.40268
 H2052 H 0.73420 0.29575 0.37236
 H2053 H 0.78869 0.27348 0.39148
 H2054 H 0.78270 0.28591 0.42192
 H2055 H 0.77132 0.24873 0.36590
 H2056 H 0.77332 0.24041 0.33354
 H2057 H 0.76489 0.30016 0.31891
 H2058 H 0.76259 0.30812 0.35083
 C2059 C 0.25158 0.79919 0.93256
 C2060 C 0.26498 0.79978 0.94708
 C2061 C 0.26160 0.81096 0.96229
 C2062 C 0.24493 0.82223 0.96327
 C2063 C 0.23102 0.82073 0.94906
 C2064 C 0.23432 0.80930 0.93394
 C2065 C 0.25625 0.78940 0.91544
 C2066 C 0.24245 0.77766 0.90644
 C2067 C 0.24633 0.77004 0.88940
 C2068 C 0.26394 0.77433 0.88093
 C2069 C 0.27796 0.78557 0.89017
 C2070 C 0.27421 0.79290 0.90732
 C2071 C 0.26682 0.76885 0.86179
 C2072 C 0.27210 0.78305 0.84898
 C2073 C 0.27239 0.77877 0.83051
 C2074 C 0.26780 0.76010 0.82450
 C2075 C 0.26361 0.74557 0.83737
 C2076 C 0.26288 0.74998 0.85589
 H2077 H 0.27830 0.79192 0.94647
 H2078 H 0.27248 0.81149 0.97307
 H2079 H 0.21779 0.82861 0.94910
 H2080 H 0.22374 0.80907 0.92289
 H2081 H 0.22853 0.77468 0.91246
 H2082 H 0.23523 0.76157 0.88245
 H2083 H 0.29163 0.78907 0.88390
 H2084 H 0.28504 0.80204 0.91388
 H2085 H 0.27503 0.79773 0.85317
 H2086 H 0.27562 0.79021 0.82083
 H2087 H 0.25982 0.73112 0.83302
 H2088 H 0.25880 0.73880 0.86555
 C2089 C 0.24274 0.81906 0.06695
 C2090 C 0.23888 0.83841 0.06277
 C2091 C 0.23949 0.84536 0.04484
 C2092 C 0.24370 0.83309 0.03031
 C2093 C 0.24767 0.81366 0.03473
 C2094 C 0.24721 0.80682 0.05268
 C2095 C 0.24259 0.81176 0.08613
 C2096 C 0.23596 0.79295 0.09035
 C2097 C 0.23646 0.78598 0.10832
 C2098 C 0.24357 0.79765 0.12252
 C2099 C 0.24983 0.81656 0.11832
 C2100 C 0.24943 0.82348 0.10040
 C2101 C 0.24477 0.79025 0.14164
 C2102 C 0.26043 0.79579 0.15297
 C2103 C 0.26108 0.79025 0.17126
 C2104 C 0.24620 0.77881 0.17875
 C2105 C 0.23095 0.77241 0.16732
 C2106 C 0.23020 0.77815 0.14894
 H2107 H 0.23509 0.84823 0.07338
 H2108 H 0.23604 0.86027 0.04269
 H2109 H 0.25186 0.80358 0.02455
 H2110 H 0.25082 0.79196 0.05540
 H2111 H 0.23033 0.78361 0.07976
 H2112 H 0.23161 0.77133 0.11102
 H2113 H 0.25503 0.82612 0.12893
 H2114 H 0.25486 0.83794 0.09772
 H2115 H 0.27219 0.80460 0.14774
 H2116 H 0.27318 0.79520 0.17963
 H2117 H 0.21923 0.76367 0.17274
 H2118 H 0.21788 0.77367 0.14063
 C2119 C 0.74830 0.31670 0.56947
 C2120 C 0.74141 0.33528 0.56595
 C2121 C 0.74260 0.34360 0.54854
 C2122 C 0.75043 0.33338 0.53402
 C2123 C 0.75748 0.31478 0.53780
 C2124 C 0.75649 0.30664 0.55523
 C2125 C 0.74725 0.30789 0.58797
 C2126 C 0.76322 0.29826 0.59552
 C2127 C 0.76257 0.29047 0.61311
 C2128 C 0.74588 0.29195 0.62353
 C2129 C 0.72969 0.30108 0.61583
 C2130 C 0.73041 0.30909 0.59826
 C2131 C 0.74604 0.28541 0.64284
 C2132 C 0.73059 0.27457 0.65020
 C2133 C 0.73080 0.26925 0.66871
 C2134 C 0.74625 0.27511 0.68016
 C2135 C 0.76173 0.28570 0.67265
 C2136 C 0.76168 0.29067 0.65424
 H2137 H 0.73516 0.34345 0.57673
 H2138 H 0.73648 0.35766 0.54651
 H2139 H 0.76424 0.30648 0.52743
 H2140 H 0.76196 0.29230 0.55753
 H2141 H 0.77642 0.29719 0.58798
 H2142 H 0.77524 0.28346 0.61869
 H2143 H 0.71671 0.30258 0.62363
 H2144 H 0.71781 0.31625 0.59271
 H2145 H 0.71838 0.27028 0.64165
 H2146 H 0.71866 0.26117 0.67419
 H2147 H 0.77389 0.29035 0.68111
 H2148 H 0.77368 0.29917 0.64901
 C2149 C 0.26996 0.18241 0.56297
 C2150 C 0.27817 0.16505 0.55759
 C2151 C 0.27524 0.15820 0.53994
 C2152 C 0.26424 0.16864 0.52714
 C2153 C 0.25621 0.18609 0.53235
 C2154 C 0.25895 0.19285 0.55009
 C2155 C 0.27232 0.18918 0.58208
 C2156 C 0.27394 0.20893 0.58611
 C2157 C 0.27510 0.21512 0.60418
 C2158 C 0.27466 0.20169 0.61863
 C2159 C 0.27376 0.18196 0.61455
 C2160 C 0.27247 0.17580 0.59658
 C2161 C 0.27390 0.20794 0.63791
 C2162 C 0.26173 0.19790 0.64993
 C2163 C 0.26111 0.20291 0.66815
 C2164 C 0.27251 0.21826 0.67502
 C2165 C 0.28433 0.22879 0.66296
 C2166 C 0.28504 0.22364 0.64454
 H2167 H 0.28707 0.15680 0.56696
 H2168 H 0.28199 0.14493 0.53620
 H2169 H 0.24758 0.19439 0.52277
 H2170 H 0.25211 0.20608 0.55379
 H2171 H 0.27421 0.21964 0.57529
 H2172 H 0.27573 0.23041 0.60685
 H2173 H 0.27375 0.17119 0.62533
 H2174 H 0.27104 0.16051 0.59412
 H2175 H 0.25251 0.18614 0.64523
 H2176 H 0.25151 0.19466 0.67687
 H2177 H 0.29323 0.24072 0.66780
 H2178 H 0.29456 0.23168 0.63559
 C2179 C 0.77974 0.68603 0.06197
 C2180 C 0.78824 0.66878 0.05666
 C2181 C 0.78451 0.66124 0.03937
 C2182 C 0.77242 0.67090 0.02691
 C2183 C 0.76413 0.68825 0.03205
 C2184 C 0.76767 0.69568 0.04940
 C2185 C 0.78263 0.69339 0.08080
 C2186 C 0.78348 0.71329 0.08430
 C2187 C 0.78436 0.72002 0.10220
 C2188 C 0.78441 0.70698 0.11694
 C2189 C 0.78460 0.68714 0.11340
 C2190 C 0.78360 0.68044 0.09561
 C2191 C 0.78250 0.71365 0.13594
 C2192 C 0.76987 0.70362 0.14750
 C2193 C 0.76797 0.70908 0.16547
 C2194 C 0.77859 0.72486 0.17255
 C2195 C 0.79090 0.73537 0.16091
 C2196 C 0.79283 0.72981 0.14271
 H2197 H 0.79789 0.66112 0.06582
 H2198 H 0.79142 0.64805 0.03563
 H2199 H 0.75464 0.69591 0.02273
 H2200 H 0.76055 0.70876 0.05310
 H2201 H 0.78314 0.72369 0.07322
 H2202 H 0.78418 0.73538 0.10450
 H2203 H 0.78497 0.67671 0.12447
 H2204 H 0.78282 0.66504 0.09354
 H2205 H 0.76125 0.69150 0.14261
 H2206 H 0.75804 0.70079 0.17382
 H2207 H 0.79922 0.74763 0.16593
 H2208 H 0.80264 0.73786 0.13406
 C2209 C 0.14884 0.58172 0.25025
 C2210 C 0.15873 0.56429 0.24927
 C2211 C 0.14900 0.54657 0.25158
 C2212 C 0.12905 0.54578 0.25516
 C2213 C 0.11923 0.56332 0.25601
 C2214 C 0.12895 0.58099 0.25362
 C2215 C 0.15927 0.60059 0.24820
 C2216 C 0.15080 0.61604 0.23859
 C2217 C 0.16023 0.63406 0.23757
 C2218 C 0.17828 0.63708 0.24626
 C2219 C 0.18696 0.62149 0.25541
 C2220 C 0.17761 0.60349 0.25635
 C2221 C 0.18757 0.65660 0.24685
 C2222 C 0.19578 0.66324 0.26325
 C2223 C 0.20468 0.68138 0.26421
 C2224 C 0.20575 0.69353 0.24876
 C2225 C 0.19739 0.68702 0.23230
 C2226 C 0.18828 0.66876 0.23139
 H2227 H 0.17401 0.56434 0.24640
 H2228 H 0.15727 0.53371 0.25021
 H2229 H 0.10386 0.56332 0.25846
 H2230 H 0.12090 0.59412 0.25467
 H2231 H 0.13680 0.61421 0.23195
 H2232 H 0.15314 0.64580 0.23049
 H2233 H 0.20097 0.62329 0.26206
 H2234 H 0.18450 0.59199 0.26394
 H2235 H 0.19516 0.65442 0.27548
 H2236 H 0.21088 0.68578 0.27717
 H2237 H 0.19792 0.69598 0.22016
 H2238 H 0.18209 0.66401 0.21854
 C2239 C 0.65422 0.07637 0.75122
 C2240 C 0.66373 0.05870 0.75063
 C2241 C 0.65348 0.04121 0.75249
 C2242 C 0.63334 0.04089 0.75509
 C2243 C 0.62391 0.05867 0.75553
 C2244 C 0.63415 0.07611 0.75369
 C2245 C 0.66519 0.09501 0.74962
 C2246 C 0.65734 0.11079 0.74004
 C2247 C 0.66730 0.12854 0.73932
 C2248 C 0.68533 0.13096 0.74820
 C2249 C 0.69339 0.11504 0.75737
 C2250 C 0.68345 0.09733 0.75809
 C2251 C 0.69533 0.15017 0.74872
 C2252 C 0.70446 0.15639 0.76488
 C2253 C 0.71373 0.17438 0.76573
 C2254 C 0.71418 0.18678 0.75045
 C2255 C 0.70503 0.18062 0.73422
 C2256 C 0.69566 0.16252 0.73339
 H2257 H 0.67914 0.05836 0.74844
 H2258 H 0.66156 0.02818 0.75160
 H2259 H 0.60842 0.05903 0.75731
 H2260 H 0.62636 0.08942 0.75445
 H2261 H 0.64343 0.10944 0.73314
 H2262 H 0.66062 0.14052 0.73224
 H2263 H 0.70737 0.11631 0.76414
 H2264 H 0.68989 0.08557 0.76571
 H2265 H 0.70418 0.14745 0.77704
 H2266 H 0.72053 0.17856 0.77851
 H2267 H 0.70505 0.18979 0.72221
 H2268 H 0.68885 0.15811 0.72070
 C2269 C 0.85304 0.07237 0.24920
 C2270 C 0.86847 0.07198 0.23708
 C2271 C 0.87886 0.05511 0.23477
 C2272 C 0.87396 0.03806 0.24437
 C2273 C 0.85875 0.03873 0.25681
 C2274 C 0.84831 0.05552 0.25902
 C2275 C 0.84199 0.09028 0.25177
 C2276 C 0.82177 0.08941 0.25314
 C2277 C 0.81126 0.10619 0.25524
 C2278 C 0.82071 0.12428 0.25612
 C2279 C 0.84096 0.12514 0.25512
 C2280 C 0.85148 0.10834 0.25288
 C2281 C 0.80933 0.14218 0.25708
 C2282 C 0.81516 0.15748 0.26845
 C2283 C 0.80460 0.17452 0.26867
 C2284 C 0.78818 0.17667 0.25732
 C2285 C 0.78228 0.16124 0.24617
 C2286 C 0.79266 0.14424 0.24610
 H2287 H 0.87252 0.08476 0.22936
 H2288 H 0.89104 0.05573 0.22581
 H2289 H 0.85511 0.02628 0.26517
 H2290 H 0.83683 0.05546 0.26880
 H2291 H 0.81400 0.07576 0.25222
 H2292 H 0.79569 0.10503 0.25612
 H2293 H 0.84864 0.13887 0.25560
 H2294 H 0.86706 0.10946 0.25210
 H2295 H 0.82788 0.15625 0.27715
 H2296 H 0.80957 0.18618 0.27732
 H2297 H 0.76969 0.16237 0.23728
 H2298 H 0.78792 0.13285 0.23704
 C2299 C 0.35047 0.56562 0.75215
 C2300 C 0.36940 0.56575 0.74567
 C2301 C 0.37961 0.54868 0.74463
 C2302 C 0.37108 0.53086 0.74963
 C2303 C 0.35224 0.53084 0.75660
 C2304 C 0.34206 0.54800 0.75775
 C2305 C 0.33962 0.58385 0.75297
 C2306 C 0.32843 0.58808 0.76811
 C2307 C 0.31836 0.60535 0.76877
 C2308 C 0.31913 0.61864 0.75421
 C2309 C 0.33037 0.61440 0.73912
 C2310 C 0.34051 0.59725 0.73852
 C2311 C 0.30800 0.63673 0.75443
 C2312 C 0.29801 0.64289 0.73869
 C2313 C 0.28805 0.66014 0.73845
 C2314 C 0.28780 0.67181 0.75395
 C2315 C 0.29758 0.66553 0.76984
 C2316 C 0.30751 0.64812 0.77009
 H2317 H 0.37648 0.57915 0.74169
 H2318 H 0.39436 0.54946 0.74001
 H2319 H 0.34536 0.51777 0.76154
 H2320 H 0.32751 0.54746 0.76290
 H2321 H 0.32762 0.57811 0.77952
 H2322 H 0.30972 0.60818 0.78051
 H2323 H 0.33142 0.62444 0.72778
 H2324 H 0.34887 0.59435 0.72661
 H2325 H 0.29785 0.63429 0.72651
 H2326 H 0.28065 0.66440 0.72597
 H2327 H 0.29772 0.67413 0.78201
 H2328 H 0.31518 0.64378 0.78239
 C2329 C 0.36163 0.41930 0.74423
 C2330 C 0.37893 0.42302 0.75408
 C2331 C 0.38635 0.44187 0.75575
 C2332 C 0.37657 0.45746 0.74777
 C2333 C 0.35946 0.45367 0.73767
 C2334 C 0.35210 0.43489 0.73595
 C2335 C 0.35307 0.39945 0.74315
 C2336 C 0.34380 0.39294 0.72708
 C2337 C 0.33443 0.37487 0.72656
 C2338 C 0.33403 0.36290 0.74210
 C2339 C 0.34384 0.36915 0.75796
 C2340 C 0.35323 0.38716 0.75848
 C2341 C 0.32265 0.34443 0.74219
 C2342 C 0.31165 0.33927 0.75739
 C2343 C 0.30105 0.32198 0.75786
 C2344 C 0.30108 0.30923 0.74312
 C2345 C 0.31184 0.31448 0.72773
 C2346 C 0.32248 0.33192 0.72725
 H2347 H 0.38677 0.41134 0.76047
 H2348 H 0.39955 0.44425 0.76358
 H2349 H 0.35176 0.46522 0.73093
 H2350 H 0.33867 0.43263 0.72843
 H2351 H 0.34362 0.40191 0.71494
 H2352 H 0.32697 0.37054 0.71415
 H2353 H 0.34408 0.36017 0.77010
 H2354 H 0.36008 0.39173 0.77110
 H2355 H 0.31109 0.34872 0.76895
 H2356 H 0.29287 0.31859 0.76992
 H2357 H 0.31227 0.30501 0.71618
 H2358 H 0.33087 0.33545 0.71536
 C2359 C 0.86136 0.92811 0.24402
 C2360 C 0.85012 0.94437 0.24663
 C2361 C 0.85858 0.96276 0.24762
 C2362 C 0.87873 0.96582 0.24569
 C2363 C 0.88999 0.94922 0.24351
 C2364 C 0.88143 0.93077 0.24258
 C2365 C 0.85210 0.90852 0.24318
 C2366 C 0.85849 0.89455 0.23109
 C2367 C 0.84949 0.87627 0.23032
 C2368 C 0.83394 0.87151 0.24166
 C2369 C 0.82750 0.88557 0.25361
 C2370 C 0.83649 0.90372 0.25443
 C2371 C 0.82458 0.85194 0.24154
 C2372 C 0.81861 0.84339 0.25794
 C2373 C 0.80893 0.82560 0.25812
 C2374 C 0.80499 0.81562 0.24189
 C2375 C 0.81146 0.82381 0.22545
 C2376 C 0.82113 0.84181 0.22527
 H2377 H 0.83459 0.94296 0.24777
 H2378 H 0.84892 0.97435 0.25016
 H2379 H 0.90545 0.94999 0.24228
 H2380 H 0.89061 0.91851 0.24094
 H2381 H 0.87033 0.89781 0.22209
 H2382 H 0.85492 0.86577 0.22105
 H2383 H 0.81538 0.88258 0.26236
 H2384 H 0.83130 0.91396 0.26408
 H2385 H 0.82147 0.85046 0.27078
 H2386 H 0.80452 0.81968 0.27112
 H2387 H 0.80874 0.81649 0.21271
 H2388 H 0.82548 0.84801 0.21237
 C2389 C 0.64148 0.92925 0.75936
 C2390 C 0.65201 0.94446 0.76752
 C2391 C 0.64464 0.96307 0.76762
 C2392 C 0.62656 0.96705 0.75947
 C2393 C 0.61578 0.95172 0.75181
 C2394 C 0.62314 0.93309 0.75173
 C2395 C 0.64993 0.90970 0.75821
 C2396 C 0.64724 0.89869 0.74242
 C2397 C 0.65599 0.88083 0.74087
 C2398 C 0.66775 0.87346 0.75504
 C2399 C 0.67011 0.88426 0.77100
 C2400 C 0.66133 0.90215 0.77256
 C2401 C 0.67789 0.85489 0.75288
 C2402 C 0.67995 0.84177 0.76752
 C2403 C 0.68948 0.82435 0.76531
 C2404 C 0.69717 0.81962 0.74840
 C2405 C 0.69518 0.83280 0.73384
 C2406 C 0.68573 0.85018 0.73606
 H2407 H 0.66623 0.94213 0.77342
 H2408 H 0.65322 0.97435 0.77406
 H2409 H 0.60187 0.95413 0.74541
 H2410 H 0.61447 0.92167 0.74559
 H2411 H 0.63876 0.90410 0.73101
 H2412 H 0.65358 0.87279 0.72849
 H2413 H 0.67915 0.87912 0.78214
 H2414 H 0.66351 0.91009 0.78502
 H2415 H 0.67393 0.84483 0.78061
 H2416 H 0.69063 0.81450 0.77679
 H2417 H 0.70100 0.82976 0.72065
 H2418 H 0.68477 0.86006 0.72460
 C2419 C 0.13867 0.43373 0.25642
 C2420 C 0.14866 0.44934 0.24834
 C2421 C 0.14147 0.46798 0.24898
 C2422 C 0.12413 0.47167 0.25789
 C2423 C 0.11411 0.45604 0.26594
 C2424 C 0.12129 0.43734 0.26525
 C2425 C 0.14632 0.41383 0.25545
 C2426 C 0.14486 0.40089 0.27027
 C2427 C 0.15240 0.38235 0.26935
 C2428 C 0.16158 0.37626 0.25358
 C2429 C 0.16295 0.38920 0.23877
 C2430 C 0.15538 0.40766 0.23966
 C2431 C 0.16993 0.35665 0.25252
 C2432 C 0.16907 0.34650 0.23609
 C2433 C 0.17802 0.32875 0.23460
 C2434 C 0.18798 0.32051 0.24953
 C2435 C 0.18826 0.33028 0.26617
 C2436 C 0.17939 0.34816 0.26764
 H2437 H 0.16219 0.44720 0.24159
 H2438 H 0.14946 0.47943 0.24221
 H2439 H 0.10079 0.45814 0.27293
 H2440 H 0.11307 0.42566 0.27143
 H2441 H 0.13815 0.40519 0.28271
 H2442 H 0.15091 0.37273 0.28096
 H2443 H 0.17016 0.38518 0.22650
 H2444 H 0.15654 0.41708 0.22788
 H2445 H 0.16153 0.35232 0.22429
 H2446 H 0.17728 0.32156 0.22162
 H2447 H 0.19584 0.32440 0.27794
 H2448 H 0.18050 0.35561 0.28046
 C2449 C 0.07564 0.21510 0.82733
 C2450 C 0.05689 0.21453 0.81975
 C2451 C 0.04124 0.22032 0.82989
 C2452 C 0.04412 0.22723 0.84769
 C2453 C 0.06273 0.22629 0.85561
 C2454 C 0.07832 0.22064 0.84549
 C2455 C 0.09266 0.21146 0.81616
 C2456 C 0.10891 0.20257 0.82394
 C2457 C 0.12637 0.20287 0.81487
 C2458 C 0.12783 0.21175 0.79766
 C2459 C 0.11110 0.21906 0.78919
 C2460 C 0.09369 0.21903 0.79840
 C2461 C 0.14702 0.21497 0.78952
 C2462 C 0.15139 0.23241 0.78041
 C2463 C 0.17000 0.23628 0.77426
 C2464 C 0.18467 0.22297 0.77746
 C2465 C 0.18029 0.20546 0.78632
 C2466 C 0.16161 0.20139 0.79210
 H2467 H 0.05435 0.20973 0.80594
 H2468 H 0.02699 0.21925 0.82368
 H2469 H 0.06538 0.23027 0.86964
 H2470 H 0.09258 0.22128 0.85178
 H2471 H 0.10840 0.19622 0.83745
 H2472 H 0.13894 0.19716 0.82188
 H2473 H 0.11165 0.22554 0.77574
 H2474 H 0.08140 0.22600 0.79204
 H2475 H 0.14061 0.24336 0.77853
 H2476 H 0.17305 0.24989 0.76745
 H2477 H 0.19130 0.19483 0.78868
 H2478 H 0.15866 0.18768 0.79874
 C2479 C 0.57608 0.72702 0.32151
 C2480 C 0.55743 0.72636 0.31367
 C2481 C 0.54133 0.73002 0.32416
 C2482 C 0.54364 0.73462 0.34269
 C2483 C 0.56233 0.73471 0.35051
 C2484 C 0.57833 0.73117 0.34005
 C2485 C 0.59335 0.72418 0.31045
 C2486 C 0.60925 0.71441 0.31789
 C2487 C 0.62667 0.71434 0.30879
 C2488 C 0.62848 0.72380 0.29190
 C2489 C 0.61216 0.73241 0.28385
 C2490 C 0.59476 0.73267 0.29309
 C2491 C 0.64772 0.72603 0.28360
 C2492 C 0.65322 0.74355 0.27520
 C2493 C 0.67200 0.74643 0.26909
 C2494 C 0.68569 0.73199 0.27159
 C2495 C 0.68013 0.71433 0.27955
 C2496 C 0.66127 0.71131 0.28534
 H2497 H 0.55529 0.72284 0.29946
 H2498 H 0.52728 0.72890 0.31764
 H2499 H 0.56458 0.73770 0.36482
 H2500 H 0.59252 0.73207 0.34646
 H2501 H 0.60843 0.70738 0.33109
 H2502 H 0.63896 0.70771 0.31547
 H2503 H 0.61301 0.73946 0.27068
 H2504 H 0.58273 0.74034 0.28703
 H2505 H 0.64324 0.75531 0.27394
 H2506 H 0.67600 0.76017 0.26297
 H2507 H 0.69037 0.70282 0.28125
 H2508 H 0.65738 0.69751 0.29139
 C2509 C 0.54995 0.25116 0.19471
 C2510 C 0.54673 0.23440 0.18455
 C2511 C 0.53179 0.23345 0.17162
 C2512 C 0.51992 0.24940 0.16839
 C2513 C 0.52182 0.26522 0.18013
 C2514 C 0.53684 0.26621 0.19300
 C2515 C 0.56831 0.25378 0.20499
 C2516 C 0.57923 0.27089 0.20275
 C2517 C 0.59824 0.27213 0.20929
 C2518 C 0.60663 0.25630 0.21819
 C2519 C 0.59531 0.23963 0.22144
 C2520 C 0.57630 0.23839 0.21490
 C2521 C 0.62744 0.25657 0.22297
 C2522 C 0.63393 0.24829 0.23939
 C2523 C 0.65362 0.24711 0.24328
 C2524 C 0.66728 0.25425 0.23084
 C2525 C 0.66079 0.26295 0.21458
 C2526 C 0.64103 0.26406 0.21066
 H2527 H 0.55652 0.22247 0.18572
 H2528 H 0.53022 0.22038 0.16396
 H2529 H 0.51237 0.27739 0.17853
 H2530 H 0.53874 0.27910 0.20103
 H2531 H 0.57350 0.28290 0.19498
 H2532 H 0.60658 0.28524 0.20688
 H2533 H 0.60145 0.22717 0.22819
 H2534 H 0.56812 0.22511 0.21691
 H2535 H 0.62376 0.24265 0.24921
 H2536 H 0.65810 0.24055 0.25607
 H2537 H 0.67095 0.26861 0.20476
 H2538 H 0.63639 0.27029 0.19777
 C2539 C 0.05389 0.75675 0.68573
 C2540 C 0.04831 0.73952 0.67717
 C2541 C 0.03257 0.73905 0.66509
 C2542 C 0.02248 0.75594 0.66086
 C2543 C 0.02678 0.77260 0.67100
 C2544 C 0.04247 0.77305 0.68316
 C2545 C 0.07258 0.75814 0.69568
 C2546 C 0.08490 0.77418 0.69285
 C2547 C 0.10374 0.77433 0.69988
 C2548 C 0.11062 0.75842 0.70981
 C2549 C 0.09801 0.74279 0.71339
 C2550 C 0.07914 0.74267 0.70643
 C2551 C 0.13114 0.75762 0.71560
 C2552 C 0.13626 0.74959 0.73256
 C2553 C 0.15561 0.74760 0.73753
 C2554 C 0.17028 0.75373 0.72571
 C2555 C 0.16519 0.76218 0.70891
 C2556 C 0.14578 0.76404 0.70387
 H2557 H 0.05670 0.72663 0.67900
 H2558 H 0.02887 0.72562 0.65845
 H2559 H 0.01838 0.78547 0.66934
 H2560 H 0.04602 0.78631 0.69017
 H2561 H 0.08032 0.78622 0.68445
 H2562 H 0.11306 0.78670 0.69719
 H2563 H 0.10295 0.73026 0.72090
 H2564 H 0.06987 0.73023 0.70899
 H2565 H 0.12528 0.74482 0.74199
 H2566 H 0.15905 0.74128 0.75071
 H2567 H 0.17619 0.76702 0.69952
 H2568 H 0.14223 0.77004 0.69058
 C2569 C 0.91593 0.73021 0.65092
 C2570 C 0.91953 0.74502 0.63818
 C2571 C 0.93842 0.75010 0.63364
 C2572 C 0.95403 0.74053 0.64183
 C2573 C 0.95043 0.72501 0.65377
 C2574 C 0.93153 0.71984 0.65823
 C2575 C 0.89633 0.72736 0.65822
 C2576 C 0.89400 0.72533 0.67707
 C2577 C 0.87570 0.72596 0.68449
 C2578 C 0.85937 0.72866 0.67323
 C2579 C 0.86149 0.72947 0.65430
 C2580 C 0.87986 0.72886 0.64684
 C2581 C 0.84052 0.73216 0.68143
 C2582 C 0.82357 0.72310 0.67477
 C2583 C 0.80591 0.72630 0.68298
 C2584 C 0.80494 0.73873 0.69788
 C2585 C 0.82189 0.74813 0.70416
 C2586 C 0.83947 0.74486 0.69603
 H2587 H 0.90783 0.75346 0.63253
 H2588 H 0.94080 0.76219 0.62450
 H2589 H 0.96224 0.71710 0.65992
 H2590 H 0.92914 0.70815 0.66785
 H2591 H 0.90640 0.72437 0.68621
 H2592 H 0.87437 0.72500 0.69913
 H2593 H 0.84907 0.73154 0.64536
 H2594 H 0.88126 0.73023 0.63224
 H2595 H 0.82406 0.71325 0.66351
 H2596 H 0.79311 0.71883 0.67782
 H2597 H 0.82168 0.75785 0.71555
 H2598 H 0.85230 0.75233 0.70115
 C2599 C 0.41048 0.24898 0.14936
 C2600 C 0.42265 0.23836 0.16106
 C2601 C 0.44264 0.23944 0.15918
 C2602 C 0.45088 0.25126 0.14564
 C2603 C 0.43866 0.26160 0.13379
 C2604 C 0.41869 0.26044 0.13559
 C2605 C 0.38945 0.24911 0.15237
 C2606 C 0.37950 0.26653 0.15131
 C2607 C 0.36032 0.26725 0.15657
 C2608 C 0.35078 0.25061 0.16310
 C2609 C 0.36032 0.23297 0.16306
 C2610 C 0.37950 0.23222 0.15772
 C2611 C 0.33195 0.25205 0.17199
 C2612 C 0.31758 0.23768 0.16979
 C2613 C 0.30084 0.23801 0.18003
 C2614 C 0.29826 0.25266 0.19272
 C2615 C 0.31234 0.26741 0.19436
 C2616 C 0.32899 0.26710 0.18412
 H2617 H 0.41675 0.22960 0.17197
 H2618 H 0.45160 0.23094 0.16830
 H2619 H 0.44443 0.27093 0.12333
 H2620 H 0.40966 0.26865 0.12628
 H2621 H 0.38681 0.27980 0.14735
 H2622 H 0.35318 0.28098 0.15625
 H2623 H 0.35334 0.21994 0.16813
 H2624 H 0.38675 0.21855 0.15834
 H2625 H 0.31948 0.22601 0.16040
 H2626 H 0.29019 0.22650 0.17837
 H2627 H 0.31077 0.27898 0.20392
 H2628 H 0.33996 0.27820 0.18631
 C2629 C 0.43327 0.75383 0.34435
 C2630 C 0.44261 0.76499 0.35776
 C2631 C 0.46203 0.76204 0.36216
 C2632 C 0.47241 0.74806 0.35305
 C2633 C 0.46320 0.73722 0.33936
 C2634 C 0.44375 0.74002 0.33510
 C2635 C 0.41265 0.75647 0.33983
 C2636 C 0.40037 0.74032 0.33781
 C2637 C 0.38147 0.74245 0.33145
 C2638 C 0.37454 0.76078 0.32685
 C2639 C 0.38643 0.77707 0.32994
 C2640 C 0.40539 0.77493 0.33643
 C2641 C 0.35585 0.76251 0.31703
 C2642 C 0.34267 0.77683 0.32126
 C2643 C 0.32521 0.77828 0.31145
 C2644 C 0.32082 0.76555 0.29717
 C2645 C 0.33418 0.75138 0.29295
 C2646 C 0.35144 0.74990 0.30275
 H2647 H 0.43479 0.77573 0.36502
 H2648 H 0.46896 0.77073 0.37262
 H2649 H 0.47091 0.72629 0.33225
 H2650 H 0.43689 0.73144 0.32452
 H2651 H 0.40556 0.72598 0.34074
 H2652 H 0.37243 0.72970 0.32953
 H2653 H 0.38144 0.79133 0.32639
 H2654 H 0.41465 0.78758 0.33788
 H2655 H 0.34581 0.78673 0.33223
 H2656 H 0.31521 0.78934 0.31502
 H2657 H 0.33137 0.74133 0.28204
 H2658 H 0.36152 0.73901 0.29893
 C2659 C 0.94188 0.26669 0.83940
 C2660 C 0.94291 0.25796 0.85670
 C2661 C 0.96053 0.25182 0.86394
 C2662 C 0.97762 0.25397 0.85393
 C2663 C 0.97656 0.26323 0.83679
 C2664 C 0.95898 0.26969 0.82974
 C2665 C 0.92286 0.27096 0.83082
 C2666 C 0.91963 0.26733 0.81225
 C2667 C 0.90121 0.26882 0.80453
 C2668 C 0.88551 0.27368 0.81523
 C2669 C 0.88884 0.27837 0.83355
 C2670 C 0.90737 0.27707 0.84127
 C2671 C 0.86564 0.27228 0.80754
 C2672 C 0.85167 0.28590 0.81159
 C2673 C 0.83298 0.28424 0.80410
 C2674 C 0.82804 0.26896 0.79244
 C2675 C 0.84197 0.25522 0.78870
 C2676 C 0.86049 0.25682 0.79622
 H2677 H 0.92995 0.25499 0.86433
 H2678 H 0.96029 0.24420 0.87684
 H2679 H 0.98932 0.26604 0.82887
 H2680 H 0.95877 0.27684 0.81658
 H2681 H 0.93113 0.26241 0.80381
 H2682 H 0.89914 0.26553 0.79027
 H2683 H 0.87699 0.28216 0.84211
 H2684 H 0.90947 0.28032 0.85554
 H2685 H 0.85528 0.29797 0.82026
 H2686 H 0.82254 0.29507 0.80718
 H2687 H 0.83859 0.24313 0.77998
 H2688 H 0.87078 0.24580 0.79327
 C2689 C 0.55325 0.99429 0.69766
 C2690 C 0.55949 1.01313 0.70179
 C2691 C 0.57208 1.01662 0.71649
 C2692 C 0.57916 1.00136 0.72733
 C2693 C 0.57209 0.98264 0.72382
 C2694 C 0.55928 0.97915 0.70920
 C2695 C 0.54194 0.99045 0.68056
 C2696 C 0.54549 0.97396 0.67035
 C2697 C 0.53710 0.97163 0.65308
 C2698 C 0.52517 0.98585 0.64538
 C2699 C 0.52065 1.00177 0.65599
 C2700 C 0.52885 1.00398 0.67341
 C2701 C 0.51899 0.98484 0.62589
 C2702 C 0.50086 0.99143 0.61974
 C2703 C 0.49580 0.99117 0.60117
 C2704 C 0.50876 0.98428 0.58839
 C2705 C 0.52678 0.97761 0.59464
 C2706 C 0.53183 0.97797 0.61305
 H2707 H 0.55534 1.02520 0.69324
 H2708 H 0.57648 1.03137 0.71908
 H2709 H 0.57687 0.97051 0.73189
 H2710 H 0.55441 0.96449 0.70674
 H2711 H 0.55554 0.96326 0.67525
 H2712 H 0.54051 0.95893 0.64549
 H2713 H 0.51153 1.01301 0.65053
 H2714 H 0.52538 1.01663 0.68104
 H2715 H 0.49057 0.99672 0.62928
 H2716 H 0.48180 0.99639 0.59683
 H2717 H 0.53726 0.97234 0.58526
 H2718 H 0.54611 0.97328 0.61714
 C2719 C 0.05309 0.49503 1.19696
 C2720 C 0.06081 0.48030 1.20809
 C2721 C 0.07249 0.48474 1.22330
 C2722 C 0.07657 0.50400 1.22781
 C2723 C 0.06788 0.51866 1.21736
 C2724 C 0.05644 0.51426 1.20209
 C2725 C 0.04315 0.49062 1.17927
 C2726 C 0.02859 0.50257 1.17212
 C2727 C 0.02150 0.50021 1.15431
 C2728 C 0.02862 0.48568 1.14329
 C2729 C 0.04213 0.47288 1.15090
 C2730 C 0.04942 0.47541 1.16857
 C2731 C 0.02326 0.48477 1.12358
 C2732 C 0.03729 0.48003 1.11092
 C2733 C 0.03286 0.47977 1.09237
 C2734 C 0.01431 0.48447 1.08582
 C2735 C 0.00020 0.48928 1.09839
 C2736 C 0.00462 0.48936 1.11710
 H2737 H 0.05824 0.46531 1.20481
 H2738 H 0.07898 0.47307 1.23098
 H2739 H 0.07031 0.53366 1.22069
 H2740 H 0.05100 0.52605 1.19385
 H2741 H 0.02305 0.51415 1.18008
 H2742 H 0.01111 0.51035 1.14895
 H2743 H 0.04757 0.46120 1.14300
 H2744 H 0.06068 0.46597 1.17344
 H2745 H 0.05194 0.47695 1.11528
 H2746 H 0.04419 0.47621 1.08312
 H2747 H -0.01424 0.49292 1.09381
 H2748 H -0.00659 0.49294 1.12646
 C2749 C -0.05913 -0.01512 1.17971
 C2750 C -0.05999 0.00437 1.18451
 C2751 C -0.06955 0.00981 1.20017
 C2752 C -0.07844 -0.00410 1.21144
 C2753 C -0.07705 -0.02362 1.20697
 C2754 C -0.06755 -0.02907 1.19127
 C2755 C -0.05051 -0.02066 1.16216
 C2756 C -0.05968 -0.03463 1.15113
 C2757 C -0.05284 -0.03838 1.13379
 C2758 C -0.03663 -0.02830 1.12704
 C2759 C -0.02691 -0.01499 1.13840
 C2760 C -0.03379 -0.01119 1.15574
 C2761 C -0.03109 -0.03013 1.10768
 C2762 C -0.01158 -0.02987 1.10260
 C2763 C -0.00663 -0.02892 1.08419
 C2764 C -0.02111 -0.02795 1.07056
 C2765 C -0.04056 -0.02931 1.07565
 C2766 C -0.04548 -0.03044 1.09395
 H2767 H -0.05386 0.01552 1.17584
 H2768 H -0.07018 0.02496 1.20333
 H2769 H -0.08391 -0.03468 1.21519
 H2770 H -0.06700 -0.04421 1.18805
 H2771 H -0.07267 -0.04209 1.15558
 H2772 H -0.06054 -0.04884 1.12544
 H2773 H -0.01450 -0.00685 1.13357
 H2774 H -0.02624 -0.00054 1.16398
 H2775 H -0.00016 -0.02983 1.11287
 H2776 H 0.00848 -0.02780 1.08071
 H2777 H -0.05206 -0.02864 1.06548
 H2778 H -0.06062 -0.03044 1.09735
 C2779 C 0.43959 0.48442 0.68383
 C2780 C 0.43275 0.46912 0.69477
 C2781 C 0.42275 0.47280 0.71070
 C2782 C 0.41953 0.49184 0.71597
 C2783 C 0.42733 0.50706 0.70550
 C2784 C 0.43718 0.50339 0.68960
 C2785 C 0.44768 0.48089 0.66569
 C2786 C 0.44087 0.49151 0.65061
 C2787 C 0.44795 0.48832 0.63334
 C2788 C 0.46212 0.47451 0.63069
 C2789 C 0.46919 0.46397 0.64575
 C2790 C 0.46185 0.46699 0.66313
 C2791 C 0.46928 0.47157 0.61209
 C2792 C 0.48915 0.47238 0.60843
 C2793 C 0.49544 0.47348 0.59040
 C2794 C 0.48192 0.47379 0.57589
 C2795 C 0.46220 0.47131 0.57966
 C2796 C 0.45597 0.47021 0.59753
 H2797 H 0.43432 0.45437 0.69054
 H2798 H 0.41679 0.46077 0.71839
 H2799 H 0.42554 0.52187 0.70944
 H2800 H 0.44260 0.51544 0.68157
 H2801 H 0.42982 0.50215 0.65214
 H2802 H 0.44243 0.49681 0.62201
 H2803 H 0.48013 0.45326 0.64403
 H2804 H 0.46735 0.45866 0.67457
 H2805 H 0.49969 0.47345 0.61946
 H2806 H 0.51072 0.47540 0.58789
 H2807 H 0.45144 0.47118 0.56876
 H2808 H 0.44061 0.46921 0.60000
 C2809 C 0.45331 0.49324 -0.19277
 C2810 C 0.44405 0.47641 -0.19940
 C2811 C 0.43056 0.47740 -0.21385
 C2812 C 0.42599 0.49523 -0.22180
 C2813 C 0.43613 0.51183 -0.21593
 C2814 C 0.44959 0.51085 -0.20161
 C2815 C 0.46495 0.49298 -0.17552
 C2816 C 0.48116 0.50535 -0.17305
 C2817 C 0.48992 0.50749 -0.15581
 C2818 C 0.48253 0.49739 -0.14075
 C2819 C 0.46717 0.48413 -0.14348
 C2820 C 0.45849 0.48195 -0.16063
 C2821 C 0.48938 0.50169 -0.12195
 C2822 C 0.47568 0.50440 -0.10848
 C2823 C 0.48142 0.50669 -0.09041
 C2824 C 0.50105 0.50632 -0.08521
 C2825 C 0.51497 0.50488 -0.09878
 C2826 C 0.50915 0.50260 -0.11708
 H2827 H 0.44678 0.46256 -0.19304
 H2828 H 0.42304 0.46438 -0.21815
 H2829 H 0.43323 0.52574 -0.22209
 H2830 H 0.45629 0.52411 -0.19682
 H2831 H 0.48666 0.51386 -0.18431
 H2832 H 0.50177 0.51775 -0.15409
 H2833 H 0.46138 0.47592 -0.13213
 H2834 H 0.44598 0.47244 -0.16194
 H2835 H 0.46038 0.50435 -0.11190
 H2836 H 0.47034 0.50812 -0.08034
 H2837 H 0.53019 0.50451 -0.09514
 H2838 H 0.52000 0.50070 -0.12727
 C2839 C -0.04885 0.99938 0.30637
 C2840 C -0.05848 0.98285 0.29948
 C2841 C -0.07035 0.98404 0.28383
 C2842 C -0.07291 1.00178 0.27488
 C2843 C -0.06232 1.01797 0.28107
 C2844 C -0.05047 1.01680 0.29660
 C2845 C -0.03891 0.99914 0.32455
 C2846 C -0.02229 1.01066 0.32805
 C2847 C -0.01481 1.01262 0.34581
 C2848 C -0.02384 1.00318 0.36045
 C2849 C -0.03978 0.99085 0.35679
 C2850 C -0.04723 0.98887 0.33911
 C2851 C -0.01764 1.00687 0.37961
 C2852 C -0.03172 1.00924 0.39283
 C2853 C -0.02648 1.01110 0.41110
 C2854 C -0.00697 1.01071 0.41677
 C2855 C 0.00729 1.00952 0.40351
 C2856 C 0.00199 1.00762 0.38504
 H2857 H -0.05731 0.96913 0.30652
 H2858 H -0.07831 0.97133 0.27933
 H2859 H -0.06373 1.03179 0.27424
 H2860 H -0.04345 1.02985 0.30151
 H2861 H -0.01536 1.01856 0.31711
 H2862 H -0.00248 1.02217 0.34818
 H2863 H -0.04683 0.98305 0.36773
 H2864 H -0.06011 0.98003 0.33702
 H2865 H -0.04691 1.00934 0.38905
 H2866 H -0.03783 1.01230 0.42092
 H2867 H 0.02242 1.00910 0.40748
 H2868 H 0.01317 1.00592 0.37513
 C2869 C 0.05889 0.50143 0.32349
 C2870 C 0.06238 0.52002 0.31641
 C2871 C 0.07294 0.52275 0.30057
 C2872 C 0.08043 0.50697 0.29142
 C2873 C 0.07610 0.48831 0.29800
 C2874 C 0.06542 0.48556 0.31386
 C2875 C 0.04977 0.49887 0.34153
 C2876 C 0.03548 0.48458 0.34467
 C2877 C 0.02737 0.48227 0.36195
 C2878 C 0.03372 0.49397 0.37642
 C2879 C 0.04792 0.50827 0.37317
 C2880 C 0.05580 0.51072 0.35598
 C2881 C 0.02603 0.49148 0.39504
 C2882 C 0.03892 0.49164 0.40999
 C2883 C 0.03210 0.49252 0.42765
 C2884 C 0.01218 0.49327 0.43087
 C2885 C -0.00085 0.49160 0.41603
 C2886 C 0.00605 0.49071 0.39821
 H2887 H 0.05717 0.53252 0.32332
 H2888 H 0.07540 0.53732 0.29562
 H2889 H 0.08160 0.47583 0.29138
 H2890 H 0.06303 0.47106 0.31904
 H2891 H 0.03051 0.47530 0.33375
 H2892 H 0.01645 0.47114 0.36411
 H2893 H 0.05293 0.51766 0.38400
 H2894 H 0.06693 0.52170 0.35407
 H2895 H 0.05438 0.49183 0.40798
 H2896 H 0.04254 0.49346 0.43878
 H2897 H -0.01627 0.49218 0.41809
 H2898 H -0.00419 0.49055 0.38689
 C2899 C 0.56054 -0.00191 -0.17824
 C2900 C 0.56398 0.01658 -0.18558
 C2901 C 0.57505 0.01915 -0.20111
 C2902 C 0.58305 0.00328 -0.20970
 C2903 C 0.57892 -0.01531 -0.20285
 C2904 C 0.56774 -0.01789 -0.18727
 C2905 C 0.55081 -0.00420 -0.16046
 C2906 C 0.53668 -0.01869 -0.15744
 C2907 C 0.52806 -0.02077 -0.14037
 C2908 C 0.53373 -0.00864 -0.12600
 C2909 C 0.54772 0.00589 -0.12915
 C2910 C 0.55610 0.00811 -0.14613
 C2911 C 0.52577 -0.01107 -0.10749
 C2912 C 0.53849 -0.01078 -0.09242
 C2913 C 0.53147 -0.00989 -0.07486
 C2914 C 0.51151 -0.00924 -0.07183
 C2915 C 0.49864 -0.01101 -0.08678
 C2916 C 0.50575 -0.01192 -0.10453
 H2917 H 0.55832 0.02915 -0.17911
 H2918 H 0.57751 0.03363 -0.20630
 H2919 H 0.58498 -0.02782 -0.20904
 H2920 H 0.56544 -0.03229 -0.18184
 H2921 H 0.53227 -0.02831 -0.16828
 H2922 H 0.51732 -0.03209 -0.13827
 H2923 H 0.55222 0.01557 -0.11837
 H2924 H 0.56709 0.01924 -0.14794
 H2925 H 0.55398 -0.01052 -0.09429
 H2926 H 0.54179 -0.00890 -0.06362
 H2927 H 0.48319 -0.01053 -0.08485
 H2928 H 0.49565 -0.01219 -0.11596
 C2929 C 0.69975 0.60149 -0.00745
 C2930 C 0.71852 0.59396 -0.00647
 C2931 C 0.73480 0.60628 -0.00517
 C2932 C 0.73258 0.62628 -0.00496
 C2933 C 0.71391 0.63375 -0.00497
 C2934 C 0.69770 0.62152 -0.00605
 C2935 C 0.68238 0.58877 -0.01054
 C2936 C 0.66675 0.59513 -0.02144
 C2937 C 0.65001 0.58371 -0.02367
 C2938 C 0.64847 0.56553 -0.01518
 C2939 C 0.66441 0.55883 -0.00490
 C2940 C 0.68110 0.57032 -0.00255
 C2941 C 0.62988 0.55426 -0.01587
 C2942 C 0.62360 0.54429 -0.00030
 C2943 C 0.60569 0.53478 -0.00018
 C2944 C 0.59332 0.53499 -0.01562
 C2945 C 0.59970 0.54456 -0.03142
 C2946 C 0.61779 0.55412 -0.03154
 H2947 H 0.72069 0.57864 -0.00760
 H2948 H 0.74910 0.60027 -0.00550
 H2949 H 0.71191 0.64918 -0.00486
 H2950 H 0.68353 0.62783 -0.00620
 H2951 H 0.66737 0.60906 -0.02820
 H2952 H 0.63803 0.58944 -0.03157
 H2953 H 0.66391 0.54475 0.00158
 H2954 H 0.69279 0.56491 0.00593
 H2955 H 0.63225 0.54434 0.01213
 H2956 H 0.60141 0.52755 0.01228
 H2957 H 0.59057 0.54501 -0.04354
 H2958 H 0.62225 0.56150 -0.04386
 C2959 C 0.19293 1.10158 0.48971
 C2960 C 0.21129 1.09411 0.49399
 C2961 C 0.22771 1.10626 0.49486
 C2962 C 0.22613 1.12604 0.49126
 C2963 C 0.20778 1.13360 0.48762
 C2964 C 0.19139 1.12157 0.48698
 C2965 C 0.17543 1.08874 0.48789
 C2966 C 0.16074 1.09295 0.47500
 C2967 C 0.14380 1.08165 0.47394
 C2968 C 0.14112 1.06569 0.48561
 C2969 C 0.15614 1.06102 0.49800
 C2970 C 0.17300 1.07243 0.49918
 C2971 C 0.12234 1.05470 0.48568
 C2972 C 0.11482 1.04784 0.50219
 C2973 C 0.09687 1.03839 0.50268
 C2974 C 0.08569 1.03560 0.48669
 C2975 C 0.09322 1.04224 0.47008
 C2976 C 0.11136 1.05164 0.46958
 H2977 H 0.21309 1.07879 0.49606
 H2978 H 0.24173 1.10009 0.49747
 H2979 H 0.20617 1.14887 0.48499
 H2980 H 0.17750 1.12798 0.48424
 H2981 H 0.16225 1.10510 0.46574
 H2982 H 0.13256 1.08582 0.46432
 H2983 H 0.15480 1.04861 0.50698
 H2984 H 0.18390 1.06873 0.50931
 H2985 H 0.12254 1.05026 0.51492
 H2986 H 0.09160 1.03364 0.51579
 H2987 H 0.08504 1.04032 0.45751
 H2988 H 0.11678 1.05652 0.45657
 C2989 C 0.17939 -0.09932 1.00166
 C2990 C 0.18761 -0.10963 1.01635
 C2991 C 0.20339 -0.12155 1.01374
 C2992 C 0.21107 -0.12363 0.99637
 C2993 C 0.20299 -0.11316 0.98173
 C2994 C 0.18742 -0.10105 0.98436
 C2995 C 0.16211 -0.08728 1.00412
 C2996 C 0.16094 -0.06901 0.99582
 C2997 C 0.14421 -0.05819 0.99710
 C2998 C 0.12806 -0.06545 1.00652
 C2999 C 0.12945 -0.08355 1.01523
 C3000 C 0.14630 -0.09429 1.01411
 C3001 C 0.10960 -0.05463 1.00645
 C3002 C 0.09744 -0.05502 1.02159
 C3003 C 0.07972 -0.04553 1.02100
 C3004 C 0.07378 -0.03532 1.00528
 C3005 C 0.08613 -0.03467 0.99031
 C3006 C 0.10369 -0.04422 0.99085
 H3007 H 0.18179 -0.10851 1.02984
 H3008 H 0.20914 -0.12964 1.02520
 H3009 H 0.20869 -0.11443 0.96820
 H3010 H 0.18130 -0.09343 0.97274
 H3011 H 0.17301 -0.06309 0.98827
 H3012 H 0.14390 -0.04413 0.99058
 H3013 H 0.11727 -0.08977 1.02240
 H3014 H 0.14669 -0.10841 1.02050
 H3015 H 0.10160 -0.06266 1.03392
 H3016 H 0.07063 -0.04633 1.03280
 H3017 H 0.08205 -0.02711 0.97789
 H3018 H 0.11240 -0.04387 0.97879
 C3019 C 0.68106 0.39840 0.51156
 C3020 C 0.67795 0.37974 0.50478
 C3021 C 0.69350 0.36787 0.50139
 C3022 C 0.71261 0.37433 0.50468
 C3023 C 0.71576 0.39281 0.51184
 C3024 C 0.70016 0.40475 0.51518
 C3025 C 0.66440 0.41129 0.51418
 C3026 C 0.66560 0.43087 0.50913
 C3027 C 0.64947 0.44261 0.51024
 C3028 C 0.63174 0.43508 0.51647
 C3029 C 0.63072 0.41565 0.52205
 C3030 C 0.64684 0.40392 0.52092
 C3031 C 0.61411 0.44708 0.51623
 C3032 C 0.60048 0.44533 0.53013
 C3033 C 0.58320 0.45547 0.52908
 C3034 C 0.57908 0.46758 0.51407
 C3035 C 0.59300 0.46978 0.50048
 C3036 C 0.61027 0.45968 0.50155
 H3037 H 0.66347 0.37444 0.50164
 H3038 H 0.69053 0.35361 0.49614
 H3039 H 0.73030 0.39829 0.51438
 H3040 H 0.70306 0.41897 0.52056
 H3041 H 0.67884 0.43699 0.50376
 H3042 H 0.65082 0.45756 0.50605
 H3043 H 0.61728 0.40931 0.52674
 H3044 H 0.64548 0.38897 0.52515
 H3045 H 0.60309 0.43595 0.54175
 H3046 H 0.57285 0.45340 0.53982
 H3047 H 0.59036 0.47893 0.48870
 H3048 H 0.62030 0.46121 0.49050
 C3049 C -0.19052 0.40921 0.49758
 C3050 C -0.20351 0.40769 0.48271
 C3051 C -0.21885 0.39435 0.48299
 C3052 C -0.22180 0.38239 0.49825
 C3053 C -0.20970 0.38464 0.51360
 C3054 C -0.19410 0.39786 0.51325
 C3055 C -0.17293 0.42193 0.49629
 C3056 C -0.16557 0.43190 0.51151
 C3057 C -0.14890 0.44356 0.51020
 C3058 C -0.13919 0.44567 0.49361
 C3059 C -0.14659 0.43571 0.47840
 C3060 C -0.16315 0.42396 0.47975
 C3061 C -0.12132 0.45797 0.49229
 C3062 C -0.10586 0.45258 0.48138
 C3063 C -0.08869 0.46360 0.48102
 C3064 C -0.08650 0.48015 0.49171
 C3065 C -0.10215 0.48588 0.50212
 C3066 C -0.11936 0.47501 0.50232
 H3067 H -0.20163 0.41657 0.47065
 H3068 H -0.22818 0.39303 0.47106
 H3069 H -0.21166 0.37545 0.52546
 H3070 H -0.18437 0.39855 0.52493
 H3071 H -0.17275 0.43082 0.52443
 H3072 H -0.14347 0.45072 0.52230
 H3073 H -0.13967 0.43709 0.46537
 H3074 H -0.16812 0.41623 0.46780
 H3075 H -0.10673 0.43946 0.47361
 H3076 H -0.07682 0.45868 0.47303
 H3077 H -0.10100 0.49864 0.51041
 H3078 H -0.13108 0.47990 0.51051
 C3079 C 0.31029 -0.09797 -0.00575
 C3080 C 0.29131 -0.09123 -0.00413
 C3081 C 0.27554 -0.10420 -0.00316
 C3082 C 0.27846 -0.12408 -0.00402
 C3083 C 0.29737 -0.13083 -0.00485
 C3084 C 0.31309 -0.11797 -0.00554
 C3085 C 0.32713 -0.08441 -0.00799
 C3086 C 0.34272 -0.08933 -0.01892
 C3087 C 0.35909 -0.07728 -0.02021
 C3088 C 0.36026 -0.05982 -0.01078
 C3089 C 0.34430 -0.05448 -0.00050
 C3090 C 0.32802 -0.06665 0.00096
 C3091 C 0.37845 -0.04787 -0.01068
 C3092 C 0.38455 -0.03847 0.00528
 C3093 C 0.40199 -0.02810 0.00600
 C3094 C 0.41409 -0.02690 -0.00916
 C3095 C 0.40798 -0.03608 -0.02526
 C3096 C 0.39033 -0.04641 -0.02603
 H3097 H 0.28854 -0.07595 -0.00434
 H3098 H 0.26102 -0.09872 -0.00272
 H3099 H 0.29994 -0.14614 -0.00539
 H3100 H 0.32745 -0.12376 -0.00614
 H3101 H 0.34240 -0.10263 -0.02643
 H3102 H 0.37107 -0.08198 -0.02816
 H3103 H 0.34446 -0.04096 0.00666
 H3104 H 0.31637 -0.06233 0.00952
 H3105 H 0.37614 -0.03959 0.01751
 H3106 H 0.40616 -0.02138 0.01873
 H3107 H 0.41689 -0.03544 -0.03719
 H3108 H 0.38601 -0.05327 -0.03863
 C3109 C 0.32347 1.09759 0.50998
 C3110 C 0.30390 1.09300 0.51298
 C3111 C 0.28937 1.10570 0.50744
 C3112 C 0.29406 1.12317 0.49858
 C3113 C 0.31366 1.12784 0.49581
 C3114 C 0.32815 1.11523 0.50142
 C3115 C 0.33898 1.08382 0.51504
 C3116 C 0.35685 1.09047 0.52223
 C3117 C 0.37207 1.07778 0.52529
 C3118 C 0.36982 1.05815 0.52116
 C3119 C 0.35169 1.05137 0.51473
 C3120 C 0.33645 1.06404 0.51174
 C3121 C 0.38674 1.04522 0.52192
 C3122 C 0.38974 1.03255 0.50757
 C3123 C 0.40648 1.02174 0.50705
 C3124 C 0.42068 1.02317 0.52093
 C3125 C 0.41739 1.03521 0.53573
 C3126 C 0.40063 1.04624 0.53615
 H3127 H 0.29981 1.07960 0.51968
 H3128 H 0.27448 1.10164 0.50984
 H3129 H 0.31789 1.14137 0.48944
 H3130 H 0.34304 1.11915 0.49872
 H3131 H 0.35918 1.10557 0.52518
 H3132 H 0.38587 1.08350 0.53013
 H3133 H 0.34942 1.03629 0.51162
 H3134 H 0.32293 1.05844 0.50612
 H3135 H 0.37950 1.03158 0.49628
 H3136 H 0.40852 1.01256 0.49548
 H3137 H 0.42811 1.03669 0.54657
 H3138 H 0.39866 1.05578 0.54746
 C3139 C -0.16865 0.59970 1.00500
 C3140 C -0.18746 0.59543 1.01094
 C3141 C -0.20266 0.60789 1.00673
 C3142 C -0.19936 0.62489 0.99657
 C3143 C -0.18040 0.62936 0.99115
 C3144 C -0.16530 0.61691 0.99525
 C3145 C -0.15266 0.58598 1.00816
 C3146 C -0.14009 0.58206 0.99397
 C3147 C -0.12500 0.56926 0.99660
 C3148 C -0.12197 0.56002 1.01350
 C3149 C -0.13438 0.56402 1.02781
 C3150 C -0.14970 0.57677 1.02512
 C3151 C -0.10592 0.54622 1.01575
 C3152 C -0.09305 0.54693 1.03080
 C3153 C -0.07645 0.53557 1.03134
 C3154 C -0.07252 0.52335 1.01682
 C3155 C -0.08611 0.52181 1.00242
 C3156 C -0.10255 0.53305 1.00191
 H3157 H -0.19051 0.58219 1.01836
 H3158 H -0.21706 0.60391 1.01106
 H3159 H -0.17710 0.64260 0.98384
 H3160 H -0.15090 0.62080 0.99081
 H3161 H -0.14208 0.58876 0.98071
 H3162 H -0.11555 0.56668 0.98536
 H3163 H -0.13241 0.55708 1.04096
 H3164 H -0.15909 0.57962 1.03633
 H3165 H -0.09530 0.55696 1.04167
 H3166 H -0.06623 0.53711 1.04259
 H3167 H -0.08371 0.51232 0.99115
 H3168 H -0.11242 0.53185 0.99035
 C3169 C 0.00313 0.70691 0.56962
 C3170 C 0.01905 0.71828 0.57545
 C3171 C 0.01750 0.73039 0.59032
 C3172 C -0.00004 0.73148 0.59946
 C3173 C -0.01619 0.72094 0.59308
 C3174 C -0.01461 0.70870 0.57837
 C3175 C 0.00543 0.69147 0.55617
 C3176 C -0.00995 0.68618 0.54438
 C3177 C -0.00961 0.66885 0.53503
 C3178 C 0.00621 0.65663 0.53716
 C3179 C 0.02242 0.66292 0.54738
 C3180 C 0.02200 0.68011 0.55689
 C3181 C 0.00471 0.63648 0.53095
 C3182 C 0.01113 0.62159 0.54251
 C3183 C 0.00813 0.60242 0.53780
 C3184 C -0.00147 0.59764 0.52143
 C3185 C -0.00761 0.61252 0.50966
 C3186 C -0.00454 0.63178 0.51439
 H3187 H 0.03282 0.71743 0.56881
 H3188 H 0.03005 0.73871 0.59483
 H3189 H -0.02981 0.72141 0.60004
 H3190 H -0.02705 0.69986 0.57453
 H3191 H -0.02272 0.69489 0.54322
 H3192 H -0.02231 0.66443 0.52721
 H3193 H 0.03500 0.65399 0.54889
 H3194 H 0.03409 0.68371 0.56585
 H3195 H 0.01790 0.62471 0.55557
 H3196 H 0.01308 0.59135 0.54719
 H3197 H -0.01490 0.60932 0.49687
 H3198 H -0.00955 0.64298 0.50518
 C3199 C 0.48847 0.19744 0.07996
 C3200 C 0.50693 0.20315 0.08635
 C3201 C 0.50894 0.21642 0.10035
 C3202 C 0.49252 0.22423 0.10806
 C3203 C 0.47411 0.21912 0.10117
 C3204 C 0.47210 0.20580 0.08724
 C3205 C 0.48631 0.18113 0.06743
 C3206 C 0.47347 0.16594 0.07172
 C3207 C 0.47351 0.14901 0.06186
 C3208 C 0.48624 0.14708 0.04745
 C3209 C 0.49820 0.16266 0.04233
 C3210 C 0.49834 0.17959 0.05237
 C3211 C 0.48847 0.12811 0.03937
 C3212 C 0.48555 0.12528 0.02068
 C3213 C 0.48664 0.10679 0.01356
 C3214 C 0.49105 0.09107 0.02504
 C3215 C 0.49465 0.09418 0.04363
 C3216 C 0.49324 0.11252 0.05073
 H3217 H 0.51976 0.19670 0.08109
 H3218 H 0.52329 0.22040 0.10529
 H3219 H 0.46122 0.22485 0.10701
 H3220 H 0.45774 0.20161 0.08250
 H3221 H 0.46422 0.16669 0.08339
 H3222 H 0.46418 0.13707 0.06593
 H3223 H 0.50815 0.16130 0.03126
 H3224 H 0.50827 0.19121 0.04880
 H3225 H 0.48192 0.13726 0.01177
 H3226 H 0.48388 0.10475 -0.00084
 H3227 H 0.49799 0.08236 0.05283
 H3228 H 0.49572 0.11454 0.06518
 C3229 C -0.01713 0.18285 0.92146
 C3230 C -0.01315 0.17709 0.90370
 C3231 C -0.00644 0.19040 0.89090
 C3232 C -0.00350 0.20977 0.89557
 C3233 C -0.00837 0.21577 0.91301
 C3234 C -0.01505 0.20239 0.92591
 C3235 C -0.02151 0.16806 0.93550
 C3236 C -0.01202 0.16861 0.95255
 C3237 C -0.01277 0.15262 0.96425
 C3238 C -0.02292 0.13578 0.95904
 C3239 C -0.03369 0.13593 0.94262
 C3240 C -0.03309 0.15193 0.93105
 C3241 C -0.02040 0.11741 0.96924
 C3242 C -0.03544 0.10353 0.96960
 C3243 C -0.03188 0.08482 0.97559
 C3244 C -0.01337 0.07975 0.98180
 C3245 C 0.00127 0.09390 0.98298
 C3246 C -0.00215 0.11257 0.97658
 H3247 H -0.01434 0.16210 0.89990
 H3248 H -0.00313 0.18545 0.87744
 H3249 H -0.00621 0.23057 0.91698
 H3250 H -0.01813 0.20723 0.93946
 H3251 H -0.00296 0.18085 0.95634
 H3252 H -0.00466 0.15311 0.97698
 H3253 H -0.04154 0.12321 0.93803
 H3254 H -0.04083 0.15128 0.91813
 H3255 H -0.04978 0.10691 0.96454
 H3256 H -0.04347 0.07415 0.97497
 H3257 H 0.01564 0.09023 0.98778
 H3258 H 0.00984 0.12281 0.97633
 C3259 C 0.49203 0.68145 0.41924
 C3260 C 0.49821 0.67642 0.40189
 C3261 C 0.50380 0.69057 0.38942
 C3262 C 0.50347 0.71010 0.39404
 C3263 C 0.49705 0.71519 0.41127
 C3264 C 0.49143 0.70098 0.42382
 C3265 C 0.48719 0.66613 0.43261
 C3266 C 0.49413 0.66719 0.45065
 C3267 C 0.49234 0.65129 0.46235
 C3268 C 0.48367 0.63404 0.45616
 C3269 C 0.47559 0.63352 0.43849
 C3270 C 0.47722 0.64943 0.42690
 C3271 C 0.48493 0.61600 0.46707
 C3272 C 0.47020 0.60184 0.46577
 C3273 C 0.47307 0.58343 0.47291
 C3274 C 0.49049 0.57897 0.48189
 C3275 C 0.50461 0.59346 0.48452
 C3276 C 0.50193 0.61180 0.47703
 H3277 H 0.49913 0.66147 0.39807
 H3278 H 0.50830 0.68618 0.37611
 H3279 H 0.49671 0.73009 0.41523
 H3280 H 0.48665 0.70524 0.43708
 H3281 H 0.50189 0.67991 0.45541
 H3282 H 0.49839 0.65225 0.47600
 H3283 H 0.46900 0.62046 0.43315
 H3284 H 0.47140 0.64837 0.41317
 H3285 H 0.45674 0.60475 0.45862
 H3286 H 0.46183 0.57254 0.47105
 H3287 H 0.51815 0.59030 0.49145
 H3288 H 0.51367 0.62227 0.47812
 C3289 C 0.51174 0.81088 0.41007
 C3290 C 0.52073 0.81159 0.39315
 C3291 C 0.52240 0.79491 0.38302
 C3292 C 0.51522 0.77718 0.38971
 C3293 C 0.50653 0.77647 0.40679
 C3294 C 0.50477 0.79316 0.41687
 C3295 C 0.50920 0.82866 0.42039
 C3296 C 0.49137 0.83239 0.42825
 C3297 C 0.48878 0.84942 0.43762
 C3298 C 0.50401 0.86297 0.43937
 C3299 C 0.52189 0.85914 0.43163
 C3300 C 0.52444 0.84215 0.42217
 C3301 C 0.50126 0.88107 0.44923
 C3302 C 0.50918 0.89847 0.44257
 C3303 C 0.50703 0.91548 0.45209
 C3304 C 0.49683 0.91544 0.46842
 C3305 C 0.48863 0.89807 0.47491
 C3306 C 0.49087 0.88104 0.46543
 H3307 H 0.52597 0.82516 0.38752
 H3308 H 0.52878 0.79606 0.36973
 H3309 H 0.50113 0.76304 0.41244
 H3310 H 0.49801 0.79223 0.43001
 H3311 H 0.47932 0.82230 0.42681
 H3312 H 0.47476 0.85214 0.44323
 H3313 H 0.53398 0.86918 0.43305
 H3314 H 0.53839 0.83944 0.41641
 H3315 H 0.51697 0.89896 0.42995
 H3316 H 0.51340 0.92865 0.44664
 H3317 H 0.48078 0.89755 0.48751
 H3318 H 0.48481 0.86778 0.47097
 C3319 C 0.01889 0.30906 0.91212
 C3320 C 0.02963 0.30769 0.89625
 C3321 C 0.03013 0.29032 0.88700
 C3322 C 0.02001 0.27399 0.89357
 C3323 C 0.00983 0.27526 0.90978
 C3324 C 0.00926 0.29264 0.91898
 C3325 C 0.01690 0.32780 0.92098
 C3326 C -0.00135 0.33366 0.92642
 C3327 C -0.00345 0.35143 0.93461
 C3328 C 0.01268 0.36363 0.93761
 C3329 C 0.03093 0.35785 0.93200
 C3330 C 0.03301 0.34008 0.92370
 C3331 C 0.01046 0.38206 0.94705
 C3332 C 0.02040 0.39879 0.94126
 C3333 C 0.01830 0.41609 0.95042
 C3334 C 0.00620 0.41692 0.96550
 C3335 C -0.00378 0.40015 0.97117
 C3336 C -0.00163 0.38292 0.96208
 H3337 H 0.03697 0.32023 0.89058
 H3338 H 0.03776 0.28998 0.87432
 H3339 H 0.00213 0.26291 0.91531
 H3340 H 0.00111 0.29331 0.93137
 H3341 H -0.01405 0.32460 0.92410
 H3342 H -0.01774 0.35568 0.93849
 H3343 H 0.04364 0.36689 0.93437
 H3344 H 0.04725 0.33579 0.91969
 H3345 H 0.02966 0.39854 0.92958
 H3346 H 0.02618 0.42876 0.94571
 H3347 H -0.01312 0.40021 0.98281
 H3348 H -0.00921 0.37017 0.96703
 C3349 C 0.49931 0.31967 0.08965
 C3350 C 0.48160 0.31021 0.09291
 C3351 C 0.48059 0.29482 0.10519
 C3352 C 0.49727 0.28841 0.11435
 C3353 C 0.51509 0.29761 0.11075
 C3354 C 0.51607 0.31315 0.09862
 C3355 C 0.50017 0.33678 0.07755
 C3356 C 0.51598 0.34004 0.06615
 C3357 C 0.51740 0.35693 0.05578
 C3358 C 0.50295 0.37078 0.05653
 C3359 C 0.48681 0.36718 0.06740
 C3360 C 0.48549 0.35041 0.07789
 C3361 C 0.50512 0.38936 0.04673
 C3362 C 0.49987 0.40646 0.05514
 C3363 C 0.50208 0.42408 0.04617
 C3364 C 0.50977 0.42500 0.02866
 C3365 C 0.51516 0.40793 0.02025
 C3366 C 0.51278 0.39024 0.02920
 H3367 H 0.46847 0.31473 0.08600
 H3368 H 0.46663 0.28825 0.10762
 H3369 H 0.52834 0.29277 0.11718
 H3370 H 0.52992 0.32027 0.09653
 H3371 H 0.52736 0.32963 0.06541
 H3372 H 0.53007 0.35939 0.04761
 H3373 H 0.47530 0.37747 0.06799
 H3374 H 0.47322 0.34842 0.08667
 H3375 H 0.49433 0.40627 0.06881
 H3376 H 0.49798 0.43701 0.05308
 H3377 H 0.52102 0.40822 0.00671
 H3378 H 0.51676 0.37725 0.02234
 C3379 C -0.01652 0.81972 0.58317
 C3380 C 0.00152 0.81598 0.59134
 C3381 C 0.00329 0.80173 0.60464
 C3382 C -0.01298 0.79098 0.61022
 C3383 C -0.03105 0.79466 0.60207
 C3384 C -0.03284 0.80902 0.58869
 C3385 C -0.01808 0.83544 0.56956
 C3386 C -0.03285 0.84888 0.57059
 C3387 C -0.03218 0.86567 0.56000
 C3388 C -0.01667 0.86931 0.54830
 C3389 C -0.00275 0.85512 0.54626
 C3390 C -0.00351 0.83830 0.55673
 C3391 C -0.01373 0.88855 0.53986
 C3392 C -0.00585 0.89055 0.52247
 C3393 C -0.00116 0.90877 0.51545
 C3394 C -0.00444 0.92531 0.52564
 C3395 C -0.01275 0.92332 0.54284
 C3396 C -0.01725 0.90513 0.54990
 H3397 H 0.01429 0.82424 0.58759
 H3398 H 0.01753 0.79888 0.61026
 H3399 H -0.04378 0.78650 0.60607
 H3400 H -0.04691 0.81164 0.58256
 H3401 H -0.04426 0.84700 0.58036
 H3402 H -0.04334 0.87620 0.56153
 H3403 H 0.00942 0.85749 0.53744
 H3404 H 0.00783 0.82793 0.55542
 H3405 H -0.00318 0.87803 0.51434
 H3406 H 0.00494 0.90989 0.50202
 H3407 H -0.01544 0.93580 0.55102
 H3408 H -0.02290 0.90406 0.56351
 C3409 C 0.24178 0.31408 0.05655
 C3410 C 0.25070 0.33237 0.05774
 C3411 C 0.25567 0.34267 0.04208
 C3412 C 0.25189 0.33496 0.02478
 C3413 C 0.24276 0.31677 0.02348
 C3414 C 0.23788 0.30633 0.03925
 C3415 C 0.23679 0.30336 0.07349
 C3416 C 0.24099 0.28374 0.07572
 C3417 C 0.23793 0.27433 0.09244
 C3418 C 0.23045 0.28433 0.10716
 C3419 C 0.22574 0.30379 0.10465
 C3420 C 0.22883 0.31315 0.08805
 C3421 C 0.22833 0.27508 0.12541
 C3422 C 0.21265 0.27965 0.13630
 C3423 C 0.21203 0.27353 0.15441
 C3424 C 0.22694 0.26244 0.16207
 C3425 C 0.24198 0.25670 0.15091
 C3426 C 0.24270 0.26303 0.13275
 H3427 H 0.25409 0.33865 0.07084
 H3428 H 0.26241 0.35678 0.04354
 H3429 H 0.23976 0.31048 0.01030
 H3430 H 0.23092 0.29230 0.03795
 H3431 H 0.24724 0.27586 0.06475
 H3432 H 0.24155 0.25929 0.09389
 H3433 H 0.22024 0.31205 0.11574
 H3434 H 0.22525 0.32821 0.08669
 H3435 H 0.20110 0.28848 0.13095
 H3436 H 0.20010 0.27794 0.16260
 H3437 H 0.25370 0.24823 0.15648
 H3438 H 0.25504 0.25933 0.12477
 C3439 C 0.74182 0.80434 0.54945
 C3440 C 0.72633 0.81272 0.53973
 C3441 C 0.72971 0.82473 0.52466
 C3442 C 0.74863 0.82850 0.51887
 C3443 C 0.76396 0.81909 0.52781
 C3444 C 0.76063 0.80727 0.54296
 C3445 C 0.73875 0.79434 0.56724
 C3446 C 0.75056 0.77908 0.57306
 C3447 C 0.74956 0.77178 0.59086
 C3448 C 0.73665 0.77951 0.60319
 C3449 C 0.72400 0.79387 0.59700
 C3450 C 0.72512 0.80127 0.57933
 C3451 C 0.73718 0.77378 0.62275
 C3452 C 0.73518 0.78788 0.63606
 C3453 C 0.73531 0.78291 0.65445
 C3454 C 0.73759 0.76368 0.66016
 C3455 C 0.74013 0.74955 0.64693
 C3456 C 0.73990 0.75456 0.62838
 H3457 H 0.71161 0.81047 0.54411
 H3458 H 0.71755 0.83176 0.51815
 H3459 H 0.77869 0.82130 0.52344
 H3460 H 0.77296 0.80124 0.55010
 H3461 H 0.76097 0.77313 0.56401
 H3462 H 0.75948 0.76070 0.59518
 H3463 H 0.71357 0.79983 0.60603
 H3464 H 0.71590 0.81311 0.57549
 H3465 H 0.73366 0.80289 0.63226
 H3466 H 0.73360 0.79425 0.66422
 H3467 H 0.74190 0.73462 0.65089
 H3468 H 0.74147 0.74336 0.61845
 C3469 C 0.23872 0.69277 0.56426
 C3470 C 0.22425 0.68457 0.55297
 C3471 C 0.22908 0.67436 0.53750
 C3472 C 0.24848 0.67206 0.53289
 C3473 C 0.26292 0.68110 0.54367
 C3474 C 0.25811 0.69131 0.55917
 C3475 C 0.23379 0.70138 0.58199
 C3476 C 0.24393 0.71765 0.58864
 C3477 C 0.24068 0.72434 0.60618
 C3478 C 0.22728 0.71485 0.61748
 C3479 C 0.21651 0.69915 0.61050
 C3480 C 0.21973 0.69250 0.59299
 C3481 C 0.22597 0.72001 0.63698
 C3482 C 0.22558 0.70536 0.65032
 C3483 C 0.22674 0.70983 0.66875
 C3484 C 0.22820 0.72907 0.67436
 C3485 C 0.22753 0.74382 0.66110
 C3486 C 0.22656 0.73932 0.64256
 H3487 H 0.20916 0.68564 0.55635
 H3488 H 0.21758 0.66754 0.52971
 H3489 H 0.27802 0.67990 0.54038
 H3490 H 0.26965 0.69733 0.56760
 H3491 H 0.25468 0.72497 0.58043
 H3492 H 0.24930 0.73639 0.61120
 H3493 H 0.20595 0.69165 0.61881
 H3494 H 0.21178 0.67983 0.58840
 H3495 H 0.22535 0.69035 0.64652
 H3496 H 0.22717 0.69813 0.67862
 H3497 H 0.22872 0.75878 0.66502
 H3498 H 0.22672 0.75091 0.63258
 C3499 C 0.73675 0.18739 0.06874
 C3500 C 0.72157 0.18096 0.05725
 C3501 C 0.72550 0.17157 0.04102
 C3502 C 0.74465 0.16849 0.03596
 C3503 C 0.75977 0.17591 0.04700
 C3504 C 0.75587 0.18520 0.06320
 C3505 C 0.73286 0.19486 0.08711
 C3506 C 0.74366 0.18809 0.10214
 C3507 C 0.74001 0.19449 0.11959
 C3508 C 0.72552 0.20790 0.12251
 C3509 C 0.71480 0.21492 0.10750
 C3510 C 0.71831 0.20830 0.08994
 C3511 C 0.72209 0.21444 0.14129
 C3512 C 0.72121 0.23413 0.14537
 C3513 C 0.72166 0.24016 0.16352
 C3514 C 0.72301 0.22657 0.17780
 C3515 C 0.72221 0.20687 0.17363
 C3516 C 0.72174 0.20090 0.15561
 H3517 H 0.70670 0.18234 0.06124
 H3518 H 0.71354 0.16592 0.03296
 H3519 H 0.77469 0.17423 0.04328
 H3520 H 0.76785 0.19034 0.07162
 H3521 H 0.75478 0.17756 0.10043
 H3522 H 0.74869 0.18903 0.13086
 H3523 H 0.70355 0.22528 0.10940
 H3524 H 0.70981 0.21378 0.07857
 H3525 H 0.72146 0.24486 0.13456
 H3526 H 0.72231 0.25543 0.16632
 H3527 H 0.72294 0.19602 0.18432
 H3528 H 0.72199 0.18562 0.15285
 C3529 C 0.74793 0.20069 0.94295
 C3530 C 0.76517 0.19810 0.95297
 C3531 C 0.76573 0.18549 0.96788
 C3532 C 0.74906 0.17516 0.97320
 C3533 C 0.73150 0.17871 0.96407
 C3534 C 0.73094 0.19129 0.94900
 C3535 C 0.74835 0.21128 0.92520
 C3536 C 0.73852 0.20358 0.90999
 C3537 C 0.74125 0.21153 0.89268
 C3538 C 0.75387 0.22740 0.89009
 C3539 C 0.76285 0.23587 0.90538
 C3540 C 0.76018 0.22783 0.92277
 C3541 C 0.75840 0.23405 0.87132
 C3542 C 0.75859 0.25368 0.86630
 C3543 C 0.76083 0.25930 0.84800
 C3544 C 0.76296 0.24533 0.83455
 C3545 C 0.76412 0.22588 0.83991
 C3546 C 0.76188 0.22033 0.85800
 H3547 H 0.77854 0.20493 0.94866
 H3548 H 0.77942 0.18327 0.97489
 H3549 H 0.71845 0.17095 0.96793
 H3550 H 0.71737 0.19318 0.94170
 H3551 H 0.72947 0.19076 0.91128
 H3552 H 0.73386 0.20490 0.88118
 H3553 H 0.77260 0.24813 0.90379
 H3554 H 0.76780 0.23424 0.93425
 H3555 H 0.75606 0.26456 0.87634
 H3556 H 0.75979 0.27437 0.84425
 H3557 H 0.76603 0.21478 0.82993
 H3558 H 0.76238 0.20516 0.86153
 C3559 C 0.24843 0.69262 0.43722
 C3560 C 0.25279 0.67306 0.43569
 C3561 C 0.25398 0.66120 0.45109
 C3562 C 0.25072 0.66855 0.46844
 C3563 C 0.24587 0.68798 0.47004
 C3564 C 0.24491 0.69999 0.45455
 C3565 C 0.24765 0.70501 0.42061
 C3566 C 0.25706 0.72316 0.41998
 C3567 C 0.25744 0.73396 0.40371
 C3568 C 0.24817 0.72693 0.38789
 C3569 C 0.23854 0.70892 0.38871
 C3570 C 0.23829 0.69814 0.40482
 C3571 C 0.24852 0.73783 0.37034
 C3572 C 0.23179 0.73816 0.35926
 C3573 C 0.23250 0.74528 0.34151
 C3574 C 0.24989 0.75252 0.33438
 C3575 C 0.26637 0.75369 0.34579
 C3576 C 0.26570 0.74632 0.36369
 H3577 H 0.25573 0.66699 0.42256
 H3578 H 0.25765 0.64625 0.44947
 H3579 H 0.24345 0.69399 0.48330
 H3580 H 0.24139 0.71499 0.45609
 H3581 H 0.26454 0.72872 0.43192
 H3582 H 0.26492 0.74780 0.40349
 H3583 H 0.23150 0.70293 0.37673
 H3584 H 0.23083 0.68428 0.40491
 H3585 H 0.21824 0.73220 0.36412
 H3586 H 0.21953 0.74447 0.33305
 H3587 H 0.27995 0.75913 0.34054
 H3588 H 0.27883 0.74624 0.37192
 C3589 C 0.73669 0.81359 0.42454
 C3590 C 0.73505 0.80552 0.44207
 C3591 C 0.73909 0.81674 0.45746
 C3592 C 0.74530 0.83602 0.45551
 C3593 C 0.74684 0.84406 0.43798
 C3594 C 0.74244 0.83301 0.42268
 C3595 C 0.73321 0.80187 0.40803
 C3596 C 0.72202 0.80918 0.39352
 C3597 C 0.72112 0.79975 0.37687
 C3598 C 0.73165 0.78293 0.37423
 C3599 C 0.74180 0.77490 0.38915
 C3600 C 0.74252 0.78426 0.40594
 C3601 C 0.73394 0.77538 0.35555
 C3602 C 0.73462 0.75551 0.35206
 C3603 C 0.73843 0.74895 0.33450
 C3604 C 0.74190 0.76218 0.32025
 C3605 C 0.74067 0.78196 0.32375
 C3606 C 0.73677 0.78844 0.34108
 H3607 H 0.73062 0.79058 0.44384
 H3608 H 0.73788 0.81022 0.47085
 H3609 H 0.75143 0.85894 0.43613
 H3610 H 0.74400 0.83954 0.40932
 H3611 H 0.71445 0.82256 0.39489
 H3612 H 0.71279 0.80608 0.36579
 H3613 H 0.75016 0.76204 0.38756
 H3614 H 0.75130 0.77837 0.41693
 H3615 H 0.73241 0.74508 0.36293
 H3616 H 0.73929 0.73362 0.33222
 H3617 H 0.74312 0.79259 0.31309
 H3618 H 0.73673 0.80383 0.34328
 C3619 C 0.24628 0.30376 0.93114
 C3620 C 0.26529 0.30658 0.93778
 C3621 C 0.26922 0.31874 0.95246
 C3622 C 0.25428 0.32852 0.96089
 C3623 C 0.23518 0.32501 0.95481
 C3624 C 0.23122 0.31283 0.94010
 C3625 C 0.24248 0.29263 0.91416
 C3626 C 0.22907 0.29923 0.90101
 C3627 C 0.22722 0.29035 0.88409
 C3628 C 0.23874 0.27464 0.87983
 C3629 C 0.25136 0.26734 0.89331
 C3630 C 0.25323 0.27624 0.91027
 C3631 C 0.23907 0.26734 0.86086
 C3632 C 0.24060 0.24758 0.85715
 C3633 C 0.24266 0.24127 0.83922
 C3634 C 0.24353 0.25465 0.82474
 C3635 C 0.24137 0.27428 0.82847
 C3636 C 0.23913 0.28052 0.84623
 H3637 H 0.27729 0.30000 0.93118
 H3638 H 0.28409 0.32071 0.95700
 H3639 H 0.22331 0.33219 0.96091
 H3640 H 0.21637 0.31077 0.93553
 H3641 H 0.22065 0.31187 0.90343
 H3642 H 0.21716 0.29617 0.87410
 H3643 H 0.26052 0.25533 0.89046
 H3644 H 0.26346 0.27057 0.92018
 H3645 H 0.24048 0.23706 0.86814
 H3646 H 0.24434 0.22606 0.83677
 H3647 H 0.24187 0.28498 0.81763
 H3648 H 0.23826 0.29583 0.84855
 C3649 C 0.84996 0.44625 0.75986
 C3650 C 0.84189 0.46451 0.75673
 C3651 C 0.85375 0.48109 0.75546
 C3652 C 0.87385 0.47973 0.75749
 C3653 C 0.88197 0.46151 0.75991
 C3654 C 0.87021 0.44498 0.76093
 C3655 C 0.83751 0.42860 0.76227
 C3656 C 0.84315 0.41376 0.77438
 C3657 C 0.83214 0.39672 0.77594
 C3658 C 0.81504 0.39408 0.76557
 C3659 C 0.80898 0.40924 0.75404
 C3660 C 0.82010 0.42620 0.75234
 C3661 C 0.80428 0.37520 0.76584
 C3662 C 0.79591 0.36802 0.74970
 C3663 C 0.78668 0.35001 0.74940
 C3664 C 0.78560 0.33840 0.76520
 C3665 C 0.79372 0.34559 0.78149
 C3666 C 0.80293 0.36381 0.78181
 H3667 H 0.82638 0.46612 0.75596
 H3668 H 0.84717 0.49502 0.75387
 H3669 H 0.89748 0.46011 0.76139
 H3670 H 0.87704 0.43119 0.76275
 H3671 H 0.85621 0.41523 0.78262
 H3672 H 0.83738 0.38538 0.78486
 H3673 H 0.79569 0.40793 0.74611
 H3674 H 0.81526 0.43721 0.74286
 H3675 H 0.79698 0.37606 0.73705
 H3676 H 0.78073 0.34504 0.73652
 H3677 H 0.79316 0.33708 0.79391
 H3678 H 0.80902 0.36895 0.79455
 C3679 C 0.34583 0.95016 0.25657
 C3680 C 0.36007 0.95299 0.24334
 C3681 C 0.37118 0.97009 0.24280
 C3682 C 0.36842 0.98444 0.25566
 C3683 C 0.35377 0.98194 0.26844
 C3684 C 0.34244 0.96505 0.26877
 C3685 C 0.33524 0.93142 0.25838
 C3686 C 0.31514 0.93081 0.26067
 C3687 C 0.30526 0.91317 0.26286
 C3688 C 0.31531 0.89578 0.26312
 C3689 C 0.33545 0.89640 0.26108
 C3690 C 0.34529 0.91403 0.25858
 C3691 C 0.30467 0.87703 0.26451
 C3692 C 0.31098 0.86230 0.27641
 C3693 C 0.30130 0.84433 0.27685
 C3694 C 0.28545 0.84070 0.26509
 C3695 C 0.27900 0.85557 0.25348
 C3696 C 0.28838 0.87355 0.25331
 H3697 H 0.36287 0.94179 0.23369
 H3698 H 0.38264 0.97165 0.23304
 H3699 H 0.35163 0.99277 0.27864
 H3700 H 0.33168 0.96323 0.27918
 H3701 H 0.30704 0.94398 0.26058
 H3702 H 0.28974 0.91311 0.26443
 H3703 H 0.34352 0.88321 0.26104
 H3704 H 0.36082 0.91410 0.25708
 H3705 H 0.32347 0.86467 0.28525
 H3706 H 0.30665 0.83307 0.28582
 H3707 H 0.26679 0.85320 0.24429
 H3708 H 0.28328 0.88456 0.24393
 C3709 C 0.14775 0.92359 0.74321
 C3710 C 0.15422 0.94197 0.73746
 C3711 C 0.14268 0.95813 0.73969
 C3712 C 0.12441 0.95621 0.74764
 C3713 C 0.11768 0.93768 0.75261
 C3714 C 0.12921 0.92162 0.75049
 C3715 C 0.16045 0.90656 0.74245
 C3716 C 0.16155 0.89373 0.75734
 C3717 C 0.17321 0.87758 0.75684
 C3718 C 0.18404 0.87372 0.74138
 C3719 C 0.18297 0.88652 0.72643
 C3720 C 0.17140 0.90287 0.72701
 C3721 C 0.19620 0.85627 0.74104
 C3722 C 0.19618 0.84431 0.72576
 C3723 C 0.20633 0.82702 0.72620
 C3724 C 0.21685 0.82138 0.74190
 C3725 C 0.21743 0.83379 0.75689
 C3726 C 0.20723 0.85095 0.75647
 H3727 H 0.16849 0.94394 0.73188
 H3728 H 0.14839 0.97218 0.73584
 H3729 H 0.10349 0.93555 0.75831
 H3730 H 0.12363 0.90761 0.75467
 H3731 H 0.15347 0.89628 0.76951
 H3732 H 0.17354 0.86791 0.76850
 H3733 H 0.19122 0.88399 0.71437
 H3734 H 0.17078 0.91246 0.71530
 H3735 H 0.18774 0.84797 0.71370
 H3736 H 0.20553 0.81785 0.71440
 H3737 H 0.22542 0.83006 0.76920
 H3738 H 0.20779 0.86000 0.76835
 C3739 C 0.65092 0.42957 0.24257
 C3740 C 0.65757 0.44824 0.23788
 C3741 C 0.64649 0.46439 0.24156
 C3742 C 0.62863 0.46224 0.25019
 C3743 C 0.62193 0.44356 0.25466
 C3744 C 0.63291 0.42748 0.25093
 C3745 C 0.66278 0.41229 0.23934
 C3746 C 0.65395 0.39486 0.23376
 C3747 C 0.66474 0.37814 0.23234
 C3748 C 0.68466 0.37838 0.23646
 C3749 C 0.69362 0.39597 0.24139
 C3750 C 0.68283 0.41272 0.24279
 C3751 C 0.69572 0.36014 0.23674
 C3752 C 0.70938 0.35657 0.25070
 C3753 C 0.71879 0.33897 0.25191
 C3754 C 0.71486 0.32439 0.23916
 C3755 C 0.70158 0.32813 0.22488
 C3756 C 0.69210 0.34577 0.22371
 H3757 H 0.67132 0.45035 0.23130
 H3758 H 0.65207 0.47857 0.23795
 H3759 H 0.60805 0.44127 0.26095
 H3760 H 0.62741 0.41339 0.25494
 H3761 H 0.63859 0.39407 0.23073
 H3762 H 0.65731 0.36485 0.22864
 H3763 H 0.70898 0.39675 0.24442
 H3764 H 0.69008 0.42584 0.24720
 H3765 H 0.71234 0.36715 0.26112
 H3766 H 0.72890 0.33668 0.26311
 H3767 H 0.69819 0.31727 0.21481
 H3768 H 0.68183 0.34813 0.21265
 C3769 C 0.65753 0.56265 0.25104
 C3770 C 0.63745 0.56539 0.25029
 C3771 C 0.62457 0.54966 0.25022
 C3772 C 0.63139 0.53079 0.25055
 C3773 C 0.65135 0.52786 0.25015
 C3774 C 0.66434 0.54366 0.25048
 C3775 C 0.67109 0.57955 0.25305
 C3776 C 0.68917 0.58003 0.24465
 C3777 C 0.70152 0.59619 0.24622
 C3778 C 0.69608 0.61239 0.25611
 C3779 C 0.67819 0.61170 0.26484
 C3780 C 0.66595 0.59550 0.26342
 C3781 C 0.70846 0.63028 0.25652
 C3782 C 0.70940 0.64219 0.27191
 C3783 C 0.71987 0.65970 0.27160
 C3784 C 0.72978 0.66567 0.25593
 C3785 C 0.72931 0.65344 0.24079
 C3786 C 0.71877 0.63609 0.24106
 H3787 H 0.63161 0.57973 0.25011
 H3788 H 0.60919 0.55222 0.25045
 H3789 H 0.65690 0.51340 0.25064
 H3790 H 0.67967 0.54094 0.25114
 H3791 H 0.69365 0.56810 0.23652
 H3792 H 0.71531 0.59600 0.23956
 H3793 H 0.67335 0.62389 0.27241
 H3794 H 0.65238 0.59553 0.27047
 H3795 H 0.70191 0.63807 0.28418
 H3796 H 0.71992 0.66871 0.28350
 H3797 H 0.73665 0.65750 0.22842
 H3798 H 0.71817 0.62758 0.22883
 C3799 C 0.16103 0.05354 0.75123
 C3800 C 0.14688 0.05169 0.73732
 C3801 C 0.13391 0.03592 0.73718
 C3802 C 0.13467 0.02201 0.75114
 C3803 C 0.14924 0.02344 0.76462
 C3804 C 0.16244 0.03894 0.76455
 C3805 C 0.17337 0.07123 0.75271
 C3806 C 0.19338 0.07004 0.75599
 C3807 C 0.20479 0.08677 0.75817
 C3808 C 0.19635 0.10501 0.75751
 C3809 C 0.17633 0.10618 0.75433
 C3810 C 0.16499 0.08948 0.75181
 C3811 C 0.20841 0.12283 0.75952
 C3812 C 0.20284 0.13765 0.77104
 C3813 C 0.21344 0.15504 0.77180
 C3814 C 0.22956 0.15811 0.76073
 C3815 C 0.23546 0.14301 0.74967
 C3816 C 0.22511 0.12551 0.74920
 H3817 H 0.14557 0.06271 0.72685
 H3818 H 0.12259 0.03518 0.72682
 H3819 H 0.14991 0.01293 0.77561
 H3820 H 0.17310 0.04007 0.77549
 H3821 H 0.20019 0.05614 0.75677
 H3822 H 0.22019 0.08547 0.76061
 H3823 H 0.16949 0.12006 0.75357
 H3824 H 0.14957 0.09081 0.74952
 H3825 H 0.19010 0.13587 0.77926
 H3826 H 0.20851 0.16638 0.78039
 H3827 H 0.24783 0.14491 0.74099
 H3828 H 0.22969 0.11437 0.74017
 C3829 C 0.34840 0.08304 0.23984
 C3830 C 0.34234 0.06403 0.23604
 C3831 C 0.35426 0.04849 0.24053
 C3832 C 0.37246 0.05167 0.24891
 C3833 C 0.37880 0.07074 0.25192
 C3834 C 0.36694 0.08618 0.24747
 C3835 C 0.33515 0.09950 0.23707
 C3836 C 0.33406 0.11354 0.25057
 C3837 C 0.32146 0.12887 0.24853
 C3838 C 0.30957 0.13066 0.23292
 C3839 C 0.31082 0.11686 0.21919
 C3840 C 0.32339 0.10131 0.22132
 C3841 C 0.29563 0.14666 0.23160
 C3842 C 0.29390 0.15835 0.21589
 C3843 C 0.28228 0.17476 0.21586
 C3844 C 0.27220 0.17965 0.23152
 C3845 C 0.27318 0.16724 0.24678
 C3846 C 0.28470 0.15104 0.24681
 H3847 H 0.32809 0.06113 0.23026
 H3848 H 0.34894 0.03398 0.23808
 H3849 H 0.39297 0.07377 0.25782
 H3850 H 0.37222 0.10066 0.25019
 H3851 H 0.34272 0.11248 0.26295
 H3852 H 0.32098 0.13938 0.25925
 H3853 H 0.30178 0.11786 0.20705
 H3854 H 0.32400 0.09077 0.21064
 H3855 H 0.30216 0.15529 0.20396
 H3856 H 0.28184 0.18400 0.20389
 H3857 H 0.26538 0.17030 0.25899
 H3858 H 0.28540 0.14208 0.25896
 C3859 C 0.84311 0.57622 0.74055
 C3860 C 0.86065 0.58116 0.74943
 C3861 C 0.87364 0.56695 0.75492
 C3862 C 0.86945 0.54737 0.75172
 C3863 C 0.85200 0.54242 0.74269
 C3864 C 0.83896 0.55665 0.73723
 C3865 C 0.82907 0.59143 0.73525
 C3866 C 0.80913 0.58838 0.73760
 C3867 C 0.79611 0.60318 0.73402
 C3868 C 0.80267 0.62143 0.72797
 C3869 C 0.82252 0.62424 0.72493
 C3870 C 0.83555 0.60945 0.72854
 C3871 C 0.78918 0.63788 0.72636
 C3872 C 0.79098 0.65190 0.71245
 C3873 C 0.77962 0.66843 0.71234
 C3874 C 0.76638 0.67135 0.72625
 C3875 C 0.76400 0.65690 0.73963
 C3876 C 0.77519 0.64040 0.73967
 H3877 H 0.86425 0.59604 0.75241
 H3878 H 0.88711 0.57141 0.76145
 H3879 H 0.84825 0.52753 0.74001
 H3880 H 0.82567 0.55234 0.73028
 H3881 H 0.80363 0.57475 0.74284
 H3882 H 0.78089 0.60044 0.73631
 H3883 H 0.82811 0.63814 0.72045
 H3884 H 0.85077 0.61220 0.72629
 H3885 H 0.80147 0.65030 0.70189
 H3886 H 0.78190 0.67934 0.70191
 H3887 H 0.75391 0.65866 0.75053
 H3888 H 0.77353 0.63006 0.75069
 C3889 C 0.95001 0.75891 0.17015
 C3890 C 0.95270 0.74065 0.16264
 C3891 C 0.96458 0.73854 0.14778
 C3892 C 0.97372 0.75467 0.13993
 C3893 C 0.97157 0.77285 0.14761
 C3894 C 0.95994 0.77493 0.16271
 C3895 C 0.93530 0.76136 0.18427
 C3896 C 0.92321 0.77737 0.18350
 C3897 C 0.90680 0.77780 0.19412
 C3898 C 0.90192 0.76209 0.20545
 C3899 C 0.91493 0.74693 0.20752
 C3900 C 0.93156 0.74665 0.19711
 C3901 C 0.88227 0.76026 0.21290
 C3902 C 0.87901 0.75163 0.22998
 C3903 C 0.86017 0.74824 0.23590
 C3904 C 0.84428 0.75349 0.22485
 C3905 C 0.84762 0.76247 0.20796
 C3906 C 0.86635 0.76573 0.20204
 H3907 H 0.94496 0.72806 0.16771
 H3908 H 0.96608 0.72441 0.14197
 H3909 H 0.97891 0.78540 0.14194
 H3910 H 0.95849 0.78913 0.16836
 H3911 H 0.92558 0.78897 0.17379
 H3912 H 0.89729 0.78994 0.19264
 H3913 H 0.91163 0.73464 0.21618
 H3914 H 0.94091 0.73439 0.19842
 H3915 H 0.89102 0.74736 0.23868
 H3916 H 0.85805 0.74145 0.24907
 H3917 H 0.83574 0.76666 0.19905
 H3918 H 0.86830 0.77194 0.18861
 C3919 C 0.44853 0.25373 0.67169
 C3920 C 0.45230 0.23609 0.66344
 C3921 C 0.46666 0.23493 0.65053
 C3922 C 0.47739 0.25139 0.64552
 C3923 C 0.47387 0.26899 0.65388
 C3924 C 0.45960 0.27014 0.66692
 C3925 C 0.43218 0.25514 0.68420
 C3926 C 0.41982 0.27090 0.68295
 C3927 C 0.40282 0.27092 0.69278
 C3928 C 0.39778 0.25511 0.70392
 C3929 C 0.41073 0.23991 0.70605
 C3930 C 0.42781 0.23996 0.69634
 C3931 C 0.37831 0.25353 0.71177
 C3932 C 0.37558 0.24525 0.72907
 C3933 C 0.35697 0.24214 0.73560
 C3934 C 0.34076 0.24733 0.72496
 C3935 C 0.34356 0.25608 0.70787
 C3936 C 0.36211 0.25907 0.70133
 H3937 H 0.44372 0.22330 0.66650
 H3938 H 0.46897 0.22126 0.64407
 H3939 H 0.48224 0.28181 0.65041
 H3940 H 0.45716 0.28386 0.67321
 H3941 H 0.42274 0.28277 0.67366
 H3942 H 0.39327 0.28300 0.69115
 H3943 H 0.40721 0.22748 0.71447
 H3944 H 0.43728 0.22780 0.69784
 H3945 H 0.38782 0.24104 0.73749
 H3946 H 0.35529 0.23556 0.74892
 H3947 H 0.33139 0.26024 0.69931
 H3948 H 0.36372 0.26513 0.68779
 C3949 C 0.43801 0.74108 0.82703
 C3950 C 0.43908 0.75984 0.83394
 C3951 C 0.45178 0.76436 0.84821
 C3952 C 0.46362 0.75021 0.85603
 C3953 C 0.46296 0.73156 0.84889
 C3954 C 0.45021 0.72701 0.83453
 C3955 C 0.42298 0.73616 0.81317
 C3956 C 0.41182 0.71916 0.81494
 C3957 C 0.39504 0.71649 0.80438
 C3958 C 0.38901 0.73086 0.79201
 C3959 C 0.40114 0.74702 0.78909
 C3960 C 0.41802 0.74957 0.79949
 C3961 C 0.36912 0.73043 0.78418
 C3962 C 0.36514 0.73808 0.76675
 C3963 C 0.34607 0.74028 0.76064
 C3964 C 0.33062 0.73473 0.77180
 C3965 C 0.33464 0.72629 0.78887
 C3966 C 0.35364 0.72425 0.79501
 H3967 H 0.42966 0.77095 0.82870
 H3968 H 0.45232 0.77901 0.85307
 H3969 H 0.47195 0.72040 0.85465
 H3970 H 0.44976 0.71245 0.82941
 H3971 H 0.41528 0.70854 0.82534
 H3972 H 0.38622 0.70366 0.80662
 H3973 H 0.39695 0.75839 0.77971
 H3974 H 0.42662 0.76260 0.79753
 H3975 H 0.37676 0.74274 0.75799
 H3976 H 0.34344 0.74658 0.74730
 H3977 H 0.32309 0.72182 0.79781
 H3978 H 0.35613 0.71866 0.80865
 C3979 C 0.93549 0.25152 0.32873
 C3980 C 0.93456 0.26857 0.33863
 C3981 C 0.94711 0.27199 0.35330
 C3982 C 0.96105 0.25840 0.35870
 C3983 C 0.96179 0.24119 0.34868
 C3984 C 0.94926 0.23788 0.33389
 C3985 C 0.92116 0.24762 0.31394
 C3986 C 0.91246 0.22927 0.31226
 C3987 C 0.89650 0.22647 0.30065
 C3988 C 0.88878 0.24202 0.29069
 C3989 C 0.89851 0.25995 0.29120
 C3990 C 0.91461 0.26268 0.30263
 C3991 C 0.86929 0.24039 0.28210
 C3992 C 0.86461 0.25067 0.26607
 C3993 C 0.84543 0.25154 0.25983
 C3994 C 0.83062 0.24214 0.26952
 C3995 C 0.83551 0.23102 0.28497
 C3996 C 0.85457 0.23022 0.29120
 H3997 H 0.92383 0.27924 0.33526
 H3998 H 0.94595 0.28570 0.35987
 H3999 H 0.97145 0.22974 0.35238
 H4000 H 0.95028 0.22453 0.32656
 H4001 H 0.91715 0.21734 0.32075
 H4002 H 0.88956 0.21237 0.30022
 H4003 H 0.89294 0.27225 0.28375
 H4004 H 0.92135 0.27686 0.30328
 H4005 H 0.87569 0.25846 0.25864
 H4006 H 0.84216 0.26005 0.24776
 H4007 H 0.82452 0.22340 0.29267
 H4008 H 0.85757 0.22242 0.30375
 C4009 C 0.05828 0.26545 0.34296
 C4010 C 0.04846 0.28292 0.34394
 C4011 C 0.03198 0.28417 0.35446
 C4012 C 0.02501 0.26793 0.36397
 C4013 C 0.03478 0.25052 0.36299
 C4014 C 0.05130 0.24930 0.35266
 C4015 C 0.07589 0.26400 0.33207
 C4016 C 0.07921 0.24726 0.32219
 C4017 C 0.09620 0.24542 0.31261
 C4018 C 0.11014 0.26039 0.31251
 C4019 C 0.10668 0.27728 0.32212
 C4020 C 0.08973 0.27905 0.33185
 C4021 C 0.12825 0.25828 0.30249
 C4022 C 0.14591 0.26524 0.30980
 C4023 C 0.16296 0.26324 0.30030
 C4024 C 0.16270 0.25408 0.28339
 C4025 C 0.14509 0.24697 0.27616
 C4026 C 0.12802 0.24914 0.28556
 H4027 H 0.05339 0.29553 0.33644
 H4028 H 0.02454 0.29771 0.35499
 H4029 H 0.02990 0.23792 0.37057
 H4030 H 0.05881 0.23579 0.35253
 H4031 H 0.06867 0.23553 0.32188
 H4032 H 0.09854 0.23214 0.30550
 H4033 H 0.11704 0.28916 0.32208
 H4034 H 0.08765 0.29204 0.33949
 H4035 H 0.14657 0.27205 0.32297
 H4036 H 0.17636 0.26878 0.30624
 H4037 H 0.14440 0.24005 0.26304
 H4038 H 0.11460 0.24393 0.27943
 C4039 C 0.55748 0.77160 0.83432
 C4040 C 0.54035 0.76193 0.82893
 C4041 C 0.52446 0.76133 0.84031
 C4042 C 0.52548 0.77030 0.85731
 C4043 C 0.54227 0.78079 0.86227
 C4044 C 0.55807 0.78150 0.85085
 C4045 C 0.57515 0.77017 0.82352
 C4046 C 0.59300 0.76717 0.83240
 C4047 C 0.60968 0.76507 0.82243
 C4048 C 0.60887 0.76583 0.80337
 C4049 C 0.59106 0.76881 0.79442
 C4050 C 0.57432 0.77100 0.80442
 C4051 C 0.62664 0.76323 0.79302
 C4052 C 0.62664 0.75103 0.77796
 C4053 C 0.64378 0.74773 0.76892
 C4054 C 0.66119 0.75663 0.77478
 C4055 C 0.66102 0.76915 0.78964
 C4056 C 0.64393 0.77240 0.79865
 H4057 H 0.53950 0.75414 0.81627
 H4058 H 0.51153 0.75353 0.83593
 H4059 H 0.54357 0.78775 0.87533
 H4060 H 0.57097 0.78938 0.85519
 H4061 H 0.59402 0.76597 0.84707
 H4062 H 0.62317 0.76241 0.82964
 H4063 H 0.59014 0.76961 0.77971
 H4064 H 0.56076 0.77344 0.79725
 H4065 H 0.61349 0.74367 0.77348
 H4066 H 0.64341 0.73807 0.75748
 H4067 H 0.67411 0.77644 0.79439
 H4068 H 0.64423 0.78209 0.81008
 C4069 C 0.56663 0.23435 0.67510
 C4070 C 0.55619 0.21844 0.66813
 C4071 C 0.54272 0.22096 0.65394
 C4072 C 0.53975 0.23933 0.64638
 C4073 C 0.54981 0.25524 0.65371
 C4074 C 0.56313 0.25278 0.66787
 C4075 C 0.58248 0.23191 0.68859
 C4076 C 0.58563 0.24568 0.70219
 C4077 C 0.60305 0.24636 0.71196
 C4078 C 0.61754 0.23312 0.70845
 C4079 C 0.61358 0.21815 0.69616
 C4080 C 0.59619 0.21759 0.68625
 C4081 C 0.63734 0.23643 0.71584
 C4082 C 0.65332 0.23395 0.70467
 C4083 C 0.67188 0.23901 0.71079
 C4084 C 0.67481 0.24688 0.72812
 C4085 C 0.65890 0.24906 0.73943
 C4086 C 0.64036 0.24378 0.73338
 H4087 H 0.55863 0.20410 0.67352
 H4088 H 0.53505 0.20850 0.64859
 H4089 H 0.54744 0.26966 0.64846
 H4090 H 0.57118 0.26527 0.67274
 H4091 H 0.57510 0.25667 0.70446
 H4092 H 0.60563 0.25809 0.72129
 H4093 H 0.62432 0.20748 0.69352
 H4094 H 0.59412 0.20680 0.67586
 H4095 H 0.65145 0.22872 0.69094
 H4096 H 0.68388 0.23713 0.70180
 H4097 H 0.66078 0.25474 0.75301
 H4098 H 0.62836 0.24562 0.74238
 C4099 C 0.06666 0.75069 0.15865
 C4100 C 0.05586 0.73358 0.15616
 C4101 C 0.04069 0.73283 0.14342
 C4102 C 0.03597 0.74917 0.13297
 C4103 C 0.04657 0.76639 0.13575
 C4104 C 0.06180 0.76711 0.14837
 C4105 C 0.08349 0.75128 0.17130
 C4106 C 0.08758 0.76772 0.18173
 C4107 C 0.10452 0.76903 0.19223
 C4108 C 0.11761 0.75385 0.19258
 C4109 C 0.11308 0.73705 0.18284
 C4110 C 0.09622 0.73580 0.17224
 C4111 C 0.13646 0.75596 0.20218
 C4112 C 0.15323 0.74932 0.19410
 C4113 C 0.17114 0.75161 0.20279
 C4114 C 0.17269 0.76072 0.21970
 C4115 C 0.15594 0.76749 0.22777
 C4116 C 0.13796 0.76507 0.21909
 H4117 H 0.05914 0.72075 0.16405
 H4118 H 0.03289 0.71937 0.14168
 H4119 H 0.04302 0.77944 0.12833
 H4120 H 0.07001 0.78045 0.14982
 H4121 H 0.07784 0.77973 0.18149
 H4122 H 0.10769 0.78219 0.19952
 H4123 H 0.12276 0.72500 0.18313
 H4124 H 0.09354 0.72300 0.16426
 H4125 H 0.15258 0.74264 0.18088
 H4126 H 0.18380 0.74638 0.19615
 H4127 H 0.15668 0.77444 0.24086
 H4128 H 0.12523 0.77018 0.22569
   
