data_POSCAR
  _audit_creation_date              2014-09-24
  _audit_creation_method            'ToBaCCo'
  _symmetry_space_group_name_H-M    'P1'
  _symmetry_Int_Tables_number       1
  _symmetry_cell_setting            triclinic
  loop_
  _symmetry_equiv_pos_as_xyz
 x,y,z
_cell_length_a 88.7006
_cell_length_b 88.5707
_cell_length_c 88.6694
_cell_angle_alpha 90.024900
_cell_angle_beta 90.019000
_cell_angle_gamma 90.044300
loop_
  _atom_site_label
  _atom_site_type_symbol
  _atom_site_fract_x
  _atom_site_fract_y
  _atom_site_fract_z
C1 C 0.30217 0.43765 0.92592
 C2 C 0.30200 0.42676 0.93739
 C3 C 0.31307 0.42686 0.94842
 C4 C 0.32445 0.43787 0.94811
 C5 C 0.32461 0.44864 0.93678
 C6 C 0.31340 0.44853 0.92562
 C7 C 0.29338 0.43972 0.91328
 N8 N 0.29905 0.45155 0.90545
 C9 C 0.31127 0.45703 0.91280
 C10 C 0.33737 0.45729 0.93877
 N11 N 0.34480 0.45199 0.95101
 C12 C 0.33711 0.44013 0.95683
 C13 C 0.31066 0.41449 0.95751
 N14 N 0.29842 0.40702 0.95223
 C15 C 0.29303 0.41432 0.93995
 H16 H 0.28385 0.43291 0.90982
 H17 H 0.31828 0.46625 0.90889
 H18 H 0.34116 0.46647 0.93164
 H19 H 0.34066 0.43343 0.96640
 H20 H 0.31753 0.41092 0.96696
 H21 H 0.28359 0.41060 0.93315
 C22 C 0.43890 0.82370 0.44965
 C23 C 0.42791 0.81231 0.44974
 C24 C 0.42813 0.80112 0.43882
 C25 C 0.43934 0.80117 0.42768
 C26 C 0.45021 0.81242 0.42758
 C27 C 0.44999 0.82376 0.43863
 C28 C 0.44088 0.83649 0.45827
 N29 N 0.45287 0.84416 0.45272
 C30 C 0.45853 0.83658 0.44073
 C31 C 0.45901 0.81022 0.41498
 N32 N 0.45372 0.79794 0.40757
 C33 C 0.44171 0.79232 0.41514
 C34 C 0.41561 0.79219 0.44107
 N35 N 0.40794 0.79772 0.45306
 C36 C 0.41526 0.81001 0.45846
 H37 H 0.43389 0.84016 0.46760
 H38 H 0.46788 0.84033 0.43382
 H39 H 0.46826 0.81726 0.41122
 H40 H 0.43495 0.78279 0.41152
 H41 H 0.41208 0.78268 0.43424
 H42 H 0.41141 0.81699 0.46771
 C43 C 0.93774 0.92706 0.80116
 C44 C 0.92634 0.93801 0.80144
 C45 C 0.92637 0.94905 0.81252
 C46 C 0.93779 0.94927 0.82346
 C47 C 0.94906 0.93843 0.82318
 C48 C 0.94903 0.92726 0.81197
 C49 C 0.93998 0.91445 0.79234
 N50 N 0.95232 0.90715 0.79757
 C51 C 0.95796 0.91477 0.80956
 C52 C 0.95802 0.94077 0.83565
 N53 N 0.95244 0.95274 0.84334
 C54 C 0.94009 0.95804 0.83609
 C55 C 0.91352 0.95757 0.81060
 N56 N 0.90584 0.95193 0.79866
 C57 C 0.91348 0.93999 0.79296
 H58 H 0.93291 0.91063 0.78313
 H59 H 0.96753 0.91125 0.81628
 H60 H 0.96759 0.93401 0.83913
 H61 H 0.93305 0.96725 0.83996
 H62 H 0.90982 0.96689 0.81759
 H63 H 0.90974 0.93305 0.78363
 C64 C 0.43737 -0.07367 0.30164
 C65 C 0.42598 -0.06270 0.30195
 C66 C 0.42579 -0.05193 0.31329
 C67 C 0.43698 -0.05200 0.32447
 C68 C 0.44824 -0.06284 0.32417
 C69 C 0.44844 -0.07374 0.31269
 C70 C 0.43981 -0.08604 0.29255
 N71 N 0.45206 -0.09346 0.29784
 C72 C 0.45743 -0.08615 0.31014
 C73 C 0.45700 -0.06075 0.33682
 N74 N 0.45130 -0.04893 0.34466
 C75 C 0.43908 -0.04349 0.33730
 C76 C 0.41302 -0.04333 0.31129
 N77 N 0.40560 -0.04865 0.29904
 C78 C 0.41333 -0.06047 0.29323
 H79 H 0.43294 -0.08962 0.28310
 H80 H 0.46687 -0.08983 0.31696
 H81 H 0.46654 -0.06753 0.34029
 H82 H 0.43205 -0.03430 0.34121
 H83 H 0.40919 -0.03416 0.31840
 H84 H 0.40979 -0.06717 0.28364
 C85 C 0.80188 0.31265 0.32342
 C86 C 0.80215 0.32400 0.31240
 C87 C 0.81342 0.32413 0.30159
 C88 C 0.82458 0.31291 0.30167
 C89 C 0.82432 0.30170 0.31257
 C90 C 0.81291 0.30157 0.32350
 C91 C 0.79285 0.31026 0.33583
 N92 N 0.79816 0.29804 0.34330
 C93 C 0.81040 0.29262 0.33595
 C94 C 0.83694 0.29291 0.31047
 N95 N 0.84472 0.29854 0.29859
 C96 C 0.83735 0.31075 0.29312
 C97 C 0.81138 0.33686 0.29292
 N98 N 0.79917 0.34433 0.29825
 C99 C 0.79343 0.33665 0.31014
 H100 H 0.78343 0.31714 0.33942
 H101 H 0.81721 0.28318 0.33966
 H102 H 0.84043 0.28339 0.31728
 H103 H 0.84123 0.31774 0.28388
 H104 H 0.81844 0.34064 0.28370
 H105 H 0.78388 0.34024 0.31685
 C106 C -0.18882 0.82355 0.80066
 C107 C -0.17786 0.81214 0.80055
 C108 C -0.17813 0.80093 0.81145
 C109 C -0.18935 0.80100 0.82258
 C110 C -0.20019 0.81227 0.82269
 C111 C -0.19991 0.82362 0.81166
 C112 C -0.19074 0.83636 0.79205
 N113 N -0.20271 0.84404 0.79761
 C114 C -0.20841 0.83646 0.80958
 C115 C -0.20902 0.81008 0.83528
 N116 N -0.20377 0.79777 0.84266
 C117 C -0.19176 0.79212 0.83510
 C118 C -0.16564 0.79198 0.80919
 N119 N -0.15794 0.79751 0.79722
 C120 C -0.16522 0.80982 0.79184
 H121 H -0.18373 0.84001 0.78274
 H122 H -0.21776 0.84022 0.81649
 H123 H -0.21824 0.81715 0.83903
 H124 H -0.18503 0.78258 0.83869
 H125 H -0.16216 0.78246 0.81600
 H126 H -0.16134 0.81681 0.78260
 C127 C 0.94819 0.32505 0.43673
 C128 C 0.94824 0.31390 0.42550
 C129 C 0.93746 0.30256 0.42566
 C130 C 0.92651 0.30224 0.43706
 C131 C 0.92646 0.31326 0.44816
 C132 C 0.93736 0.32473 0.44800
 C133 C 0.95675 0.33786 0.43889
 N134 N 0.95133 0.34517 0.45116
 C135 C 0.93950 0.33735 0.45683
 C136 C 0.91408 0.31067 0.45717
 N137 N 0.90675 0.29838 0.45177
 C138 C 0.91416 0.29313 0.43949
 C139 C 0.93969 0.29384 0.41300
 N140 N 0.95153 0.29964 0.40528
 C141 C 0.95685 0.31188 0.41273
 H142 H 0.96595 0.34176 0.43186
 H143 H 0.93273 0.34079 0.46640
 H144 H 0.91041 0.31745 0.46665
 H145 H 0.91057 0.28368 0.43262
 H146 H 0.93300 0.28425 0.40944
 H147 H 0.96604 0.31898 0.40893
 C148 C 0.44745 0.43740 0.82462
 C149 C 0.44758 0.42647 0.81318
 C150 C 0.43653 0.42658 0.80213
 C151 C 0.42522 0.43763 0.80238
 C152 C 0.42509 0.44844 0.81369
 C153 C 0.43627 0.44832 0.82487
 C154 C 0.45623 0.43947 0.83727
 N155 N 0.45060 0.45136 0.84505
 C156 C 0.43842 0.45687 0.83768
 C157 C 0.41239 0.45713 0.81164
 N158 N 0.40494 0.45182 0.79940
 C159 C 0.41259 0.43992 0.79364
 C160 C 0.43891 0.41417 0.79307
 N161 N 0.45109 0.40667 0.79840
 C162 C 0.45650 0.41399 0.81067
 H163 H 0.46572 0.43262 0.84076
 H164 H 0.43144 0.46612 0.84154
 H165 H 0.40862 0.46634 0.81872
 H166 H 0.40901 0.43321 0.78407
 H167 H 0.43204 0.41060 0.78362
 H168 H 0.46591 0.41026 0.81749
 C169 C 0.80042 0.92753 0.93872
 C170 C 0.80055 0.93852 0.92734
 C171 C 0.81159 0.94960 0.92727
 C172 C 0.82263 0.94983 0.93860
 C173 C 0.82251 0.93897 0.94985
 C174 C 0.81134 0.92775 0.94991
 C175 C 0.79168 0.91488 0.94101
 N176 N 0.79706 0.90756 0.95328
 C177 C 0.80907 0.91522 0.95883
 C178 C 0.83505 0.94133 0.95870
 N179 N 0.84264 0.95334 0.95306
 C180 C 0.83526 0.95864 0.94079
 C181 C 0.80952 0.95812 0.91445
 N182 N 0.79753 0.95245 0.90687
 C183 C 0.79195 0.94048 0.91456
 H184 H 0.78243 0.91103 0.93401
 H185 H 0.81590 0.91170 0.96832
 H186 H 0.83864 0.93456 0.96822
 H187 H 0.83903 0.96788 0.93373
 H188 H 0.81644 0.96746 0.91068
 H189 H 0.78262 0.93349 0.91089
 C190 C 0.30064 0.82391 0.31111
 C191 C 0.30037 0.81256 0.32213
 C192 C 0.31120 0.80129 0.32202
 C193 C 0.32242 0.80124 0.31089
 C194 C 0.32269 0.81245 0.30000
 C195 C 0.31173 0.82385 0.30011
 C196 C 0.29214 0.83675 0.30905
 N197 N 0.29784 0.84435 0.29708
 C198 C 0.30981 0.83667 0.29152
 C199 C 0.33534 0.81014 0.29130
 N200 N 0.34262 0.79783 0.29668
 C201 C 0.33491 0.79229 0.30864
 C202 C 0.30879 0.79243 0.33455
 N203 N 0.29680 0.79807 0.34212
 C204 C 0.29155 0.81036 0.33473
 H205 H 0.28279 0.84051 0.31596
 H206 H 0.31682 0.84034 0.28221
 H207 H 0.33922 0.81712 0.28206
 H208 H 0.33841 0.78277 0.31545
 H209 H 0.31552 0.78289 0.33815
 H210 H 0.28233 0.81742 0.33850
 C211 C 0.80276 0.42620 0.43674
 C212 C 0.80295 0.43713 0.42531
 C213 C 0.81422 0.44799 0.42505
 C214 C 0.82542 0.44803 0.43621
 C215 C 0.82523 0.43721 0.44751
 C216 C 0.81383 0.42624 0.44777
 C217 C 0.79374 0.41379 0.43927
 N218 N 0.79910 0.40644 0.45153
 C219 C 0.81136 0.41385 0.45683
 C220 C 0.83788 0.43943 0.45625
 N221 N 0.84559 0.45130 0.45049
 C222 C 0.83818 0.45666 0.43826
 C223 C 0.81209 0.45656 0.41227
 N224 N 0.79985 0.45114 0.40491
 C225 C 0.79416 0.43928 0.41269
 H226 H 0.78428 0.41013 0.43247
 H227 H 0.81821 0.41024 0.46628
 H228 H 0.84140 0.43270 0.46582
 H229 H 0.84199 0.46587 0.43118
 H230 H 0.81911 0.46578 0.40840
 H231 H 0.78460 0.43252 0.40921
 C232 C 0.94011 0.82061 -0.04911
 C233 C 0.92893 0.80941 -0.04922
 C234 C 0.92897 0.79839 -0.06032
 C235 C 0.94020 0.79844 -0.07145
 C236 C 0.95126 0.80951 -0.07135
 C237 C 0.95121 0.82066 -0.06011
 C238 C 0.94219 0.83330 -0.04038
 N239 N 0.95425 0.84093 -0.04584
 C240 C 0.95985 0.83339 -0.05789
 C241 C 0.95998 0.80745 -0.08403
 N242 N 0.95445 0.79542 -0.09168
 C243 C 0.94237 0.78982 -0.08420
 C244 C 0.91624 0.78971 -0.05829
 N245 N 0.90862 0.79522 -0.04626
 C246 C 0.91618 0.80725 -0.04062
 H247 H 0.93518 0.83700 -0.03110
 H248 H 0.96918 0.83718 -0.06480
 H249 H 0.96930 0.81446 -0.08768
 H250 H 0.93541 0.78051 -0.08800
 H251 H 0.91252 0.78042 -0.06532
 H252 H 0.91241 0.81419 -0.03130
 C253 C 0.30008 0.32328 0.81150
 C254 C 0.29986 0.31195 0.82254
 C255 C 0.31069 0.30069 0.82240
 C256 C 0.32186 0.30061 0.81122
 C257 C 0.32208 0.31181 0.80031
 C258 C 0.31112 0.32321 0.80045
 C259 C 0.29157 0.33612 0.80945
 N260 N 0.29721 0.34371 0.79746
 C261 C 0.30915 0.33601 0.79186
 C262 C 0.33470 0.30948 0.79156
 N263 N 0.34200 0.29718 0.79693
 C264 C 0.33434 0.29166 0.80893
 C265 C 0.30834 0.29184 0.83496
 N266 N 0.29639 0.29750 0.84257
 C267 C 0.29110 0.30978 0.83518
 H268 H 0.28226 0.33989 0.81639
 H269 H 0.31611 0.33968 0.78252
 H270 H 0.33854 0.31646 0.78230
 H271 H 0.33787 0.28216 0.81575
 H272 H 0.31509 0.28232 0.83855
 H273 H 0.28190 0.31684 0.83898
 C274 C 0.17773 0.56238 0.54997
 C275 C 0.18874 0.57375 0.55030
 C276 C 0.19973 0.57368 0.56141
 C277 C 0.19984 0.56223 0.57234
 C278 C 0.18896 0.55100 0.57202
 C279 C 0.17784 0.55108 0.56077
 C280 C 0.16515 0.56019 0.54113
 N281 N 0.15776 0.54786 0.54633
 C282 C 0.16533 0.54219 0.55832
 C283 C 0.19119 0.54202 0.58450
 N284 N 0.20314 0.54756 0.59224
 C285 C 0.20852 0.55990 0.58501
 C286 C 0.20830 0.58651 0.55954
 N287 N 0.20276 0.59423 0.54759
 C288 C 0.19081 0.58663 0.54184
 H289 H 0.16138 0.56727 0.53192
 H290 H 0.16173 0.53263 0.56502
 H291 H 0.18438 0.53248 0.58795
 H292 H 0.21773 0.56690 0.58893
 H293 H 0.21760 0.59018 0.56656
 H294 H 0.18393 0.59041 0.53250
 C295 C 0.57400 0.68766 0.05154
 C296 C 0.56260 0.67668 0.05142
 C297 C 0.55160 0.67674 0.06252
 C298 C 0.55187 0.68777 0.07386
 C299 C 0.56314 0.69862 0.07398
 C300 C 0.57427 0.69856 0.06275
 C301 C 0.58661 0.68979 0.04273
 N302 N 0.59438 0.70169 0.04835
 C303 C 0.58704 0.70715 0.06057
 C304 C 0.56111 0.70728 0.08672
 N305 N 0.54893 0.70192 0.09420
 C306 C 0.54318 0.69001 0.08653
 C307 C 0.54258 0.66430 0.06015
 N308 N 0.54787 0.65683 0.04792
 C309 C 0.56009 0.66421 0.04249
 H310 H 0.59009 0.68298 0.03320
 H311 H 0.59091 0.71640 0.06756
 H312 H 0.56818 0.71652 0.09050
 H313 H 0.53365 0.68326 0.09013
 H314 H 0.53317 0.66068 0.06704
 H315 H 0.56688 0.66051 0.03304
 C316 C 0.68652 0.19843 0.67606
 C317 C 0.67538 0.19840 0.68728
 C318 C 0.67565 0.18755 0.69854
 C319 C 0.68707 0.17661 0.69871
 C320 C 0.69808 0.17665 0.68762
 C321 C 0.69780 0.18762 0.67623
 C322 C 0.68853 0.20703 0.66328
 N323 N 0.70073 0.20166 0.65583
 C324 C 0.70649 0.18981 0.66356
 C325 C 0.70710 0.16423 0.69003
 N326 N 0.70180 0.15680 0.70228
 C327 C 0.68958 0.16418 0.70768
 C328 C 0.66303 0.18967 0.70732
 N329 N 0.65523 0.20151 0.70164
 C330 C 0.66259 0.20694 0.68941
 H331 H 0.68145 0.21622 0.65946
 H332 H 0.71603 0.18307 0.65999
 H333 H 0.71651 0.16060 0.68315
 H334 H 0.68277 0.16050 0.71713
 H335 H 0.65955 0.18289 0.71686
 H336 H 0.65869 0.21614 0.68237
 C337 C 1.07259 0.06116 0.19857
 C338 C 1.06138 0.07231 0.19855
 C339 C 1.05057 0.07248 0.18726
 C340 C 1.05086 0.06152 0.17585
 C341 C 1.06194 0.05049 0.17587
 C342 C 1.07287 0.05031 0.18731
 C343 C 1.08503 0.05883 0.20756
 N344 N 1.09273 0.04687 0.20200
 C345 C 1.08549 0.04156 0.18963
 C346 C 1.06001 0.04193 0.16304
 N347 N 1.04804 0.04754 0.15538
 C348 C 1.04235 0.05949 0.16301
 C349 C 1.04174 0.08507 0.18952
 N350 N 1.04696 0.09239 0.20188
 C351 C 1.05894 0.08478 0.20750
 H352 H 1.08849 0.06558 0.21714
 H353 H 1.08938 0.03234 0.18262
 H354 H 1.06699 0.03261 0.15935
 H355 H 1.03299 0.06641 0.15930
 H356 H 1.03253 0.08888 0.18248
 H357 H 1.06564 0.08832 0.21708
 C358 C 0.06300 0.17545 1.05224
 C359 C 0.07427 0.18655 1.05221
 C360 C 0.07416 0.19787 1.06301
 C361 C 0.06277 0.19821 1.07397
 C362 C 0.05163 0.18722 1.07400
 C363 C 0.05174 0.17578 1.06307
 C364 C 0.06080 0.16265 1.04368
 N365 N 0.04852 0.15535 1.04910
 C366 C 0.04289 0.16318 1.06093
 C367 C 0.04265 0.18979 1.08641
 N368 N 0.04812 0.20203 1.09377
 C369 C 0.06040 0.20728 1.08637
 C370 C 0.08686 0.20653 1.06081
 N371 N 0.09455 0.20072 1.04896
 C372 C 0.08705 0.18853 1.04361
 H373 H 0.06780 0.15872 1.03448
 H374 H 0.03332 0.15974 1.06770
 H375 H 0.03316 0.18301 1.09007
 H376 H 0.06734 0.21668 1.08998
 H377 H 0.09047 0.21608 1.06753
 H378 H 0.09082 0.18142 1.03441
 C379 C 0.17520 0.69882 0.68663
 C380 C 0.18634 0.69884 0.67541
 C381 C 0.19760 0.68800 0.67558
 C382 C 0.19786 0.67703 0.68697
 C383 C 0.18685 0.67701 0.69805
 C384 C 0.17545 0.68797 0.69789
 C385 C 0.16244 0.70742 0.68878
 N386 N 0.15509 0.70201 0.70102
 C387 C 0.16285 0.69014 0.70669
 C388 C 0.18935 0.66459 0.70705
 N389 N 0.20158 0.65720 0.70165
 C390 C 0.20688 0.66461 0.68940
 C391 C 0.20631 0.69020 0.66292
 N392 N 0.20058 0.70208 0.65520
 C393 C 0.18839 0.70746 0.66265
 H394 H 0.15858 0.71664 0.68176
 H395 H 0.15936 0.68337 0.71624
 H396 H 0.18255 0.66093 0.71651
 H397 H 0.21629 0.66098 0.68253
 H398 H 0.21585 0.68346 0.65936
 H399 H 0.18134 0.71668 0.65884
 C400 C 1.18912 0.17780 0.19884
 C401 C 1.17793 0.18897 0.19892
 C402 C 1.17769 0.19989 0.18774
 C403 C 1.18864 0.19976 0.17633
 C404 C 1.19970 0.18872 0.17625
 C405 C 1.19994 0.17767 0.18757
 C406 C 1.19150 0.16525 0.20768
 N407 N 1.20347 0.15764 0.20203
 C408 C 1.20873 0.16504 0.18975
 C409 C 1.20820 0.19078 0.16341
 N410 N 1.20252 0.20279 0.15585
 C411 C 1.19057 0.20838 0.16355
 C412 C 1.16507 0.20863 0.19007
 N413 N 1.15778 0.20324 0.20236
 C414 C 1.16545 0.19124 0.20787
 H415 H 1.18477 0.16165 0.21722
 H416 H 1.21794 0.16125 0.18269
 H417 H 1.21752 0.18385 0.15964
 H418 H 1.18359 0.21772 0.15990
 H419 H 1.16120 0.21788 0.18310
 H420 H 1.16194 0.18441 0.21737
 C421 C 0.67772 1.05121 0.56165
 C422 C 0.68889 1.05111 0.57284
 C423 C 0.69980 1.06232 0.57311
 C424 C 0.69965 1.07377 0.56220
 C425 C 0.68860 1.07387 0.55113
 C426 C 0.67757 1.06252 0.55086
 C427 C 0.66520 1.04233 0.55924
 N428 N 0.65759 1.04801 0.54729
 C429 C 0.66496 1.06034 0.54206
 C430 C 0.69067 1.08674 0.54265
 N431 N 0.70268 1.09430 0.54833
 C432 C 0.70827 1.08658 0.56027
 C433 C 0.70856 1.05994 0.58572
 N434 N 0.70320 1.04760 0.59297
 C435 C 0.69120 1.04210 0.58528
 H436 H 0.66163 1.03275 0.56594
 H437 H 0.66116 1.06742 0.53286
 H438 H 0.68374 1.09051 0.53332
 H439 H 0.71762 1.09020 0.56725
 H440 H 0.71781 1.06691 0.58960
 H441 H 0.68439 1.03256 0.58875
 C442 C 0.56130 0.55057 0.17750
 C443 C 0.57249 0.55064 0.18868
 C444 C 0.57271 0.56197 0.19947
 C445 C 0.56174 0.57336 0.19920
 C446 C 0.55068 0.57329 0.18816
 C447 C 0.55045 0.56183 0.17725
 C448 C 0.55894 0.54158 0.16505
 N449 N 0.54697 0.54713 0.15738
 C450 C 0.54168 0.55949 0.16464
 C451 C 0.54216 0.58614 0.19009
 N452 N 0.54781 0.59387 0.20200
 C453 C 0.55977 0.58625 0.20767
 C454 C 0.58533 0.55977 0.20823
 N455 N 0.59265 0.54742 0.20299
 C456 C 0.58499 0.54174 0.19106
 H457 H 0.56570 0.53202 0.16156
 H458 H 0.53246 0.56650 0.16077
 H459 H 0.53283 0.58982 0.18312
 H460 H 0.56673 0.59003 0.21697
 H461 H 0.58919 0.56686 0.21741
 H462 H 0.58851 0.53216 0.18434
 C463 C 0.67607 0.68781 0.19789
 C464 C 0.68751 0.67688 0.19802
 C465 C 0.69850 0.67697 0.18693
 C466 C 0.69820 0.68797 0.17557
 C467 C 0.68690 0.69877 0.17544
 C468 C 0.67577 0.69869 0.18667
 C469 C 0.66346 0.68990 0.20670
 N470 N 0.65565 0.70175 0.20107
 C471 C 0.66298 0.70722 0.18884
 C472 C 0.68890 0.70741 0.16268
 N473 N 0.70110 0.70209 0.15521
 C474 C 0.70688 0.69022 0.16289
 C475 C 0.70755 0.66457 0.18930
 N476 N 0.70228 0.65710 0.20153
 C477 C 0.69005 0.66444 0.20697
 H478 H 0.66001 0.68309 0.21624
 H479 H 0.65907 0.71644 0.18184
 H480 H 0.68180 0.71661 0.15890
 H481 H 0.71643 0.68351 0.15930
 H482 H 0.71696 0.66097 0.18240
 H483 H 0.68326 0.66072 0.21641
 C484 C 0.17584 0.06253 1.05107
 C485 C 0.18706 0.07369 1.05113
 C486 C 0.19830 0.07342 1.06198
 C487 C 0.19846 0.06198 1.07291
 C488 C 0.18737 0.05095 1.07286
 C489 C 0.17600 0.05123 1.06188
 C490 C 0.16306 0.06052 1.04248
 N491 N 0.15559 0.04831 1.04783
 C492 C 0.16331 0.04253 1.05968
 C493 C 0.18975 0.04192 1.08527
 N494 N 0.20198 0.04724 1.09272
 C495 C 0.20740 0.05949 1.08536
 C496 C 0.20707 0.08608 1.05989
 N497 N 0.20140 0.09389 1.04805
 C498 C 0.18919 0.08651 1.04260
 H499 H 0.15925 0.06762 1.03330
 H500 H 0.15972 0.03299 1.06642
 H501 H 0.18286 0.03250 1.08889
 H502 H 0.21684 0.06631 1.08906
 H503 H 0.21660 0.08958 1.06669
 H504 H 0.18216 0.09041 1.03341
 C505 C 0.57379 0.19923 0.56270
 C506 C 0.56260 0.19928 0.57387
 C507 C 0.55131 0.18846 0.57367
 C508 C 0.55107 0.17746 0.56229
 C509 C 0.56212 0.17741 0.55125
 C510 C 0.57355 0.18836 0.55146
 C511 C 0.58661 0.20776 0.56064
 N512 N 0.59402 0.20230 0.54846
 C513 C 0.58623 0.19046 0.54275
 C514 C 0.55967 0.16494 0.54230
 N515 N 0.54743 0.15755 0.54768
 C516 C 0.54208 0.16501 0.55988
 C517 C 0.54260 0.19063 0.58633
 N518 N 0.54835 0.20248 0.59408
 C519 C 0.56057 0.20787 0.58667
 H520 H 0.59049 0.21696 0.56770
 H521 H 0.58976 0.18364 0.53324
 H522 H 0.56653 0.16122 0.53291
 H523 H 0.53266 0.16137 0.56675
 H524 H 0.53306 0.18387 0.58988
 H525 H 0.56766 0.21705 0.59052
 C526 C 0.07196 0.56217 0.69980
 C527 C 0.06093 0.57351 0.69951
 C528 C 0.04992 0.57340 0.68842
 C529 C 0.04981 0.56195 0.67749
 C530 C 0.06070 0.55075 0.67777
 C531 C 0.07184 0.55086 0.68899
 C532 C 0.08457 0.56002 0.70862
 N533 N 0.09196 0.54771 0.70338
 C534 C 0.08438 0.54202 0.69141
 C535 C 0.05846 0.54178 0.66529
 N536 N 0.04649 0.54728 0.65757
 C537 C 0.04111 0.55960 0.66483
 C538 C 0.04134 0.58621 0.69032
 N539 N 0.04690 0.59395 0.70226
 C540 C 0.05886 0.58638 0.70797
 H541 H 0.08835 0.56711 0.71782
 H542 H 0.08798 0.53247 0.68469
 H543 H 0.06528 0.53226 0.66180
 H544 H 0.03188 0.56658 0.66092
 H545 H 0.03202 0.58985 0.68331
 H546 H 0.06577 0.59019 0.71731
 C547 C 0.67755 0.55063 0.06075
 C548 C 0.68874 0.55063 0.07192
 C549 C 0.69956 0.56193 0.07217
 C550 C 0.69931 0.57336 0.06124
 C551 C 0.68825 0.57337 0.05019
 C552 C 0.67731 0.56193 0.04994
 C553 C 0.66507 0.54168 0.05837
 N554 N 0.65740 0.54731 0.04643
 C555 C 0.66469 0.55967 0.04118
 C556 C 0.69020 0.58625 0.04172
 N557 N 0.70213 0.59393 0.04738
 C558 C 0.70780 0.58625 0.05931
 C559 C 0.70833 0.55964 0.08478
 N560 N 0.70307 0.54728 0.09205
 C561 C 0.69111 0.54166 0.08439
 H562 H 0.66156 0.53210 0.06510
 H563 H 0.66083 0.56673 0.03199
 H564 H 0.68323 0.58997 0.03241
 H565 H 0.71712 0.58998 0.06627
 H566 H 0.71753 0.56670 0.08865
 H567 H 0.68438 0.53208 0.08788
 C568 C 0.06360 0.69871 0.57472
 C569 C 0.07473 0.69874 0.56349
 C570 C 0.07450 0.68788 0.55224
 C571 C 0.06314 0.67687 0.55207
 C572 C 0.05214 0.67684 0.56316
 C573 C 0.05237 0.68782 0.57456
 C574 C 0.06153 0.70733 0.58749
 N575 N 0.04935 0.70190 0.59493
 C576 C 0.04365 0.68999 0.58722
 C577 C 0.04315 0.66439 0.56073
 N578 N 0.04846 0.65700 0.54846
 C579 C 0.06066 0.66444 0.54307
 C580 C 0.08709 0.69011 0.54343
 N581 N 0.09482 0.70202 0.54909
 C582 C 0.08746 0.70739 0.56134
 H583 H 0.06855 0.71659 0.59129
 H584 H 0.03414 0.68321 0.59078
 H585 H 0.03374 0.66072 0.56760
 H586 H 0.06746 0.66081 0.53359
 H587 H 0.09059 0.68335 0.53387
 H588 H 0.09130 0.71664 0.56836
 C589 C 0.56166 1.05147 0.67687
 C590 C 0.57279 1.05152 0.68811
 C591 C 0.57295 1.06282 0.69892
 C592 C 0.56198 1.07421 0.69863
 C593 C 0.55097 1.07416 0.68752
 C594 C 0.55081 1.06272 0.67659
 C595 C 0.55932 1.04244 0.66444
 N596 N 0.54734 1.04798 0.65675
 C597 C 0.54204 1.06036 0.66398
 C598 C 0.54239 1.08697 0.68948
 N599 N 0.54795 1.09464 0.70147
 C600 C 0.55992 1.08705 0.70716
 C601 C 0.58549 1.06055 0.70780
 N602 N 0.59281 1.04819 0.70261
 C603 C 0.58523 1.04257 0.69059
 H604 H 0.56607 1.03285 0.66100
 H605 H 0.53280 1.06736 0.66011
 H606 H 0.53305 1.09062 0.68250
 H607 H 0.56681 1.09077 0.71654
 H608 H 0.58926 1.06759 0.71705
 H609 H 0.58877 1.03296 0.68391
 C610 C 0.44972 0.32318 0.93884
 C611 C 0.44994 0.31177 0.92786
 C612 C 0.43910 0.30050 0.92805
 C613 C 0.42791 0.30049 0.93922
 C614 C 0.42769 0.31175 0.95007
 C615 C 0.43866 0.32316 0.94988
 C616 C 0.45823 0.33604 0.94082
 N617 N 0.45257 0.34369 0.95277
 C618 C 0.44061 0.33602 0.95841
 C619 C 0.41506 0.30948 0.95881
 N620 N 0.40775 0.29715 0.95350
 C621 C 0.41541 0.29155 0.94154
 C622 C 0.44145 0.29158 0.91555
 N623 N 0.45342 0.29719 0.90791
 C624 C 0.45870 0.30952 0.91524
 H625 H 0.46755 0.33977 0.93386
 H626 H 0.43363 0.33973 0.96772
 H627 H 0.41120 0.31652 0.96802
 H628 H 0.41188 0.28200 0.93477
 H629 H 0.43469 0.28202 0.91200
 H630 H 0.46791 0.31657 0.91140
 C631 C 0.94733 0.43623 0.32541
 C632 C 0.94727 0.42505 0.31421
 C633 C 0.93620 0.42508 0.30318
 C634 C 0.92504 0.43629 0.30323
 C635 C 0.92510 0.44734 0.31430
 C636 C 0.93631 0.44731 0.32545
 C637 C 0.95620 0.43848 0.33797
 N638 N 0.95078 0.45063 0.34549
 C639 C 0.93864 0.45613 0.33804
 C640 C 0.91255 0.45620 0.31206
 N641 N 0.90501 0.45077 0.29993
 C642 C 0.91246 0.43861 0.29443
 C643 C 0.93843 0.41250 0.29432
 N644 N 0.95055 0.40497 0.29974
 C645 C 0.95606 0.41245 0.31188
 H646 H 0.96562 0.43158 0.34157
 H647 H 0.93181 0.46558 0.34171
 H648 H 0.90894 0.46564 0.31893
 H649 H 0.90878 0.43178 0.28499
 H650 H 0.93155 0.40888 0.28490
 H651 H 0.96550 0.40878 0.31870
 C652 C 0.30296 0.93814 0.42490
 C653 C 0.30278 0.92719 0.43631
 C654 C 0.31387 0.92722 0.44733
 C655 C 0.32527 0.93819 0.44706
 C656 C 0.32545 0.94902 0.43578
 C657 C 0.31423 0.94900 0.42463
 C658 C 0.29414 0.94030 0.41230
 N659 N 0.29981 0.95218 0.40453
 C660 C 0.31208 0.95760 0.41186
 C661 C 0.33822 0.95766 0.43784
 N662 N 0.34563 0.95229 0.45007
 C663 C 0.33791 0.94041 0.45581
 C664 C 0.31141 0.91483 0.45638
 N665 N 0.29915 0.90742 0.45109
 C666 C 0.29377 0.91479 0.43885
 H667 H 0.28457 0.93353 0.40884
 H668 H 0.31911 0.96682 0.40800
 H669 H 0.34202 0.96688 0.43078
 H670 H 0.34144 0.93367 0.46537
 H671 H 0.31827 0.91121 0.46582
 H672 H 0.28429 0.91113 0.43205
 O673 O 0.20927 0.51994 0.74908
 O674 O 0.21416 0.51796 0.77480
 O675 O 0.24887 0.54067 0.73082
 O676 O 0.27369 0.53618 0.73033
 O677 O 0.23011 0.50107 0.70965
 O678 O 0.23113 0.47478 0.71525
 O679 O 0.28881 0.49971 0.76975
 O680 O 0.28458 0.52537 0.76681
 O681 O 0.25058 0.48088 0.78932
 O682 O 0.22341 0.48191 0.78411
 O683 O 0.26883 0.46090 0.75098
 O684 O 0.26815 0.46611 0.72406
 O685 O 0.28885 0.48145 0.75162
 O686 O 0.28336 0.48298 0.72362
 O687 O 0.25061 0.46075 0.76904
 O688 O 0.22288 0.46650 0.76740
 O689 O 0.26897 0.49883 0.78928
 O690 O 0.26393 0.52614 0.78441
 O691 O 0.20911 0.50145 0.73114
 O692 O 0.21477 0.47466 0.73233
 O693 O 0.24829 0.51924 0.70956
 O694 O 0.27553 0.51686 0.71577
 O695 O 0.23037 0.54064 0.74865
 O696 O 0.23378 0.53466 0.77584
 Zr697 Zr 0.23118 0.51880 0.75807
 O698 O 0.24428 0.50527 0.77254
 Zr699 Zr 0.25759 0.51860 0.73142
 O700 O 0.27200 0.50553 0.74503
 Zr701 Zr 0.23101 0.49213 0.73162
 O702 O 0.24445 0.47765 0.74481
 Zr703 Zr 0.26716 0.50905 0.76794
 O704 O 0.25414 0.52376 0.75438
 Zr705 Zr 0.24078 0.48232 0.76775
 O706 O 0.22618 0.49579 0.75454
 Zr707 Zr 0.26740 0.48255 0.74137
 O708 O 0.25394 0.49562 0.72655
 O709 O 0.23481 0.51496 0.73522
 O710 O 0.26367 0.48606 0.76426
 C711 C 0.20282 0.51211 0.73872
 C712 C 0.23824 0.54703 0.73831
 C713 C 0.23779 0.51153 0.70322
 C714 C 0.29505 0.48890 0.76241
 C715 C 0.26150 0.48810 0.79550
 C716 C 0.26141 0.45458 0.76167
 H717 H 0.24188 0.50774 0.78315
 H718 H 0.24203 0.46705 0.74228
 H719 H 0.22839 0.52141 0.72876
 H720 H 0.28261 0.50810 0.74279
 H721 H 0.27979 0.53494 0.76359
 H722 H 0.28141 0.53396 0.73805
 H723 H 0.22459 0.45955 0.75884
 H724 H 0.20963 0.47550 0.74220
 H725 H 0.27253 0.52573 0.79155
 H726 H 0.22580 0.54245 0.77492
 H727 H 0.25860 0.46035 0.72444
 H728 H 0.24125 0.47498 0.71054
 H729 H 0.20997 0.50760 0.77462
 H730 H 0.22430 0.49119 0.79025
 H731 H 0.27374 0.50758 0.70980
 H732 H 0.29046 0.49137 0.72559
 O733 O 0.24910 0.04023 0.23001
 O734 O 0.27483 0.03538 0.23194
 O735 O 0.23083 0.00044 0.20950
 O736 O 0.23031 -0.02439 0.21413
 O737 O 0.20976 0.01940 0.24902
 O738 O 0.21542 0.01845 0.27528
 O739 O 0.26983 -0.03934 0.25047
 O740 O 0.26685 -0.03517 0.22485
 O741 O 0.28949 -0.00089 0.26907
 O742 O 0.28422 0.02632 0.26794
 O743 O 0.25130 -0.01922 0.28921
 O744 O 0.22434 -0.01854 0.28414
 O745 O 0.25174 -0.03934 0.26874
 O746 O 0.22378 -0.03382 0.26734
 O747 O 0.26932 -0.00092 0.28923
 O748 O 0.26760 0.02683 0.28341
 O749 O 0.28938 -0.01942 0.25127
 O750 O 0.28444 -0.01449 0.22397
 O751 O 0.23124 0.04044 0.24853
 O752 O 0.23250 0.03486 0.27531
 O753 O 0.20963 0.00113 0.23094
 O754 O 0.21582 -0.02614 0.23347
 O755 O 0.24863 0.01900 0.20942
 O756 O 0.27582 0.01567 0.21534
 Zr757 Zr 0.25811 0.01831 0.23121
 O758 O 0.27262 0.00527 0.24475
 Zr759 Zr 0.23148 -0.00818 0.23160
 O760 O 0.24513 -0.02253 0.24469
 Zr761 Zr 0.23175 0.01855 0.25792
 O762 O 0.24500 0.00517 0.27242
 Zr763 Zr 0.26802 -0.01768 0.24109
 O764 O 0.25441 -0.00471 0.22637
 Zr765 Zr 0.26790 0.00886 0.26766
 O766 O 0.25464 0.02341 0.25418
 Zr767 Zr 0.24155 -0.01784 0.26763
 O768 O 0.22668 -0.00445 0.25455
 O769 O 0.23528 0.01465 0.23512
 O770 O 0.26442 -0.01409 0.26404
 C771 C 0.23878 0.04671 0.23784
 C772 C 0.23829 0.01107 0.20308
 C773 C 0.20331 0.01167 0.23860
 C774 C 0.26250 -0.04557 0.26129
 C775 C 0.29564 -0.01186 0.26192
 C776 C 0.26203 -0.01176 0.29544
 H777 H 0.28322 0.00767 0.24224
 H778 H 0.24251 0.00762 0.28300
 H779 H 0.22881 0.02105 0.22866
 H780 H 0.24288 -0.03317 0.24216
 H781 H 0.26359 -0.03041 0.21528
 H782 H 0.23807 -0.03209 0.21635
 H783 H 0.25909 0.02510 0.29041
 H784 H 0.24237 0.04001 0.27445
 H785 H 0.29158 -0.02308 0.22442
 H786 H 0.27488 0.02364 0.20753
 H787 H 0.22477 -0.00896 0.28986
 H788 H 0.21075 0.00830 0.27515
 H789 H 0.27465 0.03964 0.24226
 H790 H 0.29035 0.02539 0.25867
 H791 H 0.20986 -0.02429 0.24272
 H792 H 0.22567 -0.04093 0.25894
 O793 O 0.45986 0.75132 0.26961
 O794 O 0.46471 0.72556 0.26765
 O795 O 0.49952 0.76957 0.29031
 O796 O 0.52432 0.77015 0.28577
 O797 O 0.48070 0.79072 0.25074
 O798 O 0.48179 0.78509 0.22447
 O799 O 0.53938 0.73057 0.24938
 O800 O 0.53516 0.73356 0.27501
 O801 O 0.50109 0.71092 0.23066
 O802 O 0.47396 0.71617 0.23163
 O803 O 0.51945 0.74928 0.21064
 O804 O 0.51877 0.77624 0.21579
 O805 O 0.53945 0.74872 0.23115
 O806 O 0.53396 0.77674 0.23265
 O807 O 0.50123 0.73118 0.21051
 O808 O 0.47347 0.73287 0.21623
 O809 O 0.51949 0.71099 0.24857
 O810 O 0.51449 0.71596 0.27584
 O811 O 0.45972 0.76922 0.25110
 O812 O 0.46540 0.76799 0.22434
 O813 O 0.49887 0.79085 0.26890
 O814 O 0.52613 0.78467 0.26645
 O815 O 0.48098 0.75174 0.29030
 O816 O 0.48432 0.72452 0.28433
 Zr817 Zr 0.48175 0.74230 0.26848
 O818 O 0.49484 0.72779 0.25497
 Zr819 Zr 0.50820 0.76898 0.26824
 O820 O 0.52259 0.75533 0.25519
 Zr821 Zr 0.48162 0.76872 0.24181
 O822 O 0.49505 0.75549 0.22735
 Zr823 Zr 0.51774 0.73239 0.25873
 O824 O 0.50472 0.74600 0.27341
 Zr825 Zr 0.49136 0.73254 0.23204
 O826 O 0.47676 0.74579 0.24549
 Zr827 Zr 0.51800 0.75896 0.23224
 O828 O 0.50456 0.77382 0.24529
 O829 O 0.48541 0.76516 0.26462
 O830 O 0.51425 0.73604 0.23577
 C831 C 0.45342 0.76167 0.26177
 C832 C 0.48889 0.76208 0.29668
 C833 C 0.48836 0.79717 0.26120
 C834 C 0.54563 0.73792 0.23859
 C835 C 0.51199 0.70473 0.23789
 C836 C 0.51205 0.73854 0.20434
 H837 H 0.49243 0.71718 0.25745
 H838 H 0.49265 0.75801 0.21676
 H839 H 0.47899 0.77162 0.27107
 H840 H 0.53321 0.75758 0.25776
 H841 H 0.53039 0.73682 0.28457
 H842 H 0.53200 0.76238 0.28359
 H843 H 0.47524 0.74139 0.20924
 H844 H 0.46026 0.75810 0.22518
 H845 H 0.52308 0.70881 0.27543
 H846 H 0.47633 0.72545 0.29210
 H847 H 0.50922 0.77585 0.21005
 H848 H 0.49190 0.78982 0.22468
 H849 H 0.46049 0.72575 0.25731
 H850 H 0.47478 0.71009 0.24094
 H851 H 0.52430 0.79066 0.25721
 H852 H 0.54105 0.77480 0.24104
 O853 O -0.02003 0.79074 0.75151
 O854 O -0.01806 0.78597 0.72576
 O855 O -0.04074 0.75100 0.76957
 O856 O -0.03624 0.72615 0.76998
 O857 O -0.00111 0.76967 0.79082
 O858 O 0.02511 0.76868 0.78517
 O859 O 0.00010 0.71114 0.73048
 O860 O -0.02551 0.71542 0.73341
 O861 O 0.01893 0.74956 0.71102
 O862 O 0.01791 0.77674 0.71637
 O863 O 0.03889 0.73104 0.74919
 O864 O 0.03374 0.73168 0.77619
 O865 O 0.01834 0.71102 0.74861
 O866 O 0.01692 0.71643 0.77658
 O867 O 0.03903 0.74940 0.73125
 O868 O 0.03332 0.77718 0.73306
 O869 O 0.00104 0.73111 0.71100
 O870 O -0.02624 0.73616 0.71590
 O871 O -0.00155 0.79081 0.76944
 O872 O 0.02521 0.78514 0.76816
 O873 O -0.01929 0.75149 0.79084
 O874 O -0.01695 0.72425 0.78450
 O875 O -0.04071 0.76960 0.75182
 O876 O -0.03474 0.76634 0.72463
 Zr877 Zr -0.01890 0.76884 0.74240
 O878 O -0.00541 0.75578 0.72786
 Zr879 Zr -0.01869 0.74227 0.76893
 O880 O -0.00565 0.72790 0.75524
 Zr881 Zr 0.00776 0.76888 0.76882
 O882 O 0.02221 0.75548 0.75555
 Zr883 Zr -0.00918 0.73284 0.73235
 O884 O -0.02385 0.74583 0.74599
 Zr885 Zr 0.01751 0.75926 0.73264
 O886 O 0.00408 0.77383 0.74593
 Zr887 Zr 0.01730 0.73248 0.75890
 O888 O 0.00426 0.74589 0.77380
 O889 O -0.01505 0.76510 0.76524
 O890 O 0.01377 0.73632 0.73603
 C891 C -0.01220 0.79714 0.76190
 C892 C -0.04710 0.76167 0.76212
 C893 C -0.01155 0.76195 0.79723
 C894 C 0.01087 0.70485 0.73781
 C895 C 0.01174 0.73863 0.70480
 C896 C 0.04518 0.73852 0.73853
 H897 H -0.00789 0.75823 0.71726
 H898 H 0.03279 0.75788 0.75808
 H899 H -0.02149 0.77150 0.77173
 H900 H -0.00823 0.71727 0.75744
 H901 H -0.03505 0.72022 0.73666
 H902 H -0.03406 0.71848 0.76219
 H903 H 0.04028 0.77540 0.74159
 H904 H 0.02435 0.79034 0.75832
 H905 H -0.02583 0.72758 0.70871
 H906 H -0.04251 0.77434 0.72558
 H907 H 0.03958 0.74119 0.77574
 H908 H 0.02496 0.75851 0.78978
 H909 H -0.00772 0.79018 0.72598
 H910 H 0.00863 0.77589 0.71024
 H911 H -0.00768 0.72600 0.79047
 H912 H 0.00848 0.70939 0.77466
 O913 O -0.02002 -0.04072 -0.00082
 O914 O -0.01805 -0.03584 0.02489
 O915 O -0.04085 -0.00104 -0.01896
 O916 O -0.03635 0.02381 -0.01951
 O917 O -0.00133 -0.01976 -0.04023
 O918 O 0.02494 -0.01861 -0.03470
 O919 O 0.00011 0.03897 0.01996
 O920 O -0.02551 0.03468 0.01704
 O921 O 0.01896 0.00068 0.03945
 O922 O 0.01799 -0.02651 0.03417
 O923 O 0.03883 0.01911 0.00110
 O924 O 0.03359 0.01845 -0.02580
 O925 O 0.01829 0.03909 0.00178
 O926 O 0.01670 0.03361 -0.02623
 O927 O 0.03903 0.00084 0.01914
 O928 O 0.03333 -0.02696 0.01744
 O929 O 0.00103 0.01905 0.03947
 O930 O -0.02625 0.01397 0.03459
 O931 O -0.00157 -0.04080 -0.01876
 O932 O 0.02515 -0.03502 -0.01765
 O933 O -0.01949 -0.00160 -0.04028
 O934 O -0.01709 0.02570 -0.03404
 O935 O -0.04076 -0.01962 -0.00120
 O936 O -0.03473 -0.01624 0.02599
 Zr937 Zr -0.01893 -0.01878 0.00819
 O938 O -0.00540 -0.00565 0.02267
 Zr939 Zr -0.01880 0.00771 -0.01841
 O940 O -0.00574 0.02216 -0.00479
 Zr941 Zr 0.00766 -0.01883 -0.01829
 O942 O 0.02213 -0.00535 -0.00509
 Zr943 Zr -0.00920 0.01727 0.01812
 O944 O -0.02390 0.00421 0.00454
 Zr945 Zr 0.01751 -0.00908 0.01785
 O946 O 0.00405 -0.02371 0.00463
 Zr947 Zr 0.01719 0.01762 -0.00849
 O948 O 0.00413 0.00413 -0.02332
 O949 O -0.01514 -0.01510 -0.01466
 O950 O 0.01374 0.01384 0.01440
 C951 C -0.01218 -0.04715 -0.01117
 C952 C -0.04718 -0.01171 -0.01149
 C953 C -0.01180 -0.01209 -0.04664
 C954 C 0.01088 0.04526 0.01260
 C955 C 0.01175 0.01158 0.04567
 C956 C 0.04516 0.01169 0.01178
 H957 H -0.00785 -0.00808 0.03328
 H958 H 0.03271 -0.00774 -0.00764
 H959 H -0.02159 -0.02155 -0.02110
 H960 H -0.00833 0.03278 -0.00700
 H961 H -0.03507 0.02987 0.01381
 H962 H -0.03418 0.03150 -0.01172
 H963 H 0.04029 -0.02517 0.00891
 H964 H 0.02437 -0.04017 -0.00777
 H965 H -0.02583 0.02257 0.04175
 H966 H -0.04251 -0.02425 0.02506
 H967 H 0.03932 0.00888 -0.02547
 H968 H 0.02469 -0.00848 -0.03940
 H969 H -0.00770 -0.04000 0.02471
 H970 H 0.00872 -0.02567 0.04032
 H971 H -0.00786 0.02390 -0.04006
 H972 H 0.00833 0.04071 -0.02422
 O973 O 0.00119 0.54042 0.51947
 O974 O -0.02455 0.53556 0.51743
 O975 O 0.01935 0.50076 0.54014
 O976 O 0.01994 0.47592 0.53559
 O977 O 0.04052 0.51956 0.50053
 O978 O 0.03488 0.51852 0.47428
 O979 O -0.01957 0.46076 0.49918
 O980 O -0.01660 0.46502 0.52482
 O981 O -0.03915 0.49906 0.48043
 O982 O -0.03392 0.52626 0.48145
 O983 O -0.00090 0.48070 0.46046
 O984 O 0.02608 0.48147 0.46563
 O985 O -0.00144 0.46070 0.48095
 O986 O 0.02652 0.46621 0.48244
 O987 O -0.01894 0.49896 0.46032
 O988 O -0.01723 0.52676 0.46604
 O989 O -0.03910 0.48063 0.49832
 O990 O -0.03418 0.48569 0.52562
 O991 O 0.01909 0.54057 0.50098
 O992 O 0.01780 0.53490 0.47419
 O993 O 0.04063 0.50140 0.51871
 O994 O 0.03444 0.47410 0.51629
 O995 O 0.00153 0.51927 0.54011
 O996 O -0.02563 0.51593 0.53411
 Zr997 Zr -0.00786 0.51850 0.51829
 O998 O -0.02234 0.50536 0.50477
 Zr999 Zr 0.01878 0.49205 0.51806
 O1000 O 0.00515 0.47761 0.50500
 Zr1001 Zr 0.01855 0.51865 0.49163
 O1002 O 0.00534 0.50518 0.47716
 Zr1003 Zr -0.01775 0.48244 0.50853
 O1004 O -0.00416 0.49551 0.52322
 Zr1005 Zr -0.01758 0.50886 0.48185
 O1006 O -0.00435 0.52349 0.49530
 Zr1007 Zr 0.00879 0.48220 0.48206
 O1008 O 0.02362 0.49569 0.49511
 O1009 O 0.01498 0.51486 0.51444
 O1010 O -0.01409 0.48593 0.48558
 C1011 C 0.01155 0.54686 0.51166
 C1012 C 0.01185 0.51138 0.54651
 C1013 C 0.04696 0.51190 0.51099
 C1014 C -0.01224 0.45450 0.48838
 C1015 C -0.04533 0.48812 0.48762
 C1016 C -0.01162 0.48810 0.45417
 H1017 H -0.03294 0.50777 0.50725
 H1018 H 0.00785 0.50758 0.46657
 H1019 H 0.02144 0.52128 0.52090
 H1020 H 0.00739 0.46698 0.50757
 H1021 H -0.01337 0.46982 0.53438
 H1022 H 0.01216 0.46822 0.53342
 H1023 H -0.00871 0.52500 0.45906
 H1024 H 0.00794 0.54006 0.47506
 H1025 H -0.04133 0.47708 0.52519
 H1026 H -0.02471 0.52394 0.54188
 H1027 H 0.02559 0.49097 0.45979
 H1028 H 0.03955 0.50837 0.47443
 H1029 H -0.02432 0.53979 0.50710
 H1030 H -0.04001 0.52542 0.49075
 H1031 H 0.04040 0.47591 0.50703
 H1032 H 0.02459 0.45914 0.49086
 O1033 O 0.54048 0.01970 0.50134
 O1034 O 0.53571 0.01763 0.47561
 O1035 O 0.50079 0.04044 0.51936
 O1036 O 0.47598 0.03588 0.51988
 O1037 O 0.51953 0.00092 0.54070
 O1038 O 0.51846 -0.02539 0.53517
 O1039 O 0.46101 -0.00064 0.48038
 O1040 O 0.46525 0.02502 0.48331
 O1041 O 0.49931 -0.01949 0.46099
 O1042 O 0.52646 -0.01844 0.46631
 O1043 O 0.48088 -0.03941 0.49928
 O1044 O 0.48143 -0.03416 0.52617
 O1045 O 0.46087 -0.01887 0.49853
 O1046 O 0.46629 -0.01724 0.52658
 O1047 O 0.49917 -0.03958 0.48130
 O1048 O 0.52690 -0.03382 0.48304
 O1049 O 0.48094 -0.00155 0.46093
 O1050 O 0.48597 0.02578 0.46580
 O1051 O 0.54057 0.00124 0.51930
 O1052 O 0.53487 -0.02557 0.51812
 O1053 O 0.50137 0.01909 0.54070
 O1054 O 0.47412 0.01659 0.53442
 O1055 O 0.51936 0.04038 0.50161
 O1056 O 0.51610 0.03431 0.47444
 Zr1057 Zr 0.51861 0.01851 0.49226
 O1058 O 0.50556 0.00493 0.47776
 Zr1059 Zr 0.49210 0.01834 0.51882
 O1060 O 0.47773 0.00523 0.50516
 Zr1061 Zr 0.51867 -0.00809 0.51875
 O1062 O 0.50526 -0.02262 0.50553
 Zr1063 Zr 0.48266 0.00871 0.48227
 O1064 O 0.49564 0.02346 0.49587
 Zr1065 Zr 0.50902 -0.01800 0.48260
 O1066 O 0.52358 -0.00449 0.49584
 Zr1067 Zr 0.48229 -0.01773 0.50887
 O1068 O 0.49571 -0.00462 0.52373
 O1069 O 0.51489 0.01472 0.51510
 O1070 O 0.48611 -0.01427 0.48599
 C1071 C 0.54689 0.01190 0.51173
 C1072 C 0.51144 0.04680 0.51189
 C1073 C 0.51185 0.01141 0.54708
 C1074 C 0.45473 -0.01144 0.48770
 C1075 C 0.48842 -0.01229 0.45475
 C1076 C 0.48833 -0.04574 0.48863
 H1077 H 0.50800 0.00738 0.46716
 H1078 H 0.50765 -0.03321 0.50809
 H1079 H 0.52129 0.02121 0.52155
 H1080 H 0.46711 0.00781 0.50735
 H1081 H 0.47003 0.03459 0.48654
 H1082 H 0.46833 0.03368 0.51208
 H1083 H 0.52514 -0.04075 0.49161
 H1084 H 0.54007 -0.02474 0.50828
 H1085 H 0.47741 0.02534 0.45862
 H1086 H 0.52409 0.04210 0.47537
 H1087 H 0.49102 -0.03985 0.52590
 H1088 H 0.50833 -0.02518 0.53984
 H1089 H 0.53989 0.00728 0.47584
 H1090 H 0.52561 -0.00917 0.46016
 H1091 H 0.47593 0.00736 0.54044
 H1092 H 0.45917 -0.00890 0.52454
 O1093 O 0.54010 0.51936 0.00079
 O1094 O 0.53520 0.51740 -0.02493
 O1095 O 0.50053 0.54011 0.01907
 O1096 O 0.47571 0.53561 0.01960
 O1097 O 0.51925 0.50049 0.04019
 O1098 O 0.51815 0.47420 0.03457
 O1099 O 0.46051 0.49919 -0.01988
 O1100 O 0.46480 0.52484 -0.01692
 O1101 O 0.49871 0.48035 -0.03950
 O1102 O 0.52588 0.48136 -0.03430
 O1103 O 0.48043 0.46034 -0.00118
 O1104 O 0.48111 0.46553 0.02573
 O1105 O 0.46044 0.48091 -0.00178
 O1106 O 0.46596 0.48243 0.02622
 O1107 O 0.49866 0.46020 -0.01924
 O1108 O 0.52639 0.46595 -0.01761
 O1109 O 0.48035 0.49830 -0.03943
 O1110 O 0.48544 0.52561 -0.03452
 O1111 O 0.54023 0.50086 0.01870
 O1112 O 0.53451 0.47407 0.01748
 O1113 O 0.50110 0.51867 0.04031
 O1114 O 0.47386 0.51628 0.03412
 O1115 O 0.51903 0.54008 0.00124
 O1116 O 0.51561 0.53411 -0.02595
 Zr1117 Zr 0.51819 0.51824 -0.00820
 O1118 O 0.50506 0.50472 -0.02268
 Zr1119 Zr 0.49178 0.51804 0.01846
 O1120 O 0.47735 0.50497 0.00483
 Zr1121 Zr 0.51832 0.49156 0.01821
 O1122 O 0.50484 0.47708 0.00500
 Zr1123 Zr 0.48218 0.50851 -0.01808
 O1124 O 0.49524 0.52321 -0.00449
 Zr1125 Zr 0.50852 0.48178 -0.01793
 O1126 O 0.52315 0.49523 -0.00470
 Zr1127 Zr 0.48190 0.48199 0.00846
 O1128 O 0.49539 0.49505 0.02330
 O1129 O 0.51456 0.51439 0.01465
 O1130 O 0.48563 0.48552 -0.01443
 C1131 C 0.54654 0.51152 0.01113
 C1132 C 0.51117 0.54647 0.01159
 C1133 C 0.51160 0.51096 0.04663
 C1134 C 0.45425 0.48838 -0.01255
 C1135 C 0.48780 0.48758 -0.04567
 C1136 C 0.48785 0.45402 -0.01187
 H1137 H 0.50746 0.50720 -0.03329
 H1138 H 0.50724 0.46649 0.00752
 H1139 H 0.52099 0.52084 0.02110
 H1140 H 0.46674 0.50755 0.00708
 H1141 H 0.46961 0.53440 -0.01368
 H1142 H 0.46800 0.53341 0.01186
 H1143 H 0.52468 0.45900 -0.00906
 H1144 H 0.53966 0.47492 0.00761
 H1145 H 0.47684 0.52520 -0.04166
 H1146 H 0.52362 0.54189 -0.02502
 H1147 H 0.49067 0.45981 0.02537
 H1148 H 0.50804 0.47441 0.03929
 H1149 H 0.53938 0.50704 -0.02476
 H1150 H 0.52501 0.49065 -0.04042
 H1151 H 0.47564 0.50701 0.04009
 H1152 H 0.45887 0.49081 0.02426
 O1153 O 0.76994 0.29010 0.49915
 O1154 O 0.76791 0.28530 0.52491
 O1155 O 0.79056 0.25039 0.48103
 O1156 O 0.78601 0.22552 0.48059
 O1157 O 0.75105 0.26915 0.45982
 O1158 O 0.72480 0.26811 0.46540
 O1159 O 0.74958 0.21052 0.52003
 O1160 O 0.77520 0.21476 0.51712
 O1161 O 0.73084 0.24892 0.53953
 O1162 O 0.73191 0.27609 0.53424
 O1163 O 0.71086 0.23048 0.50126
 O1164 O 0.71604 0.23108 0.47433
 O1165 O 0.73136 0.21042 0.50189
 O1166 O 0.73287 0.21586 0.47390
 O1167 O 0.71074 0.24881 0.51925
 O1168 O 0.71654 0.27658 0.51752
 O1169 O 0.74870 0.23048 0.53954
 O1170 O 0.77600 0.23548 0.53466
 O1171 O 0.75147 0.29021 0.48122
 O1172 O 0.72469 0.28456 0.48245
 O1173 O 0.76918 0.25094 0.45977
 O1174 O 0.76671 0.22367 0.46602
 O1175 O 0.79055 0.26897 0.49882
 O1176 O 0.78457 0.26566 0.52601
 Zr1177 Zr 0.76874 0.26820 0.50823
 O1178 O 0.75520 0.25514 0.52273
 Zr1179 Zr 0.76850 0.24166 0.48164
 O1180 O 0.75541 0.22729 0.49529
 Zr1181 Zr 0.74211 0.26829 0.48178
 O1182 O 0.72762 0.25488 0.49500
 Zr1183 Zr 0.75892 0.23220 0.51820
 O1184 O 0.77365 0.24519 0.50459
 Zr1185 Zr 0.73230 0.25864 0.51792
 O1186 O 0.74578 0.27322 0.50468
 Zr1187 Zr 0.73248 0.23189 0.49162
 O1188 O 0.74556 0.24531 0.47676
 O1189 O 0.76490 0.26449 0.48539
 O1190 O 0.73598 0.23570 0.51450
 C1191 C 0.76214 0.29652 0.48876
 C1192 C 0.79692 0.26106 0.48849
 C1193 C 0.76151 0.26146 0.45341
 C1194 C 0.73879 0.20424 0.51269
 C1195 C 0.73802 0.23800 0.54574
 C1196 C 0.70457 0.23796 0.51192
 H1197 H 0.75768 0.25757 0.53333
 H1198 H 0.71704 0.25730 0.49246
 H1199 H 0.77136 0.27089 0.47892
 H1200 H 0.75797 0.21665 0.49308
 H1201 H 0.78476 0.21954 0.51387
 H1202 H 0.78378 0.21783 0.48834
 H1203 H 0.70958 0.27482 0.50898
 H1204 H 0.72556 0.28976 0.49230
 H1205 H 0.77555 0.22690 0.54183
 H1206 H 0.79235 0.27366 0.52507
 H1207 H 0.71032 0.24065 0.47468
 H1208 H 0.72498 0.25796 0.46072
 H1209 H 0.75760 0.28955 0.52467
 H1210 H 0.74120 0.27526 0.54035
 H1211 H 0.75747 0.22547 0.46003
 H1212 H 0.74126 0.20877 0.47586
 O1213 O 0.79018 0.75120 -0.02023
 O1214 O 0.78515 0.72549 -0.01837
 O1215 O 0.75060 0.76970 -0.04087
 O1216 O 0.72581 0.77036 -0.03632
 O1217 O 0.76955 0.79071 -0.00126
 O1218 O 0.76849 0.78506 0.02497
 O1219 O 0.71055 0.73078 0.00002
 O1220 O 0.71475 0.73380 -0.02561
 O1221 O 0.74875 0.71097 0.01865
 O1222 O 0.77592 0.71612 0.01768
 O1223 O 0.73062 0.74938 0.03877
 O1224 O 0.73144 0.77635 0.03366
 O1225 O 0.71060 0.74891 0.01828
 O1226 O 0.71623 0.77692 0.01682
 O1227 O 0.74873 0.73121 0.03885
 O1228 O 0.77650 0.73280 0.03311
 O1229 O 0.73035 0.71112 0.00076
 O1230 O 0.73533 0.71612 -0.02651
 O1231 O 0.79044 0.76908 -0.00169
 O1232 O 0.78475 0.76788 0.02506
 O1233 O 0.75135 0.79094 -0.01939
 O1234 O 0.72408 0.78485 -0.01697
 O1235 O 0.76904 0.75180 -0.04091
 O1236 O 0.76551 0.72458 -0.03501
 Zr1237 Zr 0.76821 0.74231 -0.01912
 O1238 O 0.75507 0.72784 -0.00562
 Zr1239 Zr 0.74193 0.76910 -0.01880
 O1240 O 0.72747 0.75549 -0.00577
 Zr1241 Zr 0.76853 0.76870 0.00761
 O1242 O 0.75504 0.75551 0.02205
 Zr1243 Zr 0.73219 0.73254 -0.00935
 O1244 O 0.74527 0.74612 -0.02403
 Zr1245 Zr 0.75860 0.73255 0.01731
 O1246 O 0.77325 0.74575 0.00387
 Zr1247 Zr 0.73210 0.75907 0.01718
 O1248 O 0.74562 0.77390 0.00416
 O1249 O 0.76470 0.76519 -0.01521
 O1250 O 0.73572 0.73615 0.01361
 C1251 C 0.79669 0.76149 -0.01235
 C1252 C 0.76119 0.76218 -0.04727
 C1253 C 0.76189 0.79722 -0.01168
 C1254 C 0.70435 0.73814 0.01084
 C1255 C 0.73782 0.70483 0.01142
 C1256 C 0.73796 0.73861 0.04504
 H1257 H 0.75742 0.71722 -0.00813
 H1258 H 0.75746 0.75801 0.03264
 H1259 H 0.77116 0.77164 -0.02165
 H1260 H 0.71686 0.75778 -0.00833
 H1261 H 0.71953 0.73704 -0.03517
 H1262 H 0.71809 0.76261 -0.03416
 H1263 H 0.77477 0.74131 0.04013
 H1264 H 0.78983 0.75797 0.02422
 H1265 H 0.72671 0.70900 -0.02611
 H1266 H 0.77349 0.72549 -0.04280
 H1267 H 0.74099 0.77590 0.03941
 H1268 H 0.75839 0.78980 0.02481
 H1269 H 0.78935 0.72561 -0.00803
 H1270 H 0.77503 0.71003 0.00837
 H1271 H 0.72593 0.79081 -0.00771
 H1272 H 0.70911 0.77499 0.00844
 O1273 O 1.04057 0.23027 0.24890
 O1274 O 1.03573 0.23223 0.27464
 O1275 O 1.00091 0.20951 0.23071
 O1276 O 0.97610 0.21403 0.23016
 O1277 O 1.01968 0.24913 0.20956
 O1278 O 1.01859 0.27543 0.21517
 O1279 O 0.96104 0.25043 0.26969
 O1280 O 0.96530 0.22477 0.26674
 O1281 O 0.99933 0.26926 0.28927
 O1282 O 1.02648 0.26827 0.28401
 O1283 O 0.98091 0.28923 0.25103
 O1284 O 0.98162 0.28410 0.22407
 O1285 O 0.96095 0.26867 0.25156
 O1286 O 0.96644 0.26719 0.22357
 O1287 O 0.99917 0.28938 0.26906
 O1288 O 1.02694 0.28370 0.26731
 O1289 O 0.98092 0.25134 0.28922
 O1290 O 0.98597 0.22401 0.28431
 O1291 O 1.04068 0.24880 0.23101
 O1292 O 1.03498 0.27558 0.23224
 O1293 O 1.00153 0.23093 0.20946
 O1294 O 0.97427 0.23335 0.21566
 O1295 O 1.01946 0.20954 0.24850
 O1296 O 1.01613 0.21552 0.27569
 Zr1297 Zr 1.01868 0.23138 0.25793
 O1298 O 1.00559 0.24490 0.27244
 Zr1299 Zr 0.99221 0.23159 0.23131
 O1300 O 0.97782 0.24464 0.24496
 Zr1301 Zr 1.01878 0.25808 0.23153
 O1302 O 1.00535 0.27255 0.24476
 Zr1303 Zr 0.98270 0.24111 0.26787
 O1304 O 0.99571 0.22642 0.25426
 Zr1305 Zr 1.00907 0.26785 0.26768
 O1306 O 1.02365 0.25440 0.25443
 Zr1307 Zr 0.98240 0.26762 0.24132
 O1308 O 0.99584 0.25457 0.22646
 O1309 O 1.01500 0.23524 0.23510
 O1310 O 0.98617 0.26409 0.26420
 C1311 C 1.04699 0.23813 0.23855
 C1312 C 1.01156 0.20314 0.23818
 C1313 C 1.01203 0.23865 0.20313
 C1314 C 0.95477 0.26122 0.26235
 C1315 C 0.98841 0.26205 0.29545
 C1316 C 0.98832 0.29553 0.26175
 H1317 H 1.00801 0.24242 0.28304
 H1318 H 1.00774 0.28315 0.24224
 H1319 H 1.02142 0.22879 0.22864
 H1320 H 0.96721 0.24205 0.24273
 H1321 H 0.97009 0.21521 0.26349
 H1322 H 0.96844 0.21619 0.23795
 H1323 H 1.02515 0.29071 0.25882
 H1324 H 1.04013 0.27476 0.24211
 H1325 H 0.97739 0.22443 0.29147
 H1326 H 1.02412 0.20774 0.27475
 H1327 H 0.99115 0.28988 0.22448
 H1328 H 1.00846 0.27522 0.21048
 H1329 H 1.03993 0.24259 0.27445
 H1330 H 1.02563 0.25898 0.29012
 H1331 H 0.97609 0.24260 0.20967
 H1332 H 0.95936 0.25878 0.22551
 O1333 O 0.74883 1.04008 0.73079
 O1334 O 0.77456 1.03520 0.73286
 O1335 O 0.73063 1.00043 0.71001
 O1336 O 0.73002 0.97558 0.71453
 O1337 O 0.70941 1.01924 0.74955
 O1338 O 0.71496 1.01813 0.77583
 O1339 O 0.76938 0.96040 0.75099
 O1340 O 0.76650 0.96467 0.72538
 O1341 O 0.78901 0.99872 0.76983
 O1342 O 0.78381 1.02591 0.76885
 O1343 O 0.75065 0.98038 0.78975
 O1344 O 0.72373 0.98109 0.78450
 O1345 O 0.75122 0.96034 0.76918
 O1346 O 0.72327 0.96587 0.76765
 O1347 O 0.76871 0.99864 0.78993
 O1348 O 0.76710 1.02641 0.78421
 O1349 O 0.78897 0.98031 0.75191
 O1350 O 0.78410 0.98534 0.72463
 O1351 O 0.73089 1.04022 0.74924
 O1352 O 0.73206 1.03453 0.77601
 O1353 O 0.70931 1.00107 0.73136
 O1354 O 0.71544 0.97377 0.73379
 O1355 O 0.74847 1.01896 0.71011
 O1356 O 0.77561 1.01558 0.71615
 Zr1357 Zr 0.75782 1.01815 0.73195
 O1358 O 0.77225 1.00502 0.74548
 Zr1359 Zr 0.73114 0.99170 0.73207
 O1360 O 0.74472 0.97726 0.74515
 Zr1361 Zr 0.73135 1.01830 0.75853
 O1362 O 0.74451 1.00482 0.77302
 Zr1363 Zr 0.76764 0.98210 0.74169
 O1364 O 0.75410 0.99516 0.72698
 Zr1365 Zr 0.76744 1.00850 0.76839
 O1366 O 0.75427 1.02314 0.75493
 Zr1367 Zr 0.74104 0.98184 0.76810
 O1368 O 0.72625 0.99533 0.75502
 O1369 O 0.73497 1.01451 0.73573
 O1370 O 0.76394 0.98557 0.76464
 C1371 C 0.73847 1.04653 0.73859
 C1372 C 0.73815 1.01108 0.70368
 C1373 C 0.70299 1.01159 0.73906
 C1374 C 0.76200 0.95413 0.76175
 C1375 C 0.79520 0.98780 0.76262
 C1376 C 0.76133 0.98781 0.79608
 H1377 H 0.78286 1.00742 0.74303
 H1378 H 0.74197 1.00723 0.78360
 H1379 H 0.72855 1.02095 0.72926
 H1380 H 0.74247 0.96664 0.74257
 H1381 H 0.76328 0.96947 0.71582
 H1382 H 0.73774 0.96785 0.71674
 H1383 H 0.75853 1.02469 0.79114
 H1384 H 0.74193 1.03969 0.77518
 H1385 H 0.79124 0.97674 0.72506
 H1386 H 0.77473 1.02361 0.70839
 H1387 H 0.72413 0.99064 0.79026
 H1388 H 0.71023 1.00801 0.77560
 H1389 H 0.77430 1.03944 0.74319
 H1390 H 0.78992 1.02507 0.75956
 H1391 H 0.70945 0.97559 0.74303
 H1392 H 0.72519 0.95881 0.75922
 O1393 O 0.70996 0.51969 0.24863
 O1394 O 0.71484 0.51775 0.27435
 O1395 O 0.74955 0.54045 0.23037
 O1396 O 0.77437 0.53597 0.22985
 O1397 O 0.73081 0.50080 0.20923
 O1398 O 0.73188 0.47452 0.21485
 O1399 O 0.78950 0.49955 0.26936
 O1400 O 0.78526 0.52521 0.26636
 O1401 O 0.75129 0.48073 0.28893
 O1402 O 0.72412 0.48172 0.28370
 O1403 O 0.76959 0.46073 0.25063
 O1404 O 0.76889 0.46589 0.22368
 O1405 O 0.78957 0.48127 0.25124
 O1406 O 0.78409 0.48279 0.22323
 O1407 O 0.75138 0.46058 0.26869
 O1408 O 0.72363 0.46628 0.26702
 O1409 O 0.76966 0.49870 0.28887
 O1410 O 0.76461 0.52601 0.28395
 O1411 O 0.70982 0.50117 0.23071
 O1412 O 0.71551 0.47439 0.23193
 O1413 O 0.74897 0.51900 0.20912
 O1414 O 0.77621 0.51663 0.21532
 O1415 O 0.73105 0.54041 0.24819
 O1416 O 0.73444 0.53447 0.27538
 Zr1417 Zr 0.73187 0.51859 0.25763
 O1418 O 0.74497 0.50508 0.27211
 Zr1419 Zr 0.75828 0.51838 0.23098
 O1420 O 0.77270 0.50534 0.24461
 Zr1421 Zr 0.73172 0.49189 0.23121
 O1422 O 0.74518 0.47743 0.24442
 Zr1423 Zr 0.76786 0.50888 0.26752
 O1424 O 0.75482 0.52357 0.25393
 Zr1425 Zr 0.74150 0.48213 0.26735
 O1426 O 0.72689 0.49557 0.25412
 Zr1427 Zr 0.76812 0.48236 0.24097
 O1428 O 0.75466 0.49540 0.22613
 O1429 O 0.73550 0.51473 0.23478
 O1430 O 0.76439 0.48589 0.26385
 C1431 C 0.70352 0.51183 0.23828
 C1432 C 0.73892 0.54681 0.23785
 C1433 C 0.73847 0.51127 0.20279
 C1434 C 0.79574 0.48872 0.26204
 C1435 C 0.76221 0.48797 0.29510
 C1436 C 0.76220 0.45442 0.26134
 H1437 H 0.74257 0.50757 0.28272
 H1438 H 0.74278 0.46682 0.24190
 H1439 H 0.72907 0.52117 0.22832
 H1440 H 0.78331 0.50792 0.24237
 H1441 H 0.78047 0.53477 0.26313
 H1442 H 0.78208 0.53377 0.23759
 H1443 H 0.72537 0.45930 0.25848
 H1444 H 0.71038 0.47522 0.24181
 H1445 H 0.77321 0.52561 0.29110
 H1446 H 0.72645 0.54225 0.27445
 H1447 H 0.75936 0.46011 0.22409
 H1448 H 0.74200 0.47472 0.21015
 H1449 H 0.71066 0.50739 0.27418
 H1450 H 0.72500 0.49100 0.28984
 H1451 H 0.77442 0.50735 0.20936
 H1452 H 0.79119 0.49117 0.22521
 O1453 O 0.45920 0.25055 0.76980
 O1454 O 0.46410 0.22481 0.76775
 O1455 O 0.49882 0.26880 0.79059
 O1456 O 0.52361 0.26947 0.78607
 O1457 O 0.47999 0.29006 0.75107
 O1458 O 0.48110 0.28452 0.72479
 O1459 O 0.53879 0.23005 0.74959
 O1460 O 0.53452 0.23291 0.77522
 O1461 O 0.50057 0.21038 0.73071
 O1462 O 0.47343 0.21554 0.73169
 O1463 O 0.51885 0.24885 0.71087
 O1464 O 0.51812 0.27578 0.71611
 O1465 O 0.53884 0.24825 0.73141
 O1466 O 0.53328 0.27626 0.73302
 O1467 O 0.50066 0.23073 0.71065
 O1468 O 0.47289 0.23232 0.71638
 O1469 O 0.51895 0.21042 0.74864
 O1470 O 0.51389 0.21526 0.77593
 O1471 O 0.45905 0.26852 0.75135
 O1472 O 0.46475 0.26738 0.72460
 O1473 O 0.49813 0.29016 0.76926
 O1474 O 0.52541 0.28403 0.76681
 O1475 O 0.48031 0.25094 0.79051
 O1476 O 0.48370 0.22374 0.78443
 Zr1477 Zr 0.48112 0.24157 0.76865
 O1478 O 0.49424 0.22714 0.75510
 Zr1479 Zr 0.50751 0.26831 0.76853
 O1480 O 0.52194 0.25473 0.75545
 Zr1481 Zr 0.48095 0.26809 0.74208
 O1482 O 0.49442 0.25494 0.72758
 Zr1483 Zr 0.51713 0.23177 0.75890
 O1484 O 0.50407 0.24531 0.77362
 Zr1485 Zr 0.49077 0.23197 0.73219
 O1486 O 0.47614 0.24513 0.74567
 Zr1487 Zr 0.51736 0.25844 0.73252
 O1488 O 0.50388 0.27323 0.74559
 O1489 O 0.48473 0.26446 0.76488
 O1490 O 0.51366 0.23550 0.73595
 C1491 C 0.45275 0.26092 0.76199
 C1492 C 0.48820 0.26126 0.79693
 C1493 C 0.48762 0.29648 0.76157
 C1494 C 0.54504 0.23745 0.73882
 C1495 C 0.51149 0.20419 0.73791
 C1496 C 0.51147 0.23814 0.70453
 H1497 H 0.49185 0.21651 0.75754
 H1498 H 0.49203 0.25749 0.71700
 H1499 H 0.47830 0.27088 0.77135
 H1500 H 0.53255 0.25699 0.75804
 H1501 H 0.52972 0.23611 0.78478
 H1502 H 0.53129 0.26169 0.78390
 H1503 H 0.47464 0.24087 0.70942
 H1504 H 0.45961 0.25749 0.72540
 H1505 H 0.52249 0.20812 0.77550
 H1506 H 0.47570 0.22463 0.79221
 H1507 H 0.50856 0.27540 0.71038
 H1508 H 0.49120 0.28927 0.72503
 H1509 H 0.45991 0.22502 0.75740
 H1510 H 0.47425 0.20944 0.74099
 H1511 H 0.52357 0.29007 0.75760
 H1512 H 0.54038 0.27429 0.74139
 O1513 O 0.27001 0.79108 0.49878
 O1514 O 0.26799 0.78627 0.52453
 O1515 O 0.29061 0.75136 0.48063
 O1516 O 0.28604 0.72652 0.48010
 O1517 O 0.25103 0.77014 0.45944
 O1518 O 0.22480 0.76914 0.46509
 O1519 O 0.24969 0.71145 0.51957
 O1520 O 0.27530 0.71572 0.51666
 O1521 O 0.23095 0.74984 0.53917
 O1522 O 0.23201 0.77702 0.53391
 O1523 O 0.21095 0.73141 0.50093
 O1524 O 0.21609 0.73212 0.47394
 O1525 O 0.23145 0.71138 0.50144
 O1526 O 0.23288 0.71687 0.47349
 O1527 O 0.21084 0.74973 0.51894
 O1528 O 0.21662 0.77752 0.51721
 O1529 O 0.24880 0.73137 0.53912
 O1530 O 0.27609 0.73641 0.53423
 O1531 O 0.25152 0.79120 0.48087
 O1532 O 0.22474 0.78557 0.48216
 O1533 O 0.26918 0.75197 0.45935
 O1534 O 0.26674 0.72469 0.46558
 O1535 O 0.29062 0.76992 0.49844
 O1536 O 0.28464 0.76663 0.52562
 Zr1537 Zr 0.26881 0.76917 0.50784
 O1538 O 0.25529 0.75608 0.52235
 Zr1539 Zr 0.26854 0.74267 0.48122
 O1540 O 0.25547 0.72827 0.49487
 Zr1541 Zr 0.24215 0.76929 0.48143
 O1542 O 0.22767 0.75586 0.49465
 Zr1543 Zr 0.25901 0.73315 0.51778
 O1544 O 0.27371 0.74617 0.50417
 Zr1545 Zr 0.23238 0.75959 0.51758
 O1546 O 0.24584 0.77418 0.50433
 Zr1547 Zr 0.23253 0.73287 0.49123
 O1548 O 0.24559 0.74631 0.47637
 O1549 O 0.26495 0.76549 0.48500
 O1550 O 0.23607 0.73665 0.51411
 C1551 C 0.26221 0.79750 0.48840
 C1552 C 0.29700 0.76200 0.48812
 C1553 C 0.26147 0.76246 0.45301
 C1554 C 0.23890 0.70518 0.51222
 C1555 C 0.23812 0.73889 0.54535
 C1556 C 0.20467 0.73886 0.51162
 H1557 H 0.25778 0.75850 0.53295
 H1558 H 0.21709 0.75827 0.49214
 H1559 H 0.27141 0.77189 0.47853
 H1560 H 0.25803 0.71764 0.49263
 H1561 H 0.28485 0.72052 0.51342
 H1562 H 0.28386 0.71885 0.48788
 H1563 H 0.20963 0.77575 0.50869
 H1564 H 0.22563 0.79075 0.49201
 H1565 H 0.27565 0.72782 0.54139
 H1566 H 0.29242 0.77463 0.52470
 H1567 H 0.21027 0.74163 0.47441
 H1568 H 0.22493 0.75898 0.46043
 H1569 H 0.25767 0.79051 0.52430
 H1570 H 0.24131 0.77618 0.54000
 H1571 H 0.25748 0.72649 0.45961
 H1572 H 0.24131 0.70981 0.47539
 O1573 O 0.25098 0.26979 0.96004
 O1574 O 0.22527 0.26782 0.96494
 O1575 O 0.26928 0.29047 0.99968
 O1576 O 0.26979 0.28593 1.02451
 O1577 O 0.29039 0.25089 0.98086
 O1578 O 0.28476 0.22461 0.98186
 O1579 O 0.23038 0.24948 1.03961
 O1580 O 0.23330 0.27512 1.03538
 O1581 O 0.21073 0.23069 1.00129
 O1582 O 0.21594 0.23176 0.97412
 O1583 O 0.24900 0.21068 1.01957
 O1584 O 0.27594 0.21585 1.01887
 O1585 O 0.24849 0.23122 1.03963
 O1586 O 0.27645 0.23271 1.03409
 O1587 O 0.23096 0.21056 1.00132
 O1588 O 0.23261 0.21634 0.97359
 O1589 O 0.21080 0.24858 1.01974
 O1590 O 0.21570 0.27591 1.01474
 O1591 O 0.26889 0.25130 0.95986
 O1592 O 0.26767 0.22450 0.96550
 O1593 O 0.29051 0.26904 0.99907
 O1594 O 0.28433 0.26661 1.02631
 O1595 O 0.25145 0.29047 0.98118
 O1596 O 0.22427 0.28450 0.98459
 Zr1597 Zr 0.24201 0.26863 0.98196
 O1598 O 0.22753 0.25508 0.99504
 Zr1599 Zr 0.26867 0.26838 1.00838
 O1600 O 0.25505 0.25529 1.02277
 Zr1601 Zr 0.26841 0.24196 0.98175
 O1602 O 0.25521 0.22745 0.99518
 Zr1603 Zr 0.23214 0.25881 1.01795
 O1604 O 0.24572 0.27355 1.00493
 Zr1605 Zr 0.23229 0.23214 0.99151
 O1606 O 0.24551 0.24563 0.97692
 Zr1607 Zr 0.25868 0.23232 1.01815
 O1608 O 0.27351 0.24541 1.00470
 O1609 O 0.26485 0.26478 0.98558
 O1610 O 0.23580 0.23584 1.01442
 C1611 C 0.26132 0.26197 0.95358
 C1612 C 0.26180 0.29685 0.98905
 C1613 C 0.29683 0.26134 0.98855
 C1614 C 0.23773 0.23868 1.04585
 C1615 C 0.20456 0.23788 1.01224
 C1616 C 0.23831 0.20438 1.01214
 H1617 H 0.21693 0.25756 0.99265
 H1618 H 0.25773 0.21686 0.99275
 H1619 H 0.27130 0.27124 0.97917
 H1620 H 0.25731 0.25785 1.03339
 H1621 H 0.23654 0.28469 1.03060
 H1622 H 0.26207 0.28371 1.03222
 H1623 H 0.24114 0.20938 0.97531
 H1624 H 0.25780 0.22534 0.96036
 H1625 H 0.20856 0.27547 1.02333
 H1626 H 0.22519 0.29229 0.97660
 H1627 H 0.27553 0.21010 1.00931
 H1628 H 0.28946 0.22478 0.99199
 H1629 H 0.22544 0.25748 0.96072
 H1630 H 0.20981 0.24104 0.97502
 H1631 H 0.29029 0.25734 1.02450
 H1632 H 0.27453 0.24111 1.04118
 C1633 C 0.27898 0.40793 0.79047
 C1634 C 0.26930 0.39339 0.78955
 C1635 C 0.28296 0.38494 0.78306
 C1636 C 0.29270 0.39925 0.78405
 C1637 C 0.27418 0.41190 0.77430
 C1638 C 0.28784 0.40345 0.76781
 C1639 C 0.26443 0.39760 0.77330
 C1640 C 0.27817 0.38890 0.76689
 C1641 C 0.28796 0.37000 0.78808
 C1642 C 0.29219 0.35781 0.79236
 C1643 C 0.26943 0.42701 0.76957
 C1644 C 0.26568 0.43954 0.76586
 H1645 H 0.27926 0.41592 0.80011
 H1646 H 0.26174 0.38909 0.79855
 H1647 H 0.30438 0.39978 0.78853
 H1648 H 0.29541 0.40776 0.75882
 H1649 H 0.25275 0.39709 0.76883
 H1650 H 0.27789 0.38090 0.75725
 C1651 C 0.27989 -0.09217 0.29029
 C1652 C 0.27024 -0.10672 0.28927
 C1653 C 0.28397 -0.11516 0.28291
 C1654 C 0.29369 -0.10084 0.28401
 C1655 C 0.27526 -0.08820 0.27407
 C1656 C 0.28899 -0.09663 0.26772
 C1657 C 0.26553 -0.10251 0.27297
 C1658 C 0.27934 -0.11119 0.26669
 C1659 C 0.28893 -0.13010 0.28796
 C1660 C 0.29313 -0.14230 0.29226
 C1661 C 0.27053 -0.07309 0.26930
 C1662 C 0.26678 -0.06058 0.26554
 H1663 H 0.28006 -0.08419 0.29994
 H1664 H 0.26259 -0.11103 0.29818
 H1665 H 0.30532 -0.10031 0.28860
 H1666 H 0.29665 -0.09232 0.25880
 H1667 H 0.25390 -0.10303 0.26837
 H1668 H 0.27917 -0.11919 0.25704
 C1669 C 0.78743 0.90234 0.76707
 C1670 C 0.79367 0.89850 0.78294
 C1671 C 0.78342 0.88452 0.78338
 C1672 C 0.77725 0.88811 0.76759
 C1673 C 0.77473 0.91148 0.77450
 C1674 C 0.76447 0.89750 0.77494
 C1675 C 0.78090 0.90787 0.79029
 C1676 C 0.77072 0.89366 0.79081
 C1677 C 0.78838 0.86959 0.78845
 C1678 C 0.79258 0.85739 0.79277
 C1679 C 0.77001 0.92658 0.76972
 C1680 C 0.76627 0.93911 0.76597
 H1681 H 0.79425 0.90607 0.75726
 H1682 H 0.80573 0.89876 0.78628
 H1683 H 0.77581 0.87982 0.75831
 H1684 H 0.75241 0.89726 0.77160
 H1685 H 0.78235 0.91616 0.79957
 H1686 H 0.76391 0.88993 0.80062
 C1687 C 0.45952 0.84542 0.27325
 C1688 C 0.46153 0.85172 0.28941
 C1689 C 0.46693 0.86677 0.28269
 C1690 C 0.46484 0.86069 0.26659
 C1691 C 0.47597 0.84002 0.27353
 C1692 C 0.48139 0.85505 0.26678
 C1693 C 0.47806 0.84611 0.28962
 C1694 C 0.48339 0.86138 0.28297
 C1695 C 0.46168 0.88151 0.28802
 C1696 C 0.45716 0.89348 0.29263
 C1697 C 0.48075 0.82495 0.26872
 C1698 C 0.48440 0.81236 0.26509
 H1699 H 0.44976 0.83870 0.26920
 H1700 H 0.45332 0.85051 0.29878
 H1701 H 0.45934 0.86685 0.25718
 H1702 H 0.48961 0.85624 0.25742
 H1703 H 0.48354 0.83995 0.29904
 H1704 H 0.49314 0.86811 0.28703
 C1705 C -0.01803 0.84844 0.78800
 C1706 C -0.01689 0.86307 0.77848
 C1707 C -0.03313 0.86703 0.78301
 C1708 C -0.03433 0.85264 0.79260
 C1709 C -0.02430 0.84012 0.77414
 C1710 C -0.04053 0.84410 0.77868
 C1711 C -0.02309 0.85450 0.76453
 C1712 C -0.03940 0.85871 0.76915
 C1713 C -0.03826 0.88188 0.78815
 C1714 C -0.04268 0.89396 0.79257
 C1715 C -0.01963 0.82497 0.76944
 C1716 C -0.01607 0.81235 0.76584
 H1717 H -0.00918 0.84405 0.79569
 H1718 H -0.00723 0.87104 0.77845
 H1719 H -0.03901 0.85203 0.80419
 H1720 H -0.05020 0.83613 0.77871
 H1721 H -0.01841 0.85508 0.75294
 H1722 H -0.04826 0.86309 0.76147
 C1723 C -0.03221 -0.09397 -0.03761
 C1724 C -0.02132 -0.10731 -0.04054
 C1725 C -0.03187 -0.11767 -0.03151
 C1726 C -0.04283 -0.10455 -0.02865
 C1727 C -0.02366 -0.09044 -0.02296
 C1728 C -0.03421 -0.10080 -0.01392
 C1729 C -0.01269 -0.10355 -0.02581
 C1730 C -0.02332 -0.11416 -0.01684
 C1731 C -0.03665 -0.13271 -0.03647
 C1732 C -0.04078 -0.14495 -0.04073
 C1733 C -0.01929 -0.07515 -0.01843
 C1734 C -0.01592 -0.06243 -0.01496
 H1735 H -0.03582 -0.08551 -0.04611
 H1736 H -0.01607 -0.11015 -0.05155
 H1737 H -0.05527 -0.10512 -0.02987
 H1738 H -0.03947 -0.09795 -0.00292
 H1739 H -0.00025 -0.10296 -0.02459
 H1740 H -0.01972 -0.12264 -0.00836
 C1741 C -0.01908 0.39701 0.48116
 C1742 C -0.03542 0.39090 0.48236
 C1743 C -0.03433 0.38530 0.46599
 C1744 C -0.01808 0.39118 0.46471
 C1745 C -0.02534 0.41206 0.47524
 C1746 C -0.02426 0.40645 0.45888
 C1747 C -0.04159 0.40618 0.47652
 C1748 C -0.04058 0.40036 0.46008
 C1749 C -0.03946 0.37049 0.46070
 C1750 C -0.04380 0.35840 0.45620
 C1751 C -0.02046 0.42706 0.48021
 C1752 C -0.01661 0.43952 0.48407
 H1753 H -0.01018 0.39581 0.48989
 H1754 H -0.04006 0.38434 0.49196
 H1755 H -0.00847 0.38484 0.45979
 H1756 H -0.01962 0.41301 0.44927
 H1757 H -0.05120 0.41252 0.48143
 H1758 H -0.04947 0.40157 0.45136
 C1759 C 0.46102 -0.09623 0.48109
 C1760 C 0.45779 -0.10081 0.46455
 C1761 C 0.46685 -0.11538 0.46699
 C1762 C 0.47001 -0.11104 0.48347
 C1763 C 0.47559 -0.08842 0.47589
 C1764 C 0.48466 -0.10298 0.47834
 C1765 C 0.47242 -0.09278 0.45941
 C1766 C 0.48142 -0.10757 0.46178
 C1767 C 0.46186 -0.13031 0.46190
 C1768 C 0.45762 -0.14250 0.45758
 C1769 C 0.48032 -0.07332 0.48068
 C1770 C 0.48407 -0.06078 0.48442
 H1771 H 0.45269 -0.09140 0.48909
 H1772 H 0.44668 -0.10007 0.45882
 H1773 H 0.46897 -0.11872 0.49331
 H1774 H 0.49577 -0.10371 0.48407
 H1775 H 0.47346 -0.08510 0.44957
 H1776 H 0.48975 -0.11240 0.45379
 C1777 C 0.46522 0.40818 -0.03836
 C1778 C 0.47593 0.39514 -0.04287
 C1779 C 0.46646 0.38427 -0.03324
 C1780 C 0.45568 0.39710 -0.02881
 C1781 C 0.47514 0.41130 -0.02450
 C1782 C 0.46567 0.40044 -0.01487
 C1783 C 0.48593 0.39848 -0.02894
 C1784 C 0.47639 0.38738 -0.01938
 C1785 C 0.46150 0.36930 -0.03823
 C1786 C 0.45729 0.35707 -0.04247
 C1787 C 0.47985 0.42643 -0.01978
 C1788 C 0.48359 0.43898 -0.01607
 H1789 H 0.46068 0.41690 -0.04612
 H1790 H 0.48009 0.39279 -0.05444
 H1791 H 0.44319 0.39637 -0.02881
 H1792 H 0.46151 0.40279 -0.00330
 H1793 H 0.49843 0.39922 -0.02893
 H1794 H 0.48092 0.37865 -0.01163
 C1795 C 0.77997 0.34281 0.46013
 C1796 C 0.77031 0.35737 0.46029
 C1797 C 0.78376 0.36600 0.46701
 C1798 C 0.79348 0.35165 0.46677
 C1799 C 0.77461 0.33930 0.47623
 C1800 C 0.78806 0.34793 0.48295
 C1801 C 0.76487 0.35363 0.47648
 C1802 C 0.77841 0.36251 0.48312
 C1803 C 0.78907 0.38071 0.46166
 C1804 C 0.79364 0.39266 0.45705
 C1805 C 0.76979 0.32425 0.48109
 C1806 C 0.76612 0.31169 0.48477
 H1807 H 0.78055 0.33455 0.45073
 H1808 H 0.76307 0.36141 0.45092
 H1809 H 0.80531 0.35099 0.46272
 H1810 H 0.79531 0.34388 0.49232
 H1811 H 0.75305 0.35426 0.48053
 H1812 H 0.77783 0.37078 0.49251
 C1813 C 0.79010 0.84657 -0.02146
 C1814 C 0.78970 0.85243 -0.03791
 C1815 C 0.78281 0.86729 -0.03224
 C1816 C 0.78328 0.86167 -0.01586
 C1817 C 0.77408 0.84029 -0.02352
 C1818 C 0.76718 0.85514 -0.01785
 C1819 C 0.77361 0.84593 -0.03990
 C1820 C 0.76679 0.86102 -0.03431
 C1821 C 0.78786 0.88220 -0.03733
 C1822 C 0.79218 0.89432 -0.04173
 C1823 C 0.76943 0.82510 -0.01893
 C1824 C 0.76585 0.81245 -0.01545
 H1825 H 0.79963 0.84046 -0.01613
 H1826 H 0.79901 0.85146 -0.04621
 H1827 H 0.78732 0.86831 -0.00604
 H1828 H 0.75786 0.85608 -0.00954
 H1829 H 0.76959 0.83930 -0.04973
 H1830 H 0.75726 0.86714 -0.03965
 C1831 C 0.78964 0.27111 0.40416
 C1832 C 0.78245 0.26633 0.38896
 C1833 C 0.78284 0.28289 0.38383
 C1834 C 0.79010 0.28774 0.39881
 C1835 C 0.77378 0.27382 0.41058
 C1836 C 0.77418 0.29038 0.40544
 C1837 C 0.76651 0.26896 0.39561
 C1838 C 0.76698 0.28562 0.39024
 C1839 C 0.78812 0.28815 0.36909
 C1840 C 0.79269 0.29265 0.35711
 C1841 C 0.76901 0.26903 0.42565
 C1842 C 0.76540 0.26540 0.43823
 H1843 H 0.79890 0.26509 0.41005
 H1844 H 0.78592 0.25650 0.38201
 H1845 H 0.79985 0.29551 0.39997
 H1846 H 0.77072 0.30022 0.41238
 H1847 H 0.75675 0.26119 0.39448
 H1848 H 0.75773 0.29164 0.38435
 C1849 C 0.78831 0.77046 -0.09743
 C1850 C 0.78012 0.76670 -0.11240
 C1851 C 0.78176 0.78329 -0.11720
 C1852 C 0.79003 0.78711 -0.10246
 C1853 C 0.77304 0.77441 -0.09027
 C1854 C 0.77469 0.79099 -0.09509
 C1855 C 0.76476 0.77057 -0.10500
 C1856 C 0.76648 0.78724 -0.11006
 C1857 C 0.78684 0.78842 -0.13206
 C1858 C 0.79124 0.79282 -0.14414
 C1859 C 0.76845 0.76970 -0.07512
 C1860 C 0.76497 0.76611 -0.06249
 H1861 H 0.79724 0.76351 -0.09207
 H1862 H 0.78241 0.75677 -0.11969
 H1863 H 0.80047 0.79397 -0.10156
 H1864 H 0.77241 0.80093 -0.08781
 H1865 H 0.75431 0.76371 -0.10587
 H1866 H 0.75757 0.79420 -0.11542
 C1867 C 0.26869 0.48107 0.85284
 C1868 C 0.26769 0.46468 0.85888
 C1869 C 0.28401 0.46601 0.86456
 C1870 C 0.28509 0.48231 0.85875
 C1871 C 0.27477 0.47493 0.83782
 C1872 C 0.29109 0.47625 0.84350
 C1873 C 0.27369 0.45863 0.84363
 C1874 C 0.29008 0.45987 0.84953
 C1875 C 0.28928 0.46093 0.87937
 C1876 C 0.29375 0.45664 0.89146
 C1877 C 0.26979 0.47979 0.82284
 C1878 C 0.26589 0.48367 0.81042
 H1879 H 0.25984 0.48985 0.85402
 H1880 H 0.25813 0.45987 0.86537
 H1881 H 0.28984 0.49199 0.86514
 H1882 H 0.30065 0.48105 0.83701
 H1883 H 0.26895 0.44894 0.83724
 H1884 H 0.29893 0.45110 0.84833
 C1885 C 0.26950 -0.01841 0.35287
 C1886 C 0.26848 -0.03478 0.35898
 C1887 C 0.28485 -0.03351 0.36450
 C1888 C 0.28595 -0.01722 0.35864
 C1889 C 0.27542 -0.02463 0.33782
 C1890 C 0.29179 -0.02337 0.34335
 C1891 C 0.27432 -0.04091 0.34369
 C1892 C 0.29076 -0.03972 0.34945
 C1893 C 0.29023 -0.03859 0.37928
 C1894 C 0.29476 -0.04293 0.39133
 C1895 C 0.27035 -0.01984 0.32285
 C1896 C 0.26640 -0.01605 0.31041
 H1897 H 0.26069 -0.00960 0.35410
 H1898 H 0.25896 -0.03953 0.36557
 H1899 H 0.29080 -0.00754 0.36495
 H1900 H 0.30131 -0.01862 0.33676
 H1901 H 0.26948 -0.05060 0.33738
 H1902 H 0.29957 -0.04853 0.34819
 C1903 C -0.01351 -0.03092 -0.10169
 C1904 C -0.02546 -0.04331 -0.10482
 C1905 C -0.03287 -0.03291 -0.11653
 C1906 C -0.02101 -0.02059 -0.11365
 C1907 C -0.02394 -0.02418 -0.08962
 C1908 C -0.03136 -0.01377 -0.10132
 C1909 C -0.03581 -0.03649 -0.09253
 C1910 C -0.04329 -0.02617 -0.10445
 C1911 C -0.03805 -0.03797 -0.13139
 C1912 C -0.04252 -0.04233 -0.14347
 C1913 C -0.01924 -0.01955 -0.07447
 C1914 C -0.01567 -0.01600 -0.06185
 H1915 H -0.00121 -0.03282 -0.10038
 H1916 H -0.02309 -0.05551 -0.10642
 H1917 H -0.01498 -0.01411 -0.12251
 H1918 H -0.03373 -0.00157 -0.09971
 H1919 H -0.04184 -0.04298 -0.08368
 H1920 H -0.05559 -0.02427 -0.10574
 C1921 C -0.03024 0.48528 0.39919
 C1922 C -0.02068 0.47608 0.38780
 C1923 C -0.03419 0.46550 0.38529
 C1924 C -0.04382 0.47462 0.39644
 C1925 C -0.02485 0.47479 0.41188
 C1926 C -0.03835 0.46421 0.40935
 C1927 C -0.01521 0.46567 0.40074
 C1928 C -0.02880 0.45501 0.39799
 C1929 C -0.03954 0.46019 0.37059
 C1930 C -0.04410 0.45568 0.35860
 C1931 C -0.01984 0.47979 0.42681
 C1932 C -0.01595 0.48370 0.43923
 H1933 H -0.03077 0.49779 0.39985
 H1934 H -0.01348 0.48090 0.37877
 H1935 H -0.05565 0.47824 0.39451
 H1936 H -0.04557 0.45938 0.41838
 H1937 H -0.00339 0.46205 0.40268
 H1938 H -0.02827 0.44251 0.39734
 C1939 C 0.48138 -0.03949 0.40412
 C1940 C 0.46499 -0.04395 0.40004
 C1941 C 0.46621 -0.03445 0.38560
 C1942 C 0.48253 -0.03006 0.38944
 C1943 C 0.47533 -0.02550 0.41238
 C1944 C 0.47655 -0.01599 0.39795
 C1945 C 0.45902 -0.02989 0.40853
 C1946 C 0.46016 -0.02046 0.39387
 C1947 C 0.46099 -0.03953 0.37077
 C1948 C 0.45656 -0.04383 0.35866
 C1949 C 0.48025 -0.02063 0.42738
 C1950 C 0.48410 -0.01674 0.43982
 H1951 H 0.49017 -0.04725 0.40850
 H1952 H 0.46018 -0.05550 0.40075
 H1953 H 0.49213 -0.03019 0.38142
 H1954 H 0.48137 -0.00444 0.39726
 H1955 H 0.44941 -0.02977 0.41655
 H1956 H 0.45137 -0.01270 0.38949
 C1957 C 0.46060 0.48073 -0.09617
 C1958 C 0.46994 0.48181 -0.11090
 C1959 C 0.46532 0.46555 -0.11477
 C1960 C 0.45591 0.46439 -0.10028
 C1961 C 0.47454 0.47446 -0.08802
 C1962 C 0.46991 0.45820 -0.09190
 C1963 C 0.48396 0.47562 -0.10251
 C1964 C 0.47925 0.45927 -0.10662
 C1965 C 0.46006 0.46047 -0.12959
 C1966 C 0.45560 0.45618 -0.14170
 C1967 C 0.47951 0.47931 -0.07303
 C1968 C 0.48341 0.48316 -0.06059
 H1969 H 0.45298 0.48961 -0.09170
 H1970 H 0.46988 0.49147 -0.11888
 H1971 H 0.44431 0.45973 -0.09952
 H1972 H 0.46996 0.44854 -0.08393
 H1973 H 0.49555 0.48029 -0.10325
 H1974 H 0.48687 0.45039 -0.11109
 C1975 C 0.47403 0.79080 0.34411
 C1976 C 0.45936 0.78572 0.35210
 C1977 C 0.46841 0.78317 0.36665
 C1978 C 0.48301 0.78833 0.35888
 C1979 C 0.47709 0.77430 0.33971
 C1980 C 0.48615 0.77175 0.35425
 C1981 C 0.46249 0.76915 0.34748
 C1982 C 0.47146 0.76667 0.36227
 C1983 C 0.46336 0.78830 0.38152
 C1984 C 0.45898 0.79270 0.39362
 C1985 C 0.48166 0.76960 0.32455
 C1986 C 0.48513 0.76600 0.31191
 H1987 H 0.47513 0.80067 0.33647
 H1988 H 0.44830 0.79151 0.35137
 H1989 H 0.49139 0.79628 0.36374
 H1990 H 0.49722 0.76595 0.35496
 H1991 H 0.45410 0.76121 0.34263
 H1992 H 0.47035 0.75681 0.36991
 C1993 C -0.01711 0.78746 0.84883
 C1994 C -0.03345 0.79150 0.85347
 C1995 C -0.03160 0.78178 0.86770
 C1996 C -0.01533 0.77781 0.86329
 C1997 C -0.02315 0.77349 0.84050
 C1998 C -0.02129 0.76376 0.85471
 C1999 C -0.03941 0.77747 0.84493
 C2000 C -0.03764 0.76781 0.85937
 C2001 C -0.03651 0.78658 0.88272
 C2002 C -0.04075 0.79073 0.89496
 C2003 C -0.01868 0.76909 0.82522
 C2004 C -0.01527 0.76570 0.81251
 H2005 H -0.00862 0.79549 0.84432
 H2006 H -0.03850 0.80296 0.85312
 H2007 H -0.00548 0.77800 0.87102
 H2008 H -0.01624 0.75230 0.85505
 H2009 H -0.04927 0.77728 0.83721
 H2010 H -0.04613 0.75979 0.86388
 C2011 C 0.40403 0.78973 0.27088
 C2012 C 0.38895 0.78249 0.26581
 C2013 C 0.38352 0.78282 0.28226
 C2014 C 0.39837 0.79014 0.28739
 C2015 C 0.41045 0.77387 0.27368
 C2016 C 0.40501 0.77421 0.29013
 C2017 C 0.39561 0.76654 0.26854
 C2018 C 0.38993 0.76696 0.28507
 C2019 C 0.36865 0.78802 0.28724
 C2020 C 0.35656 0.79249 0.29153
 C2021 C 0.42560 0.76915 0.26913
 C2022 C 0.43822 0.76556 0.26562
 H2023 H 0.41000 0.79904 0.26499
 H2024 H 0.38218 0.78596 0.25587
 H2025 H 0.39935 0.79989 0.29519
 H2026 H 0.41177 0.77075 0.30008
 H2027 H 0.39465 0.75678 0.26074
 H2028 H 0.38396 0.75766 0.29097
 C2029 C -0.10495 0.76805 0.76717
 C2030 C -0.11152 0.76610 0.78326
 C2031 C -0.11704 0.78253 0.78278
 C2032 C -0.11072 0.78457 0.76678
 C2033 C -0.09010 0.77365 0.77415
 C2034 C -0.09564 0.79008 0.77368
 C2035 C -0.09644 0.77162 0.79015
 C2036 C -0.10218 0.78812 0.78974
 C2037 C -0.13191 0.78771 0.78778
 C2038 C -0.14400 0.79217 0.79207
 C2039 C -0.07495 0.76898 0.76956
 C2040 C -0.06232 0.76545 0.76602
 H2041 H -0.10591 0.75975 0.75784
 H2042 H -0.11823 0.75630 0.78726
 H2043 H -0.11676 0.78995 0.75723
 H2044 H -0.08894 0.79988 0.76969
 H2045 H -0.09040 0.76624 0.79970
 H2046 H -0.10120 0.79642 0.79907
 C2047 C 0.84327 0.27888 0.46001
 C2048 C 0.85203 0.29242 0.46675
 C2049 C 0.86638 0.28273 0.46700
 C2050 C 0.85784 0.26926 0.46019
 C2051 C 0.83971 0.27343 0.47607
 C2052 C 0.85405 0.26372 0.47633
 C2053 C 0.84826 0.28690 0.48288
 C2054 C 0.86285 0.27728 0.48307
 C2055 C 0.88107 0.28814 0.46174
 C2056 C 0.89300 0.29280 0.45720
 C2057 C 0.82467 0.26857 0.48086
 C2058 C 0.81211 0.26493 0.48451
 H2059 H 0.83506 0.27949 0.45058
 H2060 H 0.85135 0.30427 0.46275
 H2061 H 0.86194 0.26206 0.45079
 H2062 H 0.85471 0.25186 0.48033
 H2063 H 0.84416 0.29410 0.49227
 H2064 H 0.87107 0.27669 0.49249
 C2065 C 0.85460 0.76627 -0.01757
 C2066 C 0.86094 0.76508 -0.03382
 C2067 C 0.86719 0.78120 -0.03235
 C2068 C 0.86110 0.78247 -0.01617
 C2069 C 0.83996 0.77293 -0.02399
 C2070 C 0.84622 0.78904 -0.02253
 C2071 C 0.84606 0.77166 -0.04016
 C2072 C 0.85254 0.78784 -0.03876
 C2073 C 0.88224 0.78601 -0.03717
 C2074 C 0.89449 0.79019 -0.04131
 C2075 C 0.82467 0.76856 -0.01955
 C2076 C 0.81196 0.76519 -0.01613
 H2077 H 0.85527 0.75736 -0.00880
 H2078 H 0.86717 0.75528 -0.03852
 H2079 H 0.86746 0.78697 -0.00637
 H2080 H 0.84000 0.79885 -0.01784
 H2081 H 0.83970 0.76717 -0.04997
 H2082 H 0.85184 0.79676 -0.04752
 C2083 C -0.10368 -0.01292 -0.02584
 C2084 C -0.10724 -0.02088 -0.04099
 C2085 C -0.11716 -0.03227 -0.03249
 C2086 C -0.11386 -0.02438 -0.01741
 C2087 C -0.09021 -0.02358 -0.02364
 C2088 C -0.10013 -0.03497 -0.01513
 C2089 C -0.09354 -0.03147 -0.03871
 C2090 C -0.10368 -0.04292 -0.03028
 C2091 C -0.13204 -0.03732 -0.03761
 C2092 C -0.14414 -0.04170 -0.04200
 C2093 C -0.07505 -0.01900 -0.01895
 C2094 C -0.06241 -0.01551 -0.01538
 H2095 H -0.10351 -0.00053 -0.02395
 H2096 H -0.11032 -0.01515 -0.05169
 H2097 H -0.12239 -0.02153 -0.00870
 H2098 H -0.09704 -0.04071 -0.00444
 H2099 H -0.08503 -0.03433 -0.04743
 H2100 H -0.10384 -0.05531 -0.03217
 C2101 C -0.10060 0.48555 0.46991
 C2102 C -0.10358 0.47574 0.45575
 C2103 C -0.11432 0.46584 0.46509
 C2104 C -0.11157 0.47557 0.47917
 C2105 C -0.08762 0.47494 0.47427
 C2106 C -0.09835 0.46504 0.48361
 C2107 C -0.09038 0.46520 0.46019
 C2108 C -0.10134 0.45523 0.46945
 C2109 C -0.12911 0.46065 0.45986
 C2110 C -0.14119 0.45625 0.45544
 C2111 C -0.07265 0.47985 0.47925
 C2112 C -0.06024 0.48373 0.48317
 H2113 H -0.10012 0.49807 0.47016
 H2114 H -0.10590 0.48008 0.44424
 H2115 H -0.12046 0.47978 0.48692
 H2116 H -0.09603 0.46070 0.49512
 H2117 H -0.08150 0.46099 0.45244
 H2118 H -0.10180 0.44271 0.46920
 C2119 C 0.40818 -0.04082 0.47078
 C2120 C 0.39321 -0.03861 0.47951
 C2121 C 0.38569 -0.03327 0.46484
 C2122 C 0.40043 -0.03556 0.45604
 C2123 C 0.41239 -0.02435 0.47422
 C2124 C 0.40487 -0.01901 0.45955
 C2125 C 0.39766 -0.02205 0.48302
 C2126 C 0.38990 -0.01679 0.46827
 C2127 C 0.37091 -0.03839 0.45952
 C2128 C 0.35884 -0.04277 0.45505
 C2129 C 0.42736 -0.01953 0.47928
 C2130 C 0.43979 -0.01574 0.48325
 H2131 H 0.41586 -0.05065 0.47188
 H2132 H 0.38826 -0.04672 0.48766
 H2133 H 0.40142 -0.04118 0.44489
 H2134 H 0.40983 -0.01090 0.45139
 H2135 H 0.39669 -0.01643 0.49418
 H2136 H 0.38221 -0.00697 0.46717
 C2137 C 0.39763 0.48548 -0.02569
 C2138 C 0.39383 0.47961 -0.04172
 C2139 C 0.38499 0.46649 -0.03462
 C2140 C 0.38854 0.47228 -0.01868
 C2141 C 0.41178 0.47549 -0.02562
 C2142 C 0.40294 0.46237 -0.01852
 C2143 C 0.40821 0.46970 -0.04156
 C2144 C 0.39915 0.45651 -0.03454
 C2145 C 0.37015 0.46133 -0.03976
 C2146 C 0.35805 0.45693 -0.04411
 C2147 C 0.42680 0.48033 -0.02074
 C2148 C 0.43927 0.48412 -0.01690
 H2149 H 0.39718 0.49745 -0.02200
 H2150 H 0.38992 0.48663 -0.05131
 H2151 H 0.38028 0.47328 -0.00933
 H2152 H 0.40685 0.45534 -0.00893
 H2153 H 0.41646 0.46869 -0.05091
 H2154 H 0.39961 0.44454 -0.03823
 C2155 C 0.34122 0.47125 0.79180
 C2156 C 0.34969 0.45727 0.78564
 C2157 C 0.36415 0.46677 0.78462
 C2158 C 0.35590 0.48068 0.79086
 C2159 C 0.33743 0.47588 0.77554
 C2160 C 0.35189 0.48539 0.77452
 C2161 C 0.34568 0.46197 0.76930
 C2162 C 0.36038 0.47140 0.76835
 C2163 C 0.37893 0.46155 0.78980
 C2164 C 0.39100 0.45711 0.79419
 C2165 C 0.32245 0.48078 0.77064
 C2166 C 0.31000 0.48461 0.76677
 H2167 H 0.33317 0.47125 0.80139
 H2168 H 0.34894 0.44565 0.79027
 H2169 H 0.36027 0.48831 0.79979
 H2170 H 0.35262 0.49701 0.76989
 H2171 H 0.34131 0.45434 0.76038
 H2172 H 0.36842 0.47140 0.75877
 C2173 C 0.34184 -0.02924 0.29151
 C2174 C 0.35024 -0.04335 0.28555
 C2175 C 0.36472 -0.03390 0.28428
 C2176 C 0.35654 -0.01987 0.29032
 C2177 C 0.33798 -0.02489 0.27518
 C2178 C 0.35245 -0.01543 0.27392
 C2179 C 0.34617 -0.03893 0.26915
 C2180 C 0.36088 -0.02955 0.26796
 C2181 C 0.37953 -0.03906 0.28947
 C2182 C 0.39162 -0.04344 0.29385
 C2183 C 0.32300 -0.02002 0.27025
 C2184 C 0.31057 -0.01619 0.26635
 H2185 H 0.33384 -0.02906 0.30113
 H2186 H 0.34949 -0.05488 0.29038
 H2187 H 0.36097 -0.01209 0.29909
 H2188 H 0.35319 -0.00390 0.26908
 H2189 H 0.34173 -0.04671 0.26039
 H2190 H 0.36888 -0.02974 0.25834
 C2191 C 0.15166 0.51834 0.71266
 C2192 C 0.13702 0.51668 0.72206
 C2193 C 0.13288 0.53304 0.71810
 C2194 C 0.14728 0.53477 0.70863
 C2195 C 0.15983 0.52422 0.72677
 C2196 C 0.15566 0.54058 0.72280
 C2197 C 0.14544 0.52248 0.73626
 C2198 C 0.14105 0.53893 0.73221
 C2199 C 0.11801 0.53814 0.71304
 C2200 C 0.10591 0.54251 0.70866
 C2201 C 0.17499 0.51955 0.73136
 C2202 C 0.18761 0.51599 0.73487
 H2203 H 0.15619 0.50982 0.70468
 H2204 H 0.12919 0.50691 0.72170
 H2205 H 0.14788 0.53988 0.69721
 H2206 H 0.16349 0.55036 0.72316
 H2207 H 0.14486 0.51737 0.74767
 H2208 H 0.13652 0.54745 0.74019
 C2209 C 0.15066 0.03556 0.23438
 C2210 C 0.14716 0.04286 0.21890
 C2211 C 0.13351 0.03230 0.21722
 C2212 C 0.13677 0.02506 0.23262
 C2213 C 0.16037 0.02367 0.22634
 C2214 C 0.14674 0.01309 0.22466
 C2215 C 0.15709 0.03091 0.21094
 C2216 C 0.14323 0.02042 0.20918
 C2217 C 0.11869 0.03732 0.21193
 C2218 C 0.10663 0.04165 0.20740
 C2219 C 0.17550 0.01909 0.23113
 C2220 C 0.18811 0.01556 0.23474
 H2221 H 0.15388 0.04173 0.24479
 H2222 H 0.14717 0.05516 0.21647
 H2223 H 0.12824 0.02271 0.24148
 H2224 H 0.14674 0.00080 0.22709
 H2225 H 0.16560 0.03327 0.20208
 H2226 H 0.14001 0.01425 0.19877
 C2227 C 0.59421 0.72753 0.20947
 C2228 C 0.60943 0.73265 0.21637
 C2229 C 0.61479 0.71616 0.21619
 C2230 C 0.59980 0.71097 0.20920
 C2231 C 0.58804 0.72498 0.22545
 C2232 C 0.59340 0.70849 0.22526
 C2233 C 0.60302 0.73017 0.23245
 C2234 C 0.60862 0.71360 0.23218
 C2235 C 0.62959 0.71112 0.21089
 C2236 C 0.64168 0.70684 0.20640
 C2237 C 0.57304 0.72977 0.23042
 C2238 C 0.56059 0.73357 0.23429
 H2239 H 0.58812 0.73331 0.20018
 H2240 H 0.61618 0.74252 0.21265
 H2241 H 0.59863 0.70303 0.19959
 H2242 H 0.58665 0.69861 0.22897
 H2243 H 0.60417 0.73812 0.24206
 H2244 H 0.61472 0.70781 0.24146
 C2245 C 0.09341 0.72730 0.70914
 C2246 C 0.10867 0.73302 0.71546
 C2247 C 0.11429 0.71663 0.71610
 C2248 C 0.09926 0.71084 0.70970
 C2249 C 0.08757 0.72556 0.72536
 C2250 C 0.09320 0.70917 0.72599
 C2251 C 0.10259 0.73137 0.73177
 C2252 C 0.10845 0.71489 0.73232
 C2253 C 0.12907 0.71153 0.71081
 C2254 C 0.14114 0.70718 0.70633
 C2255 C 0.07259 0.73039 0.73033
 C2256 C 0.06014 0.73420 0.73421
 H2257 H 0.08706 0.73245 0.69966
 H2258 H 0.11519 0.74277 0.71107
 H2259 H 0.09805 0.70234 0.70057
 H2260 H 0.08667 0.69942 0.73038
 H2261 H 0.10379 0.73986 0.74090
 H2262 H 0.11480 0.70973 0.74180
 C2263 C 0.65857 0.20995 0.53214
 C2264 C 0.64889 0.21812 0.54415
 C2265 C 0.63510 0.21658 0.53377
 C2266 C 0.64456 0.20833 0.52183
 C2267 C 0.66199 0.22527 0.52477
 C2268 C 0.64821 0.22373 0.51439
 C2269 C 0.65252 0.23352 0.53672
 C2270 C 0.63850 0.23191 0.52641
 C2271 C 0.62021 0.21160 0.53892
 C2272 C 0.60806 0.20736 0.54328
 C2273 C 0.67706 0.22998 0.51993
 C2274 C 0.68956 0.23371 0.51615
 H2275 H 0.66699 0.20097 0.53444
 H2276 H 0.64901 0.21576 0.55644
 H2277 H 0.64112 0.19791 0.51577
 H2278 H 0.64810 0.22609 0.50209
 H2279 H 0.65597 0.24394 0.54278
 H2280 H 0.63008 0.24088 0.52412
 C2281 C 0.65407 0.71065 0.01872
 C2282 C 0.64981 0.70718 0.03530
 C2283 C 0.63521 0.71626 0.03325
 C2284 C 0.63923 0.71966 0.01674
 C2285 C 0.66194 0.72518 0.02400
 C2286 C 0.64735 0.73428 0.02194
 C2287 C 0.65791 0.72178 0.04050
 C2288 C 0.64308 0.73079 0.03852
 C2289 C 0.62041 0.71117 0.03854
 C2290 C 0.60834 0.70684 0.04303
 C2291 C 0.67694 0.73001 0.01903
 C2292 C 0.68939 0.73381 0.01515
 H2293 H 0.65875 0.70242 0.01052
 H2294 H 0.65067 0.69598 0.04085
 H2295 H 0.63138 0.71874 0.00703
 H2296 H 0.64650 0.74548 0.01638
 H2297 H 0.66575 0.72270 0.05021
 H2298 H 0.63840 0.73902 0.04673
 C2299 C 0.09595 0.03862 0.01820
 C2300 C 0.10016 0.04323 0.03452
 C2301 C 0.11457 0.03370 0.03329
 C2302 C 0.11060 0.02916 0.01704
 C2303 C 0.08771 0.02471 0.02446
 C2304 C 0.10211 0.01516 0.02322
 C2305 C 0.09170 0.02925 0.04070
 C2306 C 0.10632 0.01978 0.03954
 C2307 C 0.12944 0.03882 0.03835
 C2308 C 0.14157 0.04316 0.04268
 C2309 C 0.07266 0.01985 0.01970
 C2310 C 0.06016 0.01602 0.01598
 H2311 H 0.09152 0.04632 0.00938
 H2312 H 0.09952 0.05483 0.03923
 H2313 H 0.11854 0.02918 0.00737
 H2314 H 0.10273 0.00356 0.01851
 H2315 H 0.08376 0.02924 0.05038
 H2316 H 0.11075 0.01209 0.04838
 C2317 C 0.09831 0.51799 0.53673
 C2318 C 0.11288 0.51676 0.52717
 C2319 C 0.11689 0.53306 0.53155
 C2320 C 0.10255 0.53436 0.54118
 C2321 C 0.08996 0.52415 0.52286
 C2322 C 0.09399 0.54045 0.52725
 C2323 C 0.10428 0.52285 0.51320
 C2324 C 0.10854 0.53923 0.51768
 C2325 C 0.13175 0.53821 0.53662
 C2326 C 0.14383 0.54261 0.54103
 C2327 C 0.07480 0.51943 0.51828
 C2328 C 0.06217 0.51583 0.51479
 H2329 H 0.09393 0.50921 0.54451
 H2330 H 0.12082 0.50708 0.52719
 H2331 H 0.10200 0.53915 0.55274
 H2332 H 0.08606 0.55014 0.52723
 H2333 H 0.10481 0.51805 0.50165
 H2334 H 0.11291 0.54802 0.50990
 C2335 C 0.59406 0.02804 0.54017
 C2336 C 0.60879 0.01884 0.53831
 C2337 C 0.61673 0.03314 0.53254
 C2338 C 0.60222 0.04240 0.53447
 C2339 C 0.58982 0.02417 0.52381
 C2340 C 0.59776 0.03847 0.51804
 C2341 C 0.60432 0.01489 0.52187
 C2342 C 0.61250 0.02928 0.51618
 C2343 C 0.63157 0.03831 0.53761
 C2344 C 0.64365 0.04274 0.54200
 C2345 C 0.57469 0.01943 0.51919
 C2346 C 0.56208 0.01582 0.51564
 H2347 H 0.58632 0.02747 0.54999
 H2348 H 0.61349 0.01082 0.54670
 H2349 H 0.60151 0.05377 0.53970
 H2350 H 0.59306 0.04649 0.50966
 H2351 H 0.60501 0.00353 0.51664
 H2352 H 0.62026 0.02985 0.50637
 C2353 C 0.60028 0.53325 0.01350
 C2354 C 0.60360 0.54318 0.02750
 C2355 C 0.61650 0.53245 0.03181
 C2356 C 0.61342 0.52258 0.01788
 C2357 C 0.58955 0.52361 0.02311
 C2358 C 0.60243 0.51287 0.02742
 C2359 C 0.59264 0.53348 0.03703
 C2360 C 0.60576 0.52281 0.04141
 C2361 C 0.63137 0.53758 0.03685
 C2362 C 0.64346 0.54200 0.04121
 C2363 C 0.57438 0.51895 0.01851
 C2364 C 0.56175 0.51539 0.01499
 H2365 H 0.59785 0.53748 0.00197
 H2366 H 0.60423 0.55570 0.02759
 H2367 H 0.62214 0.51817 0.01006
 H2368 H 0.60178 0.50035 0.02732
 H2369 H 0.58394 0.53790 0.04486
 H2370 H 0.60817 0.51858 0.05294
 C2371 C 0.01492 0.02457 0.10226
 C2372 C 0.02804 0.01744 0.11134
 C2373 C 0.03389 0.03336 0.11498
 C2374 C 0.02086 0.04057 0.10614
 C2375 C 0.02493 0.02450 0.08812
 C2376 C 0.03079 0.04042 0.09177
 C2377 C 0.03796 0.01730 0.09696
 C2378 C 0.04390 0.03329 0.10084
 C2379 C 0.03898 0.03842 0.12987
 C2380 C 0.04326 0.04271 0.14205
 C2381 C 0.02005 0.01970 0.07308
 C2382 C 0.01617 0.01590 0.06061
 H2383 H 0.00295 0.02093 0.10267
 H2384 H 0.02696 0.00805 0.11956
 H2385 H 0.01388 0.05019 0.11007
 H2386 H 0.03186 0.04981 0.08356
 H2387 H 0.04494 0.00767 0.09302
 H2388 H 0.05587 0.03693 0.10041
 C2389 C 0.01375 0.52256 0.60375
 C2390 C 0.02732 0.51609 0.61268
 C2391 C 0.03220 0.53227 0.61659
 C2392 C 0.01871 0.53882 0.60791
 C2393 C 0.02370 0.52336 0.58959
 C2394 C 0.02858 0.53954 0.59353
 C2395 C 0.03719 0.51682 0.59827
 C2396 C 0.04213 0.53307 0.60242
 C2397 C 0.03713 0.53745 0.63149
 C2398 C 0.04138 0.54193 0.64360
 C2399 C 0.01918 0.51869 0.57440
 C2400 C 0.01570 0.51516 0.56175
 H2401 H 0.00203 0.51817 0.60412
 H2402 H 0.02686 0.50650 0.62073
 H2403 H 0.01117 0.54792 0.61204
 H2404 H 0.02905 0.54914 0.58549
 H2405 H 0.04473 0.50772 0.59414
 H2406 H 0.05385 0.53745 0.60203
 C2407 C 0.51375 0.03161 0.60155
 C2408 C 0.52033 0.02128 0.61403
 C2409 C 0.53285 0.03296 0.61679
 C2410 C 0.52635 0.04336 0.60454
 C2411 C 0.52402 0.02381 0.58997
 C2412 C 0.53653 0.03549 0.59275
 C2413 C 0.53052 0.01341 0.60220
 C2414 C 0.54311 0.02517 0.60520
 C2415 C 0.53797 0.03827 0.63158
 C2416 C 0.54237 0.04283 0.64361
 C2417 C 0.51934 0.01900 0.57487
 C2418 C 0.51576 0.01535 0.56227
 H2419 H 0.50162 0.03419 0.59988
 H2420 H 0.51372 0.01550 0.62296
 H2421 H 0.52469 0.05573 0.60566
 H2422 H 0.54315 0.04128 0.58384
 H2423 H 0.53218 0.00104 0.60107
 H2424 H 0.55524 0.02258 0.60686
 C2425 C 0.52301 0.51325 0.10389
 C2426 C 0.53914 0.51856 0.10802
 C2427 C 0.53235 0.53204 0.11654
 C2428 C 0.51629 0.52683 0.11266
 C2429 C 0.52367 0.52307 0.08963
 C2430 C 0.51688 0.53656 0.09814
 C2431 C 0.53972 0.52829 0.09353
 C2432 C 0.53300 0.54184 0.10226
 C2433 C 0.53739 0.53726 0.13139
 C2434 C 0.54174 0.54175 0.14346
 C2435 C 0.51905 0.51835 0.07448
 C2436 C 0.51551 0.51479 0.06185
 H2437 H 0.51884 0.50144 0.10438
 H2438 H 0.54836 0.51122 0.11225
 H2439 H 0.50671 0.52629 0.12069
 H2440 H 0.50767 0.54390 0.09391
 H2441 H 0.54931 0.52884 0.08550
 H2442 H 0.53717 0.55366 0.10175
 C2443 C 0.23577 0.52258 0.64597
 C2444 C 0.22204 0.51629 0.63714
 C2445 C 0.21742 0.53254 0.63320
 C2446 C 0.23107 0.53890 0.64178
 C2447 C 0.22592 0.52360 0.66018
 C2448 C 0.22130 0.53984 0.65622
 C2449 C 0.21227 0.51724 0.65160
 C2450 C 0.20758 0.53355 0.64742
 C2451 C 0.21249 0.53773 0.61831
 C2452 C 0.20824 0.54221 0.60621
 C2453 C 0.23044 0.51890 0.67535
 C2454 C 0.23393 0.51535 0.68799
 H2455 H 0.24741 0.51801 0.64554
 H2456 H 0.22229 0.50667 0.62911
 H2457 H 0.23874 0.54787 0.63758
 H2458 H 0.22104 0.54947 0.66423
 H2459 H 0.20459 0.50828 0.65580
 H2460 H 0.19594 0.53812 0.64787
 C2461 C 0.21282 0.03399 0.15735
 C2462 C 0.22270 0.04261 0.14582
 C2463 C 0.21699 0.03202 0.13334
 C2464 C 0.20703 0.02347 0.14465
 C2465 C 0.22595 0.02305 0.16015
 C2466 C 0.22024 0.01244 0.14768
 C2467 C 0.23592 0.03159 0.14885
 C2468 C 0.23013 0.02107 0.13612
 C2469 C 0.21180 0.03726 0.11856
 C2470 C 0.20733 0.04180 0.10656
 C2471 C 0.23069 0.01835 0.17526
 C2472 C 0.23432 0.01483 0.18787
 H2473 H 0.20575 0.03926 0.16624
 H2474 H 0.22366 0.05508 0.14490
 H2475 H 0.19510 0.02019 0.14277
 H2476 H 0.21929 -0.00002 0.14862
 H2477 H 0.24785 0.03488 0.15074
 H2478 H 0.23719 0.01582 0.12721
 C2479 C 0.71643 0.23526 0.59950
 C2480 C 0.70507 0.22230 0.60246
 C2481 C 0.71551 0.21625 0.61489
 C2482 C 0.72679 0.22913 0.61217
 C2483 C 0.72468 0.22512 0.58812
 C2484 C 0.73512 0.21907 0.60055
 C2485 C 0.71340 0.21224 0.59086
 C2486 C 0.72376 0.20611 0.60351
 C2487 C 0.71030 0.21117 0.62972
 C2488 C 0.70591 0.20683 0.64183
 C2489 C 0.72965 0.22991 0.57312
 C2490 C 0.73357 0.23370 0.56067
 H2491 H 0.71348 0.24730 0.59768
 H2492 H 0.69266 0.22357 0.60341
 H2493 H 0.73224 0.23602 0.62110
 H2494 H 0.74753 0.21780 0.59959
 H2495 H 0.70794 0.20535 0.58193
 H2496 H 0.72671 0.19407 0.60532
 C2497 C 0.72402 0.70918 0.09255
 C2498 C 0.73150 0.71364 0.10770
 C2499 C 0.71580 0.71681 0.11429
 C2500 C 0.70825 0.71228 0.09936
 C2501 C 0.72487 0.72575 0.08750
 C2502 C 0.70917 0.72892 0.09409
 C2503 C 0.73243 0.73029 0.10242
 C2504 C 0.71665 0.73339 0.10925
 C2505 C 0.71063 0.71169 0.12912
 C2506 C 0.70626 0.70731 0.14122
 C2507 C 0.72978 0.73056 0.07248
 C2508 C 0.73363 0.73434 0.06001
 H2509 H 0.72710 0.69928 0.08552
 H2510 H 0.74062 0.70730 0.11347
 H2511 H 0.69824 0.70482 0.09826
 H2512 H 0.70005 0.73526 0.08832
 H2513 H 0.74244 0.73776 0.10350
 H2514 H 0.71355 0.74328 0.11628
 C2515 C 0.51669 0.72887 0.14709
 C2516 C 0.53187 0.73327 0.13963
 C2517 C 0.53420 0.71669 0.13510
 C2518 C 0.51910 0.71221 0.14232
 C2519 C 0.52512 0.72565 0.16188
 C2520 C 0.52745 0.70908 0.15734
 C2521 C 0.54022 0.73012 0.15466
 C2522 C 0.54262 0.71347 0.14990
 C2523 C 0.53937 0.71154 0.12028
 C2524 C 0.54375 0.70715 0.10818
 C2525 C 0.52022 0.73048 0.17690
 C2526 C 0.51637 0.73427 0.18936
 H2527 H 0.50597 0.73526 0.14611
 H2528 H 0.53375 0.74316 0.13217
 H2529 H 0.51047 0.70479 0.13708
 H2530 H 0.52557 0.69918 0.16479
 H2531 H 0.54885 0.73754 0.15990
 H2532 H 0.55333 0.70708 0.15090
 C2533 C 0.02085 0.73327 0.64754
 C2534 C 0.03755 0.73231 0.64248
 C2535 C 0.03441 0.71663 0.63577
 C2536 C 0.01780 0.71749 0.64060
 C2537 C 0.02516 0.72562 0.66248
 C2538 C 0.02202 0.70993 0.65577
 C2539 C 0.04177 0.72474 0.65765
 C2540 C 0.03870 0.70899 0.65072
 C2541 C 0.03967 0.71148 0.62098
 C2542 C 0.04410 0.70711 0.60890
 C2543 C 0.02015 0.73047 0.67746
 C2544 C 0.01620 0.73430 0.68988
 H2545 H 0.01345 0.74330 0.64641
 H2546 H 0.04400 0.74146 0.63685
 H2547 H 0.00800 0.71445 0.63342
 H2548 H 0.01558 0.70078 0.66141
 H2549 H 0.05157 0.72778 0.66483
 H2550 H 0.04610 0.69895 0.65187
 C2551 C 0.51780 0.65337 0.21174
 C2552 C 0.53386 0.64934 0.20620
 C2553 C 0.53354 0.63517 0.21619
 C2554 C 0.51755 0.63897 0.22166
 C2555 C 0.52478 0.66214 0.22496
 C2556 C 0.52446 0.64799 0.23496
 C2557 C 0.54077 0.65834 0.21949
 C2558 C 0.54052 0.64395 0.22941
 C2559 C 0.53853 0.62022 0.21120
 C2560 C 0.54277 0.60800 0.20699
 C2561 C 0.52003 0.67724 0.22974
 C2562 C 0.51627 0.68975 0.23354
 H2563 H 0.50840 0.65741 0.20453
 H2564 H 0.53778 0.64973 0.19432
 H2565 H 0.50806 0.63083 0.22249
 H2566 H 0.52054 0.64760 0.24685
 H2567 H 0.55026 0.66647 0.21865
 H2568 H 0.54992 0.63991 0.23662
 C2569 C 0.02234 0.65621 0.70877
 C2570 C 0.03865 0.65012 0.71001
 C2571 C 0.03241 0.63522 0.71633
 C2572 C 0.01617 0.64108 0.71501
 C2573 C 0.02356 0.66220 0.72499
 C2574 C 0.01731 0.64731 0.73131
 C2575 C 0.03980 0.65633 0.72630
 C2576 C 0.03364 0.64121 0.73255
 C2577 C 0.03748 0.62027 0.71139
 C2578 C 0.04178 0.60807 0.70722
 C2579 C 0.01879 0.67731 0.72972
 C2580 C 0.01506 0.68983 0.73349
 H2581 H 0.01764 0.66255 0.69905
 H2582 H 0.04749 0.65112 0.70120
 H2583 H 0.00650 0.63464 0.71031
 H2584 H 0.00848 0.64633 0.74013
 H2585 H 0.04947 0.66277 0.73099
 H2586 H 0.03834 0.63487 0.74227
 C2587 C 0.01673 0.10271 0.02091
 C2588 C 0.01748 0.10810 0.03753
 C2589 C 0.03332 0.11448 0.03456
 C2590 C 0.03265 0.10933 0.01803
 C2591 C 0.02402 0.08772 0.02565
 C2592 C 0.03986 0.09410 0.02268
 C2593 C 0.02469 0.09287 0.04218
 C2594 C 0.04060 0.09947 0.03929
 C2595 C 0.03864 0.12929 0.03965
 C2596 C 0.04316 0.14138 0.04396
 C2597 C 0.01904 0.07271 0.02081
 C2598 C 0.01518 0.06024 0.01697
 H2599 H 0.00686 0.10387 0.01330
 H2600 H 0.00834 0.11402 0.04370
 H2601 H 0.03599 0.11627 0.00815
 H2602 H 0.04901 0.08818 0.01652
 H2603 H 0.02136 0.08593 0.05206
 H2604 H 0.05047 0.09830 0.04690
 C2605 C 0.03353 0.59252 0.53828
 C2606 C 0.04370 0.60334 0.52908
 C2607 C 0.03314 0.61645 0.53318
 C2608 C 0.02304 0.60585 0.54245
 C2609 C 0.02400 0.58970 0.52408
 C2610 C 0.01343 0.60281 0.52817
 C2611 C 0.03410 0.60030 0.51480
 C2612 C 0.02362 0.61366 0.51897
 C2613 C 0.03844 0.63120 0.53847
 C2614 C 0.04300 0.64318 0.54302
 C2615 C 0.01918 0.57463 0.51927
 C2616 C 0.01552 0.56205 0.51562
 H2617 H 0.03755 0.58367 0.54617
 H2618 H 0.05620 0.60371 0.52952
 H2619 H 0.01856 0.60829 0.55388
 H2620 H 0.00093 0.60242 0.52774
 H2621 H 0.03859 0.59785 0.50338
 H2622 H 0.01960 0.62253 0.51110
 C2623 C 0.52252 0.10417 0.51423
 C2624 C 0.51616 0.11290 0.52799
 C2625 C 0.53235 0.11678 0.53279
 C2626 C 0.53879 0.10830 0.51912
 C2627 C 0.52343 0.08986 0.52397
 C2628 C 0.53962 0.09376 0.52878
 C2629 C 0.51699 0.09834 0.53765
 C2630 C 0.53325 0.10245 0.54251
 C2631 C 0.53755 0.13161 0.53792
 C2632 C 0.54205 0.14366 0.54236
 C2633 C 0.51875 0.07470 0.51932
 C2634 C 0.51522 0.06205 0.51577
 H2635 H 0.51805 0.10469 0.50255
 H2636 H 0.50658 0.12095 0.52773
 H2637 H 0.54782 0.11255 0.51156
 H2638 H 0.54921 0.08572 0.52905
 H2639 H 0.50798 0.09408 0.54521
 H2640 H 0.53772 0.10190 0.55419
 C2641 C 0.53598 0.59213 0.03553
 C2642 C 0.54265 0.60448 0.02513
 C2643 C 0.53252 0.61621 0.03288
 C2644 C 0.52592 0.60406 0.04334
 C2645 C 0.52341 0.58940 0.02391
 C2646 C 0.51327 0.60112 0.03165
 C2647 C 0.53001 0.60153 0.01343
 C2648 C 0.51995 0.61351 0.02126
 C2649 C 0.53782 0.63098 0.03808
 C2650 C 0.54239 0.64299 0.04256
 C2651 C 0.51864 0.57430 0.01916
 C2652 C 0.51503 0.56169 0.01554
 H2653 H 0.54252 0.58317 0.04134
 H2654 H 0.55479 0.60602 0.02251
 H2655 H 0.52430 0.60526 0.05570
 H2656 H 0.50113 0.59956 0.03428
 H2657 H 0.53163 0.60032 0.00108
 H2658 H 0.51342 0.62247 0.01545
 C2659 C 0.71730 0.15042 0.51559
 C2660 C 0.72783 0.13763 0.52117
 C2661 C 0.71700 0.13473 0.53438
 C2662 C 0.70639 0.14729 0.52887
 C2663 C 0.72593 0.16165 0.52559
 C2664 C 0.71510 0.15874 0.53880
 C2665 C 0.73654 0.14911 0.53110
 C2666 C 0.72563 0.14597 0.54438
 C2667 C 0.71189 0.11982 0.53937
 C2668 C 0.70755 0.10764 0.54360
 C2669 C 0.73075 0.17673 0.52082
 C2670 C 0.73453 0.18924 0.51702
 H2671 H 0.71393 0.15242 0.50370
 H2672 H 0.73300 0.12878 0.51398
 H2673 H 0.69394 0.14638 0.52801
 H2674 H 0.70992 0.16759 0.54599
 H2675 H 0.74900 0.15003 0.53196
 H2676 H 0.72900 0.14398 0.55627
 C2677 C 0.72793 0.65566 0.04007
 C2678 C 0.71138 0.65010 0.04062
 C2679 C 0.71629 0.63525 0.03313
 C2680 C 0.73277 0.64058 0.03266
 C2681 C 0.72499 0.66224 0.02432
 C2682 C 0.72991 0.64740 0.01682
 C2683 C 0.70851 0.65691 0.02479
 C2684 C 0.71335 0.64183 0.01737
 C2685 C 0.71134 0.62029 0.03814
 C2686 C 0.70713 0.60807 0.04237
 C2687 C 0.72972 0.67734 0.01953
 C2688 C 0.73349 0.68985 0.01574
 H2689 H 0.73397 0.66151 0.04935
 H2690 H 0.70370 0.65105 0.05046
 H2691 H 0.74270 0.63370 0.03595
 H2692 H 0.73758 0.64646 0.00698
 H2693 H 0.69858 0.66379 0.02151
 H2694 H 0.70730 0.63598 0.00810
 C2695 C 0.20996 0.59606 0.72807
 C2696 C 0.21671 0.61132 0.73334
 C2697 C 0.21692 0.61667 0.71686
 C2698 C 0.21009 0.60164 0.71153
 C2699 C 0.22601 0.58991 0.72592
 C2700 C 0.22621 0.59528 0.70945
 C2701 C 0.23286 0.60493 0.73126
 C2702 C 0.23297 0.61054 0.71469
 C2703 C 0.21162 0.63142 0.71160
 C2704 C 0.20705 0.64340 0.70707
 C2705 C 0.23079 0.57483 0.73071
 C2706 C 0.23438 0.56224 0.73435
 H2707 H 0.20056 0.58994 0.73363
 H2708 H 0.21274 0.61808 0.74310
 H2709 H 0.20068 0.60043 0.70337
 H2710 H 0.23017 0.58852 0.69967
 H2711 H 0.24227 0.60611 0.73943
 H2712 H 0.24237 0.61666 0.70913
 C2713 C 0.23653 0.10056 0.21622
 C2714 C 0.22269 0.10383 0.20607
 C2715 C 0.21814 0.11669 0.21677
 C2716 C 0.23190 0.11366 0.22685
 C2717 C 0.22681 0.08972 0.22563
 C2718 C 0.22226 0.10257 0.23634
 C2719 C 0.21306 0.09277 0.21555
 C2720 C 0.20842 0.10584 0.22618
 C2721 C 0.21309 0.13157 0.21165
 C2722 C 0.20872 0.14367 0.20726
 C2723 C 0.23140 0.07456 0.23033
 C2724 C 0.23492 0.06192 0.23392
 H2725 H 0.24814 0.09822 0.21219
 H2726 H 0.22282 0.10450 0.19357
 H2727 H 0.23959 0.12243 0.23143
 H2728 H 0.22213 0.10188 0.24884
 H2729 H 0.20536 0.08401 0.21096
 H2730 H 0.19681 0.10817 0.23021
 C2731 C 0.70998 1.09535 0.72801
 C2732 C 0.71637 1.11060 0.73373
 C2733 C 0.71709 1.11621 0.71736
 C2734 C 0.71063 1.10119 0.71157
 C2735 C 0.72617 1.08942 0.72632
 C2736 C 0.72688 1.09504 0.70995
 C2737 C 0.73265 1.10442 0.73213
 C2738 C 0.73328 1.11028 0.71567
 C2739 C 0.71181 1.13098 0.71215
 C2740 C 0.70726 1.14298 0.70766
 C2741 C 0.73094 1.07432 0.73106
 C2742 C 0.73456 1.06172 0.73467
 H2743 H 0.70046 1.08905 0.73314
 H2744 H 0.71199 1.11716 0.74345
 H2745 H 0.70152 1.10001 0.70306
 H2746 H 0.73125 1.08848 0.70022
 H2747 H 0.74176 1.10557 0.74064
 H2748 H 0.74279 1.11660 0.71053
 C2749 C 0.73528 0.59970 0.21424
 C2750 C 0.72021 0.60297 0.20604
 C2751 C 0.71765 0.61651 0.21656
 C2752 C 0.73264 0.61349 0.22470
 C2753 C 0.72673 0.58972 0.22554
 C2754 C 0.72416 0.60325 0.23608
 C2755 C 0.71174 0.59277 0.21740
 C2756 C 0.70910 0.60652 0.22785
 C2757 C 0.71235 0.63128 0.21136
 C2758 C 0.70777 0.64327 0.20689
 C2759 C 0.73149 0.57462 0.23028
 C2760 C 0.73507 0.56202 0.23390
 H2761 H 0.74610 0.59673 0.20871
 H2762 H 0.71853 0.60302 0.19363
 H2763 H 0.74117 0.62218 0.22764
 H2764 H 0.72585 0.60318 0.24848
 H2765 H 0.70320 0.58409 0.21444
 H2766 H 0.69827 0.60948 0.23339
 C2767 C 0.53723 0.15266 0.73221
 C2768 C 0.52715 0.13838 0.73141
 C2769 C 0.53358 0.13496 0.71568
 C2770 C 0.54373 0.14901 0.71642
 C2771 C 0.52458 0.16178 0.72468
 C2772 C 0.53101 0.15836 0.70896
 C2773 C 0.51442 0.14774 0.72394
 C2774 C 0.52093 0.14409 0.70814
 C2775 C 0.53872 0.12010 0.71058
 C2776 C 0.54307 0.10795 0.70628
 C2777 C 0.51970 0.17681 0.72957
 C2778 C 0.51585 0.18926 0.73346
 H2779 H 0.54387 0.15635 0.74217
 H2780 H 0.52563 0.12999 0.74058
 H2781 H 0.55583 0.14938 0.71327
 H2782 H 0.53253 0.16674 0.69978
 H2783 H 0.50232 0.14739 0.72710
 H2784 H 0.51429 0.14040 0.69819
 C2785 C 1.03714 0.15165 0.23220
 C2786 C 1.02749 0.13708 0.23310
 C2787 C 1.03216 0.13321 0.21687
 C2788 C 1.04188 0.14755 0.21590
 C2789 C 1.02343 0.16013 0.22586
 C2790 C 1.02810 0.15624 0.20964
 C2791 C 1.01369 0.14581 0.22684
 C2792 C 1.01845 0.14169 0.21053
 C2793 C 1.03725 0.11837 0.21167
 C2794 C 1.04166 0.10631 0.20721
 C2795 C 1.01883 0.17528 0.23062
 C2796 C 1.01534 0.18791 0.23424
 H2797 H 1.04477 0.15592 0.24117
 H2798 H 1.02730 0.12904 0.24270
 H2799 H 1.05352 0.14811 0.21135
 H2800 H 1.02830 0.16428 0.20003
 H2801 H 1.00205 0.14527 0.23140
 H2802 H 1.01082 0.13743 0.20156
 C2803 C 0.21595 0.65206 0.51557
 C2804 C 0.22656 0.63867 0.51929
 C2805 C 0.21726 0.63552 0.53356
 C2806 C 0.20658 0.64867 0.52991
 C2807 C 0.22614 0.66251 0.52494
 C2808 C 0.21683 0.65935 0.53920
 C2809 C 0.23683 0.64937 0.52859
 C2810 C 0.22744 0.64598 0.54293
 C2811 C 0.21218 0.62057 0.53848
 C2812 C 0.20788 0.60836 0.54264
 C2813 C 0.23092 0.67763 0.52024
 C2814 C 0.23468 0.69016 0.51650
 H2815 H 0.21129 0.65473 0.50426
 H2816 H 0.23051 0.63000 0.51116
 H2817 H 0.19408 0.64823 0.53051
 H2818 H 0.21288 0.66802 0.54734
 H2819 H 0.24932 0.64983 0.52799
 H2820 H 0.23210 0.64332 0.55424
 C2821 C 0.22318 0.14822 1.01434
 C2822 C 0.23144 0.13809 1.02595
 C2823 C 0.21628 0.13493 1.03370
 C2824 C 0.20793 0.14481 1.02217
 C2825 C 0.22536 0.16180 1.02492
 C2826 C 0.21019 0.15861 1.03267
 C2827 C 0.23370 0.15191 1.03645
 C2828 C 0.21846 0.14851 1.04426
 C2829 C 0.21108 0.12005 1.03871
 C2830 C 0.20666 0.10792 1.04298
 C2831 C 0.23024 0.17686 1.02017
 C2832 C 0.23405 0.18936 1.01641
 H2833 H 0.22518 0.14828 1.00199
 H2834 H 0.24012 0.12949 1.02325
 H2835 H 0.19728 0.14173 1.01636
 H2836 H 0.20151 0.16722 1.03538
 H2837 H 0.24435 0.15500 1.04226
 H2838 H 0.21646 0.14846 1.05662
 C2839 C 0.22287 0.73624 0.60139
 C2840 C 0.20743 0.72874 0.60470
 C2841 C 0.21549 0.71682 0.61436
 C2842 C 0.23085 0.72423 0.61129
 C2843 C 0.22472 0.72583 0.58765
 C2844 C 0.23278 0.71391 0.59731
 C2845 C 0.20936 0.71841 0.59074
 C2846 C 0.21734 0.70642 0.60062
 C2847 C 0.21024 0.71167 0.62916
 C2848 C 0.20581 0.70729 0.64124
 C2849 C 0.22972 0.73069 0.57268
 C2850 C 0.23366 0.73453 0.56026
 H2851 H 0.22520 0.74855 0.60154
 H2852 H 0.19694 0.73478 0.60791
 H2853 H 0.23962 0.72657 0.61991
 H2854 H 0.24326 0.70786 0.59410
 H2855 H 0.20058 0.71607 0.58212
 H2856 H 0.21501 0.69410 0.60046
 C2857 C 0.21599 0.21142 1.09158
 C2858 C 0.22669 0.20786 1.10492
 C2859 C 0.21636 0.21701 1.11540
 C2860 C 0.20559 0.22049 1.10228
 C2861 C 0.22502 0.22589 1.08845
 C2862 C 0.21469 0.23504 1.09892
 C2863 C 0.23580 0.22241 1.10156
 C2864 C 0.22539 0.23149 1.11228
 C2865 C 0.21142 0.21194 1.13032
 C2866 C 0.20723 0.20763 1.14251
 C2867 C 0.22973 0.23068 1.07336
 C2868 C 0.23346 0.23444 1.06085
 H2869 H 0.21218 0.20322 1.08291
 H2870 H 0.23158 0.19663 1.10755
 H2871 H 0.19311 0.21964 1.10273
 H2872 H 0.20980 0.24627 1.09629
 H2873 H 0.24828 0.22326 1.10110
 H2874 H 0.22919 0.23968 1.12096
 C2875 C 0.72310 0.53983 0.15553
 C2876 C 0.73219 0.53762 0.14079
 C2877 C 0.71772 0.53229 0.13289
 C2878 C 0.70856 0.53457 0.14742
 C2879 C 0.72641 0.52335 0.15981
 C2880 C 0.71193 0.51802 0.15191
 C2881 C 0.73559 0.52106 0.14529
 C2882 C 0.72102 0.51580 0.13715
 C2883 C 0.71267 0.53748 0.11805
 C2884 C 0.70831 0.54194 0.10597
 C2885 C 0.73103 0.51865 0.17495
 C2886 C 0.73457 0.51510 0.18758
 H2887 H 0.72401 0.54966 0.16325
 H2888 H 0.74047 0.54575 0.13604
 H2889 H 0.69740 0.54018 0.14814
 H2890 H 0.70366 0.50990 0.15666
 H2891 H 0.74675 0.51545 0.14459
 H2892 H 0.72011 0.50599 0.12942
 C2893 C 0.73515 1.02042 0.64608
 C2894 C 0.72026 1.01578 0.63815
 C2895 C 0.71769 1.03237 0.63377
 C2896 C 0.73249 1.03708 0.64145
 C2897 C 0.72626 1.02327 0.66067
 C2898 C 0.72368 1.03985 0.65628
 C2899 C 0.71146 1.01856 0.65299
 C2900 C 0.70882 1.03520 0.64838
 C2901 C 0.71270 1.03765 0.61894
 C2902 C 0.70839 1.04218 0.60687
 C2903 C 0.73081 1.01850 0.67582
 C2904 C 0.73430 1.01491 0.68845
 H2905 H 0.74603 1.01428 0.64531
 H2906 H 0.71880 1.00595 0.63052
 H2907 H 0.74108 1.04476 0.63655
 H2908 H 0.72514 1.04969 0.66390
 H2909 H 0.70287 1.01088 0.65790
 H2910 H 0.69794 1.04134 0.64917
 C2911 C 0.51724 0.23055 0.64708
 C2912 C 0.53316 0.23338 0.64044
 C2913 C 0.53364 0.21688 0.63511
 C2914 C 0.51780 0.21397 0.64151
 C2915 C 0.52456 0.22558 0.66197
 C2916 C 0.52504 0.20908 0.65664
 C2917 C 0.54039 0.22848 0.65558
 C2918 C 0.54094 0.21192 0.65002
 C2919 C 0.53881 0.21188 0.62024
 C2920 C 0.54318 0.20760 0.60811
 C2921 C 0.51965 0.23027 0.67703
 C2922 C 0.51580 0.23396 0.68953
 H2923 H 0.50744 0.23827 0.64604
 H2924 H 0.53657 0.24331 0.63361
 H2925 H 0.50858 0.20795 0.63555
 H2926 H 0.52164 0.19914 0.66347
 H2927 H 0.54962 0.23450 0.66153
 H2928 H 0.55074 0.20420 0.65107
 C2929 C 1.01666 0.23062 0.14538
 C2930 C 1.03238 0.23379 0.13842
 C2931 C 1.03335 0.21717 0.13355
 C2932 C 1.01771 0.21391 0.14026
 C2933 C 1.02436 0.22633 0.16029
 C2934 C 1.02533 0.20971 0.15541
 C2935 C 1.03999 0.22958 0.15358
 C2936 C 1.04102 0.21289 0.14848
 C2937 C 1.03856 0.21184 0.11881
 C2938 C 1.04305 0.20724 0.10684
 C2939 C 1.01960 0.23113 0.17536
 C2940 C 1.01598 0.23476 0.18795
 H2941 H 1.00659 0.23797 0.14428
 H2942 H 1.03534 0.24363 0.13126
 H2943 H 1.00861 0.20740 0.13462
 H2944 H 1.02238 0.19986 0.16256
 H2945 H 1.04909 0.23608 0.15921
 H2946 H 1.05110 0.20555 0.14960
 C2947 C 0.59149 0.22082 0.70935
 C2948 C 0.60619 0.23013 0.71095
 C2949 C 0.61431 0.21590 0.71660
 C2950 C 0.59983 0.20652 0.71492
 C2951 C 0.58751 0.22466 0.72578
 C2952 C 0.59564 0.21043 0.73142
 C2953 C 0.60199 0.23405 0.72746
 C2954 C 0.61035 0.21973 0.73303
 C2955 C 0.62914 0.21088 0.71136
 C2956 C 0.64125 0.20661 0.70691
 C2957 C 0.57249 0.22940 0.73071
 C2958 C 0.56002 0.23316 0.73454
 H2959 H 0.58356 0.22131 0.69967
 H2960 H 0.61069 0.23817 0.70248
 H2961 H 0.59910 0.19514 0.70971
 H2962 H 0.59113 0.20238 0.73989
 H2963 H 0.60270 0.24542 0.73268
 H2964 H 0.61828 0.21923 0.74270
 C2965 C 1.09408 0.21004 0.22174
 C2966 C 1.10250 0.21636 0.20781
 C2967 C 1.11689 0.21768 0.21737
 C2968 C 1.10869 0.21129 0.23123
 C2969 C 1.08996 0.22625 0.22633
 C2970 C 1.10434 0.22758 0.23590
 C2971 C 1.09817 0.23264 0.21247
 C2972 C 1.11280 0.23389 0.22196
 C2973 C 1.13175 0.21270 0.21217
 C2974 C 1.14384 0.20840 0.20770
 C2975 C 1.07481 0.23080 0.23106
 C2976 C 1.06219 0.23429 0.23466
 H2977 H 1.08622 0.20028 0.22170
 H2978 H 1.10190 0.21169 0.19621
 H2979 H 1.11318 0.20246 0.23888
 H2980 H 1.10492 0.23225 0.24751
 H2981 H 1.09368 0.24147 0.20481
 H2982 H 1.12067 0.24365 0.22198
 C2983 C 0.15864 0.70971 0.53006
 C2984 C 0.14996 0.71637 0.54367
 C2985 C 0.13558 0.71680 0.53401
 C2986 C 0.14404 0.71006 0.52047
 C2987 C 0.16228 0.72582 0.52477
 C2988 C 0.14791 0.72626 0.51510
 C2989 C 0.15382 0.73255 0.53831
 C2990 C 0.13921 0.73292 0.52873
 C2991 C 0.12081 0.71164 0.53930
 C2992 C 0.10875 0.70725 0.54378
 C2993 C 0.17726 0.73069 0.51981
 C2994 C 0.18971 0.73453 0.51594
 H2995 H 0.16679 0.70022 0.53055
 H2996 H 0.15065 0.71224 0.55547
 H2997 H 0.13986 0.70075 0.51320
 H2998 H 0.14724 0.73038 0.50330
 H2999 H 0.15801 0.74186 0.54559
 H3000 H 0.13105 0.74240 0.52824
 C3001 C 0.15952 0.21298 1.03788
 C3002 C 0.14707 0.22333 1.04443
 C3003 C 0.13547 0.21544 1.03425
 C3004 C 0.14770 0.20501 1.02778
 C3005 C 0.16222 0.22457 1.02527
 C3006 C 0.15062 0.21668 1.01509
 C3007 C 0.15000 0.23500 1.03175
 C3008 C 0.13816 0.22703 1.02164
 C3009 C 0.12065 0.21025 1.03939
 C3010 C 0.10855 0.20589 1.04376
 C3011 C 0.17721 0.22952 1.02042
 C3012 C 0.18964 0.23344 1.01659
 H3013 H 0.16847 0.20726 1.04450
 H3014 H 0.14545 0.22601 1.05656
 H3015 H 0.14659 0.19263 1.02620
 H3016 H 0.15225 0.21400 1.00297
 H3017 H 0.15112 0.24738 1.03333
 H3018 H 0.12920 0.23274 1.01503
 C3019 C 0.65131 0.53635 0.23406
 C3020 C 0.64747 0.54299 0.21837
 C3021 C 0.63356 0.53267 0.21762
 C3022 C 0.63716 0.52610 0.23325
 C3023 C 0.66051 0.52387 0.22631
 C3024 C 0.64662 0.51354 0.22557
 C3025 C 0.65689 0.53045 0.21069
 C3026 C 0.64277 0.52020 0.20987
 C3027 C 0.61869 0.53777 0.21258
 C3028 C 0.60660 0.54216 0.20822
 C3029 C 0.67568 0.51923 0.23091
 C3030 C 0.68831 0.51569 0.23443
 H3031 H 0.65499 0.54293 0.24406
 H3032 H 0.64767 0.55515 0.21536
 H3033 H 0.62887 0.52437 0.24246
 H3034 H 0.64644 0.50138 0.22858
 H3035 H 0.66517 0.53219 0.20147
 H3036 H 0.63909 0.51362 0.19986
 C3037 C 0.65244 1.01876 0.71219
 C3038 C 0.63756 1.01658 0.72109
 C3039 C 0.63341 1.03309 0.71776
 C3040 C 0.64806 1.03534 0.70880
 C3041 C 0.66017 1.02403 0.72678
 C3042 C 0.65601 1.04053 0.72345
 C3043 C 0.64554 1.02177 0.73577
 C3044 C 0.64114 1.03836 0.73236
 C3045 C 0.61865 1.03833 0.71252
 C3046 C 0.60665 1.04282 0.70801
 C3047 C 0.67524 1.01923 0.73154
 C3048 C 0.68782 1.01558 0.73515
 H3049 H 0.65725 1.01065 0.70395
 H3050 H 0.62981 1.00679 0.72005
 H3051 H 0.64895 1.04097 0.69765
 H3052 H 0.66375 1.05033 0.72448
 H3053 H 0.64468 1.01614 0.74692
 H3054 H 0.63633 1.04648 0.74059
 C3055 C 0.85266 0.47720 0.26643
 C3056 C 0.86071 0.48261 0.28099
 C3057 C 0.86452 0.46612 0.28475
 C3058 C 0.85671 0.46062 0.27029
 C3059 C 0.83797 0.47547 0.27544
 C3060 C 0.84179 0.45898 0.27921
 C3061 C 0.84577 0.48096 0.28991
 C3062 C 0.84981 0.46440 0.29375
 C3063 C 0.87920 0.46075 0.29007
 C3064 C 0.89117 0.45619 0.29458
 C3065 C 0.82306 0.48049 0.27041
 C3066 C 0.81066 0.48439 0.26647
 H3067 H 0.85366 0.48252 0.25514
 H3068 H 0.86866 0.49226 0.28178
 H3069 H 0.86137 0.45219 0.26228
 H3070 H 0.83384 0.44932 0.27842
 H3071 H 0.84111 0.48939 0.29792
 H3072 H 0.84880 0.45908 0.30503
 C3073 C 0.84681 0.98256 0.78826
 C3074 C 0.85065 0.96675 0.79467
 C3075 C 0.86461 0.96621 0.78443
 C3076 C 0.86101 0.98195 0.77810
 C3077 C 0.83769 0.97498 0.77562
 C3078 C 0.85164 0.97444 0.76538
 C3079 C 0.84130 0.95924 0.78195
 C3080 C 0.85548 0.95863 0.77179
 C3081 C 0.87954 0.96122 0.78943
 C3082 C 0.89173 0.95698 0.79366
 C3083 C 0.82262 0.97973 0.77083
 C3084 C 0.81015 0.98350 0.76700
 H3085 H 0.84308 0.99245 0.79498
 H3086 H 0.85040 0.96353 0.80676
 H3087 H 0.86929 0.99123 0.77658
 H3088 H 0.85188 0.97766 0.75329
 H3089 H 0.83302 0.94996 0.78349
 H3090 H 0.85921 0.94874 0.76507
 C3091 C 0.40685 0.28580 0.78535
 C3092 C 0.39460 0.29229 0.77475
 C3093 C 0.38286 0.28213 0.78246
 C3094 C 0.39491 0.27571 0.79313
 C3095 C 0.40978 0.27312 0.77389
 C3096 C 0.39805 0.26295 0.78160
 C3097 C 0.39774 0.27954 0.76321
 C3098 C 0.38576 0.26945 0.77100
 C3099 C 0.36801 0.28735 0.78744
 C3100 C 0.35593 0.29183 0.79175
 C3101 C 0.42492 0.26838 0.76935
 C3102 C 0.43755 0.26479 0.76585
 H3103 H 0.41569 0.29248 0.79121
 H3104 H 0.39302 0.30441 0.77199
 H3105 H 0.39358 0.27420 0.80549
 H3106 H 0.39964 0.25083 0.78436
 H3107 H 0.39908 0.28105 0.75086
 H3108 H 0.37690 0.26278 0.76515
 C3109 C 0.90859 0.29059 0.27983
 C3110 C 0.89398 0.28965 0.27029
 C3111 C 0.88559 0.28349 0.28414
 C3112 C 0.89997 0.28451 0.29374
 C3113 C 0.91235 0.27428 0.27529
 C3114 C 0.90395 0.26812 0.28914
 C3115 C 0.89797 0.27326 0.26568
 C3116 C 0.88933 0.26717 0.27961
 C3117 C 0.87078 0.28876 0.28919
 C3118 C 0.85869 0.29323 0.29348
 C3119 C 0.92735 0.26934 0.27050
 C3120 C 0.93981 0.26549 0.26669
 H3121 H 0.91667 0.30017 0.27987
 H3122 H 0.88972 0.29857 0.26260
 H3123 H 0.90064 0.28920 0.30534
 H3124 H 0.90822 0.25921 0.29684
 H3125 H 0.89732 0.26857 0.25408
 H3126 H 0.88124 0.25760 0.27957
 C3127 C 0.35436 0.77253 0.48578
 C3128 C 0.36294 0.76649 0.47179
 C3129 C 0.36700 0.78279 0.46751
 C3130 C 0.35868 0.78892 0.48141
 C3131 C 0.34004 0.77394 0.47613
 C3132 C 0.34413 0.79024 0.47184
 C3133 C 0.34837 0.76782 0.46222
 C3134 C 0.35267 0.78419 0.45787
 C3135 C 0.38188 0.78795 0.46251
 C3136 C 0.39398 0.79239 0.45821
 C3137 C 0.32487 0.76929 0.48071
 C3138 C 0.31223 0.76577 0.48424
 H3139 H 0.35488 0.76767 0.49731
 H3140 H 0.37084 0.75678 0.47171
 H3141 H 0.36308 0.79765 0.48925
 H3142 H 0.33624 0.79996 0.47191
 H3143 H 0.34396 0.75909 0.45439
 H3144 H 0.35213 0.78905 0.44634
 C3145 C 0.35431 0.27121 0.98590
 C3146 C 0.36253 0.26581 0.97144
 C3147 C 0.36682 0.28226 0.96799
 C3148 C 0.35884 0.28774 0.98236
 C3149 C 0.33985 0.27339 0.97660
 C3150 C 0.34415 0.28984 0.97315
 C3151 C 0.34783 0.26792 0.96223
 C3152 C 0.35235 0.28443 0.95871
 C3153 C 0.38169 0.28741 0.96300
 C3154 C 0.39379 0.29185 0.95868
 C3155 C 0.32469 0.26871 0.98117
 C3156 C 0.31205 0.26517 0.98468
 H3157 H 0.35493 0.26571 0.99713
 H3158 H 0.37027 0.25599 0.97069
 H3159 H 0.36353 0.29595 0.99059
 H3160 H 0.33643 0.29967 0.97389
 H3161 H 0.34314 0.25971 0.95400
 H3162 H 0.35170 0.28993 0.94748
 C3163 C 0.77126 0.48246 0.35235
 C3164 C 0.76816 0.46670 0.35929
 C3165 C 0.78478 0.46579 0.36410
 C3166 C 0.78796 0.48146 0.35739
 C3167 C 0.77551 0.47479 0.33740
 C3168 C 0.79213 0.47387 0.34222
 C3169 C 0.77234 0.45912 0.34411
 C3170 C 0.78903 0.45813 0.34915
 C3171 C 0.79007 0.46066 0.37888
 C3172 C 0.79454 0.45631 0.39095
 C3173 C 0.77052 0.47968 0.32244
 C3174 C 0.76660 0.48355 0.31002
 H3175 H 0.76389 0.49252 0.35349
 H3176 H 0.75837 0.46370 0.36648
 H3177 H 0.79444 0.49059 0.36302
 H3178 H 0.80193 0.47687 0.33503
 H3179 H 0.76586 0.44999 0.33848
 H3180 H 0.79639 0.44806 0.34799
 C3181 C 0.78914 0.96729 0.84202
 C3182 C 0.79147 0.97792 0.85570
 C3183 C 0.78299 0.96656 0.86567
 C3184 C 0.78073 0.95587 0.85221
 C3185 C 0.77406 0.97516 0.83872
 C3186 C 0.76558 0.96381 0.84869
 C3187 C 0.77632 0.98587 0.85218
 C3188 C 0.76791 0.97443 0.86239
 C3189 C 0.78808 0.96164 0.88060
 C3190 C 0.79241 0.95745 0.89278
 C3191 C 0.76927 0.97983 0.82362
 C3192 C 0.76552 0.98355 0.81110
 H3193 H 0.79782 0.96441 0.83347
 H3194 H 0.80217 0.98367 0.85874
 H3195 H 0.78261 0.94348 0.85238
 H3196 H 0.75488 0.95806 0.84564
 H3197 H 0.77444 0.99826 0.85199
 H3198 H 0.75923 0.97731 0.87094
 C3199 C 0.26259 0.77792 0.39682
 C3200 C 0.27164 0.79250 0.39343
 C3201 C 0.28206 0.78336 0.38303
 C3202 C 0.27309 0.76885 0.38618
 C3203 C 0.27335 0.77456 0.40998
 C3204 C 0.28377 0.76541 0.39959
 C3205 C 0.28231 0.78906 0.40681
 C3206 C 0.29280 0.78000 0.39620
 C3207 C 0.28713 0.78846 0.36816
 C3208 C 0.29152 0.79283 0.35607
 C3209 C 0.26876 0.76990 0.42515
 C3210 C 0.26526 0.76634 0.43779
 H3211 H 0.25011 0.77700 0.39726
 H3212 H 0.26670 0.80369 0.39073
 H3213 H 0.26936 0.76060 0.37752
 H3214 H 0.28870 0.75422 0.40229
 H3215 H 0.28605 0.79732 0.41545
 H3216 H 0.30527 0.78091 0.39579
 C3217 C 0.26514 0.28618 0.90114
 C3218 C 0.28065 0.29328 0.89736
 C3219 C 0.28182 0.28284 0.88356
 C3220 C 0.26639 0.27581 0.88711
 C3221 C 0.27320 0.27406 0.91055
 C3222 C 0.27437 0.26361 0.89677
 C3223 C 0.28863 0.28110 0.90699
 C3224 C 0.28988 0.27073 0.89298
 C3225 C 0.28684 0.28793 0.86867
 C3226 C 0.29118 0.29229 0.85655
 C3227 C 0.26864 0.26941 0.92573
 C3228 C 0.26515 0.26585 0.93836
 H3229 H 0.25492 0.29247 0.90467
 H3230 H 0.28328 0.30553 0.89744
 H3231 H 0.25730 0.27369 0.87876
 H3232 H 0.27174 0.25135 0.89670
 H3233 H 0.29773 0.28322 0.91532
 H3234 H 0.30011 0.26443 0.88946
 C3235 C 0.48716 0.27541 0.85351
 C3236 C 0.47944 0.29068 0.85710
 C3237 C 0.46793 0.28231 0.86698
 C3238 C 0.47556 0.26710 0.86364
 C3239 C 0.47648 0.27340 0.84001
 C3240 C 0.46497 0.26502 0.84988
 C3241 C 0.46884 0.28860 0.84337
 C3242 C 0.45727 0.28029 0.85346
 C3243 C 0.46294 0.28747 0.88186
 C3244 C 0.45862 0.29190 0.89396
 C3245 C 0.48099 0.26870 0.82483
 C3246 C 0.48444 0.26513 0.81218
 H3247 H 0.49950 0.27334 0.85335
 H3248 H 0.48533 0.30129 0.86022
 H3249 H 0.47827 0.25832 0.87215
 H3250 H 0.45908 0.25441 0.84675
 H3251 H 0.46613 0.29738 0.83487
 H3252 H 0.44493 0.28236 0.85360
 C3253 C 0.96955 0.29146 0.34117
 C3254 C 0.95637 0.28451 0.35027
 C3255 C 0.96632 0.28473 0.36446
 C3256 C 0.97943 0.29177 0.35558
 C3257 C 0.97534 0.27548 0.33776
 C3258 C 0.98530 0.27570 0.35194
 C3259 C 0.96223 0.26844 0.34663
 C3260 C 0.97210 0.26874 0.36106
 C3261 C 0.96115 0.28999 0.37925
 C3262 C 0.95676 0.29441 0.39132
 C3263 C 0.98021 0.27047 0.32279
 C3264 C 0.98406 0.26652 0.31037
 H3265 H 0.96856 0.30075 0.33283
 H3266 H 0.94442 0.28819 0.34974
 H3267 H 0.98644 0.30142 0.35942
 H3268 H 0.99725 0.27202 0.35245
 H3269 H 0.95521 0.25880 0.34279
 H3270 H 0.97309 0.25946 0.36940
 C3271 C 0.48582 0.35212 0.77884
 C3272 C 0.47641 0.36337 0.76931
 C3273 C 0.46617 0.36610 0.78301
 C3274 C 0.47549 0.35510 0.79262
 C3275 C 0.47521 0.33933 0.77390
 C3276 C 0.46497 0.34209 0.78760
 C3277 C 0.46588 0.35032 0.76428
 C3278 C 0.45557 0.35329 0.77807
 C3279 C 0.46094 0.38085 0.78831
 C3280 C 0.45645 0.39284 0.79290
 C3281 C 0.47999 0.32425 0.76911
 C3282 C 0.48364 0.31167 0.76548
 H3283 H 0.49831 0.35147 0.77910
 H3284 H 0.48105 0.37229 0.76185
 H3285 H 0.47939 0.35723 0.80433
 H3286 H 0.46031 0.33318 0.79507
 H3287 H 0.46198 0.34818 0.75258
 H3288 H 0.44307 0.35393 0.77781
 C3289 C 0.95893 0.34392 0.27283
 C3290 C 0.95891 0.34928 0.28945
 C3291 C 0.96570 0.36442 0.28440
 C3292 C 0.96565 0.35928 0.26784
 C3293 C 0.97499 0.33782 0.27504
 C3294 C 0.98180 0.35295 0.26997
 C3295 C 0.97504 0.34297 0.29159
 C3296 C 0.98177 0.35832 0.28661
 C3297 C 0.96040 0.37912 0.28976
 C3298 C 0.95590 0.39112 0.29432
 C3299 C 0.98000 0.32290 0.27001
 C3300 C 0.98392 0.31048 0.26610
 H3301 H 0.94960 0.33783 0.26711
 H3302 H 0.94944 0.34793 0.29752
 H3303 H 0.96173 0.36615 0.25814
 H3304 H 0.99127 0.35428 0.26190
 H3305 H 0.97895 0.33610 0.30129
 H3306 H 0.99110 0.36441 0.29233
 C3307 C 0.26604 0.85025 0.46461
 C3308 C 0.26892 0.86408 0.47496
 C3309 C 0.28382 0.86698 0.46660
 C3310 C 0.28101 0.85340 0.45618
 C3311 C 0.27468 0.84028 0.47584
 C3312 C 0.28957 0.84321 0.46748
 C3313 C 0.27749 0.85385 0.48627
 C3314 C 0.29246 0.85700 0.47782
 C3315 C 0.28912 0.88169 0.46123
 C3316 C 0.29368 0.89364 0.45661
 C3317 C 0.26986 0.82524 0.48071
 C3318 C 0.26619 0.81267 0.48441
 H3319 H 0.25512 0.84731 0.45924
 H3320 H 0.26049 0.87283 0.47797
 H3321 H 0.28251 0.85336 0.44376
 H3322 H 0.29801 0.83447 0.46446
 H3323 H 0.27598 0.85386 0.49870
 H3324 H 0.30338 0.85993 0.48319
 C3325 C 0.28823 0.34795 0.98287
 C3326 C 0.29267 0.35199 0.96648
 C3327 C 0.28326 0.36650 0.96770
 C3328 C 0.27890 0.36269 0.98403
 C3329 C 0.27421 0.33974 0.97684
 C3330 C 0.26478 0.35423 0.97807
 C3331 C 0.27858 0.34357 0.96052
 C3332 C 0.26924 0.35829 0.96166
 C3333 C 0.28851 0.38124 0.96237
 C3334 C 0.29303 0.39322 0.95776
 C3335 C 0.26943 0.32466 0.98162
 C3336 C 0.26578 0.31206 0.98521
 H3337 H 0.29599 0.34353 0.99165
 H3338 H 0.30419 0.35123 0.96165
 H3339 H 0.27909 0.37073 0.99364
 H3340 H 0.25326 0.35498 0.98290
 H3341 H 0.27840 0.33555 0.95090
 H3342 H 0.26149 0.36270 0.95288
 C3343 C 0.78410 0.40073 0.26445
 C3344 C 0.79493 0.39780 0.27784
 C3345 C 0.78439 0.38519 0.28336
 C3346 C 0.77363 0.38788 0.27005
 C3347 C 0.77530 0.41195 0.27429
 C3348 C 0.76475 0.39935 0.27982
 C3349 C 0.78606 0.40925 0.28760
 C3350 C 0.77560 0.39642 0.29320
 C3351 C 0.78957 0.37038 0.28856
 C3352 C 0.79396 0.35829 0.29298
 C3353 C 0.77040 0.42697 0.26942
 C3354 C 0.76654 0.43943 0.26561
 H3355 H 0.78753 0.40267 0.25257
 H3356 H 0.80740 0.39700 0.27708
 H3357 H 0.76857 0.37892 0.26289
 H3358 H 0.75229 0.40016 0.28057
 H3359 H 0.79112 0.41820 0.29477
 H3360 H 0.77216 0.39450 0.30508
   
