data_POSCAR
  _audit_creation_date              2014-09-24
  _audit_creation_method            'ToBaCCo'
  _symmetry_space_group_name_H-M    'P1'
  _symmetry_Int_Tables_number       1
  _symmetry_cell_setting            triclinic
  loop_
  _symmetry_equiv_pos_as_xyz
 x,y,z
_cell_length_a 54.9712
_cell_length_b 54.4260
_cell_length_c 56.0496
_cell_angle_alpha 90.980000
_cell_angle_beta 91.515600
_cell_angle_gamma 90.075300
loop_
  _atom_site_label
  _atom_site_type_symbol
  _atom_site_fract_x
  _atom_site_fract_y
  _atom_site_fract_z
C1 C 0.72540 0.66813 0.97531
 H2 H 0.74201 0.66960 0.96550
 C3 C 0.70536 0.68262 0.96897
 H4 H 0.70707 0.69571 0.95478
 C5 C 0.70264 0.64831 1.00469
 H6 H 0.70131 0.63435 1.01806
 C7 C 0.68213 0.66230 0.99883
 H8 H 0.66532 0.65880 1.00781
 N9 N 0.72359 0.65101 0.99258
 C10 C 0.79671 0.62746 1.01502
 H11 H 0.79292 0.60811 1.01687
 C12 C 0.81952 0.63666 1.02207
 H13 H 0.83327 0.62405 1.02861
 C14 C 0.78313 0.66728 1.00484
 H15 H 0.76882 0.67926 0.99851
 C16 C 0.80575 0.67730 1.01175
 H17 H 0.80851 0.69695 1.01072
 Zn18 Zn 0.74896 0.62757 0.99706
 N19 N 0.77913 0.64266 1.00627
 C20 C 0.77187 0.59416 0.96536
 N21 N 0.75252 0.60945 0.96800
 C22 C 0.73594 0.61256 0.94984
 C23 C 0.73924 0.60124 0.92763
 C24 C 0.77585 0.58245 0.94345
 C25 C 0.74156 0.61503 1.04430
 C26 C 0.73385 0.60074 1.06309
 C27 C 0.72399 0.56817 1.03467
 C28 C 0.73213 0.58310 1.01648
 N29 N 0.74029 0.60618 1.02155
 H30 H 0.78462 0.59146 0.98000
 H31 H 0.72020 0.62406 0.95238
 H32 H 0.72606 0.60432 0.91330
 H33 H 0.79195 0.57124 0.94145
 H34 H 0.74796 0.63359 1.04776
 H35 H 0.73399 0.60956 1.08049
 H36 H 0.71837 0.54976 1.02957
 H37 H 0.73153 0.57638 0.99820
 C38 C 0.82434 0.66190 1.02050
 C39 C 0.68309 0.67928 0.98029
 C40 C 0.72420 0.57685 1.05870
 C41 C 0.75970 0.58637 0.92407
 C42 C 0.72281 0.34206 0.51531
 H43 H 0.73937 0.34508 0.52581
 C44 C 0.70386 0.32828 0.52454
 H45 H 0.70599 0.32096 0.54231
 C46 C 0.69946 0.34936 0.48003
 H47 H 0.69755 0.35791 0.46287
 C48 C 0.68024 0.33548 0.48841
 H49 H 0.66402 0.33315 0.47721
 N50 N 0.72020 0.35250 0.49353
 C51 C 0.78981 0.36847 0.46203
 H52 H 0.78742 0.38798 0.45943
 C53 C 0.81053 0.35677 0.45375
 H54 H 0.82418 0.36756 0.44509
 C55 C 0.77485 0.33098 0.47684
 H56 H 0.76073 0.32105 0.48567
 C57 C 0.79536 0.31845 0.46873
 H58 H 0.79679 0.29883 0.47126
 Zn59 Zn 0.74500 0.37362 0.48297
 N60 N 0.77256 0.35557 0.47342
 C61 C 0.77768 0.39762 0.51536
 N62 N 0.75388 0.39565 0.50830
 C63 C 0.73629 0.40846 0.51976
 C64 C 0.74245 0.42423 0.53896
 C65 C 0.78464 0.41331 0.53421
 C66 C 0.73150 0.37772 0.43518
 C67 C 0.72214 0.38851 0.41454
 C68 C 0.71771 0.42665 0.43669
 C69 C 0.72727 0.41510 0.45697
 N70 N 0.73344 0.39090 0.45595
 H71 H 0.79138 0.38685 0.50660
 H72 H 0.71744 0.40625 0.51407
 H73 H 0.72828 0.43434 0.54791
 H74 H 0.80366 0.41439 0.53969
 H75 H 0.73687 0.35861 0.43479
 H76 H 0.72064 0.37759 0.39824
 H77 H 0.71210 0.44567 0.43799
 H78 H 0.72928 0.42535 0.47358
 C79 C 0.81346 0.33138 0.45686
 C80 C 0.68203 0.32507 0.51115
 C81 C 0.71466 0.41317 0.41521
 C82 C 0.76695 0.42687 0.54627
 C83 C 0.22243 -0.13972 0.02416
 H84 H 0.23945 -0.14097 0.03421
 C85 C 0.20192 -0.15238 0.03171
 H86 H 0.20331 -0.16337 0.04760
 C87 C 0.19963 -0.12289 -0.00807
 H88 H 0.19858 -0.11097 -0.02325
 C89 C 0.17869 -0.13505 -0.00106
 H90 H 0.16189 -0.13275 -0.01131
 N91 N 0.22098 -0.12543 0.00450
 C92 C 0.29526 -0.11484 -0.01971
 H93 H 0.29466 -0.09512 -0.02176
 C94 C 0.31587 -0.12791 -0.02639
 H95 H 0.33095 -0.11806 -0.03381
 C96 C 0.27566 -0.15154 -0.00860
 H97 H 0.25981 -0.16071 -0.00201
 C98 C 0.29597 -0.16538 -0.01507
 H99 H 0.29565 -0.18511 -0.01297
 Zn100 Zn 0.24850 -0.10664 -0.00400
 N101 N 0.27573 -0.12670 -0.01091
 C102 C 0.27863 -0.08623 0.03286
 N103 N 0.25630 -0.08491 0.02195
 C104 C 0.23888 -0.06955 0.03042
 C105 C 0.24368 -0.05473 0.05068
 C106 C 0.28423 -0.07169 0.05297
 C107 C 0.23725 -0.10366 -0.05213
 C108 C 0.23172 -0.09308 -0.07407
 C109 C 0.23497 -0.05309 -0.05499
 C110 C 0.24041 -0.06459 -0.03336
 N111 N 0.24113 -0.08945 -0.03230
 H112 H 0.29202 -0.09902 0.02639
 H113 H 0.22111 -0.06914 0.02166
 H114 H 0.22960 -0.04269 0.05726
 H115 H 0.30195 -0.07352 0.06166
 H116 H 0.23802 -0.12346 -0.05076
 H117 H 0.22740 -0.10569 -0.08863
 H118 H 0.23565 -0.03327 -0.05476
 H119 H 0.24428 -0.05359 -0.01747
 C120 C 0.31643 -0.15356 -0.02420
 C121 C 0.17962 -0.14993 0.01914
 C122 C 0.23024 -0.06719 -0.07620
 C123 C 0.26663 -0.05574 0.06225
 C124 C 0.23179 0.18112 0.46743
 H125 H 0.24989 0.18050 0.46032
 C126 C 0.21413 0.19627 0.45708
 H127 H 0.21898 0.20761 0.44226
 C128 C 0.20355 0.16669 0.49518
 H129 H 0.19928 0.15462 0.50958
 C130 C 0.18526 0.18139 0.48523
 H131 H 0.16710 0.18032 0.49214
 N132 N 0.22628 0.16677 0.48616
 C133 C 0.29619 0.14801 0.51935
 H134 H 0.29377 0.12832 0.52022
 C135 C 0.31734 0.15890 0.52888
 H136 H 0.33127 0.14738 0.53686
 C137 C 0.28083 0.18684 0.50784
 H138 H 0.26634 0.19771 0.50009
 C139 C 0.30181 0.19851 0.51709
 H140 H 0.30329 0.21832 0.51632
 Zn141 Zn 0.25035 0.14485 0.49773
 N142 N 0.27852 0.16198 0.50897
 C143 C 0.28108 0.12327 0.46353
 N144 N 0.25813 0.12337 0.47202
 C145 C 0.24006 0.10983 0.46111
 C146 C 0.24476 0.09556 0.44073
 C147 C 0.28653 0.10935 0.44325
 C148 C 0.23333 0.14121 0.54368
 C149 C 0.22469 0.13009 0.56402
 C150 C 0.22758 0.09067 0.54381
 C151 C 0.23611 0.10260 0.52376
 N152 N 0.23854 0.12747 0.52399
 H153 H 0.29510 0.13450 0.47206
 H154 H 0.22185 0.11059 0.46794
 H155 H 0.23005 0.08536 0.43196
 H156 H 0.30492 0.10962 0.43680
 H157 H 0.23570 0.16094 0.54343
 H158 H 0.22003 0.14151 0.57921
 H159 H 0.22590 0.07085 0.54338
 H160 H 0.24090 0.09197 0.50813
 C161 C 0.32033 0.18448 0.52791
 C162 C 0.19035 0.19627 0.46574
 C163 C 0.22163 0.10447 0.56429
 C164 C 0.26820 0.09551 0.43135
 C165 C 0.18045 0.47746 0.22844
 H166 H 0.18360 0.47074 0.24631
 C167 C 0.19234 0.46653 0.20929
 H168 H 0.20509 0.45179 0.21271
 C169 C 0.15933 0.50430 0.20232
 H170 H 0.14582 0.51844 0.19956
 C171 C 0.17065 0.49377 0.18264
 H172 H 0.16565 0.50003 0.16495
 N173 N 0.16415 0.49582 0.22463
 C174 C 0.15237 0.52919 0.29474
 H175 H 0.13268 0.52884 0.29441
 C176 C 0.16506 0.53842 0.31479
 H177 H 0.15504 0.54537 0.32985
 C178 C 0.18929 0.52071 0.27532
 H179 H 0.19863 0.51384 0.25986
 C180 C 0.20276 0.53011 0.29496
 H181 H 0.22244 0.53019 0.29459
 Zn182 Zn 0.14515 0.50640 0.25045
 N183 N 0.16456 0.51998 0.27579
 C184 C 0.13106 0.47106 0.28397
 N185 N 0.12840 0.47829 0.26096
 C186 C 0.11542 0.46454 0.24459
 C187 C 0.10452 0.44251 0.25117
 C188 C 0.12028 0.44940 0.29136
 C189 C 0.13333 0.55295 0.23462
 C190 C 0.11867 0.57219 0.22669
 C191 C 0.08340 0.54623 0.23094
 C192 C 0.09877 0.52748 0.23897
 N193 N 0.12326 0.53107 0.24033
 H194 H 0.14189 0.48177 0.29666
 H195 H 0.11402 0.47043 0.22627
 H196 H 0.09478 0.43155 0.23775
 H197 H 0.12237 0.44431 0.30988
 H198 H 0.15286 0.55530 0.23600
 H199 H 0.12712 0.58926 0.22167
 H200 H 0.06395 0.54309 0.22977
 H201 H 0.09113 0.51006 0.24396
 C202 C 0.19058 0.53870 0.31516
 C203 C 0.18706 0.47427 0.18591
 C204 C 0.09337 0.56891 0.22458
 C205 C 0.10705 0.43458 0.27483
 C206 C -0.16365 0.00899 0.24114
 H207 H -0.16774 0.01690 0.25841
 C208 C -0.17620 0.01708 0.22067
 H209 H -0.18979 0.03124 0.22281
 C210 C -0.13914 -0.01713 0.21772
 H211 H -0.12427 -0.02997 0.21641
 C212 C -0.15075 -0.00920 0.19684
 H213 H -0.14515 -0.01722 0.18007
 N214 N -0.14535 -0.00766 0.23930
 C215 C -0.12697 -0.03309 0.31147
 H216 H -0.10739 -0.03169 0.31048
 C217 C -0.13735 -0.04228 0.33194
 H218 H -0.12555 -0.04820 0.34650
 C219 C -0.16590 -0.02789 0.29313
 H220 H -0.17692 -0.02253 0.27786
 C221 C -0.17708 -0.03694 0.31333
 H222 H -0.19674 -0.03803 0.31350
 Zn223 Zn -0.12450 -0.01418 0.26602
 N224 N -0.14125 -0.02594 0.29267
 C225 C -0.11059 0.02599 0.29619
 N226 N -0.10863 0.01574 0.27403
 C227 C -0.09698 0.02761 0.25647
 C228 C -0.08655 0.05070 0.26094
 C229 C -0.10034 0.04896 0.30146
 C230 C -0.11167 -0.06134 0.25252
 C231 C -0.09726 -0.08020 0.24357
 C232 C -0.06266 -0.05273 0.24579
 C233 C -0.07782 -0.03429 0.25473
 N234 N -0.10198 -0.03875 0.25725
 H235 H -0.12055 0.01666 0.30970
 H236 H -0.09611 0.01924 0.23887
 H237 H -0.07723 0.05985 0.24680
 H238 H -0.10244 0.05699 0.31909
 H239 H -0.13089 -0.06440 0.25496
 H240 H -0.10548 -0.09790 0.23941
 H241 H -0.04369 -0.04867 0.24289
 H242 H -0.07042 -0.01629 0.25893
 C243 C -0.16275 -0.04428 0.33313
 C244 C -0.16919 0.00874 0.19786
 C245 C -0.07255 -0.07583 0.23950
 C246 C -0.08820 0.06166 0.28370
 C247 C 0.33762 0.51694 0.73353
 H248 H 0.33662 0.52709 0.75024
 C249 C 0.32462 0.52503 0.71338
 H250 H 0.31368 0.54150 0.71473
 C251 C 0.35448 0.48415 0.71111
 H252 H 0.36661 0.46862 0.71003
 C253 C 0.34181 0.49155 0.69059
 H254 H 0.34398 0.48123 0.67410
 N255 N 0.35235 0.49695 0.73200
 C256 C 0.36735 0.47055 0.80382
 H257 H 0.38694 0.46934 0.80289
 C258 C 0.35580 0.46338 0.82439
 H259 H 0.36665 0.45632 0.83915
 C260 C 0.32951 0.48073 0.78530
 H261 H 0.31939 0.48744 0.76997
 C262 C 0.31716 0.47369 0.80560
 H263 H 0.29754 0.47530 0.80581
 Zn264 Zn 0.37251 0.48894 0.75866
 N265 N 0.35419 0.47932 0.78495
 C266 C 0.38829 0.52761 0.78928
 N267 N 0.39097 0.51732 0.76723
 C268 C 0.40503 0.52818 0.75077
 C269 C 0.41704 0.55035 0.75628
 C270 C 0.39990 0.54964 0.79550
 C271 C 0.38089 0.44018 0.74698
 C272 C 0.39388 0.41921 0.74065
 C273 C 0.43090 0.44322 0.74311
 C274 C 0.41714 0.46381 0.74942
 N275 N 0.39255 0.46198 0.75082
 H276 H 0.37666 0.51914 0.80199
 H277 H 0.40646 0.51990 0.73318
 H278 H 0.42774 0.55904 0.74284
 H279 H 0.39750 0.55743 0.81319
 H280 H 0.36133 0.43925 0.74846
 H281 H 0.38408 0.40225 0.73693
 H282 H 0.45046 0.44497 0.74196
 H283 H 0.42610 0.48121 0.75305
 C284 C 0.33040 0.46507 0.82556
 C285 C 0.32701 0.51252 0.69143
 C286 C 0.41922 0.42058 0.73844
 C287 C 0.41423 0.56149 0.77883
 C288 C 0.67480 0.96123 0.72999
 H289 H 0.67812 0.95245 0.74693
 C290 C 0.68716 0.95322 0.70975
 H291 H 0.70011 0.93831 0.71121
 C292 C 0.65277 0.99025 0.70696
 H293 H 0.63880 1.00412 0.70563
 C294 C 0.66441 0.98263 0.68637
 H295 H 0.65967 0.99114 0.66955
 N296 N 0.65798 0.97949 0.72823
 C297 C 0.64138 1.00286 0.80070
 H298 H 0.62196 1.00418 0.79729
 C299 C 0.65095 1.00825 0.82335
 H300 H 0.63841 1.01462 0.83663
 C301 C 0.68060 0.99447 0.78624
 H302 H 0.69199 0.98906 0.77165
 C303 C 0.69113 0.99994 0.80880
 H304 H 0.71061 0.99795 0.81109
 Zn305 Zn 0.63828 0.98833 0.75428
 N306 N 0.65606 0.99573 0.78282
 C307 C 0.62279 0.94790 0.77960
 N308 N 0.61729 0.96146 0.76003
 C309 C 0.59888 0.95467 0.74452
 C310 C 0.58471 0.93386 0.74895
 C311 C 0.60948 0.92691 0.78443
 C312 C 0.63684 1.03693 0.74352
 C313 C 0.62785 1.05919 0.73530
 C314 C 0.58729 1.04197 0.73492
 C315 C 0.59713 1.01986 0.74317
 N316 N 0.62162 1.01759 0.74652
 H317 H 0.63801 0.95291 0.79125
 H318 H 0.59539 0.96518 0.72860
 H319 H 0.57013 0.92853 0.73655
 H320 H 0.61425 0.91631 0.80005
 H321 H 0.65620 1.03466 0.74665
 H322 H 0.64040 1.07413 0.73239
 H323 H 0.56790 1.04328 0.73127
 H324 H 0.58528 1.00445 0.74622
 C325 C 0.67624 1.00661 0.82809
 C326 C 0.68161 0.96371 0.68754
 C327 C 0.60289 1.06170 0.73024
 C328 C 0.59025 0.91965 0.76901
 C329 C 0.00578 0.24167 -0.15942
 H330 H 0.01213 0.26043 -0.15735
 C331 C 0.01790 0.22533 -0.17441
 H332 H 0.03324 0.23189 -0.18422
 C333 C -0.02164 0.21041 -0.14862
 H334 H -0.03655 0.20446 -0.13795
 C335 C -0.00990 0.19336 -0.16325
 H336 H -0.01603 0.17444 -0.16363
 N337 N -0.01357 0.23402 -0.14688
 C338 C -0.04828 0.30284 -0.12527
 H339 H -0.04937 0.29996 -0.10628
 C340 C -0.05693 0.32466 -0.13509
 H341 H -0.06489 0.33845 -0.12354
 C342 C -0.03711 0.28799 -0.16342
 H343 H -0.02964 0.27357 -0.17446
 C344 C -0.04566 0.30949 -0.17400
 H345 H -0.04425 0.31153 -0.19310
 Zn346 Zn -0.02642 0.25651 -0.12439
 N347 N -0.03822 0.28524 -0.13940
 C348 C 0.00730 0.28787 -0.09925
 N349 N -0.00052 0.26433 -0.10265
 C350 C 0.01124 0.24526 -0.09205
 C351 C 0.03188 0.24949 -0.07749
 C352 C 0.02770 0.29295 -0.08464
 C353 C -0.07254 0.23532 -0.12156
 C354 C -0.09260 0.22500 -0.11071
 C355 C -0.07158 0.22995 -0.07259
 C356 C -0.05189 0.24001 -0.08429
 N357 N -0.05261 0.24228 -0.10835
 H358 H -0.00180 0.30273 -0.10834
 H359 H 0.00483 0.22668 -0.09536
 H360 H 0.04118 0.23409 -0.06937
 H361 H 0.03401 0.31174 -0.08259
 H362 H -0.07267 0.23749 -0.14072
 H363 H -0.10714 0.21861 -0.12256
 H364 H -0.07014 0.22984 -0.05337
 H365 H -0.03616 0.24642 -0.07400
 C366 C -0.05557 0.32825 -0.15976
 C367 C 0.01040 0.20065 -0.17614
 C368 C -0.09274 0.22192 -0.08560
 C369 C 0.04042 0.27359 -0.07377
 C370 C 0.46473 0.21858 0.14739
 H371 H 0.45354 0.23482 0.14767
 C372 C 0.45765 0.19807 0.16011
 H373 H 0.44112 0.19893 0.17016
 C374 C 0.49979 0.19774 0.13420
 H375 H 0.51627 0.19758 0.12416
 C376 C 0.49334 0.17675 0.14661
 H377 H 0.50470 0.16056 0.14547
 N378 N 0.48502 0.21781 0.13402
 C379 C 0.49678 0.29481 0.11769
 H380 H 0.49261 0.29406 0.09872
 C381 C 0.50222 0.31728 0.12890
 H382 H 0.50248 0.33375 0.11835
 C383 C 0.50244 0.27391 0.15419
 H384 H 0.50265 0.25687 0.16384
 C385 C 0.50815 0.29603 0.16613
 H386 H 0.51255 0.29591 0.18507
 Zn387 Zn 0.49084 0.24424 0.11295
 N388 N 0.49722 0.27372 0.13034
 C389 C 0.44421 0.26148 0.10588
 N390 N 0.46212 0.24949 0.09417
 C391 C 0.45888 0.24211 0.07095
 C392 C 0.43652 0.24605 0.05896
 C393 C 0.42174 0.26561 0.09474
 C394 C 0.53842 0.25113 0.09700
 C395 C 0.56043 0.24396 0.08727
 C396 C 0.54060 0.20761 0.07086
 C397 C 0.51881 0.21567 0.08068
 N398 N 0.51831 0.23667 0.09418
 H399 H 0.44743 0.26805 0.12399
 H400 H 0.47345 0.23299 0.06176
 H401 H 0.43398 0.23980 0.04062
 H402 H 0.40785 0.27529 0.10450
 H403 H 0.53786 0.26771 0.10781
 H404 H 0.57628 0.25555 0.09024
 H405 H 0.54093 0.19004 0.06155
 H406 H 0.50272 0.20424 0.07897
 C407 C 0.50828 0.31807 0.15338
 C408 C 0.47158 0.17648 0.15916
 C409 C 0.56199 0.22147 0.07477
 C410 C 0.41750 0.25757 0.07111
 C411 C 0.98614 0.72756 0.67715
 H412 H 0.97838 0.74581 0.67771
 C413 C 0.97434 0.70819 0.68812
 H414 H 0.95782 0.71189 0.69763
 C415 C 1.01661 0.70054 0.66325
 H416 H 1.03257 0.69742 0.65280
 C417 C 1.00533 0.68063 0.67381
 H418 H 1.01289 0.66244 0.67134
 N419 N 1.00677 0.72341 0.66487
 C420 C 1.04020 0.79479 0.65336
 H421 H 1.04378 0.79213 0.63461
 C422 C 1.04680 0.81676 0.66485
 H423 H 1.05582 0.83081 0.65485
 C424 C 1.02427 0.77943 0.68906
 H425 H 1.01547 0.76481 0.69837
 C426 C 1.03063 0.80125 0.70134
 H427 H 1.02641 0.80333 0.72002
 Zn428 Zn 1.01915 0.74920 0.64646
 N429 N 1.02867 0.77690 0.66536
 C430 C 0.98562 0.78177 0.62462
 N431 N 0.99394 0.75825 0.62466
 C432 C 0.98318 0.74049 0.61062
 C433 C 0.96293 0.74603 0.59606
 C434 C 0.96559 0.78812 0.61030
 C435 C 1.06694 0.73274 0.64362
 C436 C 1.08831 0.72529 0.63276
 C437 C 1.06829 0.73049 0.59427
 C438 C 1.04727 0.73781 0.60588
 N439 N 1.04693 0.73856 0.63013
 H440 H 0.99404 0.79558 0.63615
 H441 H 0.98992 0.72184 0.61128
 H442 H 0.95409 0.73150 0.58563
 H443 H 0.95924 0.80694 0.61065
 H444 H 1.06620 0.73380 0.66288
 H445 H 1.10388 0.72023 0.64384
 H446 H 1.06831 0.73021 0.57495
 H447 H 1.03134 0.74309 0.59550
 C448 C 1.04165 0.82043 0.68905
 C449 C 0.98363 0.68421 0.68609
 C450 C 1.08917 0.72403 0.60775
 C451 C 0.95363 0.77006 0.59613
 C452 C 0.52266 0.72530 0.33442
 H453 H 0.53263 0.74210 0.33156
 C454 C 0.52813 0.70401 0.32131
 H455 H 0.54237 0.70460 0.30834
 C456 C 0.49326 0.70370 0.35607
 H457 H 0.48026 0.70332 0.37015
 C458 C 0.49816 0.68206 0.34343
 H459 H 0.48833 0.66547 0.34755
 N460 N 0.50563 0.72472 0.35157
 C461 C 0.48777 0.80089 0.36951
 H462 H 0.49026 0.79965 0.38867
 C463 C 0.48051 0.82302 0.35949
 H464 H 0.47681 0.83819 0.37155
 C465 C 0.48833 0.78153 0.33143
 H466 H 0.49146 0.76526 0.32062
 C467 C 0.48075 0.80330 0.32057
 H468 H 0.47893 0.80329 0.30132
 Zn469 Zn 0.50203 0.75249 0.37204
 N470 N 0.49188 0.78084 0.35548
 C471 C 0.54451 0.77986 0.38298
 N472 N 0.53271 0.75846 0.38721
 C473 C 0.54326 0.74074 0.40084
 C474 C 0.56639 0.74450 0.41131
 C475 C 0.56759 0.78430 0.39294
 C476 C 0.45488 0.74290 0.38509
 C477 C 0.43588 0.73652 0.39973
 C478 C 0.46402 0.73804 0.43359
 C479 C 0.48256 0.74436 0.41823
 N480 N 0.47778 0.74603 0.39438
 H481 H 0.53627 0.79343 0.37153
 H482 H 0.53375 0.72362 0.40344
 H483 H 0.57461 0.73023 0.42204
 H484 H 0.57649 0.80162 0.38957
 H485 H 0.45159 0.74460 0.36607
 H486 H 0.41806 0.73299 0.39172
 H487 H 0.46816 0.73641 0.45249
 H488 H 0.50075 0.74758 0.42534
 C489 C 0.47685 0.82477 0.33455
 C490 C 0.51614 0.68189 0.32612
 C491 C 0.44038 0.73360 0.42430
 C492 C 0.57888 0.76650 0.40726
 C493 C 0.36468 0.00334 0.25403
 C494 C 0.12801 1.02350 0.74745
 C495 C 0.61817 0.50258 0.23334
 C496 C 0.85097 0.50779 0.73825
 C497 C 0.23510 0.36374 -0.00289
 C498 C 0.74697 0.10551 1.01582
 C499 C 0.26540 0.62518 0.50904
 C500 C 0.76000 0.85153 0.51267
 C501 C 0.00191 0.25784 0.36047
 C502 C 1.00903 0.75050 0.12264
 C503 C 0.51491 0.24538 0.63122
 C504 C 0.49431 0.75252 0.87625
 C505 C 0.47396 -0.12992 0.33574
 C506 C 0.46503 -0.10799 0.32639
 C507 C 0.45065 -0.10811 0.30544
 C508 C 0.44654 -0.13052 0.29315
 C509 C 0.45567 -0.15250 0.30231
 C510 C 0.46905 -0.15279 0.32419
 C511 C 0.43992 -0.08471 0.29710
 C512 C 0.41809 -0.08383 0.28595
 C513 C 0.40561 -0.06078 0.27909
 C514 C 0.38027 -0.06131 0.27600
 C515 C 0.36762 -0.04051 0.26864
 C516 C 0.37996 -0.01865 0.26313
 C517 C 0.40536 -0.01776 0.26755
 C518 C 0.41807 -0.03868 0.27510
 H519 H 0.48523 -0.12863 0.35183
 H520 H 0.46892 -0.09087 0.33591
 H521 H 0.43610 -0.13117 0.27651
 H522 H 0.45094 -0.16929 0.29269
 H523 H 0.44922 -0.06782 0.30226
 H524 H 0.40796 -0.10076 0.28304
 H525 H 0.37015 -0.07796 0.27929
 H526 H 0.34801 -0.04165 0.26649
 H527 H 0.41559 -0.00103 0.26536
 H528 H 0.43764 -0.03751 0.27737
 C529 C 0.93976 0.37418 0.84069
 C530 C 0.93105 0.39583 0.83046
 C531 C 0.91784 0.39513 0.80868
 C532 C 0.91317 0.37214 0.79752
 C533 C 0.92194 0.35053 0.80771
 C534 C 0.93534 0.35129 0.82939
 C535 C 0.90829 0.41849 0.79883
 C536 C 0.90156 0.42112 0.77584
 C537 C 0.88978 0.44351 0.76636
 C538 C 0.87350 0.44085 0.74690
 C539 C 0.86125 0.46111 0.73763
 C540 C 0.86572 0.48511 0.74683
 C541 C 0.88204 0.48752 0.76667
 C542 C 0.89406 0.46710 0.77617
 H543 H 0.95017 0.37536 0.85735
 H544 H 0.93472 0.41321 0.83956
 H545 H 0.90222 0.37052 0.78127
 H546 H 0.91776 0.33313 0.79887
 H547 H 0.90642 0.43384 0.81118
 H548 H 0.90347 0.40588 0.76340
 H549 H 0.86957 0.42279 0.73928
 H550 H 0.84773 0.45740 0.72372
 H551 H 0.88536 0.50539 0.77492
 H552 H 0.90675 0.46990 0.79105
 C553 C 0.05014 1.18388 0.80988
 C554 C 0.06374 1.16610 0.79799
 C555 C 0.05228 1.14612 0.78622
 C556 C 0.02670 1.14479 0.78576
 C557 C 0.01303 1.16274 0.79755
 C558 C 0.02462 1.18234 0.81000
 C559 C 0.06786 1.12711 0.77516
 C560 C 0.06110 1.10359 0.77162
 C561 C 0.07826 1.08408 0.76407
 C562 C 0.06907 1.06251 0.75310
 C563 C 0.08460 1.04307 0.74723
 C564 C 0.10974 1.04435 0.75304
 C565 C 0.11887 1.06659 0.76304
 C566 C 0.10342 1.08592 0.76886
 H567 H 0.05975 1.19844 0.81959
 H568 H 0.08341 1.16759 0.79860
 H569 H 0.01715 1.13010 0.77625
 H570 H -0.00662 1.16129 0.79687
 H571 H 0.08622 1.13261 0.77123
 H572 H 0.04268 1.09799 0.77515
 H573 H 0.04978 1.06073 0.74897
 H574 H 0.07670 1.02729 0.73800
 H575 H 0.13815 1.06867 0.76707
 H576 H 0.11133 1.10189 0.77780
 C577 C 0.52563 0.63691 0.32777
 C578 C 0.53363 0.61506 0.31720
 C579 C 0.53980 0.61419 0.29307
 C580 C 0.53685 0.63556 0.27944
 C581 C 0.52890 0.65748 0.29006
 C582 C 0.52343 0.65845 0.31439
 C583 C 0.54957 0.59085 0.28313
 C584 C 0.56368 0.58978 0.26398
 C585 C 0.57618 0.56715 0.25567
 C586 C 0.59671 0.56982 0.24169
 C587 C 0.60986 0.54937 0.23414
 C588 C 0.60239 0.52526 0.23951
 C589 C 0.58196 0.52277 0.25403
 C590 C 0.56877 0.54332 0.26163
 H591 H 0.52182 0.63709 0.34662
 H592 H 0.53560 0.59890 0.32810
 H593 H 0.54051 0.63551 0.26058
 H594 H 0.52692 0.67366 0.27920
 H595 H 0.54675 0.57444 0.29333
 H596 H 0.56813 0.60659 0.25503
 H597 H 0.60311 0.58795 0.23717
 H598 H 0.62638 0.55282 0.22471
 H599 H 0.57625 0.50478 0.25965
 H600 H 0.55288 0.54034 0.27217
 C601 C 0.50420 0.36373 0.15952
 C602 C 0.51298 0.38612 0.16890
 C603 C 0.53398 0.38684 0.18365
 C604 C 0.54521 0.36459 0.19003
 C605 C 0.53637 0.34222 0.18079
 C606 C 0.51607 0.34158 0.16505
 C607 C 0.54392 0.41091 0.19201
 C608 C 0.56792 0.41460 0.19520
 C609 C 0.57946 0.43780 0.20406
 C610 C 0.60412 0.43697 0.21084
 C611 C 0.61605 0.45783 0.21985
 C612 C 0.60364 0.48030 0.22291
 C613 C 0.57919 0.48150 0.21461
 C614 C 0.56716 0.46044 0.20559
 H615 H 0.48827 0.36375 0.14774
 H616 H 0.50379 0.40298 0.16405
 H617 H 0.56092 0.36439 0.20209
 H618 H 0.54593 0.32550 0.18535
 H619 H 0.53119 0.42575 0.19473
 H620 H 0.58013 0.39950 0.19141
 H621 H 0.61427 0.41998 0.20940
 H622 H 0.63512 0.45633 0.22497
 H623 H 0.56930 0.49863 0.21469
 H624 H 0.54842 0.46221 0.19955
 C625 C 0.05797 0.84553 0.72415
 C626 C 0.06533 0.86815 0.73428
 C627 C 0.06262 0.88988 0.72134
 C628 C 0.05098 0.88881 0.69871
 C629 C 0.04361 0.86632 0.68865
 C630 C 0.04758 0.84435 0.70096
 C631 C 0.07262 0.91330 0.73131
 C632 C 0.08239 0.93011 0.71718
 C633 C 0.09405 0.95320 0.72589
 C634 C 0.11198 0.96360 0.71196
 C635 C 0.12301 0.98579 0.71872
 C636 C 0.11560 0.99908 0.73918
 C637 C 0.09826 0.98785 0.75369
 C638 C 0.08741 0.96538 0.74702
 H639 H 0.06121 0.82891 0.73408
 H640 H 0.07400 0.86857 0.75187
 H641 H 0.04770 0.90534 0.68866
 H642 H 0.03493 0.86610 0.67107
 H643 H 0.07375 0.91574 0.75051
 H644 H 0.08337 0.92612 0.69822
 H645 H 0.11780 0.95429 0.69585
 H646 H 0.13764 0.99208 0.70787
 H647 H 0.09289 0.99674 0.77015
 H648 H 0.07356 0.95788 0.75818
 C649 C 0.98218 0.64247 0.70479
 C650 C 0.96921 0.62176 0.71174
 C651 C 0.94376 0.62083 0.70908
 C652 C 0.93145 0.64156 0.70017
 C653 C 0.94440 0.66219 0.69314
 C654 C 0.96993 0.66284 0.69512
 C655 C 0.93078 0.59821 0.71613
 C656 C 0.90817 0.59243 0.70830
 C657 C 0.89474 0.57047 0.71598
 C658 C 0.86932 0.57148 0.71605
 C659 C 0.85581 0.55137 0.72323
 C660 C 0.86725 0.52947 0.73070
 C661 C 0.89285 0.52811 0.72921
 C662 C 0.90642 0.54846 0.72228
 H663 H 1.00180 0.64252 0.70696
 H664 H 0.97915 0.60625 0.71891
 H665 H 0.91183 0.64218 0.69865
 H666 H 0.93435 0.67743 0.68561
 H667 H 0.94035 0.58591 0.72809
 H668 H 0.89845 0.60455 0.69632
 H669 H 0.85984 0.58804 0.71079
 H670 H 0.83617 0.55296 0.72329
 H671 H 0.90263 0.51136 0.73292
 H672 H 0.92597 0.54667 0.72128
 C673 C 0.47868 0.13711 0.18144
 C674 C 0.46989 0.11547 0.19135
 C675 C 0.44493 0.10998 0.19020
 C676 C 0.42903 0.12607 0.17816
 C677 C 0.43777 0.14758 0.16825
 C678 C 0.46264 0.15353 0.16999
 C679 C 0.43578 0.08747 0.20151
 C680 C 0.41376 0.08682 0.21119
 C681 C 0.40338 0.06519 0.22296
 C682 C 0.38472 0.06928 0.23901
 C683 C 0.37299 0.04970 0.24948
 C684 C 0.37982 0.02509 0.24468
 C685 C 0.39804 0.02112 0.22771
 C686 C 0.40997 0.04088 0.21730
 H687 H 0.49794 0.14115 0.18305
 H688 H 0.48253 0.10324 0.20033
 H689 H 0.40981 0.12194 0.17607
 H690 H 0.42504 0.15937 0.15885
 H691 H 0.44787 0.07185 0.20308
 H692 H 0.40298 0.10347 0.21155
 H693 H 0.37877 0.08781 0.24314
 H694 H 0.35787 0.05417 0.26070
 H695 H 0.40276 0.00263 0.22214
 H696 H 0.42359 0.03703 0.20416
 C697 C 0.32814 0.46318 -0.12988
 C698 C 0.31731 0.45474 -0.10930
 C699 C 0.29622 0.44023 -0.11093
 C700 C 0.28546 0.43531 -0.13361
 C701 C 0.29628 0.44378 -0.15420
 C702 C 0.31796 0.45746 -0.15258
 C703 C 0.28610 0.43058 -0.08870
 C704 C 0.27286 0.40990 -0.08822
 C705 C 0.26323 0.39940 -0.06617
 C706 C 0.24345 0.38325 -0.06834
 C707 C 0.23409 0.37217 -0.04831
 C708 C 0.24393 0.37728 -0.02518
 C709 C 0.26467 0.39259 -0.02335
 C710 C 0.27399 0.40378 -0.04345
 H711 H 0.34457 0.47413 -0.12805
 H712 H 0.32574 0.45911 -0.09206
 H713 H 0.26868 0.42499 -0.13560
 H714 H 0.28800 0.43911 -0.17143
 H715 H 0.29053 0.44045 -0.07223
 H716 H 0.26866 0.39999 -0.10472
 H717 H 0.23533 0.37891 -0.08573
 H718 H 0.21953 0.35904 -0.05135
 H719 H 0.27378 0.39579 -0.00621
 H720 H 0.29005 0.41516 -0.04115
 C721 C 0.80568 0.92969 0.35222
 C722 C 0.79560 0.91921 0.37228
 C723 C 0.80560 0.92389 0.39523
 C724 C 0.82561 0.93997 0.39776
 C725 C 0.83564 0.95056 0.37765
 C726 C 0.82594 0.94537 0.35462
 C727 C 0.79443 0.91154 0.41567
 C728 C 0.80530 0.90851 0.43720
 C729 C 0.79403 0.89380 0.45609
 C730 C 0.80001 0.89856 0.48022
 C731 C 0.78927 0.88493 0.49819
 C732 C 0.77166 0.86664 0.49258
 C733 C 0.76760 0.86067 0.46811
 C734 C 0.77832 0.87414 0.45029
 H735 H 0.79792 0.92502 0.33478
 H736 H 0.78016 0.90695 0.36978
 H737 H 0.83346 0.94467 0.41512
 H738 H 0.85093 0.96299 0.38017
 H739 H 0.77651 0.90376 0.41233
 H740 H 0.82290 0.91667 0.44127
 H741 H 0.81288 0.91295 0.48520
 H742 H 0.79443 0.88894 0.51663
 H743 H 0.75659 0.84515 0.46227
 H744 H 0.77471 0.86856 0.43192
 C745 C 0.83509 0.02091 1.15610
 C746 C 0.82619 0.03263 1.13573
 C747 C 0.80258 0.04213 1.13486
 C748 C 0.78792 0.03992 1.15483
 C749 C 0.79705 0.02885 1.17560
 C750 C 0.82087 0.01909 1.17665
 C751 C 0.79446 0.05571 1.11352
 C752 C 0.77205 0.05362 1.10376
 C753 C 0.76512 0.06687 1.08181
 C754 C 0.75151 0.05491 1.06359
 C755 C 0.74590 0.06691 1.04225
 C756 C 0.75387 0.09123 1.03861
 C757 C 0.76570 0.10366 1.05796
 C758 C 0.77179 0.09150 1.07899
 H759 H 0.85377 0.01469 1.15601
 H760 H 0.83790 0.03446 1.12061
 H761 H 0.76967 0.04740 1.15464
 H762 H 0.78511 0.02747 1.19056
 H763 H 0.80794 0.06658 1.10465
 H764 H 0.75923 0.04073 1.11096
 H765 H 0.74555 0.03611 1.06573
 H766 H 0.73508 0.05714 1.02877
 H767 H 0.77057 0.12287 1.05665
 H768 H 0.78144 0.10147 1.09321
 C769 C 0.29204 0.53219 0.66901
 C770 C 0.28208 0.54250 0.64823
 C771 C 0.29566 0.54343 0.62741
 C772 C 0.31894 0.53276 0.62739
 C773 C 0.32883 0.52239 0.64806
 C774 C 0.31564 0.52225 0.66920
 C775 C 0.28542 0.55591 0.60611
 C776 C 0.29962 0.56803 0.59117
 C777 C 0.29028 0.58216 0.57057
 C778 C 0.30409 0.60203 0.56299
 C779 C 0.29640 0.61582 0.54348
 C780 C 0.27510 0.60945 0.53006
 C781 C 0.26091 0.58983 0.53835
 C782 C 0.26850 0.57619 0.55814
 H783 H 0.28132 0.53204 0.68494
 H784 H 0.26399 0.55035 0.64859
 H785 H 0.32963 0.53245 0.61145
 H786 H 0.34711 0.51505 0.64763
 H787 H 0.26582 0.55674 0.60385
 H788 H 0.31900 0.56920 0.59508
 H789 H 0.32072 0.60729 0.57257
 H790 H 0.30714 0.63179 0.53952
 H791 H 0.24388 0.58497 0.52932
 H792 H 0.25745 0.56085 0.56342
 C793 C 0.22330 0.56486 0.33464
 C794 C 0.23486 0.57487 0.35512
 C795 C 0.22791 0.56774 0.37792
 C796 C 0.20920 0.55030 0.37987
 C797 C 0.19746 0.54054 0.35943
 C798 C 0.20421 0.54792 0.33664
 C799 C 0.23875 0.58046 0.39920
 C800 C 0.24022 0.57033 0.42084
 C801 C 0.24794 0.58442 0.44257
 C802 C 0.25929 0.57224 0.46167
 C803 C 0.26542 0.58490 0.48295
 C804 C 0.25930 0.60994 0.48604
 C805 C 0.24858 0.62211 0.46634
 C806 C 0.24280 0.60955 0.44508
 H807 H 0.22869 0.57099 0.31727
 H808 H 0.24903 0.58848 0.35318
 H809 H 0.20290 0.54486 0.39713
 H810 H 0.18285 0.52742 0.36142
 H811 H 0.24567 0.59889 0.39688
 H812 H 0.23569 0.55112 0.42283
 H813 H 0.26364 0.55288 0.46004
 H814 H 0.27512 0.57491 0.49667
 H815 H 0.24419 0.64147 0.46769
 H816 H 0.23363 0.61947 0.43089
 C817 C 0.67135 0.00991 0.87157
 C818 C 0.67951 0.01814 0.89403
 C819 C 0.70267 0.02846 0.89730
 C820 C 0.71814 0.02931 0.87776
 C821 C 0.70996 0.02109 0.85508
 C822 C 0.68596 0.01214 0.85134
 C823 C 0.70860 0.04061 0.92054
 C824 C 0.73115 0.04553 0.92893
 C825 C 0.73503 0.06044 0.95103
 C826 C 0.75421 0.05510 0.96705
 C827 C 0.75764 0.06911 0.98808
 C828 C 0.74180 0.08870 0.99371
 C829 C 0.72372 0.09489 0.97648
 C830 C 0.72013 0.08075 0.95576
 H831 H 0.65344 0.00167 0.87035
 H832 H 0.66736 0.01694 0.90889
 H833 H 0.73602 0.03756 0.87958
 H834 H 0.72200 0.02357 0.84037
 H835 H 0.69332 0.04602 0.93128
 H836 H 0.74684 0.03835 0.91988
 H837 H 0.76642 0.03998 0.96338
 H838 H 0.77282 0.06474 0.99994
 H839 H 0.71250 0.11103 0.97862
 H840 H 0.70603 0.08617 0.94306
 C841 C 0.71755 0.95060 0.66371
 C842 C 0.72740 0.94165 0.64248
 C843 C 0.71213 0.93541 0.62281
 C844 C 0.68693 0.93905 0.62443
 C845 C 0.67717 0.94836 0.64544
 C846 C 0.69234 0.95406 0.66534
 C847 C 0.72272 0.92481 0.60096
 C848 C 0.71165 0.90657 0.58855
 C849 C 0.72335 0.89363 0.56863
 C850 C 0.72318 0.86798 0.56810
 C851 C 0.73486 0.85509 0.55008
 C852 C 0.74677 0.86741 0.53164
 C853 C 0.74514 0.89334 0.53139
 C854 C 0.73413 0.90628 0.55004
 H855 H 0.72960 0.95507 0.67877
 H856 H 0.74689 0.93908 0.64156
 H857 H 0.67477 0.93483 0.60939
 H858 H 0.65765 0.95082 0.64628
 H859 H 0.74088 0.93044 0.59628
 H860 H 0.69480 0.89898 0.59485
 H861 H 0.71458 0.85788 0.58209
 H862 H 0.73510 0.83522 0.55077
 H863 H 0.75210 0.90391 0.51698
 H864 H 0.73361 0.92617 0.54972
 C865 C 0.19956 0.43520 0.16525
 C866 C 0.20729 0.42232 0.14510
 C867 C 0.21238 0.43470 0.12407
 C868 C 0.21059 0.46049 0.12389
 C869 C 0.20301 0.47343 0.14416
 C870 C 0.19706 0.46090 0.16498
 C871 C 0.21934 0.41992 0.10290
 C872 C 0.21557 0.42708 0.08030
 C873 C 0.22060 0.41100 0.05937
 C874 C 0.22483 0.42166 0.03726
 C875 C 0.22949 0.40700 0.01714
 C876 C 0.23050 0.38114 0.01871
 C877 C 0.22461 0.37064 0.04069
 C878 C 0.21996 0.38525 0.06071
 H879 H 0.19478 0.42488 0.18079
 H880 H 0.20864 0.40248 0.14574
 H881 H 0.21517 0.47076 0.10828
 H882 H 0.20179 0.49326 0.14352
 H883 H 0.22681 0.40189 0.10628
 H884 H 0.20835 0.44518 0.07678
 H885 H 0.22447 0.44145 0.03553
 H886 H 0.23177 0.41616 0.00040
 H887 H 0.22383 0.35086 0.04237
 H888 H 0.21535 0.37620 0.07701
 C889 C -0.15268 0.30032 0.46034
 C890 C -0.13151 0.28946 0.45162
 C891 C -0.12222 0.29652 0.42966
 C892 C -0.13454 0.31484 0.41665
 C893 C -0.15565 0.32556 0.42528
 C894 C -0.16484 0.31868 0.44733
 C895 C -0.09900 0.28570 0.42148
 C896 C -0.09260 0.28572 0.39855
 C897 C -0.06830 0.27855 0.39015
 C898 C -0.06008 0.28946 0.36945
 C899 C -0.03747 0.28347 0.36043
 C900 C -0.02197 0.26646 0.37202
 C901 C -0.03103 0.25447 0.39213
 C902 C -0.05366 0.26080 0.40141
 H903 H -0.15915 0.29483 0.47753
 H904 H -0.12224 0.27565 0.46216
 H905 H -0.12769 0.32162 0.40011
 H906 H -0.16469 0.33945 0.41468
 H907 H -0.08663 0.27830 0.43488
 H908 H -0.10516 0.29272 0.38514
 H909 H -0.07131 0.30271 0.36005
 H910 H -0.03262 0.29182 0.34385
 H911 H -0.02062 0.23998 0.40056
 H912 H -0.05993 0.25125 0.41687
 C913 C 0.33461 0.80962 0.95539
 C914 C 0.35456 0.79696 0.94638
 C915 C 0.37823 0.80653 0.94920
 C916 C 0.38160 0.82874 0.96210
 C917 C 0.36161 0.84140 0.97117
 C918 C 0.33784 0.83217 0.96764
 C919 C 0.39846 0.79281 0.93805
 C920 C 0.42030 0.80249 0.93331
 C921 C 0.43884 0.78895 0.91946
 C922 C 0.46349 0.79540 0.92217
 C923 C 0.48117 0.78346 0.90865
 C924 C 0.47479 0.76429 0.89235
 C925 C 0.44972 0.75911 0.88879
 C926 C 0.43216 0.77097 0.90227
 H927 H 0.31657 0.80209 0.95210
 H928 H 0.35139 0.77985 0.93662
 H929 H 0.39953 0.83644 0.96539
 H930 H 0.36478 0.85846 0.98100
 H931 H 0.39459 0.77402 0.93252
 H932 H 0.42482 0.82100 0.93916
 H933 H 0.46909 0.80984 0.93468
 H934 H 0.49995 0.78927 0.91083
 H935 H 0.44321 0.74647 0.87498
 H936 H 0.41325 0.76662 0.89838
 C937 C 1.13502 0.85054 0.02769
 C938 C 1.11411 0.83932 0.03613
 C939 C 1.11490 0.81520 0.04459
 C940 C 1.13705 0.80221 0.04365
 C941 C 1.15801 0.81351 0.03536
 C942 C 1.15727 0.83784 0.02745
 C943 C 1.09239 0.80451 0.05438
 C944 C 1.09259 0.78569 0.06957
 C945 C 1.07078 0.77631 0.08165
 C946 C 1.07456 0.76251 0.10225
 C947 C 1.05500 0.75380 0.11497
 C948 C 1.03070 0.75770 0.10704
 C949 C 1.02700 0.77211 0.08654
 C950 C 1.04671 0.78092 0.07377
 H951 H 1.13390 0.86937 0.02184
 H952 H 1.09733 0.84973 0.03648
 H953 H 1.13836 0.78329 0.04906
 H954 H 1.17477 0.80311 0.03489
 H955 H 1.07545 0.81380 0.05030
 H956 H 1.10983 0.77777 0.07504
 H957 H 1.09285 0.75901 0.10903
 H958 H 1.05922 0.74465 0.13153
 H959 H 1.00875 0.77679 0.08051
 H960 H 1.04289 0.79136 0.05788
 C961 C 0.63699 0.32001 0.51618
 C962 C 0.61713 0.30842 0.52623
 C963 C 0.62065 0.28889 0.54190
 C964 C 0.64444 0.28039 0.54654
 C965 C 0.66433 0.29180 0.53625
 C966 C 0.66089 0.31198 0.52118
 C967 C 0.59923 0.27825 0.55345
 C968 C 0.60033 0.26991 0.57580
 C969 C 0.57847 0.26284 0.58893
 C970 C 0.57848 0.26689 0.61363
 C971 C 0.55800 0.26136 0.62664
 C972 C 0.53672 0.25156 0.61541
 C973 C 0.53743 0.24609 0.59070
 C974 C 0.55791 0.25204 0.57758
 H975 H 0.63358 0.33572 0.50500
 H976 H 0.59898 0.31527 0.52236
 H977 H 0.64770 0.26488 0.55802
 H978 H 0.68240 0.28474 0.54006
 H979 H 0.58170 0.27985 0.54432
 H980 H 0.61747 0.27076 0.58579
 H981 H 0.59427 0.27478 0.62287
 H982 H 0.55860 0.26500 0.64571
 H983 H 0.52254 0.23684 0.58135
 H984 H 0.55780 0.24770 0.55866
 C985 C 0.35462 0.21515 0.52691
 C986 C 0.37621 0.22522 0.53672
 C987 C 0.38609 0.21650 0.55831
 C988 C 0.37331 0.19837 0.57051
 C989 C 0.35187 0.18831 0.56072
 C990 C 0.34248 0.19628 0.53864
 C991 C 0.40948 0.22666 0.56797
 C992 C 0.42482 0.21306 0.58126
 C993 C 0.44765 0.22207 0.59308
 C994 C 0.45744 0.20812 0.61172
 C995 C 0.47877 0.21531 0.62380
 C996 C 0.49189 0.23632 0.61700
 C997 C 0.48140 0.25084 0.59877
 C998 C 0.45977 0.24368 0.58673
 H999 H 0.34777 0.22167 0.50987
 H1000 H 0.38552 0.23941 0.52716
 H1001 H 0.37966 0.19202 0.58776
 H1002 H 0.34252 0.17433 0.57052
 H1003 H 0.41398 0.24542 0.56381
 H1004 H 0.42014 0.19408 0.58439
 H1005 H 0.44819 0.19172 0.61742
 H1006 H 0.48438 0.20445 0.63891
 H1007 H 0.49007 0.26781 0.59380
 H1008 H 0.45284 0.25504 0.57246
 C1009 C 0.85967 0.69091 0.01608
 C1010 C 0.88219 0.70047 0.02401
 C1011 C 0.89373 0.69160 0.04477
 C1012 C 0.88270 0.67231 0.05696
 C1013 C 0.86026 0.66279 0.04906
 C1014 C 0.84837 0.67205 0.02861
 C1015 C 0.91703 0.70283 0.05348
 C1016 C 0.92318 0.70403 0.07678
 C1017 C 0.94530 0.71634 0.08685
 C1018 C 0.94497 0.72434 0.11067
 C1019 C 0.96533 0.73543 0.12146
 C1020 C 0.98686 0.73916 0.10880
 C1021 C 0.98748 0.73013 0.08504
 C1022 C 0.96681 0.71915 0.07409
 H1023 H 0.85118 0.69815 0.00003
 H1024 H 0.89042 0.71512 0.01415
 H1025 H 0.89138 0.66440 0.07258
 H1026 H 0.85205 0.64837 0.05922
 H1027 H 0.92830 0.71181 0.04068
 H1028 H 0.91051 0.69712 0.08955
 H1029 H 0.92883 0.72200 0.12108
 H1030 H 0.96431 0.74119 0.14000
 H1031 H 1.00397 0.73086 0.07500
 H1032 H 0.96800 0.71222 0.05595
 C1033 C 0.64229 0.69909 0.98708
 C1034 C 0.62021 0.70860 0.97827
 C1035 C 0.61578 0.71059 0.95360
 C1036 C 0.63442 0.70405 0.93796
 C1037 C 0.65638 0.69451 0.94673
 C1038 C 0.66051 0.69157 0.97137
 C1039 C 0.59182 0.71978 0.94468
 C1040 C 0.58263 0.71364 0.92298
 C1041 C 0.55976 0.72363 0.91250
 C1042 C 0.55737 0.72408 0.88761
 C1043 C 0.53645 0.73336 0.87659
 C1044 C 0.51704 0.74272 0.89003
 C1045 C 0.51894 0.74087 0.91514
 C1046 C 0.54021 0.73181 0.92624
 H1047 H 0.64502 0.69748 1.00619
 H1048 H 0.60637 0.71394 0.99073
 H1049 H 0.63222 0.70627 0.91889
 H1050 H 0.66986 0.68877 0.93406
 H1051 H 0.58163 0.73172 0.95638
 H1052 H 0.59276 0.70131 0.91162
 H1053 H 0.57194 0.71746 0.87656
 H1054 H 0.53547 0.73357 0.85727
 H1055 H 0.50404 0.74592 0.92637
 H1056 H 0.54101 0.73064 0.94550
 C1057 C 0.16990 0.21200 0.42852
 C1058 C 0.15049 0.22349 0.41676
 C1059 C 0.13107 0.23329 0.42956
 C1060 C 0.13206 0.23245 0.45465
 C1061 C 0.15165 0.22108 0.46648
 C1062 C 0.17059 0.21032 0.45352
 C1063 C 0.11000 0.24312 0.41577
 C1064 C 0.08730 0.24474 0.42394
 C1065 C 0.06603 0.24933 0.40783
 C1066 C 0.04520 0.26086 0.41662
 C1067 C 0.02449 0.26408 0.40185
 C1068 C 0.02379 0.25481 0.37814
 C1069 C 0.04520 0.24403 0.36939
 C1070 C 0.06575 0.24096 0.38400
 H1071 H 0.18392 0.20363 0.41790
 H1072 H 0.15022 0.22391 0.39743
 H1073 H 0.11782 0.24043 0.46521
 H1074 H 0.15190 0.22059 0.48579
 H1075 H 0.11305 0.24725 0.39725
 H1076 H 0.08377 0.24140 0.44250
 H1077 H 0.04507 0.26764 0.43490
 H1078 H 0.00934 0.27410 0.40908
 H1079 H 0.04579 0.23740 0.35108
 H1080 H 0.08114 0.23137 0.37665
 C1081 C 0.60657 0.09411 0.69963
 C1082 C 0.59811 0.11502 0.68809
 C1083 C 0.57677 0.12671 0.69531
 C1084 C 0.56379 0.11685 0.71427
 C1085 C 0.57219 0.09571 0.72574
 C1086 C 0.59373 0.08421 0.71856
 C1087 C 0.56801 0.14803 0.68154
 C1088 C 0.55327 0.16546 0.69014
 C1089 C 0.54430 0.18595 0.67525
 C1090 C 0.53882 0.20863 0.68603
 C1091 C 0.52985 0.22808 0.67235
 C1092 C 0.52517 0.22495 0.64756
 C1093 C 0.53170 0.20231 0.63687
 C1094 C 0.54066 0.18302 0.65048
 H1095 H 0.62297 0.08537 0.69341
 H1096 H 0.60826 0.12204 0.67335
 H1097 H 0.54689 0.12500 0.71987
 H1098 H 0.56194 0.08839 0.74026
 H1099 H 0.57485 0.14979 0.66371
 H1100 H 0.54828 0.16532 0.70869
 H1101 H 0.54184 0.21143 0.70506
 H1102 H 0.52697 0.24548 0.68136
 H1103 H 0.52913 0.19937 0.61781
 H1104 H 0.54419 0.16568 0.64153
 C1105 C 1.05948 0.58343 0.19758
 C1106 C 1.04655 0.60238 0.18653
 C1107 C 1.05138 0.62705 0.19271
 C1108 C 1.06912 0.63238 0.21062
 C1109 C 1.08214 0.61343 0.22158
 C1110 C 1.07777 0.58879 0.21487
 C1111 C 1.03956 0.64655 0.17839
 C1112 C 1.03766 0.67004 0.18575
 C1113 C 1.02915 0.68978 0.16968
 C1114 C 1.01795 0.71072 0.17926
 C1115 C 1.01105 0.73023 0.16459
 C1116 C 1.01630 0.72977 0.14004
 C1117 C 1.02661 0.70810 0.13051
 C1118 C 1.03327 0.68862 0.14508
 H1119 H 1.05590 0.56464 0.19185
 H1120 H 1.03316 0.59778 0.17263
 H1121 H 1.07383 0.65113 0.21551
 H1122 H 1.09602 0.61808 0.23497
 H1123 H 1.03241 0.64124 0.16086
 H1124 H 1.04245 0.67516 0.20402
 H1125 H 1.01427 0.71187 0.19814
 H1126 H 1.00134 0.74534 0.17262
 H1127 H 1.02999 0.70650 0.11160
 H1128 H 1.04224 0.67297 0.13704
 C1129 C 0.96618 0.89995 0.23485
 C1130 C 0.97958 0.88167 0.22316
 C1131 C 0.96941 0.86871 0.20344
 C1132 C 0.94535 0.87396 0.19600
 C1133 C 0.93200 0.89201 0.20769
 C1134 C 0.94217 0.90516 0.22728
 C1135 C 0.98337 0.84881 0.19170
 C1136 C 0.97984 0.84308 0.16849
 C1137 C 0.98897 0.82045 0.15680
 C1138 C 0.97604 0.81147 0.13666
 C1139 C 0.98244 0.78933 0.12579
 C1140 C 1.00185 0.77502 0.13499
 C1141 C 1.01633 0.78545 0.15376
 C1142 C 1.00964 0.80757 0.16496
 H1143 H 0.97439 0.90968 0.25004
 H1144 H 0.99793 0.87769 0.22946
 H1145 H 0.93651 0.86376 0.18146
 H1146 H 0.91363 0.89575 0.20130
 H1147 H 0.99579 0.83818 0.20268
 H1148 H 0.96777 0.85443 0.15781
 H1149 H 0.96052 0.82145 0.12948
 H1150 H 0.97202 0.78357 0.11004
 H1151 H 1.03262 0.77619 0.16008
 H1152 H 1.02079 0.81460 0.17974
 C1153 C 0.42700 0.37511 0.73826
 C1154 C 0.43863 0.35430 0.72913
 C1155 C 0.45640 0.35656 0.71179
 C1156 C 0.46327 0.38023 0.70472
 C1157 C 0.45163 0.40103 0.71385
 C1158 C 0.43305 0.39868 0.73039
 C1159 C 0.46715 0.33391 0.70146
 C1160 C 0.47648 0.33297 0.67960
 C1161 C 0.48657 0.31042 0.66850
 C1162 C 0.50296 0.31305 0.65004
 C1163 C 0.51243 0.29251 0.63837
 C1164 C 0.50612 0.26844 0.64508
 C1165 C 0.48859 0.26605 0.66288
 C1166 C 0.47921 0.28667 0.67467
 H1167 H 0.41310 0.37273 0.75137
 H1168 H 0.43329 0.33634 0.73518
 H1169 H 0.47757 0.38287 0.69213
 H1170 H 0.45672 0.41891 0.70742
 H1171 H 0.46646 0.31743 0.71195
 H1172 H 0.47695 0.34944 0.66908
 H1173 H 0.50831 0.33117 0.64440
 H1174 H 0.52416 0.29585 0.62360
 H1175 H 0.48204 0.24804 0.66758
 H1176 H 0.46567 0.28387 0.68801
 C1177 C 0.44946 0.59115 0.77877
 C1178 C 0.46033 0.61338 0.78624
 C1179 C 0.44748 0.63035 0.80019
 C1180 C 0.42310 0.62536 0.80537
 C1181 C 0.41228 0.60327 0.79791
 C1182 C 0.42548 0.58566 0.78501
 C1183 C 0.45975 0.65298 0.80940
 C1184 C 0.45440 0.66291 0.83069
 C1185 C 0.46603 0.68526 0.84122
 C1186 C 0.46532 0.68881 0.86598
 C1187 C 0.47470 0.71015 0.87675
 C1188 C 0.48427 0.72923 0.86304
 C1189 C 0.48605 0.72501 0.83819
 C1190 C 0.47675 0.70345 0.82739
 H1191 H 0.46005 0.57795 0.76879
 H1192 H 0.47903 0.61698 0.78177
 H1193 H 0.41232 0.63850 0.81520
 H1194 H 0.39351 0.59992 0.80232
 H1195 H 0.47438 0.66049 0.79921
 H1196 H 0.44144 0.65360 0.84164
 H1197 H 0.45742 0.67497 0.87710
 H1198 H 0.47401 0.71212 0.89599
 H1199 H 0.49481 0.73805 0.82691
 H1200 H 0.47765 0.70135 0.80821
 C1201 C -0.08028 0.10541 0.27248
 C1202 C -0.07099 0.12885 0.27794
 C1203 C -0.05856 0.13354 0.29973
 C1204 C -0.05601 0.11440 0.31619
 C1205 C -0.06534 0.09107 0.31079
 C1206 C -0.07762 0.08631 0.28893
 C1207 C -0.04954 0.15869 0.30543
 C1208 C -0.03012 0.16275 0.31993
 C1209 C -0.02188 0.18726 0.32881
 C1210 C -0.00669 0.18807 0.34922
 C1211 C 0.00113 0.21040 0.35915
 C1212 C -0.00507 0.23292 0.34839
 C1213 C -0.02098 0.23200 0.32819
 C1214 C -0.02900 0.20951 0.31830
 H1215 H -0.09000 0.10236 0.25564
 H1216 H -0.07350 0.14337 0.26512
 H1217 H -0.04734 0.11748 0.33354
 H1218 H -0.06297 0.07671 0.32379
 H1219 H -0.05946 0.17388 0.29773
 H1220 H -0.02013 0.14710 0.32673
 H1221 H -0.00136 0.17127 0.35805
 H1222 H 0.01156 0.20973 0.37575
 H1223 H -0.02731 0.24882 0.32009
 H1224 H -0.04070 0.20977 0.30251
 C1225 C 0.10852 0.39663 0.29959
 C1226 C 0.09768 0.37560 0.30841
 C1227 C 0.07463 0.36802 0.29992
 C1228 C 0.06272 0.38163 0.28202
 C1229 C 0.07345 0.40295 0.27339
 C1230 C 0.09630 0.41095 0.28242
 C1231 C 0.06266 0.34753 0.31197
 C1232 C 0.04592 0.33268 0.30154
 C1233 C 0.03349 0.31386 0.31552
 C1234 C 0.02952 0.29016 0.30601
 C1235 C 0.01907 0.27192 0.31986
 C1236 C 0.01138 0.27736 0.34323
 C1237 C 0.01528 0.30144 0.35233
 C1238 C 0.02596 0.31939 0.33869
 H1239 H 0.12640 0.40183 0.30649
 H1240 H 0.10719 0.36539 0.32221
 H1241 H 0.04467 0.37653 0.27550
 H1242 H 0.06342 0.41367 0.26036
 H1243 H 0.06817 0.34439 0.33038
 H1244 H 0.04187 0.33374 0.28258
 H1245 H 0.03543 0.28551 0.28822
 H1246 H 0.01793 0.25352 0.31240
 H1247 H 0.01027 0.30625 0.37037
 H1248 H 0.02848 0.33765 0.34636
 C1249 C 0.58985 0.87517 0.77820
 C1250 C 0.57817 0.85448 0.78669
 C1251 C 0.55323 0.85499 0.79145
 C1252 C 0.53982 0.87635 0.78595
 C1253 C 0.55158 0.89708 0.77715
 C1254 C 0.57682 0.89685 0.77400
 C1255 C 0.54311 0.83378 0.80425
 C1256 C 0.52019 0.83169 0.81165
 C1257 C 0.51347 0.81200 0.82820
 C1258 C 0.49034 0.80113 0.82667
 C1259 C 0.48428 0.78218 0.84208
 C1260 C 0.50135 0.77337 0.85921
 C1261 C 0.52372 0.78607 0.86184
 C1262 C 0.52978 0.80475 0.84641
 H1263 H 0.60932 0.87455 0.77571
 H1264 H 0.58897 0.83833 0.79059
 H1265 H 0.52059 0.87762 0.78925
 H1266 H 0.54124 0.91371 0.77408
 H1267 H 0.55592 0.81946 0.80910
 H1268 H 0.50620 0.84441 0.80600
 H1269 H 0.47710 0.80706 0.81333
 H1270 H 0.46632 0.77406 0.84041
 H1271 H 0.53670 0.78203 0.87605
 H1272 H 0.54717 0.81389 0.84911
 C1273 C 0.69775 0.54400 0.07185
 C1274 C 0.68625 0.53194 0.09026
 C1275 C 0.69147 0.53814 0.11417
 C1276 C 0.70902 0.55630 0.11941
 C1277 C 0.72046 0.56856 0.10109
 C1278 C 0.71468 0.56328 0.07670
 C1279 C 0.67657 0.52718 0.13290
 C1280 C 0.68355 0.52624 0.15598
 C1281 C 0.66687 0.51870 0.17486
 C1282 C 0.67641 0.50843 0.19586
 C1283 C 0.66120 0.50271 0.21462
 C1284 C 0.63609 0.50826 0.21329
 C1285 C 0.62660 0.51749 0.19158
 C1286 C 0.64172 0.52297 0.17283
 H1287 H 0.69156 0.53913 0.05395
 H1288 H 0.67257 0.51815 0.08574
 H1289 H 0.71343 0.56183 0.13764
 H1290 H 0.73423 0.58182 0.10654
 H1291 H 0.65894 0.51987 0.12735
 H1292 H 0.70199 0.53114 0.16140
 H1293 H 0.69571 0.50464 0.19768
 H1294 H 0.66928 0.49371 0.22990
 H1295 H 0.60729 0.52105 0.18939
 H1296 H 0.63369 0.53124 0.15708
 C1297 C 0.19514 1.07290 0.58301
 C1298 C 0.18479 1.06254 0.60301
 C1299 C 0.19078 1.07136 0.62613
 C1300 C 0.20773 1.09071 0.62879
 C1301 C 0.21816 1.10100 0.60877
 C1302 C 0.21178 1.09243 0.58563
 C1303 C 0.17788 1.06073 0.64652
 C1304 C 0.18392 1.06477 0.66965
 C1305 C 0.16966 1.05466 0.68938
 C1306 C 0.18098 1.05136 0.71182
 C1307 C 0.16807 1.04163 0.73070
 C1308 C 0.14348 1.03443 0.72746
 C1309 C 0.13190 1.03954 0.70530
 C1310 C 0.14475 1.04927 0.68655
 H1311 H 0.18953 1.06607 0.56546
 H1312 H 0.17168 1.04780 0.60035
 H1313 H 0.21267 1.09847 0.64612
 H1314 H 0.23114 1.11584 0.61144
 H1315 H 0.16274 1.04862 0.64203
 H1316 H 0.20018 1.07504 0.67458
 H1317 H 0.19993 1.05629 0.71476
 H1318 H 0.17746 1.04020 0.74778
 H1319 H 0.11272 1.03558 0.70243
 H1320 H 0.13492 1.05289 0.67001
 C1321 C 0.22538 0.93031 0.88037
 C1322 C 0.21747 0.94056 0.85886
 C1323 C 0.20792 0.96433 0.85826
 C1324 C 0.20778 0.97827 0.87957
 C1325 C 0.21561 0.96810 0.90119
 C1326 C 0.22407 0.94350 0.90240
 C1327 C 0.19809 0.97369 0.83521
 C1328 C 0.18089 0.99113 0.83389
 C1329 C 0.16867 0.99941 0.81145
 C1330 C 0.14828 1.01462 0.81349
 C1331 C 0.13547 1.02263 0.79331
 C1332 C 0.14308 1.01640 0.77008
 C1333 C 0.16314 1.00036 0.76817
 C1334 C 0.17604 0.99236 0.78846
 H1335 H 0.23324 0.91219 0.87908
 H1336 H 0.21849 0.92962 0.84258
 H1337 H 0.20144 0.99707 0.87980
 H1338 H 0.21347 0.97957 0.91688
 H1339 H 0.20395 0.96443 0.81916
 H1340 H 0.17412 0.99895 0.85030
 H1341 H 0.14178 1.01994 0.83092
 H1342 H 0.11914 1.03313 0.79628
 H1343 H 0.16884 0.99401 0.75078
 H1344 H 0.19159 0.98062 0.78582
 C1345 C 0.68648 0.41027 0.37954
 C1346 C 0.67556 0.42019 0.35918
 C1347 C 0.68053 0.44440 0.35258
 C1348 C 0.69683 0.45859 0.36691
 C1349 C 0.70786 0.44857 0.38737
 C1350 C 0.70289 0.42424 0.39381
 C1351 C 0.66849 0.45342 0.33042
 C1352 C 0.66709 0.47701 0.32389
 C1353 C 0.65370 0.48424 0.30178
 C1354 C 0.66090 0.50508 0.28938
 C1355 C 0.64928 0.51117 0.26773
 C1356 C 0.63073 0.49605 0.25749
 C1357 C 0.62202 0.47673 0.27150
 C1358 C 0.63343 0.47080 0.29309
 H1359 H 0.68186 0.39165 0.38423
 H1360 H 0.66303 0.40885 0.34856
 H1361 H 0.70153 0.47716 0.36229
 H1362 H 0.72064 0.45969 0.39789
 H1363 H 0.66001 0.43950 0.31893
 H1364 H 0.67613 0.49130 0.33441
 H1365 H 0.67582 0.51639 0.29622
 H1366 H 0.65522 0.52739 0.25859
 H1367 H 0.60614 0.46610 0.26603
 H1368 H 0.62606 0.45579 0.30307
 C1369 C 0.79503 0.45786 0.56566
 C1370 C 0.80372 0.47086 0.58581
 C1371 C 0.79197 0.46920 0.60767
 C1372 C 0.77056 0.45497 0.60861
 C1373 C 0.76177 0.44209 0.58833
 C1374 C 0.77429 0.44292 0.56685
 C1375 C 0.80404 0.48076 0.62908
 C1376 C 0.79472 0.48164 0.65097
 C1377 C 0.80911 0.48984 0.67243
 C1378 C 0.79701 0.49878 0.69249
 C1379 C 0.80997 0.50505 0.71356
 C1380 C 0.83543 0.50163 0.71543
 C1381 C 0.84747 0.49369 0.69474
 C1382 C 0.83456 0.48749 0.67377
 H1383 H 0.80486 0.45908 0.54923
 H1384 H 0.82018 0.48166 0.58446
 H1385 H 0.76097 0.45283 0.62501
 H1386 H 0.74584 0.43053 0.58977
 H1387 H 0.82199 0.48836 0.62663
 H1388 H 0.77612 0.47610 0.65364
 H1389 H 0.77743 0.50102 0.69182
 H1390 H 0.79980 0.51272 0.72811
 H1391 H 0.86706 0.49152 0.69514
 H1392 H 0.84463 0.48012 0.65896
 C1393 C 0.25528 -0.03958 0.10285
 C1394 C 0.26198 -0.02899 0.12504
 C1395 C 0.28572 -0.02017 0.12928
 C1396 C 0.30202 -0.02024 0.11035
 C1397 C 0.29534 -0.03073 0.08825
 C1398 C 0.27220 -0.04129 0.08448
 C1399 C 0.29384 -0.01262 0.15377
 C1400 C 0.31599 -0.01891 0.16214
 C1401 C 0.32544 -0.01413 0.18676
 C1402 C 0.34417 -0.02924 0.19523
 C1403 C 0.35568 -0.02448 0.21720
 C1404 C 0.34863 -0.00454 0.23200
 C1405 C 0.32987 0.01086 0.22313
 C1406 C 0.31813 0.00591 0.20098
 H1407 H 0.23730 -0.04756 0.10049
 H1408 H 0.24904 -0.02890 0.13929
 H1409 H 0.32019 -0.01276 0.11282
 H1410 H 0.30854 -0.03113 0.07424
 H1411 H 0.28087 -0.00412 0.16553
 H1412 H 0.32760 -0.02966 0.15064
 H1413 H 0.35056 -0.04447 0.18439
 H1414 H 0.37110 -0.03594 0.22175
 H1415 H 0.32491 0.02733 0.23293
 H1416 H 0.30429 0.01846 0.19455
 C1417 C 0.26432 0.05818 0.40414
 C1418 C 0.27076 0.04516 0.38343
 C1419 C 0.28664 0.05561 0.36721
 C1420 C 0.29480 0.07985 0.37135
 C1421 C 0.28841 0.09279 0.39193
 C1422 C 0.27355 0.08196 0.40884
 C1423 C 0.29501 0.04102 0.34636
 C1424 C 0.31777 0.04349 0.33868
 C1425 C 0.32823 0.03039 0.31793
 C1426 C 0.35353 0.03108 0.31599
 C1427 C 0.36461 0.02158 0.29586
 C1428 C 0.35078 0.01156 0.27647
 C1429 C 0.32542 0.00915 0.27918
 C1430 C 0.31420 0.01880 0.29957
 H1431 H 0.25275 0.04938 0.41680
 H1432 H 0.26400 0.02662 0.38048
 H1433 H 0.30623 0.08887 0.35871
 H1434 H 0.29514 0.11137 0.39461
 H1435 H 0.28287 0.02737 0.33834
 H1436 H 0.33004 0.05570 0.34864
 H1437 H 0.36488 0.03954 0.32995
 H1438 H 0.38422 0.02299 0.29494
 H1439 H 0.31409 0.00010 0.26566
 H1440 H 0.29461 0.01771 0.30053
 C1441 C 0.76194 0.59134 0.87989
 C1442 C 0.76932 0.58317 0.85749
 C1443 C 0.77984 0.55989 0.85454
 C1444 C 0.78233 0.54461 0.87447
 C1445 C 0.77502 0.55285 0.89695
 C1446 C 0.76511 0.57646 0.89996
 C1447 C 0.79023 0.55347 0.83115
 C1448 C 0.79551 0.53052 0.82391
 C1449 C 0.80886 0.52555 0.80174
 C1450 C 0.80510 0.50341 0.78906
 C1451 C 0.81822 0.49818 0.76853
 C1452 C 0.83540 0.51503 0.75996
 C1453 C 0.83982 0.53668 0.77370
 C1454 C 0.82659 0.54195 0.79401
 H1455 H 0.75472 0.60977 0.88166
 H1456 H 0.76741 0.59539 0.84249
 H1457 H 0.79086 0.52677 0.87307
 H1458 H 0.77755 0.54092 0.91208
 H1459 H 0.79390 0.56857 0.81941
 H1460 H 0.78984 0.51497 0.83419
 H1461 H 0.79202 0.49013 0.79506
 H1462 H 0.81507 0.48079 0.75928
 H1463 H 0.85408 0.54945 0.76955
 H1464 H 0.83099 0.55854 0.80416
 C1465 C 0.13469 0.72296 0.60483
 C1466 C 0.15578 0.71448 0.59401
 C1467 C 0.15428 0.69843 0.57417
 C1468 C 0.13115 0.69175 0.56478
 C1469 C 0.11008 0.70022 0.57558
 C1470 C 0.11160 0.71573 0.59586
 C1471 C 0.17708 0.68933 0.56361
 C1472 C 0.17832 0.66795 0.55145
 C1473 C 0.20074 0.65828 0.54060
 C1474 C 0.19825 0.64039 0.52247
 C1475 C 0.21863 0.63008 0.51198
 C1476 C 0.24240 0.63770 0.51898
 C1477 C 0.24473 0.65491 0.53806
 C1478 C 0.22425 0.66530 0.54853
 H1479 H 0.13645 0.73528 0.62014
 H1480 H 0.17335 0.72020 0.60138
 H1481 H 0.12914 0.68019 0.54897
 H1482 H 0.09258 0.69428 0.56826
 H1483 H 0.19326 0.70043 0.56649
 H1484 H 0.16209 0.65683 0.54896
 H1485 H 0.18035 0.63409 0.51652
 H1486 H 0.21544 0.61558 0.49887
 H1487 H 0.26259 0.66020 0.54499
 H1488 H 0.22703 0.67819 0.56323
 C1489 C 0.60674 0.21539 1.08271
 C1490 C 0.62915 0.20516 1.07692
 C1491 C 0.63140 0.19060 1.05625
 C1492 C 0.61095 0.18731 1.04085
 C1493 C 0.58853 0.19772 1.04655
 C1494 C 0.58607 0.21167 1.06769
 C1495 C 0.65527 0.17923 1.05133
 C1496 C 0.65730 0.15766 1.03965
 C1497 C 0.68077 0.14512 1.03537
 C1498 C 0.68035 0.11987 1.03017
 C1499 C 0.70165 0.10740 1.02466
 C1500 C 0.72402 0.11997 1.02309
 C1501 C 0.72466 0.14500 1.03012
 C1502 C 0.70326 0.15754 1.03569
 H1503 H 0.60550 0.22564 1.09935
 H1504 H 0.64464 0.20807 1.08900
 H1505 H 0.61224 0.17689 1.02432
 H1506 H 0.57313 0.19490 1.03436
 H1507 H 0.67130 0.18802 1.05918
 H1508 H 0.64090 0.14796 1.03389
 H1509 H 0.66339 0.10971 1.03025
 H1510 H 0.70052 0.08786 1.02081
 H1511 H 0.74161 0.15510 1.03117
 H1512 H 0.70447 0.17700 1.03974
 C1513 C 0.86452 0.20941 0.91389
 C1514 C 0.84493 0.19839 0.92496
 C1515 C 0.84746 0.18909 0.94800
 C1516 C 0.87002 0.19174 0.96010
 C1517 C 0.88974 0.20260 0.94908
 C1518 C 0.88773 0.21162 0.92548
 C1519 C 0.82610 0.17708 0.95865
 C1520 C 0.82769 0.16197 0.97732
 C1521 C 0.80668 0.14876 0.98731
 C1522 C 0.81151 0.12916 1.00262
 C1523 C 0.79259 0.11571 1.01220
 C1524 C 0.76801 0.12198 1.00754
 C1525 C 0.76333 0.14119 0.99145
 C1526 C 0.78227 0.15475 0.98194
 H1527 H 0.86060 0.21697 0.89654
 H1528 H 0.82759 0.19712 0.91535
 H1529 H 0.87275 0.18552 0.97818
 H1530 H 0.90671 0.20259 0.95919
 H1531 H 0.80870 0.17988 0.94969
 H1532 H 0.84538 0.15780 0.98507
 H1533 H 0.83009 0.12377 1.00675
 H1534 H 0.79741 0.09994 1.02278
 H1535 H 0.74484 0.14567 0.98602
 H1536 H 0.77750 0.16976 0.97037
 C1537 C 0.42601 0.70671 0.45697
 C1538 C 0.40726 0.69580 0.46938
 C1539 C 0.38287 0.70227 0.46479
 C1540 C 0.37775 0.72077 0.44812
 C1541 C 0.39655 0.73175 0.43579
 C1542 C 0.42083 0.72442 0.43964
 C1543 C 0.36365 0.68778 0.47631
 C1544 C 0.33970 0.69242 0.47452
 C1545 C 0.32117 0.67552 0.48380
 C1546 C 0.29829 0.68471 0.48983
 C1547 C 0.28024 0.66906 0.49807
 C1548 C 0.28478 0.64370 0.50086
 C1549 C 0.30738 0.63452 0.49333
 C1550 C 0.32533 0.65012 0.48517
 H1551 H 0.44447 0.70041 0.46018
 H1552 H 0.41180 0.68160 0.48204
 H1553 H 0.35936 0.72637 0.44378
 H1554 H 0.39201 0.74563 0.42281
 H1555 H 0.36970 0.67204 0.48642
 H1556 H 0.33314 0.70903 0.46627
 H1557 H 0.29430 0.70409 0.48803
 H1558 H 0.26268 0.67698 0.50160
 H1559 H 0.31115 0.61500 0.49392
 H1560 H 0.34220 0.64206 0.47938
 C1561 C 0.62121 0.78277 0.40431
 C1562 C 0.64336 0.79007 0.41485
 C1563 C 0.64844 0.78586 0.43909
 C1564 C 0.63120 0.77324 0.45244
 C1565 C 0.60893 0.76593 0.44184
 C1566 C 0.60348 0.77125 0.41784
 C1567 C 0.67046 0.79746 0.45010
 C1568 C 0.68061 0.79130 0.47116
 C1569 C 0.70062 0.80614 0.48218
 C1570 C 0.71944 0.79487 0.49530
 C1571 C 0.73872 0.80888 0.50522
 C1572 C 0.73956 0.83460 0.50214
 C1573 C 0.71957 0.84576 0.49031
 C1574 C 0.70061 0.83180 0.48029
 H1575 H 0.61770 0.78670 0.38566
 H1576 H 0.65632 0.79972 0.40417
 H1577 H 0.63424 0.77011 0.47128
 H1578 H 0.59551 0.75725 0.45272
 H1579 H 0.67853 0.81231 0.44035
 H1580 H 0.67458 0.77513 0.48031
 H1581 H 0.71936 0.77515 0.49765
 H1582 H 0.75257 0.79942 0.51551
 H1583 H 0.71894 0.86554 0.48848
 H1584 H 0.68575 0.84120 0.47126
 C1585 C 0.08401 0.26418 -0.06332
 C1586 C 0.10618 0.27053 -0.05204
 C1587 C 0.10799 0.29143 -0.03707
 C1588 C 0.08677 0.30493 -0.03234
 C1589 C 0.06466 0.29868 -0.04374
 C1590 C 0.06318 0.27859 -0.05976
 C1591 C 0.13235 0.29917 -0.02764
 C1592 C 0.13778 0.32274 -0.02252
 C1593 C 0.16264 0.33195 -0.01658
 C1594 C 0.16726 0.35697 -0.01966
 C1595 C 0.19041 0.36663 -0.01520
 C1596 C 0.20996 0.35156 -0.00778
 C1597 C 0.20489 0.32663 -0.00332
 C1598 C 0.18158 0.31689 -0.00790
 H1599 H 0.08340 0.24862 -0.07562
 H1600 H 0.12217 0.25967 -0.05579
 H1601 H 0.08714 0.32049 -0.02007
 H1602 H 0.04874 0.30973 -0.04024
 H1603 H 0.14662 0.28550 -0.02739
 H1604 H 0.12383 0.33655 -0.02492
 H1605 H 0.15294 0.36913 -0.02588
 H1606 H 0.19325 0.38607 -0.01792
 H1607 H 0.21862 0.31456 0.00408
 H1608 H 0.17844 0.29773 -0.00420
 C1609 C 0.37216 0.25818 0.07260
 C1610 C 0.34962 0.26612 0.06382
 C1611 C 0.34758 0.27772 0.04172
 C1612 C 0.36846 0.27999 0.02788
 C1613 C 0.39115 0.27204 0.03675
 C1614 C 0.39331 0.26188 0.05959
 C1615 C 0.32435 0.29016 0.03564
 C1616 C 0.31740 0.29705 0.01366
 C1617 C 0.29607 0.31325 0.00997
 C1618 C 0.28074 0.31030 -0.01023
 C1619 C 0.26086 0.32602 -0.01383
 C1620 C 0.25577 0.34516 0.00268
 C1621 C 0.27230 0.34867 0.02221
 C1622 C 0.29178 0.33276 0.02598
 H1623 H 0.37323 0.25000 0.09008
 H1624 H 0.33384 0.26412 0.07482
 H1625 H 0.36765 0.28924 0.01095
 H1626 H 0.40719 0.27525 0.02642
 H1627 H 0.31264 0.29459 0.05037
 H1628 H 0.32739 0.29101 -0.00175
 H1629 H 0.28411 0.29580 -0.02319
 H1630 H 0.24947 0.32342 -0.02973
 H1631 H 0.27097 0.36416 0.03439
 H1632 H 0.30408 0.33631 0.04106
 C1633 C 0.92576 0.76653 0.55972
 C1634 C 0.90408 0.77261 0.54747
 C1635 C 0.88689 0.78799 0.55821
 C1636 C 0.89211 0.79769 0.58122
 C1637 C 0.91362 0.79165 0.59339
 C1638 C 0.93076 0.77609 0.58281
 C1639 C 0.86433 0.79487 0.54482
 C1640 C 0.84396 0.80110 0.55605
 C1641 C 0.82268 0.81289 0.54439
 C1642 C 0.80950 0.82968 0.55802
 C1643 C 0.78968 0.84207 0.54814
 C1644 C 0.78145 0.83721 0.52440
 C1645 C 0.79511 0.82043 0.51064
 C1646 C 0.81543 0.80835 0.52050
 H1647 H 0.93875 0.75470 0.55101
 H1648 H 0.90068 0.76523 0.52961
 H1649 H 0.87988 0.81043 0.58980
 H1650 H 0.91678 0.79914 0.61123
 H1651 H 0.86498 0.79580 0.52556
 H1652 H 0.84345 0.79957 0.57526
 H1653 H 0.81505 0.83385 0.57635
 H1654 H 0.78141 0.85586 0.55935
 H1655 H 0.78999 0.81672 0.49214
 H1656 H 0.82522 0.79538 0.50952
   
