data_POSCAR
  _audit_creation_date              2014-09-24
  _audit_creation_method            'ToBaCCo'
  _symmetry_space_group_name_H-M    'P1'
  _symmetry_Int_Tables_number       1
  _symmetry_cell_setting            triclinic
  loop_
  _symmetry_equiv_pos_as_xyz
 x,y,z
_cell_length_a 47.9777
_cell_length_b 47.9667
_cell_length_c 47.9093
_cell_angle_alpha 90.012500
_cell_angle_beta 90.012200
_cell_angle_gamma 90.025900
loop_
  _atom_site_label
  _atom_site_type_symbol
  _atom_site_fract_x
  _atom_site_fract_y
  _atom_site_fract_z
N1 N 0.31338 0.43608 0.93726
 N2 N 0.43979 0.81013 0.43919
 N3 N 0.93666 0.93753 0.81265
 N4 N 0.43940 -0.06157 0.31031
 N5 N 0.81165 0.31142 0.31052
 N6 N -0.18803 0.81251 0.81133
 N7 N 0.93964 0.31136 0.44003
 N8 N 0.43678 0.43731 0.81254
 N9 N 0.81133 0.93861 0.93767
 N10 N 0.31147 0.80990 0.31071
 N11 N 0.81219 0.43886 0.43809
 N12 N 0.93745 0.81291 -0.06211
 N13 N 0.31333 0.31358 0.81378
 N14 N 0.18926 0.56093 0.56122
 N15 N 0.56076 0.68942 0.06042
 N16 N 0.68891 0.18929 0.68847
 N17 N 1.06252 0.06238 0.18810
 N18 N 0.06096 0.18930 1.06155
 N19 N 0.18921 0.68954 0.68927
 N20 N 1.18839 0.18730 0.18905
 N21 N 0.68774 1.06249 0.56110
 N22 N 0.56019 0.55958 0.19001
 N23 N 0.68945 0.68905 0.18876
 N24 N 0.18907 0.05987 1.06106
 N25 N 0.56214 0.18816 0.56078
 N26 N 0.05943 0.56041 0.69097
 N27 N 0.68963 0.56115 0.06040
 N28 N 0.06145 0.68947 0.56090
 N29 N 0.56023 1.06118 0.68843
 N30 N 0.43690 0.31302 0.93666
 N31 N 0.93795 0.43826 0.31234
 N32 N 0.31010 0.93927 0.43983
 O33 O 0.21184 0.50224 0.67751
 O34 O 0.21592 0.45434 0.68617
 O35 O 0.17569 0.53725 0.74953
 O36 O 0.18358 0.53736 0.79581
 O37 O 0.24794 0.57381 0.71385
 O38 O 0.29661 0.56378 0.71665
 O39 O 0.25110 0.46349 0.82396
 O40 O 0.20330 0.46990 0.81677
 O41 O 0.28445 0.42695 0.75344
 O42 O 0.28311 0.43578 0.70390
 O43 O 0.32171 0.49716 0.78775
 O44 O 0.31368 0.54708 0.78547
 O45 O 0.28418 0.49758 0.82436
 O46 O 0.28184 0.54949 0.81312
 O47 O 0.32217 0.46444 0.75337
 O48 O 0.31069 0.46746 0.70154
 O49 O 0.25229 0.42808 0.78832
 O50 O 0.20147 0.43695 0.77872
 O51 O 0.24743 0.53377 0.67612
 O52 O 0.29712 0.53150 0.68690
 O53 O 0.21578 0.57539 0.74876
 O54 O 0.21972 0.56400 0.79934
 O55 O 0.17446 0.50263 0.71699
 O56 O 0.18552 0.45237 0.72291
 Zr57 Zr 0.21481 0.48517 0.71782
 O58 O 0.23978 0.45837 0.74202
 Zr59 Zr 0.21616 0.53499 0.76622
 O60 O 0.24000 0.50969 0.79308
 Zr61 Zr 0.26468 0.53342 0.71670
 O62 O 0.29130 0.50914 0.74184
 Zr63 Zr 0.23314 0.46734 0.78433
 O64 O 0.20605 0.49258 0.76028
 Zr65 Zr 0.28219 0.46683 0.73527
 O66 O 0.25730 0.49109 0.70812
 Zr67 Zr 0.28238 0.51600 0.78433
 O68 O 0.25860 0.54345 0.75911
 O69 O 0.22255 0.52731 0.72415
 O70 O 0.27551 0.47377 0.77758
 C71 C 0.22668 0.52079 0.66505
 C72 C 0.16331 0.52290 0.73054
 C73 C 0.22916 0.58636 0.72826
 C74 C 0.27103 0.47706 0.83561
 C75 C 0.27177 0.41609 0.77440
 C76 C 0.33341 0.47744 0.77395
 H77 H 0.23506 0.43875 0.73779
 H78 H 0.31090 0.51356 0.73731
 H79 H 0.21067 0.53924 0.71223
 H80 H 0.23539 0.51398 0.81274
 H81 H 0.18557 0.47577 0.80796
 H82 H 0.18755 0.52312 0.81019
 H83 H 0.32449 0.48235 0.70520
 H84 H 0.29505 0.51348 0.67704
 H85 H 0.20245 0.42381 0.79467
 H86 H 0.17099 0.45410 0.70827
 H87 H 0.32366 0.54653 0.76742
 H88 H 0.29627 0.57263 0.73531
 H89 H 0.23475 0.45507 0.67777
 H90 H 0.26482 0.42627 0.70404
 H91 H 0.23680 0.57505 0.79584
 H92 H 0.26682 0.54586 0.82678
 O93 O 0.25180 -0.03861 0.32318
 O94 O 0.20392 -0.03443 0.31451
 O95 O 0.28671 -0.07484 0.25114
 O96 O 0.28653 -0.06709 0.20484
 O97 O 0.32349 -0.00281 0.28663
 O98 O 0.31361 0.04594 0.28395
 O99 O 0.21313 0.00037 0.17661
 O100 O 0.21912 -0.04729 0.18406
 O101 O 0.17663 0.03414 0.24738
 O102 O 0.18560 0.03295 0.29681
 O103 O 0.24686 0.07121 0.21279
 O104 O 0.29634 0.06344 0.21478
 O105 O 0.24746 0.03321 0.17610
 O106 O 0.29939 0.03107 0.18786
 O107 O 0.21432 0.07185 0.24732
 O108 O 0.21737 0.06035 0.29912
 O109 O 0.17759 0.00199 0.21246
 O110 O 0.18626 -0.04881 0.22211
 O111 O 0.28342 -0.00308 0.32452
 O112 O 0.28142 0.04661 0.31367
 O113 O 0.32484 -0.03495 0.25168
 O114 O 0.31333 -0.03106 0.20117
 O115 O 0.25221 -0.07599 0.28379
 O116 O 0.20193 -0.06489 0.27777
 Zr117 Zr 0.23474 -0.03563 0.28287
 O118 O 0.20798 -0.01057 0.25871
 Zr119 Zr 0.28442 -0.03443 0.23438
 O120 O 0.25915 -0.01055 0.20757
 Zr121 Zr 0.28313 0.01411 0.28390
 O122 O 0.25890 0.04078 0.25877
 Zr123 Zr 0.21679 -0.01729 0.21639
 O124 O 0.24201 -0.04444 0.24040
 Zr125 Zr 0.21657 0.03184 0.26539
 O126 O 0.24080 0.00688 0.29253
 Zr127 Zr 0.26561 0.03182 0.21627
 O128 O 0.29304 0.00800 0.24146
 O129 O 0.27688 -0.02800 0.27648
 O130 O 0.22335 0.02511 0.22304
 C131 C 0.27038 -0.02377 0.33563
 C132 C 0.27248 -0.08715 0.27024
 C133 C 0.33593 -0.02161 0.27215
 C134 C 0.22700 0.01999 0.16481
 C135 C 0.16565 0.02145 0.22648
 C136 C 0.22731 0.08305 0.22670
 H137 H 0.18835 -0.01523 0.26300
 H138 H 0.26339 0.06038 0.26327
 H139 H 0.28881 -0.03987 0.28840
 H140 H 0.26343 -0.01525 0.18793
 H141 H 0.22497 -0.06500 0.19292
 H142 H 0.27231 -0.06308 0.19047
 H143 H 0.23232 0.07409 0.29546
 H144 H 0.26340 0.04464 0.32354
 H145 H 0.17310 -0.04781 0.20618
 H146 H 0.20365 -0.07941 0.29242
 H147 H 0.29671 0.07259 0.23326
 H148 H 0.32255 0.04546 0.26533
 H149 H 0.20473 -0.01560 0.32294
 H150 H 0.17612 0.01464 0.29681
 H151 H 0.32459 -0.01412 0.20471
 H152 H 0.29572 0.01615 0.17407
 O153 O 0.50226 0.67596 0.21296
 O154 O 0.45460 0.68422 0.21743
 O155 O 0.53654 0.74821 0.17626
 O156 O 0.53648 0.79433 0.18398
 O157 O 0.57408 0.71296 0.24819
 O158 O 0.56471 0.71557 0.29692
 O159 O 0.46241 0.82184 0.25233
 O160 O 0.46851 0.81511 0.20480
 O161 O 0.42796 0.75214 0.28726
 O162 O 0.43648 0.70228 0.28519
 O163 O 0.49766 0.78661 0.32265
 O164 O 0.54662 0.78539 0.31473
 O165 O 0.49752 0.82308 0.28434
 O166 O 0.54977 0.81148 0.28155
 O167 O 0.46585 0.75147 0.32397
 O168 O 0.46869 0.69992 0.31226
 O169 O 0.42686 0.78458 0.25262
 O170 O 0.43685 0.77619 0.20215
 O171 O 0.53426 0.67488 0.24817
 O172 O 0.53247 0.68593 0.29808
 O173 O 0.57501 0.74777 0.21590
 O174 O 0.56308 0.79837 0.22000
 O175 O 0.50230 0.71530 0.17542
 O176 O 0.45197 0.72083 0.18703
 Zr177 Zr 0.48511 0.71611 0.21600
 O178 O 0.45840 0.73999 0.24136
 Zr179 Zr 0.53448 0.76489 0.21673
 O180 O 0.50906 0.79153 0.24065
 Zr181 Zr 0.53389 0.71551 0.26540
 O182 O 0.50984 0.74062 0.29225
 Zr183 Zr 0.46670 0.78229 0.23429
 O184 O 0.49202 0.75854 0.20699
 Zr185 Zr 0.46750 0.73364 0.28379
 O186 O 0.49157 0.70662 0.25855
 Zr187 Zr 0.51600 0.78310 0.28303
 O188 O 0.54346 0.75798 0.25915
 O189 O 0.52727 0.72279 0.22327
 O190 O 0.47373 0.77596 0.27673
 C191 C 0.52104 0.66366 0.22762
 C192 C 0.52235 0.72903 0.16406
 C193 C 0.58630 0.72742 0.22923
 C194 C 0.47661 0.83399 0.27154
 C195 C 0.41589 0.77154 0.27330
 C196 C 0.47858 0.77238 0.33487
 H197 H 0.43880 0.73545 0.23687
 H198 H 0.51460 0.73627 0.31185
 H199 H 0.53915 0.71094 0.21129
 H200 H 0.51312 0.81116 0.23585
 H201 H 0.47482 0.80671 0.18701
 H202 H 0.52196 0.80843 0.18781
 H203 H 0.48400 0.70346 0.32563
 H204 H 0.51470 0.67564 0.29599
 H205 H 0.42334 0.79181 0.20297
 H206 H 0.45379 0.70630 0.17240
 H207 H 0.54831 0.76658 0.32299
 H208 H 0.57358 0.73420 0.29637
 H209 H 0.45492 0.67655 0.23661
 H210 H 0.42618 0.70286 0.26732
 H211 H 0.57487 0.79465 0.23655
 H212 H 0.54557 0.82554 0.26703
 O213 O 0.07356 0.71343 0.74835
 O214 O 0.06518 0.71805 0.79611
 O215 O 0.00143 0.67679 0.71390
 O216 O -0.04465 0.68457 0.71363
 O217 O 0.03696 0.74872 0.67638
 O218 O 0.03431 0.79739 0.68581
 O219 O -0.07238 0.75311 0.78769
 O220 O -0.06573 0.70547 0.78165
 O221 O -0.00287 0.78788 0.82249
 O222 O 0.04712 0.78560 0.81416
 O223 O -0.03701 0.82297 0.75263
 O224 O -0.03521 0.81490 0.70319
 O225 O -0.07335 0.78506 0.75252
 O226 O -0.06177 0.78211 0.70037
 O227 O -0.00213 0.82431 0.78476
 O228 O 0.04953 0.81279 0.78191
 O229 O -0.03547 0.75340 0.82342
 O230 O -0.02700 0.70289 0.81360
 O231 O 0.07478 0.74856 0.71626
 O232 O 0.06392 0.79843 0.71823
 O233 O 0.00216 0.71644 0.67528
 O234 O -0.04850 0.72051 0.68703
 O235 O 0.03411 0.67598 0.74839
 O236 O 0.02853 0.68772 0.79873
 Zr237 Zr 0.03337 0.71656 0.76548
 O238 O 0.00938 0.74192 0.79212
 Zr239 Zr -0.01517 0.71725 0.71580
 O240 O -0.04190 0.74119 0.74112
 Zr241 Zr 0.03425 0.76586 0.71662
 O242 O 0.00908 0.79273 0.74058
 Zr243 Zr -0.03289 0.73490 0.78360
 O244 O -0.00904 0.70760 0.75837
 Zr245 Zr 0.01586 0.78427 0.78301
 O246 O 0.04295 0.75904 0.75903
 Zr247 Zr -0.03335 0.78350 0.73415
 O248 O -0.00816 0.75959 0.70681
 O249 O 0.02687 0.72378 0.72323
 O250 O -0.02641 0.77723 0.77651
 C251 C 0.08590 0.72799 0.72949
 C252 C 0.02046 0.66459 0.72828
 C253 C 0.02256 0.72977 0.66408
 C254 C -0.08436 0.77239 0.77348
 C255 C -0.02247 0.77410 0.83444
 C256 C -0.02304 0.83511 0.77198
 H257 H 0.01379 0.73746 0.81178
 H258 H 0.01348 0.81230 0.73586
 H259 H 0.03873 0.71177 0.71137
 H260 H -0.06152 0.73642 0.73699
 H261 H -0.05732 0.68768 0.77543
 H262 H -0.05872 0.68833 0.72820
 H263 H 0.04594 0.82623 0.76667
 H264 H 0.07408 0.79631 0.73609
 H265 H -0.04268 0.70379 0.82706
 H266 H 0.04304 0.67310 0.79698
 H267 H -0.01672 0.82398 0.70249
 H268 H 0.01563 0.79699 0.67703
 H269 H 0.07288 0.73719 0.79576
 H270 H 0.04634 0.76783 0.82458
 H271 H -0.04475 0.73707 0.67529
 H272 H -0.07571 0.76746 0.70445
 O273 O 0.00058 0.07483 0.03617
 O274 O -0.04729 0.06604 0.03155
 O275 O 0.03369 0.00228 0.07464
 O276 O 0.03491 -0.04367 0.06667
 O277 O 0.07301 0.03713 0.00207
 O278 O 0.06374 0.03410 -0.04675
 O279 O -0.03886 -0.07141 -0.00240
 O280 O -0.03299 -0.06449 0.04539
 O281 O -0.07306 -0.00209 -0.03769
 O282 O -0.06415 0.04839 -0.03535
 O283 O -0.00341 -0.03661 -0.07227
 O284 O 0.04657 -0.03463 -0.06339
 O285 O -0.00352 -0.07272 -0.03414
 O286 O 0.04822 -0.06177 -0.03121
 O287 O -0.03524 -0.00152 -0.07399
 O288 O -0.03250 0.04981 -0.06312
 O289 O -0.07437 -0.03436 -0.00289
 O290 O -0.06486 -0.02560 0.04754
 O291 O 0.03339 0.07542 0.00171
 O292 O 0.03188 0.06429 -0.04803
 O293 O 0.07335 0.00293 0.03504
 O294 O 0.06146 -0.04770 0.03109
 O295 O 0.00130 0.03697 0.07375
 O296 O -0.04914 0.02984 0.06292
 Zr297 Zr -0.01637 0.03461 0.03356
 O298 O -0.04296 0.01045 0.00833
 Zr299 Zr 0.03282 -0.01425 0.03391
 O300 O 0.00769 -0.04102 0.00979
 Zr301 Zr 0.03285 0.03473 -0.01531
 O302 O 0.00883 0.00958 -0.04219
 Zr303 Zr -0.03470 -0.03181 0.01573
 O304 O -0.00970 -0.00777 0.04310
 Zr305 Zr -0.03357 0.01661 -0.03402
 O306 O -0.00950 0.04379 -0.00895
 Zr307 Zr 0.01496 -0.03281 -0.03263
 O308 O 0.04221 -0.00768 -0.00850
 O309 O 0.02585 0.02777 0.02679
 O310 O -0.02734 -0.02564 -0.02665
 C311 C 0.01982 0.08685 0.02190
 C312 C 0.02041 0.02266 0.08592
 C313 C 0.08495 0.02290 0.02139
 C314 C -0.02459 -0.08356 -0.02156
 C315 C -0.08518 -0.02150 -0.02376
 C316 C -0.02257 -0.02258 -0.08462
 H317 H -0.06259 0.01499 0.01270
 H318 H 0.01367 0.01383 -0.06178
 H319 H 0.03773 0.03970 0.03872
 H320 H 0.01167 -0.06064 0.01471
 H321 H -0.02704 -0.05595 0.06323
 H322 H 0.02006 -0.05751 0.06311
 H323 H -0.01664 0.04653 -0.07589
 H324 H 0.01390 0.07428 -0.04640
 H325 H -0.07825 -0.04135 0.04678
 H326 H -0.04751 0.04481 0.07713
 H327 H 0.04608 -0.01692 -0.07393
 H328 H 0.07212 0.01525 -0.04626
 H329 H -0.04664 0.07379 0.01241
 H330 H -0.07568 0.04676 -0.01831
 H331 H 0.07314 -0.04423 0.01442
 H332 H 0.04440 -0.07502 -0.01586
 O333 O 0.07362 0.53727 0.50223
 O334 O 0.06521 0.53267 0.45449
 O335 O 0.00176 0.57418 0.53668
 O336 O -0.04447 0.56666 0.53660
 O337 O 0.03667 0.50223 0.57437
 O338 O 0.03393 0.45357 0.56494
 O339 O -0.07234 0.49814 0.46265
 O340 O -0.06552 0.54570 0.46878
 O341 O -0.00304 0.46305 0.42814
 O342 O 0.04702 0.46524 0.43649
 O343 O -0.03713 0.42792 0.49800
 O344 O -0.03565 0.43625 0.54736
 O345 O -0.07351 0.46609 0.49772
 O346 O -0.06217 0.46900 0.54993
 O347 O -0.00205 0.42651 0.46612
 O348 O 0.04942 0.43816 0.46866
 O349 O -0.03544 0.49768 0.42707
 O350 O -0.02671 0.54813 0.43687
 O351 O 0.07466 0.50223 0.53440
 O352 O 0.06361 0.45241 0.53267
 O353 O 0.00191 0.53451 0.57532
 O354 O -0.04862 0.53078 0.56337
 O355 O 0.03456 0.57481 0.50232
 O356 O 0.02868 0.56324 0.45198
 Zr357 Zr 0.03345 0.53429 0.48514
 O358 O 0.00944 0.50900 0.45846
 Zr359 Zr -0.01518 0.53382 0.53469
 O360 O -0.04193 0.50989 0.50933
 Zr361 Zr 0.03404 0.48506 0.53409
 O362 O 0.00886 0.45825 0.51005
 Zr363 Zr -0.03280 0.51616 0.46688
 O364 O -0.00892 0.54343 0.49214
 Zr365 Zr 0.01575 0.46664 0.46762
 O366 O 0.04286 0.49180 0.49169
 Zr367 Zr -0.03358 0.46754 0.51631
 O368 O -0.00838 0.49144 0.54372
 O369 O 0.02686 0.52713 0.52740
 O370 O -0.02652 0.47378 0.47397
 C371 C 0.08588 0.52270 0.52110
 C372 C 0.02098 0.58625 0.52243
 C373 C 0.02221 0.52113 0.58665
 C374 C -0.08441 0.47886 0.47677
 C375 C -0.02254 0.47691 0.41611
 C376 C -0.02293 0.41566 0.47891
 H377 H 0.01390 0.51344 0.43880
 H378 H 0.01322 0.43869 0.51483
 H379 H 0.03875 0.53906 0.53932
 H380 H -0.06155 0.51471 0.51340
 H381 H -0.05703 0.56349 0.47495
 H382 H -0.05867 0.56276 0.52218
 H383 H 0.04604 0.42496 0.48416
 H384 H 0.07382 0.45444 0.51484
 H385 H -0.04240 0.54732 0.42341
 H386 H 0.04333 0.57774 0.45369
 H387 H -0.01717 0.42720 0.54822
 H388 H 0.01524 0.45404 0.57367
 H389 H 0.07280 0.51349 0.45482
 H390 H 0.04616 0.48291 0.42590
 H391 H -0.04513 0.51406 0.57497
 H392 H -0.07601 0.48372 0.54579
 O393 O 0.42639 -0.00216 0.46231
 O394 O 0.43470 0.04554 0.46659
 O395 O 0.49862 -0.03662 0.42576
 O396 O 0.54474 -0.03644 0.43346
 O397 O 0.46338 -0.07385 0.49781
 O398 O 0.46602 -0.06420 0.54655
 O399 O 0.57227 0.03792 0.50158
 O400 O 0.56552 0.03148 0.45395
 O401 O 0.50285 0.07248 0.53637
 O402 O 0.45280 0.06405 0.53412
 O403 O 0.53694 0.00293 0.57201
 O404 O 0.53564 -0.04621 0.56413
 O405 O 0.57341 0.00305 0.53384
 O406 O 0.56200 -0.04922 0.53116
 O407 O 0.50184 0.03476 0.57317
 O408 O 0.45037 0.03205 0.56142
 O409 O 0.53533 0.07338 0.50177
 O410 O 0.52669 0.06331 0.45131
 O411 O 0.42533 -0.03403 0.49764
 O412 O 0.43631 -0.03203 0.54750
 O413 O 0.49819 -0.07491 0.46554
 O414 O 0.54875 -0.06294 0.46961
 O415 O 0.46575 -0.00237 0.42478
 O416 O 0.47130 0.04803 0.43616
 Zr417 Zr 0.46656 0.01503 0.46528
 O418 O 0.49049 0.04188 0.49050
 Zr419 Zr 0.51531 -0.03435 0.46621
 O420 O 0.54196 -0.00882 0.49004
 Zr421 Zr 0.46593 -0.03355 0.51486
 O422 O 0.49102 -0.00933 0.54162
 Zr423 Zr 0.53276 0.03351 0.48348
 O424 O 0.50899 0.00807 0.45630
 Zr425 Zr 0.48410 0.03299 0.53296
 O426 O 0.45708 0.00875 0.50785
 Zr427 Zr 0.53349 -0.01557 0.53245
 O428 O 0.50839 -0.04315 0.50866
 O429 O 0.47323 -0.02711 0.47272
 O430 O 0.52639 0.02667 0.52594
 C431 C 0.41410 -0.02090 0.47705
 C432 C 0.47944 -0.02249 0.41351
 C433 C 0.47784 -0.08616 0.47891
 C434 C 0.58432 0.02392 0.52097
 C435 C 0.52239 0.08443 0.52248
 C436 C 0.52271 0.02206 0.58415
 H437 H 0.48601 0.06148 0.48593
 H438 H 0.48664 -0.01400 0.56122
 H439 H 0.46137 -0.03906 0.46080
 H440 H 0.56160 -0.01289 0.48529
 H441 H 0.55706 0.02520 0.43618
 H442 H 0.55891 -0.02198 0.43731
 H443 H 0.45376 0.01667 0.57475
 H444 H 0.42611 -0.01422 0.54539
 H445 H 0.54237 0.07677 0.45206
 H446 H 0.45676 0.04614 0.42154
 H447 H 0.51695 -0.04752 0.57270
 H448 H 0.48465 -0.07306 0.54602
 H449 H 0.42715 0.04540 0.48582
 H450 H 0.45366 0.07449 0.51635
 H451 H 0.54507 -0.07458 0.48627
 H452 H 0.57601 -0.04507 0.51659
 O453 O 0.50223 0.57344 0.03695
 O454 O 0.45455 0.56498 0.03266
 O455 O 0.53689 0.50138 0.07352
 O456 O 0.53701 0.45522 0.06571
 O457 O 0.57401 0.53685 0.00136
 O458 O 0.56434 0.53411 -0.04735
 O459 O 0.46276 0.42751 -0.00264
 O460 O 0.46926 0.43408 0.04511
 O461 O 0.42794 0.49675 -0.03713
 O462 O 0.43625 0.54705 -0.03463
 O463 O 0.49739 0.46298 -0.07278
 O464 O 0.54705 0.46487 -0.06471
 O465 O 0.49757 0.42659 -0.03498
 O466 O 0.54962 0.43789 -0.03226
 O467 O 0.46529 0.49784 -0.07382
 O468 O 0.46803 0.54935 -0.06229
 O469 O 0.42721 0.46416 -0.00262
 O470 O 0.43723 0.47277 0.04790
 O471 O 0.53412 0.57467 0.00164
 O472 O 0.53204 0.56381 -0.04820
 O473 O 0.57525 0.50202 0.03363
 O474 O 0.56356 0.45143 0.02959
 O475 O 0.50247 0.53405 0.07449
 O476 O 0.45216 0.52833 0.06305
 Zr477 Zr 0.48517 0.53322 0.03397
 O478 O 0.45843 0.50919 0.00875
 Zr479 Zr 0.53478 0.48470 0.03301
 O480 O 0.50940 0.45796 0.00910
 Zr481 Zr 0.53373 0.53411 -0.01564
 O482 O 0.50961 0.50898 -0.04244
 Zr483 Zr 0.46704 0.46693 0.01569
 O484 O 0.49234 0.49081 0.04291
 Zr485 Zr 0.46729 0.51571 -0.03370
 O486 O 0.49142 0.54280 -0.00858
 Zr487 Zr 0.51609 0.46653 -0.03331
 O488 O 0.54352 0.49170 -0.00944
 O489 O 0.52733 0.52675 0.02652
 O490 O 0.47385 0.47346 -0.02672
 C491 C 0.52096 0.58580 0.02227
 C492 C 0.52261 0.52043 0.08581
 C493 C 0.58638 0.52244 0.02025
 C494 C 0.47669 0.41561 -0.02219
 C495 C 0.41614 0.47706 -0.02334
 C496 C 0.47799 0.47696 -0.08478
 H497 H 0.43881 0.51355 0.01333
 H498 H 0.51420 0.51342 -0.06205
 H499 H 0.53923 0.53863 0.03848
 H500 H 0.51354 0.43832 0.01380
 H501 H 0.47548 0.44253 0.06292
 H502 H 0.52266 0.44095 0.06180
 H503 H 0.48337 0.54596 -0.07566
 H504 H 0.51414 0.57385 -0.04612
 H505 H 0.42386 0.45701 0.04710
 H506 H 0.45396 0.54289 0.07767
 H507 H 0.54723 0.48315 -0.07424
 H508 H 0.57303 0.51539 -0.04703
 H509 H 0.45464 0.57252 0.01343
 H510 H 0.42547 0.54575 -0.01709
 H511 H 0.57499 0.45506 0.01278
 H512 H 0.54568 0.42407 -0.01744
 O513 O 0.78718 0.32396 0.49804
 O514 O 0.78242 0.31554 0.54585
 O515 O 0.82399 0.25207 0.46366
 O516 O 0.81637 0.20587 0.46361
 O517 O 0.75212 0.28723 0.42594
 O518 O 0.70344 0.28452 0.43527
 O519 O 0.74746 0.17801 0.53736
 O520 O 0.79508 0.18460 0.53137
 O521 O 0.71274 0.24749 0.57203
 O522 O 0.71479 0.29735 0.56371
 O523 O 0.67769 0.21325 0.50192
 O524 O 0.68614 0.21510 0.45242
 O525 O 0.71563 0.17695 0.50207
 O526 O 0.71872 0.18836 0.45000
 O527 O 0.67625 0.24817 0.53401
 O528 O 0.68787 0.29986 0.53131
 O529 O 0.74730 0.21503 0.57310
 O530 O 0.79775 0.22341 0.56326
 O531 O 0.75221 0.32510 0.46578
 O532 O 0.70235 0.31422 0.46764
 O533 O 0.78442 0.25248 0.42498
 O534 O 0.78051 0.20186 0.43674
 O535 O 0.82462 0.28481 0.49810
 O536 O 0.81288 0.27895 0.54843
 Zr537 Zr 0.78405 0.28379 0.51517
 O538 O 0.75865 0.25976 0.54172
 Zr539 Zr 0.78359 0.23523 0.46553
 O540 O 0.75957 0.20846 0.49076
 Zr541 Zr 0.73490 0.28455 0.46615
 O542 O 0.70799 0.25936 0.49005
 Zr543 Zr 0.76573 0.21749 0.53325
 O544 O 0.79310 0.24138 0.50812
 Zr545 Zr 0.71632 0.26615 0.53250
 O546 O 0.74159 0.29329 0.50858
 Zr547 Zr 0.71727 0.21693 0.48366
 O548 O 0.74126 0.24214 0.45639
 O549 O 0.77694 0.27725 0.47290
 O550 O 0.72340 0.22388 0.52605
 C551 C 0.77273 0.33625 0.47908
 C552 C 0.83608 0.27124 0.47798
 C553 C 0.77109 0.27284 0.41371
 C554 C 0.72822 0.16599 0.52309
 C555 C 0.72661 0.22803 0.58409
 C556 C 0.66546 0.22728 0.52115
 H557 H 0.76307 0.26420 0.56139
 H558 H 0.68844 0.26374 0.48525
 H559 H 0.78894 0.28913 0.46105
 H560 H 0.76435 0.18884 0.48666
 H561 H 0.81290 0.19299 0.52517
 H562 H 0.81240 0.19162 0.47796
 H563 H 0.67449 0.29629 0.51600
 H564 H 0.70443 0.32441 0.48549
 H565 H 0.79686 0.20772 0.57672
 H566 H 0.82744 0.29356 0.54676
 H567 H 0.67673 0.23342 0.45199
 H568 H 0.70385 0.26581 0.42655
 H569 H 0.76335 0.32337 0.54529
 H570 H 0.73269 0.29688 0.57393
 H571 H 0.76387 0.20547 0.42507
 H572 H 0.73348 0.17455 0.45408
 O573 O 0.78636 0.82386 -0.00218
 O574 O 0.78178 0.81547 0.04567
 O575 O 0.82317 0.75200 -0.03662
 O576 O 0.81567 0.70574 -0.03653
 O577 O 0.75130 0.78700 -0.07410
 O578 O 0.70254 0.78409 -0.06467
 O579 O 0.74744 0.67779 0.03744
 O580 O 0.79492 0.68466 0.03126
 O581 O 0.71246 0.74723 0.07217
 O582 O 0.71442 0.79718 0.06378
 O583 O 0.67710 0.71297 0.00230
 O584 O 0.68501 0.71435 -0.04677
 O585 O 0.71545 0.67658 0.00231
 O586 O 0.71815 0.68829 -0.04996
 O587 O 0.67575 0.74803 0.03424
 O588 O 0.68730 0.79956 0.03162
 O589 O 0.74715 0.71490 0.07314
 O590 O 0.79749 0.72349 0.06311
 O591 O 0.75130 0.82487 -0.03435
 O592 O 0.70144 0.81383 -0.03231
 O593 O 0.78370 0.75234 -0.07510
 O594 O 0.77969 0.70170 -0.06337
 O595 O 0.82386 0.78486 -0.00228
 O596 O 0.81243 0.77900 0.04810
 Zr597 Zr 0.78340 0.78371 0.01500
 O598 O 0.75821 0.75964 0.04169
 Zr599 Zr 0.78285 0.73505 -0.03458
 O600 O 0.75902 0.70827 -0.00920
 Zr601 Zr 0.73408 0.78426 -0.03387
 O602 O 0.70735 0.75904 -0.00979
 Zr603 Zr 0.76539 0.71739 0.03324
 O604 O 0.79256 0.74132 0.00795
 Zr605 Zr 0.71583 0.76592 0.03263
 O606 O 0.74090 0.79309 0.00854
 Zr607 Zr 0.71666 0.71660 -0.01609
 O608 O 0.74045 0.74184 -0.04355
 O609 O 0.77614 0.77707 -0.02722
 O610 O 0.72298 0.72363 0.02626
 C611 C 0.77184 0.83608 -0.02114
 C612 C 0.83523 0.77130 -0.02245
 C613 C 0.77037 0.77272 -0.08633
 C614 C 0.72827 0.66564 0.02322
 C615 C 0.72647 0.72784 0.08419
 C616 C 0.66488 0.72714 0.02145
 H617 H 0.76271 0.76412 0.06133
 H618 H 0.68778 0.76336 -0.01453
 H619 H 0.78806 0.78898 -0.03911
 H620 H 0.76385 0.68866 -0.01332
 H621 H 0.81265 0.69314 0.02495
 H622 H 0.81167 0.69139 -0.02228
 H623 H 0.67407 0.79614 0.01616
 H624 H 0.70358 0.82409 -0.01452
 H625 H 0.79675 0.70781 0.07658
 H626 H 0.82690 0.79368 0.04635
 H627 H 0.67668 0.73313 -0.04835
 H628 H 0.70329 0.76554 -0.07370
 H629 H 0.76268 0.82324 0.04517
 H630 H 0.73227 0.79660 0.07408
 H631 H 0.76310 0.70538 -0.07510
 H632 H 0.73276 0.67433 -0.04585
 O633 O 0.92750 0.25219 0.28794
 O634 O 0.93609 0.20424 0.28381
 O635 O 0.99931 0.28706 0.32452
 O636 O 1.04558 0.28701 0.31687
 O637 O 0.96406 0.32366 0.25218
 O638 O 0.96710 0.31373 0.20335
 O639 O 1.07392 0.21330 0.24946
 O640 O 1.06643 0.21963 0.29721
 O641 O 1.00353 0.17678 0.21561
 O642 O 0.95431 0.18555 0.21639
 O643 O 1.03807 0.24717 0.17836
 O644 O 1.03611 0.29670 0.18636
 O645 O 1.07457 0.24748 0.21645
 O646 O 1.06311 0.29947 0.21872
 O647 O 1.00363 0.21456 0.17766
 O648 O 0.95183 0.21744 0.18914
 O649 O 1.03820 0.17783 0.24801
 O650 O 1.02838 0.18673 0.29877
 O651 O 0.92634 0.28377 0.25234
 O652 O 0.93734 0.28148 0.20262
 O653 O 0.99873 0.32515 0.28461
 O654 O 1.04927 0.31379 0.28072
 O655 O 0.96669 0.25254 0.32555
 O656 O 0.97263 0.20223 0.31446
 Zr657 Zr 0.96773 0.23503 0.28514
 O658 O 0.99198 0.20825 0.26021
 Zr659 Zr 1.01617 0.28478 0.28410
 O660 O 1.04306 0.25947 0.26033
 Zr661 Zr 0.96694 0.28332 0.23527
 O662 O 0.99215 0.25905 0.20871
 Zr663 Zr 1.03421 0.21712 0.26711
 O664 O 1.01010 0.24237 0.29415
 Zr665 Zr 0.98550 0.21672 0.21770
 O666 O 0.95828 0.24098 0.24253
 Zr667 Zr 1.03455 0.26583 0.21785
 O668 O 1.00929 0.29329 0.24157
 O669 O 0.97418 0.27715 0.27747
 O670 O 1.02775 0.22356 0.22461
 C671 C 0.91517 0.27082 0.27307
 C672 C 0.98020 0.27281 0.33679
 C673 C 0.97829 0.33613 0.27118
 C674 C 1.08573 0.22699 0.22971
 C675 C 1.02431 0.16583 0.22849
 C676 C 1.02417 0.22763 0.16645
 H677 H 0.98768 0.18862 0.26489
 H678 H 0.98772 0.26351 0.18907
 H679 H 0.96224 0.28907 0.28933
 H680 H 1.06266 0.26374 0.26508
 H681 H 1.05754 0.22554 0.31490
 H682 H 1.06002 0.27288 0.31285
 H683 H 0.95551 0.23237 0.17538
 H684 H 0.92738 0.26353 0.20467
 H685 H 1.04431 0.17360 0.29791
 H686 H 0.95795 0.20399 0.32894
 H687 H 1.01776 0.29689 0.17696
 H688 H 0.98563 0.32279 0.20402
 H689 H 0.92770 0.20509 0.26496
 H690 H 0.95390 0.17644 0.23490
 H691 H 1.04574 0.32498 0.26372
 H692 H 1.07680 0.29577 0.23371
 O693 O 0.74771 1.07375 0.71255
 O694 O 0.79539 1.06531 0.71698
 O695 O 0.71309 1.00185 0.67573
 O696 O 0.71320 0.95559 0.68329
 O697 O 0.67573 1.03694 0.74773
 O698 O 0.68517 1.03418 0.79646
 O699 O 0.78722 0.92782 0.75172
 O700 O 0.78102 0.93461 0.70408
 O701 O 0.82172 0.99721 0.78679
 O702 O 0.81333 1.04738 0.78444
 O703 O 0.75213 0.96308 0.82201
 O704 O 0.70290 0.96451 0.81396
 O705 O 0.75224 0.92668 0.78385
 O706 O 0.70003 0.93811 0.78098
 O707 O 0.78406 0.99812 0.82331
 O708 O 0.78134 1.04962 0.81180
 O709 O 0.82271 0.96469 0.75222
 O710 O 0.81293 0.97341 0.70164
 O711 O 0.71563 1.07486 0.74769
 O712 O 0.71749 1.06383 0.79760
 O713 O 0.67469 1.00218 0.71538
 O714 O 0.68652 0.95154 0.71932
 O715 O 0.74740 1.03468 0.67499
 O716 O 0.79774 1.02872 0.68640
 Zr717 Zr 0.76473 1.03357 0.71549
 O718 O 0.79142 1.00960 0.74078
 Zr719 Zr 0.71520 0.98495 0.71613
 O720 O 0.74058 0.95822 0.74002
 Zr721 Zr 0.71595 1.03425 0.76490
 O722 O 0.73999 1.00909 0.79171
 Zr723 Zr 0.78297 0.96735 0.73366
 O724 O 0.75768 0.99118 0.70640
 Zr725 Zr 0.78233 1.01599 0.78319
 O726 O 0.75828 1.04307 0.75804
 Zr727 Zr 0.73369 0.96663 0.78243
 O728 O 0.70627 0.99181 0.75857
 O729 O 0.72255 1.02699 0.72278
 O730 O 0.77595 0.97371 0.77608
 C731 C 0.72889 1.08604 0.72715
 C732 C 0.72724 1.02112 0.66362
 C733 C 0.66345 1.02255 0.72874
 C734 C 0.77316 0.91576 0.77106
 C735 C 0.83367 0.97762 0.77301
 C736 C 0.77134 0.97721 0.83419
 H737 H 0.81105 1.01406 0.73630
 H738 H 0.73527 1.01344 0.81131
 H739 H 0.71066 1.03890 0.71086
 H740 H 0.73649 0.93859 0.73522
 H741 H 0.77481 0.94309 0.68629
 H742 H 0.72761 0.94140 0.68717
 H743 H 0.76593 1.04617 0.82508
 H744 H 0.73529 1.07405 0.79551
 H745 H 0.82637 0.95773 0.70248
 H746 H 0.79599 1.04334 0.67186
 H747 H 0.70178 0.98313 0.82273
 H748 H 0.67636 1.01551 0.79594
 H749 H 0.79517 1.07290 0.73619
 H750 H 0.82409 1.04627 0.76688
 H751 H 0.67487 0.95518 0.73598
 H752 H 0.70418 0.92416 0.76635
 O753 O 0.74841 0.57350 0.21265
 O754 O 0.79612 0.56518 0.21713
 O755 O 0.71398 0.50153 0.17586
 O756 O 0.71412 0.45530 0.18344
 O757 O 0.67653 0.53651 0.24801
 O758 O 0.68605 0.53390 0.29665
 O759 O 0.78817 0.42758 0.25180
 O760 O 0.78204 0.43442 0.20424
 O761 O 0.82261 0.49720 0.28690
 O762 O 0.81415 0.54725 0.28460
 O763 O 0.75318 0.46284 0.32217
 O764 O 0.70390 0.46420 0.31417
 O765 O 0.75317 0.42640 0.28390
 O766 O 0.70101 0.43784 0.28125
 O767 O 0.78497 0.49800 0.32347
 O768 O 0.78210 0.54950 0.31190
 O769 O 0.82369 0.46468 0.25232
 O770 O 0.81382 0.47328 0.20177
 O771 O 0.71636 0.57456 0.24781
 O772 O 0.71832 0.56356 0.29774
 O773 O 0.67552 0.50171 0.21569
 O774 O 0.68752 0.45116 0.21943
 O775 O 0.74827 0.53437 0.17510
 O776 O 0.79858 0.52861 0.18657
 Zr777 Zr 0.76553 0.53337 0.21563
 O778 O 0.79226 0.50945 0.24092
 Zr779 Zr 0.71610 0.48466 0.21629
 O780 O 0.74153 0.45798 0.24019
 Zr781 Zr 0.71679 0.53397 0.26506
 O782 O 0.74086 0.50884 0.29187
 Zr783 Zr 0.78391 0.46716 0.23382
 O784 O 0.75857 0.49095 0.20656
 Zr785 Zr 0.78318 0.51584 0.28334
 O786 O 0.75909 0.54287 0.25817
 Zr787 Zr 0.73466 0.46637 0.28261
 O788 O 0.70720 0.49151 0.25874
 O789 O 0.72336 0.52672 0.22293
 O790 O 0.77691 0.47352 0.27625
 C791 C 0.72957 0.58577 0.22726
 C792 C 0.72816 0.52076 0.16372
 C793 C 0.66424 0.52202 0.22912
 C794 C 0.77404 0.41546 0.27106
 C795 C 0.83461 0.47768 0.27308
 C796 C 0.77233 0.47705 0.33435
 H797 H 0.81187 0.51395 0.23643
 H798 H 0.73615 0.51320 0.31148
 H799 H 0.71142 0.53857 0.21100
 H800 H 0.73746 0.43835 0.23537
 H801 H 0.77579 0.44287 0.18645
 H802 H 0.72863 0.44119 0.18726
 H803 H 0.76674 0.54601 0.32522
 H804 H 0.73607 0.57387 0.29559
 H805 H 0.82732 0.45765 0.20261
 H806 H 0.79682 0.54323 0.17203
 H807 H 0.70285 0.48278 0.32304
 H808 H 0.67739 0.51516 0.29629
 H809 H 0.79579 0.57285 0.23631
 H810 H 0.82475 0.54632 0.26693
 H811 H 0.67591 0.45470 0.23614
 H812 H 0.70508 0.42396 0.26653
 O813 O 0.50144 0.17710 0.71177
 O814 O 0.45352 0.18594 0.71598
 O815 O 0.53662 0.24878 0.67544
 O816 O 0.53641 0.29513 0.68308
 O817 O 0.57326 0.21351 0.74762
 O818 O 0.56331 0.21624 0.79642
 O819 O 0.46314 0.32351 0.75096
 O820 O 0.46931 0.31620 0.70308
 O821 O 0.42651 0.25311 0.78457
 O822 O 0.43536 0.20356 0.78327
 O823 O 0.49680 0.28744 0.82162
 O824 O 0.54673 0.28499 0.81351
 O825 O 0.49736 0.32392 0.78394
 O826 O 0.54918 0.31252 0.78158
 O827 O 0.46404 0.25314 0.82223
 O828 O 0.46702 0.20135 0.81090
 O829 O 0.42763 0.28797 0.75238
 O830 O 0.43626 0.27828 0.70149
 O831 O 0.53316 0.17573 0.74724
 O832 O 0.53105 0.18652 0.79700
 O833 O 0.57471 0.24835 0.71536
 O834 O 0.56337 0.29878 0.71919
 O835 O 0.50205 0.21622 0.67436
 O836 O 0.45178 0.22260 0.68536
 Zr837 Zr 0.48449 0.21739 0.71472
 O838 O 0.45781 0.24163 0.73978
 Zr839 Zr 0.53433 0.26571 0.71585
 O840 O 0.50917 0.29258 0.73979
 Zr841 Zr 0.53289 0.21629 0.76451
 O842 O 0.50871 0.24145 0.79122
 Zr843 Zr 0.46680 0.28387 0.73305
 O844 O 0.49191 0.25979 0.70585
 Zr845 Zr 0.46637 0.23494 0.78224
 O846 O 0.49053 0.20776 0.75728
 Zr847 Zr 0.51560 0.28386 0.78222
 O848 O 0.54293 0.25864 0.75833
 O849 O 0.52665 0.22370 0.72236
 O850 O 0.47334 0.27718 0.77547
 C851 C 0.52007 0.16467 0.72653
 C852 C 0.52240 0.22964 0.66318
 C853 C 0.58574 0.22790 0.72875
 C854 C 0.47685 0.33517 0.77080
 C855 C 0.41566 0.27407 0.77190
 C856 C 0.47707 0.27373 0.83340
 H857 H 0.43816 0.23742 0.73511
 H858 H 0.51316 0.23695 0.81085
 H859 H 0.53857 0.21175 0.71051
 H860 H 0.51348 0.31220 0.73513
 H861 H 0.47510 0.30735 0.68533
 H862 H 0.52246 0.30969 0.68729
 H863 H 0.48197 0.20501 0.82464
 H864 H 0.51297 0.17677 0.79505
 H865 H 0.42318 0.29425 0.70249
 H866 H 0.45343 0.20789 0.67088
 H867 H 0.54609 0.26702 0.82359
 H868 H 0.57213 0.23490 0.79608
 H869 H 0.45434 0.17749 0.73481
 H870 H 0.42568 0.20380 0.76504
 H871 H 0.57443 0.29537 0.73630
 H872 H 0.54560 0.32612 0.76648
 O873 O 0.25259 0.78637 0.42655
 O874 O 0.20489 0.78192 0.43479
 O875 O 0.28689 0.82323 0.49871
 O876 O 0.28692 0.81563 0.54491
 O877 O 0.32428 0.75110 0.46359
 O878 O 0.31474 0.70246 0.46640
 O879 O 0.21267 0.74753 0.57271
 O880 O 0.21891 0.79499 0.56586
 O881 O 0.17808 0.71251 0.50311
 O882 O 0.18652 0.71437 0.45320
 O883 O 0.24776 0.67712 0.53760
 O884 O 0.29685 0.68508 0.53624
 O885 O 0.24769 0.71548 0.57399
 O886 O 0.29990 0.71816 0.56244
 O887 O 0.21590 0.67577 0.50247
 O888 O 0.21871 0.68733 0.45080
 O889 O 0.17709 0.74722 0.53549
 O890 O 0.18722 0.79759 0.52690
 O891 O 0.28457 0.75119 0.42557
 O892 O 0.28246 0.70135 0.43666
 O893 O 0.32533 0.78350 0.49831
 O894 O 0.31343 0.77963 0.54901
 O895 O 0.25256 0.82398 0.46587
 O896 O 0.20224 0.81240 0.47135
 Zr897 Zr 0.23537 0.78345 0.46674
 O898 O 0.20863 0.75826 0.49076
 Zr899 Zr 0.28481 0.78284 0.51552
 O900 O 0.25934 0.75906 0.54228
 Zr901 Zr 0.28404 0.73404 0.46624
 O902 O 0.25994 0.70733 0.49147
 Zr903 Zr 0.21699 0.76545 0.53308
 O904 O 0.24235 0.79258 0.50919
 Zr905 Zr 0.21762 0.71585 0.48451
 O906 O 0.24173 0.74091 0.45735
 Zr907 Zr 0.26618 0.71667 0.53397
 O908 O 0.29367 0.74042 0.50873
 O909 O 0.27752 0.77616 0.47342
 O910 O 0.22391 0.72302 0.52685
 C911 C 0.27141 0.77173 0.41430
 C912 C 0.27264 0.83539 0.47954
 C913 C 0.33656 0.77007 0.47797
 C914 C 0.22681 0.72833 0.58490
 C915 C 0.16606 0.72653 0.52250
 C916 C 0.22864 0.66491 0.52340
 H917 H 0.18903 0.76276 0.48623
 H918 H 0.26465 0.68775 0.48715
 H919 H 0.28943 0.78809 0.46154
 H920 H 0.26342 0.76390 0.56193
 H921 H 0.22525 0.81272 0.55740
 H922 H 0.27239 0.81188 0.55904
 H923 H 0.23400 0.67396 0.45435
 H924 H 0.26471 0.70352 0.42635
 H925 H 0.17372 0.79685 0.54256
 H926 H 0.20408 0.82696 0.45676
 H927 H 0.29820 0.67649 0.51754
 H928 H 0.32359 0.70304 0.48506
 H929 H 0.20523 0.76276 0.42713
 H930 H 0.17638 0.73231 0.45362
 H931 H 0.32512 0.76303 0.54535
 H932 H 0.29578 0.73279 0.57639
 O933 O 0.24854 0.17550 1.03785
 O934 O 0.29643 0.18402 1.03362
 O935 O 0.21392 0.24760 1.07414
 O936 O 0.21460 0.29394 1.06633
 O937 O 0.17686 0.21226 1.00236
 O938 O 0.18661 0.21480 0.95337
 O939 O 0.28823 0.32130 0.99781
 O940 O 0.28165 0.31487 1.04564
 O941 O 0.32338 0.25138 0.96415
 O942 O 0.31418 0.20089 0.96682
 O943 O 0.25283 0.28442 0.92707
 O944 O 0.20373 0.28363 0.93598
 O945 O 0.25382 0.32181 0.96501
 O946 O 0.20168 0.31096 0.96800
 O947 O 0.28709 0.25167 0.92774
 O948 O 0.28300 0.19979 0.93803
 O949 O 0.32381 0.28470 0.99796
 O950 O 0.31387 0.27632 1.04849
 O951 O 0.21676 0.17422 1.00243
 O952 O 0.21861 0.18484 0.95280
 O953 O 0.17577 0.24734 1.03438
 O954 O 0.18754 0.29767 1.03019
 O955 O 0.24821 0.21478 1.07524
 O956 O 0.29851 0.22069 1.06417
 Zr957 Zr 0.26572 0.21570 1.03485
 O958 O 0.29259 0.23962 1.00967
 Zr959 Zr 0.21629 0.26437 1.03365
 O960 O 0.24166 0.29089 1.00950
 Zr961 Zr 0.21715 0.21475 0.98518
 O962 O 0.24150 0.23955 0.95830
 Zr963 Zr 0.28400 0.28194 1.01630
 O964 O 0.25869 0.25818 1.04361
 Zr965 Zr 0.28381 0.23288 0.96728
 O966 O 0.25946 0.20599 0.99234
 Zr967 Zr 0.23498 0.28203 0.96709
 O968 O 0.20749 0.25719 0.99120
 O969 O 0.22359 0.22227 1.02729
 O970 O 0.27721 0.27517 0.97392
 C971 C 0.22983 0.16313 1.02312
 C972 C 0.22801 0.22839 1.08643
 C973 C 0.16455 0.22687 1.02117
 C974 C 0.27449 0.33299 0.97801
 C975 C 0.33502 0.27142 0.97755
 C976 C 0.27343 0.27144 0.91595
 H977 H 0.31219 0.23525 1.01434
 H978 H 0.23697 0.23502 0.93870
 H979 H 0.21164 0.21042 1.03921
 H980 H 0.23754 0.31057 1.01404
 H981 H 0.27551 0.30644 1.06348
 H982 H 0.22830 0.30864 1.06179
 H983 H 0.26823 0.20384 0.92420
 H984 H 0.23695 0.17551 0.95426
 H985 H 0.32716 0.29214 1.04765
 H986 H 0.29675 0.20603 1.07868
 H987 H 0.20292 0.26503 0.92711
 H988 H 0.17732 0.23320 0.95424
 H989 H 0.29599 0.17603 1.01457
 H990 H 0.32545 0.20269 0.98402
 H991 H 0.17637 0.29421 1.01316
 H992 H 0.20577 0.32489 0.98267
 N993 N 0.30684 0.34788 0.77658
 C994 C 0.30114 0.33904 0.80294
 N995 N 0.28474 0.35537 0.81931
 N996 N 0.27471 0.37948 0.80991
 C997 C 0.28087 0.38842 0.78377
 N998 N 0.29708 0.37216 0.76724
 N999 N 0.31666 -0.14850 0.28178
 C1000 C 0.30041 -0.16482 0.29831
 N1001 N 0.27413 -0.15595 0.30420
 N1002 N 0.26483 -0.13157 0.29465
 C1003 C 0.28131 -0.11526 0.27842
 N1004 N 0.30729 -0.12430 0.27196
 N1005 N 0.77483 0.84688 0.80492
 C1006 C 0.80120 0.83809 0.79930
 N1007 N 0.81771 0.85469 0.78331
 N1008 N 0.80845 0.87901 0.77366
 C1009 C 0.78233 0.88791 0.77980
 N1010 N 0.76563 0.87136 0.79554
 N1011 N 0.47595 0.90336 0.30447
 C1012 C 0.44975 0.91251 0.29865
 N1013 N 0.43297 0.89594 0.28290
 N1014 N 0.44182 0.87131 0.27365
 C1015 C 0.46777 0.86205 0.27999
 N1016 N 0.48474 0.87858 0.29549
 N1017 N -0.02576 0.90363 0.80646
 C1018 C -0.05215 0.91218 0.80056
 N1019 N -0.06827 0.89560 0.78418
 N1020 N -0.05863 0.87149 0.77439
 C1021 C -0.03249 0.86282 0.78077
 N1022 N -0.01617 0.87936 0.79693
 N1023 N -0.02586 -0.15217 -0.05605
 C1024 C -0.05204 -0.16135 -0.05018
 N1025 N -0.06859 -0.14510 -0.03387
 N1026 N -0.05954 -0.12073 -0.02410
 C1027 C -0.03359 -0.11146 -0.03042
 N1028 N -0.01688 -0.12765 -0.04653
 N1029 N -0.02363 0.34619 0.44626
 C1030 C -0.04995 0.33721 0.45180
 N1031 N -0.06679 0.35390 0.46734
 N1032 N -0.05787 0.37849 0.47664
 C1033 C -0.03179 0.38758 0.47056
 N1034 N -0.01478 0.37094 0.45528
 N1035 N 0.47664 -0.15504 0.44496
 C1036 C 0.45060 -0.16433 0.45130
 N1037 N 0.43435 -0.14822 0.46802
 N1038 N 0.44348 -0.12383 0.47763
 C1039 C 0.46923 -0.11438 0.47076
 N1040 N 0.48570 -0.13048 0.45432
 N1041 N 0.47418 0.34735 -0.05733
 C1042 C 0.44792 0.33850 -0.05130
 N1043 N 0.43177 0.35484 -0.03469
 N1044 N 0.44129 0.37896 -0.02478
 C1045 C 0.46731 0.38791 -0.03124
 N1046 N 0.48363 0.37165 -0.04767
 N1047 N 0.77480 0.40470 0.44440
 C1048 C 0.80101 0.41365 0.45053
 N1049 N 0.81707 0.39751 0.46740
 N1050 N 0.80758 0.37340 0.47735
 C1051 C 0.78166 0.36428 0.47068
 N1052 N 0.76538 0.38041 0.45409
 N1053 N 0.77395 0.90443 -0.05605
 C1054 C 0.80014 0.91342 -0.04988
 N1055 N 0.81616 0.89733 -0.03291
 N1056 N 0.80665 0.87325 -0.02292
 C1057 C 0.78076 0.86410 -0.02962
 N1058 N 0.76451 0.88017 -0.04631
 N1059 N 0.80492 0.27417 0.34477
 C1060 C 0.79921 0.30049 0.33586
 N1061 N 0.78289 0.31690 0.35221
 N1062 N 0.77308 0.30763 0.37648
 C1063 C 0.77937 0.28161 0.38557
 N1064 N 0.79538 0.26498 0.36922
 N1065 N 0.78238 0.81723 -0.14746
 C1066 C 0.79938 0.80125 -0.16355
 N1067 N 0.80546 0.77502 -0.15463
 N1068 N 0.79560 0.76551 -0.13042
 C1069 C 0.77889 0.78172 -0.11434
 N1070 N 0.77228 0.80766 -0.12343
 N1071 N 0.30707 0.47376 0.90339
 C1072 C 0.30089 0.44748 0.91215
 N1073 N 0.28376 0.43169 0.89600
 N1074 N 0.27354 0.44152 0.87212
 C1075 C 0.28020 0.46752 0.86322
 N1076 N 0.29711 0.48352 0.87933
 N1077 N 0.30363 -0.02405 0.40492
 C1078 C 0.29796 -0.05027 0.41414
 N1079 N 0.28192 -0.06701 0.39782
 N1080 N 0.27231 -0.05816 0.37331
 C1081 C 0.27852 -0.03222 0.36394
 N1082 N 0.29428 -0.01526 0.38024
 N1083 N -0.03488 -0.06762 -0.14540
 C1084 C -0.05129 -0.05142 -0.16188
 N1085 N -0.05716 -0.02508 -0.15317
 N1086 N -0.04756 -0.01560 -0.12885
 C1087 C -0.03135 -0.03198 -0.11241
 N1088 N -0.02503 -0.05808 -0.12123
 N1089 N -0.03395 0.43266 0.35451
 C1090 C -0.05036 0.44897 0.33813
 N1091 N -0.05666 0.47507 0.34728
 N1092 N -0.04747 0.48420 0.37189
 C1093 C -0.03127 0.46772 0.38822
 N1094 N -0.02450 0.44187 0.37897
 N1095 N 0.44577 -0.02420 0.34451
 C1096 C 0.45177 -0.05046 0.33561
 N1097 N 0.46830 -0.06666 0.35197
 N1098 N 0.47799 -0.05727 0.37625
 C1099 C 0.47138 -0.03132 0.38533
 N1100 N 0.45518 -0.01488 0.36897
 N1101 N 0.44301 0.47461 -0.15316
 C1102 C 0.44895 0.44832 -0.16202
 N1103 N 0.46551 0.43213 -0.14568
 N1104 N 0.47543 0.44162 -0.12153
 C1105 C 0.46902 0.46765 -0.11255
 N1106 N 0.45268 0.48403 -0.12883
 N1107 N 0.46721 0.81632 0.39667
 C1108 C 0.45150 0.79961 0.41334
 N1109 N 0.44574 0.77332 0.40433
 N1110 N 0.45473 0.76440 0.37958
 C1111 C 0.47018 0.78129 0.36295
 N1112 N 0.47647 0.80732 0.37207
 N1113 N -0.03454 0.81868 0.89567
 C1114 C -0.05054 0.80217 0.91226
 N1115 N -0.05625 0.77582 0.90340
 N1116 N -0.04695 0.76665 0.87885
 C1117 C -0.03121 0.78334 0.86231
 N1118 N -0.02496 0.80943 0.87129
 N1119 N 0.34644 0.80408 0.27404
 C1120 C 0.33738 0.79830 0.30031
 N1121 N 0.35404 0.78270 0.31713
 N1122 N 0.37869 0.77356 0.30823
 C1123 C 0.38786 0.77989 0.28221
 N1124 N 0.37124 0.79522 0.26521
 N1125 N -0.14603 0.78436 0.81737
 C1126 C -0.16227 0.80068 0.80082
 N1127 N -0.15301 0.80670 0.77467
 N1128 N -0.12845 0.79732 0.76571
 C1129 C -0.11227 0.78121 0.78243
 N1130 N -0.12162 0.77473 0.80834
 N1131 N 0.90470 0.30564 0.47681
 C1132 C 0.91416 0.29913 0.45084
 N1133 N 0.89827 0.28212 0.43466
 N1134 N 0.87392 0.27241 0.44378
 C1135 C 0.86430 0.27945 0.46945
 N1136 N 0.88019 0.29618 0.48586
 N1137 N 0.89635 0.78325 -0.06686
 C1138 C 0.91236 0.80031 -0.05086
 N1139 N 0.90340 0.80643 -0.02462
 N1140 N 0.87922 0.79657 -0.01514
 C1141 C 0.86321 0.77979 -0.03138
 N1142 N 0.87235 0.77312 -0.05731
 N1143 N -0.15415 -0.05508 -0.02527
 C1144 C -0.16298 -0.04950 -0.05167
 N1145 N -0.14635 -0.03367 -0.06831
 N1146 N -0.12195 -0.02411 -0.05913
 C1147 C -0.11303 -0.03020 -0.03297
 N1148 N -0.12961 -0.04579 -0.01616
 N1149 N -0.15335 0.44515 0.47522
 C1150 C -0.16219 0.45081 0.44884
 N1151 N -0.14561 0.46676 0.43227
 N1152 N -0.12125 0.47635 0.44150
 C1153 C -0.11229 0.47017 0.46763
 N1154 N -0.12883 0.45447 0.48438
 N1155 N 0.35191 -0.03226 0.43376
 C1156 C 0.33571 -0.04853 0.45039
 N1157 N 0.34501 -0.05440 0.47657
 N1158 N 0.36965 -0.04506 0.48542
 C1159 C 0.38584 -0.02910 0.46857
 N1160 N 0.37638 -0.02266 0.44268
 N1161 N 0.35522 0.46463 -0.06811
 C1162 C 0.33890 0.44811 -0.05184
 N1163 N 0.34784 0.44211 -0.02557
 N1164 N 0.37219 0.45170 -0.01623
 C1165 C 0.38844 0.46802 -0.03267
 N1166 N 0.37940 0.47447 -0.05870
 N1167 N 0.39476 0.46548 0.81826
 C1168 C 0.41111 0.44917 0.80182
 N1169 N 0.40203 0.44315 0.77560
 N1170 N 0.37752 0.45249 0.76646
 C1171 C 0.36123 0.46858 0.78307
 N1172 N 0.37041 0.47509 0.80904
 N1173 N 0.39777 -0.03281 0.31586
 C1174 C 0.41392 -0.04940 0.29950
 N1175 N 0.40473 -0.05552 0.27334
 N1176 N 0.38024 -0.04606 0.26425
 C1177 C 0.36411 -0.02974 0.28082
 N1178 N 0.37344 -0.02311 0.30670
 N1179 N 0.10128 0.56632 0.71943
 C1180 C 0.08499 0.54977 0.70315
 N1181 N 0.09416 0.52359 0.69725
 N1182 N 0.11877 0.51467 0.70656
 C1183 C 0.13504 0.53144 0.72254
 N1184 N 0.12572 0.55733 0.72901
 N1185 N 0.09730 0.05624 0.22492
 C1186 C 0.08813 0.05033 0.19871
 N1187 N 0.10432 0.03390 0.18222
 N1188 N 0.12861 0.02406 0.19137
 C1189 C 0.13787 0.03044 0.21735
 N1190 N 0.12173 0.04666 0.23400
 N1191 N 0.64808 0.68377 0.21795
 C1192 C 0.66411 0.69997 0.20110
 N1193 N 0.65488 0.72605 0.19483
 N1194 N 0.63045 0.73520 0.20438
 C1195 C 0.61443 0.71877 0.22093
 N1196 N 0.62382 0.69299 0.22774
 N1197 N 0.14768 0.68423 0.71826
 C1198 C 0.16378 0.70044 0.70149
 N1199 N 0.15459 0.72653 0.69522
 N1200 N 0.13014 0.73569 0.70471
 C1201 C 0.11404 0.71926 0.72121
 N1202 N 0.12339 0.69346 0.72799
 N1203 N 0.59630 0.22550 0.55434
 C1204 C 0.58771 0.19902 0.54883
 N1205 N 0.60451 0.18249 0.53309
 N1206 N 0.62885 0.19183 0.52359
 C1207 C 0.63757 0.21805 0.52965
 N1208 N 0.62081 0.23477 0.54512
 N1209 N 0.59558 0.72620 0.05442
 C1210 C 0.58655 0.69994 0.04865
 N1211 N 0.60314 0.68323 0.03286
 N1212 N 0.62770 0.69222 0.02354
 C1213 C 0.63684 0.71823 0.02985
 N1214 N 0.62029 0.73512 0.04537
 N1215 N 0.15381 0.02343 0.05533
 C1216 C 0.16342 0.04935 0.04894
 N1217 N 0.14749 0.06577 0.03221
 N1218 N 0.12298 0.05691 0.02265
 C1219 C 0.11322 0.03129 0.02960
 N1220 N 0.12914 0.01464 0.04603
 N1221 N 0.14753 0.56652 0.53260
 C1222 C 0.16387 0.55007 0.54888
 N1223 N 0.15489 0.52379 0.55466
 N1224 N 0.13038 0.51467 0.54524
 C1225 C 0.11405 0.53136 0.52927
 N1226 N 0.12320 0.55734 0.52291
 N1227 N 0.64555 0.06837 0.53314
 C1228 C 0.66212 0.05179 0.54908
 N1229 N 0.65326 0.02543 0.55469
 N1230 N 0.62874 0.01630 0.54535
 C1231 C 0.61221 0.03306 0.52966
 N1232 N 0.62118 0.05917 0.52352
 N1233 N 0.65537 0.52386 0.05387
 C1234 C 0.66426 0.55018 0.04808
 N1235 N 0.64786 0.56654 0.03175
 N1236 N 0.62358 0.55725 0.02204
 C1237 C 0.61453 0.53124 0.02841
 N1238 N 0.63092 0.51464 0.04442
 N1239 N 0.03273 0.06714 0.14702
 C1240 C 0.04980 0.05115 0.16302
 N1241 N 0.05580 0.02490 0.15407
 N1242 N 0.04580 0.01540 0.12991
 C1243 C 0.02901 0.03162 0.11392
 N1244 N 0.02249 0.05757 0.12305
 N1245 N 0.02275 0.55437 0.65595
 C1246 C 0.04885 0.54833 0.66528
 N1247 N 0.06539 0.53204 0.64902
 N1248 N 0.05648 0.52258 0.62447
 C1249 C 0.03068 0.52919 0.61498
 N1250 N 0.01390 0.54517 0.63122
 N1251 N 0.52349 0.05505 0.65353
 C1252 C 0.54977 0.04940 0.66258
 N1253 N 0.56654 0.03372 0.64595
 N1254 N 0.55760 0.02437 0.62136
 C1255 C 0.53157 0.03055 0.61221
 N1256 N 0.51462 0.04598 0.62878
 N1257 N 0.52340 0.55365 0.15509
 C1258 C 0.54949 0.54751 0.16437
 N1259 N 0.56593 0.53113 0.14809
 N1260 N 0.55692 0.52167 0.12357
 C1261 C 0.53113 0.52839 0.11414
 N1262 N 0.51446 0.54446 0.13040
 N1263 N 0.22598 0.55474 0.59613
 C1264 C 0.19986 0.54877 0.58682
 N1265 N 0.18334 0.53231 0.60295
 N1266 N 0.19232 0.52258 0.62736
 C1267 C 0.21817 0.52905 0.63681
 N1268 N 0.23489 0.54524 0.62070
 N1269 N 0.22596 0.05353 0.09574
 C1270 C 0.19968 0.04780 0.08670
 N1271 N 0.18307 0.03180 0.10317
 N1272 N 0.19212 0.02225 0.12763
 C1273 C 0.21812 0.02854 0.13680
 N1274 N 0.23494 0.04427 0.12037
 N1275 N 0.72557 0.19504 0.65346
 C1276 C 0.69938 0.20096 0.66257
 N1277 N 0.68271 0.21678 0.64596
 N1278 N 0.69168 0.22600 0.62133
 C1279 C 0.71762 0.21955 0.61212
 N1280 N 0.73446 0.20399 0.62868
 N1281 N 0.68293 0.71643 0.14626
 C1282 C 0.69975 0.70070 0.16279
 N1283 N 0.72592 0.69488 0.15357
 N1284 N 0.73465 0.70386 0.12874
 C1285 C 0.71765 0.71934 0.11226
 N1286 N 0.69173 0.72568 0.12158
 N1287 N 0.52366 0.69548 0.09496
 C1288 C 0.54981 0.70164 0.08587
 N1289 N 0.56608 0.71819 0.10216
 N1290 N 0.55685 0.72777 0.12654
 C1291 C 0.53101 0.72101 0.13581
 N1292 N 0.51451 0.70478 0.11953
 N1293 N 0.02409 0.69606 0.59507
 C1294 C 0.05043 0.70182 0.58625
 N1295 N 0.06677 0.71813 0.60270
 N1296 N 0.05743 0.72787 0.62696
 C1297 C 0.03139 0.72154 0.63595
 N1298 N 0.01482 0.70553 0.61952
 N1299 N 0.53198 0.60156 0.18415
 C1300 C 0.54819 0.58522 0.20069
 N1301 N 0.55421 0.59442 0.22688
 N1302 N 0.54504 0.61909 0.23582
 C1303 C 0.52912 0.63540 0.21906
 N1304 N 0.52255 0.62605 0.19316
 N1305 N 0.05342 0.59530 0.72776
 C1306 C 0.04735 0.58602 0.70161
 N1307 N 0.03106 0.60228 0.68507
 N1308 N 0.02166 0.62680 0.69402
 C1309 C 0.02834 0.63625 0.71985
 N1310 N 0.04430 0.62000 0.73663
 N1311 N 0.03163 0.14796 0.06637
 C1312 C 0.04834 0.16422 0.05026
 N1313 N 0.05425 0.15541 0.02391
 N1314 N 0.04457 0.13114 0.01443
 C1315 C 0.02818 0.11489 0.03079
 N1316 N 0.02167 0.12389 0.05682
 N1317 N 0.05565 0.65472 0.52394
 C1318 C 0.04915 0.66410 0.54993
 N1319 N 0.03204 0.64822 0.56601
 N1320 N 0.02223 0.62395 0.55677
 C1321 C 0.02927 0.61441 0.53108
 N1322 N 0.04609 0.63028 0.51476
 N1323 N 0.55669 0.15311 0.52408
 C1324 C 0.55037 0.16238 0.55016
 N1325 N 0.53387 0.14614 0.56653
 N1326 N 0.52436 0.12170 0.55740
 C1327 C 0.53114 0.11233 0.53156
 N1328 N 0.54742 0.12852 0.51502
 N1329 N 0.55478 0.65472 0.02344
 C1330 C 0.54865 0.66389 0.04960
 N1331 N 0.53214 0.64767 0.06596
 N1332 N 0.52251 0.62331 0.05680
 C1333 C 0.52916 0.61399 0.03093
 N1334 N 0.54540 0.63018 0.01434
 N1335 N 0.71598 0.10446 0.56711
 C1336 C 0.69967 0.08821 0.55056
 N1337 N 0.69374 0.09739 0.52436
 N1338 N 0.70322 0.12192 0.51535
 C1339 C 0.71933 0.13811 0.53208
 N1340 N 0.72571 0.12883 0.55804
 N1341 N 0.69550 0.59622 0.02380
 C1342 C 0.70125 0.58709 0.05006
 N1343 N 0.71691 0.60369 0.06690
 N1344 N 0.72613 0.62834 0.05805
 C1345 C 0.71986 0.63757 0.03204
 N1346 N 0.70445 0.62102 0.01501
 N1347 N 0.19572 0.65539 0.72666
 C1348 C 0.20150 0.66419 0.70030
 N1349 N 0.21779 0.64774 0.68395
 N1350 N 0.22748 0.62348 0.69330
 C1351 C 0.22112 0.61451 0.71938
 N1352 N 0.20514 0.63096 0.73595
 N1353 N 0.19375 0.15209 0.22562
 C1354 C 0.19996 0.16138 0.19951
 N1355 N 0.21610 0.14499 0.18295
 N1356 N 0.22539 0.12042 0.19192
 C1357 C 0.21869 0.11103 0.21777
 N1358 N 0.20277 0.12736 0.23451
 N1359 N 0.69531 1.15502 0.72578
 C1360 C 0.70113 1.16390 0.69944
 N1361 N 0.71741 1.14749 0.68305
 N1362 N 0.72708 1.12321 0.69235
 C1363 C 0.72070 1.11416 0.71839
 N1364 N 0.70471 1.13055 0.73501
 N1365 N 0.69595 0.65473 0.22601
 C1366 C 0.70173 0.66366 0.19968
 N1367 N 0.71800 0.64729 0.18325
 N1368 N 0.72770 0.62299 0.19249
 C1369 C 0.72135 0.61390 0.21853
 N1370 N 0.70537 0.63026 0.23519
 N1371 N 0.53172 0.10297 0.68272
 C1372 C 0.54801 0.08667 0.69922
 N1373 N 0.55378 0.09572 0.72551
 N1374 N 0.54430 0.12021 0.73459
 C1375 C 0.52828 0.13649 0.71787
 N1376 N 0.52198 0.12729 0.69186
 N1377 N 1.02561 0.09696 0.19461
 C1378 C 1.05196 0.08806 0.20012
 N1379 N 1.06864 0.10460 0.21602
 N1380 N 1.05954 0.12897 0.22571
 C1381 C 1.03342 0.13798 0.21969
 N1382 N 1.01658 0.12149 0.20402
 N1383 N 0.19544 0.59569 0.52439
 C1384 C 0.20119 0.58665 0.55068
 N1385 N 0.21707 0.60318 0.56738
 N1386 N 0.22647 0.62771 0.55837
 C1387 C 0.22017 0.63688 0.53234
 N1388 N 0.20457 0.62037 0.51545
 N1389 N 0.21774 0.10154 1.06690
 C1390 C 0.20147 0.08528 1.05031
 N1391 N 0.19588 0.09430 1.02398
 N1392 N 0.20551 0.11876 1.01495
 C1393 C 0.22150 0.13499 1.03175
 N1394 N 0.22763 0.12581 1.05780
 N1395 N 0.22590 0.69539 0.65430
 C1396 C 0.19967 0.70122 0.66338
 N1397 N 0.18297 0.71699 0.64677
 N1398 N 0.19192 0.72626 0.62216
 C1399 C 0.21790 0.71992 0.61297
 N1400 N 0.23478 0.70439 0.62953
 N1401 N 0.18367 0.21682 1.14777
 C1402 C 0.19960 0.19973 1.16382
 N1403 N 0.22574 0.19346 1.15480
 N1404 N 0.23520 0.20322 1.13053
 C1405 C 0.21905 0.22004 1.11450
 N1406 N 0.19320 0.22684 1.12369
 N1407 N 0.72659 0.55530 0.09512
 C1408 C 0.70059 0.54884 0.08579
 N1409 N 0.68452 0.53179 0.10175
 N1410 N 0.69378 0.52200 0.12603
 C1411 C 0.71948 0.52900 0.13552
 N1412 N 0.73578 0.54576 0.11957
 N1413 N 0.72512 1.05609 0.59528
 C1414 C 0.69894 1.04992 0.58626
 N1415 N 0.68295 1.03288 0.60229
 N1416 N 0.69246 1.02282 0.62637
 C1417 C 0.71834 1.02954 0.63557
 N1418 N 0.73456 1.04629 0.61954
 N1419 N 0.56685 0.21773 0.60202
 C1420 C 0.55089 0.20067 0.58595
 N1421 N 0.52469 0.19452 0.59490
 N1422 N 0.51520 0.20437 0.61911
 C1423 C 0.53139 0.22115 0.63517
 N1424 N 0.55730 0.22783 0.62605
 N1425 N 1.06755 0.21658 0.10415
 C1426 C 1.05072 0.20085 0.08760
 N1427 N 1.02459 0.19491 0.09691
 N1428 N 1.01593 0.20374 0.12182
 C1429 C 1.03293 0.21920 0.13832
 N1430 N 1.05880 0.22569 0.12891
 N1431 N 0.65441 0.22634 0.69453
 C1432 C 0.66353 0.20023 0.70074
 N1433 N 0.64742 0.18404 0.71753
 N1434 N 0.62317 0.19330 0.72732
 C1435 C 0.61389 0.21914 0.72058
 N1436 N 0.62999 0.23555 0.70407
 N1437 N 1.15435 0.22475 0.19544
 C1438 C 1.16302 0.19838 0.20123
 N1439 N 1.14649 0.18212 0.21753
 N1440 N 1.12232 0.19162 0.22731
 C1441 C 1.11352 0.21772 0.22098
 N1442 N 1.13000 0.23418 0.20493
 N1443 N 0.09663 0.72596 0.55521
 C1444 C 0.08744 0.69977 0.54935
 N1445 N 0.10403 0.68295 0.53368
 N1446 N 0.12871 0.69176 0.52454
 C1447 C 0.13800 0.71770 0.53092
 N1448 N 0.12147 0.73470 0.54634
 N1449 N 0.09591 0.22599 1.05554
 C1450 C 0.08651 0.19995 1.04936
 N1451 N 0.10248 0.18357 1.03262
 N1452 N 0.12682 0.19258 1.02281
 C1453 C 0.13635 0.21835 1.02948
 N1454 N 0.12042 0.23494 1.04597
 N1455 N 0.60212 0.56538 0.21835
 C1456 C 0.58579 0.54888 0.20207
 N1457 N 0.59498 0.52274 0.19600
 N1458 N 0.61964 0.51380 0.20516
 C1459 C 0.63596 0.53053 0.22112
 N1460 N 0.62661 0.55637 0.22777
 N1461 N 0.60166 1.06635 0.71765
 C1462 C 0.58559 1.05022 0.70075
 N1463 N 0.59479 1.02415 0.69439
 N1464 N 0.61923 1.01494 0.70388
 C1465 C 0.63530 1.03130 0.72047
 N1466 N 0.62593 1.05707 0.72738
 N1467 N 0.90364 0.44428 0.27504
 C1468 C 0.91231 0.45003 0.30146
 N1469 N 0.89556 0.46589 0.31793
 N1470 N 0.87120 0.47532 0.30856
 C1471 C 0.86242 0.46904 0.28240
 N1472 N 0.87911 0.45342 0.26575
 N1473 N 0.90219 0.94316 0.77544
 C1474 C 0.91110 0.94938 0.80167
 N1475 N 0.89469 0.96588 0.81785
 N1476 N 0.87043 0.97548 0.80839
 C1477 C 0.86141 0.96878 0.78240
 N1478 N 0.87777 0.95250 0.76605
 N1479 N 0.34751 0.27633 0.80713
 C1480 C 0.33874 0.30270 0.80151
 N1481 N 0.35508 0.31905 0.78509
 N1482 N 0.37916 0.30962 0.77499
 C1483 C 0.38803 0.28348 0.78109
 N1484 N 0.37174 0.26697 0.79730
 N1485 N 0.84656 0.30521 0.27379
 C1486 C 0.83719 0.29920 0.29991
 N1487 N 0.85316 0.28257 0.31639
 N1488 N 0.87748 0.27271 0.30741
 C1489 C 0.88699 0.27921 0.28156
 N1490 N 0.87105 0.29558 0.26486
 N1491 N 0.40546 0.80385 0.47648
 C1492 C 0.41443 0.79785 0.45021
 N1493 N 0.39811 0.78135 0.43392
 N1494 N 0.37384 0.77166 0.44323
 C1495 C 0.36470 0.77824 0.46920
 N1496 N 0.38101 0.79443 0.48572
 N1497 N 0.39540 0.28383 0.93214
 C1498 C 0.41169 0.30075 0.94802
 N1499 N 0.40299 0.30693 0.97433
 N1500 N 0.37885 0.29718 0.98405
 C1501 C 0.36262 0.28048 0.96798
 N1502 N 0.37145 0.27381 0.94193
 N1503 N 0.78410 0.43298 0.39595
 C1504 C 0.80031 0.44948 0.41236
 N1505 N 0.80627 0.47568 0.40327
 N1506 N 0.79696 0.48472 0.37868
 C1507 C 0.78098 0.46804 0.36232
 N1508 N 0.77454 0.44209 0.37152
 N1509 N 0.80538 0.97557 0.90302
 C1510 C 0.79938 0.94935 0.91204
 N1511 N 0.78309 0.93294 0.89563
 N1512 N 0.77349 0.94216 0.87125
 C1513 C 0.77998 0.96813 0.86212
 N1514 N 0.79604 0.98472 0.87849
 N1515 N 0.30567 0.77302 0.34553
 C1516 C 0.29932 0.79905 0.33622
 N1517 N 0.28253 0.81527 0.35228
 N1518 N 0.27285 0.80610 0.37664
 C1519 C 0.27971 0.78036 0.38611
 N1520 N 0.29623 0.76392 0.37006
 N1521 N 0.27602 0.30713 0.84798
 C1522 C 0.30227 0.30117 0.83907
 N1523 N 0.31836 0.28430 0.85521
 N1524 N 0.30880 0.27412 0.87923
 C1525 C 0.28280 0.28056 0.88826
 N1526 N 0.26654 0.29720 0.87217
 N1527 N 0.46521 0.31836 0.89460
 C1528 C 0.44874 0.30213 0.91101
 N1529 N 0.44259 0.27592 0.90203
 N1530 N 0.45195 0.26661 0.87756
 C1531 C 0.46820 0.28302 0.86121
 N1532 N 0.47484 0.30897 0.87029
 N1533 N 0.94618 0.27417 0.40563
 C1534 C 0.95203 0.30043 0.41466
 N1535 N 0.96854 0.31678 0.39840
 N1536 N 0.97838 0.30753 0.37414
 C1537 C 0.97196 0.28157 0.36495
 N1538 N 0.95575 0.26500 0.38119
 N1539 N 0.43194 0.39584 0.78335
 C1540 C 0.44795 0.41205 0.80021
 N1541 N 0.47421 0.40321 0.80630
 N1542 N 0.48374 0.37901 0.79650
 C1543 C 0.46753 0.36286 0.77985
 N1544 N 0.44154 0.37183 0.77328
 N1545 N 0.97563 0.40446 0.30602
 C1546 C 0.94935 0.41319 0.29987
 N1547 N 0.93348 0.39696 0.28287
 N1548 N 0.94319 0.37299 0.27284
 C1549 C 0.96917 0.36410 0.27952
 N1550 N 0.98527 0.38031 0.29623
 N1551 N 0.27333 0.90444 0.44604
 C1552 C 0.29944 0.91375 0.45211
 N1553 N 0.31591 0.89760 0.46857
 N1554 N 0.30692 0.87314 0.47816
 C1555 C 0.28112 0.86367 0.47150
 N1556 N 0.26442 0.87982 0.45536
 N1557 N 0.27639 0.40142 0.94326
 C1558 C 0.30263 0.41042 0.94918
 N1559 N 0.31900 0.39407 0.96555
 N1560 N 0.30972 0.36981 0.97534
 C1561 C 0.28372 0.36072 0.96896
 N1562 N 0.26718 0.37700 0.95278
 N1563 N 0.81788 0.35368 0.28269
 C1564 C 0.80119 0.33719 0.29860
 N1565 N 0.77496 0.34630 0.30438
 N1566 N 0.76608 0.37098 0.29523
 C1567 C 0.78296 0.38744 0.27959
 N1568 N 0.80893 0.37821 0.27327
   
