data_POSCAR
  _audit_creation_date              2014-09-24
  _audit_creation_method            'ToBaCCo'
  _symmetry_space_group_name_H-M    'P1'
  _symmetry_Int_Tables_number       1
  _symmetry_cell_setting            triclinic
  loop_
  _symmetry_equiv_pos_as_xyz
 x,y,z
_cell_length_a 38.4726
_cell_length_b 40.1933
_cell_length_c 47.9797
_cell_angle_alpha 90.083300
_cell_angle_beta 89.813200
_cell_angle_gamma 89.965400
loop_
  _atom_site_label
  _atom_site_type_symbol
  _atom_site_fract_x
  _atom_site_fract_y
  _atom_site_fract_z
Zr1 Zr 0.24410 0.25027 0.29942
 O2 O 0.26891 0.27224 0.33429
 O3 O 0.20638 0.22097 0.31944
 O4 O 0.21262 0.28411 0.32208
 O5 O 0.31042 0.19312 0.28921
 O6 O 0.19063 0.31864 0.28878
 O7 O 0.27633 0.21762 0.32243
 O8 O 0.17581 0.19844 0.28350
 O9 O 0.20035 0.25559 0.27391
 O10 O 0.24313 0.20794 0.27397
 O11 O 0.25167 0.29499 0.27752
 O12 O 0.29208 0.24933 0.27795
 Zr13 Zr 0.25387 0.25748 0.20226
 Zr14 Zr 0.20896 0.29897 0.25068
 Zr15 Zr 0.28919 0.20846 0.25082
 Zr16 Zr 0.20099 0.21427 0.24737
 O17 O 0.34413 0.20738 0.24830
 O18 O 0.14736 0.22577 0.24374
 O19 O 0.24671 0.21212 0.22371
 O20 O 0.20634 0.25765 0.22409
 O21 O 0.25531 0.29984 0.22771
 O22 O 0.29742 0.25179 0.22781
 C23 C 0.18164 0.20303 0.30949
 C24 C 0.30213 0.19915 0.31482
 C25 C 0.19525 0.30995 0.31436
 O26 O 0.15400 0.29875 0.24971
 O27 O 0.19201 0.31947 0.21250
 O28 O 0.22329 0.29161 0.17945
 C29 C 0.19982 0.31279 0.18692
 O30 O 0.31934 0.30556 0.29367
 Zr31 Zr 0.29750 0.29266 0.25447
 O32 O 0.28967 0.28924 0.18235
 O33 O 0.21828 0.35082 0.25151
 O34 O 0.29474 0.34520 0.25834
 O35 O 0.35139 0.28145 0.25404
 O36 O 0.31798 0.31376 0.21852
 C37 C 0.31191 0.30986 0.19252
 O38 O 0.22817 0.23661 0.16734
 O39 O 0.28118 0.15646 0.25339
 O40 O 0.28371 0.22264 0.17938
 O41 O 0.30254 0.18606 0.21238
 O42 O 0.20380 0.16156 0.24774
 O43 O 0.18385 0.19539 0.20834
 C44 C 0.29877 0.19541 0.18684
 H45 H 0.24131 0.18717 0.28496
 H46 H 0.18621 0.25877 0.21134
 H47 H 0.31924 0.25027 0.21688
 H48 H 0.25364 0.31425 0.29028
 H49 H 0.13410 0.20493 0.24668
 H50 H 0.14647 0.32233 0.25028
 H51 H 0.19524 0.36184 0.25102
 H52 H 0.31852 0.35414 0.25566
 H53 H 0.17990 0.15301 0.25060
 H54 H 0.30450 0.14603 0.25398
 H55 H 0.35108 0.18365 0.24783
 H56 H 0.36410 0.30264 0.25128
 H57 H 0.16346 0.18077 0.21125
 H58 H 0.23934 0.24561 0.15024
 H59 H 0.25794 0.26306 0.35140
 H60 H 0.33801 0.32219 0.29094
 Zr61 Zr 0.75589 0.75566 0.29683
 O62 O 0.73393 0.73294 0.33265
 O63 O 0.79137 0.78886 0.31554
 O64 O 0.79042 0.72468 0.31922
 O65 O 0.68537 0.80867 0.28781
 O66 O 0.81342 0.69032 0.28604
 O67 O 0.72223 0.78670 0.32006
 O68 O 0.81902 0.81231 0.27846
 O69 O 0.79925 0.75278 0.27043
 O70 O 0.75276 0.79721 0.27080
 O71 O 0.75090 0.71005 0.27561
 O72 O 0.70723 0.75249 0.27665
 Zr73 Zr 0.74384 0.74542 0.19998
 Zr74 Zr 0.79319 0.70835 0.24799
 Zr75 Zr 0.70609 0.79288 0.24906
 Zr76 Zr 0.79451 0.79321 0.24329
 O77 O 0.65122 0.78940 0.24800
 O78 O 0.84874 0.78509 0.23880
 O79 O 0.74802 0.79150 0.22095
 O80 O 0.79184 0.74907 0.22071
 O81 O 0.74645 0.70368 0.22599
 O82 O 0.70057 0.74870 0.22642
 C83 C 0.81411 0.80854 0.30467
 C84 C 0.69532 0.80397 0.31319
 C85 C 0.80898 0.69950 0.31161
 O86 O 0.84798 0.71225 0.24639
 O87 O 0.81139 0.68911 0.20960
 O88 O 0.77584 0.71230 0.17692
 C89 C 0.80180 0.69394 0.18417
 O90 O 0.68440 0.69477 0.29320
 Zr91 Zr 0.70440 0.70843 0.25347
 O92 O 0.70958 0.71131 0.18116
 O93 O 0.78780 0.65601 0.24905
 O94 O 0.71143 0.65637 0.25812
 O95 O 0.64981 0.71587 0.25388
 O96 O 0.68500 0.68466 0.21810
 C97 C 0.68975 0.68887 0.19189
 O98 O 0.76726 0.76658 0.16408
 O99 O 0.70966 0.84541 0.25069
 O100 O 0.71199 0.77891 0.17745
 O101 O 0.69076 0.81401 0.21084
 O102 O 0.78778 0.84559 0.24260
 O103 O 0.80900 0.81217 0.20357
 C104 C 0.69543 0.80530 0.18521
 H105 H 0.75326 0.81840 0.28134
 H106 H 0.81162 0.74917 0.20750
 H107 H 0.67848 0.74855 0.21589
 H108 H 0.75066 0.69102 0.28867
 H109 H 0.86054 0.80683 0.24109
 H110 H 0.85723 0.68924 0.24694
 H111 H 0.81161 0.64662 0.24827
 H112 H 0.68840 0.64563 0.25597
 H113 H 0.81105 0.85588 0.24457
 H114 H 0.68556 0.85407 0.25161
 H115 H 0.64225 0.81247 0.24699
 H116 H 0.63871 0.69382 0.25142
 H117 H 0.82888 0.82760 0.20567
 H118 H 0.75611 0.75651 0.14743
 H119 H 0.74453 0.74344 0.34934
 H120 H 0.66675 0.67705 0.29096
 Zr121 Zr 0.75948 0.24210 -0.29990
 O122 O 0.73657 0.26353 -0.33579
 O123 O 0.79645 0.21043 -0.31880
 O124 O 0.79229 0.27487 -0.32244
 O125 O 0.69236 0.18531 -0.29013
 O126 O 0.81246 0.31093 -0.28947
 O127 O 0.72694 0.20988 -0.32284
 O128 O 0.82626 0.18948 -0.28187
 O129 O 0.80256 0.24766 -0.27376
 O130 O 0.75920 0.20042 -0.27380
 O131 O 0.75139 0.28737 -0.27877
 O132 O 0.71088 0.24228 -0.27923
 Zr133 Zr 0.74696 0.25163 -0.20295
 Zr134 Zr 0.79344 0.29168 -0.25136
 Zr135 Zr 0.71250 0.20186 -0.25161
 Zr136 Zr 0.80065 0.20705 -0.24655
 O137 O 0.65749 0.20144 -0.25039
 O138 O 0.85425 0.21840 -0.24249
 O139 O 0.75425 0.20578 -0.22375
 O140 O 0.79499 0.25100 -0.22407
 O141 O 0.74658 0.29355 -0.22890
 O142 O 0.70410 0.24568 -0.22922
 C143 C 0.82055 0.19229 -0.30803
 C144 C 0.70119 0.19121 -0.31562
 C145 C 0.80898 0.30124 -0.31497
 O146 O 0.84837 0.29101 -0.24996
 O147 O 0.81004 0.31214 -0.21315
 O148 O 0.77666 0.28663 -0.18009
 C149 C 0.80122 0.30657 -0.18762
 O150 O 0.68435 0.29946 -0.29572
 Zr151 Zr 0.70503 0.28617 -0.25623
 O152 O 0.70961 0.28256 -0.18395
 O153 O 0.78474 0.34362 -0.25256
 O154 O 0.70923 0.33863 -0.25971
 O155 O 0.65110 0.27532 -0.25753
 O156 O 0.68257 0.30714 -0.22069
 C157 C 0.68705 0.30253 -0.19453
 O158 O 0.77210 0.23198 -0.16731
 O159 O 0.72030 0.14975 -0.25306
 O160 O 0.71717 0.21667 -0.18012
 O161 O 0.69770 0.18041 -0.21319
 O162 O 0.79746 0.15437 -0.24576
 O163 O 0.81674 0.18924 -0.20692
 C164 C 0.70158 0.18970 -0.18762
 H165 H 0.76097 0.17929 -0.28434
 H166 H 0.81480 0.25217 -0.21101
 H167 H 0.68192 0.24427 -0.21877
 H168 H 0.74989 0.30632 -0.29185
 H169 H 0.86747 0.19740 -0.24482
 H170 H 0.85610 0.31452 -0.25053
 H171 H 0.80789 0.35438 -0.25175
 H172 H 0.68567 0.34814 -0.25710
 H173 H 0.82136 0.14551 -0.24795
 H174 H 0.69697 0.13942 -0.25407
 H175 H 0.65028 0.17781 -0.24946
 H176 H 0.63835 0.29657 -0.25507
 H177 H 0.83738 0.17475 -0.20920
 H178 H 0.76030 0.24120 -0.15054
 H179 H 0.74789 0.25350 -0.35244
 H180 H 0.66671 0.31719 -0.29328
 Zr181 Zr 0.25007 0.75343 -0.29844
 O182 O 0.27428 0.73051 -0.33328
 O183 O 0.21383 0.78397 -0.31850
 O184 O 0.21748 0.72022 -0.32059
 O185 O 0.31692 0.81042 -0.28973
 O186 O 0.19497 0.68666 -0.28674
 O187 O 0.28206 0.78563 -0.32188
 O188 O 0.18292 0.80663 -0.28280
 O189 O 0.20631 0.74935 -0.27263
 O190 O 0.25011 0.79608 -0.27340
 O191 O 0.25683 0.70883 -0.27638
 O192 O 0.29834 0.75377 -0.27772
 Zr193 Zr 0.26051 0.74695 -0.20145
 Zr194 Zr 0.21431 0.70618 -0.24906
 Zr195 Zr 0.29637 0.79499 -0.25086
 Zr196 Zr 0.20798 0.79093 -0.24648
 O197 O 0.35134 0.79487 -0.24917
 O198 O 0.15422 0.78031 -0.24219
 O199 O 0.25399 0.79223 -0.22328
 O200 O 0.21279 0.74778 -0.22277
 O201 O 0.26087 0.70435 -0.22660
 O202 O 0.30387 0.75172 -0.22761
 C203 C 0.18916 0.80241 -0.30890
 C204 C 0.30788 0.80452 -0.31521
 C205 C 0.19945 0.69495 -0.31245
 O206 O 0.15937 0.70735 -0.24747
 O207 O 0.19705 0.68696 -0.21056
 O208 O 0.22964 0.71338 -0.17787
 C209 C 0.20509 0.69315 -0.18495
 O210 O 0.32377 0.69666 -0.29339
 Zr211 Zr 0.30293 0.71053 -0.25395
 O212 O 0.29706 0.71553 -0.18191
 O213 O 0.22241 0.65413 -0.24952
 O214 O 0.29879 0.65801 -0.25707
 O215 O 0.35706 0.72055 -0.25454
 O216 O 0.32405 0.68970 -0.21829
 C217 C 0.31908 0.69464 -0.19225
 O218 O 0.23548 0.76820 -0.16621
 O219 O 0.28933 0.84714 -0.25336
 O220 O 0.29067 0.78187 -0.17923
 O221 O 0.31027 0.81760 -0.21269
 O222 O 0.21162 0.84358 -0.24737
 O223 O 0.19147 0.81085 -0.20755
 C224 C 0.30612 0.80874 -0.18704
 H225 H 0.24861 0.81682 -0.28444
 H226 H 0.19279 0.74724 -0.20976
 H227 H 0.32587 0.75308 -0.21702
 H228 H 0.25816 0.68940 -0.28902
 H229 H 0.14128 0.80127 -0.24546
 H230 H 0.15137 0.68392 -0.24784
 H231 H 0.19912 0.64366 -0.24861
 H232 H 0.32242 0.64856 -0.25485
 H233 H 0.18788 0.85243 -0.25035
 H234 H 0.31282 0.85715 -0.25436
 H235 H 0.35877 0.81846 -0.24880
 H236 H 0.36938 0.69907 -0.25218
 H237 H 0.17112 0.82553 -0.21043
 H238 H 0.24686 0.75926 -0.14924
 H239 H 0.26347 0.73975 -0.35038
 H240 H 0.34182 0.67937 -0.29084
 Zr241 Zr 1.25242 1.25507 0.79898
 O242 O 1.23121 1.23221 0.83503
 O243 O 1.28688 1.28910 0.81772
 O244 O 1.28733 1.22427 0.82124
 O245 O 1.18157 1.30780 0.78987
 O246 O 1.31026 1.19004 0.78795
 O247 O 1.21802 1.28531 0.82217
 O248 O 1.31411 1.31321 0.78073
 O249 O 1.29575 1.25233 0.77254
 O250 O 1.24894 1.29656 0.77286
 O251 O 1.24751 1.20944 0.77786
 O252 O 1.20370 1.25187 0.77891
 Zr253 Zr 1.23974 1.24450 0.70213
 Zr254 Zr 1.28961 1.20789 0.75004
 Zr255 Zr 1.20230 1.29211 0.75113
 Zr256 Zr 1.29074 1.29270 0.74539
 O257 O 1.14742 1.28860 0.75013
 O258 O 1.34501 1.28422 0.74188
 O259 O 1.24417 1.29066 0.72301
 O260 O 1.28788 1.24851 0.72272
 O261 O 1.24269 1.20295 0.72831
 O262 O 1.19667 1.24780 0.72874
 C263 C 1.30881 1.30967 0.80696
 C264 C 1.19117 1.30261 0.81526
 C265 C 1.30590 1.19913 0.81353
 O266 O 1.34436 1.21189 0.74792
 O267 O 1.30732 1.18830 0.71163
 O268 O 1.27159 1.21134 0.67904
 C269 C 1.29751 1.19291 0.68623
 O270 O 1.18140 1.19425 0.79596
 Zr271 Zr 1.20086 1.20773 0.75602
 O272 O 1.20523 1.20999 0.68375
 O273 O 1.28440 1.15553 0.75138
 O274 O 1.20804 1.15568 0.76067
 O275 O 1.14628 1.21521 0.75689
 O276 O 1.18093 1.18385 0.72106
 C277 C 1.18534 1.18776 0.69482
 O278 O 1.26283 1.26532 0.66595
 O279 O 1.20576 1.34466 0.75271
 O280 O 1.20787 1.27799 0.67958
 O281 O 1.18690 1.31328 0.71290
 O282 O 1.28342 1.34497 0.74361
 O283 O 1.30640 1.31124 0.70581
 C284 C 1.19146 1.30450 0.68728
 H285 H 1.24913 1.31782 0.78330
 H286 H 1.30759 1.24853 0.70943
 H287 H 1.17451 1.24757 0.71831
 H288 H 1.24746 1.19044 0.79094
 H289 H 1.35689 1.30586 0.74452
 H290 H 1.35369 1.18891 0.74854
 H291 H 1.30821 1.14619 0.75041
 H292 H 1.18498 1.14490 0.75889
 H293 H 1.30649 1.35559 0.74585
 H294 H 1.18165 1.35327 0.75374
 H295 H 1.13843 1.31167 0.74917
 H296 H 1.13511 1.19315 0.75469
 H297 H 1.32652 1.32634 0.70816
 H298 H 1.25149 1.25514 0.64942
 H299 H 1.24181 1.24297 0.85161
 H300 H 1.16381 1.17644 0.79392
 Zr301 Zr 0.74096 0.74351 0.80010
 O302 O 0.76436 0.76630 0.83523
 O303 O 0.70691 0.70996 0.82022
 O304 O 0.70789 0.77558 0.82334
 O305 O 0.81094 0.69062 0.78845
 O306 O 0.68351 0.80917 0.79043
 O307 O 0.77624 0.71305 0.82226
 O308 O 0.67713 0.68696 0.78413
 O309 O 0.69644 0.74652 0.77515
 O310 O 0.74252 0.70171 0.77405
 O311 O 0.74542 0.78879 0.77832
 O312 O 0.78852 0.74605 0.77795
 Zr313 Zr 0.74849 0.75250 0.70269
 Zr314 Zr 0.70198 0.79055 0.75209
 Zr315 Zr 0.78801 0.70534 0.75051
 Zr316 Zr 0.69952 0.70581 0.74803
 O317 O 0.84286 0.70777 0.74736
 O318 O 0.64515 0.71433 0.74601
 O319 O 0.74485 0.70666 0.72393
 O320 O 0.70150 0.74960 0.72506
 O321 O 0.74764 0.79464 0.72840
 O322 O 0.79286 0.74919 0.72765
 C323 C 0.68393 0.69002 0.81009
 C324 C 0.80283 0.69594 0.81419
 C325 C 0.68929 0.80079 0.81591
 O326 O 0.64713 0.78711 0.75206
 O327 O 0.68274 0.80998 0.71429
 O328 O 0.71616 0.78580 0.68050
 C329 C 0.69104 0.80482 0.68857
 O330 O 0.81237 0.80492 0.79327
 Zr331 Zr 0.79077 0.78984 0.75453
 O332 O 0.78258 0.78549 0.68250
 O333 O 0.70784 0.84287 0.75294
 O334 O 0.78369 0.84204 0.75800
 O335 O 0.84523 0.78154 0.75426
 O336 O 0.81015 0.81170 0.71827
 C337 C 0.80433 0.80678 0.69231
 O338 O 0.72291 0.73089 0.66803
 O339 O 0.78369 0.65290 0.75272
 O340 O 0.77947 0.71918 0.67915
 O341 O 0.80168 0.68390 0.71180
 O342 O 0.70576 0.65338 0.74703
 O343 O 0.68233 0.68683 0.70905
 C344 C 0.79636 0.69284 0.68635
 H345 H 0.74257 0.68059 0.78465
 H346 H 0.68109 0.74967 0.71256
 H347 H 0.81457 0.74887 0.71651
 H348 H 0.74646 0.80804 0.79116
 H349 H 0.63332 0.69271 0.74894
 H350 H 0.63811 0.81020 0.75274
 H351 H 0.68411 0.85248 0.75274
 H352 H 0.80651 0.85278 0.75465
 H353 H 0.68254 0.64326 0.74998
 H354 H 0.80768 0.64394 0.75292
 H355 H 0.85137 0.68454 0.74635
 H356 H 0.85670 0.80329 0.75110
 H357 H 0.66240 0.67167 0.71206
 H358 H 0.73325 0.74051 0.65084
 H359 H 0.75432 0.75593 0.85223
 H360 H 0.82928 0.82310 0.79011
 Zr361 Zr 1.25927 0.74189 0.20081
 O362 O 1.23668 0.76179 0.16417
 O363 O 1.29832 0.71164 0.18325
 O364 O 1.29181 0.77463 0.17790
 O365 O 1.19113 0.68626 0.21034
 O366 O 1.31292 0.81022 0.21081
 O367 O 1.22808 0.70842 0.17803
 O368 O 1.32506 0.68816 0.22072
 O369 O 1.30179 0.74718 0.22748
 O370 O 1.25761 0.70071 0.22746
 O371 O 1.25143 0.78771 0.22102
 O372 O 1.21014 0.74311 0.22067
 Zr373 Zr 1.24484 0.75410 0.29727
 Zr374 Zr 1.29303 0.79190 0.24887
 Zr375 Zr 1.21038 0.70343 0.24907
 Zr376 Zr 1.29849 0.70709 0.25524
 O377 O 1.15536 0.70414 0.24939
 O378 O 1.35224 0.71721 0.26024
 O379 O 1.25161 0.70750 0.27744
 O380 O 1.29326 0.75180 0.27681
 O381 O 1.24571 0.79517 0.27048
 O382 O 1.20233 0.74806 0.27062
 C383 C 1.32161 0.69299 0.19451
 C384 C 1.20149 0.69071 0.18497
 C385 C 1.30904 0.80071 0.18532
 O386 O 1.34793 0.79029 0.25067
 O387 O 1.30961 0.81290 0.28682
 O388 O 1.27570 0.78840 0.32003
 C389 C 1.30071 0.80777 0.31237
 O390 O 1.18478 0.79913 0.20256
 Zr391 Zr 1.20452 0.78763 0.24275
 O392 O 1.20862 0.78755 0.31495
 O393 O 1.28511 0.84393 0.24705
 O394 O 1.20903 0.83985 0.23738
 O395 O 1.15042 0.77753 0.24179
 O396 O 1.18266 0.81113 0.27728
 C397 C 1.18733 0.80821 0.30356
 O398 O 1.26786 0.73502 0.33404
 O399 O 1.21716 0.65118 0.24873
 O400 O 1.21380 0.72030 0.32006
 O401 O 1.19399 0.68328 0.28773
 O402 O 1.29372 0.65455 0.25666
 O403 O 1.31285 0.69000 0.29551
 C404 C 1.19771 0.69339 0.31312
 H405 H 1.25955 0.67942 0.21717
 H406 H 1.31286 0.75285 0.29007
 H407 H 1.18000 0.74756 0.28093
 H408 H 1.25036 0.80641 0.20767
 H409 H 1.36491 0.69579 0.25879
 H410 H 1.35613 0.81364 0.24984
 H411 H 1.30841 0.85439 0.24775
 H412 H 1.18542 0.84957 0.23898
 H413 H 1.31743 0.64503 0.25521
 H414 H 1.19365 0.64128 0.24745
 H415 H 1.14763 0.68066 0.25036
 H416 H 1.13806 0.79908 0.24345
 H417 H 1.33282 0.67457 0.29388
 H418 H 1.25573 0.74519 0.35028
 H419 H 1.24856 0.75152 0.14786
 H420 H 1.16660 0.81647 0.20422
 Zr421 Zr 0.74060 1.25524 0.20353
 O422 O 0.76459 1.23367 0.16799
 O423 O 0.70123 1.28366 0.18441
 O424 O 0.70922 1.22054 0.18195
 O425 O 0.80580 1.31424 0.21141
 O426 O 0.68900 1.18593 0.21599
 O427 O 0.77107 1.28849 0.17955
 O428 O 0.67148 1.30560 0.22117
 O429 O 0.69794 1.24938 0.23030
 O430 O 0.73967 1.29779 0.22866
 O431 O 0.75001 1.21086 0.22554
 O432 O 0.78936 1.25701 0.22363
 Zr433 Zr 0.75396 1.24934 0.30027
 Zr434 Zr 0.70827 1.20636 0.25349
 Zr435 Zr 0.78663 1.29828 0.25040
 Zr436 Zr 0.69870 1.29100 0.25652
 O437 O 0.84161 1.30023 0.25091
 O438 O 0.64549 1.27881 0.26219
 O439 O 0.74523 1.29432 0.27875
 O440 O 0.70571 1.24793 0.27987
 O441 O 0.75538 1.20656 0.27532
 O442 O 0.79652 1.25541 0.27355
 C443 C 0.67618 1.30088 0.19504
 C444 C 0.79646 1.30791 0.18617
 C445 C 0.69255 1.19451 0.19022
 O446 O 0.65338 1.20560 0.25592
 O447 O 0.69301 1.18627 0.29236
 O448 O 0.72604 1.21414 0.32413
 C449 C 0.70235 1.19286 0.31759
 O450 O 0.81745 1.20063 0.20794
 Zr451 Zr 0.79657 1.21401 0.24748
 O452 O 0.79198 1.21992 0.31966
 O453 O 0.71855 1.15467 0.25279
 O454 O 0.79418 1.16140 0.24433
 O455 O 0.85024 1.22597 0.24622
 O456 O 0.81884 1.19378 0.28334
 C457 C 0.81414 1.19921 0.30942
 O458 O 0.72834 1.26973 0.33557
 O459 O 0.77725 1.35010 0.24806
 O460 O 0.78321 1.28527 0.32211
 O461 O 0.80135 1.32110 0.28824
 O462 O 0.70008 1.34374 0.25531
 O463 O 0.68327 1.31010 0.29601
 C464 C 0.79807 1.31232 0.31398
 H465 H 0.73691 1.31839 0.21758
 H466 H 0.68615 1.24654 0.29326
 H467 H 0.81869 1.25759 0.28381
 H468 H 0.75191 1.19152 0.21284
 H469 H 0.63177 1.29947 0.25972
 H470 H 0.64634 1.18189 0.25578
 H471 H 0.69575 1.14330 0.25413
 H472 H 0.81809 1.15268 0.24670
 H473 H 0.67583 1.35169 0.25333
 H474 H 0.80027 1.36103 0.24678
 H475 H 0.84813 1.32407 0.25131
 H476 H 0.86339 1.20503 0.24898
 H477 H 0.66253 1.32444 0.29378
 H478 H 0.74030 1.26136 0.35249
 H479 H 0.75275 1.24255 0.15120
 H480 H 0.83618 1.18400 0.21043
 O481 O 0.54651 1.05640 0.05466
 O482 O 0.58670 1.02883 0.02753
 C483 C 0.57811 1.04836 0.04821
 O484 O 0.45048 0.94079 0.04856
 O485 O 0.41113 0.97269 0.02439
 C486 C 0.41911 0.94978 0.04255
 O487 O 0.54581 0.94428 0.05210
 O488 O 0.58634 0.97322 0.02646
 C489 C 0.57750 0.95252 0.04614
 O490 O 0.45152 1.06130 0.05144
 O491 O 0.41162 1.03209 0.02548
 C492 C 0.41996 1.05330 0.04496
 Zr493 Zr 0.49912 1.04328 0.03618
 O494 O 0.49649 1.04531 0.08019
 O495 O 0.50128 1.09564 0.03279
 Zr496 Zr 0.49842 0.95972 0.03482
 O497 O 0.49618 0.96077 0.07889
 O498 O 0.50141 0.90712 0.03336
 O499 O 0.52969 1.00107 0.04112
 O500 O 0.46825 1.00159 0.04057
 O501 O 0.45278 1.06325 -0.04841
 O502 O 0.41219 1.03309 -0.02387
 C503 C 0.42108 1.05503 -0.04261
 O504 O 0.54669 0.94586 -0.05158
 O505 O 0.58667 0.97293 -0.02423
 C506 C 0.57824 0.95313 -0.04467
 O507 O 0.45152 0.94398 -0.05001
 O508 O 0.41161 0.97425 -0.02469
 C509 C 0.42001 0.95272 -0.04392
 O510 O 0.54770 1.05749 -0.05152
 O511 O 0.58734 1.02947 -0.02456
 C512 C 0.57920 1.04932 -0.04504
 Zr513 Zr 0.50008 1.04519 -0.03281
 O514 O 0.49858 1.05290 -0.07635
 O515 O 0.50442 1.09732 -0.02712
 Zr516 Zr 0.49912 0.96117 -0.03439
 O517 O 0.49700 0.95903 -0.07845
 O518 O 0.49982 0.90878 -0.03082
 Zr519 Zr 0.55218 1.00182 0.00102
 Zr520 Zr 0.44608 1.00277 0.00055
 O521 O 0.46953 1.00357 -0.03916
 O522 O 0.53043 1.00292 -0.03926
 O523 O 0.46775 1.05102 0.00164
 O524 O 0.52977 0.95408 0.00024
 O525 O 0.53103 1.05007 0.00193
 O526 O 0.46697 0.95423 -0.00010
 H527 H 0.45311 1.00119 0.05731
 H528 H 0.54537 0.93444 0.00017
 H529 H 0.45502 1.00393 -0.05617
 H530 H 0.54758 1.06896 0.00228
 H531 H 0.48303 0.89928 0.02055
 H532 H 0.50033 0.90001 -0.05013
 H533 H 0.51231 0.97683 -0.08567
 H534 H 0.49692 1.03069 -0.08507
 H535 H 0.48170 1.10562 -0.02029
 H536 H 0.50192 1.10426 0.05214
 H537 H 0.50436 1.02338 0.08706
 H538 H 0.49610 0.93729 0.08521
 O539 O 0.94960 0.55975 0.55186
 O540 O 0.91064 0.53058 0.52502
 C541 C 0.91830 0.55153 0.54483
 O542 O 1.04811 0.56422 0.45304
 O543 O 1.08729 0.53236 0.47740
 C544 C 1.07947 0.55528 0.45922
 O545 O 0.95308 0.56607 0.45303
 O546 O 0.91247 0.53396 0.47582
 C547 C 0.92141 0.55693 0.45796
 O548 O 1.04492 0.55641 0.55596
 O549 O 1.08585 0.53055 0.52843
 C550 C 1.07674 0.54937 0.54939
 Zr551 Zr 0.99790 0.54229 0.53743
 O552 O 1.00078 0.59485 0.53948
 O553 O 0.99504 0.53737 0.58128
 Zr554 Zr 1.00011 0.54711 0.46827
 O555 O 1.00059 0.59905 0.47516
 O556 O 0.99985 0.55243 0.42442
 O557 O 0.96725 0.55118 0.50256
 O558 O 1.02999 0.55084 0.50366
 O559 O 1.04526 0.44385 0.55156
 O560 O 1.08604 0.47397 0.52718
 C561 C 1.07699 0.45260 0.54634
 O562 O 0.95317 0.44634 0.44778
 O563 O 0.91240 0.47509 0.47343
 C564 C 0.92140 0.45434 0.45378
 O565 O 1.04870 0.44994 0.44712
 O566 O 1.08769 0.47580 0.47616
 C567 C 1.07999 0.45711 0.45483
 O568 O 0.95054 0.43930 0.54658
 O569 O 0.91124 0.47151 0.52262
 C570 C 0.91917 0.44825 0.54050
 Zr571 Zr 0.99836 0.45886 0.53328
 O572 O 1.00235 0.40665 0.52803
 O573 O 0.99422 0.45364 0.57703
 Zr574 Zr 1.00041 0.46362 0.46409
 O575 O 0.99870 0.41091 0.46244
 O576 O 1.00098 0.46837 0.42017
 Zr577 Zr 0.94612 0.50288 0.49983
 Zr578 Zr 1.05220 0.50305 0.50169
 O579 O 1.03052 0.45515 0.49899
 O580 O 0.96774 0.45470 0.49783
 O581 O 1.02899 0.50035 0.54145
 O582 O 0.97006 0.50562 0.46041
 O583 O 0.96754 0.50018 0.54006
 O584 O 1.03152 0.50578 0.46116
 H585 H 1.04559 0.57040 0.50486
 H586 H 0.95583 0.50666 0.44326
 H587 H 1.04679 0.43605 0.49875
 H588 H 0.95211 0.49907 0.55660
 H589 H 1.01017 0.53187 0.41661
 H590 H 1.00072 0.44548 0.41243
 H591 H 1.02149 0.40198 0.46830
 H592 H 0.98272 0.39943 0.51618
 H593 H 1.00346 0.47435 0.58533
 H594 H 0.99479 0.56024 0.58907
 H595 H 0.98260 0.60385 0.52703
 H596 H 1.00167 0.60950 0.45648
 O597 O 0.94037 0.45639 -0.05278
 O598 O 0.96639 0.41738 -0.02469
 C599 C 0.94679 0.42596 -0.04564
 O600 O 1.06793 0.53956 -0.04872
 O601 O 1.03706 0.58112 -0.02701
 C602 C 1.06062 0.57060 -0.04469
 O603 O 1.05949 0.44896 -0.04832
 O604 O 1.02514 0.41399 -0.02221
 C605 C 1.04889 0.41969 -0.04102
 O606 O 0.94167 0.54754 -0.05229
 O607 O 0.97508 0.58486 -0.02780
 C608 C 0.95207 0.57743 -0.04673
 Zr609 Zr 0.95740 0.50166 -0.03585
 O610 O 0.95600 0.50245 -0.07992
 O611 O 0.90260 0.50345 -0.03293
 Zr612 Zr 1.04420 0.49620 -0.03413
 O613 O 1.04224 0.49542 -0.07817
 O614 O 1.09890 0.49051 -0.03359
 O615 O 0.99910 0.46894 -0.03975
 O616 O 1.00298 0.52786 -0.04107
 O617 O 0.93781 0.55160 0.04625
 O618 O 0.97350 0.58678 0.02144
 C619 C 0.94905 0.58090 0.03970
 O620 O 1.05547 0.45353 0.05342
 O621 O 1.02375 0.41625 0.02744
 C622 C 1.04593 0.42363 0.04698
 O623 O 1.06527 0.54432 0.04770
 O624 O 1.03522 0.58328 0.02225
 C625 C 1.05861 0.57469 0.04047
 O626 O 0.93333 0.46050 0.04990
 O627 O 0.96310 0.41973 0.02608
 C628 C 0.94002 0.42961 0.04424
 Zr629 Zr 0.95517 0.50436 0.03361
 O630 O 0.95779 0.50660 0.07758
 O631 O 0.90016 0.50563 0.03334
 Zr632 Zr 1.04209 0.49935 0.03527
 O633 O 1.04183 0.50404 0.07922
 O634 O 1.09677 0.49432 0.03342
 Zr635 Zr 0.99632 0.44982 0.00107
 Zr636 Zr 1.00304 0.55116 -0.00177
 O637 O 1.00040 0.53133 0.03880
 O638 O 0.99643 0.47212 0.04085
 O639 O 0.95139 0.53361 -0.00210
 O640 O 1.04757 0.46805 0.00156
 O641 O 0.94785 0.47392 -0.00064
 O642 O 1.05194 0.52751 -0.00018
 H643 H 1.00453 0.54144 -0.05825
 H644 H 1.06732 0.45224 0.00239
 H645 H 1.00110 0.54652 0.05507
 H646 H 0.92648 0.46018 -0.00112
 H647 H 1.10791 0.50505 -0.01861
 H648 H 1.10508 0.49463 0.05296
 H649 H 1.02171 0.49117 0.08622
 H650 H 0.93349 0.50839 0.08436
 H651 H 0.89308 0.52059 0.01802
 H652 H 0.89388 0.50236 -0.05232
 H653 H 0.97738 0.49122 -0.08652
 H654 H 1.06660 0.49347 -0.08477
 O655 O 0.44338 0.95598 0.44501
 O656 O 0.47044 0.91750 0.47298
 C657 C 0.45074 0.92570 0.45199
 O658 O 0.56913 1.04622 0.45663
 O659 O 0.53277 1.08449 0.47733
 C660 C 0.55941 1.07646 0.46183
 O661 O 0.56505 0.95478 0.45276
 O662 O 0.52996 0.91706 0.47535
 C663 C 0.55497 0.92470 0.45807
 O664 O 0.44061 1.04700 0.44736
 O665 O 0.47078 1.08498 0.47372
 C666 C 0.44901 1.07715 0.45398
 Zr667 Zr 0.45952 1.00141 0.46205
 O668 O 0.47014 1.00209 0.41878
 O669 O 0.40527 1.00144 0.45501
 Zr670 Zr 0.54580 1.00066 0.46722
 O671 O 0.54372 1.00170 0.42322
 O672 O 0.60085 1.00053 0.46654
 O673 O 0.50295 0.97087 0.45919
 O674 O 0.50339 1.03071 0.45966
 O675 O 0.43250 1.04692 0.54596
 O676 O 0.46677 1.08486 0.52286
 C677 C 0.44239 1.07701 0.54062
 O678 O 0.55276 0.95519 0.55498
 O679 O 0.52636 0.91708 0.52626
 C680 C 0.54526 0.92501 0.54779
 O681 O 0.55965 1.04651 0.55055
 O682 O 0.52895 1.08478 0.52486
 C683 C 0.55210 1.07673 0.54342
 O684 O 0.43315 0.95542 0.54643
 O685 O 0.46771 0.91739 0.52357
 C686 C 0.44307 0.92527 0.54106
 Zr687 Zr 0.45225 1.00125 0.53167
 O688 O 0.44737 1.00407 0.57560
 O689 O 0.39757 0.99917 0.52698
 Zr690 Zr 0.53944 1.00076 0.53671
 O691 O 0.53690 1.00533 0.58063
 O692 O 0.59423 0.99630 0.53858
 Zr693 Zr 0.49888 0.95035 0.49954
 Zr694 Zr 0.49935 1.05169 0.49974
 O695 O 0.49568 1.03009 0.53958
 O696 O 0.49510 0.97125 0.53981
 O697 O 0.44895 1.03142 0.49655
 O698 O 0.54887 0.97115 0.50240
 O699 O 0.44923 0.97199 0.49644
 O700 O 0.54951 1.03057 0.50242
 H701 H 0.50529 1.04569 0.44334
 H702 H 0.56887 0.95573 0.50385
 H703 H 0.49491 1.04467 0.55623
 H704 H 0.42878 0.95708 0.49530
 H705 H 0.60895 0.98762 0.48278
 H706 H 0.60423 1.01355 0.52624
 H707 H 0.51880 0.98981 0.58731
 H708 H 0.46086 0.98552 0.58370
 H709 H 0.39034 1.01903 0.51628
 H710 H 0.39393 0.99409 0.47243
 H711 H 0.44730 1.00310 0.40933
 H712 H 0.56814 1.00305 0.41671
 O713 O 1.06514 0.93423 0.53170
 O714 O 1.03279 0.95960 0.56603
 C715 C 1.05635 0.93883 0.55750
 O716 O 1.06093 1.06303 0.46744
 O717 O 1.03011 1.03602 0.43337
 C718 C 1.05219 1.05824 0.44176
 O719 O 1.06696 1.04711 0.54289
 O720 O 1.03340 1.01473 0.57171
 C721 C 1.05847 1.03568 0.56714
 O722 O 1.06304 0.94371 0.45535
 O723 O 1.03084 0.97834 0.42738
 C724 C 1.05456 0.95581 0.43135
 Zr725 Zr 1.04489 0.95548 0.49526
 O726 O 1.09980 0.95357 0.49333
 O727 O 1.04032 0.90339 0.49044
 Zr728 Zr 1.04506 1.03844 0.50374
 O729 O 1.09992 1.03639 0.50104
 O730 O 1.04570 1.09009 0.51250
 O731 O 1.05212 0.99340 0.52410
 O732 O 1.05117 1.00058 0.47530
 O733 O 0.93900 0.94398 0.45633
 O734 O 0.97136 0.97790 0.42775
 C735 C 0.94765 0.95550 0.43214
 O736 O 0.93721 1.04705 0.54444
 O737 O 0.97192 1.01490 0.57244
 C738 C 0.94690 1.03594 0.56846
 O739 O 0.94026 1.06230 0.46847
 O740 O 0.97081 1.03572 0.43386
 C741 C 0.94841 1.05758 0.44257
 O742 O 0.93776 0.93515 0.53274
 O743 O 0.97105 0.95988 0.56656
 C744 C 0.94679 0.93971 0.55841
 Zr745 Zr 0.95837 0.95515 0.49599
 O746 O 0.90373 0.94958 0.49555
 O747 O 0.96335 0.90276 0.49270
 Zr748 Zr 0.95791 1.03850 0.50462
 O749 O 0.90300 1.04059 0.50239
 O750 O 0.95970 1.09012 0.51351
 Zr751 Zr 1.00190 0.99114 0.54145
 Zr752 Zr 1.00093 1.00309 0.45828
 O753 O 0.95115 1.00037 0.47640
 O754 O 0.95125 0.99327 0.52486
 O755 O 1.00140 0.95252 0.46983
 O756 O 1.00179 1.04126 0.52911
 O757 O 1.00185 0.94579 0.51952
 O758 O 1.00115 1.04872 0.48002
 H759 H 1.07185 1.00270 0.46306
 H760 H 1.00211 1.05871 0.54372
 H761 H 0.93031 1.00241 0.46446
 H762 H 1.00181 0.92463 0.53011
 H763 H 1.03021 1.10106 0.49891
 H764 H 0.97076 1.10136 0.49744
 H765 H 0.89377 1.02227 0.51402
 H766 H 0.89367 0.97195 0.49284
 H767 H 0.97364 0.89760 0.47425
 H768 H 1.06439 0.89461 0.48977
 H769 H 1.10851 0.97246 0.50455
 H770 H 1.10836 1.05952 0.50336
 O771 O 0.42288 0.45869 -0.03822
 O772 O 0.46417 0.47568 -0.06977
 C773 C 0.43464 0.46207 -0.06341
 O774 O 0.46369 0.57238 0.03667
 O775 O 0.48221 0.53433 0.06890
 C776 C 0.46761 0.56229 0.06200
 O777 O 0.45706 0.56713 -0.03940
 O778 O 0.47914 0.52911 -0.07052
 C779 C 0.46122 0.55548 -0.06426
 O780 O 0.42520 0.45669 0.03905
 O781 O 0.46534 0.47786 0.06968
 C782 C 0.43692 0.46199 0.06392
 Zr783 Zr 0.44692 0.46878 0.00027
 O784 O 0.39417 0.48345 0.00231
 O785 O 0.43352 0.41774 0.00008
 Zr786 Zr 0.47304 0.54827 -0.00115
 O787 O 0.41979 0.56123 0.00091
 O788 O 0.48823 0.59863 -0.00548
 O789 O 0.45339 0.50973 -0.02529
 O790 O 0.45388 0.51104 0.02398
 O791 O 0.53767 0.42115 0.03923
 O792 O 0.52039 0.46178 0.06998
 C793 C 0.53299 0.43258 0.06419
 O794 O 0.57961 0.53206 -0.04037
 O795 O 0.53842 0.51268 -0.07083
 C796 C 0.56773 0.52702 -0.06526
 O797 O 0.57817 0.53838 0.03680
 O798 O 0.53855 0.51873 0.06863
 C799 C 0.56685 0.53448 0.06203
 O800 O 0.54337 0.42147 -0.03770
 O801 O 0.52256 0.45908 -0.06948
 C802 C 0.53844 0.43174 -0.06293
 Zr803 Zr 0.53029 0.44386 0.00045
 O804 O 0.58318 0.42991 0.00402
 O805 O 0.51570 0.39317 -0.00120
 Zr806 Zr 0.55649 0.52335 -0.00131
 O807 O 0.60851 0.50656 0.00197
 O808 O 0.57391 0.57303 -0.00581
 Zr809 Zr 0.50152 0.49484 -0.04217
 Zr810 Zr 0.50183 0.49743 0.04139
 O811 O 0.54965 0.48246 0.02411
 O812 O 0.54991 0.48091 -0.02544
 O813 O 0.48663 0.45083 0.02534
 O814 O 0.51640 0.54122 -0.02571
 O815 O 0.48661 0.44963 -0.02387
 O816 O 0.51694 0.54304 0.02352
 H817 H 0.43423 0.51711 0.03640
 H818 H 0.52185 0.55974 -0.03862
 H819 H 0.56895 0.47694 0.03695
 H820 H 0.48050 0.43044 -0.03588
 H821 H 0.50635 0.60303 0.00862
 H822 H 0.56242 0.58649 0.00882
 H823 H 0.61355 0.49240 -0.01444
 H824 H 0.59545 0.43793 -0.01282
 H825 H 0.49308 0.39128 0.00852
 H826 H 0.40779 0.41685 -0.00053
 H827 H 0.39184 0.50377 -0.00916
 H828 H 0.41868 0.58586 0.00024
 C829 C 0.33719 1.12883 0.12274
 C830 C 0.32905 1.11716 0.14964
 C831 C 0.31695 1.13884 0.17031
 C832 C 0.31193 1.17278 0.16462
 C833 C 0.31867 1.18436 0.13747
 C834 C 0.33138 1.16270 0.11682
 C835 C 0.35433 1.10631 0.10195
 C836 C 0.34861 1.10932 0.07297
 C837 C 0.36793 1.09015 0.05380
 C838 C 0.39319 1.06777 0.06339
 C839 C 0.39763 1.06368 0.09217
 C840 C 0.37859 1.08262 0.11116
 H841 H 0.31127 1.12888 0.19079
 H842 H 0.31489 1.21035 0.13236
 H843 H 0.36453 1.09411 0.03165
 H844 H 0.41735 1.04687 0.10001
 H845 H 0.33772 1.17275 0.09652
 H846 H 0.32987 1.12705 0.06512
 H847 H 0.33227 1.09116 0.15487
 H848 H 0.38442 1.07988 0.13308
 C849 C 0.83473 0.62677 0.62199
 C850 C 0.82931 0.66076 0.61627
 C851 C 0.81658 0.68234 0.63699
 C852 C 0.80958 0.67052 0.66401
 C853 C 0.81422 0.63650 0.66950
 C854 C 0.82617 0.61491 0.64875
 C855 C 0.85189 0.60424 0.60122
 C856 C 0.87542 0.57992 0.61055
 C857 C 0.89454 0.56092 0.59168
 C858 C 0.89098 0.56563 0.56290
 C859 C 0.86647 0.58865 0.55314
 C860 C 0.84698 0.60782 0.57220
 H861 H 0.81303 0.70841 0.63207
 H862 H 0.80824 0.62641 0.68988
 H863 H 0.91378 0.54368 0.59964
 H864 H 0.86385 0.59314 0.53099
 H865 H 0.82896 0.58882 0.65383
 H866 H 0.88071 0.57673 0.63252
 H867 H 0.83594 0.67097 0.59608
 H868 H 0.82882 0.62602 0.56423
 C869 C 0.65762 0.87371 0.12265
 C870 C 0.66398 0.84015 0.11574
 C871 C 0.67635 0.81773 0.13588
 C872 C 0.68208 0.82827 0.16345
 C873 C 0.67643 0.86191 0.17011
 C874 C 0.66476 0.88430 0.15000
 C875 C 0.64111 0.89713 0.10239
 C876 C 0.61644 0.92032 0.11202
 C877 C 0.59819 0.94030 0.09343
 C878 C 0.60383 0.93773 0.06463
 C879 C 0.62953 0.91589 0.05471
 C880 C 0.64806 0.89568 0.07349
 H881 H 0.68076 0.79204 0.13002
 H882 H 0.68144 0.87115 0.19093
 H883 H 0.57808 0.95662 0.10150
 H884 H 0.63380 0.91305 0.03251
 H885 H 0.66117 0.91005 0.15602
 H886 H 0.60969 0.92188 0.13390
 H887 H 0.65846 0.83095 0.09501
 H888 H 0.66713 0.87838 0.06534
 C889 C 1.15452 0.37315 0.62432
 C890 C 1.16124 0.33963 0.61743
 C891 C 1.17320 0.31714 0.63770
 C892 C 1.17821 0.32752 0.66543
 C893 C 1.17209 0.36108 0.67211
 C894 C 1.16081 0.38355 0.65187
 C895 C 1.13875 0.39674 0.60373
 C896 C 1.11416 0.42030 0.61289
 C897 C 1.09666 0.44048 0.59396
 C898 C 1.10293 0.43779 0.56524
 C899 C 1.12852 0.41552 0.55580
 C900 C 1.14634 0.39515 0.57492
 H901 H 1.17799 0.29153 0.63178
 H902 H 1.17652 0.37024 0.69304
 H903 H 1.07655 0.45704 0.60168
 H904 H 1.13323 0.41249 0.53367
 H905 H 1.15697 0.40924 0.65795
 H906 H 1.10686 0.42201 0.63464
 H907 H 1.15639 0.33050 0.59657
 H908 H 1.16537 0.37761 0.56708
 C909 C 0.66200 1.12334 -0.12379
 C910 C 0.66942 1.15684 -0.11747
 C911 C 0.68243 1.17845 -0.13802
 C912 C 0.68793 1.16720 -0.16548
 C913 C 0.68119 1.13361 -0.17160
 C914 C 0.66874 1.11199 -0.15106
 C915 C 0.64481 1.10092 -0.10294
 C916 C 0.61942 1.07817 -0.11190
 C917 C 0.60044 1.05944 -0.09275
 C918 C 0.60606 1.06277 -0.06401
 C919 C 0.63251 1.08409 -0.05475
 C920 C 0.65174 1.10306 -0.07409
 H921 H 0.68750 1.20413 -0.13253
 H922 H 0.68581 1.12384 -0.19234
 H923 H 0.57982 1.04349 -0.10038
 H924 H 0.63687 1.08754 -0.03264
 H925 H 0.66424 1.08627 -0.15669
 H926 H 0.61267 1.07607 -0.13372
 H927 H 0.66419 1.16668 -0.09687
 H928 H 0.67138 1.12000 -0.06641
 C929 C 1.15859 0.63141 0.38027
 C930 C 1.15556 0.62117 0.35231
 C931 C 1.16776 0.64136 0.33051
 C932 C 1.18341 0.67233 0.33609
 C933 C 1.18669 0.68235 0.36410
 C934 C 1.17446 0.66223 0.38582
 C935 C 1.14331 0.61113 0.40340
 C936 C 1.12496 0.62690 0.42511
 C937 C 1.10683 0.60824 0.44495
 C938 C 1.10691 0.57335 0.44393
 C939 C 1.12683 0.55731 0.42335
 C940 C 1.14482 0.57605 0.40320
 H941 H 1.16492 0.63265 0.30928
 H942 H 1.19886 0.70582 0.36934
 H943 H 1.09092 0.62113 0.46022
 H944 H 1.12650 0.53043 0.42170
 H945 H 1.17756 0.67080 0.40707
 H946 H 1.12276 0.65374 0.42580
 H947 H 1.14301 0.59786 0.34720
 H948 H 1.15899 0.56309 0.38695
 C949 C 0.34167 0.87631 -0.12295
 C950 C 0.33738 0.84219 -0.11720
 C951 C 0.32588 0.82018 -0.13793
 C952 C 0.31895 0.83163 -0.16503
 C953 C 0.32278 0.86571 -0.17069
 C954 C 0.33359 0.88776 -0.14990
 C955 C 0.35702 0.89941 -0.10182
 C956 C 0.37979 0.92472 -0.11054
 C957 C 0.39762 0.94403 -0.09117
 C958 C 0.39344 0.93863 -0.06250
 C959 C 0.36949 0.91469 -0.05337
 C960 C 0.35130 0.89527 -0.07292
 H961 H 0.32303 0.79407 -0.13287
 H962 H 0.31690 0.87548 -0.19117
 H963 H 0.41651 0.96197 -0.09862
 H964 H 0.36644 0.90968 -0.03133
 H965 H 0.33565 0.91389 -0.15506
 H966 H 0.38562 0.92843 -0.13240
 H967 H 0.34383 0.83225 -0.09691
 H968 H 0.33361 0.87636 -0.06539
 C969 C 0.83772 0.37977 0.37653
 C970 C 0.82971 0.34664 0.38347
 C971 C 0.81667 0.32470 0.36328
 C972 C 0.81165 0.33532 0.33564
 C973 C 0.81885 0.36864 0.32893
 C974 C 0.83143 0.39058 0.34912
 C975 C 0.85547 0.40217 0.39685
 C976 C 0.88234 0.42302 0.38746
 C977 C 0.90184 0.44162 0.40622
 C978 C 0.89517 0.44002 0.43495
 C979 C 0.86732 0.42062 0.44458
 C980 C 0.84765 0.40168 0.42563
 H981 H 0.81121 0.29923 0.36919
 H982 H 0.81462 0.37789 0.30803
 H983 H 0.92338 0.45627 0.39836
 H984 H 0.86205 0.41872 0.46671
 H985 H 0.83657 0.41607 0.34313
 H986 H 0.88965 0.42371 0.36566
 H987 H 0.83462 0.33731 0.40425
 H988 H 0.82689 0.38611 0.43352
 C989 C 1.13204 0.35253 0.12326
 C990 C 1.15869 0.32997 0.11631
 C991 C 1.18164 0.31822 0.13670
 C992 C 1.17855 0.32863 0.16464
 C993 C 1.15244 0.35182 0.17143
 C994 C 1.12959 0.36364 0.15104
 C995 C 1.10749 0.36524 0.10161
 C996 C 1.07247 0.37207 0.10828
 C997 C 1.05076 0.38815 0.08912
 C998 C 1.06343 0.39722 0.06278
 C999 C 1.09759 0.38862 0.05541
 C1000 C 1.11936 0.37268 0.07455
 H1001 H 1.20119 0.30019 0.13065
 H1002 H 1.14919 0.36047 0.19266
 H1003 H 1.02481 0.39543 0.09550
 H1004 H 1.10821 0.39644 0.03553
 H1005 H 1.11004 0.38166 0.15707
 H1006 H 1.06220 0.36615 0.12870
 H1007 H 1.16134 0.32072 0.09521
 H1008 H 1.14616 0.36820 0.06870
 C1009 C 0.62278 0.84582 0.62585
 C1010 C 0.65739 0.83747 0.61906
 C1011 C 0.67987 0.82440 0.63933
 C1012 C 0.66843 0.81998 0.66696
 C1013 C 0.63384 0.82799 0.67361
 C1014 C 0.61129 0.84031 0.65335
 C1015 C 0.59932 0.86234 0.60522
 C1016 C 0.57605 0.88707 0.61437
 C1017 C 0.55626 0.90510 0.59542
 C1018 C 0.55920 0.89933 0.56667
 C1019 C 0.58091 0.87358 0.55723
 C1020 C 0.60087 0.85520 0.57639
 H1021 H 0.70630 0.81817 0.63349
 H1022 H 0.62383 0.82406 0.69447
 H1023 H 0.53995 0.92509 0.60319
 H1024 H 0.58402 0.86905 0.53511
 H1025 H 0.58468 0.84546 0.65934
 H1026 H 0.57438 0.89394 0.63614
 H1027 H 0.66739 0.84173 0.59826
 H1028 H 0.61812 0.83603 0.56858
 C1029 C 1.14146 0.65002 -0.12296
 C1030 C 1.17001 0.66986 -0.11537
 C1031 C 1.19168 0.68406 -0.13590
 C1032 C 1.18544 0.67862 -0.16465
 C1033 C 1.15641 0.65892 -0.17185
 C1034 C 1.13472 0.64541 -0.15148
 C1035 C 1.12021 0.63146 -0.10192
 C1036 C 1.11055 0.59868 -0.10806
 C1037 C 1.09048 0.58032 -0.08963
 C1038 C 1.07959 0.59352 -0.06384
 C1039 C 1.08878 0.62653 -0.05737
 C1040 C 1.10920 0.64533 -0.07625
 H1041 H 1.21340 0.69912 -0.12909
 H1042 H 1.14974 0.65414 -0.19342
 H1043 H 1.08370 0.55520 -0.09573
 H1044 H 1.08092 0.63741 -0.03768
 H1045 H 1.11254 0.63094 -0.15822
 H1046 H 1.11898 0.58675 -0.12718
 H1047 H 1.17612 0.67369 -0.09359
 H1048 H 1.11615 0.67064 -0.07093
 C1049 C 0.64190 1.15190 0.38539
 C1050 C 0.67445 1.16656 0.39047
 C1051 C 0.69459 1.17901 0.36844
 C1052 C 0.68288 1.17666 0.34073
 C1053 C 0.65060 1.16138 0.33567
 C1054 C 0.63031 1.14933 0.35772
 C1055 C 0.62081 1.13767 0.40858
 C1056 C 0.58445 1.14188 0.40955
 C1057 C 0.56426 1.12452 0.42914
 C1058 C 0.58010 1.10239 0.44777
 C1059 C 0.61651 1.09976 0.44789
 C1060 C 0.63668 1.11743 0.42870
 H1061 H 0.71919 1.19079 0.37315
 H1062 H 0.64055 1.15940 0.31468
 H1063 H 0.53619 1.12641 0.42828
 H1064 H 0.62922 1.08242 0.46182
 H1065 H 0.60566 1.13761 0.35308
 H1066 H 0.57156 1.15760 0.39447
 H1067 H 0.68409 1.16884 0.41156
 H1068 H 0.66453 1.11351 0.42841
 C1069 C 0.86898 0.65637 0.11867
 C1070 C 0.88228 0.66696 0.14455
 C1071 C 0.86018 0.67787 0.16587
 C1072 C 0.82410 0.67965 0.16182
 C1073 C 0.81058 0.67021 0.13582
 C1074 C 0.83267 0.65824 0.11465
 C1075 C 0.89278 0.64192 0.09682
 C1076 C 0.88472 0.64312 0.06810
 C1077 C 0.90514 0.62590 0.04840
 C1078 C 0.93446 0.60789 0.05693
 C1079 C 0.94375 0.60838 0.08513
 C1080 C 0.92320 0.62489 0.10479
 H1081 H 0.87153 0.68590 0.18538
 H1082 H 0.78288 0.67162 0.13203
 H1083 H 0.89689 0.62503 0.02685
 H1084 H 0.96558 0.59367 0.09231
 H1085 H 0.82108 0.64990 0.09535
 H1086 H 0.86202 0.65640 0.06088
 H1087 H 0.90994 0.66717 0.14847
 H1088 H 0.93023 0.62233 0.12648
 C1089 C 0.36317 1.15288 0.62075
 C1090 C 0.37653 1.16101 0.64720
 C1091 C 0.35488 1.17286 0.66844
 C1092 C 0.31925 1.17794 0.66380
 C1093 C 0.30579 1.17092 0.63721
 C1094 C 0.32740 1.15818 0.61603
 C1095 C 0.38622 1.13723 0.59905
 C1096 C 0.38058 1.14160 0.57017
 C1097 C 0.40070 1.12414 0.55036
 C1098 C 0.42701 1.10241 0.55913
 C1099 C 0.43363 1.09923 0.58770
 C1100 C 0.41353 1.11617 0.60734
 H1101 H 0.36632 1.17889 0.68842
 H1102 H 0.27848 1.17486 0.63292
 H1103 H 0.39458 1.12631 0.52842
 H1104 H 0.45322 1.08192 0.59495
 H1105 H 0.31588 1.15188 0.59617
 H1106 H 0.36014 1.15786 0.56287
 H1107 H 0.40396 1.15844 0.65163
 H1108 H 0.41843 1.11119 0.62913
 C1109 C 0.86785 0.34781 -0.12391
 C1110 C 0.83310 0.33956 -0.11757
 C1111 C 0.81102 0.32647 -0.13817
 C1112 C 0.82305 0.32202 -0.16565
 C1113 C 0.85780 0.32988 -0.17179
 C1114 C 0.87993 0.34211 -0.15123
 C1115 C 0.89101 0.36439 -0.10307
 C1116 C 0.91456 0.38884 -0.11214
 C1117 C 0.93461 0.40654 -0.09317
 C1118 C 0.93162 0.40080 -0.06444
 C1119 C 0.90939 0.37549 -0.05502
 C1120 C 0.88917 0.35739 -0.07424
 H1121 H 0.78449 0.32022 -0.13271
 H1122 H 0.86831 0.32579 -0.19249
 H1123 H 0.95134 0.42617 -0.10092
 H1124 H 0.90626 0.37101 -0.03291
 H1125 H 0.90669 0.34705 -0.15685
 H1126 H 0.91641 0.39567 -0.13390
 H1127 H 0.82271 0.34388 -0.09689
 H1128 H 0.87163 0.33847 -0.06650
 C1129 C 0.36934 0.84811 0.37517
 C1130 C 0.33455 0.84052 0.38199
 C1131 C 0.31178 0.82771 0.36173
 C1132 C 0.32318 0.82290 0.33412
 C1133 C 0.35797 0.83010 0.32753
 C1134 C 0.38074 0.84203 0.34774
 C1135 C 0.39332 0.86437 0.39560
 C1136 C 0.41721 0.88830 0.38609
 C1137 C 0.43805 0.90575 0.40470
 C1138 C 0.43554 0.90026 0.43348
 C1139 C 0.41297 0.87545 0.44331
 C1140 C 0.39198 0.85759 0.42447
 H1141 H 0.28523 0.82196 0.36754
 H1142 H 0.36803 0.82573 0.30673
 H1143 H 0.45488 0.92514 0.39665
 H1144 H 0.41010 0.87127 0.46549
 H1145 H 0.40748 0.84643 0.34174
 H1146 H 0.41869 0.89499 0.36428
 H1147 H 0.32467 0.84512 0.40279
 H1148 H 0.37418 0.83910 0.43255
 C1149 C 1.11761 1.14801 0.36551
 C1150 C 1.13715 1.17508 0.37545
 C1151 C 1.15768 1.19358 0.35722
 C1152 C 1.15855 1.18544 0.32882
 C1153 C 1.13764 1.15940 0.31878
 C1154 C 1.11749 1.14077 0.33698
 C1155 C 1.10001 1.12543 0.38502
 C1156 C 1.06761 1.11132 0.37846
 C1157 C 1.05226 1.08841 0.39647
 C1158 C 1.06897 1.07982 0.42133
 C1159 C 1.10142 1.09373 0.42770
 C1160 C 1.11687 1.11621 0.40966
 H1161 H 1.17313 1.21388 0.36538
 H1162 H 1.13775 1.15251 0.29695
 H1163 H 1.02712 1.07809 0.39135
 H1164 H 1.11499 1.08714 0.44666
 H1165 H 1.10308 1.11978 0.32885
 H1166 H 1.05408 1.11818 0.35957
 H1167 H 1.13710 1.18146 0.39738
 H1168 H 1.14231 1.12592 0.41479
 C1169 C 0.63556 0.61556 -0.13954
 C1170 C 0.65800 0.63893 -0.12711
 C1171 C 0.67291 0.66431 -0.14304
 C1172 C 0.66518 0.66685 -0.17149
 C1173 C 0.64171 0.64412 -0.18347
 C1174 C 0.62754 0.61859 -0.16782
 C1175 C 0.61985 0.58844 -0.12312
 C1176 C 0.58525 0.57880 -0.12797
 C1177 C 0.56919 0.55564 -0.11072
 C1178 C 0.58728 0.54222 -0.08808
 C1179 C 0.62257 0.54986 -0.08447
 C1180 C 0.63879 0.57275 -0.10193
 H1181 H 0.69098 0.68135 -0.13328
 H1182 H 0.63510 0.64512 -0.20538
 H1183 H 0.54183 0.55047 -0.11367
 H1184 H 0.63704 0.53958 -0.06717
 H1185 H 0.61089 0.60072 -0.17814
 H1186 H 0.56985 0.59058 -0.14402
 H1187 H 0.66411 0.63754 -0.10513
 H1188 H 0.66576 0.57899 -0.09824
 C1189 C 0.87756 1.12244 0.64283
 C1190 C 0.85133 1.14177 0.63039
 C1191 C 0.83372 1.16597 0.64583
 C1192 C 0.84231 1.17126 0.67385
 C1193 C 0.86988 1.15314 0.68569
 C1194 C 0.88712 1.12886 0.67042
 C1195 C 0.89486 1.09557 0.62712
 C1196 C 0.93089 1.09043 0.62959
 C1197 C 0.94773 1.06762 0.61233
 C1198 C 0.92880 1.05013 0.59229
 C1199 C 0.89258 1.05333 0.59119
 C1200 C 0.87564 1.07571 0.60868
 H1201 H 0.81269 1.17960 0.63616
 H1202 H 0.87739 1.15672 0.70723
 H1203 H 0.97578 1.06593 0.61288
 H1204 H 0.87771 1.03999 0.57562
 H1205 H 0.90712 1.11433 0.68056
 H1206 H 0.94637 1.10550 0.64355
 H1207 H 0.84413 1.13790 0.60883
 H1208 H 0.84773 1.07846 0.60697
 C1209 C 0.39495 0.64292 0.14231
 C1210 C 0.38456 0.62876 0.16769
 C1211 C 0.36074 0.64523 0.18472
 C1212 C 0.34655 0.67585 0.17643
 C1213 C 0.35756 0.69051 0.15150
 C1214 C 0.38193 0.67440 0.13476
 C1215 C 0.41603 0.62350 0.12233
 C1216 C 0.40743 0.62485 0.09405
 C1217 C 0.42503 0.60544 0.07487
 C1218 C 0.45151 0.58362 0.08335
 C1219 C 0.46029 0.58187 0.11165
 C1220 C 0.44278 0.60195 0.13106
 H1221 H 0.35270 0.63359 0.20404
 H1222 H 0.34758 0.71453 0.14513
 H1223 H 0.41685 0.60684 0.05332
 H1224 H 0.48040 0.56506 0.11870
 H1225 H 0.39010 0.68630 0.11560
 H1226 H 0.38614 0.64010 0.08671
 H1227 H 0.39372 0.60440 0.17388
 H1228 H 0.44995 0.60046 0.15282
 C1229 C 1.12916 0.85695 0.63546
 C1230 C 1.15662 0.83707 0.62566
 C1231 C 1.17610 0.81802 0.64408
 C1232 C 1.16904 0.81900 0.67292
 C1233 C 1.14096 0.83868 0.68248
 C1234 C 1.12121 0.85720 0.66394
 C1235 C 1.10919 0.87774 0.61601
 C1236 C 1.09844 0.90994 0.62373
 C1237 C 1.08048 0.92986 0.60489
 C1238 C 1.07371 0.91798 0.57802
 C1239 C 1.08403 0.88576 0.57041
 C1240 C 1.10134 0.86569 0.58933
 H1241 H 1.19733 0.80337 0.63562
 H1242 H 1.13405 0.84004 0.70436
 H1243 H 1.07278 0.95477 0.61099
 H1244 H 1.07845 0.87598 0.54985
 H1245 H 1.09966 0.87174 0.67194
 H1246 H 1.10459 0.92001 0.64406
 H1247 H 1.16363 0.83679 0.60378
 H1248 H 1.10853 0.84071 0.58306
 C1249 C 0.60350 0.35105 0.14249
 C1250 C 0.59979 0.35218 0.17144
 C1251 C 0.62312 0.33530 0.18831
 C1252 C 0.65083 0.31706 0.17655
 C1253 C 0.65410 0.31531 0.14747
 C1254 C 0.63055 0.33221 0.13054
 C1255 C 0.58024 0.37077 0.12478
 C1256 C 0.56663 0.35681 0.10043
 C1257 C 0.54870 0.37665 0.08167
 C1258 C 0.54433 0.41083 0.08690
 C1259 C 0.55542 0.42426 0.11232
 C1260 C 0.57339 0.40430 0.13117
 H1261 H 0.61955 0.33698 0.21066
 H1262 H 0.67509 0.30143 0.13784
 H1263 H 0.53972 0.36555 0.06240
 H1264 H 0.55231 0.45052 0.11677
 H1265 H 0.63405 0.33135 0.10814
 H1266 H 0.57093 0.33082 0.09548
 H1267 H 0.57892 0.36628 0.18103
 H1268 H 0.58370 0.41553 0.14994
 C1269 C 0.87294 0.87511 0.35572
 C1270 C 0.87921 0.87312 0.32705
 C1271 C 0.86088 0.85059 0.31081
 C1272 C 0.83562 0.82965 0.32286
 C1273 C 0.83001 0.83092 0.35172
 C1274 C 0.84860 0.85347 0.36805
 C1275 C 0.89158 0.89987 0.37270
 C1276 C 0.87396 0.91694 0.39398
 C1277 C 0.89216 0.93757 0.41201
 C1278 C 0.92814 0.94174 0.40885
 C1279 C 0.94538 0.92690 0.38637
 C1280 C 0.92723 0.90589 0.36840
 H1281 H 0.86604 0.85025 0.28861
 H1282 H 0.81085 0.81505 0.36158
 H1283 H 0.87848 0.94899 0.42934
 H1284 H 0.97315 0.92950 0.38400
 H1285 H 0.84385 0.85406 0.39030
 H1286 H 0.84633 0.91350 0.39722
 H1287 H 0.89763 0.88962 0.31700
 H1288 H 0.94145 0.89296 0.35216
 C1289 C 0.36141 0.37960 -0.14048
 C1290 C 0.34057 0.35456 -0.12860
 C1291 C 0.32404 0.33113 -0.14550
 C1292 C 0.32825 0.33229 -0.17455
 C1293 C 0.34969 0.35701 -0.18626
 C1294 C 0.36595 0.38043 -0.16943
 C1295 C 0.37881 0.40453 -0.12271
 C1296 C 0.41321 0.41428 -0.12836
 C1297 C 0.43072 0.43539 -0.11011
 C1298 C 0.41417 0.44681 -0.08580
 C1299 C 0.37912 0.43883 -0.08112
 C1300 C 0.36157 0.41792 -0.09945
 H1301 H 0.30771 0.31243 -0.13587
 H1302 H 0.35339 0.35885 -0.20859
 H1303 H 0.45784 0.44094 -0.11410
 H1304 H 0.36570 0.44766 -0.06266
 H1305 H 0.38154 0.39962 -0.17918
 H1306 H 0.42718 0.40426 -0.14612
 H1307 H 0.33717 0.35299 -0.10623
 H1308 H 0.33477 0.41156 -0.09505
 C1309 C 1.12642 0.34046 -0.11789
 C1310 C 1.11720 0.34560 -0.14591
 C1311 C 1.13838 0.33382 -0.16759
 C1312 C 1.16935 0.31652 -0.16182
 C1313 C 1.17842 0.31122 -0.13376
 C1314 C 1.15727 0.32304 -0.11213
 C1315 C 1.10526 0.35525 -0.09489
 C1316 C 1.12185 0.37107 -0.07243
 C1317 C 1.10263 0.38942 -0.05302
 C1318 C 1.06641 0.39201 -0.05536
 C1319 C 1.04937 0.37445 -0.07657
 C1320 C 1.06867 0.35619 -0.09622
 H1321 H 1.13043 0.33826 -0.18890
 H1322 H 1.20187 0.29779 -0.12843
 H1323 H 1.11630 0.40352 -0.03721
 H1324 H 1.02152 0.37686 -0.07915
 H1325 H 1.16503 0.31843 -0.09081
 H1326 H 1.14992 0.37124 -0.07089
 H1327 H 1.09396 0.35945 -0.15112
 H1328 H 1.05509 0.34393 -0.11308
 C1329 C 0.63275 0.84493 0.38029
 C1330 C 0.62099 0.84603 0.35257
 C1331 C 0.64141 0.83321 0.33078
 C1332 C 0.67403 0.81871 0.33616
 C1333 C 0.68554 0.81726 0.36396
 C1334 C 0.66525 0.83029 0.38568
 C1335 C 0.61240 0.86106 0.40318
 C1336 C 0.62947 0.88117 0.42282
 C1337 C 0.61052 0.89981 0.44221
 C1338 C 0.57407 0.89845 0.44284
 C1339 C 0.55686 0.87689 0.42445
 C1340 C 0.57587 0.85848 0.40464
 H1341 H 0.63154 0.83460 0.30970
 H1342 H 0.71037 0.80614 0.36901
 H1343 H 0.62430 0.91671 0.45589
 H1344 H 0.52872 0.87600 0.42416
 H1345 H 0.67500 0.82885 0.40679
 H1346 H 0.65744 0.88406 0.42215
 H1347 H 0.59633 0.85757 0.34764
 H1348 H 0.56198 0.84299 0.38995
 C1349 C 0.87334 0.65731 -0.12353
 C1350 C 0.83881 0.66543 -0.11634
 C1351 C 0.81579 0.67806 -0.13640
 C1352 C 0.82662 0.68242 -0.16420
 C1353 C 0.86125 0.67495 -0.17120
 C1354 C 0.88431 0.66295 -0.15115
 C1355 C 0.89711 0.64058 -0.10325
 C1356 C 0.91981 0.61556 -0.11275
 C1357 C 0.93979 0.59725 -0.09409
 C1358 C 0.93773 0.60316 -0.06533
 C1359 C 0.91645 0.62906 -0.05554
 C1360 C 0.89625 0.64767 -0.07439
 H1361 H 0.78932 0.68378 -0.13029
 H1362 H 0.87075 0.67872 -0.19223
 H1363 H 0.95559 0.57701 -0.10207
 H1364 H 0.91393 0.63359 -0.03337
 H1365 H 0.91085 0.65792 -0.15743
 H1366 H 0.92085 0.60869 -0.13455
 H1367 H 0.82922 0.66110 -0.09542
 H1368 H 0.87935 0.66697 -0.06632
 C1369 C 0.37050 1.15857 0.37773
 C1370 C 0.33597 1.16712 0.38457
 C1371 C 0.31357 1.18045 0.36433
 C1372 C 0.32505 1.18497 0.33671
 C1373 C 0.35972 1.17715 0.33013
 C1374 C 0.38215 1.16456 0.35035
 C1375 C 0.39365 1.14107 0.39803
 C1376 C 0.41610 1.11595 0.38835
 C1377 C 0.43591 1.09729 0.40684
 C1378 C 0.43391 1.10284 0.43566
 C1379 C 0.41275 1.12872 0.44568
 C1380 C 0.39268 1.14770 0.42697
 H1381 H 0.28708 1.18653 0.37012
 H1382 H 0.36976 1.18115 0.30929
 H1383 H 0.45173 1.07718 0.39864
 H1384 H 0.41034 1.13305 0.46789
 H1385 H 0.40875 1.15930 0.34437
 H1386 H 0.41721 1.10941 0.36648
 H1387 H 0.32591 1.16262 0.40531
 H1388 H 0.37594 1.16704 0.43517
 C1389 C 1.13967 0.65065 0.11765
 C1390 C 1.17292 0.66381 0.11252
 C1391 C 1.19315 0.67624 0.13438
 C1392 C 1.18081 0.67556 0.16204
 C1393 C 1.14759 0.66221 0.16718
 C1394 C 1.12722 0.65006 0.14524
 C1395 C 1.11900 0.63567 0.09462
 C1396 C 1.08281 0.64065 0.09271
 C1397 C 1.06308 0.62316 0.07294
 C1398 C 1.07921 0.60018 0.05506
 C1399 C 1.11546 0.59646 0.05605
 C1400 C 1.13518 0.61422 0.07541
 H1401 H 1.21848 0.68650 0.12955
 H1402 H 1.13710 0.66150 0.18814
 H1403 H 1.03505 0.62582 0.07295
 H1404 H 1.12831 0.57835 0.04281
 H1405 H 1.10195 0.63958 0.14993
 H1406 H 1.06968 0.65724 0.10709
 H1407 H 1.18320 0.66472 0.09150
 H1408 H 1.16287 0.60958 0.07646
 C1409 C 0.63582 1.15256 0.61866
 C1410 C 0.66787 1.16764 0.61238
 C1411 C 0.68934 1.17965 0.63366
 C1412 C 0.67945 1.17665 0.66182
 C1413 C 0.64743 1.16141 0.66807
 C1414 C 0.62586 1.14963 0.64677
 C1415 C 0.61382 1.13804 0.59620
 C1416 C 0.57727 1.14069 0.59701
 C1417 C 0.55665 1.12318 0.57786
 C1418 C 0.57230 1.10263 0.55778
 C1419 C 0.60869 1.10137 0.55603
 C1420 C 0.62924 1.11909 0.57486
 H1421 H 0.71367 1.19142 0.62800
 H1422 H 0.63878 1.15884 0.68946
 H1423 H 0.52861 1.12387 0.57994
 H1424 H 0.62121 1.08509 0.54103
 H1425 H 0.60164 1.13762 0.65235
 H1426 H 0.56465 1.15537 0.61305
 H1427 H 0.67625 1.17037 0.59094
 H1428 H 0.65720 1.11621 0.57378
 C1429 C 0.85813 0.35046 0.11969
 C1430 C 0.82459 0.33813 0.11435
 C1431 C 0.80445 0.32437 0.13584
 C1432 C 0.81716 0.32322 0.16329
 C1433 C 0.85072 0.33564 0.16856
 C1434 C 0.87102 0.34886 0.14700
 C1435 C 0.87872 0.36710 0.09740
 C1436 C 0.91453 0.36076 0.09397
 C1437 C 0.93443 0.37937 0.07497
 C1438 C 0.91890 0.40501 0.05958
 C1439 C 0.88296 0.41044 0.06226
 C1440 C 0.86304 0.39148 0.08072
 H1441 H 0.77882 0.31490 0.13101
 H1442 H 0.86151 0.33488 0.18937
 H1443 H 0.96217 0.37509 0.07351
 H1444 H 0.87050 0.43027 0.05073
 H1445 H 0.89654 0.35861 0.15183
 H1446 H 0.92724 0.34199 0.10650
 H1447 H 0.81399 0.33906 0.09348
 H1448 H 0.83565 0.39714 0.08305
 C1449 C 0.36743 0.84577 0.61970
 C1450 C 0.33746 0.82715 0.61395
 C1451 C 0.31759 0.81348 0.63557
 C1452 C 0.32681 0.81842 0.66381
 C1453 C 0.35693 0.83746 0.66937
 C1454 C 0.37703 0.85064 0.64762
 C1455 C 0.38736 0.86187 0.59675
 C1456 C 0.42396 0.86108 0.59612
 C1457 C 0.44249 0.87937 0.57608
 C1458 C 0.42468 0.89912 0.55671
 C1459 C 0.38820 0.89884 0.55664
 C1460 C 0.36973 0.88011 0.57622
 H1461 H 0.29484 0.79914 0.62992
 H1462 H 0.36538 0.84207 0.69055
 H1463 H 0.47063 0.87988 0.57689
 H1464 H 0.37399 0.91442 0.54221
 H1465 H 0.39973 0.86535 0.65267
 H1466 H 0.43819 0.84708 0.61162
 H1467 H 0.32944 0.82302 0.59260
 H1468 H 0.34161 0.88143 0.57632
 C1469 C 0.34515 1.13359 -0.12221
 C1470 C 0.33955 1.16763 -0.11651
 C1471 C 0.32727 1.18922 -0.13733
 C1472 C 0.32102 1.17747 -0.16448
 C1473 C 0.32646 1.14355 -0.17010
 C1474 C 0.33785 1.12193 -0.14926
 C1475 C 0.36038 1.11058 -0.10084
 C1476 C 0.38280 1.08481 -0.10940
 C1477 C 0.39963 1.06482 -0.08995
 C1478 C 0.39503 1.07001 -0.06128
 C1479 C 0.37171 1.09467 -0.05230
 C1480 C 0.35435 1.11470 -0.07195
 H1481 H 0.32296 1.21517 -0.13225
 H1482 H 0.32094 1.13339 -0.19053
 H1483 H 0.41814 1.04644 -0.09734
 H1484 H 0.36841 1.09965 -0.03026
 H1485 H 0.34064 1.09586 -0.15447
 H1486 H 0.38904 1.08105 -0.13118
 H1487 H 0.34523 1.17780 -0.09614
 H1488 H 0.33695 1.13392 -0.06447
 C1489 C 0.84748 0.63468 0.37667
 C1490 C 0.84240 0.66890 0.38186
 C1491 C 0.83043 0.69023 0.36075
 C1492 C 0.82399 0.67803 0.33376
 C1493 C 0.82906 0.64397 0.32858
 C1494 C 0.84013 0.62260 0.34973
 C1495 C 0.86208 0.61189 0.39851
 C1496 C 0.88380 0.58531 0.39054
 C1497 C 0.90010 0.56554 0.41045
 C1498 C 0.89563 0.57176 0.43899
 C1499 C 0.87303 0.59729 0.44740
 C1500 C 0.85616 0.61706 0.42731
 H1501 H 0.82647 0.71631 0.36548
 H1502 H 0.82343 0.63353 0.30826
 H1503 H 0.91817 0.54653 0.40350
 H1504 H 0.86990 0.60307 0.46932
 H1505 H 0.84256 0.59641 0.34488
 H1506 H 0.88997 0.58073 0.36886
 H1507 H 0.84821 0.67943 0.40208
 H1508 H 0.83926 0.63690 0.43437
 C1509 C 0.65522 1.12603 0.12730
 C1510 C 0.66095 1.15977 0.12075
 C1511 C 0.67268 1.18221 0.14113
 C1512 C 0.67843 1.17160 0.16866
 C1513 C 0.67295 1.13792 0.17513
 C1514 C 0.66191 1.11545 0.15474
 C1515 C 0.64012 1.10241 0.10639
 C1516 C 0.61641 1.07793 0.11519
 C1517 C 0.59902 1.05810 0.09589
 C1518 C 0.60456 1.06212 0.06719
 C1519 C 0.62956 1.08510 0.05810
 C1520 C 0.64728 1.10507 0.07757
 H1521 H 0.67691 1.20795 0.13540
 H1522 H 0.67795 1.12865 0.19592
 H1523 H 0.57938 1.04093 0.10336
 H1524 H 0.63372 1.08912 0.03602
 H1525 H 0.65875 1.08963 0.16056
 H1526 H 0.60951 1.07531 0.13696
 H1527 H 0.65564 1.16908 0.10005
 H1528 H 0.66575 1.12326 0.06999
 C1529 C 1.15842 0.62723 0.62574
 C1530 C 1.16666 0.66024 0.61839
 C1531 C 1.17986 0.68252 0.63833
 C1532 C 1.18461 0.67237 0.66611
 C1533 C 1.17695 0.63927 0.67323
 C1534 C 1.16443 0.61700 0.65333
 C1535 C 1.14118 0.60410 0.60567
 C1536 C 1.11495 0.58264 0.61532
 C1537 C 1.09626 0.56288 0.59686
 C1538 C 1.10296 0.56398 0.56812
 C1539 C 1.13019 0.58403 0.55825
 C1540 C 1.14915 0.60405 0.57692
 H1541 H 1.18584 0.70778 0.63212
 H1542 H 1.18114 0.63028 0.69422
 H1543 H 1.07513 0.54785 0.60493
 H1544 H 1.13540 0.58569 0.53610
 H1545 H 1.15934 0.59163 0.65969
 H1546 H 1.10746 0.58229 0.63708
 H1547 H 1.16204 0.66913 0.59744
 H1548 H 1.16945 0.62000 0.56880
 C1549 C 0.65419 0.87029 -0.12106
 C1550 C 0.66274 0.88066 -0.14822
 C1551 C 0.67301 0.85778 -0.16851
 C1552 C 0.67611 0.82379 -0.16222
 C1553 C 0.66900 0.81325 -0.13486
 C1554 C 0.65776 0.83621 -0.11456
 C1555 C 0.63945 0.89476 -0.10058
 C1556 C 0.64469 0.89172 -0.07156
 C1557 C 0.62743 0.91304 -0.05273
 C1558 C 0.60492 0.93779 -0.06266
 C1559 C 0.60133 0.94200 -0.09149
 C1560 C 0.61814 0.92080 -0.11015
 H1561 H 0.67936 0.86695 -0.18912
 H1562 H 0.67158 0.78726 -0.12932
 H1563 H 0.62990 0.90882 -0.03053
 H1564 H 0.58347 0.96045 -0.09960
 H1565 H 0.65112 0.82710 -0.09401
 H1566 H 0.66125 0.87231 -0.06338
 H1567 H 0.66158 0.90666 -0.15398
 H1568 H 0.61260 0.92378 -0.13209
 C1569 C 1.15900 0.37830 0.37775
 C1570 C 1.16779 0.38927 0.35079
 C1571 C 1.17854 0.36683 0.33029
 C1572 C 1.18178 0.33276 0.33622
 C1573 C 1.17433 0.32169 0.36337
 C1574 C 1.16271 0.34416 0.38384
 C1575 C 1.14367 0.40209 0.39845
 C1576 C 1.14863 0.39842 0.42745
 C1577 C 1.13049 0.41872 0.44651
 C1578 C 1.10732 0.44301 0.43680
 C1579 C 1.10408 0.44801 0.40803
 C1580 C 1.12182 0.42783 0.38914
 H1581 H 1.18505 0.37635 0.30982
 H1582 H 1.17694 0.29561 0.36862
 H1583 H 1.13277 0.41397 0.46864
 H1584 H 1.08580 0.46619 0.40011
 H1585 H 1.15581 0.33460 0.40420
 H1586 H 1.16561 0.37921 0.43542
 H1587 H 1.16638 0.41537 0.34538
 H1588 H 1.11654 0.43123 0.36719
 C1589 C 0.34505 0.86789 0.12080
 C1590 C 0.34376 0.83326 0.11585
 C1591 C 0.33235 0.81116 0.13668
 C1592 C 0.32283 0.82305 0.16320
 C1593 C 0.32397 0.85749 0.16810
 C1594 C 0.33436 0.87953 0.14719
 C1595 C 0.35912 0.89173 0.09942
 C1596 C 0.37700 0.92053 0.10803
 C1597 C 0.39308 0.94142 0.08870
 C1598 C 0.39224 0.93416 0.06014
 C1599 C 0.37338 0.90633 0.05104
 C1600 C 0.35666 0.88548 0.07048
 H1601 H 0.33143 0.78476 0.13220
 H1602 H 0.31584 0.86761 0.18802
 H1603 H 0.40850 0.96209 0.09627
 H1604 H 0.37331 0.89966 0.02916
 H1605 H 0.33370 0.90587 0.15182
 H1606 H 0.38057 0.92611 0.12989
 H1607 H 0.35217 0.82304 0.09607
 H1608 H 0.34275 0.86395 0.06285
 C1609 C 0.84532 0.36745 0.61984
 C1610 C 0.84477 0.33267 0.61558
 C1611 C 0.83327 0.31098 0.63666
 C1612 C 0.82293 0.32338 0.66281
 C1613 C 0.82346 0.35794 0.66711
 C1614 C 0.83393 0.37961 0.64590
 C1615 C 0.85923 0.39089 0.59800
 C1616 C 0.87579 0.42066 0.60603
 C1617 C 0.89178 0.44119 0.58635
 C1618 C 0.89222 0.43260 0.55803
 C1619 C 0.87470 0.40375 0.54948
 C1620 C 0.85798 0.38330 0.56923
 H1621 H 0.83290 0.28446 0.63265
 H1622 H 0.81475 0.36841 0.68675
 H1623 H 0.90618 0.46271 0.59355
 H1624 H 0.87560 0.39608 0.52784
 H1625 H 0.83268 0.40604 0.65003
 H1626 H 0.87843 0.42737 0.62775
 H1627 H 0.85380 0.32200 0.59615
 H1628 H 0.84506 0.36105 0.56196
 C1629 C 1.13241 1.11602 0.64415
 C1630 C 1.15308 1.14075 0.63155
 C1631 C 1.16999 1.16461 0.64779
 C1632 C 1.16630 1.16420 0.67686
 C1633 C 1.14508 1.13974 0.68928
 C1634 C 1.12845 1.11592 0.67312
 C1635 C 1.11482 1.09056 0.62707
 C1636 C 1.08041 1.08084 0.63300
 C1637 C 1.06260 1.05979 0.61478
 C1638 C 1.07888 1.04876 0.59034
 C1639 C 1.11406 1.05622 0.58568
 C1640 C 1.13192 1.07683 0.60394
 H1641 H 1.18609 1.18311 0.63764
 H1642 H 1.14162 1.13852 0.71166
 H1643 H 1.03551 1.05427 0.61866
 H1644 H 1.12719 1.04756 0.56701
 H1645 H 1.11299 1.09703 0.68340
 H1646 H 1.06661 1.09101 0.65078
 H1647 H 1.15602 1.14175 0.60912
 H1648 H 1.15875 1.08301 0.59940
 C1649 C 0.63864 0.61832 0.13901
 C1650 C 0.65775 0.64465 0.12723
 C1651 C 0.67408 0.66804 0.14426
 C1652 C 0.67138 0.66553 0.17335
 C1653 C 0.65184 0.63937 0.18500
 C1654 C 0.63575 0.61601 0.16802
 C1655 C 0.62157 0.59343 0.12108
 C1656 C 0.58781 0.58216 0.12724
 C1657 C 0.57066 0.56083 0.10893
 C1658 C 0.58693 0.55078 0.08412
 C1659 C 0.62142 0.56040 0.07887
 C1660 C 0.63861 0.58148 0.09722
 H1661 H 0.68890 0.68789 0.13468
 H1662 H 0.64933 0.63650 0.20735
 H1663 H 0.54407 0.55378 0.11339
 H1664 H 0.63474 0.55257 0.06004
 H1665 H 0.62154 0.59578 0.17764
 H1666 H 0.57407 0.59103 0.14553
 H1667 H 0.65985 0.64728 0.10483
 H1668 H 0.66498 0.58901 0.09244
 C1669 C 1.13052 0.87776 0.35374
 C1670 C 1.12674 0.87758 0.32477
 C1671 C 1.14465 0.85442 0.30870
 C1672 C 1.16689 0.83098 0.32126
 C1673 C 1.17022 0.83075 0.35034
 C1674 C 1.15208 0.85391 0.36645
 C1675 C 1.11207 0.90270 0.37077
 C1676 C 1.12888 0.91717 0.39362
 C1677 C 1.11037 0.93702 0.41210
 C1678 C 1.07485 0.94301 0.40792
 C1679 C 1.05874 0.93142 0.38370
 C1680 C 1.07721 0.91106 0.36525
 H1681 H 1.14143 0.85539 0.28631
 H1682 H 1.18701 0.81297 0.36059
 H1683 H 1.12337 0.94629 0.43055
 H1684 H 1.03149 0.93609 0.38013
 H1685 H 1.15484 0.85312 0.38890
 H1686 H 1.15602 0.91208 0.39780
 H1687 H 1.11052 0.89580 0.31446
 H1688 H 1.06370 0.90036 0.34763
 C1689 C 0.61734 0.35574 -0.14105
 C1690 C 0.61428 0.35814 -0.17002
 C1691 C 0.63723 0.34106 -0.18724
 C1692 C 0.66371 0.32115 -0.17584
 C1693 C 0.66689 0.31884 -0.14679
 C1694 C 0.64388 0.33607 -0.12953
 C1695 C 0.59328 0.37419 -0.12286
 C1696 C 0.58002 0.35908 -0.09878
 C1697 C 0.56021 0.37746 -0.08003
 C1698 C 0.55324 0.41118 -0.08516
 C1699 C 0.56452 0.42577 -0.11010
 C1700 C 0.58459 0.40739 -0.12881
 H1701 H 0.63392 0.34332 -0.20957
 H1702 H 0.68708 0.30381 -0.13743
 H1703 H 0.55137 0.36559 -0.06103
 H1704 H 0.55965 0.45183 -0.11431
 H1705 H 0.64707 0.33435 -0.10716
 H1706 H 0.58570 0.33329 -0.09412
 H1707 H 0.59386 0.37291 -0.17936
 H1708 H 0.59470 0.41960 -0.14724
 C1709 C 0.87649 1.14178 0.36503
 C1710 C 0.86145 1.17183 0.37412
 C1711 C 0.84105 1.19065 0.35610
 C1712 C 0.83585 1.17995 0.32862
 C1713 C 0.85159 1.15036 0.31937
 C1714 C 0.87158 1.13138 0.33744
 C1715 C 0.89560 1.12041 0.38467
 C1716 C 0.92528 1.10260 0.37612
 C1717 C 0.94234 1.08156 0.39472
 C1718 C 0.93024 1.07847 0.42219
 C1719 C 0.90049 1.09619 0.43058
 C1720 C 0.88328 1.11677 0.41200
 H1721 H 0.82952 1.21359 0.36361
 H1722 H 0.84782 1.14141 0.29829
 H1723 H 0.96510 1.06806 0.38772
 H1724 H 0.89018 1.09397 0.45153
 H1725 H 0.88231 1.10807 0.33001
 H1726 H 0.93543 1.10513 0.35516
 H1727 H 0.86534 1.18071 0.39519
 H1728 H 0.85995 1.12942 0.41895
 C1729 C 0.38379 0.63576 -0.13967
 C1730 C 0.36540 0.66294 -0.12840
 C1731 C 0.34396 0.68222 -0.14530
 C1732 C 0.34089 0.67460 -0.17367
 C1733 C 0.35979 0.64763 -0.18486
 C1734 C 0.38103 0.62845 -0.16802
 C1735 C 0.40386 0.61366 -0.12152
 C1736 C 0.43689 0.60171 -0.12946
 C1737 C 0.45567 0.58113 -0.11149
 C1738 C 0.44144 0.57276 -0.08558
 C1739 C 0.40790 0.58351 -0.07837
 C1740 C 0.38928 0.60374 -0.09616
 H1741 H 0.33004 0.70305 -0.13626
 H1742 H 0.35793 0.64096 -0.20668
 H1743 H 0.48155 0.57300 -0.11723
 H1744 H 0.39627 0.57669 -0.05857
 H1745 H 0.39451 0.60731 -0.17701
 H1746 H 0.44845 0.60901 -0.14913
 H1747 H 0.36754 0.66915 -0.10650
 H1748 H 0.36346 0.61172 -0.09003
 C1749 C 0.86488 0.86536 0.63618
 C1750 C 0.83463 0.84938 0.62671
 C1751 C 0.81479 0.83011 0.64487
 C1752 C 0.82479 0.82689 0.67279
 C1753 C 0.85480 0.84327 0.68228
 C1754 C 0.87470 0.86224 0.66412
 C1755 C 0.88683 0.88433 0.61677
 C1756 C 0.90207 0.91460 0.62493
 C1757 C 0.92270 0.93242 0.60625
 C1758 C 0.92790 0.92026 0.57918
 C1759 C 0.91326 0.88971 0.57129
 C1760 C 0.89305 0.87183 0.58995
 H1761 H 0.79158 0.81801 0.63715
 H1762 H 0.86329 0.84105 0.70369
 H1763 H 0.93361 0.95607 0.61261
 H1764 H 0.91740 0.87964 0.55058
 H1765 H 0.89819 0.87387 0.67180
 H1766 H 0.89744 0.92481 0.64551
 H1767 H 0.82627 0.85188 0.60528
 H1768 H 0.88238 0.84815 0.58343
 C1769 C 0.36553 0.37842 0.14004
 C1770 C 0.34228 0.35541 0.12823
 C1771 C 0.32533 0.33220 0.14503
 C1772 C 0.33165 0.33169 0.17378
 C1773 C 0.35576 0.35416 0.18527
 C1774 C 0.37232 0.37737 0.16861
 C1775 C 0.38290 0.40346 0.12267
 C1776 C 0.41823 0.41075 0.12678
 C1777 C 0.43537 0.43253 0.10894
 C1778 C 0.41743 0.44679 0.08661
 C1779 C 0.38170 0.44109 0.08348
 C1780 C 0.36448 0.41966 0.10151
 H1781 H 0.30698 0.31515 0.13565
 H1782 H 0.36137 0.35450 0.20737
 H1783 H 0.46309 0.43623 0.11137
 H1784 H 0.36746 0.45205 0.06634
 H1785 H 0.38988 0.39499 0.17824
 H1786 H 0.43305 0.39834 0.14286
 H1787 H 0.33722 0.35539 0.10604
 H1788 H 0.33702 0.41505 0.09844
   
