data_POSCAR
  _audit_creation_date              2014-09-24
  _audit_creation_method            'ToBaCCo'
  _symmetry_space_group_name_H-M    'P1'
  _symmetry_Int_Tables_number       1
  _symmetry_cell_setting            triclinic
  loop_
  _symmetry_equiv_pos_as_xyz
 x,y,z
_cell_length_a 71.8465
_cell_length_b 71.7709
_cell_length_c 72.4753
_cell_angle_alpha 89.645600
_cell_angle_beta 89.505100
_cell_angle_gamma 89.847000
loop_
  _atom_site_label
  _atom_site_type_symbol
  _atom_site_fract_x
  _atom_site_fract_y
  _atom_site_fract_z
N1 N 0.17850 0.22409 0.22605
 N2 N 0.18389 0.20930 0.23538
 C3 C 0.17257 0.20707 0.25018
 C4 C 0.15949 0.22132 0.25012
 C5 C 0.16372 0.23180 0.23456
 H6 H 0.17395 0.19615 0.26041
 H7 H 0.15653 0.24411 0.22970
 Cu8 Cu 0.20558 0.19503 0.22737
 Cu9 Cu 0.19105 0.23258 0.20366
 Cu10 Cu 0.22929 0.20705 0.18888
 N11 N 0.22702 0.18065 0.21889
 N12 N 0.23620 0.18551 0.20386
 C13 C 0.25054 0.17371 0.20129
 C14 C 0.25045 0.16067 0.21548
 C15 C 0.23526 0.16554 0.22639
 H16 H 0.26032 0.17464 0.18992
 H17 H 0.23072 0.15879 0.23900
 N18 N 0.22007 0.22929 0.17566
 N19 N 0.20551 0.23898 0.18134
 C20 C 0.20283 0.25341 0.16973
 C21 C 0.21635 0.25289 0.15601
 C22 C 0.22703 0.23735 0.16024
 H23 H 0.19183 0.26359 0.17122
 H24 H 0.23914 0.23238 0.15281
 H25 H 0.20147 0.20681 0.19606
 H26 H 0.21703 0.22192 0.20999
 N27 N 0.67881 0.72240 0.72658
 N28 N 0.68408 0.70747 0.73575
 C29 C 0.67207 0.70443 0.74980
 C30 C 0.65855 0.71823 0.74950
 C31 C 0.66333 0.72942 0.73455
 H32 H 0.67314 0.69306 0.75958
 H33 H 0.65594 0.74158 0.72963
 Cu34 Cu 0.70596 0.69316 0.72853
 Cu35 Cu 0.69220 0.73140 0.70480
 Cu36 Cu 0.73040 0.70550 0.69066
 N37 N 0.72709 0.67850 0.71981
 N38 N 0.73642 0.68336 0.70490
 C39 C 0.75003 0.67086 0.70175
 C40 C 0.74927 0.65736 0.71544
 C41 C 0.73451 0.66269 0.72671
 H42 H 0.75986 0.67167 0.69041
 H43 H 0.72942 0.65546 0.73886
 N44 N 0.72227 0.72829 0.67793
 N45 N 0.70764 0.73815 0.68311
 C46 C 0.70571 0.75275 0.67146
 C47 C 0.71991 0.75205 0.65841
 C48 C 0.73009 0.73635 0.66298
 H49 H 0.69493 0.76323 0.67250
 H50 H 0.74219 0.73102 0.65578
 H51 H 0.70221 0.70555 0.69739
 H52 H 0.71767 0.72038 0.71179
 N53 N 0.32082 0.77518 0.72613
 N54 N 0.31685 0.79007 0.73589
 C55 C 0.32926 0.79156 0.74963
 C56 C 0.34164 0.77677 0.74847
 C57 C 0.33581 0.76666 0.73337
 H58 H 0.32913 0.80243 0.75988
 H59 H 0.34210 0.75413 0.72791
 Cu60 Cu 0.29561 0.80577 0.72984
 Cu61 Cu 0.30639 0.76803 0.70468
 Cu62 Cu 0.26877 0.79618 0.69343
 N63 N 0.27456 0.82155 0.72337
 N64 N 0.26404 0.81762 0.70919
 C65 C 0.25042 0.83045 0.70787
 C66 C 0.25243 0.84327 0.72202
 C67 C 0.26800 0.83707 0.73155
 H68 H 0.23990 0.83035 0.69732
 H69 H 0.27411 0.84326 0.74360
 N70 N 0.27584 0.77388 0.67919
 N71 N 0.29012 0.76316 0.68348
 C72 C 0.29141 0.74926 0.67113
 C73 C 0.27726 0.75128 0.65839
 C74 C 0.26768 0.76708 0.66400
 H75 H 0.30202 0.73857 0.67130
 H76 H 0.25563 0.77320 0.65751
 H77 H 0.29706 0.79452 0.69820
 H78 H 0.28162 0.77996 0.71324
 N79 N 0.82427 0.27332 0.22615
 N80 N 0.81885 0.28752 0.23621
 C81 C 0.83102 0.28986 0.25005
 C82 C 0.84489 0.27636 0.24861
 C83 C 0.84000 0.26615 0.23317
 H84 H 0.82988 0.30071 0.26027
 H85 H 0.84723 0.25432 0.22738
 Cu86 Cu 0.79661 0.30185 0.23008
 Cu87 Cu 0.81057 0.26496 0.20478
 Cu88 Cu 0.77240 0.29108 0.19178
 N89 N 0.77572 0.31697 0.22165
 N90 N 0.76656 0.31283 0.20661
 C91 C 0.75324 0.32570 0.20380
 C92 C 0.75400 0.33867 0.21783
 C93 C 0.76845 0.33265 0.22894
 H94 H 0.74361 0.32553 0.19243
 H95 H 0.77351 0.33936 0.24122
 N96 N 0.78045 0.26855 0.17854
 N97 N 0.79501 0.25859 0.18356
 C98 C 0.79689 0.24402 0.17208
 C99 C 0.78283 0.24479 0.15914
 C100 C 0.77268 0.26059 0.16369
 H101 H 0.80776 0.23365 0.17306
 H102 H 0.76040 0.26579 0.15684
 H103 H 0.80031 0.29122 0.19838
 H104 H 0.78481 0.27560 0.21240
 N105 N 0.82278 0.72226 0.27189
 N106 N 0.81801 0.70675 0.26366
 C107 C 0.83004 0.70345 0.24970
 C108 C 0.84304 0.71767 0.24913
 C109 C 0.83795 0.72937 0.26344
 H110 H 0.82930 0.69166 0.24054
 H111 H 0.84492 0.74197 0.26761
 Cu112 Cu 0.79651 0.69238 0.27183
 Cu113 Cu 0.80926 0.73184 0.29319
 Cu114 Cu 0.77033 0.70724 0.30765
 N115 N 0.77409 0.67930 0.27967
 N116 N 0.76392 0.68517 0.29362
 C117 C 0.74927 0.67374 0.29596
 C118 C 0.75023 0.65988 0.28274
 C119 C 0.76621 0.66392 0.27264
 H120 H 0.73874 0.67543 0.30656
 H121 H 0.77164 0.65635 0.26092
 N122 N 0.77905 0.72991 0.32005
 N123 N 0.79384 0.73930 0.31449
 C124 C 0.79625 0.75396 0.32570
 C125 C 0.78231 0.75385 0.33903
 C126 C 0.77166 0.73836 0.33497
 H127 H 0.80747 0.76387 0.32435
 H128 H 0.75939 0.73359 0.34229
 H129 H 0.79861 0.70661 0.30224
 H130 H 0.78390 0.72048 0.28600
 N131 N 0.32183 0.22261 -0.22731
 N132 N 0.31721 0.20682 -0.23507
 C133 C 0.32878 0.20359 -0.24941
 C134 C 0.34141 0.21819 -0.25079
 C135 C 0.33643 0.23001 -0.23645
 H136 H 0.32792 0.19151 -0.25817
 H137 H 0.34303 0.24292 -0.23266
 Cu138 Cu 0.29659 0.19181 -0.22585
 Cu139 Cu 0.30901 0.23206 -0.20558
 Cu140 Cu 0.26978 0.20823 -0.19100
 N141 N 0.27319 0.18008 -0.21876
 N142 N 0.26277 0.18653 -0.20525
 C143 C 0.24762 0.17569 -0.20330
 C144 C 0.24853 0.16162 -0.21630
 C145 C 0.26500 0.16492 -0.22588
 H146 H 0.23687 0.17784 -0.19302
 H147 H 0.27062 0.15696 -0.23726
 N148 N 0.27917 0.23046 -0.17835
 N149 N 0.29423 0.23945 -0.18385
 C150 C 0.29741 0.25360 -0.17219
 C151 C 0.28365 0.25358 -0.15870
 C152 C 0.27230 0.23872 -0.16309
 H153 H 0.30889 0.26323 -0.17345
 H154 H 0.26018 0.23400 -0.15549
 H155 H 0.29815 0.20710 -0.19589
 H156 H 0.28382 0.22040 -0.21298
 N157 N 0.67617 0.27428 -0.22548
 N158 N 0.68000 0.28952 -0.23487
 C159 C 0.66747 0.29159 -0.24844
 C160 C 0.65508 0.27674 -0.24765
 C161 C 0.66116 0.26605 -0.23281
 H162 H 0.66760 0.30293 -0.25831
 H163 H 0.65513 0.25330 -0.22754
 Cu164 Cu 0.70142 0.30477 -0.22872
 Cu165 Cu 0.69077 0.26626 -0.20429
 Cu166 Cu 0.72875 0.29355 -0.19299
 N167 N 0.72268 0.32009 -0.22220
 N168 N 0.73334 0.31550 -0.20825
 C169 C 0.74706 0.32810 -0.20678
 C170 C 0.74498 0.34138 -0.22057
 C171 C 0.72929 0.33580 -0.23009
 H172 H 0.75771 0.32761 -0.19635
 H173 H 0.72323 0.34256 -0.24198
 N174 N 0.72181 0.27084 -0.17920
 N175 N 0.70726 0.26055 -0.18335
 C176 C 0.70601 0.24634 -0.17117
 C177 C 0.72052 0.24771 -0.15879
 C178 C 0.73024 0.26341 -0.16435
 H179 H 0.69540 0.23571 -0.17134
 H180 H 0.74238 0.26919 -0.15783
 H181 H 0.70036 0.29238 -0.19735
 H182 H 0.71545 0.27818 -0.21297
 N183 N 0.17884 0.77784 0.27271
 N184 N 0.18397 0.79276 0.26341
 C185 C 0.17201 0.79565 0.24949
 C186 C 0.15867 0.78176 0.25002
 C187 C 0.16349 0.77067 0.26495
 H188 H 0.17298 0.80697 0.23963
 H189 H 0.15620 0.75850 0.27003
 Cu190 Cu 0.20568 0.80709 0.27043
 Cu191 Cu 0.19214 0.76929 0.29448
 Cu192 Cu 0.23067 0.79493 0.30768
 N193 N 0.22699 0.82157 0.27821
 N194 N 0.23686 0.81674 0.29265
 C195 C 0.25059 0.82926 0.29492
 C196 C 0.24924 0.84279 0.28116
 C197 C 0.23402 0.83731 0.27085
 H198 H 0.26060 0.82859 0.30595
 H199 H 0.22833 0.84425 0.25890
 N200 N 0.22209 0.77245 0.32108
 N201 N 0.20735 0.76283 0.31610
 C202 C 0.20464 0.74881 0.32822
 C203 C 0.21831 0.74955 0.34153
 C204 C 0.22917 0.76471 0.33651
 H205 H 0.19347 0.73880 0.32744
 H206 H 0.24108 0.76998 0.34382
 H207 H 0.20258 0.79510 0.30184
 H208 H 0.21783 0.78012 0.28711
 N209 N 0.47428 0.43147 0.47700
 N210 N 0.45950 0.43639 0.48662
 C211 C 0.45769 0.42482 0.50125
 C212 C 0.47219 0.41204 0.50080
 C213 C 0.48241 0.41673 0.48519
 H214 H 0.44679 0.42577 0.51158
 H215 H 0.49478 0.40984 0.48003
 Cu216 Cu 0.44431 0.45764 0.47916
 Cu217 Cu 0.48205 0.44442 0.45458
 Cu218 Cu 0.45479 0.48158 0.44040
 N219 N 0.42891 0.47836 0.47072
 N220 N 0.43307 0.48748 0.45547
 C221 C 0.42034 0.50093 0.45266
 C222 C 0.40742 0.50032 0.46693
 C223 C 0.41334 0.48580 0.47818
 H224 H 0.42063 0.51060 0.44118
 H225 H 0.40670 0.48093 0.49075
 N226 N 0.47731 0.47351 0.42697
 N227 N 0.48763 0.45926 0.43226
 C228 C 0.50198 0.45731 0.42033
 C229 C 0.50069 0.47106 0.40692
 C230 C 0.48486 0.48106 0.41159
 H231 H 0.51278 0.44688 0.42151
 H232 H 0.47919 0.49292 0.40429
 H233 H 0.47053 0.46991 0.46127
 H234 H 0.45577 0.45368 0.44767
 N235 N -0.02695 -0.07300 0.97400
 N236 N -0.04121 -0.06841 0.98451
 C237 C -0.04282 -0.08092 0.99836
 C238 C -0.02880 -0.09411 0.99645
 C239 C -0.01901 -0.08856 0.98079
 H240 H -0.05348 -0.08051 1.00895
 H241 H -0.00686 -0.09517 0.97483
 Cu242 Cu -0.05640 -0.04674 0.97865
 Cu243 Cu -0.01933 -0.05822 0.95258
 Cu244 Cu -0.04269 -0.01631 0.94605
 N245 N -0.07117 -0.02474 0.97288
 N246 N -0.06572 -0.01292 0.96003
 C247 C -0.07826 0.00098 0.95874
 C248 C -0.09245 -0.00230 0.97144
 C249 C -0.08742 -0.01880 0.98016
 H250 H -0.07711 0.01250 0.94913
 H251 H -0.09496 -0.02595 0.99102
 N252 N -0.02226 -0.02483 0.92981
 N253 N -0.01369 -0.04097 0.93202
 C254 C -0.00080 -0.04292 0.91857
 C255 C -0.00125 -0.02727 0.90729
 C256 C -0.01507 -0.01612 0.91488
 H257 H 0.00842 -0.05476 0.91725
 H258 H -0.01976 -0.00274 0.90979
 H259 H -0.02839 -0.03399 0.96411
 H260 H -0.04455 -0.04490 0.94727
 N261 N 1.02630 0.57204 0.97479
 N262 N 1.04151 0.56711 0.98352
 C263 C 1.04390 0.57855 0.99798
 C264 C 1.02936 0.59129 0.99834
 C265 C 1.01850 0.58669 0.98337
 H266 H 1.05518 0.57749 1.00770
 H267 H 1.00587 0.59354 0.97894
 Cu268 Cu 1.05643 0.54594 0.97540
 Cu269 Cu 1.01754 0.55910 0.95308
 Cu270 Cu 1.04255 0.52036 0.93914
 N271 N 1.06986 0.52368 0.96765
 N272 N 1.06429 0.51374 0.95358
 C273 C 1.07590 0.49920 0.95128
 C274 C 1.08956 0.49997 0.96465
 C275 C 1.08522 0.51574 0.97480
 H276 H 1.07452 0.48892 0.94056
 H277 H 1.09260 0.52099 0.98660
 N278 N 1.02019 0.52929 0.92626
 N279 N 1.01082 0.54422 0.93144
 C280 C 0.99659 0.54699 0.91978
 C281 C 0.99694 0.53310 0.90663
 C282 C 1.01209 0.52211 0.91120
 H283 H 0.98658 0.55820 0.92088
 H284 H 1.01704 0.50995 0.90391
 H285 H 1.02880 0.53360 0.96056
 H286 H 1.04304 0.54854 0.94464
 N287 N 0.52602 0.07385 0.47680
 N288 N 0.54033 0.06855 0.48672
 C289 C 0.54312 0.08103 0.50016
 C290 C 0.52985 0.09495 0.49870
 C291 C 0.51915 0.08988 0.48371
 H292 H 0.55403 0.08004 0.51029
 H293 H 0.50749 0.09747 0.47802
 Cu294 Cu 0.55450 0.04617 0.48121
 Cu295 Cu 0.51794 0.05981 0.45539
 Cu296 Cu 0.54394 0.02076 0.44388
 N297 N 0.56928 0.02471 0.47387
 N298 N 0.56516 0.01482 0.45929
 C299 C 0.57785 0.00113 0.45729
 C300 C 0.59070 0.00253 0.47137
 C301 C 0.58476 0.01769 0.48161
 H302 H 0.57784 -0.00889 0.44622
 H303 H 0.59124 0.02328 0.49377
 N304 N 0.52200 0.02891 0.42992
 N305 N 0.51204 0.04375 0.43423
 C306 C 0.49821 0.04567 0.42191
 C307 C 0.49953 0.03135 0.40919
 C308 C 0.51480 0.02102 0.41479
 H309 H 0.48807 0.05682 0.42206
 H310 H 0.52032 0.00864 0.40835
 H311 H 0.52816 0.03431 0.46380
 H312 H 0.54404 0.04915 0.44942
 N313 N -0.03002 0.07228 0.52673
 N314 N -0.04417 0.06630 0.51708
 C315 C -0.04615 0.07723 0.50208
 C316 C -0.03260 0.09094 0.50235
 C317 C -0.02262 0.08733 0.51829
 H318 H -0.05682 0.07541 0.49184
 H319 H -0.01083 0.09499 0.52342
 Cu320 Cu -0.05904 0.04504 0.52501
 Cu321 Cu -0.02262 0.06030 0.54969
 Cu322 Cu -0.04352 0.01791 0.55972
 N323 N -0.07187 0.02233 0.53241
 N324 N -0.06559 0.01166 0.54577
 C325 C -0.07687 -0.00314 0.54785
 C326 C -0.09103 -0.00179 0.53504
 C327 C -0.08733 0.01459 0.52545
 H328 H -0.07492 -0.01397 0.55808
 H329 H -0.09520 0.02041 0.51415
 N330 N -0.02121 0.02683 0.57242
 N331 N -0.01353 0.04318 0.56901
 C332 C 0.00115 0.04536 0.58025
 C333 C 0.00278 0.02960 0.59127
 C334 C -0.01165 0.01818 0.58588
 H335 H 0.01016 0.05740 0.58019
 H336 H -0.01514 0.00467 0.59155
 H337 H -0.03056 0.03472 0.53981
 H338 H -0.04699 0.04597 0.55652
 N339 N 0.47383 0.57402 0.02828
 N340 N 0.45908 0.56934 0.01879
 C341 C 0.45668 0.58181 0.00503
 C342 C 0.47067 0.59504 0.00597
 C343 C 0.48127 0.58959 0.02094
 H344 H 0.44554 0.58132 -0.00488
 H345 H 0.49366 0.59626 0.02602
 Cu346 Cu 0.44451 0.54738 0.02537
 Cu347 Cu 0.48264 0.55948 0.04924
 Cu348 Cu 0.45785 0.51967 0.06046
 N349 N 0.43091 0.52473 0.03175
 N350 N 0.43630 0.51404 0.04549
 C351 C 0.42471 0.49945 0.04707
 C352 C 0.41122 0.50094 0.03360
 C353 C 0.41564 0.51723 0.02410
 H354 H 0.42605 0.48861 0.05738
 H355 H 0.40834 0.52316 0.01249
 N356 N 0.48000 0.52763 0.07404
 N357 N 0.48936 0.54291 0.06994
 C358 C 0.50364 0.54454 0.08176
 C359 C 0.50329 0.52951 0.09384
 C360 C 0.48809 0.51911 0.08850
 H361 H 0.51372 0.55568 0.08143
 H362 H 0.48317 0.50634 0.09480
 H363 H 0.47206 0.53449 0.04020
 H364 H 0.45721 0.54823 0.05648
 N365 N 0.52357 -0.07326 0.02344
 N366 N 0.53772 -0.06776 0.01320
 C367 C 0.53933 -0.07909 -0.00149
 C368 C 0.52535 -0.09233 -0.00045
 C369 C 0.51563 -0.08816 0.01559
 H370 H 0.54970 -0.07765 -0.01230
 H371 H 0.50375 -0.09550 0.02124
 Cu372 Cu 0.55234 -0.04610 0.01997
 Cu373 Cu 0.51647 -0.06075 0.04622
 Cu374 Cu 0.54272 -0.02245 0.05884
 N375 N 0.56710 -0.02474 0.02727
 N376 N 0.56334 -0.01560 0.04252
 C377 C 0.57557 -0.00156 0.04427
 C378 C 0.58765 -0.00183 0.02926
 C379 C 0.58181 -0.01676 0.01877
 H380 H 0.57550 0.00826 0.05552
 H381 H 0.58792 -0.02156 0.00597
 N382 N 0.52130 -0.03160 0.07349
 N383 N 0.51146 -0.04629 0.06875
 C384 C 0.49798 -0.04912 0.08146
 C385 C 0.49929 -0.03554 0.09484
 C386 C 0.51424 -0.02465 0.08931
 H387 H 0.48774 -0.06010 0.08087
 H388 H 0.51967 -0.01265 0.09638
 H389 H 0.52655 -0.03472 0.03893
 H390 H 0.54260 -0.05033 0.05202
 N391 N 1.02572 0.42751 0.52310
 N392 N 1.04001 0.43268 0.51287
 C393 C 1.04148 0.42117 0.49830
 C394 C 1.02726 0.40818 0.49944
 C395 C 1.01756 0.41268 0.51538
 H396 H 1.05196 0.42226 0.48756
 H397 H 1.00560 0.40552 0.52111
 Cu398 Cu 1.05501 0.45411 0.51962
 Cu399 Cu 1.01888 0.44009 0.54585
 Cu400 Cu 1.04579 0.47781 0.55863
 N401 N 1.07020 0.47513 0.52709
 N402 N 1.06656 0.48428 0.54236
 C403 C 1.07909 0.49804 0.54423
 C404 C 1.09126 0.49756 0.52930
 C405 C 1.08515 0.48280 0.51871
 H406 H 1.07917 0.50780 0.55552
 H407 H 1.09121 0.47792 0.50593
 N408 N 1.02417 0.46903 0.57321
 N409 N 1.01411 0.45454 0.56838
 C410 C 1.00065 0.45175 0.58112
 C411 C 1.00223 0.46515 0.59463
 C412 C 1.01727 0.47592 0.58914
 H413 H 0.99031 0.44088 0.58049
 H414 H 1.02292 0.48774 0.59635
 H415 H 1.02947 0.46597 0.53864
 H416 H 1.04525 0.45000 0.55167
 C417 C 0.40404 0.00791 0.22793
 H418 H 0.40545 0.02055 0.23584
 C419 C 0.41647 0.00419 0.21347
 H420 H 0.42749 0.01403 0.21044
 C421 C 0.38836 -0.02057 0.22284
 H422 H 0.37758 -0.03033 0.22667
 C423 C 0.40043 -0.02481 0.20826
 H424 H 0.39845 -0.03765 0.20077
 N425 N 0.39023 -0.00434 0.23222
 C426 C 0.34676 0.02797 0.25993
 H427 H 0.34528 0.02012 0.27265
 C428 C 0.33532 0.04338 0.25663
 H429 H 0.32522 0.04747 0.26702
 C430 C 0.36183 0.03212 0.23099
 H431 H 0.37192 0.02750 0.22088
 C432 C 0.35071 0.04762 0.22714
 H433 H 0.35240 0.05477 0.21403
 Zn434 Zn 0.37439 0.00138 0.25248
 N435 N 0.35981 0.02276 0.24726
 C436 C 0.38925 0.02182 0.28255
 N437 N 0.38984 0.00553 0.27305
 C438 C 0.40226 -0.00809 0.27737
 C439 C 0.41464 -0.00572 0.29189
 C440 C 0.40135 0.02475 0.29724
 C441 C 0.34497 -0.02242 0.24420
 C442 C 0.33234 -0.03695 0.24681
 C443 C 0.34598 -0.04306 0.27660
 C444 C 0.35839 -0.02840 0.27340
 N445 N 0.35782 -0.01858 0.25729
 H446 H 0.37959 0.03266 0.27864
 H447 H 0.40259 -0.02080 0.26943
 H448 H 0.42429 -0.01683 0.29522
 H449 H 0.40087 0.03789 0.30449
 H450 H 0.34469 -0.01425 0.23161
 H451 H 0.32252 -0.04002 0.23601
 H452 H 0.34657 -0.05062 0.28955
 H453 H 0.36838 -0.02485 0.28384
 C454 C 0.33725 0.05347 0.24005
 C455 C 0.41474 -0.01237 0.20339
 C456 C 0.33277 -0.04754 0.26317
 C457 C 0.41432 0.01090 0.30202
 C458 C 0.09995 -0.00846 0.72339
 H459 H 0.09890 -0.02084 0.73192
 C460 C 0.08892 -0.00662 0.70773
 H461 H 0.07927 -0.01762 0.70438
 C462 C 0.11342 0.02118 0.71786
 H463 H 0.12281 0.03209 0.72197
 C464 C 0.10260 0.02362 0.70209
 H465 H 0.10407 0.03629 0.69403
 N466 N 0.11206 0.00523 0.72803
 C467 C 0.15438 -0.02308 0.76086
 H468 H 0.15391 -0.01490 0.77335
 C469 C 0.16699 -0.03784 0.75928
 H470 H 0.17599 -0.04112 0.77076
 C471 C 0.14312 -0.02870 0.73079
 H472 H 0.13408 -0.02488 0.71955
 C473 C 0.15553 -0.04354 0.72860
 H474 H 0.15586 -0.05095 0.71564
 Zn475 Zn 0.12618 0.00157 0.74970
 N476 N 0.14260 -0.01895 0.74682
 C477 C 0.11006 -0.01814 0.78021
 N478 N 0.10911 -0.00266 0.76934
 C479 C 0.09561 0.01040 0.77198
 C480 C 0.08279 0.00852 0.78643
 C481 C 0.09750 -0.02058 0.79486
 C482 C 0.15452 0.02744 0.74234
 C483 C 0.16582 0.04290 0.74541
 C484 C 0.14908 0.04836 0.77393
 C485 C 0.13814 0.03278 0.77033
 N486 N 0.14085 0.02282 0.75462
 H487 H 0.12061 -0.02857 0.77768
 H488 H 0.09497 0.02241 0.76292
 H489 H 0.07218 0.01910 0.78829
 H490 H 0.09881 -0.03274 0.80366
 H491 H 0.15656 0.01912 0.73009
 H492 H 0.17640 0.04655 0.73530
 H493 H 0.14678 0.05601 0.78657
 H494 H 0.12759 0.02862 0.78021
 C495 C 0.16765 -0.04834 0.74298
 C496 C 0.09020 0.00957 0.69681
 C497 C 0.16309 0.05365 0.76134
 C498 C 0.08374 -0.00704 0.79824
 C499 C 0.60097 0.48933 0.22562
 H500 H 0.59991 0.47712 0.23439
 C501 C 0.58907 0.49144 0.21065
 H502 H 0.57875 0.48083 0.20809
 C503 C 0.61536 0.51826 0.21881
 H504 H 0.62548 0.52878 0.22214
 C505 C 0.60374 0.52093 0.20365
 H506 H 0.60534 0.53336 0.19527
 N507 N 0.61395 0.50253 0.22929
 C508 C 0.65836 0.47352 0.25869
 H509 H 0.65913 0.48159 0.27122
 C510 C 0.67088 0.45887 0.25569
 H511 H 0.68131 0.45581 0.26598
 C512 C 0.64430 0.46826 0.22975
 H513 H 0.63413 0.47209 0.21952
 C514 C 0.65648 0.45353 0.22621
 H515 H 0.65520 0.44594 0.21342
 Zn516 Zn 0.62928 0.49841 0.25006
 N517 N 0.64533 0.47784 0.24584
 C518 C 0.61503 0.47879 0.28163
 N519 N 0.61326 0.49399 0.27047
 C520 C 0.59954 0.50675 0.27330
 C521 C 0.58721 0.50481 0.28814
 C522 C 0.60301 0.47632 0.29672
 C523 C 0.65742 0.52444 0.24189
 C524 C 0.66864 0.54002 0.24470
 C525 C 0.65289 0.54497 0.27385
 C526 C 0.64201 0.52931 0.27050
 N527 N 0.64424 0.51956 0.25459
 H528 H 0.62584 0.46864 0.27898
 H529 H 0.59828 0.51854 0.26403
 H530 H 0.57634 0.51510 0.29005
 H531 H 0.60491 0.46439 0.30572
 H532 H 0.65909 0.51628 0.22948
 H533 H 0.67879 0.54392 0.23425
 H534 H 0.65096 0.55248 0.28664
 H535 H 0.63185 0.52495 0.28068
 C536 C 0.67007 0.44868 0.23922
 C537 C 0.59042 0.50737 0.19935
 C538 C 0.66634 0.55060 0.26081
 C539 C 0.58895 0.48953 0.30022
 C540 C 0.90404 0.50590 0.72658
 H541 H 0.90472 0.51853 0.73462
 C542 C 0.91713 0.50267 0.71259
 H543 H 0.92793 0.51287 0.71001
 C544 C 0.88949 0.47697 0.72073
 H545 H 0.87886 0.46687 0.72407
 C546 C 0.90225 0.47320 0.70661
 H547 H 0.90099 0.46035 0.69899
 N548 N 0.89047 0.49319 0.73026
 C549 C 0.84420 0.52282 0.75605
 H550 H 0.84228 0.51434 0.76831
 C551 C 0.83208 0.53761 0.75249
 H552 H 0.82075 0.54033 0.76204
 C553 C 0.86096 0.52899 0.72838
 H554 H 0.87208 0.52545 0.71891
 C555 C 0.84918 0.54393 0.72429
 H556 H 0.85164 0.55198 0.71183
 Zn557 Zn 0.87360 0.49815 0.74983
 N558 N 0.85838 0.51890 0.74414
 C559 C 0.88579 0.51924 0.78038
 N560 N 0.88783 0.50295 0.77110
 C561 C 0.90092 0.49020 0.77609
 C562 C 0.91260 0.49361 0.79099
 C563 C 0.89709 0.52317 0.79541
 C564 C 0.84507 0.47402 0.74019
 C565 C 0.83223 0.45960 0.74231
 C566 C 0.84506 0.45301 0.77237
 C567 C 0.85766 0.46760 0.76968
 N568 N 0.85751 0.47767 0.75372
 H569 H 0.87556 0.52936 0.77603
 H570 H 0.90247 0.47750 0.76825
 H571 H 0.92320 0.48346 0.79446
 H572 H 0.89508 0.53615 0.80271
 H573 H 0.84513 0.48240 0.72773
 H574 H 0.82262 0.45679 0.73126
 H575 H 0.84521 0.44530 0.78525
 H576 H 0.86738 0.47099 0.78043
 C577 C 0.83450 0.54841 0.73643
 C578 C 0.91633 0.48612 0.70238
 C579 C 0.83208 0.44889 0.75859
 C580 C 0.91084 0.51035 0.80083
 C581 C 0.22563 0.40731 0.00533
 H582 H 0.23356 0.40884 0.01785
 C583 C 0.21019 0.41871 0.00216
 H584 H 0.20618 0.42888 0.01244
 C585 C 0.22111 0.39191 -0.02311
 H586 H 0.22552 0.38162 -0.03304
 C587 C 0.20556 0.40297 -0.02680
 H588 H 0.19818 0.40107 -0.03961
 N589 N 0.23060 0.39403 -0.00710
 C590 C 0.25872 0.35002 0.02373
 H591 H 0.27157 0.34887 0.01591
 C592 C 0.25545 0.33818 0.03877
 H593 H 0.26598 0.32810 0.04261
 C594 C 0.22950 0.36474 0.02826
 H595 H 0.21927 0.37488 0.02396
 C596 C 0.22567 0.35322 0.04340
 H597 H 0.21247 0.35466 0.05058
 Zn598 Zn 0.25132 0.37869 -0.00164
 N599 N 0.24593 0.36315 0.01894
 C600 C 0.28109 0.39270 0.01962
 N601 N 0.27178 0.39440 0.00344
 C602 C 0.27667 0.40753 -0.00931
 C603 C 0.29192 0.41913 -0.00633
 C604 C 0.29644 0.40396 0.02315
 C605 C 0.24445 0.34934 -0.02583
 C606 C 0.24784 0.33715 -0.04043
 C607 C 0.27696 0.35294 -0.04633
 C608 C 0.27305 0.36477 -0.03157
 N609 N 0.25690 0.36293 -0.02181
 H610 H 0.27671 0.38259 0.02984
 H611 H 0.26884 0.40877 -0.02195
 H612 H 0.29590 0.42917 -0.01685
 H613 H 0.30368 0.40237 0.03610
 H614 H 0.23187 0.34798 -0.01763
 H615 H 0.23782 0.32632 -0.04326
 H616 H 0.28971 0.35491 -0.05415
 H617 H 0.28295 0.37540 -0.02798
 C618 C 0.23879 0.33980 0.04891
 C619 C 0.19982 0.41647 -0.01401
 C620 C 0.26425 0.33891 -0.05096
 C621 C 0.30216 0.41726 0.01000
 C622 C 0.72251 0.09511 -0.00893
 H623 H 0.73164 0.09392 -0.02082
 C624 C 0.70714 0.08338 -0.00713
 H625 H 0.70464 0.07307 -0.01765
 C626 C 0.71520 0.10960 0.01951
 H627 H 0.71850 0.11969 0.02997
 C628 C 0.69965 0.09816 0.02187
 H629 H 0.69094 0.09985 0.03401
 N630 N 0.72614 0.10803 0.00418
 C631 C 0.75785 0.15207 -0.02327
 H632 H 0.76982 0.15281 -0.01436
 C633 C 0.75627 0.16430 -0.03824
 H634 H 0.76706 0.17456 -0.04063
 C635 C 0.72900 0.13810 -0.03053
 H636 H 0.71831 0.12800 -0.02742
 C637 C 0.72690 0.15001 -0.04568
 H638 H 0.71474 0.14860 -0.05426
 Zn639 Zn 0.74758 0.12297 0.00064
 N640 N 0.74442 0.13916 -0.01984
 C641 C 0.77882 0.10814 -0.01887
 N642 N 0.76788 0.10660 -0.00353
 C643 C 0.77073 0.09283 0.00911
 C644 C 0.78530 0.08014 0.00679
 C645 C 0.79359 0.09576 -0.02172
 C646 C 0.73948 0.15136 0.02609
 C647 C 0.74230 0.16268 0.04143
 C648 C 0.77107 0.14624 0.04716
 C649 C 0.76773 0.13528 0.03171
 N650 N 0.75200 0.13782 0.02168
 H651 H 0.77608 0.11888 -0.02899
 H652 H 0.76168 0.09179 0.02108
 H653 H 0.78753 0.06950 0.01720
 H654 H 0.80207 0.09713 -0.03408
 H655 H 0.72722 0.15327 0.01771
 H656 H 0.73201 0.17316 0.04493
 H657 H 0.78373 0.14406 0.05489
 H658 H 0.77780 0.12484 0.02773
 C659 C 0.74068 0.16330 -0.04976
 C660 C 0.69541 0.08484 0.00841
 C661 C 0.75823 0.16009 0.05227
 C662 C 0.79701 0.08155 -0.00877
 C663 C 0.22551 0.59621 0.49213
 H664 H 0.23468 0.59548 0.48023
 C665 C 0.21076 0.58371 0.49395
 H666 H 0.20879 0.57327 0.48344
 C667 C 0.21739 0.61046 0.52049
 H668 H 0.22010 0.62080 0.53088
 C669 C 0.20243 0.59824 0.52286
 H670 H 0.19357 0.59959 0.53493
 N671 N 0.22840 0.60941 0.50517
 C672 C 0.25649 0.65533 0.47685
 H673 H 0.26874 0.65681 0.48530
 C674 C 0.25351 0.66757 0.46210
 H675 H 0.26349 0.67855 0.45938
 C676 C 0.22832 0.63959 0.47064
 H677 H 0.21839 0.62883 0.47411
 C678 C 0.22481 0.65148 0.45576
 H679 H 0.21236 0.64942 0.44772
 Zn680 Zn 0.24870 0.62580 0.50127
 N681 N 0.24405 0.64157 0.48073
 C682 C 0.27988 0.61262 0.48084
 N683 N 0.27004 0.61086 0.49687
 C684 C 0.27443 0.59755 0.50955
 C685 C 0.28927 0.58533 0.50636
 C686 C 0.29482 0.60073 0.47710
 C687 C 0.23850 0.65397 0.52574
 C688 C 0.24041 0.66639 0.54034
 C689 C 0.27041 0.65270 0.54689
 C690 C 0.26793 0.64053 0.53214
 N691 N 0.25210 0.64131 0.52199
 H692 H 0.27599 0.62303 0.47076
 H693 H 0.26615 0.59623 0.52203
 H694 H 0.29228 0.57459 0.51645
 H695 H 0.30254 0.60246 0.46431
 H696 H 0.22617 0.65445 0.51729
 H697 H 0.22932 0.67621 0.54321
 H698 H 0.28322 0.65206 0.55463
 H699 H 0.27877 0.63068 0.52867
 C700 C 0.23747 0.66573 0.45130
 C701 C 0.19888 0.58471 0.50941
 C702 C 0.25656 0.66590 0.55112
 C703 C 0.29961 0.58675 0.48987
 C704 C 0.72540 0.90485 0.50799
 H705 H 0.73372 0.90502 0.52036
 C706 C 0.71084 0.91756 0.50589
 H707 H 0.70786 0.92734 0.51685
 C708 C 0.71921 0.89178 0.47874
 H709 H 0.72273 0.88193 0.46805
 C710 C 0.70449 0.90422 0.47607
 H711 H 0.69681 0.90381 0.46329
 N712 N 0.72918 0.89218 0.49460
 C713 C 0.75726 0.84605 0.52209
 H714 H 0.76944 0.84477 0.51329
 C715 C 0.75497 0.83414 0.53721
 H716 H 0.76539 0.82355 0.53984
 C717 C 0.72881 0.86133 0.52909
 H718 H 0.71862 0.87191 0.52586
 C719 C 0.72598 0.84972 0.54439
 H720 H 0.71373 0.85173 0.55296
 Zn721 Zn 0.74950 0.87590 0.49853
 N722 N 0.74448 0.85957 0.51855
 C723 C 0.77989 0.88843 0.51991
 N724 N 0.77045 0.89085 0.50388
 C725 C 0.77535 0.90443 0.49161
 C726 C 0.79061 0.91589 0.49500
 C727 C 0.79524 0.89953 0.52384
 C728 C 0.74102 0.84867 0.47231
 C729 C 0.74389 0.83740 0.45689
 C730 C 0.77396 0.85180 0.45241
 C731 C 0.77054 0.86275 0.46793
 N732 N 0.75417 0.86119 0.47737
 H733 H 0.77549 0.87797 0.52977
 H734 H 0.76743 0.90625 0.47909
 H735 H 0.79453 0.92636 0.48488
 H736 H 0.80251 0.89742 0.53671
 H737 H 0.72824 0.84752 0.48023
 H738 H 0.73311 0.82777 0.45287
 H739 H 0.78713 0.85316 0.44516
 H740 H 0.78105 0.87238 0.47244
 C741 C 0.73930 0.83607 0.54878
 C742 C 0.70014 0.91733 0.48977
 C743 C 0.76051 0.83898 0.44665
 C744 C 0.80086 0.91341 0.51126
 C745 C 0.00815 0.22397 0.40464
 H746 H 0.02045 0.23249 0.40605
 C747 C 0.00528 0.20880 0.41649
 H748 H 0.01559 0.20557 0.42685
 C749 C -0.02015 0.21783 0.38932
 H750 H -0.03022 0.22157 0.37895
 C751 C -0.02355 0.20253 0.40082
 H752 H -0.03624 0.19464 0.39913
 N753 N -0.00438 0.22805 0.39124
 C754 C 0.02572 0.25819 0.34802
 H755 H 0.01674 0.27023 0.34660
 C756 C 0.04127 0.25626 0.33653
 H757 H 0.04406 0.26684 0.32617
 C758 C 0.03250 0.22951 0.36290
 H759 H 0.02893 0.21902 0.37306
 C760 C 0.04823 0.22701 0.35169
 H761 H 0.05679 0.21473 0.35360
 Zn762 Zn 0.00025 0.24896 0.37580
 N763 N 0.02177 0.24504 0.36105
 C764 C 0.01911 0.28052 0.38997
 N765 N 0.00349 0.26990 0.39118
 C766 C -0.01011 0.27367 0.40378
 C767 C -0.00849 0.28889 0.41556
 C768 C 0.02127 0.29593 0.40142
 C769 C -0.02310 0.23979 0.34657
 C770 C -0.03741 0.24212 0.33386
 C771 C -0.04470 0.27179 0.34776
 C772 C -0.03024 0.26887 0.36023
 N773 N -0.01990 0.25299 0.35953
 H774 H 0.02994 0.27713 0.38013
 H775 H -0.02225 0.26481 0.40465
 H776 H -0.01940 0.29151 0.42561
 H777 H 0.03362 0.30442 0.39993
 H778 H -0.01449 0.22740 0.34616
 H779 H -0.03991 0.23127 0.32388
 H780 H -0.05262 0.28463 0.34839
 H781 H -0.02720 0.27943 0.37032
 C782 C 0.05284 0.24055 0.33835
 C783 C -0.01069 0.19777 0.41457
 C784 C -0.04844 0.25830 0.33433
 C785 C 0.00733 0.30033 0.41441
 C786 C -0.00583 0.72459 0.09606
 H787 H -0.01777 0.73370 0.09475
 C788 C -0.00388 0.70929 0.08446
 H789 H -0.01433 0.70683 0.07408
 C790 C 0.02249 0.71713 0.11096
 H791 H 0.03277 0.72031 0.12125
 C792 C 0.02500 0.70163 0.09960
 H793 H 0.03711 0.69283 0.10147
 N794 N 0.00710 0.72806 0.10917
 C795 C -0.02307 0.75758 0.15248
 H796 H -0.01503 0.77026 0.15341
 C797 C -0.03803 0.75451 0.16456
 H798 H -0.04136 0.76490 0.17485
 C799 C -0.02790 0.72830 0.13840
 H800 H -0.02378 0.71795 0.12842
 C801 C -0.04297 0.72470 0.15014
 H802 H -0.05050 0.71176 0.14868
 Zn803 Zn 0.00263 0.74900 0.12430
 N804 N -0.01838 0.74459 0.13966
 C805 C -0.01751 0.77978 0.10925
 N806 N -0.00157 0.76954 0.10835
 C807 C 0.01166 0.77306 0.09527
 C808 C 0.00925 0.78751 0.08254
 C809 C -0.02048 0.79441 0.09680
 C810 C 0.02718 0.74089 0.15314
 C811 C 0.04167 0.74407 0.16546
 C812 C 0.04751 0.77351 0.15017
 C813 C 0.03289 0.76979 0.13820
 N814 N 0.02314 0.75364 0.13980
 H815 H -0.02805 0.77649 0.11946
 H816 H 0.02410 0.76454 0.09472
 H817 H 0.02007 0.79022 0.07240
 H818 H -0.03335 0.80225 0.09757
 H819 H 0.01896 0.72832 0.15433
 H820 H 0.04445 0.73388 0.17617
 H821 H 0.05524 0.78634 0.14848
 H822 H 0.02927 0.77993 0.12777
 C823 C -0.04819 0.73785 0.16350
 C824 C 0.01160 0.69745 0.08625
 C825 C 0.05203 0.76061 0.16410
 C826 C -0.00701 0.79840 0.08318
 C827 C 0.49218 0.22941 0.59447
 H828 H 0.48022 0.23849 0.59318
 C829 C 0.49515 0.21520 0.58169
 H830 H 0.48543 0.21350 0.57049
 C831 C 0.51971 0.22108 0.61034
 H832 H 0.52933 0.22350 0.62143
 C833 C 0.52321 0.20672 0.59788
 H834 H 0.53539 0.19802 0.59974
 N835 N 0.50432 0.23198 0.60853
 C836 C 0.47456 0.25860 0.65391
 H837 H 0.48353 0.27040 0.65636
 C838 C 0.45940 0.25518 0.66561
 H839 H 0.45691 0.26439 0.67715
 C840 C 0.46760 0.23181 0.63636
 H841 H 0.47097 0.22257 0.62512
 C842 C 0.45223 0.22794 0.64763
 H843 H 0.44371 0.21594 0.64461
 Zn844 Zn 0.49979 0.25186 0.62502
 N845 N 0.47834 0.24700 0.63959
 C846 C 0.48121 0.28472 0.61275
 N847 N 0.49651 0.27370 0.61066
 C848 C 0.50967 0.27753 0.59761
 C849 C 0.50791 0.29315 0.58619
 C850 C 0.47890 0.30052 0.60163
 C851 C 0.52248 0.24142 0.65456
 C852 C 0.53701 0.24286 0.66716
 C853 C 0.54648 0.27148 0.65216
 C854 C 0.53166 0.26959 0.63997
 N855 N 0.52013 0.25463 0.64125
 H856 H 0.47075 0.28129 0.62299
 H857 H 0.52152 0.26833 0.59601
 H858 H 0.51844 0.29577 0.57573
 H859 H 0.46678 0.30928 0.60369
 H860 H 0.51296 0.22980 0.65544
 H861 H 0.53838 0.23233 0.67781
 H862 H 0.55572 0.28328 0.65056
 H863 H 0.52947 0.28008 0.62947
 C864 C 0.44798 0.23965 0.66257
 C865 C 0.51086 0.20363 0.58329
 C866 C 0.54932 0.25802 0.66603
 C867 C 0.49238 0.30493 0.58814
 C868 C 0.50814 0.72686 0.90438
 H869 H 0.52021 0.73582 0.90485
 C870 C 0.50588 0.71270 0.91748
 H871 H 0.51646 0.71067 0.92785
 C872 C 0.47974 0.71872 0.89018
 H873 H 0.46942 0.72132 0.87972
 C874 C 0.47693 0.70436 0.90301
 H875 H 0.46439 0.69607 0.90228
 N876 N 0.49523 0.72953 0.89100
 C877 C 0.52406 0.75758 0.84547
 H878 H 0.51530 0.76973 0.84369
 C879 C 0.53902 0.75450 0.83341
 H880 H 0.54161 0.76433 0.82231
 C881 C 0.53069 0.72959 0.86164
 H882 H 0.52726 0.71974 0.87245
 C883 C 0.54579 0.72598 0.84994
 H884 H 0.55405 0.71356 0.85222
 Zn885 Zn 0.49905 0.74965 0.87439
 N886 N 0.52024 0.74524 0.85929
 C887 C 0.51737 0.78247 0.88682
 N888 N 0.50220 0.77131 0.88880
 C889 C 0.48898 0.77479 0.90186
 C890 C 0.49056 0.79016 0.91343
 C891 C 0.51948 0.79806 0.89807
 C892 C 0.47524 0.73883 0.84608
 C893 C 0.46043 0.74032 0.83379
 C894 C 0.45238 0.76993 0.84742
 C895 C 0.46739 0.76791 0.85938
 N896 N 0.47835 0.75245 0.85863
 H897 H 0.52790 0.77930 0.87658
 H898 H 0.47723 0.76549 0.90336
 H899 H 0.48000 0.79247 0.92391
 H900 H 0.53150 0.80693 0.89608
 H901 H 0.48437 0.72683 0.84557
 H902 H 0.45837 0.72943 0.82375
 H903 H 0.44363 0.78219 0.84851
 H904 H 0.47025 0.77874 0.86923
 C905 C 0.55009 0.73847 0.83553
 C906 C 0.49008 0.70123 0.91692
 C907 C 0.44873 0.75603 0.83437
 C908 C 0.50595 0.80208 0.91161
 C909 C 0.11564 0.23153 0.28917
 C910 C 0.12159 0.24589 0.27730
 C911 C 0.13593 0.24256 0.26468
 C912 C 0.14442 0.22495 0.26375
 C913 C 0.13808 0.21095 0.27585
 N914 N 0.12396 0.21450 0.28798
 C915 C 0.10006 0.23426 0.30239
 N916 N 0.08955 0.21932 0.30756
 C917 C 0.07466 0.22090 0.31918
 C918 C 0.06953 0.23837 0.32629
 C919 C 0.08049 0.25385 0.32150
 C920 C 0.09573 0.25186 0.30965
 H921 H 0.14035 0.25383 0.25570
 H922 H 0.14408 0.19712 0.27550
 H923 H 0.06660 0.20859 0.32246
 H924 H 0.07737 0.26749 0.32705
 H925 H 0.11502 0.25947 0.27738
 H926 H 0.10410 0.26398 0.30642
 C927 C 0.61191 0.72454 0.78617
 C928 C 0.62161 0.70754 0.78565
 C929 C 0.63678 0.70549 0.77370
 C930 C 0.64242 0.72031 0.76225
 C931 C 0.63245 0.73713 0.76330
 N932 N 0.61774 0.73882 0.77512
 C933 C 0.59584 0.72755 0.79875
 N934 N 0.59170 0.74519 0.80428
 C935 C 0.57723 0.74903 0.81588
 C936 C 0.56584 0.73460 0.82265
 C937 C 0.56968 0.71635 0.81687
 C938 C 0.58459 0.71277 0.80495
 H939 H 0.64398 0.69224 0.77341
 H940 H 0.63641 0.74902 0.75492
 H941 H 0.57486 0.76330 0.82003
 H942 H 0.56098 0.70484 0.82131
 H943 H 0.61781 0.69600 0.79457
 H944 H 0.58696 0.69863 0.80041
 C945 C 0.38729 0.76515 0.78440
 C946 C 0.38057 0.75105 0.77289
 C947 C 0.36572 0.75483 0.76113
 C948 C 0.35751 0.77260 0.76078
 C949 C 0.36477 0.78634 0.77238
 N950 N 0.37929 0.78235 0.78364
 C951 C 0.40308 0.76207 0.79705
 N952 N 0.41340 0.77699 0.80227
 C953 C 0.42797 0.77540 0.81401
 C954 C 0.43288 0.75795 0.82142
 C955 C 0.42232 0.74239 0.81634
 C956 C 0.40745 0.74437 0.80422
 H957 H 0.36063 0.74379 0.75245
 H958 H 0.35910 0.80031 0.77241
 H959 H 0.43581 0.78776 0.81734
 H960 H 0.42531 0.72873 0.82203
 H961 H 0.38683 0.73733 0.77266
 H962 H 0.39927 0.73224 0.80091
 C963 C -0.10864 0.26826 0.28303
 C964 C -0.11112 0.25674 0.26770
 C965 C -0.12645 0.25942 0.25633
 C966 C -0.13955 0.27357 0.26009
 C967 C -0.13657 0.28469 0.27575
 N968 N -0.12151 0.28173 0.28665
 C969 C -0.09273 0.26578 0.29570
 N970 N -0.09452 0.27145 0.31352
 C971 C -0.08062 0.26937 0.32600
 C972 C -0.06363 0.26112 0.32078
 C973 C -0.06138 0.25552 0.30237
 C974 C -0.07581 0.25786 0.28982
 H975 H -0.12787 0.25026 0.24466
 H976 H -0.14613 0.29569 0.27951
 H977 H -0.08301 0.27383 0.34005
 H978 H -0.04835 0.24956 0.29760
 H979 H -0.10158 0.24547 0.26463
 H980 H -0.07353 0.25376 0.27564
 C981 C -0.11037 0.72397 0.21243
 C982 C -0.11928 0.70662 0.21394
 C983 C -0.13451 0.70458 0.22584
 C984 C -0.14094 0.71974 0.23626
 C985 C -0.13178 0.73690 0.23418
 N986 N -0.11701 0.73856 0.22244
 C987 C -0.09420 0.72696 0.19997
 N988 N -0.09082 0.74442 0.19331
 C989 C -0.07627 0.74825 0.18180
 C990 C -0.06398 0.73402 0.17635
 C991 C -0.06703 0.71598 0.18333
 C992 C -0.08206 0.71240 0.19511
 H993 H -0.14109 0.69108 0.22695
 H994 H -0.13639 0.74904 0.24171
 H995 H -0.07453 0.76234 0.17669
 H996 H -0.05764 0.70467 0.17992
 H997 H -0.11480 0.69479 0.20584
 H998 H -0.08385 0.69846 0.20060
 C999 C 0.38589 0.22496 0.71140
 C1000 C 0.37508 0.20874 0.71087
 C1001 C 0.36028 0.20652 0.72328
 C1002 C 0.35613 0.22039 0.73636
 C1003 C 0.36726 0.23654 0.73618
 N1004 N 0.38152 0.23838 0.72387
 C1005 C 0.40173 0.22809 0.69859
 N1006 N 0.40663 0.24589 0.69420
 C1007 C 0.42117 0.24990 0.68274
 C1008 C 0.43193 0.23550 0.67503
 C1009 C 0.42722 0.21703 0.67956
 C1010 C 0.41217 0.21328 0.69128
 H1011 H 0.35226 0.19383 0.72254
 H1012 H 0.36472 0.24783 0.74567
 H1013 H 0.42414 0.26434 0.67953
 H1014 H 0.43538 0.20548 0.67436
 H1015 H 0.37777 0.19796 0.70082
 H1016 H 0.40911 0.19896 0.69489
 C1017 C 0.61006 0.26646 0.71684
 C1018 C 0.61471 0.25323 0.73036
 C1019 C 0.62951 0.25666 0.74221
 C1020 C 0.63991 0.27322 0.74063
 C1021 C 0.63459 0.28614 0.72691
 N1022 N 0.62000 0.28252 0.71568
 C1023 C 0.59440 0.26364 0.70404
 N1024 N 0.58522 0.27881 0.69735
 C1025 C 0.57083 0.27737 0.68538
 C1026 C 0.56498 0.25980 0.67925
 C1027 C 0.57442 0.24398 0.68587
 C1028 C 0.58906 0.24582 0.69825
 H1029 H 0.63276 0.24616 0.75244
 H1030 H 0.64179 0.29922 0.72509
 H1031 H 0.56387 0.28996 0.68090
 H1032 H 0.57075 0.23018 0.68122
 H1033 H 0.60684 0.24049 0.73204
 H1034 H 0.59637 0.23346 0.70284
 C1035 C 0.11241 0.77498 0.21386
 C1036 C 0.12151 0.79224 0.21466
 C1037 C 0.13656 0.79444 0.22646
 C1038 C 0.14264 0.77953 0.23750
 C1039 C 0.13322 0.76247 0.23623
 N1040 N 0.11864 0.76063 0.22454
 C1041 C 0.09659 0.77181 0.20133
 N1042 N 0.09332 0.75425 0.19515
 C1043 C 0.07920 0.75032 0.18343
 C1044 C 0.06729 0.76455 0.17721
 C1045 C 0.07021 0.78268 0.18372
 C1046 C 0.08477 0.78636 0.19575
 H1047 H 0.14333 0.80787 0.22696
 H1048 H 0.13755 0.75052 0.24430
 H1049 H 0.07754 0.73615 0.17873
 H1050 H 0.06108 0.79400 0.17972
 H1051 H 0.11737 0.80386 0.20604
 H1052 H 0.08647 0.80039 0.20082
 C1053 C 0.28938 0.11624 0.22472
 C1054 C 0.29302 0.12958 0.21090
 C1055 C 0.28035 0.14402 0.20790
 C1056 C 0.26395 0.14526 0.21851
 C1057 C 0.26073 0.13150 0.23203
 N1058 N 0.27330 0.11755 0.23470
 C1059 C 0.30224 0.10049 0.22848
 N1060 N 0.29547 0.08502 0.23717
 C1061 C 0.30631 0.06998 0.24108
 C1062 C 0.32527 0.06991 0.23617
 C1063 C 0.33261 0.08580 0.22743
 C1064 C 0.32122 0.10110 0.22363
 H1065 H 0.28353 0.15419 0.19728
 H1066 H 0.24823 0.13168 0.24043
 H1067 H 0.30003 0.05798 0.24774
 H1068 H 0.34724 0.08652 0.22378
 H1069 H 0.30530 0.12882 0.20221
 H1070 H 0.32740 0.11331 0.21731
 C1071 C 0.78520 0.61012 0.72176
 C1072 C 0.78459 0.61958 0.70476
 C1073 C 0.77280 0.63490 0.70269
 C1074 C 0.76161 0.64091 0.71748
 C1075 C 0.76265 0.63108 0.73425
 N1076 N 0.77432 0.61624 0.73596
 C1077 C 0.79778 0.59406 0.72489
 N1078 N 0.80333 0.59016 0.74240
 C1079 C 0.81495 0.57574 0.74640
 C1080 C 0.82170 0.56415 0.73229
 C1081 C 0.81594 0.56778 0.71416
 C1082 C 0.80399 0.58264 0.71040
 H1083 H 0.77249 0.64197 0.68947
 H1084 H 0.75445 0.63531 0.74609
 H1085 H 0.81911 0.57356 0.76056
 H1086 H 0.82042 0.55893 0.70291
 H1087 H 0.79337 0.61555 0.69326
 H1088 H 0.79944 0.58485 0.69637
 C1089 C 0.77996 0.38869 0.76896
 C1090 C 0.76351 0.38653 0.75885
 C1091 C 0.75209 0.37116 0.76228
 C1092 C 0.75698 0.35783 0.77566
 C1093 C 0.77364 0.36043 0.78530
 N1094 N 0.78452 0.37551 0.78173
 C1095 C 0.79282 0.40456 0.76594
 N1096 N 0.81072 0.40289 0.77178
 C1097 C 0.82341 0.41677 0.76966
 C1098 C 0.81835 0.43366 0.76120
 C1099 C 0.79991 0.43579 0.75526
 C1100 C 0.78712 0.42136 0.75765
 H1101 H 0.73947 0.36980 0.75439
 H1102 H 0.77819 0.35052 0.79561
 H1103 H 0.83749 0.41447 0.77435
 H1104 H 0.79529 0.44874 0.74906
 H1105 H 0.75954 0.39630 0.74818
 H1106 H 0.77292 0.42362 0.75335
 C1107 C 0.28282 -0.10961 0.27314
 C1108 C 0.26785 -0.11287 0.26132
 C1109 C 0.25679 -0.12860 0.26395
 C1110 C 0.26051 -0.14133 0.27834
 C1111 C 0.27585 -0.13759 0.28972
 N1112 N 0.28645 -0.12215 0.28681
 C1113 C 0.29510 -0.09321 0.27076
 N1114 N 0.31297 -0.09420 0.27678
 C1115 C 0.32512 -0.07982 0.27474
 C1116 C 0.31950 -0.06316 0.26613
 C1117 C 0.30101 -0.06170 0.26019
 C1118 C 0.28879 -0.07661 0.26251
 H1119 H 0.24539 -0.13060 0.25457
 H1120 H 0.27959 -0.14686 0.30090
 H1121 H 0.33926 -0.08160 0.27947
 H1122 H 0.29592 -0.04896 0.25394
 H1123 H 0.26482 -0.10362 0.24989
 H1124 H 0.27453 -0.07496 0.25811
 C1125 C 0.21847 -0.10993 0.73311
 C1126 C 0.23391 -0.11362 0.74430
 C1127 C 0.24516 -0.12907 0.74064
 C1128 C 0.24116 -0.14104 0.72587
 C1129 C 0.22542 -0.13684 0.71514
 N1130 N 0.21468 -0.12172 0.71902
 C1131 C 0.20586 -0.09387 0.73632
 N1132 N 0.18827 -0.09458 0.72953
 C1133 C 0.17589 -0.08038 0.73159
 C1134 C 0.18098 -0.06409 0.74090
 C1135 C 0.19909 -0.06300 0.74794
 C1136 C 0.21155 -0.07779 0.74566
 H1137 H 0.25693 -0.13151 0.74954
 H1138 H 0.22144 -0.14546 0.70368
 H1139 H 0.16203 -0.08194 0.72609
 H1140 H 0.20377 -0.05056 0.75486
 H1141 H 0.23717 -0.10496 0.75598
 H1142 H 0.22556 -0.07634 0.75078
 C1143 C 0.71935 0.38679 0.22499
 C1144 C 0.72021 0.37796 0.20776
 C1145 C 0.73153 0.36234 0.20544
 C1146 C 0.74205 0.35538 0.22020
 C1147 C 0.74075 0.36456 0.23723
 N1148 N 0.72951 0.37972 0.23919
 C1149 C 0.70721 0.40317 0.22825
 N1150 N 0.70052 0.40638 0.24558
 C1151 C 0.68893 0.42088 0.24948
 C1152 C 0.68335 0.43321 0.23544
 C1153 C 0.69048 0.43041 0.21757
 C1154 C 0.70238 0.41549 0.21393
 H1155 H 0.73206 0.35580 0.19204
 H1156 H 0.74842 0.35958 0.24906
 H1157 H 0.68376 0.42247 0.26345
 H1158 H 0.68700 0.43987 0.20642
 H1159 H 0.71196 0.38276 0.19625
 H1160 H 0.70790 0.41385 0.20010
 C1161 C 0.71229 0.61475 0.27430
 C1162 C 0.70801 0.62847 0.28742
 C1163 C 0.72033 0.64318 0.29013
 C1164 C 0.73701 0.64428 0.27994
 C1165 C 0.74085 0.63015 0.26711
 N1166 N 0.72862 0.61597 0.26471
 C1167 C 0.69990 0.59867 0.27090
 N1168 N 0.70722 0.58310 0.26298
 C1169 C 0.69684 0.56773 0.25948
 C1170 C 0.67782 0.56741 0.26408
 C1171 C 0.66990 0.58342 0.27198
 C1172 C 0.68082 0.59905 0.27534
 H1173 H 0.71671 0.65361 0.30025
 H1174 H 0.75356 0.63021 0.25903
 H1175 H 0.70354 0.55568 0.25345
 H1176 H 0.65519 0.58394 0.27533
 H1177 H 0.69552 0.62782 0.29580
 H1178 H 0.67421 0.61130 0.28104
 C1179 C 0.20980 0.11718 0.77522
 C1180 C 0.20534 0.13147 0.78767
 C1181 C 0.21790 0.14597 0.79037
 C1182 C 0.23500 0.14632 0.78083
 C1183 C 0.23897 0.13167 0.76863
 N1184 N 0.22651 0.11770 0.76623
 C1185 C 0.19720 0.10124 0.77186
 N1186 N 0.20448 0.08539 0.76446
 C1187 C 0.19394 0.07015 0.76092
 C1188 C 0.17478 0.07026 0.76489
 C1189 C 0.16692 0.08652 0.77232
 C1190 C 0.17802 0.10203 0.77575
 H1191 H 0.21415 0.15685 0.79998
 H1192 H 0.25199 0.13114 0.76108
 H1193 H 0.20060 0.05787 0.75530
 H1194 H 0.15213 0.08737 0.77519
 H1195 H 0.19251 0.13141 0.79557
 H1196 H 0.17145 0.11449 0.78103
 C1197 C 0.22448 0.29163 0.11138
 C1198 C 0.21074 0.29515 0.12481
 C1199 C 0.20810 0.28254 0.13930
 C1200 C 0.21898 0.26630 0.14050
 C1201 C 0.23239 0.26317 0.12662
 N1202 N 0.23472 0.27569 0.11263
 C1203 C 0.22793 0.30452 0.09566
 N1204 N 0.23646 0.29783 0.08019
 C1205 C 0.24012 0.30876 0.06521
 C1206 C 0.23509 0.32768 0.06521
 C1207 C 0.22652 0.33492 0.08109
 C1208 C 0.22299 0.32346 0.09633
 H1209 H 0.19750 0.28564 0.14951
 H1210 H 0.24101 0.25081 0.12676
 H1211 H 0.24667 0.30257 0.05322
 H1212 H 0.22283 0.34953 0.08187
 H1213 H 0.20183 0.30729 0.12409
 H1214 H 0.21682 0.32958 0.10853
 C1215 C 0.73025 0.78899 0.61290
 C1216 C 0.74451 0.77724 0.61925
 C1217 C 0.74115 0.76537 0.63418
 C1218 C 0.72361 0.76505 0.64285
 C1219 C 0.70971 0.77702 0.63612
 N1220 N 0.71329 0.78842 0.62144
 C1221 C 0.73302 0.80144 0.59677
 N1222 N 0.71808 0.80630 0.58634
 C1223 C 0.71968 0.81735 0.57109
 C1224 C 0.73716 0.82419 0.56551
 C1225 C 0.75267 0.81965 0.57630
 C1226 C 0.75067 0.80836 0.59190
 H1227 H 0.75235 0.75649 0.63888
 H1228 H 0.69594 0.77711 0.64225
 H1229 H 0.70734 0.82048 0.56317
 H1230 H 0.76633 0.82504 0.57284
 H1231 H 0.75802 0.77683 0.61256
 H1232 H 0.76280 0.80540 0.60016
 C1233 C 0.77403 0.79234 0.38341
 C1234 C 0.78767 0.79601 0.36988
 C1235 C 0.79030 0.78353 0.35540
 C1236 C 0.77952 0.76729 0.35434
 C1237 C 0.76615 0.76406 0.36825
 N1238 N 0.76384 0.77644 0.38222
 C1239 C 0.77070 0.80491 0.39926
 N1240 N 0.76208 0.79797 0.41463
 C1241 C 0.75857 0.80852 0.42978
 C1242 C 0.76388 0.82733 0.43009
 C1243 C 0.77254 0.83486 0.41431
 C1244 C 0.77590 0.82378 0.39889
 H1245 H 0.80083 0.78669 0.34511
 H1246 H 0.75761 0.75170 0.36821
 H1247 H 0.75194 0.80211 0.44168
 H1248 H 0.77647 0.84941 0.41379
 H1249 H 0.79652 0.80813 0.37051
 H1250 H 0.78218 0.83012 0.38680
 C1251 C 0.27792 0.29016 -0.11256
 C1252 C 0.29500 0.28915 -0.12208
 C1253 C 0.29685 0.27727 -0.13715
 C1254 C 0.28178 0.26637 -0.14281
 C1255 C 0.26490 0.26792 -0.13303
 N1256 N 0.26340 0.27966 -0.11844
 C1257 C 0.27506 0.30265 -0.09661
 N1258 N 0.25753 0.30874 -0.09264
 C1259 C 0.25376 0.32021 -0.07822
 C1260 C 0.26813 0.32620 -0.06666
 C1261 C 0.28628 0.31986 -0.07036
 C1262 C 0.28980 0.30811 -0.08526
 H1263 H 0.31015 0.27657 -0.14423
 H1264 H 0.25282 0.25999 -0.13702
 H1265 H 0.23958 0.32485 -0.07601
 H1266 H 0.29773 0.32373 -0.06157
 H1267 H 0.30674 0.29764 -0.11822
 H1268 H 0.30384 0.30310 -0.08754
 C1269 C 0.73188 0.21197 -0.11271
 C1270 C 0.74593 0.22373 -0.11963
 C1271 C 0.74224 0.23533 -0.13468
 C1272 C 0.72462 0.23530 -0.14291
 C1273 C 0.71096 0.22338 -0.13554
 N1274 N 0.71484 0.21229 -0.12079
 C1275 C 0.73484 0.19961 -0.09657
 N1276 N 0.71986 0.19446 -0.08613
 C1277 C 0.72138 0.18306 -0.07117
 C1278 C 0.73883 0.17597 -0.06597
 C1279 C 0.75445 0.18098 -0.07665
 C1280 C 0.75253 0.19274 -0.09193
 H1281 H 0.75324 0.24425 -0.13989
 H1282 H 0.69711 0.22304 -0.14125
 H1283 H 0.70897 0.17975 -0.06327
 H1284 H 0.76810 0.17550 -0.07345
 H1285 H 0.75950 0.22430 -0.11334
 H1286 H 0.76472 0.19601 -0.10018
 C1287 C 0.22438 0.71416 0.38892
 C1288 C 0.20750 0.71439 0.37931
 C1289 C 0.20555 0.72589 0.36388
 C1290 C 0.22035 0.73720 0.35788
 C1291 C 0.23707 0.73644 0.36777
 N1292 N 0.23866 0.72504 0.38275
 C1293 C 0.22723 0.70202 0.40526
 N1294 N 0.24478 0.69624 0.40941
 C1295 C 0.24841 0.68487 0.42404
 C1296 C 0.23386 0.67860 0.43557
 C1297 C 0.21572 0.68473 0.43174
 C1298 C 0.21235 0.69641 0.41669
 H1299 H 0.19238 0.72598 0.35677
 H1300 H 0.24893 0.74471 0.36354
 H1301 H 0.26260 0.68044 0.42640
 H1302 H 0.20414 0.68069 0.44053
 H1303 H 0.19597 0.70557 0.38339
 H1304 H 0.19829 0.70120 0.41428
 C1305 C 0.26668 0.71674 0.61155
 C1306 C 0.25649 0.73329 0.61394
 C1307 C 0.25993 0.74453 0.62918
 C1308 C 0.27339 0.73935 0.64218
 C1309 C 0.28308 0.72255 0.63940
 N1310 N 0.27950 0.71185 0.62443
 C1311 C 0.26371 0.70417 0.59568
 N1312 N 0.26934 0.68608 0.59707
 C1313 C 0.26724 0.67369 0.58314
 C1314 C 0.25903 0.67927 0.56647
 C1315 C 0.25331 0.69790 0.56464
 C1316 C 0.25567 0.71037 0.57912
 H1317 H 0.25200 0.75726 0.63066
 H1318 H 0.29344 0.71778 0.64908
 H1319 H 0.27176 0.65944 0.58520
 H1320 H 0.24733 0.70293 0.55188
 H1321 H 0.24576 0.73750 0.60441
 H1322 H 0.25157 0.72474 0.57708
 C1323 C 0.77261 0.20658 0.11513
 C1324 C 0.78575 0.20207 0.12870
 C1325 C 0.78901 0.21448 0.14303
 C1326 C 0.77937 0.23149 0.14394
 C1327 C 0.76648 0.23555 0.13000
 N1328 N 0.76353 0.22323 0.11615
 C1329 C 0.76875 0.19406 0.09944
 N1330 N 0.76132 0.20142 0.08377
 C1331 C 0.75763 0.19090 0.06869
 C1332 C 0.76154 0.17172 0.06879
 C1333 C 0.76885 0.16378 0.08492
 C1334 C 0.77239 0.17482 0.10025
 H1335 H 0.79910 0.21064 0.15337
 H1336 H 0.75883 0.24854 0.12993
 H1337 H 0.75205 0.19762 0.05652
 H1338 H 0.77163 0.14896 0.08577
 H1339 H 0.79375 0.18930 0.12819
 H1340 H 0.77764 0.16821 0.11260
 C1341 C 0.48312 0.36769 0.53902
 C1342 C 0.49729 0.37382 0.52700
 C1343 C 0.49373 0.38831 0.51461
 C1344 C 0.47610 0.39676 0.51409
 C1345 C 0.46230 0.39020 0.52631
 N1346 N 0.46607 0.37596 0.53820
 C1347 C 0.48602 0.35201 0.55207
 N1348 N 0.47109 0.34166 0.55756
 C1349 C 0.47271 0.32681 0.56918
 C1350 C 0.49022 0.32155 0.57600
 C1351 C 0.50573 0.33229 0.57082
 C1352 C 0.50370 0.34750 0.55894
 H1353 H 0.50484 0.39289 0.50551
 H1354 H 0.44845 0.39613 0.52628
 H1355 H 0.46038 0.31888 0.57272
 H1356 H 0.51942 0.32906 0.57611
 H1357 H 0.51087 0.36730 0.52679
 H1358 H 0.51583 0.35573 0.55544
 C1359 C -0.01832 0.85865 0.03141
 C1360 C -0.00830 0.86072 0.01480
 C1361 C -0.01174 0.87607 0.00341
 C1362 C -0.02505 0.88949 0.00848
 C1363 C -0.03462 0.88699 0.02530
 N1364 N -0.03103 0.87192 0.03616
 C1365 C -0.01521 0.84275 0.04420
 N1366 N -0.02046 0.84452 0.06221
 C1367 C -0.01809 0.83063 0.07481
 C1368 C -0.00995 0.81364 0.06955
 C1369 C -0.00468 0.81141 0.05100
 C1370 C -0.00733 0.82584 0.03830
 H1371 H -0.00392 0.87732 -0.00935
 H1372 H -0.04486 0.89700 0.02996
 H1373 H -0.02228 0.83300 0.08898
 H1374 H 0.00122 0.79838 0.04623
 H1375 H 0.00234 0.85088 0.01068
 H1376 H -0.00355 0.82350 0.02403
 C1377 C 0.01975 0.63512 0.03711
 C1378 C 0.00525 0.62927 0.02566
 C1379 C 0.00838 0.61494 0.01311
 C1380 C 0.02593 0.60639 0.01182
 C1381 C 0.04009 0.61269 0.02346
 N1382 N 0.03672 0.62676 0.03554
 C1383 C 0.01724 0.65060 0.05031
 N1384 N 0.03231 0.66084 0.05524
 C1385 C 0.03095 0.67560 0.06688
 C1386 C 0.01358 0.68087 0.07423
 C1387 C -0.00203 0.67017 0.06971
 C1388 C -0.00027 0.65505 0.05785
 H1389 H -0.00300 0.61059 0.00449
 H1390 H 0.05389 0.60668 0.02281
 H1391 H 0.04336 0.68345 0.06998
 H1392 H -0.01561 0.67341 0.07547
 H1393 H -0.00829 0.63588 0.02602
 H1394 H -0.01250 0.64689 0.05485
 C1395 C 0.52397 0.14280 0.53326
 C1396 C 0.54077 0.13278 0.53308
 C1397 C 0.54269 0.11730 0.52171
 C1398 C 0.52793 0.11165 0.51051
 C1399 C 0.51135 0.12204 0.51107
 N1400 N 0.50976 0.13705 0.52237
 C1401 C 0.52107 0.15897 0.54556
 N1402 N 0.50349 0.16326 0.55130
 C1403 C 0.49986 0.17754 0.56306
 C1404 C 0.51445 0.18847 0.56985
 C1405 C 0.53262 0.18456 0.56374
 C1406 C 0.53598 0.16993 0.55160
 H1407 H 0.55578 0.10983 0.52175
 H1408 H 0.49954 0.11810 0.50281
 H1409 H 0.48563 0.18003 0.56743
 H1410 H 0.54423 0.19295 0.56821
 H1411 H 0.55223 0.13649 0.54190
 H1412 H 0.55009 0.16744 0.54688
 C1413 C -0.02402 0.13506 0.46301
 C1414 C -0.03687 0.12089 0.45927
 C1415 C -0.03960 0.10654 0.47205
 C1416 C -0.02967 0.10617 0.48865
 C1417 C -0.01709 0.12071 0.49195
 N1418 N -0.01468 0.13458 0.47928
 C1419 C -0.02065 0.15077 0.45003
 N1420 N -0.01330 0.16686 0.45663
 C1421 C -0.00991 0.18193 0.44565
 C1422 C -0.01398 0.18136 0.42674
 C1423 C -0.02129 0.16483 0.41959
 C1424 C -0.02456 0.14953 0.43111
 H1425 H -0.04953 0.09577 0.46881
 H1426 H -0.00925 0.12122 0.50460
 H1427 H -0.00436 0.19443 0.45177
 H1428 H -0.02421 0.16363 0.40501
 H1429 H -0.04505 0.12095 0.44683
 H1430 H -0.02978 0.13686 0.42508
 C1431 C 0.47959 0.64194 0.97006
 C1432 C 0.48958 0.64048 0.98658
 C1433 C 0.48660 0.62527 0.99829
 C1434 C 0.47378 0.61137 0.99364
 C1435 C 0.46417 0.61329 0.97693
 N1436 N 0.46734 0.62824 0.96572
 C1437 C 0.48237 0.65762 0.95692
 N1438 N 0.47770 0.65523 0.93892
 C1439 C 0.47992 0.66888 0.92599
 C1440 C 0.48729 0.68625 0.93091
 C1441 C 0.49194 0.68911 0.94944
 C1442 C 0.48945 0.67492 0.96246
 H1443 H 0.49437 0.62448 1.01099
 H1444 H 0.45431 0.60288 0.97261
 H1445 H 0.47623 0.66602 0.91185
 H1446 H 0.49722 0.70243 0.95394
 H1447 H 0.49987 0.65070 0.99037
 H1448 H 0.49274 0.67771 0.97671
 C1449 C 0.51466 0.86372 0.96143
 C1450 C 0.50063 0.86930 0.97385
 C1451 C 0.50412 0.88363 0.98626
 C1452 C 0.52151 0.89247 0.98637
 C1453 C 0.53518 0.88643 0.97378
 N1454 N 0.53150 0.87235 0.96190
 C1455 C 0.51187 0.84828 0.94829
 N1456 N 0.52692 0.83830 0.94245
 C1457 C 0.52543 0.82373 0.93065
 C1458 C 0.50794 0.81842 0.92396
 C1459 C 0.49229 0.82880 0.92950
 C1460 C 0.49418 0.84371 0.94160
 H1461 H 0.49313 0.88780 0.99568
 H1462 H 0.54886 0.89267 0.97351
 H1463 H 0.53787 0.81608 0.92687
 H1464 H 0.47860 0.82554 0.92433
 H1465 H 0.48723 0.86248 0.97431
 H1466 H 0.48194 0.85166 0.94540
 C1467 C 0.01621 0.36320 0.46266
 C1468 C 0.00207 0.36961 0.47453
 C1469 C 0.00566 0.38433 0.48645
 C1470 C 0.02327 0.39274 0.48660
 C1471 C 0.03702 0.38594 0.47450
 N1472 N 0.03324 0.37147 0.46311
 C1473 C 0.01333 0.34729 0.45013
 N1474 N 0.02825 0.33668 0.44513
 C1475 C 0.02670 0.32174 0.43381
 C1476 C 0.00929 0.31671 0.42671
 C1477 C -0.00623 0.32765 0.43149
 C1478 C -0.00429 0.34291 0.44314
 H1479 H -0.00540 0.38912 0.49548
 H1480 H 0.05085 0.39185 0.47429
 H1481 H 0.03903 0.31365 0.43065
 H1482 H -0.01984 0.32462 0.42598
 H1483 H -0.01150 0.36312 0.47498
 H1484 H -0.01640 0.35132 0.44631
 C1485 C 0.36038 0.53633 0.47462
 C1486 C 0.36911 0.53529 0.45725
 C1487 C 0.38433 0.52347 0.45475
 C1488 C 0.39102 0.51266 0.46948
 C1489 C 0.38194 0.51412 0.48666
 N1490 N 0.36715 0.52583 0.48879
 C1491 C 0.34442 0.54898 0.47808
 N1492 N 0.34133 0.55540 0.49548
 C1493 C 0.32714 0.56730 0.49961
 C1494 C 0.31501 0.57349 0.48575
 C1495 C 0.31774 0.56673 0.46779
 C1496 C 0.33234 0.55449 0.46391
 H1497 H 0.39079 0.52283 0.44123
 H1498 H 0.38671 0.50622 0.49846
 H1499 H 0.32559 0.57218 0.51364
 H1500 H 0.30842 0.57068 0.45677
 H1501 H 0.36456 0.54377 0.44574
 H1502 H 0.33387 0.54922 0.45003
 C1503 C 0.85892 0.03123 -0.01902
 C1504 C 0.86075 0.01399 -0.00992
 C1505 C 0.87655 0.00307 -0.01304
 C1506 C 0.89067 0.00923 -0.02512
 C1507 C 0.88837 0.02664 -0.03379
 N1508 N 0.87285 0.03702 -0.03053
 C1509 C 0.84258 0.04358 -0.01620
 N1510 N 0.84422 0.06200 -0.02053
 C1511 C 0.82994 0.07429 -0.01838
 C1512 C 0.81266 0.06825 -0.01146
 C1513 C 0.81056 0.04928 -0.00711
 C1514 C 0.82540 0.03692 -0.00952
 H1515 H 0.87762 -0.01017 -0.00593
 H1516 H 0.89887 0.03214 -0.04307
 H1517 H 0.83223 0.08880 -0.02180
 H1518 H 0.79735 0.04394 -0.00214
 H1519 H 0.85037 0.00902 -0.00021
 H1520 H 0.82318 0.02233 -0.00649
 C1521 C 0.63279 0.03551 0.01789
 C1522 C 0.62607 0.02405 0.00380
 C1523 C 0.61136 0.01191 0.00750
 C1524 C 0.60328 0.01106 0.02519
 C1525 C 0.61049 0.02267 0.03891
 N1526 N 0.62489 0.03433 0.03500
 C1527 C 0.64860 0.04841 0.01486
 N1528 N 0.65903 0.05352 0.02958
 C1529 C 0.67385 0.06516 0.02791
 C1530 C 0.67898 0.07246 0.01057
 C1531 C 0.66821 0.06763 -0.00474
 C1532 C 0.65304 0.05569 -0.00266
 H1533 H 0.60631 0.00328 -0.00356
 H1534 H 0.60489 0.02236 0.05281
 H1535 H 0.68181 0.06840 0.04008
 H1536 H 0.67135 0.07328 -0.01829
 H1537 H 0.63227 0.02411 -0.00985
 H1538 H 0.64476 0.05253 -0.01463
 C1539 C 0.13702 0.53429 0.51834
 C1540 C 0.13043 0.52275 0.50425
 C1541 C 0.11555 0.51077 0.50782
 C1542 C 0.10717 0.51016 0.52538
 C1543 C 0.11431 0.52177 0.53914
 N1544 N 0.12886 0.53329 0.53534
 C1545 C 0.15282 0.54721 0.51541
 N1546 N 0.16296 0.55259 0.53024
 C1547 C 0.17762 0.56446 0.52869
 C1548 C 0.18284 0.57177 0.51139
 C1549 C 0.17241 0.56660 0.49596
 C1550 C 0.15743 0.55440 0.49789
 H1551 H 0.11059 0.50210 0.49675
 H1552 H 0.10851 0.52164 0.55295
 H1553 H 0.18532 0.56794 0.54096
 H1554 H 0.17562 0.57225 0.48242
 H1555 H 0.13682 0.52266 0.49069
 H1556 H 0.14938 0.55103 0.48583
 C1557 C 0.13519 0.46226 -0.02727
 C1558 C 0.12128 0.45790 -0.04003
 C1559 C 0.10641 0.47013 -0.04259
 C1560 C 0.10530 0.48681 -0.03261
 C1561 C 0.11959 0.49073 -0.02012
 N1562 N 0.13395 0.47857 -0.01785
 C1563 C 0.15145 0.44994 -0.02405
 N1564 N 0.16704 0.45732 -0.01646
 C1565 C 0.18254 0.44699 -0.01309
 C1566 C 0.18298 0.42797 -0.01745
 C1567 C 0.16700 0.42000 -0.02507
 C1568 C 0.15123 0.43086 -0.02831
 H1569 H 0.09583 0.46643 -0.05243
 H1570 H 0.11952 0.50345 -0.01223
 H1571 H 0.19458 0.45372 -0.00727
 H1572 H 0.16658 0.40528 -0.02822
 H1573 H 0.12192 0.44541 -0.04827
 H1574 H 0.13899 0.42419 -0.03373
 C1575 C 0.63875 0.96822 0.48029
 C1576 C 0.63621 0.98445 0.49075
 C1577 C 0.62059 0.99562 0.48783
 C1578 C 0.60735 0.99069 0.47459
 C1579 C 0.61031 0.97424 0.46458
 N1580 N 0.62565 0.96358 0.46767
 C1581 C 0.65494 0.95569 0.48288
 N1582 N 0.65362 0.93766 0.47730
 C1583 C 0.66781 0.92526 0.47924
 C1584 C 0.68463 0.93077 0.48724
 C1585 C 0.68641 0.94936 0.49284
 C1586 C 0.67169 0.96185 0.49062
 H1587 H 0.61900 1.00810 0.49597
 H1588 H 0.60044 0.96970 0.45437
 H1589 H 0.66581 0.91104 0.47482
 H1590 H 0.69929 0.95431 0.49867
 H1591 H 0.64591 0.98842 0.50134
 H1592 H 0.67365 0.97618 0.49465
 C1593 C 0.86398 0.96018 0.52632
 C1594 C 0.87764 0.95589 0.53945
 C1595 C 0.89226 0.96826 0.54229
 C1596 C 0.89337 0.98500 0.53219
 C1597 C 0.87927 0.98888 0.51940
 N1598 N 0.86516 0.97659 0.51688
 C1599 C 0.84810 0.94762 0.52268
 N1600 N 0.83252 0.95486 0.51478
 C1601 C 0.81738 0.94429 0.51095
 C1602 C 0.81734 0.92515 0.51512
 C1603 C 0.83333 0.91735 0.52304
 C1604 C 0.84873 0.92847 0.52677
 H1605 H 0.90261 0.96463 0.55243
 H1606 H 0.87932 1.00163 0.51140
 H1607 H 0.80530 0.95091 0.50494
 H1608 H 0.83407 0.90258 0.52609
 H1609 H 0.87700 0.94332 0.54772
 H1610 H 0.86101 0.92194 0.53243
 C1611 C 0.36601 0.46342 0.02387
 C1612 C 0.37904 0.45928 0.03763
 C1613 C 0.39374 0.47145 0.04071
 C1614 C 0.39557 0.48790 0.03026
 C1615 C 0.38212 0.49164 0.01676
 N1616 N 0.36788 0.47953 0.01400
 C1617 C 0.35002 0.45103 0.02016
 N1618 N 0.33456 0.45830 0.01204
 C1619 C 0.31925 0.44785 0.00850
 C1620 C 0.31887 0.42886 0.01329
 C1621 C 0.33479 0.42101 0.02132
 C1622 C 0.35036 0.43197 0.02469
 H1623 H 0.40357 0.46788 0.05137
 H1624 H 0.38278 0.50417 0.00843
 H1625 H 0.30726 0.45447 0.00230
 H1626 H 0.33529 0.40632 0.02477
 H1627 H 0.37780 0.44701 0.04627
 H1628 H 0.36255 0.42540 0.03050
 C1629 C 0.53831 0.48106 0.36182
 C1630 C 0.52578 0.49508 0.36725
 C1631 C 0.51350 0.49181 0.38192
 C1632 C 0.51360 0.47460 0.39122
 C1633 C 0.52622 0.46088 0.38524
 N1634 N 0.53800 0.46438 0.37085
 C1635 C 0.55151 0.48376 0.34625
 N1636 N 0.55756 0.46862 0.33666
 C1637 C 0.56955 0.47005 0.32209
 C1638 C 0.57621 0.48757 0.31639
 C1639 C 0.57043 0.50331 0.32634
 C1640 C 0.55815 0.50148 0.34124
 H1641 H 0.50406 0.50283 0.38600
 H1642 H 0.52663 0.44733 0.39182
 H1643 H 0.57355 0.45755 0.31479
 H1644 H 0.57560 0.51704 0.32278
 H1645 H 0.52517 0.50835 0.36012
 H1646 H 0.55423 0.51380 0.34888
 C1647 C 0.03370 -0.01597 0.86033
 C1648 C 0.02263 -0.00165 0.86776
 C1649 C 0.01119 -0.00534 0.88300
 C1650 C 0.01063 -0.02325 0.89089
 C1651 C 0.02168 -0.03724 0.88284
 N1652 N 0.03271 -0.03331 0.86800
 C1653 C 0.04627 -0.01295 0.84427
 N1654 N 0.05166 -0.02792 0.83406
 C1655 C 0.06343 -0.02640 0.81934
 C1656 C 0.07064 -0.00896 0.81413
 C1657 C 0.06538 0.00665 0.82454
 C1658 C 0.05328 0.00473 0.83959
 H1659 H 0.00293 0.00592 0.88863
 H1660 H 0.02156 -0.05132 0.88820
 H1661 H 0.06698 -0.03880 0.81163
 H1662 H 0.07094 0.02031 0.82131
 H1663 H 0.02252 0.01220 0.86181
 H1664 H 0.04992 0.01693 0.84765
 C1665 C 0.04214 0.01883 0.63413
 C1666 C 0.03187 0.00406 0.62674
 C1667 C 0.01922 0.00756 0.61266
 C1668 C 0.01665 0.02573 0.60586
 C1669 C 0.02723 0.04011 0.61355
 N1670 N 0.03941 0.03637 0.62737
 C1671 C 0.05515 0.01601 0.64966
 N1672 N 0.05893 0.03065 0.66087
 C1673 C 0.07025 0.02903 0.67575
 C1674 C 0.07847 0.01181 0.68016
 C1675 C 0.07510 -0.00336 0.66853
 C1676 C 0.06356 -0.00131 0.65327
 H1677 H 0.01145 -0.00401 0.60718
 H1678 H 0.02560 0.05436 0.60891
 H1679 H 0.07241 0.04108 0.68435
 H1680 H 0.08154 -0.01677 0.67114
 H1681 H 0.03313 -0.01000 0.63203
 H1682 H 0.06149 -0.01316 0.64438
 C1683 C 0.54092 0.51770 0.13792
 C1684 C 0.52933 0.50355 0.13131
 C1685 C 0.51712 0.50739 0.11693
 C1686 C 0.51633 0.52530 0.10906
 C1687 C 0.52808 0.53908 0.11612
 N1688 N 0.53982 0.53502 0.13022
 C1689 C 0.55388 0.51449 0.15340
 N1690 N 0.55898 0.52920 0.16397
 C1691 C 0.57065 0.52733 0.17854
 C1692 C 0.57797 0.50977 0.18324
 C1693 C 0.57315 0.49448 0.17230
 C1694 C 0.56118 0.49676 0.15740
 H1695 H 0.50838 0.49628 0.11197
 H1696 H 0.52782 0.55313 0.11067
 H1697 H 0.57389 0.53949 0.18664
 H1698 H 0.57883 0.48077 0.17510
 H1699 H 0.52934 0.48974 0.13736
 H1700 H 0.55802 0.48480 0.14899
 C1701 C 0.46406 -0.02817 0.14222
 C1702 C 0.46447 -0.04543 0.13320
 C1703 C 0.47601 -0.04785 0.11782
 C1704 C 0.48718 -0.03315 0.11134
 C1705 C 0.48636 -0.01611 0.12074
 N1706 N 0.47490 -0.01405 0.13562
 C1707 C 0.45168 -0.02467 0.15827
 N1708 N 0.44587 -0.00694 0.16166
 C1709 C 0.43428 -0.00267 0.17596
 C1710 C 0.42780 -0.01672 0.18796
 C1711 C 0.43391 -0.03505 0.18491
 C1712 C 0.44583 -0.03908 0.17016
 H1713 H 0.47617 -0.06125 0.11109
 H1714 H 0.49455 -0.00433 0.11612
 H1715 H 0.42987 0.01165 0.17769
 H1716 H 0.42970 -0.04626 0.19408
 H1717 H 0.45570 -0.05687 0.13764
 H1718 H 0.45059 -0.05326 0.16835
 C1719 C 0.96726 0.47186 0.64224
 C1720 C 0.96787 0.45464 0.63316
 C1721 C 0.97936 0.45245 0.61774
 C1722 C 0.99030 0.46732 0.61126
 C1723 C 0.98935 0.48430 0.62075
 N1724 N 0.97790 0.48616 0.63568
 C1725 C 0.95475 0.47509 0.65823
 N1726 N 0.94831 0.49263 0.66146
 C1727 C 0.93633 0.49654 0.67555
 C1728 C 0.93005 0.48228 0.68741
 C1729 C 0.93691 0.46418 0.68459
 C1730 C 0.94924 0.46053 0.67009
 H1731 H 0.97966 0.43907 0.61094
 H1732 H 0.99738 0.49620 0.61614
 H1733 H 0.93137 0.51069 0.67716
 H1734 H 0.93287 0.45285 0.69369
 H1735 H 0.95925 0.44308 0.63757
 H1736 H 0.95451 0.44651 0.66840
 C1737 C 0.95988 0.52576 0.86136
 C1738 C 0.96080 0.54312 0.87012
 C1739 C 0.97285 0.54550 0.88490
 C1740 C 0.98402 0.53068 0.89101
 C1741 C 0.98258 0.51350 0.88197
 N1742 N 0.97065 0.51148 0.86766
 C1743 C 0.94725 0.52240 0.84572
 N1744 N 0.94104 0.50478 0.84269
 C1745 C 0.92946 0.50061 0.82858
 C1746 C 0.92349 0.51463 0.81635
 C1747 C 0.92996 0.53284 0.81909
 C1748 C 0.94179 0.53678 0.83369
 H1749 H 0.97348 0.55901 0.89140
 H1750 H 0.99072 0.50160 0.88635
 H1751 H 0.92475 0.48640 0.82709
 H1752 H 0.92616 0.54401 0.80973
 H1753 H 0.95211 0.55469 0.86589
 H1754 H 0.94690 0.55085 0.83522
 C1755 C 0.46497 0.02174 0.36225
 C1756 C 0.48100 0.01085 0.36489
 C1757 C 0.49223 0.01401 0.38014
 C1758 C 0.48756 0.02791 0.39295
 C1759 C 0.47127 0.03833 0.38993
 N1760 N 0.46055 0.03499 0.37493
 C1761 C 0.45247 0.01891 0.34635
 N1762 N 0.43447 0.02478 0.34764
 C1763 C 0.42212 0.02252 0.33371
 C1764 C 0.42767 0.01383 0.31724
 C1765 C 0.44623 0.00796 0.31550
 C1766 C 0.45867 0.01054 0.32992
 H1767 H 0.50455 0.00551 0.38177
 H1768 H 0.46694 0.04905 0.39946
 H1769 H 0.40792 0.02722 0.33566
 H1770 H 0.45123 0.00164 0.30286
 H1771 H 0.48478 -0.00025 0.35556
 H1772 H 0.47299 0.00628 0.32797
   
