data_POSCAR
  _audit_creation_date              2014-09-24
  _audit_creation_method            'ToBaCCo'
  _symmetry_space_group_name_H-M    'P1'
  _symmetry_Int_Tables_number       1
  _symmetry_cell_setting            triclinic
  loop_
  _symmetry_equiv_pos_as_xyz
 x,y,z
_cell_length_a 97.0486
_cell_length_b 97.1301
_cell_length_c 97.6574
_cell_angle_alpha 89.915500
_cell_angle_beta 90.052800
_cell_angle_gamma 89.997300
loop_
  _atom_site_label
  _atom_site_type_symbol
  _atom_site_fract_x
  _atom_site_fract_y
  _atom_site_fract_z
N1 N 0.35835 0.32008 0.33030
 N2 N 0.35794 0.32943 0.32058
 C3 C 0.36877 0.32759 0.31217
 C4 C 0.37641 0.31645 0.31684
 C5 C 0.36941 0.31196 0.32839
 H6 H 0.37094 0.33394 0.30335
 H7 H 0.37217 0.30349 0.33502
 Cu8 Cu 0.34350 0.34332 0.31987
 Cu9 Cu 0.34472 0.31931 0.34486
 Cu10 Cu 0.31955 0.34455 0.34486
 N11 N 0.32960 0.35775 0.32054
 N12 N 0.32029 0.35817 0.33027
 C13 C 0.31215 0.36922 0.32834
 C14 C 0.31659 0.37619 0.31675
 C15 C 0.32771 0.36855 0.31209
 H16 H 0.30369 0.37198 0.33498
 H17 H 0.33402 0.37070 0.30324
 N18 N 0.32049 0.32988 0.35876
 N19 N 0.33006 0.32025 0.35875
 C20 C 0.32808 0.31192 0.36961
 C21 C 0.31670 0.31651 0.37686
 C22 C 0.31217 0.32793 0.36962
 H23 H 0.33455 0.30321 0.37208
 H24 H 0.30351 0.33444 0.37210
 H25 H 0.32892 0.32873 0.33420
 H26 H 0.34045 0.34019 0.34446
 N27 N 0.35874 0.82036 -0.16989
 N28 N 0.35839 0.82973 -0.17958
 C29 C 0.36922 0.82787 -0.18798
 C30 C 0.37684 0.81667 -0.18335
 C31 C 0.36977 0.81220 -0.17179
 H32 H 0.37138 0.83430 -0.19675
 H33 H 0.37240 0.80369 -0.16515
 Cu34 Cu 0.34398 0.84367 -0.18023
 Cu35 Cu 0.34505 0.81955 -0.15538
 Cu36 Cu 0.31982 0.84474 -0.15547
 N37 N 0.33005 0.85808 -0.17965
 N38 N 0.32065 0.85842 -0.17001
 C39 C 0.31250 0.86946 -0.17194
 C40 C 0.31700 0.87655 -0.18347
 C41 C 0.32821 0.86893 -0.18806
 H42 H 0.30398 0.87208 -0.16533
 H43 H 0.33467 0.87111 -0.19680
 N44 N 0.32070 0.83003 -0.14160
 N45 N 0.33032 0.82044 -0.14155
 C46 C 0.32830 0.81209 -0.13072
 C47 C 0.31685 0.81662 -0.12353
 C48 C 0.31231 0.82803 -0.13080
 H49 H 0.33478 0.80341 -0.12822
 H50 H 0.30360 0.83449 -0.12838
 H51 H 0.32932 0.82899 -0.16610
 H52 H 0.34072 0.84043 -0.15568
 N53 N 0.85834 0.32060 -0.16981
 N54 N 0.85821 0.33025 -0.17926
 C55 C 0.86900 0.32835 -0.18772
 C56 C 0.87634 0.31690 -0.18333
 C57 C 0.86919 0.31227 -0.17192
 H58 H 0.87138 0.33490 -0.19634
 H59 H 0.87172 0.30355 -0.16551
 Cu60 Cu 0.84412 0.34450 -0.17933
 Cu61 Cu 0.84465 0.31975 -0.15525
 Cu62 Cu 0.81945 0.34508 -0.15523
 N63 N 0.82994 0.35866 -0.17922
 N64 N 0.82032 0.35882 -0.16977
 C65 C 0.81202 0.36970 -0.17186
 C66 C 0.81664 0.37690 -0.18329
 C67 C 0.82807 0.36948 -0.18767
 H68 H 0.80334 0.37218 -0.16540
 H69 H 0.83464 0.37178 -0.19629
 N70 N 0.82033 0.33031 -0.14139
 N71 N 0.82992 0.32068 -0.14140
 C72 C 0.82791 0.31231 -0.13058
 C73 C 0.81650 0.31687 -0.12335
 C74 C 0.81198 0.32831 -0.13057
 H75 H 0.83437 0.30360 -0.12812
 H76 H 0.80330 0.33480 -0.12810
 H77 H 0.82913 0.32952 -0.16594
 H78 H 0.84029 0.34057 -0.15494
 N79 N 0.85814 0.82034 0.33019
 N80 N 0.85775 0.82970 0.32048
 C81 C 0.86857 0.82783 0.31206
 C82 C 0.87618 0.81667 0.31672
 C83 C 0.86918 0.81219 0.32828
 H84 H 0.87076 0.83419 0.30325
 H85 H 0.87192 0.80371 0.33491
 Cu86 Cu 0.84335 0.84364 0.31985
 Cu87 Cu 0.84452 0.81960 0.34477
 Cu88 Cu 0.81934 0.84483 0.34474
 N89 N 0.82942 0.85805 0.32044
 N90 N 0.82009 0.85846 0.33015
 C91 C 0.81196 0.86951 0.32823
 C92 C 0.81641 0.87654 0.31664
 C93 C 0.82756 0.86886 0.31200
 H94 H 0.80350 0.87219 0.33489
 H95 H 0.83397 0.87098 0.30321
 N96 N 0.82027 0.83016 0.35866
 N97 N 0.82987 0.82054 0.35866
 C98 C 0.82789 0.81220 0.36951
 C99 C 0.81649 0.81676 0.37675
 C100 C 0.81194 0.82818 0.36950
 H101 H 0.83437 0.80350 0.37198
 H102 H 0.80326 0.83467 0.37196
 H103 H 0.82872 0.82905 0.33410
 H104 H 0.84021 0.84049 0.34442
 N105 N 0.64186 0.67976 0.33030
 N106 N 0.64229 0.67045 0.32057
 C107 C 0.63147 0.67233 0.31213
 C108 C 0.62381 0.68343 0.31680
 C109 C 0.63079 0.68788 0.32838
 H110 H 0.62930 0.66599 0.30331
 H111 H 0.62802 0.69631 0.33502
 Cu112 Cu 0.65672 0.65655 0.31995
 Cu113 Cu 0.65547 0.68048 0.34490
 Cu114 Cu 0.68072 0.65532 0.34493
 N115 N 0.67064 0.64213 0.32062
 N116 N 0.67998 0.64171 0.33034
 C117 C 0.68812 0.63066 0.32842
 C118 C 0.68364 0.62369 0.31686
 C119 C 0.67249 0.63133 0.31220
 H120 H 0.69659 0.62789 0.33506
 H121 H 0.66612 0.62917 0.30339
 N122 N 0.67975 0.66996 0.35883
 N123 N 0.67012 0.67953 0.35883
 C124 C 0.67206 0.68784 0.36968
 C125 C 0.68348 0.68330 0.37694
 C126 C 0.68808 0.67193 0.36969
 H127 H 0.66555 0.69651 0.37214
 H128 H 0.69680 0.66548 0.37216
 H129 H 0.67129 0.67112 0.33427
 H130 H 0.65982 0.65960 0.34454
 N131 N 0.64187 0.17925 -0.16982
 N132 N 0.64224 0.16989 -0.17950
 C133 C 0.63138 0.17174 -0.18791
 C134 C 0.62377 0.18289 -0.18327
 C135 C 0.63080 0.18737 -0.17174
 H136 H 0.62918 0.16538 -0.19670
 H137 H 0.62807 0.19584 -0.16512
 Cu138 Cu 0.65669 0.15601 -0.18014
 Cu139 Cu 0.65555 0.18004 -0.15529
 Cu140 Cu 0.68083 0.15490 -0.15530
 N141 N 0.67066 0.14163 -0.17953
 N142 N 0.68005 0.14126 -0.16984
 C143 C 0.68821 0.13024 -0.17176
 C144 C 0.68372 0.12319 -0.18332
 C145 C 0.67251 0.13082 -0.18794
 H146 H 0.69671 0.12758 -0.16512
 H147 H 0.66606 0.12867 -0.19669
 N148 N 0.67990 0.16957 -0.14143
 N149 N 0.67027 0.17915 -0.14143
 C150 C 0.67225 0.18749 -0.13061
 C151 C 0.68369 0.18297 -0.12337
 C152 C 0.68826 0.17158 -0.13060
 H153 H 0.66576 0.19617 -0.12816
 H154 H 0.69698 0.16513 -0.12814
 H155 H 0.67135 0.17063 -0.16597
 H156 H 0.65994 0.15915 -0.15559
 N157 N 0.14282 0.68061 -0.17064
 N158 N 0.14199 0.67018 -0.17915
 C159 C 0.13057 0.67160 -0.18686
 C160 C 0.12388 0.68360 -0.18302
 C161 C 0.13201 0.68904 -0.17268
 H162 H 0.12735 0.66437 -0.19463
 H163 H 0.13031 0.69846 -0.16705
 Cu164 Cu 0.15591 0.65578 -0.17927
 Cu165 Cu 0.15793 0.68259 -0.15768
 Cu166 Cu 0.18024 0.65482 -0.15479
 N167 N 0.17002 0.64156 -0.17906
 N168 N 0.17933 0.64110 -0.16930
 C169 C 0.18753 0.63012 -0.17129
 C170 C 0.18313 0.62323 -0.18294
 C171 C 0.17197 0.63086 -0.18759
 H172 H 0.19603 0.62739 -0.16468
 H173 H 0.16568 0.62876 -0.19647
 N174 N 0.17958 0.66992 -0.14136
 N175 N 0.17131 0.68062 -0.14262
 C176 C 0.17337 0.68917 -0.13197
 C177 C 0.18349 0.68363 -0.12359
 C178 C 0.18716 0.67140 -0.12990
 H179 H 0.16787 0.69872 -0.13047
 H180 H 0.19475 0.66406 -0.12640
 H181 H 0.17262 0.67000 -0.16704
 H182 H 0.15983 0.66159 -0.15543
 N183 N 0.14171 0.17962 0.33030
 N184 N 0.14212 0.17031 0.32057
 C185 C 0.13130 0.17221 0.31213
 C186 C 0.12368 0.18334 0.31678
 C187 C 0.13066 0.18777 0.32837
 H188 H 0.12913 0.16589 0.30330
 H189 H 0.12789 0.19620 0.33502
 Cu190 Cu 0.15654 0.15640 0.31993
 Cu191 Cu 0.15534 0.18031 0.34490
 Cu192 Cu 0.18054 0.15510 0.34489
 N193 N 0.17047 0.14199 0.32054
 N194 N 0.17980 0.14153 0.33027
 C195 C 0.18795 0.13050 0.32832
 C196 C 0.18349 0.12358 0.31672
 C197 C 0.17234 0.13122 0.31207
 H198 H 0.19640 0.12770 0.33497
 H199 H 0.16600 0.12910 0.30324
 N200 N 0.17959 0.16970 0.35883
 N201 N 0.17000 0.17931 0.35882
 C202 C 0.17200 0.18765 0.36964
 C203 C 0.18341 0.18308 0.37689
 C204 C 0.18795 0.17167 0.36966
 H205 H 0.16555 0.19636 0.37208
 H206 H 0.19666 0.16520 0.37212
 H207 H 0.17115 0.17092 0.33426
 H208 H 0.15965 0.15942 0.34452
 N209 N 0.64159 0.32038 0.66960
 N210 N 0.64163 0.33011 0.67893
 C211 C 0.63083 0.32822 0.68737
 C212 C 0.62359 0.31667 0.68312
 C213 C 0.63079 0.31197 0.67179
 H214 H 0.62839 0.33484 0.69591
 H215 H 0.62837 0.30316 0.66550
 Cu216 Cu 0.65567 0.34440 0.67890
 Cu217 Cu 0.65534 0.31948 0.65511
 Cu218 Cu 0.68063 0.34472 0.65509
 N219 N 0.66999 0.35842 0.67892
 N220 N 0.67973 0.35845 0.66959
 C221 C 0.68815 0.36923 0.67177
 C222 C 0.68346 0.37643 0.68311
 C223 C 0.67189 0.36920 0.68736
 H224 H 0.69698 0.37165 0.66548
 H225 H 0.66527 0.37165 0.69589
 N226 N 0.67974 0.32994 0.64129
 N227 N 0.67012 0.32034 0.64131
 C228 C 0.67212 0.31197 0.63051
 C229 C 0.68355 0.31649 0.62328
 C230 C 0.68810 0.32792 0.63048
 H231 H 0.66561 0.30330 0.62804
 H232 H 0.69679 0.33439 0.62799
 H233 H 0.67081 0.32932 0.66587
 H234 H 0.65981 0.34032 0.65461
 N235 N 0.64158 0.82044 1.16961
 N236 N 0.64162 0.83017 1.17893
 C237 C 0.63082 0.82830 1.18738
 C238 C 0.62358 0.81674 1.18314
 C239 C 0.63078 0.81204 1.17181
 H240 H 0.62837 0.83492 1.19591
 H241 H 0.62836 0.80321 1.16554
 Cu242 Cu 0.65569 0.84444 1.17890
 Cu243 Cu 0.65533 0.81951 1.15512
 Cu244 Cu 0.68063 0.84474 1.15510
 N245 N 0.66999 0.85847 1.17891
 N246 N 0.67973 0.85849 1.16958
 C247 C 0.68816 0.86927 1.17177
 C248 C 0.68346 0.87647 1.18310
 C249 C 0.67188 0.86925 1.18735
 H250 H 0.69699 0.87167 1.16549
 H251 H 0.66525 0.87170 1.19588
 N252 N 0.67975 0.82995 1.14131
 N253 N 0.67013 0.82036 1.14133
 C254 C 0.67213 0.81199 1.13054
 C255 C 0.68357 0.81650 1.12331
 C256 C 0.68812 0.82792 1.13051
 H257 H 0.66563 0.80332 1.12807
 H258 H 0.69681 0.83440 1.12802
 H259 H 0.67079 0.82931 1.16587
 H260 H 0.65980 0.84032 1.15462
 N261 N 0.14163 0.32035 1.16968
 N262 N 0.14206 0.32967 1.17940
 C263 C 0.13126 0.32778 1.18785
 C264 C 0.12362 0.31666 1.18319
 C265 C 0.13058 0.31222 1.17162
 H266 H 0.12911 0.33411 1.19668
 H267 H 0.12779 0.30379 1.16497
 Cu268 Cu 0.15647 0.34359 1.17999
 Cu269 Cu 0.15523 0.31959 1.15510
 Cu270 Cu 0.18044 0.34480 1.15504
 N271 N 0.17038 0.35799 1.17934
 N272 N 0.17969 0.35842 1.16960
 C273 C 0.18783 0.36947 1.17151
 C274 C 0.18340 0.37642 1.18310
 C275 C 0.17227 0.36878 1.18778
 H276 H 0.19626 0.37226 1.16485
 H277 H 0.16595 0.37092 1.19662
 N278 N 0.17949 0.33013 1.14115
 N279 N 0.16988 0.32053 1.14118
 C280 C 0.17187 0.31216 1.13039
 C281 C 0.18328 0.31669 1.12313
 C282 C 0.18783 0.32812 1.13033
 H283 H 0.16541 0.30344 1.12797
 H284 H 0.19655 0.33457 1.12786
 H285 H 0.17098 0.32906 1.16565
 H286 H 0.15948 0.34052 1.15535
 N287 N 0.14153 0.82052 0.66956
 N288 N 0.14157 0.83027 0.67886
 C289 C 0.13076 0.82841 0.68731
 C290 C 0.12353 0.81684 0.68311
 C291 C 0.13074 0.81211 0.67179
 H292 H 0.12830 0.83507 0.69581
 H293 H 0.12833 0.80327 0.66554
 Cu294 Cu 0.15564 0.84454 0.67881
 Cu295 Cu 0.15524 0.81961 0.65502
 Cu296 Cu 0.18056 0.84484 0.65498
 N297 N 0.16995 0.85856 0.67879
 N298 N 0.17971 0.85857 0.66948
 C299 C 0.18815 0.86933 0.67168
 C300 C 0.18344 0.87655 0.68299
 C301 C 0.17184 0.86936 0.68722
 H302 H 0.19700 0.87172 0.66541
 H303 H 0.16519 0.87185 0.69572
 N304 N 0.17965 0.83007 0.64117
 N305 N 0.17002 0.82048 0.64118
 C306 C 0.17203 0.81210 0.63040
 C307 C 0.18347 0.81661 0.62317
 C308 C 0.18802 0.82803 0.63037
 H309 H 0.16555 0.80340 0.62796
 H310 H 0.19674 0.83448 0.62790
 H311 H 0.17078 0.82932 0.66582
 H312 H 0.15978 0.84033 0.65458
 N313 N 0.35900 0.67876 0.66958
 N314 N 0.35739 0.67090 0.68042
 C315 C 0.36811 0.67279 0.68897
 C316 C 0.37695 0.68243 0.68321
 C317 C 0.37077 0.68596 0.67088
 H318 H 0.36926 0.66764 0.69873
 H319 H 0.37449 0.69327 0.66340
 Cu320 Cu 0.34149 0.65890 0.68233
 Cu321 Cu 0.34538 0.67964 0.65493
 Cu322 Cu 0.31691 0.65830 0.65819
 N323 N 0.32896 0.64337 0.68052
 N324 N 0.31937 0.64317 0.67103
 C325 C 0.31188 0.63160 0.67232
 C326 C 0.31707 0.62401 0.68321
 C327 C 0.32795 0.63186 0.68815
 H328 H 0.30320 0.62908 0.66585
 H329 H 0.33457 0.62954 0.69676
 N330 N 0.31933 0.67118 0.64281
 N331 N 0.33029 0.67907 0.64137
 C332 C 0.32893 0.68652 0.62981
 C333 C 0.31653 0.68312 0.62361
 C334 C 0.31075 0.67333 0.63219
 H335 H 0.33644 0.69388 0.62618
 H336 H 0.30097 0.66818 0.63088
 H337 H 0.32884 0.67411 0.66652
 H338 H 0.33793 0.65976 0.65768
 N339 N 0.36023 0.17789 1.16803
 N340 N 0.35917 0.16945 1.17850
 C341 C 0.36914 0.17236 1.18763
 C342 C 0.37698 0.18319 1.18259
 C343 C 0.37097 0.18641 1.17009
 H344 H 0.37065 0.16687 1.19714
 H345 H 0.37425 0.19416 1.16284
 Cu346 Cu 0.34542 0.15489 1.17859
 Cu347 Cu 0.34805 0.17659 1.15219
 Cu348 Cu 0.31767 0.15877 1.15862
 N349 N 0.33055 0.14150 1.17879
 N350 N 0.31965 0.14308 1.17095
 C351 C 0.31082 0.13265 1.17324
 C352 C 0.31652 0.12396 1.18301
 C353 C 0.32907 0.12996 1.18628
 H354 H 0.30095 0.13160 1.16821
 H355 H 0.33662 0.12620 1.19351
 N356 N 0.32003 0.17138 1.14295
 N357 N 0.33169 0.17782 1.14030
 C358 C 0.33024 0.18513 1.12867
 C359 C 0.31702 0.18315 1.12366
 C360 C 0.31085 0.17435 1.13303
 H361 H 0.33830 0.19130 1.12415
 H362 H 0.30049 0.17031 1.13265
 H363 H 0.33293 0.17233 1.16561
 H364 H 0.33820 0.15745 1.15476
 N365 N 0.85847 0.67956 1.16969
 N366 N 0.85846 0.66980 1.17901
 C367 C 0.86928 0.67168 1.18746
 C368 C 0.87649 0.68326 1.18322
 C369 C 0.86926 0.68798 1.17189
 H370 H 0.87175 0.66503 1.19599
 H371 H 0.87164 0.69683 1.16562
 Cu372 Cu 0.84439 0.65554 1.17899
 Cu373 Cu 0.84471 0.68050 1.15517
 Cu374 Cu 0.81945 0.65523 1.15514
 N375 N 0.83012 0.64148 1.17899
 N376 N 0.82037 0.64147 1.16966
 C377 C 0.81196 0.63068 1.17185
 C378 C 0.81667 0.62345 1.18317
 C379 C 0.82824 0.63067 1.18743
 H380 H 0.80311 0.62829 1.16557
 H381 H 0.83488 0.62820 1.19597
 N382 N 0.82030 0.67005 1.14133
 N383 N 0.82991 0.67966 1.14135
 C384 C 0.82790 0.68804 1.13053
 C385 C 0.81648 0.68351 1.12329
 C386 C 0.81194 0.67207 1.13051
 H387 H 0.83439 0.69671 1.12806
 H388 H 0.80327 0.66557 1.12800
 H389 H 0.82922 0.67070 1.16594
 H390 H 0.84023 0.65973 1.15473
 N391 N 0.85858 0.17958 0.66961
 N392 N 0.85856 0.16983 0.67895
 C393 C 0.86935 0.17174 0.68742
 C394 C 0.87656 0.18331 0.68318
 C395 C 0.86935 0.18801 0.67182
 H396 H 0.87180 0.16511 0.69597
 H397 H 0.87175 0.19684 0.66554
 Cu398 Cu 0.84453 0.15552 0.67892
 Cu399 Cu 0.84484 0.18048 0.65508
 Cu400 Cu 0.81958 0.15521 0.65507
 N401 N 0.83023 0.14147 0.67894
 N402 N 0.82048 0.14145 0.66959
 C403 C 0.81207 0.13066 0.67179
 C404 C 0.81678 0.12344 0.68315
 C405 C 0.82834 0.13068 0.68740
 H406 H 0.80324 0.12825 0.66550
 H407 H 0.83497 0.12823 0.69595
 N408 N 0.82045 0.17000 0.64125
 N409 N 0.83005 0.17961 0.64125
 C410 C 0.82803 0.18799 0.63044
 C411 C 0.81659 0.18346 0.62321
 C412 C 0.81207 0.17202 0.63043
 H413 H 0.83451 0.19668 0.62796
 H414 H 0.80339 0.16554 0.62794
 H415 H 0.82942 0.17064 0.66583
 H416 H 0.84044 0.15966 0.65462
 N417 N 0.32024 0.35836 0.66970
 N418 N 0.32956 0.35794 0.67944
 C419 C 0.32768 0.36875 0.68786
 C420 C 0.31654 0.37637 0.68317
 C421 C 0.31209 0.36940 0.67160
 H422 H 0.33401 0.37091 0.69670
 H423 H 0.30365 0.37216 0.66493
 Cu424 Cu 0.34349 0.34353 0.68012
 Cu425 Cu 0.31950 0.34475 0.65514
 Cu426 Cu 0.34471 0.31957 0.65519
 N427 N 0.35792 0.32964 0.67950
 N428 N 0.35833 0.32032 0.66978
 C429 C 0.36938 0.31218 0.67172
 C430 C 0.37636 0.31663 0.68330
 C431 C 0.36873 0.32776 0.68795
 H432 H 0.37216 0.30374 0.66509
 H433 H 0.37090 0.33409 0.69677
 N434 N 0.33005 0.32051 0.64128
 N435 N 0.32044 0.33011 0.64125
 C436 C 0.31209 0.32812 0.63042
 C437 C 0.31664 0.31671 0.62321
 C438 C 0.32806 0.31216 0.63046
 H439 H 0.30338 0.33459 0.62795
 H440 H 0.33453 0.30346 0.62802
 H441 H 0.32893 0.32897 0.66580
 H442 H 0.34042 0.34045 0.65552
 N443 N 0.32015 0.85844 0.16939
 N444 N 0.32946 0.85803 0.17915
 C445 C 0.32755 0.86883 0.18757
 C446 C 0.31641 0.87645 0.18286
 C447 C 0.31199 0.86947 0.17129
 H448 H 0.33388 0.87100 0.19641
 H449 H 0.30354 0.87222 0.16462
 Cu450 Cu 0.34341 0.84364 0.17983
 Cu451 Cu 0.31945 0.84483 0.15482
 Cu452 Cu 0.34468 0.81965 0.15493
 N453 N 0.35784 0.82974 0.17925
 N454 N 0.35827 0.82040 0.16955
 C455 C 0.36932 0.81227 0.17152
 C456 C 0.37630 0.81674 0.18309
 C457 C 0.36865 0.82788 0.18771
 H458 H 0.37209 0.80381 0.16490
 H459 H 0.37082 0.83423 0.19652
 N460 N 0.33004 0.82058 0.14098
 N461 N 0.32044 0.83019 0.14093
 C462 C 0.31212 0.82821 0.13007
 C463 C 0.31668 0.81679 0.12287
 C464 C 0.32808 0.81224 0.13016
 H465 H 0.30343 0.83468 0.12756
 H466 H 0.33455 0.80353 0.12774
 H467 H 0.32885 0.82905 0.16551
 H468 H 0.34036 0.84053 0.15524
 N469 N 0.82033 0.35874 0.16938
 N470 N 0.82980 0.35845 0.17898
 C471 C 0.82797 0.36929 0.18736
 C472 C 0.81667 0.37677 0.18283
 C473 C 0.81210 0.36971 0.17136
 H474 H 0.83442 0.37152 0.19610
 H475 H 0.80346 0.37231 0.16488
 Cu476 Cu 0.84360 0.34393 0.17987
 Cu477 Cu 0.81946 0.34501 0.15495
 Cu478 Cu 0.84463 0.31984 0.15498
 N479 N 0.85814 0.33016 0.17900
 N480 N 0.85840 0.32070 0.16941
 C481 C 0.86937 0.31247 0.17141
 C482 C 0.87647 0.31702 0.18288
 C483 C 0.86900 0.32832 0.18738
 H484 H 0.87195 0.30383 0.16495
 H485 H 0.87125 0.33475 0.19611
 N486 N 0.82985 0.32066 0.14119
 N487 N 0.82026 0.33026 0.14117
 C488 C 0.81194 0.32833 0.13030
 C489 C 0.81651 0.31695 0.12305
 C490 C 0.82789 0.31235 0.13033
 H491 H 0.80329 0.33486 0.12778
 H492 H 0.83441 0.30370 0.12785
 H493 H 0.82901 0.32938 0.16562
 H494 H 0.84049 0.34086 0.15527
 N495 N 0.82029 0.85873 0.66973
 N496 N 0.82965 0.85831 0.67943
 C497 C 0.82776 0.86908 0.68790
 C498 C 0.81659 0.87670 0.68327
 C499 C 0.81211 0.86974 0.67170
 H500 H 0.83412 0.87122 0.69673
 H501 H 0.80363 0.87251 0.66508
 Cu502 Cu 0.84364 0.84396 0.67993
 Cu503 Cu 0.81957 0.84519 0.65508
 Cu504 Cu 0.84480 0.81995 0.65508
 N505 N 0.85800 0.82998 0.67943
 N506 N 0.85839 0.82064 0.66973
 C507 C 0.86941 0.81247 0.67169
 C508 C 0.87641 0.81691 0.68326
 C509 C 0.86881 0.82807 0.68789
 H510 H 0.87215 0.80400 0.66507
 H511 H 0.87100 0.83441 0.69671
 N512 N 0.83016 0.82100 0.64113
 N513 N 0.82056 0.83061 0.64112
 C514 C 0.81218 0.82861 0.63031
 C515 C 0.81670 0.81719 0.62311
 C516 C 0.82814 0.81264 0.63033
 H517 H 0.80344 0.83505 0.62788
 H518 H 0.83456 0.80391 0.62791
 H519 H 0.82896 0.82929 0.66577
 H520 H 0.84040 0.84073 0.65540
 N521 N 0.67954 0.64169 0.66987
 N522 N 0.67021 0.64208 0.67959
 C523 C 0.67212 0.63127 0.68804
 C524 C 0.68327 0.62366 0.68338
 C525 C 0.68770 0.63066 0.67180
 H526 H 0.66580 0.62909 0.69687
 H527 H 0.69617 0.62792 0.66517
 Cu528 Cu 0.65629 0.65649 0.68023
 Cu529 Cu 0.68026 0.65533 0.65529
 Cu530 Cu 0.65506 0.68055 0.65531
 N531 N 0.64189 0.67043 0.67964
 N532 N 0.64147 0.67978 0.66993
 C533 C 0.63045 0.68795 0.67190
 C534 C 0.62350 0.68349 0.68349
 C535 C 0.63112 0.67233 0.68812
 H536 H 0.62769 0.69643 0.66528
 H537 H 0.62898 0.66599 0.69696
 N538 N 0.66971 0.67961 0.64139
 N539 N 0.67931 0.67001 0.64139
 C540 C 0.68766 0.67200 0.63056
 C541 C 0.68311 0.68343 0.62333
 C542 C 0.67169 0.68797 0.63055
 H543 H 0.69636 0.66553 0.62811
 H544 H 0.66523 0.69667 0.62809
 H545 H 0.67085 0.67113 0.66595
 H546 H 0.65935 0.65969 0.65564
 N547 N 0.67964 0.14143 0.16967
 N548 N 0.67029 0.14182 0.17938
 C549 C 0.67219 0.13101 0.18784
 C550 C 0.68335 0.12341 0.18320
 C551 C 0.68780 0.13040 0.17163
 H552 H 0.66585 0.12884 0.19666
 H553 H 0.69627 0.12766 0.16501
 Cu554 Cu 0.65636 0.15622 0.17997
 Cu555 Cu 0.68038 0.15504 0.15507
 Cu556 Cu 0.65518 0.18027 0.15506
 N557 N 0.64199 0.17019 0.17939
 N558 N 0.64158 0.17954 0.16967
 C559 C 0.63057 0.18771 0.17163
 C560 C 0.62359 0.18325 0.18320
 C561 C 0.63120 0.17208 0.18784
 H562 H 0.62781 0.19618 0.16499
 H563 H 0.62903 0.16573 0.19667
 N564 N 0.66982 0.17931 0.14113
 N565 N 0.67942 0.16971 0.14114
 C566 C 0.68778 0.17171 0.13033
 C567 C 0.68325 0.18315 0.12310
 C568 C 0.67182 0.18768 0.13031
 H569 H 0.69650 0.16526 0.12789
 H570 H 0.66536 0.19639 0.12785
 H571 H 0.67098 0.17082 0.16571
 H572 H 0.65949 0.15938 0.15539
 N573 N 0.17949 0.64160 0.16946
 N574 N 0.16987 0.64173 0.17891
 C575 C 0.17176 0.63092 0.18736
 C576 C 0.18320 0.62357 0.18298
 C577 C 0.18782 0.63073 0.17157
 H578 H 0.16522 0.62854 0.19598
 H579 H 0.19653 0.62821 0.16517
 Cu580 Cu 0.15565 0.65586 0.17903
 Cu581 Cu 0.18033 0.65532 0.15492
 Cu582 Cu 0.15508 0.68060 0.15494
 N583 N 0.14153 0.67008 0.17893
 N584 N 0.14139 0.67972 0.16949
 C585 C 0.13053 0.68806 0.17162
 C586 C 0.12339 0.68341 0.18303
 C587 C 0.13074 0.67196 0.18739
 H588 H 0.12800 0.69679 0.16523
 H589 H 0.12838 0.66540 0.19601
 N590 N 0.16982 0.67971 0.14110
 N591 N 0.17943 0.67010 0.14109
 C592 C 0.18781 0.67214 0.13030
 C593 C 0.18329 0.68360 0.12310
 C594 C 0.17185 0.68812 0.13031
 H595 H 0.19651 0.66568 0.12783
 H596 H 0.16539 0.69683 0.12786
 H597 H 0.17064 0.67086 0.16565
 H598 H 0.15949 0.65978 0.15465
 N599 N 0.17939 0.14111 0.66969
 N600 N 0.16967 0.14114 0.67903
 C601 C 0.17157 0.13034 0.68749
 C602 C 0.18313 0.12311 0.68323
 C603 C 0.18780 0.13032 0.67188
 H604 H 0.16497 0.12789 0.69605
 H605 H 0.19660 0.12789 0.66556
 Cu606 Cu 0.15535 0.15516 0.67899
 Cu607 Cu 0.18030 0.15487 0.65518
 Cu608 Cu 0.15505 0.18015 0.65519
 N609 N 0.14131 0.16946 0.67900
 N610 N 0.14129 0.17922 0.66967
 C611 C 0.13050 0.18762 0.67186
 C612 C 0.12328 0.18290 0.68318
 C613 C 0.13050 0.17133 0.68743
 H614 H 0.12809 0.19646 0.66556
 H615 H 0.12805 0.16469 0.69597
 N616 N 0.16985 0.17931 0.64140
 N617 N 0.17943 0.16968 0.64138
 C618 C 0.18781 0.17171 0.63059
 C619 C 0.18331 0.18319 0.62340
 C620 C 0.17189 0.18772 0.63062
 H621 H 0.19648 0.16522 0.62810
 H622 H 0.16544 0.19644 0.62817
 H623 H 0.17050 0.17027 0.66595
 H624 H 0.15947 0.15931 0.65470
 N625 N 0.32024 0.64143 0.33038
 N626 N 0.32999 0.64147 0.32107
 C627 C 0.32813 0.63067 0.31263
 C628 C 0.31657 0.62343 0.31688
 C629 C 0.31184 0.63064 0.32819
 H630 H 0.33478 0.62822 0.30412
 H631 H 0.30300 0.62822 0.33447
 Cu632 Cu 0.34428 0.65552 0.32108
 Cu633 Cu 0.31930 0.65518 0.34486
 Cu634 Cu 0.34457 0.68045 0.34486
 N635 N 0.35831 0.66981 0.32106
 N636 N 0.35833 0.67955 0.33038
 C637 C 0.36912 0.68796 0.32819
 C638 C 0.37634 0.68326 0.31687
 C639 C 0.36912 0.67170 0.31262
 H640 H 0.37153 0.69678 0.33447
 H641 H 0.37158 0.66508 0.30410
 N642 N 0.32976 0.67957 0.35864
 N643 N 0.32016 0.66997 0.35864
 C644 C 0.31179 0.67196 0.36944
 C645 C 0.31633 0.68337 0.37666
 C646 C 0.32775 0.68792 0.36945
 H647 H 0.30311 0.66546 0.37193
 H648 H 0.33425 0.69659 0.37194
 H649 H 0.32912 0.67061 0.33409
 H650 H 0.34012 0.65962 0.34536
 N651 N 0.32029 0.14144 0.83054
 N652 N 0.32993 0.14160 0.82109
 C653 C 0.32808 0.13078 0.81268
 C654 C 0.31666 0.12341 0.81706
 C655 C 0.31200 0.13056 0.82844
 H656 H 0.33466 0.12841 0.80409
 H657 H 0.30329 0.12801 0.83484
 Cu658 Cu 0.34411 0.15575 0.82098
 Cu659 Cu 0.31943 0.15511 0.84508
 Cu660 Cu 0.34467 0.18039 0.84507
 N661 N 0.35820 0.16999 0.82106
 N662 N 0.35835 0.17960 0.83051
 C663 C 0.36921 0.18792 0.82839
 C664 C 0.37635 0.18331 0.81698
 C665 C 0.36900 0.17188 0.81261
 H666 H 0.37175 0.19662 0.83480
 H667 H 0.37137 0.16534 0.80400
 N668 N 0.32994 0.17944 0.85892
 N669 N 0.32033 0.16984 0.85891
 C670 C 0.31193 0.17185 0.86969
 C671 C 0.31645 0.18327 0.87691
 C672 C 0.32791 0.18780 0.86972
 H673 H 0.30323 0.16537 0.87214
 H674 H 0.33438 0.19649 0.87221
 H675 H 0.32909 0.17069 0.83437
 H676 H 0.34024 0.15957 0.84535
 N677 N 0.82034 0.64142 0.83047
 N678 N 0.82965 0.64188 0.82073
 C679 C 0.82776 0.63111 0.81226
 C680 C 0.81665 0.62345 0.81693
 C681 C 0.81221 0.63038 0.82853
 H682 H 0.83406 0.62902 0.80340
 H683 H 0.80377 0.62758 0.83517
 Cu684 Cu 0.84355 0.65631 0.82009
 Cu685 Cu 0.81954 0.65504 0.84501
 Cu686 Cu 0.84472 0.68027 0.84503
 N687 N 0.85796 0.67022 0.82077
 N688 N 0.85837 0.67952 0.83050
 C689 C 0.86940 0.68769 0.82857
 C690 C 0.87636 0.68329 0.81698
 C691 C 0.86874 0.67215 0.81231
 H692 H 0.87215 0.69614 0.83521
 H693 H 0.87087 0.66587 0.80345
 N694 N 0.83003 0.67932 0.85889
 N695 N 0.82044 0.66970 0.85889
 C696 C 0.81207 0.67169 0.86970
 C697 C 0.81657 0.68313 0.87691
 C698 C 0.82800 0.68768 0.86969
 H699 H 0.80338 0.66520 0.87217
 H700 H 0.83446 0.69638 0.87215
 H701 H 0.82901 0.67077 0.83445
 H702 H 0.84052 0.65929 0.84475
 N703 N 0.82030 0.14144 0.33046
 N704 N 0.82962 0.14189 0.32073
 C705 C 0.82777 0.13109 0.31230
 C706 C 0.81664 0.12344 0.31696
 C707 C 0.81218 0.13039 0.32853
 H708 H 0.83410 0.12896 0.30347
 H709 H 0.80372 0.12760 0.33516
 Cu710 Cu 0.84349 0.15635 0.32006
 Cu711 Cu 0.81951 0.15504 0.34502
 Cu712 Cu 0.84467 0.18029 0.34499
 N713 N 0.85788 0.17029 0.32069
 N714 N 0.85829 0.17961 0.33041
 C715 C 0.86933 0.18777 0.32847
 C716 C 0.87631 0.18333 0.31690
 C717 C 0.86868 0.17219 0.31225
 H718 H 0.87209 0.19622 0.33510
 H719 H 0.87084 0.16586 0.30343
 N720 N 0.83002 0.17931 0.35891
 N721 N 0.82043 0.16969 0.35891
 C722 C 0.81206 0.17167 0.36971
 C723 C 0.81658 0.18310 0.37693
 C724 C 0.82800 0.18766 0.36972
 H725 H 0.80336 0.16520 0.37216
 H726 H 0.83445 0.19637 0.37216
 H727 H 0.82883 0.17083 0.33436
 H728 H 0.84036 0.15936 0.34465
 N729 N 0.67860 0.35876 0.33053
 N730 N 0.67078 0.35712 0.31967
 C731 C 0.67264 0.36785 0.31112
 C732 C 0.68221 0.37672 0.31692
 C733 C 0.68574 0.37056 0.32926
 H734 H 0.66752 0.36898 0.30135
 H735 H 0.69301 0.37432 0.33676
 Cu736 Cu 0.65885 0.34120 0.31772
 Cu737 Cu 0.67949 0.34516 0.34517
 Cu738 Cu 0.65827 0.31663 0.34186
 N739 N 0.64336 0.32861 0.31950
 N740 N 0.64318 0.31903 0.32899
 C741 C 0.63161 0.31153 0.32770
 C742 C 0.62401 0.31671 0.31680
 C743 C 0.63185 0.32760 0.31186
 H744 H 0.62908 0.30286 0.33417
 H745 H 0.62952 0.33423 0.30327
 N746 N 0.67111 0.31909 0.35725
 N747 N 0.67896 0.33007 0.35871
 C748 C 0.68639 0.32875 0.37028
 C749 C 0.68303 0.31634 0.37647
 C750 C 0.67327 0.31052 0.36788
 H751 H 0.69370 0.33628 0.37393
 H752 H 0.66816 0.30072 0.36918
 H753 H 0.67407 0.32861 0.33356
 H754 H 0.65964 0.33763 0.34236
 N755 N 0.67851 0.85882 0.83052
 N756 N 0.67072 0.85717 0.81964
 C757 C 0.67261 0.86789 0.81109
 C758 C 0.68216 0.87677 0.81691
 C759 C 0.68565 0.87063 0.82927
 H760 H 0.66751 0.86902 0.80131
 H761 H 0.69289 0.87439 0.83679
 Cu762 Cu 0.65880 0.84124 0.81769
 Cu763 Cu 0.67938 0.84524 0.84518
 Cu764 Cu 0.65807 0.81676 0.84190
 N765 N 0.64329 0.82867 0.81939
 N766 N 0.64303 0.81912 0.82891
 C767 C 0.63143 0.81166 0.82761
 C768 C 0.62388 0.81685 0.81667
 C769 C 0.63181 0.82768 0.81172
 H770 H 0.62883 0.80304 0.83410
 H771 H 0.62952 0.83431 0.80312
 N772 N 0.67092 0.81922 0.85731
 N773 N 0.67880 0.83018 0.85873
 C774 C 0.68624 0.82887 0.87031
 C775 C 0.68286 0.81649 0.87653
 C776 C 0.67307 0.81067 0.86796
 H777 H 0.69359 0.83639 0.87392
 H778 H 0.66794 0.80089 0.86929
 H779 H 0.67397 0.82865 0.83360
 H780 H 0.65954 0.83776 0.84233
 N781 N 0.17987 0.35880 0.83054
 N782 N 0.17010 0.35877 0.82122
 C783 C 0.17196 0.36959 0.81277
 C784 C 0.18353 0.37682 0.81700
 C785 C 0.18826 0.36960 0.82834
 H786 H 0.16529 0.37205 0.80426
 H787 H 0.19709 0.37203 0.83463
 Cu788 Cu 0.15581 0.34472 0.82124
 Cu789 Cu 0.18078 0.34503 0.84507
 Cu790 Cu 0.15547 0.31978 0.84509
 N791 N 0.14174 0.33044 0.82123
 N792 N 0.14172 0.32070 0.83058
 C793 C 0.13091 0.31230 0.82840
 C794 C 0.12369 0.31701 0.81706
 C795 C 0.13092 0.32857 0.81279
 H796 H 0.12849 0.30349 0.83471
 H797 H 0.12845 0.33521 0.80426
 N798 N 0.17028 0.32063 0.85890
 N799 N 0.17991 0.33022 0.85889
 C800 C 0.18831 0.32815 0.86969
 C801 C 0.18375 0.31672 0.87691
 C802 C 0.17231 0.31222 0.86969
 H803 H 0.19703 0.33458 0.87215
 H804 H 0.16583 0.30353 0.87214
 H805 H 0.17097 0.32956 0.83430
 H806 H 0.15998 0.34056 0.84551
 N807 N 0.17970 0.85878 0.33054
 N808 N 0.16994 0.85877 0.32121
 C809 C 0.17182 0.86958 0.31276
 C810 C 0.18339 0.87679 0.31701
 C811 C 0.18811 0.86957 0.32835
 H812 H 0.16519 0.87204 0.30422
 H813 H 0.19694 0.87197 0.33464
 Cu814 Cu 0.15565 0.84473 0.32122
 Cu815 Cu 0.18064 0.84500 0.34503
 Cu816 Cu 0.15531 0.81979 0.34504
 N817 N 0.14158 0.83047 0.32120
 N818 N 0.14154 0.82074 0.33055
 C819 C 0.13074 0.81234 0.32835
 C820 C 0.12355 0.81703 0.31699
 C821 C 0.13079 0.82858 0.31272
 H822 H 0.12831 0.80352 0.33466
 H823 H 0.12837 0.83519 0.30415
 N824 N 0.17014 0.82061 0.35883
 N825 N 0.17978 0.83018 0.35882
 C826 C 0.18819 0.82811 0.36959
 C827 C 0.18364 0.81668 0.37681
 C828 C 0.17217 0.81220 0.36962
 H829 H 0.19691 0.83455 0.37205
 H830 H 0.16566 0.80354 0.37211
 H831 H 0.17078 0.82962 0.33429
 H832 H 0.15981 0.84063 0.34552
 O833 O 0.24851 1.01363 0.26679
 O834 O 0.26739 0.98672 0.24806
 O835 O 0.26733 1.01364 0.24796
 O836 O 0.24857 0.98672 0.26687
 O837 O 0.23243 0.98667 0.25095
 O838 O 0.25119 1.01357 0.23204
 O839 O 0.25125 0.98665 0.23214
 O840 O 0.23238 1.01359 0.25087
 Cu841 Cu 0.25957 1.00019 0.25901
 Cu842 Cu 0.24020 1.00012 0.23990
 C843 C 0.23730 1.01834 0.26196
 C844 C 0.26246 0.98195 0.23697
 C845 C 0.26239 1.01834 0.23684
 C846 C 0.23737 0.98197 0.26206
 O847 O 0.24884 0.51373 0.76694
 O848 O 0.26774 0.48677 0.74828
 O849 O 0.26784 0.51367 0.74826
 O850 O 0.24882 0.48680 0.76699
 O851 O 0.23279 0.48682 0.75096
 O852 O 0.25182 0.51373 0.73222
 O853 O 0.25172 0.48681 0.73225
 O854 O 0.23282 0.51377 0.75091
 Cu855 Cu 0.25991 0.50025 0.75923
 Cu856 Cu 0.24068 0.50030 0.73998
 C857 C 0.23767 0.51848 0.76204
 C858 C 0.26288 0.48205 0.73715
 C859 C 0.26303 0.51840 0.73710
 C860 C 0.23765 0.48207 0.76209
 O861 O 0.73271 0.01328 0.24881
 O862 O 0.75173 -0.01366 0.26748
 O863 O 0.75174 0.01326 0.26746
 O864 O 0.73276 -0.01364 0.24879
 O865 O 0.74875 -0.01360 0.23275
 O866 O 0.76773 0.01329 0.25142
 O867 O 0.76772 -0.01363 0.25145
 O868 O 0.74870 0.01332 0.23277
 Cu869 Cu 0.74063 -0.00019 0.25974
 Cu870 Cu 0.75982 -0.00015 0.24049
 C871 C 0.73753 0.01803 0.23767
 C872 C 0.76289 -0.01838 0.26259
 C873 C 0.76290 0.01800 0.26256
 C874 C 0.73760 -0.01835 0.23765
 O875 O 0.75154 0.48641 0.76744
 O876 O 0.73257 0.51340 0.74878
 O877 O 0.73257 0.48648 0.74875
 O878 O 0.75159 0.51333 0.76745
 O879 O 0.76758 0.51337 0.75141
 O880 O 0.74856 0.48653 0.73270
 O881 O 0.74856 0.51344 0.73274
 O882 O 0.76752 0.48645 0.75140
 Cu883 Cu 0.74047 0.49991 0.75971
 Cu884 Cu 0.75965 0.49995 0.74046
 C885 C 0.76269 0.48168 0.76252
 C886 C 0.73739 0.51815 0.73765
 C887 C 0.73740 0.48178 0.73760
 C888 C 0.76276 0.51807 0.76255
 O889 O 0.25147 0.48645 0.26727
 O890 O 0.23249 0.51342 0.24859
 O891 O 0.23247 0.48650 0.24859
 O892 O 0.25146 0.51337 0.26728
 O893 O 0.26745 0.51341 0.25125
 O894 O 0.24847 0.48653 0.23256
 O895 O 0.24848 0.51344 0.23256
 O896 O 0.26747 0.48648 0.25124
 Cu897 Cu 0.24037 0.49993 0.25954
 Cu898 Cu 0.25957 0.49996 0.24029
 C899 C 0.26264 0.48174 0.26238
 C900 C 0.23732 0.51817 0.23746
 C901 C 0.23730 0.48179 0.23745
 C902 C 0.26261 0.51812 0.26238
 O903 O 0.75126 1.01350 0.73282
 O904 O 0.73212 0.98659 0.75135
 O905 O 0.73230 1.01352 0.75150
 O906 O 0.75125 0.98658 0.73283
 O907 O 0.76719 0.98650 0.74893
 O908 O 0.74824 1.01338 0.76760
 O909 O 0.74807 0.98645 0.76746
 O910 O 0.76720 1.01342 0.74893
 Cu911 Cu 0.74014 1.00006 0.74051
 Cu912 Cu 0.75927 0.99992 0.75984
 C913 C 0.76241 1.01820 0.73778
 C914 C 0.73689 0.98179 0.76250
 C915 C 0.73711 1.01819 0.76267
 C916 C 0.76239 0.98182 0.73776
 O917 O 0.74832 0.51324 0.26752
 O918 O 0.76738 0.48649 0.24874
 O919 O 0.76726 0.51339 0.24885
 O920 O 0.74823 0.48629 0.26731
 O921 O 0.73228 0.48644 0.25121
 O922 O 0.75130 0.51347 0.23276
 O923 O 0.75141 0.48660 0.23266
 O924 O 0.73237 0.51338 0.25143
 Cu925 Cu 0.75939 0.49983 0.25973
 Cu926 Cu 0.74024 0.49997 0.24041
 C927 C 0.73719 0.51804 0.26260
 C928 C 0.76260 0.48187 0.23754
 C929 C 0.76245 0.51818 0.23771
 C930 C 0.73706 0.48162 0.26234
 O931 O 0.26778 0.01324 0.75154
 O932 O 0.24889 -0.01371 0.73286
 O933 O 0.24879 0.01319 0.73286
 O934 O 0.26791 -0.01369 0.75151
 O935 O 0.25194 -0.01379 0.76756
 O936 O 0.23282 0.01311 0.74891
 O937 O 0.23291 -0.01380 0.74891
 O938 O 0.25181 0.01314 0.76760
 Cu939 Cu 0.25995 -0.00023 0.74059
 Cu940 Cu 0.24077 -0.00035 0.75986
 C941 C 0.26294 0.01793 0.76268
 C942 C 0.23774 -0.01848 0.73776
 C943 C 0.23761 0.01787 0.73777
 C944 C 0.26311 -0.01847 0.76264
 O945 O 0.24883 0.26711 0.98685
 O946 O 0.26759 0.24816 1.01372
 O947 O 0.26762 0.24816 0.98692
 O948 O 0.24875 0.26708 1.01366
 O949 O 0.23263 0.25108 1.01362
 O950 O 0.25148 0.23216 0.98690
 O951 O 0.25146 0.23217 1.01369
 O952 O 0.23270 0.25111 0.98682
 Cu953 Cu 0.25981 0.25923 1.00029
 Cu954 Cu 0.24045 0.24003 1.00026
 C955 C 0.23765 0.26226 0.98210
 C956 C 0.26264 0.23701 1.01844
 C957 C 0.26268 0.23701 0.98220
 C958 C 0.23755 0.26222 1.01835
 O959 O 0.24873 0.76719 0.48675
 O960 O 0.26754 0.74813 0.51351
 O961 O 0.26753 0.74826 0.48672
 O962 O 0.24875 0.76711 0.51355
 O963 O 0.23261 0.75113 0.51351
 O964 O 0.25138 0.73228 0.48668
 O965 O 0.25140 0.73215 0.51346
 O966 O 0.23259 0.75121 0.48672
 Cu967 Cu 0.25975 0.75928 0.50014
 Cu968 Cu 0.24038 0.74009 0.50009
 C969 C 0.23753 0.76236 0.48202
 C970 C 0.26260 0.73696 0.51819
 C971 C 0.26258 0.73714 0.48197
 C972 C 0.23755 0.76226 0.51825
 O973 O 0.26731 0.75148 -0.01370
 O974 O 0.24846 0.73271 0.01317
 O975 O 0.24836 0.73267 -0.01360
 O976 O 0.26738 0.75152 0.01310
 O977 O 0.25136 0.76763 0.01307
 O978 O 0.23234 0.74878 -0.01361
 O979 O 0.23244 0.74882 0.01316
 O980 O 0.25129 0.76758 -0.01373
 Cu981 Cu 0.25949 0.74049 -0.00026
 Cu982 Cu 0.24026 0.75982 -0.00028
 C983 C 0.26244 0.76266 -0.01845
 C984 C 0.23730 0.73764 0.01789
 C985 C 0.23717 0.73758 -0.01830
 C986 C 0.26253 0.76271 0.01779
 O987 O 0.26742 0.25129 0.48673
 O988 O 0.24858 0.23242 0.51355
 O989 O 0.24859 0.23239 0.48676
 O990 O 0.26742 0.25132 0.51352
 O991 O 0.25132 0.26734 0.51346
 O992 O 0.23249 0.24842 0.48670
 O993 O 0.23248 0.24845 0.51349
 O994 O 0.25132 0.26732 0.48667
 Cu995 Cu 0.25962 0.24025 0.50015
 Cu996 Cu 0.24029 0.25949 0.50008
 C997 C 0.26250 0.26244 0.48197
 C998 C 0.23739 0.23729 0.51824
 C999 C 0.23741 0.23726 0.48201
 C1000 C 0.26251 0.26248 0.51821
 O1001 O 0.74814 0.76746 0.98642
 O1002 O 0.76723 0.74861 1.01313
 O1003 O 0.76708 0.74864 0.98633
 O1004 O 0.74833 0.76745 1.01321
 O1005 O 0.73230 0.75136 1.01331
 O1006 O 0.75104 0.73256 0.98641
 O1007 O 0.75120 0.73251 1.01321
 O1008 O 0.73210 0.75137 0.98652
 Cu1009 Cu 0.75930 0.75965 0.99976
 Cu1010 Cu 0.74005 0.74034 0.99987
 C1011 C 0.73694 0.76256 0.98177
 C1012 C 0.76239 0.73743 1.01788
 C1013 C 0.76219 0.73747 0.98164
 C1014 C 0.73720 0.76253 1.01800
 O1015 O 0.75103 0.23251 0.48644
 O1016 O 0.73228 0.25130 0.51333
 O1017 O 0.73208 0.25132 0.48655
 O1018 O 0.75117 0.23245 0.51323
 O1019 O 0.76721 0.24854 0.51315
 O1020 O 0.74812 0.26740 0.48646
 O1021 O 0.74832 0.26738 0.51323
 O1022 O 0.76707 0.24860 0.48636
 Cu1023 Cu 0.74004 0.24028 0.49989
 Cu1024 Cu 0.75929 0.25959 0.49979
 C1025 C 0.76217 0.23743 0.48166
 C1026 C 0.73718 0.26247 0.51801
 C1027 C 0.73692 0.26250 0.48181
 C1028 C 0.76236 0.23735 0.51790
 O1029 O 0.76743 0.25150 -0.01343
 O1030 O 0.74858 0.23252 0.01332
 O1031 O 0.74866 0.23252 -0.01347
 O1032 O 0.76735 0.25145 0.01338
 O1033 O 0.75120 0.26743 0.01331
 O1034 O 0.73250 0.24849 -0.01355
 O1035 O 0.73242 0.24849 0.01323
 O1036 O 0.75127 0.26747 -0.01350
 Cu1037 Cu 0.75962 0.24040 -0.00005
 Cu1038 Cu 0.74023 0.25957 -0.00014
 C1039 C 0.76248 0.26264 -0.01818
 C1040 C 0.73737 0.23736 0.01799
 C1041 C 0.73747 0.23734 -0.01824
 C1042 C 0.76238 0.26258 0.01810
 O1043 O 0.73250 0.74870 0.48671
 O1044 O 0.75131 0.76768 0.51345
 O1045 O 0.75133 0.76759 0.48667
 O1046 O 0.73248 0.74874 0.51350
 O1047 O 0.74859 0.73273 0.51359
 O1048 O 0.76744 0.75157 0.48675
 O1049 O 0.76742 0.75166 0.51352
 O1050 O 0.74861 0.73268 0.48679
 Cu1051 Cu 0.74029 0.75978 0.50008
 Cu1052 Cu 0.75963 0.74056 0.50018
 C1053 C 0.73743 0.73754 0.48203
 C1054 C 0.76250 0.76283 0.51819
 C1055 C 0.76252 0.76272 0.48198
 C1056 C 0.73740 0.73760 0.51827
 O1057 O 1.01344 0.26752 0.24870
 O1058 O 0.98644 0.24855 0.26731
 O1059 O 1.01338 0.24851 0.26736
 O1060 O 0.98652 0.26763 0.24867
 O1061 O 0.98650 0.25168 0.23261
 O1062 O 1.01336 0.23257 0.25129
 O1063 O 0.98642 0.23261 0.25125
 O1064 O 1.01340 0.25158 0.23264
 Cu1065 Cu 0.99994 0.25964 0.25963
 Cu1066 Cu 0.99991 0.24051 0.24034
 C1067 C 1.01816 0.26271 0.23756
 C1068 C 0.98169 0.23741 0.26239
 C1069 C 1.01810 0.23736 0.26244
 C1070 C 0.98181 0.26285 0.23750
 O1071 O 0.51359 0.26728 0.74881
 O1072 O 0.48659 0.24838 0.76746
 O1073 O 0.51353 0.24825 0.76744
 O1074 O 0.48665 0.26737 0.74878
 O1075 O 0.48660 0.25144 0.73271
 O1076 O 0.51346 0.23231 0.75138
 O1077 O 0.48651 0.23245 0.75139
 O1078 O 0.51353 0.25134 0.73275
 Cu1079 Cu 0.50010 0.25942 0.75973
 Cu1080 Cu 0.50001 0.24029 0.74045
 C1081 C 0.51830 0.26247 0.73767
 C1082 C 0.48181 0.23726 0.76253
 C1083 C 0.51822 0.23709 0.76252
 C1084 C 0.48190 0.26260 0.73762
 O1085 O -0.01339 0.26764 0.75138
 O1086 O 0.01357 0.24862 0.73281
 O1087 O -0.01337 0.24865 0.73276
 O1088 O 0.01358 0.26765 0.75140
 O1089 O 0.01356 0.25170 0.76750
 O1090 O -0.01339 0.23271 0.74887
 O1091 O 0.01354 0.23268 0.74891
 O1092 O -0.01339 0.25170 0.76748
 Cu1093 Cu 0.00010 0.25974 0.74048
 Cu1094 Cu 0.00008 0.24060 0.75981
 C1095 C -0.01814 0.26283 0.76252
 C1096 C 0.01828 0.23747 0.73776
 C1097 C -0.01811 0.23751 0.73771
 C1098 C 0.01831 0.26284 0.76256
 O1099 O 0.48671 0.23290 0.24871
 O1100 O 0.51373 0.25166 0.26753
 O1101 O 0.48681 0.25167 0.26752
 O1102 O 0.51367 0.23268 0.24883
 O1103 O 0.51377 0.24875 0.23285
 O1104 O 0.48686 0.26773 0.25154
 O1105 O 0.51379 0.26773 0.25154
 O1106 O 0.48681 0.24897 0.23272
 Cu1107 Cu 0.50024 0.24062 0.25974
 Cu1108 Cu 0.50033 0.25990 0.24056
 C1109 C 0.48199 0.23783 0.23759
 C1110 C 0.51847 0.26286 0.26269
 C1111 C 0.48210 0.26286 0.26265
 C1112 C 0.51843 0.23753 0.23771
 O1113 O 0.98652 0.74859 0.76766
 O1114 O 1.01347 0.76760 0.74902
 O1115 O 0.98651 0.76758 0.74899
 O1116 O 1.01345 0.74868 0.76777
 O1117 O 1.01352 0.73269 0.75177
 O1118 O 0.98654 0.75158 0.73299
 O1119 O 1.01349 0.75161 0.73301
 O1120 O 0.98658 0.73259 0.75166
 Cu1121 Cu 0.99998 0.75972 0.75996
 Cu1122 Cu 1.00004 0.74052 0.74075
 C1123 C 0.98182 0.73741 0.76277
 C1124 C 1.01822 0.76277 0.73790
 C1125 C 0.98179 0.76274 0.73785
 C1126 C 1.01821 0.73753 0.76291
 O1127 O 0.48650 0.75156 0.23265
 O1128 O 0.51341 0.73251 0.25135
 O1129 O 0.48646 0.73256 0.25132
 O1130 O 0.51344 0.75151 0.23269
 O1131 O 0.51347 0.76746 0.24874
 O1132 O 0.48649 0.74851 0.26737
 O1133 O 0.51343 0.74846 0.26740
 O1134 O 0.48652 0.76751 0.24870
 Cu1135 Cu 0.49995 0.74044 0.24040
 Cu1136 Cu 0.49998 0.75958 0.25966
 C1137 C 0.48179 0.76271 0.23756
 C1138 C 0.51815 0.73731 0.26250
 C1139 C 0.48173 0.73738 0.26245
 C1140 C 0.51819 0.76265 0.23760
 O1141 O 0.01346 0.75174 0.26745
 O1142 O -0.01346 0.73274 0.24880
 O1143 O 0.01348 0.73278 0.24879
 O1144 O -0.01348 0.75172 0.26743
 O1145 O -0.01351 0.76770 0.25136
 O1146 O 0.01344 0.74876 0.23272
 O1147 O -0.01349 0.74872 0.23273
 O1148 O 0.01343 0.76772 0.25137
 Cu1149 Cu 0.00000 0.74065 0.25973
 Cu1150 Cu -0.00003 0.75983 0.24044
 C1151 C 0.01818 0.76290 0.26252
 C1152 C -0.01821 0.73756 0.23765
 C1153 C 0.01820 0.73761 0.23765
 C1154 C -0.01823 0.76287 0.26250
 O1155 O 0.51344 0.75187 0.76780
 O1156 O 0.48654 0.73268 0.74922
 O1157 O 0.51351 0.73278 0.74922
 O1158 O 0.48651 0.75174 0.76778
 O1159 O 0.48644 0.76766 0.75164
 O1160 O 0.51342 0.74869 0.73308
 O1161 O 0.48645 0.74858 0.73309
 O1162 O 0.51337 0.76777 0.75166
 Cu1163 Cu 0.50001 0.74068 0.76012
 Cu1164 Cu 0.49992 0.75976 0.74075
 C1165 C 0.51811 0.76304 0.76286
 C1166 C 0.48177 0.73743 0.73806
 C1167 C 0.51820 0.73757 0.73804
 C1168 C 0.48173 0.76287 0.76281
 C1169 C 0.41362 0.29973 0.29956
 C1170 C 0.40758 0.29349 0.31099
 C1171 C 0.39552 0.29892 0.31662
 C1172 C 0.38929 0.31071 0.31090
 C1173 C 0.39552 0.31692 0.29942
 C1174 C 0.40758 0.31146 0.29381
 C1175 C 0.42588 0.29394 0.29361
 C1176 C 0.43605 0.28895 0.28857
 C1177 C 0.44805 0.28281 0.28244
 C1178 C 0.45378 0.27089 0.28813
 C1179 C 0.46506 0.26455 0.28186
 C1180 C 0.47073 0.27006 0.26977
 C1181 C 0.46502 0.28217 0.26425
 C1182 C 0.45374 0.28850 0.27055
 H1183 H 0.41216 0.28438 0.31551
 H1184 H 0.39110 0.29380 0.32542
 H1185 H 0.39114 0.32600 0.29472
 H1186 H 0.41218 0.31637 0.28495
 H1187 H 0.44943 0.26639 0.29732
 H1188 H 0.46919 0.25522 0.28635
 H1189 H 0.46911 0.28665 0.25494
 H1190 H 0.44936 0.29771 0.26605
 C1191 C 0.41333 0.80000 0.79958
 C1192 C 0.40698 0.81135 0.79344
 C1193 C 0.39495 0.81689 0.79906
 C1194 C 0.38902 0.81114 0.81098
 C1195 C 0.39561 0.79968 0.81704
 C1196 C 0.40763 0.79419 0.81138
 C1197 C 0.42556 0.79415 0.79364
 C1198 C 0.43571 0.78911 0.78860
 C1199 C 0.44768 0.78293 0.78250
 C1200 C 0.45337 0.78854 0.77058
 C1201 C 0.46465 0.78218 0.76431
 C1202 C 0.47036 0.77009 0.76990
 C1203 C 0.46469 0.76465 0.78201
 C1204 C 0.45342 0.77103 0.78825
 H1205 H 0.41130 0.81591 0.78427
 H1206 H 0.39039 0.82564 0.79394
 H1207 H 0.39158 0.79483 0.82616
 H1208 H 0.41247 0.78537 0.81620
 H1209 H 0.44899 0.79773 0.76602
 H1210 H 0.46875 0.78662 0.75499
 H1211 H 0.46882 0.75535 0.78656
 H1212 H 0.44907 0.76658 0.79747
 C1213 C -0.08661 0.29991 0.79928
 C1214 C -0.09273 0.31152 0.79338
 C1215 C -0.10476 0.31706 0.79901
 C1216 C -0.11086 0.31104 0.81066
 C1217 C -0.10456 0.29936 0.81652
 C1218 C -0.09254 0.29385 0.81086
 C1219 C -0.07439 0.29405 0.79332
 C1220 C -0.06424 0.28903 0.78827
 C1221 C -0.05227 0.28284 0.78215
 C1222 C -0.04661 0.28843 0.77019
 C1223 C -0.03532 0.28208 0.76394
 C1224 C -0.02955 0.27004 0.76957
 C1225 C -0.03521 0.26461 0.78170
 C1226 C -0.04650 0.27098 0.78793
 H1227 H -0.08823 0.31628 0.78439
 H1228 H -0.10922 0.32602 0.79417
 H1229 H -0.10886 0.29439 0.82545
 H1230 H -0.08789 0.28483 0.81551
 H1231 H -0.05103 0.29758 0.76561
 H1232 H -0.03124 0.28649 0.75459
 H1233 H -0.03106 0.25533 0.78627
 H1234 H -0.05083 0.26655 0.79716
 C1235 C -0.08665 0.79986 0.29942
 C1236 C -0.09289 0.81137 0.29343
 C1237 C -0.10494 0.81686 0.29905
 C1238 C -0.11096 0.81089 0.31077
 C1239 C -0.10454 0.79932 0.31671
 C1240 C -0.09249 0.79387 0.31107
 C1241 C -0.07442 0.79404 0.29346
 C1242 C -0.06426 0.78903 0.28840
 C1243 C -0.05229 0.78287 0.28227
 C1244 C -0.04664 0.78848 0.27032
 C1245 C -0.03538 0.78214 0.26403
 C1246 C -0.02961 0.77007 0.26961
 C1247 C -0.03524 0.76463 0.28174
 C1248 C -0.04651 0.77099 0.28801
 H1249 H -0.08847 0.81609 0.28438
 H1250 H -0.10949 0.82575 0.29415
 H1251 H -0.10878 0.79440 0.32570
 H1252 H -0.08776 0.78493 0.31577
 H1253 H -0.05107 0.79766 0.26577
 H1254 H -0.03132 0.78658 0.25468
 H1255 H -0.03108 0.75534 0.28628
 H1256 H -0.05082 0.76654 0.29724
 C1257 C 0.58656 0.70017 0.29949
 C1258 C 0.59280 0.68867 0.29353
 C1259 C 0.60488 0.68321 0.29915
 C1260 C 0.61092 0.68919 0.31084
 C1261 C 0.60450 0.70074 0.31676
 C1262 C 0.59242 0.70617 0.31112
 C1263 C 0.57431 0.70598 0.29353
 C1264 C 0.56415 0.71100 0.28847
 C1265 C 0.55217 0.71720 0.28233
 C1266 C 0.54652 0.71163 0.27037
 C1267 C 0.53526 0.71801 0.26405
 C1268 C 0.52952 0.73007 0.26963
 C1269 C 0.53515 0.73547 0.28177
 C1270 C 0.54641 0.72907 0.28806
 H1271 H 0.58836 0.68395 0.28450
 H1272 H 0.60943 0.67433 0.29426
 H1273 H 0.60876 0.70568 0.32572
 H1274 H 0.58769 0.71510 0.31580
 H1275 H 0.55093 0.70246 0.26582
 H1276 H 0.53120 0.71361 0.25470
 H1277 H 0.53101 0.74475 0.28630
 H1278 H 0.55074 0.73349 0.29730
 C1279 C 0.58663 0.19978 0.79935
 C1280 C 0.59264 0.18805 0.79360
 C1281 C 0.60469 0.18254 0.79925
 C1282 C 0.61091 0.18868 0.81075
 C1283 C 0.60472 0.20047 0.81646
 C1284 C 0.59268 0.20596 0.81079
 C1285 C 0.57439 0.20562 0.79338
 C1286 C 0.56423 0.21067 0.78834
 C1287 C 0.55224 0.21689 0.78224
 C1288 C 0.54654 0.21135 0.77030
 C1289 C 0.53527 0.21774 0.76403
 C1290 C 0.52957 0.22981 0.76963
 C1291 C 0.53525 0.23519 0.78176
 C1292 C 0.54652 0.22876 0.78801
 H1293 H 0.58806 0.18320 0.78471
 H1294 H 0.60906 0.17347 0.79454
 H1295 H 0.60914 0.20556 0.82526
 H1296 H 0.58812 0.21507 0.81530
 H1297 H 0.55093 0.20218 0.76572
 H1298 H 0.53118 0.21337 0.75468
 H1299 H 0.53114 0.24447 0.78631
 H1300 H 0.55088 0.23316 0.79724
 C1301 C 1.08655 0.70050 0.80010
 C1302 C 1.09282 0.68915 0.79391
 C1303 C 1.10492 0.68362 0.79941
 C1304 C 1.11093 0.68938 0.81122
 C1305 C 1.10447 0.70077 0.81740
 C1306 C 1.09237 0.70628 0.81186
 C1307 C 1.07430 0.70638 0.79421
 C1308 C 1.06414 0.71140 0.78914
 C1309 C 1.05218 0.71755 0.78294
 C1310 C 1.04658 0.71192 0.77099
 C1311 C 1.03534 0.71826 0.76460
 C1312 C 1.02956 0.73034 0.77010
 C1313 C 1.03515 0.73579 0.78224
 C1314 C 1.04639 0.72944 0.78860
 H1315 H 1.08842 0.68463 0.78476
 H1316 H 1.10958 0.67494 0.79428
 H1317 H 1.10869 0.70546 0.82651
 H1318 H 1.08760 0.71509 0.81673
 H1319 H 1.05101 0.70274 0.76650
 H1320 H 1.03131 0.71381 0.75526
 H1321 H 1.03098 0.74509 0.78672
 H1322 H 1.05067 0.73390 0.79784
 C1323 C 1.08652 0.20018 0.29939
 C1324 C 1.09255 0.18846 0.29364
 C1325 C 1.10461 0.18297 0.29929
 C1326 C 1.11083 0.18914 0.31079
 C1327 C 1.10462 0.20093 0.31648
 C1328 C 1.09257 0.20639 0.31082
 C1329 C 1.07427 0.20599 0.29342
 C1330 C 1.06410 0.21101 0.28836
 C1331 C 1.05212 0.21721 0.28223
 C1332 C 1.04644 0.21164 0.27028
 C1333 C 1.03518 0.21803 0.26399
 C1334 C 1.02946 0.23010 0.26956
 C1335 C 1.03512 0.23550 0.28170
 C1336 C 1.04638 0.22909 0.28797
 H1337 H 1.08796 0.18359 0.28477
 H1338 H 1.10899 0.17391 0.29458
 H1339 H 1.10905 0.20603 0.32527
 H1340 H 1.08800 0.21550 0.31532
 H1341 H 1.05084 0.20248 0.26573
 H1342 H 1.03110 0.21364 0.25464
 H1343 H 1.03100 0.24479 0.28623
 H1344 H 1.05072 0.23350 0.29720
 C1345 C 0.58667 0.29959 0.70072
 C1346 C 0.59288 0.31113 0.70665
 C1347 C 0.60487 0.31668 0.70095
 C1348 C 0.61085 0.31076 0.68921
 C1349 C 0.60448 0.29915 0.68334
 C1350 C 0.59249 0.29362 0.68906
 C1351 C 0.57447 0.29373 0.70671
 C1352 C 0.56433 0.28869 0.71178
 C1353 C 0.55237 0.28249 0.71792
 C1354 C 0.54672 0.28807 0.72986
 C1355 C 0.53545 0.28172 0.73615
 C1356 C 0.52969 0.26967 0.73057
 C1357 C 0.53532 0.26426 0.71844
 C1358 C 0.54659 0.27063 0.71217
 H1359 H 0.58847 0.31581 0.71570
 H1360 H 0.60940 0.32558 0.70582
 H1361 H 0.60869 0.29426 0.67433
 H1362 H 0.58778 0.28466 0.68440
 H1363 H 0.55114 0.29724 0.73441
 H1364 H 0.53139 0.28613 0.74549
 H1365 H 0.53116 0.25498 0.71390
 H1366 H 0.55091 0.26621 0.70294
 C1367 C 0.58666 0.79966 0.20072
 C1368 C 0.59247 0.79371 0.18905
 C1369 C 0.60445 0.79924 0.18333
 C1370 C 0.61083 0.81084 0.18922
 C1371 C 0.60486 0.81674 0.20098
 C1372 C 0.59287 0.81118 0.20667
 C1373 C 0.57443 0.79382 0.20670
 C1374 C 0.56428 0.78880 0.21175
 C1375 C 0.55229 0.78264 0.21787
 C1376 C 0.54650 0.77079 0.21212
 C1377 C 0.53521 0.76443 0.21838
 C1378 C 0.52958 0.76985 0.23050
 C1379 C 0.53535 0.78190 0.23609
 C1380 C 0.54664 0.78823 0.22981
 H1381 H 0.58775 0.78476 0.18437
 H1382 H 0.60865 0.79438 0.17431
 H1383 H 0.60940 0.82563 0.20586
 H1384 H 0.58847 0.81586 0.21574
 H1385 H 0.55081 0.76636 0.20290
 H1386 H 0.53104 0.75516 0.21384
 H1387 H 0.53129 0.78631 0.24543
 H1388 H 0.55107 0.79739 0.23436
 C1389 C 1.08646 0.29983 0.20051
 C1390 C 1.09251 0.29363 0.18909
 C1391 C 1.10456 0.29909 0.18345
 C1392 C 1.11077 0.31087 0.18917
 C1393 C 1.10454 0.31704 0.20065
 C1394 C 1.09249 0.31155 0.20627
 C1395 C 1.07423 0.29400 0.20647
 C1396 C 1.06409 0.28897 0.21155
 C1397 C 1.05213 0.28279 0.21771
 C1398 C 1.04636 0.27091 0.21199
 C1399 C 1.03513 0.26452 0.21830
 C1400 C 1.02952 0.26994 0.23043
 C1401 C 1.03526 0.28201 0.23598
 C1402 C 1.04650 0.28838 0.22966
 H1403 H 1.08795 0.28452 0.18457
 H1404 H 1.10899 0.29398 0.17467
 H1405 H 1.10892 0.32610 0.20536
 H1406 H 1.08789 0.31642 0.21513
 H1407 H 1.05067 0.26648 0.20276
 H1408 H 1.03097 0.25523 0.21377
 H1409 H 1.03121 0.28643 0.24532
 H1410 H 1.05092 0.29755 0.23418
 C1411 C 1.08665 0.79972 0.70080
 C1412 C 1.09287 0.81127 0.70671
 C1413 C 1.10484 0.81684 0.70099
 C1414 C 1.11080 0.81093 0.68923
 C1415 C 1.10443 0.79930 0.68338
 C1416 C 1.09246 0.79376 0.68913
 C1417 C 1.07444 0.79388 0.70681
 C1418 C 1.06429 0.78887 0.71190
 C1419 C 1.05230 0.78272 0.71806
 C1420 C 1.04666 0.78835 0.72998
 C1421 C 1.03537 0.78204 0.73630
 C1422 C 1.02960 0.76997 0.73077
 C1423 C 1.03522 0.76451 0.71866
 C1424 C 1.04650 0.77084 0.71237
 H1425 H 1.08848 0.81595 0.71578
 H1426 H 1.10939 0.82573 0.70586
 H1427 H 1.10862 0.79442 0.67436
 H1428 H 1.08775 0.78479 0.68448
 H1429 H 1.05109 0.79753 0.73450
 H1430 H 1.03132 0.78648 0.74563
 H1431 H 1.03105 0.75522 0.71415
 H1432 H 1.05082 0.76637 0.70316
 C1433 C 0.41413 0.69916 0.70062
 C1434 C 0.40813 0.70534 0.68913
 C1435 C 0.39612 0.69984 0.68340
 C1436 C 0.38990 0.68806 0.68911
 C1437 C 0.39611 0.68184 0.70059
 C1438 C 0.40814 0.68735 0.70629
 C1439 C 0.42622 0.70516 0.70676
 C1440 C 0.43623 0.71039 0.71193
 C1441 C 0.44802 0.71685 0.71818
 C1442 C 0.45359 0.72884 0.71248
 C1443 C 0.46472 0.73542 0.71880
 C1444 C 0.47044 0.73009 0.73096
 C1445 C 0.46485 0.71793 0.73653
 C1446 C 0.45372 0.71138 0.73018
 H1447 H 0.41265 0.71450 0.68466
 H1448 H 0.39165 0.70499 0.67464
 H1449 H 0.39173 0.67270 0.70520
 H1450 H 0.41271 0.68246 0.71518
 H1451 H 0.44924 0.73320 0.70322
 H1452 H 0.46873 0.74478 0.71428
 H1453 H 0.46896 0.71358 0.74590
 H1454 H 0.44945 0.70213 0.73472
 C1455 C 0.41324 0.20126 0.20059
 C1456 C 0.40734 0.18949 0.20640
 C1457 C 0.39553 0.18365 0.20061
 C1458 C 0.38941 0.18952 0.18889
 C1459 C 0.39541 0.20142 0.18317
 C1460 C 0.40723 0.20723 0.18899
 C1461 C 0.42541 0.20724 0.20658
 C1462 C 0.43556 0.21225 0.21166
 C1463 C 0.44759 0.21832 0.21783
 C1464 C 0.45326 0.21257 0.22971
 C1465 C 0.46464 0.21874 0.23600
 C1466 C 0.47051 0.23078 0.23047
 C1467 C 0.46485 0.23637 0.21840
 C1468 C 0.45347 0.23017 0.21213
 H1469 H 0.41190 0.18478 0.21540
 H1470 H 0.39132 0.17449 0.20530
 H1471 H 0.39100 0.20631 0.17424
 H1472 H 0.41168 0.21638 0.18443
 H1473 H 0.44878 0.20341 0.23422
 H1474 H 0.46871 0.21420 0.24529
 H1475 H 0.46909 0.24564 0.21390
 H1476 H 0.44916 0.23473 0.20295
 C1477 C -0.08662 0.70041 0.20081
 C1478 C -0.09279 0.68886 0.20677
 C1479 C -0.10477 0.68327 0.20108
 C1480 C -0.11077 0.68918 0.18931
 C1481 C -0.10443 0.70080 0.18341
 C1482 C -0.09246 0.70636 0.18912
 C1483 C -0.07440 0.70627 0.20677
 C1484 C -0.06424 0.71131 0.21181
 C1485 C -0.05226 0.71749 0.21791
 C1486 C -0.04658 0.71190 0.22986
 C1487 C -0.03531 0.71826 0.23614
 C1488 C -0.02958 0.73033 0.23055
 C1489 C -0.03523 0.73575 0.21841
 C1490 C -0.04650 0.72936 0.21215
 H1491 H -0.08836 0.68419 0.21584
 H1492 H -0.10928 0.67436 0.20597
 H1493 H -0.10865 0.70567 0.17437
 H1494 H -0.08777 0.71533 0.18444
 H1495 H -0.05098 0.70272 0.23443
 H1496 H -0.03123 0.71384 0.24549
 H1497 H -0.03110 0.74504 0.21385
 H1498 H -0.05084 0.73379 0.20291
 C1499 C -0.08653 0.20042 0.70078
 C1500 C -0.09273 0.18889 0.70675
 C1501 C -0.10473 0.18333 0.70106
 C1502 C -0.11071 0.18924 0.68928
 C1503 C -0.10435 0.20085 0.68338
 C1504 C -0.09236 0.20639 0.68910
 C1505 C -0.07430 0.20626 0.70676
 C1506 C -0.06415 0.21129 0.71181
 C1507 C -0.05216 0.21746 0.71794
 C1508 C -0.04652 0.21188 0.72991
 C1509 C -0.03525 0.21824 0.73620
 C1510 C -0.02949 0.23029 0.73060
 C1511 C -0.03512 0.23570 0.71844
 C1512 C -0.04638 0.22932 0.71217
 H1513 H -0.08832 0.18421 0.71583
 H1514 H -0.10926 0.17444 0.70596
 H1515 H -0.10856 0.20573 0.67435
 H1516 H -0.08765 0.21534 0.68441
 H1517 H -0.05094 0.20272 0.73448
 H1518 H -0.03119 0.21383 0.74557
 H1519 H -0.03095 0.24498 0.71388
 H1520 H -0.05070 0.23374 0.70292
 C1521 C 0.29981 0.41339 0.29943
 C1522 C 0.31154 0.40737 0.29368
 C1523 C 0.31701 0.39529 0.29930
 C1524 C 0.31081 0.38905 0.31078
 C1525 C 0.29903 0.39526 0.31649
 C1526 C 0.29359 0.40733 0.31085
 C1527 C 0.29400 0.42565 0.29347
 C1528 C 0.28899 0.43581 0.28841
 C1529 C 0.28279 0.44778 0.28226
 C1530 C 0.28839 0.45345 0.27032
 C1531 C 0.28199 0.46468 0.26398
 C1532 C 0.26989 0.47039 0.26952
 C1533 C 0.26447 0.46474 0.28165
 C1534 C 0.27088 0.45351 0.28797
 H1535 H 0.31644 0.41197 0.28482
 H1536 H 0.32609 0.39092 0.29460
 H1537 H 0.29391 0.39084 0.32528
 H1538 H 0.28448 0.41190 0.31536
 H1539 H 0.29759 0.44907 0.26580
 H1540 H 0.28641 0.46875 0.25463
 H1541 H 0.25516 0.46886 0.28617
 H1542 H 0.26645 0.44918 0.29719
 C1543 C 0.30032 -0.08696 0.79939
 C1544 C 0.31169 -0.09329 0.79329
 C1545 C 0.31723 -0.10532 0.79893
 C1546 C 0.31148 -0.11126 0.81084
 C1547 C 0.30002 -0.10468 0.81688
 C1548 C 0.29452 -0.09266 0.81119
 C1549 C 0.29446 -0.07473 0.79343
 C1550 C 0.28942 -0.06457 0.78839
 C1551 C 0.28322 -0.05258 0.78230
 C1552 C 0.28881 -0.04686 0.77037
 C1553 C 0.28244 -0.03556 0.76412
 C1554 C 0.27037 -0.02985 0.76972
 C1555 C 0.26496 -0.03555 0.78184
 C1556 C 0.27135 -0.04684 0.78807
 H1557 H 0.31624 -0.08897 0.78411
 H1558 H 0.32600 -0.10987 0.79384
 H1559 H 0.29517 -0.10871 0.82599
 H1560 H 0.28569 -0.08784 0.81599
 H1561 H 0.29798 -0.05125 0.76580
 H1562 H 0.28685 -0.03145 0.75479
 H1563 H 0.25567 -0.03142 0.78640
 H1564 H 0.26692 -0.05121 0.79728
 C1565 C 0.79993 0.41335 0.79952
 C1566 C 0.81153 0.40723 0.79365
 C1567 C 0.81707 0.39520 0.79930
 C1568 C 0.81108 0.38905 0.81098
 C1569 C 0.79936 0.39541 0.81678
 C1570 C 0.79387 0.40743 0.81109
 C1571 C 0.79408 0.42557 0.79353
 C1572 C 0.78904 0.43570 0.78845
 C1573 C 0.78281 0.44765 0.78230
 C1574 C 0.78838 0.45331 0.77033
 C1575 C 0.78198 0.46456 0.76403
 C1576 C 0.76991 0.47029 0.76962
 C1577 C 0.76451 0.46463 0.78175
 C1578 C 0.77093 0.45338 0.78804
 H1579 H 0.81629 0.41173 0.78466
 H1580 H 0.82603 0.39083 0.79439
 H1581 H 0.79431 0.39120 0.82570
 H1582 H 0.78486 0.41208 0.81570
 H1583 H 0.79755 0.44892 0.76578
 H1584 H 0.78638 0.46863 0.75467
 H1585 H 0.75521 0.46875 0.78629
 H1586 H 0.76652 0.44905 0.79728
 C1587 C 0.79990 -0.08686 0.29954
 C1588 C 0.79412 -0.09251 0.31138
 C1589 C 0.79955 -0.10458 0.31704
 C1590 C 0.81093 -0.11125 0.31095
 C1591 C 0.81666 -0.10536 0.29901
 C1592 C 0.81117 -0.09329 0.29338
 C1593 C 0.79409 -0.07460 0.29359
 C1594 C 0.78909 -0.06443 0.28853
 C1595 C 0.78293 -0.05244 0.28240
 C1596 C 0.77104 -0.04668 0.28812
 C1597 C 0.76467 -0.03541 0.28183
 C1598 C 0.77011 -0.02976 0.26971
 C1599 C 0.78220 -0.03549 0.26416
 C1600 C 0.78854 -0.04677 0.27046
 H1601 H 0.78535 -0.08762 0.31622
 H1602 H 0.79472 -0.10856 0.32619
 H1603 H 0.82535 -0.10998 0.29387
 H1604 H 0.81572 -0.08901 0.28418
 H1605 H 0.76659 -0.05102 0.29733
 H1606 H 0.75537 -0.03127 0.28635
 H1607 H 0.78663 -0.03142 0.25482
 H1608 H 0.79772 -0.05117 0.26593
 C1609 C 0.30093 0.58616 0.69972
 C1610 C 0.29500 0.59202 0.68804
 C1611 C 0.30035 0.60420 0.68256
 C1612 C 0.31172 0.61076 0.68873
 C1613 C 0.31773 0.60463 0.70037
 C1614 C 0.31235 0.59244 0.70582
 C1615 C 0.29501 0.57395 0.70568
 C1616 C 0.28986 0.56387 0.71078
 C1617 C 0.28351 0.55203 0.71700
 C1618 C 0.27150 0.54643 0.71136
 C1619 C 0.26496 0.53532 0.71775
 C1620 C 0.27036 0.52967 0.72990
 C1621 C 0.28255 0.53525 0.73539
 C1622 C 0.28906 0.54637 0.72898
 H1623 H 0.28614 0.58725 0.68323
 H1624 H 0.29544 0.60848 0.67357
 H1625 H 0.32649 0.60927 0.70542
 H1626 H 0.31702 0.58799 0.71489
 H1627 H 0.26709 0.55076 0.70211
 H1628 H 0.25558 0.53129 0.71328
 H1629 H 0.28695 0.53118 0.74475
 H1630 H 0.29833 0.55066 0.73347
 C1631 C 0.29910 1.08690 0.19985
 C1632 C 0.29312 1.09305 0.18833
 C1633 C 0.29878 1.10509 0.18282
 C1634 C 0.31051 1.11115 0.18879
 C1635 C 0.31644 1.10484 0.20037
 C1636 C 0.31077 1.09281 0.20585
 C1637 C 0.29317 1.07464 0.20567
 C1638 C 0.28817 1.06446 0.21068
 C1639 C 0.28211 1.05244 0.21685
 C1640 C 0.27019 1.04664 0.21122
 C1641 C 0.26392 1.03535 0.21756
 C1642 C 0.26951 1.02972 0.22964
 C1643 C 0.28163 1.03549 0.23509
 C1644 C 0.28787 1.04679 0.22873
 H1645 H 0.28408 1.08855 0.18361
 H1646 H 0.29397 1.10955 0.17387
 H1647 H 0.32538 1.10921 0.20534
 H1648 H 0.31544 1.08816 0.21481
 H1649 H 0.26563 1.05096 0.20204
 H1650 H 0.25459 1.03117 0.21312
 H1651 H 0.28617 1.03143 0.24439
 H1652 H 0.29708 1.05122 0.23319
 C1653 C 0.79958 0.58653 0.20075
 C1654 C 0.79361 0.59237 0.18907
 C1655 C 0.79915 0.60435 0.18335
 C1656 C 0.81077 0.61070 0.18925
 C1657 C 0.81670 0.60470 0.20101
 C1658 C 0.81114 0.59271 0.20670
 C1659 C 0.79372 0.57433 0.20674
 C1660 C 0.78869 0.56419 0.21182
 C1661 C 0.78251 0.55223 0.21797
 C1662 C 0.77062 0.54648 0.21222
 C1663 C 0.76424 0.53522 0.21849
 C1664 C 0.76967 0.52957 0.23063
 C1665 C 0.78175 0.53530 0.23622
 C1666 C 0.78811 0.54657 0.22992
 H1667 H 0.78464 0.58767 0.18439
 H1668 H 0.79426 0.60857 0.17433
 H1669 H 0.82562 0.60921 0.20589
 H1670 H 0.81583 0.58829 0.21577
 H1671 H 0.76619 0.55081 0.20298
 H1672 H 0.75494 0.53109 0.21395
 H1673 H 0.78617 0.53122 0.24556
 H1674 H 0.79730 0.55096 0.23447
 C1675 C 0.79965 1.08657 0.70082
 C1676 C 0.81121 1.09276 0.70675
 C1677 C 0.81678 1.10474 0.70103
 C1678 C 0.81086 1.11071 0.68926
 C1679 C 0.79923 1.10435 0.68338
 C1680 C 0.79369 1.09238 0.68913
 C1681 C 0.79378 1.07437 0.70684
 C1682 C 0.78873 1.06424 0.71193
 C1683 C 0.78252 1.05228 0.71807
 C1684 C 0.78810 1.04660 0.73003
 C1685 C 0.78173 1.03532 0.73631
 C1686 C 0.76966 1.02959 0.73070
 C1687 C 0.76425 1.03526 0.71856
 C1688 C 0.77064 1.04653 0.71231
 H1689 H 0.81590 1.08837 0.71584
 H1690 H 0.82569 1.10926 0.70591
 H1691 H 0.79435 1.10854 0.67434
 H1692 H 0.78472 1.08767 0.68446
 H1693 H 0.79727 1.05100 0.73461
 H1694 H 0.78613 1.03124 0.74566
 H1695 H 0.75496 1.03112 0.71400
 H1696 H 0.76622 1.05086 0.70307
 C1697 C 0.70039 0.58655 0.29948
 C1698 C 0.68886 0.59280 0.29353
 C1699 C 0.68339 0.60484 0.29918
 C1700 C 0.68939 0.61084 0.31088
 C1701 C 0.70098 0.60441 0.31679
 C1702 C 0.70642 0.59237 0.31112
 C1703 C 0.70617 0.57431 0.29351
 C1704 C 0.71116 0.56415 0.28846
 C1705 C 0.71729 0.55215 0.28233
 C1706 C 0.71165 0.54652 0.27040
 C1707 C 0.71795 0.53522 0.26412
 C1708 C 0.73000 0.52942 0.26971
 C1709 C 0.73547 0.53505 0.28183
 C1710 C 0.72915 0.54634 0.28808
 H1711 H 0.68411 0.58839 0.28450
 H1712 H 0.67448 0.60939 0.29430
 H1713 H 0.70594 0.60863 0.32576
 H1714 H 0.71537 0.58762 0.31579
 H1715 H 0.70248 0.55097 0.26585
 H1716 H 0.71350 0.53118 0.25479
 H1717 H 0.74476 0.53087 0.28636
 H1718 H 0.73363 0.55065 0.29729
 C1719 C 0.70029 1.08668 0.79958
 C1720 C 0.68895 1.09307 0.79346
 C1721 C 0.68345 1.10510 0.79909
 C1722 C 0.68923 1.11100 0.81100
 C1723 C 0.70067 1.10437 0.81706
 C1724 C 0.70612 1.09234 0.81139
 C1725 C 0.70610 1.07444 0.79363
 C1726 C 0.71109 1.06427 0.78858
 C1727 C 0.71722 1.05228 0.78245
 C1728 C 0.71158 1.04666 0.77051
 C1729 C 0.71787 1.03537 0.76422
 C1730 C 0.72993 1.02957 0.76979
 C1731 C 0.73540 1.03517 0.78192
 C1732 C 0.72908 1.04645 0.78819
 H1733 H 0.68437 1.08878 0.78428
 H1734 H 0.67471 1.10970 0.79397
 H1735 H 0.70554 1.10838 0.82617
 H1736 H 0.71494 1.08748 0.81620
 H1737 H 0.70241 1.05111 0.76597
 H1738 H 0.71342 1.03134 0.75488
 H1739 H 0.74469 1.03098 0.78645
 H1740 H 0.73355 1.05074 0.79742
 C1741 C 0.20016 0.58631 0.79950
 C1742 C 0.20629 0.59225 0.81103
 C1743 C 0.20077 0.60423 0.81675
 C1744 C 0.18899 0.61046 0.81101
 C1745 C 0.18288 0.60434 0.79943
 C1746 C 0.18843 0.59236 0.79373
 C1747 C 0.20608 0.57419 0.79343
 C1748 C 0.21119 0.56413 0.78828
 C1749 C 0.21747 0.55228 0.78203
 C1750 C 0.22942 0.54656 0.78770
 C1751 C 0.23587 0.53540 0.78134
 C1752 C 0.23043 0.52981 0.76919
 C1753 C 0.21831 0.53552 0.76367
 C1754 C 0.21189 0.54669 0.77005
 H1755 H 0.21540 0.58767 0.81557
 H1756 H 0.20582 0.60857 0.82562
 H1757 H 0.17381 0.60873 0.79471
 H1758 H 0.18360 0.58785 0.78479
 H1759 H 0.23386 0.55084 0.79695
 H1760 H 0.24520 0.53128 0.78584
 H1761 H 0.21388 0.53149 0.75431
 H1762 H 0.20266 0.55106 0.76554
 C1763 C 0.20031 1.08653 0.29922
 C1764 C 0.20655 1.09253 0.31066
 C1765 C 0.20109 1.10454 0.31636
 C1766 C 0.18928 1.11077 0.31069
 C1767 C 0.18307 1.10460 0.29918
 C1768 C 0.18856 1.09259 0.29350
 C1769 C 0.20612 1.07433 0.29320
 C1770 C 0.21113 1.06421 0.28810
 C1771 C 0.21730 1.05227 0.28191
 C1772 C 0.22924 1.04652 0.28756
 C1773 C 0.23561 1.03530 0.28122
 C1774 C 0.23010 1.02968 0.26912
 C1775 C 0.21796 1.03541 0.26364
 C1776 C 0.21162 1.04663 0.26999
 H1777 H 0.21568 1.08795 0.31515
 H1778 H 0.20623 1.10893 0.32516
 H1779 H 0.17399 1.10900 0.29449
 H1780 H 0.18365 1.08804 0.28462
 H1781 H 0.23374 1.05083 0.29676
 H1782 H 0.24495 1.03117 0.28569
 H1783 H 0.21348 1.03135 0.25432
 H1784 H 0.20239 1.05103 0.26551
 C1785 C 0.70052 0.41335 0.70064
 C1786 C 0.70651 0.40752 0.68899
 C1787 C 0.70099 0.39553 0.68330
 C1788 C 0.68936 0.38917 0.68918
 C1789 C 0.68343 0.39515 0.70091
 C1790 C 0.68898 0.40714 0.70659
 C1791 C 0.70635 0.42557 0.70661
 C1792 C 0.71134 0.43572 0.71167
 C1793 C 0.71747 0.44771 0.71781
 C1794 C 0.72934 0.45353 0.71208
 C1795 C 0.73566 0.46481 0.71836
 C1796 C 0.73020 0.47041 0.73047
 C1797 C 0.71814 0.46462 0.73603
 C1798 C 0.71183 0.45334 0.72974
 H1799 H 0.71547 0.41223 0.68432
 H1800 H 0.70588 0.39132 0.67429
 H1801 H 0.67453 0.39062 0.70579
 H1802 H 0.68428 0.41155 0.71563
 H1803 H 0.73380 0.44923 0.70287
 H1804 H 0.74495 0.46899 0.71383
 H1805 H 0.71369 0.46867 0.74536
 H1806 H 0.70267 0.44889 0.73427
 C1807 C 0.70058 -0.08668 0.20069
 C1808 C 0.68903 -0.09287 0.20663
 C1809 C 0.68346 -0.10484 0.20093
 C1810 C 0.68937 -0.11081 0.18918
 C1811 C 0.70100 -0.10445 0.18330
 C1812 C 0.70655 -0.09249 0.18903
 C1813 C 0.70643 -0.07448 0.20667
 C1814 C 0.71144 -0.06434 0.21174
 C1815 C 0.71760 -0.05238 0.21787
 C1816 C 0.71197 -0.04673 0.22980
 C1817 C 0.71831 -0.03547 0.23609
 C1818 C 0.73039 -0.02971 0.23053
 C1819 C 0.73585 -0.03534 0.21842
 C1820 C 0.72949 -0.04660 0.21215
 H1821 H 0.68434 -0.08847 0.21569
 H1822 H 0.67454 -0.10937 0.20581
 H1823 H 0.70588 -0.10865 0.17429
 H1824 H 0.71552 -0.08778 0.18436
 H1825 H 0.70279 -0.05115 0.23433
 H1826 H 0.71387 -0.03141 0.24542
 H1827 H 0.74515 -0.03119 0.21390
 H1828 H 0.73395 -0.05092 0.20294
 C1829 C 0.20025 0.41350 0.20047
 C1830 C 0.18852 0.40747 0.20622
 C1831 C 0.18302 0.39544 0.20058
 C1832 C 0.18920 0.38924 0.18909
 C1833 C 0.20100 0.39544 0.18339
 C1834 C 0.20647 0.40747 0.18905
 C1835 C 0.20607 0.42572 0.20643
 C1836 C 0.21107 0.43587 0.21150
 C1837 C 0.21724 0.44783 0.21763
 C1838 C 0.21162 0.45347 0.22956
 C1839 C 0.21798 0.46472 0.23587
 C1840 C 0.23007 0.47045 0.23032
 C1841 C 0.23552 0.46483 0.21820
 C1842 C 0.22914 0.45358 0.21192
 H1843 H 0.18364 0.41205 0.21509
 H1844 H 0.17394 0.39107 0.20528
 H1845 H 0.20612 0.39102 0.17460
 H1846 H 0.21560 0.41203 0.18454
 H1847 H 0.20244 0.44906 0.23409
 H1848 H 0.21354 0.46878 0.24520
 H1849 H 0.24483 0.46897 0.21369
 H1850 H 0.23359 0.44926 0.20271
 C1851 C 0.20059 -0.08663 0.70062
 C1852 C 0.18903 -0.09282 0.70655
 C1853 C 0.18345 -0.10478 0.70084
 C1854 C 0.18937 -0.11074 0.68909
 C1855 C 0.20101 -0.10439 0.68322
 C1856 C 0.20656 -0.09244 0.68896
 C1857 C 0.20645 -0.07445 0.70662
 C1858 C 0.21148 -0.06433 0.71170
 C1859 C 0.21767 -0.05240 0.71787
 C1860 C 0.21207 -0.04679 0.72983
 C1861 C 0.21844 -0.03557 0.73617
 C1862 C 0.23052 -0.02982 0.73062
 C1863 C 0.23596 -0.03541 0.71848
 C1864 C 0.22957 -0.04663 0.71216
 H1865 H 0.18435 -0.08843 0.71561
 H1866 H 0.17455 -0.10931 0.70572
 H1867 H 0.20590 -0.10859 0.67421
 H1868 H 0.21555 -0.08774 0.68431
 H1869 H 0.20288 -0.05121 0.73435
 H1870 H 0.21402 -0.03155 0.74552
 H1871 H 0.24526 -0.03125 0.71396
 H1872 H 0.23400 -0.05091 0.70293
 C1873 C 0.29956 0.29943 0.41384
 C1874 C 0.29357 0.31105 0.40781
 C1875 C 0.29913 0.31661 0.39582
 C1876 C 0.31080 0.31062 0.38965
 C1877 C 0.31676 0.29895 0.39586
 C1878 C 0.31117 0.29341 0.40786
 C1879 C 0.29362 0.29352 0.42600
 C1880 C 0.28855 0.28847 0.43609
 C1881 C 0.28236 0.28230 0.44799
 C1882 C 0.27040 0.28797 0.45364
 C1883 C 0.26407 0.28167 0.46487
 C1884 C 0.26964 0.26958 0.47060
 C1885 C 0.28177 0.26405 0.46494
 C1886 C 0.28807 0.27037 0.45371
 H1887 H 0.28456 0.31578 0.41235
 H1888 H 0.29421 0.32557 0.39143
 H1889 H 0.32571 0.29400 0.39151
 H1890 H 0.31587 0.28439 0.41243
 H1891 H 0.26586 0.29717 0.44925
 H1892 H 0.25471 0.28615 0.46893
 H1893 H 0.28628 0.25472 0.46906
 H1894 H 0.29730 0.26587 0.44937
 C1895 C 0.29963 0.79954 -0.08659
 C1896 C 0.29366 0.81116 -0.09263
 C1897 C 0.29924 0.81672 -0.10461
 C1898 C 0.31092 0.81073 -0.11077
 C1899 C 0.31686 0.79905 -0.10454
 C1900 C 0.31125 0.79351 -0.09255
 C1901 C 0.29369 0.79366 -0.07441
 C1902 C 0.28861 0.78863 -0.06431
 C1903 C 0.28241 0.78249 -0.05239
 C1904 C 0.27048 0.78821 -0.04674
 C1905 C 0.26411 0.78191 -0.03551
 C1906 C 0.26962 0.76978 -0.02981
 C1907 C 0.28173 0.76422 -0.03546
 C1908 C 0.28807 0.77053 -0.04668
 H1909 H 0.28464 0.81590 -0.08810
 H1910 H 0.29434 0.82569 -0.10900
 H1911 H 0.32582 0.79410 -0.10888
 H1912 H 0.31595 0.78450 -0.08797
 H1913 H 0.26599 0.79744 -0.05111
 H1914 H 0.25478 0.78643 -0.03145
 H1915 H 0.28620 0.75487 -0.03135
 H1916 H 0.29729 0.76600 -0.05101
 C1917 C 0.79930 0.29963 -0.08646
 C1918 C 0.79331 0.31126 -0.09246
 C1919 C 0.79888 0.31688 -0.10443
 C1920 C 0.81057 0.31092 -0.11060
 C1921 C 0.81652 0.29923 -0.10443
 C1922 C 0.81092 0.29364 -0.09246
 C1923 C 0.79341 0.29373 -0.07427
 C1924 C 0.78839 0.28869 -0.06415
 C1925 C 0.78228 0.28254 -0.05219
 C1926 C 0.77032 0.28820 -0.04651
 C1927 C 0.76402 0.28189 -0.03526
 C1928 C 0.76962 0.26982 -0.02953
 C1929 C 0.78176 0.26432 -0.03519
 C1930 C 0.78803 0.27065 -0.04645
 H1931 H 0.78429 0.31598 -0.08791
 H1932 H 0.79397 0.32586 -0.10878
 H1933 H 0.82549 0.29432 -0.10878
 H1934 H 0.81563 0.28461 -0.08791
 H1935 H 0.76575 0.29738 -0.05090
 H1936 H 0.75466 0.28636 -0.03119
 H1937 H 0.78631 0.25501 -0.03107
 H1938 H 0.79727 0.26616 -0.05078
 C1939 C 0.79941 0.79965 0.41374
 C1940 C 0.81101 0.79364 0.40772
 C1941 C 0.81657 0.79918 0.39572
 C1942 C 0.81060 0.81086 0.38953
 C1943 C 0.79893 0.81683 0.39571
 C1944 C 0.79340 0.81126 0.40772
 C1945 C 0.79353 0.79377 0.42594
 C1946 C 0.78851 0.78874 0.43606
 C1947 C 0.78238 0.78259 0.44801
 C1948 C 0.78811 0.77068 0.45374
 C1949 C 0.78181 0.76436 0.46498
 C1950 C 0.76967 0.76988 0.47063
 C1951 C 0.76411 0.78197 0.46491
 C1952 C 0.77043 0.78827 0.45367
 H1953 H 0.81573 0.78462 0.41229
 H1954 H 0.82552 0.79424 0.39135
 H1955 H 0.79400 0.82579 0.39134
 H1956 H 0.78439 0.81599 0.41228
 H1957 H 0.79734 0.76618 0.44941
 H1958 H 0.78633 0.75504 0.46910
 H1959 H 0.75476 0.78646 0.46898
 H1960 H 0.76589 0.79747 0.44929
 C1961 C 0.70056 0.29940 0.58630
 C1962 C 0.70660 0.31099 0.59229
 C1963 C 0.70110 0.31655 0.60430
 C1964 C 0.68943 0.31059 0.61051
 C1965 C 0.68343 0.29892 0.60435
 C1966 C 0.68896 0.29339 0.59234
 C1967 C 0.70640 0.29351 0.57410
 C1968 C 0.71138 0.28848 0.56398
 C1969 C 0.71747 0.28232 0.55203
 C1970 C 0.72936 0.28804 0.54626
 C1971 C 0.73563 0.28174 0.53501
 C1972 C 0.73008 0.26961 0.52939
 C1973 C 0.71802 0.26404 0.53516
 C1974 C 0.71177 0.27036 0.54641
 H1975 H 0.71561 0.31570 0.58771
 H1976 H 0.70605 0.32549 0.60866
 H1977 H 0.67449 0.29399 0.60874
 H1978 H 0.68422 0.28439 0.58780
 H1979 H 0.73389 0.29727 0.55056
 H1980 H 0.74493 0.28626 0.53085
 H1981 H 0.71352 0.25469 0.53112
 H1982 H 0.70259 0.26582 0.55083
 C1983 C 0.70055 0.79942 1.08631
 C1984 C 0.70661 0.81099 1.09232
 C1985 C 0.70112 0.81654 1.10434
 C1986 C 0.68945 0.81059 1.11054
 C1987 C 0.68343 0.79894 1.10437
 C1988 C 0.68895 0.79342 1.09235
 C1989 C 0.70638 0.79355 1.07410
 C1990 C 0.71136 0.78852 1.06396
 C1991 C 0.71746 0.78238 1.05201
 C1992 C 0.72936 0.78809 1.04626
 C1993 C 0.73564 0.78180 1.03501
 C1994 C 0.73009 0.76967 1.02937
 C1995 C 0.71801 0.76411 1.03513
 C1996 C 0.71176 0.77043 1.04638
 H1997 H 0.71562 0.81570 1.08774
 H1998 H 0.70609 0.82547 1.10871
 H1999 H 0.67448 0.79402 1.10876
 H2000 H 0.68419 0.78443 1.08780
 H2001 H 0.73388 0.79731 1.05057
 H2002 H 0.74495 0.78631 1.03087
 H2003 H 0.71351 0.75476 1.03108
 H2004 H 0.70257 0.76589 1.05079
 C2005 C 0.20043 0.29939 1.08629
 C2006 C 0.20645 0.31101 1.09225
 C2007 C 0.20089 0.31664 1.10420
 C2008 C 0.18920 0.31072 1.11040
 C2009 C 0.18322 0.29904 1.10426
 C2010 C 0.18880 0.29343 1.09231
 C2011 C 0.20633 0.29345 1.07413
 C2012 C 0.21138 0.28838 1.06405
 C2013 C 0.21756 0.28220 1.05215
 C2014 C 0.22955 0.28785 1.04651
 C2015 C 0.23592 0.28151 1.03534
 C2016 C 0.23037 0.26940 1.02965
 C2017 C 0.21821 0.26391 1.03529
 C2018 C 0.21186 0.27027 1.04646
 H2019 H 0.21548 0.31570 1.08768
 H2020 H 0.20583 0.32561 1.10853
 H2021 H 0.17424 0.29414 1.10863
 H2022 H 0.18407 0.28441 1.08779
 H2023 H 0.23407 0.29706 1.05086
 H2024 H 0.24530 0.28597 1.03129
 H2025 H 0.21370 0.25457 1.03120
 H2026 H 0.20260 0.26578 1.05078
 C2027 C 0.20056 0.79939 0.58627
 C2028 C 0.20659 0.81099 0.59224
 C2029 C 0.20105 0.81660 0.60421
 C2030 C 0.18937 0.81067 0.61042
 C2031 C 0.18337 0.79900 0.60426
 C2032 C 0.18893 0.79342 0.59229
 C2033 C 0.20645 0.79345 0.57411
 C2034 C 0.21150 0.78837 0.56403
 C2035 C 0.21767 0.78219 0.55214
 C2036 C 0.22966 0.78783 0.54649
 C2037 C 0.23599 0.78150 0.53529
 C2038 C 0.23041 0.76942 0.52959
 C2039 C 0.21825 0.76393 0.53524
 C2040 C 0.21194 0.77028 0.54644
 H2041 H 0.21561 0.81569 0.58767
 H2042 H 0.20600 0.82556 0.60855
 H2043 H 0.17439 0.79411 0.60863
 H2044 H 0.18417 0.78442 0.58775
 H2045 H 0.23421 0.79702 0.55086
 H2046 H 0.24537 0.78596 0.53123
 H2047 H 0.21372 0.75462 0.53114
 H2048 H 0.20269 0.76580 0.55077
 C2049 C 0.29946 0.69979 0.58641
 C2050 C 0.31096 0.70597 0.59247
 C2051 C 0.31655 0.70054 0.60453
 C2052 C 0.31069 0.68882 0.61072
 C2053 C 0.29914 0.68266 0.60450
 C2054 C 0.29358 0.68812 0.59243
 C2055 C 0.29355 0.70561 0.57418
 C2056 C 0.28853 0.71064 0.56404
 C2057 C 0.28243 0.71683 0.55208
 C2058 C 0.28821 0.72873 0.54640
 C2059 C 0.28193 0.73514 0.53517
 C2060 C 0.26975 0.72971 0.52949
 C2061 C 0.26415 0.71760 0.53515
 C2062 C 0.27045 0.71122 0.54637
 H2063 H 0.31557 0.71505 0.58793
 H2064 H 0.32535 0.70566 0.60902
 H2065 H 0.29439 0.67359 0.60886
 H2066 H 0.28467 0.68325 0.58783
 H2067 H 0.29746 0.73318 0.55075
 H2068 H 0.28648 0.74445 0.53109
 H2069 H 0.25477 0.71318 0.53105
 H2070 H 0.26587 0.70203 0.55071
 C2071 C 0.29943 0.20009 1.08685
 C2072 C 0.29274 0.18937 1.09373
 C2073 C 0.29843 0.18385 1.10571
 C2074 C 0.31093 0.18899 1.11096
 C2075 C 0.31758 0.19976 1.10391
 C2076 C 0.31186 0.20526 1.09196
 C2077 C 0.29344 0.20595 1.07467
 C2078 C 0.28840 0.21098 1.06455
 C2079 C 0.28229 0.21715 1.05258
 C2080 C 0.27033 0.21151 1.04687
 C2081 C 0.26409 0.21780 1.03557
 C2082 C 0.26974 0.22984 1.02984
 C2083 C 0.28188 0.23532 1.03554
 C2084 C 0.28810 0.22901 1.04684
 H2085 H 0.28311 0.18528 1.08986
 H2086 H 0.29306 0.17551 1.11074
 H2087 H 0.32713 0.20408 1.10766
 H2088 H 0.31710 0.21359 1.08673
 H2089 H 0.26573 0.20235 1.05127
 H2090 H 0.25473 0.21334 1.03146
 H2091 H 0.28647 0.24460 1.03140
 H2092 H 0.29734 0.23348 1.05120
 C2093 C 0.79946 0.70059 1.08620
 C2094 C 0.79343 0.68899 1.09222
 C2095 C 0.79894 0.68344 1.10426
 C2096 C 0.81059 0.68941 1.11049
 C2097 C 0.81658 0.70108 1.10430
 C2098 C 0.81105 0.70661 1.09226
 C2099 C 0.79359 0.70648 1.07398
 C2100 C 0.78856 0.71151 1.06384
 C2101 C 0.78239 0.71763 1.05189
 C2102 C 0.77048 0.71188 1.04618
 C2103 C 0.76412 0.71815 1.03492
 C2104 C 0.76960 0.73029 1.02923
 C2105 C 0.78170 0.73588 1.03492
 C2106 C 0.78803 0.72960 1.04618
 H2107 H 0.78444 0.68426 1.08763
 H2108 H 0.79398 0.67449 1.10864
 H2109 H 0.82552 0.70602 1.10870
 H2110 H 0.81579 0.71561 1.08770
 H2111 H 0.76599 0.70265 1.05055
 H2112 H 0.75481 0.71360 1.03083
 H2113 H 0.78615 0.74524 1.03082
 H2114 H 0.79722 0.73417 1.05055
 C2115 C 0.79951 0.20055 0.58617
 C2116 C 0.81110 0.20657 0.59220
 C2117 C 0.81666 0.20105 0.60423
 C2118 C 0.81068 0.18938 0.61042
 C2119 C 0.79901 0.18341 0.60422
 C2120 C 0.79349 0.18896 0.59220
 C2121 C 0.79363 0.20642 0.57394
 C2122 C 0.78859 0.21143 0.56380
 C2123 C 0.78241 0.21754 0.55185
 C2124 C 0.78805 0.22949 0.54614
 C2125 C 0.78170 0.23579 0.53490
 C2126 C 0.76959 0.23021 0.52923
 C2127 C 0.76411 0.21807 0.53493
 C2128 C 0.77049 0.21179 0.54616
 H2129 H 0.81584 0.21558 0.58763
 H2130 H 0.82561 0.20598 0.60861
 H2131 H 0.79407 0.17446 0.60861
 H2132 H 0.78448 0.18423 0.58763
 H2133 H 0.79725 0.23406 0.55048
 H2134 H 0.78614 0.24515 0.53080
 H2135 H 0.75478 0.21353 0.53085
 H2136 H 0.76601 0.20256 0.55053
 C2137 C 0.70057 0.70045 0.41389
 C2138 C 0.68895 0.70643 0.40786
 C2139 C 0.68337 0.70087 0.39588
 C2140 C 0.68936 0.68920 0.38972
 C2141 C 0.70105 0.68325 0.39593
 C2142 C 0.70659 0.68884 0.40792
 C2143 C 0.70647 0.70637 0.42605
 C2144 C 0.71151 0.71143 0.43615
 C2145 C 0.71765 0.71762 0.44806
 C2146 C 0.71191 0.72954 0.45371
 C2147 C 0.71818 0.73588 0.46495
 C2148 C 0.73031 0.73037 0.47067
 C2149 C 0.73590 0.71828 0.46502
 C2150 C 0.72961 0.71196 0.45378
 H2151 H 0.68421 0.71544 0.41240
 H2152 H 0.67440 0.70578 0.39149
 H2153 H 0.70598 0.67429 0.39159
 H2154 H 0.71561 0.68413 0.41250
 H2155 H 0.70269 0.73403 0.44933
 H2156 H 0.71365 0.74520 0.46902
 H2157 H 0.74526 0.71382 0.46913
 H2158 H 0.73416 0.70277 0.44944
 C2159 C 0.70077 0.20010 -0.08641
 C2160 C 0.68916 0.20610 -0.09246
 C2161 C 0.68360 0.20055 -0.10445
 C2162 C 0.68958 0.18887 -0.11060
 C2163 C 0.70124 0.18290 -0.10437
 C2164 C 0.70678 0.18849 -0.09238
 C2165 C 0.70665 0.20601 -0.07422
 C2166 C 0.71166 0.21108 -0.06412
 C2167 C 0.71776 0.21729 -0.05219
 C2168 C 0.71198 0.22920 -0.04655
 C2169 C 0.71823 0.23559 -0.03532
 C2170 C 0.73037 0.23013 -0.02959
 C2171 C 0.73599 0.21804 -0.03522
 C2172 C 0.72972 0.21168 -0.04645
 H2173 H 0.68443 0.21511 -0.08793
 H2174 H 0.67464 0.20547 -0.10884
 H2175 H 0.70617 0.17393 -0.10870
 H2176 H 0.71579 0.18376 -0.08779
 H2177 H 0.70274 0.23366 -0.05095
 H2178 H 0.71366 0.24490 -0.03128
 H2179 H 0.74536 0.21361 -0.03109
 H2180 H 0.73431 0.20249 -0.05075
 C2181 C 0.20009 0.70067 -0.08640
 C2182 C 0.18835 0.70649 -0.09239
 C2183 C 0.18291 0.70094 -0.10445
 C2184 C 0.18916 0.68948 -0.11070
 C2185 C 0.20094 0.68368 -0.10454
 C2186 C 0.20635 0.68925 -0.09249
 C2187 C 0.20589 0.70657 -0.07418
 C2188 C 0.21090 0.71159 -0.06404
 C2189 C 0.21708 0.71770 -0.05211
 C2190 C 0.21143 0.72965 -0.04643
 C2191 C 0.21779 0.73597 -0.03523
 C2192 C 0.22993 0.73041 -0.02957
 C2193 C 0.23540 0.71826 -0.03523
 C2194 C 0.22901 0.71197 -0.04642
 H2195 H 0.18343 0.71535 -0.08776
 H2196 H 0.17380 0.70565 -0.10879
 H2197 H 0.20612 0.67494 -0.10904
 H2198 H 0.21548 0.68470 -0.08796
 H2199 H 0.20221 0.73419 -0.05078
 H2200 H 0.21334 0.74532 -0.03115
 H2201 H 0.24474 0.71374 -0.03114
 H2202 H 0.23349 0.70274 -0.05077
 C2203 C 0.20058 0.20023 0.41381
 C2204 C 0.20659 0.18862 0.40783
 C2205 C 0.20103 0.18304 0.39584
 C2206 C 0.18934 0.18899 0.38965
 C2207 C 0.18337 0.20066 0.39581
 C2208 C 0.18896 0.20622 0.40779
 C2209 C 0.20648 0.20613 0.42599
 C2210 C 0.21150 0.21118 0.43610
 C2211 C 0.21763 0.21734 0.44803
 C2212 C 0.22957 0.21167 0.45377
 C2213 C 0.23586 0.21798 0.46501
 C2214 C 0.23028 0.23008 0.47066
 C2215 C 0.21816 0.23560 0.46493
 C2216 C 0.21189 0.22926 0.45369
 H2217 H 0.21562 0.18391 0.41240
 H2218 H 0.20596 0.17408 0.39150
 H2219 H 0.17439 0.20558 0.39144
 H2220 H 0.18423 0.21523 0.41234
 H2221 H 0.23412 0.20247 0.44944
 H2222 H 0.24520 0.21351 0.46913
 H2223 H 0.21363 0.24492 0.46900
 H2224 H 0.20267 0.23377 0.44930
 C2225 C 0.29972 0.41354 0.70037
 C2226 C 0.31145 0.40752 0.70615
 C2227 C 0.31694 0.39546 0.70057
 C2228 C 0.31075 0.38922 0.68910
 C2229 C 0.29895 0.39542 0.68336
 C2230 C 0.29350 0.40747 0.68896
 C2231 C 0.29391 0.42580 0.70628
 C2232 C 0.28892 0.43597 0.71130
 C2233 C 0.28279 0.44796 0.71741
 C2234 C 0.28847 0.45364 0.72930
 C2235 C 0.28216 0.46492 0.73558
 C2236 C 0.27005 0.47066 0.73005
 C2237 C 0.26455 0.46500 0.71796
 C2238 C 0.27088 0.45372 0.71170
 H2239 H 0.31635 0.41213 0.71501
 H2240 H 0.32602 0.39110 0.70531
 H2241 H 0.29384 0.39098 0.67457
 H2242 H 0.28438 0.41203 0.68441
 H2243 H 0.29767 0.44923 0.73382
 H2244 H 0.28664 0.46901 0.74489
 H2245 H 0.25523 0.46915 0.71345
 H2246 H 0.26638 0.44938 0.70252
 C2247 C 0.29955 0.91361 0.20007
 C2248 C 0.29356 0.90774 0.18843
 C2249 C 0.29903 0.89569 0.18282
 C2250 C 0.31061 0.88930 0.18879
 C2251 C 0.31657 0.89534 0.20049
 C2252 C 0.31107 0.90740 0.20607
 C2253 C 0.29370 0.92584 0.20599
 C2254 C 0.28866 0.93598 0.21103
 C2255 C 0.28247 0.94794 0.21717
 C2256 C 0.27049 0.95362 0.21151
 C2257 C 0.26412 0.96487 0.21780
 C2258 C 0.26965 0.97057 0.22985
 C2259 C 0.28181 0.96490 0.23534
 C2260 C 0.28816 0.95365 0.22904
 H2261 H 0.28461 0.91245 0.18371
 H2262 H 0.29411 0.89142 0.17385
 H2263 H 0.32547 0.89082 0.20541
 H2264 H 0.31577 0.91185 0.21511
 H2265 H 0.26598 0.94925 0.20235
 H2266 H 0.25476 0.96896 0.21333
 H2267 H 0.28631 0.96901 0.24463
 H2268 H 0.29740 0.94930 0.23352
 C2269 C 0.79953 0.41357 0.20051
 C2270 C 0.79338 0.40762 0.18900
 C2271 C 0.79894 0.39569 0.18324
 C2272 C 0.81075 0.38949 0.18893
 C2273 C 0.81682 0.39556 0.20056
 C2274 C 0.81123 0.40750 0.20630
 C2275 C 0.79373 0.42581 0.20646
 C2276 C 0.78877 0.43601 0.21147
 C2277 C 0.78268 0.44803 0.21756
 C2278 C 0.77081 0.45385 0.21183
 C2279 C 0.76445 0.46508 0.21815
 C2280 C 0.76989 0.47063 0.23032
 C2281 C 0.78200 0.46489 0.23583
 C2282 C 0.78834 0.45366 0.22949
 H2283 H 0.78426 0.41221 0.18448
 H2284 H 0.79391 0.39137 0.17435
 H2285 H 0.82588 0.39116 0.20530
 H2286 H 0.81604 0.41198 0.21526
 H2287 H 0.76635 0.44958 0.20259
 H2288 H 0.75515 0.46926 0.21363
 H2289 H 0.78646 0.46892 0.24517
 H2290 H 0.79754 0.44923 0.23400
 C2291 C 0.79987 0.91387 0.70058
 C2292 C 0.81157 0.90778 0.70637
 C2293 C 0.81702 0.89572 0.70076
 C2294 C 0.81085 0.88955 0.68924
 C2295 C 0.79912 0.89584 0.68346
 C2296 C 0.79369 0.90790 0.68909
 C2297 C 0.79402 0.92606 0.70658
 C2298 C 0.78895 0.93615 0.71168
 C2299 C 0.78268 0.94803 0.71787
 C2300 C 0.78822 0.95363 0.72986
 C2301 C 0.78177 0.96480 0.73621
 C2302 C 0.76966 0.97049 0.73064
 C2303 C 0.76426 0.96488 0.71849
 C2304 C 0.77074 0.95372 0.71216
 H2305 H 0.81644 0.91233 0.71527
 H2306 H 0.82606 0.89130 0.70551
 H2307 H 0.79403 0.89149 0.67462
 H2308 H 0.78463 0.91253 0.68452
 H2309 H 0.79743 0.94926 0.73440
 H2310 H 0.78615 0.96882 0.74559
 H2311 H 0.75493 0.96898 0.71397
 H2312 H 0.76633 0.94942 0.70291
 C2313 C 0.70011 0.58648 0.70068
 C2314 C 0.70631 0.59254 0.68925
 C2315 C 0.70085 0.60461 0.68362
 C2316 C 0.68907 0.61081 0.68935
 C2317 C 0.68290 0.60457 0.70085
 C2318 C 0.68839 0.59251 0.70646
 C2319 C 0.70593 0.57422 0.70662
 C2320 C 0.71096 0.56406 0.71167
 C2321 C 0.71717 0.55209 0.71779
 C2322 C 0.72908 0.54638 0.71207
 C2323 C 0.73552 0.53516 0.71837
 C2324 C 0.73013 0.52950 0.73052
 C2325 C 0.71802 0.53519 0.73607
 C2326 C 0.71160 0.54641 0.72975
 H2327 H 0.71541 0.58798 0.68471
 H2328 H 0.70594 0.60904 0.67482
 H2329 H 0.67384 0.60895 0.70557
 H2330 H 0.68352 0.58791 0.71533
 H2331 H 0.73350 0.55072 0.70284
 H2332 H 0.74484 0.53105 0.71385
 H2333 H 0.71363 0.53111 0.74543
 H2334 H 0.70240 0.55077 0.73428
 C2335 C 0.70024 0.08630 0.20060
 C2336 C 0.70643 0.09235 0.18916
 C2337 C 0.70095 0.10438 0.18349
 C2338 C 0.68915 0.11057 0.18920
 C2339 C 0.68299 0.10435 0.20070
 C2340 C 0.68851 0.09231 0.20635
 C2341 C 0.70610 0.07408 0.20659
 C2342 C 0.71114 0.06395 0.21167
 C2343 C 0.71737 0.05200 0.21784
 C2344 C 0.72928 0.04629 0.21212
 C2345 C 0.73570 0.03505 0.21842
 C2346 C 0.73028 0.02939 0.23055
 C2347 C 0.71818 0.03509 0.23610
 C2348 C 0.71178 0.04633 0.22978
 H2349 H 0.71555 0.08779 0.18464
 H2350 H 0.70604 0.10880 0.17468
 H2351 H 0.67392 0.10872 0.20541
 H2352 H 0.68364 0.08773 0.21524
 H2353 H 0.73371 0.05063 0.20290
 H2354 H 0.74501 0.03094 0.21390
 H2355 H 0.71376 0.03101 0.24544
 H2356 H 0.70258 0.05070 0.23431
 C2357 C 0.20017 0.58652 0.20042
 C2358 C 0.20623 0.59244 0.18885
 C2359 C 0.20073 0.60447 0.18317
 C2360 C 0.18906 0.61078 0.18901
 C2361 C 0.18304 0.60468 0.20066
 C2362 C 0.18857 0.59265 0.20631
 C2363 C 0.20601 0.57429 0.20640
 C2364 C 0.21105 0.56415 0.21147
 C2365 C 0.21724 0.55219 0.21763
 C2366 C 0.22914 0.54645 0.21192
 C2367 C 0.23553 0.53520 0.21821
 C2368 C 0.23010 0.52955 0.23034
 C2369 C 0.21802 0.53527 0.23589
 C2370 C 0.21165 0.54653 0.22958
 H2371 H 0.21524 0.58779 0.18422
 H2372 H 0.20570 0.60878 0.17424
 H2373 H 0.17409 0.60915 0.20549
 H2374 H 0.18381 0.58816 0.21530
 H2375 H 0.23358 0.55078 0.20269
 H2376 H 0.24484 0.53106 0.21369
 H2377 H 0.21359 0.53120 0.24524
 H2378 H 0.20246 0.55092 0.23411
 C2379 C 0.20032 0.08622 0.70083
 C2380 C 0.20648 0.09227 0.68937
 C2381 C 0.20091 0.10425 0.68365
 C2382 C 0.18906 0.11037 0.68932
 C2383 C 0.18295 0.10417 0.70086
 C2384 C 0.18855 0.09219 0.70656
 C2385 C 0.20621 0.07402 0.70683
 C2386 C 0.21126 0.06388 0.71189
 C2387 C 0.21747 0.05191 0.71802
 C2388 C 0.22935 0.04617 0.71227
 C2389 C 0.23575 0.03490 0.71852
 C2390 C 0.23034 0.02923 0.73066
 C2391 C 0.21826 0.03494 0.73624
 C2392 C 0.21189 0.04622 0.72996
 H2393 H 0.21562 0.08775 0.68487
 H2394 H 0.20596 0.10864 0.67481
 H2395 H 0.17386 0.10850 0.70557
 H2396 H 0.18371 0.08760 0.71546
 H2397 H 0.23377 0.05052 0.70304
 H2398 H 0.24504 0.03076 0.71397
 H2399 H 0.21386 0.03084 0.74558
 H2400 H 0.20271 0.05060 0.73452
 C2401 C 0.29955 0.58652 0.29932
 C2402 C 0.31108 0.59274 0.29338
 C2403 C 0.31662 0.60473 0.29906
 C2404 C 0.31068 0.61069 0.31080
 C2405 C 0.29907 0.60430 0.31669
 C2406 C 0.29356 0.59232 0.31097
 C2407 C 0.29372 0.57430 0.29334
 C2408 C 0.28872 0.56415 0.28828
 C2409 C 0.28257 0.55217 0.28215
 C2410 C 0.28821 0.54653 0.27023
 C2411 C 0.28189 0.53525 0.26394
 C2412 C 0.26981 0.52949 0.26950
 C2413 C 0.26435 0.53511 0.28161
 C2414 C 0.27070 0.54639 0.28788
 H2415 H 0.31578 0.58834 0.28432
 H2416 H 0.32552 0.60927 0.29418
 H2417 H 0.29418 0.60850 0.32570
 H2418 H 0.28460 0.58759 0.31564
 H2419 H 0.29738 0.55096 0.26569
 H2420 H 0.28633 0.53120 0.25461
 H2421 H 0.25506 0.53095 0.28613
 H2422 H 0.26623 0.55070 0.29709
 C2423 C 0.29978 0.08635 0.79965
 C2424 C 0.31139 0.09251 0.79377
 C2425 C 0.31688 0.10454 0.79941
 C2426 C 0.31084 0.11061 0.81105
 C2427 C 0.29917 0.10428 0.81687
 C2428 C 0.29370 0.09225 0.81121
 C2429 C 0.29398 0.07413 0.79368
 C2430 C 0.28899 0.06398 0.78861
 C2431 C 0.28286 0.05200 0.78246
 C2432 C 0.28847 0.04640 0.77051
 C2433 C 0.28216 0.03512 0.76421
 C2434 C 0.27012 0.02932 0.76979
 C2435 C 0.26467 0.03491 0.78193
 C2436 C 0.27101 0.04618 0.78820
 H2437 H 0.31616 0.08804 0.78479
 H2438 H 0.32584 0.10903 0.79458
 H2439 H 0.29418 0.10856 0.82579
 H2440 H 0.28469 0.08758 0.81583
 H2441 H 0.29762 0.05086 0.76596
 H2442 H 0.28658 0.03110 0.75487
 H2443 H 0.25540 0.03071 0.78646
 H2444 H 0.26656 0.05046 0.79743
 C2445 C 0.79981 0.58639 0.79951
 C2446 C 0.81154 0.59243 0.79377
 C2447 C 0.81704 0.60446 0.79942
 C2448 C 0.81086 0.61064 0.81093
 C2449 C 0.79907 0.60441 0.81663
 C2450 C 0.79360 0.59239 0.81095
 C2451 C 0.79399 0.57417 0.79354
 C2452 C 0.78897 0.56403 0.78849
 C2453 C 0.78280 0.55206 0.78236
 C2454 C 0.78842 0.54643 0.77042
 C2455 C 0.78207 0.53517 0.76412
 C2456 C 0.76999 0.52942 0.76968
 C2457 C 0.76455 0.53503 0.78181
 C2458 C 0.77092 0.54629 0.78809
 H2459 H 0.81642 0.58788 0.78489
 H2460 H 0.82612 0.60885 0.79473
 H2461 H 0.79397 0.60880 0.82544
 H2462 H 0.78449 0.58781 0.81547
 H2463 H 0.79759 0.55085 0.76589
 H2464 H 0.78649 0.53113 0.75478
 H2465 H 0.75526 0.53087 0.78633
 H2466 H 0.76647 0.55060 0.79730
 C2467 C 0.79990 0.08631 0.29959
 C2468 C 0.81164 0.09235 0.29386
 C2469 C 0.81710 0.10440 0.29950
 C2470 C 0.81089 0.11060 0.31097
 C2471 C 0.79909 0.10437 0.31666
 C2472 C 0.79365 0.09233 0.31100
 C2473 C 0.79411 0.07407 0.29362
 C2474 C 0.78911 0.06393 0.28855
 C2475 C 0.78294 0.05197 0.28240
 C2476 C 0.78857 0.04633 0.27047
 C2477 C 0.78221 0.03509 0.26415
 C2478 C 0.77012 0.02935 0.26969
 C2479 C 0.76467 0.03496 0.28181
 C2480 C 0.77105 0.04620 0.28811
 H2481 H 0.81654 0.08778 0.28500
 H2482 H 0.82618 0.10879 0.29481
 H2483 H 0.79395 0.10878 0.32544
 H2484 H 0.78453 0.08775 0.31549
 H2485 H 0.79776 0.05074 0.26595
 H2486 H 0.78665 0.03104 0.25482
 H2487 H 0.75536 0.03081 0.28632
 H2488 H 0.76659 0.05051 0.29733
 C2489 C 0.69874 0.41402 0.29966
 C2490 C 0.68695 0.40801 0.29398
 C2491 C 0.68150 0.39594 0.29963
 C2492 C 0.68777 0.38971 0.31107
 C2493 C 0.69955 0.39594 0.31679
 C2494 C 0.70498 0.40799 0.31111
 C2495 C 0.70470 0.42614 0.29356
 C2496 C 0.70993 0.43615 0.28841
 C2497 C 0.71640 0.44793 0.28218
 C2498 C 0.71094 0.45365 0.27019
 C2499 C 0.71754 0.46475 0.26384
 C2500 C 0.72972 0.47029 0.26942
 C2501 C 0.73505 0.46456 0.28156
 C2502 C 0.72843 0.45345 0.28789
 H2503 H 0.68202 0.41260 0.28512
 H2504 H 0.67236 0.39155 0.29503
 H2505 H 0.70474 0.39144 0.32551
 H2506 H 0.71414 0.41252 0.31557
 H2507 H 0.70167 0.44942 0.26565
 H2508 H 0.71320 0.46887 0.25448
 H2509 H 0.74443 0.46853 0.28609
 H2510 H 0.73278 0.44908 0.29714
 C2511 C 0.69873 0.91407 0.79970
 C2512 C 0.68708 0.90795 0.79386
 C2513 C 0.68160 0.89589 0.79950
 C2514 C 0.68773 0.88976 0.81108
 C2515 C 0.69938 0.89610 0.81694
 C2516 C 0.70483 0.90815 0.81128
 C2517 C 0.70469 0.92620 0.79363
 C2518 C 0.70989 0.93623 0.78850
 C2519 C 0.71633 0.94804 0.78230
 C2520 C 0.71084 0.95376 0.77032
 C2521 C 0.71739 0.96490 0.76399
 C2522 C 0.72955 0.97046 0.76957
 C2523 C 0.73490 0.96473 0.78171
 C2524 C 0.72833 0.95359 0.78801
 H2525 H 0.68226 0.91246 0.78490
 H2526 H 0.67258 0.89141 0.79477
 H2527 H 0.70446 0.89169 0.82577
 H2528 H 0.71388 0.91277 0.81586
 H2529 H 0.70158 0.94951 0.76578
 H2530 H 0.71303 0.96903 0.75464
 H2531 H 0.74427 0.96872 0.78624
 H2532 H 0.73270 0.94921 0.79726
 C2533 C 0.20059 0.41370 0.79926
 C2534 C 0.18900 0.40751 0.79337
 C2535 C 0.18345 0.39554 0.79912
 C2536 C 0.18942 0.38956 0.81087
 C2537 C 0.20108 0.39591 0.81669
 C2538 C 0.20661 0.40788 0.81092
 C2539 C 0.20644 0.42591 0.79322
 C2540 C 0.21146 0.43604 0.78812
 C2541 C 0.21765 0.44800 0.78194
 C2542 C 0.21201 0.45367 0.77000
 C2543 C 0.21835 0.46494 0.76368
 C2544 C 0.23044 0.47068 0.76922
 C2545 C 0.23592 0.46502 0.78134
 C2546 C 0.22956 0.45376 0.78764
 H2547 H 0.18428 0.41191 0.78431
 H2548 H 0.17452 0.39101 0.79428
 H2549 H 0.20601 0.39170 0.82570
 H2550 H 0.21561 0.41257 0.81554
 H2551 H 0.20281 0.44927 0.76549
 H2552 H 0.21390 0.46901 0.75434
 H2553 H 0.24524 0.46916 0.78584
 H2554 H 0.23404 0.44942 0.79685
 C2555 C 0.20052 0.91366 0.29938
 C2556 C 0.18873 0.90770 0.29367
 C2557 C 0.18316 0.89573 0.29938
 C2558 C 0.18931 0.88952 0.31091
 C2559 C 0.20118 0.89565 0.31656
 C2560 C 0.20672 0.90762 0.31083
 C2561 C 0.20637 0.92586 0.29337
 C2562 C 0.21138 0.93599 0.28827
 C2563 C 0.21752 0.94795 0.28207
 C2564 C 0.21177 0.95364 0.27020
 C2565 C 0.21806 0.96490 0.26383
 C2566 C 0.23022 0.97060 0.26926
 C2567 C 0.23580 0.96494 0.28132
 C2568 C 0.22949 0.95368 0.28767
 H2569 H 0.18386 0.91229 0.28478
 H2570 H 0.17405 0.89139 0.29469
 H2571 H 0.20626 0.89125 0.32540
 H2572 H 0.21588 0.91214 0.31532
 H2573 H 0.20252 0.94926 0.26576
 H2574 H 0.21353 0.96899 0.25454
 H2575 H 0.24517 0.96906 0.28575
 H2576 H 0.23404 0.94933 0.29684
 C2577 C 0.41356 0.29983 0.70065
 C2578 C 0.40749 0.29361 0.68924
 C2579 C 0.39542 0.29906 0.68359
 C2580 C 0.38922 0.31084 0.68928
 C2581 C 0.39546 0.31703 0.70077
 C2582 C 0.40753 0.31155 0.70639
 C2583 C 0.42581 0.29402 0.70661
 C2584 C 0.43597 0.28900 0.71166
 C2585 C 0.44795 0.28280 0.71779
 C2586 C 0.45370 0.27093 0.71204
 C2587 C 0.46493 0.26451 0.71833
 C2588 C 0.47056 0.26988 0.73049
 C2589 C 0.46484 0.28194 0.73608
 C2590 C 0.45360 0.28835 0.72976
 H2591 H 0.41205 0.28450 0.68473
 H2592 H 0.39098 0.29394 0.67481
 H2593 H 0.39108 0.32609 0.70547
 H2594 H 0.41213 0.31643 0.71525
 H2595 H 0.44937 0.26654 0.70280
 H2596 H 0.46907 0.25522 0.71379
 H2597 H 0.46891 0.28632 0.74544
 H2598 H 0.44920 0.29751 0.73431
 C2599 C 0.41349 0.79998 0.20048
 C2600 C 0.40725 0.81149 0.20643
 C2601 C 0.39519 0.81696 0.20078
 C2602 C 0.38916 0.81098 0.18908
 C2603 C 0.39558 0.79942 0.18318
 C2604 C 0.40764 0.79397 0.18885
 C2605 C 0.42573 0.79416 0.20647
 C2606 C 0.43587 0.78912 0.21154
 C2607 C 0.44783 0.78290 0.21770
 C2608 C 0.45347 0.78845 0.22967
 C2609 C 0.46471 0.78204 0.23599
 C2610 C 0.47043 0.76997 0.23042
 C2611 C 0.46480 0.76459 0.21827
 C2612 C 0.45357 0.77101 0.21197
 H2613 H 0.41168 0.81621 0.21546
 H2614 H 0.39063 0.82585 0.20565
 H2615 H 0.39133 0.79447 0.17421
 H2616 H 0.41237 0.78503 0.18418
 H2617 H 0.44908 0.79762 0.23421
 H2618 H 0.46877 0.78643 0.24535
 H2619 H 0.46893 0.75529 0.21375
 H2620 H 0.44924 0.76661 0.20273
 C2621 C 0.91331 0.29985 0.20060
 C2622 C 0.90725 0.31153 0.20637
 C2623 C 0.89529 0.31713 0.20063
 C2624 C 0.88919 0.31109 0.18900
 C2625 C 0.89537 0.29928 0.18332
 C2626 C 0.90733 0.29372 0.18909
 C2627 C 0.92558 0.29405 0.20653
 C2628 C 0.93580 0.28909 0.21153
 C2629 C 0.94786 0.28298 0.21760
 C2630 C 0.95353 0.28859 0.22953
 C2631 C 0.96480 0.28224 0.23585
 C2632 C 0.97052 0.27015 0.23031
 C2633 C 0.96492 0.26476 0.21815
 C2634 C 0.95365 0.27114 0.21185
 H2635 H 0.91176 0.31632 0.21533
 H2636 H 0.89090 0.32617 0.20535
 H2637 H 0.89104 0.29427 0.17444
 H2638 H 0.91190 0.28462 0.18458
 H2639 H 0.94912 0.29777 0.23405
 H2640 H 0.96887 0.28666 0.24519
 H2641 H 0.96908 0.25548 0.21362
 H2642 H 0.94934 0.26671 0.20261
 C2643 C 0.91370 0.80015 0.70049
 C2644 C 0.90766 0.79400 0.68902
 C2645 C 0.89557 0.79944 0.68341
 C2646 C 0.88931 0.81115 0.68920
 C2647 C 0.89554 0.81729 0.70071
 C2648 C 0.90763 0.81182 0.70630
 C2649 C 0.92592 0.79428 0.70648
 C2650 C 0.93604 0.78920 0.71158
 C2651 C 0.94794 0.78295 0.71781
 C2652 C 0.95361 0.77098 0.71219
 C2653 C 0.96479 0.76453 0.71857
 C2654 C 0.97044 0.76997 0.73068
 C2655 C 0.96476 0.78210 0.73617
 C2656 C 0.95358 0.78853 0.72977
 H2657 H 0.91227 0.78495 0.68444
 H2658 H 0.89116 0.79438 0.67459
 H2659 H 0.89113 0.82631 0.70547
 H2660 H 0.91223 0.81666 0.71519
 H2661 H 0.94929 0.76654 0.70297
 H2662 H 0.96887 0.75517 0.71412
 H2663 H 0.96881 0.78652 0.74552
 H2664 H 0.94923 0.79776 0.73424
 C2665 C 0.58611 0.30064 0.30036
 C2666 C 0.59240 0.31204 0.29424
 C2667 C 0.60461 0.31740 0.29967
 C2668 C 0.61074 0.31139 0.31132
 C2669 C 0.60416 0.30004 0.31751
 C2670 C 0.59196 0.29472 0.31205
 C2671 C 0.57391 0.29472 0.29439
 C2672 C 0.56385 0.28957 0.28927
 C2673 C 0.55204 0.28323 0.28297
 C2674 C 0.54642 0.28883 0.27100
 C2675 C 0.53533 0.28234 0.26452
 C2676 C 0.52974 0.27012 0.26994
 C2677 C 0.53535 0.26467 0.28208
 C2678 C 0.54644 0.27119 0.28854
 H2679 H 0.58795 0.31671 0.28517
 H2680 H 0.60927 0.32614 0.29461
 H2681 H 0.60844 0.29514 0.32650
 H2682 H 0.58718 0.28587 0.31687
 H2683 H 0.55071 0.29812 0.26658
 H2684 H 0.53128 0.28679 0.25518
 H2685 H 0.53132 0.25527 0.28650
 H2686 H 0.55075 0.26673 0.29778
 C2687 C 0.58582 0.80104 0.80027
 C2688 C 0.59231 0.81226 0.79401
 C2689 C 0.60457 0.81753 0.79942
 C2690 C 0.61057 0.81162 0.81119
 C2691 C 0.60380 0.80047 0.81752
 C2692 C 0.59154 0.79523 0.81209
 C2693 C 0.57358 0.79517 0.79431
 C2694 C 0.56350 0.79004 0.78921
 C2695 C 0.55166 0.78367 0.78297
 C2696 C 0.54605 0.78914 0.77093
 C2697 C 0.53497 0.78257 0.76450
 C2698 C 0.52936 0.77041 0.77003
 C2699 C 0.53497 0.76510 0.78224
 C2700 C 0.54605 0.77168 0.78865
 H2701 H 0.58797 0.81685 0.78485
 H2702 H 0.60938 0.82612 0.79425
 H2703 H 0.60796 0.79565 0.82661
 H2704 H 0.58661 0.78653 0.81702
 H2705 H 0.55035 0.79838 0.76641
 H2706 H 0.53093 0.78691 0.75509
 H2707 H 0.53093 0.75574 0.78675
 H2708 H 0.55034 0.76732 0.79794
 C2709 C 0.08679 0.29987 0.79944
 C2710 C 0.09296 0.31144 0.79351
 C2711 C 0.10495 0.31702 0.79921
 C2712 C 0.11095 0.31109 0.81096
 C2713 C 0.10463 0.29943 0.81683
 C2714 C 0.09265 0.29389 0.81110
 C2715 C 0.07457 0.29402 0.79347
 C2716 C 0.06441 0.28899 0.78842
 C2717 C 0.05242 0.28282 0.78230
 C2718 C 0.04677 0.28843 0.77034
 C2719 C 0.03548 0.28209 0.76405
 C2720 C 0.02971 0.27004 0.76965
 C2721 C 0.03536 0.26461 0.78179
 C2722 C 0.04664 0.27096 0.78806
 H2723 H 0.08854 0.31614 0.78444
 H2724 H 0.10946 0.32594 0.79434
 H2725 H 0.10887 0.29453 0.82583
 H2726 H 0.08798 0.28489 0.81575
 H2727 H 0.05119 0.29759 0.76578
 H2728 H 0.03142 0.28651 0.75470
 H2729 H 0.03119 0.25533 0.78635
 H2730 H 0.05096 0.26652 0.79729
 C2731 C 0.08667 0.79993 0.29934
 C2732 C 0.09265 0.81170 0.29361
 C2733 C 0.10464 0.81726 0.29932
 C2734 C 0.11083 0.81111 0.31087
 C2735 C 0.10469 0.79926 0.31652
 C2736 C 0.09271 0.79372 0.31079
 C2737 C 0.07444 0.79410 0.29336
 C2738 C 0.06428 0.78909 0.28831
 C2739 C 0.05229 0.78292 0.28221
 C2740 C 0.04659 0.78853 0.27027
 C2741 C 0.03530 0.78219 0.26401
 C2742 C 0.02957 0.77012 0.26961
 C2743 C 0.03524 0.76469 0.28174
 C2744 C 0.04653 0.77106 0.28798
 H2745 H 0.08807 0.81657 0.28472
 H2746 H 0.10899 0.82636 0.29463
 H2747 H 0.10908 0.79418 0.32536
 H2748 H 0.08817 0.78458 0.31528
 H2749 H 0.05100 0.79770 0.26570
 H2750 H 0.03121 0.78661 0.25466
 H2751 H 0.03110 0.75540 0.28630
 H2752 H 0.05088 0.76662 0.29721
 C2753 C 0.58642 0.70036 0.70094
 C2754 C 0.59246 0.68862 0.70668
 C2755 C 0.60449 0.68311 0.70102
 C2756 C 0.61068 0.68930 0.68951
 C2757 C 0.60446 0.70110 0.68381
 C2758 C 0.59244 0.70657 0.68949
 C2759 C 0.57421 0.70619 0.70694
 C2760 C 0.56407 0.71122 0.71203
 C2761 C 0.55213 0.71743 0.71819
 C2762 C 0.54651 0.71185 0.73017
 C2763 C 0.53529 0.71825 0.73650
 C2764 C 0.52955 0.73033 0.73093
 C2765 C 0.53516 0.73573 0.71877
 C2766 C 0.54638 0.72932 0.71246
 H2767 H 0.58789 0.68373 0.71557
 H2768 H 0.60887 0.67403 0.70572
 H2769 H 0.60886 0.70620 0.67499
 H2770 H 0.58786 0.71569 0.68498
 H2771 H 0.55091 0.70266 0.73471
 H2772 H 0.53125 0.71384 0.74587
 H2773 H 0.53101 0.74503 0.71423
 H2774 H 0.55067 0.73374 0.70321
 C2775 C 0.58643 0.20005 0.20053
 C2776 C 0.59247 0.18832 0.20629
 C2777 C 0.60453 0.18284 0.20067
 C2778 C 0.61075 0.18904 0.18918
 C2779 C 0.60454 0.20083 0.18346
 C2780 C 0.59248 0.20628 0.18910
 C2781 C 0.57421 0.20589 0.20650
 C2782 C 0.56409 0.21094 0.21158
 C2783 C 0.55218 0.21720 0.21775
 C2784 C 0.54650 0.21160 0.22969
 C2785 C 0.53534 0.21806 0.23606
 C2786 C 0.52973 0.23024 0.23056
 C2787 C 0.53539 0.23567 0.21843
 C2788 C 0.54654 0.22919 0.21209
 H2789 H 0.58788 0.18343 0.21516
 H2790 H 0.60891 0.17377 0.20539
 H2791 H 0.60897 0.20596 0.17467
 H2792 H 0.58792 0.21540 0.18458
 H2793 H 0.55081 0.20235 0.23418
 H2794 H 0.53126 0.21364 0.24539
 H2795 H 0.53134 0.24504 0.21396
 H2796 H 0.55089 0.23363 0.20287
 C2797 C 0.08641 0.70041 0.20055
 C2798 C 0.09254 0.68877 0.20641
 C2799 C 0.10455 0.68324 0.20074
 C2800 C 0.11062 0.68927 0.18908
 C2801 C 0.10432 0.70097 0.18327
 C2802 C 0.09232 0.70648 0.18897
 C2803 C 0.07422 0.70627 0.20655
 C2804 C 0.06410 0.71131 0.21164
 C2805 C 0.05217 0.71753 0.21781
 C2806 C 0.04656 0.71195 0.22979
 C2807 C 0.03532 0.71832 0.23612
 C2808 C 0.02956 0.73039 0.23053
 C2809 C 0.03517 0.73581 0.21837
 C2810 C 0.04640 0.72941 0.21207
 H2811 H 0.08807 0.68400 0.21540
 H2812 H 0.10902 0.67426 0.20555
 H2813 H 0.10860 0.70595 0.17433
 H2814 H 0.08767 0.71551 0.18436
 H2815 H 0.05097 0.70277 0.23435
 H2816 H 0.03129 0.71392 0.24548
 H2817 H 0.03101 0.74510 0.21383
 H2818 H 0.05069 0.73383 0.20282
 C2819 C 0.08645 0.20005 0.70083
 C2820 C 0.09247 0.20624 0.68937
 C2821 C 0.10443 0.20069 0.68363
 C2822 C 0.11056 0.18882 0.68928
 C2823 C 0.10437 0.18267 0.70081
 C2824 C 0.09242 0.18825 0.70653
 C2825 C 0.07428 0.20594 0.70685
 C2826 C 0.06417 0.21101 0.71193
 C2827 C 0.05224 0.21726 0.71806
 C2828 C 0.04652 0.22915 0.71228
 C2829 C 0.03528 0.23558 0.71853
 C2830 C 0.02963 0.23020 0.73068
 C2831 C 0.03534 0.21812 0.73630
 C2832 C 0.04658 0.21171 0.73003
 H2833 H 0.08795 0.21540 0.68490
 H2834 H 0.10881 0.20576 0.67480
 H2835 H 0.10871 0.17356 0.70550
 H2836 H 0.08785 0.18339 0.71543
 H2837 H 0.05085 0.23354 0.70303
 H2838 H 0.03116 0.24487 0.71395
 H2839 H 0.03127 0.21374 0.74566
 H2840 H 0.05096 0.20253 0.73460
 C2841 C 0.41326 0.70036 0.29930
 C2842 C 0.40743 0.70632 0.31096
 C2843 C 0.39545 0.70079 0.31667
 C2844 C 0.38908 0.68917 0.31079
 C2845 C 0.39506 0.68327 0.29905
 C2846 C 0.40706 0.68883 0.29336
 C2847 C 0.42548 0.70620 0.29332
 C2848 C 0.43563 0.71123 0.28827
 C2849 C 0.44761 0.71739 0.28215
 C2850 C 0.45339 0.72925 0.28790
 C2851 C 0.46468 0.73561 0.28165
 C2852 C 0.47033 0.73018 0.26954
 C2853 C 0.46457 0.71813 0.26396
 C2854 C 0.45328 0.71179 0.27023
 H2855 H 0.41214 0.71528 0.31562
 H2856 H 0.39124 0.70566 0.32569
 H2857 H 0.39053 0.67437 0.29417
 H2858 H 0.41147 0.68415 0.28430
 H2859 H 0.44906 0.73369 0.29711
 H2860 H 0.46883 0.74489 0.28619
 H2861 H 0.46865 0.71371 0.25463
 H2862 H 0.44886 0.70263 0.26568
 C2863 C 0.41336 0.20029 0.79949
 C2864 C 0.40746 0.20635 0.81107
 C2865 C 0.39545 0.20085 0.81676
 C2866 C 0.38914 0.18917 0.81094
 C2867 C 0.39522 0.18315 0.79930
 C2868 C 0.40723 0.18868 0.79364
 C2869 C 0.42558 0.20613 0.79350
 C2870 C 0.43572 0.21114 0.78842
 C2871 C 0.44770 0.21730 0.78228
 C2872 C 0.45351 0.22914 0.78803
 C2873 C 0.46479 0.23549 0.78177
 C2874 C 0.47041 0.23007 0.76963
 C2875 C 0.46462 0.21804 0.76404
 C2876 C 0.45332 0.21171 0.77032
 H2877 H 0.41212 0.21537 0.81567
 H2878 H 0.39116 0.20581 0.82568
 H2879 H 0.39075 0.17419 0.79449
 H2880 H 0.41171 0.18392 0.78465
 H2881 H 0.44920 0.23357 0.79726
 H2882 H 0.46898 0.24475 0.78632
 H2883 H 0.46867 0.21363 0.75470
 H2884 H 0.44888 0.20257 0.76577
 C2885 C 0.91338 0.70028 0.79954
 C2886 C 0.90738 0.68854 0.79380
 C2887 C 0.89536 0.68299 0.79946
 C2888 C 0.88916 0.68913 0.81097
 C2889 C 0.89533 0.70094 0.81666
 C2890 C 0.90734 0.70645 0.81098
 C2891 C 0.92560 0.70613 0.79358
 C2892 C 0.93575 0.71117 0.78855
 C2893 C 0.94774 0.71736 0.78245
 C2894 C 0.95347 0.71172 0.77057
 C2895 C 0.96476 0.71808 0.76431
 C2896 C 0.97044 0.73018 0.76986
 C2897 C 0.96473 0.73564 0.78193
 C2898 C 0.95344 0.72926 0.78817
 H2899 H 0.91196 0.68368 0.78492
 H2900 H 0.89101 0.67391 0.79476
 H2901 H 0.89092 0.70601 0.82547
 H2902 H 0.91189 0.71557 0.81550
 H2903 H 0.94910 0.70252 0.76605
 H2904 H 0.96888 0.71363 0.75502
 H2905 H 0.96884 0.74495 0.78645
 H2906 H 0.94906 0.73373 0.79735
 C2907 C 0.91347 0.20012 0.29951
 C2908 C 0.90743 0.18838 0.29380
 C2909 C 0.89538 0.18290 0.29944
 C2910 C 0.88916 0.18910 0.31091
 C2911 C 0.89537 0.20090 0.31659
 C2912 C 0.90742 0.20635 0.31092
 C2913 C 0.92569 0.20594 0.29351
 C2914 C 0.93583 0.21098 0.28842
 C2915 C 0.94777 0.21720 0.28226
 C2916 C 0.95341 0.21165 0.27030
 C2917 C 0.96463 0.21806 0.26396
 C2918 C 0.97034 0.23015 0.26952
 C2919 C 0.96472 0.23554 0.28166
 C2920 C 0.95351 0.22910 0.28798
 H2921 H 0.91202 0.18348 0.28494
 H2922 H 0.89101 0.17382 0.29477
 H2923 H 0.89096 0.20602 0.32537
 H2924 H 0.91199 0.21547 0.31541
 H2925 H 0.94903 0.20246 0.26577
 H2926 H 0.96868 0.21367 0.25461
 H2927 H 0.96885 0.24484 0.28619
 H2928 H 0.94920 0.23351 0.29722
 C2929 C 0.29948 0.29956 0.58629
 C2930 C 0.31110 0.29356 0.59232
 C2931 C 0.31669 0.29912 0.60430
 C2932 C 0.31072 0.31079 0.61045
 C2933 C 0.29903 0.31676 0.60425
 C2934 C 0.29347 0.31117 0.59227
 C2935 C 0.29358 0.29365 0.57412
 C2936 C 0.28853 0.28860 0.56402
 C2937 C 0.28238 0.28243 0.55211
 C2938 C 0.28809 0.27050 0.54646
 C2939 C 0.28179 0.26415 0.53524
 C2940 C 0.26966 0.26966 0.52954
 C2941 C 0.26409 0.28177 0.53519
 C2942 C 0.27042 0.28809 0.54641
 H2943 H 0.31582 0.28455 0.58778
 H2944 H 0.32565 0.29420 0.60868
 H2945 H 0.29410 0.32572 0.60860
 H2946 H 0.28445 0.31589 0.58770
 H2947 H 0.29732 0.26600 0.55083
 H2948 H 0.28630 0.25481 0.53118
 H2949 H 0.25474 0.28624 0.53109
 H2950 H 0.26588 0.29730 0.55074
 C2951 C 0.29960 0.79965 0.08591
 C2952 C 0.29359 0.81125 0.09188
 C2953 C 0.29912 0.81683 0.10387
 C2954 C 0.31079 0.81087 0.11010
 C2955 C 0.31676 0.79919 0.10396
 C2956 C 0.31121 0.79364 0.09196
 C2957 C 0.29372 0.79375 0.07372
 C2958 C 0.28869 0.78872 0.06361
 C2959 C 0.28252 0.78257 0.05168
 C2960 C 0.27061 0.78832 0.04595
 C2961 C 0.26426 0.78202 0.03473
 C2962 C 0.26973 0.76986 0.02911
 C2963 C 0.28182 0.76427 0.03484
 C2964 C 0.28815 0.77059 0.04606
 H2965 H 0.28458 0.81598 0.08729
 H2966 H 0.29418 0.82579 0.10821
 H2967 H 0.32572 0.79426 0.10836
 H2968 H 0.31593 0.78463 0.08743
 H2969 H 0.26614 0.79757 0.05025
 H2970 H 0.25494 0.78656 0.03061
 H2971 H 0.28626 0.75489 0.03080
 H2972 H 0.29734 0.76603 0.05045
 C2973 C 0.79950 0.29998 0.08597
 C2974 C 0.79351 0.31160 0.09195
 C2975 C 0.79904 0.31715 0.10396
 C2976 C 0.81069 0.31114 0.11019
 C2977 C 0.81670 0.29951 0.10399
 C2978 C 0.81114 0.29399 0.09198
 C2979 C 0.79351 0.29399 0.07388
 C2980 C 0.78838 0.28884 0.06388
 C2981 C 0.78214 0.28255 0.05207
 C2982 C 0.77013 0.28814 0.04640
 C2983 C 0.76382 0.28179 0.03518
 C2984 C 0.76945 0.26973 0.02950
 C2985 C 0.78159 0.26425 0.03521
 C2986 C 0.78788 0.27062 0.04642
 H2987 H 0.78449 0.31632 0.08738
 H2988 H 0.79410 0.32609 0.10833
 H2989 H 0.82565 0.29457 0.10837
 H2990 H 0.81586 0.28499 0.08743
 H2991 H 0.76555 0.29733 0.05074
 H2992 H 0.75444 0.28622 0.03109
 H2993 H 0.78615 0.25494 0.03114
 H2994 H 0.79713 0.26616 0.05078
 C2995 C 0.79933 0.79986 0.58637
 C2996 C 0.81097 0.79388 0.59237
 C2997 C 0.81662 0.79949 0.60429
 C2998 C 0.81069 0.81120 0.61042
 C2999 C 0.79897 0.81713 0.60426
 C3000 C 0.79335 0.81149 0.59233
 C3001 C 0.79343 0.79396 0.57419
 C3002 C 0.78842 0.78893 0.56407
 C3003 C 0.78231 0.78278 0.55212
 C3004 C 0.78807 0.77088 0.54644
 C3005 C 0.78180 0.76455 0.53520
 C3006 C 0.76965 0.77004 0.52950
 C3007 C 0.76407 0.78214 0.53515
 C3008 C 0.77037 0.78846 0.54639
 H3009 H 0.81569 0.78486 0.58784
 H3010 H 0.82562 0.79459 0.60864
 H3011 H 0.79408 0.82612 0.60858
 H3012 H 0.78433 0.81621 0.58776
 H3013 H 0.79730 0.76639 0.55081
 H3014 H 0.78633 0.75523 0.53112
 H3015 H 0.75472 0.78661 0.53103
 H3016 H 0.76581 0.79765 0.55072
 C3017 C 0.29931 0.70033 0.41369
 C3018 C 0.29328 0.68875 0.40767
 C3019 C 0.29879 0.68323 0.39565
 C3020 C 0.31044 0.68923 0.38945
 C3021 C 0.31643 0.70089 0.39565
 C3022 C 0.31089 0.70637 0.40767
 C3023 C 0.29345 0.70618 0.42590
 C3024 C 0.28844 0.71118 0.43602
 C3025 C 0.28232 0.71731 0.44796
 C3026 C 0.27035 0.71166 0.45363
 C3027 C 0.26407 0.71795 0.46488
 C3028 C 0.26969 0.73000 0.47061
 C3029 C 0.28184 0.73549 0.46494
 C3030 C 0.28810 0.72918 0.45369
 H3031 H 0.28429 0.68400 0.41224
 H3032 H 0.29385 0.67429 0.39127
 H3033 H 0.32537 0.70584 0.39126
 H3034 H 0.31563 0.71537 0.41224
 H3035 H 0.26577 0.70250 0.44924
 H3036 H 0.25470 0.71349 0.46896
 H3037 H 0.28640 0.74478 0.46906
 H3038 H 0.29734 0.73367 0.44935
 C3039 C 0.29936 0.20023 0.91390
 C3040 C 0.31093 0.20630 0.90788
 C3041 C 0.31647 0.20083 0.89585
 C3042 C 0.31051 0.18916 0.88965
 C3043 C 0.29884 0.18317 0.89583
 C3044 C 0.29333 0.18867 0.90785
 C3045 C 0.29353 0.20602 0.92615
 C3046 C 0.28856 0.21099 0.93631
 C3047 C 0.28248 0.21710 0.94828
 C3048 C 0.28825 0.22897 0.95399
 C3049 C 0.28198 0.23531 0.96522
 C3050 C 0.26982 0.22983 0.97088
 C3051 C 0.26421 0.21777 0.96518
 C3052 C 0.27050 0.21146 0.95395
 H3053 H 0.31565 0.21529 0.91246
 H3054 H 0.32540 0.20580 0.89147
 H3055 H 0.29390 0.17424 0.89143
 H3056 H 0.28433 0.18391 0.91241
 H3057 H 0.29750 0.23345 0.94965
 H3058 H 0.28653 0.24461 0.96932
 H3059 H 0.25483 0.21332 0.96925
 H3060 H 0.26592 0.20229 0.94958
 C3061 C 0.79931 0.70032 0.91373
 C3062 C 0.79333 0.68870 0.90774
 C3063 C 0.79891 0.68311 0.89578
 C3064 C 0.81061 0.68907 0.88962
 C3065 C 0.81654 0.70077 0.89577
 C3066 C 0.81093 0.70633 0.90773
 C3067 C 0.79338 0.70623 0.92587
 C3068 C 0.78831 0.71130 0.93594
 C3069 C 0.78212 0.71750 0.94781
 C3070 C 0.77017 0.71182 0.95350
 C3071 C 0.76381 0.71817 0.96467
 C3072 C 0.76933 0.73031 0.97030
 C3073 C 0.78145 0.73584 0.96461
 C3074 C 0.78779 0.72947 0.95344
 H3075 H 0.78430 0.68398 0.91228
 H3076 H 0.79399 0.67415 0.89142
 H3077 H 0.82549 0.70571 0.89141
 H3078 H 0.81562 0.71536 0.91227
 H3079 H 0.76566 0.70258 0.94918
 H3080 H 0.75446 0.71368 0.96876
 H3081 H 0.78593 0.74520 0.96866
 H3082 H 0.79701 0.73398 0.94908
 C3083 C 0.79927 0.20029 0.41374
 C3084 C 0.79331 0.18865 0.40775
 C3085 C 0.79891 0.18306 0.39580
 C3086 C 0.81061 0.18903 0.38965
 C3087 C 0.81653 0.20073 0.39581
 C3088 C 0.81090 0.20629 0.40776
 C3089 C 0.79332 0.20621 0.42586
 C3090 C 0.78824 0.21129 0.43592
 C3091 C 0.78205 0.21749 0.44779
 C3092 C 0.77010 0.21182 0.45347
 C3093 C 0.76376 0.21816 0.46467
 C3094 C 0.76930 0.23028 0.47031
 C3095 C 0.78142 0.23581 0.46462
 C3096 C 0.78774 0.22945 0.45342
 H3097 H 0.78428 0.18393 0.41229
 H3098 H 0.79401 0.17409 0.39145
 H3099 H 0.82550 0.20566 0.39146
 H3100 H 0.81559 0.21532 0.41230
 H3101 H 0.76558 0.20259 0.44916
 H3102 H 0.75442 0.21367 0.46876
 H3103 H 0.78592 0.24516 0.46867
 H3104 H 0.79696 0.23395 0.44907
 C3105 C 0.69970 0.29938 0.41368
 C3106 C 0.68802 0.29348 0.40768
 C3107 C 0.68256 0.29900 0.39561
 C3108 C 0.68873 0.31053 0.38936
 C3109 C 0.70045 0.31641 0.39553
 C3110 C 0.70589 0.31086 0.40759
 C3111 C 0.70552 0.29349 0.42591
 C3112 C 0.71055 0.28848 0.43604
 C3113 C 0.71675 0.28237 0.44798
 C3114 C 0.71111 0.27042 0.45371
 C3115 C 0.71750 0.26411 0.46492
 C3116 C 0.72965 0.26967 0.47053
 C3117 C 0.73511 0.28181 0.46482
 C3118 C 0.72870 0.28810 0.45362
 H3119 H 0.68315 0.28458 0.41231
 H3120 H 0.67349 0.29425 0.39126
 H3121 H 0.70557 0.32519 0.39101
 H3122 H 0.71497 0.31547 0.41213
 H3123 H 0.70188 0.26588 0.44940
 H3124 H 0.71305 0.25476 0.46903
 H3125 H 0.74447 0.28633 0.46886
 H3126 H 0.73317 0.29733 0.44923
 C3127 C 0.69964 0.79950 0.91369
 C3128 C 0.68793 0.79362 0.90773
 C3129 C 0.68243 0.79916 0.89568
 C3130 C 0.68858 0.81069 0.88942
 C3131 C 0.70031 0.81657 0.89557
 C3132 C 0.70579 0.81100 0.90761
 C3133 C 0.70552 0.79357 0.92588
 C3134 C 0.71058 0.78853 0.93598
 C3135 C 0.71680 0.78240 0.94790
 C3136 C 0.71115 0.77046 0.95364
 C3137 C 0.71753 0.76416 0.96486
 C3138 C 0.72968 0.76971 0.97047
 C3139 C 0.73516 0.78184 0.96475
 C3140 C 0.72876 0.78812 0.95353
 H3141 H 0.68308 0.78471 0.91236
 H3142 H 0.67334 0.79441 0.89135
 H3143 H 0.70542 0.82536 0.89104
 H3144 H 0.71489 0.81561 0.91212
 H3145 H 0.70192 0.76592 0.94933
 H3146 H 0.71307 0.75482 0.96899
 H3147 H 0.74452 0.78635 0.96879
 H3148 H 0.73325 0.79733 0.94913
 C3149 C 0.20084 0.29947 0.91387
 C3150 C 0.18921 0.29351 0.90785
 C3151 C 0.18365 0.29910 0.89585
 C3152 C 0.18965 0.31077 0.88968
 C3153 C 0.20133 0.31671 0.89590
 C3154 C 0.20686 0.31109 0.90789
 C3155 C 0.20672 0.29352 0.92605
 C3156 C 0.21174 0.28844 0.93616
 C3157 C 0.21788 0.28224 0.94809
 C3158 C 0.21212 0.27033 0.95377
 C3159 C 0.21839 0.26396 0.96502
 C3160 C 0.23054 0.26944 0.97072
 C3161 C 0.23614 0.28153 0.96503
 C3162 C 0.22985 0.28787 0.95379
 H3163 H 0.18446 0.28450 0.91239
 H3164 H 0.17467 0.29421 0.89148
 H3165 H 0.20626 0.32568 0.89156
 H3166 H 0.21588 0.31579 0.91248
 H3167 H 0.20288 0.26586 0.94941
 H3168 H 0.21385 0.25465 0.96911
 H3169 H 0.24551 0.28598 0.96913
 H3170 H 0.23441 0.29706 0.94943
 C3171 C 0.20073 0.79953 0.41380
 C3172 C 0.20677 0.81112 0.40778
 C3173 C 0.20125 0.81669 0.39577
 C3174 C 0.18956 0.81074 0.38957
 C3175 C 0.18358 0.79907 0.39576
 C3176 C 0.18913 0.79353 0.40777
 C3177 C 0.20659 0.79364 0.42602
 C3178 C 0.21160 0.78859 0.43614
 C3179 C 0.21772 0.78241 0.44808
 C3180 C 0.22971 0.78802 0.45376
 C3181 C 0.23601 0.78166 0.46499
 C3182 C 0.23040 0.76958 0.47068
 C3183 C 0.21823 0.76413 0.46501
 C3184 C 0.21195 0.77051 0.45378
 H3185 H 0.21579 0.81583 0.41236
 H3186 H 0.20620 0.82564 0.39139
 H3187 H 0.17462 0.79415 0.39138
 H3188 H 0.18438 0.78453 0.41234
 H3189 H 0.23428 0.79720 0.44939
 H3190 H 0.24540 0.78609 0.46906
 H3191 H 0.21368 0.75482 0.46910
 H3192 H 0.20269 0.76606 0.44943
 C3193 C 0.70032 0.70061 0.58641
 C3194 C 0.68871 0.70663 0.59241
 C3195 C 0.68311 0.70106 0.60439
 C3196 C 0.68905 0.68936 0.61057
 C3197 C 0.70073 0.68340 0.60441
 C3198 C 0.70630 0.68898 0.59243
 C3199 C 0.70624 0.70651 0.57423
 C3200 C 0.71130 0.71154 0.56413
 C3201 C 0.71748 0.71770 0.55221
 C3202 C 0.71176 0.72961 0.54647
 C3203 C 0.71809 0.73595 0.53525
 C3204 C 0.73024 0.73044 0.52962
 C3205 C 0.73579 0.71834 0.53535
 C3206 C 0.72945 0.71203 0.54657
 H3207 H 0.68401 0.71565 0.58785
 H3208 H 0.67416 0.70600 0.60875
 H3209 H 0.70565 0.67442 0.60878
 H3210 H 0.71532 0.68426 0.58788
 H3211 H 0.70252 0.73411 0.55078
 H3212 H 0.71357 0.74527 0.53112
 H3213 H 0.74516 0.71386 0.53130
 H3214 H 0.73398 0.70283 0.55096
 C3215 C 0.70051 0.20040 0.08624
 C3216 C 0.68890 0.20640 0.09223
 C3217 C 0.68328 0.20082 0.10420
 C3218 C 0.68922 0.18911 0.11037
 C3219 C 0.70091 0.18315 0.10421
 C3220 C 0.70649 0.18876 0.09225
 C3221 C 0.70641 0.20629 0.07406
 C3222 C 0.71144 0.21133 0.06394
 C3223 C 0.71757 0.21748 0.05200
 C3224 C 0.71181 0.22936 0.04625
 C3225 C 0.71808 0.23568 0.03499
 C3226 C 0.73023 0.23019 0.02935
 C3227 C 0.73584 0.21812 0.03509
 C3228 C 0.72954 0.21183 0.04635
 H3229 H 0.68420 0.21544 0.08768
 H3230 H 0.67432 0.20575 0.10855
 H3231 H 0.70582 0.17417 0.10857
 H3232 H 0.71551 0.18405 0.08770
 H3233 H 0.70257 0.23385 0.05057
 H3234 H 0.71354 0.24498 0.03086
 H3235 H 0.74521 0.21367 0.03103
 H3236 H 0.73412 0.20265 0.05075
 C3237 C 0.20044 0.70083 0.08620
 C3238 C 0.18884 0.70684 0.09222
 C3239 C 0.18327 0.70127 0.10420
 C3240 C 0.18923 0.68957 0.11037
 C3241 C 0.20091 0.68362 0.10419
 C3242 C 0.20646 0.68922 0.09220
 C3243 C 0.20629 0.70671 0.07399
 C3244 C 0.21130 0.71172 0.06385
 C3245 C 0.21743 0.71784 0.05189
 C3246 C 0.21176 0.72979 0.04620
 C3247 C 0.21806 0.73609 0.03495
 C3248 C 0.23014 0.73050 0.02925
 C3249 C 0.23564 0.71836 0.03492
 C3250 C 0.22932 0.71208 0.04617
 H3251 H 0.18412 0.71586 0.08766
 H3252 H 0.17432 0.70619 0.10858
 H3253 H 0.20585 0.67465 0.10855
 H3254 H 0.21547 0.68450 0.08764
 H3255 H 0.20258 0.73435 0.05057
 H3256 H 0.21359 0.74545 0.03086
 H3257 H 0.24495 0.71382 0.03081
 H3258 H 0.23381 0.70284 0.05052
 C3259 C 0.20047 0.20035 0.58647
 C3260 C 0.20648 0.18874 0.59249
 C3261 C 0.20093 0.18317 0.60448
 C3262 C 0.18925 0.18913 0.61065
 C3263 C 0.18329 0.20081 0.60446
 C3264 C 0.18887 0.20636 0.59247
 C3265 C 0.20635 0.20623 0.57426
 C3266 C 0.21138 0.21126 0.56414
 C3267 C 0.21752 0.21740 0.55220
 C3268 C 0.22946 0.21171 0.54653
 C3269 C 0.23579 0.21802 0.53529
 C3270 C 0.23024 0.23013 0.52959
 C3271 C 0.21811 0.23566 0.53526
 C3272 C 0.21181 0.22933 0.54649
 H3273 H 0.21549 0.18401 0.58794
 H3274 H 0.20586 0.17420 0.60886
 H3275 H 0.17433 0.20575 0.60882
 H3276 H 0.18415 0.21538 0.58790
 H3277 H 0.23399 0.20250 0.55089
 H3278 H 0.24513 0.21354 0.53122
 H3279 H 0.21361 0.24500 0.53116
 H3280 H 0.20259 0.23385 0.55084
   
