data_POSCAR
  _audit_creation_date              2014-09-24
  _audit_creation_method            'ToBaCCo'
  _symmetry_space_group_name_H-M    'P1'
  _symmetry_Int_Tables_number       1
  _symmetry_cell_setting            triclinic
  loop_
  _symmetry_equiv_pos_as_xyz
 x,y,z
_cell_length_a 48.2139
_cell_length_b 48.7475
_cell_length_c 48.7816
_cell_angle_alpha 89.970500
_cell_angle_beta 89.658700
_cell_angle_gamma 91.122000
loop_
  _atom_site_label
  _atom_site_type_symbol
  _atom_site_fract_x
  _atom_site_fract_y
  _atom_site_fract_z
C1 C 0.20013 0.18727 0.23091
 C2 C 0.17958 0.19063 0.25107
 C3 C 0.16110 0.21267 0.24977
 C4 C 0.16319 0.23085 0.22736
 C5 C 0.18355 0.22769 0.20702
 C6 C 0.20214 0.20586 0.20884
 C7 C 0.21872 0.16555 0.23251
 C8 C 0.23911 0.16171 0.21212
 C9 C 0.24154 0.18112 0.19075
 C10 C 0.22298 0.20283 0.18877
 C11 C 0.22495 0.22154 0.16697
 C12 C 0.20579 0.24282 0.16425
 C13 C 0.18560 0.24611 0.18496
 H14 H 0.17804 0.17564 0.26731
 H15 H 0.14876 0.24756 0.22576
 H16 H 0.21739 0.15163 0.24982
 H17 H 0.25801 0.17975 0.17571
 H18 H 0.24141 0.21943 0.15194
 H19 H 0.17169 0.26322 0.18443
 C20 C 0.69346 0.68605 0.72555
 C21 C 0.66996 0.69085 0.74177
 C22 C 0.65102 0.71129 0.73471
 C23 C 0.65680 0.72781 0.71154
 C24 C 0.68013 0.72309 0.69499
 C25 C 0.69848 0.70210 0.70196
 C26 C 0.71206 0.66551 0.73268
 C27 C 0.73617 0.66110 0.71693
 C28 C 0.74043 0.67673 0.69289
 C29 C 0.72201 0.69736 0.68552
 C30 C 0.72696 0.71346 0.66208
 C31 C 0.70851 0.73422 0.65455
 C32 C 0.68548 0.73919 0.67164
 H33 H 0.66649 0.67875 0.76017
 H34 H 0.64358 0.74468 0.70640
 H35 H 0.70732 0.65277 0.75031
 H36 H 0.75814 0.67278 0.67980
 H37 H 0.74566 0.71008 0.65035
 H38 H 0.67164 0.75571 0.66671
 C39 C 0.29103 0.81313 0.72247
 C40 C 0.31110 0.81054 0.74298
 C41 C 0.33068 0.78944 0.74184
 C42 C 0.33019 0.77149 0.71919
 C43 C 0.31046 0.77409 0.69839
 C44 C 0.29071 0.79492 0.70011
 C45 C 0.27116 0.83367 0.72414
 C46 C 0.25034 0.83620 0.70407
 C47 C 0.25076 0.81812 0.68143
 C48 C 0.27061 0.79750 0.67948
 C49 C 0.27059 0.77935 0.65717
 C50 C 0.29071 0.75889 0.65475
 C51 C 0.31015 0.75605 0.67600
 H52 H 0.31121 0.82523 0.75949
 H53 H 0.34540 0.75545 0.71778
 H54 H 0.27172 0.84775 0.74135
 H55 H 0.23621 0.81993 0.66486
 H56 H 0.25464 0.78100 0.64173
 H57 H 0.32481 0.73955 0.67559
 C58 C 0.79854 0.31783 0.22615
 C59 C 0.81852 0.31440 0.24662
 C60 C 0.83628 0.29165 0.24631
 C61 C 0.83437 0.27323 0.22401
 C62 C 0.81460 0.27652 0.20337
 C63 C 0.79653 0.29882 0.20450
 C64 C 0.78045 0.34001 0.22709
 C65 C 0.76047 0.34379 0.20653
 C66 C 0.75807 0.32404 0.18553
 C67 C 0.77620 0.30191 0.18416
 C68 C 0.77421 0.28277 0.16277
 C69 C 0.79293 0.26101 0.16071
 C70 C 0.81256 0.25769 0.18170
 H71 H 0.82023 0.32997 0.26228
 H72 H 0.84844 0.25619 0.22270
 H73 H 0.78173 0.35425 0.24411
 H74 H 0.74192 0.32542 0.17035
 H75 H 0.75799 0.28486 0.14769
 H76 H 0.82602 0.24019 0.18162
 C77 C 0.79559 0.69266 0.26952
 C78 C 0.81876 0.69432 0.25204
 C79 C 0.83936 0.71506 0.25540
 C80 C 0.83492 0.73538 0.27553
 C81 C 0.81178 0.73400 0.29309
 C82 C 0.79216 0.71244 0.29020
 C83 C 0.77576 0.67147 0.26656
 C84 C 0.75238 0.66955 0.28398
 C85 C 0.74957 0.68915 0.30502
 C86 C 0.76907 0.71067 0.30797
 C87 C 0.76575 0.73051 0.32844
 C88 C 0.78478 0.75263 0.33119
 C89 C 0.80806 0.75387 0.31355
 H90 H 0.82028 0.67954 0.23559
 H91 H 0.84941 0.75253 0.27749
 H92 H 0.77851 0.65622 0.25064
 H93 H 0.73254 0.68792 0.31943
 H94 H 0.74813 0.72889 0.34230
 H95 H 0.82377 0.76976 0.31580
 C96 C 0.30183 0.18982 -0.22725
 C97 C 0.32397 0.19754 -0.24454
 C98 C 0.33992 0.22166 -0.23968
 C99 C 0.33404 0.23705 -0.21585
 C100 C 0.31191 0.22957 -0.19839
 C101 C 0.29568 0.20597 -0.20417
 C102 C 0.28571 0.16621 -0.23281
 C103 C 0.26352 0.15824 -0.21540
 C104 C 0.25710 0.17512 -0.19290
 C105 C 0.27321 0.19860 -0.18694
 C106 C 0.26713 0.21476 -0.16398
 C107 C 0.28376 0.23791 -0.15738
 C108 C 0.30580 0.24535 -0.17517
 H109 H 0.32888 0.18457 -0.26189
 H110 H 0.34684 0.25459 -0.21023
 H111 H 0.29027 0.15464 -0.25111
 H112 H 0.23951 0.16983 -0.17986
 H113 H 0.24918 0.20922 -0.15169
 H114 H 0.31817 0.26365 -0.17092
 C115 C 0.71416 0.30335 -0.22690
 C116 C 0.69310 0.29835 -0.24611
 C117 C 0.67483 0.27545 -0.24347
 C118 C 0.67693 0.25892 -0.21980
 C119 C 0.69773 0.26384 -0.20034
 C120 C 0.71655 0.28599 -0.20401
 C121 C 0.73286 0.32552 -0.23027
 C122 C 0.75459 0.33024 -0.21155
 C123 C 0.75633 0.31302 -0.18841
 C124 C 0.73759 0.29095 -0.18463
 C125 C 0.73955 0.27382 -0.16163
 C126 C 0.72029 0.25213 -0.15719
 C127 C 0.69990 0.24692 -0.17722
 H128 H 0.69095 0.31267 -0.26289
 H129 H 0.66211 0.24229 -0.21620
 H130 H 0.73064 0.33913 -0.24767
 H131 H 0.77171 0.31691 -0.17281
 H132 H 0.75633 0.27730 -0.14731
 H133 H 0.68587 0.22943 -0.17515
 C134 C 0.20477 0.81004 0.27467
 C135 C 0.18167 0.80541 0.25783
 C136 C 0.16461 0.78181 0.26112
 C137 C 0.17235 0.76187 0.28042
 C138 C 0.19560 0.76606 0.29717
 C139 C 0.21172 0.79034 0.29445
 C140 C 0.22098 0.83411 0.27199
 C141 C 0.24358 0.83954 0.28964
 C142 C 0.25084 0.81902 0.30862
 C143 C 0.23497 0.79475 0.31131
 C144 C 0.24206 0.77483 0.33065
 C145 C 0.22663 0.75009 0.33309
 C146 C 0.20293 0.74631 0.31662
 H147 H 0.17690 0.82033 0.24217
 H148 H 0.16070 0.74276 0.28221
 H149 H 0.21596 0.84842 0.25586
 H150 H 0.26916 0.82163 0.32117
 H151 H 0.25947 0.77882 0.34410
 H152 H 0.18974 0.72826 0.31917
 C153 C 0.45095 0.44747 0.48296
 C154 C 0.45754 0.42633 0.50115
 C155 C 0.48023 0.40923 0.49605
 C156 C 0.49511 0.41255 0.47126
 C157 C 0.48852 0.43340 0.45270
 C158 C 0.46651 0.45105 0.45865
 C159 C 0.42908 0.46515 0.48881
 C160 C 0.42304 0.48712 0.47113
 C161 C 0.43823 0.48987 0.44648
 C162 C 0.45996 0.47217 0.44022
 C163 C 0.47532 0.47540 0.41588
 C164 C 0.49685 0.45736 0.40924
 C165 C 0.50370 0.43686 0.42829
 H166 H 0.44499 0.42326 0.51944
 H167 H 0.51152 0.39867 0.46595
 H168 H 0.41678 0.46142 0.50707
 H169 H 0.43306 0.50587 0.43205
 H170 H 0.47070 0.49233 0.40240
 H171 H 0.52114 0.42374 0.42436
 C172 C -0.05399 -0.04526 0.98324
 C173 C -0.04967 -0.06643 1.00218
 C174 C -0.02798 -0.08508 0.99842
 C175 C -0.01174 -0.08308 0.97435
 C176 C -0.01601 -0.06222 0.95513
 C177 C -0.03706 -0.04310 0.95970
 C178 C -0.07497 -0.02619 0.98759
 C179 C -0.07876 -0.00408 0.96933
 C180 C -0.06223 -0.00288 0.94531
 C181 C -0.04134 -0.02197 0.94060
 C182 C -0.02464 -0.02018 0.91699
 C183 C -0.00402 -0.03961 0.91173
 C184 C 0.00056 -0.06016 0.93145
 H185 H -0.06354 -0.06829 1.01958
 H186 H 0.00427 -0.09794 0.97054
 H187 H -0.08836 -0.02857 1.00540
 H188 H -0.06578 0.01246 0.92976
 H189 H -0.02753 -0.00334 0.90287
 H190 H 0.01731 -0.07439 0.92875
 C191 C 1.06175 0.54534 0.97838
 C192 C 1.05864 0.56618 0.99794
 C193 C 1.03734 0.58557 0.99559
 C194 C 1.02051 0.58458 0.97198
 C195 C 1.02366 0.56407 0.95213
 C196 C 1.04419 0.54423 0.95547
 C197 C 1.08212 0.52543 0.98158
 C198 C 1.08469 0.50360 0.96274
 C199 C 1.06754 0.50346 0.93934
 C200 C 1.04724 0.52336 0.93581
 C201 C 1.02984 0.52257 0.91287
 C202 C 1.00962 0.54265 0.90888
 C203 C 1.00636 0.56302 0.92910
 H204 H 1.07320 0.56711 1.01466
 H205 H 1.00481 0.59992 0.96905
 H206 H 1.09588 0.52678 0.99904
 H207 H 1.07005 0.48837 0.92335
 H208 H 1.03180 0.50602 0.89821
 H209 H 0.99000 0.57778 0.92748
 C210 C 0.55331 0.04246 0.48514
 C211 C 0.54887 0.06335 0.50436
 C212 C 0.52744 0.08227 0.50080
 C213 C 0.51175 0.08100 0.47653
 C214 C 0.51617 0.06042 0.45699
 C215 C 0.53686 0.04093 0.46142
 C216 C 0.57398 0.02309 0.48934
 C217 C 0.57787 0.00124 0.47078
 C218 C 0.56185 0.00067 0.44659
 C219 C 0.54130 0.02011 0.44199
 C220 C 0.52514 0.01901 0.41817
 C221 C 0.50490 0.03883 0.41306
 C222 C 0.50015 0.05905 0.43311
 H223 H 0.56236 0.06484 0.52196
 H224 H 0.49621 0.09625 0.47264
 H225 H 0.58707 0.02512 0.50724
 H226 H 0.56558 -0.01449 0.43086
 H227 H 0.52813 0.00241 0.40378
 H228 H 0.48366 0.07355 0.43049
 C229 C -0.07013 0.05064 0.52670
 C230 C -0.06801 0.07304 0.50868
 C231 C -0.04737 0.09361 0.51223
 C232 C -0.02796 0.09051 0.53344
 C233 C -0.03001 0.06839 0.55177
 C234 C -0.05120 0.04840 0.54842
 C235 C -0.09076 0.03030 0.52314
 C236 C -0.09264 0.00736 0.54070
 C237 C -0.07398 0.00577 0.56277
 C238 C -0.05318 0.02593 0.56652
 C239 C -0.03423 0.02383 0.58807
 C240 C -0.01336 0.04403 0.59215
 C241 C -0.01104 0.06590 0.57329
 H242 H -0.08213 0.07390 0.49158
 H243 H -0.01114 0.10539 0.53570
 H244 H -0.10545 0.03223 0.50654
 H245 H -0.07557 -0.01075 0.57747
 H246 H -0.03554 0.00622 0.60162
 H247 H 0.00570 0.08088 0.57485
 C248 C 0.43435 0.54818 0.01967
 C249 C 0.43646 0.57081 0.00196
 C250 C 0.45662 0.59182 0.00614
 C251 C 0.47598 0.58841 0.02745
 C252 C 0.47391 0.56602 0.04547
 C253 C 0.45298 0.54588 0.04162
 C254 C 0.41390 0.52774 0.01568
 C255 C 0.41195 0.50464 0.03302
 C256 C 0.43031 0.50298 0.05532
 C257 C 0.45092 0.52324 0.05951
 C258 C 0.46948 0.52116 0.08140
 C259 C 0.48997 0.54159 0.08605
 C260 C 0.49252 0.56353 0.06729
 H261 H 0.42256 0.57163 -0.01535
 H262 H 0.49286 0.60314 0.03010
 H263 H 0.39929 0.52985 -0.00096
 H264 H 0.42848 0.48637 0.06992
 H265 H 0.46808 0.50343 0.09478
 H266 H 0.50909 0.57866 0.06931
 C267 C 0.56236 -0.04868 0.02288
 C268 C 0.56016 -0.07061 0.00435
 C269 C 0.53852 -0.09038 0.00678
 C270 C 0.51836 -0.08696 0.02747
 C271 C 0.52031 -0.06517 0.04617
 C272 C 0.54245 -0.04601 0.04391
 C273 C 0.58409 -0.02923 0.02056
 C274 C 0.58623 -0.00688 0.03880
 C275 C 0.56665 -0.00501 0.06027
 C276 C 0.54466 -0.02414 0.06265
 C277 C 0.52472 -0.02158 0.08347
 C278 C 0.50213 -0.04022 0.08571
 C279 C 0.50038 -0.06226 0.06702
 H280 H 0.57506 -0.07168 -0.01223
 H281 H 0.50094 -0.10130 0.02894
 H282 H 0.59945 -0.03142 0.00443
 H283 H 0.56832 0.01101 0.07547
 H284 H 0.52656 -0.00477 0.09794
 H285 H 0.48394 -0.07751 0.06852
 C286 C 1.06033 0.45851 0.51957
 C287 C 1.05770 0.43509 0.50303
 C288 C 1.03608 0.41555 0.50746
 C289 C 1.01592 0.42126 0.52771
 C290 C 1.01830 0.44463 0.54437
 C291 C 1.04067 0.46323 0.54039
 C292 C 1.08237 0.47731 0.51555
 C293 C 1.08510 0.50102 0.53191
 C294 C 1.06581 0.50493 0.55333
 C295 C 1.04346 0.48648 0.55735
 C296 C 1.02386 0.49098 0.57813
 C297 C 1.00076 0.47314 0.58169
 C298 C 0.99863 0.44958 0.56501
 H299 H 1.07242 0.43249 0.48643
 H300 H 0.99807 0.40767 0.53045
 H301 H 1.09763 0.47343 0.49967
 H302 H 1.06807 0.52204 0.56724
 H303 H 1.02655 0.50852 0.59155
 H304 H 0.98211 0.43461 0.56833
 C305 C 0.41548 0.01220 0.21026
 H306 H 0.41798 0.03170 0.22062
 C307 C 0.43225 0.00608 0.18775
 H308 H 0.44785 0.02095 0.18112
 C309 C 0.39296 -0.03127 0.20732
 H310 H 0.37816 -0.04610 0.21545
 C311 C 0.40926 -0.03823 0.18471
 H312 H 0.40679 -0.05859 0.17625
 N313 N 0.39588 -0.00616 0.21921
 C314 C 0.33204 0.04174 0.25956
 H315 H 0.33104 0.03166 0.27932
 C316 C 0.31389 0.06286 0.25364
 H317 H 0.29915 0.06914 0.26914
 C318 C 0.35248 0.04565 0.21547
 H319 H 0.36736 0.03873 0.20050
 C320 C 0.33473 0.06688 0.20867
 H321 H 0.33721 0.07625 0.18876
 Zn322 Zn 0.37368 0.00375 0.24965
 N323 N 0.35091 0.03362 0.24059
 C324 C 0.39670 0.03797 0.29133
 N325 N 0.39783 0.01310 0.27880
 C326 C 0.41665 -0.00577 0.28648
 C327 C 0.43492 -0.00018 0.30793
 C328 C 0.41462 0.04444 0.31288
 C329 C 0.33003 -0.03381 0.24156
 C330 C 0.31175 -0.05551 0.24772
 C331 C 0.33393 -0.06008 0.29168
 C332 C 0.35182 -0.03829 0.28464
 N333 N 0.34975 -0.02582 0.25982
 H334 H 0.38178 0.05281 0.28480
 H335 H 0.41720 -0.02535 0.27608
 H336 H 0.44927 -0.01579 0.31413
 H337 H 0.41231 0.06397 0.32294
 H338 H 0.32874 -0.02345 0.22200
 H339 H 0.29667 -0.06196 0.23257
 H340 H 0.33697 -0.07010 0.31114
 H341 H 0.36744 -0.03150 0.29902
 C342 C 0.31465 0.07554 0.22772
 C343 C 0.42872 -0.01911 0.17399
 C344 C 0.31318 -0.06881 0.27326
 C345 C 0.43442 0.02536 0.32133
 C346 C 0.08045 -0.00855 0.70983
 H347 H 0.07855 -0.02829 0.71989
 C348 C 0.06169 -0.00148 0.68946
 H349 H 0.04556 -0.01610 0.68371
 C350 C 0.10394 0.03430 0.70510
 H351 H 0.12031 0.04832 0.71138
 C352 C 0.08564 0.04222 0.68461
 H353 H 0.08915 0.06197 0.67509
 N354 N 0.10116 0.00923 0.71713
 C355 C 0.16624 -0.03996 0.75267
 H356 H 0.16940 -0.02887 0.77164
 C357 C 0.18264 -0.06237 0.74644
 H358 H 0.19856 -0.06830 0.76073
 C359 C 0.14226 -0.04492 0.71070
 H360 H 0.12692 -0.03765 0.69654
 C361 C 0.15818 -0.06755 0.70366
 H362 H 0.15481 -0.07691 0.68389
 Zn363 Zn 0.12515 -0.00137 0.74564
 N364 N 0.14619 -0.03199 0.73510
 C365 C 0.10386 -0.03559 0.78823
 N366 N 0.10275 -0.01033 0.77651
 C367 C 0.08477 0.00871 0.78582
 C368 C 0.06711 0.00270 0.80789
 C369 C 0.08660 -0.04246 0.81037
 C370 C 0.16958 0.03434 0.73421
 C371 C 0.18941 0.05498 0.73898
 C372 C 0.17010 0.06094 0.78430
 C373 C 0.15061 0.04015 0.77866
 N374 N 0.15064 0.02741 0.75388
 H375 H 0.11804 -0.05059 0.78041
 H376 H 0.08414 0.02859 0.77599
 H377 H 0.05315 0.01827 0.81516
 H378 H 0.08878 -0.06245 0.81949
 H379 H 0.16909 0.02389 0.71465
 H380 H 0.20354 0.06066 0.72254
 H381 H 0.16908 0.07131 0.80387
 H382 H 0.13549 0.03429 0.79410
 C383 C 0.17836 -0.07704 0.72196
 C384 C 0.06377 0.02440 0.67673
 C385 C 0.19041 0.06819 0.76461
 C386 C 0.06744 -0.02336 0.82029
 C387 C 0.58271 0.49175 0.20597
 H388 H 0.58151 0.47185 0.21578
 C389 C 0.56441 0.49802 0.18491
 H390 H 0.54934 0.48263 0.17839
 C391 C 0.60386 0.53586 0.20261
 H392 H 0.61909 0.55071 0.20970
 C393 C 0.58601 0.54299 0.18146
 H394 H 0.58878 0.56299 0.17229
 N395 N 0.60201 0.51058 0.21433
 C396 C 0.66825 0.46494 0.25293
 H397 H 0.66929 0.47527 0.27253
 C398 C 0.68666 0.44403 0.24690
 H399 H 0.70167 0.43819 0.26216
 C400 C 0.64720 0.45996 0.20946
 H401 H 0.63187 0.46631 0.19484
 C402 C 0.66522 0.43891 0.20256
 H403 H 0.66259 0.42912 0.18291
 Zn404 Zn 0.62519 0.50135 0.24400
 N405 N 0.64889 0.47235 0.23436
 C406 C 0.60386 0.46608 0.28594
 N407 N 0.60177 0.49100 0.27369
 C408 C 0.58231 0.50909 0.28187
 C409 C 0.56424 0.50258 0.30346
 C410 C 0.58617 0.45869 0.30760
 C411 C 0.66751 0.54031 0.23506
 C412 C 0.68430 0.56331 0.24036
 C413 C 0.66154 0.56785 0.28428
 C414 C 0.64523 0.54470 0.27816
 N415 N 0.64795 0.53190 0.25356
 H416 H 0.61931 0.45186 0.27904
 H417 H 0.58101 0.52875 0.27170
 H418 H 0.54941 0.51763 0.31008
 H419 H 0.58917 0.43915 0.31748
 H420 H 0.66983 0.52924 0.21599
 H421 H 0.69982 0.56949 0.22536
 H422 H 0.65919 0.57723 0.30420
 H423 H 0.63043 0.53702 0.29313
 C424 C 0.68566 0.43083 0.22127
 C425 C 0.56547 0.52413 0.17258
 C426 C 0.68074 0.57816 0.26481
 C427 C 0.56556 0.47684 0.31640
 C428 C 0.91279 0.51990 0.70942
 H429 H 0.91365 0.53886 0.72094
 C430 C 0.92949 0.51684 0.68618
 H431 H 0.94349 0.53349 0.68047
 C432 C 0.89488 0.47462 0.70454
 H433 H 0.88197 0.45793 0.71216
 C434 C 0.91126 0.47065 0.68125
 H435 H 0.91078 0.45075 0.67142
 N436 N 0.89553 0.49914 0.71781
 C437 C 0.82970 0.53789 0.76464
 H438 H 0.83000 0.52554 0.78307
 C439 C 0.81054 0.55884 0.76214
 H440 H 0.79600 0.56172 0.77873
 C441 C 0.84768 0.54740 0.72032
 H442 H 0.86184 0.54260 0.70386
 C443 C 0.82890 0.56855 0.71695
 H444 H 0.82889 0.57985 0.69784
 Zn445 Zn 0.87385 0.50466 0.74974
 N446 N 0.84815 0.53296 0.74415
 C447 C 0.89575 0.53819 0.79241
 N448 N 0.89845 0.51424 0.77847
 C449 C 0.91923 0.49676 0.78427
 C450 C 0.93800 0.50286 0.80518
 C451 C 0.91406 0.54511 0.81348
 C452 C 0.83351 0.46373 0.74064
 C453 C 0.81795 0.43983 0.74580
 C454 C 0.84256 0.43457 0.78836
 C455 C 0.85764 0.45860 0.78240
 N456 N 0.85332 0.47231 0.75857
 H457 H 0.87931 0.55199 0.78735
 H458 H 0.92103 0.47791 0.77276
 H459 H 0.95399 0.48832 0.80988
 H460 H 0.91051 0.56380 0.82469
 H461 H 0.82993 0.47547 0.72222
 H462 H 0.80216 0.43351 0.73131
 H463 H 0.84608 0.42460 0.80778
 H464 H 0.87262 0.46636 0.79696
 C465 C 0.81040 0.57510 0.73827
 C466 C 0.92828 0.49219 0.67116
 C467 C 0.82293 0.42429 0.76952
 C468 C 0.93591 0.52753 0.81995
 C469 C 0.20839 0.41639 0.00991
 H470 H 0.22055 0.41898 0.02833
 C471 C 0.18631 0.43371 0.00482
 H472 H 0.18184 0.44983 0.01935
 C473 C 0.20046 0.39295 -0.03189
 H474 H 0.20645 0.37746 -0.04647
 C475 C 0.17816 0.40979 -0.03778
 H476 H 0.16774 0.40709 -0.05716
 N477 N 0.21465 0.39611 -0.00806
 C478 C 0.25391 0.33220 0.03966
 H479 H 0.27323 0.33018 0.02851
 C480 C 0.24777 0.31478 0.06168
 H481 H 0.26267 0.29954 0.06754
 C482 C 0.21104 0.35441 0.04533
 H483 H 0.19660 0.36968 0.03873
 C484 C 0.20407 0.33746 0.06751
 H485 H 0.18461 0.34088 0.07781
 Zn486 Zn 0.24456 0.37319 0.00074
 N487 N 0.23563 0.35157 0.03195
 C488 C 0.28994 0.39481 0.03149
 N489 N 0.27592 0.39607 0.00744
 C490 C 0.28336 0.41450 -0.01231
 C491 C 0.30644 0.43183 -0.00878
 C492 C 0.31318 0.41175 0.03587
 C493 C 0.23238 0.32926 -0.03436
 C494 C 0.23714 0.30994 -0.05488
 C495 C 0.28221 0.33096 -0.06282
 C496 C 0.27662 0.34984 -0.04211
 N497 N 0.25200 0.34870 -0.02837
 H498 H 0.28306 0.38082 0.04741
 H499 H 0.27128 0.41569 -0.03088
 H500 H 0.31153 0.44664 -0.02462
 H501 H 0.32360 0.41071 0.05541
 H502 H 0.21295 0.32883 -0.02314
 H503 H 0.22078 0.29527 -0.05970
 H504 H 0.30167 0.33281 -0.07389
 H505 H 0.29206 0.36531 -0.03701
 C506 C 0.22235 0.31687 0.07578
 C507 C 0.17014 0.43001 -0.01887
 C508 C 0.26271 0.31004 -0.06898
 C509 C 0.32239 0.42998 0.01520
 C510 C 0.71844 0.07852 -0.00495
 H511 H 0.73073 0.07626 -0.02342
 C512 C 0.69525 0.06150 -0.00046
 H513 H 0.69012 0.04589 -0.01547
 C514 C 0.71112 0.10096 0.03742
 H515 H 0.71770 0.11598 0.05241
 C516 C 0.68773 0.08441 0.04272
 H517 H 0.67707 0.08680 0.06209
 N518 N 0.72550 0.09823 0.01356
 C519 C 0.76718 0.16328 -0.03311
 H520 H 0.78676 0.16487 -0.02246
 C521 C 0.76160 0.18118 -0.05464
 H522 H 0.77725 0.19626 -0.06070
 C523 C 0.72320 0.14151 -0.03817
 H524 H 0.70814 0.12616 -0.03160
 C525 C 0.71675 0.15898 -0.05980
 H526 H 0.69711 0.15583 -0.06991
 Zn527 Zn 0.75634 0.12137 0.00506
 N528 N 0.74809 0.14388 -0.02536
 C529 C 0.80088 0.10081 -0.02697
 N530 N 0.78685 0.09876 -0.00278
 C531 C 0.79383 0.07992 0.01640
 C532 C 0.81658 0.06313 0.01221
 C533 C 0.82380 0.08443 -0.03200
 C534 C 0.74604 0.16435 0.04159
 C535 C 0.75181 0.18320 0.06242
 C536 C 0.79622 0.16217 0.06876
 C537 C 0.78960 0.14374 0.04778
 N538 N 0.76483 0.14508 0.03472
 H539 H 0.79434 0.11508 -0.04246
 H540 H 0.78174 0.07810 0.03510
 H541 H 0.82144 0.04808 0.02767
 H542 H 0.83428 0.08619 -0.05160
 H543 H 0.72658 0.16515 0.03072
 H544 H 0.73646 0.19828 0.06768
 H545 H 0.81581 0.15987 0.07897
 H546 H 0.80444 0.12851 0.04187
 C547 C 0.73584 0.17967 -0.06801
 C548 C 0.67880 0.06498 0.02315
 C549 C 0.77742 0.18271 0.07609
 C550 C 0.83267 0.06594 -0.01183
 C551 C 0.22077 0.58024 0.48565
 H552 H 0.23351 0.57692 0.46767
 C553 C 0.19666 0.56444 0.48981
 H554 H 0.19134 0.54866 0.47506
 C555 C 0.21343 0.60387 0.52737
 H556 H 0.22039 0.61876 0.54232
 C557 C 0.18915 0.58854 0.53234
 H558 H 0.17806 0.59175 0.55136
 N559 N 0.22834 0.59992 0.50401
 C560 C 0.27734 0.65984 0.45718
 H561 H 0.29612 0.66073 0.46921
 C562 C 0.27457 0.67708 0.43453
 H563 H 0.29131 0.69139 0.42988
 C564 C 0.23205 0.64147 0.45064
 H565 H 0.21520 0.62818 0.45741
 C566 C 0.22838 0.65836 0.42790
 H567 H 0.20861 0.65779 0.41748
 Zn568 Zn 0.26101 0.62081 0.49651
 N569 N 0.25638 0.64226 0.46458
 C570 C 0.30609 0.59573 0.46873
 N571 N 0.29037 0.59598 0.49195
 C572 C 0.29471 0.57788 0.51260
 C573 C 0.31637 0.55936 0.51096
 C574 C 0.32799 0.57756 0.46623
 C575 C 0.25056 0.66559 0.53068
 C576 C 0.25549 0.68453 0.55162
 C577 C 0.29830 0.66180 0.56163
 C578 C 0.29252 0.64328 0.54050
 N579 N 0.26888 0.64534 0.52565
 H580 H 0.30173 0.60959 0.45210
 H581 H 0.28133 0.57796 0.53048
 H582 H 0.31875 0.54500 0.52759
 H583 H 0.34026 0.57766 0.44757
 H584 H 0.23198 0.66689 0.51846
 H585 H 0.24034 0.70017 0.55561
 H586 H 0.31681 0.65882 0.57349
 H587 H 0.30701 0.62725 0.53605
 C588 C 0.24995 0.67617 0.41912
 C589 C 0.17983 0.56913 0.51294
 C590 C 0.27987 0.68317 0.56725
 C591 C 0.33401 0.55953 0.48785
 C592 C 0.70417 0.91370 0.51433
 H593 H 0.71602 0.91400 0.53310
 C594 C 0.68125 0.93054 0.51166
 H595 H 0.67613 0.94408 0.52842
 C596 C 0.69809 0.89697 0.46918
 H597 H 0.70512 0.88438 0.45241
 C598 C 0.67506 0.91350 0.46562
 H599 H 0.66484 0.91350 0.44593
 N600 N 0.71178 0.89695 0.49346
 C601 C 0.75596 0.82968 0.53132
 H602 H 0.77510 0.83062 0.51964
 C603 C 0.75198 0.80946 0.55130
 H604 H 0.76867 0.79553 0.55519
 C605 C 0.71182 0.84793 0.54098
 H606 H 0.69615 0.86288 0.53686
 C607 C 0.70699 0.82808 0.56119
 H608 H 0.68784 0.82856 0.57285
 Zn609 Zn 0.74312 0.87479 0.49874
 N610 N 0.73609 0.84847 0.52663
 C611 C 0.78743 0.89441 0.53210
 N612 N 0.77329 0.89818 0.50842
 C613 C 0.77994 0.91925 0.49119
 C614 C 0.80244 0.93673 0.49685
 C615 C 0.81012 0.91138 0.53855
 C616 C 0.73293 0.83601 0.45754
 C617 C 0.73848 0.82034 0.43429
 C618 C 0.78277 0.84393 0.42989
 C619 C 0.77637 0.85913 0.45326
 N620 N 0.75162 0.85523 0.46633
 H621 H 0.78113 0.87829 0.54613
 H622 H 0.76783 0.92229 0.47287
 H623 H 0.80728 0.95343 0.48288
 H624 H 0.82049 0.90812 0.55781
 H625 H 0.71376 0.83271 0.46881
 H626 H 0.72349 0.80482 0.42796
 H627 H 0.80300 0.84696 0.42062
 H628 H 0.79149 0.87365 0.46120
 C629 C 0.72690 0.80799 0.56623
 C630 C 0.66569 0.92998 0.48733
 C631 C 0.76343 0.82458 0.41962
 C632 C 0.81859 0.93239 0.52033
 C633 C 0.00362 0.21631 0.42143
 H634 H 0.02345 0.22694 0.42308
 C635 C -0.00320 0.19500 0.43951
 H636 H 0.01167 0.18916 0.45490
 C637 C -0.03970 0.21105 0.39928
 H638 H -0.05399 0.21747 0.38370
 C639 C -0.04737 0.18959 0.41691
 H640 H -0.06724 0.17962 0.41372
 N641 N -0.01450 0.22379 0.40170
 C642 C 0.03504 0.26255 0.33678
 H643 H 0.02411 0.28158 0.33444
 C644 C 0.05779 0.25705 0.31997
 H645 H 0.06397 0.27190 0.30448
 C646 C 0.03922 0.21966 0.35899
 H647 H 0.03151 0.20484 0.37377
 C648 C 0.06210 0.21335 0.34265
 H649 H 0.07120 0.19342 0.34500
 Zn650 Zn -0.00412 0.25348 0.37851
 N651 N 0.02658 0.24419 0.35621
 C652 C 0.03071 0.29604 0.39969
 N653 N 0.00528 0.28359 0.40140
 C654 C -0.01377 0.29168 0.42022
 C655 C -0.00763 0.31325 0.43813
 C656 C 0.03774 0.31769 0.41721
 C657 C -0.04133 0.24351 0.33574
 C658 C -0.06344 0.24849 0.31821
 C659 C -0.06904 0.29254 0.33988
 C660 C -0.04674 0.28675 0.35695
 N661 N -0.03383 0.26228 0.35505
 H662 H 0.04569 0.28922 0.38477
 H663 H -0.03380 0.28133 0.42127
 H664 H -0.02329 0.31964 0.45265
 H665 H 0.05779 0.32758 0.41456
 H666 H -0.03015 0.22454 0.33410
 H667 H -0.06881 0.23332 0.30284
 H668 H -0.07848 0.31240 0.34155
 H669 H -0.03977 0.30191 0.37163
 C670 C 0.07233 0.23254 0.32333
 C671 C -0.02916 0.18143 0.43773
 C672 C -0.07837 0.27288 0.32073
 C673 C 0.01865 0.32631 0.43725
 C674 C -0.00736 0.71156 0.08194
 H675 H -0.02575 0.72375 0.07995
 C676 C -0.00340 0.68914 0.06466
 H677 H -0.01871 0.68464 0.04908
 C678 C 0.03551 0.70386 0.10376
 H679 H 0.05095 0.71003 0.11858
 C680 C 0.04029 0.68125 0.08693
 H681 H 0.05966 0.67064 0.08894
 N682 N 0.01165 0.71806 0.10145
 C683 C -0.03437 0.75927 0.16605
 H684 H -0.02265 0.77838 0.16738
 C685 C -0.05648 0.75413 0.18403
 H686 H -0.06192 0.76965 0.19889
 C687 C -0.04147 0.71604 0.14487
 H688 H -0.03544 0.70112 0.12973
 C689 C -0.06372 0.71002 0.16248
 H690 H -0.07488 0.69084 0.15965
 Zn691 Zn 0.00418 0.74816 0.12471
 N692 N -0.02732 0.74034 0.14694
 C693 C -0.02621 0.79275 0.10349
 N694 N -0.00187 0.77918 0.10231
 C695 C 0.01848 0.78683 0.08431
 C696 C 0.01529 0.80971 0.06747
 C697 C -0.03030 0.81571 0.08700
 C698 C 0.03954 0.73510 0.16763
 C699 C 0.06042 0.73915 0.18699
 C700 C 0.06986 0.78389 0.16746
 C701 C 0.04878 0.77899 0.14846
 N702 N 0.03412 0.75488 0.14888
 H703 H -0.04263 0.78570 0.11707
 H704 H 0.03726 0.77509 0.08309
 H705 H 0.03163 0.81488 0.05299
 H706 H -0.05002 0.82589 0.08803
 H707 H 0.02757 0.71610 0.16750
 H708 H 0.06475 0.72266 0.20107
 H709 H 0.08162 0.80299 0.16628
 H710 H 0.04408 0.79458 0.13357
 C711 C -0.07117 0.72893 0.18294
 C712 C 0.02020 0.67289 0.06768
 C713 C 0.07542 0.76419 0.18771
 C714 C -0.00902 0.82516 0.06929
 C715 C 0.48919 0.21142 0.59010
 H716 H 0.47187 0.22514 0.58892
 C717 C 0.49040 0.18875 0.57268
 H718 H 0.47404 0.18579 0.55788
 C719 C 0.53242 0.20043 0.60960
 H720 H 0.54912 0.20543 0.62349
 C721 C 0.53449 0.17757 0.59254
 H722 H 0.55294 0.16530 0.59352
 N723 N 0.50977 0.21656 0.60841
 C724 C 0.47131 0.26520 0.67283
 H725 H 0.48544 0.28271 0.67338
 C726 C 0.44884 0.26369 0.69103
 H727 H 0.44652 0.28011 0.70563
 C728 C 0.45889 0.22204 0.65386
 H729 H 0.46315 0.20556 0.63977
 C730 C 0.43620 0.21968 0.67165
 H731 H 0.42317 0.20134 0.67092
 Zn732 Zn 0.50672 0.24818 0.63065
 N733 N 0.47565 0.24477 0.65444
 C734 C 0.48060 0.29504 0.60828
 N735 N 0.50290 0.27846 0.60678
 C736 C 0.52273 0.28221 0.58716
 C737 C 0.52110 0.30385 0.56853
 C738 C 0.47815 0.31696 0.59007
 C739 C 0.54383 0.23354 0.67185
 C740 C 0.56705 0.23604 0.68870
 C741 C 0.57864 0.27907 0.66654
 C742 C 0.55522 0.27573 0.65010
 N743 N 0.53866 0.25296 0.65266
 H744 H 0.46454 0.29120 0.62339
 H745 H 0.53982 0.26819 0.58592
 H746 H 0.53692 0.30563 0.55285
 H747 H 0.46012 0.32980 0.59146
 H748 H 0.52979 0.21609 0.67409
 H749 H 0.57022 0.22055 0.70419
 H750 H 0.59115 0.29763 0.66447
 H751 H 0.55017 0.29152 0.63554
 C752 C 0.43047 0.24087 0.69030
 C753 C 0.51296 0.17092 0.57421
 C754 C 0.58544 0.25864 0.68562
 C755 C 0.49884 0.32208 0.57015
 C756 C 0.50391 0.71318 0.91393
 H757 H 0.52391 0.72362 0.91436
 C758 C 0.49813 0.69174 0.93220
 H759 H 0.51398 0.68560 0.94645
 C760 C 0.45908 0.70858 0.89476
 H761 H 0.44380 0.71532 0.88028
 C762 C 0.45242 0.68703 0.91263
 H763 H 0.43228 0.67723 0.91067
 N764 N 0.48449 0.72112 0.89565
 C765 C 0.52936 0.76167 0.82863
 H766 H 0.51908 0.78120 0.82847
 C767 C 0.54986 0.75624 0.80918
 H768 H 0.55563 0.77207 0.79456
 C769 C 0.53472 0.71785 0.84864
 H770 H 0.52870 0.70289 0.86400
 C771 C 0.55531 0.71153 0.82953
 H772 H 0.56543 0.69202 0.83123
 Zn773 Zn 0.49324 0.75128 0.87249
 N774 N 0.52224 0.74260 0.84788
 C775 C 0.52913 0.79364 0.89249
 N776 N 0.50384 0.78109 0.89528
 C777 C 0.48586 0.78869 0.91530
 C778 C 0.49296 0.80985 0.93335
 C779 C 0.53708 0.81494 0.91008
 C780 C 0.45425 0.74154 0.83161
 C781 C 0.43179 0.74667 0.81461
 C782 C 0.42638 0.79035 0.83710
 C783 C 0.44906 0.78441 0.85363
 N784 N 0.46216 0.76011 0.85094
 H785 H 0.54332 0.78710 0.87670
 H786 H 0.46597 0.77819 0.91727
 H787 H 0.47822 0.81573 0.94902
 H788 H 0.55706 0.82471 0.90665
 H789 H 0.46556 0.72271 0.82936
 H790 H 0.42618 0.73173 0.79909
 H791 H 0.41695 0.81016 0.83929
 H792 H 0.45634 0.79939 0.86836
 C793 C 0.56268 0.73055 0.80887
 C794 C 0.47189 0.67856 0.93215
 C795 C 0.41690 0.77102 0.81767
 C796 C 0.51906 0.82316 0.93125
 C797 C 0.13820 0.21703 0.27099
 C798 C 0.13835 0.19931 0.29727
 C799 C 0.11698 0.20432 0.31485
 C800 C 0.09708 0.22656 0.30484
 C801 C 0.11645 0.25157 0.29964
 C802 C 0.13777 0.24661 0.28203
 C803 C 0.10925 0.21205 0.25873
 C804 C 0.08795 0.21704 0.27626
 H805 H 0.15508 0.18624 0.30350
 H806 H 0.11642 0.19534 0.33519
 H807 H 0.11438 0.27119 0.30989
 H808 H 0.15360 0.26207 0.27729
 H809 H 0.10582 0.20495 0.23791
 H810 H 0.06641 0.21422 0.27037
 C811 C 0.62621 0.71634 0.75346
 C812 C 0.60227 0.73310 0.74149
 C813 C 0.58114 0.73741 0.75952
 C814 C 0.58551 0.72470 0.78808
 C815 C 0.59037 0.69416 0.78169
 C816 C 0.61153 0.68986 0.76369
 C817 C 0.63486 0.73172 0.77959
 C818 C 0.61376 0.73607 0.79753
 H819 H 0.60035 0.73870 0.72009
 H820 H 0.56202 0.74689 0.75319
 H821 H 0.57702 0.67739 0.78870
 H822 H 0.61608 0.66954 0.75598
 H823 H 0.65596 0.73873 0.78360
 H824 H 0.61689 0.74672 0.81684
 C825 C 0.35284 0.78562 0.76367
 C826 C 0.35163 0.80361 0.78973
 C827 C 0.37238 0.79891 0.80788
 C828 C 0.39276 0.77671 0.79860
 C829 C 0.37376 0.75152 0.79322
 C830 C 0.35308 0.75615 0.77503
 C831 C 0.38219 0.79071 0.75205
 C832 C 0.40287 0.78603 0.77015
 H833 H 0.33476 0.81684 0.79534
 H834 H 0.37224 0.80821 0.82806
 H835 H 0.37560 0.73201 0.80371
 H836 H 0.33758 0.74053 0.77002
 H837 H 0.38634 0.79769 0.73126
 H838 H 0.42460 0.78899 0.76476
 C839 C -0.14268 0.28747 0.26692
 C840 C -0.14172 0.25762 0.27740
 C841 C -0.12088 0.25290 0.29539
 C842 C -0.10255 0.27836 0.30164
 C843 C -0.09263 0.28891 0.27357
 C844 C -0.11339 0.29367 0.25559
 C845 C -0.14448 0.30437 0.29372
 C846 C -0.12359 0.29962 0.31168
 H847 H -0.15703 0.24184 0.27225
 H848 H -0.11876 0.23319 0.30545
 H849 H -0.07095 0.29253 0.26833
 H850 H -0.10931 0.30140 0.23504
 H851 H -0.16217 0.31618 0.30013
 H852 H -0.12418 0.30781 0.33233
 C853 C -0.13696 0.71727 0.23706
 C854 C -0.10995 0.72808 0.25050
 C855 C -0.08829 0.73141 0.23270
 C856 C -0.09513 0.72355 0.20288
 C857 C -0.10612 0.69369 0.20534
 C858 C -0.12776 0.69041 0.22317
 C859 C -0.14229 0.73715 0.21332
 C860 C -0.12062 0.74039 0.19563
 H861 H -0.10741 0.73115 0.27239
 H862 H -0.06770 0.73751 0.23957
 H863 H -0.09590 0.67599 0.19685
 H864 H -0.13504 0.67006 0.22915
 H865 H -0.16167 0.74778 0.21057
 H866 H -0.12158 0.75374 0.17785
 C867 C 0.36303 0.22848 0.74229
 C868 C 0.35655 0.22480 0.71153
 C869 C 0.37869 0.22945 0.69462
 C870 C 0.40562 0.23762 0.70960
 C871 C 0.39728 0.26279 0.72674
 C872 C 0.37509 0.25810 0.74365
 C873 C 0.38788 0.21001 0.74762
 C874 C 0.40992 0.21475 0.73070
 H875 H 0.33598 0.22028 0.70356
 H876 H 0.37685 0.22866 0.67246
 H877 H 0.40543 0.28344 0.72374
 H878 H 0.36527 0.27503 0.75403
 H879 H 0.38822 0.19454 0.76364
 H880 H 0.42895 0.20334 0.73235
 C881 C 0.65260 0.27053 0.73719
 C882 C 0.64488 0.23999 0.73249
 C883 C 0.62299 0.23578 0.71539
 C884 C 0.61056 0.26240 0.70414
 C885 C 0.60379 0.27958 0.72955
 C886 C 0.62556 0.28379 0.74669
 C887 C 0.65758 0.28136 0.70772
 C888 C 0.63569 0.27717 0.69062
 H889 H 0.65699 0.22302 0.73994
 H890 H 0.61703 0.21533 0.70858
 H891 H 0.58343 0.28778 0.73373
 H892 H 0.62368 0.29563 0.76544
 H893 H 0.67739 0.28901 0.69994
 H894 H 0.63721 0.28169 0.66887
 C895 C 0.13970 0.77719 0.24244
 C896 C 0.12382 0.80339 0.23535
 C897 C 0.10241 0.79922 0.21766
 C898 C 0.09851 0.76914 0.20843
 C899 C 0.12689 0.76096 0.19702
 C900 C 0.14826 0.76514 0.21466
 C901 C 0.11671 0.75757 0.25342
 C902 C 0.09531 0.75338 0.23573
 H903 H 0.12772 0.82319 0.24489
 H904 H 0.08837 0.81552 0.21244
 H905 H 0.12991 0.75250 0.17666
 H906 H 0.16948 0.76023 0.20933
 H907 H 0.11559 0.74993 0.27429
 H908 H 0.07665 0.74222 0.24199
 C909 C 0.25926 0.13812 0.21473
 C910 C 0.28239 0.14472 0.23532
 C911 C 0.30063 0.12415 0.23891
 C912 C 0.29440 0.09841 0.22170
 C913 C 0.26411 0.09043 0.22867
 C914 C 0.24583 0.11102 0.22500
 C915 C 0.27451 0.12953 0.18829
 C916 C 0.29283 0.10894 0.19188
 H917 H 0.28435 0.16414 0.24608
 H918 H 0.31814 0.12609 0.25271
 H919 H 0.25741 0.06993 0.23480
 H920 H 0.22366 0.10781 0.22786
 H921 H 0.26928 0.13652 0.16789
 H922 H 0.30246 0.09937 0.17433
 C923 C 0.75630 0.63849 0.72416
 C924 C 0.75046 0.61226 0.70763
 C925 C 0.76811 0.59155 0.71288
 C926 C 0.79038 0.59858 0.73426
 C927 C 0.80472 0.62503 0.72358
 C928 C 0.78703 0.64580 0.71838
 C929 C 0.75637 0.62913 0.75438
 C930 C 0.77403 0.60834 0.75965
 H931 H 0.73363 0.61011 0.69305
 H932 H 0.76629 0.57176 0.70279
 H933 H 0.82704 0.62766 0.72153
 H934 H 0.79450 0.66602 0.71214
 H935 H 0.74607 0.63978 0.77095
 H936 H 0.77801 0.60216 0.78056
 C937 C 0.77436 0.35467 0.78395
 C938 C 0.80131 0.35551 0.80092
 C939 C 0.81766 0.37815 0.79629
 C940 C 0.80586 0.39821 0.77506
 C941 C 0.80127 0.38008 0.74955
 C942 C 0.78489 0.35746 0.75417
 C943 C 0.76028 0.38198 0.79017
 C944 C 0.77662 0.40455 0.78555
 H945 H 0.80895 0.33855 0.81288
 H946 H 0.83845 0.37959 0.80458
 H947 H 0.81113 0.38393 0.72982
 H948 H 0.78090 0.34227 0.73834
 H949 H 0.73915 0.38341 0.79777
 H950 H 0.76939 0.42519 0.78920
 C951 C 0.26079 -0.13599 0.28642
 C952 C 0.27428 -0.12507 0.31302
 C953 C 0.29150 -0.10290 0.30929
 C954 C 0.29379 -0.09317 0.27923
 C955 C 0.30221 -0.11867 0.26299
 C956 C 0.28514 -0.14084 0.26670
 C957 C 0.24622 -0.11045 0.27502
 C958 C 0.26343 -0.08828 0.27122
 H959 H 0.26871 -0.13228 0.33342
 H960 H 0.29987 -0.09182 0.32672
 H961 H 0.32032 -0.11924 0.24967
 H962 H 0.28871 -0.16025 0.25647
 H963 H 0.22397 -0.10888 0.27242
 H964 H 0.25571 -0.06847 0.26497
 C965 C 0.23026 -0.14227 0.70720
 C966 C 0.21606 -0.14266 0.73562
 C967 C 0.19861 -0.12152 0.74003
 C968 C 0.19653 -0.10152 0.71573
 C969 C 0.22655 -0.09255 0.70931
 C970 C 0.24401 -0.11362 0.70483
 C971 C 0.20550 -0.14148 0.68713
 C972 C 0.18803 -0.12026 0.69159
 H973 H 0.21867 -0.15882 0.75065
 H974 H 0.18648 -0.11983 0.75876
 H975 H 0.23344 -0.07125 0.70800
 H976 H 0.26575 -0.11016 0.69968
 H977 H 0.19975 -0.15750 0.67279
 H978 H 0.16852 -0.11925 0.68078
 C979 C 0.74053 0.36761 0.20879
 C980 C 0.72527 0.37578 0.18238
 C981 C 0.70714 0.39661 0.18580
 C982 C 0.70575 0.40775 0.21540
 C983 C 0.69937 0.38242 0.23324
 C984 C 0.71742 0.36163 0.22983
 C985 C 0.75422 0.39480 0.21828
 C986 C 0.73613 0.41562 0.22176
 H987 H 0.73038 0.36835 0.16206
 H988 H 0.69752 0.40594 0.16820
 H989 H 0.68188 0.38089 0.24732
 H990 H 0.71531 0.34244 0.24102
 H991 H 0.77642 0.39786 0.22079
 H992 H 0.74302 0.43619 0.22736
 C993 C 0.73166 0.64587 0.27977
 C994 C 0.74461 0.61797 0.28584
 C995 C 0.72756 0.59602 0.28096
 C996 C 0.69876 0.60353 0.27047
 C997 C 0.68741 0.62379 0.29186
 C998 C 0.70450 0.64579 0.29677
 C999 C 0.72150 0.64370 0.24998
 C1000 C 0.70437 0.62176 0.24513
 H1001 H 0.76551 0.61570 0.29358
 H1002 H 0.73394 0.57508 0.28449
 H1003 H 0.66659 0.62274 0.30036
 H1004 H 0.69737 0.66258 0.30929
 H1005 H 0.72640 0.65886 0.23427
 H1006 H 0.69463 0.61854 0.22536
 C1007 C 0.24521 0.13304 0.77888
 C1008 C 0.21693 0.14104 0.76736
 C1009 C 0.19930 0.11948 0.76279
 C1010 C 0.21120 0.09147 0.77005
 C1011 C 0.23875 0.09008 0.75392
 C1012 C 0.25645 0.11169 0.75847
 C1013 C 0.23835 0.11583 0.80464
 C1014 C 0.22068 0.09421 0.80007
 H1015 H 0.21128 0.16205 0.76303
 H1016 H 0.17863 0.12213 0.75460
 H1017 H 0.24520 0.07237 0.74222
 H1018 H 0.27752 0.11147 0.75064
 H1019 H 0.24783 0.11939 0.82449
 H1020 H 0.21551 0.07947 0.81606
 C1021 C 0.20857 0.26276 0.14022
 C1022 C 0.18276 0.27965 0.13338
 C1023 C 0.18662 0.29763 0.11226
 C1024 C 0.21600 0.29724 0.09947
 C1025 C 0.23568 0.30205 0.12373
 C1026 C 0.23184 0.28415 0.14483
 C1027 C 0.21576 0.24902 0.11270
 C1028 C 0.21969 0.26695 0.09157
 H1029 H 0.16227 0.27587 0.14201
 H1030 H 0.16918 0.30847 0.10398
 H1031 H 0.25128 0.31841 0.12432
 H1032 H 0.24419 0.28524 0.16335
 H1033 H 0.21644 0.22698 0.10971
 H1034 H 0.22388 0.26008 0.07082
 C1035 C 0.71385 0.75271 0.62975
 C1036 C 0.68769 0.75829 0.61278
 C1037 C 0.69199 0.77607 0.59157
 C1038 C 0.72213 0.78694 0.58896
 C1039 C 0.72907 0.79893 0.61722
 C1040 C 0.72479 0.78119 0.63837
 C1041 C 0.73485 0.74272 0.60809
 C1042 C 0.73914 0.76053 0.58690
 H1043 H 0.66780 0.74801 0.61624
 H1044 H 0.67572 0.78067 0.57709
 H1045 H 0.73686 0.81974 0.62033
 H1046 H 0.72896 0.78689 0.65948
 H1047 H 0.74315 0.72224 0.60730
 H1048 H 0.75103 0.75465 0.56897
 C1049 C 0.78003 0.77347 0.35398
 C1050 C 0.75028 0.78446 0.35447
 C1051 C 0.74499 0.80170 0.37572
 C1052 C 0.76985 0.80663 0.39491
 C1053 C 0.77876 0.77790 0.40365
 C1054 C 0.78407 0.76072 0.38244
 C1055 C 0.79838 0.79981 0.35409
 C1056 C 0.79305 0.81705 0.37537
 H1057 H 0.73501 0.77997 0.33876
 H1058 H 0.72527 0.81186 0.37790
 H1059 H 0.78094 0.77164 0.42488
 H1060 H 0.79080 0.73984 0.38563
 H1061 H 0.81206 0.80634 0.33755
 H1062 H 0.80238 0.83744 0.37608
 C1063 C 0.27772 0.25598 -0.13261
 C1064 C 0.30382 0.26400 -0.11617
 C1065 C 0.29900 0.28143 -0.09494
 C1066 C 0.26838 0.28956 -0.09182
 C1067 C 0.26029 0.30078 -0.11998
 C1068 C 0.26511 0.28337 -0.14113
 C1069 C 0.25770 0.24421 -0.11051
 C1070 C 0.25288 0.26170 -0.08933
 H1071 H 0.32413 0.25550 -0.11994
 H1072 H 0.31525 0.28734 -0.08071
 H1073 H 0.25135 0.32082 -0.12301
 H1074 H 0.26025 0.28857 -0.16218
 H1075 H 0.25042 0.22308 -0.10946
 H1076 H 0.24151 0.25498 -0.07120
 C1077 C 0.72324 0.23315 -0.13257
 C1078 C 0.69626 0.21868 -0.12268
 C1079 C 0.69978 0.20108 -0.10137
 C1080 C 0.73008 0.19936 -0.09150
 C1081 C 0.74690 0.19235 -0.11729
 C1082 C 0.74335 0.20987 -0.13858
 C1083 C 0.73443 0.24701 -0.10635
 C1084 C 0.73802 0.22942 -0.08503
 H1085 H 0.67570 0.22388 -0.12970
 H1086 H 0.68198 0.19203 -0.09087
 H1087 H 0.76044 0.17487 -0.11871
 H1088 H 0.75390 0.20734 -0.15812
 H1089 H 0.73751 0.26899 -0.10399
 H1090 H 0.74442 0.23654 -0.06491
 C1091 C 0.23379 0.72938 0.35525
 C1092 C 0.26503 0.72695 0.36118
 C1093 C 0.27094 0.70938 0.38197
 C1094 C 0.24507 0.69554 0.39519
 C1095 C 0.22644 0.71932 0.40358
 C1096 C 0.22061 0.73687 0.38287
 C1097 C 0.22440 0.69942 0.34990
 C1098 C 0.23025 0.68186 0.37070
 H1099 H 0.28129 0.73626 0.34859
 H1100 H 0.29217 0.70399 0.38632
 H1101 H 0.21855 0.72217 0.42425
 H1102 H 0.20770 0.75462 0.38590
 H1103 H 0.21600 0.69201 0.33064
 H1104 H 0.22637 0.65992 0.36904
 C1105 C 0.28942 0.73882 0.63080
 C1106 C 0.31631 0.72344 0.62415
 C1107 C 0.31381 0.70512 0.60320
 C1108 C 0.28457 0.70364 0.59045
 C1109 C 0.26485 0.69795 0.61470
 C1110 C 0.26736 0.71619 0.63561
 C1111 C 0.28178 0.75187 0.60313
 C1112 C 0.27923 0.73357 0.58217
 H1113 H 0.33645 0.72860 0.63271
 H1114 H 0.33198 0.69543 0.59475
 H1115 H 0.25016 0.68079 0.61541
 H1116 H 0.25479 0.71458 0.65410
 H1117 H 0.28000 0.77379 0.59987
 H1118 H 0.27512 0.74002 0.56131
 C1119 C 0.79017 0.24022 0.13748
 C1120 C 0.81667 0.22452 0.13014
 C1121 C 0.81316 0.20550 0.10997
 C1122 C 0.78335 0.20373 0.09856
 C1123 C 0.76476 0.19893 0.12385
 C1124 C 0.76829 0.21787 0.14401
 C1125 C 0.78130 0.25237 0.10976
 C1126 C 0.77770 0.23338 0.08958
 H1127 H 0.83715 0.22976 0.13785
 H1128 H 0.83091 0.19531 0.10128
 H1129 H 0.75008 0.18185 0.12579
 H1130 H 0.75659 0.21694 0.16309
 H1131 H 0.77958 0.27417 0.10576
 H1132 H 0.77265 0.23913 0.06872
 C1133 C 0.48676 0.38627 0.51612
 C1134 C 0.51651 0.37519 0.51490
 C1135 C 0.52110 0.35415 0.53257
 C1136 C 0.49556 0.34585 0.55019
 C1137 C 0.48758 0.37287 0.56426
 C1138 C 0.48305 0.39391 0.54657
 C1139 C 0.46777 0.36104 0.51180
 C1140 C 0.47234 0.34007 0.52946
 H1141 H 0.53351 0.38488 0.50364
 H1142 H 0.54189 0.34679 0.53568
 H1143 H 0.48690 0.37563 0.58633
 H1144 H 0.47876 0.41446 0.55379
 H1145 H 0.45205 0.35974 0.49599
 H1146 H 0.46052 0.32091 0.52865
 C1147 C -0.02278 0.89172 0.01865
 C1148 C 0.00819 0.88690 0.02416
 C1149 C 0.01308 0.86527 0.04099
 C1150 C -0.01345 0.85007 0.05105
 C1151 C -0.03039 0.87299 0.06450
 C1152 C -0.03527 0.89466 0.04770
 C1153 C -0.03416 0.86408 0.00807
 C1154 C -0.02934 0.84249 0.02489
 H1155 H 0.02480 0.90049 0.01698
 H1156 H 0.03382 0.86107 0.04816
 H1157 H -0.03601 0.87333 0.08607
 H1158 H -0.04456 0.91311 0.05565
 H1159 H -0.04523 0.86173 -0.01113
 H1160 H -0.03624 0.82174 0.01999
 C1161 C 0.03323 0.60716 0.01555
 C1162 C 0.00249 0.61122 0.02330
 C1163 C -0.00189 0.63255 0.04067
 C1164 C 0.02479 0.64825 0.04908
 C1165 C 0.04299 0.62560 0.06111
 C1166 C 0.04738 0.60421 0.04378
 C1167 C 0.04339 0.63523 0.00465
 C1168 C 0.03898 0.65649 0.02202
 H1169 H -0.01427 0.59747 0.01699
 H1170 H -0.02230 0.63653 0.04908
 H1171 H 0.04930 0.62476 0.08240
 H1172 H 0.05692 0.58575 0.05128
 H1173 H 0.05343 0.63813 -0.01516
 H1174 H 0.04520 0.67743 0.01699
 C1175 C 0.52278 0.10527 0.52140
 C1176 C 0.49231 0.11376 0.52473
 C1177 C 0.48857 0.13517 0.54221
 C1178 C 0.51567 0.14642 0.55506
 C1179 C 0.52813 0.12093 0.56858
 C1180 C 0.53182 0.09950 0.55112
 C1181 C 0.53853 0.13169 0.51316
 C1182 C 0.53486 0.15303 0.53063
 H1183 H 0.47485 0.10247 0.51603
 H1184 H 0.46793 0.14137 0.54819
 H1185 H 0.53182 0.11910 0.59043
 H1186 H 0.53821 0.07965 0.55858
 H1187 H 0.55156 0.13345 0.49500
 H1188 H 0.54473 0.17297 0.52731
 C1189 C -0.04414 0.11760 0.49230
 C1190 C -0.07012 0.12513 0.47580
 C1191 C -0.06590 0.14611 0.45771
 C1192 C -0.03597 0.15806 0.45761
 C1193 C -0.03108 0.16596 0.48778
 C1194 C -0.03538 0.14498 0.50583
 C1195 C -0.02171 0.11228 0.47061
 C1196 C -0.01750 0.13323 0.45261
 H1197 H -0.09083 0.11703 0.47993
 H1198 H -0.08327 0.15493 0.44714
 H1199 H -0.02587 0.18665 0.49450
 H1200 H -0.03402 0.14804 0.52782
 H1201 H -0.01019 0.09339 0.46941
 H1202 H -0.00241 0.13215 0.43605
 C1203 C 0.45927 0.61483 0.98744
 C1204 C 0.43227 0.62362 0.97328
 C1205 C 0.43576 0.64454 0.95501
 C1206 C 0.46601 0.65530 0.95242
 C1207 C 0.47377 0.66281 0.98208
 C1208 C 0.47017 0.64189 1.00033
 C1209 C 0.47953 0.60887 0.96387
 C1210 C 0.48300 0.62982 0.94574
 H1211 H 0.41167 0.61632 0.97918
 H1212 H 0.41792 0.65422 0.94610
 H1213 H 0.47995 0.68334 0.98850
 H1214 H 0.47293 0.64510 1.02217
 H1215 H 0.49022 0.58959 0.96155
 H1216 H 0.49659 0.62834 0.92799
 C1217 C 0.53511 0.88606 0.98641
 C1218 C 0.56087 0.87856 0.96925
 C1219 C 0.55628 0.85789 0.95095
 C1220 C 0.52626 0.84620 0.95130
 C1221 C 0.52155 0.83789 0.98145
 C1222 C 0.52620 0.85856 0.99970
 C1223 C 0.51255 0.89191 0.96525
 C1224 C 0.50798 0.87127 0.94703
 H1225 H 0.58171 0.88631 0.97304
 H1226 H 0.57347 0.84909 0.93989
 H1227 H 0.51611 0.81717 0.98799
 H1228 H 0.52482 0.85525 1.02168
 H1229 H 0.50122 0.91092 0.96453
 H1230 H 0.49278 0.87274 0.93079
 C1231 C 0.03281 0.39180 0.48986
 C1232 C 0.01995 0.36602 0.50380
 C1233 C 0.01579 0.34442 0.48652
 C1234 C 0.02494 0.35006 0.45671
 C1235 C 0.00969 0.37608 0.44838
 C1236 C 0.01376 0.39770 0.46553
 C1237 C 0.05972 0.38083 0.47684
 C1238 C 0.05563 0.35923 0.45955
 H1239 H 0.01626 0.36408 0.52569
 H1240 H 0.00831 0.32456 0.49382
 H1241 H -0.00322 0.37742 0.43029
 H1242 H 0.00426 0.41740 0.46202
 H1243 H 0.08047 0.38714 0.48299
 H1244 H 0.07309 0.34795 0.45168
 C1245 C 0.39951 0.50674 0.47717
 C1246 C 0.40645 0.53693 0.47008
 C1247 C 0.38501 0.55426 0.47411
 C1248 C 0.35828 0.54013 0.48497
 C1249 C 0.35209 0.51691 0.46452
 C1250 C 0.37347 0.49960 0.46048
 C1251 C 0.38933 0.50820 0.50719
 C1252 C 0.36789 0.52552 0.51125
 H1253 H 0.42687 0.54432 0.46370
 H1254 H 0.38731 0.57625 0.47103
 H1255 H 0.33235 0.51423 0.45416
 H1256 H 0.37196 0.48219 0.44666
 H1257 H 0.39997 0.49933 0.52448
 H1258 H 0.36117 0.53061 0.53182
 C1259 C 0.89926 0.01518 -0.02574
 C1260 C 0.90198 0.04327 -0.04039
 C1261 C 0.88030 0.06017 -0.03574
 C1262 C 0.85764 0.04786 -0.01673
 C1263 C 0.84934 0.02035 -0.02985
 C1264 C 0.87089 0.00341 -0.03453
 C1265 C 0.89544 0.02334 0.00462
 C1266 C 0.87379 0.04026 0.00929
 H1267 H 0.92057 0.05084 -0.05075
 H1268 H 0.88093 0.08136 -0.04255
 H1269 H 0.82814 0.01468 -0.03510
 H1270 H 0.86799 -0.01669 -0.04380
 H1271 H 0.90972 0.01799 0.02081
 H1272 H 0.87004 0.04908 0.02936
 C1273 C 0.61022 0.01376 0.03528
 C1274 C 0.60910 0.04058 0.05210
 C1275 C 0.63139 0.05772 0.04816
 C1276 C 0.65310 0.04681 0.02776
 C1277 C 0.66044 0.01836 0.03868
 C1278 C 0.63820 0.00122 0.04260
 C1279 C 0.61382 0.02397 0.00556
 C1280 C 0.63607 0.04117 0.00164
 H1281 H 0.59120 0.04750 0.06346
 H1282 H 0.63162 0.07837 0.05641
 H1283 H 0.68148 0.01225 0.04312
 H1284 H 0.64031 -0.01949 0.05041
 H1285 H 0.59935 0.01910 -0.01078
 H1286 H 0.64026 0.05093 -0.01799
 C1287 C 0.10965 0.52066 0.52700
 C1288 C 0.10834 0.54926 0.54052
 C1289 C 0.13118 0.56547 0.53575
 C1290 C 0.15356 0.55191 0.51789
 C1291 C 0.15970 0.52478 0.53237
 C1292 C 0.13694 0.50857 0.53710
 C1293 C 0.11486 0.52734 0.49650
 C1294 C 0.13767 0.54359 0.49174
 H1295 H 0.09008 0.55763 0.55019
 H1296 H 0.13171 0.58691 0.54173
 H1297 H 0.18035 0.51885 0.53849
 H1298 H 0.13820 0.48884 0.54729
 H1299 H 0.10093 0.52110 0.48015
 H1300 H 0.14276 0.55119 0.47138
 C1301 C 0.10580 0.48330 -0.03301
 C1302 C 0.10331 0.45634 -0.04965
 C1303 C 0.12421 0.43854 -0.04514
 C1304 C 0.14594 0.44887 -0.02428
 C1305 C 0.15574 0.47698 -0.03513
 C1306 C 0.13497 0.49482 -0.03968
 C1307 C 0.10753 0.47300 -0.00314
 C1308 C 0.12840 0.45518 0.00138
 H1309 H 0.08513 0.44975 -0.06102
 H1310 H 0.12308 0.41777 -0.05306
 H1311 H 0.17735 0.48236 -0.03908
 H1312 H 0.13896 0.51538 -0.04753
 H1313 H 0.09269 0.47808 0.01281
 H1314 H 0.13110 0.44529 0.02110
 C1315 C 0.59965 0.98173 0.47538
 C1316 C 0.59623 0.95356 0.46108
 C1317 C 0.61773 0.93638 0.46525
 C1318 C 0.64092 0.94851 0.48346
 C1319 C 0.64936 0.97579 0.46983
 C1320 C 0.62800 0.99302 0.46564
 C1321 C 0.60391 0.97376 0.50570
 C1322 C 0.62539 0.95657 0.50990
 H1323 H 0.57745 0.94636 0.45102
 H1324 H 0.61696 0.91523 0.45832
 H1325 H 0.67054 0.98113 0.46394
 H1326 H 0.63103 1.01301 0.45614
 H1327 H 0.58985 0.97916 0.52222
 H1328 H 0.62905 0.94761 0.52988
 C1329 C 0.88447 0.98585 0.53591
 C1330 C 0.88614 0.95859 0.55193
 C1331 C 0.86476 0.94067 0.54690
 C1332 C 0.84335 0.95133 0.52628
 C1333 C 0.83435 0.97904 0.53786
 C1334 C 0.85567 0.99694 0.54288
 C1335 C 0.88244 0.97650 0.50581
 C1336 C 0.86110 0.95855 0.50080
 H1337 H 0.90392 0.95208 0.56352
 H1338 H 0.86521 0.91978 0.55448
 H1339 H 0.81290 0.98411 0.54195
 H1340 H 0.85236 1.01725 0.55127
 H1341 H 0.89728 0.98253 0.49000
 H1342 H 0.85799 0.94936 0.48076
 C1343 C 0.38889 0.48331 0.02835
 C1344 C 0.39168 0.45536 0.04292
 C1345 C 0.37006 0.43758 0.03840
 C1346 C 0.34735 0.44904 0.01972
 C1347 C 0.33901 0.47614 0.03310
 C1348 C 0.36055 0.49392 0.03757
 C1349 C 0.38504 0.47530 -0.00196
 C1350 C 0.36347 0.45747 -0.00648
 H1351 H 0.41016 0.44859 0.05326
 H1352 H 0.37061 0.41643 0.04529
 H1353 H 0.31782 0.48093 0.03866
 H1354 H 0.35769 0.51384 0.04700
 H1355 H 0.39912 0.48174 -0.01828
 H1356 H 0.35965 0.44876 -0.02660
 C1357 C 0.51443 0.46168 0.38345
 C1358 C 0.53977 0.48032 0.38902
 C1359 C 0.55638 0.48480 0.36683
 C1360 C 0.54648 0.47030 0.34064
 C1361 C 0.54306 0.43978 0.34871
 C1362 C 0.52637 0.43534 0.37095
 C1363 C 0.49967 0.47506 0.35900
 C1364 C 0.51637 0.47954 0.33677
 H1365 H 0.54428 0.48929 0.40891
 H1366 H 0.57507 0.49755 0.36783
 H1367 H 0.55046 0.42277 0.33657
 H1368 H 0.52022 0.41476 0.37731
 H1369 H 0.47756 0.47867 0.35820
 H1370 H 0.50834 0.48722 0.31755
 C1371 C 0.01469 -0.03659 0.88655
 C1372 C 0.03913 -0.01671 0.89184
 C1373 C 0.05642 -0.01301 0.87002
 C1374 C 0.04803 -0.02944 0.84443
 C1375 C 0.04544 -0.05950 0.85436
 C1376 C 0.02806 -0.06317 0.87621
 C1377 C 0.00042 -0.02535 0.86078
 C1378 C 0.01778 -0.02158 0.83893
 H1379 H 0.04261 -0.00644 0.91130
 H1380 H 0.07466 0.00038 0.87092
 H1381 H 0.05370 -0.07703 0.84367
 H1382 H 0.02225 -0.08357 0.88338
 H1383 H -0.02174 -0.02222 0.85916
 H1384 H 0.01033 -0.01499 0.81908
 C1385 C 0.00735 0.04050 0.61533
 C1386 C 0.02441 0.06619 0.62388
 C1387 C 0.04307 0.06155 0.64413
 C1388 C 0.04317 0.03156 0.65436
 C1389 C 0.01276 0.02587 0.66276
 C1390 C -0.00587 0.03056 0.64251
 C1391 C 0.02902 0.01895 0.60820
 C1392 C 0.04760 0.01432 0.62842
 H1393 H 0.02017 0.08690 0.61724
 H1394 H 0.05395 0.07857 0.65379
 H1395 H 0.00631 0.01981 0.68328
 H1396 H -0.02807 0.02858 0.64599
 H1397 H 0.02978 0.00830 0.58867
 H1398 H 0.06420 -0.00024 0.62608
 C1399 C 0.51010 0.53844 0.10979
 C1400 C 0.53312 0.51824 0.10289
 C1401 C 0.55133 0.51418 0.12357
 C1402 C 0.54519 0.53058 0.14970
 C1403 C 0.54374 0.56071 0.14006
 C1404 C 0.52545 0.56477 0.11935
 C1405 C 0.49661 0.52726 0.13638
 C1406 C 0.51487 0.52313 0.15708
 H1407 H 0.53503 0.50806 0.08320
 H1408 H 0.56877 0.50056 0.12147
 H1409 H 0.55335 0.57808 0.15037
 H1410 H 0.52027 0.58533 0.11294
 H1411 H 0.47443 0.52416 0.13922
 H1412 H 0.50814 0.51637 0.17730
 C1413 C 0.48093 -0.03586 0.10860
 C1414 C 0.49392 -0.03889 0.13711
 C1415 C 0.47641 -0.03355 0.15827
 C1416 C 0.44713 -0.02568 0.14945
 C1417 C 0.45150 -0.00147 0.12949
 C1418 C 0.46908 -0.00675 0.10831
 C1419 C 0.45479 -0.05471 0.10947
 C1420 C 0.43721 -0.04934 0.13068
 H1421 H 0.51518 -0.04501 0.14036
 H1422 H 0.48277 -0.03508 0.17953
 H1423 H 0.44077 0.01784 0.13116
 H1424 H 0.47334 0.00812 0.09218
 H1425 H 0.44866 -0.06912 0.09367
 H1426 H 0.41693 -0.05926 0.13192
 C1427 C 0.98011 0.47845 0.60479
 C1428 C 0.99128 0.46915 0.63262
 C1429 C 0.97402 0.47394 0.65412
 C1430 C 0.94686 0.48772 0.64626
 C1431 C 0.95586 0.51378 0.63032
 C1432 C 0.97313 0.50892 0.60875
 C1433 C 0.95131 0.46429 0.60234
 C1434 C 0.93405 0.46914 0.62393
 H1435 H 1.01120 0.45948 0.63517
 H1436 H 0.97926 0.46840 0.67499
 H1437 H 0.94762 0.53400 0.63398
 H1438 H 0.97953 0.52509 0.59463
 H1439 H 0.94382 0.45374 0.58420
 H1440 H 0.91249 0.46230 0.62385
 C1441 C 0.99010 0.54026 0.88448
 C1442 C 1.00424 0.53149 0.85752
 C1443 C 0.98643 0.52788 0.83620
 C1444 C 0.95590 0.53338 0.84343
 C1445 C 0.94944 0.51500 0.86830
 C1446 C 0.96717 0.51856 0.88957
 C1447 C 0.97467 0.56644 0.87631
 C1448 C 0.95685 0.56287 0.85498
 H1449 H 1.02650 0.52967 0.85497
 H1450 H 0.99366 0.52287 0.81572
 H1451 H 0.93214 0.50041 0.86915
 H1452 H 0.96498 0.50701 0.90852
 H1453 H 0.97952 0.58678 0.88412
 H1454 H 0.94726 0.58036 0.84548
 C1455 C 0.48659 0.03653 0.38774
 C1456 C 0.47394 0.06354 0.37768
 C1457 C 0.45683 0.06050 0.35573
 C1458 C 0.45376 0.03064 0.34546
 C1459 C 0.48392 0.02224 0.33992
 C1460 C 0.50102 0.02534 0.36187
 C1461 C 0.46168 0.01708 0.39272
 C1462 C 0.44466 0.01402 0.37081
 H1463 H 0.48007 0.08372 0.38511
 H1464 H 0.44909 0.07830 0.34514
 H1465 H 0.49156 0.01585 0.31999
 H1466 H 0.52312 0.02181 0.36027
 H1467 H 0.45770 0.00659 0.41203
 H1468 H 0.42616 0.00097 0.37149
   
