data_POSCAR
  _audit_creation_date              2014-09-24
  _audit_creation_method            'ToBaCCo'
  _symmetry_space_group_name_H-M    'P1'
  _symmetry_Int_Tables_number       1
  _symmetry_cell_setting            triclinic
  loop_
  _symmetry_equiv_pos_as_xyz
 x,y,z
_cell_length_a 55.2627
_cell_length_b 55.1563
_cell_length_c 55.0928
_cell_angle_alpha 89.898600
_cell_angle_beta 90.008400
_cell_angle_gamma 89.913500
loop_
  _atom_site_label
  _atom_site_type_symbol
  _atom_site_fract_x
  _atom_site_fract_y
  _atom_site_fract_z
N1 N 0.36827 1.35326 0.30295
 N2 N 0.34807 1.36541 0.29965
 C3 C 0.34926 1.37725 0.27827
 C4 C 0.37140 1.37215 0.26750
 C5 C 0.38314 1.35726 0.28406
 H6 H 0.33554 1.38956 0.27158
 H7 H 0.40087 1.34919 0.28208
 Cu8 Cu 0.32290 1.36522 0.32436
 Cu9 Cu 0.37315 1.33151 0.33041
 Cu10 Cu 0.32776 1.33011 0.37390
 N11 N 0.29771 1.36481 0.34904
 N12 N 0.30031 1.35181 0.36888
 C13 C 0.28122 1.35561 0.38352
 C14 C 0.26528 1.37133 0.37200
 C15 C 0.27664 1.37707 0.35025
 H16 H 0.27879 1.34705 0.40102
 H17 H 0.27064 1.39016 0.33692
 N18 N 0.35693 1.30954 0.37558
 N19 N 0.37446 1.31049 0.35932
 C20 C 0.39110 1.29344 0.36469
 C21 C 0.38375 1.28128 0.38533
 C22 C 0.36192 1.29176 0.39161
 H23 H 0.40675 1.28918 0.35370
 H24 H 0.35019 1.28618 0.40630
 H25 H 0.33690 1.32557 0.33772
 H26 H 0.35196 1.35087 0.35443
 N27 N 0.36604 0.85196 0.80089
 N28 N 0.34971 0.86929 0.80194
 C29 C 0.35309 0.88460 0.78317
 C30 C 0.37243 0.87622 0.76965
 C31 C 0.38041 0.85569 0.78154
 H32 H 0.34215 0.90042 0.77932
 H33 H 0.39510 0.84394 0.77602
 Cu34 Cu 0.32523 0.86959 0.82730
 Cu35 Cu 0.36644 0.82493 0.82354
 Cu36 Cu 0.32181 0.82401 0.86777
 N37 N 0.30095 0.86942 0.85285
 N38 N 0.29946 0.85131 0.86833
 C39 C 0.28129 0.85564 0.88400
 C40 C 0.27111 0.87779 0.87825
 C41 C 0.28380 0.88594 0.85822
 H42 H 0.27604 0.84376 0.89872
 H43 H 0.28062 0.90259 0.84833
 N44 N 0.34627 0.79822 0.86430
 N45 N 0.36373 0.79903 0.84796
 C46 C 0.37824 0.77962 0.85095
 C47 C 0.36926 0.76582 0.86978
 C48 C 0.34912 0.77816 0.87799
 H49 H 0.39423 0.77576 0.84033
 H50 H 0.33784 0.77314 0.89322
 H51 H 0.32981 0.82580 0.83118
 H52 H 0.35010 0.84281 0.85222
 N53 N 0.86283 1.34817 0.79778
 N54 N 0.84330 1.36155 0.79530
 C55 C 0.84553 1.37534 0.77523
 C56 C 0.86768 1.37020 0.76444
 C57 C 0.87836 1.35330 0.77972
 H58 H 0.83234 1.38861 0.76936
 H59 H 0.89555 1.34428 0.77702
 Cu60 Cu 0.81680 1.35984 0.81860
 Cu61 Cu 0.86475 1.32245 0.82178
 Cu62 Cu 0.82384 1.32516 0.86885
 N63 N 0.79656 1.36395 0.84726
 N64 N 0.79956 1.35055 0.86680
 C65 C 0.78353 1.35742 0.88382
 C66 C 0.76997 1.37639 0.87463
 C67 C 0.77845 1.37984 0.85124
 H68 H 0.78170 1.34914 0.90153
 H69 H 0.77206 1.39309 0.83822
 N70 N 0.84988 1.30084 0.86730
 N71 N 0.86603 1.30026 0.84966
 C72 C 0.88106 1.28136 0.85332
 C73 C 0.87370 1.26936 0.87401
 C74 C 0.85404 1.28221 0.88255
 H75 H 0.89565 1.27608 0.84137
 H76 H 0.84331 1.27792 0.89839
 H77 H 0.82867 1.31937 0.83239
 H78 H 0.84704 1.34415 0.84645
 N79 N 0.86299 0.85441 0.30338
 N80 N 0.84146 0.86080 0.29566
 C81 C 0.84362 0.87329 0.27488
 C82 C 0.86813 0.87664 0.26973
 C83 C 0.87975 0.86374 0.28830
 H84 H 0.82810 0.87841 0.26420
 H85 H 0.89894 0.86103 0.29080
 Cu86 Cu 0.81273 0.85557 0.31507
 Cu87 Cu 0.86696 0.83281 0.33133
 Cu88 Cu 0.81412 0.81485 0.35979
 N89 N 0.79021 0.85736 0.34218
 N90 N 0.79087 0.84137 0.35989
 C91 C 0.77433 0.84734 0.37676
 C92 C 0.76300 0.86848 0.36939
 C93 C 0.77322 0.87413 0.34718
 H94 H 0.77110 0.83730 0.39333
 H95 H 0.76910 0.88966 0.33587
 N96 N 0.84465 0.79744 0.36379
 N97 N 0.86505 0.80437 0.35341
 C98 C 0.88234 0.78786 0.35856
 C99 C 0.87211 0.76967 0.37254
 C100 C 0.84833 0.77659 0.37586
 H101 H 0.90070 0.78844 0.35179
 H102 H 0.83457 0.76689 0.38589
 H103 H 0.83336 0.81842 0.32633
 H104 H 0.83619 0.84243 0.35017
 N105 N 0.63499 0.64510 0.30695
 N106 N 0.65679 0.64292 0.29753
 C107 C 0.65504 0.63195 0.27585
 C108 C 0.63106 0.62535 0.27188
 C109 C 0.61887 0.63453 0.29201
 H110 H 0.67029 0.62942 0.26389
 H111 H 0.59964 0.63393 0.29549
 Cu112 Cu 0.68661 0.65041 0.31577
 Cu113 Cu 0.62904 0.66426 0.33652
 Cu114 Cu 0.67821 0.67756 0.36919
 N115 N 0.71045 0.64776 0.34192
 N116 N 0.70674 0.65807 0.36309
 C117 C 0.72498 0.65237 0.37819
 C118 C 0.74124 0.63794 0.36575
 C119 C 0.73140 0.63525 0.34278
 H120 H 0.72614 0.65789 0.39699
 H121 H 0.73839 0.62417 0.32818
 N122 N 0.64993 0.69836 0.36970
 N123 N 0.63024 0.69305 0.35740
 C124 C 0.61380 0.71083 0.36077
 C125 C 0.62409 0.72836 0.37550
 C126 C 0.64685 0.71963 0.38112
 H127 H 0.59607 0.71140 0.35246
 H128 H 0.66031 0.72832 0.39239
 H129 H 0.66216 0.67649 0.32790
 H130 H 0.66204 0.64607 0.34276
 N131 N 0.63456 0.15179 0.79832
 N132 N 0.64973 0.13355 0.80045
 C133 C 0.64329 0.11598 0.78476
 C134 C 0.62303 0.12369 0.77194
 C135 C 0.61843 0.14680 0.78075
 H136 H 0.65341 0.09943 0.78190
 H137 H 0.60393 0.15884 0.77530
 Cu138 Cu 0.67760 0.13540 0.82202
 Cu139 Cu 0.63641 0.18030 0.81898
 Cu140 Cu 0.67715 0.17701 0.86675
 N141 N 0.70307 0.13670 0.84641
 N142 N 0.70234 0.15251 0.86422
 C143 C 0.72156 0.14905 0.87883
 C144 C 0.73525 0.13031 0.86949
 C145 C 0.72291 0.12269 0.84903
 H146 H 0.72550 0.15954 0.89491
 H147 H 0.72790 0.10788 0.83721
 N148 N 0.65057 0.20070 0.86554
 N149 N 0.63524 0.20219 0.84722
 C150 C 0.61909 0.21993 0.85184
 C151 C 0.62465 0.23004 0.87409
 C152 C 0.64482 0.21766 0.88213
 H153 H 0.60434 0.22508 0.83999
 H154 H 0.65443 0.22075 0.89893
 H155 H 0.67264 0.17887 0.83020
 H156 H 0.65033 0.15942 0.84670
 N157 N 1.13342 0.64970 0.80125
 N158 N 1.15164 0.63437 0.80019
 C159 C 1.14758 0.61848 0.78209
 C160 C 1.12570 0.62428 0.77137
 C161 C 1.11733 0.64429 0.78376
 H162 H 1.15952 0.60377 0.77706
 H163 H 1.10052 0.65384 0.78058
 Cu164 Cu 1.17873 0.63656 0.82272
 Cu165 Cu 1.13105 0.67456 0.82602
 Cu166 Cu 1.17744 0.67746 0.86811
 N167 N 1.20444 0.63834 0.84685
 N168 N 1.20358 0.65407 0.86474
 C169 C 1.22292 0.65082 0.87924
 C170 C 1.23682 0.63232 0.86974
 C171 C 1.22451 0.62464 0.84931
 H172 H 1.22661 0.66104 0.89555
 H173 H 1.22958 0.60983 0.83751
 N174 N 1.14947 0.69959 0.86847
 N175 N 1.13176 0.69841 0.85244
 C176 C 1.11516 0.71551 0.85768
 C177 C 1.12272 0.72786 0.87807
 C178 C 1.14466 0.71758 0.88425
 H179 H 1.09882 0.71890 0.84742
 H180 H 1.15611 0.72278 0.89928
 H181 H 1.16783 0.67844 0.83193
 H182 H 1.15156 0.65610 0.85156
 N183 N 1.13946 0.15597 0.29590
 N184 N 1.15597 0.13879 0.29672
 C185 C 1.15345 0.12442 0.27714
 C186 C 1.13469 0.13339 0.26319
 C187 C 1.12609 0.15330 0.27567
 H188 H 1.16413 0.10841 0.27343
 H189 H 1.11069 0.16441 0.27081
 Cu190 Cu 1.17872 0.13649 0.32356
 Cu191 Cu 1.13531 0.17934 0.32193
 Cu192 Cu 1.17475 0.17506 0.37066
 N193 N 1.20022 0.13397 0.35141
 N194 N 1.19857 0.14910 0.36975
 C195 C 1.21532 0.14328 0.38650
 C196 C 1.22800 0.12329 0.37833
 C197 C 1.21819 0.11804 0.35587
 H198 H 1.21831 0.15300 0.40327
 H199 H 1.22377 0.10364 0.34380
 N200 N 1.14935 0.20000 0.36831
 N201 N 1.13400 0.20130 0.34999
 C202 C 1.11812 0.21935 0.35422
 C203 C 1.12377 0.22977 0.37623
 C204 C 1.14380 0.21735 0.38456
 H205 H 1.10349 0.22459 0.34226
 H206 H 1.15326 0.22050 0.40143
 H207 H 1.17085 0.17885 0.33355
 H208 H 1.14955 0.15762 0.34910
 N209 N 0.63515 1.34955 0.70104
 N210 N 0.65274 1.36559 0.70138
 C211 C 0.65022 1.37969 0.72116
 C212 C 0.63006 1.37195 0.73382
 C213 C 0.62078 1.35301 0.72044
 H214 H 0.66192 1.39464 0.72595
 H215 H 0.60482 1.34248 0.72462
 Cu216 Cu 0.67695 1.36666 0.67574
 Cu217 Cu 0.63219 1.32519 0.67578
 Cu218 Cu 0.67476 1.32692 0.62983
 N219 N 0.70169 1.36608 0.65055
 N220 N 0.70117 1.34996 0.63299
 C221 C 0.71959 1.35422 0.61758
 C222 C 0.73204 1.37428 0.62576
 C223 C 0.72041 1.38125 0.64682
 H224 H 0.72300 1.34426 0.60104
 H225 H 0.72488 1.39664 0.65808
 N226 N 0.64904 1.30230 0.63132
 N227 N 0.63243 1.30212 0.64856
 C228 C 0.61654 1.28422 0.64403
 C229 C 0.62348 1.27269 0.62296
 C230 C 0.64429 1.28431 0.61552
 H231 H 0.60101 1.27986 0.65513
 H232 H 0.65481 1.28024 0.59948
 H233 H 0.66846 1.32440 0.66671
 H234 H 0.64840 1.34554 0.64940
 N235 N 0.63467 0.85045 1.20139
 N236 N 0.65333 0.86515 1.20293
 C237 C 0.65077 0.87920 1.22274
 C238 C 0.62949 0.87280 1.23422
 C239 C 0.61956 0.85475 1.22005
 H240 H 0.66335 0.89306 1.22846
 H241 H 0.60277 0.84524 1.22332
 Cu242 Cu 0.67915 0.86411 1.17903
 Cu243 Cu 0.63174 0.82631 1.17583
 Cu244 Cu 0.67843 0.82338 1.13381
 N245 N 0.70465 0.86316 1.15476
 N246 N 0.70464 0.84664 1.13758
 C247 C 0.72432 0.84966 1.12352
 C248 C 0.73731 0.86907 1.13243
 C249 C 0.72425 0.87740 1.15208
 H250 H 0.72863 0.83894 1.10768
 H251 H 0.72879 0.89267 1.16349
 N252 N 0.65019 0.80164 1.13304
 N253 N 0.63218 0.80309 1.14872
 C254 C 0.61547 0.78627 1.14311
 C255 C 0.62325 0.77384 1.12282
 C256 C 0.64543 0.78378 1.11710
 H257 H 0.59900 0.78297 1.15317
 H258 H 0.65710 0.77841 1.10230
 H259 H 0.66843 0.82225 1.16991
 H260 H 0.65220 0.84446 1.15015
 N261 N 1.13441 1.35172 1.19932
 N262 N 1.15172 1.36804 1.19920
 C263 C 1.14744 1.38437 1.21683
 C264 C 1.12630 1.37787 1.22844
 C265 C 1.11851 1.35706 1.21702
 H266 H 1.15932 1.39918 1.22160
 H267 H 1.10315 1.34600 1.22204
 Cu268 Cu 1.17937 1.36515 1.17766
 Cu269 Cu 1.13555 1.32327 1.17858
 Cu270 Cu 1.17846 1.32372 1.13273
 N271 N 1.20171 1.36672 1.15054
 N272 N 1.20166 1.35026 1.13331
 C273 C 1.21913 1.35557 1.11712
 C274 C 1.23035 1.37669 1.12443
 C275 C 1.21902 1.38320 1.14580
 H276 H 1.22321 1.34506 1.10108
 H277 H 1.22318 1.39869 1.15705
 N278 N 1.15326 1.29858 1.13556
 N279 N 1.13649 1.29883 1.15263
 C280 C 1.12153 1.27987 1.14933
 C281 C 1.12958 1.26689 1.12955
 C282 C 1.14962 1.27922 1.12114
 H283 H 1.10608 1.27560 1.16059
 H284 H 1.16054 1.27447 1.10557
 H285 H 1.17203 1.32211 1.16920
 H286 H 1.15206 1.34282 1.15137
 N287 N 1.13366 0.85103 0.69968
 N288 N 1.15271 0.86513 0.70173
 C289 C 1.14879 0.88118 0.71973
 C290 C 1.12591 0.87708 0.72911
 C291 C 1.11701 0.85759 0.71621
 H292 H 1.16142 0.89504 0.72536
 H293 H 1.09963 0.84892 0.71865
 Cu294 Cu 1.18052 0.86164 0.68029
 Cu295 Cu 1.13125 0.82593 0.67518
 Cu296 Cu 1.17556 0.82564 0.63104
 N297 N 1.20347 0.86332 0.65351
 N298 N 1.20096 0.84981 0.63402
 C299 C 1.21881 0.85502 0.61824
 C300 C 1.23335 0.87251 0.62851
 C301 C 1.22318 0.87745 0.65088
 H302 H 1.22130 0.84648 0.60076
 H303 H 1.22956 0.89043 0.66409
 N304 N 1.14850 0.80246 0.63140
 N305 N 1.13197 0.80218 0.64868
 C306 C 1.11612 0.78423 0.64420
 C307 C 1.12279 0.77298 0.62289
 C308 C 1.14352 0.78476 0.61536
 H309 H 1.10062 0.77984 0.65534
 H310 H 1.15418 0.78058 0.59944
 H311 H 1.16778 0.82131 0.66749
 H312 H 1.15153 0.84628 0.65103
 N313 N 0.36789 0.64931 0.69884
 N314 N 0.35141 0.63215 0.69852
 C315 C 0.35635 0.61601 0.71623
 C316 C 0.37722 0.62333 0.72789
 C317 C 0.38395 0.64462 0.71659
 H318 H 0.34585 0.59997 0.72021
 H319 H 0.39932 0.65588 0.72108
 Cu320 Cu 0.32590 0.63206 0.67418
 Cu321 Cu 0.36724 0.67658 0.67646
 Cu322 Cu 0.32121 0.67757 0.63370
 N323 N 0.30060 0.63244 0.64965
 N324 N 0.29879 0.65036 0.63398
 C325 C 0.28034 0.64586 0.61870
 C326 C 0.27034 0.62376 0.62487
 C327 C 0.28340 0.61586 0.64478
 H328 H 0.27488 0.65750 0.60385
 H329 H 0.28059 0.59923 0.65479
 N330 N 0.34576 0.70332 0.63636
 N331 N 0.36350 0.70268 0.65241
 C332 C 0.37774 0.72221 0.64917
 C333 C 0.36833 0.73591 0.63044
 C334 C 0.34822 0.72334 0.62254
 H335 H 0.39385 0.72622 0.65954
 H336 H 0.33663 0.72823 0.60749
 H337 H 0.33036 0.67581 0.66998
 H338 H 0.34997 0.65868 0.64836
 N339 N 0.36644 0.14948 1.19873
 N340 N 0.34928 0.13301 1.19904
 C341 C 0.35489 0.11595 1.21564
 C342 C 0.37690 0.12195 1.22596
 C343 C 0.38360 0.14345 1.21497
 H344 H 0.34361 0.10061 1.22027
 H345 H 0.39925 0.15439 1.21925
 Cu346 Cu 0.32073 0.13604 1.17861
 Cu347 Cu 0.36387 0.17876 1.17930
 Cu348 Cu 0.32024 0.17821 1.13419
 N349 N 0.29784 0.13466 1.15187
 N350 N 0.29753 0.15132 1.13476
 C351 C 0.28004 0.14599 1.11865
 C352 C 0.26912 0.12465 1.12581
 C353 C 0.28067 0.11803 1.14709
 H354 H 0.27576 0.15661 1.10269
 H355 H 0.27683 0.10231 1.15821
 N356 N 0.34492 0.20380 1.13693
 N357 N 0.36180 0.20371 1.15389
 C358 C 0.37642 0.22293 1.15056
 C359 C 0.36804 0.23592 1.13087
 C360 C 0.34819 0.22327 1.12251
 H361 H 0.39201 0.22723 1.16160
 H362 H 0.33724 0.22778 1.10687
 H363 H 0.32714 0.17937 1.17062
 H364 H 0.34727 0.15932 1.15227
 N365 N 0.86456 0.64637 1.19476
 N366 N 0.84285 0.64260 1.20359
 C367 C 0.84471 0.63167 1.22529
 C368 C 0.86895 0.62654 1.22983
 C369 C 0.88100 0.63670 1.21003
 H370 H 0.82932 0.62827 1.23683
 H371 H 0.90030 0.63726 1.20693
 Cu372 Cu 0.81408 0.64860 1.18443
 Cu373 Cu 0.86930 0.66530 1.16509
 Cu374 Cu 0.81717 0.68489 1.13604
 N375 N 0.79011 0.64684 1.15864
 N376 N 0.79103 0.66152 1.13983
 C377 C 0.77227 0.65679 1.12499
 C378 C 0.75907 0.63800 1.13502
 C379 C 0.77097 0.63197 1.15625
 H380 H 0.76882 0.66593 1.10795
 H381 H 0.76609 0.61782 1.16896
 N382 N 0.84913 0.69871 1.12928
 N383 N 0.86910 0.69141 1.14025
 C384 C 0.88746 0.70597 1.13336
 C385 C 0.87865 0.72288 1.11689
 C386 C 0.85425 0.71772 1.11491
 H387 H 0.90554 0.70524 1.14086
 H388 H 0.84098 0.72774 1.10449
 H389 H 0.83691 0.68290 1.16906
 H390 H 0.83719 0.65660 1.14764
 N391 N 0.86349 0.15743 0.70463
 N392 N 0.84435 0.14345 0.70662
 C393 C 0.84826 0.12701 0.72431
 C394 C 0.87123 0.13074 0.73356
 C395 C 0.88022 0.15046 0.72095
 H396 H 0.83565 0.11296 0.72955
 H397 H 0.89775 0.15886 0.72321
 Cu398 Cu 0.81686 0.14703 0.68473
 Cu399 Cu 0.86520 0.18301 0.68037
 Cu400 Cu 0.83285 0.16712 0.62919
 N401 N 0.79637 0.14228 0.65654
 N402 N 0.80407 0.14720 0.63456
 C403 C 0.78843 0.13780 0.61838
 C404 C 0.76954 0.12656 0.63086
 C405 C 0.77500 0.13083 0.65516
 H406 H 0.79070 0.13925 0.59895
 H407 H 0.76436 0.12646 0.67098
 N408 N 0.85709 0.19366 0.62956
 N409 N 0.86937 0.19955 0.64925
 C410 C 0.88282 0.21932 0.64471
 C411 C 0.87865 0.22640 0.62110
 C412 C 0.86221 0.20986 0.61194
 H413 H 0.89382 0.22864 0.65798
 H414 H 0.85374 0.21035 0.59424
 H415 H 0.83071 0.18257 0.66284
 H416 H 0.85178 0.15609 0.65952
 N417 N 1.35213 0.36956 0.69844
 N418 N 1.36995 0.35386 0.69661
 C419 C 1.38638 0.35840 0.71409
 C420 C 1.37848 0.37817 0.72735
 C421 C 1.35656 0.38459 0.71713
 H422 H 1.40275 0.34805 0.71706
 H423 H 1.34491 0.39932 0.72273
 Cu424 Cu 1.37026 0.32903 0.67155
 Cu425 Cu 1.32515 0.37001 0.67583
 Cu426 Cu 1.32033 0.32110 0.63712
 N427 N 1.36524 0.29988 0.65240
 N428 N 1.34523 0.29622 0.64008
 C429 C 1.34661 0.27459 0.62886
 C430 C 1.36875 0.26400 0.63443
 C431 C 1.38020 0.28090 0.64912
 H432 H 1.33326 0.26791 0.61619
 H433 H 1.39801 0.27933 0.65712
 N434 N 1.29728 0.34840 0.63683
 N435 N 1.29928 0.36716 0.65154
 C436 C 1.28208 0.38355 0.64593
 C437 C 1.26889 0.37484 0.62653
 C438 C 1.27872 0.35237 0.62146
 H439 H 1.27960 0.40080 0.65490
 H440 H 1.27326 0.34027 0.60705
 H441 H 1.32655 0.33254 0.67219
 H442 H 1.34063 0.35086 0.64716
 N443 N 1.34827 0.86504 1.20198
 N444 N 1.36649 0.84977 1.20057
 C445 C 1.38073 0.85260 1.22019
 C446 C 1.37040 0.87002 1.23513
 C447 C 1.34996 0.87774 1.22271
 H448 H 1.39702 0.84229 1.22375
 H449 H 1.33796 0.89243 1.22767
 Cu450 Cu 1.36845 0.82685 1.17379
 Cu451 Cu 1.32538 0.86919 1.17545
 Cu452 Cu 1.32094 0.81959 1.13696
 N453 N 1.37021 0.80509 1.14604
 N454 N 1.35095 0.80134 1.13256
 C455 C 1.35564 0.78344 1.11671
 C456 C 1.37947 0.77595 1.11975
 C457 C 1.38802 0.79003 1.13881
 H458 H 1.34268 0.77658 1.10371
 H459 H 1.40524 0.78814 1.14796
 N460 N 1.29741 0.84667 1.13702
 N461 N 1.29944 0.86572 1.15136
 C462 C 1.28206 0.88187 1.14575
 C463 C 1.26871 0.87278 1.12665
 C464 C 1.27864 0.85027 1.12180
 H465 H 1.27955 0.89921 1.15454
 H466 H 1.27324 0.83795 1.10755
 H467 H 1.32459 0.83284 1.17235
 H468 H 1.34094 0.84869 1.14731
 N469 N 0.85485 0.36722 1.19385
 N470 N 0.86012 0.34552 1.20204
 C471 C 0.87249 0.34744 1.22288
 C472 C 0.87691 0.37186 1.22762
 C473 C 0.86472 0.38382 1.20880
 H474 H 0.87702 0.33188 1.23386
 H475 H 0.86312 0.40314 1.20591
 Cu476 Cu 0.85378 0.31663 1.18322
 Cu477 Cu 0.83443 0.37156 1.16508
 Cu478 Cu 0.81547 0.31884 1.13656
 N479 N 0.85488 0.29249 1.15758
 N480 N 0.83946 0.29306 1.13942
 C481 C 0.84384 0.27417 1.12461
 C482 C 0.86317 0.26122 1.13399
 C483 C 0.86988 0.27345 1.15479
 H484 H 0.83405 0.27040 1.10803
 H485 H 0.88455 0.26883 1.16697
 N486 N 0.80070 0.35058 1.13019
 N487 N 0.80779 0.37076 1.14089
 C488 C 0.79289 0.38892 1.13398
 C489 C 0.77598 0.37972 1.11782
 C490 C 0.78147 0.35533 1.11604
 H491 H 0.79351 0.40715 1.14115
 H492 H 0.77167 0.34187 1.10574
 H493 H 0.81809 0.33860 1.16950
 H494 H 0.84344 0.33980 1.14705
 N495 N 0.85102 0.86878 0.69850
 N496 N 0.86793 0.85199 0.69799
 C497 C 0.88432 0.85672 0.71547
 C498 C 0.87731 0.87764 0.72734
 C499 C 0.85597 0.88464 0.71633
 H500 H 0.90004 0.84572 0.71948
 H501 H 0.84507 0.90030 0.72084
 Cu502 Cu 0.86681 0.82537 0.67488
 Cu503 Cu 0.82448 0.86946 0.67537
 Cu504 Cu 0.82025 0.82127 0.63550
 N505 N 0.86324 0.79788 0.65307
 N506 N 0.84472 0.79608 0.63820
 C507 C 0.84688 0.77557 0.62517
 C508 C 0.86778 0.76383 0.63238
 C509 C 0.87787 0.77859 0.64990
 H510 H 0.83465 0.76998 0.61093
 H511 H 0.89475 0.77555 0.65936
 N512 N 0.79729 0.84856 0.63547
 N513 N 0.79900 0.86702 0.65058
 C514 C 0.78172 0.88338 0.64513
 C515 C 0.76874 0.87490 0.62549
 C516 C 0.77881 0.85266 0.62004
 H517 H 0.77895 0.90041 0.65442
 H518 H 0.77348 0.84076 0.60541
 H519 H 0.82340 0.83221 0.67123
 H520 H 0.84116 0.84965 0.64818
 N521 N 0.65149 0.63445 0.70013
 N522 N 0.63451 0.65117 0.69964
 C523 C 0.61766 0.64590 0.71649
 C524 C 0.62444 0.62467 0.72803
 C525 C 0.64613 0.61807 0.71744
 H526 H 0.60180 0.65676 0.72027
 H527 H 0.65709 0.60244 0.72196
 Cu528 Cu 0.63608 0.67828 0.67722
 Cu529 Cu 0.67903 0.63500 0.67805
 Cu530 Cu 0.68069 0.68209 0.63619
 N531 N 0.63354 0.69957 0.64923
 N532 N 0.65116 0.70117 0.63330
 C533 C 0.64551 0.71822 0.61674
 C534 C 0.62293 0.72749 0.62237
 C535 C 0.61594 0.71541 0.64324
 H536 H 0.65712 0.72381 0.60196
 H537 H 0.59969 0.71855 0.65371
 N538 N 0.70562 0.65654 0.63786
 N539 N 0.70528 0.63890 0.65411
 C540 C 0.72467 0.62450 0.65061
 C541 C 0.73769 0.63347 0.63120
 C542 C 0.72503 0.65360 0.62336
 H543 H 0.72882 0.60836 0.66097
 H544 H 0.72959 0.66511 0.60813
 H545 H 0.67984 0.67161 0.67251
 H546 H 0.66126 0.65386 0.65063
 N547 N 0.64849 1.13147 1.19820
 N548 N 0.63535 1.15108 1.20135
 C549 C 0.61951 1.14722 1.21949
 C550 C 0.62226 1.12356 1.22771
 C551 C 0.64117 1.11430 1.21394
 H552 H 0.60631 1.16036 1.22562
 H553 H 0.64972 1.09676 1.21592
 Cu554 Cu 0.63909 1.17929 1.18054
 Cu555 Cu 0.67451 1.12996 1.17440
 Cu556 Cu 0.67692 1.17676 1.13265
 N557 N 0.63689 1.20232 1.15390
 N558 N 0.65210 1.20161 1.13556
 C559 C 0.64641 1.21926 1.11967
 C560 C 0.62633 1.23138 1.12833
 C561 C 0.62081 1.22032 1.15018
 H562 H 0.65569 1.22264 1.10272
 H563 H 0.60608 1.22488 1.16227
 N564 N 0.70022 1.14976 1.13287
 N565 N 0.69945 1.13197 1.14892
 C566 C 0.71737 1.11612 1.14406
 C567 C 0.72962 1.12415 1.12377
 C568 C 0.71849 1.14560 1.11724
 H569 H 0.72097 1.09967 1.15414
 H570 H 0.72327 1.15713 1.10210
 H571 H 0.67976 1.16670 1.16888
 H572 H 0.65550 1.15170 1.15051
 N573 N 0.14677 0.63122 1.19684
 N574 N 0.13333 0.65060 1.20011
 C575 C 0.11752 0.64640 1.21818
 C576 C 0.12063 0.62273 1.22626
 C577 C 0.13967 0.61383 1.21244
 H578 H 0.10419 0.65934 1.22444
 H579 H 0.14864 0.59651 1.21450
 Cu580 Cu 0.13679 0.67890 1.17952
 Cu581 Cu 0.17359 0.63076 1.17388
 Cu582 Cu 0.18186 0.68279 1.13912
 N583 N 0.13506 0.70109 1.15213
 N584 N 0.15336 0.70353 1.13713
 C585 C 0.14822 0.72111 1.12098
 C586 C 0.12492 0.72950 1.12539
 C587 C 0.11731 0.71652 1.14561
 H588 H 0.16020 0.72669 1.10648
 H589 H 0.10062 0.71891 1.15560
 N590 N 0.20306 0.65412 1.13682
 N591 N 0.19983 0.63427 1.14987
 C592 C 0.21687 0.61789 1.14376
 C593 C 0.23112 0.62777 1.12575
 C594 C 0.22199 0.65076 1.12179
 H595 H 0.21865 0.59996 1.15152
 H596 H 0.22852 0.66391 1.10878
 H597 H 0.17948 0.66726 1.17377
 H598 H 0.15901 0.65563 1.14958
 N599 N 0.14714 1.13210 0.69722
 N600 N 0.13288 1.15097 0.69997
 C601 C 0.11683 1.14629 0.71773
 C602 C 0.12066 1.12282 0.72610
 C603 C 0.14033 1.11455 0.71278
 H604 H 0.10294 1.15878 0.72367
 H605 H 0.14996 1.09765 0.71528
 Cu606 Cu 0.13590 1.17934 0.67931
 Cu607 Cu 0.17498 1.13275 0.67552
 Cu608 Cu 0.18235 1.18476 0.64062
 N609 N 0.13456 1.20159 0.65189
 N610 N 0.15330 1.20452 0.63755
 C611 C 0.14836 1.22208 0.62131
 C612 C 0.12478 1.23001 0.62496
 C613 C 0.11673 1.21673 0.64484
 H614 H 0.16076 1.22802 0.60733
 H615 H 0.09970 1.21876 0.65429
 N616 N 0.20498 1.15715 0.63961
 N617 N 0.20214 1.13730 0.65275
 C618 C 0.22049 1.12194 0.64798
 C619 C 0.23536 1.13259 0.63094
 C620 C 0.22498 1.15478 0.62583
 H621 H 0.22290 1.10425 0.65613
 H622 H 0.23153 1.16814 0.61305
 H623 H 0.17921 1.16951 0.67532
 H624 H 0.16025 1.15676 0.65046
 N625 N 1.35329 0.63105 0.30444
 N626 N 1.37158 0.64605 0.30695
 C627 C 1.38839 0.64098 0.28999
 C628 C 1.38024 0.62160 0.27634
 C629 C 1.35780 0.61597 0.28581
 H630 H 1.40506 0.65091 0.28743
 H631 H 1.34566 0.60197 0.27952
 Cu632 Cu 1.37169 0.67110 0.33176
 Cu633 Cu 1.32502 0.63221 0.32535
 Cu634 Cu 1.32076 0.68125 0.36394
 N635 N 1.36720 0.70036 0.35090
 N636 N 1.34706 0.70449 0.36286
 C637 C 1.34868 0.72599 0.37418
 C638 C 1.37098 0.73622 0.36883
 C639 C 1.38242 0.71906 0.35437
 H640 H 1.33514 0.73297 0.38649
 H641 H 1.40028 0.72035 0.34646
 N642 N 1.29611 0.65568 0.36249
 N643 N 1.29789 0.63675 0.34799
 C644 C 1.27885 0.62204 0.35184
 C645 C 1.26428 0.63243 0.36932
 C646 C 1.27585 0.65359 0.37587
 H647 H 1.27585 0.60491 0.34281
 H648 H 1.27019 0.66613 0.38983
 H649 H 1.32790 0.66938 0.32905
 H650 H 1.34003 0.65040 0.35459
 N651 N 1.34811 1.13581 0.79896
 N652 N 1.36673 1.15043 0.80136
 C653 C 1.38336 1.14495 0.78435
 C654 C 1.37478 1.12572 0.77083
 C655 C 1.35223 1.12060 0.78034
 H656 H 1.40048 1.15411 0.78192
 H657 H 1.34006 1.10644 0.77450
 Cu658 Cu 1.36759 1.17446 0.82710
 Cu659 Cu 1.32060 1.13647 0.82112
 Cu660 Cu 1.32259 1.17880 0.86764
 N661 N 1.36844 1.19850 0.85284
 N662 N 1.35061 1.20015 0.86856
 C663 C 1.35542 1.21812 0.88432
 C664 C 1.37759 1.22800 0.87838
 C665 C 1.38526 1.21534 0.85815
 H666 H 1.34374 1.22359 0.89907
 H667 H 1.40165 1.21854 0.84793
 N668 N 1.29580 1.15565 0.86356
 N669 N 1.29472 1.13995 0.84551
 C670 C 1.27449 1.12657 0.84793
 C671 C 1.26232 1.13426 0.86842
 C672 C 1.27641 1.15250 0.87802
 H673 H 1.26934 1.11172 0.83624
 H674 H 1.27289 1.16243 0.89456
 H675 H 1.32379 1.17247 0.83071
 H676 H 1.33944 1.14989 0.85058
 N677 N 0.84752 0.63534 0.79946
 N678 N 0.86540 0.65096 0.80101
 C679 C 0.88248 0.64508 0.78459
 C680 C 0.87488 0.62464 0.77226
 C681 C 0.85249 0.61915 0.78192
 H682 H 0.89900 0.65510 0.78144
 H683 H 0.84072 0.60444 0.77659
 Cu684 Cu 0.86407 0.67787 0.82376
 Cu685 Cu 0.81902 0.63722 0.82004
 Cu686 Cu 0.81972 0.68065 0.86546
 N687 N 0.86205 0.70447 0.84679
 N688 N 0.84452 0.70554 0.86290
 C689 C 0.84743 0.72546 0.87665
 C690 C 0.86780 0.73756 0.86864
 C691 C 0.87682 0.72362 0.84988
 H692 H 0.83590 0.73057 0.89166
 H693 H 0.89298 0.72721 0.83942
 N694 N 0.79613 0.65397 0.86452
 N695 N 0.79584 0.63752 0.84714
 C696 C 0.77848 0.62113 0.85207
 C697 C 0.76743 0.62760 0.87358
 C698 C 0.77879 0.64863 0.88083
 H699 H 0.77441 0.60543 0.84108
 H700 H 0.77502 0.65887 0.89712
 H701 H 0.82038 0.67406 0.82918
 H702 H 0.83815 0.65243 0.84842
 N703 N 0.85365 1.13592 0.30627
 N704 N 0.85902 1.15756 0.29799
 C705 C 0.87094 1.15547 0.27691
 C706 C 0.87512 1.13104 0.27231
 C707 C 0.86327 1.11919 0.29128
 H708 H 0.87593 1.17090 0.26595
 H709 H 0.86165 1.09986 0.29405
 Cu710 Cu 0.85447 1.18633 0.31745
 Cu711 Cu 0.83321 1.13199 0.33505
 Cu712 Cu 0.81606 1.18503 0.36401
 N713 N 0.85748 1.20897 0.34427
 N714 N 0.84215 1.20869 0.36251
 C715 C 0.84851 1.22583 0.37864
 C716 C 0.86924 1.23703 0.37022
 C717 C 0.87432 1.22610 0.34825
 H718 H 0.83917 1.22941 0.39551
 H719 H 0.88927 1.23011 0.33622
 N720 N 0.79912 1.15429 0.36885
 N721 N 0.80561 1.13389 0.35812
 C722 C 0.78902 1.11673 0.36333
 C723 C 0.77124 1.12705 0.37774
 C724 C 0.77853 1.15071 0.38127
 H725 H 0.78908 1.09853 0.35606
 H726 H 0.76898 1.16459 0.39130
 H727 H 0.81815 1.16563 0.33057
 H728 H 0.84321 1.16306 0.35332
 N729 N 0.64879 0.36780 0.30250
 N730 N 0.63621 0.34791 0.29905
 C731 C 0.62020 0.35173 0.28101
 C732 C 0.62227 0.37563 0.27326
 C733 C 0.64098 0.38506 0.28711
 H734 H 0.60731 0.33841 0.27472
 H735 H 0.64910 0.40280 0.28537
 Cu736 Cu 0.64038 0.31950 0.31968
 Cu737 Cu 0.67526 0.36938 0.32568
 Cu738 Cu 0.67692 0.32411 0.36861
 N739 N 0.63732 0.29796 0.34756
 N740 N 0.65058 0.30084 0.36714
 C741 C 0.64316 0.28520 0.38434
 C742 C 0.62404 0.27176 0.37516
 C743 C 0.62131 0.28000 0.35147
 H744 H 0.65167 0.28315 0.40190
 H745 H 0.60786 0.27421 0.33846
 N746 N 0.70161 0.34966 0.36673
 N747 N 0.70069 0.36731 0.35055
 C748 C 0.71991 0.38195 0.35370
 C749 C 0.73371 0.37281 0.37250
 C750 C 0.72151 0.35248 0.38053
 H751 H 0.72388 0.39783 0.34288
 H752 H 0.72679 0.34068 0.39531
 H753 H 0.68046 0.33256 0.33189
 H754 H 0.65542 0.34799 0.34924
 N755 N 0.65210 0.86687 0.79963
 N756 N 0.63417 0.85131 0.80122
 C757 C 0.61940 0.85427 0.78198
 C758 C 0.62883 0.87240 0.76745
 C759 C 0.64944 0.88017 0.77930
 H760 H 0.60313 0.84391 0.77866
 H761 H 0.66141 0.89460 0.77363
 Cu762 Cu 0.63184 0.82839 0.82800
 Cu763 Cu 0.67714 0.86918 0.82432
 Cu764 Cu 0.67852 0.82346 0.86717
 N765 N 0.63537 0.80061 0.84952
 N766 N 0.65389 0.79850 0.86436
 C767 C 0.65171 0.77780 0.87712
 C768 C 0.63082 0.76622 0.86974
 C769 C 0.62072 0.78133 0.85241
 H770 H 0.66403 0.77187 0.89120
 H771 H 0.60391 0.77850 0.84276
 N772 N 0.70168 0.85050 0.86704
 N773 N 0.70093 0.86818 0.85088
 C774 C 0.71824 0.88450 0.85619
 C775 C 0.73026 0.87675 0.87678
 C776 C 0.71957 0.85502 0.88299
 H777 H 0.72182 0.90086 0.84598
 H778 H 0.72420 0.84368 0.89834
 H779 H 0.67546 0.83227 0.83076
 H780 H 0.65926 0.85241 0.85285
 N781 N 0.15116 0.36608 0.80100
 N782 N 0.13255 0.35148 0.80356
 C783 C 0.11741 0.35457 0.78463
 C784 C 0.12732 0.37175 0.76928
 C785 C 0.14858 0.37888 0.78036
 H786 H 0.10062 0.34487 0.78205
 H787 H 0.16106 0.39255 0.77395
 Cu788 Cu 0.12999 0.32931 0.83092
 Cu789 Cu 0.17690 0.36790 0.82496
 Cu790 Cu 0.17832 0.32228 0.86777
 N791 N 0.13380 0.30103 0.85169
 N792 N 0.15333 0.29761 0.86486
 C793 C 0.15171 0.27604 0.87622
 C794 C 0.12996 0.26525 0.86981
 C795 C 0.11887 0.28200 0.85458
 H796 H 0.16479 0.26935 0.88922
 H797 H 0.10156 0.28011 0.84563
 N798 N 0.20168 0.34922 0.86750
 N799 N 0.20127 0.36652 0.85091
 C800 C 0.21888 0.38262 0.85580
 C801 C 0.23061 0.37531 0.87667
 C802 C 0.21946 0.35396 0.88352
 H803 H 0.22254 0.39884 0.84538
 H804 H 0.22385 0.34293 0.89916
 H805 H 0.17370 0.33100 0.83164
 H806 H 0.15945 0.35194 0.85446
 N807 N 0.14938 0.86823 0.30274
 N808 N 0.13302 0.85095 0.30239
 C809 C 0.11902 0.85367 0.28258
 C810 C 0.12731 0.87354 0.26978
 C811 C 0.14642 0.88254 0.28316
 H812 H 0.10405 0.84205 0.27771
 H813 H 0.15721 0.89837 0.27906
 Cu814 Cu 0.13178 0.82668 0.32792
 Cu815 Cu 0.17251 0.87123 0.32916
 Cu816 Cu 0.18246 0.81713 0.35994
 N817 N 0.13272 0.80316 0.35415
 N818 N 0.15291 0.79852 0.36588
 C819 C 0.14908 0.78004 0.38141
 C820 C 0.12487 0.77328 0.38003
 C821 C 0.11524 0.78821 0.36215
 H822 H 0.16279 0.77251 0.39325
 H823 H 0.09727 0.78726 0.35445
 N824 N 0.20560 0.84450 0.36025
 N825 N 0.20100 0.86549 0.34961
 C826 C 0.21891 0.88116 0.35469
 C827 C 0.23572 0.86941 0.36897
 C828 C 0.22678 0.84623 0.37228
 H829 H 0.21969 0.89975 0.34848
 H830 H 0.23467 0.83203 0.38331
 H831 H 0.17527 0.83474 0.32701
 H832 H 0.16051 0.84602 0.35528
 O833 O 1.08805 1.02415 1.12153
 O834 O 1.11666 1.02398 1.14945
 C835 C 1.09719 1.03272 1.14086
 C836 C 1.08569 1.05378 1.15283
 C837 C 1.09722 1.06530 1.17237
 H838 H 1.11410 1.05819 1.17946
 O839 O 0.91464 0.97848 1.12297
 O840 O 0.88626 0.97875 1.15111
 C841 C 0.90605 0.97041 1.14277
 C842 C 0.91811 0.94984 1.15525
 C843 C 0.90816 0.94030 1.17660
 H844 H 0.89412 0.95037 1.18589
 O845 O 1.02346 1.12134 1.08891
 O846 O 1.02343 1.14965 1.11712
 C847 C 1.03173 1.14104 1.09743
 C848 C 1.05200 1.15340 1.08498
 C849 C 1.06286 1.17387 1.09549
 H850 H 1.05567 1.18148 1.11212
 O851 O 0.97654 0.87848 1.08907
 O852 O 0.97663 0.85010 1.11732
 C853 C 0.96857 0.85855 1.09743
 C854 C 0.94927 0.84558 1.08411
 C855 C 0.94099 0.82281 1.09200
 H856 H 0.94917 0.81412 1.10764
 O857 O 1.11955 1.08804 1.02387
 O858 O 1.14790 1.11612 1.02400
 C859 C 1.13933 1.09633 1.03213
 C860 C 1.15207 1.08322 1.05188
 C861 C 1.17422 1.09187 1.06089
 H862 H 1.18263 1.10763 1.05271
 O863 O 0.88155 0.91254 1.02576
 O864 O 0.85332 0.88432 1.02595
 C865 C 0.86214 0.90381 1.03446
 C866 C 0.85025 0.91580 1.05536
 C867 C 0.82993 0.90512 1.06630
 H868 H 0.82203 0.88887 1.05865
 O869 O 0.97759 1.08726 1.12312
 O870 O 0.97793 1.11534 1.15157
 C871 C 0.96970 1.09560 1.14309
 C872 C 0.94951 1.08326 1.15565
 C873 C 0.94057 1.09244 1.17757
 H874 H 0.95124 1.10569 1.18724
 O875 O 1.02278 0.91268 1.12239
 O876 O 1.02288 0.88459 1.15092
 C877 C 1.03121 0.90420 1.14208
 C878 C 1.05164 0.91666 1.15420
 C879 C 1.06250 0.90639 1.17486
 H880 H 1.05530 0.88986 1.18266
 O881 O 1.12006 0.97574 1.08870
 O882 O 1.14859 0.97557 1.11668
 C883 C 1.13966 0.96714 1.09723
 C884 C 1.15176 0.94669 1.08476
 C885 C 1.17349 0.93700 1.09385
 H886 H 1.18190 0.94483 1.10978
 O887 O 0.88053 1.02413 1.08819
 O888 O 0.85186 1.02406 1.11603
 C889 C 0.86054 1.03216 1.09625
 C890 C 0.84781 1.05180 1.08303
 C891 C 0.82553 1.06065 1.09151
 H892 H 0.81688 1.05224 1.10703
 O893 O 0.91338 1.12132 1.02493
 O894 O 0.88501 1.14947 1.02489
 C895 C 0.90443 1.14070 1.03359
 C896 C 0.91595 1.15247 1.05480
 C897 C 0.90459 1.17221 1.06617
 H898 H 0.88827 1.17996 1.05846
 O899 O 1.08599 0.87881 1.02462
 O900 O 1.11414 0.85043 1.02434
 C901 C 1.09453 0.85901 1.03279
 C902 C 1.08203 0.84640 1.05298
 C903 C 1.09050 0.82393 1.06152
 H904 H 1.10534 0.81498 1.05229
 O905 O 0.91235 1.02585 1.12259
 O906 O 0.88374 1.02620 1.15048
 C907 C 0.90328 1.03467 1.14186
 C908 C 0.91565 1.05507 1.15409
 C909 C 0.90549 1.06642 1.17461
 H910 H 0.88793 1.06062 1.18107
 O911 O 1.08656 0.97673 1.12159
 O912 O 1.11507 0.97653 1.14960
 C913 C 1.09523 0.96838 1.14125
 C914 C 1.08279 0.94820 1.15389
 C915 C 1.09305 0.93786 1.17479
 H916 H 1.10921 0.94566 1.18272
 O917 O 1.02359 0.87916 1.08978
 O918 O 1.02380 0.85092 1.11818
 C919 C 1.03212 0.85959 1.09849
 C920 C 1.05213 0.84707 1.08568
 C921 C 1.06157 0.82511 1.09456
 H922 H 1.05439 0.81732 1.11112
 O923 O 0.97605 1.12068 1.09004
 O924 O 0.97593 1.14876 1.11848
 C925 C 0.96732 1.14002 1.09899
 C926 C 0.94636 1.15191 1.08708
 C927 C 0.93439 1.17136 1.09842
 H928 H 0.94092 1.17828 1.11561
 O929 O 0.88062 1.08789 1.02386
 O930 O 0.85224 1.11604 1.02371
 C931 C 0.86082 1.09630 1.03200
 C932 C 0.84809 1.08340 1.05183
 C933 C 0.82602 1.09224 1.06087
 H934 H 0.81786 1.10830 1.05298
 O935 O 1.11922 0.91179 1.02488
 O936 O 1.14744 0.88347 1.02467
 C937 C 1.13885 0.90305 1.03317
 C938 C 1.15140 0.91542 1.05337
 C939 C 1.17321 0.90612 1.06261
 H940 H 1.18149 0.89032 1.05438
 O941 O 0.97539 0.91170 1.12220
 O942 O 0.97514 0.88348 1.15059
 C943 C 0.96668 0.90301 1.14169
 C944 C 0.94629 0.91568 1.15380
 C945 C 0.93439 0.90521 1.17385
 H946 H 0.93997 0.88752 1.18033
 O947 O 1.02472 1.08827 1.12212
 O948 O 1.02502 1.11662 1.15031
 C949 C 1.03349 1.09711 1.14149
 C950 C 1.05445 1.08519 1.15322
 C951 C 1.06609 1.09626 1.17295
 H952 H 1.05890 1.11284 1.18064
 O953 O 0.88135 0.97675 1.09005
 O954 O 0.85295 0.97666 1.11816
 C955 C 0.86199 0.96797 1.09884
 C956 C 0.85034 0.94691 1.08698
 C957 C 0.83030 0.93563 1.09787
 H958 H 0.82285 0.94273 1.11461
 O959 O 1.12010 1.02320 1.08749
 O960 O 1.14872 1.02299 1.11539
 C961 C 1.13990 1.03141 1.09579
 C962 C 1.15232 1.05152 1.08303
 C963 C 1.17426 1.06071 1.09195
 H964 H 1.18254 1.05269 1.10790
 O965 O 0.91397 0.87856 1.02458
 O966 O 0.88577 0.85032 1.02437
 C967 C 0.90553 0.85868 1.03260
 C968 C 0.91844 0.84565 1.05226
 C969 C 0.91040 0.82291 1.06040
 H970 H 0.89513 0.81421 1.05167
 O971 O 1.08661 1.12168 1.02431
 O972 O 1.11493 1.14980 1.02450
 C973 C 1.09533 1.14118 1.03286
 C974 C 1.08315 1.15341 1.05343
 C975 C 1.09362 1.17395 1.06416
 H976 H 1.10997 1.18176 1.05662
 Cu977 Cu 1.10083 0.99993 1.10203
 Cu978 Cu 1.13510 0.99970 1.13561
 Cu979 Cu 0.90008 1.00137 1.10316
 Cu980 Cu 0.86584 1.00142 1.13674
 Cu981 Cu 1.00042 1.10159 1.10317
 Cu982 Cu 1.00055 1.13547 1.13718
 Cu983 Cu 0.99951 0.89836 1.10307
 Cu984 Cu 0.99960 0.86453 1.13721
 C985 C 1.06425 1.06381 1.14343
 H986 H 1.05559 1.05538 1.12797
 C987 C 1.08774 1.08672 1.18218
 C988 C 0.93764 0.93776 1.14435
 H989 H 0.94565 0.94521 1.12802
 C990 C 0.91490 0.91721 1.18516
 C991 C 1.06217 1.14341 1.06383
 H992 H 1.05428 1.12727 1.05597
 C993 C 1.08383 1.18392 1.08538
 C994 C 0.93808 0.85667 1.06404
 H995 H 0.94411 0.87439 1.05811
 C996 C 0.92172 0.81135 1.08008
 C997 C 1.14145 1.06279 1.06285
 H998 H 1.12425 1.05617 1.05620
 C999 C 1.18546 1.08063 1.08079
 C1000 C 0.86021 0.93684 1.06570
 H1001 H 0.87605 0.94504 1.05754
 C1002 C 0.82032 0.91456 1.08785
 C1003 C 0.93735 1.06408 1.14443
 H1004 H 0.94448 1.05657 1.12774
 C1005 C 0.91770 1.08550 1.18644
 C1006 C 1.06188 0.93765 1.14389
 H1007 H 1.05408 0.94527 1.12753
 C1008 C 1.08339 0.91666 1.18493
 C1009 C 1.14096 0.93587 1.06440
 H1010 H 1.12400 0.94297 1.05754
 C1011 C 1.18440 0.91693 1.08268
 C1012 C 0.85874 1.06304 1.06292
 H1013 H 0.87606 1.05647 1.05644
 C1014 C 0.81449 1.08074 1.08043
 C1015 C 0.93699 1.14261 1.06526
 H1016 H 0.94566 1.12718 1.05677
 C1017 C 0.91327 1.18123 1.08830
 C1018 C 1.06249 0.85754 1.06487
 H1019 H 1.05580 0.87483 1.05832
 C1020 C 1.08033 0.81307 1.08223
 O1021 O 1.08756 0.97742 0.87964
 O1022 O 1.11610 0.97714 0.85166
 C1023 C 1.09631 0.96898 0.86008
 C1024 C 1.08375 0.94899 0.84739
 C1025 C 1.09263 0.94019 0.82522
 H1026 H 1.10819 0.94866 0.81676
 O1027 O 0.91260 1.02405 0.87957
 O1028 O 0.88409 1.02392 0.85154
 C1029 C 0.90375 1.03236 0.85996
 C1030 C 0.91600 1.05260 0.84733
 C1031 C 0.90637 1.06222 0.82577
 H1032 H 0.89044 1.05418 0.81764
 O1033 O 0.97703 1.12081 0.91213
 O1034 O 0.97687 1.14912 0.88382
 C1035 C 0.96873 1.14056 0.90363
 C1036 C 0.94877 1.15315 0.91640
 C1037 C 0.93820 1.17402 0.90628
 H1038 H 0.94524 1.18160 0.88956
 O1039 O 1.02343 0.87995 0.91227
 O1040 O 1.02344 0.85163 0.88407
 C1041 C 1.03160 0.86015 0.90385
 C1042 C 1.05124 0.84734 0.91689
 C1043 C 1.06014 0.82508 0.90834
 H1044 H 1.05231 0.81681 0.89234
 O1045 O 1.11904 0.91264 0.97748
 O1046 O 1.14733 0.88440 0.97729
 C1047 C 1.13877 0.90422 0.96917
 C1048 C 1.15157 0.91728 0.94944
 C1049 C 1.17398 0.90879 0.94090
 H1050 H 1.18246 0.89317 0.94931
 O1051 O 0.88091 1.08891 0.97639
 O1052 O 0.85276 1.11729 0.97627
 C1053 C 0.86146 1.09775 0.96776
 C1054 C 0.84930 1.08568 0.94708
 C1055 C 0.82911 1.09651 0.93590
 H1056 H 0.82181 1.11337 0.94287
 O1057 O 1.02329 1.08716 0.87806
 O1058 O 1.02302 1.11523 0.84950
 C1059 C 1.03129 1.09551 0.85811
 C1060 C 1.05110 1.08264 0.84541
 C1061 C 1.05931 1.09065 0.82266
 H1062 H 1.05005 1.10542 0.81355
 O1063 O 0.97682 0.91357 0.87868
 O1064 O 0.97695 0.88554 0.85018
 C1065 C 0.96860 0.90515 0.85889
 C1066 C 0.94859 0.91790 0.84639
 C1067 C 0.93963 0.90936 0.82416
 H1068 H 0.94774 0.89361 0.81568
 O1069 O 1.12036 1.02498 0.91276
 O1070 O 1.14880 1.02483 0.88469
 C1071 C 1.13992 1.03344 0.90412
 C1072 C 1.15178 1.05428 0.91611
 C1073 C 1.17177 1.06562 0.90519
 H1074 H 1.17955 1.05827 0.88871
 O1075 O 0.88019 0.97676 0.91351
 O1076 O 0.85159 0.97662 0.88559
 C1077 C 0.86044 0.96840 0.90525
 C1078 C 0.84798 0.94852 0.91831
 C1079 C 0.82592 0.93939 0.90964
 H1080 H 0.81763 0.94718 0.89358
 O1081 O 1.08643 1.12183 0.97672
 O1082 O 1.11465 1.15005 0.97687
 C1083 C 1.09518 1.14137 0.96823
 C1084 C 1.08342 1.15324 0.94714
 C1085 C 1.09417 1.17350 0.93604
 H1086 H 1.10999 1.18181 0.94411
 O1087 O 0.91356 0.87992 0.97712
 O1088 O 0.88503 0.85201 0.97695
 C1089 C 0.90455 0.86065 0.96837
 C1090 C 0.91624 0.84879 0.94730
 C1091 C 0.90529 0.82870 0.93620
 H1092 H 0.88904 0.82085 0.94390
 O1093 O 0.91272 0.97683 0.87949
 O1094 O 0.88421 0.97669 0.85147
 C1095 C 0.90409 0.96860 0.85978
 C1096 C 0.91701 0.94898 0.84681
 C1097 C 0.90853 0.94040 0.82438
 H1098 H 0.89292 0.94879 0.81590
 O1099 O 1.08779 1.02469 0.87908
 O1100 O 1.11618 1.02442 0.85096
 C1101 C 1.09645 1.03282 0.85932
 C1102 C 1.08356 1.05251 0.84630
 C1103 C 1.09211 1.06142 0.82397
 H1104 H 1.10843 1.05392 0.81607
 O1105 O 0.97621 0.88061 0.91195
 O1106 O 0.97606 0.85251 0.88352
 C1107 C 0.96759 0.86121 0.90312
 C1108 C 0.94688 0.84920 0.91523
 C1109 C 0.93541 0.82933 0.90425
 H1110 H 0.94223 0.82211 0.88729
 O1111 O 1.02432 1.12030 0.91124
 O1112 O 1.02431 1.14843 0.88275
 C1113 C 1.03286 1.13975 0.90234
 C1114 C 1.05345 1.15194 0.91447
 C1115 C 1.06495 1.17172 0.90330
 H1116 H 1.05841 1.17848 0.88602
 O1117 O 0.88041 0.91304 0.97826
 O1118 O 0.85186 0.88514 0.97850
 C1119 C 0.86053 0.90478 0.97017
 C1120 C 0.84786 0.91764 0.95024
 C1121 C 0.82566 0.90896 0.94142
 H1122 H 0.81709 0.89347 0.94993
 O1123 O 1.11964 1.08892 0.97646
 O1124 O 1.14782 1.11719 0.97663
 C1125 C 1.13914 1.09772 0.96800
 C1126 C 1.15128 1.08582 0.94724
 C1127 C 1.17112 1.09699 0.93590
 H1128 H 1.17829 1.11385 0.94294
 O1129 O 1.02407 0.91327 0.87912
 O1130 O 1.02427 0.88510 0.85077
 C1131 C 1.03257 0.90471 0.85950
 C1132 C 1.05272 0.91742 0.84712
 C1133 C 1.06204 0.90873 0.82505
 H1134 H 1.05420 0.89285 0.81659
 O1135 O 0.97608 1.08784 0.87879
 O1136 O 0.97582 1.11610 0.85041
 C1137 C 0.96748 1.09652 0.85922
 C1138 C 0.94710 1.08409 0.84702
 C1139 C 0.93715 1.09349 0.82550
 H1140 H 0.94477 1.10961 0.81725
 O1141 O 0.88002 1.02423 0.91305
 O1142 O 0.85149 1.02413 0.88505
 C1143 C 0.86044 1.03274 0.90445
 C1144 C 0.84860 1.05366 0.91640
 C1145 C 0.82826 1.06463 0.90572
 H1146 H 0.82022 1.05691 0.88955
 O1147 O 1.12008 0.97750 0.91344
 O1148 O 1.14874 0.97726 0.88559
 C1149 C 1.13980 0.96901 0.90520
 C1150 C 1.15206 0.94888 0.91817
 C1151 C 1.17433 0.93991 0.90979
 H1152 H 1.18294 0.94805 0.89410
 O1153 O 1.08612 0.87915 0.97722
 O1154 O 1.11433 0.85083 0.97701
 C1155 C 1.09465 0.85949 0.96881
 C1156 C 1.08196 0.84699 0.94880
 C1157 C 1.09041 0.82459 0.94018
 H1158 H 1.10571 0.81582 0.94885
 O1159 O 0.91447 1.12162 0.97736
 O1160 O 0.88628 1.14996 0.97734
 C1161 C 0.90594 1.14134 0.96903
 C1162 C 0.91829 1.15369 0.94862
 C1163 C 0.90823 1.17473 0.93838
 H1164 H 0.89231 1.18296 0.94639
 Cu1165 Cu 1.10112 1.00119 0.89906
 Cu1166 Cu 1.13539 1.00083 0.86548
 Cu1167 Cu 0.89922 1.00039 0.89924
 Cu1168 Cu 0.86491 1.00023 0.86566
 Cu1169 Cu 1.10019 1.10233 1.00040
 Cu1170 Cu 1.13412 1.13616 1.00062
 Cu1171 Cu 1.09975 0.89843 1.00105
 Cu1172 Cu 1.13365 0.86445 1.00076
 Cu1173 Cu 0.90019 1.10212 1.00064
 Cu1174 Cu 0.86628 1.13606 1.00055
 Cu1175 Cu 0.90022 0.89882 1.00146
 Cu1176 Cu 0.86613 0.86515 1.00147
 Cu1177 Cu 1.00020 1.10120 0.89790
 Cu1178 Cu 0.99999 1.13510 0.86381
 Cu1179 Cu 1.00018 0.89968 0.89834
 Cu1180 Cu 1.00023 0.86584 0.86430
 C1181 C 1.06359 0.93769 0.85803
 H1182 H 1.05681 0.94425 0.87527
 C1183 C 1.08180 0.92022 0.81390
 C1184 C 0.93653 1.06349 0.85766
 H1185 H 0.94385 1.05638 0.87447
 C1186 C 0.91694 1.08252 0.81474
 C1187 C 0.93877 1.14320 0.93768
 H1188 H 0.94637 1.12671 0.94522
 C1189 C 0.91775 1.18458 0.91696
 C1190 C 1.06213 0.85804 0.93727
 H1191 H 1.05569 0.87544 0.94368
 C1192 C 1.07950 0.81350 0.92010
 C1193 C 1.14091 0.93756 0.93816
 H1194 H 1.12351 0.94406 0.94446
 C1195 C 1.18550 0.92012 0.92125
 C1196 C 0.85886 1.06419 0.93722
 H1197 H 0.87478 1.05606 0.94534
 C1198 C 0.81880 1.08628 0.91505
 C1199 C 1.06301 1.06322 0.85679
 H1200 H 1.05673 1.05695 0.87433
 C1201 C 1.07972 1.08009 0.81171
 C1202 C 0.93729 0.93786 0.85746
 H1203 H 0.94379 0.94423 0.87486
 C1204 C 0.91988 0.92075 0.81287
 C1205 C 1.14180 1.06439 0.93728
 H1206 H 1.12612 1.05602 0.94556
 C1207 C 1.18112 1.08722 0.91471
 C1208 C 0.85872 0.93766 0.93877
 H1209 H 0.87598 0.94428 0.94527
 C1210 C 0.81455 0.91985 0.92127
 C1211 C 1.06284 1.14281 0.93638
 H1212 H 1.05456 1.12706 0.94467
 C1213 C 1.08551 1.18233 0.91375
 C1214 C 0.93719 0.85877 0.93681
 H1215 H 0.94554 0.87448 0.94505
 C1216 C 0.91443 0.81932 0.91441
 O1217 O 0.97823 0.41481 0.37647
 O1218 O 0.97880 0.38649 0.34826
 C1219 C 0.97041 0.40625 0.35657
 C1220 C 0.95026 0.41851 0.34381
 C1221 C 0.94135 0.40916 0.32195
 H1222 H 0.95177 0.39544 0.31260
 O1223 O 1.02345 0.58860 0.37865
 O1224 O 1.02355 0.61673 0.35016
 C1225 C 1.03159 0.59689 0.35876
 C1226 C 1.05129 0.58382 0.34605
 C1227 C 1.05931 0.59163 0.32318
 H1228 H 1.05006 0.60638 0.31405
 O1229 O 0.88117 0.47721 0.41090
 O1230 O 0.85283 0.47740 0.38271
 C1231 C 0.86145 0.46902 0.40241
 C1232 C 0.84906 0.44881 0.41500
 C1233 C 0.82846 0.43805 0.40468
 H1234 H 0.82089 0.44517 0.38798
 O1235 O 1.12103 0.52576 0.41288
 O1236 O 1.14950 0.52606 0.38483
 C1237 C 1.14057 0.53437 0.40436
 C1238 C 1.15246 0.55495 0.41669
 C1239 C 1.17263 0.56621 0.40610
 H1240 H 1.18021 0.55924 0.38936
 O1241 O 0.91407 0.38110 0.47536
 O1242 O 0.88588 0.35284 0.47503
 C1243 C 0.90545 0.36161 0.46670
 C1244 C 0.91775 0.34952 0.44612
 C1245 C 0.90826 0.32805 0.43635
 H1246 H 0.89262 0.31959 0.44465
 O1247 O 1.08680 0.62170 0.47722
 O1248 O 1.11483 0.65012 0.47784
 C1249 C 1.09536 0.64150 0.46914
 C1250 C 1.08306 0.65415 0.44884
 C1251 C 1.09164 0.67661 0.44053
 H1252 H 1.10653 0.68539 0.44980
 O1253 O 0.91524 0.52348 0.37713
 O1254 O 0.88707 0.52358 0.34877
 C1255 C 0.90676 0.53183 0.35740
 C1256 C 0.91881 0.55258 0.34531
 C1257 C 0.90886 0.56249 0.32411
 H1258 H 0.89487 0.55259 0.31462
 O1259 O 1.08885 0.47823 0.37919
 O1260 O 1.11738 0.47847 0.35120
 C1261 C 1.09773 0.46999 0.35959
 C1262 C 1.08553 0.44979 0.34691
 C1263 C 1.09529 0.44018 0.32543
 H1264 H 1.11140 0.44803 0.31745
 O1265 O 1.02423 0.38117 0.41108
 O1266 O 1.02453 0.35269 0.38303
 C1267 C 1.03246 0.36129 0.40286
 C1268 C 1.05186 0.34840 0.41617
 C1269 C 1.06085 0.32618 0.40758
 H1270 H 1.05331 0.31813 0.39132
 O1271 O 0.97739 0.62279 0.41237
 O1272 O 0.97766 0.65123 0.38418
 C1273 C 0.96931 0.64263 0.40389
 C1274 C 0.94924 0.65518 0.41646
 C1275 C 0.93897 0.67625 0.40645
 H1276 H 0.94650 0.68420 0.39011
 O1277 O 0.88108 0.58848 0.47459
 O1278 O 0.85277 0.61668 0.47440
 C1279 C 0.86174 0.59730 0.46575
 C1280 C 0.85018 0.58563 0.44447
 C1281 C 0.83052 0.59692 0.43286
 H1282 H 0.82299 0.61357 0.44007
 O1283 O 1.11958 0.41303 0.47635
 O1284 O 1.14767 0.38460 0.47617
 C1285 C 1.13903 0.40424 0.46773
 C1286 C 1.15133 0.41653 0.44718
 C1287 C 1.17138 0.40561 0.43591
 H1288 H 1.17818 0.38840 0.44256
 O1289 O 0.97616 0.59008 0.37895
 O1290 O 0.97608 0.61847 0.35072
 C1291 C 0.96748 0.59898 0.35951
 C1292 C 0.94698 0.58662 0.34732
 C1293 C 0.93502 0.59748 0.32750
 H1294 H 0.94057 0.61528 0.32135
 O1295 O 1.02532 0.41448 0.37797
 O1296 O 1.02592 0.38609 0.34984
 C1297 C 1.03408 0.40577 0.35855
 C1298 C 1.05442 0.41830 0.34643
 C1299 C 1.06443 0.40898 0.32497
 H1300 H 1.05686 0.39291 0.31662
 O1301 O 1.12109 0.47832 0.41324
 O1302 O 1.14965 0.47850 0.38529
 C1303 C 1.14078 0.46995 0.40480
 C1304 C 1.15269 0.44914 0.41701
 C1305 C 1.17337 0.43845 0.40672
 H1306 H 1.18194 0.44672 0.39109
 O1307 O 0.88155 0.52469 0.40967
 O1308 O 0.85334 0.52500 0.38136
 C1309 C 0.86222 0.53354 0.40082
 C1310 C 0.85050 0.55460 0.41269
 C1311 C 0.83089 0.56629 0.40140
 H1312 H 0.82357 0.55938 0.38452
 O1313 O 0.91361 0.62228 0.47578
 O1314 O 0.88522 0.65043 0.47570
 C1315 C 0.90503 0.64204 0.46755
 C1316 C 0.91765 0.65482 0.44756
 C1317 C 0.90761 0.67585 0.43721
 H1318 H 0.89111 0.68357 0.44452
 O1319 O 1.08640 0.37999 0.47676
 O1320 O 1.11448 0.35152 0.47676
 C1321 C 1.09483 0.36022 0.46850
 C1322 C 1.08213 0.34771 0.44850
 C1323 C 1.09056 0.32530 0.43991
 H1324 H 1.10571 0.31643 0.44874
 O1325 O 1.08815 0.52553 0.37945
 O1326 O 1.11654 0.52576 0.35133
 C1327 C 1.09672 0.53389 0.35975
 C1328 C 1.08365 0.55354 0.34683
 C1329 C 1.09195 0.56223 0.32433
 H1330 H 1.10813 0.55458 0.31625
 O1331 O 0.91306 0.47613 0.37660
 O1332 O 0.88474 0.47615 0.34840
 C1333 C 0.90422 0.46757 0.35710
 C1334 C 0.91668 0.44720 0.34481
 C1335 C 0.90672 0.43601 0.32412
 H1336 H 0.88939 0.44211 0.31725
 O1337 O 1.02456 0.62206 0.41161
 O1338 O 1.02499 0.65039 0.38333
 C1339 C 1.03320 0.64162 0.40304
 C1340 C 1.05317 0.65399 0.41606
 C1341 C 1.06248 0.67618 0.40764
 H1342 H 1.05507 0.68450 0.39142
 O1343 O 0.97700 0.38203 0.41018
 O1344 O 0.97725 0.35366 0.38202
 C1345 C 0.96861 0.36245 0.40151
 C1346 C 0.94828 0.35012 0.41395
 C1347 C 0.93818 0.32889 0.40421
 H1348 H 0.94540 0.32123 0.38762
 O1349 O 1.12027 0.58891 0.47722
 O1350 O 1.14832 0.61732 0.47766
 C1351 C 1.13984 0.59778 0.46900
 C1352 C 1.15223 0.58586 0.44842
 C1353 C 1.17260 0.59668 0.43771
 H1354 H 1.18026 0.61304 0.44536
 O1355 O 0.88074 0.41408 0.47583
 O1356 O 0.85257 0.38579 0.47555
 C1357 C 0.86116 0.40551 0.46733
 C1358 C 0.84885 0.41792 0.44692
 C1359 C 0.82803 0.40771 0.43653
 H1360 H 0.81997 0.39163 0.44443
 Cu1361 Cu 1.00116 0.40097 0.39676
 Cu1362 Cu 1.00167 0.36687 0.36296
 Cu1363 Cu 1.00041 0.60304 0.39820
 Cu1364 Cu 1.00067 0.63704 0.36423
 Cu1365 Cu 0.90058 0.50029 0.39639
 Cu1366 Cu 0.86662 0.50059 0.36251
 Cu1367 Cu 1.10194 0.50196 0.39901
 Cu1368 Cu 1.13620 0.50224 0.36542
 C1369 C 0.93819 0.43796 0.35473
 H1370 H 0.94525 0.44549 0.37144
 C1371 C 0.91879 0.41660 0.31264
 C1372 C 1.06325 0.56442 0.35748
 H1373 H 1.05715 0.55832 0.37515
 C1374 C 1.07954 0.58088 0.31212
 C1375 C 0.85906 0.43867 0.43621
 H1376 H 0.87536 0.44639 0.44388
 C1377 C 0.81817 0.41730 0.41514
 C1378 C 1.14245 0.56482 0.43794
 H1379 H 1.12651 0.55660 0.44586
 C1380 C 1.18247 0.58724 0.41628
 C1381 C 0.93799 0.36023 0.43500
 H1382 H 0.94530 0.37690 0.44232
 C1383 C 0.91838 0.31763 0.41549
 C1384 C 1.06358 0.64318 0.43673
 H1385 H 1.05692 0.62582 0.44304
 C1386 C 1.08141 0.68781 0.42006
 C1387 C 0.93834 0.56442 0.35642
 H1388 H 0.94639 0.55666 0.37260
 C1389 C 0.91556 0.58571 0.31596
 C1390 C 1.06494 0.43887 0.35712
 H1391 H 1.05755 0.44593 0.37390
 C1392 C 1.08481 0.41983 0.31454
 C1393 C 1.06249 0.35892 0.43677
 H1394 H 1.05604 0.37633 0.44316
 C1395 C 1.07992 0.31438 0.41957
 C1396 C 0.93864 0.64479 0.43721
 H1397 H 0.94615 0.62825 0.44472
 C1398 C 0.91807 0.68641 0.41657
 C1399 C 0.85999 0.56436 0.43430
 H1400 H 0.87546 0.55579 0.44283
 C1401 C 0.82113 0.58755 0.41122
 C1402 C 1.14204 0.43825 0.43751
 H1403 H 1.12601 0.44629 0.44548
 C1404 C 1.18222 0.41622 0.41545
 O1405 O 1.02289 0.41250 0.62185
 O1406 O 1.02277 0.38404 0.65001
 C1407 C 1.03118 0.40374 0.64150
 C1408 C 1.05152 0.41602 0.65393
 C1409 C 1.06216 0.40560 0.67463
 H1410 H 1.05481 0.38907 0.68231
 O1411 O 0.97590 0.58791 0.62209
 O1412 O 0.97586 0.61601 0.65053
 C1413 C 0.96759 0.59638 0.64184
 C1414 C 0.94761 0.58363 0.65433
 C1415 C 0.93836 0.59236 0.67639
 H1416 H 0.94624 0.60825 0.68480
 O1417 O 0.88018 0.52460 0.58738
 O1418 O 0.85168 0.52470 0.61539
 C1419 C 0.86055 0.53313 0.59584
 C1420 C 0.84851 0.55377 0.58348
 C1421 C 0.82845 0.56513 0.59427
 H1422 H 0.82081 0.55795 0.61091
 O1423 O 1.11948 0.47622 0.58856
 O1424 O 1.14788 0.47612 0.61669
 C1425 C 1.13918 0.46785 0.59703
 C1426 C 1.15171 0.44786 0.58422
 C1427 C 1.17362 0.43849 0.59316
 H1428 H 1.18185 0.44626 0.60922
 O1429 O 1.08674 0.37969 0.52408
 O1430 O 1.11494 0.35136 0.52399
 C1431 C 1.09527 0.35990 0.53232
 C1432 C 1.08263 0.34716 0.55234
 C1433 C 1.09107 0.32465 0.56083
 H1434 H 1.10610 0.31585 0.55178
 O1435 O 0.91303 0.62125 0.52322
 O1436 O 0.88458 0.64934 0.52309
 C1437 C 0.90404 0.64064 0.53180
 C1438 C 0.91565 0.65253 0.55290
 C1439 C 0.90460 0.67261 0.56400
 H1440 H 0.88830 0.68043 0.55633
 O1441 O 0.91280 0.47701 0.62113
 O1442 O 0.88409 0.47687 0.64892
 C1443 C 0.90384 0.46851 0.64059
 C1444 C 0.91578 0.44783 0.65294
 C1445 C 0.90505 0.43716 0.67344
 H1446 H 0.88913 0.44532 0.68153
 O1447 O 1.08656 0.52365 0.62180
 O1448 O 1.11481 0.52353 0.65008
 C1449 C 1.09520 0.53197 0.64145
 C1450 C 1.08267 0.55213 0.65397
 C1451 C 1.09169 0.56130 0.67592
 H1452 H 1.10771 0.55335 0.68406
 O1453 O 0.97641 0.37916 0.58788
 O1454 O 0.97615 0.35058 0.61592
 C1455 C 0.96807 0.35936 0.59617
 C1456 C 0.94820 0.34695 0.58309
 C1457 C 0.93828 0.32527 0.59211
 H1458 H 0.94567 0.31696 0.60834
 O1459 O 1.02276 0.62125 0.58867
 O1460 O 1.02259 0.64963 0.61681
 C1461 C 1.03087 0.64105 0.59710
 C1462 C 1.05065 0.65377 0.58422
 C1463 C 1.05921 0.67621 0.59260
 H1464 H 1.05068 0.68491 0.60801
 O1465 O 0.88085 0.41349 0.52329
 O1466 O 0.85262 0.38527 0.52293
 C1467 C 0.86118 0.40484 0.53150
 C1468 C 0.84856 0.41726 0.55169
 C1469 C 0.82672 0.40804 0.56089
 H1470 H 0.81844 0.39230 0.55261
 O1471 O 1.11963 0.58800 0.52460
 O1472 O 1.14786 0.61621 0.52504
 C1473 C 1.13926 0.59640 0.53309
 C1474 C 1.15182 0.58340 0.55299
 C1475 C 1.17405 0.59189 0.56190
 H1476 H 1.18263 0.60749 0.55358
 O1477 O 1.02308 0.58781 0.62179
 O1478 O 1.02311 0.61604 0.65009
 C1479 C 1.03139 0.59633 0.64150
 C1480 C 1.05136 0.58352 0.65411
 C1481 C 1.06042 0.59217 0.67629
 H1482 H 1.05215 0.60778 0.68487
 O1483 O 0.97555 0.41215 0.62119
 O1484 O 0.97522 0.38365 0.64930
 C1485 C 0.96681 0.40328 0.64058
 C1486 C 0.94610 0.41547 0.65256
 C1487 C 0.93447 0.40457 0.67246
 H1488 H 0.94104 0.38744 0.67954
 O1489 O 1.11956 0.52359 0.58856
 O1490 O 1.14791 0.52349 0.61674
 C1491 C 1.13924 0.53188 0.59707
 C1492 C 1.15177 0.55194 0.58435
 C1493 C 1.17388 0.56090 0.59313
 H1494 H 1.18221 0.55279 0.60901
 O1495 O 0.88008 0.47710 0.58758
 O1496 O 0.85134 0.47715 0.61534
 C1497 C 0.86034 0.46871 0.59589
 C1498 C 0.84819 0.44845 0.58321
 C1499 C 0.82652 0.43876 0.59229
 H1500 H 0.81823 0.44648 0.60835
 O1501 O 1.08665 0.62148 0.52467
 O1502 O 1.11481 0.64976 0.52521
 C1503 C 1.09509 0.64109 0.53324
 C1504 C 1.08218 0.65364 0.55311
 C1505 C 1.09066 0.67592 0.56195
 H1506 H 1.10649 0.68429 0.55393
 O1507 O 0.91389 0.38003 0.52283
 O1508 O 0.88567 0.35180 0.52240
 C1509 C 0.90531 0.36021 0.53086
 C1510 C 0.91771 0.34731 0.55091
 C1511 C 0.90832 0.32546 0.55996
 H1512 H 0.89276 0.31716 0.55136
 O1513 O 1.08648 0.47626 0.62195
 O1514 O 1.11482 0.47608 0.65013
 C1515 C 1.09515 0.46779 0.64158
 C1516 C 1.08280 0.44740 0.65398
 C1517 C 1.09300 0.43681 0.67481
 H1518 H 1.10926 0.44436 0.68276
 O1519 O 0.91256 0.52428 0.62145
 O1520 O 0.88406 0.52413 0.64947
 C1521 C 0.90383 0.53242 0.64115
 C1522 C 0.91644 0.55225 0.65403
 C1523 C 0.90759 0.56107 0.67623
 H1524 H 0.89196 0.55270 0.68463
 O1525 O 0.97553 0.62062 0.58854
 O1526 O 0.97522 0.64878 0.61692
 C1527 C 0.96687 0.64007 0.59728
 C1528 C 0.94624 0.65212 0.58502
 C1529 C 0.93477 0.67206 0.59592
 H1530 H 0.94157 0.67933 0.61285
 O1531 O 1.02363 0.37949 0.58865
 O1532 O 1.02347 0.35092 0.61670
 C1533 C 1.03201 0.35979 0.59720
 C1534 C 1.05216 0.34739 0.58450
 C1535 C 1.06151 0.32535 0.59332
 H1536 H 1.05406 0.31735 0.60966
 O1537 O 1.11975 0.41305 0.52393
 O1538 O 1.14803 0.38480 0.52380
 C1539 C 1.13942 0.40444 0.53222
 C1540 C 1.15191 0.41695 0.55241
 C1541 C 1.17390 0.40797 0.56155
 H1542 H 1.18243 0.39238 0.55318
 O1543 O 0.88009 0.58813 0.52240
 O1544 O 0.85170 0.61627 0.52217
 C1545 C 0.86048 0.59678 0.53080
 C1546 C 0.84847 0.58486 0.55170
 C1547 C 0.82861 0.59607 0.56302
 H1548 H 0.82128 0.61282 0.55578
 Cu1549 Cu 0.99963 0.39869 0.60210
 Cu1550 Cu 0.99938 0.36448 0.63586
 Cu1551 Cu 0.99939 0.60157 0.60244
 Cu1552 Cu 0.99925 0.63549 0.63640
 Cu1553 Cu 0.90022 0.40001 0.49942
 Cu1554 Cu 0.86636 0.36610 0.49897
 Cu1555 Cu 1.10033 0.39931 0.50032
 Cu1556 Cu 1.13417 0.36529 0.50020
 Cu1557 Cu 0.89975 0.60217 0.49896
 Cu1558 Cu 0.86566 0.63592 0.49878
 Cu1559 Cu 1.10051 0.60218 0.50092
 Cu1560 Cu 1.13428 0.63619 0.50154
 Cu1561 Cu 0.89925 0.50078 0.60157
 Cu1562 Cu 0.86487 0.50073 0.63504
 Cu1563 Cu 1.10017 0.49993 0.60240
 Cu1564 Cu 1.13418 0.49979 0.63626
 C1565 C 1.06188 0.43704 0.64385
 H1566 H 1.05415 0.44484 0.62753
 C1567 C 1.08306 0.41568 0.68486
 C1568 C 0.93666 0.56343 0.64343
 H1569 H 0.94341 0.55689 0.62618
 C1570 C 0.91859 0.58097 0.68757
 C1571 C 0.85826 0.56365 0.56204
 H1572 H 0.87401 0.55529 0.55385
 C1573 C 0.81886 0.58658 0.58449
 C1574 C 1.14111 0.43709 0.56370
 H1575 H 1.12399 0.44392 0.55696
 C1576 C 1.18488 0.41875 0.58177
 C1577 C 1.06285 0.35812 0.56399
 H1578 H 1.05621 0.37544 0.55751
 C1579 C 1.08056 0.31353 0.58124
 C1580 C 0.93662 0.64255 0.56343
 H1581 H 0.94501 0.62681 0.55524
 C1582 C 0.91379 0.68207 0.58573
 C1583 C 0.93656 0.43708 0.64289
 H1584 H 0.94484 0.44511 0.62698
 C1585 C 0.91369 0.41508 0.68269
 C1586 C 1.06239 0.56325 0.64330
 H1587 H 1.05563 0.55658 0.62611
 C1588 C 1.08045 0.58103 0.68737
 C1589 C 0.93785 0.35774 0.56240
 H1590 H 0.94497 0.37477 0.55569
 C1591 C 0.91816 0.31466 0.58080
 C1592 C 1.06203 0.64281 0.56423
 H1593 H 1.05569 0.62539 0.55780
 C1594 C 1.07905 0.68745 0.58140
 C1595 C 0.85899 0.43767 0.56278
 H1596 H 0.87595 0.44473 0.55596
 C1597 C 0.81554 0.41881 0.58104
 C1598 C 1.14099 0.56319 0.56413
 H1599 H 1.12371 0.55669 0.55753
 C1600 C 1.18522 0.58064 0.58181
 O1601 O 0.47602 0.91346 0.37898
 O1602 O 0.47624 0.88552 0.35038
 C1603 C 0.46759 0.90488 0.35933
 C1604 C 0.44685 0.91691 0.34730
 C1605 C 0.43517 0.90563 0.32773
 H1606 H 0.44178 0.88837 0.32106
 O1607 O 0.52310 1.08899 0.37905
 O1608 O 0.52309 1.11708 0.35050
 C1609 C 0.53136 1.09739 0.35924
 C1610 C 0.55138 1.08460 0.34676
 C1611 C 0.55970 1.09265 0.32407
 H1612 H 0.55056 1.10749 0.31495
 O1613 O 0.37967 0.97686 0.41173
 O1614 O 0.35134 0.97734 0.38354
 C1615 C 0.36012 0.96850 0.40294
 C1616 C 0.34808 0.94764 0.41482
 C1617 C 0.32780 0.93666 0.40405
 H1618 H 0.32014 0.94402 0.38749
 O1619 O 0.62102 1.02504 0.41354
 O1620 O 0.64924 1.02500 0.38525
 C1621 C 0.64079 1.03317 0.40507
 C1622 C 0.65356 1.05297 0.41790
 C1623 C 0.67515 1.06258 0.40850
 H1624 H 0.68321 1.05489 0.39231
 O1625 O 0.41277 0.87967 0.47628
 O1626 O 0.38460 0.85139 0.47632
 C1627 C 0.40425 0.85997 0.46800
 C1628 C 0.41655 0.84772 0.44751
 C1629 C 0.40621 0.82713 0.43673
 H1630 H 0.39040 0.81876 0.44478
 O1631 O 0.58801 1.12199 0.47564
 O1632 O 0.61601 1.15043 0.47562
 C1633 C 0.59660 1.14156 0.46704
 C1634 C 0.58404 1.15386 0.44665
 C1635 C 0.59282 1.17586 0.43725
 H1636 H 0.60901 1.18393 0.44482
 O1637 O 0.41277 1.02475 0.37916
 O1638 O 0.38447 1.02514 0.35092
 C1639 C 0.40422 1.03321 0.35947
 C1640 C 0.41700 1.05307 0.34676
 C1641 C 0.40884 1.06129 0.32407
 H1642 H 0.39371 1.05242 0.31529
 O1643 O 0.58708 0.97854 0.37994
 O1644 O 0.61536 0.97845 0.35169
 C1645 C 0.59570 0.97014 0.36030
 C1646 C 0.58345 0.94971 0.34796
 C1647 C 0.59392 0.93918 0.32728
 H1648 H 0.61014 0.94691 0.31937
 O1649 O 0.52314 0.87965 0.41195
 O1650 O 0.52312 0.85168 0.38339
 C1651 C 0.53132 0.85996 0.40323
 C1652 C 0.55121 0.84706 0.41579
 C1653 C 0.56092 0.82563 0.40604
 H1654 H 0.55322 0.81779 0.38975
 O1655 O 0.47628 1.12274 0.41219
 O1656 O 0.47627 1.15107 0.38389
 C1657 C 0.46815 1.14258 0.40373
 C1658 C 0.44879 1.15557 0.41698
 C1659 C 0.44093 1.17862 0.40941
 H1660 H 0.44920 1.18725 0.39380
 O1661 O 0.38074 1.08961 0.47657
 O1662 O 0.35241 1.11780 0.47615
 C1663 C 0.36109 1.09803 0.46806
 C1664 C 0.34847 1.08495 0.44828
 C1665 C 0.32604 1.09328 0.43959
 H1666 H 0.31766 1.10917 0.44755
 O1667 O 0.61900 0.91221 0.47570
 O1668 O 0.64725 0.88393 0.47574
 C1669 C 0.63861 0.90359 0.46732
 C1670 C 0.65108 0.91616 0.44709
 C1671 C 0.67220 0.90628 0.43692
 H1672 H 0.67980 0.88969 0.44426
 O1673 O 0.47587 1.08936 0.37915
 O1674 O 0.47578 1.11751 0.35068
 C1675 C 0.46752 1.09786 0.35941
 C1676 C 0.44771 1.08492 0.34680
 C1677 C 0.43898 1.09317 0.32428
 H1678 H 0.44688 1.10903 0.31581
 O1679 O 0.52349 0.91396 0.37966
 O1680 O 0.52371 0.88599 0.35112
 C1681 C 0.53205 0.90551 0.36004
 C1682 C 0.55256 0.91793 0.34798
 C1683 C 0.56355 0.90756 0.32746
 H1684 H 0.55649 0.89092 0.31981
 O1685 O 0.62027 0.97764 0.41291
 O1686 O 0.64856 0.97759 0.38468
 C1687 C 0.63973 0.96901 0.40417
 C1688 C 0.65169 0.94818 0.41629
 C1689 C 0.67284 0.93802 0.40646
 H1690 H 0.68117 0.94608 0.39058
 O1691 O 0.38013 1.02441 0.41296
 O1692 O 0.35173 1.02488 0.38485
 C1693 C 0.36047 1.03294 0.40460
 C1694 C 0.34804 1.05294 0.41753
 C1695 C 0.32552 1.06145 0.40933
 H1696 H 0.31665 1.05273 0.39413
 O1697 O 0.41351 1.12330 0.47692
 O1698 O 0.38535 1.15167 0.47669
 C1699 C 0.40512 1.14311 0.46865
 C1700 C 0.41818 1.15592 0.44901
 C1701 C 0.41084 1.17911 0.44144
 H1702 H 0.39609 1.18821 0.45066
 O1703 O 0.58634 0.87863 0.47580
 O1704 O 0.61455 0.85030 0.47585
 C1705 C 0.59493 0.85894 0.46748
 C1706 C 0.58241 0.84653 0.44725
 C1707 C 0.59189 0.82512 0.43722
 H1708 H 0.60793 0.81683 0.44495
 O1709 O 0.58793 1.02597 0.38007
 O1710 O 0.61608 1.02588 0.35171
 C1711 C 0.59650 1.03433 0.36036
 C1712 C 0.58370 1.05428 0.34761
 C1713 C 0.59227 1.06318 0.32530
 H1714 H 0.60848 1.05555 0.31729
 O1715 O 0.41288 0.97755 0.37868
 O1716 O 0.38451 0.97792 0.35052
 C1717 C 0.40417 0.96943 0.35897
 C1718 C 0.41631 0.94895 0.34658
 C1719 C 0.40568 0.93810 0.32614
 H1720 H 0.38984 0.94623 0.31785
 O1721 O 0.52344 1.12215 0.41215
 O1722 O 0.52349 1.15040 0.38376
 C1723 C 0.53182 1.14177 0.40348
 C1724 C 0.55195 1.15425 0.41605
 C1725 C 0.56050 1.17665 0.40752
 H1726 H 0.55151 1.18550 0.39243
 O1727 O 0.47596 0.88049 0.41218
 O1728 O 0.47594 0.85260 0.38353
 C1729 C 0.46748 0.86108 0.40322
 C1730 C 0.44697 0.84877 0.41532
 C1731 C 0.43568 0.82888 0.40423
 H1732 H 0.44238 0.82210 0.38705
 O1733 O 0.62105 1.08867 0.47724
 O1734 O 0.64918 1.11698 0.47736
 C1735 C 0.64083 1.09715 0.46916
 C1736 C 0.65361 1.08431 0.44932
 C1737 C 0.67517 1.09367 0.43959
 H1738 H 0.68326 1.10982 0.44727
 O1739 O 0.37961 0.91284 0.47552
 O1740 O 0.35145 0.88455 0.47554
 C1741 C 0.36017 0.90405 0.46694
 C1742 C 0.34815 0.91608 0.44612
 C1743 C 0.32791 0.90540 0.43504
 H1744 H 0.32031 0.88878 0.44225
 Cu1745 Cu 0.49971 0.89974 0.39854
 Cu1746 Cu 0.49983 0.86620 0.36419
 Cu1747 Cu 0.49962 1.10298 0.39846
 Cu1748 Cu 0.49964 1.13684 0.36434
 Cu1749 Cu 0.39916 1.00087 0.39850
 Cu1750 Cu 0.36512 1.00147 0.36468
 Cu1751 Cu 0.60125 1.00190 0.39945
 Cu1752 Cu 0.63514 1.00179 0.36550
 C1753 C 0.43720 0.93849 0.35671
 H1754 H 0.44548 0.94668 0.37252
 C1755 C 0.41436 0.91586 0.31726
 C1756 C 0.56321 1.06509 0.35815
 H1757 H 0.55686 1.05876 0.37565
 C1758 C 0.58003 1.08197 0.31313
 C1759 C 0.35798 0.93732 0.43598
 H1760 H 0.37386 0.94540 0.44415
 C1761 C 0.31783 0.91556 0.41404
 C1762 C 0.64313 1.06377 0.43851
 H1763 H 0.62622 1.05676 0.44555
 C1764 C 0.68582 1.08300 0.41912
 C1765 C 0.43723 0.85811 0.43693
 H1766 H 0.44524 0.87407 0.44505
 C1767 C 0.41506 0.81824 0.41458
 C1768 C 0.56357 1.14322 0.43592
 H1769 H 0.55704 1.12596 0.44263
 C1770 C 0.58081 1.18766 0.41808
 C1771 C 0.43669 1.06475 0.35780
 H1772 H 0.44297 1.05857 0.37538
 C1773 C 0.41980 1.08119 0.31267
 C1774 C 0.56260 0.93909 0.35805
 H1775 H 0.55467 0.94683 0.37427
 C1776 C 0.58440 0.91787 0.31736
 C1777 C 0.56190 0.85719 0.43655
 H1778 H 0.55476 0.87395 0.44387
 C1779 C 0.58136 0.81479 0.41651
 C1780 C 0.43742 1.14449 0.43692
 H1781 H 0.44306 1.12653 0.44258
 C1782 C 0.42227 1.19066 0.42185
 C1783 C 0.35924 1.06462 0.43724
 H1784 H 0.37674 1.05834 0.44351
 C1785 C 0.31439 1.08144 0.42036
 C1786 C 0.64107 0.93725 0.43676
 H1787 H 0.62454 0.94474 0.44421
 C1788 C 0.68319 0.91715 0.41671
 O1789 O 0.52360 0.91328 0.62062
 O1790 O 0.52366 0.88509 0.64905
 C1791 C 0.53213 0.90461 0.64021
 C1792 C 0.55273 0.91681 0.65231
 C1793 C 0.56358 0.90634 0.67289
 H1794 H 0.55634 0.88976 0.68057
 O1795 O 0.47646 1.08808 0.62128
 O1796 O 0.47666 1.11595 0.64994
 C1797 C 0.46819 1.09647 0.64107
 C1798 C 0.44796 1.08390 0.65338
 C1799 C 0.43862 1.09277 0.67535
 H1800 H 0.44669 1.10849 0.68388
 O1801 O 0.37894 1.02519 0.58683
 O1802 O 0.35079 1.02518 0.61519
 C1803 C 0.35944 1.03371 0.59560
 C1804 C 0.34742 1.05456 0.58359
 C1805 C 0.32716 1.06560 0.59433
 H1806 H 0.31921 1.05792 0.61059
 O1807 O 0.62013 0.97675 0.58677
 O1808 O 0.64863 0.97643 0.61481
 C1809 C 0.63970 0.96811 0.59527
 C1810 C 0.65183 0.94774 0.58268
 C1811 C 0.67371 0.93834 0.59161
 H1812 H 0.68214 0.94631 0.60746
 O1813 O 0.58591 0.87903 0.52315
 O1814 O 0.61405 0.85064 0.52324
 C1815 C 0.59437 0.85928 0.53148
 C1816 C 0.58157 0.84667 0.55146
 C1817 C 0.58990 0.82421 0.56010
 H1818 H 0.60519 0.81543 0.55146
 O1819 O 0.41305 1.12301 0.52433
 O1820 O 0.38470 1.15121 0.52416
 C1821 C 0.40418 1.14249 0.53284
 C1822 C 0.41593 1.15429 0.55391
 C1823 C 0.40490 1.17417 0.56541
 H1824 H 0.38874 1.18226 0.55771
 O1825 O 0.41239 0.97784 0.62002
 O1826 O 0.38415 0.97781 0.64831
 C1827 C 0.40388 0.96958 0.63979
 C1828 C 0.41642 0.94949 0.65248
 C1829 C 0.40652 0.93967 0.67378
 H1830 H 0.39073 0.94795 0.68199
 O1831 O 0.58821 1.02484 0.62013
 O1832 O 0.61654 1.02450 0.64830
 C1833 C 0.59697 1.03312 0.63975
 C1834 C 0.58439 1.05317 0.65249
 C1835 C 0.59319 1.06216 0.67467
 H1836 H 0.60955 1.05461 0.68246
 O1837 O 0.47571 0.88040 0.58806
 O1838 O 0.47553 0.85233 0.61662
 C1839 C 0.46709 0.86099 0.59698
 C1840 C 0.44642 0.84894 0.58491
 C1841 C 0.43510 0.82890 0.59582
 H1842 H 0.44198 0.82160 0.61275
 O1843 O 0.52326 1.12162 0.58786
 O1844 O 0.52348 1.14969 0.61631
 C1845 C 0.53153 1.14131 0.59640
 C1846 C 0.55113 1.15418 0.58332
 C1847 C 0.56015 1.17632 0.59204
 H1848 H 0.55244 1.18446 0.60818
 O1849 O 0.37925 0.91334 0.52311
 O1850 O 0.35104 0.88510 0.52316
 C1851 C 0.35964 0.90475 0.53152
 C1852 C 0.34730 0.91715 0.55193
 C1853 C 0.32649 0.90698 0.56247
 H1854 H 0.31866 0.89058 0.55506
 O1855 O 0.62023 1.09013 0.52468
 O1856 O 0.64818 1.11861 0.52503
 C1857 C 0.63945 1.09909 0.53359
 C1858 C 0.65145 1.08673 0.55429
 C1859 C 0.67142 1.09730 0.56611
 H1860 H 0.67771 1.11497 0.56035
 O1861 O 0.52373 1.08816 0.62113
 O1862 O 0.52392 1.11609 0.64971
 C1863 C 0.53212 1.09645 0.64092
 C1864 C 0.55215 1.08357 0.65338
 C1865 C 0.56055 1.09152 0.67607
 H1866 H 0.55137 1.10628 0.68521
 O1867 O 0.47620 0.91365 0.62093
 O1868 O 0.47614 0.88560 0.64951
 C1869 C 0.46775 0.90517 0.64063
 C1870 C 0.44730 0.91767 0.65273
 C1871 C 0.43653 0.90762 0.67355
 H1872 H 0.44365 0.89103 0.68134
 O1873 O 0.62098 1.02415 0.58644
 O1874 O 0.64937 1.02376 0.61457
 C1875 C 0.64078 1.03222 0.59491
 C1876 C 0.65306 1.05282 0.58278
 C1877 C 0.67449 1.06231 0.59250
 H1878 H 0.68397 1.05213 0.60638
 O1879 O 0.37905 0.97757 0.58690
 O1880 O 0.35082 0.97754 0.61518
 C1881 C 0.35952 0.96908 0.59560
 C1882 C 0.34732 0.94853 0.58334
 C1883 C 0.32658 0.93797 0.59363
 H1884 H 0.31879 0.94535 0.61009
 O1885 O 0.58642 1.12241 0.52305
 O1886 O 0.61429 1.15099 0.52310
 C1887 C 0.59461 1.14227 0.53125
 C1888 C 0.58169 1.15479 0.55117
 C1889 C 0.59023 1.17702 0.56002
 H1890 H 0.60555 1.18578 0.55144
 O1891 O 0.41243 0.88021 0.52364
 O1892 O 0.38422 0.85196 0.52369
 C1893 C 0.40374 0.86067 0.53216
 C1894 C 0.41573 0.84859 0.55293
 C1895 C 0.40506 0.82822 0.56381
 H1896 H 0.38894 0.82023 0.55599
 O1897 O 0.58740 0.97735 0.62031
 O1898 O 0.61587 0.97699 0.64836
 C1899 C 0.59613 0.96880 0.63989
 C1900 C 0.58384 0.94836 0.65230
 C1901 C 0.59420 0.93774 0.67306
 H1902 H 0.61042 0.94540 0.68100
 O1903 O 0.41199 1.02503 0.62015
 O1904 O 0.38383 1.02492 0.64851
 C1905 C 0.40349 1.03321 0.63995
 C1906 C 0.41626 1.05301 0.65276
 C1907 C 0.40731 1.06203 0.67483
 H1908 H 0.39146 1.05396 0.68311
 O1909 O 0.47593 1.12161 0.58866
 O1910 O 0.47605 1.14950 0.61730
 C1911 C 0.46738 1.14098 0.59774
 C1912 C 0.44653 1.15317 0.58597
 C1913 C 0.43479 1.17255 0.59756
 H1914 H 0.44149 1.17917 0.61480
 O1915 O 0.52296 0.87975 0.58775
 O1916 O 0.52285 0.85147 0.61609
 C1917 C 0.53108 0.85993 0.59628
 C1918 C 0.55075 0.84704 0.58332
 C1919 C 0.55959 0.82471 0.59192
 H1920 H 0.55172 0.81647 0.60794
 O1921 O 0.61919 0.91207 0.52313
 O1922 O 0.64746 0.88381 0.52323
 C1923 C 0.63886 0.90351 0.53149
 C1924 C 0.65147 0.91624 0.55147
 C1925 C 0.67348 0.90727 0.56057
 H1926 H 0.68185 0.89149 0.55240
 O1927 O 0.37998 1.09004 0.52399
 O1928 O 0.35167 1.11827 0.52363
 C1929 C 0.36033 1.09872 0.53225
 C1930 C 0.34802 1.08653 0.55277
 C1931 C 0.32796 1.09747 0.56400
 H1932 H 0.32078 1.11440 0.55705
 Cu1933 Cu 0.49968 0.89960 0.60151
 Cu1934 Cu 0.49960 0.86584 0.63572
 Cu1935 Cu 0.49991 1.10208 0.60187
 Cu1936 Cu 0.50016 1.13564 0.63616
 Cu1937 Cu 0.39881 0.89938 0.49962
 Cu1938 Cu 0.36498 0.86544 0.49970
 Cu1939 Cu 0.59978 0.89831 0.49944
 Cu1940 Cu 0.63369 0.86436 0.49957
 Cu1941 Cu 0.39966 1.10368 0.50041
 Cu1942 Cu 0.36568 1.13757 0.49998
 Cu1943 Cu 0.60116 1.10294 0.50011
 Cu1944 Cu 0.63473 1.13710 0.50025
 Cu1945 Cu 0.39835 1.00142 0.60056
 Cu1946 Cu 0.36450 1.00133 0.63456
 Cu1947 Cu 0.60132 1.00084 0.60062
 Cu1948 Cu 0.63545 1.00041 0.63432
 C1949 C 0.56293 0.93791 0.64222
 H1950 H 0.55506 0.94573 0.62599
 C1951 C 0.58448 0.91648 0.68306
 C1952 C 0.43677 1.06387 0.64234
 H1953 H 0.44359 1.05719 0.62517
 C1954 C 0.41850 1.08175 0.68626
 C1955 C 0.35754 1.06501 0.56264
 H1956 H 0.37341 1.05684 0.55448
 C1957 C 0.31776 1.08733 0.58497
 C1958 C 0.64092 0.93668 0.56247
 H1959 H 0.62381 0.94355 0.55575
 C1960 C 0.68473 0.91834 0.58047
 C1961 C 0.56175 0.85775 0.56296
 H1962 H 0.55538 0.87520 0.55653
 C1963 C 0.57894 0.81307 0.58020
 C1964 C 0.43695 1.14415 0.56416
 H1965 H 0.44543 1.12868 0.55555
 C1966 C 0.41377 1.18288 0.58763
 C1967 C 0.43706 0.93861 0.64230
 H1968 H 0.44468 0.94598 0.62575
 C1969 C 0.41590 0.91829 0.68387
 C1970 C 0.56386 1.06404 0.64201
 H1971 H 0.55739 1.05772 0.62458
 C1972 C 0.58100 1.08089 0.68694
 C1973 C 0.43660 0.85865 0.56343
 H1974 H 0.44476 0.87455 0.55530
 C1975 C 0.41420 0.81878 0.58559
 C1976 C 0.56190 1.14368 0.56271
 H1977 H 0.55542 1.12636 0.55617
 C1978 C 0.57949 1.18791 0.58032
 C1979 C 0.35743 0.93810 0.56236
 H1980 H 0.37372 0.94579 0.55463
 C1981 C 0.31625 0.91723 0.58331
 C1982 C 0.64207 1.06479 0.56319
 H1983 H 0.62578 1.05730 0.55527
 C1984 C 0.68296 1.08538 0.58561
 O1985 O 0.47691 0.41294 0.88002
 O1986 O 0.47688 0.38476 0.85168
 C1987 C 0.46856 0.40442 0.86033
 C1988 C 0.44854 0.41719 0.84778
 C1989 C 0.43964 0.40863 0.82552
 H1990 H 0.44774 0.39285 0.81709
 O1991 O 0.52422 0.58853 0.87910
 O1992 O 0.52420 0.61667 0.85060
 C1993 C 0.53242 0.59696 0.85926
 C1994 C 0.55218 0.58404 0.84658
 C1995 C 0.56120 0.59268 0.82436
 H1996 H 0.55339 0.60872 0.81608
 O1997 O 0.37998 0.47769 0.91331
 O1998 O 0.35163 0.47797 0.88513
 C1999 C 0.36019 0.46962 0.90485
 C2000 C 0.34754 0.44972 0.91765
 C2001 C 0.32532 0.44087 0.90902
 H2002 H 0.31669 0.44936 0.89351
 O2003 O 0.61996 0.52450 0.91297
 O2004 O 0.64833 0.52460 0.88483
 C2005 C 0.63963 0.53286 0.90450
 C2006 C 0.65221 0.55274 0.91736
 C2007 C 0.67389 0.56229 0.90813
 H2008 H 0.68176 0.55488 0.89172
 O2009 O 0.41334 0.38014 0.97708
 O2010 O 0.38498 0.35205 0.97717
 C2011 C 0.40474 0.36044 0.96890
 C2012 C 0.41751 0.34762 0.94908
 C2013 C 0.40907 0.32520 0.94053
 H2014 H 0.39364 0.31661 0.94909
 O2015 O 0.58795 0.62107 0.97695
 O2016 O 0.61650 0.64896 0.97682
 C2017 C 0.59692 0.64045 0.96830
 C2018 C 0.58504 0.65264 0.94746
 C2019 C 0.59573 0.67304 0.93658
 H2020 H 0.61204 0.68083 0.94421
 O2021 O 0.41372 0.52431 0.87978
 O2022 O 0.38558 0.52442 0.85138
 C2023 C 0.40528 0.53257 0.85997
 C2024 C 0.41807 0.55243 0.84726
 C2025 C 0.40956 0.56107 0.82485
 H2026 H 0.39423 0.55245 0.81617
 O2027 O 0.58722 0.47701 0.87972
 O2028 O 0.61572 0.47690 0.85169
 C2029 C 0.59607 0.46851 0.86023
 C2030 C 0.58403 0.44794 0.84800
 C2031 C 0.59455 0.43734 0.82739
 H2032 H 0.61069 0.44514 0.81942
 O2033 O 0.52415 0.37966 0.91327
 O2034 O 0.52404 0.35126 0.88514
 C2035 C 0.53241 0.35992 0.90478
 C2036 C 0.55240 0.34730 0.91753
 C2037 C 0.56163 0.32535 0.90856
 H2038 H 0.55387 0.31732 0.89240
 O2039 O 0.47734 0.62191 0.91255
 O2040 O 0.47727 0.65009 0.88411
 C2041 C 0.46890 0.64148 0.90379
 C2042 C 0.44843 0.65374 0.91602
 C2043 C 0.43711 0.67378 0.90506
 H2044 H 0.44398 0.68105 0.88812
 O2045 O 0.38139 0.58943 0.97719
 O2046 O 0.35324 0.61781 0.97712
 C2047 C 0.36193 0.59825 0.96860
 C2048 C 0.34988 0.58625 0.94778
 C2049 C 0.32978 0.59719 0.93657
 H2050 H 0.32236 0.61392 0.94372
 O2051 O 0.62040 0.41282 0.97702
 O2052 O 0.64879 0.38469 0.97707
 C2053 C 0.64005 0.40429 0.96862
 C2054 C 0.65245 0.41700 0.94842
 C2055 C 0.67438 0.40811 0.93903
 H2056 H 0.68275 0.39215 0.94690
 O2057 O 0.47709 0.58855 0.87966
 O2058 O 0.47706 0.61666 0.85113
 C2059 C 0.46876 0.59703 0.85990
 C2060 C 0.44885 0.58421 0.84737
 C2061 C 0.43980 0.59284 0.82515
 H2062 H 0.44760 0.60884 0.81681
 O2063 O 0.52422 0.41267 0.87993
 O2064 O 0.52430 0.38433 0.85174
 C2065 C 0.53271 0.40392 0.86039
 C2066 C 0.55322 0.41616 0.84818
 C2067 C 0.56427 0.40561 0.82779
 H2068 H 0.55723 0.38891 0.82027
 O2069 O 0.62016 0.47712 0.91302
 O2070 O 0.64867 0.47725 0.88501
 C2071 C 0.63991 0.46884 0.90461
 C2072 C 0.65239 0.44869 0.91727
 C2073 C 0.67436 0.43960 0.90828
 H2074 H 0.68280 0.44794 0.89260
 O2075 O 0.38092 0.52511 0.91322
 O2076 O 0.35275 0.52546 0.88486
 C2077 C 0.36154 0.53388 0.90444
 C2078 C 0.34966 0.55475 0.91651
 C2079 C 0.32942 0.56587 0.90579
 H2080 H 0.32157 0.55840 0.88940
 O2081 O 0.41438 0.62252 0.97723
 O2082 O 0.38616 0.65085 0.97713
 C2083 C 0.40569 0.64210 0.96869
 C2084 C 0.41769 0.65415 0.94792
 C2085 C 0.40685 0.67437 0.93686
 H2086 H 0.39055 0.68223 0.94446
 O2087 O 0.58756 0.37939 0.97743
 O2088 O 0.61583 0.35113 0.97760
 C2089 C 0.59612 0.35964 0.96923
 C2090 C 0.58342 0.34697 0.94922
 C2091 C 0.59211 0.32477 0.94022
 H2092 H 0.60761 0.31613 0.94864
 O2093 O 0.58726 0.52430 0.87918
 O2094 O 0.61557 0.52420 0.85097
 C2095 C 0.59583 0.53246 0.85939
 C2096 C 0.58308 0.55230 0.84653
 C2097 C 0.59161 0.56096 0.82412
 H2098 H 0.60702 0.55237 0.81552
 O2099 O 0.41322 0.47701 0.88012
 O2100 O 0.38499 0.47716 0.85183
 C2101 C 0.40462 0.46872 0.86043
 C2102 C 0.41728 0.44866 0.84779
 C2103 C 0.40881 0.43997 0.82539
 H2104 H 0.39335 0.44846 0.81673
 O2105 O 0.52469 0.62134 0.91253
 O2106 O 0.52479 0.64953 0.88409
 C2107 C 0.53327 0.64078 0.90370
 C2108 C 0.55397 0.65275 0.91581
 C2109 C 0.56511 0.67297 0.90509
 H2110 H 0.55799 0.68054 0.88838
 O2111 O 0.47692 0.37967 0.91317
 O2112 O 0.47677 0.35135 0.88496
 C2113 C 0.46854 0.36001 0.90466
 C2114 C 0.44862 0.34749 0.91751
 C2115 C 0.43970 0.32524 0.90903
 H2116 H 0.44769 0.31681 0.89318
 O2117 O 0.62068 0.58749 0.97798
 O2118 O 0.64924 0.61538 0.97812
 C2119 C 0.64048 0.59580 0.96977
 C2120 C 0.65287 0.58319 0.94957
 C2121 C 0.67473 0.59222 0.94026
 H2122 H 0.68334 0.60771 0.94869
 O2123 O 0.38022 0.41347 0.97683
 O2124 O 0.35178 0.38546 0.97685
 C2125 C 0.36050 0.40507 0.96852
 C2126 C 0.34788 0.41794 0.94861
 C2127 C 0.32584 0.40917 0.93952
 H2128 H 0.31771 0.39309 0.94735
 Cu2129 Cu 0.50053 0.39909 0.89941
 Cu2130 Cu 0.50046 0.36510 0.86551
 Cu2131 Cu 0.50084 0.60229 0.89884
 Cu2132 Cu 0.50082 0.63615 0.86469
 Cu2133 Cu 0.39977 0.50095 0.89946
 Cu2134 Cu 0.36586 0.50125 0.86550
 Cu2135 Cu 0.60079 0.50079 0.89904
 Cu2136 Cu 0.63493 0.50078 0.86531
 C2137 C 0.43736 0.43734 0.85867
 H2138 H 0.44386 0.44379 0.87604
 C2139 C 0.42005 0.42014 0.81407
 C2140 C 0.56310 0.56371 0.85739
 H2141 H 0.55657 0.55726 0.87477
 C2142 C 0.58066 0.58102 0.81287
 C2143 C 0.35847 0.43835 0.93770
 H2144 H 0.37572 0.44491 0.94431
 C2145 C 0.31431 0.42073 0.91998
 C2146 C 0.64194 0.56320 0.93821
 H2147 H 0.62494 0.55629 0.94512
 C2148 C 0.68537 0.58180 0.91965
 C2149 C 0.43753 0.35842 0.93768
 H2150 H 0.44401 0.37582 0.94403
 C2151 C 0.42020 0.31384 0.92067
 C2152 C 0.56401 0.64278 0.93707
 H2153 H 0.55587 0.62682 0.94512
 C2154 C 0.58616 0.68291 0.91515
 C2155 C 0.43796 0.56388 0.85820
 H2156 H 0.44449 0.55743 0.87559
 C2157 C 0.42042 0.58113 0.81365
 C2158 C 0.56319 0.43740 0.85809
 H2159 H 0.55518 0.44528 0.87420
 C2160 C 0.58513 0.41590 0.81763
 C2161 C 0.56330 0.35786 0.93797
 H2162 H 0.55661 0.37507 0.94466
 C2163 C 0.58116 0.31376 0.92003
 C2164 C 0.43865 0.64412 0.93753
 H2165 H 0.44687 0.62825 0.94573
 C2166 C 0.41611 0.68383 0.91516
 C2167 C 0.35964 0.56496 0.93765
 H2168 H 0.37551 0.55676 0.94579
 C2169 C 0.31977 0.58731 0.91541
 C2170 C 0.64171 0.43744 0.93752
 H2171 H 0.62460 0.44417 0.94435
 C2172 C 0.68547 0.41947 0.91912
 O2173 O 0.52312 0.41267 1.12239
 O2174 O 0.52287 0.38436 1.15072
 C2175 C 0.53122 0.40406 1.14220
 C2176 C 0.55118 0.41658 1.15493
 C2177 C 0.55953 0.40806 1.17745
 H2178 H 0.55042 0.39307 1.18629
 O2179 O 0.47769 0.58869 1.12253
 O2180 O 0.47779 0.61678 1.15096
 C2181 C 0.46948 0.59712 1.14231
 C2182 C 0.44959 0.58424 1.15491
 C2183 C 0.44095 0.59248 1.17740
 H2184 H 0.44921 0.60805 1.18603
 O2185 O 0.38047 0.52542 1.08869
 O2186 O 0.35206 0.52557 1.11678
 C2187 C 0.36077 0.53383 1.09710
 C2188 C 0.34835 0.55394 1.08427
 C2189 C 0.32616 0.56300 1.09284
 H2190 H 0.31741 0.55452 1.10827
 O2191 O 0.62028 0.47702 1.08897
 O2192 O 0.64874 0.47688 1.11703
 C2193 C 0.64021 0.46891 1.09716
 C2194 C 0.65315 0.44948 1.08381
 C2195 C 0.67599 0.44135 1.09162
 H2196 H 0.68472 0.44978 1.10706
 O2197 O 0.58755 0.37986 1.02482
 O2198 O 0.61589 0.35168 1.02509
 C2199 C 0.59617 0.36025 1.03333
 C2200 C 0.58349 0.34773 1.05347
 C2201 C 0.59238 0.32571 1.06277
 H2202 H 0.60804 0.31719 1.05455
 O2203 O 0.41458 0.62261 1.02462
 O2204 O 0.38653 0.65109 1.02443
 C2205 C 0.40620 0.64247 1.03273
 C2206 C 0.41902 0.65523 1.05257
 C2207 C 0.41125 0.67819 1.06031
 H2208 H 0.39661 0.68725 1.05084
 O2209 O 0.41321 0.47778 1.12211
 O2210 O 0.38475 0.47781 1.15017
 C2211 C 0.40436 0.46931 1.14164
 C2212 C 0.41630 0.44856 1.15384
 C2213 C 0.40579 0.43793 1.17448
 H2214 H 0.38992 0.44603 1.18271
 O2215 O 0.58620 0.52296 1.12337
 O2216 O 0.61436 0.52251 1.15174
 C2217 C 0.59467 0.53095 1.14323
 C2218 C 0.58255 0.55148 1.15565
 C2219 C 0.59237 0.56100 1.17707
 H2220 H 0.60642 0.55098 1.18643
 O2221 O 0.47622 0.37960 1.08873
 O2222 O 0.47611 0.35118 1.11694
 C2223 C 0.46774 0.35999 1.09735
 C2224 C 0.44718 0.34797 1.08510
 C2225 C 0.43586 0.32785 1.09586
 H2226 H 0.44282 0.32033 1.11266
 O2227 O 0.52427 0.62211 1.08889
 O2228 O 0.52436 0.65058 1.11695
 C2229 C 0.53249 0.64190 1.09720
 C2230 C 0.55216 0.65450 1.08405
 C2231 C 0.56109 0.67679 1.09240
 H2232 H 0.55324 0.68524 1.10831
 O2233 O 0.38055 0.41398 1.02421
 O2234 O 0.35197 0.38612 1.02420
 C2235 C 0.36077 0.40571 1.03250
 C2236 C 0.34826 0.41858 1.05249
 C2237 C 0.32607 0.40996 1.06138
 H2238 H 0.31747 0.39448 1.05293
 O2239 O 0.61997 0.58808 1.02557
 O2240 O 0.64823 0.61626 1.02568
 C2241 C 0.63935 0.59684 1.03432
 C2242 C 0.65101 0.58510 1.05554
 C2243 C 0.67067 0.59637 1.06704
 H2244 H 0.67842 0.61274 1.05942
 O2245 O 0.52504 0.58940 1.12245
 O2246 O 0.52542 0.61772 1.15064
 C2247 C 0.53381 0.59813 1.14188
 C2248 C 0.55420 0.58549 1.15407
 C2249 C 0.56597 0.59595 1.17415
 H2250 H 0.56028 0.61362 1.18055
 O2251 O 0.47587 0.41284 1.12163
 O2252 O 0.47560 0.38439 1.14982
 C2253 C 0.46724 0.40404 1.14111
 C2254 C 0.44668 0.41629 1.15323
 C2255 C 0.43540 0.40552 1.17338
 H2256 H 0.44218 0.38850 1.18055
 O2257 O 0.61950 0.52449 1.09046
 O2258 O 0.64766 0.52441 1.11882
 C2259 C 0.63880 0.53321 1.09942
 C2260 C 0.65052 0.55436 1.08765
 C2261 C 0.66984 0.56632 1.09915
 H2262 H 0.67673 0.55968 1.11634
 O2263 O 0.38057 0.47802 1.08850
 O2264 O 0.35206 0.47814 1.11650
 C2265 C 0.36084 0.46973 1.09691
 C2266 C 0.34837 0.44968 1.08413
 C2267 C 0.32635 0.44051 1.09295
 H2268 H 0.31810 0.44835 1.10897
 O2269 O 0.58722 0.62169 1.02437
 O2270 O 0.61549 0.64987 1.02418
 C2271 C 0.59572 0.64149 1.03242
 C2272 C 0.58294 0.65440 1.05217
 C2273 C 0.59144 0.67683 1.06062
 H2274 H 0.60680 0.68541 1.05194
 O2275 O 0.41303 0.38012 1.02443
 O2276 O 0.38446 0.35223 1.02453
 C2277 C 0.40415 0.36063 1.03290
 C2278 C 0.41619 0.34822 1.05344
 C2279 C 0.40542 0.32785 1.06423
 H2280 H 0.38909 0.32015 1.05656
 O2281 O 0.58749 0.47563 1.12267
 O2282 O 0.61581 0.47516 1.15086
 C2283 C 0.59620 0.46691 1.14217
 C2284 C 0.58347 0.44680 1.15461
 C2285 C 0.59204 0.43750 1.17678
 H2286 H 0.60822 0.44499 1.18495
 O2287 O 0.41367 0.52512 1.12202
 O2288 O 0.38538 0.52520 1.15025
 C2289 C 0.40517 0.53335 1.14178
 C2290 C 0.41814 0.55302 1.15465
 C2291 C 0.40993 0.56141 1.17726
 H2292 H 0.39448 0.55293 1.18590
 O2293 O 0.47718 0.62232 1.08972
 O2294 O 0.47711 0.65064 1.11793
 C2295 C 0.46883 0.64203 1.09823
 C2296 C 0.44912 0.65478 1.08511
 C2297 C 0.44048 0.67738 1.09313
 H2298 H 0.44811 0.68562 1.10924
 O2299 O 0.52358 0.37994 1.08877
 O2300 O 0.52350 0.35154 1.11699
 C2301 C 0.53196 0.36029 1.09740
 C2302 C 0.55221 0.34787 1.08490
 C2303 C 0.56164 0.32608 1.09415
 H2304 H 0.55385 0.31801 1.11030
 O2305 O 0.62055 0.41325 1.02445
 O2306 O 0.64906 0.38523 1.02456
 C2307 C 0.64038 0.40497 1.03271
 C2308 C 0.65314 0.41813 1.05237
 C2309 C 0.67594 0.41027 1.06052
 H2310 H 0.68471 0.39493 1.05196
 O2311 O 0.38115 0.58961 1.02481
 O2312 O 0.35301 0.61798 1.02475
 C2313 C 0.36154 0.59829 1.03315
 C2314 C 0.34890 0.58567 1.05323
 C2315 C 0.32699 0.59478 1.06242
 H2316 H 0.31906 0.61101 1.05464
 Cu2317 Cu 0.49976 0.39910 1.10253
 Cu2318 Cu 0.49957 0.36500 1.13644
 Cu2319 Cu 0.50100 0.60278 1.10313
 Cu2320 Cu 0.50114 0.63672 1.13702
 Cu2321 Cu 0.39965 0.39973 1.00059
 Cu2322 Cu 0.36544 0.36615 1.00068
 Cu2323 Cu 0.60118 0.39913 1.00092
 Cu2324 Cu 0.63524 0.36536 1.00114
 Cu2325 Cu 0.40067 0.60317 1.00105
 Cu2326 Cu 0.36687 0.63724 1.00094
 Cu2327 Cu 0.60112 0.60175 1.00122
 Cu2328 Cu 0.63526 0.63538 1.00121
 Cu2329 Cu 0.39982 0.50163 1.10252
 Cu2330 Cu 0.36571 0.50175 1.13624
 Cu2331 Cu 0.60056 0.49996 1.10353
 Cu2332 Cu 0.63449 0.49964 1.13742
 C2333 C 0.56298 0.43624 1.14389
 H2334 H 0.55661 0.44288 1.12651
 C2335 C 0.57984 0.41850 1.18858
 C2336 C 0.43819 0.56435 1.14380
 H2337 H 0.44447 0.55815 1.12625
 C2338 C 0.42139 0.58094 1.18881
 C2339 C 0.35935 0.56516 1.06419
 H2340 H 0.37652 0.55837 1.05757
 C2341 C 0.31530 0.58330 1.08192
 C2342 C 0.64203 0.43793 1.06398
 H2343 H 0.62427 0.44383 1.05808
 C2344 C 0.68749 0.42190 1.07996
 C2345 C 0.56316 0.35846 1.06444
 H2346 H 0.55630 0.37553 1.05751
 C2347 C 0.58145 0.31473 1.08298
 C2348 C 0.43828 0.64391 1.06478
 H2349 H 0.44437 0.62620 1.05887
 C2350 C 0.42192 0.68948 1.08049
 C2351 C 0.43698 0.43781 1.14358
 H2352 H 0.44507 0.44579 1.12755
 C2353 C 0.41475 0.41601 1.18383
 C2354 C 0.56298 0.56348 1.14467
 H2355 H 0.55504 0.55603 1.12833
 C2356 C 0.58542 0.58401 1.18563
 C2357 C 0.43726 0.35797 1.06382
 H2358 H 0.44545 0.37392 1.05581
 C2359 C 0.41478 0.31804 1.08575
 C2360 C 0.56307 0.64357 1.06378
 H2361 H 0.55661 0.62612 1.05755
 C2362 C 0.58048 0.68817 1.08057
 C2363 C 0.35911 0.43867 1.06377
 H2364 H 0.37634 0.44527 1.05717
 C2365 C 0.31497 0.42089 1.08147
 C2366 C 0.64121 0.56394 1.06586
 H2367 H 0.62585 0.55530 1.05727
 C2368 C 0.67962 0.58757 1.08919
 C2369 C 1.10497 1.08685 1.22356
 C2370 C 1.11649 1.09804 1.24299
 C2371 C 1.12400 1.12221 1.24138
 C2372 C 1.12079 1.13509 1.21933
 C2373 C 1.10939 1.12357 1.19937
 C2374 C 1.10086 1.09941 1.20184
 C2375 C 1.10753 1.13646 1.17736
 N2376 N 1.11611 1.15943 1.17575
 N2377 N 1.12660 1.17030 1.19456
 C2378 C 1.12932 1.15892 1.21623
 H2379 H 1.09882 1.06831 1.22564
 H2380 H 1.11897 1.08792 1.25969
 H2381 H 1.09973 1.12844 1.16128
 H2382 H 1.13848 1.16848 1.23064
 C2383 C 1.09765 0.61569 0.70994
 C2384 C 1.10873 0.62604 0.73009
 C2385 C 1.11372 0.61216 0.75078
 C2386 C 1.10651 0.58753 0.75157
 C2387 C 1.09479 0.57707 0.73119
 C2388 C 1.09085 0.59122 0.70999
 C2389 C 1.08676 0.55293 0.73303
 N2390 N 1.09074 0.54012 0.75369
 N2391 N 1.10195 0.54986 0.77269
 C2392 C 1.10986 0.57311 0.77240
 H2393 H 1.09473 0.62682 0.69397
 H2394 H 1.11389 0.64497 0.72935
 H2395 H 1.07701 0.54421 0.71847
 H2396 H 1.11835 0.58015 0.78858
 C2397 C 0.59326 1.11584 0.71234
 C2398 C 0.60281 1.12627 0.73320
 C2399 C 0.61107 1.11192 0.75261
 C2400 C 0.60722 1.08636 0.75160
 C2401 C 0.59668 1.07581 0.73048
 C2402 C 0.59051 1.09068 0.71031
 C2403 C 0.59156 1.05080 0.73076
 N2404 N 0.59687 1.03728 0.75060
 N2405 N 0.60645 1.04710 0.77042
 C2406 C 0.61149 1.07109 0.77172
 H2407 H 0.58849 1.12765 0.69734
 H2408 H 0.60515 1.14577 0.73335
 H2409 H 0.58272 1.04190 0.71576
 H2410 H 0.61776 1.07798 0.78890
 C2411 C 0.58460 0.60697 1.22468
 C2412 C 0.59545 0.61637 1.24548
 C2413 C 0.62024 0.61298 1.25018
 C2414 C 0.63403 0.59935 1.23313
 C2415 C 0.62373 0.59307 1.21037
 C2416 C 0.59832 0.59530 1.20673
 C2417 C 0.63944 0.58476 1.19204
 N2418 N 0.66270 0.57913 1.19748
 N2419 N 0.67128 0.58147 1.21991
 C2420 C 0.65764 0.59104 1.23797
 H2421 H 0.56520 0.60890 1.22270
 H2422 H 0.58411 0.62634 1.25796
 H2423 H 0.63349 0.58264 1.17348
 H2424 H 0.66511 0.59114 1.25604
 C2425 C 0.91512 0.89445 1.22438
 C2426 C 0.90396 0.88535 1.24517
 C2427 C 0.87903 0.88877 1.24957
 C2428 C 0.86583 0.90306 1.23237
 C2429 C 0.87633 0.90860 1.20950
 C2430 C 0.90170 0.90595 1.20610
 C2431 C 0.86092 0.91705 1.19095
 N2432 N 0.83807 0.92411 1.19634
 N2433 N 0.82970 0.92313 1.21896
 C2434 C 0.84299 0.91335 1.23722
 H2435 H 0.93453 0.89238 1.22264
 H2436 H 0.91534 0.87550 1.25771
 H2437 H 0.86694 0.91843 1.17233
 H2438 H 0.83609 0.91494 1.25544
 C2439 C 0.91399 0.39560 0.72318
 C2440 C 0.90289 0.38422 0.74276
 C2441 C 0.87780 0.38005 0.74308
 C2442 C 0.86407 0.38566 0.72185
 C2443 C 0.87563 0.39679 0.70159
 C2444 C 0.90067 0.40254 0.70272
 C2445 C 0.86198 0.40061 0.68031
 N2446 N 0.83843 0.39394 0.67943
 N2447 N 0.82769 0.38319 0.69816
 C2448 C 0.83970 0.37853 0.71910
 H2449 H 0.93319 0.39942 0.72422
 H2450 H 0.91400 0.37987 0.75838
 H2451 H 0.86985 0.40815 0.66404
 H2452 H 0.83023 0.36830 0.73278
 C2453 C 0.41761 0.90205 0.72576
 C2454 C 0.40711 0.89196 0.74639
 C2455 C 0.38238 0.88654 0.74702
 C2456 C 0.36807 0.89047 0.72601
 C2457 C 0.37884 0.90037 0.70480
 C2458 C 0.40377 0.90673 0.70496
 C2459 C 0.36436 0.90285 0.68389
 N2460 N 0.34066 0.89665 0.68459
 N2461 N 0.33053 0.88755 0.70452
 C2462 C 0.34344 0.88402 0.72514
 H2463 H 0.43667 0.90658 0.72616
 H2464 H 0.41833 0.88875 0.76221
 H2465 H 0.37162 0.90923 0.66685
 H2466 H 0.33433 0.87586 0.74042
 C2467 C 0.41629 0.39756 1.22471
 C2468 C 0.40591 0.38631 1.24472
 C2469 C 0.38097 0.38134 1.24558
 C2470 C 0.36674 0.38598 1.22444
 C2471 C 0.37756 0.39717 1.20382
 C2472 C 0.40241 0.40369 1.20438
 C2473 C 0.36339 0.40031 1.18277
 N2474 N 0.34008 0.39279 1.18241
 N2475 N 0.33008 0.38187 1.20145
 C2476 C 0.34262 0.37792 1.22223
 H2477 H 0.43539 0.40195 1.22528
 H2478 H 0.41742 0.38276 1.26025
 H2479 H 0.37071 0.40798 1.16630
 H2480 H 0.33380 0.36752 1.23622
 C2481 C 0.88196 1.10189 0.79448
 C2482 C 0.87092 1.11341 0.77488
 C2483 C 0.88340 1.11682 0.75302
 C2484 C 0.90713 1.10727 0.75048
 C2485 C 0.91838 1.09553 0.77048
 C2486 C 0.90578 1.09332 0.79278
 C2487 C 0.94171 1.08579 0.76726
 N2488 N 0.95293 1.08777 0.74547
 N2489 N 0.94233 1.09861 0.72665
 C2490 C 0.91983 1.10828 0.72835
 H2491 H 0.87201 1.10016 0.81134
 H2492 H 0.85269 1.12034 0.77704
 H2493 H 0.95100 1.07629 0.78170
 H2494 H 0.91198 1.11618 0.71222
 C2495 C 0.91579 0.60944 0.27727
 C2496 C 0.90469 0.61865 0.25648
 C2497 C 0.88004 0.61452 0.25166
 C2498 C 0.86661 0.60049 0.26873
 C2499 C 0.87703 0.59457 0.29155
 C2500 C 0.90238 0.59731 0.29515
 C2501 C 0.86154 0.58593 0.30992
 N2502 N 0.83849 0.57960 0.30448
 N2503 N 0.82994 0.58150 0.28198
 C2504 C 0.84335 0.59134 0.26387
 H2505 H 0.93513 0.61181 0.27924
 H2506 H 0.91578 0.62895 0.24404
 H2507 H 0.86754 0.58405 0.32851
 H2508 H 0.83604 0.59086 0.24574
 C2509 C 0.38521 1.09656 0.28868
 C2510 C 0.37481 1.10609 0.26774
 C2511 C 0.38875 1.11016 0.24693
 C2512 C 0.41355 1.10353 0.24693
 C2513 C 0.42411 1.09347 0.26821
 C2514 C 0.40984 1.09049 0.28942
 C2515 C 0.44848 1.08610 0.26724
 N2516 N 0.46139 1.08908 0.24653
 N2517 N 0.45154 1.09867 0.22665
 C2518 C 0.42809 1.10588 0.22610
 H2519 H 0.37398 1.09432 0.30464
 H2520 H 0.35582 1.11100 0.26803
 H2521 H 0.45733 1.07765 0.28257
 H2522 H 0.42097 1.11296 0.20924
 C2523 C 0.38578 0.59742 0.79033
 C2524 C 0.37534 0.60743 0.76964
 C2525 C 0.38915 0.61150 0.74875
 C2526 C 0.41382 0.60441 0.74836
 C2527 C 0.42441 0.59387 0.76937
 C2528 C 0.41030 0.59085 0.79067
 C2529 C 0.44864 0.58608 0.76805
 N2530 N 0.46138 0.58909 0.74724
 N2531 N 0.45149 0.59910 0.72759
 C2532 C 0.42816 0.60673 0.72739
 H2533 H 0.37470 0.59515 0.80640
 H2534 H 0.35643 0.61263 0.77014
 H2535 H 0.45750 0.57729 0.78317
 H2536 H 0.42101 0.61415 0.71070
 C2537 C 1.11648 0.90287 0.79149
 C2538 C 1.12720 0.89278 0.77100
 C2539 C 1.11401 0.88981 0.74951
 C2540 C 1.08977 0.89833 0.74836
 C2541 C 1.07885 0.90863 0.76929
 C2542 C 1.09227 0.91045 0.79114
 C2543 C 1.05500 0.91743 0.76739
 N2544 N 1.04297 0.91585 0.74601
 N2545 N 1.05323 0.90633 0.72636
 C2546 C 1.07621 0.89768 0.72674
 H2547 H 1.12707 0.90432 0.80799
 H2548 H 1.14577 0.88656 0.77216
 H2549 H 1.04591 0.92589 0.78254
 H2550 H 1.08372 0.89090 0.70998
 C2551 C 1.08867 0.41639 0.27002
 C2552 C 1.09871 0.40622 0.24919
 C2553 C 1.11655 0.38827 0.25095
 C2554 C 1.12449 0.38036 0.27408
 C2555 C 1.11425 0.39066 0.29526
 C2556 C 1.09623 0.40879 0.29306
 C2557 C 1.12233 0.38232 0.31800
 N2558 N 1.13951 0.36477 0.31925
 N2559 N 1.14919 0.35513 0.29934
 C2560 C 1.14231 0.36232 0.27682
 H2561 H 1.07483 0.43021 0.26819
 H2562 H 1.09248 0.41232 0.23155
 H2563 H 1.11515 0.38954 0.33477
 H2564 H 1.15078 0.35385 0.26130
 C2565 C 0.58420 0.90304 0.27506
 C2566 C 0.59506 0.89206 0.25511
 C2567 C 0.61892 0.88355 0.25636
 C2568 C 0.63183 0.88532 0.27854
 C2569 C 0.62070 0.89638 0.29895
 C2570 C 0.59682 0.90570 0.29693
 C2571 C 0.63364 0.89704 0.32096
 N2572 N 0.65623 0.88751 0.32223
 N2573 N 0.66667 0.87715 0.30310
 C2574 C 0.65523 0.87561 0.28139
 H2575 H 0.56586 0.90981 0.27335
 H2576 H 0.58488 0.89060 0.23837
 H2577 H 0.62594 0.90465 0.33729
 H2578 H 0.66442 0.86638 0.26677
 C2579 C 0.58447 0.40038 0.77558
 C2580 C 0.59532 0.38977 0.75543
 C2581 C 0.61960 0.38249 0.75608
 C2582 C 0.63299 0.38509 0.77787
 C2583 C 0.62184 0.39563 0.79854
 C2584 C 0.59750 0.40381 0.79709
 C2585 C 0.63527 0.39690 0.82023
 N2586 N 0.65837 0.38861 0.82089
 N2587 N 0.66886 0.37887 0.80146
 C2588 C 0.65696 0.37671 0.78006
 H2589 H 0.56581 0.40628 0.77427
 H2590 H 0.58479 0.38764 0.73898
 H2591 H 0.62758 0.40401 0.83678
 H2592 H 0.66626 0.36807 0.76515
 C2593 C 1.20765 1.11537 1.09830
 C2594 C 1.22774 1.12592 1.10921
 C2595 C 1.24870 1.11235 1.11369
 C2596 C 1.24975 1.08780 1.10614
 C2597 C 1.22937 1.07712 1.09467
 C2598 C 1.20797 1.09098 1.09119
 C2599 C 1.23140 1.05307 1.08641
 N2600 N 1.25225 1.04055 1.08987
 N2601 N 1.27129 1.05051 1.10076
 C2602 C 1.27082 1.07370 1.10889
 H2603 H 1.19151 1.12627 1.09576
 H2604 H 1.22673 1.14475 1.11468
 H2605 H 1.21681 1.04419 1.07688
 H2606 H 1.28705 1.08092 1.11702
 C2607 C 1.20788 0.61492 0.59951
 C2608 C 1.22837 0.62528 0.60983
 C2609 C 1.24957 0.61173 0.61306
 C2610 C 1.25038 0.58737 0.60481
 C2611 C 1.22950 0.57684 0.59413
 C2612 C 1.20798 0.59071 0.59186
 C2613 C 1.23115 0.55294 0.58536
 N2614 N 1.25219 0.54046 0.58745
 N2615 N 1.27177 0.55032 0.59744
 C2616 C 1.27164 0.57334 0.60604
 H2617 H 1.19163 0.62582 0.59782
 H2618 H 1.22751 0.64397 0.61583
 H2619 H 1.21608 0.54416 0.57652
 H2620 H 1.28831 0.58049 0.61330
 C2621 C 0.72152 1.10911 0.58475
 C2622 C 0.74232 1.11851 0.59551
 C2623 C 0.74776 1.11422 0.62009
 C2624 C 0.73134 1.09966 0.63374
 C2625 C 0.70839 1.09366 0.62380
 C2626 C 0.70410 1.09668 0.59849
 C2627 C 0.69059 1.08473 0.63977
 N2628 N 0.69675 1.07800 0.66261
 N2629 N 0.71941 1.07985 0.67055
 C2630 C 0.73697 1.09008 0.65675
 H2631 H 0.71916 1.11163 0.56541
 H2632 H 0.75426 1.12909 0.58416
 H2633 H 0.67190 1.08291 0.63430
 H2634 H 0.75525 1.08953 0.66349
 C2635 C 0.72041 0.58900 1.10788
 C2636 C 0.73953 0.60116 1.11896
 C2637 C 0.73773 0.62587 1.12448
 C2638 C 0.71579 0.63833 1.11978
 C2639 C 0.69611 0.62584 1.10899
 C2640 C 0.69879 0.60110 1.10231
 C2641 C 0.67414 0.63845 1.10587
 N2642 N 0.67239 0.66205 1.11249
 N2643 N 0.69098 0.67385 1.12225
 C2644 C 0.71256 0.66280 1.12622
 H2645 H 0.72270 0.57007 1.10316
 H2646 H 0.75613 0.59135 1.12266
 H2647 H 0.65820 0.62974 1.09865
 H2648 H 0.72681 0.67317 1.13470
 C2649 C 1.20860 0.88594 0.90377
 C2650 C 1.22921 0.87578 0.89342
 C2651 C 1.25027 0.88951 0.89030
 C2652 C 1.25086 0.91379 0.89876
 C2653 C 1.22988 0.92410 0.90950
 C2654 C 1.20845 0.91012 0.91154
 C2655 C 1.23131 0.94792 0.91849
 N2656 N 1.25226 0.96054 0.91655
 N2657 N 1.27193 0.95088 0.90648
 C2658 C 1.27200 0.92795 0.89766
 H2659 H 1.19243 0.87496 0.90529
 H2660 H 1.22852 0.85715 0.88725
 H2661 H 1.21616 0.95654 0.92739
 H2662 H 1.28872 0.92095 0.89033
 C2663 C 1.22233 0.39626 0.41710
 C2664 C 1.24216 0.38475 0.40668
 C2665 C 1.24348 0.38081 0.38151
 C2666 C 1.22293 0.38681 0.36695
 C2667 C 1.20246 0.39821 0.37779
 C2668 C 1.20260 0.40367 0.40300
 C2669 C 1.18197 0.40266 0.36319
 N2670 N 1.18207 0.39638 0.33945
 N2671 N 1.20094 0.38530 0.32941
 C2672 C 1.22111 0.37995 0.34235
 H2673 H 1.22262 0.39985 0.43643
 H2674 H 1.25722 0.38021 0.41844
 H2675 H 1.16555 0.41039 0.37044
 H2676 H 1.23490 0.36945 0.33339
 C2677 C 0.70351 0.89948 0.38072
 C2678 C 0.72278 0.88785 0.36938
 C2679 C 0.74385 0.88209 0.38228
 C2680 C 0.74597 0.88920 0.40696
 C2681 C 0.72617 0.90092 0.41857
 C2682 C 0.70474 0.90577 0.40532
 C2683 C 0.72780 0.90839 0.44292
 N2684 N 0.74958 0.90372 0.45474
 N2685 N 0.76890 0.89283 0.44351
 C2686 C 0.76749 0.88573 0.42010
 H2687 H 0.68725 0.90313 0.37032
 H2688 H 0.72098 0.88276 0.35048
 H2689 H 0.73920 0.90873 0.45850
 H2690 H 0.78341 0.87785 0.41194
 C2691 C 0.70738 0.40126 0.88454
 C2692 C 0.72781 0.39120 0.87372
 C2693 C 0.74955 0.38897 0.88662
 C2694 C 0.75095 0.39811 0.91066
 C2695 C 0.73007 0.40831 0.92170
 C2696 C 0.70804 0.40949 0.90857
 C2697 C 0.73216 0.41767 0.94536
 N2698 N 0.75371 0.41678 0.95708
 N2699 N 0.77334 0.40742 0.94667
 C2700 C 0.77275 0.39821 0.92388
 H2701 H 0.69073 0.40224 0.87418
 H2702 H 0.72643 0.38449 0.85530
 H2703 H 0.71701 0.42600 0.95454
 H2704 H 0.78947 0.39159 0.91621
 C2705 C 0.77866 0.91518 1.10426
 C2706 C 0.75872 0.90424 1.11513
 C2707 C 0.75946 0.87983 1.12206
 C2708 C 0.78111 0.86640 1.11894
 C2709 C 0.80159 0.87765 1.10825
 C2710 C 0.80004 0.90211 1.10028
 C2711 C 0.82319 0.86417 1.10656
 N2712 N 0.82390 0.84091 1.11453
 N2713 N 0.80460 0.83029 1.12432
 C2714 C 0.78330 0.84223 1.12690
 H2715 H 0.77725 0.93393 1.09854
 H2716 H 0.74234 0.91478 1.11762
 H2717 H 0.83964 0.87194 1.09939
 H2718 H 0.76847 0.83282 1.13550
 C2719 C 0.79370 0.38387 0.59877
 C2720 C 0.77361 0.37317 0.60959
 C2721 C 0.75244 0.38652 0.61358
 C2722 C 0.75112 0.41094 0.60557
 C2723 C 0.77151 0.42178 0.59427
 C2724 C 0.79313 0.40819 0.59133
 C2725 C 0.76928 0.44571 0.58563
 N2726 N 0.74819 0.45795 0.58853
 N2727 N 0.72912 0.44783 0.59924
 C2728 C 0.72980 0.42476 0.60773
 H2729 H 0.81002 0.37319 0.59656
 H2730 H 0.77476 0.35441 0.61538
 H2731 H 0.78391 0.45471 0.57625
 H2732 H 0.71353 0.41740 0.61570
 C2733 C 0.27226 0.91005 0.58704
 C2734 C 0.25226 0.89922 0.59799
 C2735 C 0.25517 0.88344 0.61772
 C2736 C 0.27873 0.87800 0.62626
 C2737 C 0.29908 0.88888 0.61501
 C2738 C 0.29568 0.90520 0.59542
 C2739 C 0.32228 0.88273 0.62354
 N2740 N 0.32476 0.86664 0.64201
 N2741 N 0.30565 0.85640 0.65257
 C2742 C 0.28274 0.86153 0.64537
 H2743 H 0.26947 0.92236 0.57195
 H2744 H 0.23433 0.90332 0.59115
 H2745 H 0.33846 0.89039 0.61558
 H2746 H 0.26792 0.85252 0.65446
 C2747 C 0.29238 0.38603 1.09829
 C2748 C 0.27198 0.37536 1.10850
 C2749 C 0.25096 0.38892 1.11257
 C2750 C 0.25017 0.41359 1.10531
 C2751 C 0.27087 0.42440 1.09456
 C2752 C 0.29231 0.41055 1.09150
 C2753 C 0.26912 0.44859 1.08656
 N2754 N 0.24820 0.46109 1.08958
 N2755 N 0.22884 0.45100 1.09981
 C2756 C 0.22906 0.42769 1.10766
 H2757 H 0.30855 0.37512 1.09599
 H2758 H 0.27280 0.35644 1.11380
 H2759 H 0.28399 0.45760 1.07759
 H2760 H 0.21260 0.42036 1.11526
 C2761 C 0.77682 1.10191 0.91551
 C2762 C 0.75673 1.11249 0.90449
 C2763 C 0.75750 1.11986 0.88016
 C2764 C 0.77937 1.11742 0.86693
 C2765 C 0.79996 1.10689 0.87825
 C2766 C 0.79839 1.09857 0.90260
 C2767 C 0.82169 1.10571 0.86496
 N2768 N 0.82251 1.11415 0.84185
 N2769 N 0.80318 1.12392 0.83121
 C2770 C 0.78172 1.12595 0.84295
 H2771 H 0.77541 1.09590 0.93419
 H2772 H 0.74024 1.11450 0.91494
 H2773 H 0.83815 1.09854 0.87278
 H2774 H 0.76689 1.13459 0.83353
 C2775 C 0.77869 0.60130 0.40945
 C2776 C 0.75956 0.61357 0.39852
 C2777 C 0.76257 0.62545 0.37620
 C2778 C 0.78566 0.62535 0.36492
 C2779 C 0.80519 0.61283 0.37612
 C2780 C 0.80148 0.60058 0.39846
 C2781 C 0.82805 0.61364 0.36490
 N2782 N 0.83103 0.62615 0.34391
 N2783 N 0.81277 0.63798 0.33347
 C2784 C 0.79026 0.63811 0.34328
 H2785 H 0.77566 0.59215 0.42660
 H2786 H 0.74211 0.61354 0.40749
 H2787 H 0.84366 0.60473 0.37272
 H2788 H 0.77639 0.64857 0.33425
 C2789 C 0.29076 1.09827 0.38618
 C2790 C 0.26993 1.10821 0.37604
 C2791 C 0.24899 1.11138 0.38998
 C2792 C 0.24876 1.10337 0.41448
 C2793 C 0.27001 1.09312 0.42479
 C2794 C 0.29128 1.09099 0.41055
 C2795 C 0.26899 1.08466 0.44888
 N2796 N 0.24816 1.08658 0.46173
 N2797 N 0.22823 1.09614 0.45205
 C2798 C 0.22776 1.10446 0.42889
 H2799 H 0.30681 1.09665 0.37499
 H2800 H 0.27037 1.11406 0.35726
 H2801 H 0.28439 1.07619 0.45754
 H2802 H 0.21084 1.11137 0.42190
 C2803 C 0.27778 0.60291 0.91566
 C2804 C 0.25785 0.61378 0.90464
 C2805 C 0.25893 0.62170 0.88050
 C2806 C 0.28095 0.61951 0.86748
 C2807 C 0.30139 0.60869 0.87881
 C2808 C 0.29950 0.59982 0.90295
 C2809 C 0.32327 0.60778 0.86576
 N2810 N 0.32437 0.61674 0.84286
 N2811 N 0.30518 0.62675 0.83220
 C2812 C 0.28357 0.62854 0.84373
 H2813 H 0.27613 0.59649 0.93419
 H2814 H 0.24122 0.61556 0.91491
 H2815 H 0.33963 0.60042 0.87362
 H2816 H 0.26883 0.63736 0.83432
 C2817 C 1.08385 1.22638 1.09972
 C2818 C 1.09488 1.24635 1.11045
 C2819 C 1.11862 1.24484 1.11922
 C2820 C 1.13118 1.22247 1.11808
 C2821 C 1.11984 1.20202 1.10745
 C2822 C 1.09617 1.20427 1.09769
 C2823 C 1.13239 1.17979 1.10755
 N2824 N 1.15487 1.17839 1.11731
 N2825 N 1.16558 1.19764 1.12711
 C2826 C 1.15451 1.21958 1.12790
 H2827 H 1.06566 1.22827 1.09262
 H2828 H 1.08499 1.26330 1.11147
 H2829 H 1.12446 1.16342 1.10032
 H2830 H 1.16393 1.23441 1.13651
 C2831 C 1.09608 0.71088 0.61557
 C2832 C 1.10671 0.73143 0.62551
 C2833 C 1.11070 0.75213 0.61133
 C2834 C 1.10284 0.75247 0.58683
 C2835 C 1.09174 0.73158 0.57676
 C2836 C 1.08884 0.71045 0.59120
 C2837 C 1.08327 0.73282 0.55270
 N2838 N 1.08612 0.75346 0.53962
 N2839 N 1.09660 0.77302 0.54903
 C2840 C 1.10493 0.77328 0.57218
 H2841 H 1.09394 0.69494 0.62690
 H2842 H 1.11241 0.73098 0.64433
 H2843 H 1.07406 0.71777 0.54425
 H2844 H 1.11270 0.78991 0.57894
 C2845 C 0.61417 1.21035 0.59745
 C2846 C 0.62483 1.23081 0.60757
 C2847 C 0.61140 1.25203 0.61109
 C2848 C 0.58692 1.25297 0.60339
 C2849 C 0.57611 1.23217 0.59285
 C2850 C 0.58982 1.21057 0.59031
 C2851 C 0.55209 1.23396 0.58455
 N2852 N 0.53976 1.25509 0.58699
 N2853 N 0.54987 1.27458 0.59694
 C2854 C 0.57301 1.27429 0.60512
 H2855 H 0.62495 1.19404 0.59551
 H2856 H 0.64359 1.22990 0.61321
 H2857 H 0.54308 1.21894 0.57583
 H2858 H 0.58036 1.29085 0.61249
 C2859 C 0.61486 0.71132 1.09734
 C2860 C 0.62515 0.73197 1.10744
 C2861 C 0.61141 0.75303 1.11089
 C2862 C 0.58696 0.75358 1.10304
 C2863 C 0.57649 0.73255 1.09257
 C2864 C 0.59053 0.71114 1.09015
 C2865 C 0.55245 0.73392 1.08423
 N2866 N 0.53979 0.75486 1.08652
 N2867 N 0.54960 0.77458 1.09631
 C2868 C 0.57273 0.77472 1.10451
 H2869 H 0.62587 0.69515 1.09553
 H2870 H 0.64389 0.73129 1.11318
 H2871 H 0.54369 0.71872 1.07557
 H2872 H 0.57983 0.79148 1.11164
 C2873 C 0.91890 1.22687 0.90205
 C2874 C 0.90828 1.24728 0.89162
 C2875 C 0.88408 1.24691 0.88417
 C2876 C 0.87053 1.22521 0.88632
 C2877 C 0.88143 1.20431 0.89666
 C2878 C 0.90568 1.20544 0.90510
 C2879 C 0.86784 1.18274 0.89753
 N2880 N 0.84483 1.18241 0.88901
 N2881 N 0.83456 1.20208 0.87946
 C2882 C 0.84661 1.22340 0.87773
 H2883 H 0.93752 1.22789 0.90813
 H2884 H 0.91891 1.26367 0.88977
 H2885 H 0.87534 1.16603 0.90452
 H2886 H 0.83748 1.23856 0.86928
 C2887 C 0.91681 0.72980 0.40524
 C2888 C 0.90590 0.74978 0.39423
 C2889 C 0.88387 0.74740 0.38186
 C2890 C 0.87324 0.72407 0.37953
 C2891 C 0.88423 0.70381 0.39099
 C2892 C 0.90597 0.70691 0.40425
 C2893 C 0.87335 0.68090 0.38831
 N2894 N 0.85298 0.67854 0.37482
 N2895 N 0.84289 0.69745 0.36368
 C2896 C 0.85237 0.72005 0.36543
 H2897 H 0.93365 0.73227 0.41500
 H2898 H 0.91439 0.76738 0.39595
 H2899 H 0.88097 0.66480 0.39653
 H2900 H 0.84375 0.73444 0.35530
 C2901 C 0.38903 1.21692 0.40719
 C2902 C 0.37972 1.23876 0.39863
 C2903 C 0.39461 1.25908 0.39580
 C2904 C 0.41932 1.25753 0.40259
 C2905 C 0.42878 1.23531 0.41161
 C2906 C 0.41351 1.21471 0.41346
 C2907 C 0.45311 1.23470 0.41916
 N2908 N 0.46699 1.25487 0.41734
 N2909 N 0.45816 1.27565 0.40875
 C2910 C 0.43482 1.27772 0.40145
 H2911 H 0.37706 1.20143 0.40857
 H2912 H 0.36078 1.23962 0.39357
 H2913 H 0.46116 1.21856 0.42684
 H2914 H 0.42857 1.29523 0.39523
 C2915 C 0.41587 0.72553 0.89874
 C2916 C 0.40457 0.74523 0.88771
 C2917 C 0.38036 0.74388 0.88037
 C2918 C 0.36752 0.72183 0.88325
 C2919 C 0.37914 0.70162 0.89420
 C2920 C 0.40335 0.70381 0.90253
 C2921 C 0.36628 0.67964 0.89576
 N2922 N 0.34328 0.67829 0.88730
 N2923 N 0.33234 0.69731 0.87720
 C2924 C 0.34367 0.71897 0.87479
 H2925 H 0.43445 0.72737 0.90473
 H2926 H 0.41468 0.76190 0.88538
 H2927 H 0.37436 0.66341 0.90322
 H2928 H 0.33404 0.73355 0.86590
 C2929 C 1.11397 0.79038 0.90339
 C2930 C 1.12440 0.76972 0.89340
 C2931 C 1.11074 0.74868 0.88987
 C2932 C 1.08622 0.74815 0.89750
 C2933 C 1.07562 0.76919 0.90787
 C2934 C 1.08959 0.79059 0.91038
 C2935 C 1.05154 0.76782 0.91605
 N2936 N 1.03896 0.74688 0.91370
 N2937 N 1.04888 0.72716 0.90397
 C2938 C 1.07207 0.72702 0.89593
 H2939 H 1.12494 0.80653 0.90530
 H2940 H 1.14319 0.77037 0.88783
 H2941 H 1.04268 0.78303 0.92465
 H2942 H 1.07926 0.71025 0.88885
 C2943 C 1.11486 0.29127 0.40378
 C2944 C 1.12542 0.27090 0.39334
 C2945 C 1.11157 0.25037 0.38811
 C2946 C 1.08671 0.24996 0.39442
 C2947 C 1.07600 0.27059 0.40544
 C2948 C 1.09018 0.29161 0.40964
 C2949 C 1.05157 0.26918 0.41252
 N2950 N 1.03875 0.24868 0.40833
 N2951 N 1.04875 0.22940 0.39780
 C2952 C 1.07227 0.22928 0.39082
 H2953 H 1.12600 0.30711 0.40690
 H2954 H 1.14449 0.27138 0.38878
 H2955 H 1.04261 0.28398 0.42169
 H2956 H 1.07949 0.21289 0.38290
 C2957 C 0.58009 0.77147 0.40479
 C2958 C 0.59023 0.75074 0.39448
 C2959 C 0.61324 0.75145 0.38382
 C2960 C 0.62572 0.77390 0.38237
 C2961 C 0.61546 0.79495 0.39303
 C2962 C 0.59267 0.79349 0.40474
 C2963 C 0.62813 0.81699 0.39103
 N2964 N 0.64953 0.81779 0.37906
 N2965 N 0.65902 0.79814 0.36877
 C2966 C 0.64782 0.77631 0.36987
 H2967 H 0.56248 0.77021 0.41333
 H2968 H 0.58034 0.73383 0.39548
 H2969 H 0.62110 0.83366 0.39854
 H2970 H 0.65607 0.76127 0.36046
 C2971 C 0.61598 0.29094 0.90329
 C2972 C 0.62638 0.27088 0.89207
 C2973 C 0.61247 0.25047 0.88642
 C2974 C 0.58773 0.24988 0.89315
 C2975 C 0.57721 0.27016 0.90505
 C2976 C 0.59141 0.29111 0.90962
 C2977 C 0.55293 0.26845 0.91258
 N2978 N 0.54004 0.24808 0.90793
 N2979 N 0.54983 0.22920 0.89654
 C2980 C 0.57322 0.22934 0.88911
 H2981 H 0.62715 0.30672 0.90662
 H2982 H 0.64537 0.27151 0.88724
 H2983 H 0.54415 0.28289 0.92246
 H2984 H 0.58027 0.21325 0.88045
 C2985 C 0.88853 0.78789 1.09855
 C2986 C 0.87823 0.76662 1.10731
 C2987 C 0.89102 0.74463 1.10693
 C2988 C 0.91477 0.74419 1.09703
 C2989 C 0.92540 0.76605 1.08841
 C2990 C 0.91207 0.78802 1.08924
 C2991 C 0.94883 0.76503 1.07848
 N2992 N 0.96068 0.74354 1.07715
 N2993 N 0.95060 0.72301 1.08482
 C2994 C 0.92805 0.72255 1.09453
 H2995 H 0.87806 0.80451 1.09925
 H2996 H 0.86011 0.76749 1.11475
 H2997 H 0.95774 0.78102 1.07150
 H2998 H 0.92066 0.70520 1.09967
 C2999 C 0.92112 0.27152 0.59305
 C3000 C 0.91146 0.25012 0.60236
 C3001 C 0.88729 0.24902 0.60980
 C3002 C 0.87261 0.27003 0.60831
 C3003 C 0.88252 0.29197 0.59924
 C3004 C 0.90694 0.29253 0.59119
 C3005 C 0.86780 0.31284 0.59931
 N3006 N 0.84462 0.31149 0.60728
 N3007 N 0.83523 0.29080 0.61541
 C3008 C 0.84842 0.27007 0.61628
 H3009 H 0.93983 0.27169 0.58718
 H3010 H 0.92297 0.23426 0.60385
 H3011 H 0.87451 0.33029 0.59349
 H3012 H 0.83992 0.25390 0.62336
 C3013 C 0.41460 0.77726 0.60254
 C3014 C 0.40353 0.75735 0.61337
 C3015 C 0.37902 0.75804 0.61980
 C3016 C 0.36560 0.77966 0.61611
 C3017 C 0.37696 0.80009 0.60533
 C3018 C 0.40157 0.79858 0.59801
 C3019 C 0.36343 0.82162 0.60294
 N3020 N 0.34004 0.82231 0.61030
 N3021 N 0.32936 0.80313 0.62029
 C3022 C 0.34135 0.78193 0.62362
 H3023 H 0.43344 0.77587 0.59728
 H3024 H 0.41410 0.74104 0.61628
 H3025 H 0.37123 0.83805 0.59568
 H3026 H 0.33189 0.76726 0.63247
 C3027 C 0.41462 0.27627 1.10210
 C3028 C 0.40335 0.25652 1.11303
 C3029 C 0.37906 0.25779 1.12013
 C3030 C 0.36610 0.27977 1.11707
 C3031 C 0.37769 0.30005 1.10630
 C3032 C 0.40201 0.29797 1.09821
 C3033 C 0.36470 0.32199 1.10469
 N3034 N 0.34158 0.32321 1.11281
 N3035 N 0.33064 0.30410 1.12268
 C3036 C 0.34210 0.28250 1.12520
 H3037 H 0.43327 0.27449 1.09630
 H3038 H 0.41355 0.23990 1.11551
 H3039 H 0.37276 0.33830 1.09745
 H3040 H 0.33245 0.26784 1.13388
 C3041 C 1.09207 1.11504 0.78629
 C3042 C 1.10130 1.12548 0.76527
 C3043 C 1.10878 1.11116 0.74558
 C3044 C 1.10447 1.08566 0.74655
 C3045 C 1.09442 1.07510 0.76791
 C3046 C 1.08898 1.08991 0.78826
 C3047 C 1.08904 1.05015 0.76774
 N3048 N 1.09353 1.03671 0.74768
 N3049 N 1.10253 1.04657 0.72759
 C3050 C 1.10783 1.07051 0.72621
 H3051 H 1.08782 1.12677 0.80147
 H3052 H 1.10402 1.14493 0.76518
 H3053 H 1.08066 1.04123 0.78302
 H3054 H 1.11357 1.07747 0.70885
 C3055 C 1.09233 0.61556 0.28664
 C3056 C 1.10165 0.62581 0.26558
 C3057 C 1.10857 0.61134 0.24578
 C3058 C 1.10353 0.58597 0.24670
 C3059 C 1.09354 0.57561 0.26818
 C3060 C 1.08868 0.59052 0.28859
 C3061 C 1.08764 0.55078 0.26808
 N3062 N 1.09145 0.53729 0.24792
 N3063 N 1.10028 0.54700 0.22768
 C3064 C 1.10612 0.57082 0.22626
 H3065 H 1.08849 0.62735 0.30188
 H3066 H 1.10489 0.64517 0.26554
 H3067 H 1.07938 0.54202 0.28353
 H3068 H 1.11165 0.57770 0.20880
 C3069 C 0.59318 1.11665 0.28778
 C3070 C 0.60281 1.12683 0.26681
 C3071 C 0.60978 1.11232 0.24706
 C3072 C 0.60438 1.08702 0.24786
 C3073 C 0.59414 1.07672 0.26925
 C3074 C 0.58932 1.09163 0.28967
 C3075 C 0.58795 1.05196 0.26905
 N3076 N 0.59168 1.03849 0.24887
 N3077 N 0.60070 1.04816 0.22869
 C3078 C 0.60684 1.07190 0.22737
 H3079 H 0.58931 1.12844 0.30301
 H3080 H 0.60625 1.14616 0.26682
 H3081 H 0.57951 1.04326 0.28443
 H3082 H 0.61248 1.07878 0.20995
 C3083 C 0.61541 0.59749 0.78992
 C3084 C 0.62594 0.60795 0.76951
 C3085 C 0.61225 0.61257 0.74863
 C3086 C 0.58756 0.60557 0.74799
 C3087 C 0.57688 0.59460 0.76874
 C3088 C 0.59090 0.59101 0.79004
 C3089 C 0.55265 0.58695 0.76715
 N3090 N 0.53998 0.59047 0.74636
 N3091 N 0.54996 0.60085 0.72697
 C3092 C 0.57330 0.60838 0.72701
 H3093 H 0.62643 0.59485 0.80598
 H3094 H 0.64485 0.61305 0.77024
 H3095 H 0.54373 0.57785 0.78204
 H3096 H 0.58051 0.61608 0.71050
 C3097 C 0.88556 0.90379 0.78967
 C3098 C 0.87535 0.89336 0.76911
 C3099 C 0.88920 0.88943 0.74822
 C3100 C 0.91369 0.89707 0.74772
 C3101 C 0.92403 0.90803 0.76860
 C3102 C 0.90989 0.91092 0.78991
 C3103 C 0.94804 0.91638 0.76714
 N3104 N 0.96083 0.91350 0.74635
 N3105 N 0.95118 0.90310 0.72683
 C3106 C 0.92806 0.89492 0.72675
 H3107 H 0.87445 0.90591 0.80573
 H3108 H 0.85656 0.88779 0.76971
 H3109 H 0.95668 0.92553 0.78214
 H3110 H 0.92110 0.88721 0.71016
 C3111 C 0.89645 0.41800 0.27308
 C3112 C 0.88681 0.40731 0.25230
 C3113 C 0.88958 0.38233 0.24761
 C3114 C 0.90396 0.36856 0.26428
 C3115 C 0.91034 0.37869 0.28713
 C3116 C 0.90799 0.40406 0.29098
 C3117 C 0.91966 0.36374 0.30568
 N3118 N 0.92530 0.34001 0.29937
 N3119 N 0.92369 0.33177 0.27598
 C3120 C 0.91387 0.34581 0.25845
 H3121 H 0.89465 0.43743 0.27518
 H3122 H 0.87688 0.41899 0.24009
 H3123 H 0.92459 0.34559 0.31027
 H3124 H 0.91467 0.33933 0.24001
 C3125 C 0.41573 0.89427 0.27790
 C3126 C 0.40519 0.88231 0.25841
 C3127 C 0.38000 0.87951 0.25682
 C3128 C 0.36542 0.88686 0.27688
 C3129 C 0.37640 0.89824 0.29729
 C3130 C 0.40170 0.90290 0.29723
 C3131 C 0.36177 0.90346 0.31759
 N3132 N 0.33784 0.89828 0.31720
 N3133 N 0.32758 0.88754 0.29823
 C3134 C 0.34053 0.88134 0.27831
 H3135 H 0.43511 0.89720 0.27762
 H3136 H 0.41688 0.87665 0.24367
 H3137 H 0.36911 0.91093 0.33411
 H3138 H 0.33131 0.87128 0.26434
 C3139 C 0.38616 0.40285 0.79045
 C3140 C 0.37623 0.39268 0.76961
 C3141 C 0.39017 0.38957 0.74862
 C3142 C 0.41450 0.39778 0.74839
 C3143 C 0.42459 0.40833 0.76961
 C3144 C 0.41033 0.41046 0.79092
 C3145 C 0.44847 0.41710 0.76850
 N3146 N 0.46134 0.41513 0.74766
 N3147 N 0.45190 0.40525 0.72778
 C3148 C 0.42893 0.39666 0.72737
 H3149 H 0.37497 0.40443 0.80652
 H3150 H 0.35755 0.38673 0.77004
 H3151 H 0.45692 0.42588 0.78382
 H3152 H 0.42214 0.38948 0.71048
 C3153 C 1.08216 0.90138 1.22712
 C3154 C 1.09273 0.89088 1.24752
 C3155 C 1.11702 0.88371 1.24727
 C3156 C 1.13075 0.88627 1.22570
 C3157 C 1.11988 0.89658 1.20475
 C3158 C 1.09551 0.90474 1.20576
 C3159 C 1.13362 0.89765 1.18325
 N3160 N 1.15677 0.88948 1.18307
 N3161 N 1.16704 0.88006 1.20281
 C3162 C 1.15483 0.87808 1.22406
 H3163 H 1.06347 0.90725 1.22810
 H3164 H 1.08197 0.88879 1.26383
 H3165 H 1.12614 0.90450 1.16646
 H3166 H 1.16396 0.86976 1.23930
 C3167 C 1.08222 0.40099 0.72731
 C3168 C 1.09282 0.39016 0.74754
 C3169 C 1.11667 0.38158 0.74669
 C3170 C 1.12976 0.38297 0.72458
 C3171 C 1.11890 0.39387 0.70391
 C3172 C 1.09510 0.40343 0.70555
 C3173 C 1.13205 0.39418 0.68201
 N3174 N 1.15458 0.38448 0.68110
 N3175 N 1.16476 0.37426 0.70048
 C3176 C 1.15312 0.37305 0.72211
 H3177 H 1.06391 0.40790 0.72874
 H3178 H 1.08250 0.38904 0.76423
 H3179 H 1.12455 0.40167 0.66550
 H3180 H 1.16209 0.36390 0.73694
 C3181 C 0.58356 0.90120 0.72533
 C3182 C 0.59418 0.89037 0.74556
 C3183 C 0.61826 0.88243 0.74491
 C3184 C 0.63159 0.88451 0.72300
 C3185 C 0.62068 0.89533 0.70230
 C3186 C 0.59662 0.90426 0.70376
 C3187 C 0.63407 0.89615 0.68056
 N3188 N 0.65687 0.88710 0.67985
 N3189 N 0.66713 0.87705 0.69929
 C3190 C 0.65527 0.87533 0.72076
 H3191 H 0.56506 0.90762 0.72664
 H3192 H 0.58368 0.88870 0.76208
 H3193 H 0.62655 0.90351 0.66401
 H3194 H 0.66434 0.86638 0.73566
 C3195 C 0.59321 0.38339 1.21327
 C3196 C 0.60283 0.37285 1.23410
 C3197 C 0.60951 0.38703 1.25417
 C3198 C 0.60373 0.41228 1.25388
 C3199 C 0.59356 0.42293 1.23263
 C3200 C 0.58910 0.40842 1.21187
 C3201 C 0.58710 0.44764 1.23327
 N3202 N 0.59046 0.46071 1.25378
 N3203 N 0.59937 0.45068 1.27385
 C3204 C 0.60578 0.42697 1.27472
 H3205 H 0.58957 0.37189 1.19777
 H3206 H 0.60654 0.35357 1.23372
 H3207 H 0.57875 0.45660 1.21797
 H3208 H 0.61132 0.41976 1.29205
 C3209 C 0.89351 1.08462 1.22499
 C3210 C 0.88362 1.09546 1.24558
 C3211 C 0.88816 1.11988 1.25117
 C3212 C 0.90364 1.13324 1.23539
 C3213 C 0.91028 1.12333 1.21253
 C3214 C 0.90674 1.09819 1.20798
 C3215 C 0.92072 1.13828 1.19463
 N3216 N 0.92697 1.16165 1.20161
 N3217 N 0.92466 1.16960 1.22505
 C3218 C 0.91375 1.15564 1.24195
 H3219 H 0.89058 1.06540 1.22239
 H3220 H 0.87236 1.08440 1.25720
 H3221 H 0.92660 1.15626 1.19063
 H3222 H 0.91374 1.16193 1.26047
 C3223 C 0.88403 0.59849 0.71002
 C3224 C 0.87353 0.60897 0.73042
 C3225 C 0.88696 0.61246 0.75168
 C3226 C 0.91130 0.60430 0.75269
 C3227 C 0.92196 0.59342 0.73193
 C3228 C 0.90826 0.59094 0.71030
 C3229 C 0.94584 0.58471 0.73379
 N3230 N 0.95818 0.58708 0.75492
 N3231 N 0.94820 0.59731 0.77437
 C3232 C 0.92519 0.60586 0.77403
 H3233 H 0.87327 0.59667 0.69369
 H3234 H 0.85487 0.61494 0.72939
 H3235 H 0.95472 0.57571 0.71884
 H3236 H 0.91793 0.61337 0.79060
 C3237 C 0.38418 1.10028 0.70827
 C3238 C 0.37367 1.11082 0.72864
 C3239 C 0.38679 1.11345 0.75023
 C3240 C 0.41077 1.10431 0.75158
 C3241 C 0.42147 1.09348 0.73081
 C3242 C 0.40811 1.09187 0.70889
 C3243 C 0.44501 1.08394 0.73293
 N3244 N 0.45699 1.08538 0.75435
 N3245 N 0.44695 1.09544 0.77385
 C3246 C 0.42425 1.10478 0.77326
 H3247 H 0.37369 1.09908 0.69170
 H3248 H 0.35526 1.11750 0.72735
 H3249 H 0.45391 1.07503 0.71793
 H3250 H 0.41692 1.11204 0.78989
 C3251 C 0.38774 0.59825 1.21274
 C3252 C 0.37789 0.60806 1.23379
 C3253 C 0.39183 0.61045 1.25488
 C3254 C 0.41607 0.60192 1.25495
 C3255 C 0.42609 0.59177 1.23349
 C3256 C 0.41183 0.59033 1.21212
 C3257 C 0.44988 0.58269 1.23440
 N3258 N 0.46274 0.58397 1.25531
 N3259 N 0.45336 0.59345 1.27542
 C3260 C 0.43048 0.60232 1.27601
 H3261 H 0.37655 0.59719 1.19662
 H3262 H 0.35928 0.61429 1.23345
 H3263 H 0.45828 0.57423 1.21885
 H3264 H 0.42372 0.60914 1.29307
 C3265 C 1.08430 1.22266 0.89405
 C3266 C 1.09496 1.24247 0.88269
 C3267 C 1.12005 1.24334 0.87858
 C3268 C 1.13417 1.22230 0.88392
 C3269 C 1.12308 1.20184 0.89509
 C3270 C 1.09807 1.20251 0.90103
 C3271 C 1.13717 1.18084 0.89883
 N3272 N 1.16068 1.18040 0.89192
 N3273 N 1.17098 1.19932 0.88109
 C3274 C 1.15854 1.22004 0.87660
 H3275 H 1.06509 1.22331 0.89794
 H3276 H 1.08352 1.25789 0.87854
 H3277 H 1.12965 1.16448 0.90650
 H3278 H 1.16764 1.23399 0.86637
 C3279 C 1.11652 0.71219 0.40663
 C3280 C 1.12725 0.73319 0.39771
 C3281 C 1.11337 0.75385 0.39216
 C3282 C 1.08823 0.75375 0.39826
 C3283 C 1.07736 0.73223 0.40751
 C3284 C 1.09159 0.71110 0.41103
 C3285 C 1.05274 0.73296 0.41409
 N3286 N 1.03998 0.75382 0.41182
 N3287 N 1.05025 0.77414 0.40390
 C3288 C 1.07389 0.77492 0.39741
 H3289 H 1.12780 0.69637 0.40958
 H3290 H 1.14644 0.73258 0.39374
 H3291 H 1.04360 0.71740 0.42164
 H3292 H 1.08132 0.79238 0.39277
 C3293 C 0.59427 1.21226 0.38292
 C3294 C 0.60411 1.23294 0.37240
 C3295 C 0.61123 1.25280 0.38663
 C3296 C 0.60567 1.25251 0.41194
 C3297 C 0.59513 1.23147 0.42257
 C3298 C 0.59027 1.21085 0.40799
 C3299 C 0.58870 1.23221 0.44730
 N3300 N 0.59256 1.25256 0.46045
 N3301 N 0.60193 1.27241 0.45048
 C3302 C 0.60828 1.27321 0.42673
 H3303 H 0.59035 1.19688 0.37137
 H3304 H 0.60764 1.23262 0.35306
 H3305 H 0.57999 1.21712 0.45622
 H3306 H 0.61423 1.29040 0.41959
 C3307 C 0.58552 0.72493 0.89941
 C3308 C 0.59619 0.74486 0.88819
 C3309 C 0.62019 0.74389 0.88010
 C3310 C 0.63342 0.72194 0.88247
 C3311 C 0.62248 0.70154 0.89374
 C3312 C 0.59846 0.70332 0.90273
 C3313 C 0.63576 0.67976 0.89494
 N3314 N 0.65851 0.67872 0.88578
 N3315 N 0.66878 0.69786 0.87527
 C3316 C 0.65700 0.71935 0.87318
 H3317 H 0.56707 0.72648 0.90588
 H3318 H 0.58577 0.76142 0.88636
 H3319 H 0.62822 0.66343 0.90268
 H3320 H 0.66607 0.73397 0.86384
 C3321 C 0.91185 1.22227 1.10652
 C3322 C 0.89976 1.24150 1.11754
 C3323 C 0.87515 1.23979 1.12332
 C3324 C 0.86270 1.21779 1.11890
 C3325 C 0.87512 1.19801 1.10811
 C3326 C 0.89976 1.20060 1.10123
 C3327 C 0.86254 1.17601 1.10520
 N3328 N 0.83904 1.17431 1.11208
 N3329 N 0.82734 1.19297 1.12191
 C3330 C 0.83836 1.21459 1.12566
 H3331 H 0.93071 1.22448 1.10164
 H3332 H 0.90957 1.25813 1.12106
 H3333 H 0.87119 1.16002 1.09795
 H3334 H 0.82806 1.22887 1.13423
 C3335 C 0.91363 0.72384 0.60184
 C3336 C 0.90262 0.74341 0.61332
 C3337 C 0.87867 0.74191 0.62149
 C3338 C 0.86583 0.71982 0.61884
 C3339 C 0.87714 0.69977 0.60732
 C3340 C 0.90110 0.70209 0.59833
 C3341 C 0.86427 0.67780 0.60587
 N3342 N 0.84156 0.67626 0.61505
 N3343 N 0.83094 0.69507 0.62579
 C3344 C 0.84230 0.71672 0.62810
 H3345 H 0.93204 0.72578 0.59535
 H3346 H 0.91274 0.76009 0.61535
 H3347 H 0.87211 0.66173 0.59790
 H3348 H 0.83296 0.73109 0.63755
 C3349 C 0.41454 1.22287 0.60784
 C3350 C 0.40380 1.24220 0.61991
 C3351 C 0.37884 1.24249 0.62485
 C3352 C 0.36500 1.22134 0.61939
 C3353 C 0.37620 1.20137 0.60743
 C3354 C 0.40103 1.20263 0.60086
 C3355 C 0.36242 1.18025 0.60355
 N3356 N 0.33911 1.17922 0.61106
 N3357 N 0.32874 1.19766 0.62262
 C3358 C 0.34090 1.21846 0.62730
 H3359 H 0.43363 1.22398 0.60345
 H3360 H 0.41506 1.25772 0.62402
 H3361 H 0.37003 1.16424 0.59528
 H3362 H 0.33181 1.23195 0.63811
 C3363 C 0.38718 0.71509 1.09267
 C3364 C 0.37679 0.73627 1.10149
 C3365 C 0.39107 0.75624 1.10817
 C3366 C 0.41647 0.75525 1.10346
 C3367 C 0.42699 0.73362 1.09398
 C3368 C 0.41221 0.71311 1.08930
 C3369 C 0.45186 0.73367 1.08838
 N3370 N 0.46524 0.75389 1.09201
 N3371 N 0.45539 0.77424 1.10037
 C3372 C 0.43154 0.77572 1.10589
 H3373 H 0.37547 0.69978 1.08897
 H3374 H 0.35742 0.73628 1.10450
 H3375 H 0.46074 0.71812 1.08049
 H3376 H 0.42458 0.79323 1.11105
 C3377 C 0.91434 0.77777 0.89763
 C3378 C 0.90314 0.75817 0.88643
 C3379 C 0.87886 0.75947 0.87926
 C3380 C 0.86586 0.78140 0.88253
 C3381 C 0.87736 0.80151 0.89369
 C3382 C 0.90166 0.79937 0.90179
 C3383 C 0.86429 0.82336 0.89567
 N3384 N 0.84121 0.82470 0.88743
 N3385 N 0.83039 0.80580 0.87710
 C3386 C 0.84193 0.78428 0.87425
 H3387 H 0.93298 0.77595 0.90345
 H3388 H 0.91338 0.74160 0.88386
 H3389 H 0.87225 0.83952 0.90329
 H3390 H 0.83239 0.76984 0.86514
 C3391 C 0.88224 0.29745 0.39852
 C3392 C 0.87039 0.27803 0.38773
 C3393 C 0.88285 0.25666 0.38220
 C3394 C 0.90766 0.25449 0.38844
 C3395 C 0.91969 0.27418 0.39980
 C3396 C 0.90688 0.29600 0.40446
 C3397 C 0.94399 0.27103 0.40679
 N3398 N 0.95547 0.24977 0.40225
 N3399 N 0.94424 0.23137 0.39146
 C3400 C 0.92075 0.23294 0.38452
 H3401 H 0.87212 0.31393 0.40202
 H3402 H 0.85138 0.27987 0.38324
 H3403 H 0.95391 0.28504 0.41617
 H3404 H 0.91250 0.21718 0.37640
 C3405 C 0.41640 0.77829 0.39430
 C3406 C 0.40588 0.75876 0.38241
 C3407 C 0.38085 0.75799 0.37795
 C3408 C 0.36664 0.77888 0.38364
 C3409 C 0.37753 0.79894 0.39566
 C3410 C 0.40252 0.79820 0.40168
 C3411 C 0.36318 0.81959 0.40024
 N3412 N 0.33965 0.82002 0.39345
 N3413 N 0.32964 0.80164 0.38156
 C3414 C 0.34239 0.78141 0.37600
 H3415 H 0.43559 0.77758 0.39828
 H3416 H 0.41741 0.74347 0.37808
 H3417 H 0.37044 0.83572 0.40853
 H3418 H 0.33359 0.76813 0.36474
 C3419 C 0.38590 0.29059 0.90384
 C3420 C 0.37567 0.26993 0.89369
 C3421 C 0.38947 0.24893 0.89011
 C3422 C 0.41396 0.24847 0.89786
 C3423 C 0.42436 0.26950 0.90842
 C3424 C 0.41024 0.29085 0.91099
 C3425 C 0.44841 0.26816 0.91673
 N3426 N 0.46116 0.24730 0.91426
 N3427 N 0.45143 0.22760 0.90436
 C3428 C 0.42828 0.22741 0.89623
 H3429 H 0.37483 0.30671 0.90573
 H3430 H 0.35690 0.27056 0.88804
 H3431 H 0.45711 0.28333 0.92549
 H3432 H 0.42126 0.21066 0.88899
 C3433 C 1.11579 0.78853 1.09479
 C3434 C 1.12665 0.76802 1.10467
 C3435 C 1.11276 0.74843 1.11310
 C3436 C 1.08724 0.74885 1.10908
 C3437 C 1.07624 0.76965 1.09832
 C3438 C 1.09064 0.79001 1.09194
 C3439 C 1.05128 0.76888 1.09319
 N3440 N 1.03823 0.74884 1.09861
 N3441 N 1.04849 0.72927 1.10833
 C3442 C 1.07247 0.72846 1.11342
 H3443 H 1.12721 0.80371 1.08987
 H3444 H 1.14610 0.76830 1.10712
 H3445 H 1.04205 0.78368 1.08426
 H3446 H 1.07973 0.71145 1.11978
 C3447 C 1.11592 0.28910 0.59433
 C3448 C 1.12670 0.26863 0.60439
 C3449 C 1.11277 0.24889 0.61242
 C3450 C 1.08735 0.24914 0.60776
 C3451 C 1.07645 0.26993 0.59687
 C3452 C 1.09083 0.29044 0.59095
 C3453 C 1.05162 0.26903 0.59118
 N3454 N 1.03861 0.24884 0.59615
 N3455 N 1.04879 0.22927 0.60593
 C3456 C 1.07265 0.22860 0.61158
 H3457 H 1.12735 0.30437 0.58973
 H3458 H 1.14608 0.26906 0.60730
 H3459 H 1.04249 0.28383 0.58216
 H3460 H 1.07990 0.21159 0.61795
 C3461 C 0.61361 0.78996 0.59669
 C3462 C 0.62421 0.76935 0.60667
 C3463 C 0.61066 0.74829 0.61062
 C3464 C 0.58598 0.74777 0.60351
 C3465 C 0.57520 0.76877 0.59309
 C3466 C 0.58912 0.79016 0.59008
 C3467 C 0.55097 0.76734 0.58538
 N3468 N 0.53841 0.74644 0.58825
 N3469 N 0.54850 0.72679 0.59805
 C3470 C 0.57183 0.72669 0.60564
 H3471 H 0.62456 0.80610 0.59447
 H3472 H 0.64310 0.77006 0.61191
 H3473 H 0.54197 0.78247 0.57674
 H3474 H 0.57914 0.70999 0.61283
 C3475 C 0.61644 0.29270 1.10036
 C3476 C 0.62718 0.27271 1.11143
 C3477 C 0.61373 0.25183 1.11649
 C3478 C 0.58909 0.25074 1.10944
 C3479 C 0.57821 0.27099 1.09775
 C3480 C 0.59197 0.29233 1.09364
 C3481 C 0.55407 0.26885 1.08989
 N3482 N 0.54166 0.24806 1.09400
 N3483 N 0.55179 0.22918 1.10516
 C3484 C 0.57507 0.22975 1.11290
 H3485 H 0.62726 0.30879 1.09735
 H3486 H 0.64610 0.27369 1.11649
 H3487 H 0.54504 0.28329 1.08018
 H3488 H 0.58242 0.21365 1.12134
 C3489 C 1.22273 1.10358 0.91457
 C3490 C 1.24221 1.11509 0.90346
 C3491 C 1.24058 1.12329 0.87944
 C3492 C 1.21847 1.12073 0.86667
 C3493 C 1.19849 1.10927 0.87809
 C3494 C 1.20095 1.10012 0.90207
 C3495 C 1.17647 1.10800 0.86531
 N3496 N 1.17483 1.11723 0.84255
 N3497 N 1.19362 1.12783 0.83178
 C3498 C 1.21531 1.12999 0.84306
 H3499 H 1.22477 1.09699 0.93300
 H3500 H 1.25892 1.11711 0.91354
 H3501 H 1.16043 1.10012 0.87327
 H3502 H 1.22970 1.13928 0.83360
 C3503 C 1.22432 0.58714 0.40063
 C3504 C 1.24390 0.59794 0.38905
 C3505 C 1.24243 0.62181 0.38047
 C3506 C 1.22040 0.63482 0.38288
 C3507 C 1.20035 0.62373 0.39453
 C3508 C 1.20260 0.59982 0.40384
 C3509 C 1.17844 0.63674 0.39575
 N3510 N 1.17696 0.65938 0.38625
 N3511 N 1.19577 0.66979 0.37536
 C3512 C 1.21735 0.65827 0.37322
 H3513 H 1.22620 0.56877 0.40737
 H3514 H 1.26055 0.58771 0.38719
 H3515 H 1.16234 0.62907 0.40380
 H3516 H 1.23170 0.66743 0.36358
 C3517 C 0.72947 1.08302 0.40892
 C3518 C 0.74999 1.09350 0.39858
 C3519 C 0.74851 1.11578 0.38639
 C3520 C 0.72557 1.12709 0.38348
 C3521 C 0.70478 1.11656 0.39428
 C3522 C 0.70694 1.09455 0.40740
 C3523 C 0.68229 1.12817 0.39110
 N3524 N 0.68080 1.14877 0.37775
 N3525 N 0.70020 1.15842 0.36720
 C3526 C 0.72244 1.14824 0.36945
 H3527 H 0.73125 1.06598 0.41858
 H3528 H 0.76729 1.08447 0.40069
 H3529 H 0.66583 1.12093 0.39882
 H3530 H 0.73725 1.15654 0.35975
 C3531 C 0.70679 0.61720 0.90243
 C3532 C 0.72654 0.62821 0.89134
 C3533 C 0.74752 0.61495 0.88617
 C3534 C 0.74900 0.59026 0.89327
 C3535 C 0.72895 0.57909 0.90485
 C3536 C 0.70750 0.59264 0.90899
 C3537 C 0.73134 0.55486 0.91254
 N3538 N 0.75227 0.54266 0.90852
 N3539 N 0.77105 0.55311 0.89758
 C3540 C 0.77019 0.57648 0.88995
 H3541 H 0.69059 0.62786 0.90553
 H3542 H 0.72522 0.64714 0.88621
 H3543 H 0.71698 0.54557 0.92205
 H3544 H 0.78624 0.58408 0.88177
 C3545 C 1.20638 0.88233 1.10100
 C3546 C 1.22675 0.87165 1.11140
 C3547 C 1.24831 0.88470 1.11395
 C3548 C 1.24968 0.90872 1.10474
 C3549 C 1.22888 0.91962 1.09417
 C3550 C 1.20697 0.90637 1.09273
 C3551 C 1.23097 0.94324 1.08470
 N3552 N 1.25241 0.95507 1.08586
 N3553 N 1.27196 0.94481 1.09559
 C3554 C 1.27138 0.92206 1.10491
 H3555 H 1.18984 0.87188 1.09981
 H3556 H 1.22547 0.85321 1.11809
 H3557 H 1.21591 0.95231 1.07604
 H3558 H 1.28805 0.91452 1.11184
 C3559 C 1.20690 0.38420 0.60004
 C3560 C 1.22715 0.37363 0.61074
 C3561 C 1.24853 0.38686 0.61386
 C3562 C 1.24983 0.41101 0.60498
 C3563 C 1.22914 0.42178 0.59406
 C3564 C 1.20742 0.40831 0.59199
 C3565 C 1.23115 0.44554 0.58492
 N3566 N 1.25242 0.45761 0.58671
 N3567 N 1.27186 0.44747 0.59677
 C3568 C 1.27136 0.42459 0.60581
 H3569 H 1.19048 0.37361 0.59845
 H3570 H 1.22593 0.35510 0.61719
 H3571 H 1.21619 0.45452 0.57602
 H3572 H 1.28795 0.41718 0.61304
 C3573 C 0.70676 0.88397 0.59901
 C3574 C 0.72699 0.87355 0.60987
 C3575 C 0.74833 0.88685 0.61291
 C3576 C 0.74962 0.91091 0.60384
 C3577 C 0.72899 0.92151 0.59268
 C3578 C 0.70729 0.90798 0.59069
 C3579 C 0.73103 0.94515 0.58324
 N3580 N 0.75225 0.95729 0.58506
 N3581 N 0.77163 0.94734 0.59544
 C3582 C 0.77110 0.92457 0.60474
 H3583 H 0.69035 0.87335 0.59752
 H3584 H 0.72579 0.85508 0.61649
 H3585 H 0.71612 0.95397 0.57408
 H3586 H 0.78763 0.91730 0.61227
 C3587 C 0.71106 0.38907 1.09917
 C3588 C 0.73231 0.37901 1.10825
 C3589 C 0.75420 0.39186 1.10759
 C3590 C 0.75455 0.41538 1.09700
 C3591 C 0.73272 0.42574 1.08799
 C3592 C 0.71085 0.41240 1.08921
 C3593 C 0.73368 0.44890 1.07732
 N3594 N 0.75508 0.46075 1.07565
 N3595 N 0.77559 0.45093 1.08371
 C3596 C 0.77610 0.42864 1.09414
 H3597 H 0.69452 0.37859 1.10014
 H3598 H 0.73153 0.36104 1.11616
 H3599 H 0.71771 0.45757 1.06999
 H3600 H 0.79343 0.42144 1.09959
 C3601 C 0.79160 1.09759 1.11512
 C3602 C 0.77116 1.10800 1.12557
 C3603 C 0.75036 1.11231 1.11175
 C3604 C 0.74981 1.10514 1.08705
 C3605 C 0.77053 1.09417 1.07648
 C3606 C 0.79176 1.09084 1.09060
 C3607 C 0.76901 1.08626 1.05225
 N3608 N 0.74829 1.08959 1.03948
 N3609 N 0.72892 1.10003 1.04934
 C3610 C 0.72892 1.10780 1.07268
 H3611 H 0.80762 1.09513 1.12621
 H3612 H 0.77177 1.11324 1.14451
 H3613 H 0.78389 1.07712 1.04342
 H3614 H 0.71245 1.11560 1.07980
 C3615 C 0.77731 0.60345 0.58464
 C3616 C 0.75783 0.61491 0.59584
 C3617 C 0.75941 0.62264 0.61997
 C3618 C 0.78145 0.61971 0.63278
 C3619 C 0.80147 0.60843 0.62124
 C3620 C 0.79907 0.59963 0.59715
 C3621 C 0.82348 0.60698 0.63406
 N3622 N 0.82499 0.61572 0.65700
 N3623 N 0.80611 0.62601 0.66791
 C3624 C 0.78445 0.62838 0.65659
 H3625 H 0.77528 0.59714 0.56613
 H3626 H 0.74114 0.61724 0.58576
 H3627 H 0.83960 0.59936 0.62601
 H3628 H 0.76993 0.63734 0.66620
 C3629 C 0.27620 1.10416 0.58451
 C3630 C 0.25637 1.11520 0.59554
 C3631 C 0.25729 1.12207 0.61996
 C3632 C 0.27891 1.11862 0.63332
 C3633 C 0.29929 1.10783 0.62197
 C3634 C 0.29761 1.09993 0.59750
 C3635 C 0.32089 1.10591 0.63541
 N3636 N 0.32164 1.11366 0.65874
 N3637 N 0.30237 1.12339 0.66949
 C3638 C 0.28107 1.12619 0.65759
 H3639 H 0.27470 1.09851 0.56574
 H3640 H 0.23998 1.11793 0.58509
 H3641 H 0.33729 1.09868 0.62755
 H3642 H 0.26614 1.13457 0.66712
 C3643 C 0.29232 0.59947 1.11695
 C3644 C 0.27213 0.61030 1.12749
 C3645 C 0.25179 0.61607 1.11351
 C3646 C 0.25141 0.60999 1.08854
 C3647 C 0.27177 0.59843 1.07788
 C3648 C 0.29266 0.59367 1.09217
 C3649 C 0.27019 0.59139 1.05339
 N3650 N 0.24989 0.59628 1.04044
 N3651 N 0.23097 0.60749 1.05034
 C3652 C 0.23099 0.61442 1.07394
 H3653 H 0.30801 0.59594 1.12821
 H3654 H 0.27254 0.61463 1.14666
 H3655 H 0.28467 0.58169 1.04449
 H3656 H 0.21492 0.62303 1.08109
 C3657 C 0.79200 0.88529 0.90394
 C3658 C 0.77170 0.87495 0.89320
 C3659 C 0.75073 0.88865 0.88920
 C3660 C 0.74985 0.91308 0.89718
 C3661 C 0.77049 0.92358 0.90831
 C3662 C 0.79188 0.90962 0.91123
 C3663 C 0.76877 0.94758 0.91678
 N3664 N 0.74787 0.96017 0.91399
 N3665 N 0.72851 0.95034 0.90355
 C3666 C 0.72873 0.92724 0.89518
 H3667 H 0.80814 0.87433 0.90612
 H3668 H 0.77259 0.85620 0.88742
 H3669 H 0.78365 0.95635 0.92595
 H3670 H 0.71223 0.92012 0.88750
 C3671 C 0.77608 0.41832 0.39997
 C3672 C 0.75578 0.40758 0.38964
 C3673 C 0.75620 0.38326 0.38242
 C3674 C 0.77793 0.36973 0.38470
 C3675 C 0.79873 0.38076 0.39497
 C3676 C 0.79750 0.40512 0.40319
 C3677 C 0.82032 0.36718 0.39599
 N3678 N 0.82078 0.34407 0.38767
 N3679 N 0.80124 0.33370 0.37815
 C3680 C 0.77991 0.34574 0.37625
 H3681 H 0.77495 0.43701 0.40589
 H3682 H 0.73938 0.41822 0.38775
 H3683 H 0.83695 0.37478 0.40291
 H3684 H 0.76491 0.33653 0.36775
 C3685 C 0.27392 0.90988 0.40810
 C3686 C 0.25413 0.89865 0.39724
 C3687 C 0.25744 0.88029 0.38001
 C3688 C 0.28119 0.87347 0.37317
 C3689 C 0.30133 0.88509 0.38404
 C3690 C 0.29753 0.90327 0.40177
 C3691 C 0.32469 0.87830 0.37654
 N3692 N 0.32751 0.86115 0.35916
 N3693 N 0.30860 0.85028 0.34890
 C3694 C 0.28556 0.85582 0.35532
 H3695 H 0.27081 0.92385 0.42156
 H3696 H 0.23604 0.90420 0.40245
 H3697 H 0.34070 0.88657 0.38421
 H3698 H 0.27090 0.84653 0.34626
 C3699 C 0.29175 0.40363 0.88525
 C3700 C 0.27164 0.39258 0.87487
 C3701 C 0.25097 0.38773 0.88872
 C3702 C 0.25015 0.39517 0.91333
 C3703 C 0.27055 0.40674 0.92384
 C3704 C 0.29171 0.41049 0.90973
 C3705 C 0.26878 0.41482 0.94799
 N3706 N 0.24813 0.41115 0.96075
 N3707 N 0.22905 0.40018 0.95094
 C3708 C 0.22930 0.39219 0.92768
 H3709 H 0.30770 0.40641 0.87416
 H3710 H 0.27244 0.38723 0.85597
 H3711 H 0.28341 0.42439 0.95676
 H3712 H 0.21304 0.38399 0.92059
   
