data_POSCAR
  _audit_creation_date              2014-09-24
  _audit_creation_method            'ToBaCCo'
  _symmetry_space_group_name_H-M    'P1'
  _symmetry_Int_Tables_number       1
  _symmetry_cell_setting            triclinic
  loop_
  _symmetry_equiv_pos_as_xyz
 x,y,z
_cell_length_a 59.7857
_cell_length_b 59.8516
_cell_length_c 60.1330
_cell_angle_alpha 90.265200
_cell_angle_beta 86.363700
_cell_angle_gamma 90.253500
loop_
  _atom_site_label
  _atom_site_type_symbol
  _atom_site_fract_x
  _atom_site_fract_y
  _atom_site_fract_z
C1 C 0.12551 -0.00511 0.24850
 C2 C 0.37116 -0.00230 0.76596
 C3 C 0.87617 0.50168 0.25386
 C4 C 0.62810 0.49419 0.73634
 C5 C 0.25288 0.11917 1.00259
 C6 C 0.74643 0.37479 1.00183
 C7 C 0.24021 0.87342 0.49957
 C8 C 0.75623 0.62453 0.49525
 C9 C 0.01212 0.25585 0.12206
 C10 C -0.00107 0.74980 0.37643
 C11 C 0.49658 0.25182 0.87641
 C12 C 0.49525 0.74832 0.63082
 C13 C 0.87706 0.99335 0.76232
 C14 C 0.37824 0.49643 0.24996
 C15 C 0.62103 1.00049 0.24974
 C16 C 0.12377 0.49811 0.73780
 C17 C 0.75154 0.87147 -0.00489
 C18 C 0.25524 0.36680 0.50470
 C19 C 0.24878 0.62466 -0.00103
 C20 C 0.74237 0.12882 0.50228
 C21 C 0.97861 0.75366 0.87919
 C22 C 0.49682 0.24669 0.37815
 C23 C 1.01095 0.25190 0.62611
 C24 C 0.51392 0.75323 0.12590
 O25 O 0.05276 1.03959 1.00201
 O26 O 0.03554 1.04758 0.96810
 O27 O -0.00273 1.05037 1.05052
 O28 O -0.03739 1.03681 1.05713
 O29 O 0.03903 0.99255 1.05503
 O30 O 0.04115 0.95757 1.03518
 O31 O -0.06437 0.99580 0.99339
 O32 O -0.06216 1.03302 1.00750
 O33 O -0.01223 0.99003 0.94391
 O34 O 0.02872 0.99838 0.94270
 O35 O -0.02029 0.94082 0.99292
 O36 O -0.01144 0.93816 1.03203
 O37 O -0.05417 0.96336 1.00928
 O38 O -0.03747 0.95564 1.04501
 O39 O -0.00048 0.95389 0.96221
 O40 O 0.03738 0.96967 0.95650
 O41 O -0.04195 1.00976 0.95873
 O42 O -0.04433 1.04538 0.97695
 O43 O 0.06245 1.00742 1.01885
 O44 O 0.05973 0.96944 1.00693
 O45 O 0.00924 1.01246 1.06949
 O46 O -0.03048 1.00335 1.06969
 O47 O 0.01799 1.06298 1.02011
 O48 O 0.00845 1.06574 0.98221
 Zr49 Zr 0.01826 1.03596 0.99760
 O50 O -0.00279 1.01921 0.97620
 Zr51 Zr -0.01090 1.01725 1.04255
 O52 O -0.03327 0.99968 1.02313
 Zr53 Zr 0.03273 0.98850 1.02114
 O54 O 0.01240 0.96965 1.00070
 Zr55 Zr -0.03489 1.01518 0.99206
 O56 O -0.01458 1.03448 1.01251
 Zr57 Zr 0.00877 0.98652 0.97057
 O58 O 0.03147 1.00412 0.98991
 Zr59 Zr -0.02029 0.96773 1.01559
 O60 O 0.00080 0.98441 1.03736
 O61 O 0.02144 1.02066 1.02816
 O62 O -0.02375 0.98282 0.98482
 C63 C 0.06712 1.02672 1.01049
 C64 C 0.00870 1.06557 1.03981
 C65 C 0.02788 1.00224 1.07132
 C66 C -0.06864 0.97602 1.00079
 C67 C -0.03127 0.99964 0.94247
 C68 C -0.01153 0.93852 0.97297
 H69 H -0.00320 1.02758 0.96212
 H70 H 0.01913 0.95471 0.99828
 H71 H 0.03150 1.02904 1.03769
 H72 H -0.04821 0.99901 1.03115
 H73 H -0.05572 1.04530 1.01621
 H74 H -0.05135 1.03192 1.05053
 H75 H 0.04058 0.95713 0.96645
 H76 H 0.06327 0.97551 0.99182
 H77 H -0.03189 1.05019 0.96643
 H78 H -0.00677 1.06928 0.98869
 H79 H 0.00294 0.93284 1.02489
 H80 H 0.02846 0.95340 1.04575
 H81 H 0.04453 1.03487 0.96196
 H82 H 0.02235 1.01272 0.93804
 H83 H -0.02453 0.98821 1.07220
 H84 H -0.04908 0.96669 1.04980
 O85 O 0.48880 0.49220 0.43116
 O86 O 0.52790 0.50174 0.42848
 O87 O 0.48813 0.44028 0.48170
 O88 O 0.49736 0.43759 0.51683
 O89 O 0.43776 0.49270 0.48609
 O90 O 0.43886 0.53134 0.49680
 O91 O 0.54563 0.49840 0.53946
 O92 O 0.54759 0.46264 0.52080
 O93 O 0.55256 0.54529 0.48715
 O94 O 0.53180 0.55079 0.45229
 O95 O 0.49929 0.55233 0.53694
 O96 O 0.46315 0.53236 0.54477
 O97 O 0.51544 0.51680 0.55513
 O98 O 0.47635 0.50642 0.55945
 O99 O 0.51712 0.56604 0.50543
 O100 O 0.50715 0.56807 0.46811
 O101 O 0.56556 0.51384 0.50279
 O102 O 0.56660 0.47696 0.49185
 O103 O 0.45798 0.50873 0.44792
 O104 O 0.45402 0.54335 0.46719
 O105 O 0.45160 0.46114 0.50080
 O106 O 0.47080 0.45688 0.53457
 O107 O 0.50410 0.45467 0.44956
 O108 O 0.53936 0.47258 0.44210
 Zr109 Zr 0.51058 0.48830 0.45715
 O110 O 0.53276 0.50759 0.47524
 Zr111 Zr 0.48580 0.46784 0.50364
 O112 O 0.50668 0.48658 0.52374
 Zr113 Zr 0.46610 0.51370 0.48107
 O114 O 0.48640 0.53444 0.49981
 Zr115 Zr 0.53748 0.49279 0.50625
 O116 O 0.51759 0.47184 0.48685
 Zr117 Zr 0.51823 0.53866 0.48333
 O118 O 0.49683 0.52024 0.46310
 Zr119 Zr 0.49295 0.51851 0.52973
 O120 O 0.47058 0.49868 0.51200
 O121 O 0.47938 0.48240 0.47338
 O122 O 0.52453 0.52446 0.51398
 C123 C 0.46908 0.50067 0.43074
 C124 C 0.49588 0.43836 0.46133
 C125 C 0.43537 0.47296 0.49432
 C126 C 0.53488 0.50795 0.55610
 C127 C 0.56839 0.53347 0.49457
 C128 C 0.50841 0.56834 0.52537
 H129 H 0.54702 0.50927 0.46616
 H130 H 0.47860 0.54883 0.50240
 H131 H 0.46945 0.47313 0.46447
 H132 H 0.50875 0.47840 0.53770
 H133 H 0.54239 0.45026 0.51140
 H134 H 0.50851 0.44146 0.52770
 H135 H 0.49152 0.57071 0.47388
 H136 H 0.46590 0.54866 0.45623
 H137 H 0.56764 0.48039 0.47576
 H138 H 0.54440 0.46165 0.45302
 H139 H 0.45894 0.54519 0.53562
 H140 H 0.43623 0.52492 0.51188
 H141 H 0.52206 0.51702 0.42666
 H142 H 0.54497 0.54154 0.44764
 H143 H 0.46021 0.46867 0.53997
 H144 H 0.48240 0.49145 0.56238
 O145 O 0.44198 -0.04405 0.50453
 O146 O 0.46204 -0.05039 0.46932
 O147 O 0.49645 -0.05082 0.54887
 O148 O 0.52662 -0.03266 0.55718
 O149 O 0.44792 0.00572 0.55624
 O150 O 0.44440 0.03924 0.53578
 O151 O 0.55683 0.00781 0.49116
 O152 O 0.55584 -0.02913 0.50461
 O153 O 0.50821 0.00866 0.44269
 O154 O 0.46786 -0.00165 0.44352
 O155 O 0.50884 0.05984 0.49100
 O156 O 0.49608 0.06233 0.53074
 O157 O 0.54296 0.03984 0.50688
 O158 O 0.52228 0.04722 0.54274
 O159 O 0.49306 0.04480 0.46098
 O160 O 0.45665 0.02693 0.45715
 O161 O 0.53854 -0.00742 0.45679
 O162 O 0.54129 -0.04314 0.47519
 O163 O 0.42834 -0.01214 0.52076
 O164 O 0.42948 0.02559 0.50856
 O165 O 0.47718 -0.01298 0.56953
 O166 O 0.51638 -0.00056 0.56804
 O167 O 0.47874 -0.06494 0.51955
 O168 O 0.48901 -0.06666 0.48142
 Zr169 Zr 0.47648 -0.03768 0.49802
 O170 O 0.49830 -0.01978 0.47572
 Zr171 Zr 0.50027 -0.01650 0.54186
 O172 O 0.52310 0.00241 0.52144
 Zr173 Zr 0.45658 0.00877 0.52191
 O174 O 0.47742 0.02883 0.50053
 Zr175 Zr 0.52868 -0.01325 0.49033
 O176 O 0.50788 -0.03357 0.51162
 Zr177 Zr 0.48493 0.01191 0.47030
 O178 O 0.46175 -0.00698 0.49065
 Zr179 Zr 0.50866 0.03333 0.51408
 O180 O 0.48681 0.01539 0.53677
 O181 O 0.46939 -0.02257 0.52889
 O182 O 0.51596 0.01814 0.48322
 C183 C 0.42580 -0.03193 0.51290
 C184 C 0.48818 -0.06715 0.53800
 C185 C 0.45823 -0.00294 0.57220
 C186 C 0.55916 0.02785 0.49843
 C187 C 0.52822 0.00082 0.44067
 C188 C 0.50199 0.06111 0.47120
 H189 H 0.50052 -0.02833 0.46167
 H190 H 0.46990 0.04323 0.49824
 H191 H 0.45939 -0.03180 0.53893
 H192 H 0.53721 0.00415 0.52901
 H193 H 0.54945 -0.04148 0.51394
 H194 H 0.54067 -0.02895 0.54839
 H195 H 0.45170 0.03928 0.46724
 H196 H 0.42798 0.01933 0.49346
 H197 H 0.53141 -0.04760 0.46335
 H198 H 0.50472 -0.06827 0.48546
 H199 H 0.48240 0.06696 0.52359
 H200 H 0.45616 0.04507 0.54515
 H201 H 0.45215 -0.03855 0.46409
 H202 H 0.47517 -0.01591 0.43903
 H203 H 0.50871 0.01388 0.57098
 H204 H 0.53371 0.03674 0.54766
 O205 O -0.05405 0.46165 0.99802
 O206 O -0.03683 0.45428 0.96239
 O207 O 0.00293 0.45569 1.03897
 O208 O 0.03473 0.47265 1.04384
 O209 O -0.04498 0.50939 1.04884
 O210 O -0.04892 0.54431 1.03057
 O211 O 0.05989 0.51272 0.97490
 O212 O 0.06034 0.47619 0.98747
 O213 O 0.00626 0.51469 0.93173
 O214 O -0.03286 0.50606 0.93511
 O215 O 0.01308 0.56505 0.98038
 O216 O 0.00483 0.56912 1.01826
 O217 O 0.04804 0.54435 0.99290
 O218 O 0.02869 0.55051 1.03167
 O219 O -0.00638 0.55127 0.95213
 O220 O -0.04430 0.53262 0.95224
 O221 O 0.03764 0.49754 0.94230
 O222 O 0.04173 0.46157 0.96117
 O223 O -0.06666 0.49379 1.01459
 O224 O -0.06552 0.53240 1.00339
 O225 O -0.01355 0.49275 1.06005
 O226 O 0.02635 0.50542 1.05474
 O227 O -0.01667 0.44083 1.01129
 O228 O -0.00788 0.43914 0.97179
 Zr229 Zr -0.01997 0.46783 0.98925
 O230 O -0.00050 0.48604 0.96519
 Zr231 Zr 0.00742 0.48930 1.03069
 O232 O 0.02890 0.50744 1.00828
 Zr233 Zr -0.03803 0.51442 1.01453
 O234 O -0.01855 0.53461 0.99211
 Zr235 Zr 0.03139 0.49203 0.97675
 O236 O 0.01259 0.47196 1.00014
 Zr237 Zr -0.01401 0.51803 0.96135
 O238 O -0.03537 0.49863 0.98313
 Zr239 Zr 0.01408 0.53845 1.00275
 O240 O -0.00653 0.52109 1.02697
 O241 O -0.02452 0.48317 1.02023
 O242 O 0.01838 0.52368 0.97128
 C243 C -0.06972 0.47393 1.00708
 C244 C -0.00660 0.43928 1.02951
 C245 C -0.03326 0.50096 1.06387
 C246 C 0.06328 0.53240 0.98263
 C247 C 0.02570 0.50611 0.92748
 C248 C 0.00411 0.56706 0.96170
 H249 H 0.00021 0.47759 0.95101
 H250 H -0.02603 0.54918 0.99073
 H251 H -0.03392 0.47392 1.03079
 H252 H 0.04374 0.50889 1.01454
 H253 H 0.05510 0.46459 0.99830
 H254 H 0.04796 0.47539 1.03349
 H255 H -0.04673 0.54650 0.96105
 H256 H -0.06902 0.52575 0.98891
 H257 H 0.03096 0.45757 0.94997
 H258 H 0.00751 0.43659 0.97637
 H259 H -0.01157 0.57057 1.01754
 H260 H -0.03663 0.54930 1.03973
 H261 H -0.04642 0.46634 0.95708
 H262 H -0.02812 0.49051 0.93185
 H263 H 0.01794 0.51889 1.05987
 H264 H 0.04261 0.54199 1.03341
 O265 O 0.01742 0.43206 0.50004
 O266 O 0.00651 0.43325 0.46291
 O267 O 0.06976 0.48152 0.49960
 O268 O 0.07345 0.51769 0.49159
 O269 O 0.01816 0.48130 0.55359
 O270 O -0.01977 0.49196 0.55686
 O271 O 0.01242 0.54627 0.44998
 O272 O 0.04632 0.52756 0.44264
 O273 O -0.03779 0.49672 0.44651
 O274 O -0.04393 0.45971 0.46413
 O275 O -0.04069 0.54095 0.49977
 O276 O -0.02093 0.54472 0.53417
 O277 O -0.00459 0.55960 0.48217
 O278 O 0.00703 0.55862 0.52087
 O279 O -0.05619 0.51094 0.48333
 O280 O -0.05796 0.47097 0.49305
 O281 O -0.00613 0.51257 0.43054
 O282 O 0.03196 0.49921 0.42582
 O283 O 0.00148 0.44526 0.53279
 O284 O -0.03346 0.46493 0.54048
 O285 O 0.04996 0.49717 0.53801
 O286 O 0.05474 0.53341 0.51970
 O287 O 0.05454 0.45157 0.48266
 O288 O 0.03524 0.44908 0.44866
 Zr289 Zr 0.02080 0.46039 0.47968
 O290 O 0.00081 0.48091 0.46077
 Zr291 Zr 0.04283 0.50386 0.50484
 O292 O 0.02423 0.52635 0.48655
 Zr293 Zr -0.00331 0.47963 0.52719
 O294 O -0.02398 0.50141 0.51037
 Zr295 Zr 0.01658 0.51207 0.45595
 O296 O 0.03787 0.49066 0.47292
 Zr297 Zr -0.02955 0.48815 0.47881
 O298 O -0.01079 0.46509 0.49661
 Zr299 Zr -0.00717 0.53175 0.50349
 O300 O 0.01243 0.51100 0.52301
 O301 O 0.02761 0.47306 0.51082
 O302 O -0.01444 0.51917 0.47237
 C303 C 0.00944 0.42937 0.52018
 C304 C 0.07113 0.46194 0.49070
 C305 C 0.03818 0.48896 0.55468
 C306 C 0.00406 0.56218 0.46223
 C307 C -0.02655 0.50584 0.43003
 C308 C -0.05736 0.53065 0.49185
 H309 H -0.00178 0.47338 0.44651
 H310 H -0.03813 0.50363 0.51951
 H311 H 0.03690 0.46297 0.51938
 H312 H 0.03293 0.54033 0.48432
 H313 H 0.05900 0.51847 0.44733
 H314 H 0.06974 0.52924 0.48072
 H315 H -0.06192 0.47776 0.50779
 H316 H -0.03864 0.45465 0.52891
 H317 H 0.02455 0.48494 0.42230
 H318 H 0.04638 0.46052 0.44350
 H319 H -0.03343 0.53482 0.53945
 H320 H -0.01432 0.50745 0.55873
 H321 H -0.00917 0.43189 0.46914
 H322 H -0.03436 0.45557 0.45074
 H323 H 0.04377 0.53739 0.53209
 H324 H 0.02118 0.56298 0.51258
 O325 O 0.52205 0.94124 0.01335
 O326 O 0.50920 0.93977 -0.02349
 O327 O 0.57057 0.99558 0.00634
 O328 O 0.57064 1.03157 -0.00133
 O329 O 0.52176 0.99272 0.06368
 O330 O 0.48290 1.00142 0.06849
 O331 O 0.50545 1.05240 -0.04111
 O332 O 0.54118 1.03595 -0.04893
 O333 O 0.45987 0.99828 -0.04073
 O334 O 0.45767 0.96168 -0.02115
 O335 O 0.45518 1.04464 0.01107
 O336 O 0.47643 1.05150 0.04446
 O337 O 0.48802 1.06531 -0.00892
 O338 O 0.50202 1.06775 0.02869
 O339 O 0.44177 1.01276 -0.00386
 O340 O 0.44326 0.97362 0.00730
 O341 O 0.48912 1.01676 -0.05832
 O342 O 0.52770 1.00637 -0.06469
 O343 O 0.50669 0.95525 0.04603
 O344 O 0.47080 0.97208 0.05446
 O345 O 0.55155 1.01035 0.04610
 O346 O 0.55188 1.04631 0.02681
 O347 O 0.55692 0.96331 -0.00769
 O348 O 0.53616 0.95638 -0.03949
 Zr349 Zr 0.52230 0.96869 -0.00863
 O350 O 0.50011 0.98672 -0.02753
 Zr351 Zr 0.54195 1.01528 0.01339
 O352 O 0.52064 1.03530 -0.00465
 Zr353 Zr 0.49894 0.98850 0.03886
 O354 O 0.47565 1.00736 0.02216
 Zr355 Zr 0.51295 1.01894 -0.03416
 O356 O 0.53650 0.99997 -0.01748
 Zr357 Zr 0.46998 0.99212 -0.00850
 O358 O 0.49120 0.97169 0.00951
 Zr359 Zr 0.48957 1.03864 0.01350
 O360 O 0.51189 1.02075 0.03275
 O361 O 0.52965 0.98360 0.02134
 O362 O 0.48211 1.02398 -0.01666
 C363 C 0.51521 0.93927 0.03399
 C364 C 0.57311 0.97586 -0.00198
 C365 C 0.54128 1.00179 0.06348
 C366 C 0.49555 1.06777 -0.02924
 C367 C 0.46944 1.00800 -0.05783
 C368 C 0.43920 1.03260 0.00406
 H369 H 0.49757 0.97836 -0.04134
 H370 H 0.46173 1.00875 0.03182
 H371 H 0.54030 0.97470 0.02958
 H372 H 0.52796 1.04988 -0.00782
 H373 H 0.55461 1.02764 -0.04488
 H374 H 0.56548 1.04190 -0.01270
 H375 H 0.43978 0.98033 0.02217
 H376 H 0.46558 0.96112 0.04352
 H377 H 0.52167 0.99122 -0.06714
 H378 H 0.54509 0.96876 -0.04645
 H379 H 0.46467 1.04107 0.05041
 H380 H 0.48814 1.01705 0.06986
 H381 H 0.49423 0.93713 -0.01596
 H382 H 0.46677 0.95793 -0.03496
 H383 H 0.54110 1.04979 0.03952
 H384 H 0.51554 1.07271 0.01970
 O385 O 0.55083 0.46341 -0.01106
 O386 O 0.53257 0.45665 0.02437
 O387 O 0.49389 0.46074 -0.05278
 O388 O 0.46334 0.47976 -0.05754
 O389 O 0.54479 0.51346 -0.06117
 O390 O 0.55119 0.54697 -0.04119
 O391 O 0.44000 0.52062 0.01166
 O392 O 0.43750 0.48430 -0.00250
 O393 O 0.49248 0.51840 0.05576
 O394 O 0.53131 0.50701 0.05257
 O395 O 0.49049 0.57004 0.00843
 O396 O 0.50014 0.57331 -0.03092
 O397 O 0.45440 0.55199 -0.00491
 O398 O 0.47345 0.55824 -0.04268
 O399 O 0.50898 0.55461 0.03637
 O400 O 0.54458 0.53352 0.03703
 O401 O 0.46061 0.50263 0.04412
 O402 O 0.45400 0.46828 0.02435
 O403 O 0.56545 0.49488 -0.02730
 O404 O 0.56699 0.53287 -0.01482
 O405 O 0.51306 0.49768 -0.07311
 O406 O 0.47436 0.51216 -0.06820
 O407 O 0.51258 0.44492 -0.02517
 O408 O 0.50321 0.44287 0.01392
 Zr409 Zr 0.51708 0.47131 -0.00261
 O410 O 0.49823 0.49004 0.02153
 Zr411 Zr 0.49162 0.49469 -0.04401
 O412 O 0.47115 0.51396 -0.02151
 Zr413 Zr 0.53824 0.51716 -0.02658
 O414 O 0.51991 0.53793 -0.00374
 Zr415 Zr 0.46703 0.49814 0.00958
 O416 O 0.48498 0.47731 -0.01382
 Zr417 Zr 0.51373 0.52105 0.02658
 O418 O 0.53421 0.50107 0.00446
 Zr419 Zr 0.48783 0.54398 -0.01479
 O420 O 0.50738 0.52566 -0.03918
 O421 O 0.52301 0.48678 -0.03330
 O422 O 0.48198 0.52884 0.01625
 C423 C 0.56727 0.47486 -0.01998
 C424 C 0.50241 0.44382 -0.04336
 C425 C 0.53289 0.50589 -0.07662
 C426 C 0.43820 0.54079 0.00479
 C427 C 0.47266 0.51029 0.05943
 C428 C 0.49968 0.57118 0.02712
 H429 H 0.49667 0.48130 0.03544
 H430 H 0.52842 0.55193 -0.00186
 H431 H 0.53195 0.47732 -0.04407
 H432 H 0.45653 0.51648 -0.02788
 H433 H 0.44227 0.47232 -0.01316
 H434 H 0.45007 0.48412 -0.04787
 H435 H 0.54894 0.54655 0.02764
 H436 H 0.56968 0.52584 -0.00036
 H437 H 0.46494 0.46258 0.03458
 H438 H 0.48771 0.44126 0.00921
 H439 H 0.51554 0.57594 -0.02636
 H440 H 0.53909 0.55336 -0.04966
 H441 H 0.54294 0.46804 0.02990
 H442 H 0.52478 0.49210 0.05591
 H443 H 0.48309 0.52589 -0.07188
 H444 H 0.46001 0.54934 -0.04579
 O445 O -0.07185 0.01648 0.51401
 O446 O -0.07344 -0.02163 0.50403
 O447 O -0.02189 0.01515 0.56344
 O448 O 0.01368 0.00644 0.56487
 O449 O -0.01964 0.06623 0.51194
 O450 O -0.00735 0.06650 0.47400
 O451 O 0.03837 -0.04313 0.50120
 O452 O 0.02018 -0.04616 0.53695
 O453 O -0.01175 -0.04577 0.45617
 O454 O -0.04582 -0.02628 0.45089
 O455 O 0.03731 0.00467 0.45023
 O456 O 0.04393 0.03955 0.46953
 O457 O 0.05459 -0.01264 0.48451
 O458 O 0.05632 0.02713 0.49688
 O459 O 0.00615 -0.01071 0.43669
 O460 O -0.03384 0.00222 0.43795
 O461 O 0.00332 -0.06079 0.48640
 O462 O -0.01035 -0.06156 0.52537
 O463 O -0.05609 0.04700 0.49691
 O464 O -0.03517 0.05099 0.46133
 O465 O -0.00397 0.05204 0.54225
 O466 O 0.03133 0.03106 0.54470
 O467 O -0.05342 0.00010 0.55021
 O468 O -0.05857 -0.03504 0.53130
 Zr469 Zr -0.04496 -0.00576 0.51614
 O470 O -0.02585 -0.02754 0.49507
 Zr471 Zr 0.00048 0.01772 0.53513
 O472 O 0.02163 -0.00373 0.51549
 Zr473 Zr -0.02212 0.03860 0.49072
 O474 O -0.00142 0.01884 0.46908
 Zr475 Zr 0.00497 -0.03372 0.50873
 O476 O -0.01511 -0.01363 0.53113
 Zr477 Zr -0.01716 -0.01207 0.46443
 O478 O -0.03902 0.00859 0.48438
 Zr479 Zr 0.02838 0.01080 0.48403
 O480 O 0.00894 0.03332 0.50447
 O481 O -0.02996 0.02492 0.52196
 O482 O 0.01335 -0.01984 0.47751
 C483 C -0.07300 0.03615 0.50569
 C484 C -0.04212 0.00780 0.56610
 C485 C -0.01161 0.06834 0.53111
 C486 C 0.05531 -0.03272 0.49194
 C487 C -0.00394 -0.06227 0.46679
 C488 C 0.02638 -0.00335 0.43429
 H489 H -0.03452 -0.04140 0.49302
 H490 H 0.00149 0.02698 0.45492
 H491 H -0.03955 0.03475 0.53178
 H492 H 0.03544 -0.00664 0.52321
 H493 H 0.01165 -0.04000 0.55022
 H494 H 0.02340 -0.00647 0.56087
 H495 H -0.02497 0.01528 0.43244
 H496 H -0.04659 0.04009 0.45691
 H497 H -0.02461 -0.06489 0.51856
 H498 H -0.04753 -0.04030 0.54168
 H499 H 0.03391 0.04547 0.45851
 H500 H 0.00804 0.06787 0.47905
 H501 H -0.07451 -0.01639 0.48854
 H502 H -0.05277 -0.03667 0.46207
 H503 H 0.03584 0.04291 0.53387
 H504 H 0.06050 0.01880 0.51016
 O505 O 0.80360 0.24906 0.20430
 O506 O 0.78522 0.21477 0.19746
 O507 O 0.74790 0.29514 0.20584
 O508 O 0.71645 0.30098 0.22602
 O509 O 0.79724 0.29865 0.25607
 O510 O 0.80311 0.27750 0.28831
 O511 O 0.69203 0.23232 0.26670
 O512 O 0.68987 0.24716 0.23107
 O513 O 0.74435 0.18481 0.26038
 O514 O 0.78328 0.18568 0.24709
 O515 O 0.74187 0.23173 0.31310
 O516 O 0.75172 0.27101 0.31652
 O517 O 0.70615 0.24729 0.29765
 O518 O 0.72464 0.28396 0.30379
 O519 O 0.75948 0.20229 0.29585
 O520 O 0.79612 0.20014 0.27335
 O521 O 0.71247 0.19875 0.24734
 O522 O 0.70688 0.21971 0.21323
 O523 O 0.81783 0.26384 0.23529
 O524 O 0.81875 0.25019 0.27262
 O525 O 0.76583 0.31327 0.24265
 O526 O 0.72667 0.31055 0.25825
 O527 O 0.76600 0.26610 0.18829
 O528 O 0.75606 0.22751 0.18571
 Zr529 Zr 0.76973 0.24260 0.21370
 O530 O 0.75051 0.21919 0.23272
 Zr531 Zr 0.74430 0.28550 0.23943
 O532 O 0.72337 0.26386 0.25909
 Zr533 Zr 0.79037 0.26436 0.25894
 O534 O 0.77159 0.24234 0.28001
 Zr535 Zr 0.71929 0.23311 0.24280
 O536 O 0.73765 0.25590 0.22172
 Zr537 Zr 0.76555 0.21267 0.26262
 O538 O 0.78642 0.23382 0.24218
 Zr539 Zr 0.73955 0.25557 0.28791
 O540 O 0.75953 0.27905 0.26930
 O541 O 0.77568 0.27273 0.22968
 O542 O 0.73381 0.22504 0.27234
 C543 C 0.81988 0.25679 0.21505
 C544 C 0.75651 0.28533 0.18828
 C545 C 0.78555 0.31520 0.24992
 C546 C 0.69010 0.23872 0.28716
 C547 C 0.72442 0.18251 0.25392
 C548 C 0.75031 0.21206 0.31316
 H549 H 0.74899 0.20545 0.22378
 H550 H 0.77984 0.23964 0.29346
 H551 H 0.78489 0.28318 0.22018
 H552 H 0.70873 0.27112 0.26256
 H553 H 0.69476 0.25791 0.21925
 H554 H 0.70304 0.29214 0.23092
 H555 H 0.79979 0.20855 0.28685
 H556 H 0.82141 0.23565 0.26503
 H557 H 0.71737 0.20809 0.20729
 H558 H 0.74060 0.23326 0.18520
 H559 H 0.76663 0.26464 0.31882
 H560 H 0.79098 0.28660 0.29569
 H561 H 0.79543 0.20833 0.20805
 H562 H 0.77704 0.18302 0.23246
 H563 H 0.73489 0.31322 0.27181
 H564 H 0.71148 0.28815 0.29556
 O565 O 0.75132 0.70881 0.69325
 O566 O 0.78517 0.70390 0.71060
 O567 O 0.70247 0.69523 0.74779
 O568 O 0.69457 0.70902 0.78195
 O569 O 0.69343 0.75200 0.70540
 O570 O 0.71036 0.78743 0.70146
 O571 O 0.75581 0.75703 0.80788
 O572 O 0.74441 0.71923 0.80766
 O573 O 0.80410 0.76528 0.75610
 O574 O 0.80647 0.75705 0.71612
 O575 O 0.75045 0.81008 0.76389
 O576 O 0.71084 0.80874 0.75430
 O577 O 0.73577 0.78708 0.79772
 O578 O 0.69935 0.79083 0.78063
 O579 O 0.78254 0.79955 0.74454
 O580 O 0.78907 0.78322 0.70633
 O581 O 0.79097 0.74533 0.78623
 O582 O 0.77506 0.70752 0.78888
 O583 O 0.73214 0.73908 0.68217
 O584 O 0.74007 0.77827 0.68452
 O585 O 0.68043 0.73109 0.73499
 O586 O 0.67916 0.74118 0.77435
 O587 O 0.73479 0.68459 0.72877
 O588 O 0.77310 0.68628 0.73829
 Zr589 Zr 0.75467 0.71379 0.72741
 O590 O 0.77449 0.73333 0.74770
 Zr591 Zr 0.70766 0.72914 0.75533
 O592 O 0.72543 0.74902 0.77738
 Zr593 Zr 0.72712 0.75848 0.71142
 O594 O 0.74537 0.77993 0.73149
 Zr595 Zr 0.75803 0.73667 0.77940
 O596 O 0.73924 0.71493 0.75983
 Zr597 Zr 0.77707 0.76611 0.73547
 O598 O 0.75968 0.74577 0.71344
 Zr599 Zr 0.73009 0.78123 0.76395
 O600 O 0.71019 0.76199 0.74301
 O601 O 0.72272 0.72609 0.72332
 O602 O 0.76228 0.76922 0.76765
 C603 C 0.74266 0.72062 0.67825
 C604 C 0.71502 0.68057 0.73757
 C605 C 0.67784 0.74129 0.71659
 C606 C 0.74640 0.77598 0.81191
 C607 C 0.80639 0.75640 0.77521
 C608 C 0.77037 0.81403 0.75545
 H609 H 0.78936 0.72633 0.74829
 H610 H 0.74644 0.79487 0.72457
 H611 H 0.71407 0.71660 0.71338
 H612 H 0.71735 0.74933 0.79224
 H613 H 0.73602 0.70630 0.80203
 H614 H 0.70060 0.71487 0.79578
 H615 H 0.77889 0.79587 0.70405
 H616 H 0.75576 0.77347 0.68121
 H617 H 0.78785 0.70490 0.77795
 H618 H 0.76671 0.68250 0.75340
 H619 H 0.71819 0.81496 0.74047
 H620 H 0.70048 0.79219 0.71444
 H621 H 0.79080 0.71701 0.70193
 H622 H 0.81177 0.74267 0.72184
 H623 H 0.67535 0.75582 0.76804
 H624 H 0.69560 0.77975 0.79245
 O625 O 0.29409 0.20148 0.75336
 O626 O 0.30042 0.21943 0.71896
 O627 O 0.29752 0.25922 0.79828
 O628 O 0.27918 0.29026 0.80536
 O629 O 0.24614 0.20869 0.80938
 O630 O 0.21154 0.20170 0.79263
 O631 O 0.23521 0.31070 0.74075
 O632 O 0.27214 0.31448 0.75267
 O633 O 0.23602 0.25827 0.69563
 O634 O 0.24861 0.21914 0.69595
 O635 O 0.18637 0.26037 0.74841
 O636 O 0.18469 0.25208 0.78735
 O637 O 0.20451 0.29666 0.76012
 O638 O 0.20025 0.27940 0.79840
 O639 O 0.20122 0.24266 0.71750
 O640 O 0.22198 0.20648 0.71331
 O641 O 0.25314 0.29004 0.70671
 O642 O 0.28783 0.29743 0.72329
 O643 O 0.26323 0.18729 0.77236
 O644 O 0.22484 0.18517 0.76439
 O645 O 0.26092 0.24146 0.82100
 O646 O 0.24683 0.27991 0.81877
 O647 O 0.31299 0.23976 0.76868
 O648 O 0.31400 0.24918 0.72966
 Zr649 Zr 0.28605 0.23515 0.74797
 O650 O 0.26636 0.25310 0.72640
 Zr651 Zr 0.26354 0.26166 0.79244
 O652 O 0.24348 0.28132 0.77278
 Zr653 Zr 0.24087 0.21433 0.77553
 O654 O 0.21921 0.23182 0.75553
 Zr655 Zr 0.25850 0.28451 0.74043
 O656 O 0.28019 0.26747 0.76101
 Zr657 Zr 0.23510 0.23741 0.72386
 O658 O 0.25599 0.21775 0.74313
 Zr659 Zr 0.21339 0.26404 0.76861
 O660 O 0.23257 0.24539 0.79026
 O661 O 0.27139 0.23000 0.77982
 O662 O 0.22761 0.26916 0.73644
 C663 C 0.28286 0.18525 0.76257
 C664 C 0.31428 0.25023 0.78731
 C665 C 0.25346 0.22155 0.82453
 C666 C 0.21505 0.31236 0.74933
 C667 C 0.24409 0.27796 0.69200
 C668 C 0.18479 0.25171 0.72904
 H669 H 0.27461 0.25436 0.71170
 H670 H 0.20513 0.22322 0.75468
 H671 H 0.28114 0.22129 0.78926
 H672 H 0.24099 0.29613 0.77984
 H673 H 0.28495 0.31021 0.76140
 H674 H 0.27432 0.30326 0.79683
 H675 H 0.20885 0.20271 0.72347
 H676 H 0.23062 0.18269 0.74879
 H677 H 0.29379 0.28591 0.71269
 H678 H 0.31600 0.26447 0.73558
 H679 H 0.18220 0.23643 0.78275
 H680 H 0.20572 0.21379 0.80266
 H681 H 0.28852 0.20986 0.71319
 H682 H 0.26264 0.22664 0.69043
 H683 H 0.23309 0.27145 0.82349
 H684 H 0.20842 0.29361 0.80034
 O685 O 0.20219 0.74486 0.28944
 O686 O 0.22061 0.71093 0.29673
 O687 O 0.25697 0.79226 0.29670
 O688 O 0.29155 0.79699 0.28139
 O689 O 0.21486 0.79867 0.24220
 O690 O 0.21229 0.77906 0.20774
 O691 O 0.31942 0.73242 0.23789
 O692 O 0.31703 0.74615 0.27549
 O693 O 0.26757 0.68484 0.23559
 O694 O 0.22694 0.68523 0.24594
 O695 O 0.27470 0.73433 0.18626
 O696 O 0.26530 0.77390 0.18465
 O697 O 0.30826 0.74825 0.20618
 O698 O 0.29126 0.78563 0.20067
 O699 O 0.25552 0.70408 0.19996
 O700 O 0.21763 0.70008 0.21849
 O701 O 0.29709 0.69782 0.25395
 O702 O 0.30028 0.71561 0.28807
 O703 O 0.19190 0.76293 0.25853
 O704 O 0.19457 0.75129 0.22047
 O705 O 0.24525 0.81193 0.25903
 O706 O 0.28488 0.80994 0.24859
 O707 O 0.23687 0.76263 0.31070
 O708 O 0.24755 0.72400 0.31256
 Zr709 Zr 0.23694 0.73989 0.28373
 O710 O 0.25805 0.71758 0.26523
 Zr711 Zr 0.26526 0.78372 0.26333
 O712 O 0.28780 0.76332 0.24419
 Zr713 Zr 0.22150 0.76433 0.23770
 O714 O 0.24204 0.74318 0.21722
 Zr715 Zr 0.29002 0.73189 0.25920
 O716 O 0.26961 0.75328 0.28000
 Zr717 Zr 0.24634 0.71259 0.23335
 O718 O 0.22358 0.73282 0.25285
 Zr719 Zr 0.27455 0.75664 0.21330
 O720 O 0.25321 0.77921 0.23150
 O721 O 0.23304 0.77082 0.26893
 O722 O 0.27869 0.72539 0.22766
 C723 C 0.18750 0.75397 0.27771
 C724 C 0.24588 0.78206 0.31264
 C725 C 0.22645 0.81461 0.25021
 C726 C 0.32312 0.73936 0.21778
 C727 C 0.28632 0.68214 0.24453
 C728 C 0.26633 0.71472 0.18413
 H729 H 0.25868 0.70338 0.27347
 H730 H 0.23524 0.74121 0.20278
 H731 H 0.22283 0.78084 0.27790
 H732 H 0.30263 0.77070 0.24257
 H733 H 0.31047 0.75462 0.28850
 H734 H 0.30553 0.78943 0.27591
 H735 H 0.21451 0.71003 0.20598
 H736 H 0.19145 0.73616 0.22652
 H737 H 0.28711 0.70775 0.29508
 H738 H 0.26222 0.73068 0.31565
 H739 H 0.25093 0.76751 0.18028
 H740 H 0.22495 0.78881 0.20249
 H741 H 0.21210 0.70461 0.28457
 H742 H 0.23306 0.68052 0.26008
 H743 H 0.27929 0.81262 0.23369
 H744 H 0.30374 0.78899 0.21021
 O745 O 0.28394 0.74971 0.70551
 O746 O 0.26367 0.71656 0.69912
 O747 O 0.22972 0.79844 0.70623
 O748 O 0.19808 0.80484 0.72659
 O749 O 0.27946 0.80153 0.75554
 O750 O 0.28471 0.78075 0.78868
 O751 O 0.17260 0.73836 0.76908
 O752 O 0.17066 0.75411 0.73325
 O753 O 0.22234 0.68937 0.76251
 O754 O 0.26202 0.68913 0.74843
 O755 O 0.22385 0.73708 0.81528
 O756 O 0.23443 0.77656 0.81704
 O757 O 0.18750 0.75303 0.79975
 O758 O 0.20666 0.78899 0.80549
 O759 O 0.23929 0.70668 0.79773
 O760 O 0.27457 0.70196 0.77530
 O761 O 0.19108 0.70465 0.74946
 O762 O 0.18548 0.72480 0.71603
 O763 O 0.29894 0.76482 0.73595
 O764 O 0.29987 0.75317 0.77340
 O765 O 0.24825 0.81655 0.74207
 O766 O 0.20999 0.81589 0.75834
 O767 O 0.24718 0.76868 0.68932
 O768 O 0.23537 0.73067 0.68725
 Zr769 Zr 0.24981 0.74536 0.71503
 O770 O 0.22981 0.72307 0.73454
 Zr771 Zr 0.22599 0.78946 0.74007
 O772 O 0.20473 0.76903 0.76070
 Zr773 Zr 0.27159 0.76739 0.75958
 O774 O 0.25245 0.74605 0.78110
 Zr775 Zr 0.19934 0.73842 0.74478
 O776 O 0.21828 0.75990 0.72293
 Zr777 Zr 0.24494 0.71634 0.76431
 O778 O 0.26640 0.73662 0.74355
 Zr779 Zr 0.22100 0.76041 0.78944
 O780 O 0.24128 0.78306 0.76996
 O781 O 0.25693 0.77557 0.73029
 O782 O 0.21385 0.72999 0.77430
 C783 C 0.30062 0.75678 0.71607
 C784 C 0.23823 0.78814 0.68889
 C785 C 0.26809 0.81818 0.74897
 C786 C 0.17111 0.74478 0.78951
 C787 C 0.20232 0.68796 0.75599
 C788 C 0.23166 0.71711 0.81531
 H789 H 0.22762 0.70931 0.72579
 H790 H 0.26092 0.74326 0.79439
 H791 H 0.26653 0.78541 0.72048
 H792 H 0.19039 0.77679 0.76432
 H793 H 0.17590 0.76373 0.72059
 H794 H 0.18442 0.79767 0.73345
 H795 H 0.27975 0.71138 0.78753
 H796 H 0.30142 0.73791 0.76710
 H797 H 0.19633 0.71408 0.70902
 H798 H 0.22023 0.73720 0.68662
 H799 H 0.24911 0.76967 0.81933
 H800 H 0.27325 0.79109 0.79537
 H801 H 0.27354 0.70968 0.70975
 H802 H 0.25426 0.68531 0.73486
 H803 H 0.21783 0.81769 0.77226
 H804 H 0.19420 0.79408 0.79674
 O805 O 0.20719 0.24991 0.20821
 O806 O 0.22747 0.28487 0.20499
 O807 O 0.26034 0.20196 0.20239
 O808 O 0.29117 0.19432 0.22021
 O809 O 0.20735 0.19610 0.25441
 O810 O 0.20034 0.21481 0.28980
 O811 O 0.31452 0.25613 0.26723
 O812 O 0.31862 0.24326 0.22973
 O813 O 0.26562 0.30693 0.26672
 O814 O 0.22636 0.30786 0.25446
 O815 O 0.26031 0.25582 0.31586
 O816 O 0.24768 0.21616 0.31509
 O817 O 0.29683 0.23960 0.29740
 O818 O 0.27667 0.20426 0.30170
 O819 O 0.24615 0.28743 0.30160
 O820 O 0.21292 0.29462 0.28256
 O821 O 0.29785 0.29177 0.25153
 O822 O 0.30578 0.27416 0.21607
 O823 O 0.19009 0.23293 0.23848
 O824 O 0.18620 0.24359 0.27671
 O825 O 0.23951 0.18153 0.23827
 O826 O 0.27663 0.18040 0.25166
 O827 O 0.24601 0.23396 0.18889
 O828 O 0.25645 0.27183 0.18945
 Zr829 Zr 0.24058 0.25473 0.21684
 O830 O 0.25985 0.27514 0.23687
 Zr831 Zr 0.26229 0.20849 0.23678
 O832 O 0.28229 0.22701 0.25800
 Zr833 Zr 0.21549 0.22971 0.26076
 O834 O 0.23333 0.24937 0.28280
 Zr835 Zr 0.28941 0.25860 0.24431
 O836 O 0.27150 0.23923 0.22176
 Zr837 Zr 0.24254 0.28006 0.26790
 O838 O 0.22202 0.26154 0.24696
 Zr839 Zr 0.26395 0.23391 0.28828
 O840 O 0.24491 0.21292 0.26807
 O841 O 0.23225 0.22353 0.23001
 O842 O 0.27272 0.26519 0.27515
 C843 C 0.18989 0.24138 0.21891
 C844 C 0.25408 0.21421 0.18637
 C845 C 0.21900 0.17981 0.24591
 C846 C 0.31425 0.24817 0.28708
 C847 C 0.28634 0.30829 0.25964
 C848 C 0.25298 0.27595 0.31782
 H849 H 0.26293 0.28942 0.22907
 H850 H 0.22399 0.25145 0.29680
 H851 H 0.22347 0.21436 0.21990
 H852 H 0.29623 0.21874 0.26027
 H853 H 0.31407 0.23482 0.21653
 H854 H 0.30439 0.20017 0.22748
 H855 H 0.20560 0.28345 0.29271
 H856 H 0.18509 0.25902 0.27103
 H857 H 0.29580 0.28584 0.21076
 H858 H 0.27211 0.26644 0.18801
 H859 H 0.23362 0.22409 0.31959
 H860 H 0.21109 0.20363 0.29478
 H861 H 0.21557 0.28971 0.21616
 H862 H 0.23553 0.31287 0.24113
 H863 H 0.26818 0.17799 0.26616
 H864 H 0.28918 0.19903 0.29146
 O865 O 0.80019 0.70509 0.24150
 O866 O 0.80732 0.72478 0.20749
 O867 O 0.80556 0.75755 0.29005
 O868 O 0.78848 0.78911 0.29966
 O869 O 0.75009 0.70997 0.29518
 O870 O 0.71631 0.70656 0.27699
 O871 O 0.74842 0.81889 0.23698
 O872 O 0.78485 0.81865 0.24870
 O873 O 0.74719 0.76998 0.18636
 O874 O 0.75668 0.73146 0.18279
 O875 O 0.69607 0.77131 0.23729
 O876 O 0.69258 0.75929 0.27581
 O877 O 0.71614 0.80534 0.25380
 O878 O 0.70891 0.78448 0.28955
 O879 O 0.71059 0.75384 0.20605
 O880 O 0.73051 0.71733 0.19950
 O881 O 0.76451 0.80003 0.20091
 O882 O 0.80009 0.80297 0.21871
 O883 O 0.76790 0.69108 0.25796
 O884 O 0.72960 0.69230 0.24732
 O885 O 0.76740 0.73971 0.31032
 O886 O 0.75536 0.77909 0.31170
 O887 O 0.82048 0.74097 0.25846
 O888 O 0.82274 0.75272 0.22048
 Zr889 Zr 0.79372 0.73928 0.23747
 O890 O 0.77585 0.76047 0.21727
 Zr891 Zr 0.77172 0.76279 0.28391
 O892 O 0.75341 0.78557 0.26560
 Zr893 Zr 0.74672 0.71906 0.26195
 O894 O 0.72674 0.73982 0.24326
 Zr895 Zr 0.76943 0.79088 0.23397
 O896 O 0.78943 0.77052 0.25340
 Zr897 Zr 0.74399 0.74699 0.21265
 O898 O 0.76308 0.72422 0.23038
 Zr899 Zr 0.72241 0.77115 0.25892
 O900 O 0.73985 0.74916 0.27926
 O901 O 0.77792 0.73217 0.26842
 O902 O 0.73789 0.77810 0.22766
 C903 C 0.78804 0.68886 0.24942
 C904 C 0.82207 0.74912 0.27810
 C905 C 0.75831 0.72020 0.31162
 C906 C 0.72827 0.82135 0.24531
 C907 C 0.75585 0.78962 0.18478
 C908 C 0.69446 0.76330 0.21760
 H909 H 0.78455 0.76256 0.20291
 H910 H 0.71230 0.73220 0.24134
 H911 H 0.78693 0.72216 0.27737
 H912 H 0.75167 0.79975 0.27401
 H913 H 0.79659 0.81265 0.25789
 H914 H 0.78436 0.80315 0.29238
 H915 H 0.71680 0.71343 0.20877
 H916 H 0.73715 0.68971 0.23240
 H917 H 0.80450 0.79322 0.20587
 H918 H 0.82511 0.76770 0.22699
 H919 H 0.68889 0.74469 0.26916
 H920 H 0.71033 0.71836 0.28728
 H921 H 0.79543 0.71514 0.20180
 H922 H 0.77244 0.73630 0.18002
 H923 H 0.74093 0.77123 0.31498
 H924 H 0.71865 0.79700 0.29377
 O925 O 0.76267 0.18072 0.74374
 O926 O 0.72384 0.18339 0.75556
 O927 O 0.76886 0.22899 0.69111
 O928 O 0.76606 0.26504 0.68651
 O929 O 0.81757 0.22734 0.74343
 O930 O 0.81613 0.23996 0.78060
 O931 O 0.71482 0.29672 0.74684
 O932 O 0.71212 0.27755 0.71286
 O933 O 0.70243 0.24737 0.79634
 O934 O 0.71890 0.21202 0.80496
 O935 O 0.75711 0.29215 0.79895
 O936 O 0.79449 0.29405 0.78088
 O937 O 0.74620 0.30989 0.76190
 O938 O 0.78713 0.30596 0.75139
 O939 O 0.73709 0.26346 0.81488
 O940 O 0.74647 0.22312 0.81842
 O941 O 0.69214 0.26464 0.76503
 O942 O 0.69224 0.24978 0.72724
 O943 O 0.79328 0.19321 0.76069
 O944 O 0.79653 0.21415 0.79505
 O945 O 0.80696 0.24275 0.71131
 O946 O 0.79061 0.28003 0.70555
 O947 O 0.74917 0.20000 0.70696
 O948 O 0.71341 0.19819 0.72670
 Zr949 Zr 0.74315 0.20952 0.74041
 O950 O 0.72216 0.23151 0.75929
 Zr951 Zr 0.77300 0.25133 0.71766
 O952 O 0.75286 0.27523 0.73510
 Zr953 Zr 0.78812 0.22792 0.76437
 O954 O 0.76919 0.25124 0.78395
 Zr955 Zr 0.72063 0.26231 0.74282
 O956 O 0.73979 0.23945 0.72263
 Zr957 Zr 0.73629 0.23923 0.78947
 O958 O 0.75589 0.21475 0.77185
 Zr959 Zr 0.76578 0.28118 0.76629
 O960 O 0.78734 0.25886 0.74786
 O961 O 0.77577 0.22083 0.73353
 O962 O 0.73309 0.26992 0.77359
 C963 C 0.78154 0.17755 0.75233
 C964 C 0.75878 0.21002 0.69008
 C965 C 0.82174 0.23433 0.72343
 C966 C 0.72690 0.31267 0.75406
 C967 C 0.68802 0.25718 0.78485
 C968 C 0.74603 0.28299 0.81552
 H969 H 0.70726 0.22444 0.76179
 H970 H 0.77640 0.25380 0.79808
 H971 H 0.78506 0.21014 0.72439
 H972 H 0.75230 0.28891 0.72601
 H973 H 0.71811 0.26786 0.70051
 H974 H 0.75348 0.27557 0.68928
 H975 H 0.76033 0.23050 0.82290
 H976 H 0.78380 0.20449 0.80029
 H977 H 0.68639 0.23662 0.73566
 H978 H 0.70923 0.20976 0.71602
 H979 H 0.79819 0.28381 0.79297
 H980 H 0.81924 0.25517 0.77476
 H981 H 0.72926 0.18139 0.77064
 H982 H 0.70849 0.20599 0.79427
 H983 H 0.80247 0.28322 0.71590
 H984 H 0.78063 0.31072 0.73746
 C985 C 0.11146 0.97266 1.21461
 C986 C 0.10022 0.97175 1.19498
 C987 C 0.08877 0.99040 1.18759
 C988 C 0.08802 1.00984 1.20086
 C989 C 0.09918 1.01070 1.22057
 C990 C 0.11237 0.99266 1.22713
 C991 C 0.07881 0.98900 1.16562
 C992 C 0.06391 1.00359 1.15851
 C993 C 0.05494 1.00240 1.13609
 C994 C 0.03438 1.01267 1.13283
 C995 C 0.02556 1.01246 1.11189
 C996 C 0.03721 1.00212 1.09359
 C997 C 0.05793 0.99199 1.09678
 C998 C 0.06675 0.99220 1.11777
 H999 H 0.11921 0.95745 1.21978
 H1000 H 0.10054 0.95633 1.18546
 H1001 H 0.07944 1.02470 1.19595
 H1002 H 0.09834 1.02595 1.23035
 H1003 H 0.08383 0.97497 1.15506
 H1004 H 0.05725 1.01653 1.16961
 H1005 H 0.02506 1.02084 1.14658
 H1006 H 0.00960 1.02052 1.11006
 H1007 H 0.06747 0.98409 1.08302
 H1008 H 0.08304 0.98479 1.11937
 C1009 C 0.61429 0.47292 0.70156
 C1010 C 0.60403 0.47298 0.68127
 C1011 C 0.59387 0.49234 0.67360
 C1012 C 0.59334 0.51146 0.68733
 C1013 C 0.60347 0.51135 0.70765
 C1014 C 0.61543 0.49256 0.71458
 C1015 C 0.58484 0.49196 0.65103
 C1016 C 0.57146 0.50777 0.64334
 C1017 C 0.56284 0.50751 0.62066
 C1018 C 0.54356 0.51991 0.61703
 C1019 C 0.53475 0.52029 0.59606
 C1020 C 0.54513 0.50842 0.57801
 C1021 C 0.56480 0.49643 0.58145
 C1022 C 0.57359 0.49598 0.60252
 H1023 H 0.62121 0.45732 0.70678
 H1024 H 0.60417 0.45778 0.67141
 H1025 H 0.58578 0.52685 0.68237
 H1026 H 0.60297 0.52649 0.71760
 H1027 H 0.58919 0.47769 0.64054
 H1028 H 0.56556 0.52117 0.65427
 H1029 H 0.53508 0.52917 0.63058
 H1030 H 0.51965 0.52982 0.59408
 H1031 H 0.57331 0.48719 0.56792
 H1032 H 0.58890 0.48682 0.60439
 C1033 C 0.38992 -0.02398 0.73192
 C1034 C 0.40180 -0.02472 0.71125
 C1035 C 0.40935 -0.00513 0.70070
 C1036 C 0.40579 0.01537 0.71176
 C1037 C 0.39426 0.01614 0.73279
 C1038 C 0.38529 -0.00347 0.74315
 C1039 C 0.42120 -0.00701 0.67843
 C1040 C 0.41969 0.00833 0.66244
 C1041 C 0.42969 0.00497 0.63946
 C1042 C 0.41971 0.01514 0.62162
 C1043 C 0.42860 0.01214 0.59973
 C1044 C 0.44788 -0.00092 0.59522
 C1045 C 0.45797 -0.01096 0.61314
 C1046 C 0.44903 -0.00802 0.63499
 H1047 H 0.38442 -0.03985 0.73859
 H1048 H 0.40469 -0.04078 0.70321
 H1049 H 0.41216 0.03077 0.70435
 H1050 H 0.39219 0.03222 0.74096
 H1051 H 0.42959 -0.02266 0.67447
 H1052 H 0.40934 0.02293 0.66571
 H1053 H 0.40489 0.02533 0.62463
 H1054 H 0.42052 0.02033 0.58638
 H1055 H 0.47299 -0.02090 0.61036
 H1056 H 0.45760 -0.01559 0.64835
 C1057 C -0.09226 0.51835 1.22815
 C1058 C -0.07831 0.51854 1.20857
 C1059 C -0.07859 0.50061 1.19357
 C1060 C -0.09141 0.48161 1.19944
 C1061 C -0.10509 0.48127 1.21911
 C1062 C -0.10709 0.50033 1.23307
 C1063 C -0.06587 0.50212 1.17172
 C1064 C -0.07442 0.49424 1.15314
 C1065 C -0.06328 0.49679 1.13064
 C1066 C -0.07665 0.49857 1.11240
 C1067 C -0.06686 0.50039 1.09079
 C1068 C -0.04345 0.49995 1.08691
 C1069 C -0.03002 0.49796 1.10516
 C1070 C -0.03983 0.49654 1.12687
 H1071 H -0.09227 0.53281 1.23904
 H1072 H -0.06800 0.53311 1.20470
 H1073 H -0.09092 0.46698 1.18875
 H1074 H -0.11410 0.46597 1.22303
 H1075 H -0.05037 0.51161 1.17064
 H1076 H -0.09108 0.48695 1.15422
 H1077 H -0.09476 0.49862 1.11491
 H1078 H -0.07766 0.50168 1.07706
 H1079 H -0.01192 0.49751 1.10265
 H1080 H -0.02910 0.49470 1.14058
 C1081 C -0.09459 0.48442 0.27800
 C1082 C -0.08079 0.48466 0.29596
 C1083 C -0.08038 0.50326 0.31016
 C1084 C -0.09287 0.52218 0.30520
 C1085 C -0.10644 0.52206 0.28715
 C1086 C -0.10864 0.50268 0.27388
 C1087 C -0.06662 0.50271 0.32980
 C1088 C -0.07300 0.51310 0.34895
 C1089 C -0.06051 0.51152 0.36936
 C1090 C -0.07256 0.51203 0.39014
 C1091 C -0.06149 0.51028 0.40981
 C1092 C -0.03802 0.50856 0.40914
 C1093 C -0.02584 0.50876 0.38836
 C1094 C -0.03700 0.51006 0.36861
 H1095 H -0.09468 0.46969 0.26748
 H1096 H -0.07078 0.47009 0.29903
 H1097 H -0.09188 0.53729 0.31506
 H1098 H -0.11480 0.53747 0.28362
 H1099 H -0.05195 0.49211 0.32901
 H1100 H -0.08894 0.52170 0.35036
 H1101 H -0.09066 0.51338 0.39113
 H1102 H -0.07130 0.51037 0.42559
 H1103 H -0.00774 0.50746 0.38737
 H1104 H -0.02722 0.51017 0.35283
 C1105 C 0.40937 1.00722 -0.21699
 C1106 C 0.42269 1.00905 -0.19872
 C1107 C 0.41425 1.00298 -0.17733
 C1108 C 0.39252 0.99410 -0.17467
 C1109 C 0.37923 0.99232 -0.19276
 C1110 C 0.38712 0.99898 -0.21445
 C1111 C 0.42852 1.00549 -0.15818
 C1112 C 0.41981 1.00866 -0.13728
 C1113 C 0.43312 1.00926 -0.11735
 C1114 C 0.42222 1.00402 -0.09669
 C1115 C 0.43398 1.00374 -0.07739
 C1116 C 0.45694 1.00900 -0.07827
 C1117 C 0.46779 1.01486 -0.09888
 C1118 C 0.45602 1.01496 -0.11826
 H1119 H 0.41680 1.01252 -0.23288
 H1120 H 0.43957 1.01562 -0.20126
 H1121 H 0.38563 0.98832 -0.15864
 H1122 H 0.36229 0.98611 -0.18959
 H1123 H 0.44648 1.00456 -0.16155
 H1124 H 0.40183 1.01001 -0.13427
 H1125 H 0.40455 0.99976 -0.09550
 H1126 H 0.42504 0.99937 -0.06178
 H1127 H 0.48545 1.01913 -0.10008
 H1128 H 0.46487 1.01972 -0.13377
 C1129 C 0.59282 0.48181 -0.24040
 C1130 C 0.57800 0.48326 -0.22148
 C1131 C 0.57879 0.50167 -0.20707
 C1132 C 0.59280 0.51977 -0.21338
 C1133 C 0.60760 0.51832 -0.23228
 C1134 C 0.60932 0.49843 -0.24502
 C1135 C 0.56552 0.50116 -0.18533
 C1136 C 0.57258 0.51142 -0.16712
 C1137 C 0.56168 0.50940 -0.14428
 C1138 C 0.57398 0.51612 -0.12626
 C1139 C 0.56473 0.51473 -0.10440
 C1140 C 0.54280 0.50665 -0.09992
 C1141 C 0.53039 0.49995 -0.11794
 C1142 C 0.53967 0.50136 -0.13989
 H1143 H 0.59256 0.46684 -0.25056
 H1144 H 0.56674 0.46942 -0.21750
 H1145 H 0.59262 0.53498 -0.20358
 H1146 H 0.61786 0.53279 -0.23640
 H1147 H 0.55106 0.49023 -0.18395
 H1148 H 0.58819 0.52070 -0.16857
 H1149 H 0.59092 0.52245 -0.12908
 H1150 H 0.57481 0.52012 -0.09102
 H1151 H 0.51337 0.49383 -0.11512
 H1152 H 0.52939 0.49646 -0.15325
 C1153 C 0.09153 -0.02057 0.27154
 C1154 C 0.07657 -0.02066 0.29033
 C1155 C 0.07623 -0.00281 0.30544
 C1156 C 0.08934 0.01620 0.30016
 C1157 C 0.10422 0.01637 0.28128
 C1158 C 0.10693 -0.00280 0.26760
 C1159 C 0.06273 -0.00481 0.32685
 C1160 C 0.06953 0.00426 0.34573
 C1161 C 0.05811 0.00091 0.36809
 C1162 C 0.07014 0.00571 0.38684
 C1163 C 0.06006 0.00364 0.40830
 C1164 C 0.03758 -0.00322 0.41158
 C1165 C 0.02558 -0.00838 0.39283
 C1166 C 0.03568 -0.00626 0.37130
 H1167 H 0.09215 -0.03514 0.26077
 H1168 H 0.06606 -0.03521 0.29363
 H1169 H 0.08832 0.03089 0.31074
 H1170 H 0.11370 0.03149 0.27787
 H1171 H 0.04836 -0.01588 0.32735
 H1172 H 0.08515 0.01356 0.34509
 H1173 H 0.08742 0.01127 0.38488
 H1174 H 0.06983 0.00778 0.42232
 H1175 H 0.00816 -0.01348 0.39474
 H1176 H 0.02563 -0.00967 0.35734
 C1177 C 0.22063 1.10319 0.97983
 C1178 C 0.20100 1.09065 0.97869
 C1179 C 0.19261 1.07794 0.99690
 C1180 C 0.20538 1.07659 1.01570
 C1181 C 0.22498 1.08920 1.01686
 C1182 C 0.23211 1.10407 0.99964
 C1183 C 0.17033 1.06713 0.99559
 C1184 C 0.15853 1.05796 1.01297
 C1185 C 0.13529 1.04978 1.01151
 C1186 C 0.12763 1.03206 1.02516
 C1187 C 0.10554 1.02444 1.02471
 C1188 C 0.09053 1.03473 1.01090
 C1189 C 0.09813 1.05273 0.99749
 C1190 C 0.12029 1.06017 0.99775
 H1191 H 0.22651 1.11214 0.96503
 H1192 H 0.19208 1.09126 0.96357
 H1193 H 0.20039 1.06612 1.02974
 H1194 H 0.23418 1.08811 1.03176
 H1195 H 0.16285 1.06773 0.97966
 H1196 H 0.16568 1.05635 1.02892
 H1197 H 0.13881 1.02403 1.03612
 H1198 H 0.10016 1.01066 1.03539
 H1199 H 0.08697 1.06106 0.98674
 H1200 H 0.12544 1.07438 0.98758
 C1201 C 0.71440 0.62206 0.50806
 C1202 C 0.69285 0.61358 0.50657
 C1203 C 0.68877 0.59589 0.49215
 C1204 C 0.70676 0.58713 0.47865
 C1205 C 0.72847 0.59592 0.47988
 C1206 C 0.73295 0.61297 0.49532
 C1207 C 0.66534 0.58800 0.49112
 C1208 C 0.65975 0.56687 0.48653
 C1209 C 0.63616 0.55888 0.48836
 C1210 C 0.63180 0.53667 0.49454
 C1211 C 0.60981 0.52864 0.49699
 C1212 C 0.59159 0.54257 0.49297
 C1213 C 0.59597 0.56477 0.48643
 C1214 C 0.61801 0.57286 0.48417
 H1215 H 0.71621 0.63635 0.51887
 H1216 H 0.67921 0.62106 0.51670
 H1217 H 0.70396 0.57406 0.46663
 H1218 H 0.74175 0.58960 0.46851
 H1219 H 0.65224 0.59966 0.49645
 H1220 H 0.67284 0.55460 0.48338
 H1221 H 0.64546 0.52554 0.49775
 H1222 H 0.60714 0.51137 0.50180
 H1223 H 0.58238 0.57587 0.48296
 H1224 H 0.62079 0.58993 0.47879
 C1225 C 0.70567 0.38387 0.01552
 C1226 C 0.68574 0.39554 0.01385
 C1227 C 0.68425 0.41291 -0.00150
 C1228 C 0.70352 0.41875 -0.01492
 C1229 C 0.72362 0.40710 -0.01314
 C1230 C 0.72527 0.38967 0.00242
 C1231 C 0.66208 0.42376 -0.00298
 C1232 C 0.65626 0.43682 -0.01975
 C1233 C 0.63325 0.44587 -0.02067
 C1234 C 0.63009 0.46661 -0.03077
 C1235 C 0.60863 0.47587 -0.03104
 C1236 C 0.58981 0.46439 -0.02148
 C1237 C 0.59294 0.44317 -0.01226
 C1238 C 0.61435 0.43400 -0.01190
 H1239 H 0.70522 0.36969 0.02660
 H1240 H 0.67112 0.39040 0.02417
 H1241 H 0.70325 0.43209 -0.02694
 H1242 H 0.73789 0.41143 -0.02430
 H1243 H 0.64962 0.42017 0.01040
 H1244 H 0.66846 0.44141 -0.03300
 H1245 H 0.64432 0.47592 -0.03795
 H1246 H 0.60685 0.49219 -0.03841
 H1247 H 0.57886 0.43371 -0.00495
 H1248 H 0.61600 0.41754 -0.00482
 C1249 C 0.22036 -0.09296 0.48314
 C1250 C 0.20125 -0.08004 0.48035
 C1251 C 0.18087 -0.08507 0.49214
 C1252 C 0.18016 -0.10292 0.50725
 C1253 C 0.19915 -0.11578 0.51004
 C1254 C 0.21989 -0.11075 0.49853
 C1255 C 0.16067 -0.07145 0.48866
 C1256 C 0.13985 -0.08005 0.49102
 C1257 C 0.11866 -0.06730 0.48962
 C1258 C 0.09840 -0.07869 0.49471
 C1259 C 0.07793 -0.06756 0.49503
 C1260 C 0.07708 -0.04466 0.49014
 C1261 C 0.09726 -0.03330 0.48438
 C1262 C 0.11785 -0.04445 0.48417
 H1263 H 0.23552 -0.08924 0.47301
 H1264 H 0.20225 -0.06643 0.46851
 H1265 H 0.16491 -0.10711 0.51702
 H1266 H 0.19723 -0.13006 0.52094
 H1267 H 0.16333 -0.05424 0.48382
 H1268 H 0.13799 -0.09770 0.49461
 H1269 H 0.09840 -0.09628 0.49889
 H1270 H 0.06275 -0.07693 0.49936
 H1271 H 0.09720 -0.01565 0.48048
 H1272 H 0.13291 -0.03495 0.47994
 C1273 C 0.28282 -0.12743 0.49729
 C1274 C 0.30389 -0.11812 0.49975
 C1275 C 0.30619 -0.09569 0.50591
 C1276 C 0.28668 -0.08276 0.50988
 C1277 C 0.26544 -0.09216 0.50741
 C1278 C 0.26313 -0.11457 0.50044
 C1279 C 0.32923 -0.08712 0.50860
 C1280 C 0.33486 -0.06546 0.51003
 C1281 C 0.35839 -0.05777 0.51152
 C1282 C 0.36243 -0.03682 0.52105
 C1283 C 0.38431 -0.02865 0.52201
 C1284 C 0.40271 -0.04121 0.51326
 C1285 C 0.39866 -0.06222 0.50375
 C1286 C 0.37679 -0.07037 0.50278
 H1287 H 0.28186 -0.14499 0.49302
 H1288 H 0.31851 -0.12864 0.49696
 H1289 H 0.28756 -0.06564 0.51553
 H1290 H 0.25090 -0.08197 0.51170
 H1291 H 0.34226 -0.09956 0.50909
 H1292 H 0.32206 -0.05276 0.51020
 H1293 H 0.34859 -0.02668 0.52772
 H1294 H 0.38676 -0.01233 0.52934
 H1295 H 0.41235 -0.07223 0.49658
 H1296 H 0.37445 -0.08622 0.49454
 C1297 C -0.21105 0.37578 0.99778
 C1298 C -0.19026 0.38591 0.99953
 C1299 C -0.18862 0.40841 1.00566
 C1300 C -0.20849 0.42063 1.01017
 C1301 C -0.22950 0.41040 1.00845
 C1302 C -0.23116 0.38784 1.00172
 C1303 C -0.16578 0.41774 1.00765
 C1304 C -0.16068 0.43955 1.00883
 C1305 C -0.13717 0.44769 1.00909
 C1306 C -0.13280 0.46853 1.01873
 C1307 C -0.11087 0.47690 1.01859
 C1308 C -0.09284 0.46464 1.00861
 C1309 C -0.09727 0.44379 0.99895
 C1310 C -0.11912 0.43549 0.99904
 H1311 H -0.21148 0.35820 0.99350
 H1312 H -0.17532 0.37594 0.99623
 H1313 H -0.20804 0.43782 1.01568
 H1314 H -0.24430 0.42006 1.01315
 H1315 H -0.15234 0.40569 1.00771
 H1316 H -0.17382 0.45193 1.00959
 H1317 H -0.14639 0.47838 1.02637
 H1318 H -0.10810 0.49309 1.02607
 H1319 H -0.08390 0.43402 0.99080
 H1320 H -0.12177 0.41980 0.99059
 C1321 C -0.22439 0.58559 0.49817
 C1322 C -0.20483 0.57263 0.49769
 C1323 C -0.18359 0.58252 0.49368
 C1324 C -0.18236 0.60564 0.48989
 C1325 C -0.20173 0.61850 0.49052
 C1326 C -0.22322 0.60876 0.49393
 C1327 C -0.16308 0.56845 0.49308
 C1328 C -0.14283 0.57678 0.49731
 C1329 C -0.12150 0.56399 0.49594
 C1330 C -0.10266 0.57383 0.50488
 C1331 C -0.08192 0.56310 0.50344
 C1332 C -0.07940 0.54216 0.49294
 C1333 C -0.09822 0.53228 0.48385
 C1334 C -0.11902 0.54308 0.48526
 H1335 H -0.24022 0.57741 0.50242
 H1336 H -0.20626 0.55487 0.50087
 H1337 H -0.16651 0.61398 0.48611
 H1338 H -0.19996 0.63635 0.48799
 H1339 H -0.16502 0.55082 0.48968
 H1340 H -0.14163 0.59400 0.50264
 H1341 H -0.10396 0.59000 0.51303
 H1342 H -0.06787 0.57125 0.51065
 H1343 H -0.09687 0.51621 0.47552
 H1344 H -0.13289 0.53510 0.47763
 C1345 C 0.27867 1.08899 -0.01500
 C1346 C 0.29768 1.07548 -0.01539
 C1347 C 0.31055 1.07443 0.00322
 C1348 C 0.30276 1.08521 0.02298
 C1349 C 0.28375 1.09867 0.02339
 C1350 C 0.27242 1.10234 0.00382
 C1351 C 0.33222 1.06253 0.00139
 C1352 C 0.34972 1.06931 0.01265
 C1353 C 0.37240 1.05948 0.00975
 C1354 C 0.39067 1.07222 0.01620
 C1355 C 0.41238 1.06365 0.01406
 C1356 C 0.41629 1.04202 0.00555
 C1357 C 0.39797 1.02922 -0.00088
 C1358 C 0.37624 1.03781 0.00126
 H1359 H 0.26950 1.09007 -0.02992
 H1360 H 0.30286 1.06662 -0.03059
 H1361 H 0.31143 1.08338 0.03813
 H1362 H 0.27826 1.10618 0.03915
 H1363 H 0.33434 1.04952 -0.01110
 H1364 H 0.34785 1.08382 0.02344
 H1365 H 0.38816 1.08893 0.02288
 H1366 H 0.42607 1.07396 0.01924
 H1367 H 0.40035 1.01241 -0.00732
 H1368 H 0.36257 1.02721 -0.00332
 C1369 C 0.03015 1.23055 1.09141
 C1370 C 0.03262 1.21003 1.08031
 C1371 C 0.02007 1.19138 1.08774
 C1372 C 0.00498 1.19364 1.10646
 C1373 C 0.00247 1.21405 1.11747
 C1374 C 0.01424 1.23325 1.10958
 C1375 C 0.02216 1.17007 1.07521
 C1376 C 0.01833 1.15022 1.08504
 C1377 C 0.01696 1.12870 1.07296
 C1378 C 0.00596 1.11082 1.08405
 C1379 C 0.00328 1.09039 1.07330
 C1380 C 0.01172 1.08727 1.05117
 C1381 C 0.02319 1.10502 1.04016
 C1382 C 0.02582 1.12553 1.05093
 H1383 H 0.04047 1.24452 1.08559
 H1384 H 0.04450 1.20867 1.06601
 H1385 H -0.00530 1.17977 1.11254
 H1386 H -0.00870 1.21453 1.13231
 H1387 H 0.02635 1.17109 1.05750
 H1388 H 0.01482 1.14967 1.10292
 H1389 H -0.00093 1.11276 1.10105
 H1390 H -0.00547 1.07706 1.08238
 H1391 H 0.03011 1.10310 1.02318
 H1392 H 0.03494 1.13863 1.04194
 C1393 C 0.49796 0.70627 0.62813
 C1394 C 0.49847 0.68589 0.61704
 C1395 C 0.49646 0.68482 0.59404
 C1396 C 0.49312 0.70478 0.58237
 C1397 C 0.49240 0.72546 0.59364
 C1398 C 0.49570 0.72661 0.61666
 C1399 C 0.49699 0.66234 0.58359
 C1400 C 0.50217 0.65816 0.56195
 C1401 C 0.50381 0.63498 0.55294
 C1402 C 0.51752 0.63070 0.53358
 C1403 C 0.51953 0.60900 0.52486
 C1404 C 0.50781 0.59109 0.53533
 C1405 C 0.49401 0.59543 0.55465
 C1406 C 0.49185 0.61707 0.56321
 H1407 H 0.49965 0.70624 0.64596
 H1408 H 0.50059 0.67081 0.62657
 H1409 H 0.49048 0.70445 0.56474
 H1410 H 0.48878 0.74024 0.58432
 H1411 H 0.49451 0.64840 0.59488
 H1412 H 0.50674 0.67183 0.55082
 H1413 H 0.52677 0.64418 0.52523
 H1414 H 0.53014 0.60630 0.50982
 H1415 H 0.48433 0.58217 0.56288
 H1416 H 0.48037 0.61967 0.57761
 C1417 C -0.02057 0.71220 0.38796
 C1418 C -0.02151 0.69239 0.40003
 C1419 C -0.00429 0.68671 0.41355
 C1420 C 0.01392 0.70140 0.41512
 C1421 C 0.01462 0.72162 0.40347
 C1422 C -0.00286 0.72774 0.38996
 C1423 C -0.00591 0.66527 0.42556
 C1424 C 0.01174 0.65192 0.42742
 C1425 C 0.00936 0.62911 0.43663
 C1426 C 0.02316 0.61211 0.42747
 C1427 C 0.02098 0.59027 0.43540
 C1428 C 0.00527 0.58506 0.45303
 C1429 C -0.00834 0.60218 0.46245
 C1430 C -0.00640 0.62398 0.45426
 H1431 H -0.03376 0.71475 0.37681
 H1432 H -0.03549 0.68107 0.39826
 H1433 H 0.02745 0.69739 0.42554
 H1434 H 0.02885 0.73264 0.40501
 H1435 H -0.02253 0.65923 0.43077
 H1436 H 0.02797 0.65693 0.41998
 H1437 H 0.03547 0.61571 0.41394
 H1438 H 0.03194 0.57753 0.42798
 H1439 H -0.02047 0.59872 0.47616
 H1440 H -0.01697 0.63686 0.46197
 C1441 C 0.51290 1.22820 -0.09304
 C1442 C 0.51486 1.20831 -0.08118
 C1443 C 0.50044 1.19028 -0.08461
 C1444 C 0.48441 1.19226 -0.10048
 C1445 C 0.48271 1.21188 -0.11262
 C1446 C 0.49647 1.23064 -0.10876
 C1447 C 0.50347 1.16891 -0.07296
 C1448 C 0.48621 1.15532 -0.06719
 C1449 C 0.48915 1.13308 -0.05732
 C1450 C 0.47291 1.12504 -0.04147
 C1451 C 0.47499 1.10379 -0.03230
 C1452 C 0.49301 1.08995 -0.03937
 C1453 C 0.50897 1.09778 -0.05566
 C1454 C 0.50718 1.11924 -0.06443
 H1455 H 0.52458 1.24166 -0.09029
 H1456 H 0.52777 1.20694 -0.06941
 H1457 H 0.47381 1.17823 -0.10434
 H1458 H 0.47111 1.21162 -0.12566
 H1459 H 0.52024 1.16441 -0.06882
 H1460 H 0.46923 1.16086 -0.06924
 H1461 H 0.45873 1.13533 -0.03599
 H1462 H 0.46239 1.09808 -0.01985
 H1463 H 0.52305 1.08746 -0.06134
 H1464 H 0.51963 1.12483 -0.07707
 C1465 C 0.48978 0.27513 -0.08687
 C1466 C 0.48912 0.29581 -0.07584
 C1467 C 0.49180 0.31585 -0.08780
 C1468 C 0.49442 0.31478 -0.11117
 C1469 C 0.49494 0.29424 -0.12213
 C1470 C 0.49384 0.27394 -0.11022
 C1471 C 0.49313 0.33732 -0.07541
 C1472 C 0.49038 0.35736 -0.08482
 C1473 C 0.49357 0.37908 -0.07343
 C1474 C 0.48489 0.39835 -0.08284
 C1475 C 0.48801 0.41934 -0.07327
 C1476 C 0.50001 0.42161 -0.05402
 C1477 C 0.50899 0.40235 -0.04472
 C1478 C 0.50589 0.38132 -0.05434
 H1479 H 0.48721 0.26027 -0.07690
 H1480 H 0.48671 0.29615 -0.05784
 H1481 H 0.49698 0.32960 -0.12121
 H1482 H 0.49742 0.29411 -0.14014
 H1483 H 0.49640 0.33637 -0.05796
 H1484 H 0.48508 0.35818 -0.10165
 H1485 H 0.47556 0.39718 -0.09768
 H1486 H 0.48084 0.43376 -0.08092
 H1487 H 0.51843 0.40349 -0.02997
 H1488 H 0.51352 0.36705 -0.04695
 C1489 C -0.00274 -0.22947 0.41496
 C1490 C -0.00238 -0.20960 0.42734
 C1491 C -0.00017 -0.18885 0.41666
 C1492 C 0.00191 -0.18835 0.39327
 C1493 C 0.00133 -0.20803 0.38095
 C1494 C -0.00033 -0.22909 0.39143
 C1495 C 0.00030 -0.16809 0.43022
 C1496 C -0.00555 -0.14817 0.42228
 C1497 C -0.00479 -0.12668 0.43457
 C1498 C -0.01470 -0.10804 0.42520
 C1499 C -0.01420 -0.08720 0.43556
 C1500 C -0.00375 -0.08441 0.45567
 C1501 C 0.00635 -0.10299 0.46508
 C1502 C 0.00594 -0.12393 0.45461
 H1503 H -0.00534 -0.24487 0.42404
 H1504 H -0.00416 -0.21043 0.44536
 H1505 H 0.00440 -0.17285 0.38426
 H1506 H 0.00276 -0.20694 0.36293
 H1507 H 0.00487 -0.16962 0.44724
 H1508 H -0.01193 -0.14741 0.40586
 H1509 H -0.02294 -0.10958 0.40972
 H1510 H -0.02220 -0.07331 0.42782
 H1511 H 0.01466 -0.10137 0.48050
 H1512 H 0.01427 -0.13765 0.46220
 C1513 C 0.48351 -0.21069 0.62797
 C1514 C 0.48507 -0.18954 0.61865
 C1515 C 0.49851 -0.18572 0.59926
 C1516 C 0.51100 -0.20350 0.58950
 C1517 C 0.50985 -0.22484 0.59924
 C1518 C 0.49523 -0.22915 0.61814
 C1519 C 0.49974 -0.16261 0.59076
 C1520 C 0.50065 -0.15750 0.56910
 C1521 C 0.49780 -0.13421 0.56144
 C1522 C 0.48735 -0.13047 0.54159
 C1523 C 0.48359 -0.10872 0.53436
 C1524 C 0.49046 -0.09014 0.54672
 C1525 C 0.50116 -0.09392 0.56651
 C1526 C 0.50485 -0.11568 0.57376
 H1527 H 0.47349 -0.21219 0.64350
 H1528 H 0.47577 -0.17598 0.62683
 H1529 H 0.52225 -0.20070 0.57495
 H1530 H 0.52071 -0.23784 0.59224
 H1531 H 0.49694 -0.14939 0.60298
 H1532 H 0.50106 -0.17085 0.55683
 H1533 H 0.48182 -0.14444 0.53177
 H1534 H 0.47555 -0.10649 0.51889
 H1535 H 0.50702 -0.08007 0.57626
 H1536 H 0.51354 -0.11792 0.58883
 C1537 C 0.00335 0.27415 1.08434
 C1538 C -0.00057 0.29319 1.07174
 C1539 C 0.00136 0.31457 1.08103
 C1540 C 0.00650 0.31656 1.10343
 C1541 C 0.01053 0.29769 1.11591
 C1542 C 0.00971 0.27609 1.10652
 C1543 C -0.00311 0.33452 1.06755
 C1544 C 0.00642 0.35431 1.07160
 C1545 C 0.00132 0.37550 1.06052
 C1546 C 0.00700 0.39534 1.07125
 C1547 C 0.00364 0.41593 1.06146
 C1548 C -0.00533 0.41728 1.04046
 C1549 C -0.01153 0.39743 1.02980
 C1550 C -0.00822 0.37666 1.03973
 H1551 H 0.00062 0.25805 1.07677
 H1552 H -0.00529 0.29120 1.05475
 H1553 H 0.00679 0.33264 1.11169
 H1554 H 0.01401 0.29990 1.13324
 H1555 H -0.01451 0.33275 1.05439
 H1556 H 0.01834 0.35540 1.08439
 H1557 H 0.01427 0.39494 1.08730
 H1558 H 0.00851 0.43083 1.07027
 H1559 H -0.01834 0.39792 1.01354
 H1560 H -0.01250 0.36170 1.03077
 C1561 C 0.75318 0.33764 0.02275
 C1562 C 0.75563 0.32597 0.04255
 C1563 C 0.75259 0.33673 0.06329
 C1564 C 0.74759 0.35965 0.06380
 C1565 C 0.74508 0.37127 0.04409
 C1566 C 0.74716 0.36045 0.02315
 C1567 C 0.75604 0.32394 0.08389
 C1568 C 0.74701 0.32999 0.10404
 C1569 C 0.75054 0.31815 0.12520
 C1570 C 0.74336 0.32869 0.14529
 C1571 C 0.74568 0.31826 0.16573
 C1572 C 0.75521 0.29689 0.16663
 C1573 C 0.76261 0.28635 0.14655
 C1574 C 0.76026 0.29679 0.12607
 H1575 H 0.75676 0.32882 0.00722
 H1576 H 0.76022 0.30848 0.04165
 H1577 H 0.74631 0.36896 0.07927
 H1578 H 0.74177 0.38904 0.04513
 H1579 H 0.76621 0.30910 0.08205
 H1580 H 0.73635 0.34455 0.10538
 H1581 H 0.73580 0.34511 0.14520
 H1582 H 0.73976 0.32690 0.18082
 H1583 H 0.76989 0.26981 0.14660
 H1584 H 0.76571 0.28776 0.11112
 C1585 C 0.23556 0.87109 0.54191
 C1586 C 0.23639 0.85996 0.56214
 C1587 C 0.24108 0.83700 0.56260
 C1588 C 0.24544 0.82566 0.54233
 C1589 C 0.24464 0.83683 0.52201
 C1590 C 0.23899 0.85969 0.52137
 C1591 C 0.24298 0.82473 0.58379
 C1592 C 0.23289 0.83137 0.60330
 C1593 C 0.23506 0.81987 0.62490
 C1594 C 0.22798 0.83120 0.64459
 C1595 C 0.22926 0.82109 0.66537
 C1596 C 0.23763 0.79929 0.66696
 C1597 C 0.24477 0.78793 0.64726
 C1598 C 0.24342 0.79802 0.62648
 H1599 H 0.23253 0.88892 0.54225
 H1600 H 0.23413 0.86968 0.57731
 H1601 H 0.24982 0.80811 0.54221
 H1602 H 0.24919 0.82758 0.50693
 H1603 H 0.25305 0.80977 0.58295
 H1604 H 0.22253 0.84616 0.60374
 H1605 H 0.22138 0.84800 0.64392
 H1606 H 0.22357 0.83033 0.68017
 H1607 H 0.25109 0.77103 0.64783
 H1608 H 0.24856 0.78833 0.61186
 C1609 C 0.75498 0.62424 0.53747
 C1610 C 0.75577 0.63426 0.55830
 C1611 C 0.76036 0.65709 0.56018
 C1612 C 0.76559 0.66951 0.54074
 C1613 C 0.76516 0.65934 0.51972
 C1614 C 0.75862 0.63675 0.51771
 C1615 C 0.75998 0.66693 0.58277
 C1616 C 0.75450 0.68822 0.58741
 C1617 C 0.75202 0.69677 0.61062
 C1618 C 0.73726 0.71448 0.61587
 C1619 C 0.73396 0.72223 0.63784
 C1620 C 0.74545 0.71240 0.65497
 C1621 C 0.76059 0.69502 0.64955
 C1622 C 0.76399 0.68743 0.62767
 H1623 H 0.75087 0.60663 0.53671
 H1624 H 0.75225 0.62419 0.57305
 H1625 H 0.77035 0.68693 0.54174
 H1626 H 0.77007 0.66926 0.50525
 H1627 H 0.76223 0.65547 0.59631
 H1628 H 0.74997 0.69916 0.57414
 H1629 H 0.72800 0.72210 0.60299
 H1630 H 0.72236 0.73581 0.64142
 H1631 H 0.77015 0.68740 0.66220
 H1632 H 0.77622 0.67440 0.62420
 C1633 C 0.22966 0.13561 0.03699
 C1634 C 0.22882 0.14629 0.05771
 C1635 C 0.24786 0.15677 0.06538
 C1636 C 0.26747 0.15767 0.05121
 C1637 C 0.26835 0.14683 0.03051
 C1638 C 0.25003 0.13401 0.02382
 C1639 C 0.24699 0.16514 0.08864
 C1640 C 0.26016 0.18153 0.09566
 C1641 C 0.25883 0.18934 0.11907
 C1642 C 0.26136 0.21216 0.12349
 C1643 C 0.25975 0.22013 0.14539
 C1644 C 0.25619 0.20533 0.16337
 C1645 C 0.25439 0.18234 0.15903
 C1646 C 0.25550 0.17441 0.13703
 H1647 H 0.21430 0.12828 0.03179
 H1648 H 0.21325 0.14606 0.06798
 H1649 H 0.28250 0.16572 0.05645
 H1650 H 0.28396 0.14710 0.02033
 H1651 H 0.23448 0.15788 0.10032
 H1652 H 0.27115 0.19052 0.08378
 H1653 H 0.26416 0.22391 0.10994
 H1654 H 0.26145 0.23792 0.14827
 H1655 H 0.25171 0.17060 0.17259
 H1656 H 0.25401 0.15663 0.13408
 C1657 C 0.27780 0.13742 0.97040
 C1658 C 0.27976 0.14987 0.95083
 C1659 C 0.26161 0.16217 0.94394
 C1660 C 0.24191 0.16320 0.95797
 C1661 C 0.23990 0.15057 0.97753
 C1662 C 0.25710 0.13586 0.98305
 C1663 C 0.26323 0.17184 0.92127
 C1664 C 0.25111 0.18923 0.91508
 C1665 C 0.25226 0.19721 0.89178
 C1666 C 0.25105 0.22016 0.88759
 C1667 C 0.25188 0.22805 0.86571
 C1668 C 0.25330 0.21306 0.84759
 C1669 C 0.25409 0.19003 0.85180
 C1670 C 0.25374 0.18217 0.87369
 H1671 H 0.29252 0.12865 0.97507
 H1672 H 0.29542 0.14948 0.94072
 H1673 H 0.22758 0.17268 0.95332
 H1674 H 0.22420 0.15096 0.98756
 H1675 H 0.27513 0.16429 0.90915
 H1676 H 0.24080 0.19843 0.92738
 H1677 H 0.24967 0.23201 0.90128
 H1678 H 0.25098 0.24589 0.86297
 H1679 H 0.25510 0.17810 0.83817
 H1680 H 0.25417 0.16432 0.87646
 C1681 C 0.74306 0.65924 0.47447
 C1682 C 0.74252 0.67256 0.45543
 C1683 C 0.75461 0.66642 0.43563
 C1684 C 0.76741 0.64682 0.43529
 C1685 C 0.76797 0.63358 0.45422
 C1686 C 0.75663 0.63997 0.47459
 C1687 C 0.75375 0.68061 0.41556
 C1688 C 0.75577 0.67196 0.39491
 C1689 C 0.75572 0.68528 0.37423
 C1690 C 0.75033 0.67437 0.35460
 C1691 C 0.75105 0.68577 0.33440
 C1692 C 0.75748 0.70838 0.33327
 C1693 C 0.76302 0.71936 0.35293
 C1694 C 0.76213 0.70793 0.37325
 H1695 H 0.73285 0.66405 0.48920
 H1696 H 0.73226 0.68745 0.45604
 H1697 H 0.77716 0.64160 0.42041
 H1698 H 0.77720 0.61811 0.45256
 H1699 H 0.75049 0.69826 0.41795
 H1700 H 0.75670 0.65400 0.39287
 H1701 H 0.74556 0.65688 0.35486
 H1702 H 0.74678 0.67672 0.31961
 H1703 H 0.76809 0.73675 0.35262
 H1704 H 0.76699 0.71672 0.38796
 C1705 C 0.22271 0.84215 0.47670
 C1706 C 0.22096 0.82980 0.45704
 C1707 C 0.23482 0.83465 0.43798
 C1708 C 0.25063 0.85201 0.43905
 C1709 C 0.25239 0.86428 0.45861
 C1710 C 0.23914 0.85904 0.47819
 C1711 C 0.23298 0.82113 0.41740
 C1712 C 0.23806 0.82957 0.39704
 C1713 C 0.23889 0.81670 0.37581
 C1714 C 0.24813 0.82736 0.35661
 C1715 C 0.25027 0.81613 0.33623
 C1716 C 0.24309 0.79385 0.33440
 C1717 C 0.23342 0.78317 0.35350
 C1718 C 0.23136 0.79444 0.37402
 H1719 H 0.21126 0.83842 0.49088
 H1720 H 0.20849 0.81664 0.45661
 H1721 H 0.26192 0.85609 0.42487
 H1722 H 0.26415 0.87807 0.45814
 H1723 H 0.22740 0.80403 0.41938
 H1724 H 0.24252 0.84709 0.39568
 H1725 H 0.25402 0.84448 0.35738
 H1726 H 0.25764 0.82500 0.32190
 H1727 H 0.22762 0.76604 0.35264
 H1728 H 0.22386 0.78558 0.38823
 C1729 C 0.72852 0.34379 0.97905
 C1730 C 0.72607 0.33187 0.95927
 C1731 C 0.73903 0.33734 0.93978
 C1732 C 0.75463 0.35490 0.94054
 C1733 C 0.75712 0.36674 0.96025
 C1734 C 0.74478 0.36088 0.98021
 C1735 C 0.73653 0.32406 0.91918
 C1736 C 0.74089 0.33258 0.89872
 C1737 C 0.74090 0.31953 0.87765
 C1738 C 0.75116 0.32914 0.85831
 C1739 C 0.75259 0.31741 0.83816
 C1740 C 0.74364 0.29573 0.83676
 C1741 C 0.73281 0.28628 0.85596
 C1742 C 0.73141 0.29803 0.87618
 H1743 H 0.71776 0.33957 0.99359
 H1744 H 0.71379 0.31852 0.95910
 H1745 H 0.76522 0.35946 0.92600
 H1746 H 0.76867 0.38070 0.95957
 H1747 H 0.73119 0.30689 0.92125
 H1748 H 0.74551 0.35003 0.89717
 H1749 H 0.75849 0.34571 0.85887
 H1750 H 0.76093 0.32531 0.82372
 H1751 H 0.72556 0.26969 0.85544
 H1752 H 0.72283 0.29014 0.89043
 C1753 C 0.84593 0.47768 0.23711
 C1754 C 0.83227 0.45873 0.23645
 C1755 C 0.83163 0.44321 0.25382
 C1756 C 0.84340 0.44805 0.27279
 C1757 C 0.85700 0.46707 0.27352
 C1758 C 0.85974 0.48150 0.25500
 C1759 C 0.81888 0.42209 0.25146
 C1760 C 0.82507 0.40293 0.26075
 C1761 C 0.81442 0.38088 0.25702
 C1762 C 0.82651 0.36163 0.26170
 C1763 C 0.81730 0.34042 0.25894
 C1764 C 0.79558 0.33785 0.25154
 C1765 C 0.78341 0.35712 0.24675
 C1766 C 0.79269 0.37844 0.24950
 H1767 H 0.84656 0.48895 0.22304
 H1768 H 0.82282 0.45579 0.22192
 H1769 H 0.84212 0.43716 0.28714
 H1770 H 0.86529 0.47020 0.28867
 H1771 H 0.80557 0.42202 0.24009
 H1772 H 0.83974 0.40297 0.27043
 H1773 H 0.84324 0.36297 0.26756
 H1774 H 0.82719 0.32602 0.26287
 H1775 H 0.76657 0.35578 0.24122
 H1776 H 0.78258 0.39283 0.24619
 C1777 C 0.36558 0.95619 0.77651
 C1778 C 0.35358 0.93620 0.77706
 C1779 C 0.33229 0.93504 0.76882
 C1780 C 0.32275 0.95460 0.76081
 C1781 C 0.33465 0.97483 0.76054
 C1782 C 0.35644 0.97614 0.76836
 C1783 C 0.32101 0.91299 0.76863
 C1784 C 0.30648 0.90697 0.75359
 C1785 C 0.29715 0.88404 0.75234
 C1786 C 0.27633 0.88087 0.74327
 C1787 C 0.26699 0.85949 0.74193
 C1788 C 0.27844 0.84073 0.74940
 C1789 C 0.29961 0.84385 0.75788
 C1790 C 0.30890 0.86523 0.75926
 H1791 H 0.38260 0.95571 0.78163
 H1792 H 0.36140 0.92133 0.78317
 H1793 H 0.30609 0.95439 0.75475
 H1794 H 0.32669 0.98918 0.75375
 H1795 H 0.32602 0.90089 0.78065
 H1796 H 0.30123 0.91905 0.74166
 H1797 H 0.26710 0.89503 0.73751
 H1798 H 0.25071 0.85771 0.73517
 H1799 H 0.30900 0.82979 0.76358
 H1800 H 0.32542 0.86684 0.76547
 C1801 C 0.13917 0.96168 0.27195
 C1802 C 0.15077 0.94166 0.27341
 C1803 C 0.16503 0.93415 0.25564
 C1804 C 0.16863 0.94781 0.23679
 C1805 C 0.15683 0.96783 0.23524
 C1806 C 0.14052 0.97427 0.25206
 C1807 C 0.17434 0.91137 0.25678
 C1808 C 0.19338 0.90488 0.24580
 C1809 C 0.20151 0.88167 0.24703
 C1810 C 0.22453 0.87773 0.24766
 C1811 C 0.23256 0.85593 0.24906
 C1812 C 0.21773 0.83761 0.24924
 C1813 C 0.19470 0.84153 0.24808
 C1814 C 0.18663 0.86337 0.24714
 H1815 H 0.12891 0.96684 0.28648
 H1816 H 0.14831 0.93179 0.28844
 H1817 H 0.17965 0.94261 0.22277
 H1818 H 0.15936 0.97767 0.22021
 H1819 H 0.16527 0.89955 0.26762
 H1820 H 0.20387 0.91698 0.23670
 H1821 H 0.23628 0.89158 0.24739
 H1822 H 0.25044 0.85339 0.24966
 H1823 H 0.18291 0.82773 0.24810
 H1824 H 0.16881 0.86593 0.24613
 C1825 C 0.63908 0.46131 0.76176
 C1826 C 0.65001 0.44118 0.76500
 C1827 C 0.66480 0.43224 0.74839
 C1828 C 0.66926 0.44443 0.72866
 C1829 C 0.65801 0.46455 0.72526
 C1830 C 0.64151 0.47266 0.74113
 C1831 C 0.67393 0.40962 0.75183
 C1832 C 0.69381 0.40253 0.74305
 C1833 C 0.70194 0.37954 0.74679
 C1834 C 0.72491 0.37579 0.74849
 C1835 C 0.73297 0.35416 0.75162
 C1836 C 0.71823 0.33575 0.75255
 C1837 C 0.69523 0.33952 0.75072
 C1838 C 0.68715 0.36116 0.74798
 H1839 H 0.62873 0.46769 0.77570
 H1840 H 0.64683 0.43248 0.78066
 H1841 H 0.68072 0.43807 0.71551
 H1842 H 0.66148 0.47339 0.70974
 H1843 H 0.66408 0.39862 0.76290
 H1844 H 0.70486 0.41405 0.73381
 H1845 H 0.73664 0.38965 0.74747
 H1846 H 0.75081 0.35178 0.75271
 H1847 H 0.68345 0.32569 0.75127
 H1848 H 0.66940 0.36340 0.74620
 C1849 C 0.65782 0.51848 0.75406
 C1850 C 0.67165 0.53741 0.75449
 C1851 C 0.67420 0.55142 0.73591
 C1852 C 0.66472 0.54489 0.71614
 C1853 C 0.65126 0.52580 0.71557
 C1854 C 0.64589 0.51329 0.73511
 C1855 C 0.68614 0.57305 0.73755
 C1856 C 0.67824 0.59167 0.72855
 C1857 C 0.68818 0.61411 0.73142
 C1858 C 0.67396 0.63272 0.73271
 C1859 C 0.68268 0.65425 0.73503
 C1860 C 0.70590 0.65768 0.73547
 C1861 C 0.72022 0.63908 0.73380
 C1862 C 0.71143 0.61744 0.73200
 H1863 H 0.65532 0.50859 0.76905
 H1864 H 0.67943 0.54171 0.76973
 H1865 H 0.66755 0.55472 0.70114
 H1866 H 0.64488 0.52134 0.69974
 H1867 H 0.70016 0.57409 0.74806
 H1868 H 0.66274 0.59076 0.72015
 H1869 H 0.65601 0.63056 0.73211
 H1870 H 0.67126 0.66827 0.73609
 H1871 H 0.73819 0.64126 0.73409
 H1872 H 0.72283 0.60343 0.73059
 C1873 C 0.15424 0.02034 0.26610
 C1874 C 0.16785 0.03941 0.26639
 C1875 C 0.16979 0.05362 0.24793
 C1876 C 0.15953 0.04740 0.22849
 C1877 C 0.14627 0.02816 0.22805
 C1878 C 0.14194 0.01511 0.24741
 C1879 C 0.18253 0.07480 0.24921
 C1880 C 0.17557 0.09364 0.23988
 C1881 C 0.18708 0.11543 0.24190
 C1882 C 0.17431 0.13506 0.24241
 C1883 C 0.18463 0.15597 0.24399
 C1884 C 0.20803 0.15767 0.24452
 C1885 C 0.22087 0.13802 0.24363
 C1886 C 0.21050 0.11708 0.24249
 H1887 H 0.15251 0.01009 0.28090
 H1888 H 0.17623 0.04348 0.28135
 H1889 H 0.16186 0.05738 0.21354
 H1890 H 0.13952 0.02382 0.21237
 H1891 H 0.19674 0.07529 0.25952
 H1892 H 0.15995 0.09347 0.23165
 H1893 H 0.15626 0.13420 0.24177
 H1894 H 0.17432 0.17082 0.24446
 H1895 H 0.23895 0.13883 0.24400
 H1896 H 0.22083 0.10226 0.24161
 C1897 C 0.34991 0.03025 0.78722
 C1898 C 0.33732 0.04979 0.78775
 C1899 C 0.33012 0.05898 0.76817
 C1900 C 0.33448 0.04741 0.74803
 C1901 C 0.34668 0.02744 0.74752
 C1902 C 0.35574 0.01885 0.76697
 C1903 C 0.31802 0.08050 0.76964
 C1904 C 0.32044 0.09625 0.75389
 C1905 C 0.31066 0.11891 0.75676
 C1906 C 0.32137 0.13696 0.74567
 C1907 C 0.31273 0.15858 0.74805
 C1908 C 0.29295 0.16261 0.76138
 C1909 C 0.28216 0.14448 0.77241
 C1910 C 0.29088 0.12289 0.77012
 H1911 H 0.35504 0.02470 0.80304
 H1912 H 0.33371 0.05815 0.80359
 H1913 H 0.32830 0.05364 0.73271
 H1914 H 0.34925 0.01882 0.73171
 H1915 H 0.30886 0.08435 0.78529
 H1916 H 0.33152 0.09314 0.73925
 H1917 H 0.33656 0.13433 0.73520
 H1918 H 0.32137 0.17206 0.73911
 H1919 H 0.26677 0.14689 0.78262
 H1920 H 0.28179 0.10932 0.77845
 C1921 C 0.84586 0.52738 0.27174
 C1922 C 0.83274 0.54668 0.27228
 C1923 C 0.83354 0.56119 0.25403
 C1924 C 0.84623 0.55501 0.23453
 C1925 C 0.85937 0.53578 0.23400
 C1926 C 0.86066 0.52236 0.25315
 C1927 C 0.82112 0.58258 0.25579
 C1928 C 0.82807 0.60082 0.24438
 C1929 C 0.81724 0.62305 0.24652
 C1930 C 0.82957 0.64177 0.23878
 C1931 C 0.82017 0.66306 0.23994
 C1932 C 0.79807 0.66621 0.24877
 C1933 C 0.78564 0.64747 0.25652
 C1934 C 0.79508 0.62610 0.25535
 H1935 H 0.84523 0.51675 0.28630
 H1936 H 0.82247 0.55062 0.28726
 H1937 H 0.84600 0.56494 0.21956
 H1938 H 0.86833 0.53161 0.21838
 H1939 H 0.80713 0.58366 0.26806
 H1940 H 0.84335 0.59991 0.23374
 H1941 H 0.84662 0.63992 0.23180
 H1942 H 0.83026 0.67705 0.23376
 H1943 H 0.76852 0.64926 0.26327
 H1944 H 0.78478 0.61209 0.26098
 C1945 C 0.98925 0.26438 0.15957
 C1946 C 0.96863 0.26631 0.17188
 C1947 C 0.94849 0.26127 0.16212
 C1948 C 0.94931 0.25504 0.13955
 C1949 C 0.96975 0.25295 0.12738
 C1950 C 0.99022 0.25693 0.13721
 C1951 C 0.92685 0.26366 0.17541
 C1952 C 0.90832 0.25245 0.17037
 C1953 C 0.88594 0.25507 0.18210
 C1954 C 0.86723 0.24753 0.17123
 C1955 C 0.84577 0.24868 0.18168
 C1956 C 0.84248 0.25727 0.20342
 C1957 C 0.86118 0.26511 0.21427
 C1958 C 0.88272 0.26401 0.20375
 H1959 H 1.00420 0.26931 0.16754
 H1960 H 0.96841 0.27189 0.18905
 H1961 H 0.93422 0.25231 0.13089
 H1962 H 0.96962 0.24834 0.10995
 H1963 H 0.92640 0.27496 0.18952
 H1964 H 0.90926 0.24079 0.15655
 H1965 H 0.86922 0.24056 0.15457
 H1966 H 0.83181 0.24243 0.17281
 H1967 H 0.85927 0.27169 0.23108
 H1968 H 0.89669 0.26959 0.21291
 C1969 C 0.47112 0.74118 0.66800
 C1970 C 0.45013 0.74094 0.67982
 C1971 C 0.43042 0.74471 0.66887
 C1972 C 0.43209 0.74812 0.64573
 C1973 C 0.45285 0.74816 0.63400
 C1974 C 0.47286 0.74590 0.64499
 C1975 C 0.40862 0.74634 0.68203
 C1976 C 0.38886 0.74389 0.67283
 C1977 C 0.36666 0.74766 0.68459
 C1978 C 0.34758 0.74051 0.67408
 C1979 C 0.32617 0.74403 0.68401
 C1980 C 0.32328 0.75485 0.70478
 C1981 C 0.34234 0.76242 0.71517
 C1982 C 0.36382 0.75897 0.70516
 H1983 H 0.48577 0.73773 0.67701
 H1984 H 0.44929 0.73795 0.69760
 H1985 H 0.41758 0.75165 0.63652
 H1986 H 0.45344 0.75111 0.61621
 H1987 H 0.40910 0.74965 0.69968
 H1988 H 0.38866 0.73851 0.65566
 H1989 H 0.34922 0.73201 0.65812
 H1990 H 0.31191 0.73791 0.67552
 H1991 H 0.34071 0.77089 0.73114
 H1992 H 0.37797 0.76541 0.71353
 C1993 C 0.47868 0.25380 0.83791
 C1994 C 0.45979 0.25333 0.82532
 C1995 C 0.43822 0.25167 0.83575
 C1996 C 0.43586 0.25053 0.85912
 C1997 C 0.45463 0.25110 0.87167
 C1998 C 0.47649 0.25179 0.86136
 C1999 C 0.41854 0.25060 0.82197
 C2000 C 0.39819 0.25748 0.82970
 C2001 C 0.37757 0.25585 0.81737
 C2002 C 0.35877 0.26775 0.82583
 C2003 C 0.33844 0.26598 0.81592
 C2004 C 0.33628 0.25216 0.79720
 C2005 C 0.35515 0.24035 0.78845
 C2006 C 0.37562 0.24208 0.79849
 H2007 H 0.49480 0.25602 0.82905
 H2008 H 0.46202 0.25455 0.80734
 H2009 H 0.41960 0.24869 0.86788
 H2010 H 0.45217 0.25023 0.88965
 H2011 H 0.42120 0.24466 0.80500
 H2012 H 0.39641 0.26530 0.84598
 H2013 H 0.35973 0.27839 0.84037
 H2014 H 0.32434 0.27545 0.82308
 H2015 H 0.35400 0.22950 0.77410
 H2016 H 0.38955 0.23221 0.79172
 C2017 C 0.95701 0.75666 0.37578
 C2018 C 0.93712 0.75953 0.36536
 C2019 C 0.93695 0.75892 0.34216
 C2020 C 0.95735 0.75654 0.32942
 C2021 C 0.97752 0.75415 0.33988
 C2022 C 0.97762 0.75325 0.36336
 C2023 C 0.91515 0.76111 0.33211
 C2024 C 0.91002 0.75011 0.31363
 C2025 C 0.88726 0.75008 0.30502
 C2026 C 0.88483 0.74356 0.28286
 C2027 C 0.86368 0.74300 0.27417
 C2028 C 0.84440 0.74889 0.28752
 C2029 C 0.84677 0.75502 0.30982
 C2030 C 0.86788 0.75547 0.31853
 H2031 H 0.95627 0.75659 0.39382
 H2032 H 0.92166 0.76168 0.37555
 H2033 H 0.95779 0.75694 0.31140
 H2034 H 0.99278 0.75318 0.32935
 H2035 H 0.90257 0.77096 0.34132
 H2036 H 0.92285 0.74033 0.30460
 H2037 H 0.89938 0.73904 0.27216
 H2038 H 0.86249 0.73817 0.25691
 H2039 H 0.83227 0.75937 0.32066
 H2040 H 0.86871 0.75966 0.33595
 C2041 C 0.02376 0.73001 0.34575
 C2042 C 0.04394 0.72720 0.33282
 C2043 C 0.06191 0.74200 0.33510
 C2044 C 0.05976 0.75890 0.35124
 C2045 C 0.03992 0.76145 0.36437
 C2046 C 0.02097 0.74774 0.36130
 C2047 C 0.08342 0.73893 0.32185
 C2048 C 0.09604 0.75646 0.31491
 C2049 C 0.11896 0.75447 0.30433
 C2050 C 0.12690 0.77099 0.28930
 C2051 C 0.14907 0.77067 0.28040
 C2052 C 0.16394 0.75415 0.28687
 C2053 C 0.15603 0.73766 0.30201
 C2054 C 0.13370 0.73771 0.31054
 H2055 H 0.01022 0.71825 0.34370
 H2056 H 0.04548 0.71354 0.32095
 H2057 H 0.07378 0.76976 0.35434
 H2058 H 0.04012 0.77393 0.37736
 H2059 H 0.08891 0.72208 0.31784
 H2060 H 0.08932 0.77317 0.31710
 H2061 H 0.11591 0.78424 0.28452
 H2062 H 0.15473 0.78364 0.26883
 H2063 H 0.16709 0.72467 0.30721
 H2064 H 0.12823 0.72508 0.32255
 C2065 C 0.52470 0.23311 0.84826
 C2066 C 0.54574 0.23140 0.83683
 C2067 C 0.56230 0.24754 0.83991
 C2068 C 0.55787 0.26482 0.85532
 C2069 C 0.53708 0.26634 0.86698
 C2070 C 0.51961 0.25109 0.86302
 C2071 C 0.58464 0.24534 0.82824
 C2072 C 0.59703 0.26321 0.82200
 C2073 C 0.62025 0.26135 0.81242
 C2074 C 0.62840 0.27698 0.79656
 C2075 C 0.65050 0.27576 0.78759
 C2076 C 0.66497 0.25926 0.79485
 C2077 C 0.65693 0.24401 0.81118
 C2078 C 0.63475 0.24496 0.81980
 H2079 H 0.51226 0.22032 0.84561
 H2080 H 0.54907 0.21751 0.82551
 H2081 H 0.57079 0.27677 0.85902
 H2082 H 0.53529 0.27925 0.87955
 H2083 H 0.59087 0.22868 0.82452
 H2084 H 0.58985 0.27978 0.82362
 H2085 H 0.61754 0.28994 0.79091
 H2086 H 0.65632 0.28779 0.77509
 H2087 H 0.66770 0.23106 0.81703
 H2088 H 0.62908 0.23310 0.83250
 C2089 C 0.51783 0.76480 0.66228
 C2090 C 0.53751 0.76685 0.67361
 C2091 C 0.55639 0.75407 0.66708
 C2092 C 0.55574 0.74018 0.64833
 C2093 C 0.53636 0.73844 0.63683
 C2094 C 0.51650 0.74974 0.64423
 C2095 C 0.57715 0.75612 0.67899
 C2096 C 0.59017 0.73837 0.68203
 C2097 C 0.61218 0.73996 0.69168
 C2098 C 0.61961 0.72205 0.70419
 C2099 C 0.64091 0.72254 0.71247
 C2100 C 0.65540 0.74068 0.70778
 C2101 C 0.64808 0.75848 0.69498
 C2102 C 0.62659 0.75822 0.68713
 H2103 H 0.50360 0.77501 0.66768
 H2104 H 0.53793 0.77829 0.68760
 H2105 H 0.57050 0.73111 0.64212
 H2106 H 0.53729 0.72835 0.62184
 H2107 H 0.58160 0.77232 0.68553
 H2108 H 0.58440 0.72187 0.67747
 H2109 H 0.60886 0.70769 0.70760
 H2110 H 0.64620 0.70856 0.72221
 H2111 H 0.65892 0.77270 0.69122
 H2112 H 0.62149 0.77199 0.67702
 C2113 C 0.05229 0.27056 0.12694
 C2114 C 0.07240 0.27027 0.13746
 C2115 C 0.07518 0.25618 0.15558
 C2116 C 0.05715 0.24245 0.16320
 C2117 C 0.03693 0.24278 0.15268
 C2118 C 0.03380 0.25733 0.13475
 C2119 C 0.09712 0.25651 0.16584
 C2120 C 0.10458 0.23994 0.17830
 C2121 C 0.12671 0.24058 0.18812
 C2122 C 0.12950 0.22843 0.20761
 C2123 C 0.14999 0.22868 0.21754
 C2124 C 0.16833 0.24088 0.20801
 C2125 C 0.16572 0.25262 0.18815
 C2126 C 0.14514 0.25247 0.17829
 H2127 H 0.05166 0.28081 0.11224
 H2128 H 0.08611 0.28076 0.13100
 H2129 H 0.05839 0.23149 0.17729
 H2130 H 0.02362 0.23154 0.15855
 H2131 H 0.10766 0.27102 0.16252
 H2132 H 0.09414 0.22546 0.18197
 H2133 H 0.11567 0.21893 0.21536
 H2134 H 0.15143 0.21926 0.23271
 H2135 H 0.17954 0.26202 0.18027
 H2136 H 0.14389 0.26139 0.16282
 C2137 C -0.08418 0.98867 0.77982
 C2138 C -0.07154 0.98735 0.79863
 C2139 C -0.08204 0.98785 0.82017
 C2140 C -0.10555 0.98817 0.82251
 C2141 C -0.11812 0.98964 0.80386
 C2142 C -0.10773 0.99098 0.78215
 C2143 C -0.06826 0.98770 0.83989
 C2144 C -0.07549 0.99703 0.85939
 C2145 C -0.06296 0.99759 0.87995
 C2146 C -0.07168 1.01073 0.89782
 C2147 C -0.06130 1.01146 0.91792
 C2148 C -0.04182 0.99904 0.92078
 C2149 C -0.03290 0.98593 0.90289
 C2150 C -0.04339 0.98512 0.88269
 H2151 H -0.07532 0.98774 0.76363
 H2152 H -0.05346 0.98623 0.79634
 H2153 H -0.11442 0.98721 0.83873
 H2154 H -0.13621 0.99024 0.80638
 H2155 H -0.05159 0.98079 0.83776
 H2156 H -0.09150 1.00547 0.86038
 H2157 H -0.08675 1.02045 0.89629
 H2158 H -0.06867 1.02178 0.93128
 H2159 H -0.01799 0.97603 0.90458
 H2160 H -0.03626 0.97445 0.86957
 C2161 C 0.41149 0.51307 0.27003
 C2162 C 0.42467 0.51495 0.28849
 C2163 C 0.42016 0.50161 0.30738
 C2164 C 0.40263 0.48600 0.30724
 C2165 C 0.38959 0.48408 0.28895
 C2166 C 0.39409 0.49704 0.26951
 C2167 C 0.43363 0.50408 0.32718
 C2168 C 0.42447 0.50102 0.34794
 C2169 C 0.43689 0.50201 0.36849
 C2170 C 0.42470 0.50605 0.38880
 C2171 C 0.43520 0.50575 0.40887
 C2172 C 0.45820 0.50105 0.40921
 C2173 C 0.47048 0.49693 0.38887
 C2174 C 0.45996 0.49746 0.36867
 H2175 H 0.41477 0.52433 0.25616
 H2176 H 0.43799 0.52728 0.28825
 H2177 H 0.39878 0.47521 0.32137
 H2178 H 0.37552 0.47271 0.29069
 H2179 H 0.45099 0.50919 0.32461
 H2180 H 0.40656 0.49818 0.35022
 H2181 H 0.40688 0.50938 0.38917
 H2182 H 0.42517 0.50892 0.42418
 H2183 H 0.48822 0.49326 0.38854
 H2184 H 0.46977 0.49372 0.35339
 C2185 C 0.58382 0.00721 0.27380
 C2186 C 0.57089 0.00633 0.29394
 C2187 C 0.57907 -0.00407 0.31250
 C2188 C 0.59999 -0.01463 0.31024
 C2189 C 0.61291 -0.01388 0.29010
 C2190 C 0.60523 -0.00298 0.27121
 C2191 C 0.56570 -0.00313 0.33404
 C2192 C 0.57525 -0.00238 0.35362
 C2193 C 0.56261 -0.00101 0.37557
 C2194 C 0.57353 -0.00735 0.39449
 C2195 C 0.56245 -0.00651 0.41559
 C2196 C 0.54016 0.00090 0.41832
 C2197 C 0.52934 0.00779 0.39944
 C2198 C 0.54045 0.00689 0.37827
 H2199 H 0.57746 0.01718 0.26067
 H2200 H 0.55485 0.01476 0.29530
 H2201 H 0.60659 -0.02338 0.32409
 H2202 H 0.62917 -0.02153 0.28990
 H2203 H 0.54769 -0.00217 0.33349
 H2204 H 0.59334 -0.00300 0.35377
 H2205 H 0.59067 -0.01325 0.39292
 H2206 H 0.57137 -0.01182 0.42975
 H2207 H 0.51224 0.01376 0.40097
 H2208 H 0.53165 0.01266 0.36424
 C2209 C 0.12163 0.51053 0.77900
 C2210 C 0.11132 0.51159 0.80035
 C2211 C 0.08970 0.50323 0.80482
 C2212 C 0.07844 0.49363 0.78727
 C2213 C 0.08884 0.49250 0.76569
 C2214 C 0.11062 0.50139 0.76086
 C2215 C 0.08057 0.50348 0.82832
 C2216 C 0.05876 0.50206 0.83480
 C2217 C 0.05072 0.50307 0.85864
 C2218 C 0.02947 0.51190 0.86446
 C2219 C 0.02153 0.51329 0.88681
 C2220 C 0.03459 0.50558 0.90386
 C2221 C 0.05578 0.49647 0.89798
 C2222 C 0.06373 0.49515 0.87565
 H2223 H 0.13866 0.51641 0.77727
 H2224 H 0.12062 0.51864 0.81363
 H2225 H 0.06206 0.48609 0.79028
 H2226 H 0.08015 0.48357 0.75314
 H2227 H 0.09254 0.50612 0.84087
 H2228 H 0.04637 0.50156 0.82244
 H2229 H 0.01906 0.51795 0.85169
 H2230 H 0.00503 0.52023 0.89067
 H2231 H 0.06618 0.49010 0.91061
 H2232 H 0.07990 0.48753 0.87178
 C2233 C 0.08802 0.50733 0.71685
 C2234 C 0.07520 0.50611 0.69813
 C2235 C 0.08168 0.49214 0.68014
 C2236 C 0.10022 0.47822 0.68196
 C2237 C 0.11301 0.47944 0.70050
 C2238 C 0.10788 0.49466 0.71823
 C2239 C 0.06910 0.49228 0.65961
 C2240 C 0.07931 0.48840 0.63941
 C2241 C 0.06800 0.48873 0.61817
 C2242 C 0.08114 0.49238 0.59833
 C2243 C 0.07149 0.49236 0.57779
 C2244 C 0.04842 0.48836 0.57652
 C2245 C 0.03526 0.48434 0.59636
 C2246 C 0.04492 0.48456 0.61699
 H2247 H 0.08267 0.51885 0.73004
 H2248 H 0.06059 0.51666 0.69743
 H2249 H 0.10502 0.46629 0.66895
 H2250 H 0.12700 0.46822 0.70023
 H2251 H 0.05163 0.49704 0.66109
 H2252 H 0.09728 0.48593 0.63808
 H2253 H 0.09899 0.49540 0.59873
 H2254 H 0.08216 0.49541 0.56287
 H2255 H 0.01744 0.48118 0.59598
 H2256 H 0.03437 0.48110 0.63187
 C2257 C 0.58682 0.99265 0.22607
 C2258 C 0.57587 0.99373 0.20631
 C2259 C 0.58556 1.00509 0.18785
 C2260 C 0.60608 1.01613 0.18979
 C2261 C 0.61702 1.01516 0.20959
 C2262 C 0.60765 1.00355 0.22844
 C2263 C 0.57392 1.00473 0.16686
 C2264 C 0.58472 1.00619 0.14667
 C2265 C 0.57328 1.00467 0.12558
 C2266 C 0.58366 1.01417 0.10627
 C2267 C 0.57342 1.01310 0.08604
 C2268 C 0.55261 1.00230 0.08467
 C2269 C 0.54249 0.99232 0.10391
 C2270 C 0.55272 0.99339 0.12411
 H2271 H 0.57934 0.98220 0.23918
 H2272 H 0.56013 0.98488 0.20518
 H2273 H 0.61385 1.02555 0.17604
 H2274 H 0.63307 1.02336 0.20958
 H2275 H 0.55595 1.00228 0.16829
 H2276 H 0.60270 1.00863 0.14530
 H2277 H 0.59963 1.02269 0.10691
 H2278 H 0.58174 1.02089 0.07154
 H2279 H 0.52661 0.98361 0.10342
 H2280 H 0.54459 0.98505 0.13836
 C2281 C 0.37684 0.49464 0.20787
 C2282 C 0.38632 0.49427 0.18615
 C2283 C 0.40957 0.49338 0.18197
 C2284 C 0.42317 0.49146 0.20015
 C2285 C 0.41360 0.49161 0.22211
 C2286 C 0.39026 0.49435 0.22639
 C2287 C 0.41855 0.49410 0.15839
 C2288 C 0.43930 0.50099 0.15178
 C2289 C 0.44721 0.50341 0.12791
 C2290 C 0.46600 0.51694 0.12241
 C2291 C 0.47402 0.51962 0.10019
 C2292 C 0.46340 0.50881 0.08288
 C2293 C 0.44460 0.49528 0.08837
 C2294 C 0.43673 0.49243 0.11056
 H2295 H 0.35878 0.49597 0.21033
 H2296 H 0.37536 0.49523 0.17250
 H2297 H 0.44113 0.48956 0.19752
 H2298 H 0.42462 0.48947 0.23547
 H2299 H 0.40669 0.49051 0.14600
 H2300 H 0.45054 0.50642 0.16417
 H2301 H 0.47451 0.52550 0.13537
 H2302 H 0.48864 0.53006 0.09659
 H2303 H 0.43627 0.48633 0.07553
 H2304 H 0.42275 0.48118 0.11389
 C2305 C -0.09424 0.01390 0.73603
 C2306 C -0.08339 0.01784 0.71507
 C2307 C -0.08830 0.00475 0.69658
 C2308 C -0.10402 -0.01264 0.69962
 C2309 C -0.11488 -0.01654 0.72046
 C2310 C -0.10978 -0.00381 0.73939
 C2311 C -0.07651 0.00925 0.67453
 C2312 C -0.08530 0.00380 0.65518
 C2313 C -0.07380 0.00649 0.63267
 C2314 C -0.08616 0.00206 0.61402
 C2315 C -0.07601 0.00285 0.59247
 C2316 C -0.05314 0.00814 0.58894
 C2317 C -0.04080 0.01302 0.60754
 C2318 C -0.05094 0.01211 0.62916
 H2319 H -0.09054 0.02480 0.74976
 H2320 H -0.07140 0.03143 0.71322
 H2321 H -0.10802 -0.02347 0.68598
 H2322 H -0.12767 -0.02936 0.72129
 H2323 H -0.06052 0.01773 0.67452
 H2324 H -0.10213 -0.00298 0.65564
 H2325 H -0.10376 -0.00236 0.61613
 H2326 H -0.08608 -0.00094 0.57857
 H2327 H -0.02312 0.01706 0.60545
 H2328 H -0.04058 0.01533 0.64290
 C2329 C -0.20605 0.87393 0.99008
 C2330 C -0.18561 0.88504 0.99052
 C2331 C -0.18477 0.90785 0.99558
 C2332 C -0.20496 0.91933 1.00059
 C2333 C -0.22557 0.90814 1.00016
 C2334 C -0.22653 0.88532 0.99420
 C2335 C -0.16241 0.91831 0.99693
 C2336 C -0.15840 0.94036 0.99628
 C2337 C -0.13551 0.94960 0.99788
 C2338 C -0.12966 0.96989 0.98742
 C2339 C -0.10794 0.97859 0.98828
 C2340 C -0.09173 0.96717 0.99977
 C2341 C -0.09783 0.94714 1.01069
 C2342 C -0.11947 0.93854 1.00990
 H2343 H -0.20593 0.85616 0.98657
 H2344 H -0.17032 0.87563 0.98712
 H2345 H -0.20495 0.93669 1.00564
 H2346 H -0.24056 0.91732 1.00530
 H2347 H -0.14839 0.90700 0.99763
 H2348 H -0.17180 0.95188 0.99339
 H2349 H -0.14180 0.97885 0.97829
 H2350 H -0.10382 0.99414 0.97980
 H2351 H -0.08594 0.93810 1.02006
 H2352 H -0.12359 0.92336 1.01899
 C2353 C 0.29708 0.37083 0.49155
 C2354 C 0.31772 0.38169 0.49131
 C2355 C 0.32033 0.40134 0.50353
 C2356 C 0.30201 0.40943 0.51698
 C2357 C 0.28129 0.39825 0.51755
 C2358 C 0.27802 0.37944 0.50381
 C2359 C 0.34279 0.41193 0.50266
 C2360 C 0.34632 0.43393 0.50502
 C2361 C 0.36916 0.44384 0.50250
 C2362 C 0.37205 0.46570 0.49440
 C2363 C 0.39352 0.47515 0.49139
 C2364 C 0.41254 0.46298 0.49669
 C2365 C 0.40951 0.44124 0.50517
 C2366 C 0.38815 0.43183 0.50813
 H2367 H 0.29636 0.35535 0.48228
 H2368 H 0.33179 0.37463 0.48146
 H2369 H 0.30380 0.42399 0.52747
 H2370 H 0.26767 0.40444 0.52858
 H2371 H 0.35689 0.40119 0.49810
 H2372 H 0.33215 0.44510 0.50730
 H2373 H 0.35767 0.47537 0.49012
 H2374 H 0.39519 0.49202 0.48503
 H2375 H 0.42368 0.43143 0.50974
 H2376 H 0.38657 0.41524 0.51514
 C2377 C 0.26981 0.59012 0.01196
 C2378 C 0.28961 0.57810 0.01424
 C2379 C 0.30998 0.58545 0.00385
 C2380 C 0.30997 0.60455 -0.00962
 C2381 C 0.29030 0.61649 -0.01193
 C2382 C 0.26963 0.60938 -0.00152
 C2383 C 0.33098 0.57300 0.00713
 C2384 C 0.35106 0.58324 0.00687
 C2385 C 0.37302 0.57185 0.00814
 C2386 C 0.39256 0.58440 0.00301
 C2387 C 0.41368 0.57448 0.00256
 C2388 C 0.41590 0.55169 0.00741
 C2389 C 0.39643 0.53924 0.01342
 C2390 C 0.37521 0.54917 0.01376
 H2391 H 0.25467 0.58467 0.02123
 H2392 H 0.28916 0.56344 0.02475
 H2393 H 0.32522 0.61048 -0.01835
 H2394 H 0.29162 0.63181 -0.02140
 H2395 H 0.32953 0.55522 0.00992
 H2396 H 0.35170 0.60122 0.00495
 H2397 H 0.39149 0.60192 -0.00121
 H2398 H 0.42828 0.58466 -0.00198
 H2399 H 0.39752 0.52165 0.01732
 H2400 H 0.36074 0.53891 0.01829
 C2401 C -0.23620 0.09188 0.49275
 C2402 C -0.21742 0.07805 0.49349
 C2403 C -0.19989 0.08382 0.50680
 C2404 C -0.20225 0.10264 0.52064
 C2405 C -0.22083 0.11645 0.51989
 C2406 C -0.23806 0.11198 0.50531
 C2407 C -0.17905 0.07046 0.50582
 C2408 C -0.15903 0.08014 0.50812
 C2409 C -0.13745 0.06808 0.50705
 C2410 C -0.11774 0.08026 0.50179
 C2411 C -0.09686 0.06990 0.50130
 C2412 C -0.09519 0.04710 0.50637
 C2413 C -0.11493 0.03490 0.51188
 C2414 C -0.13588 0.04527 0.51219
 H2415 H -0.24888 0.08736 0.48144
 H2416 H -0.21618 0.06333 0.48295
 H2417 H -0.18954 0.10694 0.53199
 H2418 H -0.22097 0.13075 0.53078
 H2419 H -0.18013 0.05288 0.50172
 H2420 H -0.15814 0.09814 0.50988
 H2421 H -0.11849 0.09791 0.49799
 H2422 H -0.08202 0.07983 0.49711
 H2423 H -0.11422 0.01731 0.51590
 H2424 H -0.15068 0.03550 0.51690
 C2425 C 0.70119 0.12719 0.49114
 C2426 C 0.68037 0.11683 0.49034
 C2427 C 0.67661 0.09552 0.49916
 C2428 C 0.69411 0.08484 0.50938
 C2429 C 0.71505 0.09529 0.51032
 C2430 C 0.71942 0.11652 0.50054
 C2431 C 0.65377 0.08595 0.49863
 C2432 C 0.64908 0.06406 0.49976
 C2433 C 0.62590 0.05531 0.49894
 C2434 C 0.62246 0.03371 0.49064
 C2435 C 0.60078 0.02494 0.48992
 C2436 C 0.58206 0.03755 0.49774
 C2437 C 0.58556 0.05917 0.50612
 C2438 C 0.60718 0.06791 0.50682
 H2439 H 0.70237 0.14379 0.48451
 H2440 H 0.66699 0.12572 0.48289
 H2441 H 0.69149 0.06881 0.51739
 H2442 H 0.72754 0.08693 0.51947
 H2443 H 0.64037 0.09759 0.49602
 H2444 H 0.66258 0.05210 0.50015
 H2445 H 0.63660 0.02361 0.48464
 H2446 H 0.59874 0.00817 0.48352
 H2447 H 0.57160 0.06927 0.51255
 H2448 H 0.60915 0.08432 0.51406
 C2449 C 0.20627 0.62470 1.00100
 C2450 C 0.18545 0.61569 0.99699
 C2451 C 0.18358 0.59408 0.98837
 C2452 C 0.20324 0.58158 0.98366
 C2453 C 0.22432 0.59073 0.98758
 C2454 C 0.22618 0.61237 0.99679
 C2455 C 0.16078 0.58598 0.98409
 C2456 C 0.15486 0.56445 0.98232
 C2457 C 0.13115 0.55732 0.98087
 C2458 C 0.12644 0.53649 0.97139
 C2459 C 0.10433 0.52871 0.97112
 C2460 C 0.08644 0.54154 0.98055
 C2461 C 0.09116 0.56254 0.98972
 C2462 C 0.11319 0.57027 0.99002
 H2463 H 0.20688 0.64170 1.00717
 H2464 H 0.17066 0.62583 1.00053
 H2465 H 0.20255 0.56512 0.97626
 H2466 H 0.23907 0.58110 0.98261
 H2467 H 0.14803 0.59868 0.98329
 H2468 H 0.16745 0.55153 0.98245
 H2469 H 0.13993 0.52609 0.96442
 H2470 H 0.10134 0.51238 0.96404
 H2471 H 0.07788 0.57279 0.99736
 H2472 H 0.11601 0.58603 0.99828
 C2473 C 0.23596 0.40459 0.49603
 C2474 C 0.21660 0.41731 0.49399
 C2475 C 0.19524 0.40785 0.49818
 C2476 C 0.19365 0.38533 0.50458
 C2477 C 0.21293 0.37265 0.50661
 C2478 C 0.23455 0.38216 0.50325
 C2479 C 0.17508 0.42198 0.49625
 C2480 C 0.15489 0.41355 0.49212
 C2481 C 0.13420 0.42706 0.49098
 C2482 C 0.11584 0.41751 0.48097
 C2483 C 0.09555 0.42895 0.48054
 C2484 C 0.09305 0.45028 0.49026
 C2485 C 0.11149 0.45996 0.50017
 C2486 C 0.13181 0.44848 0.50060
 H2487 H 0.25188 0.41237 0.49132
 H2488 H 0.21831 0.43454 0.48869
 H2489 H 0.17758 0.37740 0.50838
 H2490 H 0.21100 0.35522 0.51114
 H2491 H 0.17732 0.43987 0.49753
 H2492 H 0.15334 0.39584 0.48879
 H2493 H 0.11712 0.40098 0.47357
 H2494 H 0.08174 0.42092 0.47279
 H2495 H 0.11013 0.47628 0.50798
 H2496 H 0.14528 0.45625 0.50904
 C2497 C 0.71056 0.87846 0.00900
 C2498 C 0.69025 0.88951 0.00810
 C2499 C 0.68823 0.90775 -0.00602
 C2500 C 0.70690 0.91455 -0.01973
 C2501 C 0.72731 0.90323 -0.01907
 C2502 C 0.72982 0.88549 -0.00401
 C2503 C 0.66593 0.91805 -0.00688
 C2504 C 0.66263 0.93954 -0.01170
 C2505 C 0.63983 0.94913 -0.01048
 C2506 C 0.63649 0.97110 -0.00284
 C2507 C 0.61484 0.97987 -0.00005
 C2508 C 0.59614 0.96687 -0.00513
 C2509 C 0.59966 0.94514 -0.01356
 C2510 C 0.62124 0.93640 -0.01627
 H2511 H 0.71075 0.86386 0.01949
 H2512 H 0.67590 0.88354 0.01834
 H2513 H 0.70556 0.92801 -0.03152
 H2514 H 0.74112 0.90812 -0.03056
 H2515 H 0.65163 0.90774 -0.00163
 H2516 H 0.67684 0.95067 -0.01466
 H2517 H 0.65061 0.98127 0.00153
 H2518 H 0.61276 0.99677 0.00624
 H2519 H 0.58573 0.93476 -0.01798
 H2520 H 0.62332 0.91964 -0.02290
 C2521 C -0.02718 0.77342 0.91791
 C2522 C -0.02829 0.79301 0.93077
 C2523 C -0.02453 0.81393 0.92077
 C2524 C -0.02068 0.81500 0.89753
 C2525 C -0.01940 0.79558 0.88478
 C2526 C -0.02190 0.77433 0.89470
 C2527 C -0.02544 0.83448 0.93463
 C2528 C -0.01371 0.85284 0.92848
 C2529 C -0.01465 0.87452 0.94044
 C2530 C -0.00562 0.89322 0.92909
 C2531 C -0.00518 0.91402 0.93949
 C2532 C -0.01367 0.91667 0.96166
 C2533 C -0.02308 0.89805 0.97303
 C2534 C -0.02355 0.87712 0.96254
 H2535 H -0.03093 0.75776 0.92624
 H2536 H -0.03206 0.79183 0.94859
 H2537 H -0.01905 0.83083 0.88896
 H2538 H -0.01646 0.79710 0.86689
 H2539 H -0.03584 0.83420 0.95000
 H2540 H -0.00280 0.85224 0.91343
 H2541 H 0.00129 0.89173 0.91205
 H2542 H 0.00213 0.92797 0.93016
 H2543 H -0.02964 0.89951 0.99017
 H2544 H -0.03037 0.86311 0.97203
 C2545 C 0.48795 0.27026 0.41416
 C2546 C 0.48571 0.29092 0.42506
 C2547 C 0.48995 0.31092 0.41346
 C2548 C 0.49552 0.30986 0.39041
 C2549 C 0.49780 0.28928 0.37955
 C2550 C 0.49497 0.26900 0.39130
 C2551 C 0.48760 0.33251 0.42565
 C2552 C 0.49832 0.35122 0.41868
 C2553 C 0.49644 0.37324 0.43014
 C2554 C 0.50422 0.39218 0.41830
 C2555 C 0.50366 0.41326 0.42831
 C2556 C 0.49541 0.41600 0.45056
 C2557 C 0.48745 0.39709 0.46246
 C2558 C 0.48799 0.37592 0.45240
 H2559 H 0.48370 0.25543 0.42372
 H2560 H 0.48062 0.29127 0.44267
 H2561 H 0.49767 0.32484 0.38051
 H2562 H 0.50191 0.28914 0.36175
 H2563 H 0.47705 0.33263 0.44093
 H2564 H 0.50921 0.35063 0.40362
 H2565 H 0.51087 0.39066 0.40118
 H2566 H 0.50996 0.42739 0.41858
 H2567 H 0.48111 0.39856 0.47967
 H2568 H 0.48226 0.36179 0.46237
 C2569 C 0.01022 0.29404 0.62351
 C2570 C 0.01188 0.31424 0.61226
 C2571 C 0.01629 0.31473 0.58917
 C2572 C 0.01994 0.29445 0.57756
 C2573 C 0.01852 0.27403 0.58894
 C2574 C 0.01280 0.27347 0.61207
 C2575 C 0.01717 0.33687 0.57834
 C2576 C 0.01340 0.34038 0.55692
 C2577 C 0.01207 0.36322 0.54774
 C2578 C 0.01858 0.36692 0.52526
 C2579 C 0.01770 0.38837 0.51627
 C2580 C 0.00997 0.40654 0.52956
 C2581 C 0.00288 0.40267 0.55193
 C2582 C 0.00384 0.38126 0.56090
 H2583 H 0.00662 0.29440 0.64139
 H2584 H 0.00937 0.32960 0.62168
 H2585 H 0.02437 0.29428 0.55984
 H2586 H 0.02228 0.25890 0.57961
 H2587 H 0.01992 0.35112 0.58901
 H2588 H 0.01113 0.32642 0.54579
 H2589 H 0.02467 0.35323 0.51472
 H2590 H 0.02313 0.39071 0.49892
 H2591 H -0.00340 0.41619 0.56258
 H2592 H -0.00220 0.37888 0.57807
 C2593 C 0.51175 0.77365 0.08762
 C2594 C 0.51162 0.79340 0.07521
 C2595 C 0.51235 0.81433 0.08573
 C2596 C 0.51189 0.81512 0.10912
 C2597 C 0.51212 0.79549 0.12147
 C2598 C 0.51306 0.77431 0.11101
 C2599 C 0.51270 0.83495 0.07203
 C2600 C 0.52064 0.85454 0.07920
 C2601 C 0.51969 0.87579 0.06677
 C2602 C 0.51882 0.89578 0.07901
 C2603 C 0.51751 0.91630 0.06830
 C2604 C 0.51747 0.91737 0.04497
 C2605 C 0.51903 0.89741 0.03255
 C2606 C 0.52001 0.87675 0.04336
 H2607 H 0.51060 0.75807 0.07865
 H2608 H 0.51108 0.79231 0.05727
 H2609 H 0.51105 0.83081 0.11809
 H2610 H 0.51203 0.79680 0.13945
 H2611 H 0.50619 0.83383 0.05567
 H2612 H 0.52739 0.85554 0.09545
 H2613 H 0.51878 0.89552 0.09703
 H2614 H 0.51658 0.93138 0.07835
 H2615 H 0.51910 0.89774 0.01454
 H2616 H 0.52128 0.86169 0.03335
 C2617 C 0.53271 0.72678 0.09651
 C2618 C 0.53416 0.70658 0.08463
 C2619 C 0.51778 0.68995 0.08837
 C2620 C 0.50065 0.69338 0.10499
 C2621 C 0.49934 0.71330 0.11702
 C2622 C 0.51473 0.73099 0.11237
 C2623 C 0.51924 0.66867 0.07572
 C2624 C 0.50081 0.65763 0.07017
 C2625 C 0.50136 0.63567 0.05880
 C2626 C 0.48430 0.63024 0.04472
 C2627 C 0.48375 0.60930 0.03440
 C2628 C 0.49996 0.59314 0.03845
 C2629 C 0.51683 0.59843 0.05288
 C2630 C 0.51763 0.61955 0.06286
 H2631 H 0.54561 0.73931 0.09324
 H2632 H 0.54797 0.70402 0.07234
 H2633 H 0.48851 0.68035 0.10920
 H2634 H 0.48640 0.71423 0.13034
 H2635 H 0.53569 0.66237 0.07041
 H2636 H 0.48453 0.66525 0.07352
 H2637 H 0.47142 0.64230 0.04159
 H2638 H 0.47050 0.60565 0.02344
 H2639 H 0.52958 0.58632 0.05624
 H2640 H 0.53065 0.62306 0.07411
 C2641 C 0.02181 0.21065 0.62052
 C2642 C 0.01880 0.18969 0.61114
 C2643 C 0.00444 0.18673 0.59392
 C2644 C -0.00691 0.20535 0.58608
 C2645 C -0.00399 0.22650 0.59562
 C2646 C 0.01083 0.22973 0.61276
 C2647 C 0.00087 0.16366 0.58595
 C2648 C -0.00559 0.15843 0.56565
 C2649 C -0.00759 0.13501 0.55777
 C2650 C -0.02078 0.13049 0.53980
 C2651 C -0.02248 0.10877 0.53142
 C2652 C -0.01096 0.09106 0.54084
 C2653 C 0.00217 0.09555 0.55888
 C2654 C 0.00401 0.11726 0.56714
 H2655 H 0.03205 0.21145 0.63469
 H2656 H 0.02737 0.17553 0.61782
 H2657 H -0.01882 0.20353 0.57338
 H2658 H -0.01395 0.24023 0.59013
 H2659 H 0.00439 0.15048 0.59743
 H2660 H -0.00945 0.17162 0.55426
 H2661 H -0.02973 0.14383 0.53215
 H2662 H -0.03271 0.10590 0.51744
 H2663 H 0.01157 0.08237 0.56626
 H2664 H 0.01512 0.11999 0.58038
 C2665 C 0.51287 0.22470 0.40989
 C2666 C 0.51505 0.20539 0.42256
 C2667 C 0.50217 0.18633 0.41862
 C2668 C 0.48658 0.18722 0.40210
 C2669 C 0.48437 0.20650 0.38945
 C2670 C 0.49709 0.22591 0.39341
 C2671 C 0.50528 0.16590 0.43199
 C2672 C 0.50148 0.14530 0.42409
 C2673 C 0.50356 0.12418 0.43673
 C2674 C 0.50088 0.10398 0.42523
 C2675 C 0.50102 0.08358 0.43633
 C2676 C 0.50392 0.08276 0.45932
 C2677 C 0.50732 0.10287 0.47082
 C2678 C 0.50704 0.12340 0.45970
 H2679 H 0.52373 0.23879 0.41283
 H2680 H 0.52726 0.20515 0.43512
 H2681 H 0.47600 0.17303 0.39881
 H2682 H 0.47303 0.20574 0.37617
 H2683 H 0.51169 0.16811 0.44826
 H2684 H 0.49676 0.14358 0.40708
 H2685 H 0.49823 0.10396 0.40757
 H2686 H 0.49852 0.06841 0.42688
 H2687 H 0.50949 0.10281 0.48856
 H2688 H 0.50896 0.13845 0.46937
 C2689 C -0.03546 0.71309 0.88540
 C2690 C -0.03358 0.69203 0.89478
 C2691 C -0.01732 0.68782 0.90993
 C2692 C -0.00333 0.70540 0.91615
 C2693 C -0.00533 0.72663 0.90689
 C2694 C -0.02170 0.73107 0.89159
 C2695 C -0.01559 0.66484 0.91852
 C2696 C 0.00321 0.65625 0.92588
 C2697 C 0.00437 0.63293 0.93368
 C2698 C 0.01846 0.62785 0.95068
 C2699 C 0.01886 0.60627 0.95938
 C2700 C 0.00539 0.58926 0.95098
 C2701 C -0.00782 0.59410 0.93312
 C2702 C -0.00831 0.61571 0.92453
 H2703 H -0.04724 0.71477 0.87261
 H2704 H -0.04438 0.67868 0.88951
 H2705 H 0.00920 0.70290 0.92809
 H2706 H 0.00622 0.73961 0.91141
 H2707 H -0.03037 0.65437 0.91799
 H2708 H 0.01805 0.66654 0.92682
 H2709 H 0.02865 0.64077 0.95772
 H2710 H 0.02943 0.60305 0.97297
 H2711 H -0.01821 0.58134 0.92612
 H2712 H -0.01868 0.61886 0.91078
 C2713 C 0.24278 0.66302 0.98003
 C2714 C 0.24008 0.67552 0.96072
 C2715 C 0.24367 0.66582 0.93949
 C2716 C 0.25012 0.64327 0.93802
 C2717 C 0.25296 0.63090 0.95718
 C2718 C 0.24955 0.64045 0.97862
 C2719 C 0.23887 0.67903 0.91941
 C2720 C 0.24664 0.67336 0.89870
 C2721 C 0.24085 0.68482 0.87800
 C2722 C 0.24504 0.67343 0.85773
 C2723 C 0.24115 0.68359 0.83752
 C2724 C 0.23307 0.70559 0.83699
 C2725 C 0.22829 0.71689 0.85731
 C2726 C 0.23216 0.70664 0.87763
 H2727 H 0.23849 0.67087 0.99594
 H2728 H 0.23455 0.69269 0.96240
 H2729 H 0.25201 0.63458 0.92224
 H2730 H 0.25701 0.61335 0.95528
 H2731 H 0.22825 0.69350 0.92197
 H2732 H 0.25767 0.65917 0.89639
 H2733 H 0.25166 0.65659 0.85747
 H2734 H 0.24503 0.67432 0.82227
 H2735 H 0.22223 0.73391 0.85750
 H2736 H 0.22901 0.71618 0.89279
 C2737 C 0.73801 0.16416 0.47805
 C2738 C 0.74007 0.17565 0.45789
 C2739 C 0.75124 0.16601 0.43916
 C2740 C 0.76161 0.14526 0.44132
 C2741 C 0.75967 0.13376 0.46149
 C2742 C 0.74734 0.14259 0.48040
 C2743 C 0.75146 0.17790 0.41766
 C2744 C 0.75236 0.16726 0.39794
 C2745 C 0.75122 0.17891 0.37640
 C2746 C 0.76052 0.16859 0.35699
 C2747 C 0.75995 0.17913 0.33635
 C2748 C 0.74985 0.20018 0.33471
 C2749 C 0.73991 0.21017 0.35409
 C2750 C 0.74051 0.19964 0.37468
 H2751 H 0.72808 0.17191 0.49161
 H2752 H 0.73209 0.19178 0.45672
 H2753 H 0.77125 0.13773 0.42742
 H2754 H 0.76785 0.11786 0.46154
 H2755 H 0.74976 0.19589 0.41834
 H2756 H 0.75402 0.14926 0.39734
 H2757 H 0.76857 0.15246 0.35784
 H2758 H 0.76768 0.17091 0.32176
 H2759 H 0.73172 0.22624 0.35341
 H2760 H 0.73230 0.20772 0.38909
 C2761 C 0.24772 0.32872 0.48491
 C2762 C 0.24705 0.31591 0.46536
 C2763 C 0.25175 0.32564 0.44438
 C2764 C 0.25714 0.34850 0.44333
 C2765 C 0.25767 0.36124 0.46270
 C2766 C 0.25384 0.35153 0.48395
 C2767 C 0.25163 0.31163 0.42391
 C2768 C 0.24786 0.32027 0.40392
 C2769 C 0.24894 0.30773 0.38253
 C2770 C 0.25871 0.28643 0.37973
 C2771 C 0.26008 0.27602 0.35874
 C2772 C 0.25188 0.28673 0.34014
 C2773 C 0.24220 0.30799 0.34306
 C2774 C 0.24078 0.31830 0.36392
 H2775 H 0.24322 0.32065 0.50061
 H2776 H 0.24264 0.29837 0.46663
 H2777 H 0.26150 0.35665 0.42763
 H2778 H 0.26181 0.37882 0.46114
 H2779 H 0.25425 0.29387 0.42563
 H2780 H 0.24326 0.33770 0.40300
 H2781 H 0.26568 0.27788 0.39346
 H2782 H 0.26772 0.25968 0.35706
 H2783 H 0.23564 0.31677 0.32920
 H2784 H 0.23332 0.33474 0.36549
 C2785 C 0.73338 0.83996 0.97330
 C2786 C 0.73014 0.82809 0.95366
 C2787 C 0.74319 0.83288 0.93409
 C2788 C 0.75895 0.85027 0.93423
 C2789 C 0.76191 0.86239 0.95367
 C2790 C 0.74984 0.85695 0.97392
 C2791 C 0.73928 0.82062 0.91330
 C2792 C 0.75607 0.81574 0.89829
 C2793 C 0.75254 0.80478 0.87675
 C2794 C 0.76911 0.79045 0.86743
 C2795 C 0.76684 0.78073 0.84654
 C2796 C 0.74825 0.78569 0.83431
 C2797 C 0.73175 0.80024 0.84353
 C2798 C 0.73377 0.80958 0.86468
 H2799 H 0.72281 0.83603 0.98805
 H2800 H 0.71743 0.81514 0.95375
 H2801 H 0.76845 0.85511 0.91907
 H2802 H 0.77329 0.87647 0.95243
 H2803 H 0.72240 0.81502 0.91062
 H2804 H 0.77319 0.81933 0.90213
 H2805 H 0.78383 0.78676 0.87635
 H2806 H 0.77992 0.76974 0.83971
 H2807 H 0.71727 0.80435 0.83442
 H2808 H 0.72101 0.82103 0.87126
 C2809 C 0.75830 0.83502 0.01727
 C2810 C 0.75944 0.82386 0.03759
 C2811 C 0.75602 0.83539 0.05790
 C2812 C 0.75155 0.85839 0.05749
 C2813 C 0.75057 0.86951 0.03733
 C2814 C 0.75301 0.85796 0.01681
 C2815 C 0.75630 0.82290 0.07913
 C2816 C 0.75991 0.83278 0.09868
 C2817 C 0.75875 0.82108 0.12038
 C2818 C 0.76854 0.83135 0.13843
 C2819 C 0.76739 0.82131 0.15939
 C2820 C 0.75629 0.80075 0.16281
 C2821 C 0.74617 0.79060 0.14481
 C2822 C 0.74729 0.80068 0.12386
 H2823 H 0.76182 0.82561 0.00208
 H2824 H 0.76315 0.80615 0.03744
 H2825 H 0.74825 0.86793 0.07264
 H2826 H 0.74724 0.88728 0.03772
 H2827 H 0.75384 0.80500 0.07836
 H2828 H 0.76453 0.85027 0.09898
 H2829 H 0.77723 0.84719 0.13630
 H2830 H 0.77536 0.82961 0.17285
 H2831 H 0.73732 0.77485 0.14689
 H2832 H 0.73882 0.79257 0.11065
 C2833 C 0.27025 0.33661 0.52999
 C2834 C 0.27110 0.32561 0.55041
 C2835 C 0.25638 0.33145 0.56853
 C2836 C 0.24138 0.34909 0.56615
 C2837 C 0.24088 0.36045 0.54594
 C2838 C 0.25466 0.35387 0.52705
 C2839 C 0.25803 0.32013 0.59022
 C2840 C 0.24002 0.31581 0.60401
 C2841 C 0.24172 0.30556 0.62620
 C2842 C 0.22494 0.29076 0.63447
 C2843 C 0.22585 0.28144 0.65572
 C2844 C 0.24320 0.28735 0.66935
 C2845 C 0.25980 0.30243 0.66118
 C2846 C 0.25919 0.31130 0.63975
 H2847 H 0.28194 0.33168 0.51639
 H2848 H 0.28326 0.31245 0.55203
 H2849 H 0.23059 0.35471 0.58020
 H2850 H 0.22998 0.37477 0.54555
 H2851 H 0.27441 0.31461 0.59458
 H2852 H 0.22343 0.31924 0.59863
 H2853 H 0.21120 0.28630 0.62440
 H2854 H 0.21276 0.26997 0.66167
 H2855 H 0.27338 0.30725 0.67132
 H2856 H 0.27208 0.32307 0.63402
 C2857 C 0.75457 0.16364 0.52427
 C2858 C 0.75579 0.17571 0.54407
 C2859 C 0.74372 0.16875 0.56348
 C2860 C 0.72915 0.15038 0.56244
 C2861 C 0.72769 0.13840 0.54261
 C2862 C 0.74054 0.14455 0.52302
 C2863 C 0.74731 0.18038 0.58470
 C2864 C 0.74719 0.16942 0.60411
 C2865 C 0.75136 0.18006 0.62576
 C2866 C 0.74436 0.16867 0.64532
 C2867 C 0.74733 0.17812 0.66618
 C2868 C 0.75756 0.19919 0.66799
 C2869 C 0.76533 0.21027 0.64842
 C2870 C 0.76232 0.20081 0.62751
 H2871 H 0.76584 0.16845 0.51031
 H2872 H 0.76720 0.18980 0.54451
 H2873 H 0.71912 0.14496 0.57705
 H2874 H 0.71701 0.12383 0.54315
 H2875 H 0.75120 0.19803 0.58390
 H2876 H 0.74366 0.15165 0.60432
 H2877 H 0.73614 0.15254 0.64447
 H2878 H 0.74123 0.16902 0.68089
 H2879 H 0.77342 0.22646 0.64921
 H2880 H 0.76871 0.20981 0.61290
 C2881 C 0.23642 0.62851 0.04062
 C2882 C 0.23806 0.63807 0.06160
 C2883 C 0.25320 0.65548 0.06489
 C2884 C 0.26676 0.66326 0.04651
 C2885 C 0.26501 0.65372 0.02535
 C2886 C 0.24922 0.63666 0.02180
 C2887 C 0.25386 0.66484 0.08774
 C2888 C 0.27086 0.67687 0.09516
 C2889 C 0.27056 0.68553 0.11834
 C2890 C 0.28197 0.70546 0.12260
 C2891 C 0.28103 0.71469 0.14404
 C2892 C 0.26883 0.70403 0.16179
 C2893 C 0.25827 0.68352 0.15771
 C2894 C 0.25916 0.67434 0.13626
 H2895 H 0.22529 0.61432 0.03942
 H2896 H 0.22770 0.63144 0.07550
 H2897 H 0.27862 0.67673 0.04825
 H2898 H 0.27608 0.65965 0.01168
 H2899 H 0.23953 0.66123 0.09908
 H2900 H 0.28512 0.68117 0.08402
 H2901 H 0.29115 0.71422 0.10917
 H2902 H 0.28958 0.73040 0.14660
 H2903 H 0.24898 0.67469 0.17102
 H2904 H 0.25095 0.65845 0.13384
 C2905 C 0.16047 0.52126 0.74098
 C2906 C 0.17204 0.54154 0.74111
 C2907 C 0.16191 0.56114 0.73445
 C2908 C 0.14070 0.55985 0.72587
 C2909 C 0.12915 0.53955 0.72549
 C2910 C 0.13842 0.51963 0.73350
 C2911 C 0.17335 0.58275 0.73766
 C2912 C 0.16197 0.60131 0.74365
 C2913 C 0.17266 0.62310 0.74802
 C2914 C 0.15977 0.64249 0.74657
 C2915 C 0.16919 0.66351 0.74987
 C2916 C 0.19174 0.66561 0.75494
 C2917 C 0.20442 0.64614 0.75736
 C2918 C 0.19498 0.62508 0.75396
 H2919 H 0.16835 0.50729 0.74862
 H2920 H 0.18843 0.54214 0.74783
 H2921 H 0.13272 0.57466 0.71986
 H2922 H 0.11265 0.54022 0.71955
 H2923 H 0.19147 0.58287 0.73624
 H2924 H 0.14383 0.60070 0.74528
 H2925 H 0.14244 0.64141 0.74236
 H2926 H 0.15888 0.67814 0.74804
 H2927 H 0.22180 0.64717 0.76138
 H2928 H 0.20524 0.61051 0.75609
 C2929 C 0.62496 0.04102 0.26436
 C2930 C 0.63595 0.06150 0.26538
 C2931 C 0.65729 0.06457 0.25504
 C2932 C 0.66767 0.04639 0.24373
 C2933 C 0.65661 0.02569 0.24270
 C2934 C 0.63492 0.02235 0.25316
 C2935 C 0.66700 0.08742 0.25525
 C2936 C 0.68876 0.09230 0.25115
 C2937 C 0.69740 0.11557 0.25192
 C2938 C 0.71942 0.11932 0.25781
 C2939 C 0.72804 0.14104 0.25882
 C2940 C 0.71489 0.15956 0.25366
 C2941 C 0.69291 0.15576 0.24747
 C2942 C 0.68428 0.13404 0.24655
 H2943 H 0.60827 0.04056 0.27207
 H2944 H 0.62738 0.07527 0.27397
 H2945 H 0.68383 0.04827 0.23479
 H2946 H 0.66463 0.01271 0.23253
 H2947 H 0.65556 0.10086 0.25997
 H2948 H 0.70080 0.07896 0.24843
 H2949 H 0.72994 0.10541 0.26184
 H2950 H 0.74511 0.14327 0.26347
 H2951 H 0.68239 0.16956 0.24313
 H2952 H 0.66747 0.13179 0.24121
 C2953 C 0.86778 0.03229 0.77964
 C2954 C 0.85611 0.05239 0.78014
 C2955 C 0.83936 0.05634 0.76543
 C2956 C 0.83417 0.03933 0.75032
 C2957 C 0.84580 0.01902 0.74991
 C2958 C 0.86258 0.01481 0.76487
 C2959 C 0.82845 0.07862 0.76641
 C2960 C 0.81659 0.08725 0.75033
 C2961 C 0.80769 0.11039 0.75145
 C2962 C 0.78839 0.11544 0.74041
 C2963 C 0.77979 0.13715 0.74085
 C2964 C 0.79052 0.15444 0.75211
 C2965 C 0.81007 0.14944 0.76288
 C2966 C 0.81859 0.12771 0.76253
 H2967 H 0.88147 0.03112 0.79045
 H2968 H 0.86077 0.06528 0.79171
 H2969 H 0.82128 0.04153 0.73873
 H2970 H 0.84190 0.00655 0.73762
 H2971 H 0.83110 0.08873 0.78100
 H2972 H 0.81311 0.07734 0.73587
 H2973 H 0.77985 0.10250 0.73152
 H2974 H 0.76480 0.14040 0.73221
 H2975 H 0.81889 0.16234 0.77153
 H2976 H 0.83398 0.12470 0.77054
 C2977 C 0.35054 0.52315 0.27103
 C2978 C 0.33927 0.54359 0.27359
 C2979 C 0.34244 0.56031 0.25742
 C2980 C 0.35795 0.55672 0.23933
 C2981 C 0.36939 0.53656 0.23693
 C2982 C 0.36516 0.51879 0.25212
 C2983 C 0.33053 0.58190 0.26010
 C2984 C 0.32414 0.59337 0.24247
 C2985 C 0.31383 0.61579 0.24408
 C2986 C 0.29919 0.62219 0.22795
 C2987 C 0.29011 0.64368 0.22818
 C2988 C 0.29597 0.65941 0.24425
 C2989 C 0.31084 0.65308 0.26027
 C2990 C 0.31960 0.63144 0.26029
 H2991 H 0.34778 0.51059 0.28383
 H2992 H 0.32792 0.54628 0.28810
 H2993 H 0.36180 0.56978 0.22727
 H2994 H 0.38193 0.53540 0.22324
 H2995 H 0.32657 0.58815 0.27681
 H2996 H 0.32612 0.58586 0.22604
 H2997 H 0.29474 0.61050 0.21513
 H2998 H 0.27878 0.64809 0.21556
 H2999 H 0.31561 0.66483 0.27290
 H3000 H 0.33131 0.62720 0.27259
 C3001 C 0.33944 0.47569 0.25207
 C3002 C 0.32695 0.45583 0.25412
 C3003 C 0.33763 0.43503 0.25504
 C3004 C 0.36118 0.43452 0.25367
 C3005 C 0.37360 0.45421 0.25145
 C3006 C 0.36309 0.47529 0.25155
 C3007 C 0.32386 0.41435 0.25813
 C3008 C 0.33170 0.39397 0.25238
 C3009 C 0.31935 0.37254 0.25596
 C3010 C 0.33143 0.35268 0.25224
 C3011 C 0.32084 0.33193 0.25422
 C3012 C 0.29773 0.33038 0.25994
 C3013 C 0.28561 0.35020 0.26429
 C3014 C 0.29628 0.37109 0.26229
 H3015 H 0.33039 0.49113 0.25069
 H3016 H 0.30882 0.45672 0.25486
 H3017 H 0.37030 0.41908 0.25489
 H3018 H 0.39172 0.45311 0.25047
 H3019 H 0.30694 0.41625 0.26529
 H3020 H 0.34837 0.39259 0.24443
 H3021 H 0.34921 0.35319 0.24747
 H3022 H 0.33078 0.31708 0.25083
 H3023 H 0.26776 0.34961 0.26861
 H3024 H 0.28619 0.38588 0.26517
 C3025 C 0.87499 0.95100 0.75979
 C3026 C 0.86387 0.93052 0.76073
 C3027 C 0.84064 0.92939 0.76536
 C3028 C 0.82881 0.94939 0.76975
 C3029 C 0.84003 0.97006 0.76890
 C3030 C 0.86329 0.97130 0.76314
 C3031 C 0.82998 0.90691 0.76554
 C3032 C 0.80792 0.90294 0.76479
 C3033 C 0.79869 0.87996 0.76278
 C3034 C 0.77668 0.87535 0.77109
 C3035 C 0.76747 0.85392 0.76899
 C3036 C 0.78003 0.83670 0.75825
 C3037 C 0.80197 0.84146 0.74972
 C3038 C 0.81114 0.86279 0.75186
 H3039 H 0.89296 0.95110 0.75613
 H3040 H 0.87354 0.91543 0.75762
 H3041 H 0.81103 0.94925 0.77426
 H3042 H 0.83038 0.98483 0.77323
 H3043 H 0.84125 0.89280 0.76558
 H3044 H 0.79615 0.91662 0.76550
 H3045 H 0.76663 0.88834 0.77933
 H3046 H 0.75048 0.85091 0.77564
 H3047 H 0.81209 0.82874 0.74115
 H3048 H 0.82781 0.86583 0.74441
 C3049 C 0.62749 0.96001 0.23528
 C3050 C 0.63908 0.93989 0.23416
 C3051 C 0.65942 0.93757 0.24409
 C3052 C 0.66815 0.95612 0.25510
 C3053 C 0.65647 0.97644 0.25626
 C3054 C 0.63581 0.97905 0.24620
 C3055 C 0.66966 0.91501 0.24393
 C3056 C 0.69118 0.91085 0.24735
 C3057 C 0.70031 0.88779 0.24681
 C3058 C 0.72288 0.88435 0.23992
 C3059 C 0.73188 0.86279 0.23910
 C3060 C 0.71854 0.84416 0.24549
 C3061 C 0.69600 0.84767 0.25271
 C3062 C 0.68700 0.86921 0.25341
 H3063 H 0.61161 0.95992 0.22789
 H3064 H 0.63175 0.92580 0.22583
 H3065 H 0.68342 0.95478 0.26372
 H3066 H 0.66309 0.98971 0.26622
 H3067 H 0.65891 0.90116 0.23987
 H3068 H 0.70273 0.92459 0.24935
 H3069 H 0.73354 0.89838 0.23494
 H3070 H 0.74936 0.86076 0.23363
 H3071 H 0.68529 0.83379 0.25796
 H3072 H 0.66971 0.87125 0.25953
 C3073 C 0.15806 0.47394 0.72471
 C3074 C 0.17074 0.45442 0.72499
 C3075 C 0.16423 0.43695 0.73937
 C3076 C 0.14524 0.43964 0.75405
 C3077 C 0.13259 0.45914 0.75388
 C3078 C 0.13874 0.47695 0.73934
 C3079 C 0.17753 0.41617 0.73880
 C3080 C 0.16812 0.39616 0.74314
 C3081 C 0.18066 0.37491 0.74375
 C3082 C 0.16993 0.35655 0.75425
 C3083 C 0.18101 0.33624 0.75586
 C3084 C 0.20314 0.33374 0.74687
 C3085 C 0.21376 0.35195 0.73587
 C3086 C 0.20265 0.37233 0.73426
 H3087 H 0.16296 0.48650 0.71243
 H3088 H 0.18530 0.45270 0.71345
 H3089 H 0.14008 0.42671 0.76583
 H3090 H 0.11783 0.45980 0.76513
 H3091 H 0.19527 0.41765 0.73435
 H3092 H 0.15020 0.39519 0.74698
 H3093 H 0.15295 0.35800 0.76154
 H3094 H 0.17223 0.32255 0.76433
 H3095 H 0.23073 0.35053 0.72856
 H3096 H 0.21135 0.38579 0.72543
 C3097 C 0.00279 0.73723 0.84639
 C3098 C 0.02328 0.73430 0.83417
 C3099 C 0.04238 0.74607 0.83994
 C3100 C 0.04047 0.76141 0.85766
 C3101 C 0.02008 0.76442 0.86979
 C3102 C 0.00060 0.75274 0.86416
 C3103 C 0.06403 0.74237 0.82716
 C3104 C 0.08371 0.74412 0.83663
 C3105 C 0.10598 0.74265 0.82439
 C3106 C 0.12468 0.75073 0.83497
 C3107 C 0.14589 0.75097 0.82387
 C3108 C 0.14894 0.74302 0.80187
 C3109 C 0.13038 0.73416 0.79152
 C3110 C 0.10913 0.73392 0.80265
 H3111 H -0.01139 0.72711 0.84215
 H3112 H 0.02436 0.72233 0.82058
 H3113 H 0.05475 0.77115 0.86231
 H3114 H 0.02003 0.77547 0.88405
 H3115 H 0.06341 0.73816 0.80972
 H3116 H 0.08365 0.74768 0.85430
 H3117 H 0.12279 0.75737 0.85177
 H3118 H 0.15981 0.75780 0.83241
 H3119 H 0.13217 0.72765 0.77468
 H3120 H 0.09540 0.72689 0.79406
 C3121 C 0.52226 0.22747 0.34799
 C3122 C 0.54286 0.22426 0.33606
 C3123 C 0.56138 0.23775 0.34019
 C3124 C 0.55873 0.25482 0.35625
 C3125 C 0.53818 0.25804 0.36816
 C3126 C 0.51925 0.24486 0.36385
 C3127 C 0.58303 0.23390 0.32724
 C3128 C 0.60290 0.23939 0.33502
 C3129 C 0.62495 0.23707 0.32234
 C3130 C 0.64441 0.24076 0.33377
 C3131 C 0.66555 0.24063 0.32248
 C3132 C 0.66782 0.23678 0.29938
 C3133 C 0.64844 0.23241 0.28797
 C3134 C 0.62723 0.23267 0.29926
 H3135 H 0.50854 0.21624 0.34488
 H3136 H 0.54444 0.21091 0.32386
 H3137 H 0.57246 0.26588 0.35970
 H3138 H 0.53752 0.27064 0.38111
 H3139 H 0.58232 0.22569 0.31126
 H3140 H 0.60326 0.24584 0.35185
 H3141 H 0.64325 0.24420 0.35151
 H3142 H 0.68010 0.24395 0.33184
 H3143 H 0.64958 0.22952 0.27014
 H3144 H 0.61279 0.23009 0.28961
 C3145 C 0.53916 0.73550 0.15393
 C3146 C 0.55890 0.73431 0.16521
 C3147 C 0.57559 0.75068 0.16195
 C3148 C 0.57261 0.76774 0.14656
 C3149 C 0.55315 0.76873 0.13500
 C3150 C 0.53550 0.75313 0.13903
 C3151 C 0.59665 0.74890 0.17348
 C3152 C 0.60812 0.76694 0.17972
 C3153 C 0.63003 0.76545 0.18970
 C3154 C 0.63584 0.78153 0.20542
 C3155 C 0.65675 0.78084 0.21461
 C3156 C 0.67246 0.76443 0.20774
 C3157 C 0.66678 0.74862 0.19166
 C3158 C 0.64573 0.74903 0.18283
 H3159 H 0.52661 0.72255 0.15681
 H3160 H 0.56110 0.72061 0.17656
 H3161 H 0.58572 0.77994 0.14278
 H3162 H 0.55261 0.78154 0.12248
 H3163 H 0.60255 0.73236 0.17731
 H3164 H 0.60100 0.78342 0.17797
 H3165 H 0.62408 0.79451 0.21073
 H3166 H 0.66072 0.79330 0.22690
 H3167 H 0.67853 0.73573 0.18609
 H3168 H 0.64196 0.73677 0.17029
 C3169 C 0.05310 0.25116 0.62760
 C3170 C 0.07299 0.25272 0.63824
 C3171 C 0.07274 0.25670 0.66116
 C3172 C 0.05201 0.25990 0.67322
 C3173 C 0.03190 0.25850 0.66245
 C3174 C 0.03211 0.25332 0.63953
 C3175 C 0.09461 0.25771 0.67133
 C3176 C 0.09744 0.25417 0.69293
 C3177 C 0.11997 0.25346 0.70177
 C3178 C 0.12251 0.26007 0.72384
 C3179 C 0.14357 0.25960 0.73264
 C3180 C 0.16252 0.25218 0.71961
 C3181 C 0.15987 0.24513 0.69762
 C3182 C 0.13883 0.24570 0.68881
 H3183 H 0.05404 0.24801 0.60981
 H3184 H 0.08870 0.25058 0.62846
 H3185 H 0.05122 0.26400 0.69078
 H3186 H 0.01642 0.26194 0.67207
 H3187 H 0.10923 0.26056 0.66011
 H3188 H 0.08308 0.25178 0.70457
 H3189 H 0.10820 0.26584 0.73422
 H3190 H 0.14495 0.26500 0.74971
 H3191 H 0.17405 0.23914 0.68720
 H3192 H 0.13736 0.23967 0.67197
 C3193 C 0.96938 0.26228 0.63214
 C3194 C 0.94797 0.25867 0.64180
 C3195 C 0.94434 0.24385 0.65952
 C3196 C 0.96273 0.23266 0.66767
 C3197 C 0.98436 0.23606 0.65775
 C3198 C 0.98824 0.25131 0.64001
 C3199 C 0.92088 0.23966 0.66765
 C3200 C 0.91435 0.23450 0.68872
 C3201 C 0.89032 0.23354 0.69671
 C3202 C 0.88402 0.22170 0.71623
 C3203 C 0.86165 0.22143 0.72471
 C3204 C 0.84513 0.23305 0.71382
 C3205 C 0.85144 0.24477 0.69424
 C3206 C 0.87372 0.24522 0.68592
 H3207 H 0.97072 0.27291 0.61764
 H3208 H 0.93401 0.26718 0.63495
 H3209 H 0.96032 0.22052 0.68089
 H3210 H 0.99796 0.22612 0.66338
 H3211 H 0.90843 0.24220 0.65564
 H3212 H 0.92682 0.23149 0.70064
 H3213 H 0.89646 0.21279 0.72502
 H3214 H 0.85736 0.21232 0.73992
 H3215 H 0.83927 0.25427 0.68566
 H3216 H 0.87780 0.25545 0.67146
 C3217 C 0.49147 0.75596 0.16473
 C3218 C 0.47104 0.75492 0.17749
 C3219 C 0.45074 0.75282 0.16718
 C3220 C 0.45110 0.75362 0.14383
 C3221 C 0.47136 0.75456 0.13112
 C3222 C 0.49206 0.75448 0.14123
 C3223 C 0.42943 0.75031 0.18101
 C3224 C 0.41160 0.73962 0.17348
 C3225 C 0.38938 0.73840 0.18572
 C3226 C 0.37042 0.73655 0.17325
 C3227 C 0.34897 0.73635 0.18377
 C3228 C 0.34598 0.73752 0.20709
 C3229 C 0.36495 0.73834 0.21974
 C3230 C 0.38652 0.73892 0.20914
 H3231 H 0.50656 0.75775 0.17351
 H3232 H 0.47114 0.75532 0.19550
 H3233 H 0.43576 0.75349 0.13521
 H3234 H 0.47097 0.75444 0.11314
 H3235 H 0.42855 0.75739 0.19764
 H3236 H 0.41281 0.73229 0.15696
 H3237 H 0.37219 0.73587 0.15521
 H3238 H 0.33466 0.73549 0.17360
 H3239 H 0.36309 0.73922 0.23775
 H3240 H 0.40082 0.73971 0.21928
 C3241 C 0.47737 0.25206 0.34099
 C3242 C 0.45800 0.25386 0.32924
 C3243 C 0.43668 0.25122 0.34006
 C3244 C 0.43514 0.24743 0.36317
 C3245 C 0.45446 0.24559 0.37490
 C3246 C 0.47603 0.24711 0.36400
 C3247 C 0.41654 0.25361 0.32698
 C3248 C 0.39649 0.24472 0.33337
 C3249 C 0.37583 0.24680 0.32098
 C3250 C 0.35548 0.23973 0.33166
 C3251 C 0.33555 0.24056 0.32081
 C3252 C 0.33538 0.24843 0.29883
 C3253 C 0.35568 0.25577 0.28811
 C3254 C 0.37570 0.25493 0.29901
 H3255 H 0.49327 0.25520 0.33198
 H3256 H 0.45969 0.25751 0.31158
 H3257 H 0.41909 0.24649 0.37248
 H3258 H 0.45259 0.24310 0.39275
 H3259 H 0.41870 0.26269 0.31150
 H3260 H 0.39489 0.23515 0.34861
 H3261 H 0.35498 0.23340 0.34854
 H3262 H 0.32028 0.23479 0.32965
 H3263 H 0.35619 0.26184 0.27115
 H3264 H 0.39091 0.26027 0.28990
 C3265 C 0.93627 0.75526 0.87822
 C3266 C 0.91647 0.75845 0.86775
 C3267 C 0.91694 0.76348 0.84504
 C3268 C 0.93778 0.76624 0.83313
 C3269 C 0.95773 0.76312 0.84367
 C3270 C 0.95731 0.75666 0.86625
 C3271 C 0.89525 0.76564 0.83476
 C3272 C 0.89263 0.76317 0.81293
 C3273 C 0.87023 0.76230 0.80386
 C3274 C 0.86776 0.76923 0.78192
 C3275 C 0.84693 0.76772 0.77268
 C3276 C 0.82826 0.75888 0.78514
 C3277 C 0.83082 0.75185 0.80708
 C3278 C 0.85156 0.75346 0.81632
 H3279 H 0.93522 0.75137 0.89583
 H3280 H 0.90066 0.75666 0.87744
 H3281 H 0.93885 0.77123 0.81584
 H3282 H 0.97332 0.76630 0.83411
 H3283 H 0.88058 0.76809 0.84600
 H3284 H 0.90703 0.76120 0.80128
 H3285 H 0.88197 0.77583 0.77193
 H3286 H 0.84556 0.77316 0.75567
 H3287 H 0.81683 0.74485 0.81711
 H3288 H 0.85300 0.74715 0.83299
   
