data_POSCAR
  _audit_creation_date              2014-09-24
  _audit_creation_method            'ToBaCCo'
  _symmetry_space_group_name_H-M    'P1'
  _symmetry_Int_Tables_number       1
  _symmetry_cell_setting            triclinic
  loop_
  _symmetry_equiv_pos_as_xyz
 x,y,z
_cell_length_a 54.3356
_cell_length_b 54.3399
_cell_length_c 54.3305
_cell_angle_alpha 90.021600
_cell_angle_beta 89.969200
_cell_angle_gamma 89.968500
loop_
  _atom_site_label
  _atom_site_type_symbol
  _atom_site_fract_x
  _atom_site_fract_y
  _atom_site_fract_z
C1 C 0.12548 -0.00006 0.25056
 C2 C 0.37480 0.00056 0.74962
 C3 C 0.87489 0.50022 0.24974
 C4 C 0.62560 0.49956 0.75042
 C5 C 0.24930 0.12532 0.99953
 C6 C 0.75142 0.37494 1.00074
 C7 C 0.25056 0.87494 0.50016
 C8 C 0.75055 0.62551 0.49948
 C9 C 0.00013 0.25065 0.12518
 C10 C -0.00119 0.74958 0.37449
 C11 C 0.49892 0.24822 0.87450
 C12 C 0.49974 0.75166 0.62502
 C13 C 0.87541 0.99944 0.75070
 C14 C 0.37554 0.49968 0.25035
 C15 C 0.62491 1.00025 0.24947
 C16 C 0.12521 0.50055 0.74949
 C17 C 0.74945 0.87549 -0.00046
 C18 C 0.25081 0.37560 0.49932
 C19 C 0.25121 0.62479 0.00014
 C20 C 0.75052 0.12521 0.50054
 C21 C 0.99981 0.75050 0.87530
 C22 C 0.50000 0.25145 0.37528
 C23 C 0.99925 0.24963 0.62427
 C24 C 0.49874 0.74835 0.12474
 O25 O -0.01604 0.93026 0.98914
 O26 O -0.00381 0.92978 1.02970
 O27 O -0.07021 0.98850 0.98656
 O28 O -0.07196 1.02859 0.99394
 O29 O -0.01205 0.98484 0.93126
 O30 O 0.03011 0.99557 0.93145
 O31 O -0.00467 1.05437 1.04896
 O32 O -0.04292 1.03721 1.05180
 O33 O 0.04648 0.99655 1.05596
 O34 O 0.05266 0.95710 1.03588
 O35 O 0.05427 1.04709 0.99771
 O36 O 0.03442 1.05363 0.95880
 O37 O 0.01511 1.06893 1.01494
 O38 O 0.00318 1.06907 0.97020
 O39 O 0.06891 1.01299 1.01706
 O40 O 0.06863 0.96864 1.00496
 O41 O 0.01261 1.01659 1.07036
 O42 O -0.02950 0.99903 1.06941
 O43 O 0.00443 0.94452 0.95537
 O44 O 0.04348 0.96504 0.95012
 O45 O -0.04622 1.00450 0.94549
 O46 O -0.04952 1.04483 0.96663
 O47 O -0.05579 0.95394 1.00536
 O48 O -0.03530 0.95199 1.04600
 Zr49 Zr -0.01833 0.96136 1.01205
 O50 O 0.00425 0.98247 1.03540
 Zr51 Zr -0.03899 1.01107 0.98300
 O52 O -0.01797 1.03421 1.00585
 Zr53 Zr 0.01075 0.98216 0.96242
 O54 O 0.03405 1.00467 0.98369
 Zr55 Zr -0.01145 1.01743 1.04003
 O56 O -0.03542 0.99562 1.01840
 Zr57 Zr 0.03848 0.98911 1.01880
 O58 O 0.01706 0.96531 0.99664
 Zr59 Zr 0.01716 1.03885 0.99043
 O60 O -0.00471 1.01751 0.96615
 O61 O -0.02400 0.97639 0.97726
 O62 O 0.02343 1.02384 1.02516
 C63 C -0.00586 0.92736 0.96800
 C64 C -0.07305 0.96700 0.99590
 C65 C -0.03335 0.99460 0.92832
 C66 C 0.00574 1.07153 1.03651
 C67 C 0.03410 1.00718 1.07304
 C68 C 0.07148 1.03458 1.00790
 H69 H 0.00596 0.97389 1.05136
 H70 H 0.04992 1.00652 0.97499
 H71 H -0.03454 0.96590 0.96674
 H72 H -0.02674 1.05002 1.00795
 H73 H -0.05737 1.02685 1.04782
 H74 H -0.06821 1.03773 1.00922
 H75 H 0.07460 0.97696 0.98991
 H76 H 0.04855 0.95345 0.96323
 H77 H -0.02883 1.00979 1.08414
 H78 H -0.04498 0.93667 1.04376
 H79 H 0.04606 1.04111 0.95254
 H80 H 0.02444 1.01269 0.92886
 H81 H 0.01353 0.92822 1.02430
 H82 H 0.04056 0.95164 1.04834
 H83 H -0.03744 1.04834 0.95345
 H84 H -0.01160 1.07525 0.97886
 O85 O 0.55515 0.54828 0.49603
 O86 O 0.53684 0.55237 0.45799
 O87 O 0.49458 0.55629 0.54693
 O88 O 0.45927 0.53756 0.55525
 O89 O 0.54698 0.49612 0.55552
 O90 O 0.55236 0.45793 0.53523
 O91 O 0.43060 0.48960 0.48384
 O92 O 0.42979 0.52928 0.49756
 O93 O 0.48752 0.48515 0.43119
 O94 O 0.53075 0.49596 0.43040
 O95 O 0.48389 0.43202 0.48773
 O96 O 0.49415 0.43096 0.53057
 O97 O 0.44494 0.45537 0.50339
 O98 O 0.46597 0.44995 0.54439
 O99 O 0.50379 0.44627 0.45377
 O100 O 0.54442 0.46740 0.44889
 O101 O 0.45322 0.50437 0.44568
 O102 O 0.45347 0.54608 0.46433
 O103 O 0.56978 0.51378 0.51494
 O104 O 0.56962 0.47085 0.50368
 O105 O 0.51301 0.51581 0.57016
 O106 O 0.46939 0.50254 0.56880
 O107 O 0.51517 0.57075 0.51342
 O108 O 0.50059 0.56929 0.47032
 Zr109 Zr 0.51786 0.54011 0.48977
 O110 O 0.49601 0.51861 0.46609
 Zr111 Zr 0.48943 0.51866 0.53953
 O112 O 0.46581 0.49705 0.51775
 Zr113 Zr 0.53908 0.49023 0.51809
 O114 O 0.51757 0.46673 0.49603
 Zr115 Zr 0.46165 0.51251 0.48259
 O116 O 0.48262 0.53603 0.50552
 Zr117 Zr 0.51128 0.48341 0.46174
 O118 O 0.53490 0.50591 0.48299
 Zr119 Zr 0.48225 0.46266 0.51135
 O120 O 0.50501 0.48345 0.53527
 O121 O 0.52396 0.52479 0.52436
 O122 O 0.47635 0.47751 0.47648
 C123 C 0.57247 0.53531 0.50553
 C124 C 0.50486 0.57352 0.53449
 C125 C 0.53431 0.50597 0.57285
 C126 C 0.42786 0.46802 0.49303
 C127 C 0.46585 0.49415 0.42854
 C128 C 0.49329 0.42923 0.46626
 H129 H 0.49421 0.52727 0.45018
 H130 H 0.52615 0.45077 0.49440
 H131 H 0.53444 0.53531 0.53492
 H132 H 0.44973 0.49558 0.52614
 H133 H 0.43525 0.54482 0.50537
 H134 H 0.44499 0.53451 0.54442
 H135 H 0.54830 0.45322 0.45962
 H136 H 0.57276 0.47765 0.48708
 H137 H 0.43728 0.54428 0.45610
 H138 H 0.51044 0.58451 0.47247
 H139 H 0.51104 0.42716 0.52494
 H140 H 0.53893 0.45191 0.54597
 H141 H 0.54672 0.53829 0.45197
 H142 H 0.52419 0.51237 0.42603
 H143 H 0.47796 0.48708 0.57322
 H144 H 0.45154 0.46047 0.54795
 O145 O 0.50442 -0.05355 0.54660
 O146 O 0.54245 -0.03524 0.55071
 O147 O 0.45350 0.00697 0.55460
 O148 O 0.44518 0.04230 0.53586
 O149 O 0.44498 -0.04539 0.49439
 O150 O 0.46532 -0.05070 0.45618
 O151 O 0.51661 0.07104 0.48802
 O152 O 0.50284 0.07180 0.52767
 O153 O 0.56931 0.01414 0.48362
 O154 O 0.57006 -0.02913 0.49441
 O155 O 0.51288 0.01776 0.43036
 O156 O 0.47005 0.00752 0.42922
 O157 O 0.49713 0.05672 0.45374
 O158 O 0.45617 0.03566 0.44821
 O159 O 0.54682 -0.00213 0.44467
 O160 O 0.55170 -0.04272 0.46575
 O161 O 0.55477 0.04842 0.50283
 O162 O 0.53604 0.04812 0.54451
 O163 O 0.48557 -0.06817 0.51206
 O164 O 0.49685 -0.06798 0.46913
 O165 O 0.43031 -0.01145 0.51409
 O166 O 0.43166 0.03217 0.50081
 O167 O 0.48701 -0.01363 0.56906
 O168 O 0.53007 0.00098 0.56767
 Zr169 Zr 0.51067 -0.01627 0.53845
 O170 O 0.53437 0.00561 0.51700
 Zr171 Zr 0.46093 0.01215 0.51696
 O172 O 0.48272 0.03579 0.49538
 Zr173 Zr 0.48242 -0.03747 0.48852
 O174 O 0.50451 -0.01593 0.46506
 Zr175 Zr 0.51785 0.03996 0.51090
 O176 O 0.49490 0.01896 0.53437
 Zr177 Zr 0.53878 -0.00963 0.48179
 O178 O 0.51749 -0.03328 0.50424
 Zr179 Zr 0.48920 0.01939 0.46098
 O180 O 0.46525 -0.00339 0.48174
 O181 O 0.47611 -0.02237 0.52308
 O182 O 0.52404 0.02530 0.47588
 C183 C 0.49494 -0.07087 0.53361
 C184 C 0.46593 -0.00333 0.57184
 C185 C 0.42764 -0.03275 0.50425
 C186 C 0.50745 0.07380 0.46643
 C187 C 0.57193 0.03580 0.49265
 C188 C 0.53436 0.00836 0.42760
 H189 H 0.55026 0.00741 0.52569
 H190 H 0.50618 -0.02449 0.44910
 H191 H 0.46554 -0.03286 0.53359
 H192 H 0.47432 0.05186 0.49390
 H193 H 0.49500 0.06632 0.54319
 H194 H 0.45597 0.05660 0.53279
 H195 H 0.54094 -0.04665 0.45160
 H196 H 0.51346 -0.07111 0.47593
 H197 H 0.54426 0.06432 0.54273
 H198 H 0.52793 -0.00891 0.58288
 H199 H 0.47564 -0.00939 0.42546
 H200 H 0.45455 -0.03728 0.45018
 H201 H 0.54847 -0.04513 0.53664
 H202 H 0.57446 -0.02253 0.51079
 H203 H 0.42727 0.02360 0.48533
 H204 H 0.45256 0.05005 0.45877
 O205 O -0.05387 0.45353 0.99556
 O206 O -0.03556 0.44949 0.95747
 O207 O 0.00667 0.44542 1.04637
 O208 O 0.04202 0.46411 1.05467
 O209 O -0.04566 0.50563 1.05513
 O210 O -0.05100 0.54386 1.03490
 O211 O 0.07073 0.51210 0.98332
 O212 O 0.07150 0.47242 0.99700
 O213 O 0.01381 0.51661 0.93073
 O214 O -0.02947 0.50583 0.93002
 O215 O 0.01747 0.56974 0.98732
 O216 O 0.00723 0.57079 1.03018
 O217 O 0.05643 0.54634 1.00293
 O218 O 0.03540 0.55178 1.04395
 O219 O -0.00244 0.55551 0.95336
 O220 O -0.04305 0.53445 0.94849
 O221 O 0.04809 0.49736 0.94517
 O222 O 0.04781 0.45565 0.96378
 O223 O -0.06848 0.48802 1.01454
 O224 O -0.06829 0.53097 1.00336
 O225 O -0.01171 0.48589 1.06970
 O226 O 0.03191 0.49914 1.06832
 O227 O -0.01394 0.43103 1.01285
 O228 O 0.00066 0.43249 0.96977
 Zr229 Zr -0.01658 0.46168 0.98927
 O230 O 0.00529 0.48317 0.96560
 Zr231 Zr 0.01187 0.48306 1.03903
 O232 O 0.03550 0.50467 1.01726
 Zr233 Zr -0.03776 0.51155 1.01770
 O234 O -0.01623 0.53504 0.99564
 Zr235 Zr 0.03966 0.48923 0.98208
 O236 O 0.01866 0.46571 1.00499
 Zr237 Zr -0.00995 0.51838 0.96131
 O238 O -0.03359 0.49590 0.98257
 Zr239 Zr 0.01910 0.53908 1.01091
 O240 O -0.00368 0.51829 1.03484
 O241 O -0.02267 0.47698 1.02389
 O242 O 0.02499 0.52425 0.97601
 C243 C -0.07118 0.46650 1.00511
 C244 C -0.00364 0.42821 1.03390
 C245 C -0.03301 0.49574 1.07243
 C246 C 0.07350 0.53367 0.99254
 C247 C 0.03547 0.50758 0.92805
 C248 C 0.00806 0.57254 0.96586
 H249 H 0.00709 0.47451 0.94968
 H250 H -0.02479 0.55101 0.99403
 H251 H -0.03315 0.46646 1.03444
 H252 H 0.05158 0.50613 1.02564
 H253 H 0.06603 0.45689 1.00480
 H254 H 0.05632 0.46721 1.04387
 H255 H -0.04696 0.54858 0.95929
 H256 H -0.07142 0.52420 0.98674
 H257 H 0.06400 0.45744 0.95554
 H258 H -0.00923 0.41729 0.97187
 H259 H -0.00967 0.57459 1.02460
 H260 H -0.03756 0.54985 1.04565
 H261 H -0.04547 0.46357 0.95152
 H262 H -0.02287 0.48945 0.92557
 H263 H 0.02336 0.51461 1.07275
 H264 H 0.04980 0.54121 1.04750
 O265 O 0.01223 0.48401 0.56944
 O266 O -0.02828 0.49632 0.57001
 O267 O 0.01460 0.42982 0.51115
 O268 O 0.00730 0.42811 0.47106
 O269 O 0.07006 0.48788 0.51468
 O270 O 0.06989 0.53003 0.50397
 O271 O -0.04775 0.49554 0.44545
 O272 O -0.05057 0.45726 0.46260
 O273 O -0.05461 0.54665 0.50331
 O274 O -0.03441 0.55274 0.54276
 O275 O 0.00349 0.55433 0.45258
 O276 O 0.04247 0.53442 0.44600
 O277 O -0.01373 0.51523 0.43079
 O278 O 0.03099 0.50323 0.43053
 O279 O -0.01581 0.56898 0.48674
 O280 O -0.00357 0.56875 0.53103
 O281 O -0.06906 0.51283 0.48326
 O282 O -0.06812 0.47071 0.50083
 O283 O 0.04599 0.50444 0.55511
 O284 O 0.05128 0.54344 0.53454
 O285 O 0.05576 0.45374 0.49508
 O286 O 0.03457 0.45050 0.45479
 O287 O -0.00411 0.44429 0.54577
 O288 O -0.04467 0.46489 0.54784
 Zr289 Zr -0.01071 0.48177 0.53838
 O290 O -0.03407 0.50439 0.51732
 Zr291 Zr 0.01825 0.46105 0.48859
 O292 O -0.00461 0.48212 0.46550
 Zr293 Zr 0.03892 0.51074 0.51745
 O294 O 0.01763 0.53409 0.49500
 Zr295 Zr -0.03876 0.48870 0.48236
 O296 O -0.01712 0.46469 0.50412
 Zr297 Zr -0.01744 0.53857 0.51065
 O298 O 0.00473 0.51712 0.53439
 Zr299 Zr 0.01083 0.51723 0.46082
 O300 O 0.03511 0.49530 0.48211
 O301 O 0.02405 0.47601 0.52327
 O302 O -0.02387 0.52355 0.47593
 C303 C 0.03337 0.49419 0.57229
 C304 C 0.00525 0.42700 0.53266
 C305 C 0.07296 0.46658 0.50490
 C306 C -0.03533 0.50593 0.42826
 C307 C -0.07170 0.53431 0.49268
 C308 C -0.00674 0.57154 0.46510
 H309 H -0.05001 0.50612 0.52594
 H310 H 0.02633 0.54995 0.49312
 H311 H 0.03458 0.46544 0.53375
 H312 H -0.00674 0.47336 0.44969
 H313 H -0.04661 0.44280 0.47295
 H314 H -0.00803 0.43187 0.46203
 H315 H 0.01147 0.57468 0.52266
 H316 H 0.03817 0.54857 0.54611
 H317 H -0.08287 0.47141 0.49011
 H318 H -0.04243 0.45521 0.56316
 H319 H 0.04867 0.54615 0.45846
 H320 H 0.07240 0.52441 0.48682
 H321 H -0.02289 0.51365 0.57154
 H322 H -0.04696 0.54073 0.54817
 H323 H 0.04774 0.46257 0.45124
 H324 H 0.02233 0.48845 0.42439
 O325 O 0.51414 0.92883 0.01237
 O326 O 0.50187 0.92827 -0.02814
 O327 O 0.56835 0.98706 0.01472
 O328 O 0.57009 1.02713 0.00747
 O329 O 0.51022 0.98357 0.07019
 O330 O 0.46805 0.99434 0.07000
 O331 O 0.50278 1.05282 -0.04763
 O332 O 0.54106 1.03560 -0.05042
 O333 O 0.45163 0.99509 -0.05453
 O334 O 0.44547 0.95564 -0.03433
 O335 O 0.44389 1.04578 0.00361
 O336 O 0.46371 1.05234 0.04255
 O337 O 0.48303 1.06750 -0.01362
 O338 O 0.49499 1.06770 0.03114
 O339 O 0.42923 1.01166 -0.01570
 O340 O 0.42942 0.96737 -0.00350
 O341 O 0.48550 1.01508 -0.06894
 O342 O 0.52758 0.99741 -0.06800
 O343 O 0.49367 0.94317 0.04612
 O344 O 0.45467 0.96378 0.05139
 O345 O 0.54440 1.00310 0.05588
 O346 O 0.54766 1.04341 0.03471
 O347 O 0.55391 0.95246 -0.00399
 O348 O 0.53332 0.95039 -0.04455
 Zr349 Zr 0.51643 0.95988 -0.01059
 O350 O 0.49385 0.98097 -0.03395
 Zr351 Zr 0.53712 1.00963 0.01839
 O352 O 0.51611 1.03275 -0.00448
 Zr353 Zr 0.48739 0.98083 0.03904
 O354 O 0.46408 1.00332 0.01774
 Zr355 Zr 0.50957 1.01590 -0.03863
 O356 O 0.53353 0.99410 -0.01698
 Zr357 Zr 0.45963 0.98771 -0.01735
 O358 O 0.48105 0.96392 0.00484
 Zr359 Zr 0.48098 1.03747 0.01094
 O360 O 0.50285 1.01615 0.03524
 O361 O 0.52214 0.97497 0.02418
 O362 O 0.47470 1.02239 -0.02376
 C363 C 0.50394 0.92598 0.03351
 C364 C 0.57118 0.96556 0.00535
 C365 C 0.53153 0.99331 0.07309
 C366 C 0.49237 1.07002 -0.03521
 C367 C 0.46401 1.00571 -0.07161
 C368 C 0.42668 1.03330 -0.00661
 H369 H 0.49213 0.97237 -0.04990
 H370 H 0.44822 1.00523 0.02644
 H371 H 0.53270 0.96448 0.03470
 H372 H 0.52488 1.04854 -0.00661
 H373 H 0.55550 1.02521 -0.04646
 H374 H 0.56637 1.03615 -0.00788
 H375 H 0.42349 0.97572 0.01156
 H376 H 0.44955 0.95223 0.03827
 H377 H 0.52692 1.00815 -0.08274
 H378 H 0.54300 0.93506 -0.04230
 H379 H 0.45204 1.03986 0.04881
 H380 H 0.47370 1.01147 0.07254
 H381 H 0.48453 0.92678 -0.02276
 H382 H 0.45751 0.95021 -0.04687
 H383 H 0.53559 1.04695 0.04791
 H384 H 0.50975 1.07387 0.02245
 O385 O 0.54734 0.50236 -0.05459
 O386 O 0.55139 0.54042 -0.03635
 O387 O 0.55531 0.45159 0.00603
 O388 O 0.53653 0.44333 0.04135
 O389 O 0.49517 0.44287 -0.04636
 O390 O 0.45698 0.46315 -0.05175
 O391 O 0.48860 0.51479 0.06996
 O392 O 0.52827 0.50109 0.07075
 O393 O 0.48415 0.56733 0.01296
 O394 O 0.49502 0.56798 -0.03031
 O395 O 0.43101 0.51085 0.01670
 O396 O 0.42992 0.46801 0.00651
 O397 O 0.45436 0.49522 0.05568
 O398 O 0.44892 0.45419 0.03465
 O399 O 0.44529 0.54474 -0.00327
 O400 O 0.46642 0.54952 -0.04390
 O401 O 0.50334 0.55290 0.04728
 O402 O 0.54506 0.53426 0.04702
 O403 O 0.51285 0.48343 -0.06921
 O404 O 0.46990 0.49466 -0.06905
 O405 O 0.51484 0.42831 -0.01238
 O406 O 0.50153 0.42977 0.03125
 O407 O 0.56976 0.48506 -0.01461
 O408 O 0.56829 0.52817 -0.00009
 Zr409 Zr 0.53913 0.50869 -0.01732
 O410 O 0.51762 0.53241 0.00450
 Zr411 Zr 0.51767 0.45899 0.01117
 O412 O 0.49604 0.48082 0.03477
 Zr413 Zr 0.48927 0.48032 -0.03850
 O414 O 0.46575 0.50243 -0.01700
 Zr415 Zr 0.51150 0.51598 0.03889
 O416 O 0.53503 0.49300 0.01793
 Zr417 Zr 0.48243 0.53673 -0.01076
 O418 O 0.50494 0.51542 -0.03436
 Zr419 Zr 0.46165 0.48721 0.01835
 O420 O 0.48246 0.46323 -0.00440
 O421 O 0.52382 0.47409 -0.02338
 O422 O 0.47650 0.52208 0.02420
 C423 C 0.53439 0.49283 -0.07191
 C424 C 0.57255 0.46403 -0.00427
 C425 C 0.50501 0.42557 -0.03367
 C426 C 0.46702 0.50560 0.07274
 C427 C 0.49313 0.57002 0.03463
 C428 C 0.42824 0.53230 0.00727
 H429 H 0.52628 0.54832 0.00628
 H430 H 0.44979 0.50405 -0.02557
 H431 H 0.53435 0.46351 -0.03385
 H432 H 0.49455 0.47247 0.05086
 H433 H 0.54380 0.49326 0.06530
 H434 H 0.53350 0.45420 0.05561
 H435 H 0.45226 0.53876 -0.04778
 H436 H 0.47669 0.51126 -0.07221
 H437 H 0.54325 0.54253 0.06320
 H438 H 0.58352 0.52601 -0.00995
 H439 H 0.42618 0.47354 -0.01042
 H440 H 0.45094 0.45245 -0.03830
 H441 H 0.53732 0.54642 -0.04623
 H442 H 0.51138 0.57242 -0.02371
 H443 H 0.48607 0.42533 0.02269
 H444 H 0.45944 0.45065 0.04908
 O445 O -0.01211 0.01473 0.57016
 O446 O 0.02842 0.00243 0.57069
 O447 O -0.01455 0.06888 0.51192
 O448 O -0.00720 0.07060 0.47183
 O449 O -0.06992 0.01082 0.51552
 O450 O -0.06973 -0.03135 0.50474
 O451 O 0.04787 0.00323 0.44611
 O452 O 0.05070 0.04147 0.46329
 O453 O 0.05478 -0.04791 0.50393
 O454 O 0.03462 -0.05405 0.54334
 O455 O -0.00341 -0.05562 0.45327
 O456 O -0.04227 -0.03576 0.44667
 O457 O 0.01387 -0.01648 0.43147
 O458 O -0.03089 -0.00449 0.43132
 O459 O 0.01589 -0.07029 0.48740
 O460 O 0.00373 -0.06999 0.53173
 O461 O 0.06921 -0.01407 0.48392
 O462 O 0.06824 0.02805 0.50150
 O463 O -0.04586 -0.00572 0.55586
 O464 O -0.05111 -0.04475 0.53529
 O465 O -0.05565 0.04495 0.49591
 O466 O -0.03446 0.04818 0.45557
 O467 O 0.00419 0.05444 0.54651
 O468 O 0.04479 0.03387 0.54851
 Zr469 Zr 0.01084 0.01697 0.53909
 O470 O 0.03420 -0.00566 0.51799
 Zr471 Zr -0.01814 0.03765 0.48934
 O472 O 0.00474 0.01660 0.46622
 Zr473 Zr -0.03877 -0.01204 0.51821
 O474 O -0.01748 -0.03537 0.49571
 Zr475 Zr 0.03889 0.01003 0.48304
 O476 O 0.01724 0.03404 0.50483
 Zr477 Zr 0.01760 -0.03985 0.51130
 O478 O -0.00458 -0.01840 0.53510
 Zr479 Zr -0.01068 -0.01851 0.46153
 O480 O -0.03499 0.00340 0.48286
 O481 O -0.02392 0.02269 0.52402
 O482 O 0.02402 -0.02483 0.47659
 C483 C -0.03325 0.00456 0.57303
 C484 C -0.00521 0.07171 0.53343
 C485 C -0.07283 0.03212 0.50578
 C486 C 0.03544 -0.00714 0.42891
 C487 C 0.07188 -0.03555 0.49333
 C488 C 0.00676 -0.07285 0.46579
 H489 H 0.05015 -0.00738 0.52659
 H490 H -0.02619 -0.05123 0.49383
 H491 H -0.03445 0.03325 0.53451
 H492 H 0.00686 0.02536 0.45042
 H493 H 0.04671 0.05593 0.47364
 H494 H 0.00813 0.06685 0.46277
 H495 H -0.01132 -0.07593 0.52339
 H496 H -0.03801 -0.04984 0.54688
 H497 H 0.08299 0.02735 0.49076
 H498 H 0.04254 0.04356 0.56384
 H499 H -0.04860 -0.04732 0.45922
 H500 H -0.07231 -0.02567 0.48762
 H501 H 0.02302 -0.01490 0.57223
 H502 H 0.04707 -0.04197 0.54882
 H503 H -0.04767 0.03614 0.45206
 H504 H -0.02221 0.01026 0.42514
 O505 O 0.73807 0.18020 0.26629
 O506 O 0.77863 0.17959 0.25411
 O507 O 0.73563 0.23853 0.32048
 O508 O 0.74298 0.27860 0.32219
 O509 O 0.68032 0.23501 0.26228
 O510 O 0.68061 0.24572 0.22011
 O511 O 0.79820 0.30414 0.25490
 O512 O 0.80093 0.28697 0.29319
 O513 O 0.80514 0.24627 0.20379
 O514 O 0.78494 0.20682 0.19769
 O515 O 0.74710 0.29700 0.19596
 O516 O 0.70810 0.30364 0.21576
 O517 O 0.76425 0.31880 0.23509
 O518 O 0.71950 0.31909 0.24699
 O519 O 0.76640 0.26282 0.18136
 O520 O 0.75414 0.21855 0.18160
 O521 O 0.81951 0.26632 0.23764
 O522 O 0.81849 0.24874 0.27976
 O523 O 0.70438 0.19457 0.24578
 O524 O 0.69920 0.21512 0.20676
 O525 O 0.69456 0.25461 0.29645
 O526 O 0.71578 0.29488 0.29972
 O527 O 0.75433 0.20389 0.30608
 O528 O 0.79495 0.20175 0.28558
 Zr529 Zr 0.76105 0.21124 0.26861
 O530 O 0.78449 0.23226 0.24603
 Zr531 Zr 0.73209 0.26107 0.28922
 O532 O 0.75502 0.28412 0.26820
 Zr533 Zr 0.71151 0.23220 0.23949
 O534 O 0.73288 0.25462 0.21618
 Zr535 Zr 0.78917 0.26723 0.26171
 O536 O 0.76745 0.24549 0.28568
 Zr537 Zr 0.76795 0.23894 0.21180
 O538 O 0.74570 0.21523 0.23321
 Zr539 Zr 0.73967 0.28879 0.23305
 O540 O 0.71531 0.26754 0.25493
 O541 O 0.72629 0.22639 0.27427
 O542 O 0.77437 0.27365 0.22683
 C543 C 0.71696 0.17737 0.25605
 C544 C 0.74495 0.21702 0.32333
 C545 C 0.67738 0.24480 0.28357
 C546 C 0.78582 0.32133 0.24446
 C547 C 0.82220 0.25691 0.21615
 C548 C 0.75734 0.28445 0.17878
 H549 H 0.80043 0.22364 0.24434
 H550 H 0.72422 0.25650 0.20030
 H551 H 0.71573 0.21593 0.28481
 H552 H 0.75714 0.29993 0.27696
 H553 H 0.79692 0.27661 0.30764
 H554 H 0.75833 0.28761 0.31847
 H555 H 0.73912 0.22691 0.17563
 H556 H 0.71232 0.20354 0.20166
 H557 H 0.83325 0.25946 0.27908
 H558 H 0.79266 0.18645 0.29528
 H559 H 0.70190 0.29117 0.20404
 H560 H 0.67808 0.26287 0.22574
 H561 H 0.77330 0.17807 0.23676
 H562 H 0.79748 0.20142 0.20973
 H563 H 0.70263 0.29843 0.28762
 H564 H 0.72814 0.32524 0.26179
 O565 O 0.75455 0.70283 0.69506
 O566 O 0.79254 0.69876 0.71345
 O567 O 0.70351 0.69485 0.75549
 O568 O 0.69507 0.71358 0.79079
 O569 O 0.69499 0.75506 0.70313
 O570 O 0.71531 0.79322 0.69782
 O571 O 0.76641 0.76150 0.81970
 O572 O 0.75266 0.72183 0.82043
 O573 O 0.81918 0.76593 0.76294
 O574 O 0.82005 0.75512 0.71966
 O575 O 0.76262 0.81909 0.76650
 O576 O 0.71980 0.82018 0.75610
 O577 O 0.74687 0.79574 0.80535
 O578 O 0.70591 0.80118 0.78423
 O579 O 0.79664 0.80483 0.74668
 O580 O 0.80163 0.78375 0.70603
 O581 O 0.80459 0.74671 0.79718
 O582 O 0.78597 0.70501 0.79682
 O583 O 0.73566 0.73734 0.68041
 O584 O 0.74689 0.78027 0.68063
 O585 O 0.68029 0.73536 0.73704
 O586 O 0.68154 0.74861 0.78069
 O587 O 0.73709 0.68039 0.73498
 O588 O 0.78014 0.68183 0.74965
 Zr589 Zr 0.76071 0.71101 0.73237
 O590 O 0.78432 0.73250 0.75431
 Zr591 Zr 0.71087 0.73248 0.76069
 O592 O 0.73257 0.75407 0.78440
 Zr593 Zr 0.73241 0.76090 0.71112
 O594 O 0.75440 0.78439 0.73272
 Zr595 Zr 0.76772 0.73859 0.78863
 O596 O 0.74486 0.71510 0.76757
 Zr597 Zr 0.78869 0.76770 0.73909
 O598 O 0.76751 0.74522 0.71539
 Zr599 Zr 0.73900 0.78846 0.76802
 O600 O 0.71515 0.76769 0.74516
 O601 O 0.72613 0.72635 0.72619
 O602 O 0.77385 0.77359 0.77399
 C603 C 0.74509 0.71580 0.67772
 C604 C 0.71600 0.67761 0.74524
 C605 C 0.67764 0.74522 0.71575
 C606 C 0.75722 0.78309 0.82245
 C607 C 0.82176 0.75693 0.78462
 C608 C 0.78412 0.82187 0.75719
 H609 H 0.80022 0.72383 0.75614
 H610 H 0.75606 0.80036 0.72418
 H611 H 0.71560 0.71583 0.71568
 H612 H 0.72414 0.75555 0.80046
 H613 H 0.74489 0.70629 0.81494
 H614 H 0.70586 0.71661 0.80510
 H615 H 0.79088 0.79792 0.70212
 H616 H 0.76352 0.77348 0.67755
 H617 H 0.79414 0.70680 0.81304
 H618 H 0.77803 0.66661 0.73977
 H619 H 0.72549 0.82399 0.73924
 H620 H 0.70455 0.79927 0.71124
 H621 H 0.79858 0.71284 0.70361
 H622 H 0.82446 0.73874 0.72626
 H623 H 0.67714 0.76408 0.77213
 H624 H 0.70233 0.79067 0.79866
 O625 O 0.29592 0.19505 0.74463
 O626 O 0.30010 0.21339 0.70659
 O627 O 0.30410 0.25543 0.79563
 O628 O 0.28551 0.29082 0.80402
 O629 O 0.24366 0.20335 0.80408
 O630 O 0.20547 0.19824 0.78371
 O631 O 0.23780 0.31992 0.73264
 O632 O 0.27744 0.32048 0.74642
 O633 O 0.23323 0.26318 0.67983
 O634 O 0.24382 0.21987 0.67899
 O635 O 0.17995 0.26692 0.73636
 O636 O 0.17878 0.25659 0.77918
 O637 O 0.20346 0.30572 0.75212
 O638 O 0.19786 0.28464 0.79306
 O639 O 0.19418 0.24705 0.70235
 O640 O 0.21513 0.20636 0.69737
 O641 O 0.25259 0.29733 0.69444
 O642 O 0.29423 0.29679 0.71316
 O643 O 0.26132 0.18056 0.76348
 O644 O 0.21842 0.18095 0.75216
 O645 O 0.26350 0.23717 0.81880
 O646 O 0.25041 0.28085 0.81753
 O647 O 0.31852 0.23485 0.76207
 O648 O 0.31719 0.24951 0.71901
 Zr649 Zr 0.28790 0.23238 0.73841
 O650 O 0.26655 0.25441 0.71476
 Zr651 Zr 0.26650 0.26080 0.78822
 O652 O 0.24503 0.28459 0.76648
 Zr653 Zr 0.23788 0.21136 0.76665
 O654 O 0.21452 0.23306 0.74461
 Zr655 Zr 0.26057 0.28876 0.73135
 O656 O 0.28395 0.26759 0.75424
 Zr657 Zr 0.23128 0.23935 0.71033
 O658 O 0.25363 0.21555 0.73157
 Zr659 Zr 0.21057 0.26836 0.75999
 O660 O 0.23122 0.24543 0.78390
 O661 O 0.27249 0.22628 0.77297
 O662 O 0.22551 0.27428 0.72515
 C663 C 0.28287 0.17778 0.75411
 C664 C 0.32131 0.24509 0.78316
 C665 C 0.25356 0.21592 0.82144
 C666 C 0.21621 0.32276 0.74181
 C667 C 0.24237 0.28480 0.67725
 C668 C 0.17715 0.25759 0.71486
 H669 H 0.27525 0.25620 0.69887
 H670 H 0.19853 0.22457 0.74294
 H671 H 0.28295 0.21573 0.78352
 H672 H 0.24360 0.30065 0.77491
 H673 H 0.29294 0.31493 0.75424
 H674 H 0.28250 0.30516 0.79325
 H675 H 0.20096 0.20248 0.70813
 H676 H 0.22523 0.17784 0.73554
 H677 H 0.29253 0.31302 0.70498
 H678 H 0.33236 0.23955 0.72113
 H679 H 0.17493 0.23973 0.77351
 H680 H 0.19951 0.21166 0.79451
 H681 H 0.28600 0.20357 0.70058
 H682 H 0.26026 0.22635 0.67464
 H683 H 0.23490 0.27236 0.82191
 H684 H 0.20846 0.29899 0.79667
 O685 O 0.19442 0.74477 0.29753
 O686 O 0.21266 0.70672 0.30164
 O687 O 0.25505 0.79552 0.30563
 O688 O 0.29036 0.80384 0.28691
 O689 O 0.20278 0.80424 0.24533
 O690 O 0.19747 0.78393 0.20715
 O691 O 0.31912 0.73236 0.23907
 O692 O 0.31981 0.74607 0.27875
 O693 O 0.26218 0.67980 0.23451
 O694 O 0.21890 0.67911 0.24526
 O695 O 0.26600 0.73630 0.18136
 O696 O 0.25577 0.77915 0.18026
 O697 O 0.30488 0.75191 0.20479
 O698 O 0.28389 0.79294 0.19930
 O699 O 0.24603 0.70238 0.19559
 O700 O 0.20534 0.69759 0.21664
 O701 O 0.29643 0.69425 0.25378
 O702 O 0.29606 0.71289 0.29550
 O703 O 0.17989 0.76369 0.26299
 O704 O 0.18015 0.75244 0.22006
 O705 O 0.23670 0.81881 0.26510
 O706 O 0.28035 0.81736 0.25189
 O707 O 0.23439 0.76205 0.32007
 O708 O 0.24888 0.71893 0.31861
 Zr709 Zr 0.23172 0.73844 0.28942
 O710 O 0.25361 0.71472 0.26795
 Zr711 Zr 0.26024 0.78813 0.26800
 O712 O 0.28390 0.76632 0.24643
 Zr713 Zr 0.21065 0.76679 0.23949
 O714 O 0.23221 0.74468 0.21602
 Zr715 Zr 0.28800 0.73116 0.26191
 O716 O 0.26698 0.75413 0.28538
 Zr717 Zr 0.23844 0.71038 0.23272
 O718 O 0.21478 0.73169 0.25518
 Zr719 Zr 0.26756 0.75993 0.21200
 O720 O 0.24475 0.78390 0.23276
 O721 O 0.22568 0.77303 0.27408
 O722 O 0.27340 0.72506 0.22687
 C723 C 0.17714 0.75429 0.28452
 C724 C 0.24475 0.78308 0.32287
 C725 C 0.21544 0.82154 0.25520
 C726 C 0.32193 0.74153 0.21749
 C727 C 0.28383 0.67713 0.24354
 C728 C 0.25660 0.71484 0.17856
 H729 H 0.25538 0.69881 0.27662
 H730 H 0.22368 0.74306 0.20004
 H731 H 0.21519 0.78362 0.28459
 H732 H 0.29999 0.77468 0.24498
 H733 H 0.31431 0.75389 0.29428
 H734 H 0.30463 0.79295 0.28396
 H735 H 0.20150 0.70833 0.20246
 H736 H 0.17700 0.73583 0.22684
 H737 H 0.31225 0.70463 0.29373
 H738 H 0.23900 0.72110 0.33383
 H739 H 0.23888 0.77355 0.17644
 H740 H 0.21093 0.79463 0.20113
 H741 H 0.20284 0.70070 0.28754
 H742 H 0.22544 0.67470 0.26166
 H743 H 0.27182 0.82180 0.23642
 H744 H 0.29829 0.79648 0.20985
 O745 O 0.23808 0.68063 0.76605
 O746 O 0.27861 0.68018 0.75375
 O747 O 0.23553 0.73875 0.82040
 O748 O 0.24276 0.77885 0.82221
 O749 O 0.18013 0.73524 0.76227
 O750 O 0.18030 0.74605 0.72014
 O751 O 0.29776 0.80476 0.75482
 O752 O 0.30058 0.78756 0.79308
 O753 O 0.30479 0.74711 0.70358
 O754 O 0.28474 0.70764 0.69735
 O755 O 0.24648 0.79765 0.69599
 O756 O 0.20749 0.80406 0.71600
 O757 O 0.26372 0.81937 0.73512
 O758 O 0.21903 0.81955 0.74715
 O759 O 0.26590 0.76360 0.68126
 O760 O 0.25382 0.71926 0.68142
 O761 O 0.31917 0.76706 0.73749
 O762 O 0.31825 0.74940 0.77957
 O763 O 0.20430 0.69493 0.74565
 O764 O 0.19898 0.71555 0.70668
 O765 O 0.19435 0.75478 0.79648
 O766 O 0.21544 0.79510 0.79985
 O767 O 0.25436 0.70423 0.80584
 O768 O 0.29494 0.70233 0.78524
 Zr769 Zr 0.26096 0.71173 0.76838
 O770 O 0.28426 0.73291 0.74581
 Zr771 Zr 0.23185 0.76138 0.78921
 O772 O 0.25465 0.78458 0.76821
 Zr773 Zr 0.21129 0.73260 0.73943
 O774 O 0.23252 0.75516 0.71613
 Zr775 Zr 0.28885 0.76783 0.76159
 O776 O 0.26726 0.74595 0.78555
 Zr777 Zr 0.26764 0.73963 0.71162
 O778 O 0.24552 0.71577 0.73302
 Zr779 Zr 0.23922 0.78931 0.73310
 O780 O 0.21499 0.76791 0.75497
 O781 O 0.22615 0.72673 0.77416
 O782 O 0.27396 0.77431 0.72675
 C783 C 0.21696 0.67776 0.75587
 C784 C 0.24495 0.71726 0.82317
 C785 C 0.17718 0.74495 0.78359
 C786 C 0.28531 0.82194 0.74443
 C787 C 0.32185 0.75773 0.71597
 C788 C 0.25673 0.78520 0.67874
 H789 H 0.30023 0.72434 0.74406
 H790 H 0.22381 0.75706 0.70028
 H791 H 0.21565 0.71621 0.78469
 H792 H 0.25675 0.80037 0.77700
 H793 H 0.29665 0.77717 0.80752
 H794 H 0.25804 0.78796 0.81847
 H795 H 0.23877 0.72760 0.67549
 H796 H 0.21213 0.70402 0.70154
 H797 H 0.33296 0.76017 0.77891
 H798 H 0.29273 0.68698 0.79489
 H799 H 0.20137 0.79166 0.70417
 H800 H 0.17772 0.76317 0.72582
 H801 H 0.27323 0.67869 0.73641
 H802 H 0.29724 0.70219 0.70940
 H803 H 0.20229 0.79867 0.78776
 H804 H 0.22766 0.82565 0.76197
 O805 O 0.25473 0.20290 0.19492
 O806 O 0.29280 0.19885 0.21313
 O807 O 0.20398 0.19489 0.25562
 O808 O 0.19568 0.21363 0.29094
 O809 O 0.19517 0.25506 0.20327
 O810 O 0.21541 0.29324 0.19785
 O811 O 0.26705 0.26157 0.31952
 O812 O 0.25340 0.22188 0.32028
 O813 O 0.31960 0.26608 0.26249
 O814 O 0.32031 0.25524 0.21923
 O815 O 0.26303 0.31918 0.26628
 O816 O 0.22019 0.32025 0.25611
 O817 O 0.24746 0.29581 0.30525
 O818 O 0.20641 0.30124 0.28427
 O819 O 0.29696 0.30494 0.24628
 O820 O 0.30179 0.28382 0.20563
 O821 O 0.30517 0.24687 0.29681
 O822 O 0.28663 0.20514 0.29653
 O823 O 0.23574 0.23740 0.18035
 O824 O 0.24693 0.28033 0.18052
 O825 O 0.18064 0.23535 0.23725
 O826 O 0.18207 0.24863 0.28087
 O827 O 0.23747 0.18044 0.23494
 O828 O 0.28059 0.18193 0.24939
 Zr829 Zr 0.26105 0.21109 0.23220
 O830 O 0.28474 0.23259 0.25402
 Zr831 Zr 0.21132 0.23252 0.26075
 O832 O 0.23311 0.25414 0.28435
 Zr833 Zr 0.23261 0.26095 0.21107
 O834 O 0.25469 0.28446 0.23257
 Zr835 Zr 0.26829 0.23869 0.28843
 O836 O 0.24536 0.21516 0.26747
 Zr837 Zr 0.28901 0.26779 0.23878
 O838 O 0.26774 0.24529 0.21518
 Zr839 Zr 0.23945 0.28854 0.26793
 O840 O 0.21550 0.26773 0.24519
 O841 O 0.22643 0.22639 0.22618
 O842 O 0.27434 0.27369 0.27375
 C843 C 0.24517 0.21587 0.17762
 C844 C 0.21643 0.17765 0.24531
 C845 C 0.17788 0.24520 0.21597
 C846 C 0.25785 0.28315 0.32230
 C847 C 0.32228 0.25710 0.28417
 C848 C 0.28448 0.32198 0.25683
 H849 H 0.30066 0.22395 0.25579
 H850 H 0.25629 0.30042 0.22400
 H851 H 0.21586 0.21586 0.21572
 H852 H 0.22474 0.25562 0.30045
 H853 H 0.24562 0.20634 0.31482
 H854 H 0.20654 0.21668 0.30520
 H855 H 0.29101 0.29797 0.20176
 H856 H 0.26354 0.27355 0.17735
 H857 H 0.29487 0.20694 0.31272
 H858 H 0.27844 0.16670 0.23953
 H859 H 0.22575 0.32403 0.23919
 H860 H 0.20471 0.29928 0.21131
 H861 H 0.29879 0.21294 0.20327
 H862 H 0.32475 0.23886 0.22581
 H863 H 0.17762 0.26409 0.27232
 H864 H 0.20289 0.29072 0.29871
 O865 O 0.79614 0.69501 0.24464
 O866 O 0.80016 0.71325 0.20655
 O867 O 0.80402 0.75570 0.29539
 O868 O 0.78524 0.79102 0.30361
 O869 O 0.74402 0.70326 0.30421
 O870 O 0.70580 0.69779 0.28400
 O871 O 0.73719 0.81948 0.23231
 O872 O 0.77689 0.82032 0.24591
 O873 O 0.73282 0.76242 0.17974
 O874 O 0.74374 0.71920 0.17905
 O875 O 0.67969 0.76612 0.23632
 O876 O 0.67863 0.75597 0.27915
 O877 O 0.70299 0.80515 0.25193
 O878 O 0.69761 0.78412 0.29296
 O879 O 0.69398 0.74614 0.20240
 O880 O 0.71520 0.70555 0.19759
 O881 O 0.75193 0.79679 0.19415
 O882 O 0.79366 0.79661 0.21268
 O883 O 0.76168 0.68038 0.26364
 O884 O 0.71873 0.68046 0.25247
 O885 O 0.76364 0.73729 0.31871
 O886 O 0.75024 0.78087 0.31728
 O887 O 0.81852 0.73504 0.26191
 O888 O 0.81701 0.74953 0.21878
 Zr889 Zr 0.78788 0.73227 0.23831
 O890 O 0.76631 0.75405 0.21461
 Zr891 Zr 0.76639 0.76079 0.28802
 O892 O 0.74470 0.78433 0.26623
 Zr893 Zr 0.73806 0.71105 0.26676
 O894 O 0.71450 0.73249 0.24468
 Zr895 Zr 0.76014 0.78843 0.23104
 O896 O 0.78372 0.76754 0.25398
 Zr897 Zr 0.73115 0.73873 0.21034
 O898 O 0.75371 0.71518 0.23163
 Zr899 Zr 0.71034 0.76784 0.25990
 O900 O 0.73121 0.74516 0.28386
 O901 O 0.77259 0.72624 0.27293
 O902 O 0.72516 0.77369 0.22500
 C903 C 0.78322 0.67769 0.25421
 C904 C 0.82128 0.74540 0.28296
 C905 C 0.75387 0.71599 0.32148
 C906 C 0.71562 0.82223 0.24154
 C907 C 0.74174 0.78411 0.17704
 C908 C 0.67692 0.75665 0.21487
 H909 H 0.77496 0.75583 0.19869
 H910 H 0.69855 0.72389 0.24308
 H911 H 0.78314 0.71580 0.28350
 H912 H 0.74319 0.80042 0.27460
 H913 H 0.79244 0.81488 0.25370
 H914 H 0.78208 0.80529 0.29279
 H915 H 0.70105 0.70165 0.20837
 H916 H 0.72552 0.67730 0.23585
 H917 H 0.79181 0.81279 0.20443
 H918 H 0.83226 0.73970 0.22093
 H919 H 0.67494 0.73902 0.27364
 H920 H 0.69977 0.71123 0.29472
 H921 H 0.78610 0.70334 0.20057
 H922 H 0.76011 0.72580 0.17461
 H923 H 0.73480 0.77228 0.32175
 H924 H 0.70810 0.79858 0.29648
 O925 O 0.75461 0.29628 0.80592
 O926 O 0.79263 0.30030 0.78755
 O927 O 0.70366 0.30428 0.74547
 O928 O 0.69527 0.28555 0.71018
 O929 O 0.69507 0.24409 0.79784
 O930 O 0.71539 0.20592 0.80319
 O931 O 0.76665 0.23756 0.68131
 O932 O 0.75292 0.27724 0.68056
 O933 O 0.81936 0.23310 0.73809
 O934 O 0.82016 0.24393 0.78138
 O935 O 0.76280 0.17998 0.73454
 O936 O 0.71999 0.17893 0.74491
 O937 O 0.74710 0.20334 0.69566
 O938 O 0.70612 0.19794 0.71679
 O939 O 0.79680 0.19422 0.75437
 O940 O 0.80174 0.21530 0.79500
 O941 O 0.80481 0.25231 0.70384
 O942 O 0.78618 0.29403 0.70418
 O943 O 0.73570 0.26180 0.82059
 O944 O 0.74695 0.21886 0.82039
 O945 O 0.68042 0.26380 0.76392
 O946 O 0.68174 0.25054 0.72028
 O947 O 0.73721 0.31872 0.76599
 O948 O 0.78028 0.31723 0.75134
 Zr949 Zr 0.76083 0.28807 0.76862
 O950 O 0.78448 0.26656 0.74670
 Zr951 Zr 0.71103 0.26665 0.74029
 O952 O 0.73277 0.24503 0.71660
 Zr953 Zr 0.73250 0.23822 0.78988
 O954 O 0.75454 0.21471 0.76829
 Zr955 Zr 0.76793 0.26047 0.71237
 O956 O 0.74503 0.28399 0.73342
 Zr957 Zr 0.78884 0.23136 0.76193
 O958 O 0.76761 0.25387 0.78562
 Zr959 Zr 0.73919 0.21063 0.73299
 O960 O 0.71530 0.23144 0.75584
 O961 O 0.72624 0.27278 0.77479
 O962 O 0.77405 0.22546 0.72702
 C963 C 0.74512 0.28333 0.82326
 C964 C 0.71614 0.32151 0.75572
 C965 C 0.67773 0.25394 0.78520
 C966 C 0.75746 0.21598 0.67856
 C967 C 0.82197 0.24209 0.71641
 C968 C 0.78430 0.17719 0.74387
 H969 H 0.80038 0.27521 0.74487
 H970 H 0.75618 0.19874 0.77685
 H971 H 0.71569 0.28330 0.78530
 H972 H 0.72436 0.24355 0.70054
 H973 H 0.74513 0.29278 0.68604
 H974 H 0.70609 0.28251 0.69587
 H975 H 0.79097 0.20117 0.79893
 H976 H 0.76357 0.22564 0.82347
 H977 H 0.79438 0.29223 0.68797
 H978 H 0.77816 0.33245 0.76122
 H979 H 0.72563 0.17513 0.76179
 H980 H 0.70466 0.19988 0.78977
 H981 H 0.79865 0.28622 0.79741
 H982 H 0.82458 0.26029 0.77477
 H983 H 0.67733 0.23508 0.72885
 H984 H 0.70256 0.20844 0.70236
 C985 C 0.08570 1.00347 1.18651
 N986 N 0.07629 0.98304 1.17572
 N987 N 0.06574 0.98443 1.15363
 C988 C 0.06434 1.00627 1.14161
 N989 N 0.07371 1.02672 1.15242
 N990 N 0.08426 1.02533 1.17452
 C991 C 0.09844 1.00177 1.20957
 C992 C 0.11006 1.00065 1.22844
 C993 C 0.05368 1.00749 1.11748
 C994 C 0.04480 1.00783 1.09716
 C995 C 0.58577 0.50173 0.68635
 N996 N 0.58003 0.48082 0.67399
 N997 N 0.56940 0.48199 0.65193
 C998 C 0.56426 0.50409 0.64152
 N999 N 0.56997 0.52500 0.65389
 N1000 N 0.58060 0.52383 0.67597
 C1001 C 0.59862 0.50053 0.70937
 C1002 C 0.61027 0.49984 0.72824
 C1003 C 0.55357 0.50528 0.61742
 C1004 C 0.54476 0.50588 0.59707
 C1005 C 0.41501 -0.00016 0.68571
 N1006 N 0.41890 0.02084 0.67281
 N1007 N 0.42939 0.02001 0.65064
 C1008 C 0.43621 -0.00184 0.64067
 N1009 N 0.43236 -0.02284 0.65360
 N1010 N 0.42188 -0.02201 0.67576
 C1011 C 0.40216 0.00053 0.70877
 C1012 C 0.39040 0.00080 0.72761
 C1013 C 0.44677 -0.00274 0.61648
 C1014 C 0.45550 -0.00323 0.59609
 C1015 C -0.08460 0.49911 1.18601
 N1016 N -0.07994 0.52010 1.17335
 N1017 N -0.06927 0.51917 1.15128
 C1018 C -0.06302 0.49722 1.14115
 N1019 N -0.06763 0.47622 1.15382
 N1020 N -0.07831 0.47716 1.17590
 C1021 C -0.09761 0.49996 1.20898
 C1022 C -0.10946 0.50034 1.22776
 C1023 C -0.05229 0.49624 1.11703
 C1024 C -0.04347 0.49575 1.09667
 C1025 C -0.08638 0.50285 0.31449
 N1026 N -0.08386 0.52477 0.32617
 N1027 N -0.07353 0.52592 0.34839
 C1028 C -0.06549 0.50514 0.35964
 N1029 N -0.06798 0.48322 0.34794
 N1030 N -0.07831 0.48208 0.32573
 C1031 C -0.09881 0.50150 0.29124
 C1032 C -0.11012 0.50066 0.27216
 C1033 C -0.05492 0.50618 0.38382
 C1034 C -0.04606 0.50648 0.40415
 C1035 C 0.41342 1.00314 -0.18558
 N1036 N 0.41550 1.02497 -0.17364
 N1037 N 0.42572 1.02605 -0.15137
 C1038 C 0.43409 1.00530 -0.14033
 N1039 N 0.43205 0.98347 -0.15228
 N1040 N 0.42183 0.98240 -0.17454
 C1041 C 0.40108 1.00182 -0.20887
 C1042 C 0.38980 1.00100 -0.22797
 C1043 C 0.44453 1.00625 -0.11609
 C1044 C 0.45332 1.00644 -0.09573
 C1045 C 0.58569 0.49716 -0.18553
 N1046 N 0.58099 0.47503 -0.17498
 N1047 N 0.57036 0.47380 -0.15290
 C1048 C 0.56418 0.49467 -0.14068
 N1049 N 0.56884 0.51680 -0.15125
 N1050 N 0.57947 0.51803 -0.17332
 C1051 C 0.59856 0.49846 -0.20854
 C1052 C 0.61024 0.49922 -0.22741
 C1053 C 0.55352 0.49344 -0.11655
 C1054 C 0.54475 0.49284 -0.09618
 C1055 C 0.08635 -0.00309 0.31508
 N1056 N 0.08336 -0.02519 0.32631
 N1057 N 0.07304 -0.02655 0.34853
 C1058 C 0.06547 -0.00583 0.36022
 N1059 N 0.06842 0.01626 0.34897
 N1060 N 0.07875 0.01762 0.32676
 C1061 C 0.09886 -0.00155 0.29187
 C1062 C 0.11029 -0.00058 0.27286
 C1063 C 0.05495 -0.00711 0.38442
 C1064 C 0.04613 -0.00756 0.40477
 C1065 C 0.18504 1.08590 1.00323
 N1066 N 0.17354 1.08374 1.02530
 N1067 N 0.15142 1.07327 1.02684
 C1068 C 0.14009 1.06469 1.00633
 N1069 N 0.15160 1.06681 0.98427
 N1070 N 0.17372 1.07729 0.98273
 C1071 C 0.20814 1.09854 1.00144
 C1072 C 0.22708 1.11006 1.00027
 C1073 C 0.11595 1.05408 1.00775
 C1074 C 0.09562 1.04523 1.00829
 C1075 C 0.68644 0.58576 0.50167
 N1076 N 0.67575 0.58107 0.52374
 N1077 N 0.65357 0.57066 0.52484
 C1078 C 0.64138 0.56473 0.50390
 N1079 N 0.65209 0.56938 0.48183
 N1080 N 0.67427 0.57978 0.48073
 C1081 C 0.70954 0.59848 0.50051
 C1082 C 0.72843 0.61010 0.49981
 C1083 C 0.61717 0.55427 0.50500
 C1084 C 0.59675 0.54563 0.50553
 C1085 C 0.68672 0.41384 -0.00047
 N1086 N 0.67365 0.41767 0.02045
 N1087 N 0.65139 0.42793 0.01947
 C1088 C 0.64149 0.43459 -0.00245
 N1089 N 0.65458 0.43080 -0.02337
 N1090 N 0.67685 0.42054 -0.02240
 C1091 C 0.70998 0.40137 0.00039
 C1092 C 0.72904 0.39000 0.00080
 C1093 C 0.61725 0.44501 -0.00350
 C1094 C 0.59682 0.45366 -0.00409
 C1095 C 0.18573 -0.08643 0.49713
 N1096 N 0.17429 -0.07831 0.51778
 N1097 N 0.15206 -0.06801 0.51642
 C1098 C 0.14057 -0.06559 0.49439
 N1099 N 0.15202 -0.07368 0.47373
 N1100 N 0.17425 -0.08398 0.47509
 C1101 C 0.20900 -0.09882 0.49870
 C1102 C 0.22810 -0.11010 0.49967
 C1103 C 0.11637 -0.05507 0.49313
 C1104 C 0.09601 -0.04624 0.49274
 C1105 C 0.31419 -0.08448 0.50104
 N1106 N 0.32418 -0.07789 0.52295
 N1107 N 0.34623 -0.06719 0.52384
 C1108 C 0.35900 -0.06284 0.50283
 N1109 N 0.34899 -0.06939 0.48092
 N1110 N 0.32695 -0.08009 0.48004
 C1111 C 0.29126 -0.09752 0.50027
 C1112 C 0.27250 -0.10938 0.49995
 C1113 C 0.38309 -0.05209 0.50377
 C1114 C 0.40343 -0.04324 0.50424
 C1115 C -0.18482 0.41529 1.00172
 N1116 N -0.17485 0.42176 1.02367
 N1117 N -0.15276 0.43238 1.02463
 C1118 C -0.13996 0.43677 1.00366
 N1119 N -0.14995 0.43034 0.98171
 N1120 N -0.17203 0.41972 0.98075
 C1121 C -0.20779 0.40233 1.00087
 C1122 C -0.22658 0.39052 1.00052
 C1123 C -0.11582 0.44741 1.00467
 C1124 C -0.09545 0.45615 1.00515
 C1125 C -0.18512 0.58609 0.49624
 N1126 N -0.17426 0.57696 0.51676
 N1127 N -0.15216 0.56640 0.51543
 C1128 C -0.14021 0.56472 0.49356
 N1129 N -0.15109 0.57381 0.47303
 N1130 N -0.17320 0.58437 0.47436
 C1131 C -0.20823 0.59877 0.49785
 C1132 C -0.22718 0.61029 0.49888
 C1133 C -0.11610 0.55401 0.49237
 C1134 C -0.09580 0.54507 0.49204
 C1135 C 0.31339 1.08547 -0.00344
 N1136 N 0.32531 1.08342 -0.02530
 N1137 N 0.34737 1.07274 -0.02650
 C1138 C 0.35821 1.06386 -0.00586
 N1139 N 0.34628 1.06588 0.01599
 N1140 N 0.32422 1.07655 0.01720
 C1141 C 0.29035 1.09829 -0.00198
 C1142 C 0.27147 1.10994 -0.00103
 C1143 C 0.38230 1.05306 -0.00692
 C1144 C 0.40259 1.04407 -0.00721
 C1145 C 0.00228 1.18565 1.08680
 N1146 N -0.01861 1.17347 1.08067
 N1147 N -0.01743 1.15116 1.07055
 C1148 C 0.00467 1.14031 1.06634
 N1149 N 0.02557 1.15250 1.07243
 N1150 N 0.02438 1.17482 1.08256
 C1151 C 0.00103 1.20901 1.09907
 C1152 C 0.00032 1.22816 1.11027
 C1153 C 0.00581 1.11606 1.05593
 C1154 C 0.00619 1.09568 1.04717
 C1155 C 0.50097 0.68726 0.58562
 N1156 N 0.52291 0.67744 0.57885
 N1157 N 0.52392 0.65530 0.56833
 C1158 C 0.50301 0.64228 0.56434
 N1159 N 0.48107 0.65211 0.57107
 N1160 N 0.48006 0.67425 0.58160
 C1161 C 0.50006 0.71038 0.59834
 C1162 C 0.49965 0.72935 0.60986
 C1163 C 0.50410 0.61813 0.55370
 C1164 C 0.50469 0.59777 0.54492
 C1165 C -0.00397 0.68516 0.41375
 N1166 N -0.02578 0.67317 0.41572
 N1167 N -0.02688 0.65100 0.42617
 C1168 C -0.00617 0.64013 0.43489
 N1169 N 0.01562 0.65214 0.43296
 N1170 N 0.01672 0.67430 0.42251
 C1171 C -0.00262 0.70832 0.40116
 C1172 C -0.00174 0.72730 0.38969
 C1173 C -0.00713 0.61598 0.44551
 C1174 C -0.00736 0.59565 0.45439
 C1175 C 0.49585 1.18361 -0.08657
 N1176 N 0.51648 1.17257 -0.07791
 N1177 N 0.51523 1.15041 -0.06748
 C1178 C 0.49334 1.13858 -0.06548
 N1179 N 0.47270 1.14964 -0.07411
 N1180 N 0.47395 1.17180 -0.08454
 C1181 C 0.49734 1.20681 -0.09909
 C1182 C 0.49831 1.22584 -0.11046
 C1183 C 0.49221 1.11444 -0.05485
 C1184 C 0.49186 1.09412 -0.04596
 C1185 C 0.50093 0.31199 -0.08511
 N1186 N 0.52301 0.32234 -0.07978
 N1187 N 0.52413 0.34441 -0.06913
 C1188 C 0.50321 0.35683 -0.06356
 N1189 N 0.48113 0.34646 -0.06884
 N1190 N 0.48000 0.32439 -0.07949
 C1191 C 0.49979 0.28902 -0.09808
 C1192 C 0.49914 0.27023 -0.10989
 C1193 C 0.50435 0.38095 -0.05288
 C1194 C 0.50494 0.40132 -0.04409
 C1195 C 0.00219 -0.18636 0.41430
 N1196 N -0.01841 -0.17475 0.42229
 N1197 N -0.01691 -0.15265 0.43282
 C1198 C 0.00522 -0.14144 0.43559
 N1199 N 0.02583 -0.15306 0.42764
 N1200 N 0.02433 -0.17517 0.41711
 C1201 C 0.00049 -0.20942 0.40155
 C1202 C -0.00059 -0.22830 0.38991
 C1203 C 0.00663 -0.11732 0.44625
 C1204 C 0.00716 -0.09699 0.45512
 C1205 C 0.49851 -0.18451 0.58480
 N1206 N 0.51947 -0.17181 0.58010
 N1207 N 0.51847 -0.14973 0.56949
 C1208 C 0.49648 -0.13964 0.56334
 N1209 N 0.47552 -0.15235 0.56799
 N1210 N 0.47652 -0.17444 0.57860
 C1211 C 0.49944 -0.20749 0.59773
 C1212 C 0.49986 -0.22630 0.60950
 C1213 C 0.49543 -0.11550 0.55270
 C1214 C 0.49492 -0.09513 0.54396
 C1215 C -0.00059 0.31437 1.08476
 N1216 N 0.02044 0.32715 1.08064
 N1217 N 0.01964 0.34929 1.07014
 C1218 C -0.00223 0.35937 1.06352
 N1219 N -0.02326 0.34657 1.06759
 N1220 N -0.02245 0.32442 1.07810
 C1221 C 0.00009 0.29136 1.09766
 C1222 C 0.00035 0.27257 1.10948
 C1223 C -0.00310 0.38356 1.05298
 C1224 C -0.00356 0.40395 1.04428
 C1225 C 0.75441 0.33573 0.06516
 N1226 N 0.73380 0.32667 0.07593
 N1227 N 0.73496 0.31623 0.09808
 C1228 C 0.75674 0.31459 0.11017
 N1229 N 0.77736 0.32360 0.09939
 N1230 N 0.77619 0.33405 0.07723
 C1231 C 0.75297 0.34831 0.04200
 C1232 C 0.75202 0.35977 0.02302
 C1233 C 0.75774 0.30399 0.13433
 C1234 C 0.75799 0.29514 0.15466
 C1235 C 0.25324 0.83640 0.56504
 N1236 N 0.27526 0.83350 0.57645
 N1237 N 0.27649 0.82314 0.59865
 C1238 C 0.25571 0.81545 0.61015
 N1239 N 0.23371 0.81831 0.59872
 N1240 N 0.23248 0.82867 0.57652
 C1241 C 0.25184 0.84880 0.54177
 C1242 C 0.25098 0.86006 0.52265
 C1243 C 0.25686 0.80484 0.63431
 C1244 C 0.25723 0.79595 0.65464
 C1245 C 0.74914 0.66496 0.56385
 N1246 N 0.72713 0.67140 0.57375
 N1247 N 0.72603 0.68188 0.59590
 C1248 C 0.74691 0.68616 0.60887
 N1249 N 0.76892 0.67976 0.59896
 N1250 N 0.77002 0.66928 0.57680
 C1251 C 0.75015 0.65225 0.54073
 C1252 C 0.75062 0.64072 0.52176
 C1253 C 0.74575 0.69673 0.63304
 C1254 C 0.74516 0.70545 0.65344
 C1255 C 0.24859 0.16517 0.06366
 N1256 N 0.26950 0.16886 0.07676
 N1257 N 0.26856 0.17932 0.09893
 C1258 C 0.24667 0.18631 0.10872
 N1259 N 0.22576 0.18267 0.09560
 N1260 N 0.22671 0.17221 0.07342
 C1261 C 0.24938 0.15239 0.04056
 C1262 C 0.24965 0.14074 0.02166
 C1263 C 0.24565 0.19684 0.13292
 C1264 C 0.24515 0.20553 0.15333
 C1265 C 0.25001 0.16479 0.93518
 N1266 N 0.27183 0.17222 0.92560
 N1267 N 0.27276 0.18270 0.90345
 C1268 C 0.25189 0.18598 0.89016
 N1269 N 0.23006 0.17859 0.89976
 N1270 N 0.22914 0.16811 0.92192
 C1271 C 0.24925 0.15208 0.95832
 C1272 C 0.24898 0.14054 0.97728
 C1273 C 0.25291 0.19661 0.86601
 C1274 C 0.25345 0.20542 0.84566
 C1275 C 0.75117 0.66536 0.43541
 N1276 N 0.77302 0.67188 0.42525
 N1277 N 0.77379 0.68230 0.40306
 C1278 C 0.75273 0.68643 0.39034
 N1279 N 0.73087 0.67995 0.40052
 N1280 N 0.73010 0.66953 0.42270
 C1281 C 0.75051 0.65260 0.45850
 C1282 C 0.75028 0.64095 0.47739
 C1283 C 0.75355 0.69693 0.36613
 C1284 C 0.75393 0.70561 0.34573
 C1285 C 0.24923 0.83429 0.43655
 N1286 N 0.27004 0.83030 0.42336
 N1287 N 0.26891 0.81969 0.40127
 C1288 C 0.24691 0.81283 0.39167
 N1289 N 0.22610 0.81677 0.40488
 N1290 N 0.22724 0.82739 0.42697
 C1291 C 0.25023 0.84730 0.45951
 C1292 C 0.25068 0.85919 0.47825
 C1293 C 0.24568 0.80220 0.36752
 C1294 C 0.24498 0.79346 0.34714
 C1295 C 0.74935 0.33477 0.93684
 N1296 N 0.72724 0.32948 0.92652
 N1297 N 0.72606 0.31881 0.90446
 C1298 C 0.74696 0.31318 0.89202
 N1299 N 0.76907 0.31842 0.90235
 N1300 N 0.77025 0.32909 0.92441
 C1301 C 0.75055 0.34771 0.95982
 C1302 C 0.75122 0.35946 0.97865
 C1303 C 0.74576 0.30249 0.86790
 C1304 C 0.74516 0.29371 0.84753
 C1305 C 0.83647 0.43527 0.24739
 N1306 N 0.82917 0.42372 0.26827
 N1307 N 0.81898 0.40144 0.26719
 C1308 C 0.81585 0.39000 0.24521
 N1309 N 0.82312 0.40157 0.22432
 N1310 N 0.83331 0.42385 0.22540
 C1311 C 0.84877 0.45860 0.24862
 C1312 C 0.85998 0.47774 0.24938
 C1313 C 0.80537 0.36578 0.24421
 C1314 C 0.79655 0.34543 0.24392
 C1315 C 0.33629 0.93569 0.74720
 N1316 N 0.32835 0.92447 0.76803
 N1317 N 0.31804 0.90226 0.76697
 C1318 C 0.31543 0.89055 0.74507
 N1319 N 0.32333 0.90178 0.72423
 N1320 N 0.33365 0.92401 0.72530
 C1321 C 0.34868 0.95897 0.74846
 C1322 C 0.35993 0.97808 0.74923
 C1323 C 0.30487 0.86637 0.74410
 C1324 C 0.29602 0.84604 0.74385
 C1325 C 0.16483 0.93551 0.25125
 N1326 N 0.17262 0.92619 0.27306
 N1327 N 0.18300 0.90399 0.27408
 C1328 C 0.18582 0.89040 0.25333
 N1329 N 0.17808 0.89973 0.23151
 N1330 N 0.16769 0.92193 0.23049
 C1331 C 0.15219 0.95867 0.25044
 C1332 C 0.14069 0.97766 0.25017
 C1333 C 0.19635 0.86620 0.25446
 C1334 C 0.20505 0.84580 0.25507
 C1335 C 0.66533 0.43538 0.75176
 N1336 N 0.67184 0.42549 0.77373
 N1337 N 0.68231 0.40332 0.77476
 C1338 C 0.68650 0.39035 0.75385
 N1339 N 0.68003 0.40027 0.73187
 N1340 N 0.66956 0.42242 0.73084
 C1341 C 0.65258 0.45847 0.75083
 C1342 C 0.64096 0.47738 0.75038
 C1343 C 0.69705 0.36617 0.75495
 C1344 C 0.70576 0.34578 0.75555
 C1345 C 0.66518 0.56380 0.74911
 N1346 N 0.66938 0.57674 0.77004
 N1347 N 0.67984 0.59889 0.76902
 C1348 C 0.68634 0.60881 0.74705
 N1349 N 0.68218 0.59585 0.72613
 N1350 N 0.67171 0.57369 0.72715
 C1351 C 0.65245 0.54069 0.75003
 C1352 C 0.64088 0.52177 0.75047
 C1353 C 0.69690 0.63297 0.74597
 C1354 C 0.70562 0.65336 0.74538
 C1355 C 0.16548 0.06391 0.24954
 N1356 N 0.16893 0.07725 0.27035
 N1357 N 0.17946 0.09937 0.26928
 C1358 C 0.18676 0.10886 0.24738
 N1359 N 0.18335 0.09550 0.22657
 N1360 N 0.17282 0.07338 0.22763
 C1361 C 0.15264 0.04088 0.25043
 C1362 C 0.14094 0.02202 0.25079
 C1363 C 0.19735 0.13301 0.24621
 C1364 C 0.20607 0.15339 0.24554
 C1365 C 0.33405 0.06409 0.75090
 N1366 N 0.32885 0.07646 0.72987
 N1367 N 0.31818 0.09854 0.73079
 C1368 C 0.31249 0.10893 0.75277
 N1369 N 0.31764 0.09653 0.77381
 N1370 N 0.32831 0.07446 0.77288
 C1371 C 0.34711 0.04117 0.75001
 C1372 C 0.35904 0.02245 0.74957
 C1373 C 0.30186 0.13309 0.75373
 C1374 C 0.29316 0.15348 0.75417
 C1375 C 0.83439 0.56393 0.25092
 N1376 N 0.82834 0.57415 0.27289
 N1377 N 0.81776 0.59627 0.27383
 C1378 C 0.81299 0.60887 0.25282
 N1379 N 0.81899 0.59863 0.23085
 N1380 N 0.82957 0.57652 0.22991
 C1381 C 0.84735 0.54094 0.25003
 C1382 C 0.85919 0.52216 0.24963
 C1383 C 0.80237 0.63304 0.25381
 C1384 C 0.79362 0.65342 0.25427
 C1385 C 0.93565 0.25381 0.16437
 N1386 N 0.92511 0.23334 0.17398
 N1387 N 0.90300 0.23458 0.18455
 C1388 C 0.89073 0.25629 0.18576
 N1389 N 0.90129 0.27677 0.17618
 N1390 N 0.92340 0.27553 0.16562
 C1391 C 0.95879 0.25227 0.15174
 C1392 C 0.97779 0.25127 0.14029
 C1393 C 0.86661 0.25736 0.19647
 C1394 C 0.84630 0.25761 0.20540
 C1395 C 0.43542 0.75471 0.66448
 N1396 N 0.42466 0.73415 0.67363
 N1397 N 0.40252 0.73537 0.68413
 C1398 C 0.39043 0.75717 0.68571
 N1399 N 0.40121 0.77774 0.67660
 N1400 N 0.42336 0.77651 0.66610
 C1401 C 0.45855 0.75320 0.65183
 C1402 C 0.47751 0.75223 0.64030
 C1403 C 0.36628 0.75823 0.69635
 C1404 C 0.34595 0.75846 0.70524
 C1405 C 0.43504 0.24780 0.83431
 N1406 N 0.42509 0.22600 0.82734
 N1407 N 0.40297 0.22525 0.81679
 C1408 C 0.39008 0.24628 0.81298
 N1409 N 0.40005 0.26809 0.81991
 N1410 N 0.42217 0.26884 0.83046
 C1411 C 0.45807 0.24841 0.84719
 C1412 C 0.47690 0.24858 0.85895
 C1413 C 0.36592 0.24546 0.80236
 C1414 C 0.34555 0.24506 0.79360
 C1415 C 0.93477 0.74899 0.33455
 N1416 N 0.92532 0.72719 0.32689
 N1417 N 0.90326 0.72628 0.31623
 C1418 C 0.88994 0.74714 0.31298
 N1419 N 0.89941 0.76894 0.32059
 N1420 N 0.92147 0.76985 0.33126
 C1421 C 0.95778 0.74971 0.34745
 C1422 C 0.97665 0.74994 0.35914
 C1423 C 0.86585 0.74612 0.30223
 C1424 C 0.84551 0.74555 0.29340
 C1425 C 0.06307 0.75066 0.33489
 N1426 N 0.07298 0.77261 0.32836
 N1427 N 0.09519 0.77362 0.31798
 C1428 C 0.10818 0.75271 0.31389
 N1429 N 0.09825 0.73075 0.32037
 N1430 N 0.07605 0.72974 0.33076
 C1431 C 0.03994 0.74975 0.34758
 C1432 C 0.02101 0.74937 0.35916
 C1433 C 0.13240 0.75378 0.30344
 C1434 C 0.15283 0.75430 0.29481
 C1435 C 0.56361 0.24982 0.83555
 N1436 N 0.57358 0.27184 0.82933
 N1437 N 0.59584 0.27294 0.81905
 C1438 C 0.60883 0.25205 0.81477
 N1439 N 0.59883 0.23003 0.82096
 N1440 N 0.57659 0.22894 0.83124
 C1441 C 0.54036 0.24880 0.84804
 C1442 C 0.52130 0.24827 0.85942
 C1443 C 0.63306 0.25320 0.80432
 C1444 C 0.65347 0.25382 0.79563
 C1445 C 0.56391 0.74958 0.66471
 N1446 N 0.57650 0.77047 0.66996
 N1447 N 0.59864 0.76930 0.68045
 C1448 C 0.60889 0.74721 0.68592
 N1449 N 0.59628 0.72631 0.68072
 N1450 N 0.57414 0.72749 0.67023
 C1451 C 0.54082 0.75075 0.65197
 C1452 C 0.52191 0.75142 0.64037
 C1453 C 0.63304 0.74600 0.69652
 C1454 C 0.65341 0.74536 0.70529
 C1455 C 0.06404 0.24915 0.16526
 N1456 N 0.07681 0.27007 0.16989
 N1457 N 0.09896 0.26901 0.18036
 C1458 C 0.10904 0.24699 0.18642
 N1459 N 0.09625 0.22607 0.18183
 N1460 N 0.07410 0.22713 0.17136
 C1461 C 0.04100 0.25015 0.15243
 C1462 C 0.02216 0.25065 0.14071
 C1463 C 0.13322 0.24587 0.19694
 C1464 C 0.15362 0.24529 0.20562
 C1465 C -0.08459 0.99827 0.81469
 N1466 N -0.07826 0.97627 0.82466
 N1467 N -0.06759 0.97523 0.84671
 C1468 C -0.06298 0.99617 0.85950
 N1469 N -0.06926 1.01817 0.84951
 N1470 N -0.07994 1.01920 0.82746
 C1471 C -0.09752 0.99923 0.79171
 C1472 C -0.10922 0.99964 0.77286
 C1473 C -0.05231 0.99507 0.88362
 C1474 C -0.04359 0.99455 0.90401
 C1475 C 0.41475 0.49754 0.31482
 N1476 N 0.42147 0.51838 0.32679
 N1477 N 0.43188 0.51713 0.34896
 C1478 C 0.43579 0.49503 0.35988
 N1479 N 0.42911 0.47418 0.34790
 N1480 N 0.41870 0.47543 0.32572
 C1481 C 0.40217 0.49888 0.29165
 C1482 C 0.39071 0.49960 0.27265
 C1483 C 0.44639 0.49384 0.38404
 C1484 C 0.45522 0.49351 0.40439
 C1485 C 0.58599 0.00350 0.31413
 N1486 N 0.57798 -0.01706 0.32578
 N1487 N 0.56740 -0.01547 0.34786
 C1488 C 0.56457 0.00671 0.35900
 N1489 N 0.57255 0.02727 0.34734
 N1490 N 0.58313 0.02568 0.32525
 C1491 C 0.59860 0.00173 0.29099
 C1492 C 0.60998 0.00068 0.27194
 C1493 C 0.55385 0.00821 0.38310
 C1494 C 0.54496 0.00879 0.40342
 C1495 C 0.08646 0.50344 0.81426
 N1496 N 0.07881 0.48278 0.82597
 N1497 N 0.06843 0.48422 0.84815
 C1498 C 0.06546 0.50635 0.85934
 N1499 N 0.07307 0.52702 0.84762
 N1500 N 0.08345 0.52557 0.82544
 C1501 C 0.09893 0.50183 0.79103
 C1502 C 0.11025 0.50089 0.77195
 C1503 C 0.05489 0.50770 0.88352
 C1504 C 0.04608 0.50815 0.90388
 C1505 C 0.08463 0.49881 0.68589
 N1506 N 0.07843 0.47671 0.67607
 N1507 N 0.06777 0.47546 0.65401
 C1508 C 0.06308 0.49628 0.64107
 N1509 N 0.06924 0.51837 0.65092
 N1510 N 0.07990 0.51962 0.67297
 C1511 C 0.09766 0.49999 0.70881
 C1512 C 0.10953 0.50057 0.72756
 C1513 C 0.05243 0.49496 0.61695
 C1514 C 0.04369 0.49428 0.59658
 C1515 C 0.58376 0.99826 0.18621
 N1516 N 0.57782 0.97609 0.17639
 N1517 N 0.56683 0.97474 0.15450
 C1518 C 0.56153 0.99552 0.14175
 N1519 N 0.56743 1.01769 0.15160
 N1520 N 0.57841 1.01904 0.17348
 C1521 C 0.59708 0.99957 0.20897
 C1522 C 0.60913 1.00023 0.22760
 C1523 C 0.55064 0.99411 0.11773
 C1524 C 0.54180 0.99339 0.09740
 C1525 C 0.41555 0.50199 0.18633
 N1526 N 0.41936 0.52410 0.17541
 N1527 N 0.42996 0.52540 0.15331
 C1528 C 0.43699 0.50459 0.14145
 N1529 N 0.43321 0.48247 0.15240
 N1530 N 0.42262 0.48118 0.17448
 C1531 C 0.40270 0.50058 0.20937
 C1532 C 0.39101 0.49981 0.22824
 C1533 C 0.44766 0.50580 0.11731
 C1534 C 0.45649 0.50618 0.09695
 C1535 C -0.08466 0.00062 0.68663
 N1536 N -0.07798 0.02261 0.67688
 N1537 N -0.06733 0.02369 0.65481
 C1538 C -0.06311 0.00282 0.64178
 N1539 N -0.06974 -0.01917 0.65155
 N1540 N -0.08039 -0.02025 0.67362
 C1541 C -0.09756 -0.00036 0.70964
 C1542 C -0.10924 -0.00077 0.72852
 C1543 C -0.05240 0.00398 0.61767
 C1544 C -0.04362 0.00455 0.59730
 C1545 C -0.18665 0.91565 0.99901
 N1546 N -0.17684 0.92268 0.97715
 N1547 N -0.15479 0.93340 0.97630
 C1548 C -0.14186 0.93733 0.99728
 N1549 N -0.15170 0.93034 1.01914
 N1550 N -0.17374 0.91963 1.01999
 C1551 C -0.20962 0.90267 0.99972
 C1552 C -0.22844 0.89091 0.99993
 C1553 C -0.11775 0.94803 0.99634
 C1554 C -0.09736 0.95676 0.99588
 C1555 C 0.31476 0.41565 0.49689
 N1556 N 0.32578 0.41922 0.47476
 N1557 N 0.34774 0.43005 0.47340
 C1558 C 0.35938 0.43758 0.49415
 N1559 N 0.34834 0.43405 0.51627
 N1560 N 0.32638 0.42322 0.51763
 C1561 C 0.29182 0.40268 0.49838
 C1562 C 0.27298 0.39096 0.49919
 C1563 C 0.38340 0.44847 0.49287
 C1564 C 0.40369 0.45743 0.49246
 C1565 C 0.31505 0.58455 0.00291
 N1566 N 0.32683 0.57704 -0.01778
 N1567 N 0.34882 0.56626 -0.01632
 C1568 C 0.35972 0.56271 0.00586
 N1569 N 0.34792 0.57017 0.02656
 N1570 N 0.32593 0.58096 0.02509
 C1571 C 0.29211 0.59753 0.00131
 C1572 C 0.27330 0.60930 0.00040
 C1573 C 0.38377 0.55186 0.00724
 C1574 C 0.40407 0.54291 0.00774
 C1575 C -0.18617 0.08409 0.50201
 N1576 N -0.17369 0.07873 0.48107
 N1577 N -0.15173 0.06783 0.48214
 C1578 C -0.14156 0.06204 0.50419
 N1579 N -0.15407 0.06736 0.52514
 N1580 N -0.17602 0.07825 0.52406
 C1581 C -0.20898 0.09735 0.50097
 C1582 C -0.22763 0.10938 0.50047
 C1583 C -0.11749 0.05122 0.50530
 C1584 C -0.09714 0.04242 0.50583
 C1585 C 0.68565 0.08675 0.49724
 N1586 N 0.67442 0.08415 0.47510
 N1587 N 0.65224 0.07379 0.47355
 C1588 C 0.64060 0.06579 0.49412
 N1589 N 0.65185 0.06835 0.51626
 N1590 N 0.67402 0.07871 0.51781
 C1591 C 0.70889 0.09914 0.49899
 C1592 C 0.72800 0.11038 0.50005
 C1593 C 0.61644 0.05523 0.49266
 C1594 C 0.59609 0.04641 0.49214
 C1595 C 0.18693 0.58532 0.99666
 N1596 N 0.17511 0.58367 0.97473
 N1597 N 0.15306 0.57302 0.97327
 C1598 C 0.14215 0.56376 0.99371
 N1599 N 0.15399 0.56537 1.01563
 N1600 N 0.17604 0.57602 1.01709
 C1601 C 0.20999 0.59806 0.99840
 C1602 C 0.22892 0.60960 0.99950
 C1603 C 0.11804 0.55305 0.99240
 C1604 C 0.09770 0.54420 0.99198
 C1605 C 0.18671 0.41550 0.50047
 N1606 N 0.17338 0.41922 0.47971
 N1607 N 0.15130 0.42983 0.48089
 C1608 C 0.14183 0.43697 0.50287
 N1609 N 0.15517 0.43330 0.52363
 N1610 N 0.17726 0.42269 0.52245
 C1611 C 0.20974 0.40263 0.49944
 C1612 C 0.22863 0.39095 0.49903
 C1613 C 0.11769 0.44762 0.50415
 C1614 C 0.09729 0.45633 0.50482
 C1615 C 0.68518 0.91511 0.00054
 N1616 N 0.67145 0.91798 -0.02009
 N1617 N 0.64930 0.92846 -0.01888
 C1618 C 0.64018 0.93629 0.00301
 N1619 N 0.65393 0.93346 0.02364
 N1620 N 0.67608 0.92299 0.02242
 C1621 C 0.70828 0.90235 -0.00046
 C1622 C 0.72721 0.89076 -0.00083
 C1623 C 0.61598 0.94680 0.00436
 C1624 C 0.59555 0.95541 0.00512
 C1625 C -0.00179 0.81404 0.91604
 N1626 N 0.01912 0.82665 0.92119
 N1627 N 0.01798 0.84862 0.93203
 C1628 C -0.00409 0.85869 0.93797
 N1629 N -0.02499 0.84607 0.93286
 N1630 N -0.02385 0.82409 0.92202
 C1631 C -0.00069 0.79118 0.90288
 C1632 C -0.00016 0.77246 0.89096
 C1633 C -0.00527 0.88275 0.94879
 C1634 C -0.00585 0.90310 0.95762
 C1635 C 0.49740 0.31561 0.41499
 N1636 N 0.47523 0.32646 0.41881
 N1637 N 0.47384 0.34858 0.42933
 C1638 C 0.49460 0.36055 0.43627
 N1639 N 0.51677 0.34968 0.43250
 N1640 N 0.51816 0.32756 0.42198
 C1641 C 0.49891 0.29253 0.40225
 C1642 C 0.49976 0.27363 0.39064
 C1643 C 0.49328 0.38469 0.44689
 C1644 C 0.49281 0.40504 0.45571
 C1645 C 0.00041 0.31347 0.58402
 N1646 N 0.02237 0.32265 0.57648
 N1647 N 0.02361 0.34466 0.56574
 C1648 C 0.00292 0.35819 0.56228
 N1649 N -0.01904 0.34900 0.56978
 N1650 N -0.02028 0.32699 0.58052
 C1651 C -0.00066 0.29054 0.59704
 C1652 C -0.00107 0.27174 0.60883
 C1653 C 0.00429 0.38228 0.55156
 C1654 C 0.00504 0.40266 0.54284
 C1655 C 0.49969 0.81227 0.08461
 N1656 N 0.52161 0.82164 0.07720
 N1657 N 0.52274 0.84374 0.06663
 C1658 C 0.50198 0.85718 0.06322
 N1659 N 0.48005 0.84778 0.07058
 N1660 N 0.47893 0.82569 0.08116
 C1661 C 0.49874 0.78926 0.09751
 C1662 C 0.49839 0.77042 0.10924
 C1663 C 0.50321 0.88132 0.05258
 C1664 C 0.50385 0.90170 0.04385
 C1665 C 0.49653 0.68381 0.08559
 N1666 N 0.51736 0.67190 0.07870
 N1667 N 0.51610 0.64971 0.06832
 C1668 C 0.49400 0.63873 0.06459
 N1669 N 0.47317 0.65065 0.07145
 N1670 N 0.47443 0.67285 0.08183
 C1671 C 0.49790 0.70700 0.09815
 C1672 C 0.49863 0.72602 0.10959
 C1673 C 0.49282 0.61455 0.05403
 C1674 C 0.49248 0.59418 0.04522
 C1675 C -0.00152 0.18547 0.58446
 N1676 N -0.02341 0.17587 0.57728
 N1677 N -0.02439 0.15378 0.56666
 C1678 C -0.00351 0.14059 0.56298
 N1679 N 0.01838 0.15022 0.57012
 N1680 N 0.01936 0.17231 0.58074
 C1681 C -0.00069 0.20851 0.59733
 C1682 C -0.00040 0.22741 0.60898
 C1683 C -0.00459 0.11645 0.55234
 C1684 C -0.00515 0.09605 0.54364
 C1685 C 0.50319 0.18729 0.41493
 N1686 N 0.52527 0.17590 0.41747
 N1687 N 0.52674 0.15383 0.42808
 C1688 C 0.50615 0.14247 0.43642
 N1689 N 0.48408 0.15388 0.43392
 N1690 N 0.48261 0.17594 0.42331
 C1691 C 0.50151 0.21034 0.40216
 C1692 C 0.50048 0.22924 0.39057
 C1693 C 0.50750 0.11835 0.44709
 C1694 C 0.50796 0.09800 0.45592
 C1695 C 0.00325 0.68601 0.91440
 N1696 N -0.01724 0.67461 0.92290
 N1697 N -0.01565 0.65254 0.93347
 C1698 C 0.00646 0.64117 0.93580
 N1699 N 0.02697 0.65260 0.92734
 N1700 N 0.02538 0.67467 0.91677
 C1701 C 0.00144 0.70912 0.90176
 C1702 C 0.00034 0.72811 0.89032
 C1703 C 0.00795 0.61707 0.94648
 C1704 C 0.00850 0.59673 0.95532
 C1705 C 0.24981 0.66548 0.93655
 N1706 N 0.27055 0.66951 0.92326
 N1707 N 0.26930 0.68035 0.90130
 C1708 C 0.24726 0.68741 0.89191
 N1709 N 0.22653 0.68342 0.90522
 N1710 N 0.22778 0.67258 0.92719
 C1711 C 0.25092 0.65233 0.95942
 C1712 C 0.25140 0.64042 0.97815
 C1713 C 0.24590 0.69821 0.86785
 C1714 C 0.24515 0.70700 0.84749
 C1715 C 0.74932 0.16587 0.43698
 N1716 N 0.72731 0.17277 0.42741
 N1717 N 0.72616 0.18349 0.40538
 C1718 C 0.74697 0.18755 0.39222
 N1719 N 0.76898 0.18070 0.40180
 N1720 N 0.77013 0.16998 0.42383
 C1721 C 0.75034 0.15278 0.45987
 C1722 C 0.75076 0.14088 0.47860
 C1723 C 0.74572 0.19820 0.36809
 C1724 C 0.74506 0.20687 0.34769
 C1725 C 0.25390 0.33517 0.43561
 N1726 N 0.27595 0.33259 0.42415
 N1727 N 0.27736 0.32182 0.40215
 C1728 C 0.25674 0.31336 0.39091
 N1729 N 0.23471 0.31590 0.40240
 N1730 N 0.23330 0.32667 0.42440
 C1731 C 0.25227 0.34818 0.45854
 C1732 C 0.25127 0.36000 0.47731
 C1733 C 0.25802 0.30258 0.36683
 C1734 C 0.25843 0.29370 0.34650
 C1735 C 0.75319 0.83547 0.93559
 N1736 N 0.73290 0.82540 0.92513
 N1737 N 0.73436 0.81456 0.90317
 C1738 C 0.75613 0.81350 0.89098
 N1739 N 0.77643 0.82352 0.90145
 N1740 N 0.77497 0.83437 0.92341
 C1741 C 0.75141 0.84842 0.95854
 C1742 C 0.75022 0.86012 0.97737
 C1743 C 0.75739 0.80264 0.86693
 C1744 C 0.75779 0.79369 0.84662
 C1745 C 0.74581 0.83582 0.06366
 N1746 N 0.72393 0.83451 0.07563
 N1747 N 0.72243 0.82387 0.09769
 C1748 C 0.74280 0.81428 0.10845
 N1749 N 0.76466 0.81555 0.09646
 N1750 N 0.76616 0.82618 0.07441
 C1751 C 0.74761 0.84859 0.04063
 C1752 C 0.74877 0.86018 0.02174
 C1753 C 0.74148 0.80359 0.13256
 C1754 C 0.74108 0.79471 0.15289
 C1755 C 0.24742 0.33650 0.56384
 N1756 N 0.26796 0.32858 0.57559
 N1757 N 0.26632 0.31803 0.59767
 C1758 C 0.24411 0.31514 0.60871
 N1759 N 0.22355 0.32302 0.59695
 N1760 N 0.22520 0.33357 0.57487
 C1761 C 0.24924 0.34912 0.54071
 C1762 C 0.25033 0.36055 0.52171
 C1763 C 0.24254 0.30441 0.63280
 C1764 C 0.24194 0.29549 0.65311
 C1765 C 0.75358 0.16432 0.56508
 N1766 N 0.73302 0.17313 0.57617
 N1767 N 0.73441 0.18375 0.59824
 C1768 C 0.75637 0.18582 0.60993
 N1769 N 0.77694 0.17705 0.59883
 N1770 N 0.77555 0.16643 0.57675
 C1771 C 0.75197 0.15166 0.54196
 C1772 C 0.75099 0.14022 0.52296
 C1773 C 0.75762 0.19654 0.63404
 C1774 C 0.75802 0.20542 0.65437
 C1775 C 0.25317 0.66380 0.06477
 N1776 N 0.27529 0.66809 0.07553
 N1777 N 0.27651 0.67850 0.09771
 C1778 C 0.25564 0.68487 0.10984
 N1779 N 0.23353 0.68062 0.09907
 N1780 N 0.23230 0.67020 0.07689
 C1781 C 0.25188 0.65125 0.04157
 C1782 C 0.25122 0.63985 0.02253
 C1783 C 0.25681 0.69546 0.13401
 C1784 C 0.25717 0.70428 0.15437
 C1785 C 0.16559 0.56426 0.75113
 N1786 N 0.17004 0.57733 0.73034
 N1787 N 0.18074 0.59935 0.73160
 C1788 C 0.18723 0.60902 0.75369
 N1789 N 0.18282 0.59593 0.77448
 N1790 N 0.17212 0.57390 0.77321
 C1791 C 0.15258 0.54134 0.74996
 C1792 C 0.14076 0.52257 0.74941
 C1793 C 0.19792 0.63311 0.75503
 C1794 C 0.20666 0.65347 0.75574
 C1795 C 0.66537 0.06394 0.25103
 N1796 N 0.66939 0.07728 0.23032
 N1797 N 0.68012 0.09929 0.23165
 C1798 C 0.68706 0.10868 0.25371
 N1799 N 0.68308 0.09532 0.27442
 N1800 N 0.67235 0.07331 0.27309
 C1801 C 0.65233 0.04102 0.24984
 C1802 C 0.64049 0.02226 0.24930
 C1803 C 0.69780 0.13275 0.25514
 C1804 C 0.70660 0.15310 0.25590
 C1805 C 0.83576 0.06363 0.74760
 N1806 N 0.82714 0.07478 0.76821
 N1807 N 0.81656 0.09688 0.76686
 C1808 C 0.81436 0.10852 0.74489
 N1809 N 0.82294 0.09735 0.72427
 N1810 N 0.83351 0.07525 0.72562
 C1811 C 0.84850 0.04056 0.74919
 C1812 C 0.86010 0.02165 0.75018
 C1813 C 0.80370 0.13266 0.74367
 C1814 C 0.79486 0.15301 0.74329
 C1815 C 0.33569 0.56376 0.24745
 N1816 N 0.33290 0.57508 0.22537
 N1817 N 0.32225 0.59714 0.22396
 C1818 C 0.31414 0.60857 0.24462
 N1819 N 0.31689 0.59724 0.26669
 N1820 N 0.32754 0.57518 0.26809
 C1821 C 0.34851 0.54073 0.24904
 C1822 C 0.36016 0.52185 0.24999
 C1823 C 0.30339 0.63267 0.24333
 C1824 C 0.29448 0.65298 0.24293
 C1825 C 0.33591 0.43549 0.25281
 N1826 N 0.32900 0.42351 0.23203
 N1827 N 0.31844 0.40143 0.23340
 C1828 C 0.31454 0.39061 0.25556
 N1829 N 0.32142 0.40260 0.27634
 N1830 N 0.33198 0.42469 0.27497
 C1831 C 0.34866 0.45856 0.25133
 C1832 C 0.36025 0.47747 0.25052
 C1833 C 0.30387 0.36649 0.25687
 C1834 C 0.29503 0.34616 0.25733
 C1835 C 0.83571 0.93532 0.75376
 N1836 N 0.82681 0.92439 0.73318
 N1837 N 0.81620 0.90232 0.73447
 C1838 C 0.81424 0.89048 0.75636
 N1839 N 0.82310 0.90143 0.77696
 N1840 N 0.83371 0.92351 0.77567
 C1841 C 0.84848 0.95837 0.75221
 C1842 C 0.86009 0.97726 0.75123
 C1843 C 0.80356 0.86636 0.75750
 C1844 C 0.79471 0.84603 0.75782
 C1845 C 0.66411 0.93577 0.24617
 N1846 N 0.66671 0.92448 0.22404
 N1847 N 0.67728 0.90239 0.22249
 C1848 C 0.68552 0.89090 0.24305
 N1849 N 0.68297 0.90220 0.26517
 N1850 N 0.67240 0.92429 0.26672
 C1851 C 0.65145 0.95888 0.24793
 C1852 C 0.63999 0.97788 0.24899
 C1853 C 0.69621 0.86677 0.24160
 C1854 C 0.70506 0.84643 0.24107
 C1855 C 0.16465 0.43623 0.74622
 N1856 N 0.16699 0.42477 0.72415
 N1857 N 0.17765 0.40272 0.72264
 C1858 C 0.18623 0.39145 0.74318
 N1859 N 0.18393 0.40293 0.76524
 N1860 N 0.17327 0.42497 0.76675
 C1861 C 0.15189 0.45929 0.74795
 C1862 C 0.14036 0.47823 0.74900
 C1863 C 0.19693 0.36734 0.74179
 C1864 C 0.20576 0.34699 0.74131
 C1865 C 0.06345 0.74908 0.83469
 N1866 N 0.07336 0.72703 0.82843
 N1867 N 0.09543 0.72588 0.81777
 C1868 C 0.10829 0.74675 0.81313
 N1869 N 0.09835 0.76881 0.81934
 N1870 N 0.07628 0.76995 0.83000
 C1871 C 0.04051 0.75015 0.84773
 C1872 C 0.02176 0.75063 0.85961
 C1873 C 0.13244 0.74555 0.80250
 C1874 C 0.15285 0.74495 0.79382
 C1875 C 0.56378 0.24963 0.33489
 N1876 N 0.57671 0.27042 0.33009
 N1877 N 0.59873 0.26913 0.31936
 C1878 C 0.60853 0.24700 0.31319
 N1879 N 0.59558 0.22621 0.31794
 N1880 N 0.57355 0.22751 0.32866
 C1881 C 0.54085 0.25087 0.34792
 C1882 C 0.52206 0.25147 0.35974
 C1883 C 0.63265 0.24563 0.30250
 C1884 C 0.65304 0.24492 0.29379
 C1885 C 0.56329 0.75186 0.16373
 N1886 N 0.57462 0.77397 0.16611
 N1887 N 0.59674 0.77555 0.17659
 C1888 C 0.60823 0.75502 0.18494
 N1889 N 0.59688 0.73292 0.18260
 N1890 N 0.57476 0.73135 0.17211
 C1891 C 0.54015 0.75007 0.15116
 C1892 C 0.52113 0.74895 0.13976
 C1893 C 0.63237 0.75649 0.19554
 C1894 C 0.65272 0.75705 0.20435
 C1895 C 0.06349 0.25331 0.66375
 N1896 N 0.07526 0.27527 0.66537
 N1897 N 0.09738 0.27678 0.67585
 C1898 C 0.10843 0.25635 0.68498
 N1899 N 0.09664 0.23440 0.68340
 N1900 N 0.07452 0.23290 0.67291
 C1901 C 0.04039 0.25152 0.65109
 C1902 C 0.02146 0.25035 0.63955
 C1903 C 0.13259 0.25770 0.69554
 C1904 C 0.15296 0.25815 0.70433
 C1905 C 0.93517 0.24614 0.66413
 N1906 N 0.92333 0.22423 0.66575
 N1907 N 0.90132 0.22275 0.67649
 C1908 C 0.89045 0.24318 0.68587
 N1909 N 0.90231 0.26508 0.68428
 N1910 N 0.92432 0.26656 0.67355
 C1911 C 0.95819 0.24790 0.65127
 C1912 C 0.97706 0.24901 0.63962
 C1913 C 0.86639 0.24186 0.69670
 C1914 C 0.84610 0.24146 0.70569
 C1915 C 0.43515 0.74545 0.16535
 N1916 N 0.42387 0.72337 0.16825
 N1917 N 0.40189 0.72197 0.17907
 C1918 C 0.39052 0.74262 0.18727
 N1919 N 0.40182 0.76469 0.18441
 N1920 N 0.42379 0.76609 0.17358
 C1921 C 0.45803 0.74705 0.15227
 C1922 C 0.47677 0.74799 0.14039
 C1923 C 0.36645 0.74134 0.19808
 C1924 C 0.34613 0.74094 0.20697
 C1925 C 0.43567 0.25366 0.33588
 N1926 N 0.42395 0.23287 0.32863
 N1927 N 0.40187 0.23415 0.31804
 C1928 C 0.39081 0.25624 0.31444
 N1929 N 0.40255 0.27705 0.32164
 N1930 N 0.42463 0.27576 0.33224
 C1931 C 0.45875 0.25226 0.34859
 C1932 C 0.47771 0.25152 0.36012
 C1933 C 0.36672 0.25744 0.30371
 C1934 C 0.34641 0.25778 0.29480
 C1935 C 0.93518 0.75328 0.83636
 N1936 N 0.92390 0.73263 0.82806
 N1937 N 0.90180 0.73397 0.81752
 C1938 C 0.89027 0.75598 0.81501
 N1939 N 0.90156 0.77664 0.82327
 N1940 N 0.92366 0.77530 0.83382
 C1941 C 0.95834 0.75175 0.84894
 C1942 C 0.97737 0.75085 0.86032
 C1943 C 0.86617 0.75721 0.80428
 C1944 C 0.84587 0.75757 0.79534
   
