data_POSCAR
  _audit_creation_date              2014-09-24
  _audit_creation_method            'ToBaCCo'
  _symmetry_space_group_name_H-M    'P1'
  _symmetry_Int_Tables_number       1
  _symmetry_cell_setting            triclinic
  loop_
  _symmetry_equiv_pos_as_xyz
 x,y,z
_cell_length_a 55.3871
_cell_length_b 55.9958
_cell_length_c 56.1275
_cell_angle_alpha 90.285900
_cell_angle_beta 90.032600
_cell_angle_gamma 90.055300
loop_
  _atom_site_label
  _atom_site_type_symbol
  _atom_site_fract_x
  _atom_site_fract_y
  _atom_site_fract_z
C1 C 0.33633 1.34457 0.31501
 N2 N 0.32436 1.36029 0.32943
 C3 C 0.31937 1.35444 0.35247
 N4 N 0.32630 1.33280 0.36083
 C5 C 0.33764 1.31689 0.34653
 N6 N 0.34253 1.32274 0.32368
 C7 C 0.32653 0.82888 0.80011
 N8 N 0.33731 0.80814 0.80692
 C9 C 0.32660 0.79422 0.82367
 N10 N 0.30536 0.80113 0.83347
 C11 C 0.29488 0.82213 0.82751
 N12 N 0.30556 0.83590 0.81069
 C13 C 0.85004 1.35022 0.82513
 N14 N 0.82862 1.35785 0.83448
 C15 C 0.82026 1.34793 0.85513
 N16 N 0.83416 1.33171 0.86684
 C17 C 0.85617 1.32557 0.85850
 N18 N 0.86359 1.33429 0.83739
 C19 C 0.85149 0.84808 0.32220
 N20 N 0.83655 0.86365 0.33358
 C21 C 0.82429 0.85689 0.35344
 N22 N 0.82739 0.83450 0.36218
 C23 C 0.84297 0.81914 0.35148
 N24 N 0.85470 0.82592 0.33145
 C25 C 0.63211 0.63470 0.34111
 N26 N 0.65609 0.63208 0.34560
 C27 C 0.66722 0.64648 0.36187
 N28 N 0.65432 0.66373 0.37336
 C29 C 0.63030 0.66617 0.36920
 N30 N 0.61940 0.65156 0.35315
 C31 C 0.65178 0.16098 0.81964
 N32 N 0.66534 0.14540 0.83247
 C33 C 0.67630 0.15250 0.85312
 N34 N 0.67284 0.17521 0.86126
 C35 C 0.65803 0.19032 0.84933
 N36 N 0.64794 0.18325 0.82852
 C37 C 1.17695 0.67711 0.79934
 N38 N 1.16562 0.69761 0.80612
 C39 C 1.17473 0.71086 0.82441
 N40 N 1.19491 0.70347 0.83592
 C41 C 1.20580 0.68269 0.82974
 N42 N 1.19687 0.66969 0.81134
 C43 C 1.17352 0.17973 0.29900
 N44 N 1.16567 0.20130 0.30718
 C45 C 1.17684 0.21249 0.32541
 N46 N 1.19654 0.20242 0.33520
 C47 C 1.20451 0.18059 0.32805
 N48 N 1.19251 0.16878 0.31017
 C49 C 0.63968 1.35006 0.67565
 N50 N 0.65638 1.36599 0.66778
 C51 C 0.67118 1.36033 0.64919
 N52 N 0.66889 1.33860 0.63847
 C53 C 0.65169 1.32297 0.64564
 N54 N 0.63729 1.32874 0.66428
 C55 C 0.62917 0.85680 1.16611
 N56 N 0.62102 0.84115 1.14943
 C57 C 0.63397 0.83648 1.12947
 N58 N 0.65581 0.84709 1.12631
 C59 C 0.66427 0.86284 1.14293
 N60 N 0.65073 0.86778 1.16260
 C61 C 1.12933 1.35774 1.16635
 N62 N 1.12609 1.33809 1.15243
 C63 C 1.14004 1.33431 1.13291
 N64 N 1.15777 1.35018 1.12751
 C65 C 1.16145 1.36985 1.14136
 N66 N 1.14701 1.37348 1.16062
 C67 C 1.14583 0.85359 0.67234
 N68 N 1.13956 0.83354 0.66005
 C69 C 1.14655 0.83053 0.63713
 N70 N 1.15959 0.84782 0.62636
 C71 C 1.16632 0.86787 0.63836
 N72 N 1.15969 0.87058 0.66161
 C73 C 0.33004 0.66325 0.69576
 N74 N 0.34227 0.68358 0.69059
 C75 C 0.33574 0.69704 0.67161
 N76 N 0.31671 0.69016 0.65799
 C77 C 0.30437 0.66976 0.66285
 N78 N 0.31120 0.65635 0.68181
 C79 C 0.35584 0.13639 1.16638
 N80 N 0.34305 0.12546 1.14895
 C81 C 0.33598 0.13712 1.12907
 N82 N 0.34168 0.16068 1.12665
 C83 C 0.35547 0.17179 1.14364
 N84 N 0.36250 0.15950 1.16340
 C85 C 0.87168 0.63371 1.16267
 N86 N 0.85151 0.62426 1.15280
 C87 C 0.84105 0.63454 1.13349
 N88 N 0.85085 0.65476 1.12406
 C89 C 0.87128 0.66427 1.13385
 N90 N 0.88174 0.65339 1.15282
 C91 C 0.85183 0.14471 0.67298
 N92 N 0.83273 0.13794 0.65916
 C93 C 0.83028 0.14616 0.63654
 N94 N 0.84643 0.16235 0.62831
 C95 C 0.86513 0.16983 0.64199
 N96 N 0.86820 0.16054 0.66412
 C97 C 1.34533 0.34744 0.68413
 N98 N 1.35725 0.32922 0.67344
 C99 C 1.35366 0.32363 0.65019
 N100 N 1.33702 0.33610 0.63747
 C101 C 1.32547 0.35502 0.64778
 N102 N 1.33011 0.36098 0.67091
 C103 C 1.32452 0.82586 1.20264
 N104 N 1.33357 0.80574 1.19227
 C105 C 1.32149 0.79473 1.17425
 N106 N 1.30021 0.80404 1.16680
 C107 C 1.29149 0.82460 1.17627
 N108 N 1.30364 0.83555 1.19432
 C109 C 0.84018 0.33980 1.18648
 N110 N 0.81860 0.34483 1.17613
 C111 C 0.81407 0.33864 1.15328
 N112 N 0.83116 0.32711 1.14048
 C113 C 0.85291 0.32195 1.15038
 N114 N 0.85749 0.32833 1.17343
 C115 C 0.84376 0.85028 0.68052
 N116 N 0.85108 0.82821 0.67346
 C117 C 0.84485 0.81984 0.65152
 N118 N 0.83127 0.83351 0.63673
 C119 C 0.82465 0.85586 0.64347
 N120 N 0.83066 0.86400 0.66546
 C121 C 0.64730 0.65563 0.67896
 N122 N 0.64353 0.67763 0.66961
 C123 C 0.65496 0.68438 0.64938
 N124 N 0.67054 0.66908 0.63856
 C125 C 0.67405 0.64682 0.64745
 N126 N 0.66236 0.64018 0.66766
 C127 C 0.64212 1.15812 1.17840
 N128 N 0.65827 1.14319 1.16783
 C129 C 0.67223 1.15097 1.14947
 N130 N 0.66980 1.17376 1.14160
 C131 C 0.65291 1.18849 1.15125
 N132 N 0.63929 1.18050 1.16961
 C133 C 0.14701 0.65814 1.18427
 N134 N 0.13337 0.67383 1.17183
 C135 C 0.14134 0.68376 1.15136
 N136 N 0.16401 0.67861 1.14377
 C137 C 0.17779 0.66238 1.15563
 N138 N 0.16910 0.65180 1.17574
 C139 C 0.17411 1.17965 0.70871
 N140 N 0.16434 1.20015 0.69971
 C141 C 0.17717 1.21329 0.68360
 N142 N 0.19917 1.20537 0.67644
 C143 C 0.20838 1.18454 0.68431
 N144 N 0.19591 1.17184 0.70062
 C145 C 1.36567 0.64309 0.33678
 N146 N 1.36910 0.66385 0.34906
 C147 C 1.35263 0.67126 0.36547
 N148 N 1.33315 0.65732 0.37020
 C149 C 1.32996 0.63621 0.35867
 N150 N 1.34603 0.62943 0.34173
 C151 C 1.36738 1.14377 0.83638
 N152 N 1.34748 1.13033 0.84078
 C153 C 1.33104 1.13715 0.85729
 N154 N 1.33411 1.15818 0.86895
 C155 C 1.35395 1.17196 0.86498
 N156 N 1.37083 1.16436 0.84899
 C157 C 0.87034 0.63728 0.84068
 N158 N 0.87616 0.65658 0.85428
 C159 C 0.86258 0.66251 0.87356
 N160 N 0.84310 0.64892 0.87927
 C161 C 0.83711 0.62959 0.86578
 N162 N 0.85083 0.62384 0.84653
 C163 C 0.85020 1.15385 0.32134
 N164 N 0.83207 1.13988 0.32972
 C165 C 0.82606 1.14009 0.35303
 N166 N 0.83783 1.15493 0.36815
 C167 C 0.85578 1.16952 0.36024
 N168 N 0.86226 1.16862 0.33671
 C169 C 0.64172 0.34988 0.32713
 N170 N 0.65722 0.36463 0.33896
 C171 C 0.66954 0.35662 0.35837
 N172 N 0.66629 0.33378 0.36585
 C173 C 0.64986 0.31939 0.35497
 N174 N 0.63773 0.32763 0.33577
 C175 C 0.66784 0.82816 0.80228
 N176 N 0.65988 0.80785 0.81285
 C177 C 0.67122 0.79928 0.83248
 N178 N 0.69075 0.81099 0.84140
 C179 C 0.69877 0.83129 0.83094
 N180 N 0.68736 0.83974 0.81131
 C181 C 0.18127 0.32207 0.79122
 N182 N 0.17140 0.30160 0.79933
 C183 C 0.17704 0.29279 0.82114
 N184 N 0.19356 0.30466 0.83489
 C185 C 0.20442 0.32482 0.82639
 N186 N 0.19796 0.33354 0.80470
 C187 C 0.16194 0.83248 0.30449
 N188 N 0.15475 0.81155 0.31444
 C189 C 0.16538 0.80335 0.33456
 N190 N 0.18385 0.81583 0.34454
 C191 C 0.19122 0.83674 0.33481
 N192 N 0.18018 0.84505 0.31486
 O193 O 0.96651 0.91046 0.88582
 O194 O 0.96342 0.88110 0.85967
 C195 C 0.95632 0.90113 0.86779
 C196 C 0.93570 0.91357 0.85660
 C197 C 0.92296 0.90300 0.83760
 H198 H 0.92848 0.88573 0.83074
 O199 O 1.01957 1.08423 0.87693
 O200 O 1.01850 1.11228 0.84949
 C201 C 1.02722 1.09290 0.85746
 C202 C 1.04764 1.08115 0.84499
 C203 C 1.06156 1.09404 0.82843
 H204 H 1.05643 1.11207 0.82367
 O205 O 0.87669 0.97922 0.92110
 O206 O 0.84738 0.97922 0.89446
 C207 C 0.85679 0.97096 0.91334
 C208 C 0.84533 0.95011 0.92484
 C209 C 0.82842 0.93687 0.91178
 H210 H 0.82218 0.94344 0.89473
 O211 O 1.11233 1.01692 0.90595
 O212 O 1.13989 1.01483 0.87766
 C213 C 1.13234 1.02361 0.89722
 C214 C 1.14682 1.04201 0.90974
 C215 C 1.17013 1.04757 0.90182
 H216 H 1.17739 1.03825 0.88647
 O217 O 0.90880 0.88432 0.98530
 O218 O 0.88045 0.85672 0.98759
 C219 C 0.90001 0.86443 0.97861
 C220 C 0.91251 0.85020 0.96006
 C221 C 0.90550 0.82657 0.95548
 H222 H 0.89075 0.81896 0.96557
 O223 O 1.08968 1.11569 0.96810
 O224 O 1.11913 1.14213 0.96600
 C225 C 1.09907 1.13409 0.95859
 C226 C 1.08709 1.14556 0.93801
 C227 C 1.09971 1.16224 0.92397
 H228 H 1.11799 1.16727 0.92868
 O229 O 0.90888 1.02421 0.88511
 O230 O 0.87914 1.02390 0.85899
 C231 C 0.89935 1.03194 0.86603
 C232 C 0.91108 1.05138 0.85249
 C233 C 0.89994 1.06052 0.83206
 H234 H 0.88427 1.05139 0.82497
 O235 O 1.07614 0.97179 0.87443
 O236 O 1.10303 0.97036 0.84553
 C237 C 1.08362 0.96285 0.85497
 C238 C 1.07037 0.94257 0.84406
 C239 C 1.07990 0.93056 0.82415
 H240 H 1.09635 0.93702 0.81596
 O241 O 1.01651 0.87962 0.91532
 O242 O 1.01457 0.85069 0.88856
 C243 C 1.02471 0.86037 0.90648
 C244 C 1.04727 0.85020 0.91613
 C245 C 1.06108 0.83446 0.90208
 H246 H 1.05442 0.82855 0.88487
 O247 O 0.97559 1.11735 0.91342
 O248 O 0.97456 1.14555 0.88616
 C249 C 0.96751 1.13715 0.90599
 C250 C 0.94948 1.15047 0.92030
 C251 C 0.94412 1.17423 0.91469
 H252 H 0.95345 1.18279 0.90007
 O253 O 0.87840 1.08963 0.98147
 O254 O 0.85112 1.11828 0.98161
 C255 C 0.85871 1.09833 0.97378
 C256 C 0.84512 1.08510 0.95515
 C257 C 0.82139 1.09150 0.94854
 H258 H 0.81233 1.10597 0.95776
 O259 O 1.11613 0.91536 0.97434
 O260 O 1.14358 0.88686 0.97454
 C261 C 1.13498 0.90589 0.96563
 C262 C 1.14562 0.91548 0.94343
 C263 C 1.16334 0.90216 0.93159
 H264 H 1.17144 0.88706 0.94052
 O265 O 0.97237 1.08613 0.87930
 O266 O 0.97086 1.11410 0.85185
 C267 C 0.96274 1.09492 0.86074
 C268 C 0.94144 1.08288 0.85007
 C269 C 0.92930 1.09254 0.83020
 H270 H 0.93578 1.10896 0.82236
 O271 O 1.01321 0.90995 0.88118
 O272 O 1.01035 0.88098 0.85455
 C273 C 1.01963 0.90058 0.86151
 C274 C 1.03903 0.91197 0.84733
 C275 C 1.04876 0.90028 0.82732
 H276 H 1.04072 0.88374 0.82112
 O277 O 1.11114 0.97052 0.90519
 O278 O 1.13788 0.96840 0.87615
 C279 C 1.12989 0.96109 0.89603
 C280 C 1.14214 0.94113 0.90845
 C281 C 1.15913 0.92667 0.89643
 H282 H 1.16341 0.93015 0.87794
 O283 O 0.87728 1.02600 0.91955
 O284 O 0.84773 1.02554 0.89321
 C285 C 0.85727 1.03405 0.91198
 C286 C 0.84492 1.05362 0.92490
 C287 C 0.82155 1.06040 0.91833
 H288 H 0.81292 1.05131 0.90354
 O289 O 0.91341 1.12020 0.97938
 O290 O 0.88657 1.14928 0.97977
 C291 C 0.90566 1.13988 0.97130
 C292 C 0.91902 1.15184 0.95185
 C293 C 0.91387 1.17564 0.94584
 H294 H 0.90029 1.18548 0.95571
 O295 O 1.08316 0.88294 0.97473
 O296 O 1.11091 0.85467 0.97444
 C297 C 1.09166 0.86365 0.96610
 C298 C 1.08013 0.85227 0.94513
 C299 C 1.09373 0.83681 0.93067
 H300 H 1.11210 0.83236 0.93560
 O301 O 1.07898 1.01876 0.87378
 O302 O 1.10647 1.01749 0.84541
 C303 C 1.08782 1.02699 0.85459
 C304 C 1.07734 1.04881 0.84377
 C305 C 1.09090 1.06197 0.82726
 H306 H 1.10814 1.05515 0.82117
 O307 O 0.90735 0.97727 0.88660
 O308 O 0.87778 0.97743 0.86026
 C309 C 0.89726 0.96854 0.86816
 C310 C 0.90735 0.94697 0.85653
 C311 C 0.89505 0.93627 0.83741
 H312 H 0.87930 0.94496 0.83001
 O313 O 1.02267 1.11701 0.90920
 O314 O 1.02144 1.14491 0.88161
 C315 C 1.03114 1.13597 0.90004
 C316 C 1.05350 1.14677 0.90981
 C317 C 1.06612 1.16378 0.89641
 H318 H 1.05817 1.17053 0.88015
 O319 O 0.96951 0.87898 0.91946
 O320 O 0.96734 0.84933 0.89354
 C321 C 0.96083 0.85894 0.91307
 C322 C 0.94245 0.84721 0.92823
 C323 C 0.93544 0.82336 0.92414
 H324 H 0.94448 0.81300 0.91047
 O325 O 1.11951 1.08012 0.96890
 O326 O 1.14904 1.10650 0.96682
 C327 C 1.13925 1.08713 0.95981
 C328 C 1.15044 1.07291 0.94044
 C329 C 1.17393 1.07802 0.93243
 H330 H 1.18443 1.09174 0.94132
 O331 O 0.87620 0.91715 0.98452
 O332 O 0.84775 0.88961 0.98589
 C333 C 0.85674 0.90822 0.97649
 C334 C 0.84539 0.91890 0.95515
 C335 C 0.82896 0.90551 0.94126
 H336 H 0.82371 0.88772 0.94673
 Cu337 Cu 0.99156 0.89763 0.90313
 Cu338 Cu 0.98849 0.86251 0.87149
 Cu339 Cu 0.99756 1.09833 0.89739
 Cu340 Cu 0.99603 1.13199 0.86450
 Cu341 Cu 0.89561 1.00187 0.90571
 Cu342 Cu 0.86007 1.00165 0.87410
 Cu343 Cu 1.09181 0.99459 0.89258
 Cu344 Cu 1.12439 0.99268 0.85818
 C345 C 0.92780 0.93561 0.86587
 H346 H 0.93715 0.94361 0.88087
 C347 C 0.90243 0.91415 0.82809
 C348 C 1.05560 1.05847 0.85236
 H349 H 1.04544 1.04882 0.86571
 C350 C 1.08355 1.08484 0.82005
 C351 C 0.85360 0.94115 0.94667
 H352 H 0.86715 0.95105 0.95655
 C353 C 0.82109 0.91416 0.91915
 C354 C 1.13718 1.05464 0.92918
 H355 H 1.11901 1.05071 0.93512
 C356 C 1.18399 1.06528 0.91319
 C357 C 0.93112 0.86031 0.94649
 H358 H 0.93630 0.87871 0.94969
 C359 C 0.91709 0.81277 0.93789
 C360 C 1.06401 1.13795 0.93075
 H361 H 1.05458 1.12447 0.94095
 C362 C 1.08957 1.17099 0.90280
 C363 C 0.93207 1.06237 0.86107
 H364 H 0.94067 1.05536 0.87689
 C365 C 0.90824 1.08158 0.82117
 C366 C 1.04976 0.93330 0.85531
 H367 H 1.04271 0.94211 0.87106
 C368 C 1.06942 0.90924 0.81583
 C369 C 1.05688 0.85889 0.93773
 H370 H 1.04664 0.87153 0.94835
 C371 C 1.08455 0.82831 0.90896
 C372 C 0.93704 1.13946 0.93911
 H373 H 0.94098 1.12104 0.94346
 C374 C 0.92658 1.18701 0.92748
 C375 C 0.85648 1.06591 0.94341
 H376 H 0.87471 1.06089 0.94827
 C377 C 0.80927 1.07887 0.93029
 C378 C 1.13537 0.93522 0.93188
 H379 H 1.12144 0.94544 0.94082
 C380 C 1.16931 0.90670 0.90774
 O381 O 1.02611 0.92122 1.12023
 O382 O 1.02684 0.89337 1.14785
 C383 C 1.03528 0.91246 1.13902
 C384 C 1.05698 0.92337 1.15003
 C385 C 1.06930 0.91071 1.16763
 H386 H 1.06127 0.89463 1.17480
 O387 O 0.98291 1.09231 1.11999
 O388 O 0.98468 1.12211 1.14575
 C389 C 0.97527 1.10257 1.13877
 C390 C 0.95447 1.09209 1.15179
 C391 C 0.94283 1.10487 1.17023
 H392 H 0.94965 1.12216 1.17580
 O393 O 0.88390 1.03053 1.09277
 O394 O 0.85643 1.03178 1.12121
 C395 C 0.86445 1.03900 1.10130
 C396 C 0.85107 1.05744 1.08797
 C397 C 0.82742 1.06337 1.09444
 H398 H 0.81903 1.05437 1.10935
 O399 O 1.12272 0.97877 1.08429
 O400 O 1.15240 0.97855 1.11054
 C401 C 1.14209 0.96970 1.09228
 C402 C 1.15174 0.94762 1.08130
 C403 C 1.16790 0.93328 1.09424
 H404 H 1.17426 0.93911 1.11158
 O405 O 1.08334 0.88345 1.02136
 O406 O 1.11015 0.85435 1.02082
 C407 C 1.09102 0.86361 1.02920
 C408 C 1.07793 0.85180 1.04885
 C409 C 1.08340 0.82823 1.05567
 H410 H 1.09667 0.81803 1.04577
 O411 O 0.91514 1.12186 1.02559
 O412 O 0.88809 1.15074 1.02619
 C413 C 0.90790 1.14190 1.03348
 C414 C 0.92259 1.15487 1.05147
 C415 C 0.91670 1.17836 1.05809
 H416 H 0.90154 1.18723 1.04974
 O417 O 0.91626 0.98429 1.12607
 O418 O 0.88905 0.98549 1.15469
 C419 C 0.90796 0.97646 1.14565
 C420 C 0.92004 0.95594 1.15717
 C421 C 0.90902 0.94342 1.17607
 H422 H 0.89174 0.94926 1.18300
 O423 O 1.09387 1.02792 1.11721
 O424 O 1.12380 1.02846 1.14310
 C425 C 1.10399 1.03693 1.13548
 C426 C 1.09292 1.05808 1.14718
 C427 C 1.10570 1.07142 1.16450
 H428 H 1.12361 1.06592 1.16992
 O429 O 0.97603 0.88857 1.09102
 O430 O 0.97755 0.86078 1.11871
 C431 C 0.96830 0.86908 1.09981
 C432 C 0.94840 0.85588 1.08797
 C433 C 0.94352 0.83202 1.09388
 H434 H 0.95440 0.82328 1.10731
 O435 O 1.02991 1.12067 1.08327
 O436 O 1.03253 1.15023 1.10924
 C437 C 1.03951 1.14019 1.09006
 C438 C 1.05930 1.15095 1.07572
 C439 C 1.07059 1.17232 1.08311
 H440 H 1.06477 1.18102 1.09939
 O441 O 0.87764 0.91969 1.03129
 O442 O 0.84887 0.89255 1.03324
 C443 C 0.85827 0.91197 1.04058
 C444 C 0.84723 0.92528 1.06076
 C445 C 0.82612 0.91680 1.07186
 H446 H 0.81743 0.90077 1.06520
 O447 O 1.12300 1.08393 1.01522
 O448 O 1.15219 1.11065 1.01295
 C449 C 1.14335 1.09197 1.02218
 C450 C 1.15672 1.07966 1.04136
 C451 C 1.18096 1.08549 1.04618
 H452 H 1.19016 1.09872 1.03547
 O453 O 1.03018 1.08989 1.11774
 O454 O 1.03212 1.11944 1.14376
 C455 C 1.03962 1.09937 1.13612
 C456 C 1.06070 1.08795 1.14779
 C457 C 1.07315 1.10030 1.16572
 H458 H 1.06564 1.11676 1.17270
 O459 O 0.97895 0.92245 1.12283
 O460 O 0.98003 0.89449 1.15035
 C461 C 0.97164 0.91403 1.14251
 C462 C 0.95202 0.92603 1.15573
 C463 C 0.94158 0.91460 1.17524
 H464 H 0.94996 0.89861 1.18218
 O465 O 1.12420 1.02522 1.08209
 O466 O 1.15444 1.02512 1.10766
 C467 C 1.14484 1.03268 1.08853
 C468 C 1.15751 1.05059 1.07370
 C469 C 1.18174 1.05648 1.07811
 H470 H 1.19140 1.04766 1.09236
 O471 O 0.88340 0.98410 1.09326
 O472 O 0.85615 0.98554 1.12187
 C473 C 0.86380 0.97669 1.10238
 C474 C 0.85009 0.95701 1.09078
 C475 C 0.82874 0.94859 1.10120
 H476 H 0.82153 0.95769 1.11670
 O477 O 1.08885 1.11569 1.01492
 O478 O 1.11803 1.14241 1.01280
 C479 C 1.09840 1.13501 1.02206
 C480 C 1.08733 1.14857 1.04202
 C481 C 1.09757 1.17028 1.04921
 H482 H 1.11196 1.17790 1.03865
 O483 O 0.90958 0.88599 1.03143
 O484 O 0.88110 0.85852 1.03361
 C485 C 0.90126 0.86692 1.04047
 C486 C 0.91538 0.85468 1.05916
 C487 C 0.91066 0.83077 1.06531
 H488 H 0.89654 0.82095 1.05616
 O489 O 1.09216 0.98118 1.11845
 O490 O 1.12185 0.98101 1.14464
 C491 C 1.10182 0.97278 1.13714
 C492 C 1.09011 0.95227 1.14917
 C493 C 1.10282 0.93842 1.16602
 H494 H 1.12103 0.94331 1.17113
 O495 O 0.91855 1.03114 1.12392
 O496 O 0.89114 1.03262 1.15235
 C497 C 0.91054 1.04040 1.14305
 C498 C 0.92303 1.06133 1.15382
 C499 C 0.91197 1.07418 1.17231
 H500 H 0.89527 1.06760 1.17990
 O501 O 0.98267 1.12257 1.08530
 O502 O 0.98533 1.15238 1.11100
 C503 C 0.97567 1.14291 1.09272
 C504 C 0.95569 1.15539 1.08038
 C505 C 0.94922 1.17878 1.08702
 H506 H 0.95930 1.18810 1.10076
 O507 O 1.02308 0.88826 1.08747
 O508 O 1.02400 0.86060 1.11530
 C509 C 1.03107 0.86855 1.09535
 C510 C 1.04880 0.85466 1.08132
 C511 C 1.05457 0.83129 1.08799
 H512 H 1.04598 0.82366 1.10353
 O513 O 1.11754 0.91521 1.02142
 O514 O 1.14429 0.88608 1.02146
 C515 C 1.13648 0.90566 1.02992
 C516 C 1.14876 0.91635 1.05088
 C517 C 1.16494 0.90239 1.06410
 H518 H 1.16956 0.88460 1.05795
 O519 O 0.88082 1.09051 1.02778
 O520 O 0.85335 1.11900 1.02822
 C521 C 0.86168 1.09954 1.03640
 C522 C 0.84946 1.08721 1.05633
 C523 C 0.82570 1.09304 1.06312
 H524 H 0.81580 1.10657 1.05345
 Cu525 Cu 1.00090 0.90796 1.10260
 Cu526 Cu 1.00226 0.87466 1.13594
 Cu527 Cu 1.00618 1.10339 1.09903
 Cu528 Cu 1.00896 1.13893 1.13008
 Cu529 Cu 0.89577 0.90464 1.00802
 Cu530 Cu 0.86143 0.87180 1.01033
 Cu531 Cu 1.09734 0.90217 0.99813
 Cu532 Cu 1.13011 0.86777 0.99792
 Cu533 Cu 0.89954 1.10262 1.00351
 Cu534 Cu 0.86706 1.13724 1.00400
 Cu535 Cu 1.10235 1.09625 0.99199
 Cu536 Cu 1.13741 1.12815 0.98948
 Cu537 Cu 0.90340 1.00738 1.10629
 Cu538 Cu 0.87057 1.00906 1.14050
 Cu539 Cu 1.10521 1.00344 1.09801
 Cu540 Cu 1.14108 1.00354 1.12919
 C541 C 1.06726 0.94441 1.14119
 H542 H 1.05788 0.95411 1.12734
 C543 C 1.09268 0.91715 1.17477
 C544 C 0.94446 1.07028 1.14389
 H545 H 0.95282 1.06070 1.12926
 C546 C 0.92126 1.09623 1.18019
 C547 C 0.86186 1.06927 1.06878
 H548 H 0.88022 1.06479 1.06381
 C549 C 0.81442 1.08081 1.08195
 C550 C 1.14228 0.93903 1.05958
 H551 H 1.12919 0.94959 1.04992
 C552 C 1.17398 0.91038 1.08608
 C553 C 1.06035 0.86469 1.06159
 H554 H 1.05617 0.88289 1.05660
 C555 C 1.07145 0.81770 1.07508
 C556 C 0.94233 1.14364 1.06250
 H557 H 0.94693 1.12548 1.05758
 C558 C 0.92994 1.19042 1.07578
 C559 C 0.94150 0.94700 1.14715
 H560 H 0.94950 0.95577 1.13191
 C561 C 0.91950 0.92230 1.18478
 C562 C 1.07047 1.06658 1.13896
 H563 H 1.06106 1.05710 1.12487
 C564 C 1.09613 1.09295 1.17337
 C565 C 0.93433 0.86697 1.07051
 H566 H 0.93802 0.88538 1.06591
 C567 C 0.92502 0.81913 1.08236
 C568 C 1.06794 1.13916 1.05516
 H569 H 1.06000 1.12230 1.04975
 C570 C 1.08994 1.18201 1.07004
 C571 C 0.85903 0.94545 1.07036
 H572 H 0.87568 0.95169 1.06240
 C573 C 0.81687 0.92822 1.09229
 C574 C 1.14523 1.06212 1.05511
 H575 H 1.12650 1.05775 1.05161
 C576 C 1.19368 1.07372 1.06427
 O577 O 0.96650 0.40708 0.38775
 O578 O 0.96466 0.37736 0.36187
 C579 C 0.95683 0.39723 0.36967
 C580 C 0.93592 0.40880 0.35801
 C581 C 0.92346 0.39725 0.33937
 H582 H 0.92939 0.37989 0.33312
 O583 O 1.01676 0.58095 0.37792
 O584 O 1.01598 0.60837 0.34984
 C585 C 1.02447 0.58906 0.35824
 C586 C 1.04474 0.57702 0.34579
 C587 C 1.05651 0.58887 0.32726
 H588 H 1.04875 0.60519 0.32039
 O589 O 0.87573 0.47661 0.41992
 O590 O 0.84569 0.47624 0.39410
 C591 C 0.85519 0.46892 0.41339
 C592 C 0.84243 0.45090 0.42803
 C593 C 0.81853 0.44484 0.42269
 H594 H 0.80938 0.45378 0.40818
 O595 O 1.11174 0.51679 0.40757
 O596 O 1.13944 0.51501 0.37936
 C597 C 1.13161 0.52380 0.39881
 C598 C 1.14571 0.54239 0.41138
 C599 C 1.16917 0.54790 0.40396
 H600 H 1.17677 0.53857 0.38877
 O601 O 0.90793 0.38168 0.48528
 O602 O 0.87917 0.35457 0.48782
 C603 C 0.89873 0.36195 0.47859
 C604 C 0.91103 0.34767 0.45985
 C605 C 0.90315 0.32453 0.45385
 H606 H 0.88765 0.31710 0.46294
 O607 O 1.08439 0.61313 0.46932
 O608 O 1.11377 0.63963 0.46705
 C609 C 1.09363 0.63156 0.45983
 C610 C 1.08175 0.64322 0.43935
 C611 C 1.09437 0.66063 0.42660
 H612 H 1.11181 0.66667 0.43298
 O613 O 0.90748 0.51933 0.38161
 O614 O 0.87834 0.51816 0.35483
 C615 C 0.89853 0.52626 0.36196
 C616 C 0.91171 0.54452 0.34803
 C617 C 0.90671 0.54893 0.32377
 H618 H 0.89313 0.53851 0.31449
 O619 O 1.07711 0.47024 0.37683
 O620 O 1.10428 0.46824 0.34824
 C621 C 1.08481 0.46085 0.35767
 C622 C 1.07107 0.44074 0.34694
 C623 C 1.07862 0.42953 0.32565
 H624 H 1.09481 0.43575 0.31685
 O625 O 1.01715 0.37785 0.41838
 O626 O 1.01641 0.34886 0.39162
 C627 C 1.02604 0.35880 0.40969
 C628 C 1.04862 0.34894 0.41981
 C629 C 1.06325 0.33382 0.40581
 H630 H 1.05747 0.32863 0.38808
 O631 O 0.97147 0.61551 0.41151
 O632 O 0.97005 0.64254 0.38314
 C633 C 0.96258 0.63455 0.40297
 C634 C 0.94273 0.64682 0.41593
 C635 C 0.92978 0.66569 0.40533
 H636 H 0.93475 0.67193 0.38776
 O637 O 0.88017 0.58499 0.47998
 O638 O 0.85224 0.61302 0.48112
 C639 C 0.86055 0.59384 0.47222
 C640 C 0.84788 0.58271 0.45173
 C641 C 0.82823 0.59446 0.44126
 H642 H 0.82131 0.61066 0.44938
 O643 O 1.11531 0.41338 0.47723
 O644 O 1.14408 0.38614 0.47686
 C645 C 1.13472 0.40503 0.46846
 C646 C 1.14643 0.41718 0.44812
 C647 C 1.17033 0.41169 0.44195
 H648 H 1.17991 0.39831 0.45208
 O649 O 0.97001 0.58192 0.37945
 O650 O 0.96928 0.60880 0.35085
 C651 C 0.96153 0.58952 0.35989
 C652 C 0.94257 0.57568 0.34752
 C653 C 0.93758 0.57978 0.32349
 H654 H 0.94762 0.59338 0.31402
 O655 O 1.01318 0.40887 0.38465
 O656 O 1.01124 0.37978 0.35807
 C657 C 1.01971 0.39977 0.36493
 C658 C 1.03832 0.41174 0.35035
 C659 C 1.04508 0.40187 0.32844
 H660 H 1.03435 0.38744 0.32115
 O661 O 1.11119 0.47092 0.40870
 O662 O 1.13877 0.46916 0.38039
 C663 C 1.13084 0.46252 0.40055
 C664 C 1.14460 0.44502 0.41482
 C665 C 1.16877 0.43967 0.40920
 H666 H 1.17748 0.44878 0.39456
 O667 O 0.87669 0.52300 0.41616
 O668 O 0.84738 0.52277 0.38955
 C669 C 0.85718 0.53169 0.40803
 C670 C 0.84630 0.55276 0.41995
 C671 C 0.82673 0.56499 0.40957
 H672 H 0.81909 0.55869 0.39292
 O673 O 0.91359 0.61713 0.47910
 O674 O 0.88543 0.64493 0.48035
 C675 C 0.90448 0.63630 0.47111
 C676 C 0.91497 0.64783 0.44980
 C677 C 0.90281 0.66697 0.43928
 H678 H 0.88735 0.67470 0.44825
 O679 O 1.08265 0.38067 0.47990
 O680 O 1.11139 0.35344 0.47921
 C681 C 1.09156 0.36163 0.47128
 C682 C 1.08016 0.35002 0.45034
 C683 C 1.09411 0.33458 0.43631
 H684 H 1.11200 0.32949 0.44225
 O685 O 1.07879 0.51720 0.37537
 O686 O 1.10631 0.51587 0.34703
 C687 C 1.08752 0.52524 0.35607
 C688 C 1.07625 0.54645 0.34491
 C689 C 1.08856 0.55949 0.32718
 H690 H 1.10611 0.55357 0.32105
 O691 O 0.90636 0.47284 0.38555
 O692 O 0.87647 0.47162 0.35960
 C693 C 0.89615 0.46322 0.36766
 C694 C 0.90661 0.44138 0.35685
 C695 C 0.89460 0.42972 0.33815
 H696 H 0.87855 0.43770 0.33055
 O697 O 1.01890 0.61501 0.40884
 O698 O 1.01793 0.64238 0.38074
 C699 C 1.02746 0.63379 0.39941
 C700 C 1.04958 0.64468 0.40961
 C701 C 1.06286 0.66185 0.39673
 H702 H 1.05628 0.66820 0.37973
 O703 O 0.96980 0.37643 0.42198
 O704 O 0.96900 0.34667 0.39611
 C705 C 0.96159 0.35630 0.41528
 C706 C 0.94239 0.34463 0.42940
 C707 C 0.93454 0.32139 0.42385
 H708 H 0.94381 0.31129 0.41014
 O709 O 1.11724 0.57992 0.47042
 O710 O 1.14645 0.60663 0.46838
 C711 C 1.13702 0.58713 0.46147
 C712 C 1.14870 0.57305 0.44230
 C713 C 1.17237 0.57821 0.43477
 H714 H 1.18271 0.59191 0.44389
 O715 O 0.87624 0.41584 0.48542
 O716 O 0.84716 0.38908 0.48796
 C717 C 0.85587 0.40789 0.47863
 C718 C 0.84257 0.42068 0.45950
 C719 C 0.81856 0.41468 0.45359
 H720 H 0.80926 0.40073 0.46327
 Cu721 Cu 0.99172 0.39539 0.40596
 Cu722 Cu 0.99020 0.36010 0.37439
 Cu723 Cu 0.99423 0.59581 0.39743
 Cu724 Cu 0.99306 0.62839 0.36341
 Cu725 Cu 0.89459 0.49817 0.40334
 Cu726 Cu 0.85897 0.49707 0.37190
 Cu727 Cu 1.09173 0.49380 0.39473
 Cu728 Cu 1.12475 0.49175 0.36062
 C729 C 0.92741 0.43090 0.36653
 H730 H 0.93659 0.43965 0.38121
 C731 C 0.90257 0.40747 0.32959
 C732 C 1.05447 0.55555 0.35423
 H733 H 1.04554 0.54641 0.36874
 C734 C 1.07908 0.58117 0.31877
 C735 C 0.85424 0.43897 0.44666
 H736 H 0.87280 0.44350 0.45076
 C737 C 0.80635 0.42701 0.43540
 C738 C 1.13567 0.55489 0.43068
 H739 H 1.11739 0.55092 0.43626
 C740 C 1.18284 0.56550 0.41572
 C741 C 0.93075 0.35743 0.44760
 H742 H 0.93665 0.37541 0.45181
 C743 C 0.91495 0.31108 0.43601
 C744 C 1.05922 0.63553 0.43093
 H745 H 1.04962 0.62174 0.44053
 C746 C 1.08560 0.66943 0.40495
 C747 C 0.92976 0.55793 0.35957
 H748 H 0.93360 0.55484 0.37823
 C749 C 0.92012 0.56625 0.31129
 C750 C 1.05100 0.43151 0.35919
 H751 H 1.04572 0.43919 0.37615
 C752 C 1.06576 0.40981 0.31630
 C753 C 1.05731 0.35708 0.44203
 H754 H 1.04671 0.36962 0.45241
 C755 C 1.08634 0.32728 0.41367
 C756 C 0.93513 0.63807 0.43819
 H757 H 0.94435 0.62301 0.44609
 C758 C 0.90944 0.67552 0.41677
 C759 C 0.85668 0.56177 0.44106
 H760 H 0.87208 0.55284 0.44888
 C761 C 0.81787 0.58613 0.41995
 C762 C 1.13373 0.43396 0.43453
 H763 H 1.11517 0.43806 0.43903
 C764 C 1.18193 0.42321 0.42288
 O765 O 1.02769 0.41749 0.62408
 O766 O 1.02788 0.38939 0.65151
 C767 C 1.03685 0.40825 0.64262
 C768 C 1.05932 0.41833 0.65273
 C769 C 1.07399 0.40413 0.66727
 H770 H 1.06773 0.38666 0.67278
 O771 O 0.98343 0.59023 0.62023
 O772 O 0.98531 0.61921 0.64695
 C773 C 0.97662 0.59938 0.63982
 C774 C 0.95820 0.58686 0.65422
 C775 C 0.95323 0.59421 0.67759
 H776 H 0.96291 0.60935 0.68496
 O777 O 0.88656 0.52704 0.59453
 O778 O 0.85920 0.52900 0.62301
 C779 C 0.86707 0.53559 0.60283
 C780 C 0.85321 0.55310 0.58876
 C781 C 0.82938 0.55859 0.59504
 H782 H 0.82133 0.55016 0.61045
 O783 O 1.12071 0.47885 0.58553
 O784 O 1.15129 0.48054 0.61068
 C785 C 1.14143 0.47179 0.59214
 C786 C 1.15389 0.45274 0.57858
 C787 C 1.17758 0.44625 0.58442
 H788 H 1.18694 0.45572 0.59856
 O789 O 1.08555 0.38197 0.52680
 O790 O 1.11426 0.35472 0.52625
 C791 C 1.09520 0.36335 0.53546
 C792 C 1.08510 0.35259 0.55740
 C793 C 1.09902 0.33647 0.57071
 H794 H 1.11623 0.33045 0.56378
 O795 O 0.91518 0.61771 0.52584
 O796 O 0.88661 0.64510 0.52681
 C797 C 0.90653 0.63692 0.53443
 C798 C 0.91879 0.64941 0.55437
 C799 C 0.90689 0.66819 0.56601
 H800 H 0.88972 0.67447 0.55924
 O801 O 0.91852 0.48095 0.62835
 O802 O 0.89086 0.48235 0.65656
 C803 C 0.90981 0.47317 0.64775
 C804 C 0.92130 0.45249 0.65940
 C805 C 0.90947 0.44020 0.67789
 H806 H 0.89214 0.44647 0.68430
 O807 O 1.08882 0.52483 0.62024
 O808 O 1.11872 0.52532 0.64621
 C809 C 1.09876 0.53358 0.63870
 C810 C 1.08828 0.55498 0.65028
 C811 C 1.10145 0.56696 0.66798
 H812 H 1.11765 0.55885 0.67509
 O813 O 0.97842 0.38662 0.59234
 O814 O 0.97903 0.35841 0.61960
 C815 C 0.97036 0.36710 0.60053
 C816 C 0.95077 0.35417 0.58792
 C817 C 0.94591 0.33039 0.59374
 H818 H 0.95637 0.32195 0.60766
 O819 O 1.02826 0.62116 0.58360
 O820 O 1.02988 0.65081 0.60954
 C821 C 1.03712 0.64098 0.59036
 C822 C 1.05660 0.65207 0.57604
 C823 C 1.06856 0.67282 0.58407
 H824 H 1.06318 0.68103 0.60075
 O825 O 0.87859 0.41772 0.53193
 O826 O 0.84964 0.39083 0.53474
 C827 C 0.85918 0.41039 0.54149
 C828 C 0.84802 0.42458 0.56099
 C829 C 0.82426 0.41993 0.56860
 H830 H 0.81362 0.40661 0.55929
 O831 O 1.11774 0.58233 0.51726
 O832 O 1.14643 0.60952 0.51466
 C833 C 1.13753 0.59121 0.52461
 C834 C 1.14961 0.58164 0.54606
 C835 C 1.16852 0.59473 0.55634
 H836 H 1.17602 0.60967 0.54668
 O837 O 1.03019 0.59109 0.61854
 O838 O 1.03227 0.62070 0.64452
 C839 C 1.03976 0.60067 0.63684
 C840 C 1.06024 0.58861 0.64873
 C841 C 1.07415 0.60067 0.66604
 H842 H 1.06953 0.61875 0.67123
 O843 O 0.98048 0.41832 0.62647
 O844 O 0.98056 0.39013 0.65375
 C845 C 0.97253 0.40978 0.64589
 C846 C 0.95259 0.42189 0.65864
 C847 C 0.94120 0.41049 0.67773
 H848 H 0.94899 0.39426 0.68475
 O849 O 1.11988 0.52539 0.58616
 O850 O 1.14968 0.52707 0.61222
 C851 C 1.13945 0.53475 0.59350
 C852 C 1.14993 0.55520 0.58048
 C853 C 1.16781 0.56963 0.59121
 H854 H 1.17378 0.56571 0.60914
 O855 O 0.88595 0.48089 0.59562
 O856 O 0.85820 0.48291 0.62375
 C857 C 0.86604 0.47392 0.60438
 C858 C 0.85178 0.45525 0.59193
 C859 C 0.82836 0.44988 0.59965
 H860 H 0.82129 0.45909 0.61513
 O861 O 1.08592 0.61617 0.51584
 O862 O 1.11486 0.64311 0.51315
 C863 C 1.09535 0.63579 0.52252
 C864 C 1.08443 0.64965 0.54232
 C865 C 1.09537 0.67088 0.55004
 H866 H 1.11007 0.67823 0.53971
 O867 O 0.91118 0.38447 0.53134
 O868 O 0.88272 0.35704 0.53407
 C869 C 0.90315 0.36535 0.54049
 C870 C 0.91786 0.35295 0.55881
 C871 C 0.91348 0.32888 0.56476
 H872 H 0.89939 0.31904 0.55559
 O873 O 1.09106 0.47800 0.62112
 O874 O 1.12164 0.47824 0.64631
 C875 C 1.10173 0.46947 0.63923
 C876 C 1.09143 0.44822 0.65107
 C877 C 1.10589 0.43375 0.66576
 H878 H 1.12430 0.43898 0.66978
 O879 O 0.92055 0.52765 0.62664
 O880 O 0.89347 0.52925 0.65539
 C881 C 0.91305 0.53657 0.64612
 C882 C 0.92715 0.55602 0.65757
 C883 C 0.92260 0.56339 0.68116
 H884 H 0.90913 0.55411 0.69160
 O885 O 0.98107 0.62159 0.58693
 O886 O 0.98226 0.65081 0.61339
 C887 C 0.97271 0.64105 0.59520
 C888 C 0.95091 0.65167 0.58421
 C889 C 0.93842 0.67034 0.59579
 H890 H 0.94530 0.67775 0.61232
 O891 O 1.02584 0.38428 0.59237
 O892 O 1.02599 0.35650 0.62013
 C893 C 1.03434 0.36502 0.60093
 C894 C 1.05530 0.35337 0.58945
 C895 C 1.06962 0.33737 0.60259
 H896 H 1.06444 0.33263 0.62057
 O897 O 1.11866 0.41472 0.52365
 O898 O 1.14728 0.38737 0.52290
 C899 C 1.13900 0.40700 0.53078
 C900 C 1.15279 0.42077 0.54884
 C901 C 1.17657 0.41435 0.55509
 H902 H 1.18535 0.39955 0.54613
 O903 O 0.88176 0.58511 0.52686
 O904 O 0.85327 0.61261 0.52753
 C905 C 0.86228 0.59341 0.53552
 C906 C 0.85047 0.58098 0.55558
 C907 C 0.82656 0.58635 0.56218
 H908 H 0.81622 0.59911 0.55192
 Cu909 Cu 1.00295 0.40451 0.60607
 Cu910 Cu 1.00308 0.37088 0.63909
 Cu911 Cu 1.00566 0.60319 0.59961
 Cu912 Cu 1.00756 0.63845 0.63114
 Cu913 Cu 0.89626 0.40263 0.50820
 Cu914 Cu 0.86172 0.37025 0.51147
 Cu915 Cu 1.09761 0.40036 0.50211
 Cu916 Cu 1.13191 0.36746 0.50125
 Cu917 Cu 0.90048 0.59838 0.50296
 Cu918 Cu 0.86664 0.63174 0.50414
 Cu919 Cu 1.09843 0.59509 0.49334
 Cu920 Cu 1.13327 0.62739 0.49053
 Cu921 Cu 0.90584 0.50410 0.60861
 Cu922 Cu 0.87275 0.50622 0.64263
 Cu923 Cu 1.10202 0.50158 0.60078
 Cu924 Cu 1.13827 0.50281 0.63155
 C925 C 1.06808 0.44045 0.64493
 H926 H 1.05711 0.45113 0.63307
 C927 C 1.09744 0.41141 0.67340
 C928 C 0.94520 0.56768 0.64444
 H929 H 0.94875 0.56219 0.62625
 C930 C 0.93583 0.58234 0.69146
 C931 C 0.86354 0.56414 0.56884
 H932 H 0.88202 0.56005 0.56401
 C933 C 0.81577 0.57490 0.58170
 C934 C 1.14176 0.44012 0.56056
 H935 H 1.12335 0.44491 0.55614
 C936 C 1.18918 0.42726 0.57270
 C937 C 1.06313 0.36078 0.56685
 H938 H 1.05261 0.37376 0.55707
 C939 C 1.09182 0.32935 0.59364
 C940 C 0.94092 0.64135 0.56346
 H941 H 0.94996 0.62650 0.55484
 C942 C 0.91610 0.67825 0.58703
 C943 C 0.94283 0.44317 0.64994
 H944 H 0.95145 0.45192 0.63502
 C945 C 0.91906 0.41881 0.68680
 C946 C 1.06743 0.56574 0.64106
 H947 H 1.05743 0.55676 0.62705
 C948 C 1.09512 0.59011 0.67531
 C949 C 0.93682 0.36529 0.57028
 H950 H 0.94040 0.38377 0.56585
 C951 C 0.92782 0.31731 0.58196
 C952 C 1.06476 0.64061 0.55516
 H953 H 1.05636 0.62410 0.54936
 C954 C 1.08824 0.68222 0.57130
 C955 C 0.86145 0.44258 0.57251
 H956 H 0.87972 0.44634 0.56674
 C957 C 0.81414 0.43266 0.58789
 C958 C 1.14061 0.56164 0.55807
 H959 H 1.12595 0.55146 0.55024
 C960 C 1.17682 0.58988 0.57944
 O961 O 0.46358 0.91283 0.38842
 O962 O 0.46119 0.88307 0.36263
 C963 C 0.45362 0.90302 0.37049
 C964 C 0.43220 0.91411 0.35937
 C965 C 0.41908 0.90134 0.34223
 H966 H 0.42574 0.88423 0.33597
 O967 O 0.51267 1.08306 0.37668
 O968 O 0.51122 1.11064 0.34881
 C969 C 0.51947 1.09100 0.35664
 C970 C 0.53848 1.07844 0.34297
 C971 C 0.54824 1.08942 0.32289
 H972 H 0.53952 1.10518 0.31582
 O973 O 0.37185 0.97956 0.42369
 O974 O 0.34195 0.97961 0.39772
 C975 C 0.35162 0.97159 0.41659
 C976 C 0.34020 0.95117 0.42882
 C977 C 0.32269 0.93796 0.41656
 H978 H 0.31586 0.94442 0.39967
 O979 O 0.60890 1.02008 0.40337
 O980 O 0.63581 1.01865 0.37442
 C981 C 0.62852 1.02724 0.39417
 C982 C 0.64299 1.04556 0.40678
 C983 C 0.66639 1.05113 0.39912
 H984 H 0.67352 1.04233 0.38342
 O985 O 0.40664 0.88673 0.48905
 O986 O 0.37835 0.85920 0.49237
 C987 C 0.39761 0.86685 0.48271
 C988 C 0.40882 0.85305 0.46305
 C989 C 0.39813 0.83172 0.45521
 H990 H 0.38306 0.82439 0.46505
 O991 O 0.58292 1.11312 0.46922
 O992 O 0.61197 1.13996 0.46703
 C993 C 0.59166 1.13196 0.46012
 C994 C 0.57921 1.14427 0.44031
 C995 C 0.59066 1.16364 0.42960
 H996 H 0.60665 1.17104 0.43792
 O997 O 0.40435 1.02284 0.38628
 O998 O 0.37480 1.02168 0.35994
 C999 C 0.39508 1.02979 0.36681
 C1000 C 0.40712 1.04856 0.35263
 C1001 C 0.39778 1.05504 0.33045
 H1002 H 0.38428 1.04349 0.32270
 O1003 O 0.57396 0.97303 0.37386
 O1004 O 0.60035 0.97117 0.34455
 C1005 C 0.58136 0.96347 0.35467
 C1006 C 0.56784 0.94280 0.34475
 C1007 C 0.57525 0.93108 0.32370
 H1008 H 0.59135 0.93733 0.31485
 O1009 O 0.51323 0.88167 0.41888
 O1010 O 0.51052 0.85190 0.39315
 C1011 C 0.52043 0.86151 0.41123
 C1012 C 0.54069 0.84924 0.42326
 C1013 C 0.54614 0.82538 0.41776
 H1014 H 0.53524 0.81585 0.40479
 O1015 O 0.46963 1.11832 0.41223
 O1016 O 0.46839 1.14590 0.38436
 C1017 C 0.46097 1.13762 0.40407
 C1018 C 0.44105 1.14969 0.41694
 C1019 C 0.42797 1.16820 0.40595
 H1020 H 0.43324 1.17448 0.38848
 O1021 O 0.37656 1.08816 0.48329
 O1022 O 0.34956 1.11704 0.48467
 C1023 C 0.35703 1.09742 0.47590
 C1024 C 0.34409 1.08654 0.45537
 C1025 C 0.32690 1.10006 0.44298
 H1026 H 0.32116 1.11708 0.45026
 O1027 O 0.61524 0.91664 0.47222
 O1028 O 0.64319 0.88863 0.47087
 C1029 C 0.63417 0.90786 0.46291
 C1030 C 0.64545 0.92004 0.44238
 C1031 C 0.66933 0.91492 0.43550
 H1032 H 0.67991 0.90228 0.44566
 O1033 O 0.46614 1.08605 0.37953
 O1034 O 0.46450 1.11351 0.35154
 C1035 C 0.45650 1.09440 0.36080
 C1036 C 0.43576 1.08148 0.35015
 C1037 C 0.42469 1.08910 0.32886
 H1038 H 0.43109 1.10529 0.32060
 O1039 O 0.51040 0.91206 0.38396
 O1040 O 0.50788 0.88230 0.35820
 C1041 C 0.51675 0.90229 0.36446
 C1042 C 0.53543 0.91368 0.34939
 C1043 C 0.54179 0.90347 0.32746
 H1044 H 0.53052 0.88927 0.32069
 O1045 O 0.60856 0.97420 0.40468
 O1046 O 0.63533 0.97274 0.37560
 C1047 C 0.62795 0.96589 0.39590
 C1048 C 0.64215 0.94827 0.40953
 C1049 C 0.66595 0.94300 0.40292
 H1050 H 0.67375 0.95168 0.38752
 O1051 O 0.37253 1.02618 0.42013
 O1052 O 0.34311 1.02627 0.39363
 C1053 C 0.35312 1.03511 0.41202
 C1054 C 0.34277 1.05666 0.42347
 C1055 C 0.32614 1.07091 0.41098
 H1056 H 0.32044 1.06567 0.39325
 O1057 O 0.41067 1.11951 0.47952
 O1058 O 0.38345 1.14821 0.48108
 C1059 C 0.40193 1.13884 0.47146
 C1060 C 0.41230 1.15002 0.44993
 C1061 C 0.39983 1.16870 0.43889
 H1062 H 0.38378 1.17595 0.44723
 O1063 O 0.58246 0.88366 0.47604
 O1064 O 0.61013 0.85538 0.47474
 C1065 C 0.58990 0.86369 0.46811
 C1066 C 0.57484 0.85024 0.45084
 C1067 C 0.58013 0.82635 0.44499
 H1068 H 0.59514 0.81741 0.45351
 O1069 O 0.57492 1.01994 0.37191
 O1070 O 0.60152 1.01880 0.34273
 C1071 C 0.58279 1.02784 0.35221
 C1072 C 0.57042 1.04842 0.34099
 C1073 C 0.58098 1.06082 0.32175
 H1074 H 0.59813 1.05498 0.31452
 O1075 O 0.40111 0.97621 0.38809
 O1076 O 0.37101 0.97534 0.36234
 C1077 C 0.39069 0.96679 0.37014
 C1078 C 0.40110 0.94503 0.35909
 C1079 C 0.38794 0.93167 0.34208
 H1080 H 0.37037 0.93773 0.33617
 O1081 O 0.51691 1.11666 0.40808
 O1082 O 0.51626 1.14437 0.38033
 C1083 C 0.52585 1.13532 0.39880
 C1084 C 0.54805 1.14581 0.40945
 C1085 C 0.56098 1.16428 0.39798
 H1086 H 0.55460 1.17127 0.38116
 O1087 O 0.46596 0.88165 0.42219
 O1088 O 0.46353 0.85202 0.39627
 C1089 C 0.45674 0.86189 0.41554
 C1090 C 0.43731 0.85074 0.42988
 C1091 C 0.42587 0.82968 0.42194
 H1092 H 0.43170 0.82127 0.40552
 O1093 O 0.61647 1.08060 0.46829
 O1094 O 0.64537 1.10763 0.46598
 C1095 C 0.63586 1.08825 0.45886
 C1096 C 0.64696 1.07486 0.43888
 C1097 C 0.67059 1.07997 0.43122
 H1098 H 0.68128 1.09300 0.44089
 O1099 O 0.37322 0.91878 0.48792
 O1100 O 0.34494 0.89111 0.49007
 C1101 C 0.35363 0.90963 0.48030
 C1102 C 0.34158 0.92005 0.45919
 C1103 C 0.32457 0.90660 0.44599
 H1104 H 0.31957 0.88881 0.45167
 Cu1105 Cu 0.48864 0.89998 0.40602
 Cu1106 Cu 0.48565 0.86437 0.37495
 Cu1107 Cu 0.49142 1.09841 0.39705
 Cu1108 Cu 0.49007 1.13154 0.36357
 Cu1109 Cu 0.39047 1.00133 0.40714
 Cu1110 Cu 0.35466 1.00081 0.37589
 Cu1111 Cu 0.58869 0.99694 0.39114
 Cu1112 Cu 0.62073 0.99517 0.35614
 C1113 C 0.42325 0.93610 0.36751
 H1114 H 0.43314 0.94583 0.38109
 C1115 C 0.39670 0.90954 0.33401
 C1116 C 0.54928 1.05759 0.35158
 H1117 H 0.54180 1.04910 0.36723
 C1118 C 0.57023 1.08183 0.31307
 C1119 C 0.34938 0.94228 0.45033
 H1120 H 0.36335 0.95217 0.45961
 C1121 C 0.31571 0.91526 0.42424
 C1122 C 0.63348 1.05741 0.42674
 H1123 H 0.61527 1.05344 0.43254
 C1124 C 0.68059 1.06800 0.41143
 C1125 C 0.42866 0.86225 0.45050
 H1126 H 0.43680 0.87890 0.45627
 C1127 C 0.40604 0.82018 0.43435
 C1128 C 0.55766 1.13566 0.43041
 H1129 H 0.54872 1.12065 0.43873
 C1130 C 0.58280 1.17286 0.40777
 C1131 C 0.42646 1.06148 0.36206
 H1132 H 0.43392 1.05625 0.37910
 C1133 C 0.40535 1.07601 0.31871
 C1134 C 0.54812 0.93368 0.35757
 H1135 H 0.54301 0.94176 0.37439
 C1136 C 0.56235 0.91113 0.31472
 C1137 C 0.55499 0.86144 0.43999
 H1138 H 0.55095 0.87991 0.44422
 C1139 C 0.56562 0.81369 0.42870
 C1140 C 0.43306 1.14075 0.43897
 H1141 H 0.44248 1.12598 0.44719
 C1142 C 0.40701 1.17741 0.41662
 C1143 C 0.35167 1.06466 0.44562
 H1144 H 0.36533 1.05434 0.45477
 C1145 C 0.31868 1.09301 0.42028
 C1146 C 0.63213 0.93690 0.42941
 H1147 H 0.61369 0.94085 0.43454
 C1148 C 0.67984 0.92667 0.41598
 O1149 O 0.52657 0.92041 0.62259
 O1150 O 0.52713 0.89247 0.65013
 C1151 C 0.53555 0.91165 0.64145
 C1152 C 0.55738 0.92241 0.65229
 C1153 C 0.57020 0.90941 0.66932
 H1154 H 0.56259 0.89304 0.67632
 O1155 O 0.48287 1.08992 0.62034
 O1156 O 0.48515 1.11928 0.64659
 C1157 C 0.47629 1.09944 0.63987
 C1158 C 0.45829 1.08723 0.65495
 C1159 C 0.45379 1.09520 0.67820
 H1160 H 0.46311 1.11100 0.68450
 O1161 O 0.38495 1.03192 0.59751
 O1162 O 0.35910 1.03413 0.62733
 C1163 C 0.36690 1.04175 0.60747
 C1164 C 0.35546 1.06277 0.59623
 C1165 C 0.33949 1.07729 0.60936
 H1166 H 0.33494 1.07273 0.62755
 O1167 O 0.62222 0.97849 0.58362
 O1168 O 0.65289 0.97917 0.60871
 C1169 C 0.64278 0.97090 0.59006
 C1170 C 0.65498 0.95226 0.57570
 C1171 C 0.67894 0.94597 0.58053
 H1172 H 0.68858 0.95490 0.59484
 O1173 O 0.58511 0.88676 0.52232
 O1174 O 0.61312 0.85882 0.52112
 C1175 C 0.59433 0.86782 0.53063
 C1176 C 0.58405 0.85666 0.55226
 C1177 C 0.59633 0.83768 0.56291
 H1178 H 0.61202 0.83018 0.55413
 O1179 O 0.41444 1.12186 0.52567
 O1180 O 0.38752 1.15086 0.52690
 C1181 C 0.40750 1.14203 0.53359
 C1182 C 0.42240 1.15476 0.55151
 C1183 C 0.41673 1.17825 0.55870
 H1184 H 0.40233 1.18771 0.54978
 O1185 O 0.41671 0.98247 0.62694
 O1186 O 0.38977 0.98342 0.65585
 C1187 C 0.40832 0.97411 0.64621
 C1188 C 0.41923 0.95247 0.65678
 C1189 C 0.40616 0.93945 0.67363
 H1190 H 0.38916 0.94644 0.68019
 O1191 O 0.59279 1.02585 0.61818
 O1192 O 0.62292 1.02662 0.64384
 C1193 C 0.60288 1.03482 0.63647
 C1194 C 0.59138 1.05560 0.64838
 C1195 C 0.60279 1.06781 0.66738
 H1196 H 0.61996 1.06159 0.67418
 O1197 O 0.47806 0.88776 0.59124
 O1198 O 0.48003 0.85947 0.61837
 C1199 C 0.47016 0.86843 0.60004
 C1200 C 0.44793 0.85724 0.59053
 C1201 C 0.43708 0.83875 0.60340
 H1202 H 0.44652 0.83103 0.61841
 O1203 O 0.52875 1.11963 0.58365
 O1204 O 0.53116 1.14893 0.60994
 C1205 C 0.53824 1.13907 0.59076
 C1206 C 0.55825 1.14982 0.57697
 C1207 C 0.57110 1.16961 0.58602
 H1208 H 0.56600 1.17730 0.60302
 O1209 O 0.37584 0.92309 0.53449
 O1210 O 0.34654 0.89647 0.53656
 C1211 C 0.35601 0.91605 0.54335
 C1212 C 0.34404 0.93063 0.56198
 C1213 C 0.31965 0.92712 0.56739
 H1214 H 0.30949 0.91371 0.55765
 O1215 O 0.61870 1.08180 0.51515
 O1216 O 0.64733 1.10903 0.51224
 C1217 C 0.63891 1.09032 0.52182
 C1218 C 0.65270 1.07890 0.54128
 C1219 C 0.67589 1.08717 0.54703
 H1220 H 0.68340 1.10189 0.53704
 O1221 O 0.52966 1.08823 0.61736
 O1222 O 0.53167 1.11768 0.64354
 C1223 C 0.53906 1.09761 0.63582
 C1224 C 0.55961 1.08588 0.64792
 C1225 C 0.57072 1.09723 0.66725
 H1226 H 0.56277 1.11337 0.67453
 O1227 O 0.47910 0.91901 0.62499
 O1228 O 0.47977 0.89052 0.65198
 C1229 C 0.47079 0.90973 0.64394
 C1230 C 0.44952 0.92069 0.65576
 C1231 C 0.43568 0.90757 0.67229
 H1232 H 0.44115 0.88971 0.67726
 O1233 O 0.62277 1.02445 0.58301
 O1234 O 0.65324 1.02533 0.60832
 C1235 C 0.64321 1.03259 0.58931
 C1236 C 0.65503 1.05091 0.57438
 C1237 C 0.67854 1.05903 0.57954
 H1238 H 0.68851 1.05112 0.59408
 O1239 O 0.38101 0.98568 0.59730
 O1240 O 0.35389 0.98768 0.62600
 C1241 C 0.36093 0.97923 0.60611
 C1242 C 0.34620 0.96139 0.59299
 C1243 C 0.32161 0.95762 0.59827
 H1244 H 0.31287 0.96815 0.61201
 O1245 O 0.58656 1.11535 0.51570
 O1246 O 0.61544 1.14235 0.51302
 C1247 C 0.59626 1.13470 0.52274
 C1248 C 0.58607 1.14786 0.54330
 C1249 C 0.59811 1.16804 0.55218
 H1250 H 0.61337 1.17514 0.54247
 O1251 O 0.40757 0.88890 0.53533
 O1252 O 0.37846 0.86226 0.53883
 C1253 C 0.39882 0.87050 0.54531
 C1254 C 0.41229 0.85892 0.56491
 C1255 C 0.40142 0.84083 0.57861
 H1256 H 0.38313 0.83516 0.57473
 O1257 O 0.59245 0.97919 0.61906
 O1258 O 0.62281 0.97911 0.64447
 C1259 C 0.60258 0.97088 0.63753
 C1260 C 0.59093 0.95074 0.65015
 C1261 C 0.60386 0.93695 0.66682
 H1262 H 0.62226 0.94164 0.67144
 O1263 O 0.41920 1.02891 0.62865
 O1264 O 0.39352 1.03014 0.65863
 C1265 C 0.41290 1.03721 0.64880
 C1266 C 0.42790 1.05612 0.65996
 C1267 C 0.42424 1.06371 0.68365
 H1268 H 0.41133 1.05426 0.69456
 O1269 O 0.48141 1.12046 0.58559
 O1270 O 0.48397 1.14980 0.61181
 C1271 C 0.47432 1.14060 0.59339
 C1272 C 0.45459 1.15352 0.58115
 C1273 C 0.44805 1.17649 0.58872
 H1274 H 0.45724 1.18410 0.60397
 O1275 O 0.52567 0.88730 0.59016
 O1276 O 0.52745 0.85953 0.61781
 C1277 C 0.53501 0.86828 0.59834
 C1278 C 0.55552 0.85686 0.58558
 C1279 C 0.56861 0.83811 0.59623
 H1280 H 0.56335 0.83152 0.61358
 O1281 O 0.61965 0.91748 0.51868
 O1282 O 0.64772 0.88959 0.51713
 C1283 C 0.63984 0.90917 0.52555
 C1284 C 0.65379 0.92216 0.54403
 C1285 C 0.67779 0.91587 0.54932
 H1286 H 0.68665 0.90180 0.53930
 O1287 O 0.38087 1.09004 0.53038
 O1288 O 0.35405 1.11909 0.53162
 C1289 C 0.36292 1.10012 0.54029
 C1290 C 0.35327 1.09088 0.56309
 C1291 C 0.33734 1.10504 0.57649
 H1292 H 0.33078 1.12173 0.56926
 Cu1293 Cu 0.50230 0.90645 0.60451
 Cu1294 Cu 0.50381 0.87269 0.63728
 Cu1295 Cu 0.50535 1.10167 0.59901
 Cu1296 Cu 0.50811 1.13693 0.63054
 Cu1297 Cu 0.39360 0.90718 0.51153
 Cu1298 Cu 0.35919 0.87456 0.51487
 Cu1299 Cu 0.59790 0.90400 0.49730
 Cu1300 Cu 0.63126 0.87022 0.49575
 Cu1301 Cu 0.39822 1.10185 0.50466
 Cu1302 Cu 0.36574 1.13650 0.50624
 Cu1303 Cu 0.59830 1.09489 0.49231
 Cu1304 Cu 0.63284 1.12749 0.48925
 Cu1305 Cu 0.40310 1.00709 0.60970
 Cu1306 Cu 0.37146 1.00894 0.64498
 Cu1307 Cu 0.60439 1.00196 0.59862
 Cu1308 Cu 0.64091 1.00257 0.62911
 C1309 C 0.56765 0.94330 0.64310
 H1310 H 0.55798 0.95311 0.62954
 C1311 C 0.59370 0.91589 0.67594
 C1312 C 0.44538 1.06767 0.64605
 H1313 H 0.44841 1.06192 0.62783
 C1314 C 0.43729 1.08330 0.69310
 C1315 C 0.36217 1.06968 0.57306
 H1316 H 0.37496 1.05896 0.56308
 C1317 C 0.33086 1.09874 0.59978
 C1318 C 0.64264 0.94049 0.55722
 H1319 H 0.62405 0.94519 0.55349
 C1320 C 0.69056 0.92799 0.56735
 C1321 C 0.56350 0.86607 0.56360
 H1322 H 0.55410 0.88098 0.55562
 C1323 C 0.58935 0.82878 0.58516
 C1324 C 0.44172 1.14281 0.56247
 H1325 H 0.44624 1.12478 0.55699
 C1326 C 0.42962 1.18946 0.57729
 C1327 C 0.44105 0.94310 0.64811
 H1328 H 0.45100 0.95290 0.63472
 C1329 C 0.41361 0.91663 0.68075
 C1330 C 0.56977 1.06483 0.63888
 H1331 H 0.56131 1.05616 0.62372
 C1332 C 0.59268 1.08898 0.67657
 C1333 C 0.43555 0.86707 0.57110
 H1334 H 0.44368 0.88163 0.56131
 C1335 C 0.41358 0.83106 0.59824
 C1336 C 0.56593 1.13906 0.55560
 H1337 H 0.55671 1.12332 0.54893
 C1338 C 0.59130 1.17865 0.57385
 C1339 C 0.35708 0.94796 0.57467
 H1340 H 0.37602 0.95058 0.57062
 C1341 C 0.30809 0.94083 0.58509
 C1342 C 0.64245 1.06070 0.55497
 H1343 H 0.62434 1.05461 0.55088
 C1344 C 0.68922 1.07717 0.56582
 O1345 O 0.46352 0.41340 0.88740
 O1346 O 0.46137 0.38391 0.86130
 C1347 C 0.45376 0.40380 0.86925
 C1348 C 0.43262 0.41526 0.85796
 C1349 C 0.42024 0.40356 0.83956
 H1350 H 0.42744 0.38703 0.83243
 O1351 O 0.51802 0.58340 0.87894
 O1352 O 0.51681 0.61063 0.85070
 C1353 C 0.52515 0.59127 0.85892
 C1354 C 0.54472 0.57901 0.84585
 C1355 C 0.55569 0.59049 0.82659
 H1356 H 0.54810 0.60699 0.81991
 O1357 O 0.37178 0.47898 0.92371
 O1358 O 0.34233 0.47979 0.89726
 C1359 C 0.35166 0.47121 0.91606
 C1360 C 0.34001 0.45053 0.92778
 C1361 C 0.32348 0.43663 0.91480
 H1362 H 0.31784 0.44232 0.89722
 O1363 O 0.61225 0.51950 0.90899
 O1364 O 0.63990 0.51728 0.88080
 C1365 C 0.63236 0.52605 0.90042
 C1366 C 0.64713 0.54394 0.91347
 C1367 C 0.67087 0.54868 0.90631
 H1368 H 0.67809 0.53947 0.89088
 O1369 O 0.40608 0.38696 0.98835
 O1370 O 0.37749 0.35966 0.99100
 C1371 C 0.39696 0.36728 0.98161
 C1372 C 0.40839 0.35365 0.96186
 C1373 C 0.39810 0.33213 0.95406
 H1374 H 0.38344 0.32452 0.96424
 O1375 O 0.58829 0.61375 0.97335
 O1376 O 0.61778 0.64010 0.97091
 C1377 C 0.59764 0.63195 0.96358
 C1378 C 0.58595 0.64313 0.94262
 C1379 C 0.59882 0.66018 0.92962
 H1380 H 0.61623 0.66626 0.93605
 O1381 O 0.40603 0.52294 0.88843
 O1382 O 0.37656 0.52327 0.86201
 C1383 C 0.39682 0.53105 0.86941
 C1384 C 0.40858 0.55100 0.85656
 C1385 C 0.39610 0.56207 0.83798
 H1386 H 0.37943 0.55424 0.83154
 O1387 O 0.57630 0.47400 0.87790
 O1388 O 0.60320 0.47191 0.84903
 C1389 C 0.58365 0.46475 0.85855
 C1390 C 0.56964 0.44486 0.84771
 C1391 C 0.57802 0.43292 0.82718
 H1392 H 0.59463 0.43866 0.81880
 O1393 O 0.51322 0.38230 0.91756
 O1394 O 0.51174 0.35317 0.89102
 C1395 C 0.52159 0.36292 0.90904
 C1396 C 0.54369 0.35248 0.91962
 C1397 C 0.55717 0.33494 0.90725
 H1398 H 0.55094 0.32825 0.89017
 O1399 O 0.47484 0.61925 0.91397
 O1400 O 0.47498 0.64668 0.88590
 C1401 C 0.46697 0.63877 0.90549
 C1402 C 0.44682 0.65135 0.91731
 C1403 C 0.43347 0.66834 0.90447
 H1404 H 0.43918 0.67361 0.88679
 O1405 O 0.38135 0.59039 0.98270
 O1406 O 0.35424 0.61921 0.98346
 C1407 C 0.36170 0.59939 0.97526
 C1408 C 0.34829 0.58816 0.95533
 C1409 C 0.33101 0.60180 0.94331
 H1410 H 0.32556 0.61887 0.95067
 O1411 O 0.61319 0.41782 0.97663
 O1412 O 0.64024 0.38895 0.97673
 C1413 C 0.63208 0.40817 0.96804
 C1414 C 0.64389 0.41818 0.94666
 C1415 C 0.66386 0.40649 0.93676
 H1416 H 0.67221 0.39211 0.94658
 O1417 O 0.47100 0.58512 0.88305
 O1418 O 0.46988 0.61267 0.85513
 C1419 C 0.46130 0.59384 0.86453
 C1420 C 0.43932 0.58237 0.85449
 C1421 C 0.42585 0.59372 0.83648
 H1422 H 0.43179 0.61074 0.82952
 O1423 O 0.51040 0.41405 0.88449
 O1424 O 0.50820 0.38490 0.85800
 C1425 C 0.51714 0.40468 0.86495
 C1426 C 0.53656 0.41603 0.85077
 C1427 C 0.54465 0.40503 0.82980
 H1428 H 0.53488 0.38975 0.82286
 O1429 O 0.61168 0.47326 0.90793
 O1430 O 0.63869 0.47084 0.87916
 C1431 C 0.63054 0.46383 0.89906
 C1432 C 0.64265 0.44432 0.91207
 C1433 C 0.66203 0.43158 0.90183
 H1434 H 0.66831 0.43609 0.88414
 O1435 O 0.37351 0.52598 0.92118
 O1436 O 0.34411 0.52695 0.89468
 C1437 C 0.35444 0.53555 0.91302
 C1438 C 0.34512 0.55771 0.92419
 C1439 C 0.32882 0.57243 0.91170
 H1440 H 0.32254 0.56712 0.89418
 O1441 O 0.41469 0.62291 0.97933
 O1442 O 0.38712 0.65132 0.97955
 C1443 C 0.40580 0.64185 0.97051
 C1444 C 0.41637 0.65228 0.94870
 C1445 C 0.40296 0.66875 0.93527
 H1446 H 0.38538 0.67460 0.94144
 O1447 O 0.57884 0.38622 0.97843
 O1448 O 0.60638 0.35780 0.97846
 C1449 C 0.58696 0.36655 0.97036
 C1450 C 0.57507 0.35432 0.95012
 C1451 C 0.58773 0.33640 0.93800
 H1452 H 0.60484 0.33023 0.94500
 O1453 O 0.57985 0.52042 0.87579
 O1454 O 0.60712 0.51897 0.84722
 C1455 C 0.58825 0.52816 0.85623
 C1456 C 0.57632 0.54867 0.84463
 C1457 C 0.58747 0.56084 0.82563
 H1458 H 0.60460 0.55466 0.81864
 O1459 O 0.40148 0.47638 0.88821
 O1460 O 0.37182 0.47678 0.86198
 C1461 C 0.39127 0.46775 0.86976
 C1462 C 0.40173 0.44636 0.85808
 C1463 C 0.38922 0.43407 0.83985
 H1464 H 0.37203 0.44073 0.83351
 O1465 O 0.52215 0.61570 0.91179
 O1466 O 0.52231 0.64272 0.88335
 C1467 C 0.53152 0.63396 0.90217
 C1468 C 0.55404 0.64425 0.91237
 C1469 C 0.56765 0.66104 0.89938
 H1470 H 0.56129 0.66721 0.88222
 O1471 O 0.46578 0.38262 0.92165
 O1472 O 0.46409 0.35315 0.89553
 C1473 C 0.45683 0.36285 0.91476
 C1474 C 0.43714 0.35160 0.92880
 C1475 C 0.42573 0.33058 0.92064
 H1476 H 0.43167 0.32243 0.90414
 O1477 O 0.62065 0.58055 0.97425
 O1478 O 0.65023 0.60686 0.97225
 C1479 C 0.64040 0.58758 0.96512
 C1480 C 0.65145 0.57355 0.94543
 C1481 C 0.67537 0.57782 0.93813
 H1482 H 0.68630 0.59067 0.94778
 O1483 O 0.37214 0.41851 0.98755
 O1484 O 0.34344 0.39131 0.98994
 C1485 C 0.35235 0.40966 0.98008
 C1486 C 0.34047 0.41999 0.95880
 C1487 C 0.32402 0.40620 0.94530
 H1488 H 0.31906 0.38844 0.95113
 Cu1489 Cu 0.48839 0.40090 0.90555
 Cu1490 Cu 0.48613 0.36578 0.87390
 Cu1491 Cu 0.49655 0.59819 0.89981
 Cu1492 Cu 0.49596 0.63094 0.86601
 Cu1493 Cu 0.39108 0.50093 0.90808
 Cu1494 Cu 0.35569 0.50184 0.87644
 Cu1495 Cu 0.59223 0.49698 0.89539
 Cu1496 Cu 0.62486 0.49469 0.86106
 C1497 C 0.42343 0.43681 0.86688
 H1498 H 0.43281 0.44577 0.88132
 C1499 C 0.39822 0.41238 0.83080
 C1500 C 0.55488 0.55788 0.85449
 H1501 H 0.54667 0.54921 0.86969
 C1502 C 0.57744 0.58212 0.81696
 C1503 C 0.34826 0.44218 0.94989
 H1504 H 0.36166 0.45242 0.95962
 C1505 C 0.31606 0.41416 0.92297
 C1506 C 0.63762 0.55633 0.93318
 H1507 H 0.61917 0.55299 0.93862
 C1508 C 0.68535 0.56522 0.91872
 C1509 C 0.42821 0.36303 0.94938
 H1510 H 0.43618 0.37973 0.95525
 C1511 C 0.40598 0.32077 0.93304
 C1512 C 0.56344 0.63534 0.93397
 H1513 H 0.55359 0.62180 0.94370
 C1514 C 0.59035 0.66858 0.90769
 C1515 C 0.43039 0.56106 0.86454
 H1516 H 0.43997 0.55275 0.87913
 C1517 C 0.40388 0.58389 0.82854
 C1518 C 0.54887 0.43623 0.85935
 H1519 H 0.54284 0.44465 0.87571
 C1520 C 0.56578 0.41270 0.81830
 C1521 C 0.55294 0.36214 0.94099
 H1522 H 0.54331 0.37630 0.95014
 C1523 C 0.57962 0.32734 0.91614
 C1524 C 0.43834 0.64371 0.93959
 H1525 H 0.44825 0.63021 0.94930
 C1526 C 0.41126 0.67653 0.91304
 C1527 C 0.35502 0.56592 0.94587
 H1528 H 0.36866 0.55547 0.95490
 C1529 C 0.32230 0.59491 0.92087
 C1530 C 0.63367 0.43737 0.93442
 H1531 H 0.61814 0.44637 0.94199
 C1532 C 0.67248 0.41225 0.91395
 O1533 O 0.52098 0.42257 1.12485
 O1534 O 0.52114 0.39514 1.15290
 C1535 C 0.52928 0.41447 1.14430
 C1536 C 0.54976 0.42644 1.15637
 C1537 C 0.55970 0.41599 1.17667
 H1538 H 0.55050 0.40107 1.18490
 O1539 O 0.48361 0.59261 1.12119
 O1540 O 0.48599 0.62139 1.14810
 C1541 C 0.47703 0.60169 1.14089
 C1542 C 0.45871 0.58922 1.15546
 C1543 C 0.45386 0.59674 1.17879
 H1544 H 0.46328 0.61226 1.18559
 O1545 O 0.38417 0.53525 1.09677
 O1546 O 0.35738 0.53805 1.12569
 C1547 C 0.36580 0.54530 1.10598
 C1548 C 0.35448 0.56584 1.09375
 C1549 C 0.33546 0.57863 1.10452
 H1550 H 0.32874 0.57333 1.12183
 O1551 O 0.61943 0.47874 1.08944
 O1552 O 0.64875 0.47790 1.11603
 C1553 C 0.63879 0.46960 1.09733
 C1554 C 0.64913 0.44861 1.08491
 C1555 C 0.66730 0.43475 1.09569
 H1556 H 0.67430 0.43978 1.11303
 O1557 O 0.58034 0.38766 1.02532
 O1558 O 0.60772 0.35909 1.02450
 C1559 C 0.58897 0.36839 1.03362
 C1560 C 0.57863 0.35739 1.05524
 C1561 C 0.59120 0.33874 1.06612
 H1562 H 0.60635 0.33073 1.05689
 O1563 O 0.41815 0.62442 1.02615
 O1564 O 0.39080 0.65302 1.02589
 C1565 C 0.41018 0.64418 1.03408
 C1566 C 0.42176 0.65588 1.05483
 C1567 C 0.40834 0.67251 1.06795
 H1568 H 0.39142 0.67903 1.06080
 O1569 O 0.41313 0.48519 1.12774
 O1570 O 0.38558 0.48702 1.15605
 C1571 C 0.40389 0.47704 1.14679
 C1572 C 0.41404 0.45511 1.15749
 C1573 C 0.40084 0.44194 1.17442
 H1574 H 0.38343 0.44834 1.18047
 O1575 O 0.59043 0.52782 1.12163
 O1576 O 0.61934 0.52746 1.14868
 C1577 C 0.59984 0.53616 1.14053
 C1578 C 0.58778 0.55628 1.15279
 C1579 C 0.59256 0.56164 1.17682
 H1580 H 0.60538 0.55098 1.18673
 O1581 O 0.47376 0.38821 1.09333
 O1582 O 0.47534 0.36035 1.12091
 C1583 C 0.46603 0.36873 1.10205
 C1584 C 0.44509 0.35638 1.09107
 C1585 C 0.43570 0.33561 1.10149
 H1586 H 0.44493 0.32764 1.11649
 O1587 O 0.52872 0.62296 1.08435
 O1588 O 0.53059 0.65255 1.11036
 C1589 C 0.53750 0.64282 1.09097
 C1590 C 0.55622 0.65437 1.07608
 C1591 C 0.56212 0.67853 1.07930
 H1592 H 0.55255 0.68910 1.09248
 O1593 O 0.37528 0.42268 1.03421
 O1594 O 0.34614 0.39599 1.03681
 C1595 C 0.35574 0.41555 1.04361
 C1596 C 0.34451 0.43014 1.06286
 C1597 C 0.32222 0.42361 1.07309
 H1598 H 0.31344 0.40743 1.06705
 O1599 O 0.62236 0.58344 1.02097
 O1600 O 0.65144 0.61025 1.01883
 C1601 C 0.64249 0.59166 1.02822
 C1602 C 0.65533 0.57961 1.04799
 C1603 C 0.67936 0.58556 1.05381
 H1604 H 0.68896 0.59885 1.04351
 O1605 O 0.53030 0.59297 1.11963
 O1606 O 0.53263 0.62222 1.14602
 C1607 C 0.53951 0.60196 1.13839
 C1608 C 0.55813 0.58849 1.15157
 C1609 C 0.56279 0.59343 1.17566
 H1610 H 0.55289 0.60751 1.18467
 O1611 O 0.47391 0.42123 1.12565
 O1612 O 0.47426 0.39318 1.15312
 C1613 C 0.46557 0.41238 1.14475
 C1614 C 0.44459 0.42371 1.15651
 C1615 C 0.43147 0.41107 1.17365
 H1616 H 0.43806 0.39390 1.17963
 O1617 O 0.62143 0.52503 1.08749
 O1618 O 0.65089 0.52470 1.11394
 C1619 C 0.64184 0.53245 1.09462
 C1620 C 0.65494 0.55049 1.08034
 C1621 C 0.67892 0.55643 1.08568
 H1622 H 0.68808 0.54753 1.10021
 O1623 O 0.38166 0.48894 1.09416
 O1624 O 0.35403 0.49154 1.12234
 C1625 C 0.36146 0.48268 1.10271
 C1626 C 0.34702 0.46393 1.09054
 C1627 C 0.32404 0.45825 1.09907
 H1628 H 0.31603 0.46998 1.11219
 O1629 O 0.59027 0.61723 1.01978
 O1630 O 0.61912 0.64427 1.01731
 C1631 C 0.59939 0.63702 1.02633
 C1632 C 0.58686 0.65150 1.04474
 C1633 C 0.59287 0.67563 1.04858
 H1634 H 0.60677 0.68403 1.03792
 O1635 O 0.40623 0.38764 1.03463
 O1636 O 0.37719 0.36085 1.03747
 C1637 C 0.39757 0.36887 1.04406
 C1638 C 0.41118 0.35664 1.06319
 C1639 C 0.40200 0.33583 1.07394
 H1640 H 0.38504 0.32828 1.06790
 O1641 O 0.58810 0.48148 1.12327
 O1642 O 0.61728 0.48070 1.15000
 C1643 C 0.59698 0.47327 1.14242
 C1644 C 0.58377 0.45427 1.15529
 C1645 C 0.59415 0.44257 1.17504
 H1646 H 0.61184 0.44778 1.18146
 O1647 O 0.41918 0.53161 1.12743
 O1648 O 0.39250 0.53356 1.15651
 C1649 C 0.41244 0.54009 1.14735
 C1650 C 0.42761 0.55854 1.15914
 C1651 C 0.42362 0.56566 1.18292
 H1652 H 0.41033 0.55617 1.19335
 O1653 O 0.48154 0.62482 1.08873
 O1654 O 0.48318 0.65367 1.11560
 C1655 C 0.47338 0.64423 1.09740
 C1656 C 0.45164 0.65520 1.08678
 C1657 C 0.43704 0.67083 1.10036
 H1658 H 0.44206 0.67532 1.11849
 O1659 O 0.52130 0.38893 1.09295
 O1660 O 0.52281 0.36164 1.12110
 C1661 C 0.53063 0.37016 1.10165
 C1662 C 0.55123 0.35868 1.08925
 C1663 C 0.56503 0.34077 1.10051
 H1664 H 0.56045 0.33512 1.11837
 O1665 O 0.61477 0.41893 1.02367
 O1666 O 0.64168 0.38994 1.02284
 C1667 C 0.63409 0.40949 1.03147
 C1668 C 0.64709 0.42000 1.05201
 C1669 C 0.66577 0.40698 1.06258
 H1670 H 0.67225 0.39086 1.05398
 O1671 O 0.38367 0.59350 1.02950
 O1672 O 0.35666 0.62242 1.02959
 C1673 C 0.36513 0.60340 1.03851
 C1674 C 0.35395 0.59367 1.06037
 C1675 C 0.33487 0.60599 1.07127
 H1676 H 0.32730 0.62156 1.06266
 Cu1677 Cu 0.49743 0.40793 1.10629
 Cu1678 Cu 0.49854 0.37479 1.13978
 Cu1679 Cu 0.50597 0.60558 1.10070
 Cu1680 Cu 0.50850 0.64055 1.13254
 Cu1681 Cu 0.39265 0.40675 1.01111
 Cu1682 Cu 0.35814 0.37433 1.01412
 Cu1683 Cu 0.59402 0.40565 1.00099
 Cu1684 Cu 0.62668 0.37108 1.00058
 Cu1685 Cu 0.40226 0.60490 1.00432
 Cu1686 Cu 0.36953 0.63935 1.00462
 Cu1687 Cu 0.60255 0.59602 0.99747
 Cu1688 Cu 0.63753 0.62807 0.99465
 Cu1689 Cu 0.40236 0.51017 1.10882
 Cu1690 Cu 0.36965 0.51282 1.14300
 Cu1691 Cu 0.60191 0.50333 1.10285
 Cu1692 Cu 0.63708 0.50279 1.13483
 C1693 C 0.56158 0.44596 1.14609
 H1694 H 0.55404 0.45393 1.13020
 C1695 C 0.58236 0.42297 1.18540
 C1696 C 0.44560 0.57008 1.14585
 H1697 H 0.44884 0.56469 1.12756
 C1698 C 0.43682 0.58478 1.19309
 C1699 C 0.36355 0.57350 1.07165
 H1700 H 0.37852 0.56411 1.06347
 C1701 C 0.32582 0.59898 1.09351
 C1702 C 0.63907 0.44100 1.06309
 H1703 H 0.62438 0.45093 1.05514
 C1704 C 0.67529 0.41354 1.08479
 C1705 C 0.55844 0.36709 1.06673
 H1706 H 0.54874 0.38163 1.05841
 C1707 C 0.58551 0.33110 1.08918
 C1708 C 0.44364 0.64757 1.06417
 H1709 H 0.45391 0.63439 1.05427
 C1710 C 0.41483 0.67882 1.09129
 C1711 C 0.43589 0.44583 1.14872
 H1712 H 0.44578 0.45548 1.13518
 C1713 C 0.40923 0.41959 1.18215
 C1714 C 0.57056 0.56979 1.14037
 H1715 H 0.56687 0.56581 1.12181
 C1716 C 0.57970 0.57988 1.18848
 C1717 C 0.43284 0.36660 1.07176
 H1718 H 0.43973 0.38289 1.06395
 C1719 C 0.41404 0.32538 1.09330
 C1720 C 0.56848 0.64110 1.05854
 H1721 H 0.56398 0.62244 1.05592
 C1722 C 0.58022 0.68928 1.06550
 C1723 C 0.35688 0.45017 1.07200
 H1724 H 0.37461 0.45463 1.06521
 C1725 C 0.31177 0.43755 1.09143
 C1726 C 0.64338 0.56201 1.06132
 H1727 H 0.62482 0.55753 1.05712
 C1728 C 0.69135 0.57371 1.07238
 C1729 C 1.15213 1.13906 1.25012
 C1730 C 1.14278 1.15597 1.23505
 C1731 C 1.14261 1.18013 1.24021
 C1732 C 1.15248 1.18742 1.26187
 C1733 C 1.16335 1.17077 1.27776
 C1734 C 1.16353 1.14609 1.27148
 O1735 O 1.14774 1.11683 1.24257
 C1736 C 1.13556 1.12004 1.22230
 C1737 C 1.13260 1.14375 1.21689
 C1738 C 1.12020 1.15170 1.19703
 C1739 C 1.10965 1.13452 1.18230
 C1740 C 1.11078 1.10984 1.18799
 C1741 C 1.12466 1.10239 1.20796
 H1742 H 1.13449 1.19293 1.22824
 H1743 H 1.15217 1.20637 1.26582
 H1744 H 1.17106 1.13282 1.28331
 H1745 H 1.11841 1.17053 1.19316
 H1746 H 1.09998 1.14057 1.16668
 H1747 H 1.12588 1.08374 1.21277
 C1748 C 1.13899 0.64827 0.75111
 C1749 C 1.15698 0.63887 0.73703
 C1750 C 1.18135 0.64128 0.74226
 C1751 C 1.18753 0.65389 0.76296
 C1752 C 1.16944 0.66405 0.77774
 C1753 C 1.14477 0.66142 0.77160
 O1754 O 1.11696 0.64271 0.74342
 C1755 C 1.12124 0.62958 0.72406
 C1756 C 1.14546 0.62692 0.71938
 C1757 C 1.15422 0.61363 0.70037
 C1758 C 1.13734 0.60222 0.68569
 C1759 C 1.11219 0.60388 0.69044
 C1760 C 1.10401 0.61820 0.70970
 H1761 H 1.19511 0.63345 0.73100
 H1762 H 1.20646 0.65591 0.76739
 H1763 H 1.13063 0.66876 0.78275
 H1764 H 1.17340 0.61196 0.69703
 H1765 H 1.14393 0.59193 0.67066
 H1766 H 1.08498 0.61977 0.71381
 C1767 C 0.63490 1.12658 0.76499
 C1768 C 0.62850 1.14517 0.75044
 C1769 C 0.62824 1.16878 0.75794
 C1770 C 0.63521 1.17362 0.78140
 C1771 C 0.64314 1.15504 0.79679
 C1772 C 0.64294 1.13105 0.78827
 O1773 O 0.63179 1.10530 0.75469
 C1774 C 0.62344 1.11076 0.73313
 C1775 C 0.62157 1.13498 0.72967
 C1776 C 0.61311 1.14497 0.70874
 C1777 C 0.60537 1.12937 0.69082
 C1778 C 0.60538 1.10424 0.69431
 C1779 C 0.61536 1.09473 0.71554
 H1780 H 0.62251 1.18299 0.74623
 H1781 H 0.63509 1.19210 0.78719
 H1782 H 0.64834 1.11631 0.79950
 H1783 H 0.61211 1.16412 0.70643
 H1784 H 0.59849 1.13696 0.67445
 H1785 H 0.61553 1.07569 0.71878
 C1786 C 0.61882 0.60410 1.28247
 C1787 C 0.59427 0.60096 1.28455
 C1788 C 0.58156 0.60670 1.30512
 C1789 C 0.59455 0.61666 1.32415
 C1790 C 0.61981 0.62063 1.32237
 C1791 C 0.63221 0.61367 1.30139
 O1792 O 0.62703 0.59922 1.26074
 C1793 C 0.60721 0.59298 1.24886
 C1794 C 0.58671 0.59378 1.26267
 C1795 C 0.56373 0.58971 1.25352
 C1796 C 0.56177 0.58475 1.22910
 C1797 C 0.58258 0.58392 1.21439
 C1798 C 0.60569 0.58775 1.22452
 H1799 H 0.56218 0.60441 1.30617
 H1800 H 0.58481 0.62196 1.34004
 H1801 H 0.65132 0.61711 1.29924
 H1802 H 0.54784 0.59084 1.26468
 H1803 H 0.54401 0.58174 1.22155
 H1804 H 0.62180 0.58766 1.21359
 C1805 C 0.87282 0.88285 1.26986
 C1806 C 0.88125 0.86450 1.25587
 C1807 C 0.88148 0.84088 1.26314
 C1808 C 0.87228 0.83577 1.28575
 C1809 C 0.86227 0.85410 1.30038
 C1810 C 0.86265 0.87810 1.29215
 O1811 O 0.87597 0.90423 1.26004
 C1812 C 0.88645 0.89912 1.23931
 C1813 C 0.88963 0.87499 1.23587
 C1814 C 0.90004 0.86536 1.21557
 C1815 C 0.90829 0.88127 1.19832
 C1816 C 0.90693 0.90641 1.20194
 C1817 C 0.89509 0.91547 1.22248
 H1818 H 0.88876 0.82686 1.25191
 H1819 H 0.87234 0.81731 1.29141
 H1820 H 0.85568 0.89268 1.30286
 H1821 H 0.90192 0.84626 1.21316
 H1822 H 0.91635 0.87390 1.18233
 H1823 H 0.89368 0.93448 1.22577
 C1824 C 0.86509 0.38264 0.76933
 C1825 C 0.87420 0.36383 0.75630
 C1826 C 0.87543 0.34072 0.76482
 C1827 C 0.86725 0.33673 0.78792
 C1828 C 0.85688 0.35546 0.80175
 C1829 C 0.85505 0.37872 0.79198
 O1830 O 0.86909 0.40365 0.75899
 C1831 C 0.88079 0.39776 0.73905
 C1832 C 0.88381 0.37354 0.73652
 C1833 C 0.89618 0.36314 0.71771
 C1834 C 0.90647 0.37833 0.70093
 C1835 C 0.90523 0.40356 0.70365
 C1836 C 0.89152 0.41342 0.72272
 H1837 H 0.88348 0.32645 0.75446
 H1838 H 0.86871 0.31879 0.79493
 H1839 H 0.84810 0.39353 0.80238
 H1840 H 0.89809 0.34396 0.71615
 H1841 H 0.91582 0.37028 0.68598
 H1842 H 0.89026 0.43253 0.72542
 C1843 C 0.36715 0.85818 0.75440
 C1844 C 0.34993 0.86618 0.73869
 C1845 C 0.32534 0.86301 0.74221
 C1846 C 0.31807 0.85100 0.76278
 C1847 C 0.33533 0.84208 0.77916
 C1848 C 0.36030 0.84555 0.77483
 O1849 O 0.38947 0.86443 0.74816
 C1850 C 0.38616 0.87655 0.72806
 C1851 C 0.36227 0.87784 0.72151
 C1852 C 0.35437 0.88989 0.70145
 C1853 C 0.37173 0.90165 0.68778
 C1854 C 0.39648 0.90164 0.69451
 C1855 C 0.40389 0.88834 0.71469
 H1856 H 0.31219 0.86981 0.72970
 H1857 H 0.29895 0.84831 0.76578
 H1858 H 0.37381 0.83912 0.78717
 H1859 H 0.33545 0.89048 0.69665
 H1860 H 0.36580 0.91116 0.67208
 H1861 H 0.42259 0.88805 0.72031
 C1862 C 0.35409 0.37996 1.26190
 C1863 C 0.36026 0.36175 1.24658
 C1864 C 0.35811 0.33781 1.25245
 C1865 C 0.34963 0.33231 1.27526
 C1866 C 0.34286 0.35065 1.29161
 C1867 C 0.34452 0.37490 1.28440
 O1868 O 0.36021 0.40140 1.25374
 C1869 C 0.37041 0.39653 1.23282
 C1870 C 0.37057 0.37251 1.22757
 C1871 C 0.38140 0.36311 1.20732
 C1872 C 0.39304 0.37904 1.19201
 C1873 C 0.39421 0.40385 1.19740
 C1874 C 0.38212 0.41279 1.21785
 H1875 H 0.36368 0.32384 1.24025
 H1876 H 0.34849 0.31365 1.28012
 H1877 H 0.34028 0.38942 1.29651
 H1878 H 0.38133 0.34411 1.20366
 H1879 H 0.40162 0.37192 1.17617
 H1880 H 0.38291 0.43153 1.22260
 C1881 C 0.87866 1.12641 0.73098
 C1882 C 0.85872 1.11653 0.74163
 C1883 C 0.83635 1.11514 0.73054
 C1884 C 0.83437 1.12432 0.70744
 C1885 C 0.85440 1.13546 0.69611
 C1886 C 0.87686 1.13668 0.70837
 O1887 O 0.89863 1.12416 0.74398
 C1888 C 0.89100 1.11279 0.76334
 C1889 C 0.86664 1.10811 0.76284
 C1890 C 0.85468 1.09660 0.78118
 C1891 C 0.86843 1.08910 0.80068
 C1892 C 0.89396 1.09223 0.80123
 C1893 C 0.90527 1.10482 0.78234
 H1894 H 0.82106 1.10680 0.73916
 H1895 H 0.81700 1.12308 0.69864
 H1896 H 0.89273 1.14447 0.70024
 H1897 H 0.83539 1.09354 0.78055
 H1898 H 0.85899 1.08070 0.81527
 H1899 H 0.92459 1.10760 0.78195
 C1900 C 0.88352 0.60064 0.22003
 C1901 C 0.90805 0.59730 0.21825
 C1902 C 0.92161 0.60573 0.19921
 C1903 C 0.90938 0.61801 0.18115
 C1904 C 0.88403 0.62123 0.18224
 C1905 C 0.87086 0.61225 0.20189
 O1906 O 0.87447 0.59295 0.24057
 C1907 C 0.89371 0.58451 0.25194
 C1908 C 0.91461 0.58653 0.23885
 C1909 C 0.93707 0.57986 0.24753
 C1910 C 0.93821 0.57150 0.27096
 C1911 C 0.91717 0.57030 0.28537
 C1912 C 0.89444 0.57622 0.27546
 H1913 H 0.94098 0.60332 0.19849
 H1914 H 0.91958 0.62479 0.16617
 H1915 H 0.85155 0.61486 0.20330
 H1916 H 0.95326 0.58173 0.23690
 H1917 H 0.95569 0.56692 0.27830
 H1918 H 0.87820 0.57595 0.28618
 C1919 C 0.38022 1.11862 0.22564
 C1920 C 0.36314 1.10195 0.23173
 C1921 C 0.34456 1.09499 0.21671
 C1922 C 0.34325 1.10587 0.19443
 C1923 C 0.35954 1.12447 0.18801
 C1924 C 0.37834 1.13099 0.20405
 O1925 O 0.39746 1.12096 0.24207
 C1926 C 0.39069 1.10569 0.25895
 C1927 C 0.36948 1.09422 0.25358
 C1928 C 0.35806 1.07878 0.26905
 C1929 C 0.36927 1.07435 0.29085
 C1930 C 0.39258 1.08384 0.29635
 C1931 C 0.40308 1.10038 0.28007
 H1932 H 0.33172 1.08136 0.22180
 H1933 H 0.32867 1.10049 0.18270
 H1934 H 0.39138 1.14469 0.19962
 H1935 H 0.34075 1.07087 0.26476
 H1936 H 0.35924 1.06354 0.30325
 H1937 H 0.42048 1.10852 0.28316
 C1938 C 0.36451 0.63539 0.74644
 C1939 C 0.34566 0.62727 0.76013
 C1940 C 0.32162 0.62949 0.75339
 C1941 C 0.31675 0.64079 0.73168
 C1942 C 0.33580 0.64997 0.71756
 C1943 C 0.36005 0.64725 0.72507
 O1944 O 0.38604 0.63045 0.75567
 C1945 C 0.38061 0.61909 0.77570
 C1946 C 0.35613 0.61698 0.77931
 C1947 C 0.34629 0.60593 0.79910
 C1948 C 0.36231 0.59609 0.81562
 C1949 C 0.38772 0.59683 0.81185
 C1950 C 0.39697 0.60906 0.79178
 H1951 H 0.30714 0.62267 0.76437
 H1952 H 0.29814 0.64292 0.72616
 H1953 H 0.37490 0.65395 0.71449
 H1954 H 0.32696 0.60484 0.80170
 H1955 H 0.35482 0.58764 0.83128
 H1956 H 0.41618 0.60999 0.78834
 C1957 C 1.12082 0.88118 0.72868
 C1958 C 1.11605 0.86093 0.74165
 C1959 C 1.12168 0.83813 0.73355
 C1960 C 1.13225 0.83605 0.71096
 C1961 C 1.13716 0.85661 0.69704
 C1962 C 1.13173 0.87956 0.70628
 O1963 O 1.11300 0.90101 0.73922
 C1964 C 1.10309 0.89306 0.75923
 C1965 C 1.10453 0.86868 0.76156
 C1966 C 1.09483 0.85651 0.78083
 C1967 C 1.08321 0.87003 0.79851
 C1968 C 1.08131 0.89526 0.79657
 C1969 C 1.09153 0.90688 0.77657
 H1970 H 1.11755 0.82245 0.74401
 H1971 H 1.13629 0.81837 0.70414
 H1972 H 1.13482 0.89552 0.69590
 H1973 H 1.09619 0.83729 0.78224
 H1974 H 1.07603 0.86085 0.81389
 H1975 H 1.09024 0.92603 0.77441
 C1976 C 1.10557 0.38397 0.22250
 C1977 C 1.09381 0.36447 0.23164
 C1978 C 1.09168 0.34296 0.21940
 C1979 C 1.10258 0.34127 0.19693
 C1980 C 1.11614 0.36067 0.18752
 C1981 C 1.11728 0.38248 0.20056
 O1982 O 1.10487 0.40293 0.23684
 C1983 C 1.09263 0.39505 0.25558
 C1984 C 1.08585 0.37153 0.25336
 C1985 C 1.07417 0.35918 0.27129
 C1986 C 1.06873 0.37171 0.29222
 C1987 C 1.07398 0.39656 0.29460
 C1988 C 1.08659 0.40821 0.27595
 H1989 H 1.08203 0.32797 0.22691
 H1990 H 1.10127 0.32443 0.18744
 H1991 H 1.12709 0.39783 0.19399
 H1992 H 1.06977 0.34043 0.26942
 H1993 H 1.06048 0.36179 0.30656
 H1994 H 1.09114 0.42698 0.27692
 C1995 C 0.60695 0.88318 0.22302
 C1996 C 0.59127 0.86552 0.22995
 C1997 C 0.58649 0.84542 0.21617
 C1998 C 0.59856 0.84325 0.19436
 C1999 C 0.61602 0.86046 0.18721
 C2000 C 0.62021 0.88078 0.20194
 O2001 O 0.60773 0.90143 0.23828
 C2002 C 0.59247 0.89487 0.25534
 C2003 C 0.58240 0.87285 0.25123
 C2004 C 0.56723 0.86174 0.26731
 C2005 C 0.56180 0.87399 0.28841
 C2006 C 0.57028 0.89775 0.29270
 C2007 C 0.58626 0.90806 0.27569
 H2008 H 0.57370 0.83200 0.22189
 H2009 H 0.59493 0.82756 0.18357
 H2010 H 0.63299 0.89453 0.19697
 H2011 H 0.56031 0.84394 0.26404
 H2012 H 0.55120 0.86437 0.30131
 H2013 H 0.59350 0.92586 0.27774
 C2014 C 0.61131 0.38076 0.72903
 C2015 C 0.60237 0.36121 0.74084
 C2016 C 0.60410 0.33809 0.73201
 C2017 C 0.61579 0.33487 0.71015
 C2018 C 0.62580 0.35458 0.69771
 C2019 C 0.62340 0.37794 0.70732
 O2020 O 0.60744 0.40117 0.74064
 C2021 C 0.59594 0.39422 0.76023
 C2022 C 0.59263 0.36992 0.76118
 C2023 C 0.58174 0.35856 0.78025
 C2024 C 0.57355 0.37284 0.79906
 C2025 C 0.57580 0.39816 0.79836
 C2026 C 0.58752 0.40893 0.77866
 H2027 H 0.59681 0.32304 0.74167
 H2028 H 0.61755 0.31686 0.70328
 H2029 H 0.63081 0.39333 0.69830
 H2030 H 0.57981 0.33933 0.78073
 H2031 H 0.56560 0.36404 0.81429
 H2032 H 0.58967 0.42811 0.77750
 C2033 C 1.28490 1.12053 1.08959
 C2034 C 1.28846 1.09622 1.08853
 C2035 C 1.30841 1.08508 1.09836
 C2036 C 1.32493 1.09938 1.11068
 C2037 C 1.32175 1.12455 1.11255
 C2038 C 1.30198 1.13544 1.10073
 O2039 O 1.26297 1.12687 1.08224
 C2040 C 1.25261 1.10613 1.07657
 C2041 C 1.26761 1.08690 1.07995
 C2042 C 1.25999 1.06337 1.07752
 C2043 C 1.23578 1.05937 1.07156
 C2044 C 1.21964 1.07875 1.06842
 C2045 C 1.22834 1.10253 1.07048
 H2046 H 1.31041 1.06586 1.09789
 H2047 H 1.33993 1.09063 1.11944
 H2048 H 1.29841 1.15436 1.10264
 H2049 H 1.27208 1.04857 1.08079
 H2050 H 1.22945 1.04113 1.06985
 H2051 H 1.21629 1.11764 1.06877
 C2052 C 1.25474 0.63411 0.63569
 C2053 C 1.24411 0.65130 0.62184
 C2054 C 1.25285 0.67446 0.62025
 C2055 C 1.27341 0.68027 0.63360
 C2056 C 1.28434 0.66321 0.64893
 C2057 C 1.27461 0.63974 0.64999
 O2058 O 1.24445 0.61276 0.63330
 C2059 C 1.22681 0.61670 0.61775
 C2060 C 1.22568 0.64010 0.61056
 C2061 C 1.20843 0.64845 0.59480
 C2062 C 1.19192 0.63192 0.58561
 C2063 C 1.19344 0.60720 0.59139
 C2064 C 1.21098 0.59966 0.60820
 H2065 H 1.24438 0.68752 0.60881
 H2066 H 1.28035 0.69831 0.63237
 H2067 H 1.28263 0.62605 0.66101
 H2068 H 1.20759 0.66710 0.58988
 H2069 H 1.17795 0.63857 0.57391
 H2070 H 1.21278 0.58111 0.61320
 C2071 C 0.77508 1.11508 0.61453
 C2072 C 0.77736 1.11907 0.59051
 C2073 C 0.79594 1.13250 0.58082
 C2074 C 0.81311 1.14207 0.59651
 C2075 C 0.81194 1.13751 0.62144
 C2076 C 0.79246 1.12371 0.63047
 O2077 O 0.75516 1.10307 0.62006
 C2078 C 0.74481 1.09925 0.59900
 C2079 C 0.75791 1.10841 0.58037
 C2080 C 0.75068 1.10634 0.55679
 C2081 C 0.72869 1.09486 0.55220
 C2082 C 0.71392 1.08640 0.57112
 C2083 C 0.72251 1.08824 0.59490
 H2084 H 0.79704 1.13574 0.56186
 H2085 H 0.82767 1.15250 0.58897
 H2086 H 0.79058 1.12012 0.64932
 H2087 H 0.76155 1.11337 0.54242
 H2088 H 0.72310 1.09288 0.53382
 H2089 H 0.71183 1.08225 0.60986
 C2090 C 0.78244 0.61804 1.10249
 C2091 C 0.78571 0.59376 1.10036
 C2092 C 0.80644 0.58219 1.10797
 C2093 C 0.82455 0.59614 1.11845
 C2094 C 0.82181 0.62122 1.12098
 C2095 C 0.80058 0.63246 1.11252
 O2096 O 0.76057 0.62502 1.09557
 C2097 C 0.74993 0.60468 1.08901
 C2098 C 0.76467 0.58512 1.09154
 C2099 C 0.75703 0.56190 1.08703
 C2100 C 0.73303 0.55858 1.07994
 C2101 C 0.71717 0.57831 1.07758
 C2102 C 0.72588 0.60179 1.08174
 H2103 H 0.80838 0.56302 1.10641
 H2104 H 0.84073 0.58735 1.12478
 H2105 H 0.79788 0.65149 1.11464
 H2106 H 0.76898 0.54681 1.08941
 H2107 H 0.72662 0.54058 1.07667
 H2108 H 0.71404 0.61710 1.08048
 C2109 C 1.24415 0.85945 0.85021
 C2110 C 1.23151 0.84247 0.86264
 C2111 C 1.23853 0.81874 0.86381
 C2112 C 1.25971 0.81216 0.85190
 C2113 C 1.27321 0.82914 0.83856
 C2114 C 1.26487 0.85313 0.83740
 O2115 O 1.23534 0.88138 0.85317
 C2116 C 1.21671 0.87806 0.86775
 C2117 C 1.21358 0.85449 0.87381
 C2118 C 1.19588 0.84683 0.88943
 C2119 C 1.18085 0.86416 0.89951
 C2120 C 1.18416 0.88885 0.89455
 C2121 C 1.20210 0.89582 0.87793
 H2122 H 1.22842 0.80584 0.87409
 H2123 H 1.26543 0.79372 0.85307
 H2124 H 1.27483 0.86674 0.82791
 H2125 H 1.19383 0.82815 0.89388
 H2126 H 1.16680 0.85826 0.91152
 H2127 H 1.20526 0.91443 0.87386
 C2128 C 1.27093 0.39464 0.37395
 C2129 C 1.27445 0.39285 0.39814
 C2130 C 1.29329 0.37997 0.40806
 C2131 C 1.30877 0.36783 0.39247
 C2132 C 1.30584 0.36949 0.36735
 C2133 C 1.28715 0.38400 0.35799
 O2134 O 1.24980 0.40442 0.36839
 C2135 C 1.23991 0.40894 0.38953
 C2136 C 1.25450 0.40256 0.40825
 C2137 C 1.24726 0.40419 0.43187
 C2138 C 1.22382 0.41231 0.43645
 C2139 C 1.20772 0.41781 0.41751
 C2140 C 1.21625 0.41664 0.39366
 H2141 H 1.29516 0.37812 0.42716
 H2142 H 1.32288 0.35684 0.40006
 H2143 H 1.28368 0.38479 0.33901
 H2144 H 1.25909 0.39895 0.44628
 H2145 H 1.21809 0.41378 0.45483
 H2146 H 1.20446 0.42017 0.37871
 C2147 C 0.76915 0.87987 0.38555
 C2148 C 0.77194 0.90408 0.38261
 C2149 C 0.79165 0.91402 0.37092
 C2150 C 0.80910 0.89833 0.36171
 C2151 C 0.80666 0.87327 0.36454
 C2152 C 0.78649 0.86399 0.37694
 O2153 O 0.74834 0.87399 0.39569
 C2154 C 0.73775 0.89496 0.39925
 C2155 C 0.75150 0.91394 0.39168
 C2156 C 0.74345 0.93740 0.39273
 C2157 C 0.72014 0.94145 0.40160
 C2158 C 0.70527 0.92213 0.40894
 C2159 C 0.71448 0.89857 0.40813
 H2160 H 0.79325 0.93311 0.36848
 H2161 H 0.82439 0.90568 0.35221
 H2162 H 0.78382 0.84495 0.37892
 H2163 H 0.75455 0.95204 0.38657
 H2164 H 0.71354 0.95963 0.40244
 H2165 H 0.70349 0.88341 0.41317
 C2166 C 0.76127 0.37714 0.86840
 C2167 C 0.75019 0.35880 0.88037
 C2168 C 0.76133 0.33719 0.88497
 C2169 C 0.78497 0.33420 0.87689
 C2170 C 0.79674 0.35226 0.86338
 C2171 C 0.78441 0.37400 0.85872
 O2172 O 0.74833 0.39719 0.86870
 C2173 C 0.72865 0.39114 0.88092
 C2174 C 0.72883 0.36766 0.88790
 C2175 C 0.71044 0.35731 0.90100
 C2176 C 0.69129 0.37194 0.90796
 C2177 C 0.69130 0.39680 0.90282
 C2178 C 0.70998 0.40636 0.88834
 H2179 H 0.75242 0.32335 0.89511
 H2180 H 0.79378 0.31737 0.88066
 H2181 H 0.79303 0.38841 0.84914
 H2182 H 0.71090 0.33864 0.90589
 H2183 H 0.67669 0.36386 0.91791
 H2184 H 0.71065 0.42517 0.88405
 C2185 C 0.72300 0.88608 1.11728
 C2186 C 0.73467 0.89275 1.13790
 C2187 C 0.72438 0.89047 1.16032
 C2188 C 0.70107 0.88085 1.16162
 C2189 C 0.68863 0.87344 1.14071
 C2190 C 0.69987 0.87605 1.11818
 O2191 O 0.73588 0.89043 1.09779
 C2192 C 0.75612 0.89996 1.10636
 C2193 C 0.75627 0.90160 1.13081
 C2194 C 0.77559 0.91084 1.14362
 C2195 C 0.79555 0.91903 1.13072
 C2196 C 0.79578 0.91829 1.10538
 C2197 C 0.77575 0.90828 1.09308
 H2198 H 0.73392 0.89601 1.17626
 H2199 H 0.69287 0.87887 1.17901
 H2200 H 0.69080 0.87074 1.10190
 H2201 H 0.77534 0.91167 1.16289
 H2202 H 0.81089 0.92586 1.14059
 H2203 H 0.77521 0.90748 1.07382
 C2204 C 0.72559 0.38468 0.61933
 C2205 C 0.72428 0.40822 0.62618
 C2206 C 0.70610 0.41697 0.64089
 C2207 C 0.68850 0.40078 0.64883
 C2208 C 0.68895 0.37643 0.64141
 C2209 C 0.70784 0.36849 0.62621
 O2210 O 0.74527 0.37959 0.60682
 C2211 C 0.75657 0.40045 0.60558
 C2212 C 0.74430 0.41860 0.61684
 C2213 C 0.75288 0.44188 0.61774
 C2214 C 0.77526 0.44653 0.60705
 C2215 C 0.78909 0.42785 0.59643
 C2216 C 0.77917 0.40451 0.59536
 H2217 H 0.70573 0.43550 0.64645
 H2218 H 0.67437 0.40739 0.66044
 H2219 H 0.70930 0.35003 0.62053
 H2220 H 0.74275 0.45596 0.62642
 H2221 H 0.78185 0.46473 0.60734
 H2222 H 0.78907 0.38967 0.58777
 C2223 C 0.21617 0.91033 0.62585
 C2224 C 0.21373 0.91224 0.60155
 C2225 C 0.19541 0.90105 0.58884
 C2226 C 0.17923 0.88680 0.60157
 C2227 C 0.18093 0.88465 0.62675
 C2228 C 0.19920 0.89746 0.63918
 O2229 O 0.23714 0.91891 0.63377
 C2230 C 0.24804 0.92640 0.61403
 C2231 C 0.23419 0.92305 0.59394
 C2232 C 0.24260 0.92753 0.57110
 C2233 C 0.26653 0.93511 0.56871
 C2234 C 0.28180 0.93747 0.58892
 C2235 C 0.27214 0.93384 0.61203
 H2236 H 0.19446 0.90207 0.56961
 H2237 H 0.16548 0.87719 0.59167
 H2238 H 0.20174 0.89536 0.65819
 H2239 H 0.23141 0.92444 0.55557
 H2240 H 0.27354 0.93812 0.55096
 H2241 H 0.28350 0.93492 0.62771
 C2242 C 0.21680 0.39613 1.11467
 C2243 C 0.22392 0.41072 1.13311
 C2244 C 0.21032 0.41405 1.15360
 C2245 C 0.18865 0.40134 1.15550
 C2246 C 0.18141 0.38484 1.13745
 C2247 C 0.19566 0.38264 1.11648
 O2248 O 0.23244 0.39579 1.09670
 C2249 C 0.24996 0.41023 1.10422
 C2250 C 0.24570 0.41943 1.12654
 C2251 C 0.26236 0.43325 1.13878
 C2252 C 0.28422 0.43821 1.12740
 C2253 C 0.28877 0.43042 1.10357
 C2254 C 0.27121 0.41587 1.09201
 H2255 H 0.21630 0.42586 1.16775
 H2256 H 0.17823 0.40360 1.17168
 H2257 H 0.19078 0.37048 1.10220
 H2258 H 0.25895 0.43942 1.15677
 H2259 H 0.29761 0.44786 1.13763
 H2260 H 0.27370 0.40923 1.07406
 C2261 C 0.72489 1.12912 0.89237
 C2262 C 0.72178 1.10501 0.88897
 C2263 C 0.70425 1.09556 0.87390
 C2264 C 0.68927 1.11162 0.86178
 C2265 C 0.69135 1.13668 0.86559
 C2266 C 0.70930 1.14542 0.88153
 O2267 O 0.74447 1.13440 0.90510
 C2268 C 0.75378 1.11311 0.91001
 C2269 C 0.74025 1.09458 0.90091
 C2270 C 0.74681 1.07083 0.90333
 C2271 C 0.76867 1.06593 0.91483
 C2272 C 0.78410 1.08469 0.92281
 C2273 C 0.77602 1.10867 0.92106
 H2274 H 0.70269 1.07650 0.87095
 H2275 H 0.67582 1.10441 0.84971
 H2276 H 0.71207 1.16438 0.88433
 H2277 H 0.73572 1.05655 0.89621
 H2278 H 0.77395 1.04743 0.91673
 H2279 H 0.78731 1.12345 0.92666
 C2280 C 0.72680 0.61750 0.37686
 C2281 C 0.74054 0.63735 0.38194
 C2282 C 0.73166 0.66051 0.38016
 C2283 C 0.70754 0.66332 0.37307
 C2284 C 0.69299 0.64317 0.36759
 C2285 C 0.70291 0.61993 0.36920
 O2286 O 0.73814 0.59712 0.38145
 C2287 C 0.75952 0.60427 0.38956
 C2288 C 0.76191 0.62873 0.39004
 C2289 C 0.78237 0.64016 0.39875
 C2290 C 0.80099 0.62585 0.40771
 C2291 C 0.79877 0.60055 0.40819
 C2292 C 0.77785 0.58963 0.39849
 H2293 H 0.74271 0.67583 0.38468
 H2294 H 0.70010 0.68117 0.37203
 H2295 H 0.69203 0.60422 0.36571
 H2296 H 0.78382 0.65944 0.39897
 H2297 H 0.81705 0.63453 0.41458
 H2298 H 0.77545 0.57044 0.39885
 C2299 C 0.25001 1.13963 0.35508
 C2300 C 0.26526 1.15643 0.36485
 C2301 C 0.26203 1.18075 0.36220
 C2302 C 0.24187 1.18829 0.34944
 C2303 C 0.22552 1.17162 0.33887
 C2304 C 0.23021 1.14676 0.34110
 O2305 O 0.25539 1.11751 0.36198
 C2306 C 0.27439 1.12064 0.37629
 C2307 C 0.28114 1.14417 0.37831
 C2308 C 0.29983 1.15196 0.39283
 C2309 C 0.31214 1.13483 0.40610
 C2310 C 0.30531 1.11037 0.40519
 C2311 C 0.28632 1.10313 0.38967
 H2312 H 0.27411 1.19355 0.37046
 H2313 H 0.23911 1.20737 0.34782
 H2314 H 0.21791 1.13353 0.33387
 H2315 H 0.30470 1.17064 0.39400
 H2316 H 0.32710 1.14073 0.41707
 H2317 H 0.28059 1.08467 0.38858
 C2318 C 0.25148 0.64293 0.85969
 C2319 C 0.26681 0.65982 0.86913
 C2320 C 0.26352 0.68422 0.86605
 C2321 C 0.24339 0.69157 0.85284
 C2322 C 0.22733 0.67454 0.84279
 C2323 C 0.23162 0.64984 0.84605
 O2324 O 0.25721 0.62075 0.86585
 C2325 C 0.27663 0.62374 0.87946
 C2326 C 0.28322 0.64732 0.88186
 C2327 C 0.30252 0.65475 0.89575
 C2328 C 0.31563 0.63719 0.90772
 C2329 C 0.30886 0.61267 0.90636
 C2330 C 0.28923 0.60587 0.89159
 H2331 H 0.27575 0.69714 0.87389
 H2332 H 0.24031 0.71050 0.85044
 H2333 H 0.21941 0.63648 0.83891
 H2334 H 0.30718 0.67344 0.89751
 H2335 H 0.33102 0.64283 0.91823
 H2336 H 0.28346 0.58744 0.89021
 C2337 C 1.11454 1.27685 1.10822
 C2338 C 1.13498 1.26697 1.09842
 C2339 C 1.15709 1.27873 1.09796
 C2340 C 1.15831 1.30149 1.10844
 C2341 C 1.13770 1.31174 1.11946
 C2342 C 1.11543 1.29927 1.11911
 O2343 O 1.09532 1.26271 1.10660
 C2344 C 1.10389 1.24340 1.09570
 C2345 C 1.12810 1.24507 1.09056
 C2346 C 1.14103 1.22663 1.08005
 C2347 C 1.12840 1.20574 1.07417
 C2348 C 1.10309 1.20379 1.07823
 C2349 C 1.09080 1.22294 1.08953
 H2350 H 1.17290 1.27058 1.09005
 H2351 H 1.17550 1.31072 1.10874
 H2352 H 1.09941 1.30664 1.12738
 H2353 H 1.16021 1.22817 1.07670
 H2354 H 1.13850 1.19108 1.06648
 H2355 H 1.07159 1.22220 1.09298
 C2356 C 1.11806 0.77358 0.61435
 C2357 C 1.13781 0.76313 0.60374
 C2358 C 1.16033 0.77404 0.60276
 C2359 C 1.16266 0.79664 0.61330
 C2360 C 1.14281 0.80752 0.62499
 C2361 C 1.12017 0.79582 0.62560
 O2362 O 1.09814 0.76044 0.61242
 C2363 C 1.10559 0.74123 0.60051
 C2364 C 1.12978 0.74196 0.59509
 C2365 C 1.14160 0.72361 0.58325
 C2366 C 1.12786 0.70379 0.57630
 C2367 C 1.10252 0.70288 0.58052
 C2368 C 1.09137 0.72187 0.59322
 H2369 H 1.17551 0.76551 0.59408
 H2370 H 1.18008 0.80543 0.61290
 H2371 H 1.10474 0.80387 0.63432
 H2372 H 1.16078 0.72442 0.57966
 H2373 H 1.13715 0.68913 0.56765
 H2374 H 1.07218 0.72193 0.59683
 C2375 C 0.62340 1.26704 0.62066
 C2376 C 0.64331 1.25592 0.61109
 C2377 C 0.66633 1.26587 0.61190
 C2378 C 0.66893 1.28819 0.62310
 C2379 C 0.64874 1.29977 0.63353
 C2380 C 0.62567 1.28896 0.63230
 O2381 O 0.60304 1.25499 0.61723
 C2382 C 0.61026 1.23574 0.60534
 C2383 C 0.63475 1.23538 0.60132
 C2384 C 0.64620 1.21684 0.58937
 C2385 C 0.63178 1.19802 0.58097
 C2386 C 0.60627 1.19825 0.58412
 C2387 C 0.59549 1.21739 0.59681
 H2388 H 0.68168 1.25686 0.60402
 H2389 H 0.68668 1.29630 0.62395
 H2390 H 0.60988 1.29753 0.63983
 H2391 H 0.66555 1.21681 0.58669
 H2392 H 0.64062 1.18323 0.57208
 H2393 H 0.57616 1.21832 0.59948
 C2394 C 0.62306 0.78036 1.09405
 C2395 C 0.59979 0.78449 1.08647
 C2396 C 0.58782 0.80593 1.09056
 C2397 C 0.60008 0.82362 1.10352
 C2398 C 0.62388 0.81971 1.11188
 C2399 C 0.63580 0.79800 1.10658
 O2400 O 0.63010 0.75793 1.09058
 C2401 C 0.61084 0.74768 1.08073
 C2402 C 0.59183 0.76321 1.07784
 C2403 C 0.56914 0.75587 1.07010
 C2404 C 0.56581 0.73149 1.06537
 C2405 C 0.58503 0.71507 1.06835
 C2406 C 0.60801 0.72334 1.07573
 H2407 H 0.56930 0.80851 1.08498
 H2408 H 0.59071 0.84003 1.10795
 H2409 H 0.65357 0.79425 1.11369
 H2410 H 0.55431 0.76834 1.06853
 H2411 H 0.54814 0.72524 1.05987
 H2412 H 0.62274 0.71102 1.07877
 C2413 C 0.87799 1.27311 0.89428
 C2414 C 0.90251 1.27705 0.89367
 C2415 C 0.91281 1.29664 0.88248
 C2416 C 0.89721 1.31275 0.87127
 C2417 C 0.87187 1.30914 0.87171
 C2418 C 0.86208 1.28923 0.88373
 O2419 O 0.87211 1.25232 0.90398
 C2420 C 0.89338 1.24297 0.90959
 C2421 C 0.91252 1.25750 0.90379
 C2422 C 0.93644 1.25070 0.90676
 C2423 C 0.94085 1.22778 0.91564
 C2424 C 0.92146 1.21211 0.92106
 C2425 C 0.89736 1.22008 0.91847
 H2426 H 0.93219 1.29908 0.88182
 H2427 H 0.90486 1.32793 0.86207
 H2428 H 0.84284 1.28578 0.88380
 H2429 H 0.95118 1.26239 0.90187
 H2430 H 0.95938 1.22202 0.91779
 H2431 H 0.88221 1.20838 0.92194
 C2432 C 0.87362 0.76245 0.37099
 C2433 C 0.85420 0.74987 0.37962
 C2434 C 0.83083 0.75897 0.37985
 C2435 C 0.82730 0.78200 0.37073
 C2436 C 0.84693 0.79511 0.36124
 C2437 C 0.87040 0.78511 0.36126
 O2438 O 0.89452 0.75119 0.37386
 C2439 C 0.88816 0.73099 0.38445
 C2440 C 0.86365 0.72925 0.38812
 C2441 C 0.85301 0.70985 0.39926
 C2442 C 0.86827 0.69177 0.40751
 C2443 C 0.89378 0.69355 0.40506
 C2444 C 0.90378 0.71325 0.39277
 H2445 H 0.81592 0.74886 0.38714
 H2446 H 0.80930 0.78953 0.37082
 H2447 H 0.88576 0.79495 0.35449
 H2448 H 0.83366 0.70880 0.40177
 H2449 H 0.86017 0.67652 0.41622
 H2450 H 0.92311 0.71527 0.39072
 C2451 C 0.37020 1.26164 0.36680
 C2452 C 0.35091 1.24812 0.37428
 C2453 C 0.32713 1.25589 0.37282
 C2454 C 0.32305 1.27865 0.36338
 C2455 C 0.34257 1.29280 0.35532
 C2456 C 0.36648 1.28413 0.35676
 O2457 O 0.39141 1.25157 0.37142
 C2458 C 0.38532 1.23125 0.38200
 C2459 C 0.36075 1.22827 0.38397
 C2460 C 0.35030 1.20878 0.39512
 C2461 C 0.36579 1.19177 0.40501
 C2462 C 0.39128 1.19471 0.40404
 C2463 C 0.40116 1.21456 0.39188
 H2464 H 0.31231 1.24507 0.37924
 H2465 H 0.30474 1.28535 0.36241
 H2466 H 0.38166 1.29492 0.35115
 H2467 H 0.33090 1.20693 0.39646
 H2468 H 0.35788 1.17643 0.41370
 H2469 H 0.42047 1.21744 0.39102
 C2470 C 0.36808 0.74876 0.85105
 C2471 C 0.35244 0.72972 0.85278
 C2472 C 0.32914 0.73009 0.84361
 C2473 C 0.32138 0.75120 0.83275
 C2474 C 0.33694 0.77125 0.83106
 C2475 C 0.36085 0.76984 0.83982
 O2476 O 0.38868 0.74530 0.86270
 C2477 C 0.38590 0.72370 0.87204
 C2478 C 0.36403 0.71345 0.86643
 C2479 C 0.35664 0.69155 0.87539
 C2480 C 0.37234 0.67975 0.89096
 C2481 C 0.39500 0.68988 0.89708
 C2482 C 0.40203 0.71205 0.88723
 H2483 H 0.31704 0.71505 0.84564
 H2484 H 0.30295 0.75227 0.82638
 H2485 H 0.37274 0.78520 0.83948
 H2486 H 0.33935 0.68392 0.87063
 H2487 H 0.36704 0.66260 0.89809
 H2488 H 0.41920 0.72016 0.89174
 C2489 C 1.13115 0.75612 0.84903
 C2490 C 1.14605 0.77577 0.85052
 C2491 C 1.16982 0.77562 0.84259
 C2492 C 1.17875 0.75420 0.83307
 C2493 C 1.16381 0.73371 0.83137
 C2494 C 1.13952 0.73477 0.83902
 O2495 O 1.11000 0.75940 0.85974
 C2496 C 1.11164 0.78155 0.86821
 C2497 C 1.13331 0.79233 0.86290
 C2498 C 1.13958 0.81489 0.87122
 C2499 C 1.12307 0.82669 0.88603
 C2500 C 1.10080 0.81582 0.89219
 C2501 C 1.09477 0.79311 0.88274
 H2502 H 1.18136 0.79112 0.84455
 H2503 H 1.19747 0.75335 0.82755
 H2504 H 1.12809 0.71907 0.83865
 H2505 H 1.15674 0.82292 0.86676
 H2506 H 1.12763 0.84422 0.89290
 H2507 H 1.07799 0.78437 0.88742
 C2508 C 1.13496 0.25876 0.35094
 C2509 C 1.15131 0.27605 0.35760
 C2510 C 1.17596 0.27410 0.35329
 C2511 C 1.18415 0.25328 0.34194
 C2512 C 1.16766 0.23522 0.33488
 C2513 C 1.14265 0.23821 0.33903
 O2514 O 1.11273 0.26309 0.35874
 C2515 C 1.11512 0.28354 0.37059
 C2516 C 1.13837 0.29225 0.37026
 C2517 C 1.14536 0.31265 0.38259
 C2518 C 1.12777 0.32439 0.39615
 C2519 C 1.10378 0.31544 0.39747
 C2520 C 1.09725 0.29498 0.38403
 H2521 H 1.18852 0.28771 0.35922
 H2522 H 1.20334 0.25099 0.33902
 H2523 H 1.12983 0.22431 0.33447
 H2524 H 1.16380 0.31904 0.38216
 H2525 H 1.13293 0.34031 0.40594
 H2526 H 1.07920 0.28760 0.38491
 C2527 C 0.61155 0.72415 0.39872
 C2528 C 0.58720 0.72015 0.40139
 C2529 C 0.57613 0.69886 0.39474
 C2530 C 0.59070 0.68103 0.38467
 C2531 C 0.61588 0.68465 0.38156
 C2532 C 0.62650 0.70646 0.38907
 O2533 O 0.61811 0.74619 0.40484
 C2534 C 0.59744 0.75626 0.41149
 C2535 C 0.57803 0.74102 0.40976
 C2536 C 0.55452 0.74807 0.41475
 C2537 C 0.55079 0.77189 0.42157
 C2538 C 0.57040 0.78819 0.42313
 C2539 C 0.59415 0.78008 0.41834
 H2540 H 0.55687 0.69627 0.39674
 H2541 H 0.58229 0.66446 0.37905
 H2542 H 0.64555 0.70993 0.38650
 H2543 H 0.53952 0.73576 0.41310
 H2544 H 0.53256 0.77772 0.42545
 H2545 H 0.60942 0.79215 0.41898
 C2546 C 0.62221 0.24357 0.86976
 C2547 C 0.64046 0.25915 0.87571
 C2548 C 0.66481 0.25308 0.87418
 C2549 C 0.67058 0.23003 0.86594
 C2550 C 0.65207 0.21399 0.85902
 C2551 C 0.62757 0.22089 0.86090
 O2552 O 0.60030 0.25221 0.87412
 C2553 C 0.60478 0.27382 0.88291
 C2554 C 0.62908 0.27900 0.88394
 C2555 C 0.63794 0.30041 0.89290
 C2556 C 0.62118 0.31681 0.90193
 C2557 C 0.59606 0.31140 0.90247
 C2558 C 0.58771 0.28984 0.89208
 H2559 H 0.67883 0.26551 0.87943
 H2560 H 0.68935 0.22481 0.86454
 H2561 H 0.61313 0.20873 0.85605
 H2562 H 0.65711 0.30417 0.89336
 H2563 H 0.62788 0.33347 0.90926
 H2564 H 0.56875 0.28510 0.89238
 C2565 C 0.88534 0.72496 1.10740
 C2566 C 0.91008 0.72333 1.10594
 C2567 C 0.92278 0.70299 1.11235
 C2568 C 0.90952 0.68356 1.12093
 C2569 C 0.88399 0.68460 1.12275
 C2570 C 0.87163 0.70551 1.11550
 O2571 O 0.87712 0.74655 1.10174
 C2572 C 0.89713 0.75870 1.09662
 C2573 C 0.91772 0.74520 1.09887
 C2574 C 0.94073 0.75437 1.09533
 C2575 C 0.94273 0.77856 1.08943
 C2576 C 0.92192 0.79322 1.08736
 C2577 C 0.89870 0.78296 1.09068
 H2578 H 0.94228 0.70231 1.11132
 H2579 H 0.91919 0.66770 1.12643
 H2580 H 0.85222 0.70695 1.11717
 H2581 H 0.95664 0.74335 1.09731
 H2582 H 0.96057 0.78592 1.08655
 H2583 H 0.88250 0.79369 1.08950
 C2584 C 0.88509 0.22707 0.61343
 C2585 C 0.90974 0.22529 0.61556
 C2586 C 0.92099 0.20608 0.62669
 C2587 C 0.90618 0.18788 0.63583
 C2588 C 0.88078 0.18907 0.63317
 C2589 C 0.87015 0.20894 0.62177
 O2590 O 0.87789 0.24742 0.60367
 C2591 C 0.89848 0.25874 0.59937
 C2592 C 0.91849 0.24583 0.60605
 C2593 C 0.94184 0.25439 0.60338
 C2594 C 0.94467 0.27741 0.59408
 C2595 C 0.92429 0.29173 0.58824
 C2596 C 0.90084 0.28187 0.59039
 H2597 H 0.94043 0.20529 0.62855
 H2598 H 0.91441 0.17275 0.64461
 H2599 H 0.85075 0.21046 0.61993
 H2600 H 0.95733 0.24383 0.60854
 H2601 H 0.96282 0.28425 0.59191
 H2602 H 0.88488 0.29224 0.58638
 C2603 C 0.36171 0.74933 0.63823
 C2604 C 0.37203 0.76200 0.65665
 C2605 C 0.37150 0.75429 0.68015
 C2606 C 0.35974 0.73263 0.68490
 C2607 C 0.34857 0.71944 0.66627
 C2608 C 0.34954 0.72801 0.64260
 O2609 O 0.36522 0.75926 0.61707
 C2610 C 0.37797 0.77869 0.62226
 C2611 C 0.38242 0.78125 0.64626
 C2612 C 0.39560 0.80013 0.65570
 C2613 C 0.40501 0.81683 0.63971
 C2614 C 0.40151 0.81420 0.61471
 C2615 C 0.38733 0.79503 0.60595
 H2616 H 0.38001 0.76447 0.69429
 H2617 H 0.35907 0.72632 0.70309
 H2618 H 0.34143 0.71817 0.62799
 H2619 H 0.39869 0.80186 0.67468
 H2620 H 0.41522 0.83175 0.64683
 H2621 H 0.38442 0.79244 0.58704
 C2622 C 0.37271 0.23203 1.11802
 C2623 C 0.37758 0.24442 1.13869
 C2624 C 0.37504 0.23447 1.16116
 C2625 C 0.36737 0.21067 1.16244
 C2626 C 0.36224 0.19729 1.14146
 C2627 C 0.36467 0.20832 1.11889
 O2628 O 0.37747 0.24460 1.09851
 C2629 C 0.38552 0.26532 1.10712
 C2630 C 0.38585 0.26607 1.13161
 C2631 C 0.39430 0.28563 1.14447
 C2632 C 0.40305 0.30517 1.13158
 C2633 C 0.40337 0.30484 1.10627
 C2634 C 0.39410 0.28468 1.09387
 H2635 H 0.37923 0.24455 1.17714
 H2636 H 0.36554 0.20262 1.17986
 H2637 H 0.36126 0.19851 1.10255
 H2638 H 0.39441 0.28574 1.16375
 H2639 H 0.40967 0.32057 1.14134
 H2640 H 0.39432 0.28380 1.07460
 C2641 C 1.13119 1.14837 0.75123
 C2642 C 1.14740 1.14204 0.76867
 C2643 C 1.17166 1.14811 0.76794
 C2644 C 1.17976 1.16096 0.74822
 C2645 C 1.16368 1.16766 0.72973
 C2646 C 1.13885 1.16166 0.73143
 O2647 O 1.10920 1.13949 0.75503
 C2648 C 1.11174 1.12731 0.77522
 C2649 C 1.13482 1.12843 0.78420
 C2650 C 1.14204 1.11632 0.80451
 C2651 C 1.12483 1.10224 0.81606
 C2652 C 1.10088 1.10040 0.80723
 C2653 C 1.09412 1.11345 0.78665
 H2654 H 1.18405 1.14268 0.78181
 H2655 H 1.19874 1.16554 0.74722
 H2656 H 1.12629 1.16623 0.71740
 H2657 H 1.16039 1.11745 0.81108
 H2658 H 1.13016 1.09275 0.83199
 H2659 H 1.07601 1.11228 0.77947
 C2660 C 1.13228 0.62278 0.23838
 C2661 C 1.12219 0.64061 0.25202
 C2662 C 1.11963 0.66391 0.24424
 C2663 C 1.12768 0.66915 0.22132
 C2664 C 1.13940 0.65158 0.20707
 C2665 C 1.14231 0.62807 0.21603
 O2666 O 1.12935 0.60121 0.24792
 C2667 C 1.11740 0.60575 0.26806
 C2668 C 1.11325 0.62971 0.27150
 C2669 C 1.10070 0.63881 0.29083
 C2670 C 1.09121 0.62253 0.30703
 C2671 C 1.09318 0.59748 0.30312
 C2672 C 1.10733 0.58897 0.28372
 H2673 H 1.11074 0.67734 0.25503
 H2674 H 1.12530 0.68722 0.21490
 H2675 H 1.15031 0.61408 0.20524
 H2676 H 1.09803 0.65782 0.29321
 H2677 H 1.08163 0.62958 0.32233
 H2678 H 1.10924 0.57005 0.28017
 C2679 C 0.61816 1.12220 0.22889
 C2680 C 0.60860 1.14029 0.24251
 C2681 C 0.60816 1.16393 0.23538
 C2682 C 0.61845 1.16940 0.21336
 C2683 C 0.62981 1.15144 0.19922
 C2684 C 0.62945 1.12735 0.20720
 O2685 O 0.61519 1.10074 0.23861
 C2686 C 0.60371 1.10557 0.25891
 C2687 C 0.59975 1.12960 0.26216
 C2688 C 0.58868 1.13904 0.28218
 C2689 C 0.58053 1.12302 0.29933
 C2690 C 0.58254 1.09789 0.29585
 C2691 C 0.59507 1.08905 0.27559
 H2692 H 0.60002 1.17770 0.24632
 H2693 H 0.61829 1.18792 0.20789
 H2694 H 0.63749 1.11306 0.19685
 H2695 H 0.58635 1.15810 0.28452
 H2696 H 0.57216 1.13031 0.31520
 H2697 H 0.59714 1.07007 0.27246
 C2698 C 0.62364 0.62071 0.73153
 C2699 C 0.61907 0.63912 0.74718
 C2700 C 0.62259 0.66297 0.74150
 C2701 C 0.63143 0.66814 0.71874
 C2702 C 0.63681 0.64953 0.70231
 C2703 C 0.63288 0.62543 0.70887
 O2704 O 0.61791 0.59941 0.74025
 C2705 C 0.60961 0.60454 0.76190
 C2706 C 0.61018 0.62860 0.76698
 C2707 C 0.60206 0.63818 0.78834
 C2708 C 0.59234 0.62239 0.80500
 C2709 C 0.59056 0.59755 0.79996
 C2710 C 0.59989 0.58840 0.77828
 H2711 H 0.61856 0.67711 0.75409
 H2712 H 0.63448 0.68664 0.71409
 H2713 H 0.63663 0.61088 0.69664
 H2714 H 0.60283 0.65718 0.79192
 H2715 H 0.58573 0.62959 0.82171
 H2716 H 0.59864 0.56958 0.77393
 C2717 C 0.87209 0.86827 0.73898
 C2718 C 0.85180 0.87521 0.75135
 C2719 C 0.82872 0.87416 0.74172
 C2720 C 0.82644 0.86573 0.71829
 C2721 C 0.84701 0.85822 0.70525
 C2722 C 0.87016 0.85919 0.71581
 O2723 O 0.89243 0.87239 0.75088
 C2724 C 0.88476 0.88209 0.77116
 C2725 C 0.86004 0.88400 0.77237
 C2726 C 0.84812 0.89431 0.79159
 C2727 C 0.86228 0.90343 0.81020
 C2728 C 0.88790 0.90247 0.80913
 C2729 C 0.89925 0.89118 0.78946
 H2730 H 0.81310 0.88014 0.75167
 H2731 H 0.80867 0.86505 0.71024
 H2732 H 0.88613 0.85397 0.70598
 H2733 H 0.82862 0.89555 0.79211
 H2734 H 0.85327 0.91149 0.82535
 H2735 H 0.91872 0.89040 0.78796
 C2736 C 0.87044 0.35737 0.24322
 C2737 C 0.85057 0.36398 0.25634
 C2738 C 0.82717 0.36237 0.24775
 C2739 C 0.82402 0.35393 0.22450
 C2740 C 0.84411 0.34680 0.21027
 C2741 C 0.86771 0.34806 0.22017
 O2742 O 0.89116 0.36246 0.25414
 C2743 C 0.88407 0.37244 0.27454
 C2744 C 0.85939 0.37355 0.27673
 C2745 C 0.84787 0.38423 0.29597
 C2746 C 0.86239 0.39458 0.31361
 C2747 C 0.88795 0.39448 0.31157
 C2748 C 0.89895 0.38277 0.29192
 H2749 H 0.81189 0.36813 0.25833
 H2750 H 0.80575 0.35305 0.21766
 H2751 H 0.88353 0.34334 0.20984
 H2752 H 0.82838 0.38492 0.29717
 H2753 H 0.85367 0.40297 0.32874
 H2754 H 0.91837 0.38264 0.28971
 C2755 C 0.34725 0.86536 0.25276
 C2756 C 0.35202 0.84820 0.26956
 C2757 C 0.34903 0.82394 0.26533
 C2758 C 0.34055 0.81698 0.24287
 C2759 C 0.33485 0.83424 0.22535
 C2760 C 0.33809 0.85885 0.23038
 O2761 O 0.35306 0.88728 0.26005
 C2762 C 0.36158 0.88379 0.28194
 C2763 C 0.36099 0.86019 0.28859
 C2764 C 0.36955 0.85216 0.31034
 C2765 C 0.37992 0.86903 0.32567
 C2766 C 0.38198 0.89336 0.31891
 C2767 C 0.37200 0.90101 0.29698
 H2768 H 0.35335 0.81080 0.27876
 H2769 H 0.33793 0.79813 0.23927
 H2770 H 0.33404 0.87232 0.21720
 H2771 H 0.36880 0.83347 0.31512
 H2772 H 0.38712 0.86301 0.34255
 H2773 H 0.37355 0.91939 0.29129
 C2774 C 0.35332 0.37840 0.74246
 C2775 C 0.35938 0.35916 0.75637
 C2776 C 0.36092 0.33604 0.74756
 C2777 C 0.35623 0.33252 0.72333
 C2778 C 0.34907 0.35180 0.70849
 C2779 C 0.34696 0.37507 0.71848
 O2780 O 0.35655 0.39920 0.75362
 C2781 C 0.36467 0.39284 0.77500
 C2782 C 0.36619 0.36848 0.77761
 C2783 C 0.37536 0.35767 0.79786
 C2784 C 0.38415 0.37253 0.81595
 C2785 C 0.38450 0.39775 0.81323
 C2786 C 0.37377 0.40809 0.79276
 H2787 H 0.36660 0.32137 0.75871
 H2788 H 0.35792 0.31457 0.71623
 H2789 H 0.34246 0.39032 0.70756
 H2790 H 0.37632 0.33844 0.79942
 H2791 H 0.39159 0.36430 0.83175
 H2792 H 0.37403 0.42721 0.79001
 C2793 C 1.14341 0.87064 1.25355
 C2794 C 1.13320 0.85358 1.23906
 C2795 C 1.13100 0.82979 1.24554
 C2796 C 1.13995 0.82315 1.26786
 C2797 C 1.15185 0.84002 1.28285
 C2798 C 1.15370 0.86419 1.27536
 O2799 O 1.14116 0.89267 1.24500
 C2800 C 1.12945 0.88930 1.22454
 C2801 C 1.12472 0.86559 1.21997
 C2802 C 1.11250 0.85772 1.19989
 C2803 C 1.10388 0.87504 1.18424
 C2804 C 1.10657 0.89982 1.18935
 C2805 C 1.12043 0.90705 1.20939
 H2806 H 1.12216 0.81689 1.23405
 H2807 H 1.13823 0.80461 1.27303
 H2808 H 1.16199 0.87773 1.28653
 H2809 H 1.10933 0.83892 1.19658
 H2810 H 1.09417 0.86908 1.16854
 H2811 H 1.12279 0.92575 1.21382
 C2812 C 1.15840 0.36380 0.74380
 C2813 C 1.15295 0.34767 0.72600
 C2814 C 1.15765 0.32337 0.72791
 C2815 C 1.16794 0.31528 0.74922
 C2816 C 1.17355 0.33148 0.76795
 C2817 C 1.16920 0.35618 0.76496
 O2818 O 1.15040 0.38569 0.73929
 C2819 C 1.13961 0.38330 0.71826
 C2820 C 1.14078 0.36038 0.70934
 C2821 C 1.12924 0.35340 0.68844
 C2822 C 1.11563 0.37064 0.67641
 C2823 C 1.11370 0.39431 0.68545
 C2824 C 1.12631 0.40084 0.70642
 H2825 H 1.15274 0.31096 0.71386
 H2826 H 1.17104 0.29631 0.75140
 H2827 H 1.17260 0.36881 0.77925
 H2828 H 1.13018 0.33518 0.68193
 H2829 H 1.10624 0.36549 0.66025
 H2830 H 1.12479 0.41864 0.71389
 C2831 C 0.64474 0.86815 0.75344
 C2832 C 0.63750 0.85129 0.73703
 C2833 C 0.63901 0.82687 0.74111
 C2834 C 0.64859 0.81946 0.76297
 C2835 C 0.65675 0.83645 0.77998
 C2836 C 0.65488 0.86116 0.77509
 O2837 O 0.64021 0.89041 0.74661
 C2838 C 0.62996 0.88750 0.72538
 C2839 C 0.62817 0.86388 0.71867
 C2840 C 0.61750 0.85652 0.69752
 C2841 C 0.60754 0.87416 0.68298
 C2842 C 0.60800 0.89860 0.68994
 C2843 C 0.62002 0.90546 0.71115
 H2844 H 0.63277 0.81398 0.72804
 H2845 H 0.65004 0.80052 0.76649
 H2846 H 0.66071 0.87448 0.78792
 H2847 H 0.61637 0.83783 0.69265
 H2848 H 0.59871 0.86871 0.66660
 H2849 H 0.62041 0.92391 0.71699
 C2850 C 0.62390 0.38472 1.27344
 C2851 C 0.61538 0.36636 1.25947
 C2852 C 0.61356 0.34302 1.26726
 C2853 C 0.62134 0.33811 1.29037
 C2854 C 0.63166 0.35629 1.30506
 C2855 C 0.63275 0.38010 1.29636
 O2856 O 0.62222 0.40591 1.26287
 C2857 C 0.61263 0.40060 1.24172
 C2858 C 0.60861 0.37653 1.23879
 C2859 C 0.59887 0.36663 1.21828
 C2860 C 0.59203 0.38225 1.20024
 C2861 C 0.59415 0.40740 1.20326
 C2862 C 0.60542 0.41672 1.22402
 H2863 H 0.60618 0.32906 1.25600
 H2864 H 0.62009 0.31978 1.29630
 H2865 H 0.64003 0.39456 1.30706
 H2866 H 0.59629 0.34755 1.21635
 H2867 H 0.58422 0.37475 1.18416
 H2868 H 0.60730 0.43577 1.22682
 C2869 C 0.88484 1.14604 1.26512
 C2870 C 0.86602 1.14148 1.24975
 C2871 C 0.84201 1.14222 1.25666
 C2872 C 0.83708 1.14720 1.28058
 C2873 C 0.85595 1.15234 1.29703
 C2874 C 0.88025 1.15271 1.28888
 O2875 O 0.90625 1.14057 1.25571
 C2876 C 0.90069 1.13247 1.23400
 C2877 C 0.87629 1.13306 1.22950
 C2878 C 0.86599 1.12383 1.20888
 C2879 C 0.88135 1.11300 1.19232
 C2880 C 0.90651 1.11099 1.19676
 C2881 C 0.91645 1.12154 1.21765
 H2882 H 0.82760 1.13770 1.24440
 H2883 H 0.81842 1.14679 1.28635
 H2884 H 0.89511 1.15543 1.30114
 H2885 H 0.84669 1.12431 1.20595
 H2886 H 0.87351 1.10543 1.17629
 H2887 H 0.93549 1.11992 1.22171
 C2888 C 0.89102 0.61205 0.78162
 C2889 C 0.91542 0.61640 0.78306
 C2890 C 0.92605 0.62787 0.80243
 C2891 C 0.91092 0.63504 0.82118
 C2892 C 0.88576 0.63031 0.82039
 C2893 C 0.87572 0.61857 0.80029
 O2894 O 0.88448 0.60181 0.76120
 C2895 C 0.90524 0.59956 0.74956
 C2896 C 0.92470 0.60802 0.76227
 C2897 C 0.94813 0.60744 0.75354
 C2898 C 0.95163 0.59813 0.73058
 C2899 C 0.93178 0.59007 0.71657
 C2900 C 0.90824 0.59049 0.72650
 H2901 H 0.94527 0.63132 0.80302
 H2902 H 0.91886 0.64393 0.83648
 H2903 H 0.85654 0.61496 0.79909
 H2904 H 0.96319 0.61399 0.76399
 H2905 H 0.96987 0.59736 0.72370
 H2906 H 0.89264 0.58475 0.71637
 C2907 C 0.39195 1.11360 0.78278
 C2908 C 0.41497 1.12271 0.78233
 C2909 C 0.42330 1.13916 0.79911
 C2910 C 0.40721 1.14649 0.81709
 C2911 C 0.38358 1.13661 0.81849
 C2912 C 0.37613 1.11969 0.80104
 O2913 O 0.38679 1.09991 0.76410
 C2914 C 0.40711 1.10014 0.75164
 C2915 C 0.42505 1.11346 0.76222
 C2916 C 0.44782 1.11594 0.75227
 C2917 C 0.45208 1.10472 0.73027
 C2918 C 0.43335 1.09219 0.71800
 C2919 C 0.41063 1.08956 0.72935
 H2920 H 0.44133 1.14655 0.79806
 H2921 H 0.41335 1.15951 0.83009
 H2922 H 0.35809 1.11220 0.80091
 H2923 H 0.46184 1.12612 0.76113
 H2924 H 0.47002 1.10613 0.72282
 H2925 H 0.39567 1.08052 0.72081
 C2926 C 0.39041 0.61342 1.28289
 C2927 C 0.41350 0.62240 1.28282
 C2928 C 0.42175 0.63857 1.29987
 C2929 C 0.40552 0.64577 1.31774
 C2930 C 0.38183 0.63599 1.31884
 C2931 C 0.37443 0.61930 1.30114
 O2932 O 0.38539 0.60013 1.26387
 C2933 C 0.40587 0.60049 1.25163
 C2934 C 0.42376 0.61347 1.26269
 C2935 C 0.44668 0.61601 1.25310
 C2936 C 0.45118 0.60522 1.23095
 C2937 C 0.43254 0.59313 1.21813
 C2938 C 0.40963 0.59039 1.22914
 H2939 H 0.43983 0.64589 1.29908
 H2940 H 0.41164 0.65859 1.33094
 H2941 H 0.35634 0.61194 1.30083
 H2942 H 0.46065 0.62590 1.26237
 H2943 H 0.46926 0.60664 1.22383
 H2944 H 0.39472 0.58164 1.22021
 C2945 C 1.15128 1.24427 0.85889
 C2946 C 1.14111 1.23029 0.84134
 C2947 C 1.14267 1.23561 0.81734
 C2948 C 1.15492 1.25644 0.81100
 C2949 C 1.16601 1.27139 0.82851
 C2950 C 1.16460 1.26475 0.85291
 O2951 O 1.14563 1.23688 0.88072
 C2952 C 1.13170 1.21786 0.87670
 C2953 C 1.12869 1.21304 0.85286
 C2954 C 1.11435 1.19455 0.84433
 C2955 C 1.10222 1.18055 0.86105
 C2956 C 1.10409 1.18548 0.88585
 C2957 C 1.11951 1.20420 0.89379
 H2958 H 1.13411 1.22449 0.80395
 H2959 H 1.15578 1.26074 0.79222
 H2960 H 1.17226 1.27586 0.86684
 H2961 H 1.11242 1.19112 0.82542
 H2962 H 1.09123 1.16589 0.85458
 H2963 H 1.12128 1.20851 0.91254
 C2964 C 1.12799 0.75152 0.35617
 C2965 C 1.14595 0.73531 0.36102
 C2966 C 1.17036 0.74042 0.35820
 C2967 C 1.17655 0.76317 0.34987
 C2968 C 1.15839 0.77999 0.34414
 C2969 C 1.13374 0.77405 0.34719
 O2970 O 1.10608 0.74364 0.36181
 C2971 C 1.11032 0.72193 0.37031
 C2972 C 1.13442 0.71595 0.36989
 C2973 C 1.14316 0.69445 0.37847
 C2974 C 1.12650 0.67871 0.38860
 C2975 C 1.10167 0.68486 0.39052
 C2976 C 1.09334 0.70652 0.38054
 H2977 H 1.18414 0.72748 0.36261
 H2978 H 1.19544 0.76760 0.34752
 H2979 H 1.11960 0.78677 0.34324
 H2980 H 1.16219 0.69015 0.37784
 H2981 H 1.13309 0.66198 0.39569
 H2982 H 1.07459 0.71179 0.38193
 C2983 C 0.61969 1.26155 0.36664
 C2984 C 0.63848 1.24911 0.37658
 C2985 C 0.66098 1.25928 0.38103
 C2986 C 0.66436 1.28325 0.37465
 C2987 C 0.64581 1.29604 0.36279
 C2988 C 0.62316 1.28482 0.35864
 O2989 O 0.59894 1.24956 0.36683
 C2990 C 0.60489 1.22892 0.37681
 C2991 C 0.62904 1.22761 0.38241
 C2992 C 0.63942 1.20773 0.39276
 C2993 C 0.62411 1.18883 0.39866
 C2994 C 0.59861 1.19063 0.39565
 C2995 C 0.58901 1.21063 0.38350
 H2996 H 0.67519 1.24933 0.38971
 H2997 H 0.68174 1.29146 0.37812
 H2998 H 0.60829 1.29429 0.35046
 H2999 H 0.65858 1.20690 0.39644
 H3000 H 0.63214 1.17317 0.40663
 H3001 H 0.56978 1.21265 0.38078
 C3002 C 0.63331 0.74857 0.85592
 C3003 C 0.65115 0.73242 0.86137
 C3004 C 0.67557 0.73715 0.85820
 C3005 C 0.68192 0.75947 0.84892
 C3006 C 0.66390 0.77626 0.84267
 C3007 C 0.63921 0.77067 0.84603
 O3008 O 0.61136 0.74110 0.86198
 C3009 C 0.61548 0.71974 0.87138
 C3010 C 0.63953 0.71357 0.87113
 C3011 C 0.64816 0.69242 0.88062
 C3012 C 0.63143 0.67722 0.89143
 C3013 C 0.60663 0.68356 0.89304
 C3014 C 0.59843 0.70487 0.88224
 H3015 H 0.68926 0.72428 0.86306
 H3016 H 0.70085 0.76359 0.84634
 H3017 H 0.62517 0.78338 0.84172
 H3018 H 0.66717 0.68797 0.88013
 H3019 H 0.63792 0.66074 0.89915
 H3020 H 0.57970 0.71027 0.88337
 C3021 C 0.89442 1.27329 1.12883
 C3022 C 0.89650 1.27953 1.10522
 C3023 C 0.88665 1.30035 1.09602
 C3024 C 0.87354 1.31503 1.11162
 C3025 C 0.87068 1.30880 1.13592
 C3026 C 0.88185 1.28796 1.14481
 O3027 O 0.90296 1.25162 1.13335
 C3028 C 0.91047 1.24400 1.11215
 C3029 C 0.90693 1.26044 1.09436
 C3030 C 0.91139 1.25543 1.07047
 C3031 C 0.91964 1.23247 1.06463
 C3032 C 0.92326 1.21510 1.08259
 C3033 C 0.91899 1.22113 1.10676
 H3034 H 0.88804 1.30459 1.07728
 H3035 H 0.86479 1.33079 1.10460
 H3036 H 0.87913 1.28235 1.16305
 H3037 H 0.90796 1.26851 1.05674
 H3038 H 0.92285 1.22803 1.04609
 H3039 H 0.92098 1.20800 1.12073
 C3040 C 0.87920 0.76479 0.63322
 C3041 C 0.86034 0.74913 0.62979
 C3042 C 0.83633 0.75543 0.63336
 C3043 C 0.83153 0.77890 0.64070
 C3044 C 0.85064 0.79525 0.64464
 C3045 C 0.87484 0.78810 0.64111
 O3046 O 0.90046 0.75567 0.62702
 C3047 C 0.89486 0.73379 0.61956
 C3048 C 0.87055 0.72892 0.62111
 C3049 C 0.86045 0.70756 0.61341
 C3050 C 0.87593 0.69065 0.60320
 C3051 C 0.90098 0.69546 0.60050
 C3052 C 0.91068 0.71716 0.60936
 H3053 H 0.82180 0.74291 0.63006
 H3054 H 0.81297 0.78443 0.64327
 H3055 H 0.88964 0.80053 0.64356
 H3056 H 0.84125 0.70420 0.61479
 H3057 H 0.86831 0.67395 0.59692
 H3058 H 0.92963 0.72143 0.60730
 C3059 C 0.37835 1.27481 0.61202
 C3060 C 0.40210 1.27577 0.61907
 C3061 C 0.41052 1.29136 0.63642
 C3062 C 0.39377 1.30669 0.64704
 C3063 C 0.36932 1.30730 0.63926
 C3064 C 0.36160 1.29137 0.62101
 O3065 O 0.37372 1.25621 0.59783
 C3066 C 0.39513 1.24555 0.59575
 C3067 C 0.41310 1.25731 0.60791
 C3068 C 0.43683 1.24956 0.60841
 C3069 C 0.44226 1.22825 0.59655
 C3070 C 0.42381 1.21422 0.58566
 C3071 C 0.39992 1.22358 0.58462
 H3072 H 0.42914 1.29109 0.64227
 H3073 H 0.40017 1.31870 0.66087
 H3074 H 0.34293 1.29078 0.61528
 H3075 H 0.45071 1.25952 0.61775
 H3076 H 0.46090 1.22251 0.59648
 H3077 H 0.38522 1.21359 0.57670
 C3078 C 0.36321 0.74771 1.15179
 C3079 C 0.34684 0.73277 1.14091
 C3080 C 0.32222 0.73725 1.14048
 C3081 C 0.31402 0.75813 1.15159
 C3082 C 0.33028 0.77367 1.16374
 C3083 C 0.35529 0.76797 1.16422
 O3084 O 0.38603 0.74155 1.14752
 C3085 C 0.38391 0.72222 1.13377
 C3086 C 0.36023 0.71598 1.12966
 C3087 C 0.35351 0.69692 1.11531
 C3088 C 0.37189 0.68407 1.10408
 C3089 C 0.39653 0.69095 1.10651
 C3090 C 0.40267 0.70989 1.12228
 H3091 H 0.30982 0.72551 1.13116
 H3092 H 0.29486 0.76194 1.15095
 H3093 H 0.36835 0.77973 1.17260
 H3094 H 0.33474 0.69232 1.11253
 H3095 H 0.36681 0.66907 1.09290
 H3096 H 0.42121 0.71562 1.12451
 C3097 C 0.88745 0.72202 0.89386
 C3098 C 0.88361 0.72052 0.91801
 C3099 C 0.87259 0.70094 0.92860
 C3100 C 0.86533 0.68205 0.91370
 C3101 C 0.86958 0.68291 0.88879
 C3102 C 0.88087 0.70321 0.87877
 O3103 O 0.89728 0.74261 0.88731
 C3104 C 0.89982 0.75431 0.90781
 C3105 C 0.89194 0.74147 0.92712
 C3106 C 0.89295 0.75024 0.95027
 C3107 C 0.90209 0.77336 0.95365
 C3108 C 0.90954 0.78750 0.93397
 C3109 C 0.90866 0.77752 0.91070
 H3110 H 0.86952 0.70030 0.94763
 H3111 H 0.85678 0.66660 0.92159
 H3112 H 0.88409 0.70447 0.85979
 H3113 H 0.88687 0.73968 0.96522
 H3114 H 0.90323 0.78025 0.97167
 H3115 H 0.91390 0.78773 0.89521
 C3116 C 0.88679 0.22341 0.38482
 C3117 C 0.88221 0.22037 0.40869
 C3118 C 0.87021 0.20060 0.41759
 C3119 C 0.86208 0.18344 0.40122
 C3120 C 0.86631 0.18595 0.37629
 C3121 C 0.87954 0.20610 0.36815
 O3122 O 0.89690 0.24440 0.38006
 C3123 C 0.89874 0.25471 0.40140
 C3124 C 0.89015 0.24064 0.41949
 C3125 C 0.88959 0.24813 0.44313
 C3126 C 0.89818 0.27113 0.44839
 C3127 C 0.90676 0.28637 0.43007
 C3128 C 0.90714 0.27780 0.40618
 H3129 H 0.86655 0.19880 0.43643
 H3130 H 0.85223 0.16827 0.40815
 H3131 H 0.88276 0.20904 0.34936
 H3132 H 0.88269 0.23669 0.45705
 H3133 H 0.89817 0.27699 0.46680
 H3134 H 0.91310 0.28896 0.39164
 C3135 C 0.37919 0.72835 0.39061
 C3136 C 0.35861 0.73925 0.39894
 C3137 C 0.33588 0.72887 0.39728
 C3138 C 0.33426 0.70630 0.38651
 C3139 C 0.35513 0.69472 0.37739
 C3140 C 0.37795 0.70601 0.37947
 O3141 O 0.39903 0.74119 0.39445
 C3142 C 0.39071 0.76064 0.40534
 C3143 C 0.36608 0.76034 0.40834
 C3144 C 0.35348 0.77894 0.41899
 C3145 C 0.36681 0.79863 0.42709
 C3146 C 0.39239 0.79928 0.42488
 C3147 C 0.40443 0.77995 0.41357
 H3148 H 0.31998 0.73780 0.40409
 H3149 H 0.31664 0.69803 0.38496
 H3150 H 0.39422 0.69760 0.37282
 H3151 H 0.33403 0.77839 0.42084
 H3152 H 0.35706 0.81346 0.43491
 H3153 H 0.42387 0.77974 0.41160
 C3154 C 0.37973 0.22902 0.88816
 C3155 C 0.35971 0.23829 0.89927
 C3156 C 0.33779 0.22636 0.90030
 C3157 C 0.33630 0.20392 0.88928
 C3158 C 0.35639 0.19405 0.87682
 C3159 C 0.37847 0.20702 0.87631
 O3160 O 0.39908 0.24296 0.89026
 C3161 C 0.39095 0.26150 0.90280
 C3162 C 0.36690 0.25957 0.90843
 C3163 C 0.35442 0.27709 0.92084
 C3164 C 0.36730 0.29737 0.92809
 C3165 C 0.39254 0.29954 0.92367
 C3166 C 0.40439 0.28127 0.91047
 H3167 H 0.32239 0.23397 0.90946
 H3168 H 0.31917 0.19461 0.89005
 H3169 H 0.39433 0.20010 0.86736
 H3170 H 0.33533 0.27535 0.92457
 H3171 H 0.35737 0.31141 0.93703
 H3172 H 0.42352 0.28206 0.90668
 C3173 C 1.11955 0.73238 1.11178
 C3174 C 1.09511 0.73038 1.11550
 C3175 C 1.08505 0.71363 1.13066
 C3176 C 1.10079 0.69830 1.14263
 C3177 C 1.12617 0.69928 1.13870
 C3178 C 1.13559 0.71639 1.12255
 O3179 O 1.12541 0.75147 1.09898
 C3180 C 1.10416 0.76156 1.09446
 C3181 C 1.08509 0.74902 1.10387
 C3182 C 1.06132 0.75664 1.10227
 C3183 C 1.05701 0.77852 1.09115
 C3184 C 1.07639 0.79275 1.08259
 C3185 C 1.10031 0.78370 1.08362
 H3186 H 1.06578 0.71293 1.13383
 H3187 H 1.09301 0.68542 1.15476
 H3188 H 1.15482 0.71823 1.11963
 H3189 H 1.04665 0.74637 1.10980
 H3190 H 1.03855 0.78477 1.08997
 H3191 H 1.11554 0.79420 1.07762
 C3192 C 1.13699 0.26057 0.65891
 C3193 C 1.15429 0.27595 0.65038
 C3194 C 1.17880 0.27230 0.65346
 C3195 C 1.18597 0.25159 0.66521
 C3196 C 1.16874 0.23505 0.67431
 C3197 C 1.14372 0.24018 0.67185
 O3198 O 1.11485 0.26620 0.65151
 C3199 C 1.11845 0.28545 0.63808
 C3200 C 1.14229 0.29216 0.63709
 C3201 C 1.15060 0.31079 0.62308
 C3202 C 1.13368 0.32301 0.60925
 C3203 C 1.10896 0.31626 0.60925
 C3204 C 1.10118 0.29740 0.62429
 H3205 H 1.19202 0.28445 0.64610
 H3206 H 1.20518 0.24843 0.66703
 H3207 H 1.13006 0.22775 0.67788
 H3208 H 1.16953 0.31556 0.62257
 H3209 H 1.13992 0.33775 0.59845
 H3210 H 1.08250 0.29169 0.62456
 C3211 C 0.62447 0.74122 0.63017
 C3212 C 0.64401 0.75394 0.62201
 C3213 C 0.66738 0.74485 0.62192
 C3214 C 0.67078 0.72168 0.63072
 C3215 C 0.65102 0.70843 0.63976
 C3216 C 0.62756 0.71841 0.63959
 O3217 O 0.60361 0.75253 0.62720
 C3218 C 0.61014 0.77290 0.61702
 C3219 C 0.63470 0.77470 0.61373
 C3220 C 0.64551 0.79425 0.60306
 C3221 C 0.63038 0.81246 0.59486
 C3222 C 0.60484 0.81063 0.59689
 C3223 C 0.59465 0.79075 0.60874
 H3224 H 0.68239 0.75508 0.61500
 H3225 H 0.68879 0.71416 0.63079
 H3226 H 0.61213 0.70847 0.64604
 H3227 H 0.66489 0.79533 0.60083
 H3228 H 0.63861 0.82784 0.58650
 H3229 H 0.57530 0.78868 0.61044
 C3230 C 0.62383 0.24617 1.13650
 C3231 C 0.64231 0.25724 1.12455
 C3232 C 0.66451 0.24639 1.12045
 C3233 C 0.66783 0.22314 1.12908
 C3234 C 0.64943 0.21163 1.14246
 C3235 C 0.62720 0.22365 1.14642
 O3236 O 0.60326 0.25837 1.13597
 C3237 C 0.60897 0.27771 1.12358
 C3238 C 0.63280 0.27806 1.11667
 C3239 C 0.64268 0.29639 1.10333
 C3240 C 0.62719 0.31467 1.09604
 C3241 C 0.60199 0.31382 1.10110
 C3242 C 0.59297 0.29541 1.11589
 H3243 H 0.67851 0.25521 1.11031
 H3244 H 0.68493 0.21436 1.12572
 H3245 H 0.61240 0.21523 1.15580
 H3246 H 0.66159 0.29648 1.09846
 H3247 H 0.63484 0.32914 1.08579
 H3248 H 0.57396 0.29407 1.12009
 C3249 C 1.27173 1.11413 0.88114
 C3250 C 1.27432 1.09008 0.87676
 C3251 C 1.29441 1.08048 0.86545
 C3252 C 1.31274 1.09629 0.85858
 C3253 C 1.31080 1.12115 0.86337
 C3254 C 1.28989 1.13015 0.87478
 O3255 O 1.25095 1.11957 0.89162
 C3256 C 1.24028 1.09846 0.89400
 C3257 C 1.25393 1.07986 0.88533
 C3258 C 1.24639 1.05623 0.88619
 C3259 C 1.22365 1.05159 0.89607
 C3260 C 1.20876 1.07051 0.90450
 C3261 C 1.21747 1.09431 0.90365
 H3262 H 1.29595 1.06149 0.86207
 H3263 H 1.32865 1.08905 0.85000
 H3264 H 1.28781 1.14902 0.87858
 H3265 H 1.25760 1.04188 0.87949
 H3266 H 1.21766 1.03322 0.89709
 H3267 H 1.20659 1.10921 0.90965
 C3268 C 1.27096 0.61355 0.38357
 C3269 C 1.27360 0.58942 0.37978
 C3270 C 1.29364 0.57959 0.36854
 C3271 C 1.31187 0.59528 0.36112
 C3272 C 1.30987 0.62023 0.36530
 C3273 C 1.28903 0.62945 0.37666
 O3274 O 1.25018 0.61923 0.39393
 C3275 C 1.23954 0.59818 0.39685
 C3276 C 1.25322 0.57939 0.38864
 C3277 C 1.24564 0.55580 0.38995
 C3278 C 1.22281 0.55141 0.39972
 C3279 C 1.20785 0.57052 0.40759
 C3280 C 1.21663 0.59426 0.40643
 H3281 H 1.29519 0.56054 0.36560
 H3282 H 1.32774 0.58791 0.35257
 H3283 H 1.28689 0.64840 0.37997
 H3284 H 1.25686 0.54130 0.38357
 H3285 H 1.21672 0.53308 0.40098
 H3286 H 1.20570 0.60929 0.41201
 C3287 C 0.76990 1.11618 0.38231
 C3288 C 0.77175 1.09237 0.37642
 C3289 C 0.79082 1.08315 0.36316
 C3290 C 0.80869 1.09917 0.35558
 C3291 C 0.80740 1.12369 0.36178
 C3292 C 0.78787 1.13231 0.37555
 O3293 O 0.74952 1.12147 0.39362
 C3294 C 0.73834 1.10051 0.39499
 C3295 C 0.75131 1.08213 0.38494
 C3296 C 0.74289 1.05879 0.38406
 C3297 C 0.71998 1.05422 0.39362
 C3298 C 0.70569 1.07299 0.40333
 C3299 C 0.71532 1.09646 0.40429
 H3300 H 0.79164 1.06442 0.35840
 H3301 H 0.82357 1.09252 0.34495
 H3302 H 0.78630 1.15107 0.38006
 H3303 H 0.75352 1.04459 0.37617
 H3304 H 0.71337 1.03603 0.39328
 H3305 H 0.70493 1.11130 0.41121
 C3306 C 0.77722 0.60914 0.89057
 C3307 C 0.77835 0.58511 0.88557
 C3308 C 0.79783 0.57464 0.87392
 C3309 C 0.81699 0.58956 0.86720
 C3310 C 0.81650 0.61435 0.87254
 C3311 C 0.79630 0.62424 0.88449
 O3312 O 0.75663 0.61561 0.90087
 C3313 C 0.74457 0.59517 0.90251
 C3314 C 0.75717 0.57597 0.89357
 C3315 C 0.74798 0.55290 0.89341
 C3316 C 0.72466 0.54950 0.90249
 C3317 C 0.71079 0.56910 0.91109
 C3318 C 0.72118 0.59225 0.91137
 H3319 H 0.79817 0.55570 0.86996
 H3320 H 0.83234 0.58174 0.85813
 H3321 H 0.79530 0.64314 0.88854
 H3322 H 0.75834 0.53804 0.88647
 H3323 H 0.71741 0.53155 0.90268
 H3324 H 0.71115 0.60767 0.91753
 C3325 C 1.24520 0.86538 1.14886
 C3326 C 1.22728 0.84908 1.14381
 C3327 C 1.22863 0.82522 1.15031
 C3328 C 1.24957 0.81768 1.16203
 C3329 C 1.26848 0.83399 1.16721
 C3330 C 1.26605 0.85834 1.16102
 O3331 O 1.24106 0.88673 1.13943
 C3332 C 1.22014 0.88375 1.12816
 C3333 C 1.21099 0.86103 1.13038
 C3334 C 1.19005 0.85349 1.11900
 C3335 C 1.17801 0.87002 1.10463
 C3336 C 1.18710 0.89356 1.10175
 C3337 C 1.20835 0.90060 1.11399
 H3338 H 1.21446 0.81268 1.14575
 H3339 H 1.25138 0.79897 1.16654
 H3340 H 1.28055 0.87095 1.16415
 H3341 H 1.18336 0.83543 1.12088
 H3342 H 1.16154 0.86449 1.09576
 H3343 H 1.21582 0.91835 1.11195
 C3344 C 1.27328 0.37668 0.61048
 C3345 C 1.27858 0.40067 0.60952
 C3346 C 1.29892 0.41058 0.62024
 C3347 C 1.31439 0.39516 0.63257
 C3348 C 1.30951 0.37035 0.63359
 C3349 C 1.28882 0.36088 0.62214
 O3350 O 1.25198 0.37132 0.60088
 C3351 C 1.24372 0.39238 0.59369
 C3352 C 1.25944 0.41085 0.59841
 C3353 C 1.25404 0.43454 0.59354
 C3354 C 1.23127 0.43952 0.58388
 C3355 C 1.21427 0.42098 0.57959
 C3356 C 1.22088 0.39695 0.58407
 H3357 H 1.30239 0.42959 0.61969
 H3358 H 1.33011 0.40250 0.64147
 H3359 H 1.28445 0.34207 0.62323
 H3360 H 1.26667 0.44875 0.59756
 H3361 H 1.22663 0.45794 0.58031
 H3362 H 1.20817 0.38247 0.58145
 C3363 C 0.77484 0.87728 0.60326
 C3364 C 0.78043 0.90120 0.60201
 C3365 C 0.80061 0.91107 0.61304
 C3366 C 0.81550 0.89573 0.62614
 C3367 C 0.81016 0.87102 0.62766
 C3368 C 0.78979 0.86158 0.61567
 O3369 O 0.75353 0.87202 0.59373
 C3370 C 0.74548 0.89306 0.58633
 C3371 C 0.76137 0.91144 0.59084
 C3372 C 0.75589 0.93520 0.58631
 C3373 C 0.73289 0.94030 0.57728
 C3374 C 0.71584 0.92177 0.57320
 C3375 C 0.72250 0.89773 0.57722
 H3376 H 0.80427 0.93005 0.61234
 H3377 H 0.83095 0.90310 0.63545
 H3378 H 0.78492 0.84291 0.61724
 H3379 H 0.76857 0.94938 0.59034
 H3380 H 0.72804 0.95876 0.57417
 H3381 H 0.70966 0.88331 0.57488
 C3382 C 0.75996 0.37274 1.13195
 C3383 C 0.74587 0.35433 1.12346
 C3384 C 0.75326 0.33058 1.12372
 C3385 C 0.77611 0.32560 1.13326
 C3386 C 0.79062 0.34421 1.14267
 C3387 C 0.78242 0.36809 1.14213
 O3388 O 0.75023 0.39413 1.12860
 C3389 C 0.72946 0.38911 1.11786
 C3390 C 0.72585 0.36499 1.11459
 C3391 C 0.70550 0.35568 1.10353
 C3392 C 0.68845 0.37191 1.09489
 C3393 C 0.69225 0.39699 1.09684
 C3394 C 0.71284 0.40565 1.10910
 H3395 H 0.74200 0.31648 1.11653
 H3396 H 0.78241 0.30730 1.13365
 H3397 H 0.79344 0.38258 1.14896
 H3398 H 0.70294 0.33662 1.10140
 H3399 H 0.67243 0.36486 1.08629
 H3400 H 0.71636 0.42461 1.11081
 C3401 C 0.72745 1.12861 1.11692
 C3402 C 0.72373 1.10436 1.11791
 C3403 C 0.70373 1.09423 1.12893
 C3404 C 0.68683 1.10975 1.13933
 C3405 C 0.69009 1.13487 1.13832
 C3406 C 0.71068 1.14438 1.12677
 O3407 O 0.74834 1.13451 1.10693
 C3408 C 0.75802 1.11350 1.10146
 C3409 C 0.74359 1.09451 1.10768
 C3410 C 0.75052 1.07090 1.10441
 C3411 C 0.77349 1.06666 1.09483
 C3412 C 0.78913 1.08590 1.08900
 C3413 C 0.78099 1.10970 1.09189
 H3414 H 0.70140 1.07506 1.12980
 H3415 H 0.67117 1.10221 1.14806
 H3416 H 0.71390 1.16344 1.12606
 H3417 H 0.73886 1.05626 1.10949
 H3418 H 0.77931 1.04835 1.09242
 H3419 H 0.79262 1.12473 1.08800
 C3420 C 0.72806 0.62325 0.61390
 C3421 C 0.72475 0.59905 0.61646
 C3422 C 0.70512 0.58936 0.62847
 C3423 C 0.68828 0.60527 0.63837
 C3424 C 0.69123 0.63031 0.63590
 C3425 C 0.71131 0.63936 0.62320
 O3426 O 0.74879 0.62881 0.60341
 C3427 C 0.75877 0.60766 0.59924
 C3428 C 0.74471 0.58888 0.60676
 C3429 C 0.75216 0.56524 0.60518
 C3430 C 0.77522 0.56080 0.59591
 C3431 C 0.79044 0.57989 0.58868
 C3432 C 0.78180 0.60364 0.58994
 H3433 H 0.70313 0.57026 0.63061
 H3434 H 0.67303 0.59810 0.64807
 H3435 H 0.71434 0.65838 0.62147
 H3436 H 0.74083 0.55078 0.61134
 H3437 H 0.78143 0.54249 0.59478
 H3438 H 0.79311 0.61861 0.58502
 C3439 C 0.25741 1.14481 0.65942
 C3440 C 0.27388 1.16179 0.65243
 C3441 C 0.27060 1.18607 0.65642
 C3442 C 0.24925 1.19324 0.66774
 C3443 C 0.23180 1.17618 0.67497
 C3444 C 0.23619 1.15154 0.67116
 O3445 O 0.26325 1.12288 0.65230
 C3446 C 0.28380 1.12614 0.64052
 C3447 C 0.29105 1.14964 0.64017
 C3448 C 0.31125 1.15742 0.62777
 C3449 C 0.32443 1.14031 0.61498
 C3450 C 0.31721 1.11597 0.61466
 C3451 C 0.29678 1.10872 0.62799
 H3452 H 0.28367 1.19909 0.65039
 H3453 H 0.24609 1.21214 0.67048
 H3454 H 0.22292 1.13819 0.67594
 H3455 H 0.31644 1.17606 0.62760
 H3456 H 0.34020 1.14605 0.60514
 H3457 H 0.29070 1.09034 0.62781
 C3458 C 0.23624 0.63213 1.13837
 C3459 C 0.24956 0.65170 1.13157
 C3460 C 0.24062 0.67486 1.13237
 C3461 C 0.21690 0.67802 1.14043
 C3462 C 0.20282 0.65824 1.14782
 C3463 C 0.21273 0.63495 1.14705
 O3464 O 0.24764 0.61157 1.13455
 C3465 C 0.26859 0.61837 1.12520
 C3466 C 0.27067 0.64276 1.12322
 C3467 C 0.29062 0.65383 1.11319
 C3468 C 0.30906 0.63917 1.10438
 C3469 C 0.30714 0.61388 1.10536
 C3470 C 0.28676 0.60336 1.11644
 H3471 H 0.25135 0.68990 1.12654
 H3472 H 0.20949 0.69591 1.14097
 H3473 H 0.20217 0.61953 1.15219
 H3474 H 0.29177 0.67308 1.11183
 H3475 H 0.32470 0.64754 1.09640
 H3476 H 0.28462 0.58416 1.11722
 C3477 C 0.74634 0.85755 0.87138
 C3478 C 0.76311 0.86461 0.85477
 C3479 C 0.75980 0.86163 0.83038
 C3480 C 0.73829 0.85083 0.82276
 C3481 C 0.72093 0.84293 0.83951
 C3482 C 0.72509 0.84616 0.86420
 O3483 O 0.75232 0.86367 0.89353
 C3484 C 0.77335 0.87477 0.89081
 C3485 C 0.78079 0.87554 0.86743
 C3486 C 0.80184 0.88682 0.86025
 C3487 C 0.81551 0.89837 0.87780
 C3488 C 0.80775 0.89891 0.90196
 C3489 C 0.78667 0.88633 0.90866
 H3490 H 0.77310 0.86776 0.81768
 H3491 H 0.73525 0.84837 0.80384
 H3492 H 0.71189 0.84060 0.87728
 H3493 H 0.80733 0.88711 0.84175
 H3494 H 0.83190 0.90747 0.87247
 H3495 H 0.78024 0.88659 0.92687
 C3496 C 0.72232 0.37845 0.39511
 C3497 C 0.71759 0.40254 0.39591
 C3498 C 0.69782 0.41275 0.38457
 C3499 C 0.68218 0.39748 0.37199
 C3500 C 0.68640 0.37251 0.37126
 C3501 C 0.70675 0.36289 0.38313
 O3502 O 0.74300 0.37261 0.40559
 C3503 C 0.75148 0.39347 0.41324
 C3504 C 0.73648 0.41230 0.40795
 C3505 C 0.74227 0.43585 0.41335
 C3506 C 0.76475 0.44027 0.42395
 C3507 C 0.78109 0.42131 0.42865
 C3508 C 0.77401 0.39747 0.42383
 H3509 H 0.69474 0.43183 0.38508
 H3510 H 0.66668 0.40507 0.36303
 H3511 H 0.71067 0.34396 0.38253
 H3512 H 0.73021 0.45037 0.40892
 H3513 H 0.76986 0.45858 0.42770
 H3514 H 0.78625 0.38270 0.42672
 C3515 C 0.23868 0.86218 0.37604
 C3516 C 0.25608 0.86825 0.35967
 C3517 C 0.25299 0.86539 0.33525
 C3518 C 0.23113 0.85560 0.32731
 C3519 C 0.21316 0.84852 0.34379
 C3520 C 0.21700 0.85175 0.36854
 O3521 O 0.24470 0.86798 0.39828
 C3522 C 0.26642 0.87782 0.39585
 C3523 C 0.27423 0.87806 0.37257
 C3524 C 0.29609 0.88791 0.36565
 C3525 C 0.31019 0.89872 0.38333
 C3526 C 0.30209 0.89997 0.40733
 C3527 C 0.28019 0.88870 0.41385
 H3528 H 0.26683 0.87073 0.32274
 H3529 H 0.22838 0.85304 0.30836
 H3530 H 0.20342 0.84667 0.38142
 H3531 H 0.30184 0.88776 0.34722
 H3532 H 0.32711 0.90693 0.37817
 H3533 H 0.27351 0.88957 0.43195
 C3534 C 0.24615 0.35366 0.87189
 C3535 C 0.26601 0.35742 0.85767
 C3536 C 0.26699 0.35050 0.83392
 C3537 C 0.24656 0.33943 0.82423
 C3538 C 0.22574 0.33524 0.83830
 C3539 C 0.22561 0.34212 0.86266
 O3540 O 0.24863 0.36317 0.89357
 C3541 C 0.27050 0.37311 0.89289
 C3542 C 0.28181 0.36993 0.87130
 C3543 C 0.30422 0.37965 0.86601
 C3544 C 0.31540 0.39358 0.88358
 C3545 C 0.30410 0.39767 0.90592
 C3546 C 0.28147 0.38689 0.91086
 H3547 H 0.28273 0.35401 0.82306
 H3548 H 0.24686 0.33424 0.80561
 H3549 H 0.20977 0.33951 0.87363
 H3550 H 0.31261 0.37700 0.84879
 H3551 H 0.33278 0.40156 0.87968
 H3552 H 0.27237 0.38996 0.92766
   
