data_POSCAR
  _audit_creation_date              2014-09-24
  _audit_creation_method            'ToBaCCo'
  _symmetry_space_group_name_H-M    'P1'
  _symmetry_Int_Tables_number       1
  _symmetry_cell_setting            triclinic
  loop_
  _symmetry_equiv_pos_as_xyz
 x,y,z
_cell_length_a 41.3091
_cell_length_b 27.6393
_cell_length_c 29.0082
_cell_angle_alpha 89.925500
_cell_angle_beta 89.947400
_cell_angle_gamma 89.981200
loop_
  _atom_site_label
  _atom_site_type_symbol
  _atom_site_fract_x
  _atom_site_fract_y
  _atom_site_fract_z
C1 C 0.00134 -0.00005 0.14892
 C2 C 0.00090 0.00006 -0.15329
 C3 C -0.07419 -0.07879 0.06975
 C4 C -0.07408 0.07848 0.06981
 C5 C -0.07423 -0.07892 -0.07243
 C6 C 0.07550 -0.07481 -0.07724
 C7 C 0.07550 0.07449 -0.07719
 C8 C 0.07520 -0.07435 0.07319
 C9 C -0.07418 0.07884 -0.07225
 C10 C 0.07515 0.07407 0.07316
 O11 O -0.04450 -0.08941 -0.08257
 O12 O -0.08292 -0.04628 -0.04305
 O13 O -0.04446 0.08933 -0.08245
 O14 O -0.08288 0.04611 -0.04294
 O15 O 0.04544 0.08460 0.08309
 O16 O 0.08390 0.04391 0.04147
 O17 O 0.00064 0.04113 -0.13219
 O18 O 0.00067 -0.04110 -0.13222
 O19 O 0.00101 0.04115 0.12808
 O20 O 0.00098 -0.04132 0.12826
 O21 O 0.04565 -0.08514 -0.08691
 O22 O 0.08399 -0.04439 -0.04559
 O23 O -0.04443 -0.08911 0.07983
 O24 O -0.08292 -0.04637 0.04008
 O25 O 0.04551 -0.08491 0.08321
 O26 O 0.08392 -0.04426 0.04140
 O27 O 0.04566 0.08487 -0.08692
 O28 O 0.08397 0.04400 -0.04554
 O29 O 0.00220 0.13560 0.06637
 O30 O 0.00169 0.13535 -0.07241
 O31 O 0.00172 -0.13558 -0.07223
 O32 O 0.00219 -0.13592 0.06703
 O33 O -0.02748 -0.06393 -0.00185
 O34 O -0.02750 0.06361 -0.00194
 O35 O 0.02815 -0.06352 -0.00199
 O36 O -0.02889 -0.00017 0.05950
 O37 O -0.08286 0.04611 0.04018
 O38 O -0.04431 0.08876 0.07974
 O39 O 0.03014 -0.00020 0.05952
 O40 O 0.03020 -0.00014 -0.06385
 O41 O 0.02819 0.06318 -0.00209
 O42 O -0.02899 -0.00010 -0.06315
 Zr43 Zr 0.00054 0.05985 0.05777
 Zr44 Zr 0.00052 -0.06008 -0.06184
 Zr45 Zr -0.05496 -0.00015 -0.00163
 Zr46 Zr 0.00052 -0.06021 0.05794
 Zr47 Zr 0.00053 0.05984 -0.06186
 Zr48 Zr 0.05596 -0.00019 -0.00214
 H49 H 0.04132 -0.09345 -0.00196
 H50 H -0.04325 -0.00018 0.08681
 H51 H 0.04137 0.09309 -0.00208
 H52 H -0.04344 -0.00005 -0.09033
 H53 H -0.00635 0.14936 0.03733
 H54 H 0.00356 0.14971 -0.04133
 H55 H -0.00602 -0.14980 0.03788
 H56 H 0.00267 -0.14997 -0.04104
 C57 C 0.25076 0.24964 0.09802
 C58 C 0.25053 0.24960 0.40021
 C59 C 0.17520 0.32874 0.17815
 C60 C 0.17537 0.17078 0.17818
 C61 C 0.17503 0.32846 0.32058
 C62 C 0.32436 0.32503 0.32369
 C63 C 0.32435 0.17454 0.32380
 C64 C 0.32449 0.32511 0.17531
 C65 C 0.17501 0.17114 0.32029
 C66 C 0.32475 0.17427 0.17539
 O67 O 0.20477 0.33867 0.33066
 O68 O 0.16626 0.29610 0.29091
 O69 O 0.20473 0.16082 0.33050
 O70 O 0.16627 0.20358 0.29069
 O71 O 0.29505 0.16397 0.16520
 O72 O 0.33337 0.20521 0.20642
 O73 O 0.25013 0.20842 0.37947
 O74 O 0.25018 0.29084 0.37944
 O75 O 0.25047 0.20856 0.11917
 O76 O 0.25037 0.29077 0.11901
 O77 O 0.29463 0.33532 0.33380
 O78 O 0.33311 0.29425 0.29256
 O79 O 0.20496 0.33913 0.16823
 O80 O 0.16637 0.29608 0.20752
 O81 O 0.29481 0.33543 0.16507
 O82 O 0.33319 0.29424 0.20637
 O83 O 0.29464 0.16418 0.33392
 O84 O 0.33310 0.20531 0.29264
 O85 O 0.25098 0.11428 0.17909
 O86 O 0.25107 0.11410 0.31870
 O87 O 0.25105 0.38537 0.31840
 O88 O 0.25083 0.38514 0.17863
 O89 O 0.22173 0.31353 0.24918
 O90 O 0.22178 0.18606 0.24926
 O91 O 0.27729 0.31299 0.24926
 O92 O 0.22036 0.24971 0.18783
 O93 O 0.16648 0.20346 0.20745
 O94 O 0.20514 0.16034 0.16841
 O95 O 0.27961 0.24975 0.18747
 O96 O 0.27939 0.24973 0.31109
 O97 O 0.27737 0.18643 0.24940
 O98 O 0.22021 0.24974 0.31053
 Zr99 Zr 0.24994 0.18979 0.18948
 Zr100 Zr 0.24968 0.30970 0.30909
 Zr101 Zr 0.19423 0.24981 0.24917
 Zr102 Zr 0.24981 0.30965 0.18933
 Zr103 Zr 0.24969 0.18976 0.30916
 Zr104 Zr 0.30521 0.24973 0.24938
 H105 H 0.29030 0.34305 0.24931
 H106 H 0.20602 0.24974 0.16053
 H107 H 0.29042 0.15639 0.24951
 H108 H 0.20583 0.24972 0.33783
 H109 H 0.25133 0.09987 0.21029
 H110 H 0.24366 0.10007 0.28920
 H111 H 0.25101 0.39961 0.20978
 H112 H 0.24366 0.39938 0.28883
 C113 C 0.49938 -0.00138 0.15066
 C114 C 0.49914 -0.00122 -0.15030
 C115 C 0.57546 0.07640 0.07184
 C116 C 0.57571 -0.07954 0.07251
 C117 C 0.57570 0.07638 -0.07273
 C118 C 0.42593 0.07382 -0.07396
 C119 C 0.42593 -0.07663 -0.07396
 C120 C 0.42600 0.07406 0.07447
 C121 C 0.57565 -0.07929 -0.07269
 C122 C 0.42559 -0.07727 0.07502
 O123 O 0.54578 0.08667 -0.08230
 O124 O 0.58427 0.04443 -0.04232
 O125 O 0.54575 -0.08960 -0.08224
 O126 O 0.58422 -0.04754 -0.04222
 O127 O 0.45549 -0.08753 0.08478
 O128 O 0.41717 -0.04617 0.04381
 O129 O 0.49966 -0.04253 -0.12967
 O130 O 0.49970 0.03994 -0.12962
 O131 O 0.49983 -0.04266 0.13015
 O132 O 0.49992 0.03976 0.12988
 O133 O 0.45566 0.08417 -0.08420
 O134 O 0.41727 0.04296 -0.04277
 O135 O 0.54570 0.08707 0.08156
 O136 O 0.58426 0.04430 0.04194
 O137 O 0.45575 0.08447 0.08437
 O138 O 0.41728 0.04299 0.04364
 O139 O 0.45566 -0.08704 -0.08416
 O140 O 0.41727 -0.04594 -0.04272
 O141 O 0.50015 -0.13727 0.07024
 O142 O 0.49956 -0.13732 -0.06832
 O143 O 0.49953 0.13438 -0.06818
 O144 O 0.50020 0.13407 0.06976
 O145 O 0.52895 0.06230 0.00005
 O146 O 0.52888 -0.06547 0.00021
 O147 O 0.47307 0.06174 0.00020
 O148 O 0.53012 -0.00163 0.06124
 O149 O 0.58424 -0.04755 0.04215
 O150 O 0.54581 -0.09008 0.08205
 O151 O 0.47105 -0.00158 0.06205
 O152 O 0.47105 -0.00149 -0.06121
 O153 O 0.47308 -0.06493 0.00035
 O154 O 0.53007 -0.00152 -0.06104
 Zr155 Zr 0.50070 -0.06169 0.06006
 Zr156 Zr 0.50073 0.05858 -0.05953
 Zr157 Zr 0.55636 -0.00162 -0.00002
 Zr158 Zr 0.50075 0.05847 0.05979
 Zr159 Zr 0.50072 -0.06158 -0.05949
 Zr160 Zr 0.44521 -0.00160 0.00047
 H161 H 0.46002 0.09178 0.00014
 H162 H 0.54436 -0.00159 0.08863
 H163 H 0.46000 -0.09493 0.00036
 H164 H 0.54425 -0.00148 -0.08853
 H165 H 0.49805 -0.15147 0.03913
 H166 H 0.50852 -0.15103 -0.03951
 H167 H 0.49755 0.14827 0.03869
 H168 H 0.50889 0.14794 -0.03961
 C169 C 0.75160 0.24906 0.10008
 C170 C 0.75133 0.24900 0.40101
 C171 C 0.67563 0.32710 0.17842
 C172 C 0.67592 0.17076 0.17862
 C173 C 0.67556 0.32678 0.32251
 C174 C 0.82492 0.32357 0.32566
 C175 C 0.82544 0.17459 0.32602
 C176 C 0.82500 0.32377 0.17537
 C177 C 0.67579 0.17117 0.32246
 C178 C 0.82528 0.17466 0.17534
 O179 O 0.70530 0.33724 0.33250
 O180 O 0.66686 0.29489 0.29237
 O181 O 0.70553 0.16070 0.33253
 O182 O 0.66704 0.20302 0.29228
 O183 O 0.79556 0.16397 0.16566
 O184 O 0.83401 0.20502 0.20684
 O185 O 0.75104 0.20776 0.38039
 O186 O 0.75088 0.29024 0.38029
 O187 O 0.75123 0.20785 0.12077
 O188 O 0.75110 0.29027 0.12068
 O189 O 0.79518 0.33403 0.33551
 O190 O 0.83376 0.29334 0.29409
 O191 O 0.70540 0.33780 0.16874
 O192 O 0.66688 0.29489 0.20832
 O193 O 0.79527 0.33433 0.16563
 O194 O 0.83383 0.29338 0.20684
 O195 O 0.79558 0.16422 0.33573
 O196 O 0.83395 0.20493 0.29418
 O197 O 0.75145 0.11336 0.18112
 O198 O 0.75210 0.11318 0.31892
 O199 O 0.75174 0.38487 0.31852
 O200 O 0.75110 0.38473 0.18080
 O201 O 0.72215 0.31294 0.25042
 O202 O 0.72236 0.18517 0.25056
 O203 O 0.77808 0.31241 0.25043
 O204 O 0.72107 0.24898 0.18925
 O205 O 0.66707 0.20296 0.20840
 O206 O 0.70571 0.16012 0.16902
 O207 O 0.78007 0.24912 0.18897
 O208 O 0.78002 0.24909 0.31198
 O209 O 0.77829 0.18565 0.25057
 O210 O 0.72105 0.24895 0.31149
 Zr211 Zr 0.75055 0.18897 0.19089
 Zr212 Zr 0.75030 0.30907 0.31009
 Zr213 Zr 0.69484 0.24901 0.25037
 Zr214 Zr 0.75035 0.30912 0.19076
 Zr215 Zr 0.75053 0.18896 0.31023
 Zr216 Zr 0.80599 0.24908 0.25049
 H217 H 0.79119 0.34237 0.25049
 H218 H 0.70680 0.24898 0.16189
 H219 H 0.79150 0.15576 0.25069
 H220 H 0.70677 0.24894 0.33887
 H221 H 0.75425 0.09927 0.21220
 H222 H 0.74271 0.09950 0.29041
 H223 H 0.75390 0.39883 0.21184
 H224 H 0.74225 0.39849 0.29002
 C225 C 0.00049 0.50035 0.15020
 C226 C 0.00024 0.50031 -0.15198
 C227 C -0.07479 0.42124 0.07063
 C228 C -0.07495 0.57928 0.07039
 C229 C -0.07505 0.42151 -0.07152
 C230 C 0.07430 0.42608 -0.07563
 C231 C 0.07422 0.57473 -0.07588
 C232 C 0.07446 0.42594 0.07428
 C233 C -0.07507 0.57906 -0.07163
 C234 C 0.07444 0.57513 0.07419
 O235 O -0.04530 0.41133 -0.08176
 O236 O -0.08381 0.45396 -0.04194
 O237 O -0.04535 0.58932 -0.08188
 O238 O -0.08383 0.54658 -0.04203
 O239 O 0.04470 0.58569 0.08406
 O240 O 0.08315 0.54470 0.04272
 O241 O -0.00011 0.54145 -0.13095
 O242 O -0.00005 0.45918 -0.13083
 O243 O 0.00008 0.54157 0.12943
 O244 O 0.00012 0.45916 0.12950
 O245 O 0.04461 0.41559 -0.08563
 O246 O 0.08302 0.45632 -0.04408
 O247 O -0.04503 0.41087 0.08042
 O248 O -0.08368 0.45394 0.04132
 O249 O 0.04476 0.41530 0.08419
 O250 O 0.08316 0.45636 0.04276
 O251 O 0.04451 0.58517 -0.08590
 O252 O 0.08298 0.54459 -0.04419
 O253 O 0.00081 0.63594 0.06930
 O254 O 0.00118 0.63595 -0.07005
 O255 O 0.00134 0.36473 -0.06953
 O256 O 0.00101 0.36488 0.06960
 O257 O -0.02834 0.43658 -0.00049
 O258 O -0.02840 0.56406 -0.00065
 O259 O 0.02733 0.43710 -0.00064
 O260 O -0.02978 0.50037 0.06079
 O261 O -0.08376 0.54656 0.04117
 O262 O -0.04520 0.58977 0.08019
 O263 O 0.02936 0.50044 0.06109
 O264 O 0.02927 0.50038 -0.06229
 O265 O 0.02725 0.56379 -0.00078
 O266 O -0.02989 0.50033 -0.06187
 Zr267 Zr -0.00032 0.56040 0.05913
 Zr268 Zr -0.00038 0.44042 -0.06041
 Zr269 Zr -0.05589 0.50029 -0.00047
 Zr270 Zr -0.00025 0.44041 0.05924
 Zr271 Zr -0.00043 0.56028 -0.06057
 Zr272 Zr 0.05510 0.50048 -0.00063
 H273 H 0.04048 0.40716 -0.00066
 H274 H -0.04417 0.50034 0.08807
 H275 H 0.04037 0.59375 -0.00090
 H276 H -0.04428 0.50031 -0.08912
 H277 H 0.00120 0.65025 0.03805
 H278 H -0.00664 0.65001 -0.04075
 H279 H 0.00177 0.35057 0.03840
 H280 H -0.00674 0.35073 -0.04031
 C281 C 0.25130 0.75082 0.09915
 C282 C 0.25088 0.75116 0.40014
 C283 C 0.17580 0.83003 0.17831
 C284 C 0.17533 0.67229 0.17837
 C285 C 0.17530 0.82982 0.32057
 C286 C 0.32462 0.82608 0.32391
 C287 C 0.32454 0.67546 0.32414
 C288 C 0.32546 0.82609 0.17520
 C289 C 0.17521 0.67242 0.32104
 C290 C 0.32470 0.67518 0.17573
 O291 O 0.20505 0.84004 0.33069
 O292 O 0.16655 0.79740 0.29100
 O293 O 0.20496 0.66220 0.33118
 O294 O 0.16647 0.70481 0.29129
 O295 O 0.29498 0.66491 0.16568
 O296 O 0.33347 0.70612 0.20663
 O297 O 0.25047 0.70993 0.37955
 O298 O 0.25052 0.79236 0.37938
 O299 O 0.25075 0.70965 0.11988
 O300 O 0.25102 0.79205 0.11968
 O301 O 0.29491 0.83648 0.33394
 O302 O 0.33342 0.79526 0.29286
 O303 O 0.20558 0.84042 0.16848
 O304 O 0.16687 0.79745 0.20770
 O305 O 0.29571 0.83662 0.16513
 O306 O 0.33395 0.79511 0.20639
 O307 O 0.29480 0.66528 0.33426
 O308 O 0.33337 0.70622 0.29298
 O309 O 0.25085 0.61538 0.17972
 O310 O 0.25124 0.61535 0.31899
 O311 O 0.25139 0.88673 0.31823
 O312 O 0.25147 0.88650 0.17906
 O313 O 0.22211 0.81476 0.24932
 O314 O 0.22186 0.68718 0.24969
 O315 O 0.27785 0.81427 0.24951
 O316 O 0.22075 0.75109 0.18828
 O317 O 0.16654 0.70495 0.20772
 O318 O 0.20511 0.66176 0.16861
 O319 O 0.27992 0.75079 0.18786
 O320 O 0.27965 0.75095 0.31122
 O321 O 0.27760 0.68762 0.24976
 O322 O 0.22050 0.75109 0.31076
 Zr323 Zr 0.25003 0.69092 0.19000
 Zr324 Zr 0.25000 0.81103 0.30914
 Zr325 Zr 0.19448 0.75105 0.24948
 Zr326 Zr 0.25043 0.81100 0.18969
 Zr327 Zr 0.24990 0.69102 0.30944
 Zr328 Zr 0.30560 0.75084 0.24961
 H329 H 0.29095 0.84424 0.24949
 H330 H 0.20642 0.75109 0.16097
 H331 H 0.29057 0.65751 0.24990
 H332 H 0.20611 0.75114 0.33804
 H333 H 0.25167 0.60102 0.21093
 H334 H 0.24344 0.60133 0.28968
 H335 H 0.25281 0.90092 0.21017
 H336 H 0.24357 0.90065 0.28884
 C337 C 0.49858 0.50025 0.15058
 C338 C 0.49862 0.49959 -0.15038
 C339 C 0.57462 0.57785 0.07198
 C340 C 0.57472 0.42186 0.07212
 C341 C 0.57453 0.57796 -0.07172
 C342 C 0.42518 0.57548 -0.07416
 C343 C 0.42525 0.42451 -0.07395
 C344 C 0.42534 0.57538 0.07433
 C345 C 0.57450 0.42195 -0.07164
 C346 C 0.42532 0.42471 0.07432
 O347 O 0.54479 0.58864 -0.08145
 O348 O 0.58334 0.54578 -0.04189
 O349 O 0.54478 0.41151 -0.08156
 O350 O 0.58331 0.45391 -0.04169
 O351 O 0.45501 0.41428 0.08441
 O352 O 0.41658 0.45563 0.04332
 O353 O 0.49910 0.45841 -0.12962
 O354 O 0.49910 0.54083 -0.12980
 O355 O 0.49908 0.45903 0.13000
 O356 O 0.49907 0.54146 0.12987
 O357 O 0.45491 0.58585 -0.08422
 O358 O 0.41646 0.54454 -0.04311
 O359 O 0.54488 0.58836 0.08190
 O360 O 0.58340 0.54588 0.04196
 O361 O 0.45505 0.58570 0.08440
 O362 O 0.41659 0.54456 0.04329
 O363 O 0.45497 0.41415 -0.08405
 O364 O 0.41652 0.45546 -0.04297
 O365 O 0.49935 0.36444 0.07041
 O366 O 0.49864 0.36412 -0.06821
 O367 O 0.49924 0.63545 -0.07027
 O368 O 0.49875 0.63583 0.06840
 O369 O 0.52807 0.56379 -0.00006
 O370 O 0.52809 0.43605 0.00023
 O371 O 0.47230 0.56335 0.00001
 O372 O 0.52934 0.50000 0.06134
 O373 O 0.58347 0.45404 0.04219
 O374 O 0.54494 0.41122 0.08186
 O375 O 0.47030 0.50004 0.06172
 O376 O 0.47023 0.49992 -0.06158
 O377 O 0.47231 0.43668 0.00029
 O378 O 0.52929 0.49989 -0.06104
 Zr379 Zr 0.50000 0.43999 0.05995
 Zr380 Zr 0.49989 0.55992 -0.05973
 Zr381 Zr 0.55549 0.49991 0.00015
 Zr382 Zr 0.49996 0.56007 0.05968
 Zr383 Zr 0.49990 0.43987 -0.05942
 Zr384 Zr 0.44447 0.50004 0.00009
 H385 H 0.45927 0.59340 0.00001
 H386 H 0.54358 0.49994 0.08873
 H387 H 0.45928 0.40664 0.00028
 H388 H 0.54354 0.49992 -0.08846
 H389 H 0.49719 0.35011 0.03936
 H390 H 0.50723 0.35037 -0.03919
 H391 H 0.50738 0.64952 0.03937
 H392 H 0.49732 0.64983 -0.03920
 C393 C 0.75096 0.75058 0.09924
 C394 C 0.75074 0.75100 0.40017
 C395 C 0.67489 0.82858 0.17729
 C396 C 0.67515 0.67244 0.17810
 C397 C 0.67506 0.82869 0.32153
 C398 C 0.82433 0.82516 0.32466
 C399 C 0.82442 0.67637 0.32505
 C400 C 0.82454 0.82519 0.17439
 C401 C 0.67506 0.67293 0.32197
 C402 C 0.82445 0.67617 0.17474
 O403 O 0.70479 0.83915 0.33147
 O404 O 0.66628 0.79680 0.29146
 O405 O 0.70481 0.66253 0.33194
 O406 O 0.66628 0.70482 0.29178
 O407 O 0.79474 0.66550 0.16504
 O408 O 0.83321 0.70658 0.20614
 O409 O 0.75036 0.70973 0.37960
 O410 O 0.75031 0.79221 0.37938
 O411 O 0.75048 0.70940 0.11999
 O412 O 0.75050 0.79183 0.11976
 O413 O 0.79460 0.83574 0.33453
 O414 O 0.83311 0.79491 0.29310
 O415 O 0.70468 0.83932 0.16760
 O416 O 0.66617 0.79650 0.20735
 O417 O 0.79480 0.83586 0.16457
 O418 O 0.83323 0.79483 0.20597
 O419 O 0.79468 0.66588 0.33498
 O420 O 0.83317 0.70659 0.29334
 O421 O 0.75063 0.61504 0.18035
 O422 O 0.75124 0.61500 0.31819
 O423 O 0.75120 0.88669 0.31744
 O424 O 0.75041 0.88644 0.17976
 O425 O 0.72152 0.81466 0.24947
 O426 O 0.72158 0.68690 0.24983
 O427 O 0.77745 0.81415 0.24945
 O428 O 0.72037 0.75070 0.18845
 O429 O 0.66631 0.70468 0.20782
 O430 O 0.70491 0.66179 0.16842
 O431 O 0.77935 0.75073 0.18808
 O432 O 0.77932 0.75084 0.31111
 O433 O 0.77749 0.68736 0.24981
 O434 O 0.72035 0.75083 0.31069
 Zr435 Zr 0.74977 0.69065 0.19015
 Zr436 Zr 0.74970 0.81088 0.30913
 Zr437 Zr 0.69413 0.75077 0.24960
 Zr438 Zr 0.74971 0.81083 0.18977
 Zr439 Zr 0.74974 0.69078 0.30947
 Zr440 Zr 0.80525 0.75075 0.24961
 H441 H 0.79061 0.84407 0.24947
 H442 H 0.70611 0.75060 0.16108
 H443 H 0.79066 0.65743 0.24994
 H444 H 0.70609 0.75086 0.33809
 H445 H 0.75336 0.60093 0.21144
 H446 H 0.74189 0.60132 0.28966
 H447 H 0.75364 0.90055 0.21071
 H448 H 0.74179 0.90028 0.28887
 C449 C 0.00042 0.00069 0.34870
 C450 C 0.00009 0.00068 0.65060
 C451 C -0.07537 0.07969 0.42821
 C452 C -0.07509 -0.07819 0.42876
 C453 C -0.07529 0.07947 0.57064
 C454 C 0.07404 0.07510 0.57482
 C455 C 0.07405 -0.07349 0.57484
 C456 C 0.07408 0.07525 0.42457
 C457 C -0.07527 -0.07788 0.57068
 C458 C 0.07428 -0.07357 0.42472
 O459 O -0.04557 0.08971 0.58085
 O460 O -0.08403 0.04712 0.54102
 O461 O -0.04555 -0.08812 0.58092
 O462 O -0.08403 -0.04542 0.54108
 O463 O 0.04458 -0.08422 0.41486
 O464 O 0.08293 -0.04320 0.45622
 O465 O -0.00029 -0.04051 0.62983
 O466 O -0.00030 0.04193 0.62981
 O467 O -0.00001 -0.04047 0.36955
 O468 O -0.00006 0.04194 0.36934
 O469 O 0.04431 0.08566 0.58474
 O470 O 0.08277 0.04495 0.54314
 O471 O -0.04560 0.09014 0.41828
 O472 O -0.08411 0.04706 0.45770
 O473 O 0.04439 0.08589 0.41464
 O474 O 0.08279 0.04497 0.45617
 O475 O 0.04434 -0.08402 0.58482
 O476 O 0.08278 -0.04326 0.54316
 O477 O 0.00068 -0.13471 0.42970
 O478 O 0.00104 -0.13487 0.56861
 O479 O 0.00101 0.13650 0.56849
 O480 O 0.00045 0.13640 0.42930
 O481 O -0.02866 0.06464 0.49951
 O482 O -0.02860 -0.06288 0.49964
 O483 O 0.02699 0.06421 0.49952
 O484 O -0.03004 0.00081 0.43815
 O485 O -0.08393 -0.04546 0.45798
 O486 O -0.04533 -0.08863 0.41889
 O487 O 0.02907 0.00088 0.43793
 O488 O 0.02899 0.00083 0.56126
 O489 O 0.02710 -0.06253 0.49970
 O490 O -0.03011 0.00083 0.56081
 Zr491 Zr -0.00049 -0.05916 0.43986
 Zr492 Zr -0.00065 0.06081 0.55939
 Zr493 Zr -0.05612 0.00088 0.49947
 Zr494 Zr -0.00065 0.06086 0.43963
 Zr495 Zr -0.00062 -0.05916 0.55948
 Zr496 Zr 0.05483 0.00086 0.49963
 H497 H 0.04013 0.09414 0.49958
 H498 H -0.04441 0.00077 0.41088
 H499 H 0.04028 -0.09245 0.49979
 H500 H -0.04450 0.00080 0.58809
 H501 H 0.00211 -0.14899 0.46090
 H502 H -0.00720 -0.14879 0.53949
 H503 H 0.00129 0.15068 0.46050
 H504 H -0.00712 0.15048 0.53930
 C505 C 0.25050 0.24913 0.90205
 C506 C 0.25059 0.24918 0.60012
 C507 C 0.17485 0.17016 0.82202
 C508 C 0.17506 0.32822 0.82162
 C509 C 0.17491 0.17062 0.67977
 C510 C 0.32424 0.17388 0.67665
 C511 C 0.32432 0.32441 0.67654
 C512 C 0.32446 0.17348 0.82510
 C513 C 0.17502 0.32800 0.67987
 C514 C 0.32438 0.32448 0.82502
 O515 O 0.20466 0.16029 0.66967
 O516 O 0.16616 0.20299 0.70942
 O517 O 0.20477 0.33821 0.66972
 O518 O 0.16622 0.29549 0.70944
 O519 O 0.29467 0.33482 0.83515
 O520 O 0.33309 0.29354 0.79403
 O521 O 0.25021 0.29037 0.62085
 O522 O 0.25018 0.20794 0.62090
 O523 O 0.25010 0.29030 0.88119
 O524 O 0.25012 0.20791 0.88138
 O525 O 0.29454 0.16357 0.66655
 O526 O 0.33297 0.20459 0.70779
 O527 O 0.20460 0.15972 0.83205
 O528 O 0.16614 0.20288 0.79265
 O529 O 0.29473 0.16316 0.83533
 O530 O 0.33312 0.20444 0.79404
 O531 O 0.29460 0.33470 0.66641
 O532 O 0.33304 0.29360 0.70771
 O533 O 0.25068 0.38448 0.82136
 O534 O 0.25107 0.38476 0.68167
 O535 O 0.25097 0.11345 0.68198
 O536 O 0.25057 0.11354 0.82168
 O537 O 0.22160 0.18532 0.75117
 O538 O 0.22164 0.31281 0.75102
 O539 O 0.27715 0.18579 0.75111
 O540 O 0.22012 0.24906 0.81247
 O541 O 0.16625 0.29545 0.79248
 O542 O 0.20479 0.33857 0.83159
 O543 O 0.27937 0.24900 0.81289
 O544 O 0.27933 0.24907 0.68930
 O545 O 0.27722 0.31235 0.75096
 O546 O 0.22016 0.24915 0.68973
 Zr547 Zr 0.24966 0.30899 0.81085
 Zr548 Zr 0.24959 0.18913 0.69126
 Zr549 Zr 0.19411 0.24910 0.75106
 Zr550 Zr 0.24961 0.18905 0.81106
 Zr551 Zr 0.24965 0.30909 0.69115
 Zr552 Zr 0.30508 0.24905 0.75102
 H553 H 0.29019 0.15574 0.75104
 H554 H 0.20571 0.24911 0.83974
 H555 H 0.29026 0.34239 0.75087
 H556 H 0.20581 0.24921 0.66244
 H557 H 0.25115 0.39895 0.79018
 H558 H 0.24370 0.39877 0.71123
 H559 H 0.25108 0.09913 0.79052
 H560 H 0.24341 0.09947 0.71149
 C561 C 0.49870 -0.00026 0.34960
 C562 C 0.49835 0.00003 0.65058
 C563 C 0.57444 -0.07770 0.42821
 C564 C 0.57458 0.07805 0.42849
 C565 C 0.57418 -0.07805 0.57176
 C566 C 0.42495 -0.07502 0.57404
 C567 C 0.42505 0.07545 0.57429
 C568 C 0.42521 -0.07492 0.42570
 C569 C 0.57429 0.07781 0.57213
 C570 C 0.42520 0.07570 0.42575
 O571 O 0.54445 -0.08877 0.58146
 O572 O 0.58301 -0.04584 0.54198
 O573 O 0.54456 0.08839 0.58202
 O574 O 0.58307 0.04589 0.54208
 O575 O 0.45492 0.08609 0.41570
 O576 O 0.41643 0.04481 0.45679
 O577 O 0.49880 0.04131 0.62995
 O578 O 0.49879 -0.04112 0.62986
 O579 O 0.49913 0.04102 0.37014
 O580 O 0.49911 -0.04142 0.37037
 O581 O 0.45462 -0.08553 0.58416
 O582 O 0.41628 -0.04408 0.54302
 O583 O 0.54472 -0.08820 0.41826
 O584 O 0.58317 -0.04579 0.45827
 O585 O 0.45492 -0.08536 0.41566
 O586 O 0.41645 -0.04408 0.45674
 O587 O 0.45474 0.08577 0.58443
 O588 O 0.41635 0.04475 0.54312
 O589 O 0.49921 0.13572 0.42965
 O590 O 0.49845 0.13589 0.56875
 O591 O 0.49885 -0.13543 0.57015
 O592 O 0.49851 -0.13567 0.43183
 O593 O 0.52786 -0.06378 0.50017
 O594 O 0.52787 0.06402 0.50003
 O595 O 0.47206 -0.06311 0.50007
 O596 O 0.52918 0.00013 0.43890
 O597 O 0.58325 0.04589 0.45839
 O598 O 0.54487 0.08882 0.41861
 O599 O 0.47018 0.00021 0.43835
 O600 O 0.46999 0.00020 0.56167
 O601 O 0.47218 0.06359 0.49995
 O602 O 0.52901 0.00008 0.56130
 Zr603 Zr 0.49986 0.06020 0.44023
 Zr604 Zr 0.49962 -0.05988 0.55977
 Zr605 Zr 0.55520 0.00010 0.50013
 Zr606 Zr 0.49980 -0.05990 0.44049
 Zr607 Zr 0.49968 0.06017 0.55974
 Zr608 Zr 0.44432 0.00032 0.49995
 H609 H 0.45900 -0.09312 0.50000
 H610 H 0.54348 0.00018 0.41154
 H611 H 0.45915 0.09365 0.49998
 H612 H 0.54324 -0.00005 0.58870
 H613 H 0.49778 0.15011 0.46077
 H614 H 0.50683 0.14971 0.53962
 H615 H 0.50737 -0.14936 0.46071
 H616 H 0.49659 -0.14973 0.53910
 C617 C 0.75074 0.24901 0.90115
 C618 C 0.75041 0.24903 0.60022
 C619 C 0.67464 0.17062 0.82322
 C620 C 0.67478 0.32716 0.82242
 C621 C 0.67472 0.17110 0.67896
 C622 C 0.82393 0.17508 0.67532
 C623 C 0.82388 0.32385 0.67532
 C624 C 0.82423 0.17491 0.82526
 C625 C 0.67456 0.32683 0.67885
 C626 C 0.82406 0.32389 0.82529
 O627 O 0.70446 0.16074 0.66890
 O628 O 0.66591 0.20288 0.70914
 O629 O 0.70428 0.33733 0.66882
 O630 O 0.66580 0.29483 0.70898
 O631 O 0.79433 0.33443 0.83521
 O632 O 0.83277 0.29347 0.79385
 O633 O 0.74992 0.29027 0.62082
 O634 O 0.74995 0.20780 0.62095
 O635 O 0.75017 0.29021 0.88044
 O636 O 0.75024 0.20778 0.88059
 O637 O 0.79424 0.16433 0.66558
 O638 O 0.83266 0.20534 0.70685
 O639 O 0.70447 0.16008 0.83282
 O640 O 0.66584 0.20282 0.79330
 O641 O 0.79456 0.16409 0.83532
 O642 O 0.83283 0.20532 0.79374
 O643 O 0.79414 0.33430 0.66542
 O644 O 0.83264 0.29355 0.70690
 O645 O 0.75010 0.38465 0.82039
 O646 O 0.75052 0.38493 0.68220
 O647 O 0.75093 0.11325 0.68274
 O648 O 0.75031 0.11331 0.82050
 O649 O 0.72120 0.18504 0.75093
 O650 O 0.72112 0.31276 0.75075
 O651 O 0.77709 0.18580 0.75072
 O652 O 0.71998 0.24897 0.81208
 O653 O 0.66593 0.29486 0.79283
 O654 O 0.70451 0.33787 0.83201
 O655 O 0.77898 0.24907 0.81218
 O656 O 0.77886 0.24917 0.68910
 O657 O 0.77698 0.31264 0.75053
 O658 O 0.71991 0.24902 0.68979
 Zr659 Zr 0.74936 0.30907 0.81032
 Zr660 Zr 0.74933 0.18904 0.69116
 Zr661 Zr 0.69373 0.24884 0.75100
 Zr662 Zr 0.74939 0.18893 0.81053
 Zr663 Zr 0.74923 0.30915 0.69097
 Zr664 Zr 0.80476 0.24932 0.75050
 H665 H 0.79030 0.15592 0.75058
 H666 H 0.70573 0.24896 0.83950
 H667 H 0.79009 0.34261 0.75039
 H668 H 0.70565 0.24900 0.66242
 H669 H 0.75247 0.39889 0.78929
 H670 H 0.74148 0.39858 0.71097
 H671 H 0.75336 0.09923 0.78949
 H672 H 0.74155 0.09959 0.71133
 C673 C 0.00061 0.50016 0.34988
 C674 C 0.00031 0.50015 0.65178
 C675 C -0.07487 0.57913 0.42948
 C676 C -0.07474 0.42102 0.42981
 C677 C -0.07502 0.57893 0.57155
 C678 C 0.07432 0.57457 0.57570
 C679 C 0.07438 0.42562 0.57595
 C680 C 0.07452 0.57485 0.42557
 C681 C -0.07505 0.42136 0.57186
 C682 C 0.07453 0.42550 0.42563
 O683 O -0.04529 0.58911 0.58179
 O684 O -0.08376 0.54645 0.54204
 O685 O -0.04531 0.41116 0.58212
 O686 O -0.08378 0.45383 0.54223
 O687 O 0.04480 0.41494 0.41589
 O688 O 0.08328 0.45588 0.45709
 O689 O -0.00002 0.45892 0.63105
 O690 O -0.00004 0.54136 0.63091
 O691 O 0.00023 0.45895 0.37067
 O692 O 0.00023 0.54135 0.37057
 O693 O 0.04460 0.58500 0.58568
 O694 O 0.08312 0.54432 0.54413
 O695 O -0.04509 0.58956 0.41963
 O696 O -0.08368 0.54641 0.45883
 O697 O 0.04479 0.58539 0.41575
 O698 O 0.08326 0.54439 0.45707
 O699 O 0.04465 0.41521 0.58596
 O700 O 0.08315 0.45585 0.54427
 O701 O 0.00104 0.36460 0.43085
 O702 O 0.00134 0.36444 0.56988
 O703 O 0.00132 0.63576 0.56955
 O704 O 0.00090 0.63569 0.43055
 O705 O -0.02831 0.56386 0.50061
 O706 O -0.02827 0.43638 0.50079
 O707 O 0.02739 0.56342 0.50065
 O708 O -0.02969 0.50013 0.43932
 O709 O -0.08361 0.45375 0.45902
 O710 O -0.04497 0.41063 0.41997
 O711 O 0.02947 0.50014 0.43899
 O712 O 0.02935 0.50010 0.56231
 O713 O 0.02742 0.43678 0.50083
 O714 O -0.02982 0.50011 0.56196
 Zr715 Zr -0.00017 0.44014 0.44098
 Zr716 Zr -0.00033 0.56006 0.56047
 Zr717 Zr -0.05582 0.50012 0.50060
 Zr718 Zr -0.00021 0.56014 0.44082
 Zr719 Zr -0.00032 0.44014 0.56066
 Zr720 Zr 0.05528 0.50010 0.50064
 H721 H 0.04052 0.59338 0.50067
 H722 H -0.04407 0.50011 0.41206
 H723 H 0.04057 0.40684 0.50090
 H724 H -0.04423 0.50013 0.58922
 H725 H 0.00202 0.35031 0.46208
 H726 H -0.00685 0.35049 0.54075
 H727 H 0.00202 0.64995 0.46174
 H728 H -0.00682 0.64974 0.54037
 C729 C 0.25065 0.75078 0.90036
 C730 C 0.25055 0.75112 0.59936
 C731 C 0.17491 0.67195 0.82071
 C732 C 0.17479 0.82985 0.82118
 C733 C 0.17486 0.67228 0.67905
 C734 C 0.32415 0.67533 0.67559
 C735 C 0.32414 0.82600 0.67559
 C736 C 0.32424 0.67519 0.82407
 C737 C 0.17487 0.82980 0.67886
 C738 C 0.32439 0.82586 0.82401
 O739 O 0.20459 0.66199 0.66891
 O740 O 0.16607 0.70482 0.70851
 O741 O 0.20462 0.84001 0.66867
 O742 O 0.16608 0.79737 0.70847
 O743 O 0.29468 0.83644 0.83409
 O744 O 0.33303 0.79498 0.79295
 O745 O 0.25012 0.79231 0.62003
 O746 O 0.25012 0.70988 0.62004
 O747 O 0.25020 0.79200 0.87973
 O748 O 0.25014 0.70961 0.87974
 O749 O 0.29442 0.66515 0.66548
 O750 O 0.33289 0.70613 0.70666
 O751 O 0.20464 0.66146 0.83061
 O752 O 0.16610 0.70477 0.79153
 O753 O 0.29451 0.66486 0.83412
 O754 O 0.33297 0.70613 0.79302
 O755 O 0.29445 0.83645 0.66550
 O756 O 0.33286 0.79514 0.70666
 O757 O 0.25054 0.88643 0.82009
 O758 O 0.25098 0.88663 0.68074
 O759 O 0.25079 0.61533 0.68057
 O760 O 0.25044 0.61535 0.82034
 O761 O 0.22144 0.68723 0.74998
 O762 O 0.22145 0.81483 0.74998
 O763 O 0.27711 0.68743 0.74989
 O764 O 0.22006 0.75091 0.81131
 O765 O 0.16604 0.79724 0.79178
 O766 O 0.20457 0.84024 0.83104
 O767 O 0.27921 0.75081 0.81162
 O768 O 0.27919 0.75090 0.68824
 O769 O 0.27716 0.81411 0.74989
 O770 O 0.22004 0.75101 0.68872
 Zr771 Zr 0.24954 0.81092 0.80968
 Zr772 Zr 0.24950 0.69096 0.69020
 Zr773 Zr 0.19398 0.75107 0.75004
 Zr774 Zr 0.24953 0.69085 0.80966
 Zr775 Zr 0.24951 0.81096 0.69021
 Zr776 Zr 0.30498 0.75069 0.74989
 H777 H 0.29011 0.65735 0.74986
 H778 H 0.20568 0.75087 0.83860
 H779 H 0.29022 0.84412 0.74983
 H780 H 0.20568 0.75105 0.66145
 H781 H 0.25147 0.90083 0.78891
 H782 H 0.24329 0.90065 0.71013
 H783 H 0.25075 0.60088 0.78919
 H784 H 0.24367 0.60120 0.71023
 C785 C 0.49859 0.49991 0.34959
 C786 C 0.49828 0.49952 0.65054
 C787 C 0.57458 0.42158 0.42837
 C788 C 0.57447 0.57796 0.42834
 C789 C 0.57426 0.42164 0.57226
 C790 C 0.42501 0.42417 0.57442
 C791 C 0.42495 0.57505 0.57427
 C792 C 0.42512 0.42427 0.42575
 C793 C 0.57428 0.57761 0.57219
 C794 C 0.42510 0.57527 0.42584
 O795 O 0.54450 0.41121 0.58213
 O796 O 0.58311 0.45362 0.54220
 O797 O 0.54450 0.58799 0.58209
 O798 O 0.58312 0.54567 0.54215
 O799 O 0.45484 0.58565 0.41586
 O800 O 0.41631 0.54426 0.45678
 O801 O 0.49873 0.54076 0.62986
 O802 O 0.49876 0.45831 0.62989
 O803 O 0.49904 0.54107 0.37026
 O804 O 0.49907 0.45867 0.37023
 O805 O 0.45473 0.41389 0.58452
 O806 O 0.41627 0.45502 0.54328
 O807 O 0.54482 0.41097 0.41861
 O808 O 0.58331 0.45376 0.45820
 O809 O 0.45487 0.41389 0.41579
 O810 O 0.41633 0.45518 0.45674
 O811 O 0.45466 0.58530 0.58441
 O812 O 0.41623 0.54421 0.54320
 O813 O 0.49914 0.63534 0.43017
 O814 O 0.49834 0.63538 0.56864
 O815 O 0.49840 0.36382 0.56864
 O816 O 0.49924 0.36414 0.43016
 O817 O 0.52790 0.43583 0.50010
 O818 O 0.52788 0.56353 0.50009
 O819 O 0.47209 0.43635 0.50002
 O820 O 0.52922 0.49974 0.43887
 O821 O 0.58325 0.54571 0.45816
 O822 O 0.54471 0.58859 0.41863
 O823 O 0.47012 0.49973 0.43836
 O824 O 0.46995 0.49961 0.56164
 O825 O 0.47206 0.56297 0.50002
 O826 O 0.52902 0.49961 0.56121
 Zr827 Zr 0.49980 0.55976 0.44037
 Zr828 Zr 0.49965 0.43959 0.55974
 Zr829 Zr 0.55534 0.49968 0.50011
 Zr830 Zr 0.49984 0.43970 0.44034
 Zr831 Zr 0.49963 0.55964 0.55973
 Zr832 Zr 0.44419 0.49965 0.50000
 H833 H 0.45907 0.40630 0.50009
 H834 H 0.54352 0.49978 0.41149
 H835 H 0.45903 0.59302 0.50007
 H836 H 0.54322 0.49959 0.58864
 H837 H 0.49692 0.64957 0.46126
 H838 H 0.50711 0.64917 0.53972
 H839 H 0.49694 0.34984 0.46124
 H840 H 0.50716 0.35012 0.53971
 C841 C 0.75073 0.75057 0.90037
 C842 C 0.75043 0.75098 0.59942
 C843 C 0.67490 0.67243 0.82185
 C844 C 0.67463 0.82862 0.82235
 C845 C 0.67472 0.67282 0.67815
 C846 C 0.82403 0.67634 0.67471
 C847 C 0.82394 0.82522 0.67462
 C848 C 0.82415 0.67613 0.82468
 C849 C 0.67470 0.82857 0.67826
 C850 C 0.82423 0.82508 0.82458
 O851 O 0.70446 0.66244 0.66810
 O852 O 0.66594 0.70475 0.70825
 O853 O 0.70441 0.83908 0.66818
 O854 O 0.66594 0.79668 0.70841
 O855 O 0.79452 0.83579 0.83457
 O856 O 0.83287 0.79472 0.79308
 O857 O 0.74996 0.79218 0.62010
 O858 O 0.75001 0.70971 0.62009
 O859 O 0.75024 0.79182 0.87974
 O860 O 0.75023 0.70939 0.87972
 O861 O 0.79431 0.66581 0.66482
 O862 O 0.83275 0.70662 0.70624
 O863 O 0.70466 0.66176 0.83147
 O864 O 0.66605 0.70468 0.79212
 O865 O 0.79446 0.66544 0.83456
 O866 O 0.83285 0.70659 0.79320
 O867 O 0.79423 0.83582 0.66479
 O868 O 0.83270 0.79489 0.70616
 O869 O 0.75015 0.88640 0.81958
 O870 O 0.75078 0.88664 0.68165
 O871 O 0.75085 0.61499 0.68157
 O872 O 0.75036 0.61504 0.81971
 O873 O 0.72127 0.68687 0.75004
 O874 O 0.72120 0.81463 0.75007
 O875 O 0.77713 0.68732 0.74985
 O876 O 0.72007 0.75068 0.81128
 O877 O 0.66589 0.79651 0.79242
 O878 O 0.70442 0.83935 0.83190
 O879 O 0.77903 0.75072 0.81144
 O880 O 0.77895 0.75081 0.68835
 O881 O 0.77708 0.81415 0.74989
 O882 O 0.71999 0.75079 0.68899
 Zr883 Zr 0.74940 0.81080 0.80968
 Zr884 Zr 0.74938 0.69075 0.69027
 Zr885 Zr 0.69383 0.75073 0.75020
 Zr886 Zr 0.74948 0.69064 0.80961
 Zr887 Zr 0.74934 0.81085 0.69031
 Zr888 Zr 0.80484 0.75072 0.74979
 H889 H 0.79028 0.65738 0.74976
 H890 H 0.70582 0.75058 0.83870
 H891 H 0.79024 0.84407 0.74976
 H892 H 0.70572 0.75081 0.66163
 H893 H 0.75305 0.90055 0.78854
 H894 H 0.74157 0.90028 0.71032
 H895 H 0.75273 0.60088 0.78861
 H896 H 0.74176 0.60125 0.71030
 C897 C 0.00159 -0.04357 0.22493
 C898 C 0.00161 0.00011 0.20004
 C899 C 0.00159 0.04400 0.22453
 C900 C 0.00132 0.04420 0.27270
 C901 C 0.00107 0.00052 0.29759
 C902 C 0.00133 -0.04337 0.27310
 H903 H 0.00166 -0.07806 0.20724
 H904 H 0.00165 0.07835 0.20654
 H905 H 0.00120 0.07868 0.29038
 H906 H 0.00121 -0.07772 0.29110
 C907 C 0.25127 0.20566 1.02625
 C908 C 0.25112 0.24954 1.05125
 C909 C 0.25117 0.29328 1.02595
 C910 C 0.25109 0.29306 0.97777
 C911 C 0.25099 0.24926 0.95322
 C912 C 0.25119 0.20561 0.97807
 H913 H 0.25132 0.17097 1.04369
 H914 H 0.25115 0.32806 1.04315
 H915 H 0.25102 0.32741 0.95977
 H916 H 0.25119 0.17116 0.96033
 C917 C 0.13372 0.08848 0.09195
 C918 C 0.10085 0.09828 0.10038
 C919 C 0.09272 0.13106 0.13564
 C920 C 0.11684 0.15390 0.16140
 C921 C 0.14971 0.14454 0.15262
 C922 C 0.15784 0.11131 0.11774
 H923 H 0.14089 0.06327 0.06528
 H924 H 0.06767 0.13930 0.14334
 H925 H 0.10965 0.17924 0.18796
 H926 H 0.18290 0.10326 0.10991
 C927 C 0.38309 0.34224 0.15976
 C928 C 0.35030 0.35070 0.14961
 C929 C 0.34242 0.38369 0.11441
 C930 C 0.36674 0.40765 0.08997
 C931 C 0.39952 0.39917 0.10010
 C932 C 0.40740 0.36620 0.13531
 H933 H 0.39004 0.31708 0.18663
 H934 H 0.31743 0.39103 0.10559
 H935 H 0.35977 0.43280 0.06309
 H936 H 0.43240 0.35886 0.14412
 C937 C 0.34291 0.11521 0.11482
 C938 C 0.35070 0.14856 0.14969
 C939 C 0.38353 0.15721 0.15952
 C940 C 0.40790 0.13314 0.13514
 C941 C 0.40010 0.09979 0.10025
 C942 C 0.36727 0.09113 0.09045
 H943 H 0.31792 0.10765 0.10619
 H944 H 0.39047 0.18263 0.18611
 H945 H 0.43290 0.14068 0.14374
 H946 H 0.36031 0.06572 0.06386
 C947 C 0.15737 0.38840 0.11793
 C948 C 0.14942 0.35503 0.15281
 C949 C 0.11658 0.34563 0.16191
 C950 C 0.09233 0.36860 0.13645
 C951 C 0.10028 0.40155 0.10121
 C952 C 0.13311 0.41137 0.09245
 H953 H 0.18240 0.39648 0.10986
 H954 H 0.10953 0.32018 0.18849
 H955 H 0.06731 0.36035 0.14438
 H956 H 0.14015 0.43670 0.06575
 C957 C 0.34227 0.11619 0.38501
 C958 C 0.35017 0.14917 0.34979
 C959 C 0.38298 0.15788 0.33992
 C960 C 0.40729 0.13416 0.36462
 C961 C 0.39939 0.10116 0.39982
 C962 C 0.36657 0.09247 0.40970
 H963 H 0.31726 0.10866 0.39365
 H964 H 0.38997 0.18304 0.31306
 H965 H 0.43230 0.14167 0.35597
 H966 H 0.35958 0.06730 0.43656
 C967 C 0.15731 0.38803 0.38096
 C968 C 0.14926 0.35461 0.34623
 C969 C 0.11639 0.34509 0.33765
 C970 C 0.09222 0.36802 0.36340
 C971 C 0.10028 0.40106 0.39846
 C972 C 0.13314 0.41095 0.40672
 H973 H 0.18236 0.39624 0.38867
 H974 H 0.10925 0.31958 0.31124
 H975 H 0.06717 0.35967 0.35582
 H976 H 0.14028 0.43634 0.43324
 C977 C 0.11637 0.15476 0.33654
 C978 C 0.14917 0.14514 0.34568
 C979 C 0.15703 0.11193 0.38070
 C980 C 0.13270 0.08931 0.40631
 C981 C 0.09991 0.09936 0.39754
 C982 C 0.09205 0.13214 0.36214
 H983 H 0.10942 0.18012 0.30984
 H984 H 0.18202 0.10370 0.38877
 H985 H 0.13966 0.06407 0.43311
 H986 H 0.06705 0.14052 0.35421
 C987 C 0.38302 0.34190 0.33995
 C988 C 0.35017 0.35051 0.34968
 C989 C 0.34222 0.38353 0.38480
 C990 C 0.36648 0.40735 0.40949
 C991 C 0.39933 0.39875 0.39976
 C992 C 0.40729 0.36572 0.36465
 H993 H 0.39008 0.31673 0.31318
 H994 H 0.31719 0.39102 0.39336
 H995 H 0.35942 0.43253 0.43626
 H996 H 0.43231 0.35824 0.35609
 C997 C 0.49835 -0.04479 0.22637
 C998 C 0.49864 -0.00112 0.20154
 C999 C 0.49845 0.04286 0.22583
 C1000 C 0.49826 0.04316 0.27388
 C1001 C 0.49825 -0.00051 0.29872
 C1002 C 0.49816 -0.04449 0.27443
 H1003 H 0.49842 -0.07931 0.20875
 H1004 H 0.49860 0.07718 0.20777
 H1005 H 0.49828 0.07768 0.29151
 H1006 H 0.49809 -0.07881 0.29249
 C1007 C 0.75216 0.20523 1.02470
 C1008 C 0.75205 0.24906 1.04919
 C1009 C 0.75199 0.29288 1.02457
 C1010 C 0.75174 0.29287 0.97652
 C1011 C 0.75154 0.24903 0.95203
 C1012 C 0.75191 0.20521 0.97665
 H1013 H 0.75228 0.17081 1.04259
 H1014 H 0.75196 0.32730 1.04237
 H1015 H 0.75155 0.32728 0.95862
 H1016 H 0.75186 0.17079 0.95886
 C1017 C 0.63406 0.09049 0.09078
 C1018 C 0.60123 0.10137 0.09839
 C1019 C 0.59320 0.13469 0.13321
 C1020 C 0.61735 0.15658 0.15969
 C1021 C 0.65018 0.14572 0.15208
 C1022 C 0.65822 0.11238 0.11727
 H1023 H 0.64118 0.06484 0.06446
 H1024 H 0.56818 0.14377 0.14029
 H1025 H 0.61022 0.18222 0.18601
 H1026 H 0.68324 0.10332 0.11020
 C1027 C -0.11646 0.33838 0.15656
 C1028 C -0.14932 0.34823 0.14821
 C1029 C -0.15745 0.38126 0.11312
 C1030 C -0.13333 0.40431 0.08743
 C1031 C -0.10046 0.39488 0.09614
 C1032 C -0.09234 0.36141 0.13085
 H1033 H -0.10929 0.31297 0.18311
 H1034 H -0.18251 0.38954 0.10550
 H1035 H -0.14050 0.42984 0.06099
 H1036 H -0.06728 0.35330 0.13861
 C1037 C 0.90814 0.13770 0.13050
 C1038 C 0.90014 0.10447 0.09559
 C1039 C 0.86727 0.09491 0.08695
 C1040 C 0.84307 0.11760 0.11282
 C1041 C 0.85107 0.15044 0.14806
 C1042 C 0.88393 0.16039 0.15638
 H1043 H 0.93318 0.14592 0.13825
 H1044 H 0.86016 0.06954 0.06040
 H1045 H 0.81803 0.10923 0.10519
 H1046 H 0.89104 0.18563 0.18304
 C1047 C 0.65767 0.38552 0.11701
 C1048 C 0.64977 0.35216 0.15194
 C1049 C 0.61694 0.34140 0.15982
 C1050 C 0.59268 0.36342 0.13351
 C1051 C 0.60058 0.39678 0.09858
 C1052 C 0.63341 0.40753 0.09070
 H1053 H 0.68267 0.39452 0.10972
 H1054 H 0.60991 0.31575 0.18624
 H1055 H 0.56769 0.35442 0.14080
 H1056 H 0.64044 0.43319 0.06428
 C1057 C -0.15850 0.11914 0.38625
 C1058 C -0.15088 0.15241 0.35078
 C1059 C -0.11780 0.16215 0.34228
 C1060 C -0.09349 0.13925 0.36784
 C1061 C -0.10129 0.10585 0.40272
 C1062 C -0.13411 0.09630 0.41170
 H1063 H -0.18338 0.11032 0.39459
 H1064 H -0.11041 0.18743 0.31571
 H1065 H -0.06848 0.14746 0.35982
 H1066 H -0.14108 0.07079 0.43828
 C1067 C 0.65754 0.38499 0.38388
 C1068 C 0.64968 0.35177 0.34893
 C1069 C 0.61687 0.34114 0.34092
 C1070 C 0.59258 0.36318 0.36713
 C1071 C 0.60044 0.39644 0.40206
 C1072 C 0.63326 0.40704 0.41008
 H1073 H 0.68253 0.39389 0.39125
 H1074 H 0.60987 0.31558 0.31448
 H1075 H 0.56758 0.35431 0.35975
 H1076 H 0.64026 0.43260 0.43652
 C1077 C 0.61714 0.15718 0.34048
 C1078 C 0.64989 0.14646 0.34887
 C1079 C 0.65765 0.11367 0.38428
 C1080 C 0.63326 0.09212 0.41061
 C1081 C 0.60051 0.10283 0.40219
 C1082 C 0.59276 0.13564 0.36680
 H1083 H 0.61025 0.18244 0.31365
 H1084 H 0.68261 0.10478 0.39193
 H1085 H 0.64014 0.06685 0.43743
 H1086 H 0.56780 0.14452 0.35913
 C1087 C -0.11651 0.33815 0.34425
 C1088 C -0.14938 0.34796 0.35274
 C1089 C -0.15747 0.38095 0.38782
 C1090 C -0.13331 0.40401 0.41334
 C1091 C -0.10044 0.39464 0.40448
 C1092 C -0.09236 0.36119 0.36979
 H1093 H -0.10937 0.31278 0.31770
 H1094 H -0.18252 0.38921 0.39555
 H1095 H -0.14046 0.42951 0.43977
 H1096 H -0.06730 0.35311 0.36191
 C1097 C 0.00107 0.45648 0.22598
 C1098 C 0.00093 0.50030 0.20129
 C1099 C 0.00103 0.54407 0.22595
 C1100 C 0.00107 0.54401 0.27410
 C1101 C 0.00100 0.50020 0.29879
 C1102 C 0.00111 0.45643 0.27413
 H1103 H 0.00106 0.42208 0.20815
 H1104 H 0.00098 0.57850 0.20810
 H1105 H 0.00105 0.57841 0.29193
 H1106 H 0.00112 0.42200 0.29199
 C1107 C 0.25167 0.70693 1.02383
 C1108 C 0.25173 0.75077 1.04830
 C1109 C 0.25187 0.79460 1.02370
 C1110 C 0.25167 0.79459 0.97567
 C1111 C 0.25133 0.75075 0.95120
 C1112 C 0.25148 0.70692 0.97579
 H1113 H 0.25162 0.67252 1.04173
 H1114 H 0.25198 0.82902 1.04149
 H1115 H 0.25165 0.82901 0.95779
 H1116 H 0.25130 0.67251 0.95799
 C1117 C 0.13315 0.58967 0.09262
 C1118 C 0.10029 0.59962 0.10113
 C1119 C 0.09236 0.63276 0.13616
 C1120 C 0.11663 0.65572 0.16165
 C1121 C 0.14950 0.64613 0.15286
 C1122 C 0.15742 0.61262 0.11813
 H1123 H 0.14021 0.56421 0.06611
 H1124 H 0.06734 0.64118 0.14392
 H1125 H 0.10956 0.68130 0.18807
 H1126 H 0.18245 0.60436 0.11026
 C1127 C 0.36866 0.90896 0.08986
 C1128 C 0.40174 0.89953 0.09883
 C1129 C 0.40908 0.86535 0.13364
 C1130 C 0.38447 0.84181 0.15829
 C1131 C 0.35165 0.85144 0.14915
 C1132 C 0.34414 0.88532 0.11456
 H1133 H 0.36141 0.93473 0.06365
 H1134 H 0.43392 0.85656 0.14222
 H1135 H 0.39127 0.81592 0.18461
 H1136 H 0.31919 0.89369 0.10640
 C1137 C 0.34249 0.61644 0.11491
 C1138 C 0.35046 0.64948 0.14995
 C1139 C 0.38328 0.65793 0.15984
 C1140 C 0.40753 0.63393 0.13529
 C1141 C 0.39957 0.60092 0.10022
 C1142 C 0.36675 0.59244 0.09036
 H1143 H 0.31747 0.60910 0.10628
 H1144 H 0.39031 0.68311 0.18658
 H1145 H 0.43255 0.64129 0.14392
 H1146 H 0.35971 0.56727 0.06361
 C1147 C 0.09301 0.86923 0.13604
 C1148 C 0.10099 0.90169 0.10042
 C1149 C 0.13382 0.91155 0.09167
 C1150 C 0.15806 0.88903 0.11751
 C1151 C 0.15008 0.85610 0.15274
 C1152 C 0.11724 0.84671 0.16185
 H1153 H 0.06799 0.86099 0.14399
 H1154 H 0.14086 0.93656 0.06469
 H1155 H 0.18309 0.89706 0.10943
 H1156 H 0.11018 0.82158 0.18871
 C1157 C 0.34228 0.61672 0.38523
 C1158 C 0.35029 0.64978 0.35010
 C1159 C 0.38314 0.65817 0.34024
 C1160 C 0.40736 0.63408 0.36484
 C1161 C 0.39935 0.60100 0.39995
 C1162 C 0.36650 0.59262 0.40982
 H1163 H 0.31724 0.60940 0.39387
 H1164 H 0.39023 0.68336 0.31346
 H1165 H 0.43239 0.64139 0.35619
 H1166 H 0.35941 0.56743 0.43661
 C1167 C 0.15730 -0.11076 0.38089
 C1168 C 0.14945 -0.14406 0.34599
 C1169 C 0.11661 -0.15354 0.33697
 C1170 C 0.09229 -0.13073 0.36248
 C1171 C 0.10016 -0.09785 0.39773
 C1172 C 0.13298 -0.08795 0.40642
 H1173 H 0.18231 -0.10260 0.38890
 H1174 H 0.10962 -0.17895 0.31039
 H1175 H 0.06729 -0.13905 0.35459
 H1176 H 0.13997 -0.06266 0.43310
 C1177 C 0.11653 0.65567 0.33786
 C1178 C 0.14940 0.64622 0.34663
 C1179 C 0.15739 0.61270 0.38139
 C1180 C 0.13318 0.58962 0.40699
 C1181 C 0.10031 0.59944 0.39852
 C1182 C 0.09231 0.63258 0.36344
 H1183 H 0.10943 0.68124 0.31141
 H1184 H 0.18243 0.60453 0.38924
 H1185 H 0.14028 0.56418 0.43353
 H1186 H 0.06728 0.64089 0.35572
 C1187 C 0.38319 -0.15703 0.33994
 C1188 C 0.35037 -0.14850 0.34985
 C1189 C 0.34239 -0.11560 0.38503
 C1190 C 0.36663 -0.09179 0.40967
 C1191 C 0.39946 -0.10032 0.39976
 C1192 C 0.40743 -0.13322 0.36458
 H1193 H 0.39024 -0.18211 0.31309
 H1194 H 0.31737 -0.10822 0.39369
 H1195 H 0.35959 -0.06671 0.43653
 H1196 H 0.43246 -0.14061 0.35592
 C1197 C 0.49775 0.45633 0.22605
 C1198 C 0.49795 0.50020 0.20149
 C1199 C 0.49786 0.54398 0.22607
 C1200 C 0.49787 0.54389 0.27413
 C1201 C 0.49798 0.50002 0.29869
 C1202 C 0.49777 0.45624 0.27411
 H1203 H 0.49775 0.42194 0.20820
 H1204 H 0.49794 0.57842 0.20823
 H1205 H 0.49796 0.57827 0.29199
 H1206 H 0.49777 0.42179 0.29194
 C1207 C 0.75159 0.70669 1.02388
 C1208 C 0.75154 0.75053 1.04837
 C1209 C 0.75172 0.79435 1.02376
 C1210 C 0.75166 0.79435 0.97572
 C1211 C 0.75141 0.75052 0.95123
 C1212 C 0.75153 0.70669 0.97583
 H1213 H 0.75152 0.67228 1.04178
 H1214 H 0.75176 0.82878 1.04155
 H1215 H 0.75166 0.82877 0.95785
 H1216 H 0.75141 0.67228 0.95802
 C1217 C 0.63321 0.59206 0.09057
 C1218 C 0.60040 0.60283 0.09841
 C1219 C 0.59240 0.63610 0.13327
 C1220 C 0.61658 0.65806 0.15959
 C1221 C 0.64940 0.64732 0.15175
 C1222 C 0.65740 0.61403 0.11690
 H1223 H 0.64029 0.56645 0.06419
 H1224 H 0.56739 0.64509 0.14050
 H1225 H 0.60949 0.68368 0.18596
 H1226 H 0.68242 0.60507 0.10967
 C1227 C 0.86705 0.90488 0.08628
 C1228 C 0.89988 0.89526 0.09533
 C1229 C 0.90766 0.86200 0.13037
 C1230 C 0.88328 0.83936 0.15600
 C1231 C 0.85046 0.84937 0.14728
 C1232 C 0.84267 0.88223 0.11190
 H1233 H 0.86010 0.93026 0.05959
 H1234 H 0.93265 0.85373 0.13843
 H1235 H 0.89023 0.81409 0.18279
 H1236 H 0.81768 0.89065 0.10397
 C1237 C 0.90727 0.63898 0.13048
 C1238 C 0.89929 0.60551 0.09579
 C1239 C 0.86645 0.59594 0.08702
 C1240 C 0.84222 0.61883 0.11261
 C1241 C 0.85022 0.65185 0.14767
 C1242 C 0.88305 0.66186 0.15609
 H1243 H 0.93230 0.64720 0.13829
 H1244 H 0.85937 0.57040 0.06059
 H1245 H 0.81720 0.61044 0.10494
 H1246 H 0.89012 0.68727 0.18262
 C1247 C 0.59183 0.86382 0.13173
 C1248 C 0.59941 0.89776 0.09682
 C1249 C 0.63245 0.90861 0.08929
 C1250 C 0.65673 0.88680 0.11575
 C1251 C 0.64895 0.85335 0.15058
 C1252 C 0.61619 0.84211 0.15812
 H1253 H 0.56698 0.85399 0.13920
 H1254 H 0.63984 0.93429 0.06306
 H1255 H 0.68171 0.89610 0.10864
 H1256 H 0.60923 0.81625 0.18440
 C1257 C -0.15775 0.61909 0.38745
 C1258 C -0.14978 0.65202 0.35218
 C1259 C -0.11692 0.66180 0.34355
 C1260 C -0.09268 0.63881 0.36913
 C1261 C -0.10065 0.60544 0.40402
 C1262 C -0.13352 0.59609 0.41300
 H1263 H -0.18279 0.61083 0.39530
 H1264 H -0.10983 0.68710 0.31686
 H1265 H -0.06764 0.64688 0.36113
 H1266 H -0.14061 0.57065 0.43958
 C1267 C 0.65724 -0.11348 0.38314
 C1268 C 0.64928 -0.14647 0.34805
 C1269 C 0.61649 -0.15721 0.34013
 C1270 C 0.59228 -0.13551 0.36662
 C1271 C 0.60023 -0.10252 0.40170
 C1272 C 0.63302 -0.09177 0.40963
 H1273 H 0.68224 -0.10454 0.39042
 H1274 H 0.60946 -0.18262 0.31357
 H1275 H 0.56728 -0.14445 0.35933
 H1276 H 0.64005 -0.06636 0.43618
 C1277 C 0.61645 0.65855 0.34067
 C1278 C 0.64928 0.64790 0.34852
 C1279 C 0.65727 0.61463 0.38346
 C1280 C 0.63307 0.59255 0.40982
 C1281 C 0.60025 0.60316 0.40194
 C1282 C 0.59226 0.63647 0.36703
 H1283 H 0.60937 0.68415 0.31423
 H1284 H 0.68228 0.60572 0.39071
 H1285 H 0.64016 0.56694 0.43624
 H1286 H 0.56724 0.64535 0.35976
 C1287 C -0.11708 -0.16055 0.34308
 C1288 C -0.14991 -0.15065 0.35172
 C1289 C -0.15791 -0.11782 0.38697
 C1290 C -0.13368 -0.09498 0.41250
 C1291 C -0.10083 -0.10443 0.40347
 C1292 C -0.09285 -0.13773 0.36863
 H1293 H -0.11001 -0.18581 0.31639
 H1294 H -0.18293 -0.10952 0.39482
 H1295 H -0.14075 -0.06958 0.43906
 H1296 H -0.06782 -0.14584 0.36063
 C1297 C 0.00106 -0.04351 0.77467
 C1298 C 0.00104 0.00020 0.79990
 C1299 C 0.00103 0.04409 0.77480
 C1300 C 0.00081 0.04417 0.72660
 C1301 C 0.00061 0.00054 0.70181
 C1302 C 0.00083 -0.04326 0.72647
 H1303 H 0.00115 -0.07830 0.79194
 H1304 H 0.00110 0.07877 0.79218
 H1305 H 0.00072 0.07863 0.70878
 H1306 H 0.00077 -0.07761 0.70855
 C1307 C 0.25107 0.20566 0.47605
 C1308 C 0.25098 0.24950 0.45136
 C1309 C 0.25111 0.29322 0.47610
 C1310 C 0.25114 0.29311 0.52428
 C1311 C 0.25102 0.24927 0.54897
 C1312 C 0.25110 0.20554 0.52423
 H1313 H 0.25103 0.17128 0.45818
 H1314 H 0.25110 0.32768 0.45829
 H1315 H 0.25113 0.32749 0.54215
 H1316 H 0.25106 0.17109 0.54205
 C1317 C 0.13269 0.08912 0.59338
 C1318 C 0.09986 0.09914 0.60200
 C1319 C 0.09195 0.13183 0.63741
 C1320 C 0.11624 0.15436 0.66315
 C1321 C 0.14908 0.14475 0.65418
 C1322 C 0.15698 0.11163 0.61913
 H1323 H 0.13972 0.06396 0.56658
 H1324 H 0.06694 0.14022 0.64526
 H1325 H 0.10921 0.17963 0.68984
 H1326 H 0.18199 0.10339 0.61114
 C1327 C 0.38295 0.34160 0.66035
 C1328 C 0.35011 0.35000 0.65052
 C1329 C 0.34214 0.38297 0.61530
 C1330 C 0.36638 0.40696 0.59060
 C1331 C 0.39922 0.39856 0.60043
 C1332 C 0.40719 0.36558 0.63564
 H1333 H 0.39002 0.31647 0.68720
 H1334 H 0.31711 0.39031 0.60667
 H1335 H 0.35931 0.43208 0.56375
 H1336 H 0.43222 0.35825 0.64428
 C1337 C 0.34213 0.11580 0.61528
 C1338 C 0.35004 0.14856 0.65059
 C1339 C 0.38285 0.15713 0.66045
 C1340 C 0.40714 0.13351 0.63564
 C1341 C 0.39924 0.10076 0.60032
 C1342 C 0.36642 0.09218 0.59047
 H1343 H 0.31712 0.10839 0.60665
 H1344 H 0.38986 0.18211 0.68738
 H1345 H 0.43215 0.14093 0.64428
 H1346 H 0.35943 0.06719 0.56353
 C1347 C 0.15723 0.38770 0.61963
 C1348 C 0.14924 0.35435 0.65453
 C1349 C 0.11639 0.34512 0.66366
 C1350 C 0.09216 0.36824 0.63822
 C1351 C 0.10015 0.40115 0.60295
 C1352 C 0.13301 0.41080 0.59418
 H1353 H 0.18227 0.39567 0.61154
 H1354 H 0.10930 0.31970 0.69025
 H1355 H 0.06713 0.36010 0.64617
 H1356 H 0.14009 0.43609 0.56747
 C1357 C 0.40767 0.13253 0.86509
 C1358 C 0.39996 0.09935 0.90024
 C1359 C 0.36715 0.09069 0.91031
 C1360 C 0.34271 0.11461 0.88592
 C1361 C 0.35043 0.14782 0.85080
 C1362 C 0.38324 0.15645 0.84070
 H1363 H 0.43265 0.14007 0.85627
 H1364 H 0.36025 0.06539 0.93711
 H1365 H 0.31774 0.10707 0.89475
 H1366 H 0.39014 0.18175 0.81391
 C1367 C 0.09219 0.36883 0.86235
 C1368 C 0.10011 0.40167 0.89757
 C1369 C 0.13291 0.41125 0.90658
 C1370 C 0.15720 0.38807 0.88140
 C1371 C 0.14928 0.35474 0.84659
 C1372 C 0.11647 0.34564 0.83718
 H1373 H 0.06718 0.36079 0.85424
 H1374 H 0.13992 0.43650 0.93329
 H1375 H 0.18222 0.39592 0.88966
 H1376 H 0.10947 0.32024 0.81060
 C1377 C 0.13224 0.08708 0.90700
 C1378 C 0.09921 0.09685 0.89834
 C1379 C 0.09167 0.13035 0.86307
 C1380 C 0.11612 0.15339 0.83796
 C1381 C 0.14890 0.14383 0.84714
 C1382 C 0.15662 0.11020 0.88180
 H1383 H 0.13957 0.06160 0.93344
 H1384 H 0.06681 0.13917 0.85463
 H1385 H 0.10924 0.17908 0.81150
 H1386 H 0.18161 0.10197 0.88992
 C1387 C 0.36659 0.40735 0.91022
 C1388 C 0.39942 0.39887 0.90027
 C1389 C 0.40733 0.36574 0.86523
 C1390 C 0.38304 0.34169 0.84080
 C1391 C 0.35021 0.35016 0.85076
 C1392 C 0.34230 0.38330 0.88579
 H1393 H 0.35957 0.43259 0.93695
 H1394 H 0.43234 0.35835 0.85652
 H1395 H 0.39006 0.31645 0.81407
 H1396 H 0.31729 0.39070 0.89450
 C1397 C 0.49802 -0.04459 0.77399
 C1398 C 0.49830 -0.00094 0.79877
 C1399 C 0.49805 0.04304 0.77437
 C1400 C 0.49783 0.04338 0.72630
 C1401 C 0.49786 -0.00026 0.70152
 C1402 C 0.49780 -0.04425 0.72591
 H1403 H 0.49814 -0.07912 0.79169
 H1404 H 0.49818 0.07735 0.79237
 H1405 H 0.49781 0.07791 0.70861
 H1406 H 0.49776 -0.07856 0.70792
 C1407 C 0.75175 0.20519 0.47664
 C1408 C 0.75166 0.24900 0.45197
 C1409 C 0.75156 0.29282 0.47652
 C1410 C 0.75129 0.29283 0.52460
 C1411 C 0.75112 0.24902 0.54926
 C1412 C 0.75149 0.20520 0.52473
 H1413 H 0.75189 0.17077 0.45884
 H1414 H 0.75154 0.32724 0.45863
 H1415 H 0.75110 0.32725 0.54240
 H1416 H 0.75145 0.17079 0.54262
 C1417 C 0.63282 0.09176 0.59076
 C1418 C 0.60003 0.10254 0.59869
 C1419 C 0.59201 0.13547 0.63383
 C1420 C 0.61619 0.15708 0.66037
 C1421 C 0.64898 0.14632 0.65244
 C1422 C 0.65700 0.11339 0.61730
 H1423 H 0.63989 0.06641 0.56416
 H1424 H 0.56701 0.14442 0.64112
 H1425 H 0.60911 0.18245 0.68697
 H1426 H 0.68201 0.10444 0.61001
 C1427 C -0.11743 0.33863 0.65733
 C1428 C -0.15026 0.34831 0.64840
 C1429 C -0.15811 0.38126 0.61312
 C1430 C -0.13377 0.40435 0.58782
 C1431 C -0.10093 0.39507 0.59711
 C1432 C -0.09310 0.36170 0.63202
 H1433 H -0.11044 0.31331 0.68406
 H1434 H -0.18312 0.38943 0.60506
 H1435 H -0.14075 0.42979 0.56120
 H1436 H -0.06809 0.35368 0.64023
 C1437 C 0.90681 0.13853 0.63110
 C1438 C 0.89890 0.10544 0.59607
 C1439 C 0.86609 0.09592 0.58701
 C1440 C 0.84181 0.11849 0.61271
 C1441 C 0.84972 0.15111 0.64812
 C1442 C 0.88252 0.16109 0.65680
 H1443 H 0.93181 0.14669 0.63912
 H1444 H 0.85909 0.07066 0.56031
 H1445 H 0.81680 0.11017 0.60483
 H1446 H 0.88953 0.18620 0.68362
 C1447 C 0.65689 0.38518 0.61747
 C1448 C 0.64882 0.35187 0.65236
 C1449 C 0.61599 0.34118 0.66013
 C1450 C 0.59187 0.36324 0.63369
 C1451 C 0.59995 0.39655 0.59880
 C1452 C 0.63277 0.40723 0.59104
 H1453 H 0.68191 0.39413 0.61030
 H1454 H 0.60887 0.31555 0.68652
 H1455 H 0.56684 0.35431 0.64085
 H1456 H 0.63992 0.43285 0.56465
 C1457 C 0.90748 0.13814 0.86769
 C1458 C 0.89986 0.10499 0.90285
 C1459 C 0.86711 0.09552 0.91264
 C1460 C 0.84260 0.11818 0.88750
 C1461 C 0.85022 0.15086 0.85194
 C1462 C 0.88296 0.16080 0.84254
 H1463 H 0.93242 0.14623 0.85912
 H1464 H 0.86033 0.07023 0.93950
 H1465 H 0.81766 0.10990 0.89591
 H1466 H 0.88974 0.18596 0.81556
 C1467 C 0.59215 0.36368 0.86717
 C1468 C 0.60020 0.39691 0.90199
 C1469 C 0.63300 0.40759 0.90985
 C1470 C 0.65715 0.38556 0.88352
 C1471 C 0.64909 0.35232 0.84871
 C1472 C 0.61629 0.34166 0.84085
 H1473 H 0.56713 0.35479 0.85996
 H1474 H 0.64009 0.43317 0.93622
 H1475 H 0.68217 0.39443 0.89074
 H1476 H 0.60920 0.31608 0.81448
 C1477 C 0.63245 0.08907 0.91056
 C1478 C 0.59935 0.09944 0.90301
 C1479 C 0.59164 0.13354 0.86828
 C1480 C 0.61593 0.15593 0.84216
 C1481 C 0.64877 0.14525 0.84976
 C1482 C 0.65666 0.11157 0.88436
 H1483 H 0.63994 0.06329 0.93663
 H1484 H 0.56675 0.14303 0.86077
 H1485 H 0.60886 0.18189 0.81604
 H1486 H 0.68169 0.10262 0.89149
 C1487 C 0.86628 0.40449 0.91251
 C1488 C 0.89912 0.39521 0.90327
 C1489 C 0.90702 0.36184 0.86843
 C1490 C 0.88273 0.33874 0.84317
 C1491 C 0.84989 0.34842 0.85207
 C1492 C 0.84198 0.38138 0.88725
 H1493 H 0.85925 0.42993 0.93906
 H1494 H 0.93204 0.35382 0.86026
 H1495 H 0.88976 0.31342 0.81652
 H1496 H 0.81697 0.38954 0.89529
 C1497 C 0.00074 0.45646 0.77608
 C1498 C 0.00059 0.50028 0.80119
 C1499 C 0.00068 0.54405 0.77592
 C1500 C 0.00071 0.54393 0.72770
 C1501 C 0.00065 0.50019 0.70303
 C1502 C 0.00076 0.45650 0.72787
 H1503 H 0.00076 0.42174 0.79347
 H1504 H 0.00065 0.57880 0.79317
 H1505 H 0.00068 0.57831 0.70976
 H1506 H 0.00079 0.42209 0.71007
 C1507 C 0.25140 0.70737 0.47575
 C1508 C 0.25131 0.75118 0.45110
 C1509 C 0.25139 0.79500 0.47566
 C1510 C 0.25129 0.79498 0.52375
 C1511 C 0.25113 0.75116 0.54840
 C1512 C 0.25131 0.70736 0.52384
 H1513 H 0.25140 0.67295 0.45795
 H1514 H 0.25138 0.82941 0.45777
 H1515 H 0.25123 0.82939 0.54157
 H1516 H 0.25125 0.67293 0.54171
 C1517 C 0.13290 0.58941 0.59376
 C1518 C 0.10006 0.59905 0.60257
 C1519 C 0.09205 0.63200 0.63771
 C1520 C 0.11626 0.65516 0.66302
 C1521 C 0.14911 0.64593 0.65385
 C1522 C 0.15712 0.61255 0.61908
 H1523 H 0.13999 0.56409 0.56713
 H1524 H 0.06701 0.64012 0.64567
 H1525 H 0.10918 0.68061 0.68954
 H1526 H 0.18215 0.60458 0.61098
 C1527 C 0.36635 0.90816 0.58986
 C1528 C 0.39914 0.89954 0.59987
 C1529 C 0.40702 0.86657 0.63508
 C1530 C 0.38272 0.84278 0.65968
 C1531 C 0.34993 0.85140 0.64969
 C1532 C 0.34204 0.88436 0.61446
 H1533 H 0.35939 0.93331 0.56298
 H1534 H 0.43202 0.85912 0.64380
 H1535 H 0.38969 0.81764 0.68657
 H1536 H 0.31704 0.89181 0.60575
 C1537 C 0.34202 0.61661 0.61462
 C1538 C 0.34995 0.64961 0.64974
 C1539 C 0.38279 0.65787 0.65971
 C1540 C 0.40705 0.63374 0.63523
 C1541 C 0.39912 0.60074 0.60011
 C1542 C 0.36629 0.59248 0.59014
 H1543 H 0.31700 0.60938 0.60589
 H1544 H 0.38983 0.68300 0.68650
 H1545 H 0.43207 0.64098 0.64396
 H1546 H 0.35925 0.56735 0.56334
 C1547 C 0.09195 0.86951 0.63726
 C1548 C 0.09987 0.90227 0.60185
 C1549 C 0.13269 0.91205 0.59297
 C1550 C 0.15698 0.88919 0.61847
 C1551 C 0.14907 0.85598 0.65350
 C1552 C 0.11624 0.84664 0.66274
 H1553 H 0.06694 0.86130 0.64529
 H1554 H 0.13971 0.93725 0.56615
 H1555 H 0.18200 0.89723 0.61031
 H1556 H 0.10922 0.82132 0.68946
 C1557 C 0.40723 0.63429 0.86484
 C1558 C 0.39933 0.60109 0.89991
 C1559 C 0.36649 0.59243 0.90967
 C1560 C 0.34219 0.61636 0.88505
 C1561 C 0.35008 0.64956 0.84998
 C1562 C 0.38293 0.65822 0.84022
 H1563 H 0.43224 0.64183 0.85627
 H1564 H 0.35947 0.56712 0.93640
 H1565 H 0.31717 0.60882 0.89363
 H1566 H 0.38995 0.68353 0.81350
 C1567 C 0.09163 0.86948 0.86289
 C1568 C 0.09921 0.90286 0.89818
 C1569 C 0.13228 0.91256 0.90667
 C1570 C 0.15662 0.88954 0.88127
 C1571 C 0.14886 0.85607 0.84656
 C1572 C 0.11605 0.84654 0.83759
 H1573 H 0.06675 0.86069 0.85456
 H1574 H 0.13964 0.93793 0.93311
 H1575 H 0.18162 0.89774 0.88927
 H1576 H 0.10910 0.82097 0.81113
 C1577 C 0.13280 0.58929 0.90611
 C1578 C 0.09999 0.59902 0.89718
 C1579 C 0.09206 0.63183 0.86185
 C1580 C 0.11634 0.65485 0.83650
 C1581 C 0.14915 0.64558 0.84583
 C1582 C 0.15708 0.61229 0.88074
 H1583 H 0.13981 0.56404 0.93288
 H1584 H 0.06705 0.63998 0.85381
 H1585 H 0.10933 0.68023 0.80985
 H1586 H 0.18209 0.60432 0.88894
 C1587 C 0.36716 0.90725 0.90997
 C1588 C 0.39996 0.89827 0.90005
 C1589 C 0.40764 0.86536 0.86474
 C1590 C 0.38317 0.84202 0.84003
 C1591 C 0.35037 0.85100 0.84996
 C1592 C 0.34270 0.88392 0.88526
 H1593 H 0.36030 0.93237 0.93689
 H1594 H 0.43260 0.85761 0.85603
 H1595 H 0.39003 0.81690 0.81311
 H1596 H 0.31773 0.89167 0.89397
 C1597 C 0.49779 0.45571 0.77419
 C1598 C 0.49794 0.49955 0.79870
 C1599 C 0.49769 0.54335 0.77405
 C1600 C 0.49758 0.54333 0.72598
 C1601 C 0.49773 0.49950 0.70147
 C1602 C 0.49769 0.45569 0.72612
 H1603 H 0.49791 0.42131 0.79210
 H1604 H 0.49772 0.57778 0.79184
 H1605 H 0.49755 0.57775 0.70809
 H1606 H 0.49774 0.42127 0.70832
 C1607 C 0.75137 0.70722 0.47580
 C1608 C 0.75120 0.75104 0.45114
 C1609 C 0.75119 0.79485 0.47569
 C1610 C 0.75110 0.79484 0.52380
 C1611 C 0.75102 0.75102 0.54845
 C1612 C 0.75128 0.70722 0.52389
 H1613 H 0.75145 0.67280 0.45801
 H1614 H 0.75112 0.82926 0.45780
 H1615 H 0.75097 0.82925 0.54161
 H1616 H 0.75129 0.67279 0.54176
 C1617 C 0.63284 0.59225 0.59068
 C1618 C 0.60000 0.60276 0.59861
 C1619 C 0.59195 0.63601 0.63349
 C1620 C 0.61611 0.65819 0.65973
 C1621 C 0.64895 0.64768 0.65179
 C1622 C 0.65699 0.61442 0.61692
 H1623 H 0.63997 0.56669 0.56429
 H1624 H 0.56692 0.64482 0.64078
 H1625 H 0.60900 0.68376 0.68612
 H1626 H 0.68202 0.60561 0.60961
 C1627 C 0.86609 0.90528 0.58680
 C1628 C 0.89891 0.89591 0.59599
 C1629 C 0.90683 0.86263 0.63093
 C1630 C 0.88255 0.83971 0.65641
 C1631 C 0.84973 0.84951 0.64759
 C1632 C 0.84181 0.88235 0.61227
 H1633 H 0.85908 0.93067 0.56015
 H1634 H 0.93184 0.85456 0.63905
 H1635 H 0.88957 0.81446 0.68317
 H1636 H 0.81679 0.89057 0.60430
 C1637 C 0.90700 0.63855 0.63155
 C1638 C 0.89914 0.60526 0.59668
 C1639 C 0.86632 0.59605 0.58734
 C1640 C 0.84199 0.61912 0.61259
 C1641 C 0.84986 0.65196 0.64784
 C1642 C 0.88268 0.66161 0.65681
 H1643 H 0.93200 0.64651 0.63978
 H1644 H 0.85934 0.57067 0.56073
 H1645 H 0.81699 0.61101 0.60451
 H1646 H 0.88966 0.68686 0.68353
 C1647 C 0.59194 0.86410 0.63336
 C1648 C 0.59992 0.89706 0.59817
 C1649 C 0.63269 0.90787 0.59011
 C1650 C 0.65690 0.88626 0.61660
 C1651 C 0.64893 0.85332 0.65180
 C1652 C 0.61616 0.84249 0.65986
 H1653 H 0.56695 0.85517 0.64074
 H1654 H 0.63972 0.93325 0.56345
 H1655 H 0.68189 0.89523 0.60922
 H1656 H 0.60914 0.81710 0.68652
 C1657 C 0.90705 0.63863 0.86818
 C1658 C 0.89912 0.60528 0.90309
 C1659 C 0.86630 0.59587 0.91226
 C1660 C 0.84203 0.61882 0.88684
 C1661 C 0.84995 0.65175 0.85157
 C1662 C 0.88277 0.66158 0.84275
 H1663 H 0.93206 0.64673 0.86007
 H1664 H 0.85928 0.57042 0.93887
 H1665 H 0.81701 0.61058 0.89482
 H1666 H 0.88979 0.68690 0.81603
 C1667 C 0.59164 0.86428 0.86795
 C1668 C 0.59930 0.89803 0.90289
 C1669 C 0.63236 0.90866 0.91039
 C1670 C 0.65659 0.88678 0.88388
 C1671 C 0.64874 0.85348 0.84905
 C1672 C 0.61595 0.84250 0.84152
 H1673 H 0.56677 0.85463 0.86051
 H1674 H 0.63980 0.93420 0.93663
 H1675 H 0.68159 0.89589 0.89097
 H1676 H 0.60895 0.81677 0.81524
 C1677 C 0.63306 0.59215 0.90961
 C1678 C 0.60026 0.60298 0.90183
 C1679 C 0.59223 0.63625 0.86694
 C1680 C 0.61640 0.65816 0.84050
 C1681 C 0.64920 0.64735 0.84829
 C1682 C 0.65723 0.61407 0.88317
 H1683 H 0.64014 0.56653 0.93602
 H1684 H 0.56722 0.64525 0.85977
 H1685 H 0.60931 0.68379 0.81410
 H1686 H 0.68224 0.60509 0.89034
 C1687 C 0.86702 0.90460 0.91200
 C1688 C 0.89980 0.89503 0.90249
 C1689 C 0.90746 0.86182 0.86745
 C1690 C 0.88298 0.83918 0.84221
 C1691 C 0.85021 0.84918 0.85135
 C1692 C 0.84254 0.88195 0.88676
 H1693 H 0.86018 0.92995 0.93873
 H1694 H 0.93242 0.85363 0.85908
 H1695 H 0.88982 0.81396 0.81537
 H1696 H 0.81758 0.89032 0.89499
   
