data_POSCAR
  _audit_creation_date              2014-09-24
  _audit_creation_method            'ToBaCCo'
  _symmetry_space_group_name_H-M    'P1'
  _symmetry_Int_Tables_number       1
  _symmetry_cell_setting            triclinic
  loop_
  _symmetry_equiv_pos_as_xyz
 x,y,z
_cell_length_a 33.8872
_cell_length_b 34.0973
_cell_length_c 26.2965
_cell_angle_alpha 90.065100
_cell_angle_beta 89.399400
_cell_angle_gamma 90.540600
loop_
  _atom_site_label
  _atom_site_type_symbol
  _atom_site_fract_x
  _atom_site_fract_y
  _atom_site_fract_z
C1 C 0.31350 -0.05562 0.26960
 C2 C 0.33338 -0.02319 0.24763
 C3 C 0.36360 -0.02939 0.21208
 C4 C 0.37689 -0.06703 0.20058
 C5 C 0.35706 -0.09949 0.22280
 C6 C 0.32434 -0.09456 0.25674
 C7 C 0.33220 0.01661 0.27018
 C8 C 0.36249 0.02573 0.30401
 C9 C 0.37474 0.06470 0.31230
 C10 C 0.35295 0.09494 0.29044
 C11 C 0.32017 0.08676 0.25935
 C12 C 0.31081 0.04721 0.24799
 H13 H 0.29117 -0.05020 0.29840
 H14 H 0.37954 -0.00406 0.19747
 H15 H 0.37969 0.00160 0.31823
 H16 H 0.28829 0.04014 0.22050
 H17 H 0.36691 -0.12839 0.21227
 H18 H 0.36105 0.12486 0.29907
 C19 C 0.19281 -0.04826 0.73838
 C20 C 0.17511 -0.01512 0.76062
 C21 C 0.14625 -0.02038 0.79851
 C22 C 0.13186 -0.05773 0.81140
 C23 C 0.15027 -0.09061 0.78980
 C24 C 0.18123 -0.08645 0.75377
 C25 C 0.17416 0.02316 0.73419
 C26 C 0.14029 0.02953 0.70565
 C27 C 0.12812 0.06738 0.69275
 C28 C 0.15343 0.09893 0.70409
 C29 C 0.18870 0.09344 0.73103
 C30 C 0.19868 0.05522 0.74696
 H31 H 0.21381 -0.04425 0.70747
 H32 H 0.13190 0.00549 0.81328
 H33 H 0.12186 0.00428 0.69785
 H34 H 0.22417 0.05069 0.77066
 H35 H 0.14046 -0.11946 0.80120
 H36 H 0.14602 0.12800 0.69165
 C37 C 0.68730 0.44542 0.24009
 C38 C 0.67137 0.48180 0.25427
 C39 C 0.64663 0.48406 0.29660
 C40 C 0.63755 0.45118 0.32573
 C41 C 0.65355 0.41480 0.31256
 C42 C 0.67885 0.41158 0.26962
 C43 C 0.67346 0.51738 0.22267
 C44 C 0.64198 0.52234 0.18974
 C45 C 0.62820 0.55977 0.17814
 C46 C 0.64967 0.59290 0.19470
 C47 C 0.68351 0.58874 0.22522
 C48 C 0.69454 0.55054 0.23982
 H49 H 0.70574 0.44347 0.20631
 H50 H 0.63410 0.51218 0.30711
 H51 H 0.62452 0.49670 0.17996
 H52 H 0.71734 0.54641 0.26774
 H53 H 0.64796 0.38985 0.33709
 H54 H 0.63944 0.62172 0.18451
 C55 C 0.82710 0.43037 0.76152
 C56 C 0.83664 0.46803 0.74366
 C57 C 0.86057 0.47221 0.70083
 C58 C 0.87474 0.43972 0.67461
 C59 C 0.86448 0.40189 0.69111
 C60 C 0.84003 0.39671 0.73473
 C61 C 0.82880 0.50389 0.77306
 C62 C 0.85361 0.51077 0.81423
 C63 C 0.86471 0.54923 0.82720
 C64 C 0.84460 0.58066 0.80485
 C65 C 0.81621 0.57396 0.76723
 C66 C 0.80941 0.53557 0.75006
 H67 H 0.80936 0.42795 0.79574
 H68 H 0.86880 0.50145 0.68796
 H69 H 0.86985 0.48611 0.82892
 H70 H 0.79129 0.53057 0.71693
 H71 H 0.87440 0.37710 0.66888
 H72 H 0.85187 0.61059 0.81517
 C73 C 0.23009 0.38865 1.04356
 C74 C 0.25474 0.40799 1.00813
 C75 C 0.28897 0.42666 1.02439
 C76 C 0.29824 0.42777 1.07599
 C77 C 0.27359 0.40892 1.11151
 C78 C 0.24011 0.38718 1.09560
 C79 C 0.24291 0.41272 0.95483
 C80 C 0.20855 0.43313 0.94500
 C81 C 0.19700 0.44081 0.89520
 C82 C 0.22046 0.42738 0.85435
 C83 C 0.25490 0.40522 0.86351
 C84 C 0.26641 0.39920 0.91430
 H85 H 0.20359 0.37463 1.02963
 H86 H 0.30739 0.44212 0.99686
 H87 H 0.19121 0.44406 0.97682
 H88 H 0.29253 0.38262 0.92293
 H89 H 0.28206 0.41017 1.15094
 H90 H 0.21093 0.43276 0.81585
 C91 C 0.76885 0.11275 1.07523
 C92 C 0.74761 0.09520 1.03543
 C93 C 0.71255 0.07498 1.04595
 C94 C 0.69916 0.07043 1.09605
 C95 C 0.72047 0.08756 1.13569
 C96 C 0.75469 0.11063 1.12588
 C97 C 0.76401 0.09347 0.98343
 C98 C 0.79924 0.07350 0.97554
 C99 C 0.81338 0.06637 0.92632
 C100 C 0.79251 0.08061 0.88453
 C101 C 0.75774 0.10245 0.89173
 C102 C 0.74308 0.10779 0.94158
 H103 H 0.79585 0.12834 1.06578
 H104 H 0.69695 0.06079 1.01509
 H105 H 0.81457 0.06167 1.00802
 H106 H 0.71611 0.12379 0.94838
 H107 H 0.70926 0.08337 1.17386
 H108 H 0.80394 0.07539 0.84656
 C109 C 0.26701 0.59639 0.55886
 C110 C 0.24544 0.57980 0.51864
 C111 C 0.20802 0.56384 0.52805
 C112 C 0.19206 0.56338 0.57728
 C113 C 0.21396 0.57895 0.61745
 C114 C 0.25092 0.59715 0.60830
 C115 C 0.26177 0.57879 0.46651
 C116 C 0.29961 0.56435 0.45851
 C117 C 0.31591 0.56238 0.40953
 C118 C 0.29368 0.57483 0.36794
 C119 C 0.25581 0.59098 0.37541
 C120 C 0.23975 0.59186 0.42497
 H121 H 0.29519 0.61042 0.55089
 H122 H 0.19159 0.55106 0.49689
 H123 H 0.31608 0.55384 0.49081
 H124 H 0.21105 0.60445 0.43210
 H125 H 0.20109 0.57879 0.65530
 H126 H 0.30673 0.57363 0.33024
 C127 C 0.73610 0.90190 0.57070
 C128 C 0.75265 0.93065 0.53908
 C129 C 0.77898 0.95818 0.55875
 C130 C 0.79168 0.95621 0.60962
 C131 C 0.77374 0.92761 0.64172
 C132 C 0.74603 0.90011 0.62241
 C133 C 0.74331 0.93167 0.48457
 C134 C 0.71501 0.95776 0.46742
 C135 C 0.70434 0.95834 0.41622
 C136 C 0.72296 0.93279 0.38148
 C137 C 0.75223 0.90646 0.39816
 C138 C 0.76215 0.90641 0.45009
 H139 H 0.71633 0.88043 0.55417
 H140 H 0.79010 0.98035 0.53287
 H141 H 0.70008 0.97669 0.49451
 H142 H 0.78357 0.88598 0.46444
 H143 H 0.78234 0.92543 0.68103
 H144 H 0.71379 0.93270 0.34217
 C145 C -0.06399 0.22862 0.36667
 C146 C -0.02426 0.23209 0.38036
 C147 C -0.00658 0.20395 0.41096
 C148 C -0.02857 0.17270 0.43045
 C149 C -0.06793 0.16841 0.41498
 C150 C -0.08648 0.19684 0.38511
 C151 C -0.00235 0.26860 0.37432
 C152 C -0.00688 0.29688 0.41212
 C153 C 0.02245 0.32512 0.41997
 C154 C 0.05661 0.32544 0.38851
 C155 C 0.06081 0.29715 0.34973
 C156 C 0.03093 0.26907 0.34295
 H157 H -0.07772 0.25214 0.34580
 H158 H 0.02346 0.20905 0.42310
 H159 H -0.03244 0.29544 0.43724
 H160 H 0.03499 0.24525 0.31609
 H161 H -0.08455 0.14258 0.42590
 H162 H 0.07970 0.34711 0.39440
 C163 C -0.03317 0.77124 0.17030
 C164 C -0.00023 0.76623 0.13975
 C165 C 0.00885 0.79287 0.10154
 C166 C -0.01578 0.82454 0.09162
 C167 C -0.05152 0.82796 0.12028
 C168 C -0.05975 0.80161 0.16086
 C169 C 0.01860 0.72826 0.13773
 C170 C 0.00298 0.70095 0.10360
 C171 C 0.02455 0.66803 0.08924
 C172 C 0.06112 0.66174 0.11284
 C173 C 0.07755 0.68998 0.14556
 C174 C 0.05568 0.72292 0.15902
 H175 H -0.04008 0.74847 0.19783
 H176 H 0.03419 0.78674 0.07771
 H177 H -0.02526 0.70695 0.08653
 H178 H 0.06903 0.74629 0.18113
 H179 H -0.07190 0.85141 0.11261
 H180 H 0.07945 0.63741 0.10142
 C181 C 0.45084 0.28232 0.63644
 C182 C 0.49111 0.27927 0.62366
 C183 C 0.50863 0.30623 0.58995
 C184 C 0.48600 0.33545 0.56829
 C185 C 0.44629 0.33910 0.58183
 C186 C 0.42811 0.31207 0.61490
 C187 C 0.51188 0.24241 0.63150
 C188 C 0.49947 0.21046 0.60292
 C189 C 0.52472 0.17925 0.59299
 C190 C 0.56175 0.17800 0.61737
 C191 C 0.57330 0.20909 0.64980
 C192 C 0.54847 0.24167 0.65524
 H193 H 0.43675 0.25964 0.65927
 H194 H 0.53906 0.30268 0.57772
 H195 H 0.47105 0.21183 0.58449
 H196 H 0.55829 0.26740 0.67596
 H197 H 0.42927 0.36230 0.56477
 H198 H 0.58154 0.15377 0.61047
 C199 C 0.45038 0.73417 0.86858
 C200 C 0.48375 0.72951 0.89826
 C201 C 0.48530 0.69962 0.93394
 C202 C 0.45146 0.67792 0.94587
 C203 C 0.41655 0.68386 0.91797
 C204 C 0.41701 0.71019 0.87656
 C205 C 0.51417 0.75977 0.89986
 C206 C 0.51365 0.78605 0.94040
 C207 C 0.54551 0.81117 0.94844
 C208 C 0.57820 0.81054 0.91494
 C209 C 0.57793 0.78503 0.87264
 C210 C 0.54574 0.75949 0.86572
 H211 H 0.45005 0.75747 0.84059
 H212 H 0.51167 0.69654 0.95668
 H213 H 0.48882 0.78600 0.96682
 H214 H 0.54587 0.73808 0.83523
 H215 H 0.39041 0.66630 0.92605
 H216 H 0.60294 0.83031 0.92093
 C217 C -0.30785 0.55851 1.00437
 C218 C -0.27209 0.57262 1.02497
 C219 C -0.27325 0.60278 1.06082
 C220 C -0.30840 0.62229 1.07150
 C221 C -0.34417 0.60721 1.05271
 C222 C -0.34484 0.57452 1.01957
 C223 C -0.23435 0.56978 0.99625
 C224 C -0.22952 0.59774 0.95777
 C225 C -0.19198 0.61005 0.94129
 C226 C -0.15904 0.58959 0.95906
 C227 C -0.16275 0.55963 0.99579
 C228 C -0.20083 0.55059 1.01546
 H229 H -0.30596 0.53643 0.97500
 H230 H -0.24554 0.61538 1.07349
 H231 H -0.25553 0.61317 0.94571
 H232 H -0.20425 0.53022 1.04678
 H233 H -0.37113 0.62225 1.06255
 H234 H -0.13026 0.59673 0.94390
 C235 C -0.29770 0.43990 0.51837
 C236 C -0.26845 0.41849 0.49238
 C237 C -0.27942 0.38864 0.45896
 C238 C -0.31867 0.37652 0.45465
 C239 C -0.34787 0.39756 0.48091
 C240 C -0.33821 0.43088 0.51146
 C241 C -0.22733 0.41674 0.50999
 C242 C -0.21947 0.38623 0.54354
 C243 C -0.18186 0.37004 0.54696
 C244 C -0.15031 0.38865 0.52039
 C245 C -0.15688 0.42195 0.48896
 C246 C -0.19619 0.43454 0.48271
 H247 H -0.28849 0.46216 0.54518
 H248 H -0.25622 0.37157 0.44127
 H249 H -0.24446 0.37191 0.56179
 H250 H -0.20320 0.45701 0.45540
 H251 H -0.37785 0.38749 0.47644
 H252 H -0.12099 0.37694 0.52399
 C253 C 0.21205 -0.05584 -0.00771
 C254 C 0.24310 -0.07539 -0.03331
 C255 C 0.23410 -0.10081 -0.07347
 C256 C 0.19474 -0.11183 -0.08310
 C257 C 0.16425 -0.09157 -0.05808
 C258 C 0.17258 -0.06298 -0.02127
 C259 C 0.28059 -0.08319 -0.00679
 C260 C 0.27751 -0.10576 0.03702
 C261 C 0.31048 -0.12340 0.05854
 C262 C 0.34767 -0.11748 0.03649
 C263 C 0.35240 -0.09101 -0.00449
 C264 C 0.31825 -0.07565 -0.02787
 H265 H 0.21845 -0.03752 0.02493
 H266 H 0.25812 -0.11729 -0.09020
 H267 H 0.24832 -0.11200 0.05259
 H268 H 0.32056 -0.05735 -0.06132
 H269 H 0.13370 -0.09884 -0.06571
 H270 H 0.37295 -0.13052 0.05443
 C271 C 0.19143 1.05209 0.49365
 C272 C 0.22572 1.07343 0.50689
 C273 C 0.22282 1.10418 0.54216
 C274 C 0.18620 1.11573 0.56161
 C275 C 0.15253 1.09350 0.55005
 C276 C 0.15485 1.06125 0.51679
 C277 C 0.26237 1.07277 0.47577
 C278 C 0.26584 1.10179 0.43828
 C279 C 0.30294 1.11685 0.42383
 C280 C 0.33704 1.09846 0.44217
 C281 C 0.33431 1.06587 0.47518
 C282 C 0.29660 1.05411 0.49324
 H283 H 0.19296 1.02956 0.46464
 H284 H 0.24871 1.12216 0.54958
 H285 H 0.23932 1.11688 0.42694
 H286 H 0.29394 1.03214 0.52282
 H287 H 0.12411 1.10238 0.56514
 H288 H 0.36568 1.10894 0.42939
 C289 C 0.16867 0.48759 0.16979
 C290 C 0.18806 0.50901 0.20764
 C291 C 0.21038 0.54204 0.19460
 C292 C 0.21340 0.55435 0.14386
 C293 C 0.19300 0.53342 0.10590
 C294 C 0.16995 0.49998 0.11892
 C295 C 0.18492 0.49650 0.26099
 C296 C 0.19851 0.45949 0.27377
 C297 C 0.19437 0.44545 0.32334
 C298 C 0.17657 0.46877 0.36067
 C299 C 0.16047 0.50545 0.34797
 C300 C 0.16614 0.51973 0.29801
 H301 H 0.15053 0.46266 0.18092
 H302 H 0.22513 0.55853 0.22429
 H303 H 0.21243 0.44156 0.24471
 H304 H 0.15422 0.54764 0.28663
 H305 H 0.19351 0.54417 0.06715
 H306 H 0.17337 0.45703 0.39868
 C307 C -0.13765 1.01961 0.20999
 C308 C -0.15872 0.99727 0.24613
 C309 C -0.17715 0.96257 0.23166
 C310 C -0.17635 0.94976 0.18101
 C311 C -0.15583 0.97257 0.14462
 C312 C -0.13441 1.00674 0.15889
 C313 C -0.16488 1.01059 0.29891
 C314 C -0.19006 1.04196 0.30824
 C315 C -0.20240 1.05158 0.35806
 C316 C -0.18782 1.02931 0.39880
 C317 C -0.16065 0.99877 0.38983
 C318 C -0.15051 0.98873 0.33971
 H319 H -0.12383 1.04659 0.22249
 H320 H -0.19418 0.94689 0.26032
 H321 H -0.20197 1.05713 0.27572
 H322 H -0.13033 0.96488 0.33232
 H323 H -0.15458 0.96199 0.10603
 H324 H -0.19540 1.03717 0.43759
 C325 C 0.33843 0.51677 -0.30925
 C326 C 0.31307 0.49582 -0.27651
 C327 C 0.28905 0.46611 -0.29574
 C328 C 0.29119 0.45615 -0.34729
 C329 C 0.31823 0.47554 -0.37967
 C330 C 0.34218 0.50645 -0.36109
 C331 C 0.31072 0.50657 -0.22238
 C332 C 0.28912 0.53956 -0.20897
 C333 C 0.29099 0.55562 -0.15973
 C334 C 0.31307 0.53545 -0.12290
 C335 C 0.33515 0.50186 -0.13582
 C336 C 0.33346 0.48745 -0.18594
 H337 H 0.35666 0.53956 -0.29280
 H338 H 0.26923 0.45019 -0.27035
 H339 H 0.27253 0.55332 -0.23877
 H340 H 0.35133 0.46285 -0.19769
 H341 H 0.32043 0.46632 -0.41901
 H342 H 0.31453 0.54645 -0.08450
 C343 C 0.64777 -0.02757 -0.32183
 C344 C 0.66674 -0.00605 -0.28327
 C345 C 0.68583 0.02926 -0.29511
 C346 C 0.68763 0.04275 -0.34524
 C347 C 0.66954 0.02089 -0.38366
 C348 C 0.64722 -0.01334 -0.37238
 C349 C 0.66800 -0.02041 -0.23037
 C350 C 0.68750 -0.05532 -0.21987
 C351 C 0.69302 -0.06733 -0.16952
 C352 C 0.67787 -0.04471 -0.12950
 C353 C 0.65611 -0.01060 -0.13936
 C354 C 0.65238 0.00199 -0.19009
 H355 H 0.63259 -0.05443 -0.31137
 H356 H 0.70038 0.04560 -0.26518
 H357 H 0.69980 -0.07235 -0.25099
 H358 H 0.63632 0.02838 -0.19883
 H359 H 0.67152 0.03230 -0.42182
 H360 H 0.68185 -0.05465 -0.09081
 C361 C -0.02336 0.20689 0.89251
 C362 C -0.02384 0.23818 0.85859
 C363 C -0.04832 0.23693 0.81656
 C364 C -0.06958 0.20299 0.80520
 C365 C -0.06795 0.17031 0.83807
 C366 C -0.04551 0.17278 0.88297
 C367 C 0.01009 0.26447 0.85606
 C368 C 0.03988 0.25477 0.82194
 C369 C 0.07253 0.27922 0.81466
 C370 C 0.07584 0.31391 0.84392
 C371 C 0.04602 0.32311 0.87983
 C372 C 0.01300 0.29824 0.88532
 H373 H -0.00280 0.20782 0.92380
 H374 H -0.04770 0.26112 0.78975
 H375 H 0.03731 0.22733 0.80137
 H376 H -0.01047 0.30518 0.91209
 H377 H -0.08451 0.14385 0.82942
 H378 H 0.10131 0.33308 0.83950
 C379 C 0.51614 0.20086 0.09189
 C380 C 0.51417 0.23575 0.11895
 C381 C 0.54110 0.24397 0.15686
 C382 C 0.56963 0.21685 0.16991
 C383 C 0.57240 0.18121 0.14218
 C384 C 0.54544 0.17331 0.10243
 C385 C 0.47924 0.25989 0.11696
 C386 C 0.44981 0.25246 0.15270
 C387 C 0.42059 0.27991 0.16261
 C388 C 0.41974 0.31483 0.13339
 C389 C 0.44907 0.32167 0.09546
 C390 C 0.47896 0.29400 0.08825
 H391 H 0.49326 0.19445 0.06455
 H392 H 0.53837 0.27117 0.17801
 H393 H 0.45103 0.22553 0.17450
 H394 H 0.50339 0.29981 0.06233
 H395 H 0.59452 0.15985 0.15191
 H396 H 0.39713 0.33646 0.14050
 C397 C 0.01708 0.71688 0.56965
 C398 C 0.01482 0.74998 0.60030
 C399 C 0.04354 0.75724 0.63652
 C400 C 0.07258 0.72960 0.64652
 C401 C 0.07483 0.69546 0.61566
 C402 C 0.04714 0.68949 0.57627
 C403 C -0.02322 0.76846 0.60870
 C404 C -0.04963 0.74813 0.64072
 C405 C -0.08037 0.76776 0.66524
 C406 C -0.08662 0.80728 0.65243
 C407 C -0.06012 0.82797 0.62120
 C408 C -0.02828 0.80844 0.59888
 H409 H -0.00678 0.71085 0.54353
 H410 H 0.04073 0.78310 0.66022
 H411 H -0.04307 0.71807 0.65040
 H412 H -0.00574 0.82473 0.57808
 H413 H 0.09702 0.67356 0.62286
 H414 H -0.11104 0.82340 0.66838
 C415 C 0.48560 0.71955 0.41799
 C416 C 0.48747 0.75156 0.38544
 C417 C 0.45846 0.75736 0.34961
 C418 C 0.42856 0.72983 0.34295
 C419 C 0.42609 0.69690 0.37580
 C420 C 0.45475 0.69211 0.41415
 C421 C 0.52415 0.77266 0.37726
 C422 C 0.55020 0.75676 0.34129
 C423 C 0.57991 0.78002 0.32042
 C424 C 0.58430 0.81889 0.33671
 C425 C 0.55760 0.83540 0.37134
 C426 C 0.52765 0.81189 0.39242
 H427 H 0.50969 0.71472 0.44402
 H428 H 0.46109 0.78227 0.32407
 H429 H 0.54603 0.72694 0.32781
 H430 H 0.50518 0.82466 0.41676
 H431 H 0.40297 0.67511 0.37092
 H432 H 0.60766 0.83689 0.32041
 B433 B -0.03770 0.01562 1.01490
 B434 B -0.05211 0.00435 0.95554
 B435 B -0.01791 0.03901 0.96459
 B436 B 0.01130 0.02597 1.01339
 B437 B -0.00603 -0.01822 1.03470
 B438 B -0.04602 -0.03125 0.99860
 B439 B 0.01839 -0.02761 0.93625
 B440 B 0.03332 -0.01574 0.99495
 B441 B -0.00175 -0.05040 0.98678
 B442 B -0.03031 -0.03750 0.93742
 B443 B -0.01288 0.00681 0.91591
 B444 B 0.02679 0.02015 0.95169
 B445 B 0.45670 0.52258 0.51592
 B446 B 0.45500 0.51968 0.45205
 B447 B 0.48281 0.55405 0.47983
 B448 B 0.50314 0.53505 0.53318
 B449 B 0.48656 0.48786 0.53740
 B450 B 0.45627 0.47859 0.48686
 B451 B 0.53008 0.49533 0.44979
 B452 B 0.53179 0.49777 0.51324
 B453 B 0.50297 0.46397 0.48538
 B454 B 0.48389 0.48284 0.43206
 B455 B 0.50022 0.53041 0.42783
 B456 B 0.53014 0.53969 0.47853
 B457 B 0.55098 0.99186 0.48850
 B458 B 0.56655 1.01376 0.43466
 B459 B 0.53442 0.97651 0.43205
 B460 B 0.50308 0.97889 0.48249
 B461 B 0.51634 1.01969 0.51634
 B462 B 0.55630 1.04098 0.48622
 B463 B 0.49405 1.04307 0.42148
 B464 B 0.47848 1.02140 0.47539
 B465 B 0.51102 1.05880 0.47799
 B466 B 0.54208 1.05618 0.42738
 B467 B 0.52863 1.01561 0.39376
 B468 B 0.48914 0.99379 0.42363
 B469 B 0.05467 0.48767 0.99689
 B470 B 0.06169 0.49762 0.93496
 B471 B 0.03105 0.46131 0.95245
 B472 B 0.00667 0.47422 1.00604
 B473 B 0.02277 0.51954 1.02200
 B474 B 0.05748 0.53429 0.97744
 B475 B -0.01212 0.52472 0.92930
 B476 B -0.02022 0.51371 0.99070
 B477 B 0.01119 0.55034 0.97472
 B478 B 0.03540 0.53763 0.92021
 B479 B 0.01894 0.49154 0.90391
 B480 B -0.01561 0.47715 0.94793
 B481 B 0.04973 0.51918 0.47733
 B482 B 0.05288 0.51572 0.54104
 B483 B 0.02274 0.54824 0.51483
 B484 B 0.00244 0.52824 0.46174
 B485 B 0.02148 0.48259 0.45601
 B486 B 0.05315 0.47509 0.50546
 B487 B -0.02063 0.48575 0.54515
 B488 B -0.02359 0.48852 0.48178
 B489 B 0.00758 0.45666 0.50773
 B490 B 0.02651 0.47649 0.56106
 B491 B 0.00771 0.52283 0.56684
 B492 B -0.02360 0.53030 0.51726
 B493 B 0.56094 0.00101 0.00903
 B494 B 0.56802 -0.00087 0.07207
 B495 B 0.53324 0.02812 0.04888
 B496 B 0.51230 0.00572 -0.00154
 B497 B 0.53493 -0.03829 -0.00869
 B498 B 0.56998 -0.04206 0.03737
 B499 B 0.49806 -0.03801 0.08417
 B500 B 0.49101 -0.03549 0.02113
 B501 B 0.52631 -0.06441 0.04445
 B502 B 0.54683 -0.04200 0.09525
 B503 B 0.52391 0.00212 0.10253
 B504 B 0.48889 0.00590 0.05645
 B505 B 0.44122 0.49394 0.00133
 B506 B 0.43162 0.49469 0.06418
 B507 B 0.46661 0.46553 0.04136
 B508 B 0.49018 0.48847 -0.00737
 B509 B 0.46890 0.53321 -0.01396
 B510 B 0.43189 0.53635 0.03078
 B511 B 0.50141 0.53017 0.08043
 B512 B 0.51160 0.52890 0.01793
 B513 B 0.47543 0.55810 0.04079
 B514 B 0.45250 0.53476 0.08966
 B515 B 0.47423 0.49024 0.09629
 B516 B 0.51089 0.48663 0.05162
 B517 B -0.06305 0.99585 0.53406
 B518 B -0.07296 1.01368 0.59281
 B519 B -0.04299 0.97514 0.58560
 B520 B -0.01564 0.98064 0.53196
 B521 B -0.02889 1.02429 0.50611
 B522 B -0.06480 1.04449 0.54412
 B523 B 0.00201 1.03962 0.59925
 B524 B 0.01212 1.02103 0.54129
 B525 B -0.01780 1.05959 0.54813
 B526 B -0.04528 1.05433 0.60193
 B527 B -0.03171 1.01082 0.62812
 B528 B 0.00414 0.99034 0.59048
 B529 B 0.75397 0.19789 0.27561
 B530 B 0.73356 0.18354 0.33143
 B531 B 0.77065 0.21619 0.33073
 B532 B 0.76628 0.24572 0.27946
 B533 B 0.72470 0.23066 0.24861
 B534 B 0.70480 0.19162 0.28138
 B535 B 0.70288 0.25569 0.34338
 B536 B 0.72319 0.26938 0.28768
 B537 B 0.68618 0.23634 0.28863
 B538 B 0.69069 0.20741 0.34036
 B539 B 0.73212 0.22269 0.37105
 B540 B 0.75244 0.26137 0.33847
 B541 B 0.74078 0.78466 0.74727
 B542 B 0.74962 0.79586 0.80829
 B543 B 0.71438 0.76341 0.79428
 B544 B 0.72873 0.73638 0.74368
 B545 B 0.77450 0.75291 0.72655
 B546 B 0.78711 0.79037 0.76704
 B547 B 0.77898 0.72408 0.82311
 B548 B 0.76893 0.71222 0.76252
 B549 B 0.80449 0.74515 0.77586
 B550 B 0.79026 0.77209 0.82684
 B551 B 0.74435 0.75536 0.84439
 B552 B 0.73144 0.71794 0.80436
 B553 B 0.26341 0.30781 0.72185
 B554 B 0.24375 0.31748 0.66514
 B555 B 0.28304 0.28842 0.66847
 B556 B 0.27951 0.26091 0.72181
 B557 B 0.23609 0.27325 0.75118
 B558 B 0.21425 0.30881 0.71536
 B559 B 0.21873 0.24277 0.65777
 B560 B 0.23867 0.23286 0.71446
 B561 B 0.19929 0.26239 0.71089
 B562 B 0.20306 0.28967 0.65753
 B563 B 0.24613 0.27707 0.62816
 B564 B 0.26826 0.24156 0.66347
 B565 B 0.24558 0.69427 0.24246
 B566 B 0.26111 0.69220 0.18177
 B567 B 0.22152 0.71877 0.19731
 B568 B 0.22874 0.73976 0.25541
 B569 B 0.27440 0.72548 0.27428
 B570 B 0.29409 0.69577 0.22809
 B571 B 0.28312 0.76835 0.18678
 B572 B 0.26869 0.76980 0.24803
 B573 B 0.30760 0.74263 0.23146
 B574 B 0.30019 0.72263 0.17357
 B575 B 0.25459 0.73673 0.15485
 B576 B 0.23451 0.76599 0.20103
 B577 B 0.25787 0.70081 0.74544
 B578 B 0.24487 0.69325 0.80673
 B579 B 0.28127 0.72489 0.79201
 B580 B 0.26989 0.74878 0.73785
 B581 B 0.22558 0.73119 0.71896
 B582 B 0.20998 0.69622 0.76202
 B583 B 0.21517 0.76566 0.81170
 B584 B 0.22844 0.77384 0.75108
 B585 B 0.19212 0.74148 0.76432
 B586 B 0.20322 0.71808 0.81938
 B587 B 0.24822 0.73598 0.83850
 B588 B 0.26356 0.77060 0.79582
 B589 B 0.22660 0.29186 0.23712
 B590 B 0.23575 0.30428 0.29797
 B591 B 0.20179 0.27018 0.28483
 B592 B 0.21734 0.24308 0.23474
 B593 B 0.26180 0.26179 0.21632
 B594 B 0.27294 0.30045 0.25584
 B595 B 0.26869 0.23431 0.31334
 B596 B 0.25923 0.22151 0.25313
 B597 B 0.29308 0.25672 0.26478
 B598 B 0.27770 0.28279 0.31589
 B599 B 0.23264 0.26397 0.33453
 B600 B 0.22140 0.22570 0.29532
 B601 B 0.76815 0.80106 0.25850
 B602 B 0.76331 0.81410 0.19699
 B603 B 0.79718 0.78146 0.21307
 B604 B 0.77919 0.75257 0.26023
 B605 B 0.73331 0.76838 0.27371
 B606 B 0.72334 0.80729 0.23421
 B607 B 0.73385 0.74277 0.17549
 B608 B 0.73970 0.72898 0.23600
 B609 B 0.70575 0.76248 0.22153
 B610 B 0.72352 0.79089 0.17340
 B611 B 0.77024 0.77462 0.15954
 B612 B 0.77996 0.73611 0.19861
 B613 B 0.74826 0.18842 0.73562
 B614 B 0.74962 0.17886 0.67287
 B615 B 0.72123 0.21488 0.69521
 B616 B 0.74470 0.23720 0.74378
 B617 B 0.78843 0.21417 0.75100
 B618 B 0.79115 0.17746 0.70675
 B619 B 0.78834 0.24714 0.65646
 B620 B 0.78636 0.25665 0.71898
 B621 B 0.81465 0.22007 0.69695
 B622 B 0.79137 0.19825 0.64776
 B623 B 0.74727 0.22158 0.64041
 B624 B 0.74451 0.25810 0.68479
 N625 N 0.46616 1.09961 0.36443
 N626 N 0.43197 1.10552 0.33607
 C627 C 0.40958 1.07256 0.33948
 C628 C 0.42838 1.04621 0.37057
 C629 C 0.46310 1.06397 0.38612
 H630 H 0.41792 1.01739 0.38173
 H631 H 0.48995 1.11919 0.36663
 H632 H 0.42711 1.13007 0.31339
 N633 N -0.04134 0.57939 0.87311
 N634 N -0.07675 0.58724 0.84877
 C635 C -0.10054 0.55560 0.85484
 C636 C -0.08139 0.52807 0.88464
 C637 C -0.04483 0.54410 0.89564
 H638 H -0.09231 0.49963 0.89678
 H639 H -0.01645 0.59769 0.87227
 H640 H -0.08117 0.61148 0.82537
 N641 N 0.04603 -0.08747 0.88533
 N642 N 0.07600 -0.09524 0.85437
 C643 C 0.09606 -0.06162 0.84457
 C644 C 0.07709 -0.03131 0.86984
 C645 C 0.04646 -0.04891 0.89655
 H646 H 0.08481 -0.00050 0.87042
 H647 H 0.02580 -0.10846 0.89854
 H648 H 0.08210 -0.12322 0.84044
 N649 N 0.60475 0.50094 0.43356
 N650 N 0.63314 0.48516 0.40631
 C651 C 0.61743 0.45883 0.37416
 C652 C 0.57671 0.45707 0.38257
 C653 C 0.56994 0.48415 0.42121
 H654 H 0.55487 0.44119 0.36076
 H655 H 0.60949 0.52382 0.45924
 H656 H 0.66235 0.49526 0.40620
 N657 N 0.53043 0.58541 0.13786
 N658 N 0.56429 0.59392 0.16015
 C659 C 0.58870 0.56316 0.15476
 C660 C 0.56909 0.53380 0.12830
 C661 C 0.53240 0.54901 0.11795
 H662 H 0.58049 0.50579 0.11594
 H663 H 0.50677 0.60470 0.13549
 H664 H 0.57009 0.62021 0.17917
 N665 N 0.03988 1.10089 0.63294
 N666 N 0.07569 1.10814 0.65704
 C667 C 0.09087 1.07314 0.67046
 C668 C 0.06422 1.04372 0.65695
 C669 C 0.03411 1.06181 0.63156
 H670 H 0.06713 1.01235 0.66083
 H671 H 0.02205 1.12247 0.61737
 H672 H 0.08792 1.13610 0.66144
 N673 N -0.09513 0.48784 0.56339
 N674 N -0.12253 0.47220 0.59275
 C675 C -0.10552 0.44789 0.62589
 C676 C -0.06494 0.44727 0.61603
 C677 C -0.05966 0.47281 0.57517
 H678 H -0.04231 0.43328 0.63812
 H679 H -0.10103 0.50959 0.53671
 H680 H -0.15201 0.48094 0.59306
 N681 N 0.46973 -0.09429 0.14191
 N682 N 0.43802 -0.10217 0.17010
 C683 C 0.41352 -0.07125 0.16877
 C684 C 0.43086 -0.04255 0.13779
 C685 C 0.46651 -0.05816 0.12160
 H686 H 0.41943 -0.01400 0.12827
 H687 H 0.49338 -0.11340 0.13723
 H688 H 0.43413 -0.12788 0.19115
 N689 N 0.37235 0.49106 0.12791
 N690 N 0.33766 0.47302 0.13120
 C691 C 0.33448 0.44815 0.09162
 C692 C 0.36855 0.44985 0.06284
 C693 C 0.39169 0.47775 0.08633
 H694 H 0.37467 0.43397 0.02810
 H695 H 0.38175 0.51319 0.15258
 H696 H 0.31588 0.47939 0.15829
 N697 N -0.12236 0.99839 0.66794
 N698 N -0.15936 0.97992 0.67196
 C699 C -0.17554 0.97946 0.62525
 C700 C -0.14985 0.99919 0.59237
 C701 C -0.11579 1.00784 0.61876
 H702 H -0.15373 1.00315 0.55263
 H703 H -0.10246 1.00123 0.69775
 H704 H -0.17008 0.96649 0.70502
 N705 N -0.10880 0.00113 0.89001
 N706 N -0.14294 0.01826 0.88148
 C707 C -0.15017 0.04366 0.91959
 C708 C -0.11925 0.04289 0.95335
 C709 C -0.09371 0.01531 0.93370
 H710 H -0.11563 0.06077 0.98696
 H711 H -0.09606 -0.01976 0.86601
 H712 H -0.16114 0.01192 0.85068
 N713 N 0.40682 0.51552 0.37562
 N714 N 0.37070 0.52693 0.36447
 C715 C 0.35681 0.54866 0.40338
 C716 C 0.38553 0.55185 0.44001
 C717 C 0.41655 0.52996 0.42168
 H718 H 0.38346 0.56723 0.47586
 H719 H 0.42384 0.49703 0.35274
 H720 H 0.35537 0.51831 0.33201
 N721 N 0.10282 0.51396 0.61546
 N722 N 0.13915 0.52637 0.62479
 C723 C 0.15159 0.54851 0.58532
 C724 C 0.12175 0.55107 0.55032
 C725 C 0.09150 0.52823 0.57009
 H726 H 0.12283 0.56649 0.51448
 H727 H 0.08683 0.49473 0.63890
 H728 H 0.15565 0.51807 0.65627
 N729 N 0.62199 0.00606 0.14120
 N730 N 0.65593 0.02487 0.14742
 C731 C 0.66275 0.04768 0.10639
 C732 C 0.63169 0.04368 0.07336
 C733 C 0.60663 0.01672 0.09625
 H734 H 0.62824 0.05830 0.03729
 H735 H 0.61017 -0.01439 0.16682
 H736 H 0.67458 0.02086 0.17831
 N737 N 0.63444 1.03380 0.39193
 N738 N 0.66988 1.01833 0.38495
 C739 C 0.66932 0.98126 0.40265
 C740 C 0.63227 0.97321 0.42212
 C741 C 0.61072 1.00710 0.41501
 H742 H 0.62332 0.94689 0.44224
 H743 H 0.62725 1.06267 0.38293
 H744 H 0.69449 1.03369 0.37102
 N745 N 0.11856 0.50738 0.86751
 N746 N 0.15313 0.49151 0.85606
 C747 C 0.15929 0.46144 0.88809
 C748 C 0.12716 0.45788 0.92051
 C749 C 0.10215 0.48775 0.90709
 H750 H 0.12335 0.43700 0.95112
 H751 H 0.10701 0.53187 0.84931
 H752 H 0.17284 0.50243 0.82863
 N753 N -0.00813 0.38271 0.52783
 N754 N -0.00310 0.34851 0.50483
 C755 C 0.01607 0.35456 0.46016
 C756 C 0.02300 0.39382 0.45433
 C757 C 0.00674 0.41108 0.49748
 H758 H 0.03667 0.40798 0.42171
 H759 H -0.02216 0.38639 0.56301
 H760 H -0.01311 0.32166 0.51935
 N761 N 0.55512 -0.13239 0.06219
 N762 N 0.56382 -0.16323 0.03388
 C763 C 0.54274 -0.16137 -0.00894
 C764 C 0.51883 -0.12895 -0.00737
 C765 C 0.52838 -0.11025 0.03775
 H766 H 0.50133 -0.11776 -0.03825
 H767 H 0.57032 -0.12470 0.09514
 H768 H 0.58510 -0.18402 0.04278
 N769 N 0.03629 -0.11512 0.99953
 N770 N 0.03275 -0.14684 1.02794
 C771 C -0.00309 -0.14711 1.05136
 C772 C -0.02310 -0.11418 1.03617
 C773 C 0.00297 -0.09436 1.00373
 H774 H -0.05133 -0.10408 1.05027
 H775 H 0.06228 -0.10682 0.98061
 H776 H 0.05596 -0.16626 1.03283
 N777 N 0.50316 0.39094 0.45666
 N778 N 0.49945 0.35652 0.47953
 C779 C 0.50283 0.36188 0.53009
 C780 C 0.50899 0.40085 0.53972
 C781 C 0.50851 0.41866 0.49250
 H782 H 0.50827 0.41487 0.57668
 H783 H 0.49861 0.39556 0.41791
 H784 H 0.49095 0.33061 0.46127
 N785 N 0.48447 1.12991 0.48425
 N786 N 0.48948 1.16091 0.51353
 C787 C 0.51252 1.15123 0.55309
 C788 C 0.52246 1.11229 0.54869
 C789 C 0.50394 1.09962 0.50445
 H790 H 0.54151 1.09572 0.57334
 H791 H 0.46875 1.13039 0.45056
 H792 H 0.47834 1.18855 0.50501
 N793 N -0.01887 0.62182 0.98025
 N794 N -0.01605 0.65295 1.01466
 C795 C 0.01179 0.64393 1.04906
 C796 C 0.02675 0.60765 1.03720
 C797 C 0.00660 0.59405 0.99492
 H798 H 0.04849 0.59165 1.05844
 H799 H -0.03842 0.62108 0.95008
 H800 H -0.03202 0.67884 1.01162
 N801 N 0.43806 0.62126 0.05768
 N802 N 0.42597 0.65027 0.02421
 C803 C 0.45316 0.65243 -0.01302
 C804 C 0.48288 0.62549 -0.00441
 C805 C 0.47090 0.60420 0.03808
 H806 H 0.50587 0.61752 -0.03131
 H807 H 0.41966 0.60981 0.08623
 H808 H 0.40008 0.66648 0.02777
 N809 N 0.02889 1.11554 0.51601
 N810 N 0.02562 1.14561 0.48041
 C811 C -0.01279 1.14785 0.46744
 C812 C -0.03426 1.12097 0.49578
 C813 C -0.00753 1.10064 0.52440
 H814 H -0.06554 1.11485 0.49407
 H815 H 0.05552 1.10494 0.52963
 H816 H 0.04976 1.16060 0.46461
 N817 N 0.83925 0.69380 0.86830
 N818 N 0.84713 0.66158 0.89895
 C819 C 0.81240 0.64369 0.91027
 C820 C 0.78212 0.66479 0.88772
 C821 C 0.80006 0.69486 0.86058
 H822 H 0.75079 0.65856 0.88843
 H823 H 0.86069 0.71334 0.85462
 H824 H 0.87536 0.65441 0.91108
 N825 N 0.32352 0.21293 0.37589
 N826 N 0.33431 0.17931 0.40239
 C827 C 0.30542 0.15228 0.39637
 C828 C 0.27669 0.16770 0.36471
 C829 C 0.28955 0.20520 0.35159
 H830 H 0.24996 0.15330 0.35199
 H831 H 0.33901 0.23954 0.37651
 H832 H 0.35855 0.17770 0.42646
 N833 N 0.64873 0.28214 0.40733
 N834 N 0.64319 0.31401 0.43550
 C835 C 0.67239 0.34015 0.42528
 C836 C 0.69694 0.32407 0.38877
 C837 C 0.68125 0.28740 0.37807
 H838 H 0.72392 0.33663 0.37332
 H839 H 0.63143 0.25669 0.40981
 H840 H 0.62110 0.31667 0.46324
 N841 N 0.16083 0.79556 0.87040
 N842 N 0.15457 0.83063 0.89657
 C843 C 0.18666 0.85380 0.88905
 C844 C 0.21278 0.83461 0.85670
 C845 C 0.19559 0.79866 0.84549
 H846 H 0.24129 0.84502 0.84329
 H847 H 0.14286 0.77063 0.87344
 H848 H 0.13121 0.83512 0.92203
 N849 N 0.27067 0.84142 0.17263
 N850 N 0.27904 0.87121 0.13892
 C851 C 0.30514 0.85758 0.10489
 C852 C 0.31594 0.81922 0.11786
 C853 C 0.29303 0.80988 0.16085
 H854 H 0.33340 0.79918 0.09523
 H855 H 0.24676 0.84298 0.19774
 H856 H 0.26433 0.89801 0.13842
 N857 N 0.84408 0.27411 0.59533
 N858 N 0.85234 0.30646 0.56915
 C859 C 0.82217 0.33176 0.57442
 C860 C 0.79355 0.31407 0.60546
 C861 C 0.80834 0.27765 0.61787
 H862 H 0.76584 0.32603 0.61863
 H863 H 0.86287 0.25010 0.59788
 H864 H 0.87799 0.31055 0.54739
 N865 N 0.16418 0.21437 0.59853
 N866 N 0.15494 0.18081 0.57619
 C867 C 0.18277 0.15423 0.58703
 C868 C 0.21078 0.17174 0.61776
 C869 C 0.19754 0.20969 0.62524
 H870 H 0.23768 0.15889 0.63163
 H871 H 0.14792 0.24009 0.59512
 H872 H 0.13101 0.17690 0.55192
 N873 N 0.68225 0.72336 0.10762
 N874 N 0.66973 0.69152 0.08383
 C875 C 0.69381 0.66164 0.09510
 C876 C 0.72330 0.67544 0.12686
 C877 C 0.71434 0.71446 0.13505
 H878 H 0.74706 0.65900 0.14352
 H879 H 0.66822 0.75047 0.10604
 H880 H 0.64554 0.69074 0.05956
 N881 N 0.28079 0.63415 0.12004
 N882 N 0.26732 0.59845 0.10900
 C883 C 0.23284 0.59253 0.13400
 C884 C 0.22441 0.62551 0.16185
 C885 C 0.25527 0.65149 0.15256
 H886 H 0.20001 0.62872 0.18832
 H887 H 0.30787 0.64556 0.10744
 H888 H 0.28280 0.57776 0.08755
 N889 N 0.74123 0.12534 0.60360
 N890 N 0.72570 0.08979 0.59923
 C891 C 0.70688 0.08071 0.64309
 C892 C 0.70995 0.11201 0.67616
 C893 C 0.73235 0.13962 0.65014
 H894 H 0.69788 0.11385 0.71421
 H895 H 0.75863 0.13895 0.57562
 H896 H 0.72934 0.07176 0.56742
 N897 N 0.72862 0.12563 0.39738
 N898 N 0.74856 0.09044 0.40620
 C899 C 0.77222 0.08373 0.36558
 C900 C 0.76853 0.11445 0.33192
 C901 C 0.74117 0.14017 0.35222
 H902 H 0.78774 0.11929 0.29981
 H903 H 0.70986 0.13934 0.42349
 H904 H 0.74462 0.07276 0.43828
 N905 N 0.26534 0.65164 0.88484
 N906 N 0.27847 0.61359 0.89379
 C907 C 0.27457 0.59297 0.85016
 C908 C 0.25753 0.61726 0.81409
 C909 C 0.25383 0.65379 0.83607
 H910 H 0.25091 0.61038 0.77530
 H911 H 0.26712 0.67465 0.91096
 H912 H 0.29161 0.60493 0.92760
 N913 N 0.21784 0.38355 0.62873
 N914 N 0.23085 0.42018 0.62457
 C915 C 0.26954 0.42120 0.63576
 C916 C 0.28130 0.38406 0.64811
 C917 C 0.24790 0.36069 0.64345
 H918 H 0.30908 0.37653 0.66528
 H919 H 0.18828 0.37508 0.62548
 H920 H 0.21281 0.44436 0.61841
 N921 N 0.77613 0.86574 0.12593
 N922 N 0.79432 0.90255 0.12127
 C923 C 0.80478 0.91419 0.16832
 C924 C 0.79432 0.88508 0.20275
 C925 C 0.77634 0.85552 0.17545
 H926 H 0.80194 0.88441 0.24227
 H927 H 0.76579 0.84891 0.09557
 H928 H 0.79754 0.91793 0.08716
 N929 N 0.75678 0.85534 0.86999
 N930 N 0.74151 0.89065 0.87611
 C931 C 0.71376 0.89583 0.84052
 C932 C 0.71070 0.86239 0.81146
 C933 C 0.73884 0.83747 0.83058
 H934 H 0.69085 0.85742 0.78016
 H935 H 0.77966 0.84417 0.89180
 H936 H 0.75107 0.91121 0.90287
 N937 N 0.23810 0.35741 0.36835
 N938 N 0.22687 0.39405 0.37536
 C939 C 0.20655 0.40524 0.33432
 C940 C 0.20383 0.37436 0.30061
 C941 C 0.22494 0.34478 0.32282
 H942 H 0.18935 0.37433 0.26427
 H943 H 0.25564 0.34191 0.39368
 H944 H 0.23479 0.41147 0.40639
 N945 N 0.12730 0.23567 0.71202
 N946 N 0.09435 0.24247 0.73737
 C947 C 0.10224 0.26661 0.77678
 C948 C 0.14198 0.27531 0.77647
 C949 C 0.15701 0.25520 0.73454
 H950 H 0.15765 0.29465 0.80212
 H951 H 0.12864 0.21823 0.67966
 H952 H 0.06690 0.23136 0.72647
 N953 N 0.63111 0.73798 0.21354
 N954 N 0.59854 0.74195 0.24151
 C955 C 0.60713 0.76468 0.28195
 C956 C 0.64578 0.77512 0.27991
 C957 C 0.66064 0.75790 0.23640
 H958 H 0.66113 0.79341 0.30717
 H959 H 0.63249 0.72196 0.17986
 H960 H 0.57097 0.73020 0.23221
 N961 N 0.61196 0.25457 0.28503
 N962 N 0.58170 0.24689 0.25520
 C963 C 0.59454 0.22703 0.21380
 C964 C 0.63462 0.22248 0.21710
 C965 C 0.64478 0.24041 0.26287
 H966 H 0.65375 0.20762 0.19021
 H967 H 0.60971 0.26843 0.32028
 H968 H 0.55265 0.25478 0.26362
 N969 N 0.11768 0.76254 0.76281
 N970 N 0.08711 0.75812 0.73248
 C971 C 0.09791 0.73673 0.69139
 C972 C 0.13691 0.72687 0.69634
 C973 C 0.14882 0.74414 0.74200
 H974 H 0.15462 0.71045 0.66939
 H975 H 0.11683 0.77867 0.79634
 H976 H 0.05934 0.76987 0.74019
 N977 N 0.86662 0.70458 0.75134
 N978 N 0.89702 0.71098 0.71593
 C979 C 0.89729 0.74958 0.70421
 C980 C 0.86948 0.76812 0.73410
 C981 C 0.84914 0.73924 0.76038
 H982 H 0.86144 0.79864 0.73303
 H983 H 0.85700 0.67698 0.76353
 H984 H 0.91296 0.68850 0.69866
 N985 N 0.36859 0.24002 0.27071
 N986 N 0.40131 0.24834 0.24506
 C987 C 0.39252 0.27064 0.20440
 C988 C 0.35255 0.27687 0.20448
 C989 C 0.33803 0.25674 0.24709
 H990 H 0.33604 0.29276 0.17627
 H991 H 0.36787 0.22218 0.30266
 H992 H 0.42912 0.23815 0.25516
 N993 N 0.38264 0.75751 0.22603
 N994 N 0.41399 0.75139 0.25432
 C995 C 0.40222 0.73638 0.29963
 C996 C 0.36190 0.73352 0.30054
 C997 C 0.35035 0.74725 0.25314
 H998 H 0.34357 0.72246 0.33139
 H999 H 0.38358 0.76755 0.18852
 H1000 H 0.44298 0.75708 0.24238
 N1001 N 0.88054 0.18447 0.68832
 N1002 N 0.90825 0.17617 0.72155
 C1003 C 0.90718 0.20331 0.75848
 C1004 C 0.87879 0.23062 0.74757
 C1005 C 0.86069 0.21668 0.70402
 H1006 H 0.86819 0.25304 0.77332
 H1007 H 0.87216 0.16540 0.65915
 H1008 H 0.92590 0.15123 0.72025
 N1009 N 0.56858 0.94114 0.55828
 N1010 N 0.59516 0.94113 0.59865
 C1011 C 0.62207 0.97003 0.59030
 C1012 C 0.61426 0.98676 0.54328
 C1013 C 0.57986 0.96954 0.52555
 H1014 H 0.62768 1.01274 0.52696
 H1015 H 0.54151 0.92624 0.55859
 H1016 H 0.59082 0.92467 0.63166
 N1017 N 0.09590 0.44164 1.05652
 N1018 N 0.12673 0.44499 1.08683
 C1019 C 0.14250 0.48135 1.08212
 C1020 C 0.12103 0.50146 1.04654
 C1021 C 0.09112 0.47571 1.03157
 H1022 H 0.12425 0.53220 1.03702
 H1023 H 0.07759 0.41701 1.05539
 H1024 H 0.13548 0.42316 1.11203
 N1025 N -0.05389 0.05637 1.09600
 N1026 N -0.08049 0.05254 1.13669
 C1027 C -0.10813 0.02552 1.12392
 C1028 C -0.10068 0.01390 1.07390
 C1029 C -0.06603 0.03267 1.05815
 H1030 H -0.11526 -0.00927 1.05305
 H1031 H -0.02615 0.06966 1.09902
 H1032 H -0.07546 0.06475 1.17244
 N1033 N 0.42136 0.56375 0.58534
 N1034 N 0.39046 0.55840 0.62006
 C1035 C 0.37116 0.52493 0.60784
 C1036 C 0.38869 0.50928 0.56418
 C1037 C 0.42062 0.53375 0.55207
 H1038 H 0.38234 0.48107 0.54707
 H1039 H 0.44364 0.58470 0.58950
 H1040 H 0.38504 0.57718 0.65063
 N1041 N 0.40968 0.44809 -0.06839
 N1042 N 0.38200 0.45044 -0.10345
 C1043 C 0.36349 0.48516 -0.09875
 C1044 C 0.38004 0.50522 -0.05830
 C1045 C 0.40952 0.48109 -0.04014
 H1046 H 0.37388 0.53490 -0.04628
 H1047 H 0.42917 0.42480 -0.06559
 H1048 H 0.37696 0.42892 -0.13094
 N1049 N -0.09795 0.94446 0.47373
 N1050 N -0.12335 0.94571 0.43565
 C1051 C -0.13796 0.98230 0.43242
 C1052 C -0.12059 1.00503 0.46906
 C1053 C -0.09559 0.98029 0.49533
 H1054 H -0.12357 1.03646 0.47329
 H1055 H -0.08087 0.92014 0.48244
 H1056 H -0.12910 0.92236 0.41101
 N1057 N 0.08548 0.56325 0.40934
 N1058 N 0.11454 0.55942 0.37576
 C1059 C 0.13339 0.52543 0.38452
 C1060 C 0.11579 0.50773 0.42655
 C1061 C 0.08509 0.53206 0.44072
 H1062 H 0.12100 0.47864 0.44113
 H1063 H 0.06461 0.58540 0.40777
 H1064 H 0.11920 0.57871 0.34548
 N1065 N 0.59150 0.04756 -0.06096
 N1066 N 0.61626 0.04399 -0.09997
 C1067 C 0.63404 0.00884 -0.09728
 C1068 C 0.62056 -0.00999 -0.05384
 C1069 C 0.59293 0.01491 -0.03218
 H1070 H 0.62592 -0.04010 -0.04322
 H1071 H 0.57224 0.07091 -0.05662
 H1072 H 0.61902 0.06457 -0.12918
 N1073 N 0.57550 0.51865 -0.03526
 N1074 N 0.61527 0.52929 -0.03224
 C1075 C 0.61862 0.55929 0.00103
 C1076 C 0.58043 0.56905 0.01779
 C1077 C 0.55439 0.54186 -0.00379
 H1078 H 0.57271 0.59046 0.04636
 H1079 H 0.56537 0.49345 -0.05379
 H1080 H 0.63776 0.51396 -0.05059
 N1081 N 0.06042 1.03850 0.46643
 N1082 N 0.09813 1.04790 0.45973
 C1083 C 0.11766 1.04088 0.50304
 C1084 C 0.09103 1.02557 0.53827
 C1085 C 0.05461 1.02558 0.51447
 H1086 H 0.09732 1.01898 0.57726
 H1087 H 0.03855 1.04412 0.43978
 H1088 H 0.10935 1.06256 0.42778
 N1089 N 0.08492 -0.05076 1.05192
 N1090 N 0.12204 -0.06231 1.04796
 C1091 C 0.13900 -0.04538 1.00682
 C1092 C 0.11130 -0.02156 0.98440
 C1093 C 0.07683 -0.02665 1.01286
 H1094 H 0.11489 -0.00619 0.94888
 H1095 H 0.06460 -0.06218 1.07826
 H1096 H 0.13420 -0.08453 1.06999
 N1097 N 0.59971 0.50826 0.55904
 N1098 N 0.63659 0.48995 0.55579
 C1099 C 0.63151 0.45455 0.53337
 C1100 C 0.59151 0.44939 0.52534
 C1101 C 0.57237 0.48387 0.53913
 H1102 H 0.57930 0.42658 0.50241
 H1103 H 0.59588 0.53803 0.56681
 H1104 H 0.66326 0.50434 0.56297
 N1105 N -0.09093 0.49559 0.43566
 N1106 N -0.12626 0.47874 0.43959
 C1107 C -0.12314 0.44381 0.46352
 C1108 C -0.08333 0.43794 0.47243
 C1109 C -0.06378 0.47224 0.45677
 H1110 H -0.07157 0.41550 0.49646
 H1111 H -0.08639 0.52461 0.42418
 H1112 H -0.15224 0.49311 0.43029
 N1113 N 0.43702 -0.03579 -0.04834
 N1114 N 0.40117 -0.05036 -0.05532
 C1115 C 0.39263 -0.07589 -0.01755
 C1116 C 0.42528 -0.07807 0.01387
 C1117 C 0.45235 -0.05145 -0.00591
 H1118 H 0.42770 -0.09412 0.04894
 H1119 H 0.44974 -0.01380 -0.07093
 H1120 H 0.38249 -0.04113 -0.08414
 N1121 N 0.40912 0.99476 0.50375
 N1122 N 0.37188 1.00624 0.50278
 C1123 C 0.37076 1.04466 0.49079
 C1124 C 0.40946 1.05811 0.48574
 C1125 C 0.43314 1.02545 0.49281
 H1126 H 0.41886 1.08672 0.47294
 H1127 H 0.41765 0.96561 0.50806
 H1128 H 0.34771 0.98718 0.50634
 N1129 N -0.08768 0.49023 1.03006
 N1130 N -0.12497 0.50179 1.02984
 C1131 C -0.12633 0.53915 1.01338
 C1132 C -0.08772 0.55179 1.00480
 C1133 C -0.06382 0.51984 1.01411
 H1134 H -0.07883 0.57892 0.98767
 H1135 H -0.07918 0.46131 1.03657
 H1136 H -0.14911 0.48318 1.03656
 N1137 N 0.02370 0.61920 0.48034
 N1138 N 0.03248 0.65510 0.49539
 C1139 C 0.04560 0.65405 0.54361
 C1140 C 0.04565 0.61522 0.55960
 C1141 C 0.03151 0.59395 0.51810
 H1142 H 0.05184 0.60432 0.59729
 H1143 H 0.01068 0.61259 0.44551
 H1144 H 0.02731 0.68016 0.47374
 N1145 N 0.52532 0.09755 0.01181
 N1146 N 0.53051 0.13455 0.02477
 C1147 C 0.54480 0.13640 0.07241
 C1148 C 0.54970 0.09835 0.09008
 C1149 C 0.53697 0.07448 0.05018
 H1150 H 0.55857 0.08930 0.12767
 H1151 H 0.51258 0.08853 -0.02230
 H1152 H 0.52285 0.15811 0.00165
 N1153 N -0.02662 0.11155 0.99015
 N1154 N -0.03536 0.14546 0.96933
 C1155 C -0.04214 0.14001 0.91940
 C1156 C -0.03791 0.10049 0.90811
 C1157 C -0.02768 0.08348 0.95419
 H1158 H -0.03977 0.08649 0.87125
 H1159 H -0.01888 0.10823 1.02813
 H1160 H -0.03550 0.17207 0.98904
 N1161 N 0.47816 0.62537 0.51337
 N1162 N 0.46864 0.66054 0.49691
 C1163 C 0.45613 0.65782 0.44851
 C1164 C 0.45751 0.61878 0.43378
 C1165 C 0.47166 0.59904 0.47617
 H1166 H 0.45262 0.60698 0.39612
 H1167 H 0.49119 0.62014 0.54847
 H1168 H 0.47323 0.68636 0.51754
 N1169 N 0.56395 0.93903 0.35681
 N1170 N 0.57049 0.90299 0.34163
 C1171 C 0.55785 0.87815 0.37816
 C1172 C 0.54242 0.89950 0.41869
 C1173 C 0.54713 0.93815 0.40352
 H1174 H 0.52912 0.88861 0.45356
 H1175 H 0.57065 0.96370 0.33472
 H1176 H 0.58187 0.89599 0.30574
 N1177 N 0.03305 0.38952 0.98225
 N1178 N 0.03867 0.35411 0.96382
 C1179 C 0.04867 0.35697 0.91434
 C1180 C 0.05000 0.39634 0.90073
 C1181 C 0.03984 0.41614 0.94524
 H1182 H 0.05390 0.40857 0.86303
 H1183 H 0.02204 0.39482 1.01882
 H1184 H 0.03297 0.32830 0.98409
 N1185 N 0.47399 0.39579 0.00411
 N1186 N 0.46765 0.35898 0.01742
 C1187 C 0.45161 0.35794 0.06458
 C1188 C 0.44710 0.39613 0.08169
 C1189 C 0.46167 0.41936 0.04201
 H1190 H 0.43733 0.40564 0.11899
 H1191 H 0.48795 0.40434 -0.02975
 H1192 H 0.47578 0.33497 -0.00492
 N1193 N -0.06463 0.92835 0.65712
 N1194 N -0.06949 0.89069 0.66572
 C1195 C -0.06168 0.87096 0.62256
 C1196 C -0.05154 0.89739 0.58445
 C1197 C -0.05465 0.93379 0.60789
 H1198 H -0.04153 0.89094 0.54620
 H1199 H -0.06543 0.94936 0.68584
 H1200 H -0.07556 0.87878 0.70158
 N1201 N 0.18620 0.30951 0.15700
 N1202 N 0.19137 0.33579 0.11674
 C1203 C 0.21939 0.36224 0.13001
 C1204 C 0.23028 0.35451 0.17984
 C1205 C 0.21015 0.32072 0.19501
 H1206 H 0.25420 0.36794 0.20060
 H1207 H 0.17227 0.28229 0.15320
 H1208 H 0.17907 0.33129 0.08101
 N1209 N 0.69795 0.81352 0.67394
 N1210 N 0.69955 0.84358 0.64212
 C1211 C 0.73031 0.86717 0.65436
 C1212 C 0.74833 0.85147 0.69654
 C1213 C 0.72723 0.81724 0.70784
 H1214 H 0.77522 0.86172 0.71420
 H1215 H 0.67846 0.78989 0.67030
 H1216 H 0.68048 0.84678 0.61153
 N1217 N 0.30842 0.66346 0.68555
 N1218 N 0.30604 0.63632 0.64943
 C1219 C 0.26884 0.62183 0.64858
 C1220 C 0.24719 0.64055 0.68555
 C1221 C 0.27281 0.66691 0.70841
 H1222 H 0.21565 0.63813 0.69164
 H1223 H 0.33349 0.68055 0.69207
 H1224 H 0.32915 0.62931 0.62457
 N1225 N 0.80449 0.18174 0.20358
 N1226 N 0.80294 0.15822 0.15999
 C1227 C 0.77215 0.13296 0.16537
 C1228 C 0.75542 0.13880 0.21311
 C1229 C 0.77501 0.17032 0.23512
 H1230 H 0.72832 0.12607 0.22775
 H1231 H 0.82137 0.20740 0.20657
 H1232 H 0.82035 0.16323 0.12768
 N1233 N 0.70027 0.16126 0.80664
 N1234 N 0.70333 0.13909 0.84773
 C1235 C 0.73920 0.12221 0.84767
 C1236 C 0.75909 0.13358 0.80391
 C1237 C 0.73398 0.15902 0.77918
 H1238 H 0.78976 0.12829 0.79459
 H1239 H 0.67635 0.17935 0.79967
 H1240 H 0.68177 0.13734 0.87630
 N1241 N 0.19641 0.65449 0.29961
 N1242 N 0.19949 0.62729 0.33523
 C1243 C 0.23617 0.61209 0.33324
 C1244 C 0.25639 0.62961 0.29335
 C1245 C 0.23091 0.65726 0.27398
 H1246 H 0.28764 0.62745 0.28518
 H1247 H 0.17238 0.67323 0.29629
 H1248 H 0.17771 0.62175 0.36268
 N1249 N 0.80810 0.82962 0.33609
 N1250 N 0.80353 0.85678 0.37170
 C1251 C 0.77020 0.87699 0.36287
 C1252 C 0.75332 0.86194 0.31920
 C1253 C 0.77809 0.83172 0.30304
 H1254 H 0.72535 0.87019 0.30311
 H1255 H 0.83055 0.80902 0.33629
 H1256 H 0.82267 0.86047 0.40220
 N1257 N 0.31222 0.33845 0.78730
 N1258 N 0.30938 0.36388 0.82530
 C1259 C 0.27537 0.38402 0.82111
 C1260 C 0.25704 0.37165 0.77716
 C1261 C 0.28036 0.34171 0.75751
 H1262 H 0.22734 0.37870 0.76582
 H1263 H 0.33371 0.31675 0.78479
 H1264 H 0.32913 0.36501 0.85546
 N1265 N 0.78680 0.31314 0.78482
 N1266 N 0.80034 0.34944 0.78880
 C1267 C 0.82541 0.35688 0.74968
 C1268 C 0.82876 0.32288 0.72088
 C1269 C 0.80273 0.29623 0.74318
 H1270 H 0.84561 0.31903 0.68632
 H1271 H 0.76514 0.30110 0.80883
 H1272 H 0.79063 0.36891 0.81675
 N1273 N 0.24988 0.83514 0.29547
 N1274 N 0.26545 0.87345 0.29518
 C1275 C 0.30274 0.87231 0.27635
 C1276 C 0.31215 0.83300 0.26894
 C1277 C 0.27782 0.81061 0.27775
 H1278 H 0.33847 0.82259 0.25035
 H1279 H 0.21984 0.82849 0.29914
 H1280 H 0.24822 0.89836 0.30037
 N1281 N 0.25054 0.84060 0.71232
 N1282 N 0.23855 0.87741 0.71501
 C1283 C 0.20107 0.87796 0.73267
 C1284 C 0.18848 0.83932 0.73907
 C1285 C 0.22109 0.81639 0.72788
 H1286 H 0.16134 0.82937 0.75675
 H1287 H 0.27976 0.83267 0.70511
 H1288 H 0.25719 0.90163 0.70959
 N1289 N 0.74754 0.33416 0.24504
 N1290 N 0.73584 0.37086 0.24028
 C1291 C 0.69859 0.37379 0.25825
 C1292 C 0.68578 0.33680 0.27350
 C1293 C 0.71804 0.31257 0.26592
 H1294 H 0.65804 0.32931 0.29191
 H1295 H 0.77616 0.32475 0.23693
 H1296 H 0.75425 0.39391 0.22846
 N1297 N 0.75604 0.65927 0.26925
 N1298 N 0.74223 0.62301 0.26456
 C1299 C 0.70593 0.62399 0.24397
 C1300 C 0.69621 0.66314 0.23693
 C1301 C 0.72912 0.68477 0.25204
 H1302 H 0.67077 0.67406 0.21766
 H1303 H 0.78480 0.66608 0.28037
 H1304 H 0.75889 0.59817 0.27223
 N1305 N 0.26713 0.16464 0.73814
 N1306 N 0.25393 0.12802 0.74171
 C1307 C 0.21419 0.12822 0.74196
 C1308 C 0.20200 0.16697 0.74053
 C1309 C 0.23621 0.18928 0.73633
 H1310 H 0.17223 0.17712 0.73639
 H1311 H 0.29678 0.17219 0.73230
 H1312 H 0.27189 0.10337 0.73905
 N1313 N 0.24289 0.15146 0.22029
 N1314 N 0.25853 0.11614 0.22340
 C1315 C 0.29603 0.11969 0.23960
 C1316 C 0.30456 0.15939 0.24512
 C1317 C 0.26992 0.17862 0.23415
 H1318 H 0.33059 0.17244 0.26129
 H1319 H 0.21307 0.15644 0.21325
 H1320 H 0.24247 0.09014 0.21867
 N1321 N 0.80016 0.66211 0.69893
 N1322 N 0.81206 0.62523 0.70018
 C1323 C 0.79771 0.60802 0.74269
 C1324 C 0.77510 0.63501 0.76872
 C1325 C 0.77852 0.66955 0.74114
 H1326 H 0.76166 0.63080 0.80558
 H1327 H 0.81004 0.68271 0.67221
 H1328 H 0.83292 0.61342 0.67513
 N1329 N 0.86594 0.78042 0.25224
 N1330 N 0.90489 0.78792 0.23873
 C1331 C 0.90574 0.80224 0.19095
 C1332 C 0.86699 0.80601 0.17395
 C1333 C 0.84304 0.79099 0.21321
 H1334 H 0.85771 0.81362 0.13599
 H1335 H 0.85747 0.76477 0.28468
 H1336 H 0.92890 0.78070 0.26137
 N1337 N 0.32428 0.31681 0.59476
 N1338 N 0.36123 0.32332 0.58141
 C1339 C 0.38470 0.31181 0.61945
 C1340 C 0.36137 0.29724 0.65915
 C1341 C 0.32303 0.30137 0.64196
 H1342 H 0.37084 0.28479 0.69477
 H1343 H 0.30041 0.32246 0.57114
 H1344 H 0.36990 0.33396 0.54575
 N1345 N 0.35526 0.72697 0.76927
 N1346 N 0.38982 0.72334 0.79106
 C1347 C 0.38424 0.71284 0.83998
 C1348 C 0.34397 0.70895 0.84945
 C1349 C 0.32651 0.71827 0.80330
 H1350 H 0.32960 0.70310 0.88555
 H1351 H 0.35175 0.73717 0.73219
 H1352 H 0.41672 0.72894 0.77261
 N1353 N 0.81022 0.18314 0.40054
 N1354 N 0.84890 0.17654 0.41407
 C1355 C 0.87243 0.19489 0.37982
 C1356 C 0.84911 0.21305 0.34329
 C1357 C 0.81031 0.20410 0.35714
 H1358 H 0.85890 0.23028 0.31094
 H1359 H 0.78600 0.17470 0.42289
 H1360 H 0.85679 0.16324 0.44818
 N1361 N 0.13021 0.27142 0.25312
 N1362 N 0.09454 0.28083 0.26880
 C1363 C 0.09636 0.29387 0.31706
 C1364 C 0.13552 0.29330 0.33253
 C1365 C 0.15608 0.27854 0.29062
 H1366 H 0.14700 0.29995 0.36984
 H1367 H 0.13611 0.25863 0.21788
 H1368 H 0.06910 0.27647 0.24734
 N1369 N 0.64169 0.76586 0.76687
 N1370 N 0.60662 0.77249 0.78698
 C1371 C 0.61101 0.78316 0.83595
 C1372 C 0.65085 0.78402 0.84724
 C1373 C 0.66932 0.77252 0.80232
 H1374 H 0.66426 0.78906 0.88387
 H1375 H 0.64610 0.75474 0.73031
 H1376 H 0.58012 0.76807 0.76778
 N1377 N 0.65292 0.22988 0.73422
 N1378 N 0.61520 0.22749 0.72297
 C1379 C 0.61123 0.20983 0.67745
 C1380 C 0.64860 0.19992 0.65920
 C1381 C 0.67438 0.21341 0.69657
 H1382 H 0.65615 0.18747 0.62254
 H1383 H 0.66364 0.24390 0.76667
 H1384 H 0.59266 0.23911 0.74562
 N1385 N 0.18038 0.69454 0.12227
 N1386 N 0.14414 0.68497 0.11018
 C1387 C 0.12058 0.69108 0.15065
 C1388 C 0.14310 0.70512 0.19102
 C1389 C 0.18135 0.70616 0.17143
 H1390 H 0.13303 0.71428 0.22832
 H1391 H 0.20388 0.69344 0.09631
 H1392 H 0.13563 0.67661 0.07363
   
