data_POSCAR
  _audit_creation_date              2014-09-24
  _audit_creation_method            'ToBaCCo'
  _symmetry_space_group_name_H-M    'P1'
  _symmetry_Int_Tables_number       1
  _symmetry_cell_setting            triclinic
  loop_
  _symmetry_equiv_pos_as_xyz
 x,y,z
_cell_length_a 53.7676
_cell_length_b 56.5900
_cell_length_c 53.0423
_cell_angle_alpha 89.973100
_cell_angle_beta 89.586600
_cell_angle_gamma 90.498500
loop_
  _atom_site_label
  _atom_site_type_symbol
  _atom_site_fract_x
  _atom_site_fract_y
  _atom_site_fract_z
N1 N 0.37969 0.31417 0.32110
 N2 N 0.37775 0.32800 0.30126
 C3 C 0.39165 0.31932 0.28226
 C4 C 0.40326 0.29942 0.29106
 C5 C 0.39552 0.29651 0.31574
 H6 H 0.39313 0.32687 0.26356
 H7 H 0.39994 0.28211 0.32831
 Cu8 Cu 0.35787 0.35640 0.30245
 Cu9 Cu 0.35919 0.31891 0.35111
 Cu10 Cu 0.31027 0.35805 0.34346
 N11 N 0.33302 0.38086 0.30067
 N12 N 0.31503 0.38221 0.31755
 C13 C 0.29967 0.39986 0.31115
 C14 C 0.30855 0.40978 0.28901
 C15 C 0.32939 0.39712 0.28257
 H16 H 0.28215 0.40361 0.32039
 H17 H 0.34019 0.39866 0.26536
 N18 N 0.30991 0.33245 0.36871
 N19 N 0.32921 0.31868 0.37280
 C20 C 0.32281 0.30219 0.39009
 C21 C 0.29828 0.30576 0.39673
 C22 C 0.29054 0.32485 0.38288
 H23 H 0.33430 0.28747 0.39554
 H24 H 0.27191 0.33186 0.38223
 H25 H 0.33151 0.33114 0.32781
 H26 H 0.34719 0.35400 0.34762
 N27 N 0.37669 0.80838 -0.17918
 N28 N 0.37760 0.82074 -0.20023
 C29 C 0.39934 0.81684 -0.21219
 C30 C 0.41236 0.80111 -0.19778
 C31 C 0.39788 0.79603 -0.17694
 H32 H 0.40544 0.82539 -0.22944
 H33 H 0.40249 0.78467 -0.16129
 Cu34 Cu 0.35148 0.84243 -0.20891
 Cu35 Cu 0.34796 0.80912 -0.15649
 Cu36 Cu 0.30088 0.84786 -0.17250
 N37 N 0.33147 0.87070 -0.20997
 N38 N 0.31164 0.87302 -0.19549
 C39 C 0.30183 0.89458 -0.19923
 C40 C 0.31653 0.90597 -0.21692
 C41 C 0.33521 0.89066 -0.22337
 H42 H 0.28580 0.90154 -0.18938
 H43 H 0.35065 0.89392 -0.23613
 N44 N 0.29842 0.82591 -0.14365
 N45 N 0.31693 0.81220 -0.13660
 C46 C 0.30944 0.79906 -0.11667
 C47 C 0.28510 0.80479 -0.11126
 C48 C 0.27853 0.82161 -0.12870
 H49 H 0.32010 0.78515 -0.10803
 H50 H 0.26042 0.82948 -0.13090
 H51 H 0.32243 0.81879 -0.18298
 H52 H 0.33763 0.84335 -0.16528
 N53 N 0.87099 0.30719 -0.19020
 N54 N 0.86450 0.31993 -0.20980
 C55 C 0.87981 0.31522 -0.22931
 C56 C 0.89710 0.29921 -0.22113
 C57 C 0.89106 0.29427 -0.19634
 H58 H 0.87801 0.32231 -0.24815
 H59 H 0.89923 0.28088 -0.18452
 Cu60 Cu 0.83641 0.34111 -0.20832
 Cu61 Cu 0.84977 0.30472 -0.16040
 Cu62 Cu 0.80502 0.34746 -0.15320
 N63 N 0.81662 0.36879 -0.20106
 N64 N 0.80480 0.37152 -0.17943
 C65 C 0.79456 0.39316 -0.17876
 C66 C 0.80026 0.40411 -0.20125
 C67 C 0.81441 0.38856 -0.21496
 H68 H 0.78488 0.40067 -0.16276
 H69 H 0.82357 0.39178 -0.23288
 N70 N 0.80879 0.32123 -0.12914
 N71 N 0.82591 0.30482 -0.13212
 C72 C 0.82161 0.28730 -0.11547
 C73 C 0.80125 0.29327 -0.10111
 C74 C 0.79337 0.31482 -0.11011
 H75 H 0.83134 0.27067 -0.11509
 H76 H 0.77650 0.32392 -0.10487
 H77 H 0.81677 0.31892 -0.17444
 H78 H 0.84114 0.34052 -0.16319
 N79 N 0.87447 0.80855 0.32102
 N80 N 0.87400 0.82158 0.30045
 C81 C 0.89085 0.81338 0.28380
 C82 C 0.90288 0.79474 0.29493
 C83 C 0.89223 0.79200 0.31854
 H84 H 0.89374 0.82011 0.26491
 H85 H 0.89580 0.77813 0.33205
 Cu86 Cu 0.85134 0.84801 0.29740
 Cu87 Cu 0.84945 0.81219 0.34765
 Cu88 Cu 0.79775 0.84402 0.32920
 N89 N 0.82821 0.87427 0.29804
 N90 N 0.80693 0.87262 0.31042
 C91 C 0.79468 0.89323 0.30847
 C92 C 0.80924 0.90824 0.29407
 C93 C 0.83043 0.89603 0.28785
 H94 H 0.77711 0.89714 0.31754
 H95 H 0.84643 0.90256 0.27741
 N96 N 0.79669 0.82033 0.35639
 N97 N 0.81675 0.80953 0.36471
 C98 C 0.81012 0.79468 0.38355
 C99 C 0.78469 0.79625 0.38680
 C100 C 0.77666 0.81245 0.36935
 H101 H 0.82253 0.78267 0.39297
 H102 H 0.75770 0.81781 0.36608
 H103 H 0.82519 0.81928 0.31945
 H104 H 0.83346 0.84502 0.33980
 N105 N 0.61886 0.69259 0.32029
 N106 N 0.62226 0.68207 0.29840
 C107 C 0.60899 0.69330 0.28068
 C108 C 0.59631 0.71127 0.29238
 C109 C 0.60275 0.71049 0.31748
 H110 H 0.60840 0.68867 0.26091
 H111 H 0.59703 0.72246 0.33226
 Cu112 Cu 0.64240 0.65382 0.29541
 Cu113 Cu 0.63729 0.68353 0.35015
 Cu114 Cu 0.68149 0.64007 0.34199
 N115 N 0.66284 0.62565 0.29379
 N116 N 0.67685 0.61944 0.31289
 C117 C 0.68973 0.59999 0.30656
 C118 C 0.68352 0.59395 0.28217
 C119 C 0.66681 0.61073 0.27441
 H120 H 0.70434 0.59235 0.31775
 H121 H 0.65937 0.61272 0.25565
 N122 N 0.68232 0.66276 0.37007
 N123 N 0.66490 0.67872 0.37388
 C124 C 0.67242 0.69367 0.39218
 C125 C 0.69570 0.68669 0.39990
 C126 C 0.70152 0.66726 0.38554
 H127 H 0.66312 0.70989 0.39720
 H128 H 0.71927 0.65845 0.38481
 H129 H 0.66674 0.67166 0.32820
 H130 H 0.64499 0.64825 0.34085
 N131 N 0.62410 0.18293 -0.18922
 N132 N 0.63139 0.17018 -0.20861
 C133 C 0.61575 0.17352 -0.22796
 C134 C 0.59732 0.18853 -0.21988
 C135 C 0.60315 0.19442 -0.19535
 H136 H 0.61827 0.16650 -0.24676
 H137 H 0.59434 0.20780 -0.18390
 Cu138 Cu 0.66120 0.15124 -0.20740
 Cu139 Cu 0.64532 0.18752 -0.15997
 Cu140 Cu 0.69241 0.14736 -0.15233
 N141 N 0.68290 0.12499 -0.19995
 N142 N 0.69461 0.12318 -0.17831
 C143 C 0.70648 0.10234 -0.17750
 C144 C 0.70198 0.09093 -0.19992
 C145 C 0.68684 0.10538 -0.21373
 H146 H 0.71652 0.09561 -0.16146
 H147 H 0.67825 0.10147 -0.23165
 N148 N 0.68682 0.17357 -0.12862
 N149 N 0.66906 0.18924 -0.13195
 C150 C 0.67222 0.20708 -0.11548
 C151 C 0.69249 0.20202 -0.10084
 C152 C 0.70151 0.18076 -0.10954
 H153 H 0.66171 0.22328 -0.11533
 H154 H 0.71868 0.17242 -0.10410
 H155 H 0.67913 0.17494 -0.17399
 H156 H 0.65585 0.15235 -0.16223
 N157 N 0.11661 0.69361 -0.17728
 N158 N 0.11988 0.68285 -0.19904
 C159 C 0.10571 0.69325 -0.21660
 C160 C 0.09247 0.71089 -0.20491
 C161 C 0.09965 0.71082 -0.18000
 H162 H 0.10541 0.68868 -0.23639
 H163 H 0.09435 0.72325 -0.16547
 Cu164 Cu 0.14219 0.65613 -0.20243
 Cu165 Cu 0.13712 0.68645 -0.14820
 Cu166 Cu 0.18607 0.64809 -0.15871
 N167 N 0.16634 0.63089 -0.20538
 N168 N 0.18253 0.62686 -0.18741
 C169 C 0.19742 0.60897 -0.19445
 C170 C 0.19016 0.60174 -0.21815
 C171 C 0.17076 0.61613 -0.22479
 H172 H 0.21351 0.60307 -0.18416
 H173 H 0.16134 0.61645 -0.24272
 N174 N 0.18548 0.67096 -0.13080
 N175 N 0.16637 0.68485 -0.12603
 C176 C 0.17271 0.70025 -0.10769
 C177 C 0.19696 0.69573 -0.10099
 C178 C 0.20457 0.67727 -0.11591
 H179 H 0.16155 0.71506 -0.10170
 H180 H 0.22317 0.67023 -0.11717
 H181 H 0.16661 0.67721 -0.17191
 H182 H 0.14901 0.65193 -0.15715
 N183 N 0.13337 0.19060 0.31640
 N184 N 0.12659 0.17288 0.30182
 C185 C 0.10917 0.18038 0.28554
 C186 C 0.10529 0.20409 0.29017
 C187 C 0.12092 0.21015 0.30965
 H188 H 0.10080 0.16973 0.27089
 H189 H 0.12325 0.22744 0.31807
 Cu190 Cu 0.14313 0.14244 0.30417
 Cu191 Cu 0.15767 0.18670 0.34318
 Cu192 Cu 0.19490 0.13699 0.33916
 N193 N 0.16558 0.11584 0.29986
 N194 N 0.18478 0.11291 0.31477
 C195 C 0.19771 0.09394 0.30694
 C196 C 0.18619 0.08480 0.28583
 C197 C 0.16618 0.09935 0.28153
 H198 H 0.21569 0.08892 0.31413
 H199 H 0.15407 0.09898 0.26534
 N200 N 0.20187 0.16359 0.36246
 N201 N 0.18697 0.18196 0.36467
 C202 C 0.19637 0.19701 0.38189
 C203 C 0.21832 0.18778 0.39052
 C204 C 0.22162 0.16681 0.37775
 H205 H 0.18867 0.21400 0.38676
 H206 H 0.23726 0.15503 0.37929
 H207 H 0.17816 0.16444 0.32078
 H208 H 0.15999 0.14982 0.34657
 N209 N 0.61920 0.31617 0.68418
 N210 N 0.62207 0.32920 0.70457
 C211 C 0.60534 0.32227 0.72214
 C212 C 0.59085 0.30461 0.71188
 C213 C 0.60006 0.30102 0.68785
 H214 H 0.60470 0.32854 0.74142
 H215 H 0.59517 0.28675 0.67525
 Cu216 Cu 0.64909 0.35216 0.70727
 Cu217 Cu 0.64391 0.31611 0.65713
 Cu218 Cu 0.68856 0.36078 0.65899
 N219 N 0.67697 0.37424 0.70980
 N220 N 0.69141 0.37871 0.69017
 C221 C 0.70806 0.39563 0.69631
 C222 C 0.70407 0.40147 0.72126
 C223 C 0.68452 0.38751 0.72946
 H224 H 0.72267 0.40218 0.68401
 H225 H 0.67629 0.38729 0.74816
 N226 N 0.68812 0.33582 0.63304
 N227 N 0.67081 0.31913 0.63182
 C228 C 0.67745 0.30324 0.61410
 C229 C 0.70008 0.31031 0.60412
 C230 C 0.70645 0.33079 0.61653
 H231 H 0.66794 0.28668 0.61053
 H232 H 0.72395 0.34028 0.61506
 H233 H 0.67376 0.33077 0.67669
 H234 H 0.65103 0.35082 0.66125
 N235 N 0.62038 0.83024 1.18844
 N236 N 0.62341 0.84864 1.20329
 C237 C 0.60691 0.84734 1.22248
 C238 C 0.59227 0.82757 1.21884
 C239 C 0.60127 0.81700 1.19721
 H240 H 0.60689 0.85881 1.23880
 H241 H 0.59637 0.79960 1.19032
 Cu242 Cu 0.65097 0.87048 1.19837
 Cu243 Cu 0.64508 0.82160 1.16298
 Cu244 Cu 0.69606 0.85934 1.15656
 N245 N 0.68307 0.88603 1.20065
 N246 N 0.70119 0.88069 1.18490
 C247 C 0.72188 0.89276 1.19135
 C248 C 0.71606 0.90642 1.21200
 C249 C 0.69137 0.90193 1.21755
 H250 H 0.73959 0.89183 1.18162
 H251 H 0.68051 0.90918 1.23290
 N252 N 0.69110 0.83124 1.13527
 N253 N 0.67225 0.81633 1.13840
 C254 C 0.67586 0.79734 1.12354
 C255 C 0.69763 0.80089 1.11023
 C256 C 0.70697 0.82243 1.11796
 H257 H 0.66411 0.78175 1.12311
 H258 H 0.72473 0.83021 1.11280
 H259 H 0.67479 0.83859 1.17998
 H260 H 0.65746 0.85507 1.15543
 N261 N 0.12000 0.32310 1.16560
 N262 N 0.12468 0.33663 1.18524
 C263 C 0.11212 0.32832 1.20548
 C264 C 0.09833 0.30904 1.19783
 C265 C 0.10359 0.30608 1.17248
 H266 H 0.11368 0.33523 1.22442
 H267 H 0.09771 0.29157 1.16060
 Cu268 Cu 0.14821 0.36287 1.18303
 Cu269 Cu 0.13981 0.32591 1.13440
 Cu270 Cu 0.19780 0.34952 1.14821
 N271 N 0.17764 0.38291 1.18331
 N272 N 0.19730 0.37702 1.16989
 C273 C 0.21629 0.39160 1.17539
 C274 C 0.20790 0.40765 1.19278
 C275 C 0.18333 0.40181 1.19768
 H276 H 0.23503 0.39001 1.16809
 H277 H 0.17126 0.40939 1.21185
 N278 N 0.19161 0.32924 1.11897
 N279 N 0.16931 0.32141 1.11254
 C280 C 0.17153 0.30787 1.09172
 C281 C 0.19643 0.30718 1.08522
 C282 C 0.20866 0.32082 1.10276
 H283 H 0.15654 0.29784 1.08330
 H284 H 0.22852 0.32364 1.10418
 H285 H 0.16684 0.33036 1.15978
 H286 H 0.16196 0.35679 1.13947
 N287 N 0.11956 0.83132 0.68850
 N288 N 0.12549 0.84842 0.70421
 C289 C 0.11122 0.84661 0.72512
 C290 C 0.09504 0.82792 0.72170
 C291 C 0.10072 0.81852 0.69841
 H292 H 0.11340 0.85719 0.74196
 H293 H 0.09355 0.80219 0.69061
 Cu294 Cu 0.15300 0.86973 0.69691
 Cu295 Cu 0.14042 0.82324 0.65969
 Cu296 Cu 0.19103 0.86027 0.64792
 N297 N 0.18559 0.88452 0.69509
 N298 N 0.20092 0.87991 0.67630
 C299 C 0.22255 0.89152 0.67994
 C300 C 0.22031 0.90409 0.70202
 C301 C 0.19671 0.89951 0.71127
 H302 H 0.23839 0.89119 0.66726
 H303 H 0.18845 0.90623 0.72845
 N304 N 0.18269 0.83292 0.62653
 N305 N 0.16403 0.81828 0.63162
 C306 C 0.16616 0.79896 0.61698
 C307 C 0.18675 0.80192 0.60173
 C308 C 0.19693 0.82353 0.60813
 H309 H 0.15485 0.78314 0.61867
 H310 H 0.21474 0.83055 0.60199
 H311 H 0.17292 0.83861 0.67302
 H312 H 0.15263 0.85679 0.65252
 N313 N 0.36080 0.70276 0.70327
 N314 N 0.37244 0.68307 0.70880
 C315 C 0.39297 0.68821 0.72221
 C316 C 0.39374 0.71244 0.72534
 C317 C 0.37316 0.72119 0.71336
 H318 H 0.40591 0.67538 0.72943
 H319 H 0.36778 0.73950 0.71171
 Cu320 Cu 0.35827 0.65280 0.69933
 Cu321 Cu 0.33063 0.70287 0.68313
 Cu322 Cu 0.31694 0.65036 0.65244
 N323 N 0.33597 0.62589 0.69558
 N324 N 0.32025 0.62432 0.67670
 C325 C 0.30494 0.60566 0.68069
 C326 C 0.31137 0.59544 0.70340
 C327 C 0.33097 0.60867 0.71238
 H328 H 0.28854 0.60174 0.66970
 H329 H 0.33932 0.60735 0.73081
 N330 N 0.30498 0.68115 0.64040
 N331 N 0.30876 0.70076 0.65345
 C332 C 0.29733 0.71876 0.64193
 C333 C 0.28617 0.71007 0.62061
 C334 C 0.29124 0.68617 0.61989
 H335 H 0.29773 0.73695 0.64815
 H336 H 0.28516 0.67344 0.60598
 H337 H 0.31846 0.66835 0.68511
 H338 H 0.34459 0.67558 0.66310
 N339 N 0.37950 0.17728 1.17800
 N340 N 0.37312 0.16214 1.19581
 C341 C 0.38677 0.16654 1.21653
 C342 C 0.40315 0.18469 1.21090
 C343 C 0.39810 0.19127 1.18640
 H344 H 0.38417 0.15804 1.23464
 H345 H 0.40560 0.20640 1.17636
 Cu346 Cu 0.34590 0.13977 1.19073
 Cu347 Cu 0.36046 0.18017 1.14688
 Cu348 Cu 0.30414 0.14949 1.14595
 N349 N 0.31899 0.11720 1.18481
 N350 N 0.30223 0.12173 1.16756
 C351 C 0.28323 0.10624 1.16977
 C352 C 0.28871 0.09099 1.18907
 C353 C 0.31141 0.09829 1.19847
 H354 H 0.26610 0.10697 1.15927
 H355 H 0.32038 0.09181 1.21526
 N356 N 0.31313 0.17386 1.12096
 N357 N 0.33412 0.18617 1.12186
 C358 C 0.33292 0.20414 1.10522
 C359 C 0.31053 0.20240 1.09285
 C360 C 0.29840 0.18311 1.10314
 H361 H 0.34653 0.21823 1.10343
 H362 H 0.27938 0.17773 1.09965
 H363 H 0.32848 0.17163 1.16583
 H364 H 0.34150 0.14758 1.14580
 N365 N 0.88172 0.67834 1.18812
 N366 N 0.88100 0.65790 1.19996
 C367 C 0.89784 0.65823 1.21870
 C368 C 0.91027 0.67967 1.21769
 C369 C 0.89957 0.69206 1.19825
 H370 H 0.89971 0.64465 1.23290
 H371 H 0.90251 0.71055 1.19389
 Cu372 Cu 0.85610 0.63399 1.19162
 Cu373 Cu 0.85531 0.68803 1.16560
 Cu374 Cu 0.81694 0.64348 1.14368
 N375 N 0.82613 0.61489 1.18718
 N376 N 0.81059 0.61904 1.16865
 C377 C 0.79029 0.60518 1.17139
 C378 C 0.79358 0.59155 1.19251
 C379 C 0.81641 0.59796 1.20225
 H380 H 0.77399 0.60580 1.15957
 H381 H 0.82446 0.59205 1.21976
 N382 N 0.81783 0.67517 1.12876
 N383 N 0.83139 0.69262 1.13813
 C384 C 0.82487 0.71299 1.12695
 C385 C 0.80661 0.70785 1.10975
 C386 C 0.80251 0.68381 1.11110
 H387 H 0.83210 0.73032 1.13163
 H388 H 0.78823 0.67373 1.10154
 H389 H 0.82812 0.66284 1.17365
 H390 H 0.85358 0.65513 1.15114
 N391 N 0.87691 0.17913 0.67395
 N392 N 0.87652 0.16189 0.69064
 C393 C 0.89421 0.16595 0.70798
 C394 C 0.90678 0.18632 0.70126
 C395 C 0.89538 0.19438 0.67970
 H396 H 0.89644 0.15589 0.72515
 H397 H 0.89832 0.21139 0.67079
 Cu398 Cu 0.85079 0.13765 0.69052
 Cu399 Cu 0.84982 0.18377 0.65012
 Cu400 Cu 0.80161 0.14263 0.65313
 N401 N 0.82062 0.11944 0.69702
 N402 N 0.80092 0.12260 0.68287
 C403 C 0.78205 0.10910 0.69158
 C404 C 0.79059 0.09670 0.71199
 C405 C 0.81514 0.10343 0.71514
 H406 H 0.76372 0.10806 0.68338
 H407 H 0.82777 0.09756 0.72959
 N408 N 0.80217 0.16922 0.62938
 N409 N 0.82040 0.18501 0.62794
 C410 C 0.81391 0.20206 0.61144
 C411 C 0.79056 0.19638 0.60243
 C412 C 0.78363 0.17569 0.61407
 H413 H 0.82460 0.21792 0.60745
 H414 H 0.76586 0.16673 0.61253
 H415 H 0.82335 0.16669 0.67214
 H416 H 0.83960 0.14923 0.64735
 N417 N 0.30594 0.37879 0.67303
 N418 N 0.32555 0.38029 0.68765
 C419 C 0.32275 0.39842 0.70375
 C420 C 0.30044 0.40902 0.69861
 C421 C 0.29000 0.39620 0.67912
 H422 H 0.33503 0.40242 0.71927
 H423 H 0.27139 0.39792 0.67175
 Cu424 Cu 0.35096 0.35630 0.68717
 Cu425 Cu 0.30080 0.35144 0.65117
 Cu426 Cu 0.35227 0.31531 0.64192
 N427 N 0.37049 0.32793 0.69082
 N428 N 0.37236 0.31238 0.67246
 C429 C 0.38766 0.29490 0.67975
 C430 C 0.39509 0.29985 0.70410
 C431 C 0.38384 0.32069 0.71069
 H432 H 0.39189 0.27932 0.66878
 H433 H 0.38508 0.32982 0.72856
 N434 N 0.32240 0.31392 0.62041
 N435 N 0.30246 0.32690 0.62476
 C436 C 0.28400 0.31961 0.60957
 C437 C 0.29285 0.30147 0.59494
 C438 C 0.31721 0.29811 0.60208
 H439 H 0.26521 0.32627 0.60982
 H440 H 0.32947 0.28416 0.59595
 H441 H 0.32575 0.32702 0.66557
 H442 H 0.33786 0.34988 0.64332
 N443 N 0.32405 0.88234 0.15751
 N444 N 0.34354 0.88369 0.17235
 C445 C 0.33897 0.89907 0.19110
 C446 C 0.31559 0.90808 0.18760
 C447 C 0.30648 0.89728 0.16612
 H448 H 0.35091 0.90192 0.20718
 H449 H 0.28773 0.89831 0.15896
 Cu450 Cu 0.37121 0.86213 0.16908
 Cu451 Cu 0.32172 0.85783 0.13141
 Cu452 Cu 0.35768 0.80889 0.14569
 N453 N 0.39222 0.83533 0.17590
 N454 N 0.38535 0.81403 0.16869
 C455 C 0.39960 0.79794 0.18028
 C456 C 0.41639 0.81004 0.19516
 C457 C 0.41142 0.83368 0.19195
 H458 H 0.39719 0.77898 0.17891
 H459 H 0.41930 0.84829 0.20245
 N460 N 0.32942 0.80778 0.12227
 N461 N 0.31658 0.82657 0.11550
 C462 C 0.29922 0.81993 0.09855
 C463 C 0.30149 0.79586 0.09497
 C464 C 0.32044 0.78868 0.11024
 H465 H 0.28544 0.83144 0.09048
 H466 H 0.32712 0.77083 0.11239
 H467 H 0.33641 0.83672 0.15834
 H468 H 0.35701 0.84223 0.13055
 N469 N 0.81470 0.37869 0.17552
 N470 N 0.83456 0.37837 0.18985
 C471 C 0.83202 0.39426 0.20853
 C472 C 0.80973 0.40554 0.20516
 C473 C 0.79900 0.39530 0.18420
 H474 H 0.84470 0.39648 0.22410
 H475 H 0.78042 0.39821 0.17724
 Cu476 Cu 0.86035 0.35534 0.18446
 Cu477 Cu 0.80906 0.35475 0.14960
 Cu478 Cu 0.85755 0.31534 0.13833
 N479 N 0.88071 0.32736 0.18511
 N480 N 0.88057 0.31201 0.16646
 C481 C 0.89628 0.29427 0.17190
 C482 C 0.90617 0.29891 0.19538
 C483 C 0.89590 0.31978 0.20334
 H484 H 0.89904 0.27869 0.16045
 H485 H 0.89872 0.32847 0.22127
 N486 N 0.82633 0.31524 0.11890
 N487 N 0.80749 0.32936 0.12414
 C488 C 0.78758 0.32247 0.11068
 C489 C 0.79445 0.30353 0.09611
 C490 C 0.81903 0.29921 0.10158
 H491 H 0.76920 0.32996 0.11213
 H492 H 0.83005 0.28449 0.09508
 H493 H 0.83217 0.32853 0.16352
 H494 H 0.84563 0.35034 0.14086
 N495 N 0.80742 0.88072 0.65529
 N496 N 0.82646 0.88723 0.66918
 C497 C 0.81971 0.90532 0.68412
 C498 C 0.79500 0.91007 0.67955
 C499 C 0.78768 0.89412 0.66134
 H500 H 0.83071 0.91209 0.69956
 H501 H 0.76894 0.89106 0.65476
 Cu502 Cu 0.85515 0.86701 0.67232
 Cu503 Cu 0.80863 0.85312 0.63326
 Cu504 Cu 0.86018 0.81692 0.63942
 N505 N 0.87635 0.84161 0.68362
 N506 N 0.87894 0.82215 0.67031
 C507 C 0.89418 0.80733 0.68259
 C508 C 0.90089 0.81816 0.70489
 C509 C 0.88924 0.83970 0.70517
 H510 H 0.89874 0.78964 0.67650
 H511 H 0.88952 0.85269 0.72013
 N512 N 0.83309 0.81056 0.61539
 N513 N 0.81372 0.82456 0.61257
 C514 C 0.79794 0.81469 0.59588
 C515 C 0.80788 0.79346 0.58827
 C516 C 0.82991 0.79115 0.60103
 H517 H 0.77987 0.82151 0.59104
 H518 H 0.84212 0.77606 0.60076
 H519 H 0.83136 0.83370 0.65661
 H520 H 0.84657 0.85041 0.63038
 N521 N 0.68889 0.60950 0.66023
 N522 N 0.67044 0.60741 0.67656
 C523 C 0.67644 0.59161 0.69435
 C524 C 0.69972 0.58322 0.68876
 C525 C 0.70733 0.59479 0.66701
 H526 H 0.66554 0.58797 0.71116
 H527 H 0.72554 0.59422 0.65823
 Cu528 Cu 0.64190 0.62801 0.67585
 Cu529 Cu 0.68848 0.63411 0.63415
 Cu530 Cu 0.65227 0.68180 0.65274
 N531 N 0.61857 0.65325 0.68199
 N532 N 0.62223 0.67435 0.67217
 C533 C 0.60576 0.68947 0.68234
 C534 C 0.59134 0.67711 0.69962
 C535 C 0.60006 0.65429 0.69914
 H536 H 0.60646 0.70845 0.67994
 H537 H 0.59519 0.64025 0.71216
 N538 N 0.67873 0.68407 0.62684
 N539 N 0.69165 0.66576 0.61868
 C540 C 0.70771 0.67309 0.60056
 C541 C 0.70462 0.69713 0.59766
 C542 C 0.68638 0.70359 0.61445
 H543 H 0.72116 0.66204 0.59108
 H544 H 0.67922 0.72118 0.61737
 H545 H 0.67546 0.65408 0.66221
 H546 H 0.65252 0.64898 0.63662
 N547 N 0.68219 0.11900 0.18108
 N548 N 0.66065 0.11742 0.19294
 C549 C 0.66260 0.10215 0.21231
 C550 C 0.68634 0.09321 0.21191
 C551 C 0.69843 0.10424 0.19202
 H552 H 0.64833 0.09886 0.22638
 H553 H 0.71803 0.10328 0.18743
 Cu554 Cu 0.63310 0.13760 0.18400
 Cu555 Cu 0.68870 0.14324 0.15555
 Cu556 Cu 0.64100 0.18262 0.14374
 N557 N 0.61026 0.16392 0.18351
 N558 N 0.61457 0.18250 0.16916
 C559 C 0.59891 0.19992 0.17590
 C560 C 0.58383 0.19135 0.19511
 C561 C 0.59138 0.16856 0.19948
 H562 H 0.59927 0.21763 0.16824
 H563 H 0.58533 0.15714 0.21473
 N564 N 0.67291 0.18342 0.12523
 N565 N 0.69141 0.16897 0.13042
 C566 C 0.71146 0.17532 0.11655
 C567 C 0.70495 0.19419 0.10171
 C568 C 0.68050 0.19906 0.10753
 H569 H 0.72955 0.16718 0.11746
 H570 H 0.66957 0.21356 0.10047
 H571 H 0.66311 0.16693 0.16981
 H572 H 0.65280 0.14758 0.14339
 N573 N 0.18611 0.62009 0.16804
 N574 N 0.16668 0.61742 0.18308
 C575 C 0.17106 0.60003 0.19968
 C576 C 0.19431 0.59123 0.19473
 C577 C 0.20361 0.60426 0.17460
 H578 H 0.15914 0.59550 0.21550
 H579 H 0.22222 0.60361 0.16675
 Cu580 Cu 0.13935 0.63949 0.18319
 Cu581 Cu 0.18828 0.64630 0.14377
 Cu582 Cu 0.14082 0.68772 0.14753
 N583 N 0.11811 0.66615 0.19087
 N584 N 0.11957 0.68556 0.17727
 C585 C 0.10441 0.70198 0.18722
 C586 C 0.09280 0.69204 0.20800
 C587 C 0.10180 0.66938 0.20995
 H588 H 0.10229 0.71974 0.18008
 H589 H 0.09769 0.65665 0.22465
 N590 N 0.16860 0.69013 0.12339
 N591 N 0.18644 0.67429 0.12119
 C592 C 0.20303 0.68194 0.10364
 C593 C 0.19501 0.70359 0.09491
 C594 C 0.17350 0.70839 0.10787
 H595 H 0.22030 0.67331 0.09888
 H596 H 0.16278 0.72443 0.10682
 H597 H 0.16770 0.66894 0.16592
 H598 H 0.15111 0.65258 0.14057
 N599 N 0.18518 0.11428 0.66852
 N600 N 0.16612 0.11497 0.68417
 C601 C 0.16974 0.09958 0.70312
 C602 C 0.19194 0.08832 0.69865
 C603 C 0.20138 0.09797 0.67662
 H604 H 0.15817 0.09811 0.71982
 H605 H 0.21977 0.09528 0.66878
 Cu606 Cu 0.14066 0.13866 0.68060
 Cu607 Cu 0.19015 0.13828 0.64248
 Cu608 Cu 0.14403 0.18097 0.63670
 N609 N 0.12137 0.16719 0.68366
 N610 N 0.12225 0.18381 0.66628
 C611 C 0.10774 0.20194 0.67365
 C612 C 0.09777 0.19610 0.69696
 C613 C 0.10673 0.17415 0.70285
 H614 H 0.10567 0.21838 0.66349
 H615 H 0.10338 0.16425 0.72001
 N616 N 0.17380 0.17978 0.61452
 N617 N 0.19159 0.16399 0.61734
 C618 C 0.21092 0.16981 0.60225
 C619 C 0.20481 0.18984 0.58916
 C620 C 0.18124 0.19591 0.59719
 H621 H 0.22866 0.16098 0.60181
 H622 H 0.17122 0.21177 0.59242
 H623 H 0.16953 0.16512 0.65931
 H624 H 0.15343 0.14544 0.63647
 N625 N 0.31348 0.61950 0.33046
 N626 N 0.33222 0.62116 0.31444
 C627 C 0.32747 0.60771 0.29412
 C628 C 0.30484 0.59681 0.29801
 C629 C 0.29625 0.60451 0.32114
 H630 H 0.33903 0.60678 0.27739
 H631 H 0.27829 0.60081 0.32966
 Cu632 Cu 0.35951 0.64288 0.32019
 Cu633 Cu 0.31165 0.63942 0.36036
 Cu634 Cu 0.35879 0.68124 0.36837
 N635 N 0.38071 0.67055 0.32032
 N636 N 0.38083 0.68564 0.33920
 C637 C 0.39590 0.70405 0.33322
 C638 C 0.40527 0.69996 0.30928
 C639 C 0.39526 0.67884 0.30159
 H640 H 0.39826 0.71981 0.34452
 H641 H 0.39742 0.67069 0.28330
 N642 N 0.32880 0.67955 0.39011
 N643 N 0.31069 0.66394 0.38663
 C644 C 0.29131 0.66949 0.40161
 C645 C 0.29765 0.68923 0.41525
 C646 C 0.32145 0.69536 0.40763
 H647 H 0.27338 0.66073 0.40153
 H648 H 0.33161 0.71124 0.41256
 H649 H 0.33235 0.66702 0.34509
 H650 H 0.34904 0.64557 0.36545
 N651 N 0.31362 0.11926 0.82943
 N652 N 0.33624 0.11292 0.82283
 C653 C 0.33485 0.09295 0.80897
 C654 C 0.31002 0.08681 0.80699
 C655 C 0.29706 0.10378 0.82006
 H656 H 0.35038 0.08474 0.79942
 H657 H 0.27708 0.10535 0.82158
 Cu658 Cu 0.36457 0.13368 0.82942
 Cu659 Cu 0.30663 0.14750 0.84868
 Cu660 Cu 0.35638 0.18417 0.86164
 N661 N 0.38805 0.16007 0.82646
 N662 N 0.38401 0.18025 0.83808
 C663 C 0.39992 0.19676 0.82907
 C664 C 0.41488 0.18618 0.81115
 C665 C 0.40704 0.16293 0.80996
 H666 H 0.39941 0.21532 0.83388
 H667 H 0.41277 0.14987 0.79626
 N668 N 0.32287 0.18966 0.87527
 N669 N 0.30355 0.17660 0.86850
 C670 C 0.28284 0.18527 0.87927
 C671 C 0.28967 0.20426 0.89376
 C672 C 0.31510 0.20677 0.89109
 H673 H 0.26434 0.17781 0.87756
 H674 H 0.32690 0.22008 0.89961
 H675 H 0.33647 0.16655 0.83477
 H676 H 0.34075 0.15007 0.86494
 N677 N 0.81006 0.62910 0.82291
 N678 N 0.82972 0.63100 0.80812
 C679 C 0.82744 0.61604 0.78858
 C680 C 0.80545 0.60381 0.79170
 C681 C 0.79466 0.61235 0.81357
 H682 H 0.84041 0.61466 0.77297
 H683 H 0.77657 0.60776 0.82124
 Cu684 Cu 0.85543 0.65414 0.81461
 Cu685 Cu 0.80506 0.65058 0.85139
 Cu686 Cu 0.85313 0.69083 0.86374
 N687 N 0.87470 0.68311 0.81501
 N688 N 0.87464 0.69735 0.83463
 C689 C 0.88956 0.71613 0.82966
 C690 C 0.89880 0.71328 0.80548
 C691 C 0.88904 0.69242 0.79665
 H692 H 0.89233 0.73108 0.84207
 H693 H 0.89175 0.68481 0.77814
 N694 N 0.82278 0.68808 0.88480
 N695 N 0.80405 0.67369 0.87930
 C696 C 0.78458 0.67875 0.89440
 C697 C 0.79162 0.69677 0.91025
 C698 C 0.81585 0.70244 0.90384
 H699 H 0.76627 0.67083 0.89313
 H700 H 0.82674 0.71716 0.91085
 H701 H 0.82740 0.67847 0.83879
 H702 H 0.84187 0.65568 0.85910
 N703 N 0.81258 0.12407 0.33816
 N704 N 0.82948 0.12313 0.32012
 C705 C 0.82254 0.10711 0.30279
 C706 C 0.80027 0.09743 0.31056
 C707 C 0.79422 0.10839 0.33306
 H708 H 0.83244 0.10351 0.28540
 H709 H 0.77745 0.10599 0.34419
 Cu710 Cu 0.85796 0.14419 0.31972
 Cu711 Cu 0.81553 0.14695 0.36566
 Cu712 Cu 0.85486 0.19477 0.35181
 N713 N 0.88028 0.17013 0.31207
 N714 N 0.87954 0.18998 0.32495
 C715 C 0.89586 0.20553 0.31463
 C716 C 0.90698 0.19459 0.29418
 C717 C 0.89650 0.17241 0.29280
 H718 H 0.89801 0.22379 0.32027
 H719 H 0.89947 0.15939 0.27818
 N720 N 0.82884 0.19554 0.37846
 N721 N 0.81497 0.17697 0.38468
 C722 C 0.79878 0.18321 0.40300
 C723 C 0.80266 0.20683 0.40820
 C724 C 0.82151 0.21423 0.39229
 H725 H 0.78409 0.17200 0.41046
 H726 H 0.82863 0.23206 0.39032
 H727 H 0.82840 0.17047 0.33943
 H728 H 0.85181 0.16018 0.36250
 N729 N 0.68806 0.38397 0.33331
 N730 N 0.66731 0.38754 0.32095
 C731 C 0.66998 0.40696 0.30643
 C732 C 0.69370 0.41579 0.30997
 C733 C 0.70476 0.40082 0.32700
 H734 H 0.65671 0.41275 0.29256
 H735 H 0.72396 0.40118 0.33294
 Cu736 Cu 0.64100 0.36380 0.32130
 Cu737 Cu 0.69271 0.35676 0.35505
 Cu738 Cu 0.64291 0.31746 0.36059
 N739 N 0.62117 0.33544 0.31525
 N740 N 0.62081 0.31775 0.33140
 C741 C 0.60556 0.30056 0.32271
 C742 C 0.59644 0.30793 0.29974
 C743 C 0.60682 0.32991 0.29536
 H744 H 0.60278 0.28349 0.33151
 H745 H 0.60462 0.34079 0.27876
 N746 N 0.67372 0.31472 0.38052
 N747 N 0.69332 0.32857 0.37661
 C748 C 0.71254 0.32061 0.39019
 C749 C 0.70439 0.30138 0.40372
 C750 C 0.67980 0.29782 0.39729
 H751 H 0.73108 0.32816 0.39025
 H752 H 0.66782 0.28332 0.40312
 H753 H 0.66819 0.33360 0.33743
 H754 H 0.65577 0.35237 0.36340
 N755 N 0.69716 0.86827 0.82177
 N756 N 0.68204 0.86336 0.80305
 C757 C 0.68755 0.87744 0.78330
 C758 C 0.70678 0.89209 0.79039
 C759 C 0.71260 0.88601 0.81482
 H760 H 0.67862 0.87676 0.76512
 H761 H 0.72759 0.89306 0.82612
 Cu762 Cu 0.65743 0.83839 0.80587
 Cu763 Cu 0.69758 0.84921 0.85231
 Cu764 Cu 0.65025 0.80706 0.85881
 N765 N 0.63907 0.80879 0.80622
 N766 N 0.63480 0.79721 0.82736
 C767 C 0.61936 0.77882 0.82275
 C768 C 0.61451 0.77887 0.79722
 C769 C 0.62718 0.79791 0.78723
 H770 H 0.61236 0.76654 0.83678
 H771 H 0.62685 0.80399 0.76790
 N772 N 0.67602 0.81258 0.88454
 N773 N 0.69441 0.82804 0.88160
 C774 C 0.71169 0.82415 0.89929
 C775 C 0.70368 0.80560 0.91403
 C776 C 0.68105 0.79856 0.90438
 H777 H 0.72982 0.83254 0.89989
 H778 H 0.67065 0.78278 0.90939
 H779 H 0.68051 0.81871 0.83836
 H780 H 0.66044 0.84219 0.85207
 N781 N 0.18429 0.38650 0.82716
 N782 N 0.16502 0.38697 0.81203
 C783 C 0.16887 0.40340 0.79409
 C784 C 0.19149 0.41407 0.79860
 C785 C 0.20101 0.40300 0.81962
 H786 H 0.15707 0.40611 0.77793
 H787 H 0.21948 0.40519 0.82727
 Cu788 Cu 0.13887 0.36343 0.81459
 Cu789 Cu 0.18773 0.36170 0.85251
 Cu790 Cu 0.13957 0.31989 0.85701
 N791 N 0.11937 0.33493 0.80981
 N792 N 0.11888 0.31790 0.82673
 C793 C 0.10427 0.30008 0.81828
 C794 C 0.09580 0.30651 0.79469
 C795 C 0.10578 0.32846 0.78977
 H796 H 0.10139 0.28335 0.82779
 H797 H 0.10387 0.33868 0.77266
 N798 N 0.16892 0.32007 0.87947
 N799 N 0.18750 0.33543 0.87697
 C800 C 0.20616 0.32906 0.89220
 C801 C 0.19881 0.30918 0.90516
 C802 C 0.17521 0.30367 0.89676
 H803 H 0.22430 0.33741 0.89287
 H804 H 0.16443 0.28797 0.90121
 H805 H 0.16602 0.33574 0.83515
 H806 H 0.15051 0.35517 0.85858
 N807 N 0.19573 0.87818 0.32819
 N808 N 0.17377 0.88350 0.31913
 C809 C 0.17595 0.90235 0.30375
 C810 C 0.20066 0.90896 0.30305
 C811 C 0.21285 0.89327 0.31855
 H812 H 0.16114 0.90938 0.29237
 H813 H 0.23261 0.89244 0.32191
 Cu814 Cu 0.14561 0.86250 0.32436
 Cu815 Cu 0.20025 0.85174 0.35146
 Cu816 Cu 0.14726 0.81850 0.36626
 N817 N 0.12308 0.83560 0.32203
 N818 N 0.12276 0.81879 0.33918
 C819 C 0.10634 0.80186 0.33230
 C820 C 0.09639 0.80848 0.30943
 C821 C 0.10747 0.82974 0.30328
 H822 H 0.10370 0.78514 0.34189
 H823 H 0.10546 0.83952 0.28589
 N824 N 0.17963 0.81357 0.38251
 N825 N 0.20013 0.82487 0.37530
 C826 C 0.21966 0.81571 0.38755
 C827 C 0.21085 0.79824 0.40333
 C828 C 0.18547 0.79716 0.39991
 H829 H 0.23880 0.82139 0.38534
 H830 H 0.17246 0.78482 0.40849
 H831 H 0.17122 0.83054 0.33919
 H832 H 0.16459 0.85199 0.36493
 C833 C 0.24098 1.05368 0.23995
 C834 C 0.26064 1.04322 0.22686
 C835 C 0.26379 1.01880 0.22803
 C836 C 0.24650 1.00418 0.24099
 C837 C 0.22735 1.01524 0.25504
 C838 C 0.22496 1.03995 0.25499
 C839 C 0.24937 0.97778 0.24034
 C840 C 0.23994 0.96313 0.25986
 C841 C 0.24482 0.93876 0.25995
 C842 C 0.25993 0.92905 0.24120
 C843 C 0.26836 0.94296 0.22106
 C844 C 0.26235 0.96692 0.22020
 H845 H 0.23939 1.07275 0.24002
 H846 H 0.27993 1.01148 0.21872
 H847 H 0.21414 1.00500 0.26602
 H848 H 0.22944 0.97039 0.27542
 H849 H 0.26398 0.91033 0.24155
 H850 H 0.26855 0.97700 0.20397
 C851 C 0.24709 0.56661 0.74049
 C852 C 0.26356 0.55364 0.72558
 C853 C 0.26341 0.52895 0.72688
 C854 C 0.24672 0.51678 0.74317
 C855 C 0.23028 0.53036 0.75813
 C856 C 0.23049 0.55507 0.75684
 C857 C 0.24673 0.49023 0.74475
 C858 C 0.23702 0.47829 0.76620
 C859 C 0.23625 0.45358 0.76712
 C860 C 0.24714 0.44047 0.74779
 C861 C 0.25769 0.45178 0.72688
 C862 C 0.25649 0.47639 0.72480
 H863 H 0.24750 0.58574 0.73964
 H864 H 0.27712 0.51966 0.71580
 H865 H 0.21672 0.52210 0.77048
 H866 H 0.22950 0.48779 0.78214
 H867 H 0.24724 0.42135 0.74893
 H868 H 0.26368 0.48440 0.70773
 C869 C 0.76296 -0.05479 0.26231
 C870 C 0.77949 -0.03949 0.27473
 C871 C 0.77437 -0.01526 0.27566
 C872 C 0.75213 -0.00622 0.26565
 C873 C 0.73524 -0.02212 0.25440
 C874 C 0.74098 -0.04606 0.25193
 C875 C 0.74668 0.01965 0.26653
 C876 C 0.73318 0.03053 0.24700
 C877 C 0.72778 0.05469 0.24791
 C878 C 0.73683 0.06846 0.26780
 C879 C 0.75129 0.05826 0.28661
 C880 C 0.75563 0.03390 0.28637
 H881 H 0.76703 -0.07344 0.26083
 H882 H 0.78796 -0.00359 0.28418
 H883 H 0.71775 -0.01596 0.24697
 H884 H 0.72697 0.02044 0.23087
 H885 H 0.73394 0.08738 0.26782
 H886 H 0.76653 0.02640 0.30140
 C887 C 0.76106 0.44147 0.75865
 C888 C 0.77787 0.45642 0.77118
 C889 C 0.77787 0.48062 0.76614
 C890 C 0.76075 0.49061 0.74928
 C891 C 0.74437 0.47522 0.73643
 C892 C 0.74455 0.45082 0.74096
 C893 C 0.76004 0.51688 0.74559
 C894 C 0.75083 0.52701 0.72318
 C895 C 0.74970 0.55161 0.72045
 C896 C 0.75955 0.56633 0.73910
 C897 C 0.76909 0.55671 0.76122
 C898 C 0.76833 0.53226 0.76487
 H899 H 0.76123 0.42261 0.76207
 H900 H 0.79167 0.49147 0.77544
 H901 H 0.73086 0.48196 0.72333
 H902 H 0.74387 0.51612 0.70802
 H903 H 0.75891 0.58534 0.73677
 H904 H 0.77453 0.52554 0.78281
 C905 C 0.25022 0.44199 0.24856
 C906 C 0.26649 0.45462 0.26400
 C907 C 0.26553 0.47929 0.26451
 C908 C 0.24794 0.49168 0.24992
 C909 C 0.23072 0.47841 0.23562
 C910 C 0.23219 0.45378 0.23456
 C911 C 0.24827 0.51815 0.24893
 C912 C 0.23946 0.53053 0.22760
 C913 C 0.24116 0.55524 0.22639
 C914 C 0.25300 0.56770 0.24563
 C915 C 0.26175 0.55582 0.26686
 C916 C 0.25838 0.53141 0.26899
 H917 H 0.25091 0.42286 0.24824
 H918 H 0.27924 0.48853 0.27570
 H919 H 0.21641 0.48696 0.22479
 H920 H 0.23125 0.52132 0.21184
 H921 H 0.25484 0.58674 0.24437
 H922 H 0.26446 0.52294 0.28612
 C923 C 0.74938 1.05621 0.76622
 C924 C 0.77038 1.04789 0.75326
 C925 C 0.77484 1.02356 0.75199
 C926 C 0.75737 1.00719 0.76185
 C927 C 0.73619 1.01599 0.77441
 C928 C 0.73246 1.04021 0.77724
 C929 C 0.75977 0.98120 0.75738
 C930 C 0.74807 0.96488 0.77381
 C931 C 0.74605 0.94104 0.76739
 C932 C 0.75734 0.93281 0.74527
 C933 C 0.77112 0.94830 0.72989
 C934 C 0.77205 0.97241 0.73575
 H935 H 0.74616 1.07504 0.76738
 H936 H 0.79136 1.01763 0.74223
 H937 H 0.72184 1.00420 0.78154
 H938 H 0.73967 0.97060 0.79135
 H939 H 0.75651 0.91415 0.74078
 H940 H 0.78172 0.98413 0.72283
 C941 C 0.74151 0.55945 0.24336
 C942 C 0.76186 0.54781 0.23274
 C943 C 0.76466 0.52361 0.23656
 C944 C 0.74650 0.51028 0.24979
 C945 C 0.72667 0.52253 0.26142
 C946 C 0.72445 0.54708 0.25862
 C947 C 0.74902 0.48397 0.25173
 C948 C 0.73840 0.47100 0.27197
 C949 C 0.74267 0.44666 0.27420
 C950 C 0.75832 0.43534 0.25711
 C951 C 0.76778 0.44748 0.23617
 C952 C 0.76248 0.47143 0.23311
 H953 H 0.74005 0.57843 0.24131
 H954 H 0.78121 0.51540 0.22902
 H955 H 0.71276 0.51331 0.27256
 H956 H 0.72726 0.47951 0.28630
 H957 H 0.76161 0.41658 0.25910
 H958 H 0.76928 0.48013 0.21622
 C959 C 0.27292 -0.05768 0.74759
 C960 C 0.29109 -0.04238 0.75744
 C961 C 0.28762 -0.01790 0.75611
 C962 C 0.26532 -0.00848 0.74672
 C963 C 0.24677 -0.02426 0.73826
 C964 C 0.25088 -0.04857 0.73780
 C965 C 0.26088 0.01753 0.74636
 C966 C 0.24526 0.02763 0.72805
 C967 C 0.23855 0.05141 0.72954
 C968 C 0.24838 0.06563 0.74865
 C969 C 0.26564 0.05652 0.76548
 C970 C 0.27153 0.03245 0.76473
 H971 H 0.27567 -0.07661 0.74779
 H972 H 0.30235 -0.00639 0.76273
 H973 H 0.22910 -0.01782 0.73161
 H974 H 0.23787 0.01708 0.71278
 H975 H 0.24375 0.08422 0.74950
 H976 H 0.28374 0.02547 0.77898
 C977 C 0.25842 0.25246 1.06555
 C978 C 0.24253 0.26890 1.05473
 C979 C 0.23825 0.26846 1.02868
 C980 C 0.24898 0.25075 1.01344
 C981 C 0.26283 0.23282 1.02532
 C982 C 0.26820 0.23410 1.05104
 C983 C 0.24663 0.25136 0.98534
 C984 C 0.26522 0.24120 0.96995
 C985 C 0.26325 0.24143 0.94374
 C986 C 0.24382 0.25368 0.93242
 C987 C 0.22581 0.26490 0.94722
 C988 C 0.22656 0.26284 0.97351
 H989 H 0.26176 0.25300 1.08568
 H990 H 0.22732 0.28248 1.02059
 H991 H 0.26982 0.21790 1.01475
 H992 H 0.28127 0.23277 0.97805
 H993 H 0.24284 0.25472 0.91206
 H994 H 0.21188 0.27092 0.98443
 C995 C 0.23898 0.75131 0.57568
 C996 C 0.22863 0.76857 0.56026
 C997 C 0.23233 0.76757 0.53421
 C998 C 0.24454 0.74818 0.52297
 C999 C 0.25460 0.73068 0.53894
 C1000 C 0.25279 0.73279 0.56524
 C1001 C 0.24695 0.74662 0.49483
 C1002 C 0.26685 0.73444 0.48330
 C1003 C 0.26870 0.73296 0.45700
 C1004 C 0.25193 0.74525 0.44192
 C1005 C 0.23259 0.75807 0.45294
 C1006 C 0.22940 0.75769 0.47911
 H1007 H 0.23689 0.75279 0.59595
 H1008 H 0.22537 0.78197 0.52296
 H1009 H 0.26437 0.71566 0.53128
 H1010 H 0.28083 0.72576 0.49445
 H1011 H 0.25399 0.74481 0.42159
 H1012 H 0.21350 0.76671 0.48695
 C1013 C 0.23988 0.75402 -0.07286
 C1014 C 0.25867 0.76710 -0.06099
 C1015 C 0.26098 0.76601 -0.03470
 C1016 C 0.24332 0.75345 -0.01985
 C1017 C 0.22380 0.74143 -0.03229
 C1018 C 0.22280 0.74080 -0.05860
 C1019 C 0.24532 0.75250 0.00833
 C1020 C 0.23560 0.73296 0.02197
 C1021 C 0.23595 0.73266 0.04832
 C1022 C 0.24798 0.75088 0.06133
 C1023 C 0.25910 0.76975 0.04822
 C1024 C 0.25682 0.77104 0.02196
 H1025 H 0.23876 0.75383 -0.09324
 H1026 H 0.27651 0.77510 -0.02609
 H1027 H 0.20962 0.73188 -0.02182
 H1028 H 0.22716 0.71808 0.01241
 H1029 H 0.24882 0.75024 0.08172
 H1030 H 0.26450 0.78634 0.01237
 C1031 C 0.26098 0.24329 0.42574
 C1032 C 0.27537 0.25929 0.43957
 C1033 C 0.27383 0.25944 0.46590
 C1034 C 0.25781 0.24362 0.47903
 C1035 C 0.24347 0.22760 0.46450
 C1036 C 0.24496 0.22749 0.43814
 C1037 C 0.25560 0.24431 0.50743
 C1038 C 0.23524 0.23344 0.52016
 C1039 C 0.23372 0.23337 0.54649
 C1040 C 0.25110 0.24613 0.56053
 C1041 C 0.27069 0.25807 0.54846
 C1042 C 0.27367 0.25609 0.52231
 H1043 H 0.26178 0.24353 0.40533
 H1044 H 0.28455 0.27279 0.47557
 H1045 H 0.23115 0.21479 0.47318
 H1046 H 0.22055 0.22448 0.51015
 H1047 H 0.24936 0.24675 0.58088
 H1048 H 0.28991 0.26440 0.51403
 C1049 C 0.75226 0.75400 1.07852
 C1050 C 0.73952 0.77156 1.06545
 C1051 C 0.73918 0.77128 1.03907
 C1052 C 0.74967 0.75228 1.02553
 C1053 C 0.76135 0.73415 1.03919
 C1054 C 0.76371 0.73559 1.06534
 C1055 C 0.74855 0.75129 0.99740
 C1056 C 0.76708 0.73944 0.98332
 C1057 C 0.76535 0.73751 0.95712
 C1058 C 0.74641 0.74928 0.94446
 C1059 C 0.72864 0.76209 0.95793
 C1060 C 0.72901 0.76221 0.98426
 H1061 H 0.75325 0.75470 1.09890
 H1062 H 0.73035 0.78577 1.02943
 H1063 H 0.76923 0.71902 1.02970
 H1064 H 0.78273 0.73131 0.99249
 H1065 H 0.74566 0.74877 0.92406
 H1066 H 0.71432 0.77135 0.99418
 C1067 C 0.74641 0.25566 0.57463
 C1068 C 0.72649 0.26554 0.56164
 C1069 C 0.72367 0.26104 0.53585
 C1070 C 0.74194 0.24842 0.52209
 C1071 C 0.76212 0.23900 0.53572
 C1072 C 0.76380 0.24188 0.56185
 C1073 C 0.74073 0.24610 0.49377
 C1074 C 0.75538 0.22937 0.48058
 C1075 C 0.75748 0.23004 0.45424
 C1076 C 0.74342 0.24620 0.44055
 C1077 C 0.72717 0.26151 0.45297
 C1078 C 0.72610 0.26167 0.47932
 H1079 H 0.74798 0.25812 0.59482
 H1080 H 0.70735 0.26803 0.52687
 H1081 H 0.77671 0.22918 0.52655
 H1082 H 0.76592 0.21614 0.49041
 H1083 H 0.74460 0.24636 0.42015
 H1084 H 0.71457 0.27491 0.48804
 C1085 C 0.74569 0.24850 -0.06810
 C1086 C 0.75795 0.26664 -0.05523
 C1087 C 0.75754 0.26701 -0.02887
 C1088 C 0.74686 0.24806 -0.01503
 C1089 C 0.73541 0.22941 -0.02851
 C1090 C 0.73390 0.23017 -0.05483
 C1091 C 0.74794 0.24766 0.01318
 C1092 C 0.72960 0.23561 0.02760
 C1093 C 0.73124 0.23454 0.05391
 C1094 C 0.74997 0.24726 0.06625
 C1095 C 0.76767 0.26014 0.05239
 C1096 C 0.76734 0.25942 0.02606
 H1097 H 0.74547 0.24855 -0.08853
 H1098 H 0.76617 0.28187 -0.01947
 H1099 H 0.72730 0.21437 -0.01881
 H1100 H 0.71416 0.22668 0.01864
 H1101 H 0.75068 0.24729 0.08666
 H1102 H 0.78201 0.26860 0.01590
 C1103 C 0.74195 0.74381 0.42610
 C1104 C 0.76136 0.75676 0.43710
 C1105 C 0.76494 0.75548 0.46319
 C1106 C 0.74801 0.74293 0.47884
 C1107 C 0.72796 0.73085 0.46736
 C1108 C 0.72557 0.73049 0.44112
 C1109 C 0.75116 0.74258 0.50689
 C1110 C 0.74218 0.72337 0.52149
 C1111 C 0.74359 0.72385 0.54782
 C1112 C 0.75623 0.74241 0.55973
 C1113 C 0.76620 0.76113 0.54559
 C1114 C 0.76272 0.76170 0.51948
 H1115 H 0.73960 0.74400 0.40583
 H1116 H 0.78079 0.76467 0.47109
 H1117 H 0.71430 0.72130 0.47854
 H1118 H 0.73328 0.70830 0.51272
 H1119 H 0.75781 0.74259 0.58008
 H1120 H 0.76926 0.77708 0.50921
 C1121 C 1.06889 0.24763 0.23596
 C1122 C 1.05705 0.22914 0.24912
 C1123 C 1.03117 0.22633 0.24747
 C1124 C 1.01665 0.24280 0.23414
 C1125 C 1.02910 0.26090 0.22059
 C1126 C 1.05501 0.26312 0.22116
 C1127 C 0.98876 0.24189 0.23538
 C1128 C 0.97424 0.25168 0.21592
 C1129 C 0.94840 0.25334 0.21852
 C1130 C 0.93647 0.24309 0.23936
 C1131 C 0.95030 0.23236 0.25831
 C1132 C 0.97632 0.23256 0.25682
 H1133 H 1.08895 0.24935 0.23643
 H1134 H 1.02247 0.21155 0.25715
 H1135 H 1.01888 0.27403 0.21020
 H1136 H 0.98282 0.25903 0.19913
 H1137 H 0.91640 0.24396 0.24113
 H1138 H 0.98657 0.22539 0.27249
 C1139 C 0.55842 0.24238 0.74305
 C1140 C 0.54612 0.22462 0.75667
 C1141 C 0.52008 0.22343 0.75665
 C1142 C 0.50593 0.24004 0.74298
 C1143 C 0.51902 0.25773 0.72921
 C1144 C 0.54501 0.25895 0.72940
 C1145 C 0.47789 0.24000 0.74428
 C1146 C 0.46383 0.25240 0.72619
 C1147 C 0.43833 0.25600 0.72967
 C1148 C 0.42606 0.24563 0.75025
 C1149 C 0.43892 0.23120 0.76690
 C1150 C 0.46479 0.22878 0.76430
 H1151 H 0.57854 0.24352 0.74334
 H1152 H 0.51130 0.20925 0.76714
 H1153 H 0.50944 0.27146 0.71914
 H1154 H 0.47248 0.26018 0.70971
 H1155 H 0.40622 0.24796 0.75273
 H1156 H 0.47432 0.21889 0.77861
 C1157 C -0.06331 0.24527 0.74081
 C1158 C -0.05183 0.26196 0.75635
 C1159 C -0.02585 0.26335 0.75722
 C1160 C -0.01093 0.24812 0.74245
 C1161 C -0.02310 0.23137 0.72689
 C1162 C -0.04907 0.23001 0.72608
 C1163 C 0.01700 0.24981 0.74311
 C1164 C 0.03163 0.24104 0.72299
 C1165 C 0.05759 0.24167 0.72403
 C1166 C 0.06943 0.25304 0.74404
 C1167 C 0.05541 0.26274 0.76374
 C1168 C 0.02948 0.26018 0.76382
 H1169 H -0.08342 0.24418 0.74009
 H1170 H -0.01769 0.27696 0.76887
 H1171 H -0.01279 0.21874 0.71580
 H1172 H 0.02327 0.23311 0.70655
 H1173 H 0.08956 0.25408 0.74444
 H1174 H 0.01937 0.26684 0.77995
 C1175 C 0.43613 0.23814 0.25627
 C1176 C 0.44811 0.25429 0.27200
 C1177 C 0.47405 0.25576 0.27215
 C1178 C 0.48877 0.24127 0.25632
 C1179 C 0.47606 0.22493 0.24056
 C1180 C 0.44999 0.22342 0.24046
 C1181 C 0.51678 0.24440 0.25523
 C1182 C 0.53114 0.23441 0.23552
 C1183 C 0.55679 0.23887 0.23345
 C1184 C 0.56832 0.25435 0.25021
 C1185 C 0.55495 0.26374 0.27050
 C1186 C 0.52966 0.25810 0.27346
 H1187 H 0.41599 0.23748 0.25591
 H1188 H 0.48213 0.26931 0.28387
 H1189 H 0.48587 0.21300 0.22825
 H1190 H 0.52291 0.22335 0.22126
 H1191 H 0.58811 0.25779 0.24846
 H1192 H 0.52043 0.26500 0.28997
 C1193 C 1.06055 0.77420 0.76668
 C1194 C 1.04750 0.75754 0.78124
 C1195 C 1.02145 0.75781 0.78185
 C1196 C 1.00812 0.77445 0.76749
 C1197 C 1.02177 0.79116 0.75313
 C1198 C 1.04771 0.79089 0.75251
 C1199 C 0.98030 0.77358 0.76611
 C1200 C 0.96792 0.78196 0.74449
 C1201 C 0.94200 0.78146 0.74314
 C1202 C 0.92811 0.77068 0.76234
 C1203 C 0.94004 0.76096 0.78325
 C1204 C 0.96583 0.76348 0.78574
 H1205 H 1.08066 0.77359 0.76561
 H1206 H 1.01191 0.74406 0.79237
 H1207 H 1.01253 0.80453 0.74217
 H1208 H 0.97809 0.78896 0.72847
 H1209 H 0.90810 0.76913 0.76059
 H1210 H 0.97441 0.75652 0.80251
 C1211 C 0.56090 0.77331 0.26430
 C1212 C 0.54936 0.75630 0.27957
 C1213 C 0.52342 0.75518 0.28111
 C1214 C 0.50849 0.77087 0.26714
 C1215 C 0.52067 0.78801 0.25191
 C1216 C 0.54664 0.78909 0.25036
 C1217 C 0.48068 0.76785 0.26673
 C1218 C 0.46656 0.77626 0.24625
 C1219 C 0.44110 0.77103 0.24436
 C1220 C 0.42974 0.75637 0.26222
 C1221 C 0.44305 0.74858 0.28319
 C1222 C 0.46805 0.75504 0.28589
 H1223 H 0.58099 0.77365 0.26249
 H1224 H 0.51532 0.74091 0.29202
 H1225 H 0.51038 0.80067 0.24101
 H1226 H 0.47509 0.78607 0.23101
 H1227 H 0.41029 0.75163 0.26022
 H1228 H 0.47757 0.74901 0.30255
 C1229 C -0.06066 0.73307 0.26587
 C1230 C -0.04965 0.75009 0.28132
 C1231 C -0.02370 0.75211 0.28224
 C1232 C -0.00819 0.73733 0.26745
 C1233 C -0.02000 0.72026 0.25193
 C1234 C -0.04596 0.71828 0.25102
 C1235 C 0.01970 0.74110 0.26668
 C1236 C 0.03460 0.73155 0.24707
 C1237 C 0.06002 0.73704 0.24515
 C1238 C 0.07068 0.75312 0.26180
 C1239 C 0.05681 0.76197 0.28202
 C1240 C 0.03183 0.75525 0.28499
 H1241 H -0.08074 0.73212 0.26449
 H1242 H -0.01618 0.76634 0.29345
 H1243 H -0.00954 0.70837 0.24014
 H1244 H 0.02694 0.72033 0.23262
 H1245 H 0.09021 0.75768 0.25985
 H1246 H 0.02213 0.76178 0.30140
 C1247 C 0.44440 0.75253 0.76998
 C1248 C 0.46273 0.76675 0.78121
 C1249 C 0.48766 0.76031 0.77926
 C1250 C 0.49469 0.73920 0.76718
 C1251 C 0.47600 0.72477 0.75665
 C1252 C 0.45104 0.73165 0.75739
 C1253 C 0.52152 0.73306 0.76469
 C1254 C 0.53064 0.72159 0.74291
 C1255 C 0.55613 0.71741 0.74000
 C1256 C 0.57284 0.72614 0.75787
 C1257 C 0.56419 0.73827 0.77910
 C1258 C 0.53863 0.74044 0.78319
 H1259 H 0.42508 0.75768 0.77095
 H1260 H 0.50151 0.77223 0.78693
 H1261 H 0.48072 0.70837 0.74734
 H1262 H 0.51820 0.71623 0.72798
 H1263 H 0.59267 0.72437 0.75466
 H1264 H 0.53240 0.74938 0.80010
 N1265 N 0.41842 0.28394 0.27655
 N1266 N 0.43391 0.27027 0.28697
 N1267 N 0.43515 0.79428 0.79821
 N1268 N 0.45673 0.78801 0.79451
 N1269 N -0.08645 0.28610 0.76315
 N1270 N -0.06660 0.27719 0.77173
 N1271 N -0.08036 0.77907 0.28252
 N1272 N -0.06488 0.76660 0.29459
 N1273 N 0.58090 0.72809 0.28023
 N1274 N 0.56384 0.73891 0.29213
 N1275 N 0.58113 0.20134 0.76410
 N1276 N 0.56019 0.20880 0.77188
 N1277 N 1.07777 0.72814 0.78267
 N1278 N 1.06065 0.73934 0.79408
 N1279 N 1.09023 0.22002 0.27613
 N1280 N 1.07117 0.21301 0.26404
 N1281 N 0.57569 0.28843 0.72588
 N1282 N 0.55792 0.27706 0.71566
 N1283 N 0.57814 0.81569 0.23788
 N1284 N 0.55850 0.80424 0.23231
 N1285 N 1.08537 0.29281 0.21395
 N1286 N 1.06706 0.28070 0.20585
 N1287 N 1.08065 0.81638 0.74076
 N1288 N 1.06076 0.80551 0.73486
 N1289 N 0.41206 0.72621 0.73813
 N1290 N 0.43282 0.71757 0.74461
 N1291 N 0.41710 0.19801 0.22885
 N1292 N 0.43761 0.20807 0.22300
 N1293 N -0.07566 0.69025 0.23746
 N1294 N -0.05746 0.70393 0.23218
 N1295 N -0.07856 0.20039 0.71785
 N1296 N -0.06115 0.21369 0.70958
 N1297 N 0.29461 0.42414 0.27228
 N1298 N 0.28310 0.44225 0.28016
 N1299 N 0.31471 -0.07205 0.77587
 N1300 N 0.31299 -0.05124 0.76927
 N1301 N 0.79753 0.42649 0.79372
 N1302 N 0.79537 0.44766 0.78906
 N1303 N 0.80525 -0.06927 0.29001
 N1304 N 0.80160 -0.04809 0.28651
 N1305 N 0.29565 0.58093 0.71877
 N1306 N 0.28082 0.56572 0.70945
 N1307 N 0.27133 1.07535 0.20094
 N1308 N 0.27837 1.05751 0.21348
 N1309 N 0.77491 0.57742 0.20450
 N1310 N 0.78065 0.56072 0.21931
 N1311 N 0.77621 1.08028 0.72650
 N1312 N 0.78600 1.06384 0.73930
 N1313 N 0.69782 0.57922 0.26588
 N1314 N 0.70678 0.55980 0.27357
 N1315 N 0.70671 1.06883 0.79516
 N1316 N 0.71083 1.04789 0.79075
 N1317 N 0.20383 0.58687 0.76517
 N1318 N 0.21468 0.56846 0.77314
 N1319 N 0.19839 1.07085 0.26712
 N1320 N 0.20868 1.05136 0.27261
 N1321 N 0.71860 0.41722 0.73630
 N1322 N 0.72855 0.43564 0.72668
 N1323 N 0.73260 -0.07809 0.22500
 N1324 N 0.72439 -0.06126 0.23848
 N1325 N 0.22359 0.42276 0.20713
 N1326 N 0.21552 0.44064 0.21899
 N1327 N 0.23866 -0.08060 0.71253
 N1328 N 0.23249 -0.06377 0.72709
 N1329 N 0.28250 0.29001 0.41067
 N1330 N 0.29127 0.27589 0.42692
 N1331 N 0.26835 0.79229 -0.09493
 N1332 N 0.27582 0.78096 -0.07571
 N1333 N 0.78762 0.27722 -0.08544
 N1334 N 0.77193 0.28401 -0.06898
 N1335 N 0.76907 0.78209 0.40273
 N1336 N 0.77740 0.77143 0.42200
 N1337 N 0.71671 0.29630 0.58945
 N1338 N 0.70903 0.28019 0.57463
 N1339 N 0.71003 0.78369 1.09519
 N1340 N 0.72653 0.78949 1.07898
 N1341 N 0.20778 0.29122 1.06787
 N1342 N 0.23037 0.28541 1.07087
 N1343 N 0.19907 0.78340 0.58856
 N1344 N 0.21495 0.78757 0.57120
 N1345 N 0.27245 0.72399 0.60325
 N1346 N 0.26640 0.71715 0.58126
 N1347 N 0.29908 0.22064 1.07858
 N1348 N 0.28207 0.21578 1.06283
 N1349 N 0.79232 0.72470 1.09630
 N1350 N 0.77835 0.71852 1.07818
 N1351 N 0.77451 0.21041 0.58736
 N1352 N 0.78174 0.22891 0.57576
 N1353 N 0.71336 0.70059 0.41348
 N1354 N 0.70691 0.71605 0.42960
 N1355 N 0.70528 0.21869 -0.08539
 N1356 N 0.72020 0.21247 -0.06817
 N1357 N 0.21323 0.71071 -0.08697
 N1358 N 0.20536 0.72555 -0.07085
 N1359 N 0.23582 0.19957 0.40639
 N1360 N 0.22821 0.21307 0.42394
 N1361 N 0.28791 0.42470 0.71533
 N1362 N 0.27049 0.43818 0.70829
 N1363 N 0.30153 0.92005 0.20652
 N1364 N 0.28287 0.93273 0.20124
 N1365 N 0.79750 0.41977 0.22351
 N1366 N 0.78160 0.43516 0.21727
 N1367 N 0.77866 0.92150 0.69684
 N1368 N 0.78588 0.93927 0.70960
 N1369 N 0.71478 0.57082 0.70627
 N1370 N 0.73565 0.56182 0.70058
 N1371 N 0.69776 0.08049 0.23190
 N1372 N 0.71483 0.06558 0.22758
 N1373 N 0.20761 0.57650 0.21173
 N1374 N 0.22896 0.56807 0.20692
 N1375 N 0.20587 0.07590 0.71710
 N1376 N 0.22281 0.06146 0.71084
 N1377 N 0.29168 0.58326 0.27976
 N1378 N 0.27490 0.56838 0.28599
 N1379 N 0.29954 0.06986 0.79013
 N1380 N 0.27722 0.07232 0.78285
 N1381 N 0.79487 0.58799 0.77375
 N1382 N 0.77969 0.57166 0.78010
 N1383 N 0.78551 0.08161 0.29591
 N1384 N 0.76476 0.07319 0.30343
 N1385 N 0.70627 0.43197 0.29351
 N1386 N 0.72990 0.43251 0.29246
 N1387 N 0.71964 0.90843 0.77445
 N1388 N 0.73244 0.92532 0.78355
 N1389 N 0.20481 0.42823 0.78076
 N1390 N 0.22294 0.44160 0.78677
 N1391 N 0.21156 0.92532 0.28556
 N1392 N 0.23407 0.92326 0.27841
 N1393 N 0.40921 0.28535 0.72060
 N1394 N 0.42515 0.27070 0.71243
 N1395 N 0.43157 0.80046 0.21453
 N1396 N 0.42640 0.78054 0.22447
 N1397 N 0.92106 0.28393 0.21056
 N1398 N 0.93465 0.26770 0.20150
 N1399 N 0.91426 0.80812 0.72533
 N1400 N 0.92983 0.79163 0.72197
 N1401 N 0.58279 0.29415 0.28190
 N1402 N 0.56718 0.27834 0.28876
 N1403 N 0.59782 0.76407 0.78358
 N1404 N 0.58095 0.75172 0.79430
 N1405 N 0.08273 0.29241 0.77678
 N1406 N 0.06733 0.27624 0.78306
 N1407 N 0.08299 0.79376 0.29233
 N1408 N 0.06822 0.77752 0.29987
 N1409 N 0.57854 0.68739 0.72046
 N1410 N 0.56552 0.70588 0.71804
 N1411 N 0.56815 0.20452 0.21163
 N1412 N 0.57183 0.22642 0.21562
 N1413 N 0.07678 0.70344 0.22571
 N1414 N 0.07555 0.72585 0.22682
 N1415 N 0.08301 0.21027 0.71337
 N1416 N 0.07182 0.22869 0.70602
 N1417 N 0.41802 0.71606 0.29301
 N1418 N 0.43166 0.73285 0.30102
 N1419 N 0.42973 0.19793 0.79244
 N1420 N 0.42519 0.21919 0.78631
 N1421 N 0.91321 0.72943 0.79071
 N1422 N 0.92653 0.74581 0.80010
 N1423 N 0.92133 0.20550 0.27464
 N1424 N 0.93780 0.22119 0.27904
 N1425 N 0.27788 0.28656 0.57944
 N1426 N 0.28696 0.27312 0.56257
 N1427 N 0.28631 0.78031 0.08044
 N1428 N 0.27389 0.78686 0.06140
 N1429 N 0.77780 0.28893 0.08213
 N1430 N 0.78528 0.27494 0.06499
 N1431 N 0.79562 0.77525 0.57438
 N1432 N 0.77938 0.77989 0.55782
 N1433 N 0.28041 0.70350 0.42882
 N1434 N 0.28709 0.71832 0.44551
 N1435 N 0.27321 0.21762 0.90920
 N1436 N 0.28057 0.22840 0.92882
 N1437 N 0.77509 0.71017 0.92563
 N1438 N 0.78273 0.72340 0.94339
 N1439 N 0.78703 0.22196 0.42274
 N1440 N 0.77418 0.21447 0.44140
 N1441 N 0.71970 0.28650 0.41858
 N1442 N 0.71182 0.27726 0.43899
 N1443 N 0.71951 0.79198 0.92965
 N1444 N 0.71124 0.77624 0.94468
 N1445 N 0.21520 0.29450 0.91901
 N1446 N 0.20781 0.27967 0.93550
 N1447 N 0.22577 0.78371 0.41904
 N1448 N 0.21680 0.77248 0.43785
 N1449 N 0.71833 0.71309 0.58194
 N1450 N 0.73029 0.70655 0.56242
 N1451 N 0.72156 0.20777 0.08628
 N1452 N 0.71396 0.22034 0.06804
 N1453 N 0.20831 0.72034 0.07977
 N1454 N 0.22291 0.71450 0.06192
 N1455 N 0.22199 0.20390 0.57490
 N1456 N 0.21517 0.21936 0.55905
   
