data_POSCAR
  _audit_creation_date              2014-09-24
  _audit_creation_method            'ToBaCCo'
  _symmetry_space_group_name_H-M    'P1'
  _symmetry_Int_Tables_number       1
  _symmetry_cell_setting            triclinic
  loop_
  _symmetry_equiv_pos_as_xyz
 x,y,z
_cell_length_a 45.7346
_cell_length_b 45.7843
_cell_length_c 45.7403
_cell_angle_alpha 90.060800
_cell_angle_beta 89.999100
_cell_angle_gamma 90.000900
loop_
  _atom_site_label
  _atom_site_type_symbol
  _atom_site_fract_x
  _atom_site_fract_y
  _atom_site_fract_z
C1 C 0.24867 1.09193 -0.01508
 C2 C 0.25032 1.09205 0.01483
 C3 C 0.25071 1.06304 0.02366
 N4 N 0.24944 1.04535 0.00002
 C5 C 0.24823 1.06287 -0.02370
 C6 C 0.25125 1.05362 0.05314
 C7 C 0.25021 1.02400 0.06220
 C8 C 0.24604 1.01509 0.09093
 C9 C 0.24574 0.98513 0.09083
 C10 C 0.24977 0.97629 0.06208
 N11 N 0.25295 1.00014 0.04485
 C12 C 0.25042 0.94672 0.05294
 C13 C 0.25048 0.93714 0.02354
 C14 C 0.25030 0.90809 0.01492
 C15 C 0.24936 0.90796 -0.01502
 C16 C 0.24904 0.93697 -0.02385
 N17 N 0.24973 0.95466 -0.00019
 C18 C 0.24898 0.94641 -0.05333
 C19 C 0.24942 0.97606 -0.06238
 C20 C 0.25331 0.98506 -0.09112
 C21 C 0.25290 1.01502 -0.09104
 C22 C 0.24881 1.02376 -0.06227
 N23 N 0.24621 0.99986 -0.04503
 C24 C 0.24774 1.05332 -0.05310
 H25 H 0.24810 1.11110 -0.02890
 H26 H 0.25095 1.11134 0.02853
 H27 H 0.24044 0.99984 -0.02315
 H28 H 0.24309 1.02878 0.11001
 H29 H 0.24257 0.97142 0.10983
 H30 H 0.25063 0.88891 0.02875
 H31 H 0.24908 0.88867 -0.02873
 H32 H 0.25573 1.02880 -0.11005
 H33 H 0.25885 1.00009 0.02301
 H34 H 0.25648 0.97144 -0.11022
 C35 C 0.74908 0.48502 0.59195
 C36 C 0.75081 0.51491 0.59196
 C37 C 0.75123 0.52358 0.56290
 N38 N 0.74991 0.49993 0.54528
 C39 C 0.74861 0.47630 0.56290
 C40 C 0.75185 0.55296 0.55342
 C41 C 0.75085 0.56211 0.52384
 C42 C 0.74684 0.59085 0.51509
 C43 C 0.74650 0.59089 0.48508
 C44 C 0.75034 0.56218 0.47611
 N45 N 0.75346 0.54486 0.49992
 C46 C 0.75081 0.55312 0.44647
 C47 C 0.75066 0.52373 0.43695
 C48 C 0.75037 0.51501 0.40789
 C49 C 0.74933 0.48508 0.40789
 C50 C 0.74905 0.47641 0.43695
 N51 N 0.74984 0.50008 0.45457
 C52 C 0.74900 0.44704 0.44645
 C53 C 0.74947 0.43791 0.47605
 C54 C 0.75337 0.40918 0.48489
 C55 C 0.75301 0.40913 0.51490
 C56 C 0.74895 0.43784 0.52378
 N57 N 0.74629 0.45515 0.49992
 C58 C 0.74801 0.44692 0.55339
 H59 H 0.74845 0.47128 0.61119
 H60 H 0.75146 0.52867 0.61120
 H61 H 0.74049 0.47700 0.49990
 H62 H 0.74402 0.60987 0.52888
 H63 H 0.74340 0.60994 0.47143
 H64 H 0.75074 0.52876 0.38866
 H65 H 0.74899 0.47131 0.38865
 H66 H 0.75588 0.39009 0.52861
 H67 H 0.75923 0.52300 0.49986
 H68 H 0.75651 0.39016 0.47117
 C69 C 0.75142 1.01499 1.09316
 C70 C 0.74980 0.98511 1.09317
 C71 C 0.74948 0.97634 1.06410
 N72 N 0.75075 0.99999 1.04647
 C73 C 0.75191 1.02369 1.06408
 C74 C 0.74900 0.94688 1.05459
 C75 C 0.75013 0.93781 1.02493
 C76 C 0.75435 0.90911 1.01597
 C77 C 0.75468 0.90918 0.98598
 C78 C 0.75063 0.93789 0.97718
 N79 N 0.74740 0.95512 1.00107
 C80 C 0.75000 0.94699 0.94758
 C81 C 0.74996 0.97635 0.93806
 C82 C 0.75013 0.98500 0.90900
 C83 C 0.75108 1.01493 0.90899
 C84 C 0.75141 1.02366 0.93804
 N85 N 0.75073 1.00003 0.95568
 C86 C 0.75144 1.05305 0.94754
 C87 C 0.75094 1.06216 0.97716
 C88 C 0.74703 1.09088 0.98603
 C89 C 0.74734 1.09094 1.01602
 C90 C 0.75141 1.06222 1.02492
 N91 N 0.75408 1.04490 1.00103
 C92 C 0.75242 1.05313 1.05457
 H93 H 0.75195 1.02875 1.11241
 H94 H 0.74917 0.97139 1.11242
 H95 H 0.75985 1.02305 1.00102
 H96 H 0.75729 0.89005 1.02965
 H97 H 0.75789 0.89018 0.97224
 H98 H 0.74978 0.97121 0.88977
 H99 H 0.75134 1.02867 0.88975
 H100 H 0.74448 1.11001 1.02973
 H101 H 0.74147 0.97693 1.00107
 H102 H 0.74391 1.10989 0.97232
 C103 C 0.25008 0.40807 0.48483
 C104 C 0.24838 0.40811 0.51476
 C105 C 0.24804 0.43715 0.52346
 N106 N 0.24939 0.45472 0.49980
 C107 C 0.25061 0.43708 0.47613
 C108 C 0.24750 0.44667 0.55288
 C109 C 0.24860 0.47622 0.56206
 C110 C 0.25268 0.48500 0.59083
 C111 C 0.25309 0.51498 0.59089
 C112 C 0.24922 0.52391 0.56216
 N113 N 0.24600 0.50011 0.54481
 C114 C 0.24880 0.55351 0.55312
 C115 C 0.24892 0.56299 0.52371
 C116 C 0.24924 0.59200 0.51501
 C117 C 0.25024 0.59196 0.48505
 C118 C 0.25047 0.56292 0.47634
 N119 N 0.24967 0.54535 0.50003
 C120 C 0.25047 0.55339 0.44693
 C121 C 0.24994 0.52380 0.43776
 C122 C 0.24603 0.51494 0.40900
 C123 C 0.24631 0.48496 0.40893
 C124 C 0.25035 0.47611 0.43765
 N125 N 0.25306 0.49997 0.45501
 C126 C 0.25123 0.44653 0.44672
 H127 H 0.25064 0.38883 0.47107
 H128 H 0.24770 0.38890 0.52852
 H129 H 0.25885 0.50000 0.47688
 H130 H 0.25550 0.47124 0.60985
 H131 H 0.25626 0.52863 0.60996
 H132 H 0.24893 0.61123 0.52878
 H133 H 0.25060 0.61117 0.47127
 H134 H 0.24342 0.47124 0.38985
 H135 H 0.24019 0.50015 0.52295
 H136 H 0.24291 0.52864 0.38997
 C137 C 1.09243 0.24690 -0.01609
 C138 C 1.09266 0.24843 0.01382
 C139 C 1.06365 0.24937 0.02274
 N140 N 1.04585 0.24857 -0.00085
 C141 C 1.06330 0.24709 -0.02466
 C142 C 1.05435 0.25012 0.05228
 C143 C 1.02474 0.24939 0.06155
 C144 C 1.01595 0.24570 0.09039
 C145 C 0.98595 0.24543 0.09047
 C146 C 0.97697 0.24900 0.06172
 N147 N 1.00077 0.25188 0.04431
 C148 C 0.94732 0.24939 0.05273
 C149 C 0.93760 0.24932 0.02338
 C150 C 0.90847 0.24874 0.01494
 C151 C 0.90820 0.24798 -0.01501
 C152 C 0.93720 0.24817 -0.02401
 N153 N 0.95502 0.24899 -0.00047
 C154 C 0.94649 0.24858 -0.05354
 C155 C 0.97613 0.24936 -0.06274
 C156 C 0.98495 0.25393 -0.09144
 C157 C 1.01493 0.25345 -0.09160
 C158 C 1.02391 0.24863 -0.06299
 N159 N 1.00007 0.24570 -0.04564
 C160 C 1.05360 0.24705 -0.05407
 H161 H 1.11159 0.24602 -0.02997
 H162 H 1.11201 0.24863 0.02744
 H163 H 1.00015 0.23927 -0.02395
 H164 H 1.02973 0.24302 0.10944
 H165 H 0.97232 0.24255 0.10960
 H166 H 0.88934 0.24872 0.02888
 H167 H 0.88883 0.24752 -0.02860
 H168 H 1.02859 0.25665 -0.11066
 H169 H 1.00063 0.25725 0.02235
 H170 H 0.97120 0.25754 -0.11035
 C171 C 0.48557 0.74927 0.59241
 C172 C 0.51553 0.74831 0.59223
 C173 C 0.52408 0.74802 0.56313
 N174 N 0.50029 0.74874 0.54565
 C175 C 0.47670 0.74952 0.56341
 C176 C 0.55344 0.74803 0.55344
 C177 C 0.56243 0.74850 0.52379
 C178 C 0.59115 0.75241 0.51478
 C179 C 0.59105 0.75206 0.48477
 C180 C 0.56227 0.74799 0.47606
 N181 N 0.54505 0.74532 0.50002
 C182 C 0.55303 0.74708 0.44650
 C183 C 0.52356 0.74769 0.43717
 C184 C 0.51470 0.74823 0.40817
 C185 C 0.48477 0.74995 0.40835
 C186 C 0.47623 0.75028 0.43746
 N187 N 0.50000 0.74892 0.45494
 C188 C 0.44687 0.75085 0.44712
 C189 C 0.43786 0.74974 0.47674
 C190 C 0.40914 0.74564 0.48566
 C191 C 0.40926 0.74523 0.51566
 C192 C 0.43804 0.74913 0.52447
 N193 N 0.45525 0.75235 0.50057
 C194 C 0.44724 0.74960 0.55405
 H195 H 0.47190 0.74962 0.61172
 H196 H 0.52942 0.74802 0.61139
 H197 H 0.47711 0.75818 0.50051
 H198 H 0.61025 0.75556 0.52840
 H199 H 0.61004 0.75494 0.47095
 H200 H 0.52836 0.74767 0.38885
 H201 H 0.47090 0.75065 0.38919
 H202 H 0.39026 0.74206 0.52942
 H203 H 0.52318 0.73953 0.50016
 H204 H 0.39004 0.74281 0.47197
 C205 C -0.01482 0.75305 -0.09244
 C206 C 0.01509 0.75152 -0.09232
 C207 C 0.02368 0.75055 -0.06322
 N208 N -0.00012 0.75132 -0.04570
 C209 C -0.02372 0.75282 -0.06342
 C210 C 0.05312 0.74976 -0.05358
 C211 C 0.06206 0.75047 -0.02387
 C212 C 0.09082 0.75404 -0.01475
 C213 C 0.09056 0.75436 0.01524
 C214 C 0.06167 0.75094 0.02389
 N215 N 0.04452 0.74810 -0.00010
 C216 C 0.05233 0.75068 0.05344
 C217 C 0.02287 0.75087 0.06282
 C218 C 0.01410 0.75162 0.09184
 C219 C -0.01586 0.75242 0.09176
 C220 C -0.02453 0.75208 0.06266
 N221 N -0.00078 0.75113 0.04512
 C222 C -0.05395 0.75162 0.05303
 C223 C -0.06280 0.75068 0.02330
 C224 C -0.09139 0.74599 0.01416
 C225 C -0.09120 0.74638 -0.01582
 C226 C -0.06250 0.75126 -0.02448
 N227 N -0.04542 0.75432 -0.00045
 C228 C -0.05324 0.75282 -0.05406
 H229 H -0.02848 0.75394 -0.11175
 H230 H 0.02894 0.75135 -0.11151
 H231 H -0.02375 0.76084 -0.00029
 H232 H 0.11004 0.75661 -0.02832
 H233 H 0.10955 0.75718 0.02909
 H234 H 0.02782 0.75172 0.11112
 H235 H -0.02967 0.75300 0.11097
 H236 H -0.11010 0.74308 -0.02969
 H237 H 0.02253 0.74287 -0.00021
 H238 H -0.11046 0.74237 0.02770
 C239 C 0.48552 0.25183 0.40779
 C240 C 0.51545 0.25008 0.40803
 C241 C 0.52392 0.24970 0.43716
 N242 N 0.50011 0.25106 0.45459
 C243 C 0.47659 0.25234 0.43676
 C244 C 0.55326 0.24908 0.44689
 C245 C 0.56220 0.25015 0.47654
 C246 C 0.59091 0.25416 0.48553
 C247 C 0.59072 0.25458 0.51554
 C248 C 0.56191 0.25076 0.52427
 N249 N 0.54475 0.24759 0.50032
 C250 C 0.55262 0.25035 0.55384
 C251 C 0.52314 0.25049 0.56312
 C252 C 0.51420 0.25079 0.59210
 C253 C 0.48424 0.25179 0.59185
 C254 C 0.47577 0.25203 0.56272
 N255 N 0.49960 0.25125 0.54530
 C256 C 0.44643 0.25202 0.55296
 C257 C 0.43752 0.25153 0.52329
 C258 C 0.40882 0.24759 0.51420
 C259 C 0.40900 0.24793 0.48420
 C260 C 0.43780 0.25202 0.47556
 N261 N 0.45496 0.25472 0.49957
 C262 C 0.44711 0.25295 0.44603
 H263 H 0.47191 0.25243 0.38844
 H264 H 0.52937 0.24940 0.38890
 H265 H 0.47682 0.26054 0.49977
 H266 H 0.61005 0.25694 0.47189
 H267 H 0.60969 0.25770 0.52934
 H268 H 0.52783 0.25046 0.61144
 H269 H 0.47030 0.25213 0.61097
 H270 H 0.39004 0.24503 0.47033
 H271 H 0.52287 0.24184 0.50020
 H272 H 0.38969 0.24443 0.52777
 C273 C 1.09325 -0.01487 0.24926
 C274 C 1.09318 0.01501 0.25076
 C275 C 1.06409 0.02369 0.25113
 N276 N 1.04652 -0.00003 0.25001
 C277 C 1.06419 -0.02368 0.24889
 C278 C 1.05451 0.05312 0.25152
 C279 C 1.02483 0.06214 0.25047
 C280 C 1.01585 0.09083 0.24627
 C281 C 0.98585 0.09071 0.24601
 C282 C 0.97707 0.06199 0.25007
 N283 N 1.00099 0.04480 0.25324
 C284 C 0.94748 0.05283 0.25070
 C285 C 0.93804 0.02344 0.25072
 C286 C 0.90900 0.01468 0.25048
 C287 C 0.90907 -0.01524 0.24955
 C288 C 0.93815 -0.02387 0.24930
 N289 N 0.95573 -0.00018 0.25001
 C290 C 0.94772 -0.05323 0.24935
 C291 C 0.97734 -0.06228 0.24996
 C292 C 0.98622 -0.09098 0.25402
 C293 C 1.01621 -0.09099 0.25375
 C294 C 1.02510 -0.06228 0.24955
 N295 N 1.00119 -0.04501 0.24678
 C296 C 1.05475 -0.05315 0.24851
 H297 H 1.11253 -0.02857 0.24873
 H298 H 1.11241 0.02880 0.25128
 H299 H 1.00115 -0.02320 0.24088
 H300 H 1.02951 0.10991 0.24330
 H301 H 0.97208 0.10967 0.24282
 H302 H 0.88973 0.02840 0.25078
 H303 H 0.88986 -0.02904 0.24926
 H304 H 1.02994 -0.11002 0.25672
 H305 H 1.00104 0.02298 0.25915
 H306 H 0.97252 -0.10999 0.25721
 C307 C 0.48463 0.59200 0.75013
 C308 C 0.51457 0.59202 0.75177
 C309 C 0.52329 0.56300 0.75214
 N310 N 0.49963 0.54538 0.75086
 C311 C 0.47594 0.56297 0.74965
 C312 C 0.55271 0.55352 0.75265
 C313 C 0.56185 0.52396 0.75162
 C314 C 0.59061 0.51517 0.74750
 C315 C 0.59063 0.48519 0.74717
 C316 C 0.56190 0.47627 0.75113
 N317 N 0.54458 0.50008 0.75431
 C318 C 0.55284 0.44667 0.75165
 C319 C 0.52343 0.43715 0.75157
 C320 C 0.51474 0.40812 0.75130
 C321 C 0.48477 0.40810 0.75027
 C322 C 0.47605 0.43712 0.74999
 N323 N 0.49973 0.45474 0.75077
 C324 C 0.44663 0.44661 0.74991
 C325 C 0.43750 0.47620 0.75043
 C326 C 0.40874 0.48506 0.75433
 C327 C 0.40870 0.51504 0.75405
 C328 C 0.43745 0.52388 0.75001
 N329 N 0.45478 0.50003 0.74732
 C330 C 0.44653 0.55346 0.74910
 H331 H 0.47085 0.61121 0.74957
 H332 H 0.52833 0.61124 0.75241
 H333 H 0.47665 0.50001 0.74153
 H334 H 0.60964 0.52893 0.74461
 H335 H 0.60970 0.47154 0.74401
 H336 H 0.52853 0.38890 0.75165
 H337 H 0.47100 0.38887 0.74994
 H338 H 0.38964 0.52876 0.75693
 H339 H 0.52272 0.50003 0.76017
 H340 H 0.38970 0.47137 0.75744
 C341 C 1.01590 1.09202 0.75140
 C342 C 0.98598 1.09205 0.74985
 C343 C 0.97729 1.06304 0.74878
 N344 N 1.00097 1.04540 0.74951
 C345 C 1.02465 1.06298 0.75111
 C346 C 0.94785 1.05361 0.74794
 C347 C 0.93860 1.02408 0.74856
 C348 C 0.90973 1.01536 0.75194
 C349 C 0.90965 0.98538 0.75235
 C350 C 0.93846 0.97640 0.74917
 N351 N 0.95589 1.00015 0.74636
 C352 C 0.94751 0.94679 0.74918
 C353 C 0.97690 0.93720 0.74960
 C354 C 0.98546 0.90816 0.75066
 C355 C 1.01541 0.90804 0.75155
 C356 C 1.02430 0.93704 0.75095
 N357 N 1.00068 0.95471 0.74976
 C358 C 1.05379 0.94644 0.75042
 C359 C 1.06293 0.97606 0.74927
 C360 C 1.09158 0.98489 0.74445
 C361 C 1.09168 1.01485 0.74471
 C362 C 1.06308 1.02379 0.74965
 N363 N 1.04579 0.99996 0.75285
 C364 C 1.05411 1.05344 0.75114
 H365 H 1.02965 1.11125 0.75238
 H366 H 0.97221 1.11128 0.74971
 H367 H 1.02414 1.00000 0.75950
 H368 H 0.89066 1.02915 0.75436
 H369 H 0.89049 0.97177 0.75511
 H370 H 0.97159 0.88900 0.75089
 H371 H 1.02908 0.88875 0.75234
 H372 H 1.11070 1.02852 0.74130
 H373 H 0.97793 1.00005 0.74133
 H374 H 1.11052 0.97116 0.74084
 C375 C 0.40785 0.48529 0.24874
 C376 C 0.40799 0.51522 0.24978
 C377 C 0.43709 0.52379 0.25004
 N378 N 0.45460 0.50006 0.24923
 C379 C 0.43687 0.47647 0.24844
 C380 C 0.44673 0.55314 0.25011
 C381 C 0.47638 0.56211 0.24959
 C382 C 0.48539 0.59079 0.24566
 C383 C 0.51541 0.59068 0.24596
 C384 C 0.52413 0.56193 0.25001
 N385 N 0.50016 0.54475 0.25272
 C386 C 0.55369 0.55271 0.25095
 C387 C 0.56306 0.52328 0.25041
 C388 C 0.59208 0.51446 0.24998
 C389 C 0.59194 0.48455 0.24833
 C390 C 0.56285 0.47599 0.24792
 N391 N 0.54533 0.49971 0.24917
 C392 C 0.55322 0.44664 0.24738
 C393 C 0.52358 0.43765 0.24836
 C394 C 0.51464 0.40897 0.25242
 C395 C 0.48463 0.40909 0.25274
 C396 C 0.47584 0.43784 0.24883
 N397 N 0.49976 0.45502 0.24569
 C398 C 0.44626 0.44705 0.24833
 H399 H 0.38855 0.47161 0.24840
 H400 H 0.38881 0.52907 0.25014
 H401 H 0.49982 0.47686 0.23988
 H402 H 0.47177 0.60987 0.24254
 H403 H 0.52923 0.60965 0.24307
 H404 H 0.61138 0.52813 0.25057
 H405 H 0.61113 0.47072 0.24772
 H406 H 0.47086 0.39012 0.25587
 H407 H 0.50004 0.52291 0.25853
 H408 H 0.52832 0.38989 0.25529
 O409 O 0.25021 0.17404 0.20862
 O410 O 0.28342 0.16656 0.24956
 O411 O 0.17430 0.20893 0.25046
 O412 O 0.16297 0.24701 0.27886
 O413 O 0.20953 0.24999 0.17313
 O414 O 0.24999 0.28188 0.16487
 O415 O 0.25070 0.29011 0.32485
 O416 O 0.21670 0.25165 0.33276
 O417 O 0.32537 0.25141 0.28943
 O418 O 0.33430 0.21800 0.25228
 O419 O 0.28982 0.32529 0.25013
 O420 O 0.24809 0.33442 0.21730
 O421 O 0.25060 0.32513 0.28974
 O422 O 0.21684 0.33379 0.24805
 O423 O 0.32508 0.29039 0.25007
 O424 O 0.33326 0.24814 0.21600
 O425 O 0.29034 0.25153 0.32463
 O426 O 0.25057 0.21760 0.33388
 O427 O 0.25055 0.20902 0.17342
 O428 O 0.28283 0.24987 0.16543
 O429 O 0.17426 0.24962 0.20812
 O430 O 0.16729 0.28386 0.24895
 O431 O 0.20940 0.17371 0.24916
 O432 O 0.24797 0.16734 0.28359
 Zr433 Zr 0.24877 0.19738 0.24836
 O434 O 0.27614 0.22265 0.27537
 Zr435 Zr 0.19736 0.24869 0.24797
 O436 O 0.22229 0.27589 0.27567
 Zr437 Zr 0.24894 0.24858 0.19684
 O438 O 0.27593 0.27617 0.22190
 Zr439 Zr 0.25066 0.25064 0.30139
 O440 O 0.22293 0.22318 0.27648
 Zr441 Zr 0.30185 0.25077 0.24997
 O442 O 0.27717 0.22279 0.22248
 Zr443 Zr 0.25024 0.30184 0.25004
 O444 O 0.22292 0.27686 0.22214
 O445 O 0.22173 0.22156 0.22104
 O446 O 0.27783 0.27813 0.27738
 C447 C 0.25101 0.18221 0.18174
 C448 C 0.18256 0.18203 0.25045
 C449 C 0.18262 0.25035 0.18128
 C450 C 0.25078 0.31694 0.31661
 C451 C 0.31718 0.25172 0.31632
 C452 C 0.31672 0.31718 0.25016
 H453 H 0.28870 0.20954 0.28708
 H454 H 0.28790 0.28829 0.20864
 H455 H 0.20926 0.20902 0.20856
 H456 H 0.20914 0.28777 0.28804
 H457 H 0.20194 0.23710 0.32647
 H458 H 0.16944 0.25804 0.29630
 H459 H 0.33025 0.26495 0.20278
 H460 H 0.29795 0.23589 0.17203
 H461 H 0.26565 0.20300 0.32875
 H462 H 0.23344 0.17458 0.29790
 H463 H 0.26337 0.33006 0.20263
 H464 H 0.23679 0.29752 0.17189
 H465 H 0.27561 0.14699 0.24436
 H466 H 0.32580 0.20040 0.24304
 H467 H 0.17324 0.29766 0.23340
 H468 H 0.20292 0.32989 0.26413
 O469 O 0.74993 0.82569 0.20912
 O470 O 0.71686 0.83330 0.25012
 O471 O 0.82585 0.79055 0.25071
 O472 O 0.83713 0.75247 0.27901
 O473 O 0.79038 0.74969 0.17337
 O474 O 0.74985 0.71786 0.16512
 O475 O 0.74939 0.70972 0.32515
 O476 O 0.78343 0.74811 0.33307
 O477 O 0.67471 0.74855 0.28988
 O478 O 0.66579 0.78192 0.25275
 O479 O 0.71006 0.67453 0.25049
 O480 O 0.75153 0.66517 0.21764
 O481 O 0.74938 0.67467 0.28999
 O482 O 0.78310 0.66600 0.24806
 O483 O 0.67486 0.70950 0.25050
 O484 O 0.66673 0.75176 0.21645
 O485 O 0.70979 0.74835 0.32502
 O486 O 0.74966 0.78225 0.33424
 O487 O 0.74945 0.79073 0.17382
 O488 O 0.71702 0.74992 0.16584
 O489 O 0.82568 0.74993 0.20833
 O490 O 0.83259 0.71561 0.24911
 O491 O 0.79088 0.82591 0.24951
 O492 O 0.75237 0.83238 0.28410
 Zr493 Zr 0.75141 0.80236 0.24879
 O494 O 0.72399 0.77717 0.27579
 Zr495 Zr 0.80265 0.75089 0.24822
 O496 O 0.77770 0.72380 0.27593
 Zr497 Zr 0.75100 0.75115 0.19716
 O498 O 0.72399 0.72362 0.22223
 Zr499 Zr 0.74944 0.74915 0.30173
 O500 O 0.77722 0.77650 0.27681
 Zr501 Zr 0.69818 0.74909 0.25038
 O502 O 0.72289 0.77701 0.22291
 Zr503 Zr 0.74967 0.69791 0.25030
 O504 O 0.77698 0.72279 0.22237
 O505 O 0.77832 0.77809 0.22138
 O506 O 0.72218 0.72170 0.27772
 C507 C 0.74907 0.81754 0.18221
 C508 C 0.81770 0.81748 0.25071
 C509 C 0.81729 0.74928 0.18150
 C510 C 0.74929 0.68289 0.31687
 C511 C 0.68293 0.74822 0.31675
 C512 C 0.68317 0.68269 0.25060
 H513 H 0.71148 0.79032 0.28753
 H514 H 0.71197 0.71151 0.20898
 H515 H 0.79079 0.79060 0.20890
 H516 H 0.79086 0.71191 0.28826
 H517 H 0.79823 0.76258 0.32675
 H518 H 0.83063 0.74157 0.29649
 H519 H 0.66964 0.73489 0.20325
 H520 H 0.70197 0.76398 0.17248
 H521 H 0.73456 0.79684 0.32917
 H522 H 0.76698 0.82513 0.29832
 H523 H 0.73646 0.66974 0.20283
 H524 H 0.76301 0.70218 0.17211
 H525 H 0.72474 0.85285 0.24498
 H526 H 0.67436 0.79952 0.24363
 H527 H 0.82668 0.70190 0.23343
 H528 H 0.79692 0.66971 0.26428
 O529 O 0.75020 0.17462 0.79116
 O530 O 0.71685 0.16687 0.75035
 O531 O 0.82580 0.20967 0.74894
 O532 O 0.83688 0.24773 0.72049
 O533 O 0.79073 0.25075 0.82639
 O534 O 0.75018 0.28263 0.83473
 O535 O 0.74886 0.29030 0.67477
 O536 O 0.78301 0.25193 0.66682
 O537 O 0.67445 0.25137 0.71045
 O538 O 0.66576 0.21811 0.74773
 O539 O 0.70986 0.32559 0.74960
 O540 O 0.75161 0.33500 0.78225
 O541 O 0.74893 0.32542 0.70986
 O542 O 0.78282 0.33433 0.75147
 O543 O 0.67472 0.29055 0.74978
 O544 O 0.66679 0.24839 0.78393
 O545 O 0.70939 0.25154 0.67517
 O546 O 0.74923 0.21778 0.66581
 O547 O 0.74984 0.20972 0.82632
 O548 O 0.71745 0.25046 0.83438
 O549 O 0.82586 0.25041 0.79125
 O550 O 0.83252 0.28463 0.75042
 O551 O 0.79086 0.17431 0.75046
 O552 O 0.75217 0.16765 0.71620
 Zr553 Zr 0.75139 0.19783 0.75138
 O554 O 0.72384 0.22290 0.72442
 Zr555 Zr 0.80260 0.24935 0.75150
 O556 O 0.77747 0.27637 0.72388
 Zr557 Zr 0.75122 0.24920 0.80284
 O558 O 0.72402 0.27659 0.77783
 Zr559 Zr 0.74913 0.25091 0.69828
 O560 O 0.77703 0.22363 0.72313
 Zr561 Zr 0.69810 0.25101 0.74987
 O562 O 0.72298 0.22323 0.77732
 Zr563 Zr 0.74951 0.30227 0.74958
 O564 O 0.77703 0.27750 0.77741
 O565 O 0.77843 0.22220 0.77856
 O566 O 0.72192 0.27837 0.72235
 C567 C 0.74948 0.18288 0.81804
 C568 C 0.81765 0.18274 0.74904
 C569 C 0.81761 0.25113 0.81813
 C570 C 0.74871 0.31715 0.68300
 C571 C 0.68257 0.25160 0.68354
 C572 C 0.68298 0.31737 0.74966
 H573 H 0.71130 0.20970 0.71277
 H574 H 0.71204 0.28870 0.79112
 H575 H 0.79099 0.20974 0.79099
 H576 H 0.79054 0.28825 0.71145
 H577 H 0.79782 0.23745 0.67308
 H578 H 0.83032 0.25870 0.70308
 H579 H 0.66980 0.26525 0.79713
 H580 H 0.70233 0.23645 0.82782
 H581 H 0.73429 0.20309 0.67106
 H582 H 0.76663 0.17490 0.70182
 H583 H 0.73649 0.33054 0.79704
 H584 H 0.76340 0.29823 0.82769
 H585 H 0.72475 0.14735 0.75556
 H586 H 0.67437 0.20058 0.75696
 H587 H 0.82660 0.29842 0.76602
 H588 H 0.79667 0.33047 0.73531
 O589 O 0.24990 0.82601 0.79119
 O590 O 0.28320 0.83353 0.75031
 O591 O 0.17409 0.79113 0.74927
 O592 O 0.16288 0.75311 0.72068
 O593 O 0.20917 0.74999 0.82655
 O594 O 0.24967 0.71813 0.83485
 O595 O 0.25060 0.71000 0.67489
 O596 O 0.21663 0.74851 0.66695
 O597 O 0.32525 0.74886 0.71044
 O598 O 0.33409 0.78215 0.74771
 O599 O 0.28967 0.67481 0.74956
 O600 O 0.24793 0.66566 0.78242
 O601 O 0.25044 0.67497 0.70999
 O602 O 0.21671 0.66627 0.75166
 O603 O 0.32491 0.70975 0.74969
 O604 O 0.33302 0.75192 0.78390
 O605 O 0.29027 0.74866 0.67519
 O606 O 0.25055 0.78249 0.66585
 O607 O 0.25015 0.79100 0.82638
 O608 O 0.28248 0.75020 0.83440
 O609 O 0.17399 0.75036 0.79146
 O610 O 0.16709 0.71622 0.75061
 O611 O 0.20917 0.82637 0.75064
 O612 O 0.24777 0.83279 0.71624
 Zr613 Zr 0.24854 0.80270 0.75144
 O614 O 0.27597 0.77747 0.72445
 Zr615 Zr 0.19717 0.75137 0.75167
 O616 O 0.22216 0.72419 0.72403
 Zr617 Zr 0.24865 0.75146 0.80292
 O618 O 0.27571 0.72391 0.77789
 Zr619 Zr 0.25056 0.74947 0.69836
 O620 O 0.22278 0.77692 0.72324
 Zr621 Zr 0.30165 0.74935 0.74987
 O622 O 0.27691 0.77728 0.77735
 Zr623 Zr 0.25008 0.69825 0.74969
 O624 O 0.22269 0.72319 0.77754
 O625 O 0.22147 0.77848 0.77869
 O626 O 0.27771 0.72199 0.72240
 C627 C 0.25060 0.81783 0.81807
 C628 C 0.18233 0.81803 0.74936
 C629 C 0.18228 0.74961 0.81832
 C630 C 0.25062 0.68317 0.68312
 C631 C 0.31711 0.74857 0.68355
 C632 C 0.31657 0.68295 0.74952
 H633 H 0.28853 0.79060 0.71277
 H634 H 0.28768 0.71179 0.79115
 H635 H 0.20898 0.79099 0.79116
 H636 H 0.20903 0.71231 0.71163
 H637 H 0.20189 0.76307 0.67322
 H638 H 0.16935 0.74201 0.70328
 H639 H 0.33001 0.73507 0.79706
 H640 H 0.29761 0.76417 0.82780
 H641 H 0.26548 0.79719 0.67112
 H642 H 0.23325 0.82555 0.70191
 H643 H 0.26326 0.66997 0.79706
 H644 H 0.23650 0.70248 0.82778
 H645 H 0.27538 0.85309 0.75552
 H646 H 0.32556 0.79972 0.75698
 H647 H 0.17302 0.70238 0.76613
 H648 H 0.20277 0.67019 0.73560
 O649 O 0.24860 0.32546 0.70945
 O650 O 0.21544 0.33302 0.75040
 O651 O 0.32456 0.29066 0.75123
 O652 O 0.33588 0.25268 0.77969
 O653 O 0.28939 0.24957 0.67393
 O654 O 0.24900 0.21758 0.66559
 O655 O 0.24817 0.20957 0.82551
 O656 O 0.28216 0.24808 0.83350
 O657 O 0.17351 0.24816 0.79011
 O658 O 0.16450 0.28141 0.75294
 O659 O 0.20922 0.17421 0.75081
 O660 O 0.25092 0.16512 0.71794
 O661 O 0.24835 0.17452 0.79035
 O662 O 0.28219 0.16585 0.74867
 O663 O 0.17388 0.20904 0.75082
 O664 O 0.16569 0.25129 0.71665
 O665 O 0.20854 0.24811 0.82531
 O666 O 0.24822 0.28207 0.83466
 O667 O 0.24829 0.29042 0.67423
 O668 O 0.21611 0.24953 0.66615
 O669 O 0.32462 0.24998 0.70897
 O670 O 0.33162 0.21578 0.74975
 O671 O 0.28949 0.32590 0.74991
 O672 O 0.25088 0.33226 0.78444
 Zr673 Zr 0.25010 0.30220 0.74916
 O674 O 0.22271 0.27693 0.77610
 Zr675 Zr 0.30151 0.25092 0.74878
 O676 O 0.27661 0.22373 0.77640
 Zr677 Zr 0.24997 0.25091 0.69760
 O678 O 0.22299 0.22332 0.72259
 Zr679 Zr 0.24821 0.24901 0.80211
 O680 O 0.27594 0.27647 0.77727
 Zr681 Zr 0.19705 0.24873 0.75066
 O682 O 0.22172 0.27672 0.72324
 Zr683 Zr 0.24873 0.19774 0.75070
 O684 O 0.27603 0.22270 0.72287
 O685 O 0.27714 0.27799 0.72184
 O686 O 0.22110 0.22146 0.77805
 C687 C 0.24780 0.31724 0.68257
 C688 C 0.31633 0.31756 0.75117
 C689 C 0.31628 0.24926 0.68213
 C690 C 0.24812 0.18275 0.81722
 C691 C 0.18170 0.24789 0.81699
 C692 C 0.18231 0.18227 0.75091
 H693 H 0.21013 0.29004 0.78782
 H694 H 0.21103 0.21117 0.70931
 H695 H 0.28959 0.29053 0.70937
 H696 H 0.28977 0.21188 0.78877
 H697 H 0.29688 0.26265 0.82726
 H698 H 0.32942 0.24166 0.79712
 H699 H 0.16859 0.23434 0.70354
 H700 H 0.20094 0.26346 0.67279
 H701 H 0.23321 0.29670 0.82946
 H702 H 0.26549 0.32509 0.79869
 H703 H 0.23563 0.16943 0.70327
 H704 H 0.26224 0.20198 0.67260
 H705 H 0.22326 0.35259 0.74523
 H706 H 0.17306 0.29908 0.74392
 H707 H 0.32574 0.20198 0.73415
 H708 H 0.29604 0.16973 0.76482
 O709 O 0.75082 0.67440 0.70996
 O710 O 0.78398 0.66671 0.75088
 O711 O 0.67498 0.70938 0.75197
 O712 O 0.66376 0.74745 0.78041
 O713 O 0.71024 0.75040 0.67466
 O714 O 0.75071 0.78230 0.66640
 O715 O 0.75154 0.79024 0.82633
 O716 O 0.71753 0.75179 0.83423
 O717 O 0.82615 0.75150 0.79079
 O718 O 0.83504 0.71814 0.75360
 O719 O 0.79070 0.82549 0.75165
 O720 O 0.74898 0.83473 0.71886
 O721 O 0.75150 0.82529 0.79126
 O722 O 0.71776 0.83412 0.74961
 O723 O 0.82591 0.79053 0.75148
 O724 O 0.83396 0.74825 0.71734
 O725 O 0.79115 0.75163 0.82602
 O726 O 0.75140 0.71775 0.83530
 O727 O 0.75120 0.70947 0.67483
 O728 O 0.78350 0.75025 0.66685
 O729 O 0.67502 0.75005 0.70970
 O730 O 0.66813 0.78429 0.75055
 O731 O 0.70996 0.67405 0.75051
 O732 O 0.74857 0.66755 0.78493
 Zr733 Zr 0.74941 0.69764 0.74975
 O734 O 0.77687 0.72282 0.77675
 Zr735 Zr 0.69813 0.74907 0.74950
 O736 O 0.72314 0.77618 0.77718
 Zr737 Zr 0.74966 0.74895 0.69831
 O738 O 0.77673 0.77644 0.72336
 Zr739 Zr 0.75147 0.75081 0.80283
 O740 O 0.72366 0.72344 0.77793
 Zr741 Zr 0.80261 0.75094 0.75136
 O742 O 0.77784 0.72305 0.72387
 Zr743 Zr 0.75110 0.80209 0.75154
 O744 O 0.72370 0.77723 0.72366
 O745 O 0.72242 0.72193 0.72250
 O746 O 0.77866 0.77829 0.77883
 C747 C 0.75164 0.68264 0.68310
 C748 C 0.68315 0.68246 0.75186
 C749 C 0.68335 0.75075 0.68286
 C750 C 0.75164 0.81706 0.81811
 C751 C 0.81798 0.75180 0.81768
 C752 C 0.81758 0.81733 0.75162
 H753 H 0.78942 0.70967 0.78843
 H754 H 0.78872 0.78855 0.71009
 H755 H 0.70992 0.70942 0.71002
 H756 H 0.71000 0.78805 0.78958
 H757 H 0.70276 0.73725 0.82794
 H758 H 0.67029 0.75839 0.79788
 H759 H 0.83104 0.76514 0.70420
 H760 H 0.79862 0.73624 0.67342
 H761 H 0.76639 0.70309 0.83008
 H762 H 0.73404 0.67479 0.79925
 H763 H 0.76423 0.83036 0.70417
 H764 H 0.73749 0.79792 0.67344
 H765 H 0.77611 0.64718 0.74565
 H766 H 0.82644 0.70051 0.74450
 H767 H 0.67405 0.79807 0.73497
 H768 H 0.70383 0.83021 0.76568
 O769 O 0.24937 0.67473 0.29052
 O770 O 0.21616 0.66707 0.24963
 O771 O 0.32520 0.70967 0.24875
 O772 O 0.33641 0.74765 0.22024
 O773 O 0.28993 0.75082 0.32601
 O774 O 0.24942 0.78261 0.33435
 O775 O 0.24867 0.79055 0.17442
 O776 O 0.28266 0.75210 0.16642
 O777 O 0.17404 0.75175 0.20986
 O778 O 0.16511 0.71855 0.24707
 O779 O 0.20957 0.82585 0.24904
 O780 O 0.25124 0.83506 0.28197
 O781 O 0.24878 0.82562 0.20955
 O782 O 0.28251 0.83441 0.25125
 O783 O 0.17431 0.79094 0.24913
 O784 O 0.16623 0.74871 0.28332
 O785 O 0.20905 0.75190 0.17464
 O786 O 0.24880 0.71805 0.16531
 O787 O 0.24902 0.70977 0.32574
 O788 O 0.21664 0.75054 0.33379
 O789 O 0.32516 0.75045 0.29097
 O790 O 0.33209 0.78457 0.25014
 O791 O 0.29018 0.67437 0.25005
 O792 O 0.25158 0.66790 0.21555
 Zr793 Zr 0.25075 0.69798 0.25081
 O794 O 0.22330 0.72317 0.22387
 Zr795 Zr 0.30206 0.74937 0.25116
 O796 O 0.27708 0.77648 0.22353
 Zr797 Zr 0.25051 0.74928 0.30235
 O798 O 0.22346 0.77680 0.27735
 Zr799 Zr 0.24873 0.75113 0.19783
 O800 O 0.27653 0.72375 0.22268
 Zr801 Zr 0.19758 0.75131 0.24930
 O802 O 0.22232 0.72340 0.27673
 Zr803 Zr 0.24914 0.80242 0.24921
 O804 O 0.27650 0.77754 0.27706
 O805 O 0.27775 0.72226 0.27812
 O806 O 0.22156 0.77863 0.22188
 C807 C 0.24861 0.68295 0.31740
 C808 C 0.31701 0.68275 0.24881
 C809 C 0.31682 0.75122 0.31781
 C810 C 0.24862 0.81738 0.18269
 C811 C 0.18222 0.75201 0.18298
 C812 C 0.18267 0.81773 0.24898
 H813 H 0.21076 0.71001 0.21217
 H814 H 0.21149 0.78893 0.29062
 H815 H 0.29025 0.70978 0.29059
 H816 H 0.29022 0.78835 0.21116
 H817 H 0.29743 0.73756 0.17269
 H818 H 0.32992 0.75864 0.20280
 H819 H 0.16912 0.76566 0.29644
 H820 H 0.20154 0.73652 0.32717
 H821 H 0.23384 0.70337 0.17053
 H822 H 0.26618 0.67508 0.20129
 H823 H 0.23590 0.83077 0.29658
 H824 H 0.26255 0.79829 0.32731
 H825 H 0.22403 0.64753 0.25479
 H826 H 0.17371 0.70091 0.25610
 H827 H 0.32617 0.79839 0.26571
 H828 H 0.29641 0.83052 0.23514
 O829 O 0.75043 0.32524 0.29021
 O830 O 0.78366 0.33290 0.24931
 O831 O 0.67475 0.28999 0.24835
 O832 O 0.66368 0.25184 0.21989
 O833 O 0.71013 0.24913 0.32569
 O834 O 0.75074 0.21746 0.33404
 O835 O 0.75165 0.20908 0.17415
 O836 O 0.71744 0.24737 0.16613
 O837 O 0.82607 0.24827 0.20959
 O838 O 0.83483 0.28167 0.24674
 O839 O 0.79083 0.17419 0.24891
 O840 O 0.74905 0.16498 0.28181
 O841 O 0.75169 0.17414 0.20933
 O842 O 0.71798 0.16526 0.25090
 O843 O 0.82594 0.20926 0.24893
 O844 O 0.83386 0.25159 0.28303
 O845 O 0.79106 0.24791 0.17437
 O846 O 0.75117 0.28156 0.16498
 O847 O 0.75090 0.29027 0.32543
 O848 O 0.78339 0.24966 0.33352
 O849 O 0.67490 0.24931 0.29066
 O850 O 0.66809 0.21505 0.24987
 O851 O 0.70968 0.32537 0.24964
 O852 O 0.74827 0.33191 0.21524
 Zr853 Zr 0.74916 0.30189 0.25049
 O854 O 0.77669 0.27673 0.22355
 Zr855 Zr 0.69802 0.25034 0.25085
 O856 O 0.72311 0.22321 0.22325
 Zr857 Zr 0.74955 0.25073 0.30205
 O858 O 0.77672 0.22325 0.27708
 Zr859 Zr 0.75137 0.24859 0.19754
 O860 O 0.72348 0.27596 0.22236
 Zr861 Zr 0.80251 0.24877 0.24902
 O862 O 0.77766 0.27665 0.27644
 Zr863 Zr 0.75115 0.19746 0.24896
 O864 O 0.72367 0.22232 0.27676
 O865 O 0.72222 0.27760 0.27780
 O866 O 0.77865 0.22127 0.22162
 C867 C 0.75121 0.31708 0.31710
 C868 C 0.68288 0.31692 0.24835
 C869 C 0.68324 0.24864 0.31750
 C870 C 0.75185 0.18228 0.18245
 C871 C 0.81789 0.24792 0.18270
 C872 C 0.81770 0.18243 0.24887
 H873 H 0.78919 0.28990 0.21184
 H874 H 0.78873 0.21121 0.29037
 H875 H 0.70968 0.29008 0.29025
 H876 H 0.71002 0.21126 0.21088
 H877 H 0.70262 0.26187 0.17237
 H878 H 0.67020 0.24076 0.20250
 H879 H 0.83098 0.23472 0.29621
 H880 H 0.79846 0.26369 0.32690
 H881 H 0.76607 0.29631 0.17018
 H882 H 0.73376 0.32460 0.20093
 H883 H 0.76446 0.16928 0.29635
 H884 H 0.73760 0.20176 0.32704
 H885 H 0.77574 0.35242 0.25450
 H886 H 0.82621 0.29927 0.25586
 H887 H 0.67411 0.20126 0.26540
 H888 H 0.70397 0.16916 0.23489
 C889 C 0.25195 0.11559 0.11539
 C890 C 0.25224 0.14509 0.10747
 C891 C 0.25214 0.16677 0.12902
 C892 C 0.25152 0.07472 0.07448
 C893 C 0.25157 0.12944 0.16656
 C894 C 0.25167 0.10781 0.14496
 C895 C 0.25175 0.09332 0.09317
 C896 C 0.25174 0.15922 0.15886
 H897 H 0.25245 0.15134 0.08463
 H898 H 0.25224 0.18943 0.12226
 H899 H 0.25121 0.12280 0.18928
 H900 H 0.25142 0.08502 0.15132
 C901 C 0.75255 0.61629 0.61659
 C902 C 0.75271 0.64580 0.60874
 C903 C 0.75262 0.66741 0.63035
 C904 C 0.75213 0.57546 0.57573
 C905 C 0.75231 0.62995 0.66779
 C906 C 0.75241 0.60840 0.64613
 C907 C 0.75236 0.59410 0.59434
 C908 C 0.75235 0.65975 0.66017
 H909 H 0.75281 0.65212 0.58592
 H910 H 0.75261 0.69009 0.62367
 H911 H 0.75207 0.62324 0.69048
 H912 H 0.75228 0.58559 0.65241
 C913 C 0.74822 0.88437 0.11619
 C914 C 0.74807 0.85489 0.10811
 C915 C 0.74814 0.83313 0.12954
 C916 C 0.74870 0.92552 0.07565
 C917 C 0.74839 0.87034 0.16729
 C918 C 0.74832 0.89204 0.14580
 C919 C 0.74845 0.90675 0.09413
 C920 C 0.74836 0.84058 0.15942
 H921 H 0.74800 0.84872 0.08523
 H922 H 0.74815 0.81049 0.12267
 H923 H 0.74860 0.87692 0.19003
 H924 H 0.74845 0.91481 0.15229
 C925 C 0.24677 0.38367 0.61627
 C926 C 0.24649 0.35416 0.60833
 C927 C 0.24661 0.33253 0.62987
 C928 C 0.24720 0.42441 0.57540
 C929 C 0.24718 0.36995 0.66742
 C930 C 0.24706 0.39153 0.64582
 C931 C 0.24697 0.40586 0.59406
 C932 C 0.24703 0.34016 0.65971
 H933 H 0.24628 0.34786 0.58549
 H934 H 0.24652 0.30986 0.62311
 H935 H 0.24754 0.37664 0.69014
 H936 H 0.24729 0.41433 0.65218
 C937 C 0.74949 0.11645 0.88446
 C938 C 0.74953 0.10859 0.85489
 C939 C 0.74929 0.13016 0.83327
 C940 C 0.75070 0.07556 0.92524
 C941 C 0.74882 0.16760 0.87079
 C942 C 0.74906 0.14597 0.89236
 C943 C 0.75011 0.09422 0.90666
 C944 C 0.74901 0.15996 0.84095
 H945 H 0.74988 0.08578 0.84854
 H946 H 0.74949 0.12345 0.81056
 H947 H 0.74865 0.19028 0.87753
 H948 H 0.74903 0.15229 0.91520
 C949 C 0.24850 0.61644 0.38363
 C950 C 0.24844 0.60862 0.35406
 C951 C 0.24822 0.63022 0.33249
 C952 C 0.24973 0.57564 0.42442
 C953 C 0.24795 0.66760 0.37010
 C954 C 0.24817 0.64594 0.39161
 C955 C 0.24913 0.59422 0.40579
 C956 C 0.24806 0.66000 0.34025
 H957 H 0.24870 0.58582 0.34768
 H958 H 0.24836 0.62356 0.30977
 H959 H 0.24787 0.69026 0.37688
 H960 H 0.24822 0.65220 0.41446
 C961 C 0.25079 0.88444 0.88443
 C962 C 0.25087 0.89222 0.85487
 C963 C 0.25105 0.87059 0.83326
 C964 C 0.24965 0.92531 0.92533
 C965 C 0.25124 0.83325 0.87081
 C966 C 0.25105 0.85494 0.89236
 C967 C 0.25021 0.90671 0.90665
 C968 C 0.25116 0.84081 0.84097
 H969 H 0.25066 0.91501 0.84850
 H970 H 0.25094 0.87723 0.81055
 H971 H 0.25128 0.81059 0.87757
 H972 H 0.25098 0.84869 0.91520
 C973 C 0.75111 0.38362 0.38340
 C974 C 0.75099 0.39143 0.35385
 C975 C 0.75127 0.36981 0.33225
 C976 C 0.74978 0.42453 0.42416
 C977 C 0.75197 0.33247 0.36980
 C978 C 0.75168 0.35414 0.39134
 C979 C 0.75042 0.40587 0.40558
 C980 C 0.75168 0.34004 0.33996
 H981 H 0.75054 0.41422 0.34750
 H982 H 0.75100 0.37646 0.30953
 H983 H 0.75224 0.30981 0.37655
 H984 H 0.75178 0.34789 0.41418
 C985 C 0.11635 0.25084 0.11454
 C986 C 0.10838 0.25072 0.14407
 C987 C 0.12989 0.25074 0.16579
 C988 C 0.07557 0.25036 0.07353
 C989 C 0.16751 0.25110 0.12845
 C990 C 0.14594 0.25108 0.10678
 C991 C 0.09418 0.25060 0.09222
 C992 C 0.15976 0.25088 0.15826
 H993 H 0.08552 0.25052 0.15031
 H994 H 0.12309 0.25052 0.18847
 H995 H 0.19024 0.25117 0.12182
 H996 H 0.15235 0.25117 0.08397
 C997 C 0.61701 0.75040 0.61634
 C998 C 0.60909 0.75056 0.64587
 C999 C 0.63064 0.75094 0.66752
 C1000 C 0.57607 0.74890 0.57561
 C1001 C 0.66818 0.75116 0.63008
 C1002 C 0.64656 0.75079 0.60848
 C1003 C 0.59479 0.74962 0.59413
 C1004 C 0.66047 0.75115 0.65990
 H1005 H 0.58625 0.75026 0.65216
 H1006 H 0.62389 0.75088 0.69022
 H1007 H 0.69089 0.75128 0.62340
 H1008 H 0.65290 0.75067 0.58565
 C1009 C 0.11571 0.74904 0.88476
 C1010 C 0.14526 0.74898 0.89267
 C1011 C 0.16694 0.74897 0.87111
 C1012 C 0.07459 0.74951 0.92543
 C1013 C 0.12951 0.74901 0.83358
 C1014 C 0.10789 0.74901 0.85519
 C1015 C 0.09339 0.74928 0.90693
 C1016 C 0.15933 0.74905 0.84126
 H1017 H 0.15155 0.74901 0.91551
 H1018 H 0.18964 0.74905 0.87784
 H1019 H 0.12281 0.74910 0.81087
 H1020 H 0.08506 0.74906 0.84883
 C1021 C 0.61691 0.24807 0.38404
 C1022 C 0.64647 0.24811 0.39189
 C1023 C 0.66808 0.24808 0.37028
 C1024 C 0.57594 0.24870 0.42476
 C1025 C 0.63054 0.24787 0.33285
 C1026 C 0.60899 0.24789 0.35451
 C1027 C 0.59468 0.24838 0.40625
 C1028 C 0.66037 0.24803 0.34047
 H1029 H 0.65281 0.24825 0.41472
 H1030 H 0.69080 0.24825 0.37696
 H1031 H 0.62379 0.24787 0.31016
 H1032 H 0.58615 0.24787 0.34822
 C1033 C 0.88361 0.74951 0.11481
 C1034 C 0.85403 0.74918 0.10701
 C1035 C 0.83243 0.74886 0.12865
 C1036 C 0.92459 0.75086 0.07402
 C1037 C 0.87001 0.74904 0.16603
 C1038 C 0.89154 0.74936 0.14434
 C1039 C 0.90584 0.75021 0.09255
 C1040 C 0.84016 0.74887 0.15847
 H1041 H 0.84766 0.74929 0.08419
 H1042 H 0.80971 0.74878 0.12200
 H1043 H 0.87679 0.74910 0.18872
 H1044 H 0.91439 0.74962 0.15061
 C1045 C 0.38271 0.24968 0.61570
 C1046 C 0.39058 0.24953 0.64524
 C1047 C 0.36900 0.24914 0.66686
 C1048 C 0.42374 0.25117 0.57507
 C1049 C 0.33152 0.24890 0.62936
 C1050 C 0.35317 0.24928 0.60779
 C1051 C 0.40497 0.25046 0.59354
 C1052 C 0.33918 0.24891 0.65919
 H1053 H 0.41342 0.24984 0.65157
 H1054 H 0.37572 0.24920 0.68956
 H1055 H 0.30881 0.24876 0.62265
 H1056 H 0.34686 0.24940 0.58495
 C1057 C 0.88427 0.25089 0.88447
 C1058 C 0.85472 0.25108 0.89242
 C1059 C 0.83302 0.25142 0.87088
 C1060 C 0.92526 0.24941 0.92525
 C1061 C 0.87042 0.25155 0.83332
 C1062 C 0.89206 0.25121 0.85490
 C1063 C 0.90657 0.25013 0.90665
 C1064 C 0.84059 0.25157 0.84103
 H1065 H 0.84846 0.25083 0.91526
 H1066 H 0.81033 0.25139 0.87765
 H1067 H 0.87708 0.25162 0.81060
 H1068 H 0.91488 0.25106 0.84852
 C1069 C 0.38322 0.75181 0.38427
 C1070 C 0.39111 0.75190 0.35473
 C1071 C 0.36954 0.75191 0.33310
 C1072 C 0.42423 0.75121 0.42496
 C1073 C 0.33203 0.75185 0.37058
 C1074 C 0.35367 0.75184 0.39216
 C1075 C 0.40548 0.75151 0.40645
 C1076 C 0.33971 0.75182 0.34076
 H1077 H 0.41395 0.75187 0.34842
 H1078 H 0.37626 0.75186 0.31040
 H1079 H 0.30933 0.75174 0.37728
 H1080 H 0.34736 0.75176 0.41500
 C1081 C 0.11620 0.11554 0.25180
 C1082 C 0.14576 0.10773 0.25132
 C1083 C 0.16735 0.12933 0.25107
 C1084 C 0.07553 0.07450 0.25166
 C1085 C 0.12981 0.16671 0.25188
 C1086 C 0.10826 0.14505 0.25212
 C1087 C 0.09404 0.09326 0.25176
 C1088 C 0.15965 0.15912 0.25129
 H1089 H 0.15212 0.08493 0.25105
 H1090 H 0.19006 0.12265 0.25059
 H1091 H 0.12306 0.18938 0.25201
 H1092 H 0.08541 0.15131 0.25247
 C1093 C 0.61635 0.61639 0.75306
 C1094 C 0.60864 0.64595 0.75373
 C1095 C 0.63033 0.66746 0.75353
 C1096 C 0.57526 0.57579 0.75283
 C1097 C 0.66761 0.62982 0.75211
 C1098 C 0.64586 0.60837 0.75230
 C1099 C 0.59400 0.59430 0.75297
 C1100 C 0.66012 0.65966 0.75266
 H1101 H 0.58584 0.65237 0.75430
 H1102 H 0.62374 0.69017 0.75393
 H1103 H 0.69027 0.62300 0.75139
 H1104 H 0.65205 0.58553 0.75176
 C1105 C 0.88437 0.11663 0.74765
 C1106 C 0.89213 0.14618 0.74705
 C1107 C 0.87046 0.16771 0.74730
 C1108 C 0.92537 0.07594 0.74779
 C1109 C 0.83315 0.13012 0.74864
 C1110 C 0.85487 0.10864 0.74839
 C1111 C 0.90668 0.09450 0.74769
 C1112 C 0.84068 0.15995 0.74816
 H1113 H 0.91494 0.15257 0.74649
 H1114 H 0.87708 0.19042 0.74696
 H1115 H 0.81048 0.12331 0.74935
 H1116 H 0.84864 0.08581 0.74887
 C1117 C 0.38369 0.61657 0.24839
 C1118 C 0.39147 0.64611 0.24765
 C1119 C 0.36982 0.66766 0.24753
 C1120 C 0.42452 0.57573 0.24944
 C1121 C 0.33245 0.63011 0.24874
 C1122 C 0.35416 0.60862 0.24885
 C1123 C 0.40596 0.59441 0.24891
 C1124 C 0.34001 0.65993 0.24816
 H1125 H 0.41429 0.65248 0.24729
 H1126 H 0.37646 0.69036 0.24712
 H1127 H 0.30978 0.62333 0.24928
 H1128 H 0.34791 0.58580 0.24944
 C1129 C 0.11590 0.88446 0.74887
 C1130 C 0.14546 0.89231 0.74915
 C1131 C 0.16708 0.87073 0.74906
 C1132 C 0.07506 0.92531 0.74984
 C1133 C 0.12957 0.83330 0.74825
 C1134 C 0.10800 0.85494 0.74834
 C1135 C 0.09370 0.90669 0.74936
 C1136 C 0.15940 0.84093 0.74870
 H1137 H 0.15179 0.91511 0.74956
 H1138 H 0.18978 0.87743 0.74944
 H1139 H 0.12285 0.81063 0.74801
 H1140 H 0.08516 0.84865 0.74813
 C1141 C 0.61620 0.38311 0.24704
 C1142 C 0.64573 0.39105 0.24751
 C1143 C 0.66742 0.36955 0.24774
 C1144 C 0.57542 0.42402 0.24722
 C1145 C 0.63005 0.33200 0.24693
 C1146 C 0.60840 0.35356 0.24670
 C1147 C 0.59395 0.40530 0.24710
 C1148 C 0.65985 0.33973 0.24751
 H1149 H 0.65199 0.41388 0.24779
 H1150 H 0.69010 0.37634 0.24822
 H1151 H 0.62341 0.30929 0.24678
 H1152 H 0.58558 0.34719 0.24635
 C1153 C 0.88451 0.88351 0.25114
 C1154 C 0.89223 0.85396 0.25183
 C1155 C 0.87053 0.83246 0.25194
 C1156 C 0.92544 0.92424 0.25006
 C1157 C 0.83324 0.87009 0.25084
 C1158 C 0.85500 0.89153 0.25073
 C1159 C 0.90683 0.90562 0.25060
 C1160 C 0.84074 0.84026 0.25136
 H1161 H 0.91503 0.84754 0.25215
 H1162 H 0.87712 0.80975 0.25231
 H1163 H 0.81058 0.87692 0.25034
 H1164 H 0.84880 0.91437 0.25018
 C1165 C 0.38302 0.38374 0.75162
 C1166 C 0.39078 0.35420 0.75229
 C1167 C 0.36912 0.33266 0.75240
 C1168 C 0.42408 0.42435 0.75058
 C1169 C 0.33177 0.37023 0.75131
 C1170 C 0.35350 0.39171 0.75121
 C1171 C 0.40535 0.40584 0.75110
 C1172 C 0.33932 0.34041 0.75182
 H1173 H 0.41359 0.34780 0.75259
 H1174 H 0.37576 0.30996 0.75275
 H1175 H 0.30910 0.37701 0.75082
 H1176 H 0.34727 0.41454 0.75068
 C1177 C 0.11524 0.24670 0.88341
 C1178 C 0.14479 0.24668 0.89128
 C1179 C 0.16642 0.24697 0.86971
 C1180 C 0.07456 0.24685 0.92446
 C1181 C 0.12892 0.24718 0.83222
 C1182 C 0.10734 0.24690 0.85387
 C1183 C 0.09305 0.24673 0.90568
 C1184 C 0.15875 0.24731 0.83988
 H1185 H 0.15111 0.24651 0.91411
 H1186 H 0.18912 0.24699 0.87643
 H1187 H 0.12221 0.24738 0.80952
 H1188 H 0.08450 0.24691 0.84756
 C1189 C 0.61640 0.74703 0.38322
 C1190 C 0.64596 0.74721 0.39109
 C1191 C 0.66761 0.74752 0.36951
 C1192 C 0.57549 0.74700 0.42409
 C1193 C 0.63014 0.74735 0.33202
 C1194 C 0.60855 0.74705 0.35366
 C1195 C 0.59415 0.74697 0.40546
 C1196 C 0.65998 0.74767 0.33968
 H1197 H 0.65228 0.74718 0.41392
 H1198 H 0.69031 0.74770 0.37623
 H1199 H 0.62344 0.74740 0.30931
 H1200 H 0.58571 0.74689 0.34733
 C1201 C 0.88458 0.75302 0.88396
 C1202 C 0.89240 0.75308 0.85440
 C1203 C 0.87077 0.75277 0.83281
 C1204 C 0.92551 0.75296 0.92476
 C1205 C 0.83337 0.75245 0.87038
 C1206 C 0.85505 0.75276 0.89191
 C1207 C 0.90685 0.75304 0.90615
 C1208 C 0.84096 0.75237 0.84054
 H1209 H 0.91522 0.75329 0.84803
 H1210 H 0.87743 0.75278 0.81009
 H1211 H 0.81068 0.75220 0.87715
 H1212 H 0.84879 0.75272 0.91476
 C1213 C 0.38378 0.25302 0.38271
 C1214 C 0.35423 0.25281 0.39061
 C1215 C 0.33256 0.25248 0.36906
 C1216 C 0.42469 0.25305 0.42358
 C1217 C 0.36999 0.25267 0.33152
 C1218 C 0.39161 0.25300 0.35314
 C1219 C 0.40605 0.25308 0.40493
 C1220 C 0.34017 0.25232 0.33921
 H1221 H 0.34794 0.25283 0.41345
 H1222 H 0.30986 0.25227 0.37581
 H1223 H 0.37667 0.25262 0.30881
 H1224 H 0.41443 0.25318 0.34679
 C1225 C 0.11564 0.75232 0.11666
 C1226 C 0.10781 0.75240 0.14622
 C1227 C 0.12943 0.75244 0.16782
 C1228 C 0.07476 0.75136 0.07585
 C1229 C 0.16685 0.75249 0.13027
 C1230 C 0.14518 0.75245 0.10873
 C1231 C 0.09339 0.75186 0.09447
 C1232 C 0.15924 0.75238 0.16011
 H1233 H 0.08498 0.75232 0.15257
 H1234 H 0.12276 0.75242 0.19054
 H1235 H 0.18955 0.75250 0.12351
 H1236 H 0.15146 0.75241 0.08588
 C1237 C 0.61592 0.25184 0.61718
 C1238 C 0.60810 0.25181 0.64676
 C1239 C 0.62973 0.25186 0.66837
 C1240 C 0.57504 0.25096 0.57629
 C1241 C 0.66714 0.25212 0.63082
 C1242 C 0.64546 0.25207 0.60927
 C1243 C 0.59366 0.25141 0.59495
 C1244 C 0.65955 0.25192 0.66067
 H1245 H 0.58528 0.25165 0.65311
 H1246 H 0.62306 0.25176 0.69109
 H1247 H 0.68983 0.25222 0.62406
 H1248 H 0.65175 0.25211 0.58643
 C1249 C 0.88443 0.24769 0.11636
 C1250 C 0.89229 0.24764 0.14591
 C1251 C 0.87069 0.24757 0.16753
 C1252 C 0.92516 0.24869 0.07538
 C1253 C 0.83324 0.24743 0.13000
 C1254 C 0.85490 0.24750 0.10845
 C1255 C 0.90664 0.24817 0.09412
 C1256 C 0.84086 0.24757 0.15983
 H1257 H 0.91512 0.24777 0.15225
 H1258 H 0.87737 0.24762 0.19024
 H1259 H 0.81054 0.24737 0.12325
 H1260 H 0.84860 0.24752 0.08561
 C1261 C 0.38380 0.74814 0.61724
 C1262 C 0.35426 0.74801 0.60930
 C1263 C 0.33256 0.74801 0.63083
 C1264 C 0.42477 0.74898 0.57644
 C1265 C 0.36994 0.74811 0.66841
 C1266 C 0.39159 0.74812 0.64682
 C1267 C 0.40610 0.74854 0.59505
 C1268 C 0.34013 0.74816 0.66068
 H1269 H 0.34800 0.74801 0.58645
 H1270 H 0.30987 0.74799 0.62405
 H1271 H 0.37659 0.74817 0.69113
 H1272 H 0.41441 0.74820 0.65320
 C1273 C 0.24743 0.11633 0.88353
 C1274 C 0.24784 0.10847 0.85397
 C1275 C 0.24800 0.13005 0.83238
 C1276 C 0.24758 0.07557 0.92438
 C1277 C 0.24728 0.16747 0.86993
 C1278 C 0.24711 0.14584 0.89146
 C1279 C 0.24748 0.09413 0.90572
 C1280 C 0.24779 0.15984 0.84009
 H1281 H 0.24808 0.08566 0.84762
 H1282 H 0.24835 0.12336 0.80966
 H1283 H 0.24704 0.19014 0.87668
 H1284 H 0.24677 0.15213 0.91430
 C1285 C 0.74934 0.61651 0.38336
 C1286 C 0.74947 0.60863 0.35380
 C1287 C 0.74935 0.63017 0.33215
 C1288 C 0.75022 0.57565 0.42419
 C1289 C 0.74884 0.66764 0.36964
 C1290 C 0.74896 0.64604 0.39123
 C1291 C 0.74977 0.59431 0.40560
 C1292 C 0.74912 0.65998 0.33980
 H1293 H 0.74974 0.58581 0.34748
 H1294 H 0.74952 0.62345 0.30945
 H1295 H 0.74860 0.69033 0.37636
 H1296 H 0.74883 0.65238 0.41406
 C1297 C 0.75272 0.11557 0.11627
 C1298 C 0.75270 0.14505 0.10826
 C1299 C 0.75250 0.16678 0.12975
 C1300 C 0.75258 0.07448 0.07564
 C1301 C 0.75241 0.12952 0.16739
 C1302 C 0.75262 0.10785 0.14585
 C1303 C 0.75269 0.09324 0.09416
 C1304 C 0.75227 0.15928 0.15961
 H1305 H 0.75280 0.15124 0.08540
 H1306 H 0.75246 0.18943 0.12295
 H1307 H 0.75230 0.12293 0.19012
 H1308 H 0.75265 0.08508 0.15226
 C1309 C 0.25047 0.61662 0.61665
 C1310 C 0.25080 0.64614 0.60878
 C1311 C 0.25096 0.66780 0.63035
 C1312 C 0.24946 0.57579 0.57570
 C1313 C 0.25061 0.63042 0.66785
 C1314 C 0.25044 0.60881 0.64621
 C1315 C 0.24997 0.59438 0.59440
 C1316 C 0.25077 0.66021 0.66019
 H1317 H 0.25084 0.65242 0.58594
 H1318 H 0.25115 0.69047 0.62363
 H1319 H 0.25051 0.62375 0.69056
 H1320 H 0.25021 0.58602 0.65255
 C1321 C 0.75159 0.88352 0.88453
 C1322 C 0.75145 0.89136 0.85498
 C1323 C 0.75158 0.86977 0.83336
 C1324 C 0.75063 0.92446 0.92529
 C1325 C 0.75214 0.83237 0.87086
 C1326 C 0.75201 0.85402 0.89243
 C1327 C 0.75112 0.90577 0.90673
 C1328 C 0.75183 0.83998 0.84103
 H1329 H 0.75115 0.91416 0.84866
 H1330 H 0.75140 0.87645 0.81065
 H1331 H 0.75240 0.80970 0.87757
 H1332 H 0.75214 0.84775 0.91526
 C1333 C 0.25141 0.38344 0.38313
 C1334 C 0.25105 0.39128 0.35358
 C1335 C 0.25090 0.36969 0.33192
 C1336 C 0.25132 0.42424 0.42413
 C1337 C 0.25155 0.33228 0.36938
 C1338 C 0.25170 0.35392 0.39098
 C1339 C 0.25139 0.40567 0.40541
 C1340 C 0.25108 0.33989 0.33955
 H1341 H 0.25084 0.41408 0.34727
 H1342 H 0.25059 0.37638 0.30922
 H1343 H 0.25176 0.30960 0.37609
 H1344 H 0.25201 0.34761 0.41381
 C1345 C 0.24875 0.88376 0.11634
 C1346 C 0.24847 0.85424 0.10842
 C1347 C 0.24831 0.83263 0.12997
 C1348 C 0.24976 0.92448 0.07547
 C1349 C 0.24856 0.87007 0.16750
 C1350 C 0.24872 0.89163 0.14589
 C1351 C 0.24926 0.90594 0.09414
 C1352 C 0.24845 0.84028 0.15980
 H1353 H 0.24847 0.84793 0.08558
 H1354 H 0.24816 0.80995 0.12323
 H1355 H 0.24862 0.87677 0.19021
 H1356 H 0.24892 0.91444 0.15223
 C1357 C 0.74781 0.38349 0.61649
 C1358 C 0.74774 0.35396 0.60863
 C1359 C 0.74796 0.33236 0.63022
 C1360 C 0.74789 0.42438 0.57568
 C1361 C 0.74824 0.36985 0.66769
 C1362 C 0.74801 0.39139 0.64604
 C1363 C 0.74782 0.40571 0.59425
 C1364 C 0.74828 0.34003 0.66005
 H1365 H 0.74756 0.34761 0.58580
 H1366 H 0.74792 0.30967 0.62351
 H1367 H 0.74843 0.37658 0.69039
 H1368 H 0.74806 0.41420 0.65236
 C1369 C 0.11628 0.11541 0.75142
 C1370 C 0.10821 0.14488 0.75155
 C1371 C 0.12965 0.16664 0.75143
 C1372 C 0.07549 0.07447 0.75126
 C1373 C 0.16738 0.12945 0.75112
 C1374 C 0.14588 0.10773 0.75124
 C1375 C 0.09416 0.09308 0.75136
 C1376 C 0.15953 0.15920 0.75116
 H1377 H 0.08534 0.15104 0.75170
 H1378 H 0.12279 0.18928 0.75152
 H1379 H 0.19013 0.12289 0.75097
 H1380 H 0.15235 0.08497 0.75115
 C1381 C 0.61686 0.61610 0.25115
 C1382 C 0.64644 0.60831 0.25112
 C1383 C 0.66803 0.62993 0.25099
 C1384 C 0.57608 0.57516 0.25105
 C1385 C 0.63044 0.66728 0.25098
 C1386 C 0.60891 0.64561 0.25111
 C1387 C 0.59467 0.59383 0.25112
 C1388 C 0.66030 0.65972 0.25086
 H1389 H 0.65282 0.58552 0.25117
 H1390 H 0.69075 0.62329 0.25095
 H1391 H 0.62367 0.68995 0.25094
 H1392 H 0.58606 0.65186 0.25115
 C1393 C 0.11652 0.88448 0.24836
 C1394 C 0.14612 0.89219 0.24828
 C1395 C 0.16765 0.87052 0.24845
 C1396 C 0.07586 0.92554 0.24842
 C1397 C 0.12997 0.83326 0.24868
 C1398 C 0.10849 0.85499 0.24852
 C1399 C 0.09440 0.90681 0.24836
 C1400 C 0.15984 0.84075 0.24870
 H1401 H 0.15255 0.91497 0.24814
 H1402 H 0.19039 0.87711 0.24840
 H1403 H 0.12314 0.81061 0.24881
 H1404 H 0.08563 0.84880 0.24856
 C1405 C 0.61645 0.38374 0.75002
 C1406 C 0.64600 0.39164 0.74974
 C1407 C 0.66767 0.37009 0.74953
 C1408 C 0.57543 0.42443 0.75102
 C1409 C 0.63021 0.33261 0.74975
 C1410 C 0.60861 0.35421 0.74997
 C1411 C 0.59416 0.40591 0.75053
 C1412 C 0.66004 0.34028 0.74961
 H1413 H 0.65229 0.41446 0.74976
 H1414 H 0.69037 0.37682 0.74937
 H1415 H 0.62352 0.30993 0.74977
 H1416 H 0.58578 0.34787 0.75017
 C1417 C 0.88424 0.11610 0.24912
 C1418 C 0.89209 0.14563 0.24887
 C1419 C 0.87048 0.16722 0.24870
 C1420 C 0.92513 0.07530 0.25008
 C1421 C 0.83303 0.12974 0.24889
 C1422 C 0.85470 0.10820 0.24907
 C1423 C 0.90650 0.09392 0.24960
 C1424 C 0.84065 0.15954 0.24878
 H1425 H 0.91491 0.15197 0.24889
 H1426 H 0.87717 0.18991 0.24856
 H1427 H 0.81033 0.12301 0.24891
 H1428 H 0.84840 0.08538 0.24924
 C1429 C 0.38297 0.61645 0.74895
 C1430 C 0.39087 0.64597 0.74891
 C1431 C 0.36930 0.66760 0.74905
 C1432 C 0.42395 0.57571 0.74902
 C1433 C 0.33178 0.63020 0.74920
 C1434 C 0.35341 0.60861 0.74906
 C1435 C 0.40523 0.59425 0.74896
 C1436 C 0.33946 0.65999 0.74926
 H1437 H 0.41371 0.65227 0.74880
 H1438 H 0.37605 0.69027 0.74903
 H1439 H 0.30906 0.62352 0.74931
 H1440 H 0.34707 0.58580 0.74908
 C1441 C 0.88395 0.88385 0.75117
 C1442 C 0.89186 0.85434 0.75137
 C1443 C 0.87031 0.83269 0.75163
 C1444 C 0.92490 0.92459 0.74996
 C1445 C 0.83277 0.87008 0.75164
 C1446 C 0.85438 0.89168 0.75137
 C1447 C 0.90618 0.90606 0.75056
 C1448 C 0.84047 0.84029 0.75168
 H1449 H 0.91471 0.84805 0.75123
 H1450 H 0.87706 0.81002 0.75171
 H1451 H 0.81005 0.87675 0.75172
 H1452 H 0.84803 0.91448 0.75124
 C1453 C 0.38305 0.38374 0.24990
 C1454 C 0.39098 0.35424 0.25020
 C1455 C 0.36944 0.33258 0.25038
 C1456 C 0.42387 0.42461 0.24894
 C1457 C 0.33187 0.36994 0.25010
 C1458 C 0.35347 0.39155 0.24991
 C1459 C 0.40525 0.40598 0.24942
 C1460 C 0.33959 0.34016 0.25025
 H1461 H 0.41383 0.34797 0.25021
 H1462 H 0.37621 0.30991 0.25055
 H1463 H 0.30915 0.37659 0.25004
 H1464 H 0.34711 0.41434 0.24970
   
