data_POSCAR
  _audit_creation_date              2014-09-24
  _audit_creation_method            'ToBaCCo'
  _symmetry_space_group_name_H-M    'P1'
  _symmetry_Int_Tables_number       1
  _symmetry_cell_setting            triclinic
  loop_
  _symmetry_equiv_pos_as_xyz
 x,y,z
_cell_length_a 51.4357
_cell_length_b 51.5091
_cell_length_c 51.4695
_cell_angle_alpha 90.026800
_cell_angle_beta 90.048300
_cell_angle_gamma 89.991600
loop_
  _atom_site_label
  _atom_site_type_symbol
  _atom_site_fract_x
  _atom_site_fract_y
  _atom_site_fract_z
C1 C 0.37106 1.35260 0.33086
 C2 C 0.37097 1.33210 0.34891
 C3 C 0.34989 1.32886 0.36534
 C4 C 0.32868 1.34583 0.36393
 C5 C 0.32895 1.36613 0.34645
 C6 C 0.35009 1.36934 0.32964
 C7 C 0.38813 1.35998 0.31157
 N8 N 0.37794 1.38077 0.29868
 C9 C 0.35448 1.38627 0.30955
 C10 C 0.30619 1.37971 0.34964
 N11 N 0.29166 1.36768 0.36813
 C12 C 0.30548 1.34704 0.37718
 C13 C 0.35465 1.30737 0.38038
 N14 N 0.37816 1.29753 0.37369
 C15 C 0.38819 1.31227 0.35422
 H16 H 0.40586 1.34993 0.30632
 H17 H 0.34140 1.40149 0.30320
 H18 H 0.30039 1.39687 0.33894
 H19 H 0.29954 1.33441 0.39291
 H20 H 0.34187 1.29927 0.39499
 H21 H 0.40646 1.30858 0.34446
 C22 C 0.36486 0.84225 0.82458
 C23 C 0.36899 0.82909 0.84808
 C24 C 0.35177 0.83234 0.86854
 C25 C 0.33023 0.84896 0.86572
 C26 C 0.32556 0.86061 0.84219
 C27 C 0.34301 0.85759 0.82160
 C28 C 0.37987 0.84547 0.80265
 N29 N 0.36774 0.86278 0.78689
 C30 C 0.34504 0.87001 0.79808
 C31 C 0.30287 0.87426 0.84434
 N32 N 0.29408 0.87336 0.86939
 C33 C 0.31083 0.85710 0.88231
 C34 C 0.35934 0.81546 0.88789
 N35 N 0.38070 0.80228 0.87967
 C36 C 0.38687 0.81066 0.85545
 H37 H 0.39908 0.83755 0.79934
 H38 H 0.33213 0.88486 0.79062
 H39 H 0.29298 0.88222 0.82771
 H40 H 0.30969 0.85144 0.90247
 H41 H 0.34910 0.81175 0.90588
 H42 H 0.40197 0.80241 0.84335
 C43 C 0.86052 1.34480 0.82781
 C44 C 0.85877 1.32505 0.84634
 C45 C 0.84318 1.32821 0.86798
 C46 C 0.82847 1.35098 0.87080
 C47 C 0.83016 1.37044 0.85230
 C48 C 0.84721 1.36766 0.83109
 C49 C 0.87439 1.34670 0.80526
 N50 N 0.87214 1.37118 0.79525
 C51 C 0.85464 1.38377 0.81100
 C52 C 0.81188 1.38890 0.85872
 N53 N 0.79955 1.38147 0.88095
 C54 C 0.80984 1.35832 0.88851
 C55 C 0.84734 1.30704 0.88384
 N56 N 0.86545 1.29165 0.87242
 C57 C 0.87230 1.30227 0.84936
 H58 H 0.88358 1.33014 0.79643
 H59 H 0.84765 1.40339 0.80872
 H60 H 0.80728 1.40609 0.84752
 H61 H 0.80265 1.34649 0.90434
 H62 H 0.83909 1.30384 0.90292
 H63 H 0.88723 1.29474 0.83658
 C64 C 0.86748 0.84743 0.32861
 C65 C 0.86919 0.82953 0.34906
 C66 C 0.85166 0.83069 0.36946
 C67 C 0.83243 0.85001 0.36980
 C68 C 0.83073 0.86756 0.34952
 C69 C 0.84811 0.86602 0.32866
 C70 C 0.88095 0.85007 0.30568
 N71 N 0.86961 0.86919 0.29140
 C72 C 0.84974 0.87932 0.30557
 C73 C 0.80968 0.88329 0.35427
 N74 N 0.79876 0.87593 0.37707
 C75 C 0.81225 0.85533 0.38655
 C76 C 0.85641 0.80961 0.38520
 N77 N 0.87617 0.79570 0.37465
 C78 C 0.88431 0.80779 0.35273
 H79 H 0.89712 0.83818 0.29934
 H80 H 0.83754 0.89542 0.29966
 H81 H 0.80257 0.89876 0.34192
 H82 H 0.80740 0.84477 0.40408
 H83 H 0.84560 0.80409 0.40237
 H84 H 0.89923 0.80054 0.33980
 C85 C 0.63703 0.65629 0.32386
 C86 C 0.63558 0.67464 0.34399
 C87 C 0.65341 0.67387 0.36418
 C88 C 0.67283 0.65478 0.36453
 C89 C 0.67392 0.63646 0.34490
 C90 C 0.65582 0.63711 0.32459
 C91 C 0.62334 0.65306 0.30107
 N92 N 0.63347 0.63242 0.28797
 C93 C 0.65299 0.62227 0.30261
 C94 C 0.69560 0.62146 0.34917
 N95 N 0.70777 0.63047 0.37074
 C96 C 0.69389 0.65060 0.38052
 C97 C 0.64800 0.69437 0.38042
 N98 N 0.62711 0.70724 0.37082
 C99 C 0.61952 0.69558 0.34840
 H100 H 0.60690 0.66458 0.29473
 H101 H 0.66495 0.60583 0.29715
 H102 H 0.70266 0.60584 0.33697
 H103 H 0.69938 0.66199 0.39734
 H104 H 0.65844 0.69960 0.39794
 H105 H 0.60364 0.70204 0.33618
 C106 C 0.62316 0.14004 0.83859
 C107 C 0.62504 0.16056 0.85657
 C108 C 0.64787 0.16426 0.86989
 C109 C 0.66857 0.14697 0.86698
 C110 C 0.66667 0.12635 0.84999
 C111 C 0.64369 0.12282 0.83560
 C112 C 0.60500 0.13397 0.81989
 N113 N 0.61351 0.11300 0.80618
 C114 C 0.63718 0.10607 0.81578
 C115 C 0.68997 0.11308 0.85126
 N116 N 0.70566 0.12512 0.86891
 C117 C 0.69242 0.14567 0.87881
 C118 C 0.64568 0.18692 0.88349
 N119 N 0.62113 0.19660 0.88091
 C120 C 0.60859 0.18049 0.86381
 H121 H 0.58724 0.14457 0.81597
 H122 H 0.64977 0.09140 0.80746
 H123 H 0.69469 0.09535 0.84096
 H124 H 0.69974 0.15889 0.89346
 H125 H 0.66207 0.19630 0.89253
 H126 H 0.58906 0.18296 0.85653
 C127 C 1.12986 0.64663 0.83314
 C128 C 1.13017 0.66618 0.85205
 C129 C 1.14876 0.66583 0.87154
 C130 C 1.16729 0.64582 0.87232
 C131 C 1.16729 0.62687 0.85327
 C132 C 1.14834 0.62714 0.83368
 C133 C 1.11429 0.64234 0.81183
 N134 N 1.12267 0.62050 0.79973
 C135 C 1.14370 0.61123 0.81269
 C136 C 1.18822 0.61093 0.85790
 N137 N 1.20053 0.61915 0.87982
 C138 C 1.18799 0.64075 0.88854
 C139 C 1.14515 0.68786 0.88629
 N140 N 1.12505 0.70150 0.87598
 C141 C 1.11555 0.68830 0.85527
 H142 H 1.09808 0.65418 0.80552
 H143 H 1.15483 0.59429 0.80710
 H144 H 1.19392 0.59434 0.84629
 H145 H 1.19416 0.65262 0.90479
 H146 H 1.15669 0.69396 0.90280
 H147 H 1.09975 0.69481 0.84298
 C148 C 1.13161 0.15003 0.32891
 C149 C 1.13291 0.17108 0.34615
 C150 C 1.15184 0.17165 0.36524
 C151 C 1.16970 0.15120 0.36732
 C152 C 1.16810 0.13017 0.35069
 C153 C 1.14886 0.12957 0.33130
 C154 C 1.11557 0.14460 0.30825
 N155 N 1.12213 0.12101 0.29827
 C156 C 1.14275 0.11185 0.31217
 C157 C 1.18774 0.11328 0.35746
 N158 N 1.20118 0.12349 0.37789
 C159 C 1.19039 0.14692 0.38367
 C160 C 1.14788 0.19375 0.37976
 N161 N 1.12678 0.20630 0.37015
 C162 C 1.11772 0.19287 0.34933
 H163 H 1.09994 0.15682 0.30122
 H164 H 1.15334 0.09417 0.30798
 H165 H 1.19258 0.09544 0.34743
 H166 H 1.19690 0.15984 0.39896
 H167 H 1.15896 0.19986 0.39658
 H168 H 1.10091 0.19824 0.33785
 C169 C 0.62547 1.35591 0.66347
 C170 C 0.62521 1.33599 0.64481
 C171 C 0.64485 1.33455 0.62647
 C172 C 0.66493 1.35293 0.62649
 C173 C 0.66532 1.37237 0.64503
 C174 C 0.64558 1.37372 0.66375
 C175 C 0.60919 1.36207 0.68381
 N176 N 0.61893 1.38322 0.69640
 C177 C 0.64150 1.39007 0.68445
 C178 C 0.68693 1.38740 0.64036
 N179 N 0.69940 1.37767 0.61927
 C180 C 0.68635 1.35638 0.61086
 C181 C 0.64019 1.31299 0.61143
 N182 N 0.61817 1.30138 0.62006
 C183 C 0.60893 1.31515 0.64060
 H184 H 0.59214 1.35123 0.68967
 H185 H 0.65390 1.40607 0.69020
 H186 H 0.69311 1.40424 0.65135
 H187 H 0.69194 1.34452 0.59441
 H188 H 0.65221 1.30589 0.59569
 H189 H 0.59204 1.30995 0.65201
 C190 C 0.63642 0.84242 1.17652
 C191 C 0.63441 0.82445 1.15615
 C192 C 0.65161 0.82556 1.13549
 C193 C 0.67106 0.84463 1.13497
 C194 C 0.67277 0.86258 1.15494
 C195 C 0.65519 0.86160 1.17570
 C196 C 0.62307 0.84538 1.19950
 N197 N 0.63334 0.86589 1.21268
 C198 C 0.65265 0.87622 1.19790
 C199 C 0.69428 0.87771 1.15026
 N200 N 0.70568 0.86923 1.12808
 C201 C 0.69155 0.84922 1.11838
 C202 C 0.64556 0.80538 1.11903
 N203 N 0.62488 0.79240 1.12901
 C204 C 0.61815 0.80366 1.15188
 H205 H 0.60667 0.83384 1.20585
 H206 H 0.66456 0.89270 1.20331
 H207 H 0.70173 0.89310 1.16253
 H208 H 0.69647 0.83822 1.10114
 H209 H 0.65554 0.80031 1.10122
 H210 H 0.60263 0.79710 1.16446
 C211 C 1.14281 1.34078 1.17511
 C212 C 1.14602 1.31902 1.15921
 C213 C 1.16147 1.32057 1.13737
 C214 C 1.17453 1.34374 1.13173
 C215 C 1.17092 1.36549 1.14712
 C216 C 1.15419 1.36413 1.16875
 C217 C 1.12865 1.34443 1.19722
 N218 N 1.12902 1.37002 1.20390
 C219 C 1.14526 1.38208 1.18663
 C220 C 1.18736 1.38446 1.13768
 N221 N 1.20090 1.37465 1.11708
 C222 C 1.19278 1.34978 1.11334
 C223 C 1.15787 1.29803 1.12343
 N224 N 1.14015 1.28327 1.13614
 C225 C 1.13312 1.29567 1.15828
 H226 H 1.12005 1.32875 1.20810
 H227 H 1.15013 1.40248 1.18656
 H228 H 1.19091 1.40310 1.14676
 H229 H 1.20033 1.33655 1.09882
 H230 H 1.16552 1.29382 1.10430
 H231 H 1.11781 1.28935 1.17124
 C232 C 1.13473 0.84475 0.67390
 C233 C 1.13442 0.82552 0.65459
 C234 C 1.15304 0.82570 0.63515
 C235 C 1.17214 0.84510 0.63475
 C236 C 1.17242 0.86403 0.65383
 C237 C 1.15365 0.86386 0.67348
 C238 C 1.12017 0.84854 0.69602
 N239 N 1.13007 0.86925 0.70897
 C240 C 1.15035 0.87893 0.69526
 C241 C 1.19397 0.87924 0.64972
 N242 N 1.20677 0.86984 0.62873
 C243 C 1.19355 0.84912 0.61925
 C244 C 1.14920 0.80390 0.62021
 N245 N 1.12888 0.79048 0.63025
 C246 C 1.11951 0.80359 0.65110
 H247 H 1.10404 0.83676 0.70262
 H248 H 1.16213 0.89536 0.70107
 H249 H 1.20031 0.89550 0.66146
 H250 H 1.19957 0.83746 0.60282
 H251 H 1.16075 0.79778 0.60372
 H252 H 1.10362 0.79713 0.66327
 C253 C 0.36784 0.65320 0.66844
 C254 C 0.36607 0.67311 0.64993
 C255 C 0.34745 0.67182 0.63053
 C256 C 0.33059 0.65048 0.62922
 C257 C 0.33264 0.63062 0.64713
 C258 C 0.35117 0.63212 0.66705
 C259 C 0.38254 0.65032 0.69062
 N260 N 0.37489 0.62824 0.70273
 C261 C 0.35593 0.61681 0.68842
 C262 C 0.31333 0.61295 0.64163
 N263 N 0.29963 0.62155 0.62070
 C264 C 0.30984 0.64480 0.61337
 C265 C 0.34964 0.69403 0.61586
 N266 N 0.36905 0.70872 0.62597
 C267 C 0.37934 0.69610 0.64670
 H268 H 0.39689 0.66379 0.69804
 H269 H 0.34571 0.59923 0.69377
 H270 H 0.30873 0.59583 0.65293
 H271 H 0.30270 0.65674 0.59759
 H272 H 0.33808 0.69917 0.59903
 H273 H 0.39521 0.70323 0.65855
 C274 C 0.37300 0.14848 1.16420
 C275 C 0.37250 0.16757 1.14481
 C276 C 0.35180 0.16881 1.12765
 C277 C 0.33130 0.15096 1.12970
 C278 C 0.33215 0.13171 1.14839
 C279 C 0.35301 0.13057 1.16588
 C280 C 0.38910 0.14452 1.18519
 N281 N 0.37910 0.12488 1.19960
 C282 C 0.35724 0.11600 1.18788
 C283 C 0.30942 0.11779 1.14650
 N284 N 0.29433 0.12866 1.12773
 C285 C 0.30779 0.14876 1.11708
 C286 C 0.35577 0.19009 1.11198
 N287 N 0.37850 0.20150 1.11904
 C288 C 0.38864 0.18814 1.13939
 H289 H 0.40597 0.15595 1.19043
 H290 H 0.34459 0.10112 1.19566
 H291 H 0.30376 0.10164 1.15872
 H292 H 0.30109 0.16075 1.10115
 H293 H 0.34292 0.19707 1.09685
 H294 H 0.40617 0.19341 1.14980
 C295 C 0.87076 0.65020 1.16790
 C296 C 0.86923 0.67041 1.14973
 C297 C 0.84891 0.67113 1.13209
 C298 C 0.82984 0.65173 1.13243
 C299 C 0.83125 0.63186 1.15048
 C300 C 0.85185 0.63108 1.16830
 C301 C 0.88746 0.64536 1.18824
 N302 N 0.87920 0.62368 1.20073
 C303 C 0.85732 0.61495 1.18888
 C304 C 0.80949 0.61666 1.14724
 N305 N 0.79498 0.62700 1.12780
 C306 C 0.80730 0.64828 1.11845
 C307 C 0.85155 0.69350 1.11777
 N308 N 0.87280 0.70642 1.12652
 C309 C 0.88394 0.69238 1.14584
 H310 H 0.90390 0.65713 1.19408
 H311 H 0.84592 0.59846 1.19522
 H312 H 0.80429 0.59963 1.15842
 H313 H 0.80003 0.66063 1.10305
 H314 H 0.83871 0.70024 1.10251
 H315 H 0.90107 0.69813 1.15664
 C316 C 0.87117 0.15040 0.66785
 C317 C 0.87170 0.16842 0.64739
 C318 C 0.85221 0.16820 0.62877
 C319 C 0.83204 0.14996 0.63031
 C320 C 0.83146 0.13235 0.65059
 C321 C 0.85094 0.13279 0.66958
 C322 C 0.88607 0.14756 0.68993
 N323 N 0.87473 0.12942 0.70542
 C324 C 0.85348 0.11999 0.69285
 C325 C 0.80874 0.11843 0.64844
 N326 N 0.79552 0.12734 0.62749
 C327 C 0.80957 0.14653 0.61616
 C328 C 0.85576 0.18963 0.61324
 N329 N 0.87663 0.20300 0.62224
 C330 C 0.88673 0.19009 0.64288
 H331 H 0.90294 0.15903 0.69512
 H332 H 0.84060 0.10510 0.70026
 H333 H 0.80190 0.10349 0.66155
 H334 H 0.80352 0.15755 0.59930
 H335 H 0.84322 0.19596 0.59757
 H336 H 0.90277 0.19689 0.65469
 C337 C 1.35411 0.37164 0.66420
 C338 C 1.33284 0.36907 0.64740
 C339 C 1.33251 0.34945 0.62905
 C340 C 1.35353 0.33225 0.62721
 C341 C 1.37466 0.33486 0.64363
 C342 C 1.37487 0.35462 0.66245
 C343 C 1.35878 0.38787 0.68486
 N344 N 1.38189 0.38123 0.69569
 C345 C 1.39182 0.36077 0.68228
 C346 C 1.39169 0.31504 0.63782
 N347 N 1.38151 0.30057 0.61811
 C348 C 1.35789 0.31081 0.61195
 C349 C 1.30923 0.35116 0.61597
 N350 N 1.29545 0.37119 0.62617
 C351 C 1.30978 0.38241 0.64524
 H352 H 1.34592 0.40286 0.69210
 H353 H 1.40953 0.35054 0.68724
 H354 H 1.40955 0.31074 0.64812
 H355 H 1.34484 0.30334 0.59721
 H356 H 1.30270 0.33880 0.60024
 H357 H 1.30371 0.39892 0.65676
 C358 C 1.34530 0.86279 1.17350
 C359 C 1.32663 0.86278 1.15364
 C360 C 1.32646 0.84307 1.13536
 C361 C 1.34498 0.82315 1.13671
 C362 C 1.36404 0.82372 1.15568
 C363 C 1.36420 0.84370 1.17422
 C364 C 1.34854 0.87803 1.19520
 N365 N 1.36881 0.86851 1.20927
 C366 C 1.37897 0.84796 1.19613
 C367 C 1.37872 0.80155 1.15285
 N368 N 1.36841 0.78704 1.13330
 C369 C 1.34807 0.80043 1.12299
 C370 C 1.30591 0.84767 1.11885
 N371 N 1.29400 0.86991 1.12645
 C372 C 1.30619 0.87905 1.14798
 H373 H 1.33686 0.89471 1.20049
 H374 H 1.39493 0.83601 1.20286
 H375 H 1.39485 0.79572 1.16507
 H376 H 1.33636 0.79413 1.10666
 H377 H 1.30012 0.83589 1.10241
 H378 H 1.30058 0.89630 1.15863
 C379 C 0.85129 0.36878 1.16702
 C380 C 0.83077 0.36680 1.14920
 C381 C 0.82913 0.34548 1.13294
 C382 C 0.84786 0.32580 1.13445
 C383 C 0.86856 0.32809 1.15148
 C384 C 0.87036 0.34985 1.16785
 C385 C 0.85677 0.38646 1.18627
 N386 N 0.87911 0.37922 1.19843
 C387 C 0.88744 0.35668 1.18735
 C388 C 0.88337 0.30593 1.14889
 N389 N 0.87158 0.28987 1.13145
 C390 C 0.85015 0.30224 1.12215
 C391 C 0.80744 0.34874 1.11762
 N392 N 0.79622 0.37172 1.12392
 C393 C 0.81003 0.38269 1.14355
 H394 H 0.84523 0.40336 1.19114
 H395 H 0.90380 0.34523 1.19401
 H396 H 0.90080 0.30134 1.15976
 H397 H 0.83727 0.29478 1.10725
 H398 H 0.80051 0.33561 1.10271
 H399 H 0.80542 0.40103 1.15277
 C400 C 0.85354 0.87245 0.66521
 C401 C 0.83390 0.87198 0.64632
 C402 C 0.83247 0.85157 0.62888
 C403 C 0.85065 0.83130 0.63016
 C404 C 0.87009 0.83181 0.64878
 C405 C 0.87159 0.85254 0.66637
 C406 C 0.85885 0.88917 0.68538
 N407 N 0.87982 0.88001 0.69848
 C408 C 0.88764 0.85752 0.68719
 C409 C 0.88431 0.80933 0.64612
 N410 N 0.87378 0.79515 0.62656
 C411 C 0.85336 0.80849 0.61647
 C412 C 0.81098 0.85576 0.61346
 N413 N 0.79962 0.87834 0.62096
 C414 C 0.81328 0.88824 0.64125
 H415 H 0.84800 0.90643 0.69053
 H416 H 0.90337 0.84538 0.69411
 H417 H 0.90079 0.80343 0.65781
 H418 H 0.84123 0.80186 0.60060
 H419 H 0.80389 0.84320 0.59815
 H420 H 0.80824 0.90571 0.65181
 C421 C 0.65199 0.63292 0.66957
 C422 C 0.66956 0.63154 0.64881
 C423 C 0.66927 0.65040 0.62965
 C424 C 0.65140 0.67092 0.63105
 C425 C 0.63399 0.67222 0.65151
 C426 C 0.63428 0.65311 0.67086
 C427 C 0.64875 0.61810 0.69158
 N428 N 0.62975 0.62903 0.70620
 C429 C 0.62057 0.65028 0.69361
 C430 C 0.61987 0.69470 0.64860
 N431 N 0.62854 0.70716 0.62707
 C432 C 0.64759 0.69269 0.61601
 C433 C 0.68941 0.64503 0.61290
 N434 N 0.70168 0.62328 0.62134
 C435 C 0.68988 0.61504 0.64341
 H436 H 0.65975 0.60098 0.69691
 H437 H 0.60537 0.66294 0.70077
 H438 H 0.60475 0.70177 0.66140
 H439 H 0.65823 0.69796 0.59866
 H440 H 0.69530 0.65653 0.59631
 H441 H 0.69612 0.59864 0.65501
 C442 C 0.64515 1.12860 1.16574
 C443 C 0.66498 1.12946 1.14707
 C444 C 0.66579 1.14960 1.12927
 C445 C 0.64667 1.16901 1.12980
 C446 C 0.62701 1.16804 1.14807
 C447 C 0.62653 1.14794 1.16645
 C448 C 0.63980 1.11167 1.18573
 N449 N 0.61840 1.12031 1.19867
 C450 C 0.61049 1.14277 1.18718
 C451 C 0.61077 1.18877 1.14344
 N452 N 0.61993 1.20224 1.12262
 C453 C 0.64232 1.19060 1.11465
 C454 C 0.68708 1.14550 1.11360
 N455 N 0.69898 1.12328 1.12132
 C456 C 0.68582 1.11349 1.14196
 H457 H 0.65143 1.09502 1.19123
 H458 H 0.59410 1.15443 1.19335
 H459 H 0.59382 1.19398 1.15478
 H460 H 0.65412 1.19684 1.09840
 H461 H 0.69348 1.15770 1.09771
 H462 H 0.69115 1.09610 1.15251
 C463 C 0.15366 0.63626 1.17258
 C464 C 0.17221 0.63614 1.15268
 C465 C 0.17087 0.65435 1.13297
 C466 C 0.15076 0.67269 1.13277
 C467 C 0.13225 0.67267 1.15225
 C468 C 0.13406 0.65466 1.17265
 C469 C 0.15116 0.62181 1.19488
 N470 N 0.13117 0.63163 1.20908
 C471 C 0.12030 0.65146 1.19537
 C472 C 0.11533 0.69277 1.14710
 N473 N 0.12313 0.70490 1.12492
 C474 C 0.14519 0.69305 1.11648
 C475 C 0.19208 0.65056 1.11714
 N476 N 0.20633 0.63076 1.12704
 C477 C 0.19428 0.62162 1.14862
 H478 H 0.16382 0.60616 1.20098
 H479 H 0.10355 0.66267 1.20143
 H480 H 0.09916 0.69875 1.15916
 H481 H 0.15616 0.69858 1.09940
 H482 H 0.19718 0.66174 1.10008
 H483 H 0.20142 0.60596 1.16071
 C484 C 0.14922 1.13205 0.67053
 C485 C 0.17031 1.13401 0.65333
 C486 C 0.17110 1.15399 0.63536
 C487 C 0.15079 1.17206 0.63415
 C488 C 0.13002 1.17014 0.65103
 C489 C 0.12948 1.15028 0.66968
 C490 C 0.14351 1.11513 0.69045
 N491 N 0.12086 1.12273 0.70183
 C492 C 0.11246 1.14452 0.68945
 C493 C 0.11301 1.18989 0.64497
 N494 N 0.12283 1.20358 0.62457
 C495 C 0.14631 1.19311 0.61838
 C496 C 0.19378 1.15140 0.62148
 N497 N 0.20690 1.13054 0.63080
 C498 C 0.19263 1.11956 0.65006
 H499 H 0.15566 1.09925 0.69701
 H500 H 0.09509 1.15533 0.69439
 H501 H 0.09510 1.19431 0.65510
 H502 H 0.15888 1.19978 0.60288
 H503 H 0.20037 1.16376 0.60580
 H504 H 0.19824 1.10249 0.66098
 C505 C 1.34561 0.63251 0.32996
 C506 C 1.33388 0.62804 0.35420
 C507 C 1.33454 0.64721 0.37307
 C508 C 1.34687 0.67096 0.36787
 C509 C 1.35585 0.67608 0.34329
 C510 C 1.35521 0.65672 0.32420
 C511 C 1.35185 0.61659 0.30936
 N512 N 1.36546 0.63047 0.29115
 C513 C 1.36579 0.65553 0.29984
 C514 C 1.36707 0.70020 0.34378
 N515 N 1.36756 0.70936 0.36870
 C516 C 1.35400 0.69165 0.38325
 C517 C 1.31839 0.63943 0.39287
 N518 N 1.30746 0.61632 0.38627
 C519 C 1.31728 0.60894 0.36289
 H520 H 1.34824 0.59594 0.30909
 H521 H 1.37246 0.67239 0.28938
 H522 H 1.37346 0.71021 0.32654
 H523 H 1.35084 0.69236 0.40398
 H524 H 1.31256 0.65116 0.40933
 H525 H 1.31031 0.59263 0.35158
 C526 C 1.35241 1.13044 0.83364
 C527 C 1.33360 1.13049 0.85327
 C528 C 1.33460 1.14892 0.87282
 C529 C 1.35467 1.16734 0.87310
 C530 C 1.37365 1.16689 0.85409
 C531 C 1.37234 1.14851 0.83401
 C532 C 1.35508 1.11599 0.81135
 N533 N 1.37589 1.12514 0.79805
 C534 C 1.38683 1.14476 0.81184
 C535 C 1.39036 1.18718 0.85904
 N536 N 1.38202 1.19995 0.88065
 C537 C 1.35986 1.18817 0.88899
 C538 C 1.31351 1.14473 0.88874
 N539 N 1.30011 1.12402 0.87945
 C540 C 1.31199 1.11539 0.85758
 H541 H 1.34239 1.10054 0.80480
 H542 H 1.40351 1.15600 0.80568
 H543 H 1.40663 1.19299 0.84703
 H544 H 1.34841 1.19422 0.90558
 H545 H 1.30828 1.15581 0.90584
 H546 H 1.30527 1.09939 0.84569
 C547 C 0.85064 0.62852 0.83144
 C548 C 0.83149 0.62889 0.85083
 C549 C 0.83064 0.64914 0.86850
 C550 C 0.84878 0.66937 0.86689
 C551 C 0.86772 0.66901 0.84779
 C552 C 0.86871 0.64840 0.83000
 C553 C 0.85559 0.61177 0.81119
 N554 N 0.87638 0.62086 0.79779
 C555 C 0.88442 0.64335 0.80894
 C556 C 0.88202 0.69147 0.85036
 N557 N 0.87194 0.70545 0.87030
 C558 C 0.85181 0.69202 0.88073
 C559 C 0.80972 0.64486 0.88457
 N560 N 0.79805 0.62242 0.87718
 C561 C 0.81099 0.61264 0.85641
 H562 H 0.84476 0.59441 0.80634
 H563 H 0.90020 0.65534 0.80191
 H564 H 0.89818 0.69751 0.83834
 H565 H 0.84005 0.69851 0.89692
 H566 H 0.80312 0.65732 0.90018
 H567 H 0.80566 0.59516 0.84600
 C568 C 0.85266 1.12862 0.33339
 C569 C 0.83261 1.13034 0.35172
 C570 C 0.83230 1.15052 0.36949
 C571 C 0.85198 1.16935 0.36902
 C572 C 0.87175 1.16772 0.35083
 C573 C 0.87214 1.14715 0.33296
 C574 C 0.85697 1.11203 0.31290
 N575 N 0.87873 1.11988 0.30029
 C576 C 0.88803 1.14149 0.31220
 C577 C 0.88703 1.18947 0.35371
 N578 N 0.87683 1.20421 0.37304
 C579 C 0.85558 1.19202 0.38270
 C580 C 0.80986 1.14812 0.38387
 N581 N 0.79660 1.12716 0.37501
 C582 C 0.81037 1.11602 0.35551
 H583 H 0.84487 1.09581 0.30714
 H584 H 0.90463 1.15265 0.30571
 H585 H 0.90383 1.19464 0.34216
 H586 H 0.84320 1.19960 0.39792
 H587 H 0.80324 1.16105 0.39908
 H588 H 0.80426 1.09915 0.34453
 C589 C 0.64574 0.37187 0.33514
 C590 C 0.66422 0.37395 0.35525
 C591 C 0.66738 0.35364 0.37264
 C592 C 0.65232 0.33112 0.37022
 C593 C 0.63496 0.32882 0.34989
 C594 C 0.63202 0.34917 0.33216
 C595 C 0.63794 0.38816 0.31533
 N596 N 0.61993 0.37581 0.29995
 C597 C 0.61745 0.35140 0.31006
 C598 C 0.62199 0.30570 0.35293
 N599 N 0.63083 0.29414 0.37487
 C600 C 0.64985 0.30917 0.38530
 C601 C 0.68783 0.35978 0.38863
 N602 N 0.69754 0.38312 0.38128
 C603 C 0.68322 0.39202 0.36090
 H604 H 0.64548 0.40752 0.31265
 H605 H 0.60794 0.33494 0.30134
 H606 H 0.60628 0.29845 0.34094
 H607 H 0.66010 0.30502 0.40320
 H608 H 0.69622 0.34738 0.40342
 H609 H 0.68750 0.40942 0.34990
 C610 C 0.64883 0.86757 0.82927
 C611 C 0.66738 0.86920 0.84918
 C612 C 0.66654 0.85191 0.86975
 C613 C 0.64704 0.83293 0.87078
 C614 C 0.62859 0.83147 0.85123
 C615 C 0.62954 0.84885 0.83029
 C616 C 0.64562 0.88103 0.80641
 N617 N 0.62503 0.87074 0.79353
 C618 C 0.61486 0.85126 0.80803
 C619 C 0.61274 0.81067 0.85677
 N620 N 0.62105 0.79971 0.87928
 C621 C 0.64215 0.81299 0.88786
 C622 C 0.68741 0.85733 0.88559
 N623 N 0.70061 0.87764 0.87527
 C624 C 0.68871 0.88491 0.85288
 H625 H 0.65754 0.89687 0.79941
 H626 H 0.59835 0.83945 0.80250
 H627 H 0.59679 0.80356 0.84503
 H628 H 0.65334 0.80814 0.90501
 H629 H 0.69281 0.84715 0.90319
 H630 H 0.69540 0.90019 0.84009
 C631 C 0.14857 0.36895 0.83170
 C632 C 0.16970 0.36713 0.84877
 C633 C 0.16989 0.34840 0.86802
 C634 C 0.14888 0.33122 0.87040
 C635 C 0.12798 0.33301 0.85347
 C636 C 0.12774 0.35220 0.83410
 C637 C 0.14385 0.38457 0.81062
 N638 N 0.12027 0.37829 0.80039
 C639 C 0.11046 0.35819 0.81452
 C640 C 0.11119 0.31307 0.85944
 N641 N 0.12128 0.29954 0.87969
 C642 C 0.14437 0.31034 0.88645
 C643 C 0.19301 0.35089 0.88130
 N644 N 0.20674 0.37057 0.87039
 C645 C 0.19260 0.38076 0.85064
 H646 H 0.15664 0.39960 0.80335
 H647 H 0.09270 0.34778 0.81012
 H648 H 0.09325 0.30835 0.84948
 H649 H 0.15724 0.30301 0.90140
 H650 H 0.19943 0.33933 0.89766
 H651 H 0.19867 0.39682 0.83851
 C652 C 0.14452 0.86975 0.33343
 C653 C 0.16332 0.87187 0.35318
 C654 C 0.16836 0.85082 0.36925
 C655 C 0.15471 0.82750 0.36580
 C656 C 0.13689 0.82534 0.34583
 C657 C 0.13214 0.84647 0.32943
 C658 C 0.13593 0.88642 0.31432
 N659 N 0.11875 0.87380 0.29828
 C660 C 0.11748 0.84888 0.30738
 C661 C 0.12577 0.80115 0.34752
 N662 N 0.13648 0.78854 0.36801
 C663 C 0.15435 0.80437 0.37927
 C664 C 0.18939 0.85717 0.38446
 N665 N 0.19751 0.88126 0.37771
 C666 C 0.18162 0.89058 0.35881
 H667 H 0.14258 0.90620 0.31243
 H668 H 0.10901 0.83233 0.29779
 H669 H 0.11014 0.79369 0.33556
 H670 H 0.16517 0.79987 0.39675
 H671 H 0.19950 0.84438 0.39776
 H672 H 0.18459 0.90863 0.34847
 O673 O 0.97513 0.90677 0.86925
 O674 O 0.97541 0.87719 0.83826
 C675 C 0.96665 0.89823 0.84768
 C676 C 0.94600 0.91268 0.83381
 C677 C 0.93802 0.90510 0.80883
 H678 H 0.94728 0.88878 0.79928
 O679 O 1.02517 1.09448 0.87133
 O680 O 1.02549 1.12488 0.84117
 C681 C 1.03402 1.10353 0.85015
 C682 C 1.05489 1.08936 0.83627
 C683 C 1.06222 1.09652 0.81100
 H684 H 1.05160 1.11171 0.80101
 O685 O 0.87072 0.97487 0.90403
 O686 O 0.84058 0.97504 0.87353
 C687 C 0.84961 0.96608 0.89468
 C688 C 0.83571 0.94502 0.90847
 C689 C 0.81106 0.93670 0.90015
 H690 H 0.80185 0.94583 0.88356
 O691 O 1.13043 1.02689 0.90686
 O692 O 1.16083 1.02688 0.87666
 C693 C 1.15164 1.03569 0.89778
 C694 C 1.16532 1.05670 0.91180
 C695 C 1.19003 1.06516 0.90389
 H696 H 1.19959 1.05605 0.88750
 O697 O 0.90486 0.87117 0.97245
 O698 O 0.87464 0.84080 0.97220
 C699 C 0.89572 0.85011 0.96337
 C700 C 0.90929 0.83683 0.94175
 C701 C 0.89970 0.81338 0.93164
 H702 H 0.88289 0.80418 0.94035
 O703 O 1.09414 1.12908 0.97617
 O704 O 1.12400 1.15979 0.97668
 C705 C 1.10295 1.15050 0.96769
 C706 C 1.08880 1.16438 0.94678
 C707 C 1.09668 1.18923 0.93873
 H708 H 1.11306 1.19865 0.94804
 O709 O 0.90630 1.02624 0.86952
 O710 O 0.87629 1.02654 0.83889
 C711 C 0.89730 1.03539 0.84842
 C712 C 0.91098 1.05710 0.83539
 C713 C 0.90174 1.06725 0.81178
 H714 H 0.88528 1.05829 0.80214
 O715 O 1.09450 0.97616 0.87177
 O716 O 1.12485 0.97598 0.84153
 C717 C 1.10376 0.96706 0.85078
 C718 C 1.09038 0.94529 0.83750
 C719 C 1.10048 0.93505 0.81431
 H720 H 1.11741 0.94379 0.80533
 O721 O 1.02445 0.86969 0.90513
 O722 O 1.02457 0.83979 0.87445
 C723 C 1.03315 0.84852 0.89587
 C724 C 1.05404 0.83451 0.90985
 C725 C 1.06364 0.81069 0.90055
 H726 H 1.05513 0.80179 0.88346
 O727 O 0.97461 1.13022 0.90691
 O728 O 0.97490 1.16088 0.87702
 C729 C 0.96580 1.15145 0.89793
 C730 C 0.94429 1.16479 0.91164
 C731 C 0.93431 1.18846 0.90238
 H732 H 0.94275 1.19758 0.88540
 O733 O 0.87034 1.09399 0.97374
 O734 O 0.84037 1.12460 0.97353
 C735 C 0.84962 1.10361 0.96434
 C736 C 0.83659 1.09040 0.94221
 C737 C 0.81382 1.10066 0.93102
 H738 H 0.80560 1.11848 0.93861
 O739 O 1.12755 0.90447 0.97248
 O740 O 1.15757 0.87390 0.97221
 C741 C 1.14827 0.89489 0.96310
 C742 C 1.16150 0.90844 0.94142
 C743 C 1.18391 0.89795 0.92975
 H744 H 1.19076 0.87907 0.93591
 O745 O 0.97452 1.09485 0.87133
 O746 O 0.97480 1.12542 0.84134
 C747 C 0.96571 1.10432 0.85032
 C748 C 0.94423 1.09102 0.83655
 C749 C 0.93434 1.10120 0.81326
 H750 H 0.94280 1.11858 0.80495
 O751 O 1.02582 0.90680 0.87125
 O752 O 1.02615 0.87701 0.84046
 C753 C 1.03512 0.89785 0.85024
 C754 C 1.05702 0.91138 0.83739
 C755 C 1.06759 0.90139 0.81434
 H756 H 1.05932 0.88418 0.80548
 O757 O 1.12970 0.97636 0.90773
 O758 O 1.16020 0.97631 0.87762
 C759 C 1.15086 0.96744 0.89870
 C760 C 1.16385 0.94538 0.91186
 C761 C 1.18791 0.93630 0.90293
 H762 H 1.19883 0.94829 0.88960
 O763 O 0.87096 1.02542 0.90539
 O764 O 0.84083 1.02564 0.87487
 C765 C 0.84982 1.03426 0.89622
 C766 C 0.83619 1.05562 0.90984
 C767 C 0.81255 1.06512 0.90018
 H768 H 0.80292 1.05505 0.88439
 O769 O 0.90596 1.12931 0.97510
 O770 O 0.87607 1.16001 0.97545
 C771 C 0.89712 1.15070 0.96656
 C772 C 0.91090 1.16442 0.94544
 C773 C 0.90139 1.18815 0.93606
 H774 H 0.88463 1.19715 0.94509
 O775 O 1.09209 0.86908 0.97380
 O776 O 1.12204 0.83842 0.97397
 C777 C 1.10093 0.84772 0.96518
 C778 C 1.08708 0.83411 0.94400
 C779 C 1.09628 0.81026 0.93457
 H780 H 1.11282 0.80094 0.94370
 O781 O 1.09450 1.02696 0.87164
 O782 O 1.12468 1.02686 0.84124
 C783 C 1.10357 1.03578 0.85046
 C784 C 1.08945 1.05677 0.83669
 C785 C 1.09729 1.06506 0.81190
 H786 H 1.11422 1.05641 0.80285
 O787 O 0.90707 0.97564 0.86917
 O788 O 0.87714 0.97589 0.83846
 C789 C 0.89830 0.96713 0.84773
 C790 C 0.91261 0.94646 0.83381
 C791 C 0.90508 0.93878 0.80873
 H792 H 0.88917 0.94859 0.79901
 O793 O 1.02532 1.12964 0.90756
 O794 O 1.02567 1.16029 0.87766
 C795 C 1.03425 1.15090 0.89883
 C796 C 1.05512 1.16455 0.91320
 C797 C 1.06305 1.18952 0.90568
 H798 H 1.05333 1.19928 0.88976
 O799 O 0.97383 0.87124 0.90476
 O800 O 0.97384 0.84148 0.87394
 C801 C 0.96474 0.85047 0.89507
 C802 C 0.94295 0.83708 0.90820
 C803 C 0.93298 0.81370 0.89829
 H804 H 0.94167 0.80485 0.88128
 O805 O 1.13019 1.09395 0.97553
 O806 O 1.16026 1.12447 0.97599
 C807 C 1.15129 1.10337 0.96691
 C808 C 1.16515 1.08982 0.94575
 C809 C 1.18993 1.09794 0.93776
 H810 H 1.19950 1.11391 0.94760
 O811 O 0.86966 0.90702 0.97273
 O812 O 0.83927 0.87682 0.97246
 C813 C 0.84853 0.89797 0.96375
 C814 C 0.83505 0.91191 0.94250
 C815 C 0.81032 0.90404 0.93408
 H816 H 0.80046 0.88815 0.94374
 Cu817 Cu 0.99978 0.89158 0.89069
 Cu818 Cu 1.00000 0.85590 0.85365
 Cu819 Cu 0.99994 1.10925 0.89229
 Cu820 Cu 1.00037 1.14595 0.85629
 Cu821 Cu 0.89178 1.00048 0.89007
 Cu822 Cu 0.85568 1.00078 0.85337
 Cu823 Cu 1.10923 1.00169 0.89250
 Cu824 Cu 1.14566 1.00149 0.85619
 C825 C 0.93334 0.93353 0.84602
 H826 H 0.93909 0.93920 0.86546
 C827 C 0.91787 0.91834 0.79605
 C828 C 1.06823 1.06906 0.84868
 H829 H 1.06252 1.06330 0.86809
 C830 C 1.08326 1.08433 0.79850
 C831 C 0.84743 0.93262 0.92979
 H832 H 0.86660 0.93867 0.93607
 C833 C 0.79811 0.91654 0.91315
 C834 C 1.15317 1.06901 0.93286
 H835 H 1.13396 1.06280 0.93883
 C836 C 1.20257 1.08549 0.91708
 C837 C 0.93108 0.84839 0.93005
 H838 H 0.93837 0.86665 0.93752
 C839 C 0.91126 0.80195 0.90976
 C840 C 1.06787 1.15230 0.93401
 H841 H 1.06196 1.13297 0.93979
 C842 C 1.08359 1.20206 0.91850
 C843 C 0.93247 1.06894 0.84742
 H844 H 0.93960 1.06139 0.86573
 C845 C 0.91296 1.08963 0.80094
 C846 C 1.06847 0.93344 0.84880
 H847 H 1.06076 0.94095 0.86688
 C848 C 1.08942 0.91292 0.80296
 C849 C 1.06575 0.84590 0.93174
 H850 H 1.05885 0.86452 0.93868
 C851 C 1.08488 0.79868 0.91271
 C852 C 0.93256 1.15305 0.93334
 H853 H 0.93977 1.13456 0.94031
 C854 C 0.91302 1.20029 0.91469
 C855 C 0.84777 1.06803 0.93122
 H856 H 0.86593 1.06063 0.93889
 C857 C 0.80183 1.08830 0.90973
 C858 C 1.15119 0.93177 0.93173
 H859 H 1.13298 0.93911 0.93930
 C860 C 1.19736 0.91166 0.91019
 O861 O 1.02269 0.90862 1.12883
 O862 O 1.02243 0.87841 1.15919
 C863 C 1.03113 0.89970 1.15022
 C864 C 1.05251 0.91317 1.16394
 C865 C 1.05996 0.90524 1.18886
 H866 H 1.04700 0.89274 1.19965
 O867 O 0.97409 1.09091 1.13050
 O868 O 0.97419 1.12069 1.16132
 C869 C 0.96517 1.09983 1.15173
 C870 C 0.94372 1.08611 1.16502
 C871 C 0.93570 1.09367 1.18997
 H872 H 0.94554 1.10941 1.19991
 O873 O 0.86793 1.02513 1.09286
 O874 O 0.83729 1.02515 1.12280
 C875 C 0.84669 1.03399 1.10177
 C876 C 0.83318 1.05512 1.08769
 C877 C 0.80850 1.06370 1.09560
 H878 H 0.79883 1.05452 1.11188
 O879 O 1.13032 0.97366 1.09219
 O880 O 1.16084 0.97297 1.12230
 C881 C 1.15149 0.96457 1.10101
 C882 C 1.16484 0.94345 1.08673
 C883 C 1.18901 0.93405 1.09525
 H884 H 1.19849 0.94277 1.11193
 O885 O 1.09236 0.87056 1.02434
 O886 O 1.12225 0.83986 1.02453
 C887 C 1.10126 0.84944 1.03341
 C888 C 1.08738 0.83634 1.05492
 C889 C 1.09501 0.81154 1.06326
 H890 H 1.11037 0.80135 1.05308
 O891 O 0.90580 1.12791 1.02577
 O892 O 0.87579 1.15847 1.02617
 C893 C 0.89680 1.14890 1.03506
 C894 C 0.91044 1.16176 1.05702
 C895 C 0.90080 1.18502 1.06755
 H896 H 0.88426 1.19454 1.05864
 O897 O 0.90316 0.97439 1.12844
 O898 O 0.87270 0.97422 1.15858
 C899 C 0.89388 0.96541 1.14946
 C900 C 0.90737 0.94379 1.16274
 C901 C 0.89753 0.93347 1.18600
 H902 H 0.88113 0.94265 1.19548
 O903 O 1.09468 1.02305 1.12927
 O904 O 1.12472 1.02232 1.15986
 C905 C 1.10357 1.03134 1.15075
 C906 C 1.08928 1.05197 1.16488
 C907 C 1.09748 1.06039 1.18954
 H908 H 1.11451 1.05179 1.19848
 O909 O 0.97371 0.87189 1.09197
 O910 O 0.97370 0.84144 1.12209
 C911 C 0.96499 0.85062 1.10088
 C912 C 0.94381 0.83696 1.08697
 C913 C 0.93398 0.81342 1.09657
 H914 H 0.94260 0.80450 1.11359
 O915 O 1.02553 1.12636 1.09582
 O916 O 1.02556 1.15622 1.12653
 C917 C 1.03467 1.14717 1.10545
 C918 C 1.05664 1.16047 1.09244
 C919 C 1.06747 1.18312 1.10320
 H920 H 1.05929 1.19156 1.12067
 O921 O 0.86916 0.90638 1.02342
 O922 O 0.83895 0.87599 1.02318
 C923 C 0.84805 0.89707 1.03223
 C924 C 0.83440 0.91042 1.05376
 C925 C 0.81103 0.90038 1.06365
 H926 H 0.80228 0.88330 1.05498
 O927 O 1.13029 1.09285 1.02604
 O928 O 1.16034 1.12340 1.02653
 C929 C 1.15136 1.10207 1.03507
 C930 C 1.16487 1.08844 1.05653
 C931 C 1.18817 1.09834 1.06672
 H932 H 1.19748 1.11481 1.05751
 O933 O 1.02481 1.08996 1.13059
 O934 O 1.02477 1.11970 1.16142
 C935 C 1.03351 1.09862 1.15201
 C936 C 1.05457 1.08444 1.16566
 C937 C 1.06253 1.09199 1.19065
 H938 H 1.05232 1.10746 1.20063
 O939 O 0.97194 0.90658 1.12821
 O940 O 0.97186 0.87611 1.15831
 C941 C 0.96263 0.89697 1.14895
 C942 C 0.94048 0.90982 1.16200
 C943 C 0.92964 0.89909 1.18458
 H944 H 0.93770 0.88142 1.19269
 O945 O 1.13046 1.02432 1.09409
 O946 O 1.16073 1.02390 1.12444
 C947 C 1.15139 1.03331 1.10361
 C948 C 1.16452 1.05536 1.09059
 C949 C 1.18724 1.06625 1.10114
 H950 H 1.19556 1.05824 1.11874
 O951 O 0.86820 0.97446 1.09239
 O952 O 0.83761 0.97428 1.12238
 C953 C 0.84708 0.96541 1.10137
 C954 C 0.83394 0.94380 1.08764
 C955 C 0.81067 0.93334 1.09731
 H956 H 0.80161 0.94159 1.11443
 O957 O 1.09415 1.12765 1.02697
 O958 O 1.12414 1.15825 1.02753
 C959 C 1.10327 1.14851 1.03644
 C960 C 1.09005 1.16110 1.05863
 C961 C 1.10048 1.18372 1.06965
 H962 H 1.11759 1.19269 1.06127
 O963 O 0.90539 0.87144 1.02315
 O964 O 0.87529 0.84096 1.02300
 C965 C 0.89638 0.85026 1.03194
 C966 C 0.91015 0.83682 1.05334
 C967 C 0.90064 0.81328 1.06324
 H968 H 0.88374 0.80416 1.05456
 O969 O 1.09546 0.97249 1.12827
 O970 O 1.12572 0.97150 1.15862
 C971 C 1.10458 0.96295 1.14914
 C972 C 1.09013 0.94188 1.16240
 C973 C 1.09916 0.93102 1.18585
 H974 H 1.11775 0.93718 1.19351
 O975 O 0.90356 1.02475 1.12853
 O976 O 0.87321 1.02473 1.15878
 C977 C 0.89457 1.03332 1.14984
 C978 C 0.90905 1.05367 1.16408
 C979 C 0.90143 1.06135 1.18913
 H980 H 0.88508 1.05199 1.19852
 O981 O 0.97453 1.12625 1.09486
 O982 O 0.97446 1.15610 1.12557
 C983 C 0.96548 1.14713 1.10435
 C984 C 0.94375 1.16067 1.09107
 C985 C 0.93324 1.18349 1.10171
 H986 H 0.94144 1.19161 1.11933
 O987 O 1.02449 0.87233 1.09385
 O988 O 1.02444 0.84203 1.12410
 C989 C 1.03355 0.85134 1.10316
 C990 C 1.05491 0.83766 1.08954
 C991 C 1.06363 0.81334 1.09830
 H992 H 1.05514 0.80475 1.11553
 O993 O 1.12880 0.90531 1.02330
 O994 O 1.15892 0.87484 1.02322
 C995 C 1.15004 0.89614 1.03196
 C996 C 1.16412 0.90999 1.05295
 C997 C 1.18835 0.90096 1.06173
 H998 H 1.19743 0.88436 1.05250
 O999 O 0.86904 1.09340 1.02458
 O1000 O 0.83886 1.12381 1.02447
 C1001 C 0.84776 1.10253 1.03318
 C1002 C 0.83366 1.08857 1.05399
 C1003 C 0.80893 1.09684 1.06212
 H1004 H 0.79952 1.11306 1.05255
 Cu1005 Cu 0.99826 0.89291 1.10769
 Cu1006 Cu 0.99819 0.85646 1.14396
 Cu1007 Cu 0.99977 1.10542 1.10984
 Cu1008 Cu 0.99978 1.14125 1.14671
 Cu1009 Cu 0.89029 0.89204 0.99796
 Cu1010 Cu 0.85401 0.85558 0.99770
 Cu1011 Cu 1.10724 0.89045 0.99850
 Cu1012 Cu 1.14326 0.85372 0.99859
 Cu1013 Cu 0.89074 1.10806 0.99983
 Cu1014 Cu 0.85477 1.14479 0.99999
 Cu1015 Cu 1.10916 1.10784 1.00104
 Cu1016 Cu 1.14515 1.14462 1.00169
 Cu1017 Cu 0.88872 0.99976 1.10751
 Cu1018 Cu 0.85206 0.99968 1.14362
 Cu1019 Cu 1.10973 0.99844 1.10792
 Cu1020 Cu 1.14611 0.99760 1.14431
 C1021 C 1.06720 0.93217 1.15122
 H1022 H 1.06105 0.93899 1.13228
 C1023 C 1.08425 0.91237 1.19935
 C1024 C 0.93042 1.06595 1.15234
 H1025 H 0.93629 1.06027 1.13294
 C1026 C 0.91490 1.08108 1.20227
 C1027 C 0.84545 1.06752 1.06671
 H1028 H 0.86464 1.06124 1.06074
 C1029 C 0.79616 1.08429 1.08266
 C1030 C 1.15269 0.93146 1.06536
 H1031 H 1.13383 0.93829 1.05895
 C1032 C 1.20094 0.91304 1.08267
 C1033 C 1.06694 0.84901 1.06784
 H1034 H 1.06077 0.86805 1.06137
 C1035 C 1.08309 0.79977 1.08481
 C1036 C 0.93218 1.14994 1.06872
 H1037 H 0.93966 1.13192 1.06086
 C1038 C 0.91161 1.19556 1.09030
 C1039 C 0.92914 0.93211 1.15116
 H1040 H 0.93687 0.93997 1.13324
 C1041 C 0.90803 0.91062 1.19658
 C1042 C 1.06774 1.06408 1.15318
 H1043 H 1.06170 1.05818 1.13390
 C1044 C 1.08383 1.07997 1.20283
 C1045 C 0.93192 0.84839 1.06518
 H1046 H 0.93908 0.86680 1.05798
 C1047 C 0.91231 0.80173 1.08497
 C1048 C 1.06797 1.14972 1.07001
 H1049 H 1.06005 1.13202 1.06183
 C1050 C 1.08927 1.19480 1.09178
 C1051 C 0.84554 0.93232 1.06571
 H1052 H 0.86376 0.93994 1.05843
 C1053 C 0.79930 0.91163 1.08545
 C1054 C 1.15344 1.06667 1.06833
 H1055 H 1.13543 1.05897 1.06060
 C1056 C 1.19900 1.08794 1.08950
 O1057 O 0.97440 0.40809 0.36760
 O1058 O 0.97482 0.37820 0.33690
 C1059 C 0.96560 0.39900 0.34637
 C1060 C 0.94437 0.41280 0.33276
 C1061 C 0.93611 0.40497 0.30795
 H1062 H 0.94495 0.38821 0.29881
 O1063 O 1.02785 0.59262 0.37083
 O1064 O 1.02830 0.62305 0.34071
 C1065 C 1.03700 0.60184 0.34987
 C1066 C 1.05889 0.58853 0.33672
 C1067 C 1.06914 0.59860 0.31357
 H1068 H 1.05961 0.61478 0.30405
 O1069 O 0.87137 0.47586 0.40411
 O1070 O 0.84086 0.47657 0.37399
 C1071 C 0.85001 0.46745 0.39505
 C1072 C 0.83602 0.44661 0.40907
 C1073 C 0.81070 0.43939 0.40182
 H1074 H 0.80098 0.44928 0.38597
 O1075 O 1.13385 0.52423 0.40727
 O1076 O 1.16473 0.52403 0.37757
 C1077 C 1.15544 0.53264 0.39876
 C1078 C 1.16941 0.55296 0.41360
 C1079 C 1.19497 0.56020 0.40724
 H1080 H 1.20492 0.55075 0.39127
 O1081 O 0.90671 0.37170 0.47210
 O1082 O 0.87667 0.34118 0.47131
 C1083 C 0.89783 0.35064 0.46280
 C1084 C 0.91190 0.33747 0.44142
 C1085 C 0.90305 0.31357 0.43167
 H1086 H 0.88630 0.30418 0.44029
 O1087 O 1.09675 0.62678 0.47505
 O1088 O 1.12717 0.65693 0.47588
 C1089 C 1.10631 0.64777 0.46633
 C1090 C 1.09353 0.66114 0.44427
 C1091 C 1.10449 0.68374 0.43364
 H1092 H 1.12162 0.69233 0.44239
 O1093 O 0.90756 0.52645 0.36943
 O1094 O 0.87744 0.52720 0.33890
 C1095 C 0.89871 0.53560 0.34831
 C1096 C 0.91310 0.55652 0.33489
 C1097 C 0.90536 0.56501 0.31016
 H1098 H 0.88916 0.55575 0.30039
 O1099 O 1.09767 0.47477 0.37089
 O1100 O 1.12806 0.47451 0.34070
 C1101 C 1.10688 0.46572 0.34986
 C1102 C 1.09270 0.44471 0.33618
 C1103 C 1.10286 0.43319 0.31353
 H1104 H 1.12196 0.43894 0.30692
 O1105 O 1.02627 0.37360 0.40270
 O1106 O 1.02664 0.34364 0.37209
 C1107 C 1.03542 0.35267 0.39333
 C1108 C 1.05663 0.33887 0.40711
 C1109 C 1.06572 0.31482 0.39796
 H1110 H 1.05704 0.30602 0.38090
 O1111 O 0.97761 0.62888 0.40654
 O1112 O 0.97801 0.65936 0.37649
 C1113 C 0.96895 0.65013 0.39752
 C1114 C 0.94753 0.66375 0.41117
 C1115 C 0.93784 0.68744 0.40168
 H1116 H 0.94659 0.69645 0.38479
 O1117 O 0.87225 0.59427 0.47405
 O1118 O 0.84223 0.62485 0.47387
 C1119 C 0.85131 0.60371 0.46498
 C1120 C 0.83781 0.59040 0.44335
 C1121 C 0.81434 0.60032 0.43354
 H1122 H 0.80548 0.61727 0.44233
 O1123 O 1.13011 0.40535 0.47519
 O1124 O 1.15978 0.37444 0.47532
 C1125 C 1.15121 0.39585 0.46658
 C1126 C 1.16517 0.40919 0.44528
 C1127 C 1.18817 0.39864 0.43500
 H1128 H 1.19706 0.38186 0.44409
 O1129 O 0.97711 0.59383 0.37035
 O1130 O 0.97760 0.62419 0.34016
 C1131 C 0.96844 0.60316 0.34920
 C1132 C 0.94717 0.58962 0.33532
 C1133 C 0.93900 0.59799 0.31065
 H1134 H 0.94853 0.61428 0.30134
 O1135 O 1.02502 0.41054 0.36825
 O1136 O 1.02534 0.38071 0.33750
 C1137 C 1.03379 0.40196 0.34686
 C1138 C 1.05530 0.41576 0.33363
 C1139 C 1.06373 0.40758 0.30910
 H1140 H 1.05113 0.39504 0.29790
 O1141 O 1.13205 0.47379 0.40715
 O1142 O 1.16262 0.47337 0.37712
 C1143 C 1.15292 0.46438 0.39797
 C1144 C 1.16554 0.44224 0.41122
 C1145 C 1.18788 0.43077 0.40064
 H1146 H 1.19628 0.43852 0.38297
 O1147 O 0.87172 0.52646 0.40456
 O1148 O 0.84140 0.52730 0.37425
 C1149 C 0.85073 0.53578 0.39548
 C1150 C 0.83752 0.55720 0.40936
 C1151 C 0.81406 0.56742 0.39986
 H1152 H 0.80492 0.55904 0.38283
 O1153 O 0.90853 0.62913 0.47476
 O1154 O 0.87859 0.65979 0.47457
 C1155 C 0.89972 0.65039 0.46588
 C1156 C 0.91374 0.66384 0.44466
 C1157 C 0.90449 0.68757 0.43496
 H1158 H 0.88770 0.69679 0.44372
 O1159 O 1.09341 0.37109 0.47335
 O1160 O 1.12300 0.34010 0.47347
 C1161 C 1.10240 0.35005 0.46412
 C1162 C 1.08915 0.33745 0.44185
 C1163 C 1.09787 0.31338 0.43240
 H1164 H 1.11385 0.30345 0.44187
 O1165 O 1.09789 0.52554 0.37192
 O1166 O 1.12849 0.52562 0.34195
 C1167 C 1.10739 0.53469 0.35109
 C1168 C 1.09397 0.55644 0.33777
 C1169 C 1.10455 0.56759 0.31521
 H1170 H 1.12253 0.56010 0.30722
 O1171 O 0.90654 0.47608 0.36803
 O1172 O 0.87632 0.47671 0.33761
 C1173 C 0.89748 0.46775 0.34662
 C1174 C 0.91152 0.44699 0.33254
 C1175 C 0.90426 0.43968 0.30725
 H1176 H 0.88890 0.45015 0.29735
 O1177 O 1.02854 0.62821 0.40620
 O1178 O 1.02902 0.65869 0.37614
 C1179 C 1.03798 0.64907 0.39703
 C1180 C 1.06021 0.66172 0.41031
 C1181 C 1.07167 0.68414 0.39981
 H1182 H 1.06370 0.69289 0.38240
 O1183 O 0.97552 0.37321 0.40372
 O1184 O 0.97583 0.34321 0.37313
 C1185 C 0.96693 0.35205 0.39442
 C1186 C 0.94579 0.33808 0.40807
 C1187 C 0.93676 0.31409 0.39875
 H1188 H 0.94601 0.30501 0.38216
 O1189 O 1.13263 0.59140 0.47597
 O1190 O 1.16317 0.62145 0.47704
 C1191 C 1.15425 0.60030 0.46799
 C1192 C 1.16880 0.58603 0.44768
 C1193 C 1.19446 0.59283 0.44129
 H1194 H 1.20414 0.60831 0.45178
 O1195 O 0.87093 0.40716 0.47208
 O1196 O 0.84063 0.37687 0.47143
 C1197 C 0.84976 0.39821 0.46304
 C1198 C 0.83591 0.41270 0.44234
 C1199 C 0.81057 0.40578 0.43486
 H1200 H 0.80067 0.38996 0.44458
 Cu1201 Cu 1.00027 0.39435 0.38862
 Cu1202 Cu 1.00079 0.35841 0.35186
 Cu1203 Cu 1.00266 0.60787 0.39152
 Cu1204 Cu 1.00322 0.64441 0.35539
 Cu1205 Cu 0.89230 0.50107 0.38959
 Cu1206 Cu 0.85590 0.50199 0.35316
 Cu1207 Cu 1.11228 0.49971 0.39225
 Cu1208 Cu 1.14902 0.49946 0.35626
 C1209 C 0.93195 0.43380 0.34485
 H1210 H 0.93779 0.43949 0.36426
 C1211 C 0.91666 0.41883 0.29464
 C1212 C 1.07118 0.56715 0.34843
 H1213 H 1.06341 0.55932 0.36634
 C1214 C 1.09244 0.58892 0.30322
 C1215 C 0.84833 0.43332 0.42951
 H1216 H 0.86796 0.43861 0.43502
 C1217 C 0.79777 0.41928 0.41489
 C1218 C 1.15665 0.56585 0.43398
 H1219 H 1.13680 0.56065 0.43872
 C1220 C 1.20779 0.57980 0.42133
 C1221 C 0.93341 0.34946 0.42960
 H1222 H 0.94002 0.36814 0.43667
 C1223 C 0.91523 0.30197 0.41025
 C1224 C 1.07125 0.65042 0.43261
 H1225 H 1.06288 0.63282 0.44050
 C1226 C 1.09394 0.69502 0.41119
 C1227 C 0.93422 0.56873 0.34717
 H1228 H 0.94016 0.56242 0.36635
 C1229 C 0.91839 0.58550 0.29786
 C1230 C 1.06935 0.43512 0.34657
 H1231 H 1.06245 0.44223 0.36514
 C1232 C 1.08862 0.41419 0.29975
 C1233 C 1.06836 0.34994 0.42920
 H1234 H 1.06167 0.36860 0.43621
 C1235 C 1.08607 0.30190 0.41069
 C1236 C 0.93545 0.65221 0.43280
 H1237 H 0.94244 0.63369 0.43991
 C1238 C 0.91620 0.69922 0.41332
 C1239 C 0.84913 0.56868 0.43129
 H1240 H 0.86746 0.56120 0.43847
 C1241 C 0.80262 0.58907 0.41173
 C1242 C 1.15429 0.43128 0.43353
 H1243 H 1.13650 0.43947 0.44126
 C1244 C 1.19914 0.40882 0.41221
 O1245 O 1.02498 0.40574 0.62997
 O1246 O 1.02442 0.37522 0.66002
 C1247 C 1.03356 0.39632 0.65112
 C1248 C 1.05456 0.41001 0.66520
 C1249 C 1.06246 0.40196 0.69006
 H1250 H 1.05327 0.38535 0.69913
 O1251 O 0.97408 0.59109 0.62917
 O1252 O 0.97407 0.62099 0.65986
 C1253 C 0.96513 0.60000 0.65037
 C1254 C 0.94385 0.58598 0.66380
 C1255 C 0.93539 0.59389 0.68851
 H1256 H 0.94463 0.61020 0.69810
 O1257 O 0.86972 0.52433 0.59228
 O1258 O 0.83891 0.52460 0.62205
 C1259 C 0.84858 0.53347 0.60115
 C1260 C 0.83544 0.55492 0.58721
 C1261 C 0.81070 0.56342 0.59493
 H1262 H 0.80072 0.55384 0.61078
 O1263 O 1.12885 0.47251 0.59514
 O1264 O 1.15901 0.47195 0.62562
 C1265 C 1.14971 0.46317 0.60447
 C1266 C 1.16280 0.44144 0.59088
 C1267 C 1.18630 0.43128 0.60037
 H1268 H 1.19546 0.43979 0.61732
 O1269 O 1.09238 0.36963 0.52422
 O1270 O 1.12195 0.33862 0.52429
 C1271 C 1.10087 0.34815 0.53291
 C1272 C 1.08660 0.33463 0.55391
 C1273 C 1.09437 0.30985 0.56222
 H1274 H 1.11001 0.29987 0.55226
 O1275 O 0.90746 0.62922 0.52547
 O1276 O 0.87744 0.65979 0.52532
 C1277 C 0.89834 0.65033 0.53442
 C1278 C 0.91175 0.66350 0.55618
 C1279 C 0.90225 0.68706 0.56608
 H1280 H 0.88566 0.69642 0.55707
 O1281 O 0.90324 0.47223 0.62756
 O1282 O 0.87249 0.47207 0.65739
 C1283 C 0.89347 0.46286 0.64820
 C1284 C 0.90686 0.44111 0.66145
 C1285 C 0.89650 0.42974 0.68406
 H1286 H 0.87770 0.43613 0.69095
 O1287 O 1.09388 0.52364 0.63035
 O1288 O 1.12394 0.52347 0.66095
 C1289 C 1.10286 0.53237 0.65161
 C1290 C 1.08876 0.55333 0.66529
 C1291 C 1.09677 0.56166 0.69001
 H1292 H 1.11323 0.55252 0.69946
 O1293 O 0.97396 0.37169 0.59332
 O1294 O 0.97334 0.34103 0.62320
 C1295 C 0.96479 0.35053 0.60206
 C1296 C 0.94365 0.33710 0.58776
 C1297 C 0.93429 0.31301 0.59645
 H1298 H 0.94289 0.30379 0.61331
 O1299 O 1.02548 0.62625 0.59417
 O1300 O 1.02565 0.65631 0.62468
 C1301 C 1.03464 0.64712 0.60357
 C1302 C 1.05645 0.66040 0.59023
 C1303 C 1.06652 0.68371 0.60021
 H1304 H 1.05785 0.69256 0.61723
 O1305 O 0.86996 0.40632 0.52259
 O1306 O 0.83981 0.37588 0.52195
 C1307 C 0.84868 0.39704 0.53101
 C1308 C 0.83448 0.41084 0.55186
 C1309 C 0.80965 0.40267 0.55973
 H1310 H 0.80028 0.38648 0.55005
 O1311 O 1.13104 0.59081 0.52636
 O1312 O 1.16146 0.62099 0.52728
 C1313 C 1.15215 0.59971 0.53557
 C1314 C 1.16574 0.58548 0.55650
 C1315 C 1.19083 0.59284 0.56420
 H1316 H 1.20079 0.60827 0.55392
 O1317 O 1.02484 0.59148 0.63044
 O1318 O 1.02478 0.62142 0.66109
 C1319 C 1.03359 0.60037 0.65177
 C1320 C 1.05469 0.58641 0.66547
 C1321 C 1.06291 0.59441 0.69024
 H1322 H 1.05323 0.61039 0.69994
 O1323 O 0.97435 0.40699 0.62936
 O1324 O 0.97381 0.37649 0.65942
 C1325 C 0.96530 0.39783 0.65040
 C1326 C 0.94355 0.41125 0.66362
 C1327 C 0.93481 0.40277 0.68795
 H1328 H 0.94707 0.38970 0.69891
 O1329 O 1.13010 0.52319 0.59559
 O1330 O 1.16043 0.52285 0.62590
 C1331 C 1.15134 0.53181 0.60477
 C1332 C 1.16525 0.55271 0.59078
 C1333 C 1.18999 0.56106 0.59889
 H1334 H 1.19908 0.55230 0.61575
 O1335 O 0.86876 0.47385 0.59130
 O1336 O 0.83781 0.47396 0.62094
 C1337 C 0.84729 0.46524 0.59987
 C1338 C 0.83374 0.44437 0.58550
 C1339 C 0.80898 0.43590 0.59315
 H1340 H 0.79919 0.44512 0.60935
 O1341 O 1.09534 0.62634 0.52597
 O1342 O 1.12560 0.65664 0.52691
 C1343 C 1.10433 0.64732 0.53533
 C1344 C 1.09038 0.66055 0.55681
 C1345 C 1.09997 0.68394 0.56706
 H1346 H 1.11693 0.69307 0.55854
 O1347 O 0.90636 0.37159 0.52294
 O1348 O 0.87640 0.34099 0.52229
 C1349 C 0.89729 0.35037 0.53162
 C1350 C 0.91078 0.33692 0.55327
 C1351 C 0.90177 0.31282 0.56231
 H1352 H 0.88543 0.30341 0.55292
 O1353 O 1.09358 0.47329 0.63093
 O1354 O 1.12352 0.47301 0.66165
 C1355 C 1.10227 0.46455 0.65231
 C1356 C 1.08778 0.44387 0.66599
 C1357 C 1.09487 0.43614 0.69116
 H1358 H 1.11041 0.44618 0.70123
 O1359 O 0.90502 0.52295 0.62818
 O1360 O 0.87452 0.52304 0.65826
 C1361 C 0.89594 0.53163 0.64941
 C1362 C 0.91016 0.55238 0.66346
 C1363 C 0.90217 0.56045 0.68828
 H1364 H 0.88601 0.55087 0.69777
 O1365 O 0.97472 0.62786 0.59478
 O1366 O 0.97478 0.65790 0.62531
 C1367 C 0.96596 0.64899 0.60406
 C1368 C 0.94478 0.66284 0.59035
 C1369 C 0.93494 0.68639 0.60004
 H1370 H 0.94341 0.69514 0.61723
 O1371 O 1.02467 0.37095 0.59370
 O1372 O 1.02412 0.34027 0.62357
 C1373 C 1.03318 0.34957 0.60258
 C1374 C 1.05403 0.33562 0.58848
 C1375 C 1.06262 0.31117 0.59697
 H1376 H 1.05402 0.30235 0.61403
 O1377 O 1.12839 0.40477 0.52582
 O1378 O 1.15811 0.37390 0.52601
 C1379 C 1.14913 0.39505 0.53504
 C1380 C 1.16251 0.40815 0.55692
 C1381 C 1.18606 0.39838 0.56664
 H1382 H 1.19516 0.38171 0.55756
 O1383 O 0.87178 0.59376 0.52472
 O1384 O 0.84163 0.62421 0.52450
 C1385 C 0.85054 0.60294 0.53331
 C1386 C 0.83639 0.58894 0.55407
 C1387 C 0.81169 0.59726 0.56220
 H1388 H 0.80256 0.61386 0.55302
 Cu1389 Cu 0.99957 0.39192 0.60861
 Cu1390 Cu 0.99882 0.35516 0.64454
 Cu1391 Cu 0.99974 0.60618 0.60909
 Cu1392 Cu 0.99981 0.64219 0.64576
 Cu1393 Cu 0.89152 0.39220 0.49748
 Cu1394 Cu 0.85544 0.35558 0.49664
 Cu1395 Cu 1.10809 0.39078 0.49965
 Cu1396 Cu 1.14366 0.35364 0.49983
 Cu1397 Cu 0.89303 0.60854 0.49979
 Cu1398 Cu 0.85698 0.64526 0.49954
 Cu1399 Cu 1.11084 0.60588 0.50070
 Cu1400 Cu 1.14727 0.64218 0.50191
 Cu1401 Cu 0.88979 0.49836 0.60690
 Cu1402 Cu 0.85286 0.49853 0.64271
 Cu1403 Cu 1.10864 0.49820 0.60990
 Cu1404 Cu 1.14483 0.49779 0.64655
 C1405 C 1.06729 0.43102 0.65340
 H1406 H 1.06171 0.43693 0.63399
 C1407 C 1.08214 0.41537 0.70344
 C1408 C 0.93125 0.56506 0.65155
 H1409 H 0.93739 0.55911 0.63233
 C1410 C 0.91490 0.58094 0.70101
 C1411 C 0.84800 0.56761 0.56656
 H1412 H 0.86719 0.56129 0.56064
 C1413 C 0.79865 0.58435 0.58234
 C1414 C 1.15114 0.42983 0.56904
 H1415 H 1.13281 0.43728 0.56185
 C1416 C 1.19783 0.40967 0.58848
 C1417 C 1.06607 0.34714 0.56686
 H1418 H 1.06001 0.36627 0.56059
 C1419 C 1.08235 0.29789 0.58359
 C1420 C 0.93318 0.65169 0.56829
 H1421 H 0.94035 0.63331 0.56099
 C1422 C 0.91355 0.69839 0.58814
 C1423 C 0.92994 0.43108 0.65095
 H1424 H 0.93710 0.43838 0.63256
 C1425 C 0.91029 0.41029 0.69767
 C1426 C 1.06755 0.56567 0.65330
 H1427 H 1.06148 0.55957 0.63408
 C1428 C 1.08371 0.58193 0.70267
 C1429 C 0.93190 0.34881 0.56601
 H1430 H 0.93874 0.36757 0.55942
 C1431 C 0.91330 0.30097 0.58396
 C1432 C 1.06843 0.64904 0.56840
 H1433 H 1.06114 0.63078 0.56089
 C1434 C 1.08838 0.69533 0.58891
 C1435 C 0.84620 0.43189 0.56467
 H1436 H 0.86547 0.43809 0.55890
 C1437 C 0.79671 0.41533 0.58010
 C1438 C 1.15333 0.56504 0.56953
 H1439 H 1.13398 0.55923 0.56358
 C1440 C 1.20318 0.58068 0.58525
 O1441 O 0.59309 1.02502 0.63162
 O1442 O 0.62274 1.02420 0.66258
 C1443 C 0.60180 1.03334 0.65319
 C1444 C 0.58735 1.05395 0.66720
 C1445 C 0.59399 1.06108 0.69273
 H1446 H 0.61046 1.05195 0.70214
 O1447 O 0.40456 0.97489 0.62810
 O1448 O 0.37422 0.97464 0.65836
 C1449 C 0.39517 0.96557 0.64892
 C1450 C 0.40842 0.94348 0.66174
 C1451 C 0.39866 0.93290 0.68493
 H1452 H 0.38169 0.94132 0.69412
 O1453 O 0.52551 1.12836 0.59578
 O1454 O 0.52548 1.15867 0.62607
 C1455 C 0.53434 1.14951 0.60493
 C1456 C 0.55521 1.16340 0.59085
 C1457 C 0.56276 1.18851 0.59838
 H1458 H 0.55320 1.19802 0.61455
 O1459 O 0.47266 0.87168 0.58980
 O1460 O 0.47204 0.84084 0.61948
 C1461 C 0.46331 0.85060 0.59853
 C1462 C 0.44148 0.83778 0.58475
 C1463 C 0.43092 0.81458 0.59442
 H1464 H 0.43934 0.80544 0.61142
 O1465 O 0.62936 1.09352 0.52728
 O1466 O 0.65957 1.12390 0.52784
 C1467 C 0.65030 1.10276 0.53655
 C1468 C 0.66348 1.08927 0.55826
 C1469 C 0.68700 1.09879 0.56826
 H1470 H 0.69633 1.11540 0.55932
 O1471 O 0.36790 0.90946 0.52272
 O1472 O 0.33739 0.87937 0.52243
 C1473 C 0.34688 0.90018 0.53170
 C1474 C 0.33382 0.91324 0.55368
 C1475 C 0.31082 0.90295 0.56410
 H1476 H 0.30197 0.88589 0.55551
 O1477 O 0.47398 1.09334 0.63046
 O1478 O 0.47367 1.12363 0.66077
 C1479 C 0.46486 1.10255 0.65145
 C1480 C 0.44343 1.08886 0.66480
 C1481 C 0.43398 1.09792 0.68871
 H1482 H 0.44282 1.11464 0.69796
 O1483 O 0.52348 0.90592 0.62682
 O1484 O 0.52291 0.87509 0.65653
 C1485 C 0.53212 0.89627 0.64784
 C1486 C 0.55363 0.90939 0.66185
 C1487 C 0.56332 0.89910 0.68522
 H1488 H 0.55454 0.88194 0.69366
 O1489 O 0.62881 0.97506 0.59523
 O1490 O 0.65905 0.97454 0.62563
 C1491 C 0.64999 0.96609 0.60426
 C1492 C 0.66381 0.94528 0.58995
 C1493 C 0.68863 0.93701 0.59781
 H1494 H 0.69818 0.94619 0.61420
 O1495 O 0.37020 1.02690 0.59340
 O1496 O 0.33975 1.02693 0.62354
 C1497 C 0.34925 1.03607 0.60266
 C1498 C 0.33629 1.05809 0.58941
 C1499 C 0.31316 1.06854 0.59938
 H1500 H 0.30414 1.05999 0.61637
 O1501 O 0.40757 1.13008 0.52466
 O1502 O 0.37809 1.16118 0.52445
 C1503 C 0.39908 1.15157 0.53330
 C1504 C 0.41338 1.16511 0.55431
 C1505 C 0.40647 1.19043 0.56168
 H1506 H 0.39131 1.20062 0.55119
 O1507 O 0.59387 0.87179 0.52459
 O1508 O 0.62413 0.84145 0.52481
 C1509 C 0.60287 0.85058 0.53340
 C1510 C 0.58882 0.83684 0.55433
 C1511 C 0.59856 0.81348 0.56449
 H1512 H 0.61601 0.80486 0.55644
 O1513 O 0.40515 1.02554 0.62953
 O1514 O 0.37483 1.02541 0.65981
 C1515 C 0.39606 1.03417 0.65080
 C1516 C 0.40990 1.05523 0.66462
 C1517 C 0.40075 1.06453 0.68859
 H1518 H 0.38407 1.05556 0.69779
 O1519 O 0.59227 0.97436 0.62971
 O1520 O 0.62226 0.97336 0.66033
 C1521 C 0.60121 0.96477 0.65059
 C1522 C 0.58740 0.94290 0.66319
 C1523 C 0.59672 0.93230 0.68652
 H1524 H 0.61351 0.94074 0.69606
 O1525 O 0.52357 0.87061 0.59097
 O1526 O 0.52289 0.83976 0.62065
 C1527 C 0.53225 0.84932 0.59994
 C1528 C 0.55413 0.83612 0.58677
 C1529 C 0.56417 0.81275 0.59664
 H1530 H 0.55516 0.80352 0.61326
 O1531 O 0.47487 1.12881 0.59494
 O1532 O 0.47478 1.15929 0.62506
 C1533 C 0.46618 1.15014 0.60377
 C1534 C 0.44573 1.16423 0.58918
 C1535 C 0.43799 1.18928 0.59672
 H1536 H 0.44690 1.19846 0.61345
 O1537 O 0.37105 1.09547 0.52510
 O1538 O 0.34140 1.12639 0.52532
 C1539 C 0.35025 1.10515 0.53425
 C1540 C 0.33674 1.09191 0.55599
 C1541 C 0.31354 1.10204 0.56627
 H1542 H 0.30472 1.11913 0.55772
 O1543 O 0.62930 0.90749 0.52552
 O1544 O 0.65972 0.87730 0.52558
 C1545 C 0.65041 0.89836 0.53450
 C1546 C 0.66396 0.91216 0.55583
 C1547 C 0.68879 0.90423 0.56395
 H1548 H 0.69852 0.88833 0.55417
 O1549 O 0.47267 0.90605 0.62650
 O1550 O 0.47218 0.87521 0.65621
 C1551 C 0.46349 0.89649 0.64731
 C1552 C 0.44193 0.90980 0.66089
 C1553 C 0.43196 0.89960 0.68410
 H1554 H 0.44069 0.88252 0.69277
 O1555 O 0.52445 1.09268 0.63146
 O1556 O 0.52420 1.12268 0.66205
 C1557 C 0.53276 1.10136 0.65303
 C1558 C 0.55295 1.08666 0.66735
 C1559 C 0.55889 1.09255 0.69333
 H1560 H 0.54765 1.10719 0.70343
 O1561 O 0.36894 0.97627 0.59271
 O1562 O 0.33849 0.97616 0.62285
 C1563 C 0.34769 0.96748 0.60166
 C1564 C 0.33411 0.94626 0.58783
 C1565 C 0.31106 0.93571 0.59790
 H1566 H 0.30233 0.94387 0.61524
 O1567 O 0.62845 1.02562 0.59591
 O1568 O 0.65837 1.02529 0.62662
 C1569 C 0.64941 1.03445 0.60549
 C1570 C 0.66300 1.05602 0.59219
 C1571 C 0.68646 1.06598 0.60204
 H1572 H 0.69526 1.05745 0.61916
 O1573 O 0.40325 0.87372 0.52137
 O1574 O 0.37285 0.84355 0.52088
 C1575 C 0.39408 0.85247 0.52988
 C1576 C 0.40771 0.83858 0.55116
 C1577 C 0.39762 0.81524 0.56107
 H1578 H 0.38055 0.80651 0.55233
 O1579 O 0.59382 1.12915 0.52691
 O1580 O 0.62388 1.15968 0.52732
 C1581 C 0.60268 1.15036 0.53588
 C1582 C 0.58844 1.16395 0.55689
 C1583 C 0.59565 1.18909 0.56464
 H1584 H 0.61132 1.19909 0.55476
 Cu1585 Cu 0.60766 1.00012 0.61008
 Cu1586 Cu 0.64361 0.99927 0.64689
 Cu1587 Cu 0.39027 1.00092 0.60793
 Cu1588 Cu 0.35375 1.00080 0.64417
 Cu1589 Cu 0.49978 1.10779 0.61012
 Cu1590 Cu 0.49959 1.14413 0.64653
 Cu1591 Cu 0.49818 0.89164 0.60552
 Cu1592 Cu 0.49744 0.85461 0.64116
 C1593 C 0.56684 1.06691 0.65473
 H1594 H 0.56210 1.06207 0.63479
 C1595 C 0.57924 1.07969 0.70637
 C1596 C 0.43022 0.93190 0.65000
 H1597 H 0.43763 0.93965 0.63190
 C1598 C 0.41051 0.91112 0.69624
 C1599 C 0.56801 1.15140 0.56993
 H1600 H 0.56248 1.13192 0.56420
 C1601 C 0.58265 1.20156 0.58511
 C1602 C 0.42982 0.84956 0.56299
 H1603 H 0.43748 0.86777 0.55578
 C1604 C 0.40890 0.80344 0.58290
 C1605 C 0.65177 1.06772 0.57019
 H1606 H 0.63344 1.06048 0.56276
 C1607 C 0.69833 1.08749 0.59030
 C1608 C 0.34521 0.93504 0.56554
 H1609 H 0.36324 0.94277 0.55790
 C1610 C 0.29962 0.91391 0.58631
 C1611 C 0.43142 1.06737 0.65303
 H1612 H 0.43835 1.06057 0.63435
 C1613 C 0.41258 1.08598 0.70052
 C1614 C 0.56569 0.93143 0.65111
 H1615 H 0.55863 0.93922 0.63288
 C1616 C 0.58496 0.91031 0.69741
 C1617 C 0.65176 0.93288 0.56877
 H1618 H 0.63249 0.93892 0.56278
 C1619 C 0.70130 0.91675 0.58468
 C1620 C 0.34783 1.06980 0.56760
 H1621 H 0.36591 1.06209 0.56006
 C1622 C 0.30187 1.09058 0.58809
 C1623 C 0.43337 1.15236 0.56788
 H1624 H 0.43881 1.13282 0.56230
 C1625 C 0.41884 1.20275 0.58268
 C1626 C 0.56644 0.84788 0.56545
 H1627 H 0.55910 0.86614 0.55803
 C1628 C 0.58649 0.80159 0.58574
 O1629 O 0.59504 0.97537 0.37164
 O1630 O 0.62568 0.97491 0.34170
 C1631 C 0.60452 0.96603 0.35088
 C1632 C 0.59114 0.94417 0.33771
 C1633 C 0.60224 0.93246 0.31570
 H1634 H 0.62045 0.93969 0.30801
 O1635 O 0.40650 1.02776 0.36851
 O1636 O 0.37665 1.02833 0.33773
 C1637 C 0.39782 1.03676 0.34723
 C1638 C 0.41218 1.05774 0.33388
 C1639 C 0.40371 1.06716 0.30971
 H1640 H 0.38700 1.05853 0.30021
 O1641 O 0.47653 1.12945 0.40586
 O1642 O 0.47714 1.16015 0.37602
 C1643 C 0.46799 1.15079 0.39695
 C1644 C 0.44680 1.16452 0.41075
 C1645 C 0.43845 1.18905 0.40231
 H1646 H 0.44794 1.19844 0.38604
 O1647 O 0.52522 0.87254 0.40597
 O1648 O 0.52522 0.84219 0.37573
 C1649 C 0.53420 0.85147 0.39678
 C1650 C 0.55571 0.83799 0.41034
 C1651 C 0.56477 0.81388 0.40139
 H1652 H 0.55571 0.80471 0.38472
 O1653 O 0.63030 0.90764 0.47488
 O1654 O 0.66058 0.87731 0.47494
 C1655 C 0.65156 0.89855 0.46624
 C1656 C 0.66557 0.91257 0.44546
 C1657 C 0.69016 0.90419 0.43714
 H1658 H 0.69941 0.88767 0.44635
 O1659 O 0.37088 1.09508 0.47428
 O1660 O 0.34088 1.12567 0.47442
 C1661 C 0.34976 1.10442 0.46554
 C1662 C 0.33589 1.09072 0.44432
 C1663 C 0.31070 1.09820 0.43686
 H1664 H 0.30073 1.11341 0.44745
 O1665 O 0.52674 1.09360 0.36998
 O1666 O 0.52715 1.12395 0.33975
 C1667 C 0.53553 1.10256 0.34875
 C1668 C 0.55616 1.08820 0.33480
 C1669 C 0.56322 1.09511 0.30941
 H1670 H 0.55259 1.11029 0.29942
 O1671 O 0.47391 0.90781 0.37070
 O1672 O 0.47393 0.87747 0.34046
 C1673 C 0.46480 0.89845 0.34974
 C1674 C 0.44292 0.91166 0.33640
 C1675 C 0.43182 0.90078 0.31396
 H1676 H 0.43951 0.88281 0.30614
 O1677 O 0.63017 1.02647 0.40701
 O1678 O 0.66064 1.02667 0.37689
 C1679 C 0.65129 1.03547 0.39800
 C1680 C 0.66467 1.05685 0.41187
 C1681 C 0.68824 1.06685 0.40249
 H1682 H 0.69738 1.05830 0.38556
 O1683 O 0.36917 0.97821 0.40364
 O1684 O 0.33911 0.97880 0.37306
 C1685 C 0.34778 0.96996 0.39440
 C1686 C 0.33328 0.94949 0.40841
 C1687 C 0.30873 0.94124 0.39973
 H1688 H 0.29972 0.95041 0.38305
 O1689 O 0.59433 1.12900 0.47616
 O1690 O 0.62454 1.15939 0.47663
 C1691 C 0.60362 1.15008 0.46737
 C1692 C 0.59042 1.16348 0.44563
 C1693 C 0.59969 1.18747 0.43662
 H1694 H 0.61605 1.19677 0.44610
 O1695 O 0.40224 0.87503 0.47056
 O1696 O 0.37159 0.84510 0.46990
 C1697 C 0.39263 0.85443 0.46098
 C1698 C 0.40611 0.84127 0.43927
 C1699 C 0.39511 0.81938 0.42723
 H1700 H 0.37595 0.81304 0.43314
 O1701 O 0.40602 0.97714 0.36927
 O1702 O 0.37612 0.97750 0.33855
 C1703 C 0.39697 0.96824 0.34811
 C1704 C 0.41027 0.94621 0.33517
 C1705 C 0.40026 0.93566 0.31207
 H1706 H 0.38391 0.94487 0.30251
 O1707 O 0.59565 1.02607 0.37036
 O1708 O 0.62588 1.02581 0.34000
 C1709 C 0.60472 1.03470 0.34909
 C1710 C 0.59053 1.05548 0.33514
 C1711 C 0.59807 1.06340 0.31011
 H1712 H 0.61474 1.05447 0.30087
 O1713 O 0.47441 0.87231 0.40629
 O1714 O 0.47451 0.84193 0.37608
 C1715 C 0.46550 0.85120 0.39711
 C1716 C 0.44317 0.83837 0.40994
 C1717 C 0.43347 0.81471 0.40049
 H1718 H 0.44517 0.80375 0.38692
 O1719 O 0.52731 1.12909 0.40575
 O1720 O 0.52799 1.15962 0.37573
 C1721 C 0.53657 1.15014 0.39684
 C1722 C 0.55785 1.16343 0.41097
 C1723 C 0.56748 1.18741 0.40222
 H1724 H 0.55896 1.19674 0.38537
 O1725 O 0.36700 0.91068 0.47216
 O1726 O 0.33623 0.88085 0.47184
 C1727 C 0.34560 0.90203 0.46336
 C1728 C 0.33210 0.91635 0.44239
 C1729 C 0.30756 0.90836 0.43346
 H1730 H 0.29774 0.89215 0.44260
 O1731 O 0.63008 1.09382 0.47651
 O1732 O 0.66038 1.12411 0.47700
 C1733 C 0.65122 1.10312 0.46779
 C1734 C 0.66471 1.08987 0.44609
 C1735 C 0.68822 1.09968 0.43628
 H1736 H 0.69720 1.11651 0.44519
 O1737 O 0.52488 0.90828 0.37063
 O1738 O 0.52493 0.87799 0.34034
 C1739 C 0.53392 0.89904 0.34961
 C1740 C 0.55606 0.91208 0.33660
 C1741 C 0.56692 0.90138 0.31397
 H1742 H 0.55771 0.88488 0.30468
 O1743 O 0.47622 1.09469 0.36955
 O1744 O 0.47667 1.12528 0.33956
 C1745 C 0.46757 1.10415 0.34845
 C1746 C 0.44631 1.09075 0.33450
 C1747 C 0.43763 1.09984 0.31029
 H1748 H 0.44711 1.11624 0.30112
 O1749 O 0.37102 1.02861 0.40409
 O1750 O 0.34089 1.02929 0.37357
 C1751 C 0.35004 1.03782 0.39490
 C1752 C 0.33634 1.05867 0.40924
 C1753 C 0.31146 1.06692 0.40161
 H1754 H 0.30219 1.05824 0.38480
 O1755 O 0.63110 0.97596 0.40667
 O1756 O 0.66188 0.97604 0.37685
 C1757 C 0.65248 0.96726 0.39790
 C1758 C 0.66607 0.94625 0.41203
 C1759 C 0.69069 0.93762 0.40399
 H1760 H 0.70039 0.94692 0.38780
 O1761 O 0.59433 0.87247 0.47402
 O1762 O 0.62443 0.84197 0.47412
 C1763 C 0.60340 0.85133 0.46512
 C1764 C 0.58956 0.83788 0.44375
 C1765 C 0.59819 0.81365 0.43464
 H1766 H 0.61469 0.80422 0.44372
 O1767 O 0.40716 1.13002 0.47399
 O1768 O 0.37739 1.16083 0.47376
 C1769 C 0.39841 1.15127 0.46500
 C1770 C 0.41264 1.16470 0.44385
 C1771 C 0.40456 1.18924 0.43504
 H1772 H 0.38814 1.19885 0.44406
 Cu1773 Cu 0.60992 1.00102 0.39189
 Cu1774 Cu 0.64656 1.00088 0.35580
 Cu1775 Cu 0.39119 1.00286 0.38941
 Cu1776 Cu 0.35524 1.00355 0.35257
 Cu1777 Cu 0.60888 1.10832 0.50171
 Cu1778 Cu 0.64515 1.14480 0.50230
 Cu1779 Cu 0.60893 0.89289 0.49973
 Cu1780 Cu 0.64525 0.85644 0.49988
 Cu1781 Cu 0.39209 1.10955 0.49949
 Cu1782 Cu 0.35644 1.14659 0.49947
 Cu1783 Cu 0.38818 0.89521 0.49673
 Cu1784 Cu 0.35148 0.85914 0.49625
 Cu1785 Cu 0.50168 1.10867 0.39082
 Cu1786 Cu 0.50233 1.14538 0.35480
 Cu1787 Cu 0.49961 0.89328 0.39142
 Cu1788 Cu 0.49967 0.85690 0.35508
 C1789 C 0.56808 0.93377 0.34808
 H1790 H 0.55991 0.94206 0.36561
 C1791 C 0.59047 0.91083 0.30398
 C1792 C 0.43363 1.06952 0.34600
 H1793 H 0.43999 1.06265 0.36485
 C1794 C 0.41622 1.08829 0.29801
 C1795 C 0.43395 1.15262 0.43172
 H1796 H 0.44010 1.13356 0.43814
 C1797 C 0.41757 1.20155 0.41451
 C1798 C 0.56810 0.84973 0.43167
 H1799 H 0.56145 0.86851 0.43842
 C1800 C 0.58571 0.80146 0.41367
 C1801 C 0.65383 0.93379 0.43298
 H1802 H 0.63469 0.94011 0.43907
 C1803 C 0.70289 0.91681 0.41665
 C1804 C 0.34832 1.07063 0.43067
 H1805 H 0.36773 1.06474 0.43634
 C1806 C 0.29820 1.08615 0.41574
 C1807 C 0.56954 1.06800 0.34726
 H1808 H 0.56406 1.06251 0.36681
 C1809 C 0.58400 1.08267 0.29677
 C1810 C 0.43190 0.93432 0.34694
 H1811 H 0.43975 0.94231 0.36477
 C1812 C 0.41030 0.91243 0.30188
 C1813 C 0.65319 1.06833 0.43384
 H1814 H 0.63481 1.06096 0.44098
 C1815 C 0.69985 1.08844 0.41438
 C1816 C 0.34463 0.93712 0.42993
 H1817 H 0.36375 0.94309 0.43644
 C1818 C 0.29592 0.92063 0.41210
 C1819 C 0.56933 1.15173 0.43284
 H1820 H 0.56227 1.13307 0.43950
 C1821 C 0.58818 1.19954 0.41513
 C1822 C 0.42980 0.85104 0.42998
 H1823 H 0.43755 0.86890 0.43795
 C1824 C 0.40860 0.80571 0.40770
 O1825 O 0.59543 0.52266 1.12866
 O1826 O 0.62603 0.52241 1.15869
 C1827 C 0.60491 0.53153 1.14964
 C1828 C 0.59159 0.55321 1.16313
 C1829 C 0.60290 0.56496 1.18504
 H1830 H 0.62123 0.55781 1.19256
 O1831 O 0.40291 0.47515 1.12733
 O1832 O 0.37215 0.47516 1.15715
 C1833 C 0.39373 0.46668 1.14859
 C1834 C 0.40813 0.44637 1.16304
 C1835 C 0.40098 0.43941 1.18845
 H1836 H 0.38534 0.44968 1.19810
 O1837 O 0.52439 0.62515 1.09583
 O1838 O 0.52421 0.65523 1.12634
 C1839 C 0.53307 0.64632 1.10509
 C1840 C 0.55410 0.66037 1.09132
 C1841 C 0.56264 0.68472 1.10022
 H1842 H 0.55334 0.69379 1.11679
 O1843 O 0.47369 0.37251 1.09368
 O1844 O 0.47318 0.34224 1.12398
 C1845 C 0.46483 0.35129 1.10257
 C1846 C 0.44428 0.33736 1.08802
 C1847 C 0.43621 0.31248 1.09569
 H1848 H 0.44533 0.30300 1.11214
 O1849 O 0.62923 0.59284 1.02610
 O1850 O 0.65931 0.62334 1.02668
 C1851 C 0.65031 0.60201 1.03515
 C1852 C 0.66409 0.58810 1.05624
 C1853 C 0.68749 0.59790 1.06635
 H1854 H 0.69609 0.61529 1.05821
 O1855 O 0.37036 0.40649 1.02200
 O1856 O 0.34032 0.37595 1.02124
 C1857 C 0.34892 0.39731 1.03012
 C1858 C 0.33428 0.41134 1.05056
 C1859 C 0.30900 0.40367 1.05748
 H1860 H 0.29960 0.38798 1.04706
 O1861 O 0.47397 0.58891 1.13127
 O1862 O 0.47414 0.61869 1.16207
 C1863 C 0.46501 0.59788 1.15245
 C1864 C 0.44236 0.58520 1.16486
 C1865 C 0.43207 0.59497 1.18812
 H1866 H 0.44359 0.60852 1.19930
 O1867 O 0.52299 0.40886 1.13033
 O1868 O 0.52248 0.37886 1.16089
 C1869 C 0.53138 0.39999 1.15176
 C1870 C 0.55294 0.41340 1.16527
 C1871 C 0.56052 0.40573 1.19025
 H1872 H 0.54748 0.39354 1.20128
 O1873 O 0.63042 0.47235 1.09226
 O1874 O 0.66119 0.47180 1.12213
 C1875 C 0.65163 0.46326 1.10101
 C1876 C 0.66479 0.44205 1.08680
 C1877 C 0.68922 0.43294 1.09485
 H1878 H 0.69907 0.44196 1.11113
 O1879 O 0.36760 0.52465 1.09008
 O1880 O 0.33639 0.52455 1.11945
 C1881 C 0.34622 0.53349 1.09864
 C1882 C 0.33333 0.55519 1.08490
 C1883 C 0.31010 0.56573 1.09454
 H1884 H 0.30069 0.55715 1.11130
 O1885 O 0.40725 0.62841 1.02487
 O1886 O 0.37727 0.65901 1.02512
 C1887 C 0.39802 0.64920 1.03435
 C1888 C 0.41090 0.66143 1.05704
 C1889 C 0.40073 0.68423 1.06801
 H1890 H 0.38455 0.69404 1.05875
 O1891 O 0.59126 0.37004 1.02510
 O1892 O 0.62079 0.33898 1.02497
 C1893 C 0.60004 0.34883 1.03411
 C1894 C 0.58628 0.33588 1.05583
 C1895 C 0.59364 0.31093 1.06399
 H1896 H 0.60874 0.30057 1.05361
 O1897 O 0.40153 0.52565 1.12679
 O1898 O 0.37042 0.52587 1.15626
 C1899 C 0.39160 0.53492 1.14739
 C1900 C 0.40496 0.55641 1.16102
 C1901 C 0.39343 0.56877 1.18249
 H1902 H 0.37400 0.56319 1.18827
 O1903 O 0.59579 0.47200 1.12858
 O1904 O 0.62630 0.47138 1.15869
 C1905 C 0.60505 0.46276 1.14951
 C1906 C 0.59065 0.44193 1.16316
 C1907 C 0.59984 0.43126 1.18662
 H1908 H 0.61857 0.43739 1.19397
 O1909 O 0.52434 0.37262 1.09534
 O1910 O 0.52391 0.34243 1.12569
 C1911 C 0.53311 0.35152 1.10467
 C1912 C 0.55417 0.33751 1.09085
 C1913 C 0.56250 0.31291 1.09929
 H1914 H 0.55388 0.30422 1.11640
 O1915 O 0.47357 0.62470 1.09598
 O1916 O 0.47344 0.65448 1.12677
 C1917 C 0.46446 0.64554 1.10556
 C1918 C 0.44283 0.65920 1.09227
 C1919 C 0.43170 0.68150 1.10340
 H1920 H 0.43915 0.68897 1.12163
 O1921 O 0.37045 0.59422 1.02285
 O1922 O 0.34042 0.62479 1.02277
 C1923 C 0.34915 0.60340 1.03137
 C1924 C 0.33485 0.58952 1.05210
 C1925 C 0.31158 0.59976 1.06206
 H1926 H 0.30334 0.61733 1.05392
 O1927 O 0.62806 0.40422 1.02391
 O1928 O 0.65776 0.37333 1.02365
 C1929 C 0.64921 0.39472 1.03246
 C1930 C 0.66358 0.40840 1.05329
 C1931 C 0.68801 0.39950 1.06166
 H1932 H 0.69701 0.38292 1.05233
 O1933 O 0.47231 0.40784 1.12937
 O1934 O 0.47182 0.37780 1.15989
 C1935 C 0.46303 0.39878 1.15036
 C1936 C 0.44168 0.41277 1.16362
 C1937 C 0.43370 0.40549 1.18865
 H1938 H 0.44298 0.38925 1.19830
 O1939 O 0.52490 0.58895 1.13082
 O1940 O 0.52502 0.61898 1.16136
 C1941 C 0.53409 0.59811 1.15182
 C1942 C 0.55643 0.58517 1.16456
 C1943 C 0.56749 0.59592 1.18706
 H1944 H 0.55833 0.61240 1.19642
 O1945 O 0.36789 0.47410 1.09096
 O1946 O 0.33677 0.47377 1.12040
 C1947 C 0.34658 0.46506 1.09949
 C1948 C 0.33334 0.44409 1.08494
 C1949 C 0.30835 0.43571 1.09203
 H1950 H 0.29860 0.44448 1.10850
 O1951 O 0.63071 0.52290 1.09305
 O1952 O 0.66147 0.52250 1.12294
 C1953 C 0.65192 0.53171 1.10211
 C1954 C 0.66500 0.55355 1.08882
 C1955 C 0.68847 0.56354 1.09851
 H1956 H 0.69789 0.55446 1.11501
 O1957 O 0.40682 0.37164 1.02337
 O1958 O 0.37695 0.34093 1.02295
 C1959 C 0.39780 0.35045 1.03217
 C1960 C 0.41149 0.33700 1.05359
 C1961 C 0.40375 0.31209 1.06149
 H1962 H 0.38804 0.30223 1.05150
 O1963 O 0.59272 0.62742 1.02670
 O1964 O 0.62268 0.65805 1.02740
 C1965 C 0.60162 0.64842 1.03606
 C1966 C 0.58763 0.66140 1.05760
 C1967 C 0.59587 0.68569 1.06683
 H1968 H 0.61222 0.69543 1.05784
 Cu1969 Cu 0.61001 0.49746 1.10766
 Cu1970 Cu 0.64683 0.49694 1.14365
 Cu1971 Cu 0.38809 0.49977 1.10585
 Cu1972 Cu 0.35076 0.49966 1.14127
 Cu1973 Cu 0.49923 0.60389 1.11045
 Cu1974 Cu 0.49924 0.63979 1.14725
 Cu1975 Cu 0.49839 0.39348 1.10915
 Cu1976 Cu 0.49782 0.35732 1.14569
 C1977 C 0.56839 0.56354 1.15298
 H1978 H 0.56003 0.55523 1.13553
 C1979 C 0.59117 0.58658 1.19684
 C1980 C 0.42885 0.43327 1.15104
 H1981 H 0.43455 0.43858 1.13149
 C1982 C 0.41392 0.41920 1.20154
 C1983 C 0.56655 0.64900 1.06982
 H1984 H 0.56030 0.63010 1.06304
 C1985 C 0.58327 0.69753 1.08789
 C1986 C 0.43196 0.34935 1.06679
 H1987 H 0.43786 0.36867 1.06095
 C1988 C 0.41622 0.29966 1.08228
 C1989 C 0.65309 0.56580 1.06749
 H1990 H 0.63477 0.55845 1.06016
 C1991 C 0.69953 0.58588 1.08761
 C1992 C 0.34605 0.43187 1.06410
 H1993 H 0.36555 0.43786 1.05889
 C1994 C 0.29580 0.41591 1.07804
 C1995 C 0.42908 0.56529 1.15193
 H1996 H 0.43726 0.55711 1.13435
 C1997 C 0.40676 0.58832 1.19630
 C1998 C 0.56761 0.43220 1.15227
 H1999 H 0.56135 0.43885 1.13331
 C2000 C 0.58494 0.41287 1.20051
 C2001 C 0.65229 0.42986 1.06580
 H2002 H 0.63328 0.43658 1.05971
 C2003 C 0.70097 0.41188 1.08220
 C2004 C 0.34542 0.56706 1.06347
 H2005 H 0.36365 0.55938 1.05627
 C2006 C 0.29939 0.58811 1.08340
 C2007 C 0.43221 0.64925 1.06912
 H2008 H 0.44013 0.63161 1.06085
 C2009 C 0.41046 0.69390 1.09159
 C2010 C 0.56621 0.34880 1.06910
 H2011 H 0.56031 0.36798 1.06280
 C2012 C 0.58169 0.29918 1.08552
 O2013 O 0.59405 0.47546 0.86909
 O2014 O 0.62485 0.47572 0.83931
 C2015 C 0.60334 0.46710 0.84779
 C2016 C 0.58917 0.44674 0.83320
 C2017 C 0.59622 0.44014 0.80766
 H2018 H 0.61156 0.45081 0.79799
 O2019 O 0.40717 0.52659 0.86866
 O2020 O 0.37672 0.52719 0.83847
 C2021 C 0.39785 0.53595 0.84780
 C2022 C 0.41139 0.55771 0.83473
 C2023 C 0.40206 0.56763 0.81110
 H2024 H 0.38543 0.55875 0.80168
 O2025 O 0.47543 0.63109 0.90558
 O2026 O 0.47593 0.66183 0.87576
 C2027 C 0.46703 0.65259 0.89684
 C2028 C 0.44652 0.66662 0.91132
 C2029 C 0.43886 0.69184 0.90417
 H2030 H 0.44801 0.70135 0.88778
 O2031 O 0.52628 0.37114 0.90184
 O2032 O 0.52652 0.34099 0.87141
 C2033 C 0.53532 0.35013 0.89260
 C2034 C 0.55607 0.33634 0.90700
 C2035 C 0.56630 0.31257 0.89809
 H2036 H 0.56002 0.30516 0.87945
 O2037 O 0.62676 0.40395 0.97323
 O2038 O 0.65658 0.37320 0.97292
 C2039 C 0.64771 0.39454 0.96418
 C2040 C 0.66181 0.40881 0.94343
 C2041 C 0.68704 0.40147 0.93581
 H2042 H 0.69607 0.38455 0.94447
 O2043 O 0.37257 0.59483 0.97225
 O2044 O 0.34241 0.62527 0.97219
 C2045 C 0.35158 0.60415 0.96321
 C2046 C 0.33777 0.59011 0.94219
 C2047 C 0.31275 0.59774 0.93433
 H2048 H 0.30367 0.61455 0.94317
 O2049 O 0.52591 0.59501 0.87039
 O2050 O 0.52655 0.62549 0.84033
 C2051 C 0.53521 0.60428 0.84952
 C2052 C 0.55688 0.59066 0.83634
 C2053 C 0.56718 0.60034 0.81303
 H2054 H 0.55861 0.61724 0.80387
 O2055 O 0.47583 0.40730 0.86693
 O2056 O 0.47558 0.37733 0.83631
 C2057 C 0.46700 0.39852 0.84563
 C2058 C 0.44630 0.41299 0.83188
 C2059 C 0.43855 0.40574 0.80676
 H2060 H 0.44797 0.38962 0.79704
 O2061 O 0.62930 0.52501 0.90664
 O2062 O 0.66037 0.52509 0.87713
 C2063 C 0.65076 0.53378 0.89813
 C2064 C 0.66428 0.55477 0.91244
 C2065 C 0.68903 0.56315 0.90463
 H2066 H 0.69884 0.55358 0.88865
 O2067 O 0.37211 0.47474 0.90299
 O2068 O 0.34183 0.47487 0.87263
 C2069 C 0.35119 0.46563 0.89353
 C2070 C 0.33810 0.44361 0.90661
 C2071 C 0.31487 0.43325 0.89660
 H2072 H 0.30588 0.44182 0.87960
 O2073 O 0.59341 0.62915 0.97599
 O2074 O 0.62342 0.65972 0.97667
 C2075 C 0.60236 0.65057 0.96761
 C2076 C 0.58844 0.66459 0.94669
 C2077 C 0.59617 0.68965 0.93920
 H2078 H 0.61192 0.69932 0.94932
 O2079 O 0.40816 0.37111 0.97264
 O2080 O 0.37851 0.34017 0.97235
 C2081 C 0.39969 0.34965 0.96388
 C2082 C 0.41415 0.33595 0.94310
 C2083 C 0.40739 0.31050 0.93608
 H2084 H 0.39252 0.30030 0.94693
 O2085 O 0.40771 0.47599 0.86753
 O2086 O 0.37760 0.47652 0.83699
 C2087 C 0.39880 0.46763 0.84607
 C2088 C 0.41301 0.44693 0.83199
 C2089 C 0.40555 0.43942 0.80682
 H2090 H 0.38968 0.44929 0.79710
 O2091 O 0.59401 0.52600 0.87084
 O2092 O 0.62496 0.52632 0.84120
 C2093 C 0.60371 0.53523 0.85013
 C2094 C 0.59047 0.55698 0.83671
 C2095 C 0.60050 0.56702 0.81342
 H2096 H 0.61758 0.55838 0.80463
 O2097 O 0.47565 0.37178 0.90252
 O2098 O 0.47555 0.34142 0.87230
 C2099 C 0.46682 0.35060 0.89352
 C2100 C 0.44618 0.33669 0.90801
 C2101 C 0.43832 0.31164 0.90057
 H2102 H 0.44698 0.30250 0.88371
 O2103 O 0.52585 0.63002 0.90637
 O2104 O 0.52643 0.66075 0.87653
 C2105 C 0.53489 0.65125 0.89771
 C2106 C 0.55564 0.66479 0.91230
 C2107 C 0.56378 0.68972 0.90494
 H2108 H 0.55474 0.69935 0.88854
 O2109 O 0.37218 0.40623 0.97139
 O2110 O 0.34241 0.37543 0.97064
 C2111 C 0.35150 0.39664 0.96191
 C2112 C 0.33830 0.40992 0.94010
 C2113 C 0.31502 0.39999 0.92992
 H2114 H 0.30599 0.38312 0.93867
 O2115 O 0.62869 0.59321 0.97548
 O2116 O 0.65892 0.62357 0.97598
 C2117 C 0.64986 0.60247 0.96685
 C2118 C 0.66374 0.58866 0.94576
 C2119 C 0.68839 0.59695 0.93745
 H2120 H 0.69762 0.61352 0.94660
 O2121 O 0.52632 0.40717 0.86720
 O2122 O 0.52632 0.37733 0.83644
 C2123 C 0.53519 0.39832 0.84596
 C2124 C 0.55620 0.41261 0.83255
 C2125 C 0.56412 0.40562 0.80742
 H2126 H 0.55504 0.38929 0.79774
 O2127 O 0.47511 0.59543 0.87006
 O2128 O 0.47552 0.62593 0.84002
 C2129 C 0.46637 0.60485 0.84901
 C2130 C 0.44487 0.59146 0.83532
 C2131 C 0.43514 0.60118 0.81175
 H2132 H 0.44383 0.61820 0.80295
 O2133 O 0.37179 0.52548 0.90440
 O2134 O 0.34113 0.52567 0.87443
 C2135 C 0.35044 0.53425 0.89566
 C2136 C 0.33679 0.55520 0.90995
 C2137 C 0.31136 0.56245 0.90315
 H2138 H 0.30108 0.55173 0.88821
 O2139 O 0.62822 0.47429 0.90634
 O2140 O 0.65928 0.47446 0.87683
 C2141 C 0.64957 0.46546 0.89769
 C2142 C 0.66297 0.44419 0.91174
 C2143 C 0.68858 0.43735 0.90534
 H2144 H 0.69900 0.44854 0.89089
 O2145 O 0.59020 0.36909 0.97448
 O2146 O 0.61978 0.33808 0.97439
 C2147 C 0.59862 0.34756 0.96589
 C2148 C 0.58466 0.33416 0.94465
 C2149 C 0.59162 0.30889 0.93752
 H2150 H 0.60342 0.29772 0.95083
 O2151 O 0.40775 0.63092 0.97420
 O2152 O 0.37785 0.66161 0.97438
 C2153 C 0.39912 0.65249 0.96586
 C2154 C 0.41363 0.66668 0.94553
 C2155 C 0.40656 0.69204 0.93849
 H2156 H 0.39101 0.70184 0.94876
 Cu2157 Cu 0.60831 0.50009 0.89118
 Cu2158 Cu 0.64548 0.50033 0.85566
 Cu2159 Cu 0.39270 0.50066 0.88893
 Cu2160 Cu 0.35624 0.50113 0.85261
 Cu2161 Cu 0.60799 0.60763 1.00097
 Cu2162 Cu 0.64409 0.64425 1.00171
 Cu2163 Cu 0.60613 0.38993 0.99915
 Cu2164 Cu 0.64167 0.35276 0.99888
 Cu2165 Cu 0.39253 0.60907 0.99846
 Cu2166 Cu 0.35652 0.64578 0.99853
 Cu2167 Cu 0.39237 0.39194 0.99746
 Cu2168 Cu 0.35656 0.35503 0.99677
 Cu2169 Cu 0.50047 0.60979 0.89104
 Cu2170 Cu 0.50116 0.64649 0.85504
 Cu2171 Cu 0.50100 0.39232 0.88768
 Cu2172 Cu 0.50088 0.35621 0.85103
 C2173 C 0.56880 0.43321 0.84521
 H2174 H 0.56319 0.43829 0.86485
 C2175 C 0.58353 0.41982 0.79447
 C2176 C 0.43296 0.56961 0.84656
 H2177 H 0.44005 0.56227 0.86496
 C2178 C 0.41363 0.58952 0.79974
 C2179 C 0.43391 0.65435 0.93215
 H2180 H 0.43933 0.63472 0.93744
 C2181 C 0.41922 0.70486 0.91800
 C2182 C 0.56615 0.34739 0.92982
 H2183 H 0.55997 0.36659 0.93579
 C2184 C 0.58446 0.29853 0.91318
 C2185 C 0.64997 0.43017 0.93119
 H2186 H 0.63031 0.43559 0.93643
 C2187 C 0.70093 0.41616 0.91736
 C2188 C 0.34960 0.56881 0.92986
 H2189 H 0.36914 0.56319 0.93536
 C2190 C 0.29905 0.58350 0.91545
 C2191 C 0.56853 0.56882 0.84791
 H2192 H 0.56095 0.56147 0.86611
 C2193 C 0.58910 0.58877 0.80170
 C2194 C 0.43361 0.43378 0.84421
 H2195 H 0.43929 0.43926 0.86373
 C2196 C 0.41848 0.41909 0.79404
 C2197 C 0.65195 0.56742 0.93325
 H2198 H 0.63277 0.56117 0.93925
 C2199 C 0.70127 0.58402 0.91717
 C2200 C 0.34957 0.43187 0.92845
 H2201 H 0.36771 0.43944 0.93602
 C2202 C 0.30346 0.41132 0.90802
 C2203 C 0.56792 0.65248 0.93335
 H2204 H 0.56199 0.63308 0.93888
 C2205 C 0.58370 0.70242 0.91857
 C2206 C 0.43396 0.34867 0.92933
 H2207 H 0.43937 0.36826 0.93476
 C2208 C 0.41949 0.29809 0.91499
 C2209 C 1.09689 1.11603 1.23181
 C2210 C 1.10565 1.12622 1.25523
 C2211 C 1.11154 1.11007 1.27643
 C2212 C 1.10626 1.08298 1.27423
 C2213 C 1.09681 1.07265 1.25033
 C2214 C 1.09279 1.08933 1.22872
 C2215 C 1.09044 1.04608 1.24929
 N2216 N 1.09335 1.03096 1.27062
 N2217 N 1.10169 1.04067 1.29309
 C2218 C 1.10789 1.06611 1.29572
 H2219 H 1.09375 1.12919 1.21569
 H2220 H 1.10926 1.14691 1.25626
 H2221 H 1.08249 1.03723 1.23200
 H2222 H 1.11300 1.07290 1.31488
 C2223 C 1.10174 0.61656 0.73057
 C2224 C 1.11126 0.62597 0.75408
 C2225 C 1.11204 0.61010 0.77612
 C2226 C 1.10222 0.58447 0.77468
 C2227 C 1.09250 0.57484 0.75075
 C2228 C 1.09266 0.59101 0.72845
 C2229 C 1.08225 0.54952 0.75017
 N2230 N 1.08199 0.53494 0.77210
 N2231 N 1.09106 0.54404 0.79458
 C2232 C 1.10103 0.56832 0.79665
 H2233 H 1.10185 0.62921 0.71375
 H2234 H 1.11852 0.64568 0.75506
 H2235 H 1.07411 0.54128 0.73265
 H2236 H 1.10752 0.57484 0.81552
 C2237 C 0.58717 1.11345 0.74004
 C2238 C 0.59474 1.12169 0.76466
 C2239 C 0.60285 1.10386 0.78361
 C2240 C 0.60057 1.07688 0.77821
 C2241 C 0.59144 1.06843 0.75349
 C2242 C 0.58596 1.08696 0.73372
 C2243 C 0.58705 1.04168 0.74984
 N2244 N 0.59230 1.02466 0.76922
 N2245 N 0.60112 1.03254 0.79222
 C2246 C 0.60518 1.05801 0.79746
 H2247 H 0.58294 1.12809 0.72554
 H2248 H 0.59613 1.14236 0.76826
 H2249 H 0.57878 1.03410 0.73211
 H2250 H 0.61109 1.06322 0.81691
 C2251 C 0.61110 0.58425 1.24057
 C2252 C 0.62184 0.59537 1.26274
 C2253 C 0.62480 0.62239 1.26496
 C2254 C 0.61903 0.63824 1.24303
 C2255 C 0.60878 0.62673 1.22008
 C2256 C 0.60381 0.59959 1.21934
 C2257 C 0.60506 0.64265 1.19813
 N2258 N 0.61090 0.66827 1.19925
 N2259 N 0.62073 0.67900 1.22062
 C2260 C 0.62528 0.66487 1.24236
 H2261 H 0.60790 0.56347 1.24026
 H2262 H 0.62647 0.58281 1.27896
 H2263 H 0.59830 0.63496 1.17981
 H2264 H 0.63469 0.67453 1.25841
 C2265 C 0.91370 0.89225 1.24066
 C2266 C 0.90450 0.88140 1.26359
 C2267 C 0.87781 0.87759 1.26761
 C2268 C 0.86027 0.88266 1.24679
 C2269 C 0.86982 0.89294 1.22299
 C2270 C 0.89672 0.89868 1.22035
 C2271 C 0.85225 0.89587 1.20217
 N2272 N 0.82691 0.88941 1.20520
 N2273 N 0.81800 0.87960 1.22736
 C2274 C 0.83380 0.87567 1.24806
 H2275 H 0.93434 0.89609 1.23896
 H2276 H 0.91828 0.87737 1.27899
 H2277 H 0.85839 0.90248 1.18325
 H2278 H 0.82558 0.86621 1.26484
 C2279 C 0.88527 0.41466 0.73932
 C2280 C 0.87644 0.40555 0.76325
 C2281 C 0.88379 0.38095 0.77295
 C2282 C 0.90211 0.36661 0.75765
 C2283 C 0.90614 0.37339 0.73124
 C2284 C 0.89974 0.39880 0.72248
 C2285 C 0.91710 0.35440 0.71490
 N2286 N 0.92916 0.33351 0.72543
 N2287 N 0.93052 0.33037 0.75106
 C2288 C 0.91797 0.34664 0.76754
 H2289 H 0.88051 0.43444 0.73413
 H2290 H 0.86402 0.41848 0.77406
 H2291 H 0.91676 0.35632 0.69398
 H2292 H 0.92130 0.34437 0.78814
 C2293 C 0.39014 0.87411 0.71910
 C2294 C 0.37993 0.86215 0.74112
 C2295 C 0.37922 0.87528 0.76485
 C2296 C 0.38948 0.90070 0.76670
 C2297 C 0.39991 0.91290 0.74435
 C2298 C 0.39992 0.89951 0.72030
 C2299 C 0.41057 0.93792 0.74707
 N2300 N 0.41040 0.94983 0.77058
 N2301 N 0.40048 0.93837 0.79153
 C2302 C 0.39010 0.91420 0.79042
 H2303 H 0.39021 0.86356 0.70088
 H2304 H 0.37221 0.84264 0.73965
 H2305 H 0.41928 0.94802 0.73087
 H2306 H 0.38272 0.90568 0.80814
 C2307 C 0.37918 0.40664 1.23233
 C2308 C 0.37026 0.39760 1.25614
 C2309 C 0.38754 0.39197 1.27655
 C2310 C 0.41436 0.39804 1.27328
 C2311 C 0.42336 0.40792 1.24906
 C2312 C 0.40565 0.41130 1.22811
 C2313 C 0.44966 0.41523 1.24703
 N2314 N 0.46578 0.41263 1.26769
 N2315 N 0.45733 0.40373 1.29042
 C2316 C 0.43221 0.39668 1.29402
 H2317 H 0.36525 0.40928 1.21675
 H2318 H 0.34973 0.39340 1.25801
 H2319 H 0.45748 0.42368 1.22950
 H2320 H 0.42639 0.39106 1.31335
 C2321 C 0.91893 1.10579 0.75597
 C2322 C 0.90980 1.11630 0.73277
 C2323 C 0.88332 1.12192 0.72938
 C2324 C 0.86626 1.11942 0.75099
 C2325 C 0.87576 1.10931 0.77486
 C2326 C 0.90211 1.10143 0.77693
 C2327 C 0.85882 1.10871 0.79633
 N2328 N 0.83418 1.11765 0.79396
 N2329 N 0.82535 1.12744 0.77173
 C2330 C 0.84055 1.12886 0.75031
 H2331 H 0.93928 1.10053 0.75740
 H2332 H 0.92327 1.11859 0.71677
 H2333 H 0.86502 1.10199 0.81521
 H2334 H 0.83260 1.13838 0.73340
 C2335 C 0.88368 0.60351 0.27001
 C2336 C 0.87406 0.61268 0.24647
 C2337 C 0.88987 0.61349 0.22439
 C2338 C 0.91573 0.60423 0.22586
 C2339 C 0.92555 0.59472 0.24981
 C2340 C 0.90938 0.59472 0.27213
 C2341 C 0.95104 0.58481 0.25032
 N2342 N 0.96562 0.58481 0.22838
 N2343 N 0.95638 0.59380 0.20594
 C2344 C 0.93191 0.60340 0.20390
 H2345 H 0.87102 0.60351 0.28683
 H2346 H 0.85420 0.61961 0.24548
 H2347 H 0.95941 0.57673 0.26779
 H2348 H 0.92527 0.60989 0.18507
 C2349 C 0.40745 1.08275 0.25109
 C2350 C 0.39850 1.09160 0.22712
 C2351 C 0.38835 1.11665 0.22454
 C2352 C 0.38652 1.13293 0.24661
 C2353 C 0.39555 1.12396 0.27103
 C2354 C 0.40638 1.09873 0.27311
 C2355 C 0.39266 1.14036 0.29273
 N2356 N 0.38171 1.16414 0.28989
 N2357 N 0.37324 1.17253 0.26693
 C2358 C 0.37515 1.15771 0.24523
 H2359 H 0.41542 1.06333 0.25246
 H2360 H 0.39960 1.07894 0.21036
 H2361 H 0.39866 1.13444 0.31196
 H2362 H 0.36746 1.16534 0.22725
 C2363 C 0.41885 0.60090 0.75332
 C2364 C 0.40951 0.61029 0.72970
 C2365 C 0.38401 0.61945 0.72754
 C2366 C 0.36784 0.62003 0.74973
 C2367 C 0.37732 0.61063 0.77382
 C2368 C 0.40293 0.60053 0.77542
 C2369 C 0.36097 0.61233 0.79568
 N2370 N 0.33673 0.62243 0.79326
 N2371 N 0.32783 0.63114 0.77058
 C2372 C 0.34258 0.63038 0.74877
 H2373 H 0.43854 0.59349 0.75429
 H2374 H 0.42207 0.61007 0.71282
 H2375 H 0.36728 0.60610 0.81471
 H2376 H 0.33452 0.63820 0.73102
 C2377 C 1.08555 0.90000 0.75689
 C2378 C 1.09525 0.88914 0.73411
 C2379 C 1.12058 0.87936 0.73312
 C2380 C 1.13626 0.87978 0.75573
 C2381 C 1.12641 0.89075 0.77899
 C2382 C 1.10093 0.90128 0.77935
 C2383 C 1.14223 0.89006 0.80133
 N2384 N 1.16630 0.87939 0.80014
 N2385 N 1.17552 0.86913 0.77826
 C2386 C 1.16129 0.86883 0.75607
 H2387 H 1.06594 0.90769 0.75696
 H2388 H 1.08309 0.88870 0.71692
 H2389 H 1.13563 0.89755 0.81979
 H2390 H 1.16955 0.85967 0.73909
 C2391 C 1.11547 0.41630 0.25895
 C2392 C 1.12488 0.40597 0.23571
 C2393 C 1.11631 0.38175 0.22639
 C2394 C 1.09707 0.36850 0.24126
 C2395 C 1.09209 0.37631 0.26719
 C2396 C 1.09934 0.40170 0.27550
 C2397 C 1.07994 0.35813 0.28360
 N2398 N 1.06817 0.33695 0.27327
 N2399 N 1.06833 0.33259 0.24778
 C2400 C 1.08200 0.34797 0.23136
 H2401 H 1.12123 0.43587 0.26391
 H2402 H 1.13888 0.41736 0.22504
 H2403 H 1.07942 0.36067 0.30444
 H2404 H 1.08061 0.34427 0.21075
 C2405 C 0.61036 0.91354 0.26025
 C2406 C 0.62143 0.90270 0.23813
 C2407 C 0.62467 0.87573 0.23576
 C2408 C 0.61883 0.85968 0.25751
 C2409 C 0.60827 0.87091 0.28044
 C2410 C 0.60304 0.89800 0.28133
 C2411 C 0.60452 0.85477 0.30223
 N2412 N 0.61060 0.82922 0.30095
 N2413 N 0.62070 0.81875 0.27959
 C2414 C 0.62531 0.83309 0.25802
 H2415 H 0.60698 0.93430 0.26068
 H2416 H 0.62607 0.91541 0.22203
 H2417 H 0.59757 0.86224 0.32055
 H2418 H 0.63494 0.82365 0.24198
 C2419 C 0.61816 0.40876 0.76288
 C2420 C 0.62694 0.40024 0.73879
 C2421 C 0.60945 0.39406 0.71875
 C2422 C 0.58250 0.39919 0.72257
 C2423 C 0.57364 0.40867 0.74700
 C2424 C 0.59161 0.41244 0.76766
 C2425 C 0.54717 0.41521 0.74952
 N2426 N 0.53076 0.41217 0.72914
 N2427 N 0.53906 0.40356 0.70624
 C2428 C 0.56432 0.39730 0.70216
 H2429 H 0.63230 0.41176 0.77821
 H2430 H 0.64757 0.39684 0.73639
 H2431 H 0.53940 0.42343 0.76719
 H2432 H 0.56996 0.39189 0.68271
 C2433 C 1.24361 1.08322 1.10704
 C2434 C 1.26679 1.09306 1.11688
 C2435 C 1.27042 1.11986 1.12021
 C2436 C 1.24899 1.13683 1.11588
 C2437 C 1.22499 1.12662 1.10664
 C2438 C 1.22274 1.09966 1.10116
 C2439 C 1.20363 1.14363 1.10445
 N2440 N 1.20628 1.16904 1.11070
 N2441 N 1.22864 1.17856 1.11953
 C2442 C 1.24991 1.16334 1.12263
 H2443 H 1.24220 1.06254 1.10343
 H2444 H 1.28264 1.07968 1.12045
 H2445 H 1.18462 1.13694 1.09860
 H2446 H 1.26690 1.17204 1.13132
 C2447 C 1.23252 0.61666 0.59748
 C2448 C 1.25624 0.62686 0.60534
 C2449 C 1.27747 0.61065 0.61085
 C2450 C 1.27500 0.58348 0.60619
 C2451 C 1.25085 0.57315 0.59745
 C2452 C 1.22923 0.58992 0.59378
 C2453 C 1.24958 0.54651 0.59143
 N2454 N 1.27091 0.53132 0.59417
 N2455 N 1.29357 0.54100 0.60200
 C2456 C 1.29644 0.56651 0.60777
 H2457 H 1.21638 0.62988 0.59461
 H2458 H 1.25752 0.64759 0.60858
 H2459 H 1.23212 0.53764 0.58390
 H2460 H 1.31571 0.57328 0.61254
 C2461 C 0.74480 1.08267 0.60169
 C2462 C 0.76848 1.09235 0.61055
 C2463 C 0.77063 1.11806 0.61903
 C2464 C 0.74832 1.13410 0.61956
 C2465 C 0.72415 1.12426 0.61069
 C2466 C 0.72260 1.09843 0.60121
 C2467 C 0.70219 1.14048 0.61230
 N2468 N 0.70455 1.16491 0.62184
 N2469 N 0.72729 1.17414 0.63009
 C2470 C 0.74922 1.15954 0.62939
 H2471 H 0.74387 1.06284 0.59470
 H2472 H 0.78543 1.07988 0.61042
 H2473 H 0.68311 1.13390 0.60645
 H2474 H 0.76701 1.16786 0.63686
 C2475 C 0.74577 0.59819 1.08325
 C2476 C 0.76899 0.60815 1.09297
 C2477 C 0.77059 0.61718 1.11855
 C2478 C 0.74819 0.61696 1.13447
 C2479 C 0.72448 0.60696 1.12459
 C2480 C 0.72349 0.59712 1.09886
 C2481 C 0.70236 0.60788 1.14066
 N2482 N 0.70416 0.61787 1.16498
 N2483 N 0.72647 0.62720 1.17423
 C2484 C 0.74850 0.62720 1.15978
 H2485 H 0.74523 0.59099 1.06348
 H2486 H 0.78601 0.60855 1.08060
 H2487 H 0.68359 0.60114 1.13406
 H2488 H 0.76590 0.63553 1.16811
 C2489 C 1.23915 0.88694 0.91398
 C2490 C 1.26293 0.87815 0.90445
 C2491 C 1.27188 0.88496 0.87940
 C2492 C 1.25593 0.90260 0.86489
 C2493 C 1.22973 0.90675 0.87243
 C2494 C 1.22180 0.90092 0.89824
 C2495 C 1.21269 0.91728 0.85378
 N2496 N 1.22243 0.92860 0.83212
 N2497 N 1.24794 0.92971 0.82793
 C2498 C 1.26504 0.91767 0.84398
 H2499 H 1.23443 0.88256 0.93398
 H2500 H 1.27415 0.86606 0.91734
 H2501 H 1.19185 0.91715 0.85653
 H2502 H 1.28555 0.92077 0.84073
 C2503 C 1.24346 0.41294 0.39421
 C2504 C 1.26579 0.40314 0.38269
 C2505 C 1.26850 0.37651 0.37763
 C2506 C 1.24703 0.35975 0.38249
 C2507 C 1.22382 0.36998 0.39351
 C2508 C 1.22245 0.39673 0.40017
 C2509 C 1.20229 0.35329 0.39620
 N2510 N 1.20406 0.32813 0.38873
 N2511 N 1.22567 0.31860 0.37824
 C2512 C 1.24703 0.33355 0.37457
 H2513 H 1.24269 0.43347 0.39877
 H2514 H 1.28174 0.41636 0.37897
 H2515 H 1.18379 0.36002 0.40344
 H2516 H 1.26331 0.32493 0.36459
 C2517 C 0.72983 0.89745 0.38202
 C2518 C 0.75301 0.88739 0.37242
 C2519 C 0.77541 0.88675 0.38786
 C2520 C 0.77461 0.89716 0.41332
 C2521 C 0.75096 0.90737 0.42317
 C2522 C 0.72836 0.90720 0.40738
 C2523 C 0.75098 0.91811 0.44831
 N2524 N 0.77320 0.91845 0.46249
 N2525 N 0.79542 0.90900 0.45317
 C2526 C 0.79692 0.89851 0.42904
 H2527 H 0.71275 0.89728 0.36968
 H2528 H 0.75348 0.87968 0.35285
 H2529 H 0.73368 0.92656 0.45670
 H2530 H 0.81562 0.89175 0.42232
 C2531 C 0.73329 0.40749 0.88263
 C2532 C 0.75765 0.40004 0.87360
 C2533 C 0.77734 0.39229 0.89083
 C2534 C 0.77284 0.39472 0.91802
 C2535 C 0.74822 0.40341 0.92725
 C2536 C 0.72786 0.40877 0.90932
 C2537 C 0.74527 0.40755 0.95414
 N2538 N 0.76531 0.40276 0.97056
 N2539 N 0.78829 0.39462 0.96194
 C2540 C 0.79282 0.39071 0.93630
 H2541 H 0.71827 0.41168 0.86848
 H2542 H 0.76046 0.39850 0.85280
 H2543 H 0.72755 0.41524 0.96230
 H2544 H 0.81228 0.38542 0.93048
 C2545 C 0.75206 0.90274 1.08381
 C2546 C 0.72926 0.89234 1.09409
 C2547 C 0.72966 0.87873 1.11760
 C2548 C 0.75356 0.87473 1.13061
 C2549 C 0.77675 0.88528 1.12021
 C2550 C 0.77580 0.89972 1.09681
 C2551 C 0.80026 0.88052 1.13337
 N2552 N 0.80030 0.86610 1.15541
 N2553 N 0.77849 0.85615 1.16514
 C2554 C 0.75513 0.85993 1.15348
 H2555 H 0.75116 0.91351 1.06575
 H2556 H 0.71105 0.89524 1.08392
 H2557 H 0.81860 0.88786 1.12623
 H2558 H 0.73812 0.85105 1.16201
 C2559 C 0.76850 0.38077 0.59792
 C2560 C 0.74492 0.37159 0.60750
 C2561 C 0.72298 0.38763 0.60820
 C2562 C 0.72453 0.41312 0.59806
 C2563 C 0.74850 0.42251 0.58824
 C2564 C 0.77077 0.40626 0.58866
 C2565 C 0.74916 0.44769 0.57768
 N2566 N 0.72728 0.46238 0.57727
 N2567 N 0.70478 0.45352 0.58646
 C2568 C 0.70262 0.42937 0.59672
 H2569 H 0.78528 0.36806 0.59823
 H2570 H 0.74384 0.35197 0.61499
 H2571 H 0.76671 0.45573 0.56941
 H2572 H 0.68372 0.42303 0.60332
 C2573 C 0.25320 0.90194 0.58365
 C2574 C 0.23063 0.89105 0.59383
 C2575 C 0.23065 0.87985 0.61857
 C2576 C 0.25401 0.87876 0.63304
 C2577 C 0.27703 0.88973 0.62271
 C2578 C 0.27638 0.90181 0.59797
 C2579 C 0.30010 0.88761 0.63729
 N2580 N 0.29983 0.87552 0.66068
 N2581 N 0.27816 0.86524 0.67038
 C2582 C 0.25527 0.86636 0.65733
 H2583 H 0.25253 0.91081 0.56458
 H2584 H 0.21284 0.89172 0.58258
 H2585 H 0.31839 0.89514 0.63022
 H2586 H 0.23842 0.85722 0.66590
 C2587 C 0.26714 0.37978 1.09118
 C2588 C 0.24391 0.36955 1.10027
 C2589 C 0.22233 0.38551 1.10554
 C2590 C 0.22405 0.41240 1.09926
 C2591 C 0.24785 0.42280 1.08962
 C2592 C 0.26978 0.40635 1.08630
 C2593 C 0.24852 0.44917 1.08251
 N2594 N 0.22689 0.46402 1.08481
 N2595 N 0.20453 0.45422 1.09329
 C2596 C 0.20228 0.42894 1.10027
 H2597 H 0.28354 0.36682 1.08867
 H2598 H 0.24349 0.34903 1.10479
 H2599 H 0.26576 0.45803 1.07449
 H2600 H 0.18323 0.42196 1.10556
 C2601 C 0.75767 1.10719 0.91422
 C2602 C 0.73427 1.11639 0.90431
 C2603 C 0.72948 1.11697 0.87745
 C2604 C 0.74988 1.11003 0.86017
 C2605 C 0.77430 1.10178 0.87034
 C2606 C 0.77781 1.09932 0.89770
 C2607 C 0.79478 1.09748 0.85269
 N2608 N 0.79075 1.10019 0.82684
 N2609 N 0.76794 1.10778 0.81734
 C2610 C 0.74756 1.11319 0.83308
 H2611 H 0.75981 1.10572 0.93511
 H2612 H 0.71915 1.12183 0.91791
 H2613 H 0.81420 1.09275 0.85906
 H2614 H 0.73017 1.12073 0.82413
 C2615 C 0.75582 0.59948 0.41508
 C2616 C 0.73274 0.60964 0.40521
 C2617 C 0.73212 0.62124 0.38065
 C2618 C 0.75534 0.62355 0.36611
 C2619 C 0.77882 0.61321 0.37609
 C2620 C 0.77885 0.60071 0.40062
 C2621 C 0.80167 0.61634 0.36139
 N2622 N 0.80080 0.62889 0.33825
 N2623 N 0.77872 0.63867 0.32893
 C2624 C 0.75599 0.63653 0.34210
 H2625 H 0.75567 0.59024 0.43399
 H2626 H 0.71508 0.60808 0.41654
 H2627 H 0.82025 0.60924 0.36817
 H2628 H 0.73880 0.64533 0.33384
 C2629 C 0.26774 1.12127 0.40343
 C2630 C 0.24391 1.13054 0.39466
 C2631 C 0.22329 1.11356 0.38893
 C2632 C 0.22639 1.08666 0.39464
 C2633 C 0.25069 1.07728 0.40404
 C2634 C 0.27178 1.09473 0.40761
 C2635 C 0.25266 1.05085 0.41075
 N2636 N 0.23180 1.03499 0.40823
 N2637 N 0.20895 1.04383 0.39996
 C2638 C 0.20544 1.06907 0.39343
 H2639 H 0.28345 1.13499 0.40632
 H2640 H 0.24216 1.15113 0.39080
 H2641 H 0.27031 1.04269 0.41867
 H2642 H 0.18602 1.07517 0.38840
 C2643 C 0.26726 0.59425 0.88088
 C2644 C 0.24305 0.60239 0.87205
 C2645 C 0.22316 0.60906 0.88949
 C2646 C 0.22733 0.60505 0.91655
 C2647 C 0.25187 0.59586 0.92550
 C2648 C 0.27232 0.59136 0.90748
 C2649 C 0.25467 0.59026 0.95215
 N2650 N 0.23449 0.59399 0.96863
 N2651 N 0.21151 0.60239 0.96026
 C2652 C 0.20714 0.60772 0.93485
 H2653 H 0.28242 0.59070 0.86671
 H2654 H 0.24037 0.60501 0.85134
 H2655 H 0.27239 0.58225 0.96003
 H2656 H 0.18764 0.61302 0.92924
 C2657 C 1.12658 1.21604 1.11338
 C2658 C 1.13912 1.23751 1.12405
 C2659 C 1.12666 1.26159 1.12508
 C2660 C 1.10126 1.26430 1.11479
 C2661 C 1.08845 1.24247 1.10398
 C2662 C 1.10124 1.21813 1.10347
 C2663 C 1.06349 1.24600 1.09333
 N2664 N 1.05223 1.26980 1.09377
 N2665 N 1.06430 1.29030 1.10392
 C2666 C 1.08845 1.28840 1.11434
 H2667 H 1.13669 1.19758 1.11287
 H2668 H 1.15864 1.23542 1.13165
 H2669 H 1.05292 1.23018 1.08444
 H2670 H 1.09746 1.30581 1.12185
 C2671 C 1.08430 0.74171 0.60075
 C2672 C 1.09405 0.76484 0.61086
 C2673 C 1.11931 0.76607 0.62086
 C2674 C 1.13478 0.74337 0.62156
 C2675 C 1.12488 0.71978 0.61137
 C2676 C 1.09955 0.71916 0.60047
 C2677 C 1.14051 0.69741 0.61313
 N2678 N 1.16445 0.69884 0.62410
 N2679 N 1.17372 0.72103 0.63362
 C2680 C 1.15967 0.74330 0.63284
 H2681 H 1.06480 0.74146 0.59275
 H2682 H 1.08201 0.78209 0.61052
 H2683 H 1.13385 0.67873 0.60626
 H2684 H 1.16797 0.76058 0.64140
 C2685 C 0.61626 1.23127 0.60231
 C2686 C 0.62489 1.25541 0.61086
 C2687 C 0.60830 1.27696 0.61082
 C2688 C 0.58261 1.27424 0.60130
 C2689 C 0.57376 1.24963 0.59254
 C2690 C 0.59074 1.22792 0.59338
 C2691 C 0.54838 1.24781 0.58247
 N2692 N 0.53303 1.26919 0.58149
 N2693 N 0.54137 1.29226 0.58967
 C2694 C 0.56565 1.29555 0.59941
 H2695 H 0.62952 1.21493 0.60296
 H2696 H 0.64464 1.25731 0.61793
 H2697 H 0.54071 1.22975 0.57503
 H2698 H 0.57154 1.31484 0.60517
 C2699 C 0.60246 0.72386 1.12322
 C2700 C 0.61260 0.74684 1.13325
 C2701 C 0.61320 0.76947 1.11822
 C2702 C 0.60241 0.76920 1.09290
 C2703 C 0.59211 0.74579 1.08263
 C2704 C 0.59257 0.72286 1.09786
 C2705 C 0.58104 0.74634 1.05762
 N2706 N 0.58051 0.76883 1.04396
 N2707 N 0.59007 0.79082 1.05367
 C2708 C 0.60087 0.79180 1.07769
 H2709 H 0.60281 0.70654 1.13517
 H2710 H 0.62060 0.74691 1.15272
 H2711 H 0.57248 0.72924 1.04894
 H2712 H 0.60770 0.81033 1.08478
 C2713 C 0.87573 1.22413 0.89591
 C2714 C 0.86393 1.24633 0.88592
 C2715 C 0.87777 1.26958 0.88405
 C2716 C 0.90375 1.27076 0.89303
 C2717 C 0.91578 1.24823 0.90331
 C2718 C 0.90167 1.22462 0.90438
 C2719 C 0.94136 1.25036 0.91279
 N2720 N 0.95397 1.27345 0.91161
 N2721 N 0.94268 1.29457 0.90182
 C2722 C 0.91799 1.29404 0.89258
 H2723 H 0.86460 1.20628 0.89678
 H2724 H 0.84401 1.24535 0.87916
 H2725 H 0.95137 1.23403 0.92138
 H2726 H 0.90964 1.31188 0.88530
 C2727 C 0.92057 0.74592 0.40276
 C2728 C 0.91084 0.76943 0.39353
 C2729 C 0.88551 0.77110 0.38377
 C2730 C 0.86993 0.74851 0.38243
 C2731 C 0.87980 0.72454 0.39169
 C2732 C 0.90523 0.72343 0.40236
 C2733 C 0.86406 0.70231 0.38927
 N2734 N 0.84003 0.70424 0.37858
 N2735 N 0.83076 0.72679 0.36997
 C2736 C 0.84492 0.74896 0.37142
 H2737 H 0.94010 0.74531 0.41063
 H2738 H 0.92298 0.78659 0.39427
 H2739 H 0.87070 0.68338 0.39540
 H2740 H 0.83659 0.76659 0.36365
 C2741 C 0.38353 1.22823 0.39372
 C2742 C 0.37406 1.25141 0.38356
 C2743 C 0.38910 1.27407 0.38414
 C2744 C 0.41406 1.27344 0.39579
 C2745 C 0.42381 1.24977 0.40603
 C2746 C 0.40838 1.22699 0.40477
 C2747 C 0.44844 1.24992 0.41793
 N2748 N 0.46223 1.27231 0.41940
 N2749 N 0.45297 1.29455 0.41000
 C2750 C 0.42933 1.29592 0.39840
 H2751 H 0.37149 1.21101 0.39267
 H2752 H 0.35486 1.25171 0.37493
 H2753 H 0.45673 1.23258 0.42638
 H2754 H 0.42261 1.31464 0.39174
 C2755 C 0.38385 0.73432 0.90402
 C2756 C 0.37434 0.75799 0.89509
 C2757 C 0.39097 0.77915 0.89143
 C2758 C 0.41759 0.77669 0.89788
 C2759 C 0.42731 0.75269 0.90739
 C2760 C 0.41031 0.73109 0.90984
 C2761 C 0.45365 0.75141 0.91466
 N2762 N 0.46913 0.77255 0.91194
 N2763 N 0.46003 0.79493 0.90270
 C2764 C 0.43478 0.79774 0.89565
 H2765 H 0.37049 0.71815 0.90579
 H2766 H 0.35394 0.75961 0.89010
 H2767 H 0.46204 0.73400 0.92284
 H2768 H 0.42829 0.81649 0.88876
 C2769 C 1.08045 0.75191 0.90261
 C2770 C 1.09027 0.72823 0.89396
 C2771 C 1.11577 0.72628 0.88470
 C2772 C 1.13143 0.74882 0.88324
 C2773 C 1.12146 0.77296 0.89196
 C2774 C 1.09587 0.77432 0.90212
 C2775 C 1.13730 0.79511 0.88952
 N2776 N 1.16148 0.79297 0.87924
 N2777 N 1.17079 0.77028 0.87105
 C2778 C 1.15657 0.74817 0.87258
 H2779 H 1.06079 0.75271 0.91012
 H2780 H 1.07804 0.71113 0.89475
 H2781 H 1.13062 0.81414 0.89530
 H2782 H 1.16494 0.73044 0.86511
 C2783 C 1.12125 0.27518 0.39170
 C2784 C 1.13116 0.25203 0.38181
 C2785 C 1.11576 0.22966 0.38070
 C2786 C 1.09004 0.23043 0.39050
 C2787 C 1.07988 0.25401 0.40053
 C2788 C 1.09561 0.27661 0.40082
 C2789 C 1.05449 0.25391 0.41069
 N2790 N 1.04036 0.23169 0.41064
 N2791 N 1.04996 0.20955 0.40136
 C2792 C 1.07434 0.20812 0.39144
 H2793 H 1.13359 0.29223 0.39199
 H2794 H 1.15095 0.25153 0.37466
 H2795 H 1.04584 0.27114 0.41900
 H2796 H 1.08126 0.18946 0.38481
 C2797 C 0.62128 0.77520 0.39482
 C2798 C 0.63134 0.75244 0.38425
 C2799 C 0.61591 0.73020 0.38198
 C2800 C 0.59004 0.73062 0.39128
 C2801 C 0.57979 0.75373 0.40224
 C2802 C 0.59552 0.77633 0.40361
 C2803 C 0.55430 0.75314 0.41215
 N2804 N 0.54013 0.73099 0.41077
 N2805 N 0.54976 0.70935 0.40039
 C2806 C 0.57426 0.70836 0.39072
 H2807 H 0.63361 0.79224 0.39581
 H2808 H 0.65125 0.75219 0.37741
 H2809 H 0.54562 0.76990 0.42133
 H2810 H 0.58123 0.69012 0.38304
 C2811 C 0.57928 0.25613 0.88946
 C2812 C 0.58771 0.23142 0.88220
 C2813 C 0.61117 0.22094 0.89170
 C2814 C 0.62545 0.23629 0.90983
 C2815 C 0.61981 0.26310 0.91238
 C2816 C 0.59516 0.27277 0.90424
 C2817 C 0.63921 0.27898 0.92335
 N2818 N 0.65929 0.26805 0.93644
 N2819 N 0.66137 0.24239 0.93875
 C2820 C 0.64475 0.22615 0.92631
 H2821 H 0.56012 0.26211 0.88321
 H2822 H 0.57529 0.22055 0.86928
 H2823 H 0.63834 0.29991 0.92206
 H2824 H 0.64634 0.20557 0.93000
 C2825 C 0.91634 0.75514 1.09561
 C2826 C 0.90685 0.73199 1.10583
 C2827 C 0.88206 0.73086 1.11694
 C2828 C 0.86682 0.75368 1.11858
 C2829 C 0.87643 0.77728 1.10818
 C2830 C 0.90128 0.77779 1.09628
 C2831 C 0.86107 0.79975 1.11074
 N2832 N 0.83767 0.79845 1.12279
 N2833 N 0.82871 0.77628 1.13262
 C2834 C 0.84251 0.75390 1.13104
 H2835 H 0.93549 0.75536 1.08686
 H2836 H 0.91872 0.71466 1.10476
 H2837 H 0.86753 0.81840 1.10362
 H2838 H 0.83451 0.73666 1.13992
 C2839 C 0.91873 0.25408 0.59299
 C2840 C 0.90992 0.23028 0.60237
 C2841 C 0.88509 0.22796 0.61319
 C2842 C 0.86907 0.25022 0.61534
 C2843 C 0.87796 0.27444 0.60574
 C2844 C 0.90292 0.27621 0.59420
 C2845 C 0.86179 0.29628 0.60874
 N2846 N 0.83833 0.29382 0.62048
 N2847 N 0.83006 0.27110 0.62961
 C2848 C 0.84465 0.24927 0.62757
 H2849 H 0.93797 0.25523 0.58452
 H2850 H 0.92240 0.21340 0.60098
 H2851 H 0.86765 0.31533 0.60219
 H2852 H 0.83716 0.23154 0.63590
 C2853 C 0.41296 0.75718 0.59511
 C2854 C 0.40344 0.73422 0.60575
 C2855 C 0.37817 0.73293 0.61565
 C2856 C 0.36233 0.75538 0.61545
 C2857 C 0.37203 0.77887 0.60482
 C2858 C 0.39749 0.77957 0.59421
 C2859 C 0.35611 0.80107 0.60597
 N2860 N 0.33206 0.79955 0.61665
 N2861 N 0.32295 0.77743 0.62647
 C2862 C 0.33729 0.75534 0.62634
 H2863 H 0.43254 0.75747 0.58737
 H2864 H 0.41574 0.71716 0.60602
 H2865 H 0.36260 0.81970 0.59884
 H2866 H 0.32912 0.73811 0.63508
 C2867 C 0.38179 0.27104 1.09951
 C2868 C 0.37253 0.24724 1.10831
 C2869 C 0.38860 0.22531 1.10859
 C2870 C 0.41433 0.22724 1.09896
 C2871 C 0.42384 0.25152 1.09007
 C2872 C 0.40743 0.27364 1.09072
 C2873 C 0.44930 0.25263 1.08014
 N2874 N 0.46410 0.23086 1.07933
 N2875 N 0.45510 0.20805 1.08752
 C2876 C 0.43070 0.20546 1.09715
 H2877 H 0.36896 0.28772 1.09996
 H2878 H 0.35279 0.24596 1.11549
 H2879 H 0.45747 0.27046 1.07269
 H2880 H 0.42426 0.18633 1.10284
 C2881 C 1.09384 1.11977 0.76759
 C2882 C 1.10238 1.12927 0.74380
 C2883 C 1.11015 1.11241 0.72384
 C2884 C 1.10676 1.08521 0.72737
 C2885 C 1.09695 1.07555 0.75136
 C2886 C 1.09147 1.09302 0.77207
 C2887 C 1.09178 1.04877 0.75333
 N2888 N 1.09664 1.03282 0.73297
 N2889 N 1.10580 1.04183 0.71056
 C2890 C 1.11073 1.06742 0.70696
 H2891 H 1.08960 1.13357 0.78291
 H2892 H 1.10452 1.15007 0.74159
 H2893 H 1.08319 1.04036 0.77050
 H2894 H 1.11675 1.07356 0.68785
 C2895 C 1.11097 0.58510 0.25894
 C2896 C 1.12081 0.59547 0.23602
 C2897 C 1.12323 0.62240 0.23266
 C2898 C 1.11793 0.63904 0.25411
 C2899 C 1.10874 0.62832 0.27786
 C2900 C 1.10418 0.60116 0.27982
 C2901 C 1.10566 0.64506 0.29931
 N2902 N 1.11101 0.67070 0.29697
 N2903 N 1.11976 0.68071 0.27483
 C2904 C 1.12370 0.66579 0.25350
 H2905 H 1.10808 0.56430 0.26015
 H2906 H 1.12518 0.58236 0.22015
 H2907 H 1.09983 0.63801 0.31818
 H2908 H 1.13227 0.67496 0.23673
 C2909 C 0.59480 1.11779 0.26574
 C2910 C 0.60245 1.12715 0.24162
 C2911 C 0.60852 1.11018 0.22116
 C2912 C 0.60442 1.08307 0.22474
 C2913 C 0.59574 1.07357 0.24924
 C2914 C 0.59178 1.09112 0.27019
 C2915 C 0.59008 1.04692 0.25149
 N2916 N 0.59325 1.03092 0.23083
 N2917 N 0.60115 1.03980 0.20789
 C2918 C 0.60652 1.06527 0.20406
 H2919 H 0.59169 1.13162 0.28130
 H2920 H 0.60520 1.14788 0.23943
 H2921 H 0.58246 1.03865 0.26918
 H2922 H 0.61140 1.07133 0.18460
 C2923 C 0.60018 0.58477 0.75515
 C2924 C 0.61013 0.59447 0.73194
 C2925 C 0.62069 0.61948 0.73075
 C2926 C 0.62214 0.63470 0.75362
 C2927 C 0.61199 0.62488 0.77726
 C2928 C 0.60056 0.59984 0.77781
 C2929 C 0.61430 0.64027 0.79974
 N2930 N 0.62589 0.66388 0.79841
 N2931 N 0.63551 0.67302 0.77622
 C2932 C 0.63415 0.65921 0.75383
 H2933 H 0.59176 0.56550 0.75536
 H2934 H 0.60920 0.58261 0.71459
 H2935 H 0.60736 0.63367 0.81842
 H2936 H 0.64286 0.66736 0.73657
 C2937 C 0.88300 0.90192 0.76733
 C2938 C 0.87367 0.89265 0.74370
 C2939 C 0.89006 0.89072 0.72211
 C2940 C 0.91615 0.89915 0.72410
 C2941 C 0.92567 0.90883 0.74811
 C2942 C 0.90897 0.90973 0.77003
 C2943 C 0.95144 0.91793 0.74908
 N2944 N 0.96658 0.91695 0.72754
 N2945 N 0.95764 0.90773 0.70507
 C2946 C 0.93293 0.89891 0.70258
 H2947 H 0.86993 0.90257 0.78382
 H2948 H 0.85363 0.88636 0.74230
 H2949 H 0.95961 0.92616 0.76659
 H2950 H 0.92656 0.89217 0.68373
 C2951 C 0.88139 0.40754 0.26373
 C2952 C 0.87210 0.39836 0.24007
 C2953 C 0.88917 0.39065 0.22024
 C2954 C 0.91631 0.39482 0.22372
 C2955 C 0.92573 0.40520 0.24759
 C2956 C 0.90811 0.41053 0.26820
 C2957 C 0.95242 0.41101 0.24955
 N2958 N 0.96852 0.40627 0.22927
 N2959 N 0.95972 0.39663 0.20695
 C2960 C 0.93422 0.39104 0.20338
 H2961 H 0.86749 0.41166 0.27898
 H2962 H 0.85133 0.39564 0.23792
 H2963 H 0.96061 0.41998 0.26665
 H2964 H 0.92822 0.38464 0.18433
 C2965 C 0.41459 0.89281 0.25808
 C2966 C 0.40460 0.88146 0.23567
 C2967 C 0.37776 0.87789 0.23244
 C2968 C 0.36087 0.88376 0.25357
 C2969 C 0.37123 0.89454 0.27684
 C2970 C 0.39827 0.90002 0.27865
 C2971 C 0.35430 0.89818 0.29805
 N2972 N 0.32882 0.89193 0.29589
 N2973 N 0.31916 0.88166 0.27423
 C2974 C 0.33430 0.87704 0.25321
 H2975 H 0.43532 0.89637 0.25920
 H2976 H 0.41789 0.87671 0.22005
 H2977 H 0.36105 0.90518 0.31663
 H2978 H 0.32547 0.86723 0.23693
 C2979 C 0.38450 0.40133 0.76518
 C2980 C 0.37565 0.39198 0.74141
 C2981 C 0.39190 0.39167 0.71959
 C2982 C 0.41743 0.40176 0.72163
 C2983 C 0.42653 0.41124 0.74590
 C2984 C 0.40992 0.41067 0.76788
 C2985 C 0.45179 0.42166 0.74711
 N2986 N 0.46679 0.42237 0.72547
 N2987 N 0.45818 0.41359 0.70269
 C2988 C 0.43400 0.40345 0.70000
 H2989 H 0.37155 0.40081 0.78176
 H2990 H 0.35604 0.38445 0.74006
 H2991 H 0.45964 0.42958 0.76491
 H2992 H 0.42787 0.39723 0.68091
 C2993 C 1.10686 0.91732 1.24219
 C2994 C 1.11464 0.90845 1.26657
 C2995 C 1.10738 0.88368 1.27589
 C2996 C 1.08982 0.86910 1.25997
 C2997 C 1.08660 0.87583 1.23343
 C2998 C 1.09339 0.90119 1.22479
 C2999 C 1.07614 0.85682 1.21678
 N3000 N 1.06401 0.83579 1.22693
 N3001 N 1.06212 0.83249 1.25251
 C3002 C 1.07410 0.84882 1.26937
 H3003 H 1.11171 0.93709 1.23699
 H3004 H 1.12637 0.92159 1.27789
 H3005 H 1.07700 0.85873 1.19588
 H3006 H 1.07060 0.84623 1.28990
 C3007 C 1.11728 0.40195 0.73332
 C3008 C 1.12677 0.39343 0.75710
 C3009 C 1.11002 0.38851 0.77807
 C3010 C 1.08309 0.39442 0.77524
 C3011 C 1.07349 0.40364 0.75096
 C3012 C 1.09075 0.40674 0.72965
 C3013 C 1.04710 0.41070 0.74925
 N3014 N 1.03146 0.40863 0.77031
 N3015 N 1.04049 0.40048 0.79312
 C3016 C 1.06573 0.39366 0.79639
 H3017 H 1.13085 0.40438 0.71741
 H3018 H 1.14735 0.38928 0.75862
 H3019 H 1.03880 0.41854 0.73165
 H3020 H 1.07200 0.38872 0.81577
 C3021 C 0.58047 0.89895 0.74390
 C3022 C 0.59016 0.88934 0.76728
 C3023 C 0.61537 0.87925 0.76879
 C3024 C 0.63077 0.87779 0.74607
 C3025 C 0.62095 0.88751 0.72224
 C3026 C 0.59574 0.89865 0.72137
 C3027 C 0.63653 0.88516 0.69990
 N3028 N 0.66034 0.87397 0.70156
 N3029 N 0.66952 0.86482 0.72395
 C3030 C 0.65553 0.86625 0.74622
 H3031 H 0.56108 0.90717 0.74346
 H3032 H 0.57816 0.89027 0.78454
 H3033 H 0.62992 0.89176 0.68109
 H3034 H 0.66375 0.85799 0.76370
 C3035 C 0.60847 0.41822 1.24289
 C3036 C 0.61646 0.40970 1.26735
 C3037 C 0.60856 0.38546 1.27745
 C3038 C 0.59025 0.37108 1.26219
 C3039 C 0.58695 0.37713 1.23550
 C3040 C 0.59425 0.40207 1.22610
 C3041 C 0.57587 0.35790 1.21951
 N3042 N 0.56312 0.33761 1.23041
 N3043 N 0.56123 0.33525 1.25609
 C3044 C 0.57384 0.35172 1.27234
 H3045 H 0.61376 0.43773 1.23720
 H3046 H 0.62877 0.42275 1.27817
 H3047 H 0.57671 0.35910 1.19856
 H3048 H 0.57030 0.35002 1.29295
 C3049 C 0.88081 1.09880 1.23111
 C3050 C 0.87198 1.10828 1.25484
 C3051 C 0.88839 1.10895 1.27653
 C3052 C 0.91394 1.09897 1.27453
 C3053 C 0.92294 1.08912 1.25041
 C3054 C 0.90630 1.08955 1.22841
 C3055 C 0.94814 1.07854 1.24938
 N3056 N 0.96324 1.07826 1.27100
 N3057 N 0.95477 1.08759 1.29359
 C3058 C 0.93062 1.09783 1.29613
 H3059 H 0.86779 1.09916 1.21455
 H3060 H 0.85234 1.11572 1.25625
 H3061 H 0.95588 1.07014 1.23177
 H3062 H 0.92459 1.10459 1.31507
 C3063 C 0.87985 0.59797 0.72921
 C3064 C 0.87043 0.60769 0.75264
 C3065 C 0.88666 0.60972 0.77437
 C3066 C 0.91265 0.60088 0.77277
 C3067 C 0.92225 0.59075 0.74898
 C3068 C 0.90576 0.58982 0.72687
 C3069 C 0.94790 0.58127 0.74842
 N3070 N 0.96285 0.58231 0.77011
 N3071 N 0.95384 0.59194 0.79236
 C3072 C 0.92923 0.60115 0.79447
 H3073 H 0.86693 0.59729 0.71259
 H3074 H 0.85046 0.61424 0.75376
 H3075 H 0.95611 0.57268 0.73111
 H3076 H 0.92279 0.60822 0.81316
 C3077 C 0.41796 1.09542 0.74729
 C3078 C 0.40919 1.10511 0.77098
 C3079 C 0.38444 1.11612 0.77312
 C3080 C 0.36846 1.11818 0.75080
 C3081 C 0.37733 1.10832 0.72668
 C3082 C 0.40219 1.09654 0.72511
 C3083 C 0.36124 1.11129 0.70475
 N3084 N 0.33785 1.12322 0.70706
 N3085 N 0.32958 1.13256 0.72972
 C3086 C 0.34411 1.13057 0.75162
 H3087 H 0.43713 1.08675 0.74628
 H3088 H 0.42161 1.10371 0.78792
 H3089 H 0.36711 1.10458 0.68574
 H3090 H 0.33665 1.13906 0.76931
 C3091 C 0.37951 0.58579 1.23652
 C3092 C 0.36973 0.59583 1.25966
 C3093 C 0.37678 0.62073 1.26874
 C3094 C 0.39494 0.63507 1.25320
 C3095 C 0.40037 0.62687 1.22742
 C3096 C 0.39476 0.60094 1.21978
 C3097 C 0.41192 0.64496 1.21050
 N3098 N 0.42272 0.66690 1.22022
 N3099 N 0.42244 0.67186 1.24559
 C3100 C 0.40950 0.65632 1.26247
 H3101 H 0.37496 0.56581 1.23187
 H3102 H 0.35656 0.58350 1.27031
 H3103 H 0.41295 0.64157 1.18979
 H3104 H 0.41168 0.66019 1.28296
 C3105 C 1.09971 1.23066 0.88341
 C3106 C 1.10870 1.25429 0.87387
 C3107 C 1.11085 1.27592 0.89014
 C3108 C 1.10301 1.27396 0.91640
 C3109 C 1.09352 1.24999 0.92614
 C3110 C 1.09235 1.22801 0.90952
 C3111 C 1.08486 1.24913 0.95205
 N3112 N 1.08616 1.27070 0.96712
 N3113 N 1.09529 1.29310 0.95799
 C3114 C 1.10366 1.29550 0.93313
 H3115 H 1.09884 1.21416 0.87038
 H3116 H 1.11458 1.25565 0.85371
 H3117 H 1.07671 1.23170 0.96039
 H3118 H 1.11038 1.31428 0.92661
 C3119 C 1.09080 0.74087 0.39746
 C3120 C 1.10106 0.76359 0.38706
 C3121 C 1.12690 0.76463 0.37863
 C3122 C 1.14259 0.74217 0.38020
 C3123 C 1.13211 0.71886 0.39051
 C3124 C 1.10603 0.71842 0.39959
 C3125 C 1.14795 0.69658 0.39059
 N3126 N 1.17265 0.69791 0.38147
 N3127 N 1.18250 0.71989 0.37206
 C3128 C 1.16828 0.74203 0.37102
 H3129 H 1.07083 0.74087 0.40414
 H3130 H 1.08886 0.78068 0.38577
 H3131 H 1.14090 0.67805 0.39743
 H3132 H 1.17709 0.75920 0.36275
 C3133 C 0.61053 1.22505 0.38119
 C3134 C 0.62118 1.24793 0.37151
 C3135 C 0.62014 1.27092 0.38595
 C3136 C 0.60742 1.27107 0.41036
 C3137 C 0.59669 1.24775 0.42030
 C3138 C 0.59849 1.22456 0.40559
 C3139 C 0.58378 1.24862 0.44438
 N3140 N 0.58180 1.27140 0.45745
 N3141 N 0.59165 1.29334 0.44798
 C3142 C 0.60424 1.29400 0.42485
 H3143 H 0.61190 1.20749 0.36967
 H3144 H 0.63049 1.24777 0.35264
 H3145 H 0.57494 1.23155 0.45279
 H3146 H 0.61123 1.31251 0.41793
 C3147 C 0.61856 0.73132 0.90254
 C3148 C 0.62768 0.75487 0.89295
 C3149 C 0.61107 0.77625 0.89055
 C3150 C 0.58499 0.77418 0.89899
 C3151 C 0.57567 0.75025 0.90896
 C3152 C 0.59257 0.72848 0.91019
 C3153 C 0.54987 0.74916 0.91797
 N3154 N 0.53453 0.77054 0.91667
 N3155 N 0.54328 0.79295 0.90722
 C3156 C 0.56800 0.79554 0.89845
 H3157 H 0.63177 0.71495 0.90344
 H3158 H 0.64773 0.75633 0.88669
 H3159 H 0.54184 0.73170 0.92639
 H3160 H 0.57421 0.81434 0.89153
 C3161 C 0.91671 1.24008 1.10791
 C3162 C 0.90714 1.26294 1.11871
 C3163 C 0.88049 1.26607 1.12371
 C3164 C 0.86364 1.24439 1.12013
 C3165 C 0.87356 1.22086 1.10961
 C3166 C 0.90019 1.21912 1.10252
 C3167 C 0.85671 1.19937 1.10774
 N3168 N 0.83172 1.20139 1.11578
 N3169 N 0.82254 1.22324 1.12606
 C3170 C 0.83765 1.24461 1.12883
 H3171 H 0.93720 1.23896 1.10317
 H3172 H 0.92048 1.27893 1.12166
 H3173 H 0.86321 1.18072 1.10072
 H3174 H 0.82937 1.26109 1.13876
 C3175 C 0.91816 0.74492 0.59920
 C3176 C 0.90853 0.76845 0.60846
 C3177 C 0.88306 0.77035 0.61783
 C3178 C 0.86727 0.74787 0.61878
 C3179 C 0.87703 0.72389 0.60938
 C3180 C 0.90259 0.72261 0.59911
 C3181 C 0.86105 0.70180 0.61128
 N3182 N 0.83693 0.70382 0.62172
 N3183 N 0.82782 0.72633 0.63058
 C3184 C 0.84219 0.74838 0.62960
 H3185 H 0.93781 0.74419 0.59164
 H3186 H 0.92085 0.78549 0.60795
 H3187 H 0.86757 0.68288 0.60495
 H3188 H 0.83399 0.76593 0.63766
 C3189 C 0.38390 1.23317 0.59531
 C3190 C 0.37461 1.25716 0.60341
 C3191 C 0.39155 1.27805 0.60812
 C3192 C 0.41848 1.27485 0.60236
 C3193 C 0.42789 1.25032 0.59371
 C3194 C 0.41043 1.22915 0.59082
 C3195 C 0.45433 1.24817 0.58697
 N3196 N 0.47017 1.26911 0.58870
 N3197 N 0.46130 1.29218 0.59621
 C3198 C 0.43604 1.29585 0.60273
 H3199 H 0.37019 1.21736 0.59300
 H3200 H 0.35403 1.25892 0.60743
 H3201 H 0.46252 1.23030 0.57967
 H3202 H 0.42993 1.31540 0.60710
 C3203 C 0.41465 0.73768 1.11118
 C3204 C 0.40449 0.76028 1.12194
 C3205 C 0.37758 0.76353 1.12507
 C3206 C 0.36084 0.74217 1.11960
 C3207 C 0.37135 0.71879 1.10930
 C3208 C 0.39841 0.71702 1.10405
 C3209 C 0.35455 0.69746 1.10582
 N3210 N 0.32904 0.69954 1.11200
 N3211 N 0.31924 0.72129 1.12191
 C3212 C 0.33425 0.74249 1.12622
 H3213 H 0.43541 0.73655 1.10782
 H3214 H 0.41770 0.77604 1.12641
 H3215 H 0.36146 0.67888 1.09900
 H3216 H 0.32532 0.75888 1.13573
 C3217 C 0.91606 0.75554 0.89830
 C3218 C 0.90661 0.73210 0.88864
 C3219 C 0.88122 0.73023 0.87906
 C3220 C 0.86531 0.75264 0.87829
 C3221 C 0.87491 0.77655 0.88804
 C3222 C 0.90038 0.77780 0.89856
 C3223 C 0.85883 0.79859 0.88623
 N3224 N 0.83477 0.79657 0.87562
 N3225 N 0.82580 0.77410 0.86649
 C3226 C 0.84028 0.75211 0.86735
 H3227 H 0.93566 0.75626 0.90601
 H3228 H 0.91898 0.71509 0.88906
 H3229 H 0.86523 0.81748 0.89278
 H3230 H 0.83221 0.73458 0.85909
 C3231 C 0.90527 0.25530 0.41566
 C3232 C 0.89597 0.23153 0.40669
 C3233 C 0.88629 0.22903 0.38141
 C3234 C 0.88531 0.25105 0.36501
 C3235 C 0.89464 0.27531 0.37412
 C3236 C 0.90503 0.27727 0.39960
 C3237 C 0.89245 0.29698 0.35761
 N3238 N 0.88196 0.29426 0.33359
 N3239 N 0.87328 0.27145 0.32505
 C3240 C 0.87448 0.24979 0.33997
 H3241 H 0.91289 0.25655 0.43525
 H3242 H 0.89648 0.21482 0.41944
 H3243 H 0.89862 0.31611 0.36363
 H3244 H 0.86662 0.23194 0.33221
 C3245 C 0.38281 0.76476 0.41197
 C3246 C 0.37302 0.74133 0.40273
 C3247 C 0.37924 0.73189 0.37774
 C3248 C 0.39686 0.74725 0.36258
 C3249 C 0.40234 0.77325 0.37009
 C3250 C 0.39721 0.78147 0.39596
 C3251 C 0.41333 0.78980 0.35133
 N3252 N 0.42359 0.77967 0.32931
 N3253 N 0.42328 0.75422 0.32488
 C3254 C 0.41084 0.73762 0.34111
 H3255 H 0.37884 0.76972 0.43200
 H3256 H 0.36045 0.73081 0.41576
 H3257 H 0.41425 0.81058 0.35416
 H3258 H 0.41295 0.71708 0.33759
 C3259 C 0.38438 0.26685 0.90465
 C3260 C 0.37508 0.24271 0.89697
 C3261 C 0.39214 0.22247 0.89044
 C3262 C 0.41934 0.22627 0.89408
 C3263 C 0.42879 0.25076 0.90279
 C3264 C 0.41111 0.27150 0.90723
 C3265 C 0.45557 0.25323 0.90799
 N3266 N 0.47171 0.23276 0.90437
 N3267 N 0.46287 0.20982 0.89644
 C3268 C 0.43731 0.20578 0.89149
 H3269 H 0.37047 0.28225 0.90813
 H3270 H 0.35430 0.24035 0.89457
 H3271 H 0.46383 0.27094 0.91560
 H3272 H 0.43132 0.18632 0.88657
 C3273 C 1.11902 0.77024 1.09722
 C3274 C 1.12891 0.74694 1.10653
 C3275 C 1.11238 0.72668 1.11419
 C3276 C 1.08512 0.72944 1.11013
 C3277 C 1.07508 0.75300 1.09970
 C3278 C 1.09221 0.77392 1.09407
 C3279 C 1.04831 0.75431 1.09404
 N3280 N 1.03272 0.73369 1.09890
 N3281 N 1.04210 0.71162 1.10849
 C3282 C 1.06771 0.70867 1.11396
 H3283 H 1.13251 0.78579 1.09288
 H3284 H 1.14974 0.74529 1.10916
 H3285 H 1.03965 0.77118 1.08511
 H3286 H 1.07416 0.68978 1.12028
 C3287 C 1.11838 0.26931 0.59764
 C3288 C 1.12842 0.24615 0.60720
 C3289 C 1.11212 0.22513 0.61324
 C3290 C 1.08513 0.22706 0.60718
 C3291 C 1.07496 0.25068 0.59699
 C3292 C 1.09172 0.27220 0.59293
 C3293 C 1.04851 0.25152 0.58996
 N3294 N 1.03336 0.23022 0.59289
 N3295 N 1.04293 0.20797 0.60185
 C3296 C 1.06826 0.20555 0.60874
 H3297 H 1.13157 0.28538 0.59443
 H3298 H 1.14905 0.24522 0.61131
 H3299 H 1.03980 0.26861 0.58148
 H3300 H 1.07498 0.18652 0.61431
 C3301 C 0.59787 0.75510 0.58240
 C3302 C 0.60823 0.73218 0.59233
 C3303 C 0.61892 0.73143 0.61733
 C3304 C 0.61999 0.75446 0.63233
 C3305 C 0.60938 0.77779 0.62229
 C3306 C 0.59793 0.77790 0.59722
 C3307 C 0.61127 0.80045 0.63747
 N3308 N 0.62296 0.79958 0.66108
 N3309 N 0.63306 0.77769 0.67042
 C3310 C 0.63210 0.75515 0.65682
 H3311 H 0.58946 0.75500 0.56309
 H3312 H 0.60757 0.71471 0.58063
 H3313 H 0.60389 0.81891 0.63071
 H3314 H 0.64120 0.73817 0.66513
 C3315 C 0.61703 0.26883 1.09769
 C3316 C 0.62652 0.24501 1.10612
 C3317 C 0.60965 0.22453 1.11241
 C3318 C 0.58250 0.22777 1.10777
 C3319 C 0.57288 0.25201 1.09852
 C3320 C 0.59033 0.27297 1.09423
 C3321 C 0.54621 0.25400 1.09258
 N3322 N 0.53033 0.23328 1.09582
 N3323 N 0.53935 0.21052 1.10406
 C3324 C 0.56482 0.20696 1.10979
 H3325 H 0.63075 0.28441 1.09426
 H3326 H 0.64727 0.24305 1.10916
 H3327 H 0.53785 0.27152 1.08467
 H3328 H 0.57097 0.18759 1.11482
 C3329 C 1.23095 1.12042 0.90035
 C3330 C 1.25462 1.12991 0.89133
 C3331 C 1.27648 1.11381 0.89013
 C3332 C 1.27475 1.08791 0.89909
 C3333 C 1.25070 1.07822 0.90842
 C3334 C 1.22851 1.09459 0.90856
 C3335 C 1.24992 1.05264 0.91795
 N3336 N 1.27173 1.03784 0.91777
 N3337 N 1.29428 1.04694 0.90894
 C3338 C 1.29657 1.07149 0.89971
 H3339 H 1.21424 1.13324 0.90051
 H3340 H 1.25584 1.14981 0.88467
 H3341 H 1.23234 1.04435 0.92590
 H3342 H 1.31549 1.07802 0.89335
 C3343 C 1.23813 0.61430 0.40726
 C3344 C 1.26226 0.62328 0.39903
 C3345 C 1.28360 0.60648 0.39709
 C3346 C 1.28063 0.58018 0.40441
 C3347 C 1.25605 0.57099 0.41307
 C3348 C 1.23446 0.58818 0.41396
 C3349 C 1.25418 0.54496 0.42111
 N3350 N 1.27535 0.52928 0.42003
 N3351 N 1.29828 0.53790 0.41168
 C3352 C 1.30166 0.56283 0.40392
 H3353 H 1.22196 0.62778 0.40781
 H3354 H 1.26414 0.64342 0.39331
 H3355 H 1.23625 0.53700 0.42859
 H3356 H 1.32082 0.56893 0.39782
 C3357 C 0.74639 1.09966 0.41921
 C3358 C 0.76993 1.10907 0.40972
 C3359 C 0.77180 1.11857 0.38434
 C3360 C 0.74935 1.11953 0.36849
 C3361 C 0.72533 1.11012 0.37813
 C3362 C 0.72406 1.09962 0.40358
 C3363 C 0.70323 1.11221 0.36212
 N3364 N 0.70533 1.12269 0.33805
 N3365 N 0.72794 1.13141 0.32899
 C3366 C 0.74999 1.13030 0.34341
 H3367 H 0.74567 1.09194 0.43878
 H3368 H 0.78700 1.10853 0.42204
 H3369 H 0.68424 1.10599 0.36859
 H3370 H 0.76767 1.13817 0.33527
 C3371 C 0.72913 0.60092 0.88189
 C3372 C 0.75258 0.61011 0.87206
 C3373 C 0.77454 0.61202 0.88798
 C3374 C 0.77308 0.60379 0.91415
 C3375 C 0.74924 0.59421 0.92419
 C3376 C 0.72698 0.59318 0.90792
 C3377 C 0.74880 0.58527 0.95001
 N3378 N 0.77067 0.58630 0.96472
 N3379 N 0.79298 0.59541 0.95529
 C3380 C 0.79496 0.60407 0.93050
 H3381 H 0.71237 0.60014 0.86913
 H3382 H 0.75358 0.61625 0.85196
 H3383 H 0.73145 0.57713 0.95858
 H3384 H 0.81370 0.61072 0.92373
 C3385 C 1.22627 0.87700 1.10182
 C3386 C 1.24880 0.86647 1.11250
 C3387 C 1.27156 0.88123 1.11431
 C3388 C 1.27194 0.90679 1.10420
 C3389 C 1.24901 0.91755 1.09330
 C3390 C 1.22588 0.90258 1.09254
 C3391 C 1.25024 0.94277 1.08288
 N3392 N 1.27291 0.95619 1.08356
 N3393 N 1.29444 0.94603 1.09373
 C3394 C 1.29477 0.92177 1.10394
 H3395 H 1.20880 0.86525 1.10125
 H3396 H 1.24841 0.84682 1.11996
 H3397 H 1.23355 0.95182 1.07387
 H3398 H 1.31297 0.91434 1.11134
 C3399 C 1.24445 0.41468 0.59892
 C3400 C 1.26817 0.40540 0.60807
 C3401 C 1.27046 0.38002 0.61747
 C3402 C 1.24821 0.36389 0.61846
 C3403 C 1.22400 0.37332 0.60921
 C3404 C 1.22231 0.39884 0.59901
 C3405 C 1.20212 0.35704 0.61123
 N3406 N 1.20456 0.33297 0.62160
 N3407 N 1.22730 0.32417 0.63030
 C3408 C 1.24916 0.33883 0.62922
 H3409 H 1.24341 0.43430 0.59140
 H3410 H 1.28505 0.41795 0.60748
 H3411 H 1.18304 0.36330 0.60504
 H3412 H 1.26691 0.33089 0.63714
 C3413 C 0.72968 0.88233 0.60246
 C3414 C 0.75352 0.87289 0.61111
 C3415 C 0.77571 0.88862 0.61082
 C3416 C 0.77397 0.91418 0.60082
 C3417 C 0.74967 0.92386 0.59204
 C3418 C 0.72730 0.90781 0.59322
 C3419 C 0.74878 0.94911 0.58166
 N3420 N 0.77077 0.96356 0.58033
 N3421 N 0.79359 0.95441 0.58846
 C3422 C 0.79597 0.93020 0.59852
 H3423 H 0.71281 0.86976 0.60330
 H3424 H 0.75466 0.85327 0.61857
 H3425 H 0.73094 0.95739 0.57426
 H3426 H 0.81509 0.92361 0.60418
 C3427 C 0.72729 0.37712 1.10232
 C3428 C 0.75036 0.36737 1.11256
 C3429 C 0.77316 0.38220 1.11218
 C3430 C 0.77295 0.40698 1.10025
 C3431 C 0.74942 0.41700 1.08994
 C3432 C 0.72637 0.40201 1.09139
 C3433 C 0.74994 0.44151 1.07790
 N3434 N 0.77258 0.45491 1.07634
 N3435 N 0.79470 0.44538 1.08581
 C3436 C 0.79570 0.42185 1.09758
 H3437 H 0.70984 0.36538 1.10341
 H3438 H 0.75040 0.34828 1.12138
 H3439 H 0.73270 0.44999 1.06939
 H3440 H 0.81434 0.41488 1.10429
 C3441 C 0.76832 1.11906 1.10074
 C3442 C 0.74478 1.12858 1.11011
 C3443 C 0.72255 1.11291 1.11050
 C3444 C 0.72386 1.08738 1.10036
 C3445 C 0.74784 1.07763 1.09082
 C3446 C 0.77033 1.09356 1.09143
 C3447 C 0.74827 1.05242 1.08029
 N3448 N 0.72619 1.03806 1.07958
 N3449 N 0.70369 1.04727 1.08845
 C3450 C 0.70174 1.07146 1.09868
 H3451 H 0.78526 1.13155 1.10119
 H3452 H 0.74393 1.14821 1.11762
 H3453 H 0.76581 1.04410 1.07228
 H3454 H 0.68284 1.07810 1.10496
 C3455 C 0.77074 0.60203 0.61715
 C3456 C 0.74725 0.61139 0.62671
 C3457 C 0.72524 0.61272 0.61076
 C3458 C 0.72675 0.60372 0.58482
 C3459 C 0.75067 0.59407 0.57504
 C3460 C 0.77291 0.59360 0.59135
 C3461 C 0.75124 0.58452 0.54944
 N3462 N 0.72936 0.58493 0.53471
 N3463 N 0.70694 0.59399 0.54392
 C3464 C 0.70485 0.60328 0.56849
 H3465 H 0.78750 0.60167 0.62991
 H3466 H 0.74625 0.61812 0.64662
 H3467 H 0.76871 0.57641 0.54107
 H3468 H 0.68602 0.60983 0.57509
 C3469 C 0.25537 1.08669 0.59968
 C3470 C 0.23235 1.09619 0.61032
 C3471 C 0.23131 1.12109 0.62113
 C3472 C 0.25412 1.13644 0.62200
 C3473 C 0.27759 1.12680 0.61122
 C3474 C 0.27801 1.10182 0.59961
 C3475 C 0.30006 1.14227 0.61315
 N3476 N 0.29886 1.16582 0.62488
 N3477 N 0.27681 1.17483 0.63500
 C3478 C 0.25445 1.16092 0.63407
 H3479 H 0.25547 1.06744 0.59118
 H3480 H 0.21504 1.08425 0.60974
 H3481 H 0.31863 1.13580 0.60578
 H3482 H 0.23732 1.16897 0.64315
 C3483 C 0.25288 0.59998 1.08099
 C3484 C 0.23023 0.61037 1.09157
 C3485 C 0.23030 0.62123 1.11650
 C3486 C 0.25383 0.62259 1.13069
 C3487 C 0.27689 0.61203 1.11998
 C3488 C 0.27617 0.60024 1.09510
 C3489 C 0.30007 0.61419 1.13437
 N3490 N 0.29993 0.62609 1.15788
 N3491 N 0.27826 0.63610 1.16787
 C3492 C 0.25524 0.63486 1.15505
 H3493 H 0.25217 0.59129 1.06183
 H3494 H 0.21234 0.60954 1.08049
 H3495 H 0.31835 0.60685 1.12705
 H3496 H 0.23842 0.64381 1.16387
 C3497 C 0.76977 0.88158 0.89629
 C3498 C 0.74616 0.87206 0.88713
 C3499 C 0.72439 0.88822 0.88532
 C3500 C 0.72620 0.91435 0.89360
 C3501 C 0.75019 0.92407 0.90316
 C3502 C 0.77226 0.90755 0.90410
 C3503 C 0.75097 0.94985 0.91219
 N3504 N 0.72928 0.96480 0.91124
 N3505 N 0.70684 0.95567 0.90213
 C3506 C 0.70452 0.93093 0.89340
 H3507 H 0.78637 0.86865 0.89701
 H3508 H 0.74487 0.85198 0.88100
 H3509 H 0.76845 0.95819 0.92034
 H3510 H 0.68569 0.92441 0.88675
 C3511 C 0.76818 0.38596 0.39717
 C3512 C 0.74397 0.37720 0.38892
 C3513 C 0.72209 0.39337 0.38991
 C3514 C 0.72468 0.41889 0.39979
 C3515 C 0.74941 0.42789 0.40822
 C3516 C 0.77134 0.41122 0.40669
 C3517 C 0.75111 0.45307 0.41867
 N3518 N 0.72953 0.46812 0.42029
 N3519 N 0.70637 0.45963 0.41241
 C3520 C 0.70318 0.43550 0.40235
 H3521 H 0.78469 0.37295 0.39590
 H3522 H 0.74226 0.35761 0.38144
 H3523 H 0.76926 0.46083 0.42586
 H3524 H 0.68384 0.42947 0.39680
 C3525 C 0.24850 0.91409 0.41731
 C3526 C 0.22446 0.90474 0.40893
 C3527 C 0.22212 0.89209 0.38501
 C3528 C 0.24437 0.88857 0.36927
 C3529 C 0.26883 0.89798 0.37775
 C3530 C 0.27079 0.91097 0.40196
 C3531 C 0.29068 0.89330 0.36198
 N3532 N 0.28792 0.88033 0.33921
 N3533 N 0.26489 0.87163 0.33120
 C3534 C 0.24304 0.87524 0.34547
 H3535 H 0.24977 0.92375 0.43598
 H3536 H 0.20755 0.90713 0.42123
 H3537 H 0.30994 0.89954 0.36761
 H3538 H 0.22493 0.86749 0.33816
 C3539 C 0.25692 0.41558 0.89673
 C3540 C 0.23338 0.40568 0.88776
 C3541 C 0.23153 0.38004 0.87897
 C3542 C 0.25406 0.36430 0.87830
 C3543 C 0.27810 0.37437 0.88729
 C3544 C 0.27933 0.40012 0.89703
 C3545 C 0.30028 0.35845 0.88553
 N3546 N 0.29825 0.33410 0.87571
 N3547 N 0.27565 0.32467 0.86733
 C3548 C 0.25352 0.33897 0.86817
 H3549 H 0.25758 0.43534 0.90393
 H3550 H 0.21627 0.41794 0.88806
 H3551 H 0.31927 0.36522 0.89146
 H3552 H 0.23586 0.33050 0.86056
   
