data_POSCAR
  _audit_creation_date              2014-09-24
  _audit_creation_method            'ToBaCCo'
  _symmetry_space_group_name_H-M    'P1'
  _symmetry_Int_Tables_number       1
  _symmetry_cell_setting            triclinic
  loop_
  _symmetry_equiv_pos_as_xyz
 x,y,z
_cell_length_a 75.4787
_cell_length_b 75.4972
_cell_length_c 75.5272
_cell_angle_alpha 89.971200
_cell_angle_beta 89.990300
_cell_angle_gamma 89.995800
loop_
  _atom_site_label
  _atom_site_type_symbol
  _atom_site_fract_x
  _atom_site_fract_y
  _atom_site_fract_z
C1 C 0.19402 0.21868 0.21354
 C2 C 0.20392 0.22365 0.19862
 C3 C 0.21862 0.21387 0.19370
 C4 C 0.22362 0.19898 0.20363
 C5 C 0.21386 0.19408 0.21834
 C6 C 0.19896 0.20399 0.22333
 C7 C 0.17913 0.22568 0.22139
 N8 N 0.17495 0.21559 0.23568
 C9 C 0.18699 0.20230 0.23698
 C10 C 0.22172 0.17919 0.22535
 N11 N 0.23598 0.17498 0.21525
 C12 C 0.23726 0.18700 0.20193
 C13 C 0.22560 0.22170 0.17879
 N14 N 0.21548 0.23597 0.17458
 C15 C 0.20219 0.23727 0.18663
 H16 H 0.17187 0.23725 0.21702
 H17 H 0.18704 0.19214 0.24710
 H18 H 0.21737 0.17196 0.23695
 H19 H 0.24736 0.18701 0.19175
 H20 H 0.23717 0.21734 0.17153
 H21 H 0.19201 0.24738 0.18666
 C22 C 0.69401 0.71861 0.71375
 C23 C 0.70390 0.72359 0.69884
 C24 C 0.71860 0.71381 0.69390
 C25 C 0.72360 0.69891 0.70382
 C26 C 0.71384 0.69400 0.71853
 C27 C 0.69894 0.70391 0.72353
 C28 C 0.67911 0.72560 0.72160
 N29 N 0.67492 0.71550 0.73588
 C30 C 0.68697 0.70220 0.73717
 C31 C 0.72169 0.67910 0.72552
 N32 N 0.73595 0.67489 0.71541
 C33 C 0.73723 0.68693 0.70210
 C34 C 0.72558 0.72165 0.67900
 N35 N 0.71546 0.73592 0.67480
 C36 C 0.70218 0.73722 0.68685
 H37 H 0.67185 0.73718 0.71725
 H38 H 0.68702 0.69203 0.74728
 H39 H 0.71734 0.67185 0.73710
 H40 H 0.74733 0.68695 0.69192
 H41 H 0.73715 0.71729 0.67173
 H42 H 0.69200 0.74733 0.68689
 C43 C 0.30546 0.78160 0.71395
 C44 C 0.29556 0.77664 0.69905
 C45 C 0.28089 0.78645 0.69410
 C46 C 0.27592 0.80136 0.70399
 C47 C 0.28569 0.80626 0.71869
 C48 C 0.30056 0.79631 0.72371
 C49 C 0.32033 0.77457 0.72182
 N50 N 0.32454 0.78466 0.73609
 C51 C 0.31252 0.79799 0.73735
 C52 C 0.27787 0.82117 0.72567
 N53 N 0.26359 0.82544 0.71556
 C54 C 0.26231 0.81338 0.70226
 C55 C 0.27390 0.77861 0.67921
 N56 N 0.28398 0.76431 0.67503
 C57 C 0.29726 0.76299 0.68709
 H58 H 0.32756 0.76297 0.71748
 H59 H 0.31250 0.80817 0.74745
 H60 H 0.28228 0.82838 0.73726
 H61 H 0.25223 0.81332 0.69205
 H62 H 0.26234 0.78300 0.67194
 H63 H 0.30741 0.75286 0.68714
 C64 C 0.80633 0.28135 0.21382
 C65 C 0.79647 0.27635 0.19890
 C66 C 0.78176 0.28611 0.19394
 C67 C 0.77673 0.30100 0.20383
 C68 C 0.78646 0.30593 0.21855
 C69 C 0.80136 0.29603 0.22358
 C70 C 0.82121 0.27436 0.22170
 N71 N 0.82539 0.28446 0.23601
 C72 C 0.81329 0.29775 0.23724
 C73 C 0.77857 0.32080 0.22552
 N74 N 0.76431 0.32500 0.21539
 C75 C 0.76307 0.31296 0.20209
 C76 C 0.77481 0.27826 0.17904
 N77 N 0.78495 0.26399 0.17486
 C78 C 0.79822 0.26272 0.18693
 H79 H 0.82846 0.26278 0.21732
 H80 H 0.81317 0.30795 0.24733
 H81 H 0.78289 0.32806 0.23711
 H82 H 0.75299 0.31292 0.19190
 H83 H 0.76325 0.28260 0.17176
 H84 H 0.80841 0.25262 0.18700
 C85 C 0.80650 0.71889 0.28555
 C86 C 0.79660 0.72392 0.30044
 C87 C 0.78189 0.71416 0.30540
 C88 C 0.77689 0.69925 0.29554
 C89 C 0.78666 0.69428 0.28085
 C90 C 0.80156 0.70418 0.27583
 C91 C 0.82139 0.72587 0.27768
 N92 N 0.82561 0.71573 0.26341
 C93 C 0.81353 0.70243 0.26219
 C94 C 0.77879 0.67938 0.27391
 N95 N 0.76452 0.67521 0.28403
 C96 C 0.76324 0.68728 0.29729
 C97 C 0.77490 0.72205 0.32027
 N98 N 0.78501 0.73633 0.32442
 C99 C 0.79831 0.73759 0.31238
 H100 H 0.82862 0.73747 0.28204
 H101 H 0.81343 0.69221 0.25213
 H102 H 0.78314 0.67210 0.26235
 H103 H 0.75314 0.68735 0.30746
 H104 H 0.76332 0.71771 0.32753
 H105 H 0.80848 0.74770 0.31232
 C106 C 0.30616 0.21850 -0.21410
 C107 C 0.29619 0.22356 -0.19927
 C108 C 0.28148 0.21379 -0.19435
 C109 C 0.27654 0.19884 -0.20419
 C110 C 0.28638 0.19385 -0.21881
 C111 C 0.30129 0.20375 -0.22380
 C112 C 0.32108 0.22548 -0.22192
 N113 N 0.32538 0.21531 -0.23615
 C114 C 0.31332 0.20198 -0.23738
 C115 C 0.27857 0.17892 -0.22576
 N116 N 0.26423 0.17473 -0.21569
 C117 C 0.26290 0.18686 -0.20246
 C118 C 0.27441 0.22171 -0.17953
 N119 N 0.28449 0.23602 -0.17537
 C120 C 0.29784 0.23726 -0.18737
 H121 H 0.32827 0.23710 -0.21756
 H122 H 0.31329 0.19173 -0.24741
 H123 H 0.28302 0.17165 -0.23729
 H124 H 0.25277 0.18699 -0.19230
 H125 H 0.26281 0.21738 -0.17230
 H126 H 0.30800 0.24737 -0.18742
 C127 C 0.69403 0.28128 -0.21405
 C128 C 0.70398 0.27626 -0.19919
 C129 C 0.71869 0.28603 -0.19429
 C130 C 0.72366 0.30095 -0.20418
 C131 C 0.71384 0.30591 -0.21884
 C132 C 0.69893 0.29601 -0.22380
 C133 C 0.67912 0.27429 -0.22187
 N134 N 0.67485 0.28442 -0.23614
 C135 C 0.68692 0.29775 -0.23741
 C136 C 0.72167 0.32082 -0.22582
 N137 N 0.73600 0.32502 -0.21575
 C138 C 0.73730 0.31292 -0.20248
 C139 C 0.72574 0.27814 -0.17944
 N140 N 0.71565 0.26385 -0.17525
 C141 C 0.70232 0.26259 -0.18725
 H142 H 0.67193 0.26269 -0.21747
 H143 H 0.68697 0.30797 -0.24748
 H144 H 0.71724 0.32807 -0.23738
 H145 H 0.74742 0.31281 -0.19231
 H146 H 0.73734 0.28248 -0.17222
 H147 H 0.69215 0.25247 -0.18727
 C148 C 0.19395 0.78157 0.28584
 C149 C 0.20381 0.77656 0.30076
 C150 C 0.21850 0.78632 0.30573
 C151 C 0.22353 0.80123 0.29585
 C152 C 0.21380 0.80617 0.28113
 C153 C 0.19891 0.79628 0.27609
 C154 C 0.17907 0.77459 0.27795
 N155 N 0.17492 0.78471 0.26367
 C156 C 0.18697 0.79800 0.26242
 C157 C 0.22168 0.82107 0.27416
 N158 N 0.23596 0.82527 0.28430
 C159 C 0.23718 0.81319 0.29760
 C160 C 0.22545 0.77845 0.32063
 N161 N 0.21532 0.76417 0.32479
 C162 C 0.20206 0.76291 0.31272
 H163 H 0.17180 0.76301 0.28227
 H164 H 0.18704 0.80818 0.25232
 H165 H 0.21732 0.82830 0.26257
 H166 H 0.24724 0.81308 0.30783
 H167 H 0.23701 0.78279 0.32792
 H168 H 0.19188 0.75280 0.31265
 C169 C 0.46861 0.44389 0.46414
 C170 C 0.47362 0.45380 0.44925
 C171 C 0.46384 0.46850 0.44431
 C172 C 0.44893 0.47349 0.45419
 C173 C 0.44398 0.46371 0.46889
 C174 C 0.45389 0.44881 0.47389
 C175 C 0.47560 0.42900 0.47201
 N176 N 0.46547 0.42480 0.48627
 C177 C 0.45217 0.43684 0.48753
 C178 C 0.42908 0.47156 0.47586
 N179 N 0.42489 0.48584 0.46575
 C180 C 0.43695 0.48713 0.45247
 C181 C 0.47172 0.47550 0.42943
 N182 N 0.48601 0.46540 0.42525
 C183 C 0.48728 0.45210 0.43730
 H184 H 0.48719 0.42175 0.46768
 H185 H 0.44198 0.43688 0.49763
 H186 H 0.42181 0.46721 0.48743
 H187 H 0.43700 0.49724 0.44229
 H188 H 0.46737 0.48708 0.42217
 H189 H 0.49740 0.44193 0.43735
 C190 C -0.03136 -0.05627 0.96400
 C191 C -0.02630 -0.04631 0.94915
 C192 C -0.03604 -0.03158 0.94425
 C193 C -0.05096 -0.02660 0.95412
 C194 C -0.05596 -0.03642 0.96876
 C195 C -0.04609 -0.05136 0.97374
 C196 C -0.02441 -0.07120 0.97182
 N197 N -0.03456 -0.07546 0.98607
 C198 C -0.04786 -0.06337 0.98733
 C199 C -0.07086 -0.02857 0.97574
 N200 N -0.07503 -0.01422 0.96568
 C201 C -0.06290 -0.01292 0.95241
 C202 C -0.02812 -0.02454 0.92941
 N203 N -0.01384 -0.03465 0.92523
 C204 C -0.01262 -0.04800 0.93722
 H205 H -0.01281 -0.07841 0.96744
 H206 H -0.05810 -0.06331 0.99738
 H207 H -0.07813 -0.03299 0.98729
 H208 H -0.06276 -0.00280 0.94225
 H209 H -0.03243 -0.01292 0.92219
 H210 H -0.00252 -0.05819 0.93726
 C211 C 1.03134 0.55615 0.96413
 C212 C 1.02631 0.54621 0.94927
 C213 C 1.03609 0.53151 0.94435
 C214 C 1.05104 0.52656 0.95421
 C215 C 1.05600 0.53636 0.96886
 C216 C 1.04608 0.55126 0.97385
 C217 C 1.02434 0.57103 0.97197
 N218 N 1.03448 0.57530 0.98622
 C219 C 1.04782 0.56325 0.98746
 C220 C 1.07093 0.52854 0.97582
 N221 N 1.07513 0.51422 0.96574
 C222 C 1.06302 0.51292 0.95248
 C223 C 1.02820 0.52447 0.92951
 N224 N 1.01389 0.53454 0.92534
 C225 C 1.01262 0.54787 0.93735
 H226 H 1.01271 0.57822 0.96759
 H227 H 1.05805 0.56320 0.99752
 H228 H 1.07818 0.53296 0.98738
 H229 H 1.06290 0.50282 0.94231
 H230 H 1.03255 0.51288 0.92228
 H231 H 1.00249 0.55802 0.93740
 C232 C 0.53163 0.05577 0.46422
 C233 C 0.52659 0.04588 0.44934
 C234 C 0.53637 0.03120 0.44436
 C235 C 0.55132 0.02621 0.45420
 C236 C 0.55629 0.03597 0.46888
 C237 C 0.54638 0.05085 0.47392
 C238 C 0.52464 0.07064 0.47211
 N239 N 0.53480 0.07483 0.48635
 C240 C 0.54812 0.06280 0.48756
 C241 C 0.57122 0.02812 0.47581
 N242 N 0.57542 0.01384 0.46568
 C243 C 0.56330 0.01258 0.45243
 C244 C 0.52846 0.02420 0.42951
 N245 N 0.51415 0.03429 0.42538
 C246 C 0.51289 0.04758 0.43743
 H247 H 0.51303 0.07788 0.46782
 H248 H 0.55834 0.06277 0.49763
 H249 H 0.57848 0.03252 0.48737
 H250 H 0.56318 0.00251 0.44223
 H251 H 0.53280 0.01264 0.42223
 H252 H 0.50277 0.05773 0.43751
 C253 C -0.03128 0.05628 0.53644
 C254 C -0.02627 0.04639 0.55135
 C255 C -0.03603 0.03168 0.55629
 C256 C -0.05093 0.02666 0.54639
 C257 C -0.05586 0.03642 0.53168
 C258 C -0.04597 0.05133 0.52668
 C259 C -0.02430 0.07118 0.52858
 N260 N -0.03441 0.07536 0.51430
 C261 C -0.04770 0.06330 0.51303
 C262 C -0.07074 0.02855 0.52469
 N263 N -0.07493 0.01427 0.53480
 C264 C -0.06289 0.01301 0.54810
 C265 C -0.02817 0.02470 0.57118
 N266 N -0.01390 0.03483 0.57537
 C267 C -0.01264 0.04812 0.56332
 H268 H -0.01273 0.07846 0.53292
 H269 H -0.05787 0.06324 0.50293
 H270 H -0.07800 0.03289 0.51311
 H271 H -0.06285 0.00290 0.55828
 H272 H -0.03251 0.01312 0.57844
 H273 H -0.00254 0.05831 0.56327
 C274 C 0.46853 0.55633 0.03602
 C275 C 0.47351 0.54643 0.05093
 C276 C 0.46373 0.53173 0.05585
 C277 C 0.44885 0.52673 0.04593
 C278 C 0.44394 0.53650 0.03123
 C279 C 0.45384 0.55140 0.02624
 C280 C 0.47554 0.57123 0.02817
 N281 N 0.46545 0.57544 0.01386
 C282 C 0.45214 0.56337 0.01259
 C283 C 0.42905 0.52864 0.02422
 N284 N 0.42484 0.51437 0.03432
 C285 C 0.43687 0.51308 0.04763
 C286 C 0.47157 0.52473 0.07074
 N287 N 0.48585 0.53484 0.07495
 C288 C 0.48714 0.54814 0.06291
 H289 H 0.48712 0.57845 0.03257
 H290 H 0.44195 0.56328 0.00250
 H291 H 0.42181 0.53300 0.01263
 H292 H 0.43690 0.50297 0.05780
 H293 H 0.46722 0.51315 0.07800
 H294 H 0.49725 0.55832 0.06288
 C295 C 0.53154 -0.05608 0.03641
 C296 C 0.52657 -0.04621 0.05133
 C297 C 0.53637 -0.03153 0.05627
 C298 C 0.55126 -0.02652 0.04635
 C299 C 0.55616 -0.03627 0.03163
 C300 C 0.54623 -0.05115 0.02663
 C301 C 0.52452 -0.07095 0.02855
 N302 N 0.53460 -0.07513 0.01426
 C303 C 0.54791 -0.06309 0.01297
 C304 C 0.57105 -0.02841 0.02463
 N305 N 0.57528 -0.01416 0.03475
 C306 C 0.56325 -0.01290 0.04806
 C307 C 0.52854 -0.02456 0.07118
 N308 N 0.51426 -0.03467 0.07538
 C309 C 0.51295 -0.04794 0.06332
 H310 H 0.51294 -0.07821 0.03291
 H311 H 0.55807 -0.06304 0.00285
 H312 H 0.57828 -0.03275 0.01303
 H313 H 0.56324 -0.00281 0.05825
 H314 H 0.53291 -0.01300 0.07845
 H315 H 0.50283 -0.05810 0.06328
 C316 C 1.03149 0.44433 0.53618
 C317 C 1.02654 0.45416 0.55113
 C318 C 1.03632 0.46884 0.55609
 C319 C 1.05119 0.47389 0.54617
 C320 C 1.05608 0.46420 0.53142
 C321 C 1.04617 0.44932 0.52639
 C322 C 1.02448 0.42948 0.52829
 N323 N 1.03455 0.42536 0.51397
 C324 C 1.04785 0.43741 0.51270
 C325 C 1.07095 0.47209 0.52441
 N326 N 1.07520 0.48634 0.53456
 C327 C 1.06317 0.48753 0.54791
 C328 C 1.02850 0.47576 0.57103
 N329 N 1.01423 0.46563 0.57522
 C330 C 1.01293 0.45239 0.56313
 H331 H 1.01292 0.42220 0.53264
 H332 H 1.05800 0.43750 0.50256
 H333 H 1.07814 0.46774 0.51278
 H334 H 1.06310 0.49757 0.55815
 H335 H 1.03286 0.48731 0.57832
 H336 H 1.00282 0.44221 0.56307
 C337 C 0.40203 0.00789 0.22664
 H338 H 0.40271 0.01990 0.23442
 C339 C 0.41363 0.00542 0.21246
 H340 H 0.42317 0.01568 0.20939
 C341 C 0.38884 -0.02011 0.22148
 H342 H 0.37936 -0.03015 0.22519
 C343 C 0.40019 -0.02314 0.20719
 H344 H 0.39913 -0.03548 0.19997
 N345 N 0.38981 -0.00469 0.23074
 C346 C 0.34778 0.02355 0.25856
 H347 H 0.34702 0.01579 0.27058
 C348 C 0.33626 0.03780 0.25601
 H349 H 0.32670 0.04093 0.26623
 C350 C 0.36107 0.02860 0.23059
 H351 H 0.37056 0.02481 0.22058
 C352 C 0.34981 0.04294 0.22749
 H353 H 0.35094 0.05013 0.21513
 Zn354 Zn 0.37485 -0.00038 0.25040
 N355 N 0.36001 0.01936 0.24602
 C356 C 0.38866 0.01934 0.27940
 N357 N 0.38966 0.00391 0.27017
 C358 C 0.40182 -0.00869 0.27438
 C359 C 0.41334 -0.00621 0.28862
 C360 C 0.39993 0.02238 0.29374
 C361 C 0.34779 -0.02424 0.24202
 C362 C 0.33621 -0.03845 0.24445
 C363 C 0.34952 -0.04367 0.27307
 C364 C 0.36085 -0.02935 0.27008
 N365 N 0.35993 -0.02010 0.25465
 H366 H 0.37922 0.02940 0.27561
 H367 H 0.40253 -0.02072 0.26662
 H368 H 0.42285 -0.01648 0.29176
 H369 H 0.39886 0.03475 0.30092
 H370 H 0.34715 -0.01646 0.22999
 H371 H 0.32673 -0.04155 0.23416
 H372 H 0.35053 -0.05088 0.28543
 H373 H 0.37027 -0.02561 0.28016
 C374 C 0.33721 0.04775 0.24032
 C375 C 0.41277 -0.01025 0.20247
 C376 C 0.33701 -0.04843 0.26014
 C377 C 0.41247 0.00949 0.29856
 C378 C 0.09839 -0.00796 0.72651
 H379 H 0.09769 -0.01997 0.73429
 C380 C 0.08680 -0.00546 0.71232
 H381 H 0.07725 -0.01571 0.70925
 C382 C 0.11159 0.02004 0.72136
 H383 H 0.12107 0.03008 0.72508
 C384 C 0.10026 0.02309 0.70706
 H385 H 0.10132 0.03544 0.69985
 N386 N 0.11061 0.00462 0.73062
 C387 C 0.15260 -0.02367 0.75846
 H388 H 0.15336 -0.01592 0.77049
 C389 C 0.16411 -0.03793 0.75593
 H390 H 0.17366 -0.04108 0.76616
 C391 C 0.13933 -0.02869 0.73049
 H392 H 0.12986 -0.02490 0.72048
 C393 C 0.15059 -0.04305 0.72740
 H394 H 0.14946 -0.05023 0.71505
 Zn395 Zn 0.12555 0.00028 0.75029
 N396 N 0.14039 -0.01947 0.74592
 C397 C 0.11170 -0.01948 0.77927
 N398 N 0.11071 -0.00403 0.77005
 C399 C 0.09855 0.00857 0.77425
 C400 C 0.08701 0.00607 0.78848
 C401 C 0.10042 -0.02254 0.79361
 C402 C 0.15262 0.02414 0.74193
 C403 C 0.16420 0.03835 0.74438
 C404 C 0.15086 0.04353 0.77299
 C405 C 0.13953 0.02922 0.76998
 N406 N 0.14047 0.01998 0.75455
 H407 H 0.12113 -0.02954 0.77548
 H408 H 0.09785 0.02061 0.76650
 H409 H 0.07751 0.01634 0.79162
 H410 H 0.10148 -0.03491 0.80078
 H411 H 0.15328 0.01638 0.72991
 H412 H 0.17369 0.04146 0.73409
 H413 H 0.14983 0.05072 0.78535
 H414 H 0.13010 0.02546 0.78006
 C415 C 0.16316 -0.04788 0.74024
 C416 C 0.08767 0.01022 0.70234
 C417 C 0.16338 0.04831 0.76007
 C418 C 0.08788 -0.00965 0.79842
 C419 C 0.59795 0.49189 0.22619
 H420 H 0.59726 0.47986 0.23396
 C421 C 0.58638 0.49439 0.21199
 H422 H 0.57685 0.48413 0.20889
 C423 C 0.61114 0.51990 0.22109
 H424 H 0.62061 0.52994 0.22484
 C425 C 0.59982 0.52296 0.20678
 H426 H 0.60089 0.53532 0.19959
 N427 N 0.61016 0.50447 0.23033
 C428 C 0.65216 0.47625 0.25824
 H429 H 0.65289 0.48402 0.27025
 C430 C 0.66370 0.46202 0.25574
 H431 H 0.67325 0.45891 0.26597
 C432 C 0.63891 0.47115 0.23027
 H433 H 0.62943 0.47491 0.22024
 C434 C 0.65021 0.45682 0.22721
 H435 H 0.64911 0.44962 0.21486
 Zn436 Zn 0.62508 0.50014 0.25002
 N437 N 0.63994 0.48040 0.24568
 C438 C 0.61124 0.48039 0.27901
 N439 N 0.61024 0.49583 0.26978
 C440 C 0.59807 0.50843 0.27398
 C441 C 0.58655 0.50593 0.28822
 C442 C 0.59997 0.47734 0.29335
 C443 C 0.65215 0.52398 0.24166
 C444 C 0.66373 0.53820 0.24410
 C445 C 0.65037 0.54342 0.27269
 C446 C 0.63904 0.52911 0.26969
 N447 N 0.63999 0.51985 0.25428
 H448 H 0.62067 0.47034 0.27521
 H449 H 0.59736 0.52046 0.26622
 H450 H 0.57704 0.51620 0.29137
 H451 H 0.60104 0.46497 0.30054
 H452 H 0.65282 0.51621 0.22965
 H453 H 0.67323 0.54129 0.23382
 H454 H 0.64933 0.55064 0.28504
 H455 H 0.62960 0.52537 0.27977
 C456 C 0.66279 0.45205 0.24006
 C457 C 0.58726 0.51009 0.20202
 C458 C 0.66290 0.54818 0.25978
 C459 C 0.58743 0.49022 0.29817
 C460 C 0.90197 0.50778 0.72657
 H461 H 0.90263 0.51978 0.73436
 C462 C 0.91358 0.50534 0.71239
 H463 H 0.92311 0.51562 0.70934
 C464 C 0.88882 0.47977 0.72136
 H465 H 0.87935 0.46971 0.72506
 C466 C 0.90018 0.47677 0.70708
 H467 H 0.89914 0.46444 0.69984
 N468 N 0.88977 0.49518 0.73064
 C469 C 0.84766 0.52333 0.75845
 H470 H 0.84690 0.51555 0.77046
 C471 C 0.83614 0.53757 0.75592
 H472 H 0.82657 0.54068 0.76613
 C473 C 0.86099 0.52844 0.73050
 H474 H 0.87049 0.52468 0.72050
 C475 C 0.84971 0.54278 0.72742
 H476 H 0.85085 0.55000 0.71508
 Zn477 Zn 0.87478 0.49945 0.75029
 N478 N 0.85991 0.51918 0.74592
 C479 C 0.88853 0.51919 0.77930
 N480 N 0.88956 0.50376 0.77009
 C481 C 0.90174 0.49117 0.77431
 C482 C 0.91324 0.49368 0.78856
 C483 C 0.89978 0.52226 0.79366
 C484 C 0.84776 0.47557 0.74187
 C485 C 0.83619 0.46135 0.74429
 C486 C 0.84947 0.45612 0.77292
 C487 C 0.86079 0.47045 0.76994
 N488 N 0.85988 0.47971 0.75451
 H489 H 0.87909 0.52924 0.77549
 H490 H 0.90247 0.47914 0.76656
 H491 H 0.92276 0.48343 0.79172
 H492 H 0.89868 0.53463 0.80083
 H493 H 0.84712 0.48335 0.72985
 H494 H 0.82671 0.45825 0.73399
 H495 H 0.85048 0.44891 0.78527
 H496 H 0.87020 0.47420 0.78003
 C497 C 0.83710 0.54756 0.74024
 C498 C 0.91275 0.48968 0.70238
 C499 C 0.83698 0.45136 0.75998
 C500 C 0.91233 0.50939 0.79849
 C501 C 0.22572 0.40242 0.00791
 H502 H 0.23352 0.40306 0.01991
 C503 C 0.21150 0.41400 0.00550
 H504 H 0.20843 0.42349 0.01580
 C505 C 0.22055 0.38937 -0.02014
 H506 H 0.22428 0.37995 -0.03022
 C507 C 0.20623 0.40070 -0.02310
 H508 H 0.19900 0.39970 -0.03544
 N509 N 0.22984 0.39028 -0.00473
 C510 C 0.25789 0.34820 0.02322
 H511 H 0.26989 0.34752 0.01542
 C512 C 0.25545 0.33660 0.03742
 H513 H 0.26572 0.32706 0.04046
 C514 C 0.22989 0.36138 0.02844
 H515 H 0.21984 0.37085 0.02475
 C516 C 0.22689 0.35003 0.04274
 H517 H 0.21456 0.35108 0.04999
 Zn518 Zn 0.24957 0.37537 -0.00053
 N519 N 0.24530 0.36041 0.01915
 C520 C 0.27859 0.38915 0.01921
 N521 N 0.26932 0.39022 0.00380
 C522 C 0.27347 0.40245 -0.00875
 C523 C 0.28771 0.41398 -0.00624
 C524 C 0.29293 0.40043 0.02227
 C525 C 0.24123 0.34840 -0.02449
 C526 C 0.24371 0.33688 -0.03873
 C527 C 0.27231 0.35030 -0.04389
 C528 C 0.26927 0.36157 -0.02955
 N529 N 0.25384 0.36057 -0.02031
 H530 H 0.27483 0.37966 0.02922
 H531 H 0.26569 0.40321 -0.02075
 H532 H 0.29082 0.42354 -0.01647
 H533 H 0.30015 0.39930 0.03460
 H534 H 0.22921 0.34769 -0.01672
 H535 H 0.23345 0.32737 -0.04185
 H536 H 0.28467 0.35137 -0.05109
 H537 H 0.27933 0.37100 -0.02578
 C538 C 0.23979 0.33745 0.04744
 C539 C 0.20150 0.41321 -0.01017
 C540 C 0.25942 0.33776 -0.04868
 C541 C 0.29770 0.41303 0.00943
 C542 C 0.72679 0.09762 -0.00832
 H543 H 0.73456 0.09688 -0.02033
 C544 C 0.71255 0.08610 -0.00579
 H545 H 0.70942 0.07655 -0.01602
 C546 C 0.72171 0.11088 0.01965
 H547 H 0.72548 0.12036 0.02966
 C548 C 0.70736 0.09961 0.02273
 H549 H 0.70016 0.10073 0.03507
 N550 N 0.73096 0.10984 0.00423
 C551 C 0.75897 0.15169 -0.02412
 H552 H 0.77101 0.15241 -0.01638
 C553 C 0.75646 0.16322 -0.03836
 H554 H 0.76672 0.17273 -0.04151
 C555 C 0.73093 0.13852 -0.02912
 H556 H 0.72088 0.12908 -0.02531
 C557 C 0.72786 0.14979 -0.04346
 H558 H 0.71549 0.14872 -0.05063
 Zn559 Zn 0.75070 0.12470 -0.00014
 N560 N 0.74638 0.13952 -0.01990
 C561 C 0.77967 0.11073 -0.01983
 N562 N 0.77042 0.10980 -0.00440
 C563 C 0.77457 0.09764 0.00822
 C564 C 0.78879 0.08607 0.00577
 C565 C 0.79399 0.09941 -0.02284
 C566 C 0.74242 0.15183 0.02364
 C567 C 0.74489 0.16341 0.03784
 C568 C 0.77346 0.14998 0.04309
 C569 C 0.77043 0.13865 0.02879
 N570 N 0.75501 0.13963 0.01953
 H571 H 0.77591 0.12016 -0.02991
 H572 H 0.76681 0.09698 0.02025
 H573 H 0.79189 0.07657 0.01606
 H574 H 0.80118 0.10044 -0.03520
 H575 H 0.73040 0.15252 0.01587
 H576 H 0.73462 0.17294 0.04092
 H577 H 0.78581 0.14892 0.05030
 H578 H 0.78048 0.12919 0.02506
 C579 C 0.74074 0.16233 -0.04829
 C580 C 0.70257 0.08703 0.00989
 C581 C 0.76057 0.16254 0.04782
 C582 C 0.79875 0.08689 -0.00993
 C583 C 0.22573 0.59794 0.49179
 H584 H 0.23351 0.59723 0.47978
 C585 C 0.21150 0.58639 0.49429
 H586 H 0.20840 0.57685 0.48404
 C587 C 0.22061 0.61115 0.51978
 H588 H 0.22436 0.62061 0.52981
 C589 C 0.20628 0.59985 0.52283
 H590 H 0.19907 0.60093 0.53517
 N591 N 0.22987 0.61014 0.50436
 C592 C 0.25791 0.65206 0.47614
 H593 H 0.26992 0.65278 0.48392
 C594 C 0.25544 0.66360 0.46191
 H595 H 0.26570 0.67313 0.45880
 C596 C 0.22990 0.63887 0.47104
 H597 H 0.21984 0.62942 0.47480
 C598 C 0.22687 0.65016 0.45670
 H599 H 0.21452 0.64908 0.44949
 Zn600 Zn 0.24961 0.62502 0.50005
 N601 N 0.24532 0.63988 0.48030
 C602 C 0.27861 0.61112 0.48036
 N603 N 0.26935 0.61014 0.49578
 C604 C 0.27351 0.59797 0.50839
 C605 C 0.28775 0.58643 0.50594
 C606 C 0.29295 0.59982 0.47735
 C607 C 0.24128 0.65211 0.52386
 C608 C 0.24374 0.66368 0.53807
 C609 C 0.27232 0.65027 0.54332
 C610 C 0.26930 0.63895 0.52901
 N611 N 0.25388 0.63993 0.51975
 H612 H 0.27485 0.62055 0.47030
 H613 H 0.26573 0.59729 0.52041
 H614 H 0.29085 0.57692 0.51621
 H615 H 0.30016 0.60088 0.46500
 H616 H 0.22926 0.65280 0.51608
 H617 H 0.23346 0.67320 0.54115
 H618 H 0.28467 0.64922 0.55053
 H619 H 0.27937 0.62950 0.52528
 C620 C 0.23975 0.66272 0.45192
 C621 C 0.20152 0.58728 0.50996
 C622 C 0.25942 0.66283 0.54805
 C623 C 0.29772 0.58728 0.49025
 C624 C 0.72604 0.90220 0.50799
 H625 H 0.73380 0.90285 0.52002
 C626 C 0.71182 0.91376 0.50553
 H627 H 0.70869 0.92323 0.51582
 C628 C 0.72099 0.88913 0.47993
 H629 H 0.72476 0.87972 0.46985
 C630 C 0.70666 0.90045 0.47691
 H631 H 0.69947 0.89943 0.46455
 N632 N 0.73022 0.89006 0.49536
 C633 C 0.75820 0.84801 0.52344
 H634 H 0.77023 0.84734 0.51569
 C635 C 0.75570 0.83643 0.53764
 H636 H 0.76597 0.82690 0.54074
 C637 C 0.73016 0.86117 0.52854
 H638 H 0.72011 0.87063 0.52479
 C639 C 0.72711 0.84983 0.54284
 H640 H 0.71475 0.85088 0.55003
 Zn641 Zn 0.74995 0.87517 0.49965
 N642 N 0.74561 0.86021 0.51931
 C643 C 0.77888 0.88898 0.51949
 N644 N 0.76966 0.89004 0.50405
 C645 C 0.77385 0.90228 0.49152
 C646 C 0.78807 0.91381 0.49408
 C647 C 0.79320 0.90026 0.52260
 C648 C 0.74173 0.84821 0.47564
 C649 C 0.74427 0.83672 0.46138
 C650 C 0.77286 0.85017 0.45633
 C651 C 0.76977 0.86141 0.47068
 N652 N 0.75431 0.86038 0.47988
 H653 H 0.77510 0.87948 0.52949
 H654 H 0.76610 0.90303 0.47949
 H655 H 0.79120 0.92338 0.48386
 H656 H 0.80038 0.89914 0.53496
 H657 H 0.72968 0.84747 0.48337
 H658 H 0.73402 0.82720 0.45821
 H659 H 0.78525 0.85127 0.44918
 H660 H 0.77981 0.87085 0.47451
 C661 C 0.74000 0.83728 0.54760
 C662 C 0.70187 0.91295 0.48983
 C663 C 0.76000 0.83763 0.45147
 C664 C 0.79801 0.91287 0.50978
 C665 C 0.00808 0.22657 0.40190
 H666 H 0.02009 0.23436 0.40257
 C667 C 0.00563 0.21237 0.41349
 H668 H 0.01591 0.20931 0.42301
 C669 C -0.01995 0.22139 0.38877
 H670 H -0.03001 0.22511 0.37932
 C671 C -0.02295 0.20709 0.40011
 H672 H -0.03529 0.19986 0.39907
 N673 N -0.00453 0.23067 0.38972
 C674 C 0.02361 0.25860 0.34768
 H675 H 0.01583 0.27061 0.34695
 C676 C 0.03783 0.25609 0.33613
 H677 H 0.04093 0.26633 0.32658
 C678 C 0.02872 0.23061 0.36093
 H679 H 0.02497 0.22058 0.37041
 C680 C 0.04305 0.22755 0.34964
 H681 H 0.05026 0.21520 0.35074
 Zn682 Zn -0.00026 0.25036 0.37478
 N683 N 0.01946 0.24603 0.35990
 C684 C 0.01947 0.27938 0.38856
 N685 N 0.00404 0.27013 0.38959
 C686 C -0.00854 0.27430 0.40177
 C687 C -0.00605 0.28854 0.41329
 C688 C 0.02252 0.29372 0.39983
 C689 C -0.02416 0.24199 0.34777
 C690 C -0.03839 0.24443 0.33622
 C691 C -0.04361 0.27304 0.34956
 C692 C -0.02927 0.27003 0.36086
 N693 N -0.02001 0.25461 0.35991
 H694 H 0.02952 0.27560 0.37911
 H695 H -0.02057 0.26653 0.40250
 H696 H -0.01631 0.29166 0.42281
 H697 H 0.03488 0.30092 0.39874
 H698 H -0.01638 0.22997 0.34710
 H699 H -0.04149 0.23414 0.32673
 H700 H -0.05082 0.28539 0.35059
 H701 H -0.02552 0.28011 0.37027
 C702 C 0.04781 0.24041 0.33705
 C703 C -0.01004 0.20237 0.41266
 C704 C -0.04837 0.26012 0.33704
 C705 C 0.00965 0.29851 0.41239
 C706 C -0.00843 0.72593 0.09747
 H707 H -0.02047 0.73367 0.09677
 C708 C -0.00593 0.71169 0.08596
 H709 H -0.01620 0.70853 0.07646
 C710 C 0.01962 0.72093 0.11061
 H711 H 0.02968 0.72473 0.12003
 C712 C 0.02268 0.70658 0.09935
 H713 H 0.03506 0.69941 0.10042
 N714 N 0.00417 0.73014 0.10962
 C715 C -0.02399 0.75821 0.15153
 H716 H -0.01622 0.77024 0.15219
 C717 C -0.03820 0.75575 0.16311
 H718 H -0.04129 0.76603 0.17261
 C719 C -0.02911 0.73017 0.13843
 H720 H -0.02536 0.72011 0.12899
 C721 C -0.04342 0.72715 0.14977
 H722 H -0.05062 0.71479 0.14874
 Zn723 Zn -0.00015 0.74990 0.12445
 N724 N -0.01986 0.74560 0.13937
 C725 C -0.01994 0.77883 0.11054
 N726 N -0.00449 0.76960 0.10954
 C727 C 0.00808 0.77376 0.09734
 C728 C 0.00557 0.78799 0.08579
 C729 C -0.02300 0.79315 0.09924
 C730 C 0.02377 0.74168 0.15150
 C731 C 0.03800 0.74420 0.16303
 C732 C 0.04317 0.77276 0.14955
 C733 C 0.02883 0.76968 0.13826
 N734 N 0.01960 0.75425 0.13929
 H735 H -0.02997 0.77506 0.12001
 H736 H 0.02012 0.76601 0.09664
 H737 H 0.01583 0.79111 0.07626
 H738 H -0.03537 0.80034 0.10032
 H739 H 0.01601 0.72965 0.15223
 H740 H 0.04113 0.73395 0.17257
 H741 H 0.05036 0.78512 0.14845
 H742 H 0.02506 0.77971 0.12880
 C743 C -0.04817 0.74006 0.16230
 C744 C 0.00979 0.70175 0.08683
 C745 C 0.04796 0.75990 0.16212
 C746 C -0.01013 0.79794 0.08668
 C747 C 0.49192 0.22591 0.59862
 H748 H 0.47989 0.23367 0.59792
 C749 C 0.49441 0.21169 0.58707
 H750 H 0.48415 0.20859 0.57755
 C751 C 0.51994 0.22082 0.61179
 H752 H 0.52999 0.22458 0.62124
 C753 C 0.52300 0.20651 0.60049
 H754 H 0.53536 0.19931 0.60155
 N755 N 0.50451 0.23006 0.61080
 C756 C 0.47624 0.25803 0.65270
 H757 H 0.48398 0.27007 0.65340
 C758 C 0.46200 0.25553 0.66423
 H759 H 0.45885 0.26579 0.67374
 C760 C 0.47122 0.23000 0.63955
 H761 H 0.47502 0.21995 0.63012
 C762 C 0.45688 0.22693 0.65083
 H763 H 0.44970 0.21457 0.64976
 Zn764 Zn 0.50017 0.24979 0.62567
 N765 N 0.48044 0.24545 0.64054
 C766 C 0.48039 0.27873 0.61175
 N767 N 0.49584 0.26950 0.61077
 C768 C 0.50843 0.27366 0.59859
 C769 C 0.50592 0.28787 0.58702
 C770 C 0.47733 0.29305 0.60043
 C771 C 0.52410 0.24154 0.65271
 C772 C 0.53834 0.24406 0.66424
 C773 C 0.54346 0.27265 0.65080
 C774 C 0.52912 0.26958 0.63952
 N775 N 0.51990 0.25413 0.64053
 H776 H 0.47034 0.27497 0.62121
 H777 H 0.52046 0.26591 0.59790
 H778 H 0.51618 0.29098 0.57749
 H779 H 0.46496 0.30023 0.60149
 H780 H 0.51636 0.22951 0.65343
 H781 H 0.54148 0.23380 0.67375
 H782 H 0.55063 0.28501 0.64971
 H783 H 0.52533 0.27962 0.63007
 C784 C 0.45205 0.23982 0.66336
 C785 C 0.51011 0.20173 0.58793
 C786 C 0.54828 0.25977 0.66334
 C787 C 0.49021 0.29782 0.58787
 C788 C 0.50810 0.72594 0.90218
 H789 H 0.52012 0.73371 0.90285
 C790 C 0.50564 0.71172 0.91374
 H791 H 0.51592 0.70861 0.92324
 C792 C 0.48005 0.72084 0.88907
 H793 H 0.46998 0.72460 0.87964
 C794 C 0.47703 0.70652 0.90038
 H795 H 0.46467 0.69932 0.89934
 N796 N 0.49548 0.73010 0.89002
 C797 C 0.52359 0.75814 0.84804
 H798 H 0.51580 0.77015 0.84735
 C799 C 0.53780 0.75567 0.83647
 H800 H 0.54089 0.76594 0.82695
 C801 C 0.52873 0.73012 0.86120
 H802 H 0.52499 0.72006 0.87066
 C803 C 0.54305 0.72710 0.84989
 H804 H 0.55027 0.71475 0.85095
 Zn805 Zn 0.49975 0.74983 0.87514
 N806 N 0.51946 0.74554 0.86023
 C807 C 0.51951 0.77880 0.88898
 N808 N 0.50408 0.76955 0.89000
 C809 C 0.49151 0.77370 0.90221
 C810 C 0.49402 0.78792 0.91375
 C811 C 0.52257 0.79312 0.90027
 C812 C 0.47582 0.74155 0.84813
 C813 C 0.46157 0.74405 0.83661
 C814 C 0.45640 0.77262 0.85003
 C815 C 0.47075 0.76957 0.86131
 N816 N 0.47999 0.75414 0.86030
 H817 H 0.52955 0.77505 0.87951
 H818 H 0.47949 0.76593 0.90293
 H819 H 0.48377 0.79103 0.92328
 H820 H 0.53493 0.80033 0.89917
 H821 H 0.48358 0.72953 0.84742
 H822 H 0.45845 0.73379 0.82709
 H823 H 0.44921 0.78498 0.85111
 H824 H 0.47453 0.77962 0.87075
 C825 C 0.54779 0.73999 0.83733
 C826 C 0.48994 0.70175 0.91291
 C827 C 0.45161 0.75975 0.83749
 C828 C 0.50971 0.79789 0.91284
 N829 N 0.14372 0.21012 0.27221
 C830 C 0.13252 0.22391 0.26953
 N831 N 0.13537 0.23495 0.25566
 N832 N 0.14901 0.23228 0.24478
 C833 C 0.16027 0.21848 0.24740
 N834 N 0.15736 0.20745 0.26133
 C835 C 0.11783 0.22678 0.28124
 C836 C 0.10548 0.22918 0.29107
 C837 C 0.09078 0.23204 0.30278
 N838 N 0.08123 0.24721 0.30184
 N839 N 0.06759 0.24986 0.31272
 C840 C 0.06299 0.23745 0.32493
 N841 N 0.07264 0.22227 0.32580
 N842 N 0.08629 0.21961 0.31492
 N843 N 0.64369 0.70996 0.77240
 C844 C 0.63249 0.72375 0.76974
 N845 N 0.63534 0.73481 0.75588
 N846 N 0.64898 0.73216 0.74500
 C847 C 0.66024 0.71836 0.74761
 N848 N 0.65733 0.70731 0.76152
 C849 C 0.61779 0.72659 0.78145
 C850 C 0.60545 0.72896 0.79130
 C851 C 0.59075 0.73177 0.80302
 N852 N 0.58118 0.74693 0.80213
 N853 N 0.56754 0.74954 0.81302
 C854 C 0.56297 0.73708 0.82520
 N855 N 0.57263 0.72190 0.82601
 N856 N 0.58627 0.71929 0.81512
 N857 N 0.36405 0.76523 0.75613
 C858 C 0.36692 0.77628 0.76998
 N859 N 0.35576 0.79010 0.77261
 N860 N 0.34213 0.79279 0.76172
 C861 C 0.33920 0.78175 0.74783
 N862 N 0.35042 0.76792 0.74524
 C863 C 0.38160 0.77339 0.78169
 C864 C 0.39394 0.77097 0.79153
 C865 C 0.40863 0.76811 0.80325
 N866 N 0.41816 0.75292 0.80234
 N867 N 0.43180 0.75027 0.81321
 C868 C 0.43642 0.76270 0.82539
 N869 N 0.42679 0.77790 0.82622
 N870 N 0.41315 0.78056 0.81535
 N871 N -0.14421 0.29013 0.27200
 C872 C -0.13299 0.27636 0.26937
 N873 N -0.13580 0.26531 0.25551
 N874 N -0.14941 0.26795 0.24460
 C875 C -0.16071 0.28175 0.24716
 N876 N -0.15782 0.29278 0.26109
 C877 C -0.11832 0.27352 0.28111
 C878 C -0.10599 0.27114 0.29098
 C879 C -0.09131 0.26833 0.30272
 N880 N -0.08682 0.28082 0.31479
 N881 N -0.07319 0.27821 0.32568
 C882 C -0.06355 0.26302 0.32491
 N883 N -0.06813 0.25055 0.31277
 N884 N -0.08177 0.25315 0.30187
 N885 N -0.13557 0.73488 0.24389
 C886 C -0.13273 0.72380 0.23007
 N887 N -0.14393 0.71000 0.22747
 N888 N -0.15756 0.70736 0.23837
 C889 C -0.16048 0.71843 0.25227
 N890 N -0.14920 0.73225 0.25480
 C891 C -0.11806 0.72663 0.21832
 C892 C -0.10573 0.72900 0.20845
 C893 C -0.09106 0.73181 0.19670
 N894 N -0.08658 0.71933 0.18461
 N895 N -0.07296 0.72195 0.17369
 C896 C -0.06332 0.73714 0.17446
 N897 N -0.06789 0.74960 0.18662
 N898 N -0.08151 0.74699 0.19754
 N899 N 0.35603 0.20955 0.72808
 C900 C 0.36718 0.22337 0.73070
 N901 N 0.36425 0.23448 0.74448
 N902 N 0.35058 0.23185 0.75533
 C903 C 0.33934 0.21801 0.75278
 N904 N 0.34235 0.20691 0.73892
 C905 C 0.38191 0.22621 0.71902
 C906 C 0.39429 0.22860 0.70922
 C907 C 0.40901 0.23146 0.69754
 N908 N 0.41853 0.24665 0.69844
 N909 N 0.43219 0.24930 0.68759
 C910 C 0.43685 0.23686 0.67545
 N911 N 0.42724 0.22165 0.67462
 N912 N 0.41357 0.21900 0.68546
 N913 N 0.63600 0.26521 0.74452
 C914 C 0.63310 0.27628 0.73069
 N915 N 0.64426 0.29009 0.72803
 N916 N 0.65792 0.29276 0.73888
 C917 C 0.66091 0.28170 0.75278
 N918 N 0.64966 0.26787 0.75537
 C919 C 0.61839 0.27341 0.71901
 C920 C 0.60602 0.27100 0.70920
 C921 C 0.59130 0.26814 0.69752
 N922 N 0.58675 0.28060 0.68543
 N923 N 0.57308 0.27794 0.67458
 C924 C 0.56348 0.26273 0.67543
 N925 N 0.56813 0.25029 0.68760
 N926 N 0.58179 0.25295 0.69844
 N927 N 0.13540 0.76538 0.24357
 C928 C 0.13257 0.77645 0.22971
 N929 N 0.14377 0.79024 0.22709
 N930 N 0.15738 0.79290 0.23800
 C931 C 0.16027 0.78184 0.25191
 N932 N 0.14901 0.76804 0.25449
 C933 C 0.11791 0.77359 0.21797
 C934 C 0.10558 0.77118 0.20811
 C935 C 0.09090 0.76831 0.19639
 N936 N 0.08639 0.78074 0.18426
 N937 N 0.07275 0.77807 0.17338
 C938 C 0.06313 0.76287 0.17423
 N939 N 0.06774 0.75045 0.18644
 N940 N 0.08138 0.75312 0.19732
 N941 N 0.27248 0.14369 0.20979
 C942 C 0.26982 0.13254 0.22360
 N943 N 0.25597 0.13543 0.23465
 N944 N 0.24509 0.14907 0.23197
 C945 C 0.24770 0.16029 0.21814
 N946 N 0.26161 0.15734 0.20710
 C947 C 0.28152 0.11784 0.22649
 C948 C 0.29134 0.10548 0.22893
 C949 C 0.30303 0.09077 0.23183
 N950 N 0.30205 0.08125 0.24701
 N951 N 0.31290 0.06759 0.24970
 C952 C 0.32513 0.06295 0.23731
 N953 N 0.32603 0.07257 0.22212
 N954 N 0.31518 0.08623 0.21942
 N955 N 0.75591 0.63530 0.73475
 C956 C 0.76976 0.63241 0.72369
 N957 N 0.77242 0.64359 0.70989
 N958 N 0.76156 0.65725 0.70723
 C959 C 0.74766 0.66019 0.71828
 N960 N 0.74505 0.64895 0.73209
 C961 C 0.78145 0.61770 0.72655
 C962 C 0.79126 0.60533 0.72895
 C963 C 0.80294 0.59061 0.73183
 N964 N 0.81509 0.58609 0.71942
 N965 N 0.82594 0.57242 0.72209
 C966 C 0.82502 0.56276 0.73726
 N967 N 0.81279 0.56738 0.74965
 N968 N 0.80195 0.58105 0.74698
 N969 N 0.75539 0.36390 0.76510
 C970 C 0.76928 0.36672 0.77612
 N971 N 0.77196 0.35549 0.78987
 N972 N 0.76108 0.34185 0.79253
 C973 C 0.74712 0.33895 0.78152
 N974 N 0.74451 0.35026 0.76775
 C975 C 0.78100 0.38141 0.77327
 C976 C 0.79086 0.39375 0.77090
 C977 C 0.80261 0.40843 0.76812
 N978 N 0.81466 0.41292 0.78063
 N979 N 0.82557 0.42655 0.77804
 C980 C 0.82483 0.43619 0.76285
 N981 N 0.81270 0.43161 0.75036
 N982 N 0.80179 0.41798 0.75294
 N983 N 0.27190 -0.14426 0.29006
 C984 C 0.26930 -0.13306 0.27628
 N985 N 0.25547 -0.13589 0.26519
 N986 N 0.24456 -0.14952 0.26781
 C987 C 0.24710 -0.16081 0.28162
 N988 N 0.26100 -0.15789 0.29269
 C989 C 0.28104 -0.11838 0.27346
 C990 C 0.29090 -0.10604 0.27111
 C991 C 0.30265 -0.09136 0.26831
 N992 N 0.30182 -0.08181 0.25314
 N993 N 0.31273 -0.06818 0.25055
 C994 C 0.32486 -0.06360 0.26303
 N995 N 0.32562 -0.07324 0.27822
 N996 N 0.31471 -0.08687 0.28082
 N997 N 0.24427 -0.13568 0.73473
 C998 C 0.23043 -0.13278 0.72368
 N999 N 0.22775 -0.14395 0.70989
 N1000 N 0.23860 -0.15762 0.70723
 C1001 C 0.25251 -0.16061 0.71827
 N1002 N 0.25512 -0.14935 0.73208
 C1003 C 0.21875 -0.11805 0.72654
 C1004 C 0.20895 -0.10568 0.72895
 C1005 C 0.19729 -0.09095 0.73182
 N1006 N 0.18516 -0.08639 0.71940
 N1007 N 0.17433 -0.07271 0.72208
 C1008 C 0.17523 -0.06309 0.73726
 N1009 N 0.18743 -0.06775 0.74967
 N1010 N 0.19826 -0.08143 0.74700
 N1011 N 0.72777 0.35621 0.20982
 C1012 C 0.73038 0.36738 0.22361
 N1013 N 0.74422 0.36453 0.23469
 N1014 N 0.75513 0.35090 0.23205
 C1015 C 0.75256 0.33966 0.21824
 N1016 N 0.73867 0.34258 0.20717
 C1017 C 0.71865 0.38206 0.22645
 C1018 C 0.70880 0.39440 0.22885
 C1019 C 0.69707 0.40909 0.23170
 N1020 N 0.69800 0.41863 0.24687
 N1021 N 0.68712 0.43227 0.24951
 C1022 C 0.67491 0.43687 0.23710
 N1023 N 0.67406 0.42723 0.22192
 N1024 N 0.68494 0.41359 0.21927
 N1025 N 0.74447 0.63562 0.26482
 C1026 C 0.73061 0.63280 0.27588
 N1027 N 0.72797 0.64402 0.28964
 N1028 N 0.73887 0.65765 0.29226
 C1029 C 0.75278 0.66053 0.28120
 N1030 N 0.75537 0.64925 0.26743
 C1031 C 0.71887 0.61812 0.27308
 C1032 C 0.70901 0.60578 0.27072
 C1033 C 0.69727 0.59110 0.26794
 N1034 N 0.68518 0.58662 0.28043
 N1035 N 0.67427 0.57299 0.27784
 C1036 C 0.67505 0.56334 0.26266
 N1037 N 0.68721 0.56791 0.25019
 N1038 N 0.69812 0.58154 0.25278
 N1039 N 0.22828 0.14424 0.78997
 C1040 C 0.23099 0.13299 0.77626
 N1041 N 0.24490 0.13580 0.76525
 N1042 N 0.25577 0.14945 0.76788
 C1043 C 0.25313 0.16079 0.78162
 N1044 N 0.23915 0.15790 0.79261
 C1045 C 0.21928 0.11829 0.77343
 C1046 C 0.20944 0.10595 0.77107
 C1047 C 0.19771 0.09125 0.76827
 N1048 N 0.19856 0.08172 0.75309
 N1049 N 0.18766 0.06808 0.75050
 C1050 C 0.17552 0.06348 0.76297
 N1051 N 0.17474 0.07311 0.77816
 N1052 N 0.18564 0.08674 0.78076
 N1053 N 0.23475 0.25594 0.13496
 C1054 C 0.22368 0.26979 0.13210
 N1055 N 0.20990 0.27245 0.14331
 N1056 N 0.20726 0.26158 0.15696
 C1057 C 0.21832 0.24768 0.15988
 N1058 N 0.23212 0.24507 0.14861
 C1059 C 0.22650 0.28150 0.11740
 C1060 C 0.22885 0.29134 0.10505
 C1061 C 0.23164 0.30308 0.09036
 N1062 N 0.21916 0.31520 0.08592
 N1063 N 0.22174 0.32610 0.07229
 C1064 C 0.23690 0.32530 0.06260
 N1065 N 0.24936 0.31310 0.06713
 N1066 N 0.24678 0.30220 0.08076
 N1067 N 0.73474 0.75587 0.63518
 C1068 C 0.72368 0.76973 0.63232
 N1069 N 0.70990 0.77240 0.64352
 N1070 N 0.70726 0.76154 0.65718
 C1071 C 0.71831 0.74763 0.66010
 N1072 N 0.73211 0.74501 0.64883
 C1073 C 0.72652 0.78143 0.61761
 C1074 C 0.72890 0.79126 0.60525
 C1075 C 0.73172 0.80297 0.59055
 N1076 N 0.71924 0.81507 0.58604
 N1077 N 0.72187 0.82595 0.57240
 C1078 C 0.73707 0.82514 0.56277
 N1079 N 0.74952 0.81297 0.56737
 N1080 N 0.74690 0.80209 0.58101
 N1081 N 0.76564 0.75638 0.36393
 C1082 C 0.77669 0.77024 0.36677
 N1083 N 0.79049 0.77289 0.35558
 N1084 N 0.79316 0.76199 0.34197
 C1085 C 0.78213 0.74808 0.33907
 N1086 N 0.76831 0.74548 0.35032
 C1087 C 0.77381 0.78197 0.38144
 C1088 C 0.77138 0.79180 0.39377
 C1089 C 0.76848 0.80349 0.40847
 N1090 N 0.78092 0.81558 0.41305
 N1091 N 0.77822 0.82642 0.42670
 C1092 C 0.76299 0.82557 0.43628
 N1093 N 0.75057 0.81340 0.43160
 N1094 N 0.75326 0.80255 0.41795
 N1095 N 0.28985 0.27267 -0.14430
 C1096 C 0.27601 0.27005 -0.13316
 N1097 N 0.26498 0.25617 -0.13599
 N1098 N 0.26769 0.24524 -0.14956
 C1099 C 0.28154 0.24781 -0.16077
 N1100 N 0.29257 0.26174 -0.15788
 C1101 C 0.27310 0.28182 -0.11852
 C1102 C 0.27066 0.29169 -0.10623
 C1103 C 0.26778 0.30345 -0.09158
 N1104 N 0.25259 0.30256 -0.08207
 N1105 N 0.24993 0.31346 -0.06845
 C1106 C 0.26237 0.32564 -0.06385
 N1107 N 0.27758 0.32645 -0.07346
 N1108 N 0.28024 0.31556 -0.08707
 N1109 N 0.73512 0.24378 -0.13579
 C1110 C 0.72409 0.22990 -0.13292
 N1111 N 0.71026 0.22726 -0.14406
 N1112 N 0.70755 0.23817 -0.15767
 C1113 C 0.71858 0.25209 -0.16060
 N1114 N 0.73242 0.25469 -0.14939
 C1115 C 0.72699 0.21817 -0.11825
 C1116 C 0.72943 0.20832 -0.10593
 C1117 C 0.73232 0.19659 -0.09125
 N1118 N 0.71987 0.18449 -0.08670
 N1119 N 0.72255 0.17361 -0.07306
 C1120 C 0.73777 0.17444 -0.06347
 N1121 N 0.75020 0.18662 -0.06812
 N1122 N 0.74753 0.19750 -0.08176
 N1123 N 0.20971 0.72763 0.35599
 C1124 C 0.22348 0.73027 0.36721
 N1125 N 0.23455 0.74413 0.36439
 N1126 N 0.23193 0.75502 0.35075
 C1127 C 0.21815 0.75243 0.33947
 N1128 N 0.20709 0.73853 0.34235
 C1129 C 0.22629 0.71854 0.38190
 C1130 C 0.22866 0.70870 0.39425
 C1131 C 0.23148 0.69698 0.40894
 N1132 N 0.24665 0.69789 0.41849
 N1133 N 0.24928 0.68701 0.43214
 C1134 C 0.23683 0.67483 0.43674
 N1135 N 0.22165 0.67400 0.42709
 N1136 N 0.21902 0.68487 0.41344
 N1137 N 0.26466 0.74435 0.63546
 C1138 C 0.27569 0.73046 0.63263
 N1139 N 0.28946 0.72778 0.64384
 N1140 N 0.29212 0.73866 0.65747
 C1141 C 0.28110 0.75259 0.66036
 N1142 N 0.26732 0.75523 0.64909
 C1143 C 0.27284 0.71875 0.61795
 C1144 C 0.27046 0.70890 0.60562
 C1145 C 0.26765 0.69717 0.59095
 N1146 N 0.28012 0.68506 0.58648
 N1147 N 0.27751 0.67416 0.57286
 C1148 C 0.26233 0.67497 0.56321
 N1149 N 0.24987 0.68715 0.56777
 N1150 N 0.25248 0.69805 0.58139
 N1151 N 0.76572 0.24399 0.13528
 C1152 C 0.77679 0.23014 0.13245
 N1153 N 0.79056 0.22749 0.14366
 N1154 N 0.79319 0.23837 0.15730
 C1155 C 0.78212 0.25227 0.16018
 N1156 N 0.76833 0.25487 0.14891
 C1157 C 0.77397 0.21842 0.11776
 C1158 C 0.77160 0.20858 0.10543
 C1159 C 0.76880 0.19686 0.09074
 N1160 N 0.78128 0.18475 0.08627
 N1161 N 0.77867 0.17386 0.07264
 C1162 C 0.76349 0.17468 0.06298
 N1163 N 0.75103 0.18686 0.06755
 N1164 N 0.75364 0.19775 0.08118
 N1165 N 0.48481 0.38526 0.50633
 C1166 C 0.47374 0.38240 0.52018
 N1167 N 0.45993 0.39358 0.52280
 N1168 N 0.45728 0.40721 0.51191
 C1169 C 0.46834 0.41013 0.49801
 N1170 N 0.48216 0.39889 0.49543
 C1171 C 0.47659 0.36772 0.53191
 C1172 C 0.47899 0.35539 0.54177
 C1173 C 0.48185 0.34072 0.55352
 N1174 N 0.46939 0.33622 0.56563
 N1175 N 0.47205 0.32260 0.57653
 C1176 C 0.48726 0.31298 0.57573
 N1177 N 0.49970 0.31758 0.56354
 N1178 N 0.49705 0.33120 0.55264
 N1179 N -0.04034 0.89393 0.02189
 C1180 C -0.02654 0.88275 0.01925
 N1181 N -0.01545 0.88564 0.00543
 N1182 N -0.01807 0.89931 -0.00542
 C1183 C -0.03189 0.91058 -0.00285
 N1184 N -0.04296 0.90760 0.01104
 C1185 C -0.02371 0.86802 0.03093
 C1186 C -0.02133 0.85566 0.04075
 C1187 C -0.01848 0.84094 0.05244
 N1188 N -0.00330 0.83141 0.05152
 N1189 N -0.00065 0.81775 0.06239
 C1190 C -0.01309 0.81313 0.07457
 N1191 N -0.02829 0.82276 0.07541
 N1192 N -0.03094 0.83641 0.06455
 N1193 N 0.01523 0.61410 0.00562
 C1194 C 0.02631 0.61700 0.01944
 N1195 N 0.04014 0.60585 0.02207
 N1196 N 0.04282 0.59221 0.01121
 C1197 C 0.03175 0.58923 -0.00268
 N1198 N 0.01790 0.60046 -0.00525
 C1199 C 0.02343 0.63169 0.03114
 C1200 C 0.02102 0.64404 0.04096
 C1201 C 0.01816 0.65875 0.05265
 N1202 N 0.03063 0.66331 0.06472
 N1203 N 0.02797 0.67696 0.07557
 C1204 C 0.01275 0.68656 0.07475
 N1205 N 0.00030 0.68190 0.06260
 N1206 N 0.00295 0.66825 0.05175
 N1207 N 0.51545 0.11432 0.50648
 C1208 C 0.52654 0.11717 0.52029
 N1209 N 0.54037 0.10600 0.52288
 N1210 N 0.54303 0.09239 0.51197
 C1211 C 0.53194 0.08948 0.49810
 N1212 N 0.51809 0.10071 0.49556
 C1213 C 0.52369 0.13183 0.53204
 C1214 C 0.52130 0.14415 0.54190
 C1215 C 0.51845 0.15882 0.55363
 N1216 N 0.53091 0.16332 0.56573
 N1217 N 0.52826 0.17694 0.57662
 C1218 C 0.51306 0.18657 0.57581
 N1219 N 0.50062 0.18198 0.56363
 N1220 N 0.50326 0.16835 0.55274
 N1221 N -0.03998 0.10655 0.47776
 C1222 C -0.02621 0.11777 0.48040
 N1223 N -0.01514 0.11494 0.49425
 N1224 N -0.01777 0.10131 0.50515
 C1225 C -0.03157 0.09003 0.50256
 N1226 N -0.04262 0.09292 0.48866
 C1227 C -0.02338 0.13245 0.46866
 C1228 C -0.02102 0.14478 0.45880
 C1229 C -0.01822 0.15946 0.44705
 N1230 N -0.03071 0.16392 0.43495
 N1231 N -0.02811 0.17754 0.42404
 C1232 C -0.01294 0.18721 0.42482
 N1233 N -0.00047 0.18266 0.43699
 N1234 N -0.00306 0.16904 0.44791
 N1235 N 0.48465 0.61427 0.99443
 C1236 C 0.47361 0.61711 0.98056
 N1237 N 0.45983 0.60592 0.97791
 N1238 N 0.45716 0.59229 0.98880
 C1239 C 0.46818 0.58936 1.00274
 N1240 N 0.48199 0.60064 1.00532
 C1241 C 0.47648 0.63180 0.96884
 C1242 C 0.47887 0.64413 0.95898
 C1243 C 0.48169 0.65881 0.94724
 N1244 N 0.46921 0.66331 0.93516
 N1245 N 0.47183 0.67694 0.92426
 C1246 C 0.48703 0.68658 0.92504
 N1247 N 0.49949 0.68198 0.93720
 N1248 N 0.49687 0.66835 0.94810
 N1249 N 0.54004 0.89370 0.97771
 C1250 C 0.52624 0.88252 0.98037
 N1251 N 0.51521 0.88536 0.99425
 N1252 N 0.51789 0.89897 1.00514
 C1253 C 0.53170 0.91022 1.00252
 N1254 N 0.54272 0.90732 0.98859
 C1255 C 0.52335 0.86784 0.96865
 C1256 C 0.52094 0.85551 0.95881
 C1257 C 0.51808 0.84083 0.94710
 N1258 N 0.50290 0.83129 0.94802
 N1259 N 0.50024 0.81766 0.93715
 C1260 C 0.51267 0.81306 0.92495
 N1261 N 0.52786 0.82270 0.92410
 N1262 N 0.53052 0.83633 0.93497
 N1263 N 0.01518 0.38587 0.49388
 C1264 C 0.02619 0.38307 0.47998
 N1265 N 0.03998 0.39428 0.47733
 N1266 N 0.04266 0.40787 0.48825
 C1267 C 0.03165 0.41073 0.50220
 N1268 N 0.01786 0.39946 0.50480
 C1269 C 0.02331 0.36842 0.46824
 C1270 C 0.02090 0.35611 0.45838
 C1271 C 0.01802 0.34144 0.44665
 N1272 N 0.03047 0.33694 0.43453
 N1273 N 0.02781 0.32331 0.42365
 C1274 C 0.01260 0.31368 0.42449
 N1275 N 0.00018 0.31829 0.43668
 N1276 N 0.00283 0.33192 0.44756
 N1277 N 0.38529 0.50584 0.48503
 C1278 C 0.38245 0.51971 0.47398
 N1279 N 0.39365 0.52236 0.46020
 N1280 N 0.40730 0.51148 0.45756
 C1281 C 0.41020 0.49757 0.46860
 N1282 N 0.39893 0.49496 0.48239
 C1283 C 0.36775 0.53142 0.47682
 C1284 C 0.35540 0.54127 0.47919
 C1285 C 0.34071 0.55299 0.48201
 N1286 N 0.33620 0.56508 0.46954
 N1287 N 0.32255 0.57597 0.47215
 C1288 C 0.31291 0.57516 0.48734
 N1289 N 0.31751 0.56300 0.49980
 N1290 N 0.33116 0.55211 0.49719
 N1291 N 0.89457 0.02181 -0.03994
 C1292 C 0.88333 0.01913 -0.02620
 N1293 N 0.88612 0.00522 -0.01519
 N1294 N 0.89974 -0.00569 -0.01784
 C1295 C 0.91107 -0.00308 -0.03161
 N1296 N 0.90820 0.01091 -0.04260
 C1297 C 0.86866 0.03088 -0.02335
 C1298 C 0.85633 0.04075 -0.02097
 C1299 C 0.84166 0.05250 -0.01815
 N1300 N 0.83213 0.05166 -0.00297
 N1301 N 0.81851 0.06258 -0.00036
 C1302 C 0.81391 0.07473 -0.01283
 N1303 N 0.82354 0.07550 -0.02803
 N1304 N 0.83717 0.06458 -0.03065
 N1305 N 0.60658 0.02229 0.04025
 C1306 C 0.61774 0.01965 0.02644
 N1307 N 0.61484 0.00582 0.01537
 N1308 N 0.60119 -0.00505 0.01804
 C1309 C 0.58997 -0.00245 0.03187
 N1310 N 0.59293 0.01143 0.04292
 C1311 C 0.63245 0.03135 0.02356
 C1312 C 0.64481 0.04117 0.02115
 C1313 C 0.65953 0.05285 0.01828
 N1314 N 0.66908 0.05189 0.00312
 N1315 N 0.68275 0.06274 0.00046
 C1316 C 0.68737 0.07494 0.01286
 N1317 N 0.67772 0.07583 0.02804
 N1318 N 0.66405 0.06498 0.03070
 N1319 N 0.10571 0.52226 0.54025
 C1320 C 0.11685 0.51967 0.52641
 N1321 N 0.11397 0.50586 0.51532
 N1322 N 0.10034 0.49496 0.51798
 C1323 C 0.08911 0.49748 0.53184
 N1324 N 0.09208 0.51136 0.54291
 C1325 C 0.13153 0.53141 0.52355
 C1326 C 0.14387 0.54126 0.52115
 C1327 C 0.15855 0.55298 0.51830
 N1328 N 0.16811 0.55207 0.50313
 N1329 N 0.18175 0.56296 0.50049
 C1330 C 0.18634 0.57515 0.51291
 N1331 N 0.17669 0.57599 0.52809
 N1332 N 0.16305 0.56511 0.53074
 N1333 N 0.10562 0.47828 -0.03994
 C1334 C 0.11686 0.48095 -0.02620
 N1335 N 0.11404 0.49483 -0.01517
 N1336 N 0.10039 0.50571 -0.01780
 C1337 C 0.08907 0.50311 -0.03156
 N1338 N 0.09197 0.48916 -0.04258
 C1339 C 0.13155 0.46923 -0.02337
 C1340 C 0.14389 0.45937 -0.02103
 C1341 C 0.15858 0.44762 -0.01826
 N1342 N 0.16815 0.44843 -0.00310
 N1343 N 0.18178 0.43751 -0.00054
 C1344 C 0.18634 0.42537 -0.01303
 N1345 N 0.17667 0.42463 -0.02820
 N1346 N 0.16304 0.43555 -0.03077
 N1347 N 0.60593 0.97793 0.45990
 C1348 C 0.61716 0.98057 0.47365
 N1349 N 0.61434 0.99442 0.48471
 N1350 N 0.60068 1.00530 0.48211
 C1351 C 0.58936 1.00273 0.46835
 N1352 N 0.59227 0.98881 0.45729
 C1353 C 0.63187 0.96886 0.47645
 C1354 C 0.64421 0.95900 0.47880
 C1355 C 0.65891 0.94727 0.48161
 N1356 N 0.66843 0.94811 0.49680
 N1357 N 0.68207 0.93721 0.49940
 C1358 C 0.68669 0.92508 0.48692
 N1359 N 0.67707 0.92433 0.47172
 N1360 N 0.66343 0.93522 0.46911
 N1361 N 0.89386 0.97773 0.54029
 C1362 C 0.88268 0.98038 0.52649
 N1363 N 0.88554 0.99424 0.51545
 N1364 N 0.89916 1.00514 0.51811
 C1365 C 0.91040 1.00254 0.53193
 N1366 N 0.90749 0.98862 0.54297
 C1367 C 0.86800 0.96865 0.52362
 C1368 C 0.85566 0.95881 0.52119
 C1369 C 0.84097 0.94711 0.51828
 N1370 N 0.83146 0.94807 0.50310
 N1371 N 0.81782 0.93720 0.50040
 C1372 C 0.81318 0.92498 0.51279
 N1373 N 0.82279 0.92409 0.52799
 N1374 N 0.83644 0.93495 0.53069
 N1375 N 0.38531 0.49437 0.01493
 C1376 C 0.38243 0.48050 0.02597
 N1377 N 0.39360 0.47784 0.03978
 N1378 N 0.40723 0.48873 0.04246
 C1379 C 0.41017 0.50264 0.03143
 N1380 N 0.39894 0.50525 0.01761
 C1381 C 0.36774 0.46879 0.02309
 C1382 C 0.35540 0.45896 0.02067
 C1383 C 0.34070 0.44726 0.01781
 N1384 N 0.33620 0.43510 0.03022
 N1385 N 0.32254 0.42424 0.02756
 C1386 C 0.31289 0.42513 0.01239
 N1387 N 0.31749 0.43736 -0.00001
 N1388 N 0.33114 0.44822 0.00265
 N1389 N 0.50605 0.48476 0.38572
 C1390 C 0.51992 0.47372 0.38288
 N1391 N 0.52257 0.45992 0.39406
 N1392 N 0.51167 0.45725 0.40769
 C1393 C 0.49775 0.46828 0.41059
 N1394 N 0.49515 0.48209 0.39934
 C1395 C 0.53165 0.47658 0.36820
 C1396 C 0.54149 0.47899 0.35586
 C1397 C 0.55320 0.48186 0.34117
 N1398 N 0.56529 0.46940 0.33662
 N1399 N 0.57616 0.47206 0.32297
 C1400 C 0.57533 0.48727 0.31336
 N1401 N 0.56317 0.49971 0.31800
 N1402 N 0.55230 0.49706 0.33165
 N1403 N 0.00632 -0.01518 0.88581
 C1404 C 0.02018 -0.02624 0.88295
 N1405 N 0.02278 -0.04008 0.89410
 N1406 N 0.01185 -0.04279 0.90769
 C1407 C -0.00206 -0.03173 0.91060
 N1408 N -0.00461 -0.01788 0.89940
 C1409 C 0.03194 -0.02335 0.86831
 C1410 C 0.04181 -0.02092 0.85600
 C1411 C 0.05356 -0.01804 0.84134
 N1412 N 0.06566 -0.03050 0.83680
 N1413 N 0.07656 -0.02783 0.82318
 C1414 C 0.07576 -0.01261 0.81359
 N1415 N 0.06358 -0.00017 0.81822
 N1416 N 0.05269 -0.00283 0.83184
 N1417 N 0.00613 0.01552 0.61492
 C1418 C 0.01998 0.02659 0.61777
 N1419 N 0.02262 0.04038 0.60657
 N1420 N 0.01173 0.04303 0.59294
 C1421 C -0.00217 0.03197 0.59004
 N1422 N -0.00476 0.01816 0.60129
 C1423 C 0.03171 0.02374 0.63244
 C1424 C 0.04157 0.02135 0.64477
 C1425 C 0.05331 0.01852 0.65945
 N1426 N 0.06544 0.03098 0.66391
 N1427 N 0.07634 0.02834 0.67753
 C1428 C 0.07552 0.01316 0.68719
 N1429 N 0.06332 0.00073 0.68263
 N1430 N 0.05241 0.00336 0.66901
 N1431 N 0.50582 0.51549 0.11452
 C1432 C 0.51968 0.52654 0.11738
 N1433 N 0.52234 0.54034 0.10620
 N1434 N 0.51147 0.54301 0.09256
 C1435 C 0.49756 0.53197 0.08964
 N1436 N 0.49494 0.51815 0.10088
 C1437 C 0.53139 0.52368 0.13207
 C1438 C 0.54123 0.52128 0.14441
 C1439 C 0.55295 0.51843 0.15910
 N1440 N 0.56507 0.53088 0.16359
 N1441 N 0.57595 0.52823 0.17723
 C1442 C 0.57512 0.51304 0.18686
 N1443 N 0.56293 0.50061 0.18227
 N1444 N 0.55204 0.50325 0.16864
 N1445 N 0.47776 -0.04023 0.10664
 C1446 C 0.48043 -0.02647 0.11784
 N1447 N 0.49430 -0.01542 0.11500
 N1448 N 0.50517 -0.01805 0.10135
 C1449 C 0.50255 -0.03183 0.09008
 N1450 N 0.48863 -0.04287 0.09299
 C1451 C 0.46872 -0.02364 0.13254
 C1452 C 0.45888 -0.02128 0.14488
 C1453 C 0.44714 -0.01848 0.15957
 N1454 N 0.44803 -0.00332 0.16914
 N1455 N 0.43712 -0.00072 0.18276
 C1456 C 0.42493 -0.01317 0.18732
 N1457 N 0.42411 -0.02833 0.17765
 N1458 N 0.43502 -0.03094 0.16403
 N1459 N 0.97777 0.45995 0.60649
 C1460 C 0.98043 0.47369 0.61773
 N1461 N 0.99428 0.48476 0.61489
 N1462 N 1.00515 0.48218 0.60123
 C1463 C 1.00253 0.46842 0.58993
 N1464 N 0.98863 0.45736 0.59283
 C1465 C 0.96872 0.47647 0.63243
 C1466 C 0.95887 0.47880 0.64478
 C1467 C 0.94714 0.48157 0.65947
 N1468 N 0.94801 0.49670 0.66907
 N1469 N 0.93710 0.49927 0.68270
 C1470 C 0.92492 0.48680 0.68723
 N1471 N 0.92412 0.47165 0.67754
 N1472 N 0.93503 0.46908 0.66392
 N1473 N 0.97725 0.53991 0.89422
 C1474 C 0.97990 0.52609 0.88307
 N1475 N 0.99379 0.51507 0.88592
 N1476 N 1.00471 0.51778 0.89951
 C1477 C 1.00212 0.53161 0.91072
 N1478 N 0.98817 0.54262 0.90781
 C1479 C 0.96815 0.52318 0.86842
 C1480 C 0.95829 0.52074 0.85611
 C1481 C 0.94657 0.51783 0.84144
 N1482 N 0.94749 0.50263 0.83196
 N1483 N 0.93661 0.49995 0.81833
 C1484 C 0.92442 0.51237 0.81368
 N1485 N 0.92358 0.52759 0.82326
 N1486 N 0.93445 0.53027 0.83689
 N1487 N 0.47749 0.03976 0.39430
 C1488 C 0.48013 0.02598 0.38311
 N1489 N 0.49402 0.01495 0.38590
 N1490 N 0.50496 0.01762 0.39949
 C1491 C 0.50237 0.03141 0.41075
 N1492 N 0.48842 0.04243 0.40790
 C1493 C 0.46837 0.02312 0.36846
 C1494 C 0.45850 0.02071 0.35615
 C1495 C 0.44675 0.01784 0.34149
 N1496 N 0.44764 0.00265 0.33199
 N1497 N 0.43675 -0.00000 0.31836
 C1498 C 0.42458 0.01244 0.31373
 N1499 N 0.42377 0.02765 0.32333
 N1500 N 0.43465 0.03031 0.33696
   
