data_POSCAR
  _audit_creation_date              2014-09-24
  _audit_creation_method            'ToBaCCo'
  _symmetry_space_group_name_H-M    'P1'
  _symmetry_Int_Tables_number       1
  _symmetry_cell_setting            triclinic
  loop_
  _symmetry_equiv_pos_as_xyz
 x,y,z
_cell_length_a 75.1594
_cell_length_b 75.2911
_cell_length_c 75.4573
_cell_angle_alpha 89.883300
_cell_angle_beta 89.783800
_cell_angle_gamma 90.105100
loop_
  _atom_site_label
  _atom_site_type_symbol
  _atom_site_fract_x
  _atom_site_fract_y
  _atom_site_fract_z
C1 C 0.19320 0.21069 0.21877
 N2 N 0.20449 0.19688 0.22147
 C3 C 0.21844 0.19402 0.21033
 N4 N 0.22103 0.20516 0.19637
 C5 C 0.20987 0.21903 0.19347
 N6 N 0.19599 0.22170 0.20473
 C7 C 0.69309 0.71111 0.71853
 N8 N 0.70435 0.69727 0.72119
 C9 C 0.71828 0.69440 0.71004
 N10 N 0.72088 0.70556 0.69609
 C11 C 0.70975 0.71946 0.69323
 N12 N 0.69589 0.72214 0.70451
 C13 C 0.30582 0.79133 0.71730
 N14 N 0.30305 0.78006 0.70354
 C15 C 0.28882 0.78215 0.69269
 N16 N 0.27731 0.79572 0.69571
 C17 C 0.27990 0.80721 0.70935
 N18 N 0.29421 0.80486 0.72008
 C19 C 0.80632 0.29057 0.21751
 N20 N 0.79460 0.30402 0.22033
 C21 C 0.78036 0.30638 0.20955
 N22 N 0.77783 0.29504 0.19581
 C23 C 0.78940 0.28154 0.19272
 N24 N 0.80361 0.27943 0.20360
 C25 C 0.80674 0.70837 0.28120
 N26 N 0.80390 0.71956 0.29502
 C27 C 0.78987 0.71713 0.30617
 N28 N 0.77860 0.70329 0.30337
 C29 C 0.78123 0.69196 0.28962
 N30 N 0.79534 0.69460 0.27859
 C31 C 0.30656 0.20809 -0.21908
 N32 N 0.29508 0.19437 -0.22174
 C33 C 0.28088 0.19171 -0.21081
 N34 N 0.27825 0.20305 -0.19704
 C35 C 0.28956 0.21683 -0.19415
 N36 N 0.30365 0.21923 -0.20522
 C37 C 0.69575 0.28854 -0.21779
 N38 N 0.70654 0.30287 -0.22006
 C39 C 0.72027 0.30605 -0.20881
 N40 N 0.72306 0.29463 -0.19511
 C41 C 0.71242 0.28023 -0.19265
 N42 N 0.69880 0.27726 -0.20406
 C43 C 0.19601 0.78837 0.28164
 N44 N 0.19899 0.77712 0.29541
 C45 C 0.21256 0.78010 0.30687
 N46 N 0.22323 0.79448 0.30443
 C47 C 0.22052 0.80587 0.29069
 N48 N 0.20683 0.80269 0.27938
 C49 C 0.46078 0.44205 0.47052
 N50 N 0.47138 0.44448 0.45609
 C51 C 0.46821 0.45790 0.44446
 N52 N 0.45421 0.46893 0.44737
 C53 C 0.44351 0.46673 0.46177
 N54 N 0.44691 0.45327 0.47329
 C55 C -0.03879 -0.05748 0.97007
 N56 N -0.02825 -0.05509 0.95559
 C57 C -0.03148 -0.04171 0.94394
 N58 N -0.04548 -0.03069 0.94687
 C59 C -0.05615 -0.03282 0.96132
 N60 N -0.05265 -0.04626 0.97286
 C61 C 1.04062 0.55710 0.96838
 N62 N 1.02950 0.55449 0.95444
 C63 C 1.03199 0.54069 0.94312
 N64 N 1.04581 0.52941 0.94583
 C65 C 1.05706 0.53180 0.95967
 N66 N 1.05437 0.54565 0.97087
 C67 C 0.54110 0.05659 0.46852
 N68 N 0.52987 0.05390 0.45472
 C69 C 0.53236 0.04010 0.44341
 N70 N 0.54628 0.02892 0.44605
 C71 C 0.55769 0.03138 0.45978
 N72 N 0.55496 0.04529 0.47094
 C73 C -0.04111 0.05754 0.53036
 N74 N -0.05485 0.04611 0.52768
 C75 C -0.05756 0.03200 0.53865
 N76 N -0.04626 0.02945 0.55245
 C77 C -0.03246 0.04075 0.55535
 N78 N -0.02998 0.05477 0.54424
 C79 C 0.45929 0.55737 0.03033
 N80 N 0.44556 0.54594 0.02761
 C81 C 0.44282 0.53191 0.03865
 N82 N 0.45399 0.52938 0.05253
 C83 C 0.46778 0.54068 0.05546
 N84 N 0.47034 0.55465 0.04429
 C85 C 0.53731 -0.05470 0.02956
 N86 N 0.52673 -0.05246 0.04404
 C87 C 0.52974 -0.03902 0.05565
 N88 N 0.54357 -0.02775 0.05270
 C89 C 0.55427 -0.02972 0.03829
 N90 N 0.55102 -0.04319 0.02678
 C91 C 1.03676 0.44528 0.52935
 N92 N 1.02617 0.44748 0.54384
 C93 C 1.02916 0.46091 0.55547
 N94 N 1.04299 0.47220 0.55254
 C95 C 1.05368 0.47026 0.53812
 N96 N 1.05045 0.45680 0.52660
 C97 C 0.40150 0.00873 0.22619
 H98 H 0.40155 0.02136 0.23301
 C99 C 0.41313 0.00589 0.21201
 H100 H 0.42188 0.01654 0.20782
 C101 C 0.38986 -0.02038 0.22339
 H102 H 0.38106 -0.03073 0.22810
 C103 C 0.40131 -0.02383 0.20920
 H104 H 0.40115 -0.03685 0.20313
 N105 N 0.39001 -0.00423 0.23143
 C106 C 0.34877 0.02548 0.25932
 H107 H 0.34879 0.01857 0.27191
 C108 C 0.33714 0.03965 0.25660
 H109 H 0.32846 0.04375 0.26731
 C110 C 0.36025 0.02851 0.23019
 H111 H 0.36899 0.02389 0.21979
 C112 C 0.34878 0.04270 0.22686
 H113 H 0.34887 0.04885 0.21388
 Zn114 Zn 0.37506 0.00068 0.25106
 N115 N 0.36017 0.02035 0.24629
 C116 C 0.39014 0.02155 0.27867
 N117 N 0.39010 0.00544 0.27056
 C118 C 0.40146 -0.00763 0.27562
 C119 C 0.41315 -0.00494 0.28969
 C120 C 0.40167 0.02485 0.29276
 C121 C 0.34855 -0.02404 0.24304
 C122 C 0.33688 -0.03820 0.24587
 C123 C 0.34840 -0.04111 0.27558
 C124 C 0.35994 -0.02695 0.27213
 N125 N 0.35996 -0.01887 0.25600
 H126 H 0.38142 0.03197 0.27410
 H127 H 0.40133 -0.02023 0.26875
 H128 H 0.42179 -0.01568 0.29375
 H129 H 0.40167 0.03784 0.29889
 H130 H 0.34865 -0.01718 0.23043
 H131 H 0.32824 -0.04236 0.23520
 H132 H 0.34843 -0.04720 0.28859
 H133 H 0.36868 -0.02230 0.28246
 C134 C 0.33704 0.04849 0.24019
 C135 C 0.41313 -0.01058 0.20328
 C136 C 0.33670 -0.04699 0.26232
 C137 C 0.41336 0.01149 0.29849
 C138 C 0.09704 -0.00838 0.72393
 H139 H 0.09707 -0.02102 0.73077
 C140 C 0.08546 -0.00559 0.70978
 H141 H 0.07681 -0.01630 0.70564
 C142 C 0.10849 0.02082 0.72102
 H143 H 0.11721 0.03122 0.72568
 C144 C 0.09707 0.02422 0.70686
 H145 H 0.09717 0.03725 0.70078
 N146 N 0.10842 0.00466 0.72910
 C147 C 0.14971 -0.02489 0.75690
 H148 H 0.14960 -0.01798 0.76946
 C149 C 0.16134 -0.03906 0.75423
 H150 H 0.16995 -0.04315 0.76495
 C151 C 0.13838 -0.02795 0.72781
 H152 H 0.12967 -0.02335 0.71742
 C153 C 0.14988 -0.04213 0.72452
 H154 H 0.14985 -0.04829 0.71157
 Zn155 Zn 0.12334 -0.00020 0.74868
 N156 N 0.13835 -0.01978 0.74387
 C157 C 0.10833 -0.02133 0.77628
 N158 N 0.10830 -0.00513 0.76827
 C159 C 0.09689 0.00784 0.77353
 C160 C 0.08524 0.00495 0.78771
 C161 C 0.09685 -0.02482 0.79047
 C162 C 0.14978 0.02459 0.74045
 C163 C 0.16150 0.03872 0.74318
 C164 C 0.14991 0.04162 0.77293
 C165 C 0.13834 0.02750 0.76959
 N166 N 0.13835 0.01942 0.75348
 H167 H 0.11705 -0.03167 0.77155
 H168 H 0.09694 0.02051 0.76674
 H169 H 0.07656 0.01561 0.79192
 H170 H 0.09693 -0.03787 0.79650
 H171 H 0.14971 0.01775 0.72785
 H172 H 0.17019 0.04285 0.73246
 H173 H 0.14987 0.04769 0.78593
 H174 H 0.12957 0.02284 0.77998
 C175 C 0.16154 -0.04792 0.73785
 C176 C 0.08537 0.01089 0.70101
 C177 C 0.16168 0.04746 0.75961
 C178 C 0.08513 -0.01156 0.79641
 C179 C 0.59666 0.49135 0.22444
 H180 H 0.59659 0.47872 0.23131
 C181 C 0.58510 0.49418 0.21027
 H182 H 0.57638 0.48352 0.20615
 C183 C 0.60830 0.52047 0.22148
 H184 H 0.61709 0.53081 0.22612
 C185 C 0.59691 0.52391 0.20730
 H186 H 0.59710 0.53693 0.20119
 N187 N 0.60812 0.50432 0.22959
 C188 C 0.64945 0.47482 0.25737
 H189 H 0.64942 0.48181 0.26988
 C190 C 0.66109 0.46065 0.25470
 H191 H 0.66980 0.45665 0.26538
 C192 C 0.63791 0.47155 0.22838
 H193 H 0.62913 0.47607 0.21802
 C194 C 0.64940 0.45736 0.22511
 H195 H 0.64929 0.45110 0.21220
 Zn196 Zn 0.62301 0.49943 0.24918
 N197 N 0.63800 0.47983 0.24439
 C198 C 0.60804 0.47833 0.27683
 N199 N 0.60795 0.49451 0.26877
 C200 C 0.59648 0.50745 0.27398
 C201 C 0.58484 0.50455 0.28816
 C202 C 0.59657 0.47484 0.29102
 C203 C 0.64959 0.52408 0.24103
 C204 C 0.66134 0.53818 0.24378
 C205 C 0.64948 0.54133 0.27341
 C206 C 0.63790 0.52721 0.27006
 N207 N 0.63803 0.51903 0.25400
 H208 H 0.61682 0.46801 0.27214
 H209 H 0.59649 0.52009 0.26715
 H210 H 0.57612 0.51518 0.29234
 H211 H 0.59671 0.46180 0.29710
 H212 H 0.64961 0.51716 0.22848
 H213 H 0.67015 0.54221 0.23312
 H214 H 0.64934 0.54750 0.28635
 H215 H 0.62902 0.52266 0.28040
 C216 C 0.66117 0.45169 0.23839
 C217 C 0.58513 0.51065 0.20147
 C218 C 0.66140 0.54703 0.26016
 C219 C 0.58480 0.48806 0.29692
 C220 C 0.90104 0.50883 0.72600
 H221 H 0.90110 0.52148 0.73277
 C222 C 0.91266 0.50593 0.71182
 H223 H 0.92141 0.51656 0.70759
 C224 C 0.88938 0.47971 0.72330
 H225 H 0.88057 0.46939 0.72805
 C226 C 0.90082 0.47621 0.70911
 H227 H 0.90064 0.46317 0.70309
 N228 N 0.88954 0.49589 0.73129
 C229 C 0.84833 0.52571 0.75910
 H230 H 0.84836 0.51884 0.77171
 C231 C 0.83672 0.53988 0.75634
 H232 H 0.82805 0.54402 0.76704
 C233 C 0.85979 0.52863 0.72995
 H234 H 0.86853 0.52397 0.71957
 C235 C 0.84833 0.54282 0.72658
 H236 H 0.84842 0.54892 0.71358
 Zn237 Zn 0.87462 0.50088 0.75092
 N238 N 0.85972 0.52052 0.74607
 C239 C 0.88973 0.52188 0.77841
 N240 N 0.88968 0.50572 0.77037
 C241 C 0.90105 0.49268 0.77548
 C242 C 0.91277 0.49545 0.78952
 C243 C 0.90129 0.52525 0.79246
 C244 C 0.84810 0.47614 0.74303
 C245 C 0.83643 0.46198 0.74593
 C246 C 0.84800 0.45916 0.77562
 C247 C 0.85953 0.47332 0.77211
 N248 N 0.85953 0.48134 0.75595
 H249 H 0.88100 0.53227 0.77380
 H250 H 0.90092 0.48005 0.76867
 H251 H 0.92142 0.48473 0.79361
 H252 H 0.90129 0.53827 0.79852
 H253 H 0.84817 0.48295 0.73039
 H254 H 0.82777 0.45779 0.73529
 H255 H 0.84806 0.45312 0.78865
 H256 H 0.86829 0.47800 0.78241
 C257 C 0.83661 0.54866 0.73989
 C258 C 0.91264 0.48943 0.70315
 C259 C 0.83628 0.45325 0.76240
 C260 C 0.91300 0.51192 0.79823
 C261 C 0.22538 0.40051 0.00682
 H262 H 0.23242 0.40047 0.01930
 C263 C 0.21126 0.41222 0.00420
 H264 H 0.20733 0.42096 0.01489
 C265 C 0.22197 0.38897 -0.02216
 H266 H 0.22643 0.38017 -0.03254
 C267 C 0.20783 0.40053 -0.02538
 H268 H 0.20154 0.40045 -0.03827
 N269 N 0.23030 0.38903 -0.00619
 C270 C 0.25816 0.34765 0.02316
 H271 H 0.27073 0.34761 0.01612
 C272 C 0.25545 0.33609 0.03741
 H273 H 0.26615 0.32739 0.04143
 C274 C 0.22906 0.35926 0.02646
 H275 H 0.21867 0.36804 0.02192
 C276 C 0.22574 0.34786 0.04073
 H277 H 0.21278 0.34804 0.04702
 Zn278 Zn 0.24990 0.37400 -0.00156
 N279 N 0.24514 0.35910 0.01814
 C280 C 0.27791 0.38888 0.01899
 N281 N 0.26966 0.38892 0.00298
 C282 C 0.27474 0.40032 -0.01009
 C283 C 0.28894 0.41198 -0.00750
 C284 C 0.29213 0.40039 0.02219
 C285 C 0.24136 0.34760 -0.02605
 C286 C 0.24397 0.33593 -0.04016
 C287 C 0.27380 0.34746 -0.04357
 C288 C 0.27059 0.35898 -0.02943
 N289 N 0.25450 0.35899 -0.02113
 H290 H 0.27333 0.38015 0.02943
 H291 H 0.26775 0.40027 -0.02261
 H292 H 0.29299 0.42067 -0.01823
 H293 H 0.29834 0.40033 0.03511
 H294 H 0.22879 0.34769 -0.01903
 H295 H 0.23318 0.32727 -0.04410
 H296 H 0.28678 0.34750 -0.04984
 H297 H 0.28107 0.36771 -0.02498
 C298 C 0.23906 0.33611 0.04643
 C299 C 0.20225 0.41235 -0.01208
 C300 C 0.26037 0.33575 -0.04915
 C301 C 0.29786 0.41213 0.00883
 C302 C 0.71675 0.11063 -0.00715
 H303 H 0.71701 0.11987 -0.01812
 C304 C 0.70194 0.09966 -0.00466
 H305 H 0.69077 0.10078 -0.01361
 C306 C 0.73103 0.09775 0.01770
 H307 H 0.74255 0.09697 0.02621
 C308 C 0.71645 0.08663 0.02075
 H309 H 0.71686 0.07723 0.03161
 N310 N 0.73084 0.10958 0.00406
 C311 C 0.75834 0.13709 -0.03428
 H312 H 0.76848 0.12699 -0.03505
 C313 C 0.75571 0.14844 -0.04869
 H314 H 0.76381 0.14691 -0.06049
 C315 C 0.73584 0.15185 -0.01790
 H316 H 0.72816 0.15305 -0.00581
 C317 C 0.73294 0.16363 -0.03190
 H318 H 0.72288 0.17382 -0.03058
 Zn319 Zn 0.75132 0.12382 0.00057
 N320 N 0.74827 0.13883 -0.01935
 C321 C 0.76981 0.09641 -0.01638
 N322 N 0.77079 0.10822 -0.00281
 C323 C 0.78493 0.10834 0.00841
 C324 C 0.79906 0.09660 0.00584
 C325 C 0.78372 0.08454 -0.01953
 C326 C 0.74359 0.13875 0.03432
 C327 C 0.74624 0.15025 0.04856
 C328 C 0.77252 0.16162 0.03386
 C329 C 0.76929 0.14999 0.01984
 N330 N 0.75515 0.13871 0.02040
 H331 H 0.75822 0.09628 -0.02483
 H332 H 0.78526 0.11746 0.01943
 H333 H 0.81032 0.09704 0.01474
 H334 H 0.78274 0.07527 -0.03043
 H335 H 0.73217 0.13003 0.03434
 H336 H 0.73700 0.14999 0.05960
 H337 H 0.78379 0.17057 0.03314
 H338 H 0.77805 0.14996 0.00843
 C339 C 0.74288 0.16191 -0.04757
 C340 C 0.70166 0.08750 0.00947
 C341 C 0.76089 0.16185 0.04846
 C342 C 0.79861 0.08459 -0.00836
 C343 C 0.21588 0.61105 0.49302
 H344 H 0.21614 0.62029 0.48205
 C345 C 0.20108 0.60006 0.49548
 H346 H 0.18992 0.60116 0.48652
 C347 C 0.23014 0.59819 0.51788
 H348 H 0.24165 0.59742 0.52641
 C349 C 0.21557 0.58705 0.52091
 H350 H 0.21598 0.57764 0.53178
 N351 N 0.22996 0.61002 0.50425
 C352 C 0.25749 0.63733 0.46585
 H353 H 0.26758 0.62718 0.46512
 C354 C 0.25491 0.64863 0.45139
 H355 H 0.26300 0.64701 0.43960
 C356 C 0.23505 0.65225 0.48216
 H357 H 0.22737 0.65353 0.49424
 C358 C 0.23220 0.66398 0.46811
 H359 H 0.22218 0.67422 0.46938
 Zn360 Zn 0.25044 0.62424 0.50075
 N361 N 0.24743 0.63918 0.48076
 C362 C 0.26885 0.59667 0.48399
 N363 N 0.26991 0.60863 0.49743
 C364 C 0.28412 0.60888 0.50855
 C365 C 0.29824 0.59711 0.50601
 C366 C 0.28273 0.58477 0.48089
 C367 C 0.24271 0.63922 0.53447
 C368 C 0.24536 0.65073 0.54871
 C369 C 0.27159 0.66214 0.53396
 C370 C 0.26837 0.65050 0.51995
 N371 N 0.25425 0.63918 0.52054
 H372 H 0.25720 0.59646 0.47561
 H373 H 0.28452 0.61811 0.51947
 H374 H 0.30957 0.59768 0.51482
 H375 H 0.28167 0.57537 0.47010
 H376 H 0.23130 0.63047 0.53451
 H377 H 0.23613 0.65046 0.55976
 H378 H 0.28285 0.67111 0.53322
 H379 H 0.27711 0.65047 0.50853
 C380 C 0.24214 0.66216 0.45245
 C381 C 0.20080 0.58790 0.50961
 C382 C 0.25998 0.66236 0.54858
 C383 C 0.29771 0.58494 0.49195
 C384 C 0.72559 0.90108 0.50680
 H385 H 0.73251 0.90096 0.51934
 C386 C 0.71146 0.91277 0.50413
 H387 H 0.70741 0.92141 0.51485
 C388 C 0.72249 0.88974 0.47771
 H389 H 0.72706 0.88101 0.46731
 C390 C 0.70836 0.90130 0.47443
 H391 H 0.70222 0.90129 0.46147
 N392 N 0.73065 0.88970 0.49376
 C393 C 0.75845 0.84839 0.52328
 H394 H 0.77106 0.84840 0.51632
 C395 C 0.75570 0.83682 0.53751
 H396 H 0.76642 0.82817 0.54160
 C397 C 0.72928 0.85986 0.52638
 H398 H 0.71887 0.86858 0.52177
 C399 C 0.72592 0.84845 0.54063
 H400 H 0.71292 0.84857 0.54684
 Zn401 Zn 0.75024 0.87466 0.49847
 N402 N 0.74541 0.85977 0.51816
 C403 C 0.77807 0.88967 0.51916
 N404 N 0.76998 0.88958 0.50307
 C405 C 0.77520 0.90087 0.48995
 C406 C 0.78940 0.91253 0.49257
 C407 C 0.79227 0.90119 0.52240
 C408 C 0.74172 0.84830 0.47395
 C409 C 0.74434 0.83660 0.45986
 C410 C 0.77425 0.84798 0.45661
 C411 C 0.77102 0.85953 0.47071
 N412 N 0.75489 0.85963 0.47893
 H413 H 0.77337 0.88103 0.52962
 H414 H 0.76833 0.90072 0.47737
 H415 H 0.79357 0.92110 0.48180
 H416 H 0.79834 0.90124 0.53538
 H417 H 0.72911 0.84846 0.48090
 H418 H 0.73353 0.82799 0.45588
 H419 H 0.78727 0.84795 0.45041
 H420 H 0.78152 0.86821 0.47522
 C421 C 0.73926 0.83676 0.54643
 C422 C 0.70262 0.91300 0.48776
 C423 C 0.76080 0.83633 0.45096
 C424 C 0.79816 0.91281 0.50899
 C425 C 0.00649 0.22746 0.40085
 H426 H 0.01905 0.23451 0.40085
 C427 C 0.00375 0.21331 0.41253
 H428 H 0.01441 0.20939 0.42130
 C429 C -0.02253 0.22401 0.38919
 H430 H -0.03287 0.22845 0.38034
 C431 C -0.02588 0.20984 0.40071
 H432 H -0.03883 0.20353 0.40056
 N433 N -0.00646 0.23235 0.38931
 C434 C 0.02348 0.26015 0.34807
 H435 H 0.01651 0.27271 0.34796
 C436 C 0.03780 0.25740 0.33657
 H437 H 0.04194 0.26807 0.32784
 C438 C 0.02652 0.23109 0.35978
 H439 H 0.02184 0.22073 0.36856
 C440 C 0.04085 0.22774 0.34844
 H441 H 0.04705 0.21478 0.34866
 Zn442 Zn -0.00160 0.25191 0.37424
 N443 N 0.01828 0.24716 0.35953
 C444 C 0.01896 0.28000 0.38907
 N445 N 0.00288 0.27169 0.38903
 C446 C -0.01038 0.27678 0.40021
 C447 C -0.00794 0.29108 0.41168
 C448 C 0.02202 0.29433 0.40041
 C449 C -0.02611 0.24334 0.34782
 C450 C -0.04014 0.24598 0.33605
 C451 C -0.04322 0.27588 0.34720
 C452 C -0.02918 0.27262 0.35883
 N453 N -0.02108 0.25649 0.35908
 H454 H 0.02953 0.27542 0.38051
 H455 H -0.02295 0.26975 0.40009
 H456 H -0.01884 0.29515 0.42015
 H457 H 0.03499 0.30061 0.40040
 H458 H -0.01923 0.23073 0.34808
 H459 H -0.04418 0.23518 0.32750
 H460 H -0.04931 0.28889 0.34704
 H461 H -0.02462 0.28311 0.36744
 C462 C 0.04671 0.24101 0.33664
 C463 C -0.01262 0.20426 0.41256
 C464 C -0.04893 0.26243 0.33563
 C465 C 0.00845 0.30010 0.41188
 C466 C -0.00638 0.72423 0.09938
 H467 H -0.01896 0.73119 0.09960
 C468 C -0.00378 0.71019 0.08761
 H469 H -0.01459 0.70624 0.07902
 C470 C 0.02286 0.72093 0.11051
 H471 H 0.03335 0.72540 0.11918
 C472 C 0.02607 0.70688 0.09887
 H473 H 0.03906 0.70069 0.09877
 N474 N 0.00676 0.72915 0.11069
 C475 C -0.02257 0.75665 0.15239
 H476 H -0.01555 0.76921 0.15247
 C477 C -0.03683 0.75386 0.16398
 H478 H -0.04086 0.76448 0.17275
 C479 C -0.02584 0.72767 0.14065
 H480 H -0.02128 0.71736 0.13182
 C481 C -0.04011 0.72427 0.15209
 H482 H -0.04638 0.71132 0.15187
 Zn483 Zn 0.00216 0.74860 0.12588
 N484 N -0.01753 0.74374 0.14086
 C485 C -0.01850 0.77681 0.11143
 N486 N -0.00247 0.76846 0.11118
 C487 C 0.01061 0.77355 0.09976
 C488 C 0.00802 0.78788 0.08830
 C489 C -0.02170 0.79117 0.10013
 C490 C 0.02699 0.73986 0.15192
 C491 C 0.04127 0.74237 0.16343
 C492 C 0.04446 0.77227 0.15217
 C493 C 0.03017 0.76915 0.14081
 N494 N 0.02189 0.75307 0.14074
 H495 H -0.02895 0.77222 0.12019
 H496 H 0.02314 0.76650 0.09965
 H497 H 0.01877 0.79194 0.07960
 H498 H -0.03463 0.79748 0.10037
 H499 H 0.01999 0.72729 0.15179
 H500 H 0.04535 0.73152 0.17192
 H501 H 0.05071 0.78524 0.15219
 H502 H 0.02557 0.77969 0.13226
 C503 C -0.04584 0.73749 0.16392
 C504 C 0.01263 0.70128 0.08725
 C505 C 0.05025 0.75876 0.16365
 C506 C -0.00832 0.79692 0.08839
 C507 C 0.49333 0.22408 0.60022
 H508 H 0.48075 0.23105 0.60038
 C509 C 0.49599 0.21006 0.58845
 H510 H 0.48524 0.20614 0.57977
 C511 C 0.52249 0.22075 0.61153
 H512 H 0.53293 0.22520 0.62027
 C513 C 0.52577 0.20671 0.59991
 H514 H 0.53874 0.20050 0.59988
 N515 N 0.50640 0.22899 0.61162
 C516 C 0.47679 0.25649 0.65312
 H517 H 0.48372 0.26910 0.65316
 C518 C 0.46251 0.25366 0.66466
 H519 H 0.45835 0.26431 0.67334
 C520 C 0.47380 0.22743 0.64153
 H521 H 0.47847 0.21710 0.63276
 C522 C 0.45952 0.22398 0.65293
 H523 H 0.45336 0.21097 0.65277
 Zn524 Zn 0.50170 0.24846 0.62675
 N525 N 0.48198 0.24356 0.64168
 C526 C 0.48100 0.27656 0.61216
 N527 N 0.49706 0.26827 0.61199
 C528 C 0.51017 0.27338 0.60061
 C529 C 0.50757 0.28767 0.58910
 C530 C 0.47780 0.29088 0.60081
 C531 C 0.52649 0.23984 0.65289
 C532 C 0.54075 0.24240 0.66441
 C533 C 0.54390 0.27228 0.65308
 C534 C 0.52963 0.26911 0.64171
 N535 N 0.52138 0.25301 0.64167
 H536 H 0.47053 0.27196 0.62088
 H537 H 0.52272 0.26636 0.60056
 H538 H 0.51834 0.29174 0.58043
 H539 H 0.46484 0.29714 0.60098
 H540 H 0.51951 0.22726 0.65278
 H541 H 0.54484 0.23158 0.67292
 H542 H 0.55012 0.28526 0.65307
 H543 H 0.52502 0.27961 0.63312
 C544 C 0.45363 0.23721 0.66467
 C545 C 0.51239 0.20114 0.58818
 C546 C 0.54970 0.25881 0.66459
 C547 C 0.49120 0.29665 0.58910
 C548 C 0.50675 0.72749 0.90099
 H549 H 0.51929 0.73458 0.90101
 C550 C 0.50405 0.71331 0.91264
 H551 H 0.51473 0.70939 0.92139
 C552 C 0.47774 0.72398 0.88932
 H553 H 0.46739 0.72841 0.88047
 C554 C 0.47444 0.70977 0.90081
 H555 H 0.46151 0.70341 0.90063
 N556 N 0.49378 0.73238 0.88947
 C557 C 0.52357 0.76032 0.84823
 H558 H 0.51658 0.77287 0.84815
 C559 C 0.53786 0.75762 0.83668
 H560 H 0.54196 0.76831 0.82795
 C561 C 0.52669 0.73125 0.85987
 H562 H 0.52205 0.72087 0.86865
 C563 C 0.54099 0.72795 0.84849
 H564 H 0.54722 0.71499 0.84868
 Zn565 Zn 0.49858 0.75200 0.87446
 N566 N 0.51842 0.74731 0.85967
 C567 C 0.51917 0.78006 0.88928
 N568 N 0.50310 0.77172 0.88930
 C569 C 0.48988 0.77676 0.90056
 C570 C 0.49237 0.79105 0.91204
 C571 C 0.52226 0.79437 0.90063
 C572 C 0.47408 0.74353 0.84800
 C573 C 0.46004 0.74621 0.83624
 C574 C 0.45680 0.77598 0.84767
 C575 C 0.47086 0.77270 0.85927
 N576 N 0.47905 0.75661 0.85936
 H577 H 0.52971 0.77552 0.88066
 H578 H 0.47732 0.76972 0.90049
 H579 H 0.48150 0.79509 0.92058
 H580 H 0.53522 0.80067 0.90057
 H581 H 0.48103 0.73096 0.84815
 H582 H 0.45607 0.73548 0.82758
 H583 H 0.45063 0.78896 0.84764
 H584 H 0.47537 0.78313 0.86797
 C585 C 0.54680 0.74124 0.83671
 C586 C 0.48771 0.70421 0.91264
 C587 C 0.45117 0.76262 0.83597
 C588 C 0.50873 0.80010 0.91218
 C589 C 0.14903 0.21957 0.25429
 C590 C 0.16185 0.20656 0.25812
 C591 C 0.17614 0.20363 0.24658
 C592 C 0.17801 0.21373 0.23099
 C593 C 0.16521 0.22677 0.22718
 C594 C 0.15087 0.22962 0.23866
 C595 C 0.13384 0.22267 0.26650
 N596 N 0.12043 0.23381 0.26191
 N597 N 0.10679 0.23661 0.27286
 C598 C 0.10598 0.22840 0.28890
 N599 N 0.11941 0.21727 0.29349
 N600 N 0.13303 0.21444 0.28252
 C601 C 0.09081 0.23157 0.30110
 C602 C 0.09097 0.22476 0.31847
 C603 C 0.07670 0.22784 0.32999
 C604 C 0.06189 0.23773 0.32440
 C605 C 0.06170 0.24446 0.30701
 C606 C 0.07600 0.24146 0.29552
 H607 H 0.16083 0.19855 0.27001
 H608 H 0.18575 0.19349 0.24995
 H609 H 0.16621 0.23478 0.21528
 H610 H 0.14127 0.23978 0.23531
 H611 H 0.10220 0.21716 0.32324
 H612 H 0.07740 0.22268 0.34337
 H613 H 0.05038 0.25188 0.30217
 H614 H 0.07537 0.24681 0.28221
 C615 C 0.64898 0.72000 0.75413
 C616 C 0.66179 0.70696 0.75792
 C617 C 0.67606 0.70404 0.74635
 C618 C 0.67792 0.71416 0.73077
 C619 C 0.66513 0.72723 0.72701
 C620 C 0.65081 0.73008 0.73852
 C621 C 0.63382 0.72309 0.76637
 N622 N 0.62040 0.73425 0.76183
 N623 N 0.60678 0.73702 0.77281
 C624 C 0.60601 0.72879 0.78883
 N625 N 0.61943 0.71764 0.79338
 N626 N 0.63304 0.71483 0.78238
 C627 C 0.59085 0.73193 0.80107
 C628 C 0.59106 0.72510 0.81842
 C629 C 0.57681 0.72814 0.82997
 C630 C 0.56197 0.73801 0.82443
 C631 C 0.56174 0.74478 0.80705
 C632 C 0.57602 0.74181 0.79553
 H633 H 0.66078 0.69893 0.76980
 H634 H 0.68566 0.69388 0.74969
 H635 H 0.66612 0.73525 0.71512
 H636 H 0.64122 0.74025 0.73520
 H637 H 0.60230 0.71751 0.82317
 H638 H 0.57753 0.72296 0.84335
 H639 H 0.55040 0.75218 0.80225
 H640 H 0.57536 0.74718 0.78223
 C641 C 0.35024 0.78350 0.75246
 C642 C 0.34858 0.77334 0.73693
 C643 C 0.33421 0.77591 0.72551
 C644 C 0.32120 0.78877 0.72928
 C645 C 0.32295 0.79903 0.74472
 C646 C 0.33726 0.79640 0.75619
 C647 C 0.36532 0.78057 0.76473
 N648 N 0.36588 0.78889 0.78068
 N649 N 0.37934 0.78615 0.79178
 C650 C 0.39284 0.77500 0.78740
 N651 N 0.39230 0.76672 0.77144
 N652 N 0.37882 0.76943 0.76035
 C653 C 0.40779 0.77189 0.79980
 C654 C 0.42267 0.76191 0.79450
 C655 C 0.43674 0.75895 0.80620
 C656 C 0.43624 0.76583 0.82350
 C657 C 0.42134 0.77579 0.82880
 C658 C 0.40731 0.77882 0.81708
 H659 H 0.35832 0.76328 0.73364
 H660 H 0.33332 0.76779 0.71371
 H661 H 0.31317 0.80904 0.74806
 H662 H 0.33814 0.80449 0.76800
 H663 H 0.42354 0.75646 0.78126
 H664 H 0.44813 0.75147 0.80159
 H665 H 0.42040 0.78105 0.84211
 H666 H 0.39602 0.78648 0.82164
 C667 C -0.14993 0.28292 0.25209
 C668 C -0.15226 0.27193 0.23725
 C669 C -0.16664 0.27445 0.22584
 C670 C -0.17906 0.28813 0.22889
 C671 C -0.17655 0.29923 0.24370
 C672 C -0.16223 0.29660 0.25516
 C673 C -0.13483 0.28005 0.26436
 N674 N -0.13390 0.28896 0.27997
 N675 N -0.12043 0.28627 0.29107
 C676 C -0.10728 0.27459 0.28703
 N677 N -0.10819 0.26571 0.27140
 N678 N -0.12168 0.26836 0.26032
 C679 C -0.09233 0.27154 0.29942
 C680 C -0.07756 0.26134 0.29425
 C681 C -0.06348 0.25844 0.30594
 C682 C -0.06387 0.26560 0.32314
 C683 C -0.07865 0.27579 0.32831
 C684 C -0.09268 0.27877 0.31658
 H685 H -0.14304 0.26124 0.23450
 H686 H -0.16797 0.26559 0.21462
 H687 H -0.18571 0.30993 0.24661
 H688 H -0.16080 0.30536 0.26643
 H689 H -0.07679 0.25566 0.28109
 H690 H -0.05217 0.25078 0.30141
 H691 H -0.07951 0.28126 0.34154
 H692 H -0.10389 0.28661 0.32105
 C693 C -0.14865 0.71663 0.24601
 C694 C -0.16157 0.70367 0.24221
 C695 C -0.17600 0.70094 0.25365
 C696 C -0.17791 0.71117 0.26911
 C697 C -0.16500 0.72415 0.27288
 C698 C -0.15052 0.72681 0.26150
 C699 C -0.13334 0.71956 0.23388
 N700 N -0.11984 0.73062 0.23847
 N701 N -0.10610 0.73330 0.22758
 C702 C -0.10530 0.72505 0.21160
 N703 N -0.11880 0.71399 0.20700
 N704 N -0.13252 0.71128 0.21792
 C705 C -0.09005 0.72812 0.19944
 C706 C -0.09024 0.72135 0.18209
 C707 C -0.07592 0.72439 0.17059
 C708 C -0.06103 0.73419 0.17618
 C709 C -0.06081 0.74087 0.19356
 C710 C -0.07516 0.73791 0.20503
 H711 H -0.16053 0.69557 0.23041
 H712 H -0.18570 0.69084 0.25031
 H713 H -0.16602 0.73225 0.28468
 H714 H -0.14085 0.73693 0.26482
 H715 H -0.10152 0.71383 0.17730
 H716 H -0.07665 0.71928 0.15721
 H717 H -0.04943 0.74822 0.19840
 H718 H -0.07450 0.74323 0.21834
 C719 C 0.35061 0.21620 0.74645
 C720 C 0.33845 0.20236 0.74335
 C721 C 0.32399 0.19962 0.75473
 C722 C 0.32120 0.21074 0.76949
 C723 C 0.33342 0.22463 0.77251
 C724 C 0.34794 0.22726 0.76119
 C725 C 0.36596 0.21912 0.73439
 N726 N 0.37905 0.23080 0.73867
 N727 N 0.39282 0.23348 0.72782
 C728 C 0.39407 0.22463 0.71220
 N729 N 0.38098 0.21296 0.70790
 N730 N 0.36724 0.21024 0.71878
 C731 C 0.40935 0.22772 0.70008
 C732 C 0.40935 0.22070 0.68283
 C733 C 0.42368 0.22379 0.67136
 C734 C 0.43841 0.23387 0.67689
 C735 C 0.43845 0.24078 0.69419
 C736 C 0.42408 0.23779 0.70562
 H737 H 0.34014 0.19356 0.73214
 H738 H 0.31497 0.18877 0.75185
 H739 H 0.33186 0.23353 0.78367
 H740 H 0.35702 0.23808 0.76395
 H741 H 0.39819 0.21297 0.67809
 H742 H 0.42309 0.21849 0.65805
 H743 H 0.44970 0.24833 0.69900
 H744 H 0.42458 0.24329 0.71886
 C745 C 0.65201 0.27929 0.74654
 C746 C 0.66455 0.29273 0.74300
 C747 C 0.67872 0.29573 0.75457
 C748 C 0.68076 0.28530 0.76990
 C749 C 0.66828 0.27179 0.77338
 C750 C 0.65405 0.26886 0.76187
 C751 C 0.63688 0.27621 0.73436
 N752 N 0.62359 0.26477 0.73878
 N753 N 0.60996 0.26206 0.72788
 C754 C 0.60905 0.27065 0.71206
 N755 N 0.62236 0.28207 0.70762
 N756 N 0.63597 0.28482 0.71855
 C757 C 0.59387 0.26763 0.69992
 C758 C 0.59401 0.27479 0.68270
 C759 C 0.57972 0.27190 0.67125
 C760 C 0.56491 0.26187 0.67677
 C761 C 0.56475 0.25476 0.69402
 C762 C 0.57908 0.25757 0.70544
 H763 H 0.66338 0.30103 0.73133
 H764 H 0.68810 0.30623 0.75144
 H765 H 0.66942 0.26351 0.78507
 H766 H 0.64467 0.25837 0.76499
 H767 H 0.60523 0.28252 0.67798
 H768 H 0.58041 0.27733 0.65797
 H769 H 0.55343 0.24722 0.69881
 H770 H 0.57847 0.25195 0.71865
 C771 C 0.15241 0.77911 0.24582
 C772 C 0.16497 0.79254 0.24231
 C773 C 0.17910 0.79554 0.25392
 C774 C 0.18107 0.78512 0.26927
 C775 C 0.16857 0.77163 0.27272
 C776 C 0.15438 0.76870 0.26117
 C777 C 0.13731 0.77604 0.23359
 N778 N 0.12401 0.76459 0.23798
 N779 N 0.11040 0.76189 0.22704
 C780 C 0.10954 0.77049 0.21122
 N781 N 0.12286 0.78190 0.20682
 N782 N 0.13644 0.78464 0.21778
 C783 C 0.09439 0.76749 0.19905
 C784 C 0.09455 0.77467 0.18184
 C785 C 0.08028 0.77181 0.17036
 C786 C 0.06545 0.76177 0.17585
 C787 C 0.06526 0.75464 0.19308
 C788 C 0.07957 0.75742 0.20453
 H789 H 0.16385 0.80083 0.23063
 H790 H 0.18849 0.80603 0.25082
 H791 H 0.16966 0.76336 0.28443
 H792 H 0.14498 0.75821 0.26427
 H793 H 0.10579 0.78240 0.17714
 H794 H 0.08098 0.77726 0.15709
 H795 H 0.05393 0.74710 0.19784
 H796 H 0.07894 0.75179 0.21773
 C797 C 0.25412 0.15012 0.21919
 C798 C 0.23857 0.15196 0.22942
 C799 C 0.22703 0.16622 0.22659
 C800 C 0.23071 0.17892 0.21338
 C801 C 0.24624 0.17704 0.20312
 C802 C 0.25783 0.16284 0.20602
 C803 C 0.26640 0.13503 0.22223
 N804 N 0.28239 0.13426 0.21381
 N805 N 0.29343 0.12072 0.21658
 C806 C 0.28894 0.10734 0.22785
 N807 N 0.27294 0.10810 0.23625
 N808 N 0.26192 0.12165 0.23352
 C809 C 0.30122 0.09227 0.23093
 C810 C 0.29573 0.07747 0.24095
 C811 C 0.30730 0.06327 0.24388
 C812 C 0.32469 0.06355 0.23695
 C813 C 0.33018 0.07835 0.22693
 C814 C 0.31858 0.09252 0.22392
 H815 H 0.23531 0.14243 0.23970
 H816 H 0.21518 0.16722 0.23473
 H817 H 0.24952 0.18658 0.19285
 H818 H 0.26967 0.16182 0.19787
 H819 H 0.28242 0.07677 0.24646
 H820 H 0.30253 0.05195 0.25141
 H821 H 0.34356 0.07912 0.22162
 H822 H 0.32329 0.10374 0.21622
 C823 C 0.75386 0.65040 0.71881
 C824 C 0.75759 0.66313 0.70565
 C825 C 0.74603 0.67736 0.70277
 C826 C 0.73051 0.67926 0.71306
 C827 C 0.72681 0.66656 0.72625
 C828 C 0.73832 0.65228 0.72906
 C829 C 0.76610 0.63528 0.72185
 N830 N 0.76161 0.62192 0.73314
 N831 N 0.77260 0.60834 0.73587
 C832 C 0.78859 0.60755 0.72746
 N833 N 0.79309 0.62092 0.71617
 N834 N 0.78208 0.63448 0.71341
 C835 C 0.80085 0.59246 0.73055
 C836 C 0.81820 0.59267 0.72353
 C837 C 0.82978 0.57849 0.72656
 C838 C 0.82428 0.56372 0.73662
 C839 C 0.80689 0.56348 0.74356
 C840 C 0.79534 0.57769 0.74061
 H841 H 0.76942 0.66208 0.69749
 H842 H 0.74932 0.68690 0.69251
 H843 H 0.71497 0.66759 0.73440
 H844 H 0.73504 0.64274 0.73934
 H845 H 0.82292 0.60387 0.71580
 H846 H 0.84316 0.57923 0.72123
 H847 H 0.80211 0.55219 0.75112
 H848 H 0.78203 0.57703 0.74613
 C849 C 0.75426 0.35048 0.78336
 C850 C 0.73961 0.34764 0.77220
 C851 C 0.72841 0.33301 0.77476
 C852 C 0.73148 0.32087 0.78865
 C853 C 0.74612 0.32387 0.79990
 C854 C 0.75737 0.33843 0.79723
 C855 C 0.76629 0.36586 0.78048
 N856 N 0.78186 0.36722 0.78946
 N857 N 0.79274 0.38096 0.78676
 C858 C 0.78849 0.39396 0.77502
 N859 N 0.77289 0.39262 0.76607
 N860 N 0.76204 0.37886 0.76873
 C861 C 0.80064 0.40919 0.77194
 C862 C 0.79515 0.42384 0.76178
 C863 C 0.80664 0.43816 0.75879
 C864 C 0.82396 0.43812 0.76579
 C865 C 0.82944 0.42347 0.77596
 C866 C 0.81791 0.40920 0.77905
 H867 H 0.73684 0.35665 0.76135
 H868 H 0.71733 0.33130 0.76578
 H869 H 0.74903 0.31493 0.81077
 H870 H 0.76850 0.34026 0.80612
 H871 H 0.78190 0.42433 0.75621
 H872 H 0.80187 0.44936 0.75116
 H873 H 0.84277 0.42287 0.78132
 H874 H 0.82261 0.39809 0.78685
 C875 C 0.25458 -0.14974 0.28293
 C876 C 0.23998 -0.15259 0.27172
 C877 C 0.22876 -0.16720 0.27425
 C878 C 0.23176 -0.17933 0.28818
 C879 C 0.24634 -0.17632 0.29948
 C880 C 0.25762 -0.16177 0.29684
 C881 C 0.26663 -0.13437 0.28009
 N882 N 0.28218 -0.13302 0.28911
 N883 N 0.29307 -0.11929 0.28646
 C884 C 0.28886 -0.10629 0.27470
 N885 N 0.27329 -0.10761 0.26571
 N886 N 0.26242 -0.12137 0.26833
 C887 C 0.30103 -0.09106 0.27168
 C888 C 0.29556 -0.07638 0.26154
 C889 C 0.30707 -0.06206 0.25861
 C890 C 0.32437 -0.06212 0.26564
 C891 C 0.32983 -0.07680 0.27578
 C892 C 0.31828 -0.09107 0.27882
 H893 H 0.23727 -0.14359 0.26085
 H894 H 0.21772 -0.16892 0.26522
 H895 H 0.24920 -0.18525 0.31037
 H896 H 0.26872 -0.15995 0.30577
 H897 H 0.28233 -0.07587 0.25595
 H898 H 0.30232 -0.05084 0.25099
 H899 H 0.34315 -0.07741 0.28117
 H900 H 0.32297 -0.10220 0.28660
 C901 C 0.24432 -0.14991 0.71793
 C902 C 0.25933 -0.15214 0.72874
 C903 C 0.27098 -0.16632 0.72600
 C904 C 0.26802 -0.17863 0.71226
 C905 C 0.25292 -0.17634 0.70146
 C906 C 0.24122 -0.16222 0.70431
 C907 C 0.23202 -0.13481 0.72082
 N908 N 0.21632 -0.13382 0.71200
 N909 N 0.20530 -0.12023 0.71460
 C910 C 0.20952 -0.10701 0.72607
 N911 N 0.22523 -0.10799 0.73487
 N912 N 0.23622 -0.12160 0.73231
 C913 C 0.19728 -0.09186 0.72897
 C914 C 0.20271 -0.07707 0.73893
 C915 C 0.19118 -0.06281 0.74171
 C916 C 0.17388 -0.06302 0.73470
 C917 C 0.16844 -0.07780 0.72471
 C918 C 0.18002 -0.09203 0.72184
 H919 H 0.26209 -0.14295 0.73940
 H920 H 0.28238 -0.16751 0.73466
 H921 H 0.25005 -0.18545 0.69075
 H922 H 0.22979 -0.16088 0.69571
 H923 H 0.21595 -0.07643 0.74451
 H924 H 0.19591 -0.05151 0.74920
 H925 H 0.15513 -0.07852 0.71934
 H926 H 0.17536 -0.10324 0.71418
 C927 C 0.74411 0.34983 0.21840
 C928 C 0.74037 0.33683 0.20559
 C929 C 0.75211 0.32273 0.20272
 C930 C 0.76781 0.32123 0.21268
 C931 C 0.77148 0.33417 0.22558
 C932 C 0.75980 0.34832 0.22837
 C933 C 0.73178 0.36491 0.22131
 N934 N 0.73628 0.37848 0.23225
 N935 N 0.72526 0.39207 0.23482
 C936 C 0.70922 0.39266 0.22659
 N937 N 0.70470 0.37907 0.21567
 N938 N 0.71575 0.36550 0.21307
 C939 C 0.69695 0.40779 0.22950
 C940 C 0.67959 0.40746 0.22263
 C941 C 0.66800 0.42168 0.22550
 C942 C 0.67352 0.43660 0.23523
 C943 C 0.69092 0.43696 0.24200
 C944 C 0.70247 0.42271 0.23921
 H945 H 0.72842 0.33758 0.19765
 H946 H 0.74884 0.31299 0.19271
 H947 H 0.78346 0.33346 0.23348
 H948 H 0.76308 0.35806 0.23838
 H949 H 0.67486 0.39615 0.21516
 H950 H 0.65461 0.42086 0.22031
 H951 H 0.69570 0.44836 0.24930
 H952 H 0.71579 0.42347 0.24459
 C953 C 0.74520 0.64819 0.28101
 C954 C 0.76088 0.64985 0.27092
 C955 C 0.77253 0.66405 0.27367
 C956 C 0.76885 0.67690 0.28667
 C957 C 0.75319 0.67522 0.29680
 C958 C 0.74149 0.66107 0.29398
 C959 C 0.73280 0.63316 0.27803
 N960 N 0.71673 0.63254 0.28632
 N961 N 0.70558 0.61906 0.28360
 C962 C 0.71003 0.60558 0.27250
 N963 N 0.72611 0.60618 0.26424
 N964 N 0.73724 0.61968 0.26692
 C965 C 0.69761 0.59057 0.26944
 C966 C 0.70303 0.57571 0.25956
 C967 C 0.69133 0.56159 0.25663
 C968 C 0.67389 0.56200 0.26342
 C969 C 0.66847 0.57686 0.27331
 C970 C 0.68020 0.59096 0.27632
 H971 H 0.76414 0.64020 0.26080
 H972 H 0.78447 0.66491 0.26564
 H973 H 0.74991 0.68488 0.30690
 H974 H 0.72956 0.66020 0.30202
 H975 H 0.71637 0.57491 0.25417
 H976 H 0.69603 0.55022 0.24921
 H977 H 0.65506 0.57773 0.27851
 H978 H 0.67555 0.60223 0.28391
 C979 C 0.24538 0.14870 0.78053
 C980 C 0.26037 0.15111 0.76960
 C981 C 0.27203 0.16531 0.77239
 C982 C 0.26909 0.17743 0.78631
 C983 C 0.25406 0.17491 0.79727
 C984 C 0.24235 0.16078 0.79437
 C985 C 0.23299 0.13367 0.77750
 N986 N 0.21726 0.13263 0.78639
 N987 N 0.20612 0.11914 0.78364
 C988 C 0.21024 0.10608 0.77194
 N989 N 0.22598 0.10711 0.76308
 N990 N 0.23710 0.12062 0.76578
 C991 C 0.19784 0.09106 0.76887
 C992 C 0.20317 0.07636 0.75871
 C993 C 0.19149 0.06221 0.75579
 C994 C 0.17415 0.06246 0.76286
 C995 C 0.16883 0.07717 0.77303
 C996 C 0.18055 0.09127 0.77604
 H997 H 0.26308 0.14208 0.75878
 H998 H 0.28339 0.16667 0.76361
 H999 H 0.25122 0.18387 0.80813
 H1000 H 0.23096 0.15929 0.80307
 H1001 H 0.21643 0.07570 0.75309
 H1002 H 0.19614 0.05097 0.74817
 H1003 H 0.15550 0.07792 0.77845
 H1004 H 0.17597 0.10243 0.78385
 C1005 C 0.21842 0.25421 0.14906
 C1006 C 0.22862 0.23869 0.15097
 C1007 C 0.22589 0.22732 0.16539
 C1008 C 0.21280 0.23112 0.17819
 C1009 C 0.20256 0.24661 0.17624
 C1010 C 0.20537 0.25803 0.16188
 C1011 C 0.22139 0.26631 0.13380
 N1012 N 0.21305 0.28228 0.13295
 N1013 N 0.21575 0.29318 0.11927
 C1014 C 0.22688 0.28856 0.10583
 N1015 N 0.23519 0.27258 0.10667
 N1016 N 0.23252 0.26170 0.12037
 C1017 C 0.22991 0.30069 0.09061
 C1018 C 0.23974 0.29506 0.07577
 C1019 C 0.24264 0.30650 0.06143
 C1020 C 0.23585 0.32389 0.06162
 C1021 C 0.22602 0.32952 0.07646
 C1022 C 0.22305 0.31805 0.09076
 H1023 H 0.23881 0.23534 0.14137
 H1024 H 0.23400 0.21550 0.16645
 H1025 H 0.19239 0.24997 0.18586
 H1026 H 0.19725 0.26985 0.16081
 H1027 H 0.24513 0.28175 0.07515
 H1028 H 0.25001 0.30163 0.05010
 H1029 H 0.22083 0.34291 0.07716
 H1030 H 0.21550 0.32287 0.10201
 C1031 C 0.71837 0.75470 0.64888
 C1032 C 0.70530 0.75852 0.66169
 C1033 C 0.70247 0.74706 0.67603
 C1034 C 0.71270 0.73157 0.67797
 C1035 C 0.72580 0.72779 0.66518
 C1036 C 0.72856 0.73918 0.65079
 C1037 C 0.72136 0.76684 0.63365
 N1038 N 0.73256 0.76226 0.62025
 N1039 N 0.73526 0.77316 0.60657
 C1040 C 0.72692 0.78912 0.60572
 N1041 N 0.71573 0.79371 0.61913
 N1042 N 0.71300 0.78279 0.63279
 C1043 C 0.72999 0.80128 0.59052
 C1044 C 0.72306 0.81861 0.59065
 C1045 C 0.72606 0.83010 0.57637
 C1046 C 0.73601 0.82452 0.56159
 C1047 C 0.74287 0.80716 0.56143
 C1048 C 0.73993 0.79570 0.57574
 H1049 H 0.69718 0.77033 0.66063
 H1050 H 0.69228 0.75042 0.68564
 H1051 H 0.73391 0.71596 0.66623
 H1052 H 0.73876 0.73585 0.64119
 H1053 H 0.71542 0.82339 0.60185
 H1054 H 0.72082 0.84347 0.57704
 H1055 H 0.75033 0.80233 0.55013
 H1056 H 0.74538 0.78241 0.57514
 C1057 C 0.78122 0.75297 0.34986
 C1058 C 0.79445 0.75652 0.33712
 C1059 C 0.79729 0.74488 0.32299
 C1060 C 0.78689 0.72945 0.32120
 C1061 C 0.77362 0.72592 0.33392
 C1062 C 0.77086 0.73751 0.34810
 C1063 C 0.77824 0.76531 0.36487
 N1064 N 0.76691 0.76098 0.37827
 N1065 N 0.76425 0.77205 0.39176
 C1066 C 0.77277 0.78797 0.39241
 N1067 N 0.78409 0.79231 0.37900
 N1068 N 0.78679 0.78121 0.36554
 C1069 C 0.76976 0.80032 0.40740
 C1070 C 0.77689 0.81760 0.40704
 C1071 C 0.77397 0.82926 0.42113
 C1072 C 0.76393 0.82391 0.43597
 C1073 C 0.75687 0.80661 0.43637
 C1074 C 0.75971 0.79497 0.42224
 H1075 H 0.80271 0.76828 0.33807
 H1076 H 0.80761 0.74803 0.31343
 H1077 H 0.76538 0.71415 0.33297
 H1078 H 0.76052 0.73438 0.35765
 H1079 H 0.78461 0.82219 0.39579
 H1080 H 0.77937 0.84258 0.42028
 H1081 H 0.74933 0.80195 0.44772
 H1082 H 0.75412 0.78173 0.42302
 C1083 C 0.28083 0.25259 -0.15041
 C1084 C 0.29408 0.25616 -0.16313
 C1085 C 0.29695 0.24454 -0.17727
 C1086 C 0.28655 0.22911 -0.17910
 C1087 C 0.27327 0.22556 -0.16641
 C1088 C 0.27048 0.23713 -0.15221
 C1089 C 0.27784 0.26490 -0.13538
 N1090 N 0.26653 0.26052 -0.12198
 N1091 N 0.26385 0.27157 -0.10847
 C1092 C 0.27233 0.28750 -0.10781
 N1093 N 0.28362 0.29189 -0.12122
 N1094 N 0.28633 0.28082 -0.13471
 C1095 C 0.26932 0.29983 -0.09279
 C1096 C 0.27635 0.31714 -0.09317
 C1097 C 0.27344 0.32878 -0.07905
 C1098 C 0.26349 0.32336 -0.06417
 C1099 C 0.25651 0.30603 -0.06377
 C1100 C 0.25935 0.29442 -0.07793
 H1101 H 0.30233 0.26792 -0.16215
 H1102 H 0.30727 0.24772 -0.18681
 H1103 H 0.26504 0.21379 -0.16738
 H1104 H 0.26014 0.23397 -0.14268
 H1105 H 0.28401 0.32179 -0.10445
 H1106 H 0.27878 0.34212 -0.07991
 H1107 H 0.24904 0.30132 -0.05240
 H1108 H 0.25382 0.28115 -0.07714
 C1109 C 0.72178 0.24447 -0.14906
 C1110 C 0.71109 0.23925 -0.16338
 C1111 C 0.70795 0.25089 -0.17747
 C1112 C 0.71563 0.26793 -0.17767
 C1113 C 0.72643 0.27310 -0.16341
 C1114 C 0.72937 0.26155 -0.14920
 C1115 C 0.72499 0.23221 -0.13404
 N1116 N 0.73127 0.23840 -0.11836
 N1117 N 0.73410 0.22739 -0.10483
 C1118 C 0.73087 0.20971 -0.10644
 N1119 N 0.72464 0.20351 -0.12213
 N1120 N 0.72171 0.21454 -0.13564
 C1121 C 0.73402 0.19747 -0.09139
 C1122 C 0.73524 0.17906 -0.09417
 C1123 C 0.73828 0.16753 -0.07996
 C1124 C 0.73991 0.17415 -0.06266
 C1125 C 0.73860 0.19253 -0.05984
 C1126 C 0.73582 0.20409 -0.07408
 H1127 H 0.70501 0.22621 -0.16363
 H1128 H 0.69962 0.24648 -0.18829
 H1129 H 0.73250 0.28615 -0.16313
 H1130 H 0.73772 0.26595 -0.13840
 H1131 H 0.73397 0.17355 -0.10735
 H1132 H 0.73910 0.15339 -0.08245
 H1133 H 0.73995 0.19798 -0.04664
 H1134 H 0.73490 0.21820 -0.07149
 C1135 C 0.22164 0.74445 0.35062
 C1136 C 0.22928 0.76150 0.35045
 C1137 C 0.22643 0.77302 0.33619
 C1138 C 0.21568 0.76783 0.32190
 C1139 C 0.20795 0.75082 0.32212
 C1140 C 0.21100 0.73921 0.33627
 C1141 C 0.22475 0.73223 0.36569
 N1142 N 0.22141 0.71456 0.36414
 N1143 N 0.22424 0.70357 0.37769
 C1144 C 0.23044 0.70980 0.39339
 N1145 N 0.23374 0.72747 0.39495
 N1146 N 0.23100 0.73844 0.38136
 C1147 C 0.23350 0.69760 0.40849
 C1148 C 0.23530 0.70427 0.42578
 C1149 C 0.23800 0.69276 0.44006
 C1150 C 0.23923 0.67436 0.43731
 C1151 C 0.23760 0.66768 0.42003
 C1152 C 0.23464 0.67917 0.40578
 H1153 H 0.23760 0.76592 0.36127
 H1154 H 0.23253 0.78605 0.33646
 H1155 H 0.19965 0.74640 0.31129
 H1156 H 0.20488 0.72618 0.33603
 H1157 H 0.23444 0.71840 0.42832
 H1158 H 0.23936 0.69824 0.45325
 H1159 H 0.23837 0.65353 0.41760
 H1160 H 0.23336 0.67362 0.39262
 C1161 C 0.28022 0.74608 0.64921
 C1162 C 0.29606 0.74546 0.65903
 C1163 C 0.29883 0.75711 0.67316
 C1164 C 0.28587 0.76975 0.67773
 C1165 C 0.27005 0.77042 0.66787
 C1166 C 0.26723 0.75869 0.65382
 C1167 C 0.27724 0.73367 0.63428
 N1168 N 0.26115 0.73272 0.62620
 N1169 N 0.25846 0.72154 0.61281
 C1170 C 0.27176 0.71087 0.60689
 N1171 N 0.28786 0.71184 0.61495
 N1172 N 0.29053 0.72298 0.62838
 C1173 C 0.26876 0.69844 0.59197
 C1174 C 0.28304 0.68907 0.58437
 C1175 C 0.28020 0.67742 0.57027
 C1176 C 0.26301 0.67476 0.56352
 C1177 C 0.24872 0.68407 0.57113
 C1178 C 0.25156 0.69582 0.58515
 H1179 H 0.30633 0.73590 0.65588
 H1180 H 0.31119 0.75624 0.68044
 H1181 H 0.25976 0.77996 0.67104
 H1182 H 0.25489 0.75958 0.64653
 H1183 H 0.29645 0.69078 0.58928
 H1184 H 0.29144 0.67029 0.56477
 H1185 H 0.23535 0.68243 0.56607
 H1186 H 0.24026 0.70281 0.59067
 C1187 C 0.78098 0.24562 0.14909
 C1188 C 0.79682 0.24501 0.15893
 C1189 C 0.79953 0.25662 0.17310
 C1190 C 0.78653 0.26922 0.17769
 C1191 C 0.77073 0.26989 0.16779
 C1192 C 0.76797 0.25820 0.15370
 C1193 C 0.77804 0.23322 0.13414
 N1194 N 0.76196 0.23226 0.12604
 N1195 N 0.75929 0.22108 0.11264
 C1196 C 0.77260 0.21041 0.10674
 N1197 N 0.78869 0.21139 0.11483
 N1198 N 0.79135 0.22254 0.12825
 C1199 C 0.76962 0.19797 0.09183
 C1200 C 0.78391 0.18859 0.08427
 C1201 C 0.78109 0.17691 0.07017
 C1202 C 0.76390 0.17426 0.06340
 C1203 C 0.74961 0.18359 0.07098
 C1204 C 0.75244 0.19535 0.08499
 H1205 H 0.80711 0.23547 0.15577
 H1206 H 0.81187 0.25575 0.18040
 H1207 H 0.76041 0.27940 0.17097
 H1208 H 0.75563 0.25908 0.14639
 H1209 H 0.79731 0.19028 0.08920
 H1210 H 0.79232 0.16977 0.06470
 H1211 H 0.73625 0.18196 0.06589
 H1212 H 0.74113 0.20236 0.09048
 C1213 C 0.47048 0.39873 0.50668
 C1214 C 0.48032 0.40032 0.49087
 C1215 C 0.47726 0.41443 0.47922
 C1216 C 0.46423 0.42725 0.48304
 C1217 C 0.45442 0.42568 0.49887
 C1218 C 0.45754 0.41162 0.51057
 C1219 C 0.47363 0.38368 0.51897
 N1220 N 0.46544 0.38300 0.53504
 N1221 N 0.46821 0.36943 0.54604
 C1222 C 0.47926 0.35593 0.54143
 N1223 N 0.48744 0.35661 0.52536
 N1224 N 0.48470 0.37019 0.51438
 C1225 C 0.48229 0.34077 0.55363
 C1226 C 0.49212 0.32592 0.54805
 C1227 C 0.49496 0.31162 0.55952
 C1228 C 0.48810 0.31184 0.57688
 C1229 C 0.47828 0.32670 0.58246
 C1230 C 0.47538 0.34098 0.57097
 H1231 H 0.49042 0.39067 0.48747
 H1232 H 0.48506 0.41520 0.46714
 H1233 H 0.44430 0.43533 0.50226
 H1234 H 0.44970 0.41081 0.52262
 H1235 H 0.49755 0.32526 0.53476
 H1236 H 0.50233 0.30026 0.55469
 H1237 H 0.47303 0.32742 0.59582
 H1238 H 0.46781 0.35223 0.57574
 C1239 C -0.02902 0.89921 0.00622
 C1240 C -0.01921 0.90080 -0.00961
 C1241 C -0.02228 0.91491 -0.02125
 C1242 C -0.03531 0.92773 -0.01741
 C1243 C -0.04509 0.92617 -0.00156
 C1244 C -0.04195 0.91210 0.01014
 C1245 C -0.02587 0.88413 0.01848
 N1246 N -0.03402 0.88344 0.03457
 N1247 N -0.03125 0.86985 0.04554
 C1248 C -0.02025 0.85633 0.04087
 N1249 N -0.01210 0.85702 0.02479
 N1250 N -0.01484 0.87063 0.01384
 C1251 C -0.01722 0.84115 0.05304
 C1252 C -0.00745 0.82628 0.04739
 C1253 C -0.00462 0.81194 0.05882
 C1254 C -0.01142 0.81215 0.07621
 C1255 C -0.02117 0.82703 0.08186
 C1256 C -0.02407 0.84134 0.07040
 H1257 H -0.00912 0.89114 -0.01303
 H1258 H -0.01451 0.91568 -0.03334
 H1259 H -0.05520 0.93581 0.00185
 H1260 H -0.04976 0.91129 0.02219
 H1261 H -0.00207 0.82562 0.03408
 H1262 H 0.00270 0.80057 0.05394
 H1263 H -0.02637 0.82773 0.09524
 H1264 H -0.03158 0.85261 0.07522
 C1265 C 0.03250 0.60020 0.00366
 C1266 C 0.02141 0.59787 -0.01110
 C1267 C 0.02403 0.58365 -0.02269
 C1268 C 0.03793 0.57142 -0.01992
 C1269 C 0.04907 0.57388 -0.00513
 C1270 C 0.04634 0.58803 0.00652
 C1271 C 0.02964 0.61523 0.01601
 N1272 N 0.03863 0.61615 0.03157
 N1273 N 0.03602 0.62962 0.04269
 C1274 C 0.02436 0.64279 0.03871
 N1275 N 0.01539 0.64188 0.02314
 N1276 N 0.01796 0.62838 0.01204
 C1277 C 0.02144 0.65777 0.05109
 C1278 C 0.01137 0.67260 0.04589
 C1279 C 0.00860 0.68672 0.05757
 C1280 C 0.01572 0.68632 0.07477
 C1281 C 0.02577 0.67148 0.07996
 C1282 C 0.02864 0.65740 0.06825
 H1283 H 0.01059 0.60698 -0.01367
 H1284 H 0.01512 0.58234 -0.03387
 H1285 H 0.05993 0.56484 -0.00242
 H1286 H 0.05517 0.58946 0.01773
 H1287 H 0.00573 0.67339 0.03274
 H1288 H 0.00105 0.69807 0.05302
 H1289 H 0.03122 0.67060 0.09320
 H1290 H 0.03638 0.64614 0.07273
 C1291 C 0.53276 0.10033 0.50440
 C1292 C 0.52250 0.09870 0.48895
 C1293 C 0.52518 0.08450 0.47734
 C1294 C 0.53825 0.07165 0.48084
 C1295 C 0.54856 0.07332 0.49626
 C1296 C 0.54582 0.08746 0.50792
 C1297 C 0.52985 0.11532 0.51678
 N1298 N 0.53826 0.11586 0.53268
 N1299 N 0.53559 0.12930 0.54382
 C1300 C 0.52443 0.14281 0.53954
 N1301 N 0.51605 0.14228 0.52363
 N1302 N 0.51868 0.12882 0.51250
 C1303 C 0.52144 0.15776 0.55195
 C1304 C 0.51155 0.17268 0.54668
 C1305 C 0.50869 0.18676 0.55839
 C1306 C 0.51556 0.18622 0.57568
 C1307 C 0.52546 0.17130 0.58095
 C1308 C 0.52840 0.15726 0.56922
 H1309 H 0.51231 0.10835 0.48584
 H1310 H 0.51701 0.08366 0.46557
 H1311 H 0.55873 0.06366 0.49939
 H1312 H 0.55399 0.08831 0.51968
 H1313 H 0.50609 0.17357 0.53346
 H1314 H 0.50126 0.19817 0.55380
 H1315 H 0.53072 0.17034 0.59425
 H1316 H 0.53600 0.14594 0.57375
 C1317 C -0.03289 0.10198 0.49509
 C1318 C -0.04579 0.08900 0.49131
 C1319 C -0.04850 0.07464 0.50278
 C1320 C -0.03829 0.07284 0.51826
 C1321 C -0.02537 0.08581 0.52202
 C1322 C -0.02274 0.10023 0.51061
 C1323 C -0.03002 0.11722 0.48292
 N1324 N -0.01902 0.13079 0.48745
 N1325 N -0.01643 0.14446 0.47650
 C1326 C -0.02469 0.14513 0.46053
 N1327 N -0.03569 0.13156 0.45600
 N1328 N -0.03832 0.11791 0.46697
 C1329 C -0.02173 0.16031 0.44831
 C1330 C -0.02853 0.15998 0.43098
 C1331 C -0.02559 0.17422 0.41941
 C1332 C -0.01585 0.18917 0.42491
 C1333 C -0.00913 0.18953 0.44227
 C1334 C -0.01200 0.17526 0.45381
 H1335 H -0.05388 0.08994 0.47950
 H1336 H -0.05855 0.06490 0.49944
 H1337 H -0.01729 0.08487 0.53384
 H1338 H -0.01266 0.10995 0.51392
 H1339 H -0.03601 0.14864 0.42626
 H1340 H -0.03072 0.17338 0.40605
 H1341 H -0.00183 0.20096 0.44704
 H1342 H -0.00666 0.17602 0.46710
 C1343 C 0.46762 0.60176 0.99502
 C1344 C 0.47773 0.60002 1.01056
 C1345 C 0.47507 0.58561 1.02199
 C1346 C 0.46216 0.57264 1.01820
 C1347 C 0.45202 0.57441 1.00268
 C1348 C 0.45475 0.58876 0.99120
 C1349 C 0.47049 0.61700 0.98285
 N1350 N 0.46222 0.61768 0.96689
 N1351 N 0.46483 0.63135 0.95594
 C1352 C 0.47579 0.64495 0.96050
 N1353 N 0.48404 0.64428 0.97648
 N1354 N 0.48146 0.63059 0.98741
 C1355 C 0.47873 0.66015 0.94830
 C1356 C 0.48841 0.67512 0.95383
 C1357 C 0.49124 0.68942 0.94232
 C1358 C 0.48453 0.68907 0.92495
 C1359 C 0.47483 0.67410 0.91943
 C1360 C 0.47193 0.65983 0.93097
 H1361 H 0.48778 0.60976 1.01390
 H1362 H 0.48311 0.58470 1.03383
 H1363 H 0.44198 0.56466 0.99932
 H1364 H 0.44670 0.58968 0.97937
 H1365 H 0.49374 0.67587 0.96712
 H1366 H 0.49851 0.70086 0.94711
 H1367 H 0.46970 0.67328 0.90606
 H1368 H 0.46449 0.64848 0.92623
 C1369 C 0.52828 0.90255 0.99409
 C1370 C 0.54193 0.91492 0.99081
 C1371 C 0.54490 0.92902 1.00246
 C1372 C 0.53421 0.93121 1.01769
 C1373 C 0.52043 0.91886 1.02083
 C1374 C 0.51756 0.90471 1.00923
 C1375 C 0.52532 0.88744 0.98188
 N1376 N 0.51381 0.87418 0.98620
 N1377 N 0.51124 0.86053 0.97530
 C1378 C 0.52004 0.85957 0.95958
 N1379 N 0.53153 0.87284 0.95523
 N1380 N 0.53414 0.88647 0.96616
 C1381 C 0.51719 0.84436 0.94746
 C1382 C 0.52442 0.84449 0.93025
 C1383 C 0.52167 0.83016 0.91882
 C1384 C 0.51170 0.81532 0.92435
 C1385 C 0.50454 0.81517 0.94159
 C1386 C 0.50721 0.82953 0.95299
 H1387 H 0.55046 0.91365 0.97929
 H1388 H 0.55563 0.93817 0.99945
 H1389 H 0.51185 0.91998 1.03234
 H1390 H 0.50689 0.89546 1.01213
 H1391 H 0.53210 0.85573 0.92552
 H1392 H 0.52714 0.83084 0.90554
 H1393 H 0.49706 0.80383 0.94639
 H1394 H 0.50155 0.82892 0.96619
 C1395 C 0.02779 0.40256 0.49384
 C1396 C 0.01706 0.40468 0.50897
 C1397 C 0.01990 0.41883 0.52059
 C1398 C 0.03367 0.43119 0.51748
 C1399 C 0.04437 0.42903 0.50224
 C1400 C 0.04142 0.41494 0.49058
 C1401 C 0.02486 0.38745 0.48161
 N1402 N 0.03371 0.38648 0.46592
 N1403 N 0.03113 0.37286 0.45498
 C1404 C 0.01963 0.35958 0.45930
 N1405 N 0.01079 0.36054 0.47500
 N1406 N 0.01333 0.37419 0.48591
 C1407 C 0.01682 0.34437 0.44717
 C1408 C 0.00679 0.32955 0.45266
 C1409 C 0.00415 0.31519 0.44126
 C1410 C 0.01138 0.31533 0.42405
 C1411 C 0.02140 0.33015 0.41856
 C1412 C 0.02412 0.34448 0.43000
 H1413 H 0.00639 0.39542 0.51186
 H1414 H 0.01131 0.41992 0.53210
 H1415 H 0.05509 0.43820 0.49925
 H1416 H 0.04996 0.41370 0.47906
 H1417 H 0.00107 0.32896 0.46584
 H1418 H -0.00338 0.30387 0.44604
 H1419 H 0.02694 0.33081 0.40531
 H1420 H 0.03184 0.35571 0.42530
 C1421 C 0.39936 0.50210 0.47083
 C1422 C 0.40893 0.50269 0.45480
 C1423 C 0.42327 0.49126 0.45188
 C1424 C 0.42832 0.47888 0.46488
 C1425 C 0.41871 0.47823 0.48089
 C1426 C 0.40444 0.48975 0.48386
 C1427 C 0.38421 0.51429 0.47396
 N1428 N 0.37644 0.51543 0.49021
 N1429 N 0.36287 0.52644 0.49303
 C1430 C 0.35644 0.53673 0.47971
 N1431 N 0.36418 0.53556 0.46346
 N1432 N 0.37779 0.52459 0.46066
 C1433 C 0.34134 0.54899 0.48285
 C1434 C 0.33319 0.55784 0.46861
 C1435 C 0.31898 0.56942 0.47156
 C1436 C 0.31268 0.57251 0.48883
 C1437 C 0.32082 0.56371 0.50308
 C1438 C 0.33495 0.55203 0.50012
 H1439 H 0.40541 0.51206 0.44449
 H1440 H 0.43035 0.49210 0.43938
 H1441 H 0.42225 0.46889 0.49121
 H1442 H 0.39735 0.48889 0.49635
 H1443 H 0.33776 0.55581 0.45514
 H1444 H 0.31307 0.57616 0.46035
 H1445 H 0.31611 0.56570 0.51651
 H1446 H 0.34091 0.54544 0.51140
 C1447 C 0.90037 0.00196 -0.02969
 C1448 C 0.90444 -0.01147 -0.01742
 C1449 C 0.91870 -0.02298 -0.02041
 C1450 C 0.92941 -0.02128 -0.03570
 C1451 C 0.92530 -0.00773 -0.04794
 C1452 C 0.91093 0.00367 -0.04500
 C1453 C 0.88520 0.01413 -0.02654
 N1454 N 0.87940 0.02517 -0.03954
 N1455 N 0.86578 0.03610 -0.03671
 C1456 C 0.85741 0.03652 -0.02073
 N1457 N 0.86323 0.02550 -0.00771
 N1458 N 0.87681 0.01452 -0.01057
 C1459 C 0.84230 0.04875 -0.01756
 C1460 C 0.83563 0.05141 -0.00033
 C1461 C 0.82149 0.06307 0.00266
 C1462 C 0.81360 0.07220 -0.01152
 C1463 C 0.82016 0.06947 -0.02875
 C1464 C 0.83440 0.05794 -0.03174
 H1465 H 0.89654 -0.01319 -0.00551
 H1466 H 0.92132 -0.03317 -0.01061
 H1467 H 0.93311 -0.00589 -0.05989
 H1468 H 0.90820 0.01391 -0.05470
 H1469 H 0.84141 0.04456 0.01088
 H1470 H 0.81658 0.06480 0.01606
 H1471 H 0.81443 0.07647 -0.03990
 H1472 H 0.83918 0.05619 -0.04517
 C1473 C 0.59819 0.00615 0.02934
 C1474 C 0.59322 -0.00618 0.01630
 C1475 C 0.57901 -0.01784 0.01921
 C1476 C 0.56934 -0.01735 0.03518
 C1477 C 0.57425 -0.00495 0.04819
 C1478 C 0.58854 0.00662 0.04533
 C1479 C 0.61338 0.01840 0.02633
 N1480 N 0.61974 0.02864 0.03970
 N1481 N 0.63345 0.03956 0.03703
 C1482 C 0.64137 0.04076 0.02086
 N1483 N 0.63499 0.03056 0.00748
 N1484 N 0.62131 0.01960 0.01016
 C1485 C 0.65670 0.05285 0.01792
 C1486 C 0.66340 0.05582 0.00074
 C1487 C 0.67790 0.06716 -0.00201
 C1488 C 0.68611 0.07567 0.01236
 C1489 C 0.67943 0.07272 0.02953
 C1490 C 0.66485 0.06149 0.03227
 H1491 H 0.60038 -0.00694 0.00384
 H1492 H 0.57557 -0.02719 0.00888
 H1493 H 0.56712 -0.00422 0.06067
 H1494 H 0.59197 0.01598 0.05565
 H1495 H 0.65745 0.04940 -0.01062
 H1496 H 0.68289 0.06905 -0.01537
 H1497 H 0.68538 0.07925 0.04083
 H1498 H 0.66004 0.05951 0.04568
 C1499 C 0.09754 0.50623 0.52925
 C1500 C 0.09261 0.49390 0.51618
 C1501 C 0.07841 0.48221 0.51907
 C1502 C 0.06873 0.48266 0.53504
 C1503 C 0.07361 0.49506 0.54806
 C1504 C 0.08787 0.50666 0.54523
 C1505 C 0.11270 0.51853 0.52627
 N1506 N 0.11900 0.52877 0.53966
 N1507 N 0.13269 0.53973 0.53702
 C1508 C 0.14063 0.54097 0.52086
 N1509 N 0.13430 0.53076 0.50746
 N1510 N 0.12064 0.51976 0.51011
 C1511 C 0.15592 0.55312 0.51795
 C1512 C 0.16265 0.55612 0.50079
 C1513 C 0.17712 0.56750 0.49807
 C1514 C 0.18527 0.57603 0.51246
 C1515 C 0.17857 0.57304 0.52961
 C1516 C 0.16402 0.56177 0.53233
 H1517 H 0.09978 0.49318 0.50374
 H1518 H 0.07501 0.47286 0.50873
 H1519 H 0.06647 0.49576 0.56054
 H1520 H 0.09128 0.51601 0.55556
 H1521 H 0.15673 0.54969 0.48941
 H1522 H 0.18212 0.56942 0.48472
 H1523 H 0.18448 0.57959 0.54093
 H1524 H 0.15919 0.55976 0.54572
 C1525 C 0.10086 0.49583 -0.03204
 C1526 C 0.08797 0.49227 -0.04502
 C1527 C 0.07381 0.50395 -0.04775
 C1528 C 0.07212 0.51942 -0.03748
 C1529 C 0.08497 0.52296 -0.02446
 C1530 C 0.09920 0.51133 -0.02181
 C1531 C 0.11592 0.48347 -0.02918
 N1532 N 0.12945 0.48784 -0.01812
 N1533 N 0.14299 0.47675 -0.01555
 C1534 C 0.14355 0.46079 -0.02388
 N1535 N 0.13001 0.45641 -0.03493
 N1536 N 0.11650 0.46752 -0.03754
 C1537 C 0.15859 0.44842 -0.02096
 C1538 C 0.15814 0.43108 -0.02782
 C1539 C 0.17227 0.41939 -0.02494
 C1540 C 0.18724 0.42479 -0.01520
 C1541 C 0.18773 0.44216 -0.00842
 C1542 C 0.17356 0.45382 -0.01122
 H1543 H 0.08885 0.48048 -0.05317
 H1544 H 0.06414 0.50079 -0.05787
 H1545 H 0.08412 0.53476 -0.01633
 H1546 H 0.10885 0.51448 -0.01167
 H1547 H 0.14678 0.42645 -0.03530
 H1548 H 0.17134 0.40603 -0.03013
 H1549 H 0.19918 0.44685 -0.00112
 H1550 H 0.17442 0.46711 -0.00584
 C1551 C 0.60102 0.99622 0.46776
 C1552 C 0.59855 1.01096 0.47888
 C1553 C 0.58426 1.02251 0.47630
 C1554 C 0.57208 1.01972 0.46241
 C1555 C 0.57466 1.00495 0.45124
 C1556 C 0.58890 0.99335 0.45393
 C1557 C 0.61614 0.98393 0.47058
 N1558 N 0.61718 0.96834 0.46160
 N1559 N 0.63073 0.95727 0.46420
 C1560 C 0.64385 0.96133 0.47584
 N1561 N 0.64283 0.97694 0.48479
 N1562 N 0.62925 0.98798 0.48224
 C1563 C 0.65892 0.94901 0.47877
 C1564 C 0.67371 0.95432 0.48880
 C1565 C 0.68790 0.94270 0.49162
 C1566 C 0.68760 0.92543 0.48458
 C1567 C 0.67280 0.92011 0.47454
 C1568 C 0.65865 0.93178 0.47163
 H1569 H 0.60761 1.01355 0.48969
 H1570 H 0.58285 1.03367 0.48524
 H1571 H 0.56567 1.00224 0.44039
 H1572 H 0.59043 0.98215 0.44508
 H1573 H 0.67442 0.96754 0.49440
 H1574 H 0.69922 0.94735 0.49915
 H1575 H 0.67200 0.90682 0.46915
 H1576 H 0.64743 0.92721 0.46392
 C1577 C 0.89945 0.99648 0.52991
 C1578 C 0.91148 0.99353 0.54381
 C1579 C 0.92560 1.00525 0.54675
 C1580 C 0.92817 1.02021 0.53575
 C1581 C 0.91610 1.02307 0.52178
 C1582 C 0.90192 1.01140 0.51895
 C1583 C 0.88444 0.98407 0.52685
 N1584 N 0.87144 0.98811 0.51506
 N1585 N 0.85793 0.97698 0.51232
 C1586 C 0.85687 0.96130 0.52121
 N1587 N 0.86989 0.95725 0.53298
 N1588 N 0.88337 0.96841 0.53576
 C1589 C 0.84186 0.94891 0.51812
 C1590 C 0.84204 0.93168 0.52534
 C1591 C 0.82791 0.91998 0.52235
 C1592 C 0.81321 0.92525 0.51216
 C1593 C 0.81300 0.94251 0.50501
 C1594 C 0.82717 0.95417 0.50791
 H1595 H 0.90995 0.98219 0.55254
 H1596 H 0.93451 1.00248 0.55765
 H1597 H 0.91750 1.03437 0.51297
 H1598 H 0.89293 1.01404 0.50808
 H1599 H 0.85319 0.92715 0.53318
 H1600 H 0.82864 0.90670 0.52782
 H1601 H 0.80176 0.94712 0.49736
 H1602 H 0.82653 0.96738 0.50225
 C1603 C 0.39917 0.49580 0.02969
 C1604 C 0.40090 0.51141 0.01957
 C1605 C 0.41508 0.52309 0.02244
 C1606 C 0.42781 0.51949 0.03557
 C1607 C 0.42604 0.50390 0.04572
 C1608 C 0.41193 0.49217 0.04278
 C1609 C 0.38416 0.48339 0.02662
 N1610 N 0.38349 0.46738 0.03494
 N1611 N 0.37002 0.45622 0.03215
 C1612 C 0.35660 0.46061 0.02097
 N1613 N 0.35725 0.47663 0.01267
 N1614 N 0.37075 0.48776 0.01541
 C1615 C 0.34158 0.44821 0.01788
 C1616 C 0.32673 0.45359 0.00797
 C1617 C 0.31256 0.44193 0.00508
 C1618 C 0.31292 0.42456 0.01196
 C1619 C 0.32779 0.41917 0.02185
 C1620 C 0.34193 0.43087 0.02481
 H1621 H 0.39135 0.51461 0.00936
 H1622 H 0.41600 0.53498 0.01439
 H1623 H 0.43561 0.50069 0.05592
 H1624 H 0.41099 0.48029 0.05085
 H1625 H 0.32596 0.46688 0.00253
 H1626 H 0.30119 0.44661 -0.00234
 H1627 H 0.32862 0.40581 0.02711
 H1628 H 0.35319 0.42625 0.03243
 C1629 C 0.50274 0.46609 0.39938
 C1630 C 0.48704 0.47604 0.40132
 C1631 C 0.47582 0.47335 0.41590
 C1632 C 0.47998 0.46058 0.42886
 C1633 C 0.49560 0.45053 0.42684
 C1634 C 0.50687 0.45329 0.41231
 C1635 C 0.51479 0.46915 0.38406
 N1636 N 0.53088 0.46100 0.38315
 N1637 N 0.54177 0.46387 0.36947
 C1638 C 0.53704 0.47498 0.35610
 N1639 N 0.52094 0.48310 0.35699
 N1640 N 0.51006 0.48026 0.37069
 C1641 C 0.54922 0.47825 0.34092
 C1642 C 0.54360 0.48827 0.32624
 C1643 C 0.55510 0.49140 0.31197
 C1644 C 0.57253 0.48465 0.31206
 C1645 C 0.57815 0.47464 0.32674
 C1646 C 0.56662 0.47144 0.34098
 H1647 H 0.48345 0.48602 0.39163
 H1648 H 0.46389 0.48131 0.41700
 H1649 H 0.49924 0.44060 0.43656
 H1650 H 0.51882 0.44535 0.41122
 H1651 H 0.53025 0.49364 0.32570
 H1652 H 0.55024 0.49893 0.30075
 H1653 H 0.59156 0.46947 0.32736
 H1654 H 0.57144 0.46375 0.35211
 C1655 C 0.00299 -0.03355 0.89881
 C1656 C -0.01269 -0.02357 0.90078
 C1657 C -0.02389 -0.02626 0.91537
 C1658 C -0.01974 -0.03904 0.92831
 C1659 C -0.00414 -0.04913 0.92626
 C1660 C 0.00711 -0.04638 0.91172
 C1661 C 0.01505 -0.03049 0.88350
 N1662 N 0.03111 -0.03868 0.88256
 N1663 N 0.04201 -0.03581 0.86889
 C1664 C 0.03732 -0.02465 0.85555
 N1665 N 0.02123 -0.01648 0.85646
 N1666 N 0.01034 -0.01933 0.87015
 C1667 C 0.04951 -0.02137 0.84038
 C1668 C 0.04392 -0.01128 0.82573
 C1669 C 0.05544 -0.00815 0.81147
 C1670 C 0.07284 -0.01497 0.81154
 C1671 C 0.07842 -0.02506 0.82619
 C1672 C 0.06688 -0.02825 0.84042
 H1673 H -0.01627 -0.01357 0.89111
 H1674 H -0.03581 -0.01828 0.91650
 H1675 H -0.00051 -0.05908 0.93597
 H1676 H 0.01905 -0.05433 0.91061
 H1677 H 0.03060 -0.00586 0.82520
 H1678 H 0.05062 -0.00057 0.80027
 H1679 H 0.09181 -0.03028 0.82680
 H1680 H 0.07167 -0.03600 0.85152
 C1681 C 0.00299 0.03211 0.59933
 C1682 C -0.01248 0.02178 0.59742
 C1683 C -0.02394 0.02455 0.58314
 C1684 C -0.02026 0.03780 0.57048
 C1685 C -0.00483 0.04818 0.57243
 C1686 C 0.00669 0.04533 0.58665
 C1687 C 0.01518 0.02909 0.61445
 N1688 N 0.03113 0.03757 0.61530
 N1689 N 0.04209 0.03479 0.62885
 C1690 C 0.03757 0.02346 0.64216
 N1691 N 0.02161 0.01501 0.64132
 N1692 N 0.01067 0.01775 0.62775
 C1693 C 0.04977 0.02033 0.65724
 C1694 C 0.04422 0.01024 0.67196
 C1695 C 0.05572 0.00725 0.68616
 C1696 C 0.07310 0.01420 0.68596
 C1697 C 0.07865 0.02429 0.67124
 C1698 C 0.06712 0.02736 0.65708
 H1699 H -0.01573 0.01146 0.60691
 H1700 H -0.03572 0.01633 0.58208
 H1701 H -0.00156 0.05848 0.56291
 H1702 H 0.01847 0.05356 0.58773
 H1703 H 0.03092 0.00472 0.67259
 H1704 H 0.05090 -0.00033 0.69741
 H1705 H 0.09202 0.02962 0.67054
 H1706 H 0.07187 0.03511 0.64592
 C1707 C 0.50304 0.53211 0.09961
 C1708 C 0.48755 0.52181 0.09767
 C1709 C 0.47615 0.52457 0.08334
 C1710 C 0.47990 0.53777 0.07065
 C1711 C 0.49535 0.54812 0.07263
 C1712 C 0.50681 0.54529 0.08691
 C1713 C 0.51518 0.52908 0.11476
 N1714 N 0.53116 0.53748 0.11563
 N1715 N 0.54208 0.53468 0.12921
 C1716 C 0.53748 0.52340 0.14254
 N1717 N 0.52148 0.51502 0.14168
 N1718 N 0.51058 0.51778 0.12808
 C1719 C 0.54964 0.52023 0.15764
 C1720 C 0.54400 0.51020 0.17237
 C1721 C 0.55547 0.50717 0.18659
 C1722 C 0.57289 0.51400 0.18640
 C1723 C 0.57852 0.52404 0.17167
 C1724 C 0.56703 0.52715 0.15748
 H1725 H 0.48424 0.51152 0.10718
 H1726 H 0.46435 0.51637 0.08226
 H1727 H 0.49868 0.55839 0.06310
 H1728 H 0.51861 0.55348 0.08801
 H1729 H 0.53067 0.50477 0.17299
 H1730 H 0.55060 0.49964 0.19784
 H1731 H 0.59193 0.52928 0.17097
 H1732 H 0.57184 0.53486 0.14632
 C1733 C 0.49522 -0.03153 0.10079
 C1734 C 0.49117 -0.04430 0.08785
 C1735 C 0.50243 -0.04683 0.07329
 C1736 C 0.51797 -0.03658 0.07127
 C1737 C 0.52204 -0.02385 0.08425
 C1738 C 0.51084 -0.02139 0.09886
 C1739 C 0.48318 -0.02870 0.11614
 N1740 N 0.48788 -0.01765 0.12954
 N1741 N 0.47700 -0.01499 0.14325
 C1742 C 0.46093 -0.02323 0.14414
 N1743 N 0.45623 -0.03430 0.13074
 N1744 N 0.46712 -0.03699 0.11705
 C1745 C 0.44875 -0.02013 0.15933
 C1746 C 0.43135 -0.02701 0.15925
 C1747 C 0.41981 -0.02391 0.17348
 C1748 C 0.42542 -0.01394 0.18817
 C1749 C 0.44286 -0.00715 0.18829
 C1750 C 0.45437 -0.01018 0.17403
 H1751 H 0.47928 -0.05238 0.08894
 H1752 H 0.49886 -0.05675 0.06355
 H1753 H 0.53392 -0.01575 0.08315
 H1754 H 0.51436 -0.01143 0.10856
 H1755 H 0.42654 -0.03466 0.14811
 H1756 H 0.40639 -0.02911 0.17285
 H1757 H 0.44771 0.00033 0.19952
 H1758 H 0.46772 -0.00477 0.17459
 C1759 C 0.99467 0.46833 0.60065
 C1760 C 1.01029 0.47847 0.59871
 C1761 C 1.02148 0.47603 0.58410
 C1762 C 1.01740 0.46332 0.57110
 C1763 C 1.00187 0.45306 0.57312
 C1764 C 0.99062 0.45557 0.58769
 C1765 C 0.98264 0.47115 0.61600
 N1766 N 0.96659 0.46287 0.61692
 N1767 N 0.95570 0.46556 0.63063
 C1768 C 0.96041 0.47663 0.64402
 N1769 N 0.97649 0.48487 0.64312
 N1770 N 0.98735 0.48220 0.62940
 C1771 C 0.94825 0.47975 0.65921
 C1772 C 0.95388 0.48973 0.67389
 C1773 C 0.94238 0.49279 0.68815
 C1774 C 0.92493 0.48602 0.68805
 C1775 C 0.91931 0.47601 0.67338
 C1776 C 0.93084 0.47288 0.65915
 H1777 H 1.01382 0.48843 0.60842
 H1778 H 1.03335 0.48414 0.58300
 H1779 H 0.99829 0.44316 0.56337
 H1780 H 0.97873 0.44749 0.58878
 H1781 H 0.96722 0.49513 0.67443
 H1782 H 0.94724 0.50030 0.69936
 H1783 H 0.90589 0.47081 0.67277
 H1784 H 0.92603 0.46521 0.64803
 C1785 C 0.99632 0.53257 0.89923
 C1786 C 1.01181 0.52228 0.90095
 C1787 C 1.02335 0.52489 0.91519
 C1788 C 1.01974 0.53794 0.92800
 C1789 C 1.00430 0.54830 0.92624
 C1790 C 0.99270 0.54561 0.91205
 C1791 C 0.98402 0.52969 0.88418
 N1792 N 0.96808 0.53815 0.88350
 N1793 N 0.95700 0.53547 0.87002
 C1794 C 0.96140 0.52427 0.85662
 N1795 N 0.97735 0.51584 0.85729
 N1796 N 0.98841 0.51848 0.87078
 C1797 C 0.94905 0.52123 0.84164
 C1798 C 0.95444 0.51121 0.82687
 C1799 C 0.94279 0.50827 0.81279
 C1800 C 0.92544 0.51520 0.81316
 C1801 C 0.92006 0.52524 0.82792
 C1802 C 0.93173 0.52825 0.84197
 H1803 H 1.01500 0.51210 0.89134
 H1804 H 1.03513 0.51669 0.91610
 H1805 H 1.00109 0.55845 0.93587
 H1806 H 0.98092 0.55381 0.91112
 H1807 H 0.96771 0.50570 0.82612
 H1808 H 0.94747 0.50074 0.80150
 H1809 H 0.90670 0.53055 0.82874
 H1810 H 0.92711 0.53596 0.85318
 C1811 C 0.49657 0.03181 0.39965
 C1812 C 0.51209 0.02157 0.40133
 C1813 C 0.52366 0.02422 0.41554
 C1814 C 0.52005 0.03726 0.42836
 C1815 C 0.50455 0.04755 0.42665
 C1816 C 0.49293 0.04482 0.41250
 C1817 C 0.48426 0.02893 0.38461
 N1818 N 0.46831 0.03736 0.38395
 N1819 N 0.45724 0.03472 0.37046
 C1820 C 0.46166 0.02356 0.35703
 N1821 N 0.47762 0.01515 0.35767
 N1822 N 0.48867 0.01777 0.37118
 C1823 C 0.44933 0.02058 0.34202
 C1824 C 0.45475 0.01063 0.32721
 C1825 C 0.44312 0.00776 0.31309
 C1826 C 0.42577 0.01469 0.31346
 C1827 C 0.42036 0.02465 0.32826
 C1828 C 0.43201 0.02760 0.34235
 H1829 H 0.51530 0.01141 0.39171
 H1830 H 0.53548 0.01607 0.41641
 H1831 H 0.50133 0.05769 0.43630
 H1832 H 0.48111 0.05298 0.41161
 H1833 H 0.46802 0.00512 0.32646
 H1834 H 0.44783 0.00028 0.30177
 H1835 H 0.40701 0.02997 0.32908
 H1836 H 0.42736 0.03525 0.35358
   
