data_POSCAR
  _audit_creation_date              2014-09-24
  _audit_creation_method            'ToBaCCo'
  _symmetry_space_group_name_H-M    'P1'
  _symmetry_Int_Tables_number       1
  _symmetry_cell_setting            triclinic
  loop_
  _symmetry_equiv_pos_as_xyz
 x,y,z
_cell_length_a 58.5625
_cell_length_b 58.6061
_cell_length_c 58.4584
_cell_angle_alpha 89.960400
_cell_angle_beta 89.893900
_cell_angle_gamma 89.922800
loop_
  _atom_site_label
  _atom_site_type_symbol
  _atom_site_fract_x
  _atom_site_fract_y
  _atom_site_fract_z
N1 N 0.36889 0.30456 0.31936
 N2 N 0.36902 0.32089 0.30396
 C3 C 0.38729 0.31812 0.29019
 C4 C 0.39933 0.29904 0.29741
 C5 C 0.38710 0.29095 0.31603
 H6 H 0.39165 0.32931 0.27616
 H7 H 0.39131 0.27646 0.32665
 Cu8 Cu 0.34540 0.34427 0.30392
 Cu9 Cu 0.34536 0.30230 0.34288
 Cu10 Cu 0.30256 0.34341 0.34210
 N11 N 0.32177 0.36762 0.30384
 N12 N 0.30453 0.36663 0.31823
 C13 C 0.29000 0.38388 0.31379
 C14 C 0.29874 0.39661 0.29583
 C15 C 0.31894 0.38576 0.28996
 H16 H 0.27433 0.38693 0.32306
 H17 H 0.33035 0.39039 0.27617
 N18 N 0.30380 0.31858 0.36492
 N19 N 0.32006 0.30296 0.36518
 C20 C 0.31685 0.28917 0.38333
 C21 C 0.29770 0.29646 0.39518
 C22 C 0.28987 0.31514 0.38296
 H23 H 0.32801 0.27522 0.38792
 H24 H 0.27558 0.32595 0.38740
 H25 H 0.32000 0.31840 0.32439
 H26 H 0.33713 0.33663 0.34407
 N27 N 0.37009 0.80630 -0.17867
 N28 N 0.37062 0.82298 -0.19369
 C29 C 0.38787 0.81924 -0.20850
 C30 C 0.39873 0.79903 -0.20245
 C31 C 0.38692 0.79139 -0.18334
 H32 H 0.39163 0.82989 -0.22312
 H33 H 0.38994 0.77595 -0.17370
 Cu34 Cu 0.34719 0.84652 -0.19305
 Cu35 Cu 0.34667 0.80402 -0.15505
 Cu36 Cu 0.30318 0.84443 -0.15661
 N37 N 0.32315 0.86940 -0.19415
 N38 N 0.30529 0.86760 -0.18061
 C39 C 0.29030 0.88426 -0.18566
 C40 C 0.29937 0.89753 -0.20311
 C41 C 0.32033 0.88757 -0.20799
 H42 H 0.27427 0.88678 -0.17683
 H43 H 0.33229 0.89270 -0.22110
 N44 N 0.30459 0.81973 -0.13360
 N45 N 0.32139 0.80469 -0.13280
 C46 C 0.31777 0.79039 -0.11516
 C47 C 0.29776 0.79665 -0.10428
 C48 C 0.28983 0.81532 -0.11645
 H49 H 0.32869 0.77619 -0.11072
 H50 H 0.27453 0.82505 -0.11297
 H51 H 0.32156 0.81997 -0.17398
 H52 H 0.33763 0.83817 -0.15343
 N53 N 0.86824 0.30635 -0.18000
 N54 N 0.86925 0.32347 -0.19452
 C55 C 0.88665 0.31993 -0.20919
 C56 C 0.89715 0.29952 -0.20352
 C57 C 0.88498 0.29138 -0.18490
 H58 H 0.89105 0.33106 -0.22327
 H59 H 0.88798 0.27570 -0.17563
 Cu60 Cu 0.84681 0.34785 -0.19306
 Cu61 Cu 0.84502 0.30440 -0.15598
 Cu62 Cu 0.80397 0.34732 -0.15550
 N63 N 0.82322 0.37117 -0.19406
 N64 N 0.80601 0.37019 -0.17963
 C65 C 0.79111 0.38694 -0.18449
 C66 C 0.79946 0.39935 -0.20288
 C67 C 0.81999 0.38884 -0.20846
 H68 H 0.77547 0.38989 -0.17511
 H69 H 0.83131 0.39320 -0.22239
 N70 N 0.80499 0.32265 -0.13264
 N71 N 0.82011 0.30594 -0.13315
 C72 C 0.81571 0.29144 -0.11580
 C73 C 0.79715 0.29965 -0.10358
 C74 C 0.79083 0.31942 -0.11479
 H75 H 0.82539 0.27616 -0.11226
 H76 H 0.77657 0.33037 -0.11056
 H77 H 0.82052 0.32211 -0.17387
 H78 H 0.83822 0.33878 -0.15336
 N79 N 0.86836 0.80486 0.32103
 N80 N 0.86885 0.82149 0.30596
 C81 C 0.88664 0.81821 0.29170
 C82 C 0.89784 0.79843 0.29818
 C83 C 0.88575 0.79043 0.31688
 H84 H 0.89080 0.82900 0.27728
 H85 H 0.88920 0.77516 0.32667
 Cu86 Cu 0.84539 0.84498 0.30595
 Cu87 Cu 0.84497 0.80281 0.34467
 Cu88 Cu 0.80281 0.84455 0.34435
 N89 N 0.82189 0.86842 0.30580
 N90 N 0.80493 0.86778 0.32052
 C91 C 0.79085 0.88550 0.31657
 C92 C 0.79949 0.89812 0.29842
 C93 C 0.81926 0.88667 0.29205
 H94 H 0.77566 0.88901 0.32645
 H95 H 0.83084 0.89113 0.27836
 N96 N 0.80386 0.81965 0.36706
 N97 N 0.81989 0.80379 0.36714
 C98 C 0.81665 0.79002 0.38530
 C99 C 0.79774 0.79760 0.39733
 C100 C 0.79005 0.81639 0.38521
 H101 H 0.82763 0.77588 0.38975
 H102 H 0.77595 0.82739 0.38980
 H103 H 0.81975 0.81937 0.32640
 H104 H 0.83726 0.83724 0.34607
 N105 N 0.63147 0.69417 0.32135
 N106 N 0.63151 0.67805 0.30573
 C107 C 0.61301 0.68065 0.29229
 C108 C 0.60087 0.69951 0.29987
 C109 C 0.61310 0.70760 0.31835
 H110 H 0.60887 0.66991 0.27787
 H111 H 0.60889 0.72216 0.32890
 Cu112 Cu 0.65621 0.65580 0.30432
 Cu113 Cu 0.65531 0.69697 0.34426
 Cu114 Cu 0.70003 0.65830 0.34134
 N115 N 0.68072 0.63333 0.30373
 N116 N 0.69820 0.63502 0.31769
 C117 C 0.71256 0.61749 0.31397
 C118 C 0.70361 0.60389 0.29684
 C119 C 0.68329 0.61447 0.29080
 H120 H 0.72786 0.61434 0.32379
 H121 H 0.67110 0.60867 0.27827
 N122 N 0.69854 0.68297 0.36418
 N123 N 0.68106 0.69711 0.36581
 C124 C 0.68423 0.71090 0.38393
 C125 C 0.70475 0.70528 0.39409
 C126 C 0.71342 0.68756 0.38111
 H127 H 0.67252 0.72410 0.38932
 H128 H 0.72904 0.67824 0.38426
 H129 H 0.68079 0.68259 0.32454
 H130 H 0.66519 0.66301 0.34434
 N131 N 0.63301 0.19367 -0.17979
 N132 N 0.63105 0.17600 -0.19348
 C133 C 0.61325 0.17946 -0.20764
 C134 C 0.60345 0.20039 -0.20247
 C135 C 0.61650 0.20890 -0.18469
 H136 H 0.60799 0.16778 -0.22091
 H137 H 0.61407 0.22487 -0.17578
 Cu138 Cu 0.65202 0.15020 -0.19183
 Cu139 Cu 0.65624 0.19536 -0.15612
 Cu140 Cu 0.69421 0.15022 -0.15293
 N141 N 0.67768 0.12900 -0.19378
 N142 N 0.69445 0.12959 -0.17892
 C143 C 0.70981 0.11330 -0.18413
 C144 C 0.70223 0.10162 -0.20331
 C145 C 0.68170 0.11213 -0.20892
 H146 H 0.72507 0.11002 -0.17429
 H147 H 0.67068 0.10810 -0.22315
 N148 N 0.69480 0.17610 -0.13155
 N149 N 0.68081 0.19367 -0.13318
 C150 C 0.68568 0.20866 -0.11643
 C151 C 0.70344 0.19998 -0.10344
 C152 C 0.70883 0.17935 -0.11364
 H153 H 0.67670 0.22452 -0.11371
 H154 H 0.72225 0.16771 -0.10862
 H155 H 0.67962 0.17488 -0.17316
 H156 H 0.66016 0.16090 -0.15204
 N157 N 0.13145 0.69469 -0.17805
 N158 N 0.13154 0.67861 -0.19371
 C159 C 0.11337 0.68149 -0.20751
 C160 C 0.10128 0.70043 -0.20012
 C161 C 0.11328 0.70835 -0.18137
 H162 H 0.10927 0.67067 -0.22189
 H163 H 0.10896 0.72280 -0.17073
 Cu164 Cu 0.15545 0.65557 -0.19440
 Cu165 Cu 0.15470 0.69657 -0.15436
 Cu166 Cu 0.19769 0.65576 -0.15559
 N167 N 0.17921 0.63239 -0.19459
 N168 N 0.19598 0.63286 -0.17969
 C169 C 0.21023 0.61529 -0.18382
 C170 C 0.20186 0.60304 -0.20222
 C171 C 0.18213 0.61439 -0.20859
 H172 H 0.22536 0.61159 -0.17395
 H173 H 0.17090 0.61000 -0.22255
 N174 N 0.19625 0.68027 -0.13253
 N175 N 0.17973 0.69561 -0.13191
 C176 C 0.18335 0.70978 -0.11418
 C177 C 0.20310 0.70311 -0.10311
 C178 C 0.21086 0.68437 -0.11524
 H179 H 0.17264 0.72417 -0.10981
 H180 H 0.22597 0.67439 -0.11168
 H181 H 0.18040 0.68108 -0.17301
 H182 H 0.16304 0.66224 -0.15398
 N183 N 0.13137 0.19398 0.32209
 N184 N 0.13173 0.17818 0.30616
 C185 C 0.11374 0.18122 0.29216
 C186 C 0.10140 0.19994 0.29973
 C187 C 0.11313 0.20757 0.31880
 H188 H 0.10989 0.17057 0.27760
 H189 H 0.10860 0.22179 0.32967
 Cu190 Cu 0.15573 0.15524 0.30555
 Cu191 Cu 0.15466 0.19582 0.34580
 Cu192 Cu 0.19899 0.15637 0.34316
 N193 N 0.17972 0.13232 0.30489
 N194 N 0.19717 0.13344 0.31896
 C195 C 0.21179 0.11633 0.31417
 C196 C 0.20286 0.10359 0.29633
 C197 C 0.18250 0.11430 0.29090
 H198 H 0.22758 0.11331 0.32319
 H199 H 0.17088 0.10962 0.27736
 N200 N 0.19730 0.18072 0.36650
 N201 N 0.17989 0.19497 0.36807
 C202 C 0.18295 0.20853 0.38638
 C203 C 0.20332 0.20272 0.39679
 C204 C 0.21206 0.18511 0.38361
 H205 H 0.17144 0.22202 0.39153
 H206 H 0.22779 0.17593 0.38646
 H207 H 0.18047 0.18130 0.32649
 H208 H 0.16428 0.16176 0.34580
 N209 N 0.63270 0.30551 0.67967
 N210 N 0.63134 0.32272 0.69402
 C211 C 0.61410 0.31894 0.70880
 C212 C 0.60403 0.29830 0.70336
 C213 C 0.61632 0.29024 0.68477
 H214 H 0.60947 0.33013 0.72276
 H215 H 0.61362 0.27446 0.67562
 Cu216 Cu 0.65300 0.34769 0.69209
 Cu217 Cu 0.65588 0.30396 0.65558
 Cu218 Cu 0.69581 0.34789 0.65441
 N219 N 0.67604 0.37145 0.69291
 N220 N 0.69317 0.37099 0.67836
 C221 C 0.70765 0.38809 0.68326
 C222 C 0.69903 0.40013 0.70175
 C223 C 0.67893 0.38904 0.70744
 H224 H 0.72337 0.39126 0.67414
 H225 H 0.66777 0.39295 0.72165
 N226 N 0.69535 0.32289 0.63181
 N227 N 0.68063 0.30585 0.63263
 C228 C 0.68527 0.29125 0.61545
 C229 C 0.70354 0.29965 0.60299
 C230 C 0.70949 0.31972 0.61390
 H231 H 0.67590 0.27574 0.61219
 H232 H 0.72344 0.33091 0.60942
 H233 H 0.68002 0.32250 0.67314
 H234 H 0.66184 0.33848 0.65247
 N235 N 0.63329 0.80460 1.18068
 N236 N 0.63256 0.82115 1.19583
 C237 C 0.61399 0.81834 1.20919
 C238 C 0.60255 0.79895 1.20203
 C239 C 0.61532 0.79070 1.18390
 H240 H 0.60915 0.82954 1.22306
 H241 H 0.61152 0.77597 1.17347
 Cu242 Cu 0.65605 0.84462 1.19637
 Cu243 Cu 0.65673 0.80280 1.15708
 Cu244 Cu 0.69742 0.84576 1.15659
 N245 N 0.67941 0.86823 1.19645
 N246 N 0.69544 0.86858 1.18069
 C247 C 0.70998 0.88575 1.18509
 C248 C 0.70277 0.89681 1.20474
 C249 C 0.68325 0.88525 1.21144
 H250 H 0.72496 0.88956 1.17497
 H251 H 0.67308 0.88854 1.22653
 N252 N 0.69664 0.82103 1.13382
 N253 N 0.68171 0.80420 1.13451
 C254 C 0.68604 0.78973 1.11713
 C255 C 0.70444 0.79797 1.10482
 C256 C 0.71071 0.81783 1.11587
 H257 H 0.67617 0.77465 1.11334
 H258 H 0.72464 0.82901 1.11124
 H259 H 0.68187 0.81994 1.17489
 H260 H 0.66310 0.83739 1.15592
 N261 N 0.13418 0.30236 1.18126
 N262 N 0.13279 0.31968 1.19549
 C263 C 0.11472 0.31662 1.20939
 C264 C 0.10424 0.29624 1.20376
 C265 C 0.11719 0.28755 1.18588
 H266 H 0.10976 0.32813 1.22297
 H267 H 0.11432 0.27187 1.17664
 Cu268 Cu 0.15533 0.34401 1.19518
 Cu269 Cu 0.15715 0.30109 1.15698
 Cu270 Cu 0.19589 0.34588 1.15474
 N271 N 0.17802 0.36825 1.19465
 N272 N 0.19374 0.36889 1.17860
 C273 C 0.20723 0.38712 1.18199
 C274 C 0.19967 0.39856 1.20129
 C275 C 0.18105 0.38608 1.20886
 H276 H 0.22139 0.39178 1.17109
 H277 H 0.17048 0.38970 1.22360
 N278 N 0.19550 0.32095 1.13223
 N279 N 0.18152 0.30334 1.13359
 C280 C 0.18638 0.28876 1.11641
 C281 C 0.20402 0.29783 1.10345
 C282 C 0.20933 0.31820 1.11404
 H283 H 0.17756 0.27288 1.11344
 H284 H 0.22275 0.32988 1.10917
 H285 H 0.18174 0.31970 1.17386
 H286 H 0.16191 0.33582 1.15480
 N287 N 0.13253 0.80500 0.67912
 N288 N 0.13210 0.82185 0.69394
 C289 C 0.11422 0.81902 0.70814
 C290 C 0.10294 0.79925 0.70201
 C291 C 0.11506 0.79074 0.68353
 H292 H 0.11004 0.83011 0.72232
 H293 H 0.11145 0.77542 0.67395
 Cu294 Cu 0.15578 0.84493 0.69392
 Cu295 Cu 0.15578 0.80285 0.65529
 Cu296 Cu 0.19866 0.84387 0.65596
 N297 N 0.17960 0.86784 0.69445
 N298 N 0.19667 0.86706 0.67984
 C299 C 0.21107 0.88440 0.68424
 C300 C 0.20247 0.89676 0.70252
 C301 C 0.18249 0.88574 0.70855
 H302 H 0.22648 0.88782 0.67467
 H303 H 0.17109 0.89022 0.72240
 N304 N 0.19735 0.81905 0.63318
 N305 N 0.18082 0.80375 0.63271
 C306 C 0.18439 0.78954 0.61498
 C307 C 0.20415 0.79609 0.60382
 C308 C 0.21195 0.81483 0.61584
 H309 H 0.17359 0.77525 0.61061
 H310 H 0.22702 0.82479 0.61207
 H311 H 0.18119 0.81891 0.67367
 H312 H 0.16412 0.83714 0.65389
 N313 N 0.37003 0.69385 0.67835
 N314 N 0.37028 0.67749 0.69375
 C315 C 0.38781 0.68106 0.70821
 C316 C 0.39908 0.70074 0.70151
 C317 C 0.38732 0.70835 0.68246
 H318 H 0.39165 0.67063 0.72297
 H319 H 0.39079 0.72351 0.67253
 Cu320 Cu 0.34648 0.65436 0.69391
 Cu321 Cu 0.34667 0.69596 0.65476
 Cu322 Cu 0.30349 0.65537 0.65616
 N323 N 0.32248 0.63146 0.69478
 N324 N 0.30542 0.63230 0.68020
 C325 C 0.29068 0.61534 0.68494
 C326 C 0.29894 0.60316 0.70347
 C327 C 0.31918 0.61387 0.70925
 H328 H 0.27510 0.61214 0.67559
 H329 H 0.33031 0.60947 0.72331
 N330 N 0.30486 0.68005 0.63317
 N331 N 0.32153 0.69519 0.63245
 C332 C 0.31818 0.70917 0.61450
 C333 C 0.29845 0.70261 0.60337
 C334 C 0.29040 0.68414 0.61573
 H335 H 0.32927 0.72316 0.60988
 H336 H 0.27541 0.67411 0.61201
 H337 H 0.32115 0.68031 0.67356
 H338 H 0.33799 0.66177 0.65384
 N339 N 0.36990 0.19593 1.18041
 N340 N 0.37085 0.17865 1.19476
 C341 C 0.38843 0.18182 1.20923
 C342 C 0.39904 0.20219 1.20369
 C343 C 0.38680 0.21068 1.18531
 H344 H 0.39288 0.17050 1.22313
 H345 H 0.38992 0.22641 1.17616
 Cu346 Cu 0.34797 0.15466 1.19359
 Cu347 Cu 0.34679 0.19810 1.15641
 Cu348 Cu 0.30588 0.15518 1.15512
 N349 N 0.32463 0.13108 1.19373
 N350 N 0.30790 0.13182 1.17878
 C351 C 0.29338 0.11455 1.18288
 C352 C 0.30143 0.10222 1.20136
 C353 C 0.32136 0.11315 1.20781
 H354 H 0.27812 0.11120 1.17307
 H355 H 0.33230 0.10869 1.22200
 N356 N 0.30685 0.18029 1.13274
 N357 N 0.32204 0.19691 1.13349
 C358 C 0.31809 0.21137 1.11601
 C359 C 0.29970 0.20335 1.10358
 C360 C 0.29303 0.18363 1.11467
 H361 H 0.32819 0.22634 1.11222
 H362 H 0.27907 0.17258 1.10995
 H363 H 0.32189 0.18034 1.17389
 H364 H 0.34010 0.16368 1.15373
 N365 N 0.86703 0.69559 1.18146
 N366 N 0.86974 0.67712 1.19391
 C367 C 0.88796 0.67986 1.20763
 C368 C 0.89723 0.70125 1.20360
 C369 C 0.88334 0.71079 1.18695
 H370 H 0.89375 0.66736 1.21992
 H371 H 0.88512 0.72737 1.17908
 Cu372 Cu 0.84895 0.65142 1.19155
 Cu373 Cu 0.84372 0.69780 1.15782
 Cu374 Cu 0.80726 0.65152 1.15235
 N375 N 0.82314 0.63066 1.19371
 N376 N 0.80668 0.63092 1.17850
 C377 C 0.79127 0.61474 1.18384
 C378 C 0.79848 0.60358 1.20349
 C379 C 0.81879 0.61429 1.20928
 H380 H 0.77603 0.61137 1.17403
 H381 H 0.82966 0.61054 1.22372
 N382 N 0.80607 0.67828 1.13201
 N383 N 0.81930 0.69629 1.13465
 C384 C 0.81445 0.71158 1.11814
 C385 C 0.79744 0.70271 1.10438
 C386 C 0.79253 0.68158 1.11371
 H387 H 0.82326 0.72760 1.11572
 H388 H 0.78007 0.66945 1.10760
 H389 H 0.82067 0.67588 1.17350
 H390 H 0.84089 0.66354 1.15213
 N391 N 0.86802 0.19592 0.68011
 N392 N 0.86844 0.17963 0.69558
 C393 C 0.88615 0.18321 0.70979
 C394 C 0.89736 0.20283 0.70291
 C395 C 0.88535 0.21045 0.68401
 H396 H 0.89038 0.17261 0.72432
 H397 H 0.88899 0.22537 0.67377
 Cu398 Cu 0.84537 0.15578 0.69598
 Cu399 Cu 0.84534 0.19691 0.65577
 Cu400 Cu 0.80568 0.15310 0.65472
 N401 N 0.82258 0.13167 0.69558
 N402 N 0.80732 0.13071 0.67917
 C403 C 0.79382 0.11251 0.68250
 C404 C 0.80082 0.10139 0.70216
 C405 C 0.81921 0.11403 0.71001
 H406 H 0.78007 0.10762 0.67125
 H407 H 0.82945 0.11058 0.72498
 N408 N 0.80667 0.17743 0.63158
 N409 N 0.82114 0.19463 0.63245
 C410 C 0.81661 0.20905 0.61508
 C411 C 0.79863 0.20031 0.60248
 C412 C 0.79278 0.18027 0.61349
 H413 H 0.82576 0.22470 0.61185
 H414 H 0.77891 0.16897 0.60906
 H415 H 0.81993 0.17957 0.67312
 H416 H 0.83979 0.16216 0.65519
 N417 N 0.30489 0.36645 0.68091
 N418 N 0.32222 0.36740 0.69511
 C419 C 0.31955 0.38559 0.70893
 C420 C 0.29945 0.39662 0.70308
 C421 C 0.29060 0.38392 0.68523
 H422 H 0.33124 0.39031 0.72240
 H423 H 0.27509 0.38726 0.67584
 Cu424 Cu 0.34660 0.34477 0.69456
 Cu425 Cu 0.30251 0.34318 0.65739
 Cu426 Cu 0.34309 0.30035 0.65797
 N427 N 0.36815 0.31944 0.69544
 N428 N 0.36616 0.30177 0.68178
 C429 C 0.38325 0.28700 0.68600
 C430 C 0.39686 0.29593 0.70313
 C431 C 0.38676 0.31660 0.70865
 H432 H 0.38619 0.27143 0.67654
 H433 H 0.39264 0.32882 0.72113
 N434 N 0.31851 0.30190 0.63512
 N435 N 0.30298 0.31821 0.63493
 C436 C 0.28934 0.31534 0.61664
 C437 C 0.29668 0.29633 0.60463
 C438 C 0.31521 0.28826 0.61690
 H439 H 0.27553 0.32667 0.61205
 H440 H 0.32605 0.27403 0.61237
 H441 H 0.31947 0.31893 0.67666
 H442 H 0.33687 0.33507 0.65516
 N443 N 0.30461 0.86705 0.18105
 N444 N 0.32214 0.86821 0.19503
 C445 C 0.31913 0.88594 0.20938
 C446 C 0.29863 0.89647 0.20410
 C447 C 0.28988 0.88399 0.18602
 H448 H 0.33070 0.89059 0.22298
 H449 H 0.27401 0.88699 0.17709
 Cu450 Cu 0.34635 0.84558 0.19344
 Cu451 Cu 0.30220 0.84367 0.15732
 Cu452 Cu 0.34599 0.80355 0.15490
 N453 N 0.37006 0.82236 0.19341
 N454 N 0.36968 0.80585 0.17821
 C455 C 0.38692 0.79127 0.18246
 C456 C 0.39876 0.79902 0.20139
 C457 C 0.38759 0.81883 0.20788
 H458 H 0.39027 0.77594 0.17275
 H459 H 0.39146 0.82936 0.22254
 N460 N 0.32036 0.80416 0.13306
 N461 N 0.30323 0.81877 0.13454
 C462 C 0.28852 0.81470 0.11734
 C463 C 0.29691 0.79687 0.10426
 C464 C 0.31716 0.79069 0.11470
 H465 H 0.27338 0.82466 0.11386
 H466 H 0.32887 0.77754 0.10922
 H467 H 0.32087 0.81904 0.17428
 H468 H 0.33668 0.83757 0.15376
 N469 N 0.80543 0.36843 0.17890
 N470 N 0.82070 0.36739 0.19532
 C471 C 0.81771 0.38532 0.20944
 C472 C 0.79957 0.39830 0.20143
 C473 C 0.79227 0.38700 0.18199
 H474 H 0.82826 0.38891 0.22414
 H475 H 0.77872 0.39214 0.17058
 Cu476 Cu 0.84385 0.34348 0.19542
 Cu477 Cu 0.80388 0.34597 0.15440
 Cu478 Cu 0.84453 0.30283 0.15506
 N479 N 0.86689 0.31946 0.19553
 N480 N 0.86718 0.30385 0.17939
 C481 C 0.88521 0.28999 0.18258
 C482 C 0.89694 0.29723 0.20177
 C483 C 0.88476 0.31596 0.20961
 H484 H 0.88951 0.27574 0.17165
 H485 H 0.88894 0.32657 0.22411
 N486 N 0.82023 0.30483 0.13187
 N487 N 0.80512 0.32155 0.13126
 C488 C 0.79123 0.31839 0.11320
 C489 C 0.79778 0.29864 0.10206
 C490 C 0.81619 0.29048 0.11437
 H491 H 0.77711 0.32939 0.10871
 H492 H 0.82606 0.27533 0.11067
 H493 H 0.81873 0.31958 0.17247
 H494 H 0.83810 0.33748 0.15457
 N495 N 0.80493 0.86804 0.67800
 N496 N 0.82169 0.86877 0.69290
 C497 C 0.81889 0.88717 0.70643
 C498 C 0.79927 0.89853 0.69967
 C499 C 0.79088 0.88588 0.68157
 H500 H 0.83017 0.89188 0.72026
 H501 H 0.77584 0.88956 0.67152
 Cu502 Cu 0.84523 0.84529 0.69323
 Cu503 Cu 0.80269 0.84429 0.65477
 Cu504 Cu 0.84486 0.80266 0.65498
 N505 N 0.86885 0.82189 0.69325
 N506 N 0.86823 0.80502 0.67846
 C507 C 0.88569 0.79069 0.68256
 C508 C 0.89805 0.79903 0.70086
 C509 C 0.88693 0.81893 0.70719
 H510 H 0.88920 0.77539 0.67286
 H511 H 0.89139 0.83008 0.72119
 N512 N 0.81980 0.80324 0.63260
 N513 N 0.80356 0.81888 0.63265
 C514 C 0.78877 0.81430 0.61563
 C515 C 0.79613 0.79491 0.60429
 C516 C 0.81584 0.78840 0.61551
 H517 H 0.77383 0.82440 0.61168
 H518 H 0.82630 0.77368 0.61166
 H519 H 0.81962 0.81941 0.67313
 H520 H 0.83718 0.83708 0.65321
 N521 N 0.69568 0.63395 0.68188
 N522 N 0.67812 0.63270 0.69585
 C523 C 0.68066 0.61437 0.70950
 C524 C 0.70099 0.60364 0.70392
 C525 C 0.71014 0.61666 0.68638
 H526 H 0.66894 0.60951 0.72296
 H527 H 0.72597 0.61373 0.67736
 Cu528 Cu 0.65452 0.65604 0.69554
 Cu529 Cu 0.69794 0.65709 0.65802
 Cu530 Cu 0.65399 0.69686 0.65532
 N531 N 0.63087 0.67933 0.69507
 N532 N 0.63063 0.69505 0.67902
 C533 C 0.61328 0.70959 0.68302
 C534 C 0.60208 0.70271 0.70272
 C535 C 0.61371 0.68341 0.70990
 H536 H 0.60965 0.72458 0.67288
 H537 H 0.61019 0.67338 0.72502
 N538 N 0.67936 0.69593 0.63317
 N539 N 0.69667 0.68159 0.63492
 C540 C 0.71129 0.68538 0.61753
 C541 C 0.70269 0.70279 0.60404
 C542 C 0.68238 0.70900 0.61445
 H543 H 0.72651 0.67546 0.61424
 H544 H 0.67053 0.72190 0.60872
 H545 H 0.67945 0.68211 0.67475
 H546 H 0.66327 0.66272 0.65534
 N547 N 0.69662 0.13111 0.17836
 N548 N 0.67981 0.13046 0.19325
 C549 C 0.68264 0.11222 0.20698
 C550 C 0.70236 0.10087 0.20041
 C551 C 0.71075 0.11341 0.18215
 H552 H 0.67106 0.10737 0.22054
 H553 H 0.72580 0.10981 0.17206
 Cu554 Cu 0.65613 0.15374 0.19304
 Cu555 Cu 0.69861 0.15439 0.15464
 Cu556 Cu 0.65696 0.19665 0.15504
 N557 N 0.63250 0.17705 0.19299
 N558 N 0.63346 0.19432 0.17866
 C559 C 0.61614 0.20876 0.18315
 C560 C 0.60343 0.19995 0.20109
 C561 C 0.61435 0.17980 0.20690
 H562 H 0.61315 0.22451 0.17403
 H563 H 0.60987 0.16845 0.22077
 N564 N 0.68208 0.19569 0.13247
 N565 N 0.69766 0.17939 0.13213
 C566 C 0.71201 0.18310 0.11451
 C567 C 0.70523 0.20270 0.10324
 C568 C 0.68622 0.21027 0.11512
 H569 H 0.72653 0.17250 0.11029
 H570 H 0.67601 0.22515 0.11125
 H571 H 0.68195 0.17952 0.17298
 H572 H 0.66415 0.16223 0.15306
 N573 N 0.19666 0.63388 0.18119
 N574 N 0.17963 0.63323 0.19584
 C575 C 0.18254 0.61534 0.21000
 C576 C 0.20251 0.60420 0.20398
 C577 C 0.21106 0.61651 0.18564
 H578 H 0.17107 0.61085 0.22378
 H579 H 0.22637 0.61293 0.17596
 Cu580 Cu 0.15552 0.65602 0.19512
 Cu581 Cu 0.19840 0.65668 0.15689
 Cu582 Cu 0.15417 0.69614 0.15423
 N583 N 0.13133 0.67872 0.19412
 N584 N 0.13077 0.69421 0.17787
 C585 C 0.11299 0.70830 0.18154
 C586 C 0.10179 0.70133 0.20121
 C587 C 0.11390 0.68246 0.20872
 H588 H 0.10900 0.72304 0.17116
 H589 H 0.11055 0.67248 0.22390
 N590 N 0.17951 0.69540 0.13204
 N591 N 0.19679 0.68098 0.13353
 C592 C 0.21176 0.68552 0.11659
 C593 C 0.20338 0.70351 0.10377
 C594 C 0.18291 0.70930 0.11401
 H595 H 0.22743 0.67623 0.11356
 H596 H 0.17157 0.72294 0.10895
 H597 H 0.18006 0.68182 0.17351
 H598 H 0.16367 0.66207 0.15468
 N599 N 0.19552 0.13188 0.67892
 N600 N 0.17826 0.13088 0.69329
 C601 C 0.18085 0.11250 0.70689
 C602 C 0.20090 0.10151 0.70083
 C603 C 0.20977 0.11431 0.68300
 H604 H 0.16948 0.10790 0.72073
 H605 H 0.22550 0.11128 0.67382
 Cu606 Cu 0.15535 0.15495 0.69393
 Cu607 Cu 0.19872 0.15667 0.65688
 Cu608 Cu 0.15664 0.19842 0.65648
 N609 N 0.13255 0.17906 0.69487
 N610 N 0.13363 0.19645 0.68067
 C611 C 0.11643 0.21099 0.68535
 C612 C 0.10380 0.20215 0.70333
 C613 C 0.11452 0.18187 0.70892
 H614 H 0.11312 0.22659 0.67607
 H615 H 0.10965 0.17022 0.72241
 N616 N 0.18146 0.19698 0.63351
 N617 N 0.19690 0.18055 0.63316
 C618 C 0.21059 0.18352 0.61488
 C619 C 0.20369 0.20293 0.60332
 C620 C 0.18526 0.21112 0.61571
 H621 H 0.22488 0.17265 0.61052
 H622 H 0.17515 0.22606 0.61189
 H623 H 0.18093 0.18174 0.67490
 H624 H 0.16420 0.16399 0.65443
 N625 N 0.30588 0.63090 0.32044
 N626 N 0.32273 0.63033 0.30556
 C627 C 0.31955 0.61260 0.29125
 C628 C 0.29961 0.60155 0.29749
 C629 C 0.29140 0.61365 0.31610
 H630 H 0.33049 0.60841 0.27694
 H631 H 0.27597 0.61027 0.32569
 Cu632 Cu 0.34609 0.65388 0.30580
 Cu633 Cu 0.30363 0.65419 0.34418
 Cu634 Cu 0.34518 0.69648 0.34384
 N635 N 0.36914 0.67772 0.30512
 N636 N 0.36841 0.69454 0.31997
 C637 C 0.38542 0.70927 0.31544
 C638 C 0.39751 0.70130 0.29671
 C639 C 0.38669 0.68121 0.29061
 H640 H 0.38862 0.72471 0.32501
 H641 H 0.39096 0.67033 0.27630
 N642 N 0.32028 0.69530 0.36655
 N643 N 0.30451 0.67922 0.36672
 C644 C 0.29058 0.68259 0.38476
 C645 C 0.29793 0.70169 0.39653
 C646 C 0.31676 0.70931 0.38446
 H647 H 0.27636 0.67172 0.38922
 H648 H 0.32754 0.72359 0.38886
 H649 H 0.32012 0.67942 0.32590
 H650 H 0.33792 0.66207 0.34581
 N651 N 0.30732 0.13091 0.82025
 N652 N 0.32435 0.13053 0.80558
 C653 C 0.32158 0.11279 0.79122
 C654 C 0.30168 0.10154 0.79717
 C655 C 0.29305 0.11354 0.81564
 H656 H 0.33285 0.10868 0.77714
 H657 H 0.27763 0.10991 0.82512
 Cu658 Cu 0.34743 0.15425 0.80631
 Cu659 Cu 0.30480 0.15397 0.84420
 Cu660 Cu 0.34525 0.19745 0.84355
 N661 N 0.36981 0.17862 0.80517
 N662 N 0.36864 0.19575 0.81964
 C663 C 0.38540 0.21072 0.81481
 C664 C 0.39775 0.20251 0.79631
 C665 C 0.38733 0.18211 0.79065
 H666 H 0.38833 0.22641 0.82406
 H667 H 0.39188 0.17096 0.77664
 N668 N 0.32026 0.19573 0.86632
 N669 N 0.30531 0.17887 0.86686
 C670 C 0.29120 0.18192 0.88480
 C671 C 0.29739 0.20171 0.89601
 C672 C 0.31581 0.21009 0.88378
 H673 H 0.27725 0.17071 0.88929
 H674 H 0.32554 0.22525 0.88759
 H675 H 0.32077 0.17949 0.82580
 H676 H 0.33887 0.16296 0.84610
 N677 N 0.80537 0.63314 0.81973
 N678 N 0.82324 0.63159 0.80619
 C679 C 0.82063 0.61357 0.79219
 C680 C 0.80002 0.60319 0.79727
 C681 C 0.79077 0.61614 0.81481
 H682 H 0.83272 0.60849 0.77917
 H683 H 0.77478 0.61331 0.82359
 Cu684 Cu 0.84775 0.65364 0.80836
 Cu685 Cu 0.80261 0.65682 0.84311
 Cu686 Cu 0.84577 0.69764 0.84452
 N687 N 0.87076 0.67734 0.80726
 N688 N 0.86959 0.69490 0.82119
 C689 C 0.88650 0.70958 0.81607
 C690 C 0.89909 0.70060 0.79810
 C691 C 0.88855 0.68014 0.79295
 H692 H 0.88920 0.72565 0.82467
 H693 H 0.89298 0.66860 0.77922
 N694 N 0.82004 0.69716 0.86643
 N695 N 0.80330 0.68210 0.86544
 C696 C 0.78841 0.68633 0.88252
 C697 C 0.79628 0.70474 0.89497
 C698 C 0.81636 0.71116 0.88432
 H699 H 0.77335 0.67631 0.88613
 H700 H 0.82745 0.72501 0.88927
 H701 H 0.82147 0.68081 0.82550
 H702 H 0.83696 0.66356 0.84733
 N703 N 0.80532 0.13138 0.32019
 N704 N 0.82051 0.13234 0.30363
 C705 C 0.81631 0.11545 0.28857
 C706 C 0.79750 0.10324 0.29615
 C707 C 0.79103 0.11388 0.31627
 H708 H 0.82609 0.11236 0.27319
 H709 H 0.77658 0.10958 0.32696
 Cu710 Cu 0.84396 0.15590 0.30331
 Cu711 Cu 0.80416 0.15364 0.34487
 Cu712 Cu 0.84459 0.19674 0.34367
 N713 N 0.86668 0.18018 0.30295
 N714 N 0.86696 0.19584 0.31904
 C715 C 0.88434 0.21029 0.31512
 C716 C 0.89556 0.20347 0.29544
 C717 C 0.88384 0.18431 0.28810
 H718 H 0.88835 0.22491 0.32563
 H719 H 0.88767 0.17407 0.27320
 N720 N 0.82062 0.19471 0.36726
 N721 N 0.80571 0.17787 0.36819
 C722 C 0.79188 0.18111 0.38635
 C723 C 0.79823 0.20106 0.39719
 C724 C 0.81649 0.20924 0.38463
 H725 H 0.77782 0.17012 0.39101
 H726 H 0.82613 0.22458 0.38803
 H727 H 0.81882 0.17986 0.32637
 H728 H 0.83836 0.16207 0.34424
 N729 N 0.69760 0.36805 0.31959
 N730 N 0.68029 0.36897 0.30533
 C731 C 0.68368 0.38617 0.29042
 C732 C 0.70420 0.39664 0.29565
 C733 C 0.71256 0.38465 0.31428
 H734 H 0.67234 0.39049 0.27651
 H735 H 0.72838 0.38768 0.32328
 Cu736 Cu 0.65567 0.34688 0.30754
 Cu737 Cu 0.69977 0.34493 0.34361
 Cu738 Cu 0.65757 0.30314 0.34416
 N739 N 0.63286 0.32289 0.30645
 N740 N 0.63408 0.30542 0.32051
 C741 C 0.61711 0.29072 0.31568
 C742 C 0.60439 0.29956 0.29775
 C743 C 0.61497 0.31999 0.29232
 H744 H 0.61434 0.27481 0.32457
 H745 H 0.61039 0.33153 0.27865
 N746 N 0.68279 0.30416 0.36659
 N747 N 0.69877 0.32005 0.36639
 C748 C 0.71277 0.31673 0.38434
 C749 C 0.70526 0.29790 0.39651
 C750 C 0.68623 0.29038 0.38471
 H751 H 0.72706 0.32757 0.38854
 H752 H 0.67521 0.27637 0.38946
 H753 H 0.68200 0.32043 0.32566
 H754 H 0.66538 0.33736 0.34692
 N755 N 0.69702 0.86614 0.81881
 N756 N 0.68025 0.86679 0.80392
 C757 C 0.68248 0.88565 0.79088
 C758 C 0.70173 0.89740 0.79799
 C759 C 0.71048 0.88447 0.81574
 H760 H 0.67094 0.89053 0.77732
 H761 H 0.72521 0.88844 0.82611
 Cu762 Cu 0.65694 0.84311 0.80343
 Cu763 Cu 0.69944 0.84253 0.84210
 Cu764 Cu 0.65683 0.80161 0.84329
 N765 N 0.63332 0.81975 0.80418
 N766 N 0.63356 0.80348 0.81965
 C767 C 0.61544 0.78978 0.81646
 C768 C 0.60301 0.79789 0.79802
 C769 C 0.61487 0.81702 0.79072
 H770 H 0.61143 0.77526 0.82713
 H771 H 0.61023 0.82832 0.77689
 N772 N 0.68194 0.80249 0.86564
 N773 N 0.69876 0.81741 0.86450
 C774 C 0.71323 0.81361 0.88197
 C775 C 0.70499 0.79564 0.89491
 C776 C 0.68507 0.78907 0.88409
 H777 H 0.72804 0.82390 0.88578
 H778 H 0.67353 0.77572 0.88941
 H779 H 0.68208 0.81738 0.82451
 H780 H 0.66474 0.83602 0.84378
 N781 N 0.19535 0.36842 0.82029
 N782 N 0.17846 0.36892 0.80549
 C783 C 0.18178 0.38636 0.79084
 C784 C 0.20184 0.39734 0.79677
 C785 C 0.20997 0.38547 0.81555
 H786 H 0.17084 0.39041 0.77652
 H787 H 0.22546 0.38885 0.82499
 Cu788 Cu 0.15492 0.34557 0.80647
 Cu789 Cu 0.19763 0.34529 0.84425
 Cu790 Cu 0.15725 0.30186 0.84301
 N791 N 0.13267 0.32103 0.80484
 N792 N 0.13448 0.30339 0.81865
 C793 C 0.11755 0.28859 0.81417
 C794 C 0.10423 0.29748 0.79679
 C795 C 0.11428 0.31816 0.79131
 H796 H 0.11450 0.27300 0.82359
 H797 H 0.10857 0.33026 0.77859
 N798 N 0.18157 0.30369 0.86629
 N799 N 0.19681 0.32027 0.86687
 C800 C 0.21014 0.31747 0.88541
 C801 C 0.20292 0.29826 0.89715
 C802 C 0.18480 0.28997 0.88449
 H803 H 0.22379 0.32885 0.89026
 H804 H 0.17422 0.27548 0.88870
 H805 H 0.18168 0.32021 0.82553
 H806 H 0.16351 0.33638 0.84613
 N807 N 0.19422 0.86885 0.32039
 N808 N 0.17778 0.86902 0.30511
 C809 C 0.18087 0.88689 0.29093
 C810 C 0.20036 0.89844 0.29763
 C811 C 0.20838 0.88645 0.31638
 H812 H 0.17002 0.89097 0.27656
 H813 H 0.22331 0.89028 0.32648
 Cu814 Cu 0.15464 0.84523 0.30502
 Cu815 Cu 0.19608 0.84591 0.34446
 Cu816 Cu 0.15503 0.80320 0.34401
 N817 N 0.13155 0.82139 0.30478
 N818 N 0.13194 0.80492 0.32006
 C819 C 0.11470 0.79038 0.31585
 C820 C 0.10285 0.79806 0.29687
 C821 C 0.11406 0.81781 0.29028
 H822 H 0.11134 0.77506 0.32559
 H823 H 0.10992 0.82864 0.27591
 N824 N 0.17977 0.80463 0.36684
 N825 N 0.19502 0.82119 0.36730
 C826 C 0.20898 0.81794 0.38529
 C827 C 0.20232 0.79832 0.39659
 C828 C 0.18382 0.79027 0.38438
 H829 H 0.22312 0.82890 0.38975
 H830 H 0.17377 0.77532 0.38827
 H831 H 0.18028 0.82020 0.32622
 H832 H 0.16176 0.83773 0.34538
 C833 C 0.26104 1.02082 0.24185
 C834 C 0.24193 1.02162 0.25663
 C835 C 0.23222 1.00116 0.26434
 C836 C 0.24143 0.98001 0.25796
 C837 C 0.26060 0.97920 0.24322
 C838 C 0.27016 0.99967 0.23536
 H839 H 0.28410 0.99924 0.22319
 H840 H 0.21767 1.00170 0.27584
 C841 C 0.26001 0.52104 0.74275
 C842 C 0.24145 0.52066 0.75823
 C843 C 0.23230 0.49973 0.76530
 C844 C 0.24131 0.47905 0.75732
 C845 C 0.25995 0.47941 0.74192
 C846 C 0.26907 0.50036 0.73481
 H847 H 0.28282 0.50045 0.72242
 H848 H 0.21855 0.49962 0.77769
 C849 C 0.76049 -0.02036 0.25966
 C850 C 0.74224 -0.02196 0.24406
 C851 C 0.73274 -0.00202 0.23493
 C852 C 0.74095 0.01947 0.24134
 C853 C 0.75890 0.02112 0.25733
 C854 C 0.76867 0.00112 0.26617
 H855 H 0.78263 0.00226 0.27826
 H856 H 0.71918 -0.00323 0.22240
 C857 C 0.76008 0.47979 0.75682
 C858 C 0.74024 0.47995 0.74309
 C859 C 0.73066 0.50089 0.73648
 C860 C 0.74059 0.52165 0.74315
 C861 C 0.76041 0.52134 0.75699
 C862 C 0.77010 0.50042 0.76334
 H863 H 0.78498 0.50020 0.77436
 H864 H 0.71574 0.50103 0.72554
 C865 C 0.25909 0.47848 0.25659
 C866 C 0.24020 0.47933 0.24158
 C867 C 0.23132 0.50050 0.23492
 C868 C 0.24108 0.52089 0.24252
 C869 C 0.25993 0.52020 0.25755
 C870 C 0.26873 0.49899 0.26441
 H871 H 0.28269 0.49835 0.27650
 H872 H 0.21698 0.50110 0.22321
 C873 C 0.75935 1.02044 0.74121
 C874 C 0.74144 1.02100 0.75730
 C875 C 0.73238 1.00039 0.76548
 C876 C 0.74091 0.97919 0.75798
 C877 C 0.75871 0.97874 0.74153
 C878 C 0.76770 0.99944 0.73352
 H879 H 0.78134 0.99921 0.72093
 H880 H 0.71887 1.00081 0.77819
 C881 C 0.75901 0.52216 0.24316
 C882 C 0.74118 0.52036 0.25931
 C883 C 0.73312 0.49876 0.26566
 C884 C 0.74255 0.47884 0.25629
 C885 C 0.76053 0.48068 0.24023
 C886 C 0.76854 0.50230 0.23381
 H887 H 0.78221 0.50370 0.22135
 H888 H 0.71994 0.49750 0.27862
 C889 C 0.26115 -0.02120 0.75659
 C890 C 0.24186 -0.02115 0.74218
 C891 C 0.23238 -0.00038 0.73512
 C892 C 0.24198 0.02049 0.74180
 C893 C 0.26145 0.02046 0.75612
 C894 C 0.27091 -0.00041 0.76315
 H895 H 0.28544 -0.00047 0.77462
 H896 H 0.21775 -0.00047 0.72378
 C897 C 0.24408 0.25935 1.02121
 C898 C 0.25964 0.24093 1.02050
 C899 C 0.26610 0.23172 0.99935
 C900 C 0.25789 0.24088 0.97876
 C901 C 0.24224 0.25928 0.97945
 C902 C 0.23567 0.26838 1.00068
 H903 H 0.22351 0.28234 1.00122
 H904 H 0.27831 0.21779 0.99888
 C905 C 0.24200 0.75796 0.52060
 C906 C 0.25914 0.74105 0.52032
 C907 C 0.26734 0.73285 0.49941
 C908 C 0.25880 0.74114 0.47863
 C909 C 0.24179 0.75829 0.47882
 C910 C 0.23367 0.76658 0.49985
 H911 H 0.22090 0.77996 0.50002
 H912 H 0.28054 0.71983 0.49930
 C913 C 0.25981 0.75802 -0.02139
 C914 C 0.24192 0.74194 -0.02080
 C915 C 0.23333 0.73456 0.00032
 C916 C 0.24225 0.74297 0.02092
 C917 C 0.26003 0.75928 0.02031
 C918 C 0.26870 0.76646 -0.00088
 H919 H 0.28193 0.77937 -0.00141
 H920 H 0.22004 0.72173 0.00075
 C921 C 0.25980 0.25901 0.47892
 C922 C 0.24274 0.24197 0.47886
 C923 C 0.23450 0.23354 0.49983
 C924 C 0.24284 0.24187 0.52076
 C925 C 0.25973 0.25906 0.52061
 C926 C 0.26802 0.26734 0.49975
 H927 H 0.28106 0.28048 0.49973
 H928 H 0.22147 0.22042 0.49987
 C929 C 0.74230 0.75897 1.02137
 C930 C 0.75903 0.74159 1.02095
 C931 C 0.76672 0.73322 0.99981
 C932 C 0.75817 0.74195 0.97916
 C933 C 0.74136 0.75924 0.97965
 C934 C 0.73357 0.76746 1.00077
 H935 H 0.72080 0.78088 1.00118
 H936 H 0.77966 0.71998 0.99941
 C937 C 0.74336 0.25943 0.52148
 C938 C 0.75791 0.24015 0.52136
 C939 C 0.76503 0.23087 0.50043
 C940 C 0.75816 0.24054 0.47957
 C941 C 0.74320 0.25949 0.47974
 C942 C 0.73622 0.26887 0.50067
 H943 H 0.72465 0.28334 0.50075
 H944 H 0.77675 0.21653 0.50041
 C945 C 0.75702 0.25993 -0.02211
 C946 C 0.74245 0.24068 -0.02186
 C947 C 0.73548 0.23144 -0.00084
 C948 C 0.74297 0.24084 0.01988
 C949 C 0.75785 0.25980 0.01956
 C950 C 0.76437 0.26939 -0.00141
 H951 H 0.77598 0.28379 -0.00163
 H952 H 0.72361 0.21729 -0.00069
 C953 C 0.75905 0.75902 0.48003
 C954 C 0.74149 0.74259 0.47864
 C955 C 0.73206 0.73374 0.49882
 C956 C 0.74032 0.74030 0.52031
 C957 C 0.75802 0.75658 0.52168
 C958 C 0.76704 0.76591 0.50153
 H959 H 0.78019 0.77885 0.50253
 H960 H 0.71876 0.72093 0.49780
 C961 C 1.02036 0.23983 0.25906
 C962 C 1.02168 0.25734 0.24246
 C963 C 1.00140 0.26639 0.23338
 C964 C 0.98001 0.25855 0.24077
 C965 C 0.97875 0.24134 0.25760
 C966 C 0.99894 0.23199 0.26636
 H967 H 0.99803 0.21845 0.27896
 H968 H 1.00225 0.27969 0.22051
 C969 C 0.52166 0.24070 0.75864
 C970 C 0.52238 0.25870 0.74257
 C971 C 0.50199 0.26751 0.73378
 C972 C 0.48079 0.25877 0.74064
 C973 C 0.47999 0.24101 0.75701
 C974 C 0.50046 0.23226 0.76592
 H975 H 0.49989 0.21923 0.77903
 H976 H 0.50261 0.28073 0.72083
 C977 C -0.02096 0.26022 0.75719
 C978 C -0.02044 0.24199 0.74146
 C979 C 0.00061 0.23305 0.73442
 C980 C 0.02126 0.24182 0.74285
 C981 C 0.02072 0.25995 0.75891
 C982 C -0.00046 0.26896 0.76572
 H983 H -0.00103 0.28228 0.77854
 H984 H 0.00097 0.21946 0.72187
 C985 C 0.48169 0.25967 0.25847
 C986 C 0.48115 0.24096 0.24320
 C987 C 0.50185 0.23159 0.23545
 C988 C 0.52292 0.24052 0.24251
 C989 C 0.52334 0.25947 0.25747
 C990 C 0.50272 0.26885 0.26517
 H991 H 0.50303 0.28316 0.27693
 H992 H 0.50170 0.21781 0.22318
 C993 C 1.02100 0.74078 0.75813
 C994 C 1.02154 0.75962 0.74301
 C995 C 1.00094 0.76904 0.73522
 C996 C 0.97988 0.75967 0.74157
 C997 C 0.97932 0.74067 0.75643
 C998 C 0.99988 0.73145 0.76449
 H999 H 0.99942 0.71716 0.77629
 H1000 H 1.00131 0.78329 0.72337
 C1001 C 0.52107 0.74065 0.25819
 C1002 C 0.52132 0.75851 0.24186
 C1003 C 0.50051 0.76738 0.23390
 C1004 C 0.47960 0.75880 0.24167
 C1005 C 0.47936 0.74078 0.25765
 C1006 C 0.50003 0.73201 0.26580
 H1007 H 0.49978 0.71865 0.27861
 H1008 H 0.50062 0.78080 0.22113
 C1009 C -0.02048 0.75938 0.25824
 C1010 C -0.02082 0.74123 0.24229
 C1011 C -0.00013 0.73237 0.23403
 C1012 C 0.02076 0.74126 0.24144
 C1013 C 0.02107 0.75901 0.25770
 C1014 C 0.00047 0.76798 0.26590
 H1015 H 0.00079 0.78145 0.27859
 H1016 H -0.00031 0.71856 0.22171
 C1017 C 0.47863 0.75970 0.75759
 C1018 C 0.47955 0.74167 0.74164
 C1019 C 0.50080 0.73341 0.73431
 C1020 C 0.52113 0.74273 0.74284
 C1021 C 0.52012 0.76046 0.75913
 C1022 C 0.49888 0.76883 0.76627
 H1023 H 0.49812 0.78229 0.77897
 H1024 H 0.50154 0.71981 0.72181
 C1025 C 0.43157 0.27070 0.29777
 C1026 C 0.42112 0.28997 0.28816
 C1027 C 0.43270 0.30077 0.26988
 C1028 C 0.45245 0.29090 0.26021
 C1029 C 0.46081 0.26987 0.26831
 C1030 C 0.45094 0.26096 0.28817
 C1031 C 0.44328 0.23736 0.29390
 C1032 C 0.42204 0.24802 0.30439
 H1033 H 0.42624 0.31642 0.26251
 H1034 H 0.46073 0.29926 0.24590
 H1035 H 0.45455 0.22905 0.30672
 H1036 H 0.43933 0.22687 0.27867
 H1037 H 0.42115 0.24578 0.32325
 H1038 H 0.40608 0.24382 0.29500
 C1039 C 0.42805 0.79846 0.76757
 C1040 C 0.41685 0.78810 0.78612
 C1041 C 0.42440 0.76601 0.79250
 C1042 C 0.44402 0.75630 0.78249
 C1043 C 0.45664 0.76850 0.76610
 C1044 C 0.44750 0.78893 0.75792
 C1045 C 0.45844 0.81154 0.75405
 C1046 C 0.43723 0.82211 0.76471
 H1047 H 0.41584 0.75640 0.80577
 H1048 H 0.45000 0.73983 0.78841
 H1049 H 0.46033 0.81549 0.73555
 H1050 H 0.47408 0.81408 0.76448
 H1051 H 0.42708 0.83231 0.75231
 H1052 H 0.44058 0.83067 0.78135
 C1053 C -0.07016 0.30052 0.76870
 C1054 C -0.08342 0.28850 0.78462
 C1055 C -0.07756 0.26548 0.78873
 C1056 C -0.05750 0.25606 0.77931
 C1057 C -0.04283 0.26950 0.76576
 C1058 C -0.05030 0.29132 0.75963
 C1059 C -0.03833 0.31378 0.75982
 C1060 C -0.06011 0.32390 0.76979
 H1061 H -0.08789 0.25496 0.79988
 H1062 H -0.05289 0.23864 0.78349
 H1063 H -0.03452 0.32000 0.74226
 H1064 H -0.02376 0.31443 0.77193
 H1065 H -0.06874 0.33598 0.75795
 H1066 H -0.05810 0.33014 0.78764
 C1067 C -0.06962 0.79943 0.27029
 C1068 C -0.08242 0.78759 0.28671
 C1069 C -0.07604 0.76483 0.29143
 C1070 C -0.05599 0.75549 0.28193
 C1071 C -0.04185 0.76879 0.26772
 C1072 C -0.04977 0.79030 0.26113
 C1073 C -0.03809 0.81290 0.26068
 C1074 C -0.05985 0.82295 0.27076
 H1075 H -0.08605 0.75441 0.30297
 H1076 H -0.05108 0.73821 0.28633
 H1077 H -0.03461 0.81879 0.24294
 H1078 H -0.02333 0.81389 0.27256
 H1079 H -0.06881 0.83466 0.25879
 H1080 H -0.05768 0.82958 0.28844
 C1081 C 0.57256 0.73133 0.29608
 C1082 C 0.57956 0.70919 0.29041
 C1083 C 0.56545 0.69662 0.27552
 C1084 C 0.54652 0.70703 0.26491
 C1085 C 0.54189 0.73045 0.26817
 C1086 C 0.55433 0.74180 0.28512
 C1087 C 0.56625 0.76435 0.28499
 C1088 C 0.58593 0.75289 0.29738
 H1089 H 0.56927 0.67897 0.27162
 H1090 H 0.53605 0.69707 0.25339
 H1091 H 0.55726 0.77732 0.29556
 H1092 H 0.57142 0.77007 0.26769
 H1093 H 0.58798 0.75894 0.31527
 H1094 H 0.60194 0.75221 0.28714
 C1095 C 0.56994 0.19944 0.77077
 C1096 C 0.58372 0.21145 0.78618
 C1097 C 0.57814 0.23456 0.79023
 C1098 C 0.55801 0.24415 0.78117
 C1099 C 0.54294 0.23083 0.76803
 C1100 C 0.55002 0.20884 0.76202
 C1101 C 0.53772 0.18658 0.76294
 C1102 C 0.55957 0.17624 0.77245
 H1103 H 0.58883 0.24510 0.80095
 H1104 H 0.55379 0.26172 0.78510
 H1105 H 0.53334 0.18015 0.74561
 H1106 H 0.52345 0.18642 0.77548
 H1107 H 0.56773 0.16390 0.76053
 H1108 H 0.55790 0.17023 0.79042
 C1109 C 1.07166 0.73125 0.79713
 C1110 C 1.07987 0.70985 0.79032
 C1111 C 1.06667 0.69760 0.77432
 C1112 C 1.04758 0.70778 0.76379
 C1113 C 1.04175 0.73067 0.76838
 C1114 C 1.05319 0.74147 0.78637
 C1115 C 1.06367 0.76464 0.78837
 C1116 C 1.08374 0.75337 0.80034
 H1117 H 1.07132 0.68039 0.76947
 H1118 H 1.03788 0.69809 0.75139
 H1119 H 1.05366 0.77611 0.79973
 H1120 H 1.06883 0.77214 0.77176
 H1121 H 1.08510 0.75818 0.81867
 H1122 H 1.09996 0.75433 0.79044
 C1123 C 1.07018 0.22936 0.29876
 C1124 C 1.07985 0.20920 0.29022
 C1125 C 1.06781 0.19777 0.27272
 C1126 C 1.04835 0.20774 0.26265
 C1127 C 1.04080 0.22947 0.26954
 C1128 C 1.05112 0.23923 0.28872
 C1129 C 1.05983 0.26282 0.29274
 C1130 C 1.08071 0.25199 0.30371
 H1131 H 1.07366 0.18148 0.26629
 H1132 H 1.03970 0.19886 0.24894
 H1133 H 1.04904 0.27242 0.30509
 H1134 H 1.06404 0.27213 0.27678
 H1135 H 1.08190 0.25543 0.32236
 H1136 H 1.09673 0.25488 0.29387
 C1137 C 0.57145 0.29903 0.73125
 C1138 C 0.58476 0.28711 0.71529
 C1139 C 0.57905 0.26406 0.71119
 C1140 C 0.55905 0.25453 0.72064
 C1141 C 0.54432 0.26791 0.73419
 C1142 C 0.55167 0.28973 0.74034
 C1143 C 0.53958 0.31217 0.74032
 C1144 C 0.56126 0.32239 0.73029
 H1145 H 0.58942 0.25362 0.70000
 H1146 H 0.55452 0.23712 0.71644
 H1147 H 0.53583 0.31828 0.75793
 H1148 H 0.52495 0.31287 0.72829
 H1149 H 0.56988 0.33444 0.74213
 H1150 H 0.55914 0.32870 0.71247
 C1151 C 0.57394 0.76734 0.20519
 C1152 C 0.58096 0.78940 0.21105
 C1153 C 0.56649 0.80211 0.22557
 C1154 C 0.54717 0.79189 0.23569
 C1155 C 0.54245 0.76853 0.23230
 C1156 C 0.55531 0.75707 0.21567
 C1157 C 0.56699 0.73436 0.21598
 C1158 C 0.58712 0.74562 0.20410
 H1159 H 0.57028 0.81972 0.22956
 H1160 H 0.53645 0.80197 0.24693
 H1161 H 0.55815 0.72156 0.20514
 H1162 H 0.57163 0.72851 0.23336
 H1163 H 0.58958 0.73963 0.18623
 H1164 H 0.60285 0.74605 0.21472
 C1165 C 1.08042 0.26241 0.21558
 C1166 C 1.08404 0.28605 0.21511
 C1167 C 1.06813 0.29990 0.22684
 C1168 C 1.04809 0.29048 0.23622
 C1169 C 1.04379 0.26688 0.23473
 C1170 C 1.06092 0.25305 0.22542
 C1171 C 1.05922 0.23494 0.20762
 C1172 C 1.08040 0.24525 0.19670
 H1173 H 1.07044 0.31820 0.22765
 H1174 H 1.03563 0.30170 0.24406
 H1175 H 1.04363 0.23664 0.19691
 H1176 H 1.06226 0.21762 0.21475
 H1177 H 1.07696 0.25299 0.17967
 H1178 H 1.09551 0.23379 0.19743
 C1179 C 1.07766 0.76612 0.71208
 C1180 C 1.08280 0.78928 0.71339
 C1181 C 1.06751 0.80281 0.72644
 C1182 C 1.04767 0.79312 0.73644
 C1183 C 1.04304 0.76950 0.73438
 C1184 C 1.05912 0.75666 0.72243
 C1185 C 1.06247 0.73416 0.71107
 C1186 C 1.08358 0.74480 0.69955
 H1187 H 1.07034 0.82095 0.72827
 H1188 H 1.03591 0.80408 0.74562
 H1189 H 1.04854 0.73011 0.69885
 H1190 H 1.06694 0.72037 0.72327
 H1191 H 1.08165 0.74662 0.68073
 H1192 H 1.10003 0.73735 0.70540
 C1193 C 0.43116 0.70068 0.72990
 C1194 C 0.41841 0.71205 0.71314
 C1195 C 0.42448 0.73483 0.70812
 C1196 C 0.44423 0.74461 0.71767
 C1197 C 0.45839 0.73177 0.73225
 C1198 C 0.45072 0.71027 0.73916
 C1199 C 0.46279 0.68784 0.73998
 C1200 C 0.44135 0.67732 0.72984
 H1201 H 0.41449 0.74491 0.69630
 H1202 H 0.44893 0.76185 0.71296
 H1203 H 0.46616 0.68220 0.75782
 H1204 H 0.47771 0.68695 0.72826
 H1205 H 0.43243 0.66562 0.74187
 H1206 H 0.44387 0.67050 0.71227
 C1207 C 0.43264 0.20016 0.23013
 C1208 C 0.41862 0.21286 0.21551
 C1209 C 0.42385 0.23622 0.21274
 C1210 C 0.44389 0.24552 0.22229
 C1211 C 0.45930 0.23164 0.23454
 C1212 C 0.45262 0.20913 0.23897
 C1213 C 0.46486 0.18683 0.23718
 C1214 C 0.44287 0.17697 0.22751
 H1215 H 0.41296 0.24716 0.20258
 H1216 H 0.44792 0.26326 0.21905
 H1217 H 0.46935 0.17975 0.25424
 H1218 H 0.47892 0.18679 0.22443
 H1219 H 0.43474 0.16426 0.23905
 H1220 H 0.44433 0.17165 0.20931
 C1221 C -0.07878 0.73524 0.21437
 C1222 C -0.08275 0.71165 0.21506
 C1223 C -0.06725 0.69821 0.22780
 C1224 C -0.04730 0.70788 0.23710
 C1225 C -0.04257 0.73124 0.23422
 C1226 C -0.05930 0.74476 0.22388
 C1227 C -0.05703 0.76207 0.20536
 C1228 C -0.07824 0.75161 0.19474
 H1229 H -0.06979 0.68003 0.22960
 H1230 H -0.03520 0.69697 0.24587
 H1231 H -0.04134 0.75963 0.19491
 H1232 H -0.05983 0.77971 0.21175
 H1233 H -0.07478 0.74308 0.17809
 H1234 H -0.09316 0.76336 0.19484
 C1235 C -0.06956 0.20179 0.73005
 C1236 C -0.08271 0.21365 0.71396
 C1237 C -0.07645 0.23641 0.70910
 C1238 C -0.05625 0.24573 0.71820
 C1239 C -0.04180 0.23243 0.73210
 C1240 C -0.04956 0.21089 0.73881
 C1241 C -0.03783 0.18827 0.73881
 C1242 C -0.05977 0.17827 0.72924
 H1243 H -0.08670 0.24682 0.69779
 H1244 H -0.05150 0.26303 0.71374
 H1245 H -0.03394 0.18226 0.75642
 H1246 H -0.02334 0.18732 0.72655
 H1247 H -0.06845 0.16650 0.74136
 H1248 H -0.05795 0.17172 0.71148
 C1249 C 0.26481 0.42042 0.28446
 C1250 C 0.28846 0.41667 0.28438
 C1251 C 0.30210 0.43224 0.27199
 C1252 C 0.29250 0.45212 0.26246
 C1253 C 0.26893 0.45657 0.26449
 C1254 C 0.25528 0.43973 0.27452
 C1255 C 0.23760 0.44194 0.29276
 C1256 C 0.24810 0.42095 0.30381
 H1257 H 0.32038 0.42977 0.27074
 H1258 H 0.30357 0.46435 0.25408
 H1259 H 0.22009 0.43886 0.28616
 H1260 H 0.23962 0.45773 0.30309
 H1261 H 0.23655 0.40591 0.30368
 H1262 H 0.25626 0.42469 0.32055
 C1263 C 0.30179 -0.06870 0.77215
 C1264 C 0.28944 -0.08329 0.78645
 C1265 C 0.26618 -0.07720 0.78999
 C1266 C 0.25672 -0.05730 0.77984
 C1267 C 0.27032 -0.04262 0.76629
 C1268 C 0.29288 -0.04921 0.76316
 C1269 C 0.31501 -0.04129 0.75359
 C1270 C 0.32528 -0.06322 0.76385
 H1271 H 0.25511 -0.08767 0.80044
 H1272 H 0.23898 -0.05314 0.78303
 H1273 H 0.32117 -0.02546 0.76202
 H1274 H 0.31502 -0.04097 0.73459
 H1275 H 0.33730 -0.05991 0.77816
 H1276 H 0.33141 -0.07547 0.75070
 C1277 C 0.80049 0.43152 0.77022
 C1278 C 0.78909 0.41809 0.78636
 C1279 C 0.76629 0.42486 0.79139
 C1280 C 0.75656 0.44460 0.78129
 C1281 C 0.76941 0.45839 0.76621
 C1282 C 0.79132 0.45085 0.76113
 C1283 C 0.81311 0.45846 0.75057
 C1284 C 0.82367 0.43670 0.76090
 H1285 H 0.75584 0.41518 0.80316
 H1286 H 0.73926 0.44942 0.78576
 H1287 H 0.81968 0.47441 0.75843
 H1288 H 0.81242 0.45837 0.73158
 H1289 H 0.83627 0.44028 0.77463
 H1290 H 0.82921 0.42412 0.74779
 C1291 C 0.76960 -0.07254 0.29598
 C1292 C 0.79039 -0.08187 0.28876
 C1293 C 0.80171 -0.06965 0.27100
 C1294 C 0.79219 -0.04940 0.26161
 C1295 C 0.77103 -0.04093 0.26949
 C1296 C 0.76045 -0.05330 0.28674
 C1297 C 0.73977 -0.05375 0.30145
 C1298 C 0.74993 -0.07559 0.31198
 H1299 H 0.81792 -0.07542 0.26428
 H1300 H 0.80123 -0.04055 0.24809
 H1301 H 0.72391 -0.05680 0.29155
 H1302 H 0.73917 -0.03910 0.31350
 H1303 H 0.73988 -0.09119 0.30807
 H1304 H 0.75497 -0.07353 0.33018
 C1305 C 0.30069 0.56972 0.73014
 C1306 C 0.28817 0.58356 0.71519
 C1307 C 0.26491 0.57815 0.71200
 C1308 C 0.25557 0.55806 0.72144
 C1309 C 0.26936 0.54282 0.73399
 C1310 C 0.29166 0.54973 0.73899
 C1311 C 0.31404 0.53759 0.73758
 C1312 C 0.32396 0.55955 0.72788
 H1313 H 0.25407 0.58893 0.70161
 H1314 H 0.23789 0.55391 0.71803
 H1315 H 0.31424 0.52344 0.72496
 H1316 H 0.32086 0.53321 0.75476
 H1317 H 0.32956 0.55802 0.70975
 H1318 H 0.33650 0.56775 0.73951
 C1319 C 0.30289 1.06689 0.22573
 C1320 C 0.29072 1.08201 0.21195
 C1321 C 0.26739 1.07657 0.20834
 C1322 C 0.25754 1.05674 0.21817
 C1323 C 0.27078 1.04172 0.23170
 C1324 C 0.29352 1.04767 0.23476
 C1325 C 0.31518 1.04003 0.24554
 C1326 C 0.32592 1.06174 0.23526
 H1327 H 0.25668 1.08757 0.19805
 H1328 H 0.23970 1.05306 0.21503
 H1329 H 0.32177 1.02397 0.23784
 H1330 H 0.31422 1.04020 0.26453
 H1331 H 0.33870 1.05818 0.22164
 H1332 H 0.33125 1.07435 0.24839
 C1333 C 0.76580 0.57604 0.20843
 C1334 C 0.78702 0.58448 0.21565
 C1335 C 0.79707 0.57394 0.23495
 C1336 C 0.78751 0.55406 0.24456
 C1337 C 0.76749 0.54456 0.23539
 C1338 C 0.75622 0.55663 0.21818
 C1339 C 0.74727 0.54831 0.19584
 C1340 C 0.75776 0.56944 0.18509
 H1341 H 0.81299 0.58013 0.24189
 H1342 H 0.79631 0.54551 0.25842
 H1343 H 0.72831 0.54831 0.19529
 H1344 H 0.75550 0.53215 0.19019
 H1345 H 0.74476 0.58152 0.17832
 H1346 H 0.77207 0.56553 0.17319
 C1347 C 0.77211 1.06975 0.70173
 C1348 C 0.79117 1.08009 0.71178
 C1349 C 0.80106 1.06895 0.73078
 C1350 C 0.79053 1.04963 0.74055
 C1351 C 0.76978 1.04131 0.73176
 C1352 C 0.76176 1.05076 0.71136
 C1353 C 0.73847 1.05894 0.70494
 C1354 C 0.74982 1.07973 0.69443
 H1355 H 0.81654 1.07538 0.73848
 H1356 H 0.79826 1.04153 0.75529
 H1357 H 0.72769 1.06344 0.71981
 H1358 H 0.73019 1.04772 0.69210
 H1359 H 0.74573 1.09590 0.70353
 H1360 H 0.74805 1.08040 0.67553
 C1361 C 0.69927 0.56634 0.27641
 C1362 C 0.71285 0.58183 0.28857
 C1363 C 0.73542 0.57502 0.29376
 C1364 C 0.74453 0.55467 0.28477
 C1365 C 0.73127 0.54066 0.27050
 C1366 C 0.70821 0.54612 0.26783
 C1367 C 0.69433 0.54745 0.24654
 C1368 C 0.68463 0.56968 0.25575
 H1369 H 0.74648 0.58582 0.30382
 H1370 H 0.76215 0.55031 0.28827
 H1371 H 0.68149 0.53353 0.24559
 H1372 H 0.70496 0.54971 0.23094
 H1373 H 0.66613 0.56859 0.25988
 H1374 H 0.68972 0.58484 0.24550
 C1375 C 0.70198 1.07106 0.76804
 C1376 C 0.71298 1.08329 0.78544
 C1377 C 0.73549 1.07626 0.79100
 C1378 C 0.74513 1.05644 0.78121
 C1379 C 0.73239 1.04286 0.76606
 C1380 C 0.71120 1.05123 0.75912
 C1381 C 0.68857 1.04022 0.75601
 C1382 C 0.67822 1.06196 0.76586
 H1383 H 0.74560 1.08560 0.80328
 H1384 H 0.76210 1.05117 0.78628
 H1385 H 0.68606 1.02511 0.76715
 H1386 H 0.68442 1.03758 0.73769
 H1387 H 0.66972 1.05941 0.78264
 H1388 H 0.66802 1.07165 0.75313
 C1389 C 0.23411 0.57539 0.79127
 C1390 C 0.21170 0.58232 0.78721
 C1391 C 0.19884 0.56813 0.77238
 C1392 C 0.20849 0.54803 0.76281
 C1393 C 0.23136 0.54183 0.76746
 C1394 C 0.24348 0.55641 0.78171
 C1395 C 0.26555 0.55909 0.79396
 C1396 C 0.25506 0.58069 0.80467
 H1397 H 0.18124 0.57217 0.76849
 H1398 H 0.19811 0.53736 0.75187
 H1399 H 0.28004 0.56281 0.78229
 H1400 H 0.26857 0.54516 0.80651
 H1401 H 0.26333 0.59677 0.79892
 H1402 H 0.25228 0.57914 0.82341
 C1403 C 0.23659 1.07952 0.28480
 C1404 C 0.21300 1.08355 0.28467
 C1405 C 0.19929 1.06834 0.27194
 C1406 C 0.20874 1.04846 0.26219
 C1407 C 0.23218 1.04359 0.26454
 C1408 C 0.24591 1.06018 0.27479
 C1409 C 0.26370 1.05776 0.29280
 C1410 C 0.25339 1.07879 0.30400
 H1411 H 0.18107 1.07104 0.27056
 H1412 H 0.19763 1.03650 0.25356
 H1413 H 0.28116 1.06072 0.28594
 H1414 H 0.26163 1.04194 0.30311
 H1415 H 0.26504 1.09374 0.30382
 H1416 H 0.24525 1.07507 0.32080
 C1417 C 0.73327 0.42309 0.71344
 C1418 C 0.70963 0.41950 0.71398
 C1419 C 0.69642 0.43450 0.72754
 C1420 C 0.70639 0.45392 0.73766
 C1421 C 0.72985 0.45844 0.73486
 C1422 C 0.74310 0.44190 0.72382
 C1423 C 0.76068 0.44448 0.70556
 C1424 C 0.74981 0.42402 0.69395
 H1425 H 0.67819 0.43203 0.72926
 H1426 H 0.69565 0.46581 0.74692
 H1427 H 0.77817 0.44090 0.71197
 H1428 H 0.75878 0.46063 0.69576
 H1429 H 0.76118 0.40882 0.69348
 H1430 H 0.74153 0.42844 0.67742
 C1431 C 0.70354 -0.07259 0.23478
 C1432 C 0.71428 -0.08423 0.21680
 C1433 C 0.73661 -0.07723 0.21084
 C1434 C 0.74624 -0.05747 0.22056
 C1435 C 0.73368 -0.04428 0.23627
 C1436 C 0.71294 -0.05303 0.24414
 C1437 C 0.69020 -0.04202 0.24736
 C1438 C 0.67982 -0.06343 0.23699
 H1439 H 0.74630 -0.08631 0.19797
 H1440 H 0.76288 -0.05177 0.21481
 H1441 H 0.68779 -0.02661 0.23655
 H1442 H 0.68590 -0.03976 0.26575
 H1443 H 0.67158 -0.06041 0.22013
 H1444 H 0.66943 -0.07335 0.24942
 C1445 C 0.22912 0.42961 0.20212
 C1446 C 0.20910 0.41992 0.21098
 C1447 C 0.19800 0.43181 0.22884
 C1448 C 0.20814 0.45119 0.23885
 C1449 C 0.22980 0.45872 0.23158
 C1450 C 0.23919 0.44851 0.21212
 C1451 C 0.26271 0.43986 0.20740
 C1452 C 0.25166 0.41914 0.19643
 H1453 H 0.18181 0.42594 0.23553
 H1454 H 0.19947 0.45983 0.25274
 H1455 H 0.27239 0.43541 0.22305
 H1456 H 0.27202 0.45079 0.19496
 H1457 H 0.25481 0.40300 0.20595
 H1458 H 0.25468 0.41821 0.17767
 C1459 C 0.23484 -0.07605 0.70964
 C1460 C 0.21233 -0.08277 0.71341
 C1461 C 0.19937 -0.06861 0.72828
 C1462 C 0.20896 -0.04859 0.73796
 C1463 C 0.23187 -0.04249 0.73342
 C1464 C 0.24415 -0.05719 0.71938
 C1465 C 0.26619 -0.05960 0.70693
 C1466 C 0.25576 -0.08106 0.69597
 H1467 H 0.18172 -0.07254 0.73202
 H1468 H 0.19848 -0.03786 0.74880
 H1469 H 0.28068 -0.06344 0.71852
 H1470 H 0.26908 -0.04547 0.69457
 H1471 H 0.26417 -0.09720 0.70136
 H1472 H 0.25286 -0.07920 0.67727
 C1473 C 0.26877 0.29647 0.42699
 C1474 C 0.28881 0.28766 0.41724
 C1475 C 0.30066 0.27083 0.42986
 C1476 C 0.29121 0.26161 0.45002
 C1477 C 0.26956 0.26866 0.45775
 C1478 C 0.25940 0.28726 0.44676
 C1479 C 0.23558 0.29076 0.43841
 C1480 C 0.24585 0.30083 0.41675
 H1481 H 0.31690 0.26427 0.42399
 H1482 H 0.30042 0.24841 0.45914
 H1483 H 0.22612 0.30349 0.44887
 H1484 H 0.22631 0.27461 0.43518
 H1485 H 0.24225 0.31935 0.41479
 H1486 H 0.24268 0.29033 0.40124
 C1487 C 0.29920 0.76927 -0.07138
 C1488 C 0.28706 0.78527 -0.08440
 C1489 C 0.26424 0.78975 -0.07796
 C1490 C 0.25515 0.78047 -0.05766
 C1491 C 0.26876 0.76675 -0.04333
 C1492 C 0.29032 0.76033 -0.05130
 C1493 C 0.31302 0.76036 -0.03975
 C1494 C 0.32280 0.77018 -0.06176
 H1495 H 0.25364 0.80100 -0.08809
 H1496 H 0.23787 0.78481 -0.05264
 H1497 H 0.31919 0.74281 -0.03603
 H1498 H 0.31399 0.77245 -0.02516
 H1499 H 0.33463 0.75826 -0.07063
 H1500 H 0.32920 0.78794 -0.05989
 C1501 C 0.78697 0.26586 -0.07913
 C1502 C 0.78564 0.28931 -0.08358
 C1503 C 0.77178 0.30259 -0.06890
 C1504 C 0.76199 0.29300 -0.04908
 C1505 C 0.76549 0.26983 -0.04378
 C1506 C 0.77699 0.25639 -0.05984
 C1507 C 0.79578 0.23958 -0.05660
 C1508 C 0.80699 0.25006 -0.07761
 H1509 H 0.76945 0.32065 -0.07198
 H1510 H 0.75236 0.30380 -0.03754
 H1511 H 0.78992 0.22177 -0.05938
 H1512 H 0.80550 0.24246 -0.04054
 H1513 H 0.80783 0.23814 -0.09237
 H1514 H 0.82319 0.25908 -0.07362
 C1515 C 0.76876 0.79754 0.42904
 C1516 C 0.78890 0.78887 0.41941
 C1517 C 0.80080 0.77210 0.43207
 C1518 C 0.79121 0.76267 0.45207
 C1519 C 0.76940 0.76949 0.45957
 C1520 C 0.75924 0.78812 0.44861
 C1521 C 0.73547 0.79182 0.44019
 C1522 C 0.74592 0.80210 0.41870
 H1523 H 0.81712 0.76567 0.42628
 H1524 H 0.80034 0.74934 0.46108
 H1525 H 0.72602 0.80447 0.45074
 H1526 H 0.72612 0.77579 0.43667
 H1527 H 0.74239 0.82065 0.41692
 H1528 H 0.74283 0.79177 0.40306
 C1529 C 0.71374 0.26573 0.57868
 C1530 C 0.71506 0.28920 0.58300
 C1531 C 0.72878 0.30240 0.56812
 C1532 C 0.73841 0.29269 0.54827
 C1533 C 0.73491 0.26950 0.54311
 C1534 C 0.72358 0.25616 0.55936
 C1535 C 0.70480 0.23933 0.55639
 C1536 C 0.69376 0.24991 0.57744
 H1537 H 0.73111 0.32047 0.57108
 H1538 H 0.74797 0.30342 0.53660
 H1539 H 0.71074 0.22153 0.55922
 H1540 H 0.69493 0.24215 0.54040
 H1541 H 0.69309 0.23806 0.59228
 H1542 H 0.67750 0.25891 0.57354
 C1543 C 0.71234 0.76528 1.07812
 C1544 C 0.71479 0.78820 1.08398
 C1545 C 0.72760 0.80173 1.06848
 C1546 C 0.73673 0.79222 1.04810
 C1547 C 0.73373 0.76884 1.04294
 C1548 C 0.72158 0.75607 1.05887
 C1549 C 0.71186 0.73304 1.06327
 C1550 C 0.70147 0.74339 1.08516
 H1551 H 0.73013 0.81973 1.07170
 H1552 H 0.74604 0.80311 1.03638
 H1553 H 0.72520 0.72003 1.06677
 H1554 H 0.69891 0.72816 1.05030
 H1555 H 0.70895 0.73645 1.10118
 H1556 H 0.68252 0.74426 1.08474
 C1557 C 0.21620 0.26427 1.07948
 C1558 C 0.21566 0.28786 1.08329
 C1559 C 0.22783 0.30181 1.06776
 C1560 C 0.23767 0.29251 1.04782
 C1561 C 0.23598 0.26901 1.04319
 C1562 C 0.22630 0.25510 1.06006
 C1563 C 0.20882 0.23678 1.05802
 C1564 C 0.19753 0.24691 1.07915
 H1565 H 0.22870 0.32007 1.07027
 H1566 H 0.24586 0.30378 1.03563
 H1567 H 0.21619 0.21957 1.06109
 H1568 H 0.19833 0.23842 1.04227
 H1569 H 0.19820 0.23539 1.09425
 H1570 H 0.18050 0.25451 1.07554
 C1571 C 0.20208 0.77011 0.56995
 C1572 C 0.21470 0.78500 0.58372
 C1573 C 0.23780 0.78863 0.57782
 C1574 C 0.24689 0.77953 0.55742
 C1575 C 0.23295 0.76696 0.54240
 C1576 C 0.21090 0.76153 0.54971
 C1577 C 0.18846 0.76315 0.53779
 C1578 C 0.17874 0.77258 0.56001
 H1579 H 0.24868 0.79900 0.58854
 H1580 H 0.26447 0.78309 0.55291
 H1581 H 0.18156 0.74608 0.53329
 H1582 H 0.18835 0.77586 0.52368
 H1583 H 0.16621 0.76093 0.56823
 H1584 H 0.17321 0.79070 0.55872
 C1585 C 0.26630 0.70851 0.57546
 C1586 C 0.28860 0.71288 0.58249
 C1587 C 0.30143 0.72769 0.56817
 C1588 C 0.29186 0.73694 0.54789
 C1589 C 0.26913 0.73196 0.54158
 C1590 C 0.25702 0.71774 0.55625
 C1591 C 0.23493 0.70556 0.55906
 C1592 C 0.24531 0.69519 0.58091
 H1593 H 0.31894 0.73183 0.57227
 H1594 H 0.30219 0.74793 0.53717
 H1595 H 0.23200 0.69284 0.54528
 H1596 H 0.22044 0.71728 0.56255
 H1597 H 0.24813 0.67647 0.57966
 H1598 H 0.23694 0.70114 0.59692
 C1599 C 0.27665 0.20046 1.06751
 C1600 C 0.28970 0.21333 1.08268
 C1601 C 0.29295 0.23656 1.07667
 C1602 C 0.28322 0.24572 1.05640
 C1603 C 0.27024 0.23182 1.04150
 C1604 C 0.26779 0.20914 1.04788
 C1605 C 0.25730 0.18719 1.04079
 C1606 C 0.26738 0.17721 1.06298
 H1607 H 0.30273 0.24772 1.08765
 H1608 H 0.28587 0.26356 1.05238
 H1609 H 0.26524 0.18022 1.02499
 H1610 H 0.23834 0.18797 1.04076
 H1611 H 0.28112 0.16446 1.05997
 H1612 H 0.25413 0.17214 1.07563
 C1613 C 0.77671 0.70010 1.06688
 C1614 C 0.78766 0.71308 1.08352
 C1615 C 0.78926 0.73681 1.07894
 C1616 C 0.77999 0.74632 1.05860
 C1617 C 0.76910 0.73231 1.04218
 C1618 C 0.76834 0.70915 1.04719
 C1619 C 0.75993 0.68689 1.03846
 C1620 C 0.76955 0.67651 1.06067
 H1621 H 0.79745 0.74809 1.09106
 H1622 H 0.78145 0.76450 1.05567
 H1623 H 0.76918 0.68133 1.02281
 H1624 H 0.74099 0.68632 1.03742
 H1625 H 0.78438 0.66500 1.05783
 H1626 H 0.75608 0.66979 1.07227
 C1627 C 0.78785 0.23409 0.57830
 C1628 C 0.78700 0.21058 0.58252
 C1629 C 0.77349 0.19719 0.56768
 C1630 C 0.76359 0.20682 0.54794
 C1631 C 0.76662 0.23010 0.54287
 C1632 C 0.77778 0.24356 0.55908
 C1633 C 0.79625 0.26073 0.55605
 C1634 C 0.80752 0.25028 0.57700
 H1635 H 0.77151 0.17907 0.57059
 H1636 H 0.75419 0.19597 0.53630
 H1637 H 0.79000 0.27842 0.55896
 H1638 H 0.80613 0.25816 0.53999
 H1639 H 0.80800 0.26207 0.59187
 H1640 H 0.82395 0.24160 0.57300
 C1641 C 0.70135 0.72628 0.43125
 C1642 C 0.71476 0.71537 0.41488
 C1643 C 0.73845 0.71405 0.41972
 C1644 C 0.74748 0.72330 0.44027
 C1645 C 0.73300 0.73385 0.45656
 C1646 C 0.70993 0.73459 0.45112
 C1647 C 0.68724 0.74178 0.46002
 C1648 C 0.67739 0.73221 0.43758
 H1649 H 0.74998 0.70590 0.40777
 H1650 H 0.76557 0.72167 0.44362
 H1651 H 0.68578 0.76063 0.46153
 H1652 H 0.68204 0.73194 0.47543
 H1653 H 0.67004 0.74557 0.42627
 H1654 H 0.66661 0.71681 0.44009
 C1655 C 0.71343 0.23404 -0.07926
 C1656 C 0.71472 0.21052 -0.08340
 C1657 C 0.72804 0.19733 -0.06816
 C1658 C 0.73737 0.20713 -0.04825
 C1659 C 0.73394 0.23039 -0.04334
 C1660 C 0.72295 0.24368 -0.05986
 C1661 C 0.70421 0.26065 -0.05727
 C1662 C 0.69351 0.25003 -0.07841
 H1663 H 0.73032 0.17922 -0.07091
 H1664 H 0.74668 0.19642 -0.03637
 H1665 H 0.71028 0.27840 -0.06011
 H1666 H 0.69404 0.25800 -0.04141
 H1667 H 0.69318 0.26181 -0.09332
 H1668 H 0.67712 0.24119 -0.07472
 C1669 C 0.20183 0.73017 -0.06995
 C1670 C 0.21384 0.71419 -0.08313
 C1671 C 0.23664 0.70949 -0.07684
 C1672 C 0.24588 0.71866 -0.05661
 C1673 C 0.23245 0.73248 -0.04217
 C1674 C 0.21086 0.73901 -0.04992
 C1675 C 0.18826 0.73881 -0.03811
 C1676 C 0.17832 0.72915 -0.06006
 H1677 H 0.24715 0.69826 -0.08709
 H1678 H 0.26321 0.71433 -0.05183
 H1679 H 0.18208 0.75631 -0.03418
 H1680 H 0.18751 0.72659 -0.02359
 H1681 H 0.16640 0.74112 -0.06872
 H1682 H 0.17195 0.71137 -0.05823
 C1683 C 0.23719 0.21433 0.42053
 C1684 C 0.21351 0.21372 0.41713
 C1685 C 0.19966 0.22514 0.43329
 C1686 C 0.20919 0.23450 0.45328
 C1687 C 0.23286 0.23327 0.45728
 C1688 C 0.24663 0.22411 0.43999
 C1689 C 0.26486 0.20641 0.44155
 C1690 C 0.25448 0.19556 0.42040
 H1691 H 0.18133 0.22585 0.43112
 H1692 H 0.19802 0.24231 0.46583
 H1693 H 0.26331 0.19568 0.45717
 H1694 H 0.28213 0.21358 0.43840
 H1695 H 0.24686 0.17853 0.42386
 H1696 H 0.26585 0.19641 0.40518
 C1697 C 0.26731 0.42448 0.70926
 C1698 C 0.28965 0.41743 0.71354
 C1699 C 0.30247 0.43165 0.72839
 C1700 C 0.29286 0.45188 0.73772
 C1701 C 0.27008 0.45822 0.73280
 C1702 C 0.25799 0.44360 0.71857
 C1703 C 0.23603 0.44106 0.70609
 C1704 C 0.24645 0.41931 0.69563
 H1705 H 0.31999 0.42751 0.73249
 H1706 H 0.30319 0.46254 0.74872
 H1707 H 0.23330 0.45495 0.69342
 H1708 H 0.22138 0.43754 0.71761
 H1709 H 0.24947 0.42074 0.67691
 H1710 H 0.23795 0.40335 0.70136
 C1711 C 0.30081 0.92996 0.23071
 C1712 C 0.28811 0.91623 0.21584
 C1713 C 0.26488 0.92191 0.21276
 C1714 C 0.25577 0.94211 0.22217
 C1715 C 0.26973 0.95721 0.23466
 C1716 C 0.29200 0.95006 0.23954
 C1717 C 0.31452 0.96190 0.23813
 C1718 C 0.32420 0.93981 0.22844
 H1719 H 0.25389 0.91126 0.20244
 H1720 H 0.23813 0.94648 0.21876
 H1721 H 0.32140 0.96617 0.25531
 H1722 H 0.31495 0.97603 0.22549
 H1723 H 0.33664 0.93143 0.24008
 H1724 H 0.32982 0.94127 0.21031
 C1725 C 0.77276 0.43180 0.19991
 C1726 C 0.79089 0.42030 0.21052
 C1727 C 0.80099 0.43102 0.22965
 C1728 C 0.79137 0.45098 0.23909
 C1729 C 0.77134 0.46046 0.22978
 C1730 C 0.76332 0.45144 0.20921
 C1731 C 0.73977 0.44508 0.20197
 C1732 C 0.75004 0.42346 0.19191
 H1733 H 0.81578 0.42367 0.23790
 H1734 H 0.79897 0.45845 0.25421
 H1735 H 0.73290 0.45690 0.18879
 H1736 H 0.72812 0.44163 0.21652
 H1737 H 0.74888 0.42285 0.17294
 H1738 H 0.74452 0.40766 0.20088
 C1739 C 0.76719 0.92657 0.70422
 C1740 C 0.78955 0.91979 0.70927
 C1741 C 0.80240 0.93414 0.72370
 C1742 C 0.79214 0.95307 0.73446
 C1743 C 0.76860 0.95758 0.73182
 C1744 C 0.75688 0.94485 0.71533
 C1745 C 0.73446 0.93270 0.71630
 C1746 C 0.74571 0.91303 0.70369
 H1747 H 0.82020 0.93055 0.72711
 H1748 H 0.80238 0.96372 0.74556
 H1749 H 0.72105 0.94146 0.70610
 H1750 H 0.72938 0.92766 0.73384
 H1751 H 0.73915 0.91079 0.68600
 H1752 H 0.74683 0.89711 0.71401
 C1753 C 0.73472 0.57967 0.71527
 C1754 C 0.71109 0.58341 0.71519
 C1755 C 0.69735 0.56774 0.72735
 C1756 C 0.70690 0.54778 0.73684
 C1757 C 0.73049 0.54335 0.73491
 C1758 C 0.74412 0.56028 0.72503
 C1759 C 0.76219 0.55836 0.70717
 C1760 C 0.75181 0.57948 0.69624
 H1761 H 0.67908 0.57022 0.72852
 H1762 H 0.69580 0.53557 0.74518
 H1763 H 0.76042 0.54271 0.69657
 H1764 H 0.77953 0.56136 0.71424
 H1765 H 0.74398 0.57597 0.67929
 H1766 H 0.76331 0.59455 0.69681
 C1767 C 0.70047 0.06772 0.22767
 C1768 C 0.71163 0.07930 0.20988
 C1769 C 0.73153 0.06907 0.20075
 C1770 C 0.74099 0.04945 0.21091
 C1771 C 0.73085 0.03973 0.23042
 C1772 C 0.70975 0.04827 0.23756
 C1773 C 0.70183 0.05481 0.26091
 C1774 C 0.69177 0.07619 0.25016
 H1775 H 0.74032 0.07653 0.18630
 H1776 H 0.75660 0.04229 0.20400
 H1777 H 0.71608 0.05846 0.27284
 H1778 H 0.68866 0.04291 0.26761
 H1779 H 0.70035 0.09215 0.25575
 H1780 H 0.67280 0.07659 0.25087
 C1781 C 0.23468 0.57649 0.21074
 C1782 C 0.21228 0.58354 0.21475
 C1783 C 0.19930 0.56944 0.22963
 C1784 C 0.20869 0.54912 0.23898
 C1785 C 0.23144 0.54261 0.23410
 C1786 C 0.24381 0.55731 0.22014
 C1787 C 0.26558 0.55929 0.20714
 C1788 C 0.25537 0.58111 0.19660
 H1789 H 0.18173 0.57360 0.23358
 H1790 H 0.19814 0.53843 0.24979
 H1791 H 0.26783 0.54522 0.19460
 H1792 H 0.28049 0.56266 0.21833
 H1793 H 0.25200 0.57949 0.17797
 H1794 H 0.26425 0.59699 0.20192
 C1795 C 0.23428 0.07616 0.71017
 C1796 C 0.21110 0.08128 0.71194
 C1797 C 0.19787 0.06585 0.72513
 C1798 C 0.20792 0.04617 0.73513
 C1799 C 0.23160 0.04173 0.73285
 C1800 C 0.24404 0.05769 0.72037
 C1801 C 0.26686 0.06210 0.71000
 C1802 C 0.25588 0.08310 0.69864
 H1803 H 0.17971 0.06856 0.72723
 H1804 H 0.19720 0.03444 0.74460
 H1805 H 0.27192 0.04862 0.69762
 H1806 H 0.27997 0.06669 0.72286
 H1807 H 0.25485 0.08165 0.67972
 H1808 H 0.26246 0.09963 0.70521
 C1809 C 0.30115 0.56823 0.27066
 C1810 C 0.28880 0.58192 0.28592
 C1811 C 0.26560 0.57647 0.28949
 C1812 C 0.25614 0.55651 0.28003
 C1813 C 0.26972 0.54145 0.26702
 C1814 C 0.29196 0.54837 0.26170
 C1815 C 0.31427 0.53608 0.26292
 C1816 C 0.32436 0.55790 0.27269
 H1817 H 0.25488 0.58716 0.30011
 H1818 H 0.23847 0.55239 0.28361
 H1819 H 0.32103 0.53178 0.24568
 H1820 H 0.31434 0.52183 0.27545
 H1821 H 0.33689 0.56613 0.26103
 H1822 H 0.33001 0.55620 0.29077
 C1823 C 0.26858 0.07606 0.78772
 C1824 C 0.29169 0.08139 0.78588
 C1825 C 0.30508 0.06613 0.77265
 C1826 C 0.29526 0.04636 0.76269
 C1827 C 0.27165 0.04171 0.76505
 C1828 C 0.25904 0.05753 0.77755
 C1829 C 0.23623 0.06160 0.78810
 C1830 C 0.24697 0.08269 0.79945
 H1831 H 0.32321 0.06901 0.77053
 H1832 H 0.30610 0.03472 0.75321
 H1833 H 0.23147 0.04800 0.80048
 H1834 H 0.22294 0.06607 0.77536
 H1835 H 0.24814 0.08115 0.81836
 H1836 H 0.24007 0.09915 0.79299
 C1837 C 0.76756 0.57625 0.78970
 C1838 C 0.79023 0.58266 0.78640
 C1839 C 0.80339 0.56808 0.77215
 C1840 C 0.79375 0.54811 0.76239
 C1841 C 0.77060 0.54243 0.76625
 C1842 C 0.75824 0.55738 0.78000
 C1843 C 0.73571 0.56068 0.79135
 C1844 C 0.74618 0.58213 0.80226
 H1845 H 0.82120 0.57170 0.76884
 H1846 H 0.80435 0.53717 0.75187
 H1847 H 0.73188 0.54694 0.80389
 H1848 H 0.72183 0.56463 0.77907
 H1849 H 0.74816 0.58069 0.82111
 H1850 H 0.73846 0.59833 0.79607
 C1851 C 0.76936 0.07110 0.29654
 C1852 C 0.78598 0.08378 0.28491
 C1853 C 0.79091 0.07740 0.26210
 C1854 C 0.78140 0.05741 0.25262
 C1855 C 0.76692 0.04343 0.26579
 C1856 C 0.76024 0.05137 0.28730
 C1857 C 0.75928 0.03965 0.30993
 C1858 C 0.76938 0.06126 0.32014
 H1859 H 0.80276 0.08724 0.25188
 H1860 H 0.78634 0.05225 0.23553
 H1861 H 0.77096 0.02474 0.31112
 H1862 H 0.74144 0.03640 0.31555
 H1863 H 0.78691 0.05886 0.32703
 H1864 H 0.75734 0.07031 0.33173
 C1865 C 0.70275 0.42927 0.26789
 C1866 C 0.71508 0.41593 0.28344
 C1867 C 0.73826 0.42164 0.28688
 C1868 C 0.74757 0.44165 0.27719
 C1869 C 0.73386 0.45643 0.26403
 C1870 C 0.71175 0.44913 0.25877
 C1871 C 0.68920 0.46103 0.25912
 C1872 C 0.67930 0.43924 0.26924
 H1873 H 0.74898 0.41130 0.29781
 H1874 H 0.76500 0.44625 0.28117
 H1875 H 0.68284 0.46474 0.24161
 H1876 H 0.68843 0.47559 0.27123
 H1877 H 0.66716 0.43055 0.25755
 H1878 H 0.67321 0.44126 0.28716
 C1879 C 0.73256 0.92691 0.79527
 C1880 C 0.71071 0.91937 0.78928
 C1881 C 0.69771 0.93369 0.77486
 C1882 C 0.70758 0.95326 0.76483
 C1883 C 0.73088 0.95837 0.76821
 C1884 C 0.74250 0.94572 0.78487
 C1885 C 0.76556 0.93473 0.78506
 C1886 C 0.75463 0.91434 0.79677
 H1887 H 0.68021 0.92951 0.77074
 H1888 H 0.69737 0.96374 0.75351
 H1889 H 0.77788 0.94396 0.79612
 H1890 H 0.77195 0.93012 0.76785
 H1891 H 0.76037 0.91208 0.81474
 H1892 H 0.75482 0.89858 0.78618
 C1893 C 0.20040 0.43055 0.76977
 C1894 C 0.21275 0.41677 0.78490
 C1895 C 0.23603 0.42210 0.78820
 C1896 C 0.24550 0.44208 0.77872
 C1897 C 0.23185 0.45730 0.76601
 C1898 C 0.20957 0.45045 0.76088
 C1899 C 0.18721 0.46267 0.76201
 C1900 C 0.17714 0.44080 0.77177
 H1901 H 0.24675 0.41133 0.79872
 H1902 H 0.26318 0.44619 0.78223
 H1903 H 0.18055 0.46695 0.74474
 H1904 H 0.18694 0.47691 0.77453
 H1905 H 0.16468 0.43255 0.76009
 H1906 H 0.17139 0.44246 0.78984
 C1907 C 0.23293 0.92563 0.29131
 C1908 C 0.21052 0.91894 0.28696
 C1909 C 0.19803 0.93316 0.27181
 C1910 C 0.20802 0.95311 0.26225
 C1911 C 0.23088 0.95907 0.26721
 C1912 C 0.24262 0.94443 0.28174
 C1913 C 0.26454 0.94150 0.29424
 C1914 C 0.25369 0.92010 0.30496
 H1915 H 0.18047 0.92926 0.26767
 H1916 H 0.19792 0.96380 0.25103
 H1917 H 0.26758 0.95545 0.30673
 H1918 H 0.27910 0.93752 0.28274
 H1919 H 0.25075 0.92179 0.32367
 H1920 H 0.26185 0.90389 0.29940
 C1921 C 0.43558 0.30048 0.72103
 C1922 C 0.41867 0.28642 0.71168
 C1923 C 0.42398 0.26303 0.70911
 C1924 C 0.44438 0.25396 0.71812
 C1925 C 0.45996 0.26810 0.72974
 C1926 C 0.45582 0.29158 0.72950
 C1927 C 0.45686 0.30851 0.74847
 C1928 C 0.43450 0.31813 0.73944
 H1929 H 0.41200 0.25152 0.70108
 H1930 H 0.44765 0.23583 0.71660
 H1931 H 0.47148 0.32043 0.74646
 H1932 H 0.45527 0.30055 0.76565
 H1933 H 0.43622 0.33573 0.73254
 H1934 H 0.41992 0.31550 0.75136
 C1935 C 0.43083 0.79938 0.22974
 C1936 C 0.41807 0.78779 0.21318
 C1937 C 0.42413 0.76491 0.20857
 C1938 C 0.44393 0.75525 0.21825
 C1939 C 0.45814 0.76835 0.23251
 C1940 C 0.45044 0.78996 0.23906
 C1941 C 0.46238 0.81242 0.23969
 C1942 C 0.44088 0.82278 0.22945
 H1943 H 0.41412 0.75467 0.19693
 H1944 H 0.44867 0.73794 0.21381
 H1945 H 0.47730 0.81332 0.22796
 H1946 H 0.46570 0.81820 0.25748
 H1947 H 0.44336 0.82946 0.21180
 H1948 H 0.43190 0.83455 0.24136
 C1949 C 0.92587 0.29255 0.23323
 C1950 C 0.91820 0.28741 0.21127
 C1951 C 0.93211 0.27212 0.19855
 C1952 C 0.95244 0.26286 0.20801
 C1953 C 0.95924 0.26841 0.23051
 C1954 C 0.94516 0.28339 0.24239
 C1955 C 0.94245 0.29560 0.26453
 C1956 C 0.92053 0.30590 0.25427
 H1957 H 0.92753 0.26740 0.18128
 H1958 H 0.96270 0.25127 0.19785
 H1959 H 0.95620 0.30834 0.26736
 H1960 H 0.93911 0.28389 0.27907
 H1961 H 0.92166 0.32461 0.25139
 H1962 H 0.90465 0.29990 0.26279
 C1963 C 0.93354 0.80107 0.72487
 C1964 C 0.91841 0.78860 0.71143
 C1965 C 0.92394 0.76523 0.70825
 C1966 C 0.94386 0.75562 0.71817
 C1967 C 0.95887 0.76915 0.73137
 C1968 C 0.95282 0.79193 0.73400
 C1969 C 0.96041 0.81383 0.74428
 C1970 C 0.93862 0.82430 0.73387
 H1971 H 0.91294 0.75431 0.69824
 H1972 H 0.94762 0.73774 0.71535
 H1973 H 0.97642 0.82026 0.73636
 H1974 H 0.96028 0.81328 0.76328
 H1975 H 0.94211 0.83676 0.71995
 H1976 H 0.92601 0.82992 0.74693
 C1977 C 0.58056 0.26556 0.28680
 C1978 C 0.58463 0.28911 0.28595
 C1979 C 0.56968 0.30243 0.27245
 C1980 C 0.55000 0.29273 0.26261
 C1981 C 0.54506 0.26942 0.26568
 C1982 C 0.56140 0.25599 0.27675
 C1983 C 0.55857 0.23875 0.29525
 C1984 C 0.57942 0.24932 0.30650
 H1985 H 0.57241 0.32058 0.27049
 H1986 H 0.53824 0.30357 0.25332
 H1987 H 0.56162 0.22111 0.28896
 H1988 H 0.54255 0.24118 0.30519
 H1989 H 0.59437 0.23761 0.30695
 H1990 H 0.57539 0.25793 0.32297
 C1991 C 0.56925 0.80021 0.77155
 C1992 C 0.58107 0.78896 0.78910
 C1993 C 0.57075 0.76928 0.79853
 C1994 C 0.55078 0.76008 0.78886
 C1995 C 0.54078 0.77026 0.76953
 C1996 C 0.54946 0.79119 0.76215
 C1997 C 0.55558 0.79899 0.73865
 C1998 C 0.57731 0.80876 0.74885
 H1999 H 0.57839 0.76042 0.81283
 H2000 H 0.54356 0.74462 0.79600
 H2001 H 0.54366 0.81231 0.73224
 H2002 H 0.55882 0.78470 0.72663
 H2003 H 0.57790 0.82770 0.74814
 H2004 H 0.59306 0.79995 0.74288
 C2005 C 0.06452 0.30171 0.78123
 C2006 C 0.08269 0.28776 0.78801
 C2007 C 0.07876 0.26399 0.78841
 C2008 C 0.05844 0.25477 0.77941
 C2009 C 0.04156 0.26914 0.76995
 C2010 C 0.04438 0.29266 0.77290
 C2011 C 0.04065 0.31211 0.75689
 C2012 C 0.06313 0.32184 0.76560
 H2013 H 0.09174 0.25244 0.79473
 H2014 H 0.05624 0.23643 0.77931
 H2015 H 0.02558 0.32254 0.76188
 H2016 H 0.04109 0.30700 0.73861
 H2017 H 0.06099 0.33812 0.77510
 H2018 H 0.07680 0.32183 0.75237
 C2019 C 0.07193 0.76852 0.29598
 C2020 C 0.08324 0.78685 0.28555
 C2021 C 0.07546 0.79378 0.26374
 C2022 C 0.05545 0.78434 0.25429
 C2023 C 0.04283 0.76797 0.26654
 C2024 C 0.05221 0.75934 0.28670
 C2025 C 0.04155 0.75573 0.30958
 C2026 C 0.06312 0.76585 0.31984
 H2027 H 0.08425 0.80700 0.25431
 H2028 H 0.04933 0.79049 0.23794
 H2029 H 0.03934 0.73732 0.31357
 H2030 H 0.02614 0.76649 0.31234
 H2031 H 0.07321 0.75324 0.32983
 H2032 H 0.06024 0.78250 0.32850
 C2033 C 0.57048 0.73149 0.70286
 C2034 C 0.58292 0.71453 0.71423
 C2035 C 0.57670 0.70960 0.73707
 C2036 C 0.55699 0.71947 0.74687
 C2037 C 0.54314 0.73429 0.73396
 C2038 C 0.55099 0.74093 0.71239
 C2039 C 0.53908 0.74221 0.68990
 C2040 C 0.56045 0.73178 0.67938
 H2041 H 0.58643 0.69751 0.74709
 H2042 H 0.55191 0.71456 0.76399
 H2043 H 0.53606 0.76012 0.68442
 H2044 H 0.52397 0.73081 0.68882
 H2045 H 0.56961 0.74369 0.66777
 H2046 H 0.55771 0.71434 0.67241
 C2047 C 0.57969 0.23395 0.21222
 C2048 C 0.58358 0.21037 0.21283
 C2049 C 0.56854 0.19705 0.22625
 C2050 C 0.54895 0.20686 0.23630
 C2051 C 0.54423 0.23026 0.23352
 C2052 C 0.56063 0.24361 0.22245
 C2053 C 0.55791 0.26106 0.20414
 C2054 C 0.57867 0.25040 0.19268
 H2055 H 0.57120 0.17887 0.22805
 H2056 H 0.53717 0.19608 0.24563
 H2057 H 0.56108 0.27861 0.21058
 H2058 H 0.54186 0.25887 0.19425
 H2059 H 0.59371 0.26196 0.19230
 H2060 H 0.57458 0.24199 0.17615
 C2061 C 0.07000 0.72999 0.20137
 C2062 C 0.08226 0.71274 0.21253
 C2063 C 0.07564 0.70723 0.23513
 C2064 C 0.05581 0.71686 0.24483
 C2065 C 0.04220 0.73199 0.23206
 C2066 C 0.05044 0.73937 0.21090
 C2067 C 0.03874 0.74101 0.18833
 C2068 C 0.06016 0.73070 0.17782
 H2069 H 0.08524 0.69497 0.24508
 H2070 H 0.05060 0.71180 0.26188
 H2071 H 0.03579 0.75902 0.18311
 H2072 H 0.02357 0.72970 0.18706
 H2073 H 0.06945 0.74278 0.16649
 H2074 H 0.05743 0.71340 0.17053
 C2075 C 0.07829 0.23520 0.71325
 C2076 C 0.08319 0.21196 0.71411
 C2077 C 0.06707 0.19825 0.72589
 C2078 C 0.04701 0.20797 0.73553
 C2079 C 0.04280 0.23174 0.73421
 C2080 C 0.05944 0.24462 0.72311
 C2081 C 0.06524 0.26807 0.71524
 C2082 C 0.08656 0.25741 0.70409
 H2083 H 0.06957 0.18000 0.72719
 H2084 H 0.03478 0.19691 0.74392
 H2085 H 0.06955 0.27959 0.72964
 H2086 H 0.05270 0.27484 0.70270
 H2087 H 0.10286 0.26282 0.71212
 H2088 H 0.08620 0.25803 0.68509
 C2089 C 0.43025 0.70046 0.26901
 C2090 C 0.41701 0.71235 0.28504
 C2091 C 0.42292 0.73530 0.28941
 C2092 C 0.44298 0.74476 0.28008
 C2093 C 0.45762 0.73142 0.26640
 C2094 C 0.45012 0.70971 0.26003
 C2095 C 0.46207 0.68720 0.26007
 C2096 C 0.44028 0.67705 0.26994
 H2097 H 0.41258 0.74574 0.30064
 H2098 H 0.44759 0.76213 0.28439
 H2099 H 0.47664 0.68644 0.27220
 H2100 H 0.46591 0.68112 0.24247
 H2101 H 0.44227 0.67066 0.28774
 H2102 H 0.43166 0.66511 0.25800
 C2103 C 0.43077 0.20101 0.76899
 C2104 C 0.41730 0.21335 0.78449
 C2105 C 0.42304 0.23646 0.78812
 C2106 C 0.44314 0.24573 0.77861
 C2107 C 0.45801 0.23201 0.76553
 C2108 C 0.45068 0.21003 0.75991
 C2109 C 0.46271 0.18758 0.76070
 C2110 C 0.44087 0.17766 0.77067
 H2111 H 0.41255 0.24717 0.79896
 H2112 H 0.44766 0.26320 0.78247
 H2113 H 0.47715 0.18717 0.77297
 H2114 H 0.46672 0.18101 0.74331
 H2115 H 0.44272 0.17179 0.78867
 H2116 H 0.43238 0.16535 0.75901
 C2117 C 0.92185 0.73467 0.78528
 C2118 C 0.91853 0.71100 0.78575
 C2119 C 0.93383 0.69741 0.77292
 C2120 C 0.95326 0.70713 0.76257
 C2121 C 0.95753 0.73069 0.76442
 C2122 C 0.94074 0.74424 0.77468
 C2123 C 0.94294 0.76254 0.79220
 C2124 C 0.92240 0.75196 0.80406
 H2125 H 0.93161 0.67911 0.77198
 H2126 H 0.96542 0.69613 0.75397
 H2127 H 0.93935 0.77971 0.78496
 H2128 H 0.95900 0.76117 0.80223
 H2129 H 0.90710 0.76320 0.80390
 H2130 H 0.92666 0.74438 0.82097
 C2131 C 0.92879 0.23018 0.29699
 C2132 C 0.91545 0.21471 0.28464
 C2133 C 0.92157 0.21067 0.26161
 C2134 C 0.94188 0.21993 0.25244
 C2135 C 0.95656 0.23302 0.26625
 C2136 C 0.94893 0.23886 0.28813
 C2137 C 0.96060 0.23824 0.31079
 C2138 C 0.93850 0.22866 0.32055
 H2139 H 0.91118 0.19980 0.25091
 H2140 H 0.94665 0.21595 0.23499
 H2141 H 0.96462 0.25562 0.31720
 H2142 H 0.97495 0.22585 0.31148
 H2143 H 0.92991 0.24052 0.33265
 H2144 H 0.94010 0.21075 0.32667
 C2145 C 0.29717 0.26796 0.57244
 C2146 C 0.28808 0.28773 0.58242
 C2147 C 0.27113 0.29956 0.56994
 C2148 C 0.26205 0.29027 0.54968
 C2149 C 0.26936 0.26880 0.54175
 C2150 C 0.28810 0.25876 0.55259
 C2151 C 0.29196 0.23488 0.56061
 C2152 C 0.30187 0.24497 0.58237
 H2153 H 0.26436 0.31563 0.57601
 H2154 H 0.24872 0.29942 0.54069
 H2155 H 0.30484 0.22579 0.55001
 H2156 H 0.27594 0.22533 0.56376
 H2157 H 0.32046 0.24162 0.58425
 H2158 H 0.29141 0.24142 0.59787
 C2159 C 0.30156 0.77935 0.06535
 C2160 C 0.28739 0.78820 0.08253
 C2161 C 0.26389 0.79023 0.07754
 C2162 C 0.25485 0.78110 0.05717
 C2163 C 0.26920 0.77004 0.04125
 C2164 C 0.29272 0.77089 0.04510
 C2165 C 0.31023 0.75249 0.04356
 C2166 C 0.31978 0.76148 0.06598
 H2167 H 0.25231 0.79790 0.08978
 H2168 H 0.23664 0.78211 0.05416
 H2169 H 0.32196 0.75505 0.02881
 H2170 H 0.30283 0.73510 0.04498
 H2171 H 0.33716 0.76887 0.06418
 H2172 H 0.31759 0.74929 0.08041
 C2173 C 0.77411 0.30091 0.06633
 C2174 C 0.78735 0.28830 0.08158
 C2175 C 0.79047 0.26494 0.07605
 C2176 C 0.78070 0.25546 0.05599
 C2177 C 0.76771 0.26912 0.04083
 C2178 C 0.76510 0.29189 0.04692
 C2179 C 0.75520 0.31392 0.03915
 C2180 C 0.76547 0.32427 0.06106
 H2181 H 0.80034 0.25394 0.08715
 H2182 H 0.78358 0.23761 0.05218
 H2183 H 0.73622 0.31362 0.03908
 H2184 H 0.76335 0.32024 0.02318
 H2185 H 0.75237 0.33011 0.07353
 H2186 H 0.77956 0.33651 0.05768
 C2187 C 0.79722 0.76707 0.57182
 C2188 C 0.78522 0.78324 0.58476
 C2189 C 0.76238 0.78776 0.57847
 C2190 C 0.75318 0.77841 0.55828
 C2191 C 0.76670 0.76460 0.54393
 C2192 C 0.78827 0.75814 0.55182
 C2193 C 0.81098 0.75788 0.54020
 C2194 C 0.82083 0.76773 0.56213
 H2195 H 0.75191 0.79919 0.58855
 H2196 H 0.73601 0.78300 0.55324
 H2197 H 0.81210 0.76989 0.52554
 H2198 H 0.81698 0.74025 0.53659
 H2199 H 0.82740 0.78542 0.56013
 H2200 H 0.83256 0.75575 0.57104
 C2201 C 0.29612 0.73218 0.42656
 C2202 C 0.28882 0.71102 0.41821
 C2203 C 0.27308 0.69872 0.43173
 C2204 C 0.26326 0.70867 0.45135
 C2205 C 0.26832 0.73137 0.45740
 C2206 C 0.28612 0.74214 0.44563
 C2207 C 0.28794 0.76549 0.43553
 C2208 C 0.29906 0.75453 0.41474
 H2209 H 0.26792 0.68166 0.42700
 H2210 H 0.25106 0.69897 0.46133
 H2211 H 0.29976 0.77662 0.44532
 H2212 H 0.27121 0.77323 0.43133
 H2213 H 0.31733 0.75922 0.41273
 H2214 H 0.28860 0.75592 0.39894
 C2215 C 0.28791 0.23464 0.92191
 C2216 C 0.28646 0.21153 0.91656
 C2217 C 0.27382 0.19791 0.93212
 C2218 C 0.26434 0.20746 0.95234
 C2219 C 0.26641 0.23106 0.95708
 C2220 C 0.27799 0.24399 0.94080
 C2221 C 0.28946 0.26643 0.93745
 C2222 C 0.30045 0.25591 0.91597
 H2223 H 0.27193 0.17978 0.92920
 H2224 H 0.25543 0.19642 0.96423
 H2225 H 0.30197 0.27022 0.95120
 H2226 H 0.27735 0.28039 0.93333
 H2227 H 0.31926 0.25393 0.91751
 H2228 H 0.29435 0.26357 0.89968
 C2229 C 0.79888 0.72650 0.93178
 C2230 C 0.78595 0.71467 0.91574
 C2231 C 0.76239 0.71228 0.92089
 C2232 C 0.75305 0.72136 0.94142
 C2233 C 0.76711 0.73273 0.95743
 C2234 C 0.79002 0.73469 0.95163
 C2235 C 0.81239 0.74300 0.96021
 C2236 C 0.82257 0.73357 0.93779
 H2237 H 0.75117 0.70348 0.90916
 H2238 H 0.73505 0.71914 0.94492
 H2239 H 0.81810 0.73359 0.97569
 H2240 H 0.81297 0.76191 0.96146
 H2241 H 0.83408 0.71870 0.94039
 H2242 H 0.82921 0.74708 0.92622
 C2243 C 0.77549 0.19888 0.43356
 C2244 C 0.78765 0.21161 0.41754
 C2245 C 0.78956 0.23529 0.42218
 C2246 C 0.77962 0.24496 0.44215
 C2247 C 0.76775 0.23118 0.45812
 C2248 C 0.76650 0.20806 0.45293
 C2249 C 0.75782 0.18581 0.46153
 C2250 C 0.76814 0.17532 0.43967
 H2251 H 0.79863 0.24636 0.41047
 H2252 H 0.78168 0.26304 0.44529
 H2253 H 0.73886 0.18526 0.46206
 H2254 H 0.76656 0.18027 0.47746
 H2255 H 0.75508 0.16854 0.42771
 H2256 H 0.78288 0.16383 0.44302
 C2257 C 0.70542 0.26902 0.42826
 C2258 C 0.71428 0.28895 0.41843
 C2259 C 0.73139 0.30058 0.43082
 C2260 C 0.74080 0.29100 0.45083
 C2261 C 0.73366 0.26942 0.45860
 C2262 C 0.71485 0.25950 0.44780
 C2263 C 0.71089 0.23575 0.43948
 C2264 C 0.70055 0.24621 0.41806
 H2265 H 0.73799 0.31676 0.42487
 H2266 H 0.75421 0.30004 0.45976
 H2267 H 0.69823 0.22647 0.45017
 H2268 H 0.72684 0.22624 0.43583
 H2269 H 0.68193 0.24291 0.41649
 H2270 H 0.71072 0.24289 0.40232
 C2271 C 0.70004 0.77891 0.93415
 C2272 C 0.71433 0.78729 0.91685
 C2273 C 0.73781 0.78929 0.92191
 C2274 C 0.74672 0.78050 0.94251
 C2275 C 0.73226 0.76986 0.95857
 C2276 C 0.70876 0.77080 0.95463
 C2277 C 0.69112 0.75257 0.95646
 C2278 C 0.68173 0.76119 0.93381
 H2279 H 0.74947 0.79665 0.90956
 H2280 H 0.76493 0.78140 0.94556
 H2281 H 0.67933 0.75551 0.97109
 H2282 H 0.69842 0.73509 0.95545
 H2283 H 0.66439 0.76877 0.93536
 H2284 H 0.68390 0.74871 0.91965
 C2285 C 0.20411 0.26841 0.92796
 C2286 C 0.21157 0.28936 0.91922
 C2287 C 0.22724 0.30180 0.93266
 C2288 C 0.23699 0.29202 0.95241
 C2289 C 0.23195 0.26936 0.95868
 C2290 C 0.21407 0.25860 0.94707
 C2291 C 0.21138 0.23507 0.93761
 C2292 C 0.20036 0.24590 0.91672
 H2293 H 0.23254 0.31876 0.92768
 H2294 H 0.24933 0.30175 0.96215
 H2295 H 0.19933 0.22457 0.94787
 H2296 H 0.22772 0.22665 0.93323
 H2297 H 0.18193 0.24171 0.91509
 H2298 H 0.21060 0.24386 0.90081
 C2299 C 0.21038 0.76541 0.42297
 C2300 C 0.21274 0.78838 0.41731
 C2301 C 0.22573 0.80172 0.43275
 C2302 C 0.23518 0.79194 0.45285
 C2303 C 0.23261 0.76840 0.45762
 C2304 C 0.22012 0.75586 0.44181
 C2305 C 0.20956 0.73314 0.43763
 C2306 C 0.19873 0.74389 0.41620
 H2307 H 0.22817 0.81977 0.42969
 H2308 H 0.24463 0.80270 0.46452
 H2309 H 0.19690 0.72853 0.45104
 H2310 H 0.22227 0.71973 0.43344
 H2311 H 0.17983 0.74523 0.41734
 H2312 H 0.20549 0.73690 0.39987
 C2313 C 0.69824 0.72096 0.56533
 C2314 C 0.71221 0.71112 0.58211
 C2315 C 0.73550 0.70796 0.57662
 C2316 C 0.74467 0.71695 0.55623
 C2317 C 0.73072 0.72912 0.54086
 C2318 C 0.70724 0.72940 0.54507
 C2319 C 0.69072 0.74874 0.54424
 C2320 C 0.68101 0.73975 0.56663
 H2321 H 0.74690 0.69957 0.58850
 H2322 H 0.76277 0.71508 0.55287
 H2323 H 0.67868 0.74716 0.52965
 H2324 H 0.69907 0.76566 0.54592
 H2325 H 0.66324 0.73332 0.56497
 H2326 H 0.68400 0.75144 0.58130
 C2327 C 0.73210 0.20118 0.06985
 C2328 C 0.71633 0.21334 0.08316
 C2329 C 0.71174 0.23612 0.07680
 C2330 C 0.72075 0.24520 0.05636
 C2331 C 0.73422 0.23160 0.04173
 C2332 C 0.74068 0.20999 0.04957
 C2333 C 0.74034 0.18725 0.03810
 C2334 C 0.73098 0.17757 0.06036
 H2335 H 0.70066 0.24673 0.08713
 H2336 H 0.71643 0.26252 0.05152
 H2337 H 0.75781 0.18103 0.03399
 H2338 H 0.72790 0.18621 0.02383
 H2339 H 0.74309 0.16579 0.06901
 H2340 H 0.71317 0.17116 0.05890
 C2341 C 0.20104 0.72623 0.06747
 C2342 C 0.21393 0.71424 0.08350
 C2343 C 0.23768 0.71271 0.07891
 C2344 C 0.24720 0.72252 0.05880
 C2345 C 0.23318 0.73385 0.04267
 C2346 C 0.21011 0.73519 0.04805
 C2347 C 0.18761 0.74247 0.03882
 C2348 C 0.17723 0.73223 0.06077
 H2349 H 0.24887 0.70391 0.09069
 H2350 H 0.26532 0.72073 0.05563
 H2351 H 0.18288 0.73301 0.02306
 H2352 H 0.18606 0.76135 0.03774
 H2353 H 0.16660 0.71685 0.05757
 H2354 H 0.16950 0.74521 0.07227
 C2355 C 0.21478 0.23655 0.57898
 C2356 C 0.21454 0.21294 0.58276
 C2357 C 0.22631 0.19906 0.56691
 C2358 C 0.23563 0.20846 0.54677
 C2359 C 0.23409 0.23206 0.54241
 C2360 C 0.22458 0.24588 0.55945
 C2361 C 0.20664 0.26384 0.55754
 C2362 C 0.19574 0.25354 0.57876
 H2363 H 0.22734 0.18079 0.56945
 H2364 H 0.24370 0.19728 0.53442
 H2365 H 0.19605 0.26197 0.54187
 H2366 H 0.21354 0.28123 0.56051
 H2367 H 0.17885 0.24564 0.57527
 H2368 H 0.19627 0.26507 0.59383
   
