data_POSCAR
  _audit_creation_date              2014-09-24
  _audit_creation_method            'ToBaCCo'
  _symmetry_space_group_name_H-M    'P1'
  _symmetry_Int_Tables_number       1
  _symmetry_cell_setting            triclinic
  loop_
  _symmetry_equiv_pos_as_xyz
 x,y,z
_cell_length_a 61.7179
_cell_length_b 61.8495
_cell_length_c 61.8221
_cell_angle_alpha 90.064500
_cell_angle_beta 89.849700
_cell_angle_gamma 90.097200
loop_
  _atom_site_label
  _atom_site_type_symbol
  _atom_site_fract_x
  _atom_site_fract_y
  _atom_site_fract_z
C1 C 0.31295 0.31262 -0.00965
 C2 C 0.31306 0.31272 0.01241
 C3 C 0.29802 0.32659 0.02513
 C4 C 0.32874 0.29952 0.02488
 C5 C 0.32683 0.29762 -0.02238
 C6 C 0.29951 0.32804 -0.02218
 C7 C 0.30637 0.34098 0.04061
 C8 C 0.29254 0.35479 0.05201
 C9 C 0.27020 0.35426 0.04821
 C10 C 0.26168 0.33957 0.03319
 C11 C 0.27551 0.32572 0.02178
 C12 C 0.35115 0.30155 0.02127
 C13 C 0.36575 0.28873 0.03276
 C14 C 0.35812 0.27394 0.04813
 C15 C 0.33585 0.27217 0.05214
 C16 C 0.32122 0.28498 0.04063
 C17 C 0.32609 0.27517 -0.01889
 C18 C 0.33979 0.26136 -0.03050
 C19 C 0.35421 0.26984 -0.04589
 C20 C 0.35464 0.29216 -0.04976
 C21 C 0.34098 0.30594 -0.03814
 C22 C 0.28501 0.32026 -0.03784
 C23 C 0.27225 0.33464 -0.04967
 C24 C 0.27399 0.35693 -0.04608
 C25 C 0.28866 0.36481 -0.03073
 C26 C 0.30145 0.35045 -0.01891
 H27 H 0.32365 0.34186 0.04349
 H28 H 0.29930 0.36606 0.06361
 H29 H 0.24441 0.33896 0.03018
 H30 H 0.26870 0.31447 0.01020
 H31 H 0.35729 0.31300 0.00950
 H32 H 0.38296 0.29032 0.02964
 H33 H 0.30402 0.28331 0.04375
 H34 H 0.31502 0.26839 -0.00708
 H35 H 0.33917 0.24412 -0.02736
 H36 H 0.36565 0.29901 -0.06162
 H37 H 0.34173 0.32318 -0.04113
 H38 H 0.28343 0.30305 -0.04071
 H39 H 0.26101 0.32839 -0.06158
 H40 H 0.29024 0.38204 -0.02793
 H41 H 0.31287 0.35679 -0.00723
 H42 H 0.32979 0.26083 0.06406
 C43 C 0.68873 0.68872 -0.01252
 C44 C 0.68898 0.68851 0.00954
 C45 C 0.70242 0.67289 0.02184
 C46 C 0.67518 0.70334 0.02249
 C47 C 0.67295 0.70203 -0.02479
 C48 C 0.70370 0.67503 -0.02544
 C49 C 0.70041 0.65051 0.01831
 C50 C 0.71296 0.63596 0.03016
 C51 C 0.72747 0.64359 0.04579
 C52 C 0.72934 0.66584 0.04957
 C53 C 0.71682 0.68041 0.03772
 C54 C 0.66108 0.69481 0.03818
 C55 C 0.64747 0.70845 0.04999
 C56 C 0.64791 0.73078 0.04636
 C57 C 0.66225 0.73948 0.03109
 C58 C 0.67593 0.72583 0.01927
 C59 C 0.68035 0.71652 -0.04065
 C60 C 0.66564 0.72913 -0.05226
 C61 C 0.64337 0.72723 -0.04825
 C62 C 0.63587 0.71256 -0.03270
 C63 C 0.65056 0.69994 -0.02109
 C64 C 0.72622 0.67590 -0.02218
 C65 C 0.73998 0.66211 -0.03371
 C66 C 0.73138 0.64751 -0.04875
 C67 C 0.70903 0.64701 -0.05250
 C68 C 0.69526 0.66075 -0.04097
 H69 H 0.68906 0.64436 0.00647
 H70 H 0.71128 0.61877 0.02720
 H71 H 0.74044 0.67191 0.06170
 H72 H 0.71844 0.69758 0.04080
 H73 H 0.66032 0.67754 0.04097
 H74 H 0.63644 0.70157 0.06179
 H75 H 0.68696 0.73276 0.00751
 H76 H 0.69753 0.71822 -0.04385
 H77 H 0.67161 0.74036 -0.06432
 H78 H 0.61867 0.71086 -0.02957
 H79 H 0.64450 0.68852 -0.00926
 H80 H 0.73308 0.68706 -0.01054
 H81 H 0.75727 0.66267 -0.03075
 H82 H 0.70221 0.63579 -0.06412
 H83 H 0.67797 0.65989 -0.04377
 H84 H 0.66276 0.75674 0.02822
 C85 C 0.68907 0.31180 1.01091
 C86 C 0.68877 0.31168 0.98885
 C87 C 0.70363 0.32551 0.97590
 C88 C 0.67298 0.29831 0.97661
 C89 C 0.67530 0.29687 1.02386
 C90 C 0.70251 0.32746 1.02323
 C91 C 0.69509 0.33961 0.96031
 C92 C 0.70876 0.35331 0.94859
 C93 C 0.73114 0.35297 0.95218
 C94 C 0.73985 0.33860 0.96733
 C95 C 0.72618 0.32485 0.97906
 C96 C 0.65060 0.30033 0.98036
 C97 C 0.63590 0.28752 0.96890
 C98 C 0.64339 0.27276 0.95342
 C99 C 0.66564 0.27096 0.94933
 C100 C 0.68036 0.28374 0.96080
 C101 C 0.67603 0.27439 1.02054
 C102 C 0.66244 0.26066 1.03240
 C103 C 0.64819 0.26926 1.04782
 C104 C 0.64775 0.29159 1.05152
 C105 C 0.66129 0.30531 1.03967
 C106 C 0.71700 0.31996 1.03899
 C107 C 0.72955 0.33457 1.05085
 C108 C 0.72760 0.35683 1.04719
 C109 C 0.71298 0.36442 1.03166
 C110 C 0.70041 0.34982 1.01982
 H111 H 0.67778 0.34031 0.95757
 H112 H 0.70185 0.36434 0.93689
 H113 H 0.75715 0.33815 0.97018
 H114 H 0.73313 0.31383 0.99073
 H115 H 0.64456 0.31179 0.99216
 H116 H 0.61871 0.28914 0.97209
 H117 H 0.69754 0.28209 0.95757
 H118 H 0.68700 0.26752 1.00869
 H119 H 0.66296 0.24340 1.02946
 H120 H 0.63680 0.29841 1.06342
 H121 H 0.66053 0.32257 1.04253
 H122 H 0.71869 0.30280 1.04196
 H123 H 0.74073 0.32848 1.06287
 H124 H 0.71120 0.38161 1.02876
 H125 H 0.68898 0.35593 1.00807
 H126 H 0.67159 0.25964 0.93732
 C127 C 0.31229 0.68775 1.01222
 C128 C 0.31204 0.68745 0.99016
 C129 C 0.29842 0.67187 0.97790
 C130 C 0.32590 0.70221 0.97715
 C131 C 0.32808 0.70115 1.02446
 C132 C 0.29727 0.67411 1.02520
 C133 C 0.30021 0.64949 0.98144
 C134 C 0.28744 0.63499 0.96967
 C135 C 0.27293 0.64268 0.95410
 C136 C 0.27129 0.66493 0.95030
 C137 C 0.28403 0.67945 0.96207
 C138 C 0.33988 0.69360 0.96140
 C139 C 0.35345 0.70718 0.94944
 C140 C 0.35309 0.72953 0.95296
 C141 C 0.33889 0.73831 0.96832
 C142 C 0.32526 0.72473 0.98030
 C143 C 0.32068 0.71571 1.04027
 C144 C 0.33539 0.72844 1.05184
 C145 C 0.35767 0.72662 1.04785
 C146 C 0.36517 0.71187 1.03233
 C147 C 0.35047 0.69912 1.02078
 C148 C 0.27474 0.67502 1.02200
 C149 C 0.26091 0.66136 1.03365
 C150 C 0.26946 0.64684 1.04877
 C151 C 0.29184 0.64630 1.05243
 C152 C 0.30565 0.65992 1.04077
 H153 H 0.31154 0.64329 0.99324
 H154 H 0.28894 0.61780 0.97264
 H155 H 0.26019 0.67104 0.93823
 H156 H 0.28256 0.69662 0.95899
 H157 H 0.34055 0.67631 0.95867
 H158 H 0.36436 0.70023 0.93757
 H159 H 0.31432 0.73172 0.99209
 H160 H 0.30350 0.71737 1.04346
 H161 H 0.32934 0.73971 1.06385
 H162 H 0.38237 0.71017 1.02916
 H163 H 0.35653 0.68765 1.00899
 H164 H 0.26793 0.68612 1.01033
 H165 H 0.24362 0.66201 1.03070
 H166 H 0.29867 0.63518 1.06409
 H167 H 0.32295 0.65904 1.04354
 H168 H 0.33843 0.75559 0.97112
 C169 C -0.01252 0.31293 0.31196
 C170 C 0.00957 0.31303 0.31175
 C171 C 0.02235 0.29974 0.32711
 C172 C 0.02209 0.32701 0.29667
 C173 C -0.02529 0.32848 0.29887
 C174 C -0.02503 0.29781 0.32590
 C175 C 0.01914 0.30162 0.34955
 C176 C 0.03126 0.28904 0.36385
 C177 C 0.04685 0.27463 0.35589
 C178 C 0.05035 0.27294 0.33357
 C179 C 0.03822 0.28549 0.31925
 C180 C 0.03778 0.34125 0.30490
 C181 C 0.04920 0.35500 0.29104
 C182 C 0.04518 0.35456 0.26877
 C183 C 0.02989 0.34008 0.26037
 C184 C 0.01847 0.32627 0.27423
 C185 C -0.04126 0.32083 0.28464
 C186 C -0.05333 0.33531 0.27221
 C187 C -0.04966 0.35761 0.27402
 C188 C -0.03398 0.36535 0.28844
 C189 C -0.02193 0.35087 0.30089
 C190 C -0.02149 0.27537 0.32495
 C191 C -0.03279 0.26145 0.33880
 C192 C -0.04789 0.26981 0.35356
 C193 C -0.05185 0.29209 0.35418
 C194 C -0.04055 0.30600 0.34038
 H195 H 0.00730 0.31284 0.35596
 H196 H 0.02852 0.29058 0.38110
 H197 H 0.06243 0.26191 0.32725
 H198 H 0.04105 0.28396 0.30201
 H199 H 0.04088 0.34201 0.32213
 H200 H 0.06101 0.36612 0.29771
 H201 H 0.00671 0.31514 0.26751
 H202 H -0.04419 0.30364 0.28300
 H203 H -0.06546 0.32910 0.26118
 H204 H -0.03106 0.38255 0.29011
 H205 H -0.01001 0.35711 0.31211
 H206 H -0.00986 0.26870 0.31364
 H207 H -0.02963 0.24423 0.33807
 H208 H -0.06351 0.29879 0.36548
 H209 H -0.04357 0.32322 0.34130
 H210 H 0.02672 0.33955 0.24315
 C211 C -0.01082 0.68815 0.68871
 C212 C 0.01127 0.68795 0.68898
 C213 C 0.02428 0.70290 0.67532
 C214 C 0.02353 0.67222 0.70232
 C215 C -0.02385 0.67433 0.70349
 C216 C -0.02305 0.70164 0.67307
 C217 C 0.03995 0.69450 0.66113
 C218 C 0.05167 0.70825 0.64752
 C219 C 0.04797 0.73057 0.64806
 C220 C 0.03276 0.73914 0.66255
 C221 C 0.02104 0.72539 0.67621
 C222 C 0.01993 0.64987 0.70018
 C223 C 0.03154 0.63522 0.71283
 C224 C 0.04702 0.64273 0.72756
 C225 C 0.05093 0.66495 0.72951
 C226 C 0.03931 0.67962 0.71689
 C227 C -0.02067 0.67497 0.72600
 C228 C -0.03241 0.66117 0.73959
 C229 C -0.04762 0.64678 0.73084
 C230 C -0.05124 0.64649 0.70849
 C231 C -0.03949 0.66024 0.69490
 C232 C -0.03880 0.71619 0.68059
 C233 C -0.05029 0.72906 0.66602
 C234 C -0.04628 0.72736 0.64377
 C235 C -0.03084 0.71259 0.63614
 C236 C -0.01936 0.69972 0.65071
 H237 H 0.04275 0.67724 0.66025
 H238 H 0.06341 0.70146 0.63638
 H239 H 0.02983 0.75639 0.66315
 H240 H 0.00929 0.73222 0.68731
 H241 H 0.00816 0.64381 0.68870
 H242 H 0.02849 0.61805 0.71109
 H243 H 0.04244 0.69678 0.71862
 H244 H -0.00895 0.68599 0.73297
 H245 H -0.02949 0.66163 0.75687
 H246 H -0.06297 0.63547 0.70149
 H247 H -0.04225 0.65956 0.67762
 H248 H -0.04198 0.71776 0.69776
 H249 H -0.06225 0.74034 0.67214
 H250 H -0.02766 0.71100 0.61896
 H251 H -0.00761 0.68826 0.64456
 H252 H 0.06294 0.67093 0.74080
 C253 C 1.01121 0.68727 0.31332
 C254 C 0.98911 0.68728 0.31337
 C255 C 0.97644 0.70218 0.32741
 C256 C 0.97647 0.67184 0.29997
 C257 C 1.02387 0.67346 0.29818
 C258 C 1.02380 0.70051 0.32893
 C259 C 0.96074 0.69373 0.34157
 C260 C 0.94911 0.70743 0.35530
 C261 C 0.95290 0.72974 0.35493
 C262 C 0.96821 0.73835 0.34055
 C263 C 0.97986 0.72466 0.32676
 C264 C 0.97976 0.64943 0.30179
 C265 C 0.96773 0.63506 0.28914
 C266 C 0.95215 0.64292 0.27473
 C267 C 0.94857 0.66520 0.27310
 C268 C 0.96061 0.67960 0.28572
 C269 C 1.02038 0.67432 0.27573
 C270 C 1.03180 0.66057 0.26181
 C271 C 1.04699 0.64599 0.27016
 C272 C 1.05091 0.64547 0.29247
 C273 C 1.03948 0.65917 0.30638
 C274 C 1.03951 0.71511 0.32135
 C275 C 1.05119 0.72791 0.33589
 C276 C 1.04740 0.72610 0.35817
 C277 C 1.03204 0.71125 0.36585
 C278 C 1.02038 0.69844 0.35132
 H279 H 0.95780 0.67648 0.34226
 H280 H 0.93729 0.70059 0.36634
 H281 H 0.97122 0.75561 0.34008
 H282 H 0.99161 0.73154 0.31569
 H283 H 0.99159 0.64311 0.31302
 H284 H 0.97052 0.61784 0.29062
 H285 H 0.95773 0.69680 0.28425
 H286 H 1.00869 0.68549 0.26905
 H287 H 1.02866 0.66123 0.24458
 H288 H 1.06263 0.63431 0.29917
 H289 H 1.04248 0.65832 0.32361
 H290 H 1.04249 0.71680 0.30416
 H291 H 1.06308 0.73927 0.32972
 H292 H 1.02902 0.70957 0.38305
 H293 H 1.00865 0.68695 0.35749
 H294 H 0.93650 0.67144 0.26206
 C295 C 1.01162 0.31151 0.68665
 C296 C 0.98953 0.31163 0.68682
 C297 C 0.97665 0.29675 0.67296
 C298 C 0.97714 0.32723 0.70027
 C299 C 1.02448 0.32537 0.70153
 C300 C 1.02407 0.29819 0.67098
 C301 C 0.96093 0.30522 0.65896
 C302 C 0.94922 0.29155 0.64528
 C303 C 0.95296 0.26924 0.64555
 C304 C 0.96826 0.26060 0.65982
 C305 C 0.97998 0.27427 0.67355
 C306 C 0.98065 0.34960 0.69825
 C307 C 0.96909 0.36413 0.71117
 C308 C 0.95377 0.35647 0.72605
 C309 C 0.94991 0.33423 0.72785
 C310 C 0.96148 0.31967 0.71495
 C311 C 1.02123 0.32461 0.72404
 C312 C 1.03299 0.33829 0.73772
 C313 C 1.04825 0.35267 0.72905
 C314 C 1.05190 0.35314 0.70670
 C315 C 1.04015 0.33951 0.69303
 C316 C 1.03994 0.28381 0.67847
 C317 C 1.05188 0.27132 0.66386
 C318 C 1.04819 0.27323 0.64159
 C319 C 1.03257 0.28775 0.63400
 C320 C 1.02064 0.30026 0.64861
 H321 H 0.95806 0.32248 0.65831
 H322 H 0.93741 0.29841 0.63433
 H323 H 0.97123 0.24335 0.66022
 H324 H 0.99175 0.26736 0.68450
 H325 H 0.99234 0.35576 0.68670
 H326 H 0.97210 0.38131 0.70956
 H327 H 0.95844 0.30250 0.71659
 H328 H 1.00949 0.31355 0.73096
 H329 H 1.03010 0.33775 0.75500
 H330 H 1.06369 0.36418 0.69983
 H331 H 1.04296 0.34029 0.67575
 H332 H 1.04293 0.28215 0.69565
 H333 H 1.06398 0.26022 0.66995
 H334 H 1.02964 0.28949 0.61681
 H335 H 1.00880 0.31160 0.64250
 H336 H 0.93803 0.32815 0.73926
 C337 C 0.31159 -0.01270 0.31036
 C338 C 0.31153 0.00935 0.31037
 C339 C 0.32558 0.02208 0.29552
 C340 C 0.29809 0.02189 0.32587
 C341 C 0.29656 -0.02540 0.32425
 C342 C 0.32730 -0.02520 0.29713
 C343 C 0.33964 0.03779 0.30404
 C344 C 0.35336 0.04951 0.29040
 C345 C 0.35310 0.04578 0.26807
 C346 C 0.33884 0.03044 0.25938
 C347 C 0.32505 0.01871 0.27303
 C348 C 0.30002 0.01863 0.34828
 C349 C 0.28744 0.03069 0.36272
 C350 C 0.27299 0.04625 0.35492
 C351 C 0.27120 0.04976 0.33263
 C352 C 0.28376 0.03770 0.31817
 C353 C 0.27404 -0.02205 0.32349
 C354 C 0.26024 -0.03355 0.33731
 C355 C 0.26878 -0.04866 0.35182
 C356 C 0.29113 -0.05243 0.35225
 C357 C 0.30493 -0.04094 0.33850
 C358 C 0.31981 -0.04102 0.28265
 C359 C 0.33446 -0.05285 0.27009
 C360 C 0.35677 -0.04909 0.27201
 C361 C 0.36436 -0.03356 0.28669
 C362 C 0.34971 -0.02176 0.29926
 H363 H 0.34025 0.04069 0.32131
 H364 H 0.36432 0.06135 0.29729
 H365 H 0.33846 0.02748 0.24211
 H366 H 0.31407 0.00694 0.26610
 H367 H 0.31132 0.00684 0.35455
 H368 H 0.28905 0.02795 0.37995
 H369 H 0.28220 0.04056 0.30096
 H370 H 0.26722 -0.01041 0.31236
 H371 H 0.24296 -0.03056 0.33679
 H372 H 0.29791 -0.06410 0.36340
 H373 H 0.32222 -0.04382 0.33928
 H374 H 0.30260 -0.04402 0.28093
 H375 H 0.32837 -0.06487 0.25886
 H376 H 0.38158 -0.03058 0.28844
 H377 H 0.35582 -0.00995 0.31068
 H378 H 0.26014 0.06183 0.32644
 C379 C 0.68643 -0.01012 0.68803
 C380 C 0.68639 0.01193 0.68771
 C381 C 0.67245 0.02477 0.70258
 C382 C 0.69977 0.02429 0.67198
 C383 C 0.70150 -0.02295 0.67430
 C384 C 0.67089 -0.02258 0.70155
 C385 C 0.65821 0.04025 0.69408
 C386 C 0.64444 0.05189 0.70776
 C387 C 0.64485 0.04831 0.73011
 C388 C 0.65935 0.03325 0.73877
 C389 C 0.67318 0.02161 0.72509
 C390 C 0.69790 0.02053 0.64963
 C391 C 0.71080 0.03202 0.63500
 C392 C 0.72552 0.04753 0.64252
 C393 C 0.72716 0.05165 0.66474
 C394 C 0.71428 0.04015 0.67939
 C395 C 0.72401 -0.01949 0.67504
 C396 C 0.73787 -0.03130 0.66154
 C397 C 0.72939 -0.04681 0.64736
 C398 C 0.70703 -0.05063 0.64690
 C399 C 0.69318 -0.03884 0.66034
 C400 C 0.67860 -0.03824 0.71603
 C401 C 0.66413 -0.05018 0.72871
 C402 C 0.64178 -0.04669 0.72692
 C403 C 0.63397 -0.03128 0.71230
 C404 C 0.64845 -0.01936 0.69960
 H405 H 0.65745 0.04300 0.67680
 H406 H 0.63330 0.06352 0.70088
 H407 H 0.65987 0.03041 0.75605
 H408 H 0.68431 0.01002 0.73202
 H409 H 0.68649 0.00868 0.64356
 H410 H 0.70931 0.02880 0.61784
 H411 H 0.71582 0.04338 0.69654
 H412 H 0.73080 -0.00759 0.68596
 H413 H 0.75515 -0.02826 0.66208
 H414 H 0.70029 -0.06261 0.63601
 H415 H 0.67590 -0.04182 0.65959
 H416 H 0.69584 -0.04107 0.71761
 H417 H 0.67039 -0.06211 0.73988
 H418 H 0.61672 -0.02850 0.71064
 H419 H 0.64216 -0.00768 0.68820
 H420 H 0.73844 0.06367 0.67072
 C421 C 0.31112 1.01201 0.68775
 C422 C 0.31116 0.98996 0.68774
 C423 C 0.32669 0.97744 0.70110
 C424 C 0.29624 0.97729 0.67378
 C425 C 0.29800 1.02456 0.67206
 C426 C 0.32481 1.02468 0.70292
 C427 C 0.34913 0.98094 0.69925
 C428 C 0.36358 0.96913 0.71195
 C429 C 0.35578 0.95355 0.72644
 C430 C 0.33347 0.94973 0.72809
 C431 C 0.31899 0.96155 0.71541
 C432 C 0.30469 0.96170 0.65956
 C433 C 0.29096 0.95025 0.64573
 C434 C 0.26863 0.95413 0.64608
 C435 C 0.26001 0.96928 0.66057
 C436 C 0.27373 0.98073 0.67445
 C437 C 0.28356 1.04044 0.67953
 C438 C 0.27117 1.05235 0.66488
 C439 C 0.27324 1.04863 0.64263
 C440 C 0.28783 1.03304 0.63506
 C441 C 0.30024 1.02114 0.64968
 C442 C 0.32375 1.02118 0.72537
 C443 C 0.33741 1.03263 0.73932
 C444 C 0.35206 1.04782 0.73099
 C445 C 0.35279 1.05175 0.70871
 C446 C 0.33919 1.04031 0.69475
 H447 H 0.35541 0.99279 0.68797
 H448 H 0.38082 0.97211 0.71045
 H449 H 0.32727 0.93765 0.73919
 H450 H 0.30177 0.95851 0.71692
 H451 H 0.32197 0.95874 0.65885
 H452 H 0.29779 0.93854 0.63460
 H453 H 0.26686 0.99242 0.68557
 H454 H 0.28174 1.04343 0.69670
 H455 H 0.25999 1.06444 0.67090
 H456 H 0.28966 1.03014 0.61786
 H457 H 0.31163 1.00929 0.64357
 H458 H 0.31251 1.00947 0.73202
 H459 H 0.33666 1.02953 0.75655
 H460 H 0.36405 1.06348 0.70210
 H461 H 0.34020 1.04330 0.67752
 H462 H 0.24274 0.97234 0.66103
 C463 C 0.68851 1.01010 0.31258
 C464 C 0.68878 0.98805 0.31302
 C465 C 0.67508 0.97493 0.29823
 C466 C 0.70219 0.97598 0.32883
 C467 C 0.70335 1.02323 0.32621
 C468 C 0.67284 1.02217 0.29900
 C469 C 0.66085 0.95941 0.30684
 C470 C 0.64716 0.94763 0.29324
 C471 C 0.64766 0.95111 0.27088
 C472 C 0.66219 0.96617 0.26211
 C473 C 0.67593 0.97795 0.27570
 C474 C 0.70013 0.97982 0.35116
 C475 C 0.71294 0.96848 0.36588
 C476 C 0.72777 0.95303 0.35846
 C477 C 0.72963 0.94886 0.33627
 C478 C 0.71684 0.96021 0.32153
 C479 C 0.72590 1.02005 0.32551
 C480 C 0.73955 1.03196 0.33909
 C481 C 0.73082 1.04731 0.35333
 C482 C 0.70842 1.05092 0.35368
 C483 C 0.69478 1.03901 0.34015
 C484 C 0.68036 1.03771 0.28423
 C485 C 0.66575 1.04904 0.27126
 C486 C 0.64348 1.04507 0.27308
 C487 C 0.63585 1.02986 0.28803
 C488 C 0.65043 1.01854 0.30102
 H489 H 0.66000 0.95678 0.32414
 H490 H 0.63600 0.93600 0.30019
 H491 H 0.66277 0.96893 0.24482
 H492 H 0.68705 0.98958 0.26871
 H493 H 0.68860 0.99159 0.35715
 H494 H 0.71127 0.97172 0.38303
 H495 H 0.71852 0.95691 0.30440
 H496 H 0.73287 1.00823 0.31461
 H497 H 0.75686 1.02905 0.33859
 H498 H 0.70143 1.06276 0.36459
 H499 H 0.67747 1.04177 0.34087
 H500 H 0.69756 1.04085 0.28257
 H501 H 0.67181 1.06084 0.25981
 H502 H 0.61863 1.02677 0.28967
 H503 H 0.64429 1.00695 0.31264
 H504 H 0.74098 0.93687 0.33037
 O505 O 0.87253 0.84256 0.48039
 O506 O 0.84329 0.87180 0.52343
 O507 O 0.87301 0.84184 0.52250
 O508 O 0.84258 0.87226 0.48134
 O509 O 0.81723 0.84694 0.48141
 O510 O 0.84760 0.81659 0.52250
 O511 O 0.81790 0.84651 0.52346
 O512 O 0.84715 0.81728 0.48044
 Cu513 Cu 0.86042 0.85966 0.50191
 Cu514 Cu 0.82992 0.82928 0.50196
 C515 C 0.86481 0.82495 0.47319
 C516 C 0.82561 0.86413 0.53065
 C517 C 0.86545 0.82403 0.52938
 C518 C 0.82473 0.86474 0.47448
 O519 O 0.13161 0.16192 0.47736
 O520 O 0.16148 0.13212 0.51932
 O521 O 0.13170 0.16198 0.51939
 O522 O 0.16135 0.13197 0.47727
 O523 O 0.18680 0.15719 0.47711
 O524 O 0.15715 0.18720 0.51922
 O525 O 0.18692 0.15735 0.51914
 O526 O 0.15707 0.18712 0.47720
 Cu527 Cu 0.14396 0.14445 0.49835
 Cu528 Cu 0.17456 0.17476 0.49814
 C529 C 0.13925 0.17961 0.47028
 C530 C 0.17928 0.13967 0.52625
 C531 C 0.13938 0.17971 0.52634
 C532 C 0.17913 0.13946 0.47016
 O533 O 0.12626 0.84342 0.52137
 O534 O 0.15551 0.87276 0.47841
 O535 O 0.12623 0.84228 0.47929
 O536 O 0.15561 0.87373 0.52057
 O537 O 0.18138 0.84892 0.52101
 O538 O 0.15205 0.81754 0.47980
 O539 O 0.18129 0.84797 0.47890
 O540 O 0.15207 0.81866 0.52182
 Cu541 Cu 0.13831 0.86056 0.49984
 Cu542 Cu 0.16931 0.83079 0.50041
 C543 C 0.13422 0.82607 0.52882
 C544 C 0.17336 0.86532 0.47143
 C545 C 0.13416 0.82455 0.47265
 C546 C 0.17345 0.86659 0.52778
 O547 O 0.84317 0.12678 0.47767
 O548 O 0.87271 0.15621 0.52029
 O549 O 0.84230 0.12682 0.51976
 O550 O 0.87338 0.15627 0.47812
 O551 O 0.84837 0.18183 0.47782
 O552 O 0.81736 0.15245 0.51938
 O553 O 0.84773 0.18179 0.51993
 O554 O 0.81820 0.15238 0.47734
 Cu555 Cu 0.86043 0.13894 0.49901
 Cu556 Cu 0.83041 0.16970 0.49860
 C557 C 0.82568 0.13459 0.47035
 C558 C 0.86522 0.17399 0.52727
 C559 C 0.82453 0.13464 0.52652
 C560 C 0.86608 0.17403 0.47093
 O561 O 0.47831 0.87072 0.83987
 O562 O 0.52006 0.84058 0.86981
 O563 O 0.52042 0.87025 0.83979
 O564 O 0.47787 0.84126 0.87000
 O565 O 0.47749 0.81576 0.84489
 O566 O 0.52002 0.84476 0.81468
 O567 O 0.51965 0.81511 0.84468
 O568 O 0.47795 0.84520 0.81479
 Cu569 Cu 0.49922 0.85827 0.85742
 Cu570 Cu 0.49875 0.82762 0.82724
 C571 C 0.47116 0.86307 0.82222
 C572 C 0.52684 0.82271 0.86233
 C573 C 0.52729 0.86248 0.82207
 C574 C 0.47052 0.82360 0.86255
 O575 O 0.47927 0.12718 0.15668
 O576 O 0.52265 0.15649 0.12799
 O577 O 0.52143 0.12650 0.15761
 O578 O 0.48049 0.15750 0.12741
 O579 O 0.48055 0.18245 0.15307
 O580 O 0.52140 0.15153 0.18318
 O581 O 0.52266 0.18149 0.15360
 O582 O 0.47929 0.15217 0.18230
 Cu583 Cu 0.50096 0.13939 0.13983
 Cu584 Cu 0.50098 0.16943 0.17062
 C585 C 0.47200 0.13469 0.17436
 C586 C 0.52993 0.17397 0.13591
 C587 C 0.52827 0.13378 0.17554
 C588 C 0.47366 0.17524 0.13515
 O589 O 0.47733 0.15706 0.87456
 O590 O 0.51969 0.12757 0.84449
 O591 O 0.51950 0.15767 0.87412
 O592 O 0.47745 0.12707 0.84488
 O593 O 0.47703 0.15220 0.81947
 O594 O 0.51901 0.18274 0.84865
 O595 O 0.51921 0.15269 0.81907
 O596 O 0.47690 0.18214 0.84910
 Cu597 Cu 0.49855 0.13980 0.86207
 Cu598 Cu 0.49800 0.16996 0.83150
 C599 C 0.47001 0.17461 0.86692
 C600 C 0.52658 0.13515 0.82669
 C601 C 0.52628 0.17542 0.86635
 C602 C 0.47015 0.13450 0.82723
 O603 O 0.47968 0.84079 0.12867
 O604 O 0.52164 0.87128 0.15821
 O605 O 0.52184 0.84180 0.12812
 O606 O 0.47946 0.87048 0.15877
 O607 O 0.48022 0.84500 0.18383
 O608 O 0.52257 0.81634 0.15320
 O609 O 0.52235 0.84578 0.18325
 O610 O 0.48045 0.81535 0.15376
 Cu611 Cu 0.50054 0.85866 0.14091
 Cu612 Cu 0.50144 0.82805 0.17104
 C613 C 0.47308 0.82286 0.13618
 C614 C 0.52908 0.86365 0.17572
 C615 C 0.52936 0.82423 0.13550
 C616 C 0.47277 0.86264 0.17652
 O617 O 0.87403 0.52116 0.84280
 O618 O 0.84445 0.47863 0.87241
 O619 O 0.87398 0.47909 0.84212
 O620 O 0.84446 0.52078 0.87291
 O621 O 0.81889 0.52102 0.84791
 O622 O 0.84835 0.47941 0.81719
 O623 O 0.81887 0.47893 0.84744
 O624 O 0.84842 0.52142 0.81785
 Cu625 Cu 0.86180 0.49986 0.86010
 Cu626 Cu 0.83104 0.50020 0.83009
 C627 C 0.86621 0.52845 0.82531
 C628 C 0.82665 0.47162 0.86493
 C629 C 0.86618 0.47230 0.82440
 C630 C 0.82670 0.52797 0.86556
 O631 O 0.15523 0.48005 0.12566
 O632 O 0.12510 0.52208 0.15554
 O633 O 0.15525 0.52221 0.12590
 O634 O 0.12499 0.47994 0.15521
 O635 O 0.15008 0.47983 0.18068
 O636 O 0.18031 0.52205 0.15141
 O637 O 0.15020 0.52190 0.18099
 O638 O 0.18027 0.47996 0.15118
 Cu639 Cu 0.13761 0.50108 0.13800
 Cu640 Cu 0.16774 0.50092 0.16863
 C641 C 0.17285 0.47293 0.13340
 C642 C 0.13257 0.52906 0.17333
 C643 C 0.17290 0.52924 0.13371
 C644 C 0.13243 0.47278 0.17291
 O645 O 0.83859 0.52103 0.13135
 O646 O 0.86790 0.47906 0.16169
 O647 O 0.83847 0.47899 0.13148
 O648 O 0.86804 0.52109 0.16156
 O649 O 0.84232 0.52122 0.18654
 O650 O 0.81276 0.47914 0.15646
 O651 O 0.84218 0.47921 0.18667
 O652 O 0.81288 0.52115 0.15634
 Cu653 Cu 0.85585 0.50003 0.14400
 Cu654 Cu 0.82494 0.50020 0.17402
 C655 C 0.82073 0.52809 0.13867
 C656 C 0.86004 0.47213 0.17936
 C657 C 0.82058 0.47203 0.13885
 C658 C 0.86023 0.52817 0.17919
 O659 O 0.15949 0.52036 0.87056
 O660 O 0.12957 0.47780 0.84140
 O661 O 0.15966 0.47835 0.87093
 O662 O 0.12948 0.51991 0.84085
 O663 O 0.15472 0.51971 0.81539
 O664 O 0.18486 0.47819 0.84543
 O665 O 0.15480 0.47763 0.81593
 O666 O 0.18471 0.52017 0.84508
 Cu667 Cu 0.14199 0.49914 0.85849
 Cu668 Cu 0.17230 0.49892 0.82787
 C669 C 0.17723 0.52733 0.86282
 C670 C 0.13713 0.47055 0.82373
 C671 C 0.17740 0.47134 0.86329
 C672 C 0.13699 0.52676 0.82300
 C673 C 0.20233 0.41754 0.07825
 C674 C 0.22633 0.42054 0.07146
 C675 C 0.23133 0.39783 0.08014
 C676 C 0.20753 0.39456 0.08676
 C677 C 0.20779 0.42681 0.10066
 C678 C 0.21279 0.40409 0.10935
 C679 C 0.23159 0.43005 0.09403
 C680 C 0.23678 0.40711 0.10255
 C681 C 0.24477 0.38193 0.06876
 C682 C 0.25617 0.36914 0.05940
 C683 C 0.19498 0.44312 0.11219
 C684 C 0.18473 0.45667 0.12179
 H685 H 0.18802 0.42201 0.06838
 H686 H 0.23204 0.42714 0.05575
 H687 H 0.19779 0.37978 0.08365
 H688 H 0.20708 0.39750 0.12506
 H689 H 0.24135 0.44482 0.09713
 H690 H 0.25108 0.40265 0.11242
 C691 C 0.76897 0.58773 0.11327
 C692 C 0.77855 0.60675 0.10001
 C693 C 0.76368 0.60060 0.08108
 C694 C 0.75391 0.58183 0.09414
 C695 C 0.78643 0.57279 0.10375
 C696 C 0.77155 0.56665 0.08481
 C697 C 0.79621 0.59155 0.09069
 C698 C 0.78113 0.58566 0.07156
 C699 C 0.75088 0.61599 0.06846
 C700 C 0.74025 0.62859 0.05811
 C701 C 0.79892 0.55711 0.11632
 C702 C 0.80900 0.54400 0.12659
 H703 H 0.76411 0.58842 0.13055
 H704 H 0.78129 0.62342 0.10612
 H705 H 0.73637 0.57800 0.09541
 H706 H 0.76881 0.54999 0.07870
 H707 H 0.81375 0.59538 0.08942
 H708 H 0.78599 0.58497 0.05427
 C709 C 0.77609 0.40976 0.88748
 C710 C 0.78556 0.39098 0.90104
 C711 C 0.76937 0.39631 0.91919
 C712 C 0.75972 0.41485 0.90580
 C713 C 0.79239 0.42528 0.89806
 C714 C 0.77620 0.43060 0.91622
 C715 C 0.80207 0.40676 0.91145
 C716 C 0.78567 0.41184 0.92979
 C717 C 0.75620 0.38046 0.93095
 C718 C 0.74498 0.36774 0.94062
 C719 C 0.80492 0.44163 0.88627
 C720 C 0.81497 0.45524 0.87654
 H721 H 0.77229 0.40909 0.86995
 H722 H 0.78926 0.37450 0.89494
 H723 H 0.74216 0.41800 0.90360
 H724 H 0.77248 0.44707 0.92233
 H725 H 0.81963 0.40362 0.91364
 H726 H 0.78947 0.41251 0.94732
 C727 C 0.22690 0.56608 0.91619
 C728 C 0.24516 0.58049 0.90674
 C729 C 0.23585 0.59987 0.91922
 C730 C 0.21778 0.58570 0.92885
 C731 C 0.21247 0.57215 0.89691
 C732 C 0.20315 0.59153 0.90939
 C733 C 0.23054 0.58632 0.88728
 C734 C 0.22143 0.60595 0.89995
 C735 C 0.24898 0.61520 0.93167
 C736 C 0.25987 0.62774 0.94190
 C737 C 0.19963 0.55649 0.88457
 C738 C 0.18927 0.54334 0.87456
 H739 H 0.22901 0.54952 0.92273
 H740 H 0.26257 0.57611 0.90580
 H741 H 0.21269 0.58560 0.94609
 H742 H 0.18574 0.59590 0.91033
 H743 H 0.23564 0.58641 0.87005
 H744 H 0.21933 0.62252 0.89341
 C745 C 0.10931 0.23845 0.42056
 C746 C 0.10663 0.23328 0.39618
 C747 C 0.08225 0.23783 0.39825
 C748 C 0.08474 0.24319 0.42239
 C749 C 0.10474 0.21460 0.42581
 C750 C 0.08036 0.21915 0.42787
 C751 C 0.10226 0.20922 0.40168
 C752 C 0.07767 0.21397 0.40350
 C753 C 0.06967 0.25087 0.38304
 C754 C 0.05929 0.26168 0.37063
 C755 C 0.11719 0.20184 0.44137
 C756 C 0.12733 0.19156 0.45442
 H757 H 0.12247 0.24838 0.42774
 H758 H 0.11729 0.23924 0.38298
 H759 H 0.07741 0.25730 0.43074
 H760 H 0.06969 0.21319 0.44108
 H761 H 0.10960 0.19511 0.39334
 H762 H 0.06451 0.20406 0.39632
 C763 C 0.08327 0.77586 0.57038
 C764 C 0.09385 0.75935 0.58588
 C765 C 0.08065 0.76894 0.60468
 C766 C 0.06989 0.78528 0.58941
 C767 C 0.10152 0.79196 0.57554
 C768 C 0.08833 0.80159 0.59432
 C769 C 0.11228 0.77563 0.59081
 C770 C 0.09890 0.78504 0.60986
 C771 C 0.06903 0.75575 0.62058
 C772 C 0.05944 0.74449 0.63332
 C773 C 0.11316 0.80447 0.55909
 C774 C 0.12276 0.81447 0.54535
 H775 H 0.07696 0.77222 0.55397
 H776 H 0.09600 0.74183 0.58259
 H777 H 0.05232 0.78910 0.58902
 H778 H 0.08619 0.81911 0.59760
 H779 H 0.12984 0.77180 0.59120
 H780 H 0.10519 0.78866 0.62627
 C781 C 0.91892 0.77817 0.43159
 C782 C 0.90960 0.75873 0.41884
 C783 C 0.91958 0.76797 0.39801
 C784 C 0.92909 0.78724 0.41053
 C785 C 0.89811 0.79089 0.42681
 C786 C 0.90808 0.80016 0.40599
 C787 C 0.88862 0.77162 0.41430
 C788 C 0.89877 0.78068 0.39322
 C789 C 0.93152 0.75483 0.38226
 C790 C 0.94129 0.74362 0.36962
 C791 C 0.88617 0.80335 0.44310
 C792 C 0.87638 0.81334 0.45673
 H793 H 0.92708 0.77727 0.44755
 H794 H 0.91035 0.74155 0.42397
 H795 H 0.94586 0.79352 0.40880
 H796 H 0.90732 0.81734 0.40089
 H797 H 0.87185 0.76532 0.41602
 H798 H 0.89062 0.78156 0.37726
 C799 C 0.89633 0.20525 0.59813
 C800 C 0.92134 0.20638 0.60011
 C801 C 0.91979 0.23107 0.60239
 C802 C 0.89498 0.23014 0.60067
 C803 C 0.89849 0.20813 0.57354
 C804 C 0.89696 0.23282 0.57584
 C805 C 0.92331 0.20906 0.57525
 C806 C 0.92194 0.23393 0.57779
 C807 C 0.93164 0.24420 0.61818
 C808 C 0.94137 0.25540 0.63084
 C809 C 0.88662 0.19565 0.55724
 C810 C 0.87685 0.18564 0.54365
 H811 H 0.88566 0.19331 0.60631
 H812 H 0.93150 0.19565 0.61027
 H813 H 0.88345 0.23895 0.61129
 H814 H 0.88681 0.24357 0.56568
 H815 H 0.93483 0.20025 0.56462
 H816 H 0.93260 0.24587 0.56959
 C817 C 0.42690 0.09661 0.23212
 C818 C 0.40279 0.10301 0.23470
 C819 C 0.39630 0.07943 0.23024
 C820 C 0.42019 0.07286 0.22785
 C821 C 0.42528 0.10115 0.20775
 C822 C 0.41880 0.07756 0.20328
 C823 C 0.40139 0.10773 0.21013
 C824 C 0.39465 0.08394 0.20587
 C825 C 0.38048 0.06736 0.24318
 C826 C 0.36780 0.05748 0.25427
 C827 C 0.44167 0.11321 0.19553
 C828 C 0.45540 0.12307 0.18575
 H829 H 0.44033 0.10195 0.24278
 H830 H 0.39602 0.11334 0.24776
 H831 H 0.42774 0.05839 0.23526
 H832 H 0.42557 0.06724 0.19023
 H833 H 0.39385 0.12221 0.20271
 H834 H 0.38121 0.07859 0.19523
 C835 C 0.57313 0.10169 0.76704
 C836 C 0.59790 0.10569 0.76761
 C837 C 0.60153 0.08114 0.76858
 C838 C 0.57699 0.07698 0.76782
 C839 C 0.57270 0.10216 0.79189
 C840 C 0.57632 0.07761 0.79286
 C841 C 0.59723 0.10634 0.79266
 C842 C 0.60112 0.08159 0.79343
 C843 C 0.61734 0.06944 0.75527
 C844 C 0.63005 0.05981 0.74399
 C845 C 0.55643 0.11390 0.80460
 C846 C 0.54288 0.12359 0.81481
 H847 H 0.56146 0.11008 0.75632
 H848 H 0.60695 0.11712 0.75709
 H849 H 0.56883 0.06478 0.75746
 H850 H 0.56727 0.06618 0.80338
 H851 H 0.60538 0.11855 0.80302
 H852 H 0.61280 0.07320 0.80413
 C853 C 0.43000 0.90340 0.76327
 C854 C 0.40650 0.89619 0.75829
 C855 C 0.39863 0.91914 0.76365
 C856 C 0.42191 0.92653 0.76844
 C857 C 0.42648 0.89721 0.78709
 C858 C 0.41862 0.92016 0.79245
 C859 C 0.40321 0.88981 0.78230
 C860 C 0.39510 0.91295 0.78747
 C861 C 0.38324 0.93137 0.75048
 C862 C 0.37068 0.94146 0.73955
 C863 C 0.44218 0.88501 0.79993
 C864 C 0.45529 0.87498 0.81025
 H865 H 0.44453 0.89934 0.75346
 H866 H 0.40134 0.88647 0.74409
 H867 H 0.42943 0.94176 0.76259
 H868 H 0.42378 0.92988 0.80665
 H869 H 0.39569 0.87457 0.78816
 H870 H 0.38056 0.91702 0.79726
 C871 C 0.58351 0.88985 0.23207
 C872 C 0.60698 0.89487 0.22466
 C873 C 0.60424 0.91819 0.23278
 C874 C 0.58101 0.91334 0.24038
 C875 C 0.57524 0.89711 0.20982
 C876 C 0.57250 0.92043 0.21794
 C877 C 0.59846 0.90195 0.20220
 C878 C 0.59598 0.92547 0.21053
 C879 C 0.62012 0.92991 0.24592
 C880 C 0.63286 0.93956 0.25710
 C881 C 0.55891 0.88529 0.19733
 C882 C 0.54534 0.87547 0.18733
 H883 H 0.57820 0.87508 0.24080
 H884 H 0.62133 0.88449 0.22757
 H885 H 0.57400 0.91815 0.25622
 H886 H 0.55815 0.93082 0.21505
 H887 H 0.60545 0.89713 0.18635
 H888 H 0.60129 0.94025 0.20182
 C889 C 0.39996 0.21026 0.89507
 C890 C 0.39447 0.20769 0.91942
 C891 C 0.39565 0.23237 0.92202
 C892 C 0.40089 0.23515 0.89787
 C893 C 0.42419 0.20908 0.90060
 C894 C 0.42534 0.23376 0.90322
 C895 C 0.41896 0.20629 0.92476
 C896 C 0.41988 0.23117 0.92754
 C897 C 0.38004 0.24573 0.93390
 C898 C 0.36750 0.25712 0.94362
 C899 C 0.44031 0.19642 0.88862
 C900 C 0.45377 0.18631 0.87873
 H901 H 0.39194 0.20152 0.88158
 H902 H 0.38159 0.19712 0.92622
 H903 H 0.39328 0.24715 0.88694
 H904 H 0.43820 0.24435 0.89643
 H905 H 0.42657 0.19429 0.93568
 H906 H 0.42791 0.23991 0.94102
 C907 C 0.58898 0.77296 0.88568
 C908 C 0.60603 0.78207 0.90164
 C909 C 0.59991 0.76422 0.91783
 C910 C 0.58310 0.75492 0.90205
 C911 C 0.57177 0.78757 0.89615
 C912 C 0.56566 0.76972 0.91234
 C913 C 0.58858 0.79688 0.91193
 C914 C 0.58271 0.77883 0.92830
 C915 C 0.61549 0.75111 0.92990
 C916 C 0.62823 0.74025 0.93985
 C917 C 0.55595 0.80039 0.88408
 C918 C 0.54276 0.81071 0.87414
 H919 H 0.59139 0.77069 0.86803
 H920 H 0.62281 0.78700 0.89738
 H921 H 0.58101 0.73753 0.89813
 H922 H 0.54889 0.76479 0.91661
 H923 H 0.59066 0.81428 0.91585
 H924 H 0.58030 0.78110 0.94596
 C925 C 0.41030 0.79631 0.08803
 C926 C 0.41623 0.77936 0.07052
 C927 C 0.40022 0.76342 0.08098
 C928 C 0.39404 0.78017 0.09830
 C929 C 0.42823 0.78715 0.10256
 C930 C 0.41222 0.77121 0.11302
 C931 C 0.43440 0.77040 0.08524
 C932 C 0.41815 0.75427 0.09551
 C933 C 0.38470 0.75011 0.06895
 C934 C 0.37200 0.73909 0.05905
 C935 C 0.44400 0.80018 0.11458
 C936 C 0.45716 0.81068 0.12445
 H937 H 0.40725 0.81374 0.08509
 H938 H 0.41771 0.78256 0.05292
 H939 H 0.37727 0.78403 0.10354
 H940 H 0.41073 0.76801 0.13062
 H941 H 0.45116 0.76653 0.07999
 H942 H 0.42121 0.73684 0.09845
 C943 C 0.60014 0.20121 0.09921
 C944 C 0.59814 0.20805 0.07517
 C945 C 0.60533 0.23101 0.08142
 C946 C 0.60758 0.22439 0.10525
 C947 C 0.57651 0.20810 0.10291
 C948 C 0.58371 0.23106 0.10914
 C949 C 0.57426 0.21473 0.07908
 C950 C 0.58169 0.23787 0.08514
 C951 C 0.62104 0.24415 0.06943
 C952 C 0.63362 0.25537 0.05957
 C953 C 0.56018 0.19563 0.11481
 C954 C 0.54650 0.18563 0.12451
 H955 H 0.60754 0.18599 0.10513
 H956 H 0.60426 0.19873 0.06107
 H957 H 0.62147 0.22850 0.11588
 H958 H 0.57759 0.24039 0.12323
 H959 H 0.56038 0.21063 0.06845
 H960 H 0.57427 0.25309 0.07922
 C961 C 0.20843 0.10354 0.59540
 C962 C 0.21302 0.07894 0.59406
 C963 C 0.23692 0.08343 0.59934
 C964 C 0.23253 0.10782 0.60094
 C965 C 0.21399 0.10556 0.57125
 C966 C 0.23789 0.11004 0.57654
 C967 C 0.21838 0.08117 0.56967
 C968 C 0.24247 0.08547 0.57519
 C969 C 0.24979 0.07107 0.61487
 C970 C 0.26045 0.06086 0.62756
 C971 C 0.20137 0.11783 0.55544
 C972 C 0.19118 0.12785 0.54223
 H973 H 0.19429 0.11110 0.60354
 H974 H 0.20295 0.06601 0.60144
 H975 H 0.23850 0.11864 0.61397
 H976 H 0.24798 0.12297 0.56917
 H977 H 0.21242 0.07034 0.55663
 H978 H 0.25661 0.07790 0.56705
 C979 C 0.77109 0.11035 0.41299
 C980 C 0.77977 0.10174 0.39108
 C981 C 0.76834 0.08009 0.39544
 C982 C 0.75948 0.08853 0.41710
 C983 C 0.79138 0.10141 0.42418
 C984 C 0.77995 0.07975 0.42852
 C985 C 0.80027 0.09298 0.40252
 C986 C 0.78862 0.07113 0.40662
 C987 C 0.75514 0.06820 0.37974
 C988 C 0.74391 0.05841 0.36716
 C989 C 0.80393 0.11327 0.44042
 C990 C 0.81398 0.12301 0.45399
 H991 H 0.76402 0.12661 0.41578
 H992 H 0.77955 0.11064 0.37550
 H993 H 0.74256 0.08657 0.42293
 H994 H 0.78015 0.07084 0.44410
 H995 H 0.81719 0.09494 0.39671
 H996 H 0.79569 0.05487 0.40382
 C997 C 0.77159 0.88849 0.58882
 C998 C 0.78042 0.89847 0.61005
 C999 C 0.76808 0.91942 0.60503
 C1000 C 0.75907 0.90961 0.58405
 C1001 C 0.79127 0.89770 0.57663
 C1002 C 0.77892 0.91865 0.57163
 C1003 C 0.80032 0.90749 0.59761
 C1004 C 0.78776 0.92864 0.59284
 C1005 C 0.75478 0.93151 0.62053
 C1006 C 0.74343 0.94142 0.63295
 C1007 C 0.80387 0.88563 0.56053
 C1008 C 0.81394 0.87577 0.54703
 H1009 H 0.76507 0.87185 0.58700
 H1010 H 0.78089 0.89031 0.62603
 H1011 H 0.74196 0.91061 0.57863
 H1012 H 0.77843 0.92682 0.55566
 H1013 H 0.81742 0.90648 0.60300
 H1014 H 0.79426 0.94529 0.59467
 C1015 C 0.23188 0.89534 0.42130
 C1016 C 0.22816 0.89421 0.39656
 C1017 C 0.23034 0.91893 0.39543
 C1018 C 0.23425 0.92022 0.41993
 C1019 C 0.20736 0.89809 0.42464
 C1020 C 0.20954 0.92282 0.42351
 C1021 C 0.20343 0.89679 0.40014
 C1022 C 0.20582 0.92171 0.39875
 C1023 C 0.24353 0.93051 0.37946
 C1024 C 0.25481 0.94002 0.36666
 C1025 C 0.19489 0.88644 0.44113
 C1026 C 0.18492 0.87682 0.45488
 H1027 H 0.24246 0.88437 0.43075
 H1028 H 0.23595 0.88258 0.38529
 H1029 H 0.24706 0.92998 0.42790
 H1030 H 0.20176 0.93445 0.43478
 H1031 H 0.19061 0.88702 0.39219
 H1032 H 0.19526 0.93269 0.38929
 C1033 C 0.08478 0.42980 0.77443
 C1034 C 0.09485 0.41442 0.75739
 C1035 C 0.08180 0.39561 0.76715
 C1036 C 0.07154 0.41076 0.78400
 C1037 C 0.10342 0.42436 0.78991
 C1038 C 0.09038 0.40557 0.79969
 C1039 C 0.11367 0.40921 0.77306
 C1040 C 0.10043 0.39015 0.78262
 C1041 C 0.06978 0.37989 0.75408
 C1042 C 0.05994 0.36729 0.74290
 C1043 C 0.11547 0.44061 0.80229
 C1044 C 0.12537 0.45418 0.81220
 H1045 H 0.07848 0.44628 0.77118
 H1046 H 0.09656 0.41789 0.73986
 H1047 H 0.05409 0.41122 0.78836
 H1048 H 0.08867 0.40212 0.81723
 H1049 H 0.13112 0.40875 0.76869
 H1050 H 0.10673 0.37367 0.78585
 C1051 C 0.07501 0.57415 0.21311
 C1052 C 0.07994 0.57943 0.23710
 C1053 C 0.07862 0.60366 0.23180
 C1054 C 0.07351 0.59863 0.20800
 C1055 C 0.09941 0.57493 0.20820
 C1056 C 0.09811 0.59916 0.20287
 C1057 C 0.10450 0.57998 0.23199
 C1058 C 0.10303 0.60444 0.22688
 C1059 C 0.06710 0.61940 0.24531
 C1060 C 0.05765 0.63205 0.25680
 C1061 C 0.11110 0.55873 0.19538
 C1062 C 0.12083 0.54525 0.18515
 H1063 H 0.06361 0.56152 0.20732
 H1064 H 0.07234 0.57148 0.25132
 H1065 H 0.06064 0.60648 0.19829
 H1066 H 0.10572 0.60709 0.18864
 H1067 H 0.11736 0.57214 0.24173
 H1068 H 0.11443 0.61707 0.23268
 C1069 C 0.90994 0.41088 0.20533
 C1070 C 0.92626 0.41694 0.22335
 C1071 C 0.91603 0.39963 0.23798
 C1072 C 0.89990 0.39331 0.22016
 C1073 C 0.89390 0.42742 0.21468
 C1074 C 0.88367 0.41010 0.22931
 C1075 C 0.91003 0.43372 0.23251
 C1076 C 0.89999 0.41617 0.24733
 C1077 C 0.92842 0.38427 0.25103
 C1078 C 0.93868 0.37172 0.26181
 C1079 C 0.88167 0.44310 0.20185
 C1080 C 0.87172 0.45622 0.19148
 H1081 H 0.91389 0.40887 0.18791
 H1082 H 0.94391 0.41959 0.22105
 H1083 H 0.89587 0.37651 0.21523
 H1084 H 0.86601 0.40746 0.23161
 H1085 H 0.91407 0.45051 0.23745
 H1086 H 0.89604 0.41818 0.26474
 C1087 C 0.88826 0.59174 0.77648
 C1088 C 0.90345 0.60937 0.78586
 C1089 C 0.92015 0.60404 0.76819
 C1090 C 0.90515 0.58666 0.75862
 C1091 C 0.89916 0.57494 0.79113
 C1092 C 0.91587 0.56963 0.77346
 C1093 C 0.91416 0.59231 0.80073
 C1094 C 0.93106 0.58724 0.78284
 C1095 C 0.93184 0.61996 0.75506
 C1096 C 0.94147 0.63273 0.74387
 C1097 C 0.88744 0.55853 0.80362
 C1098 C 0.87777 0.54487 0.81365
 H1099 H 0.87054 0.59340 0.77399
 H1100 H 0.89847 0.62590 0.79081
 H1101 H 0.90157 0.58452 0.74116
 H1102 H 0.92086 0.55312 0.76849
 H1103 H 0.91773 0.59444 0.81819
 H1104 H 0.94878 0.58558 0.78532
 C1105 C 0.79169 0.59835 0.89234
 C1106 C 0.76677 0.59768 0.89535
 C1107 C 0.76974 0.60368 0.91928
 C1108 C 0.79446 0.60461 0.91646
 C1109 C 0.79274 0.57437 0.89871
 C1110 C 0.79573 0.58036 0.92264
 C1111 C 0.76802 0.57347 0.90154
 C1112 C 0.77081 0.57970 0.92563
 C1113 C 0.75655 0.61973 0.93067
 C1114 C 0.74529 0.63260 0.94004
 C1115 C 0.80521 0.55790 0.88711
 C1116 C 0.81517 0.54425 0.87738
 H1117 H 0.80042 0.60582 0.87851
 H1118 H 0.75472 0.60500 0.88426
 H1119 H 0.80518 0.61761 0.92273
 H1120 H 0.80778 0.57304 0.93372
 H1121 H 0.75728 0.56049 0.89529
 H1122 H 0.76208 0.57222 0.93946
 C1123 C 0.21811 0.42920 0.92164
 C1124 C 0.21277 0.40490 0.92468
 C1125 C 0.23648 0.39941 0.91945
 C1126 C 0.24202 0.42347 0.91660
 C1127 C 0.21284 0.42701 0.89746
 C1128 C 0.23655 0.42151 0.89224
 C1129 C 0.20729 0.40295 0.90030
 C1130 C 0.23122 0.39722 0.89527
 C1131 C 0.24977 0.38417 0.93171
 C1132 C 0.26079 0.37172 0.94182
 C1133 C 0.19988 0.44256 0.88523
 C1134 C 0.18947 0.45557 0.87519
 H1135 H 0.21257 0.44252 0.93234
 H1136 H 0.20315 0.39790 0.93816
 H1137 H 0.25644 0.43173 0.92344
 H1138 H 0.24618 0.42851 0.87876
 H1139 H 0.19287 0.39470 0.89346
 H1140 H 0.23676 0.38389 0.88457
 C1141 C 0.23191 0.57263 0.09535
 C1142 C 0.22712 0.58130 0.07237
 C1143 C 0.23135 0.60439 0.08054
 C1144 C 0.23633 0.59595 0.10335
 C1145 C 0.20786 0.57546 0.10118
 C1146 C 0.21209 0.59855 0.10936
 C1147 C 0.20287 0.58389 0.07837
 C1148 C 0.20731 0.60725 0.08635
 C1149 C 0.24478 0.62021 0.06904
 C1150 C 0.25619 0.63289 0.05954
 C1151 C 0.19507 0.55915 0.11272
 C1152 C 0.18482 0.54556 0.12227
 H1153 H 0.24188 0.55822 0.09917
 H1154 H 0.23344 0.57438 0.05704
 H1155 H 0.25024 0.60109 0.11350
 H1156 H 0.20576 0.60546 0.12470
 H1157 H 0.18897 0.57874 0.06822
 H1158 H 0.19735 0.62167 0.08252
 C1159 C 0.76829 0.43328 0.08805
 C1160 C 0.77777 0.41676 0.07175
 C1161 C 0.76326 0.39916 0.08169
 C1162 C 0.75359 0.41545 0.09780
 C1163 C 0.78610 0.42712 0.10421
 C1164 C 0.77160 0.40952 0.11416
 C1165 C 0.79578 0.41084 0.08810
 C1166 C 0.78107 0.39298 0.09784
 C1167 C 0.75042 0.38371 0.06914
 C1168 C 0.73974 0.37107 0.05882
 C1169 C 0.79865 0.44287 0.11669
 C1170 C 0.80878 0.45606 0.12687
 H1171 H 0.76317 0.45003 0.08417
 H1172 H 0.78015 0.41956 0.05417
 H1173 H 0.73610 0.41717 0.10165
 H1174 H 0.76921 0.40672 0.13173
 H1175 H 0.81328 0.40912 0.08426
 H1176 H 0.78617 0.37623 0.10172
 C1177 C 0.91679 0.77173 0.56750
 C1178 C 0.93142 0.78059 0.58581
 C1179 C 0.92087 0.76449 0.60156
 C1180 C 0.90643 0.75543 0.58349
 C1181 C 0.89939 0.78836 0.57374
 C1182 C 0.88885 0.77225 0.58950
 C1183 C 0.91383 0.79743 0.59182
 C1184 C 0.90347 0.78112 0.60782
 C1185 C 0.93280 0.75108 0.61697
 C1186 C 0.94262 0.73996 0.62957
 C1187 C 0.88737 0.80142 0.55811
 C1188 C 0.87740 0.81191 0.54509
 H1189 H 0.92214 0.76801 0.55075
 H1190 H 0.94906 0.78387 0.58447
 H1191 H 0.90351 0.73801 0.58023
 H1192 H 0.87120 0.76897 0.59085
 H1193 H 0.91674 0.81485 0.59507
 H1194 H 0.89813 0.78482 0.62458
 C1195 C 0.92449 0.20844 0.42214
 C1196 C 0.92139 0.20682 0.39731
 C1197 C 0.92063 0.23162 0.39612
 C1198 C 0.92391 0.23343 0.42069
 C1199 C 0.89976 0.20829 0.42501
 C1200 C 0.89902 0.23309 0.42379
 C1201 C 0.89646 0.20647 0.40045
 C1202 C 0.89590 0.23147 0.39900
 C1203 C 0.93215 0.24502 0.38029
 C1204 C 0.94154 0.25646 0.36758
 C1205 C 0.88796 0.19566 0.44127
 C1206 C 0.87808 0.18561 0.45477
 H1207 H 0.93612 0.19883 0.43184
 H1208 H 0.93072 0.19618 0.38624
 H1209 H 0.93533 0.24467 0.42883
 H1210 H 0.88970 0.24376 0.43486
 H1211 H 0.88504 0.19523 0.39232
 H1212 H 0.88427 0.24108 0.38931
 C1213 C 0.11348 0.23511 0.58248
 C1214 C 0.09155 0.24625 0.57773
 C1215 C 0.08268 0.23753 0.59926
 C1216 C 0.10442 0.22658 0.60425
 C1217 C 0.10510 0.21455 0.57129
 C1218 C 0.09623 0.20581 0.59282
 C1219 C 0.08335 0.22551 0.56630
 C1220 C 0.07429 0.21697 0.58807
 C1221 C 0.07016 0.25041 0.61471
 C1222 C 0.05984 0.26110 0.62736
 C1223 C 0.11749 0.20191 0.55553
 C1224 C 0.12756 0.19167 0.54233
 H1225 H 0.12974 0.24241 0.58000
 H1226 H 0.08948 0.26302 0.57170
 H1227 H 0.11293 0.22717 0.62004
 H1228 H 0.09830 0.18904 0.59884
 H1229 H 0.07483 0.22492 0.55052
 H1230 H 0.05803 0.20967 0.59055
 C1231 C 0.07692 0.78242 0.42982
 C1232 C 0.07452 0.78731 0.40537
 C1233 C 0.08007 0.76363 0.40034
 C1234 C 0.08228 0.75853 0.42454
 C1235 C 0.10115 0.78792 0.42820
 C1236 C 0.10669 0.76424 0.42316
 C1237 C 0.09894 0.79303 0.40399
 C1238 C 0.10430 0.76913 0.39871
 C1239 C 0.06829 0.75002 0.38493
 C1240 C 0.05853 0.73879 0.37233
 C1241 C 0.11289 0.80128 0.44386
 C1242 C 0.12258 0.81204 0.45691
 H1243 H 0.06578 0.78803 0.44279
 H1244 H 0.06115 0.79665 0.39788
 H1245 H 0.07531 0.74419 0.43282
 H1246 H 0.12006 0.75490 0.43064
 H1247 H 0.10592 0.80738 0.39572
 H1248 H 0.11543 0.76351 0.38574
 C1249 C 0.56571 0.91335 0.76962
 C1250 C 0.58317 0.92885 0.77879
 C1251 C 0.59985 0.91884 0.76326
 C1252 C 0.58262 0.90353 0.75390
 C1253 C 0.57213 0.89648 0.78666
 C1254 C 0.58880 0.88646 0.77113
 C1255 C 0.58935 0.91179 0.79602
 C1256 C 0.60628 0.90197 0.78029
 C1257 C 0.61516 0.93134 0.75013
 C1258 C 0.62767 0.94165 0.73925
 C1259 C 0.55646 0.88414 0.79953
 C1260 C 0.54330 0.87415 0.80993
 H1261 H 0.54886 0.91790 0.76538
 H1262 H 0.58102 0.94642 0.78178
 H1263 H 0.58002 0.90028 0.73644
 H1264 H 0.59095 0.86890 0.76813
 H1265 H 0.59194 0.91504 0.81349
 H1266 H 0.62314 0.89744 0.78452
 C1267 C 0.43230 0.91735 0.22346
 C1268 C 0.41038 0.92620 0.21517
 C1269 C 0.39932 0.91736 0.23563
 C1270 C 0.42100 0.90870 0.24412
 C1271 C 0.42751 0.89575 0.21214
 C1272 C 0.41645 0.88691 0.23260
 C1273 C 0.40583 0.90440 0.20365
 C1274 C 0.39451 0.89576 0.22432
 C1275 C 0.38376 0.92947 0.24879
 C1276 C 0.37105 0.93950 0.25968
 C1277 C 0.44340 0.88380 0.19921
 C1278 C 0.45669 0.87408 0.18874
 H1279 H 0.44802 0.92610 0.22296
 H1280 H 0.40771 0.94249 0.20816
 H1281 H 0.42707 0.91061 0.26090
 H1282 H 0.41912 0.87062 0.23962
 H1283 H 0.39978 0.90250 0.18686
 H1284 H 0.37879 0.88702 0.22482
 C1285 C 0.58988 0.08419 0.20209
 C1286 C 0.60674 0.09463 0.21746
 C1287 C 0.60040 0.07822 0.23501
 C1288 C 0.58379 0.06759 0.21986
 C1289 C 0.57256 0.09961 0.21108
 C1290 C 0.56623 0.08319 0.22864
 C1291 C 0.58916 0.11022 0.22624
 C1292 C 0.58307 0.09363 0.24399
 C1293 C 0.61582 0.06637 0.24848
 C1294 C 0.62845 0.05666 0.25967
 C1295 C 0.55693 0.11164 0.19802
 C1296 C 0.54393 0.12167 0.18757
 H1297 H 0.59250 0.08045 0.18472
 H1298 H 0.62357 0.09920 0.21302
 H1299 H 0.58176 0.04992 0.21741
 H1300 H 0.54940 0.07861 0.23309
 H1301 H 0.59120 0.12789 0.22870
 H1302 H 0.58044 0.09738 0.26136
 C1303 C 0.41055 0.08183 0.80137
 C1304 C 0.39010 0.09207 0.79109
 C1305 C 0.39517 0.08012 0.76989
 C1306 C 0.41535 0.06969 0.77995
 C1307 C 0.42405 0.10103 0.79312
 C1308 C 0.42909 0.08907 0.77191
 C1309 C 0.40388 0.11145 0.78306
 C1310 C 0.40869 0.09931 0.76167
 C1311 C 0.37938 0.06855 0.75653
 C1312 C 0.36672 0.05908 0.74512
 C1313 C 0.44033 0.11281 0.80570
 C1314 C 0.45388 0.12263 0.81570
 H1315 H 0.41151 0.07478 0.81784
 H1316 H 0.37388 0.09317 0.79882
 H1317 H 0.41988 0.05239 0.77852
 H1318 H 0.44530 0.08796 0.76416
 H1319 H 0.39934 0.12876 0.78448
 H1320 H 0.40775 0.10638 0.74520
 C1321 C 0.57692 0.78974 0.07668
 C1322 C 0.60178 0.79317 0.07790
 C1323 C 0.60474 0.76859 0.07985
 C1324 C 0.58015 0.76498 0.07844
 C1325 C 0.57574 0.79106 0.10147
 C1326 C 0.57872 0.76649 0.10340
 C1327 C 0.60033 0.79470 0.10290
 C1328 C 0.60355 0.76992 0.10464
 C1329 C 0.62057 0.75566 0.06786
 C1330 C 0.63324 0.74457 0.05804
 C1331 C 0.55938 0.80323 0.11356
 C1332 C 0.54575 0.81295 0.12356
 H1333 H 0.56578 0.79802 0.06533
 H1334 H 0.61145 0.80398 0.06728
 H1335 H 0.57203 0.75261 0.06824
 H1336 H 0.56907 0.75565 0.11401
 H1337 H 0.60842 0.80707 0.11311
 H1338 H 0.61468 0.76163 0.11599
 C1339 C 0.41092 0.22438 0.11271
 C1340 C 0.41685 0.24409 0.09842
 C1341 C 0.40128 0.23570 0.08097
 C1342 C 0.39510 0.21619 0.09507
 C1343 C 0.42923 0.21147 0.10188
 C1344 C 0.41366 0.20307 0.08443
 C1345 C 0.43540 0.23099 0.08777
 C1346 C 0.41959 0.22280 0.07014
 C1347 C 0.38580 0.24929 0.06933
 C1348 C 0.37315 0.26052 0.05971
 C1349 C 0.44492 0.19820 0.11360
 C1350 C 0.45797 0.18755 0.12337
 H1351 H 0.40753 0.22488 0.13034
 H1352 H 0.41799 0.26110 0.10405
 H1353 H 0.37835 0.21027 0.09795
 H1354 H 0.41253 0.18606 0.07880
 H1355 H 0.45214 0.23692 0.08489
 H1356 H 0.42298 0.22230 0.05250
 C1357 C 0.59305 0.20273 0.90831
 C1358 C 0.60463 0.22299 0.89909
 C1359 C 0.59981 0.23501 0.92032
 C1360 C 0.58849 0.21497 0.92973
 C1361 C 0.57150 0.21119 0.89928
 C1362 C 0.56670 0.22322 0.92051
 C1363 C 0.58283 0.23123 0.88988
 C1364 C 0.57827 0.24346 0.91128
 C1365 C 0.61546 0.24839 0.93206
 C1366 C 0.62823 0.25948 0.94176
 C1367 C 0.55558 0.19812 0.88755
 C1368 C 0.54230 0.18761 0.87789
 H1369 H 0.59894 0.18583 0.90696
 H1370 H 0.62040 0.22305 0.89042
 H1371 H 0.59099 0.20844 0.94625
 H1372 H 0.55093 0.22316 0.92919
 H1373 H 0.58033 0.23777 0.87336
 H1374 H 0.57237 0.26035 0.91264
 C1375 C 0.42577 0.78560 0.92116
 C1376 C 0.40138 0.79116 0.92327
 C1377 C 0.39582 0.76736 0.91876
 C1378 C 0.41996 0.76162 0.91684
 C1379 C 0.42445 0.78998 0.89674
 C1380 C 0.41888 0.76619 0.89225
 C1381 C 0.40032 0.79576 0.89864
 C1382 C 0.39450 0.77174 0.89434
 C1383 C 0.38018 0.75438 0.93100
 C1384 C 0.36764 0.74329 0.94103
 C1385 C 0.44064 0.80228 0.88449
 C1386 C 0.45418 0.81214 0.87445
 H1387 H 0.43881 0.79143 0.93205
 H1388 H 0.39400 0.80128 0.93616
 H1389 H 0.42787 0.74744 0.92446
 H1390 H 0.42625 0.75605 0.87937
 H1391 H 0.39243 0.80994 0.89101
 H1392 H 0.38146 0.76590 0.88345
 C1393 C 0.79573 0.90274 0.40631
 C1394 C 0.77259 0.89625 0.39910
 C1395 C 0.76541 0.91986 0.40189
 C1396 C 0.78834 0.92655 0.40885
 C1397 C 0.78916 0.89853 0.42992
 C1398 C 0.78198 0.92215 0.43271
 C1399 C 0.76623 0.89186 0.42295
 C1400 C 0.75885 0.91565 0.42550
 C1401 C 0.75207 0.93170 0.38635
 C1402 C 0.74101 0.94142 0.37362
 C1403 C 0.80218 0.88658 0.44565
 C1404 C 0.81263 0.87666 0.45873
 H1405 H 0.81105 0.89730 0.39860
 H1406 H 0.76858 0.88573 0.38510
 H1407 H 0.79728 0.94095 0.40288
 H1408 H 0.78599 0.93267 0.44670
 H1409 H 0.75728 0.87746 0.42891
 H1410 H 0.74353 0.92108 0.43321
 C1411 C 0.21867 0.88998 0.59299
 C1412 C 0.23920 0.90354 0.58805
 C1413 C 0.23032 0.92167 0.60256
 C1414 C 0.20997 0.90830 0.60775
 C1415 C 0.20736 0.90058 0.57360
 C1416 C 0.19845 0.91871 0.58810
 C1417 C 0.22771 0.91397 0.56843
 C1418 C 0.21902 0.93228 0.58318
 C1419 C 0.24349 0.93331 0.61845
 C1420 C 0.25473 0.94282 0.63122
 C1421 C 0.19490 0.88868 0.55734
 C1422 C 0.18496 0.87870 0.54387
 H1423 H 0.21839 0.87246 0.59683
 H1424 H 0.25610 0.89743 0.58820
 H1425 H 0.20283 0.90610 0.62410
 H1426 H 0.18155 0.92482 0.58793
 H1427 H 0.23487 0.91617 0.55209
 H1428 H 0.21930 0.94980 0.57934
 C1429 C 0.20816 0.10216 0.40133
 C1430 C 0.23228 0.10627 0.39561
 C1431 C 0.23661 0.08190 0.39764
 C1432 C 0.21270 0.07758 0.40311
 C1433 C 0.21372 0.10467 0.42541
 C1434 C 0.21805 0.08030 0.42743
 C1435 C 0.23764 0.10898 0.41994
 C1436 C 0.24215 0.08443 0.42172
 C1437 C 0.24947 0.06920 0.38232
 C1438 C 0.26015 0.05873 0.36980
 C1439 C 0.20115 0.11725 0.44108
 C1440 C 0.19099 0.12747 0.45421
 H1441 H 0.19404 0.10959 0.39313
 H1442 H 0.23829 0.11680 0.38235
 H1443 H 0.20260 0.06452 0.39602
 H1444 H 0.21205 0.06977 0.44069
 H1445 H 0.24774 0.12204 0.42702
 H1446 H 0.25627 0.07699 0.42993
 C1447 C 0.76942 0.08637 0.56512
 C1448 C 0.77784 0.06973 0.58179
 C1449 C 0.76384 0.08057 0.59927
 C1450 C 0.75522 0.09704 0.58284
 C1451 C 0.78812 0.10159 0.57126
 C1452 C 0.77412 0.11244 0.58875
 C1453 C 0.79676 0.08513 0.58770
 C1454 C 0.78254 0.09579 0.60543
 C1455 C 0.75023 0.06885 0.61478
 C1456 C 0.73897 0.05917 0.62745
 C1457 C 0.80144 0.11333 0.55551
 C1458 C 0.81214 0.12303 0.54238
 H1459 H 0.76417 0.08262 0.54836
 H1460 H 0.77922 0.05203 0.57909
 H1461 H 0.73799 0.10180 0.58101
 H1462 H 0.77274 0.13013 0.59144
 H1463 H 0.81399 0.08037 0.58952
 H1464 H 0.78778 0.09953 0.62219
 C1465 C 0.90179 0.56873 0.23781
 C1466 C 0.92456 0.57751 0.23190
 C1467 C 0.91691 0.60040 0.23777
 C1468 C 0.89432 0.59186 0.24388
 C1469 C 0.89450 0.57277 0.21443
 C1470 C 0.88683 0.59566 0.22029
 C1471 C 0.91708 0.58132 0.20831
 C1472 C 0.90962 0.60446 0.21438
 C1473 C 0.92943 0.61566 0.25087
 C1474 C 0.93978 0.62812 0.26173
 C1475 C 0.88211 0.55717 0.20160
 C1476 C 0.87204 0.54408 0.19125
 H1477 H 0.89843 0.55387 0.24731
 H1478 H 0.94021 0.57022 0.23683
 H1479 H 0.88511 0.59636 0.25866
 H1480 H 0.87118 0.60295 0.21536
 H1481 H 0.92629 0.57681 0.19354
 H1482 H 0.91299 0.61933 0.20490
 C1483 C 0.89878 0.42703 0.76348
 C1484 C 0.92370 0.42414 0.76318
 C1485 C 0.92050 0.39953 0.76422
 C1486 C 0.89576 0.40218 0.76431
 C1487 C 0.89935 0.42753 0.78831
 C1488 C 0.89614 0.40292 0.78936
 C1489 C 0.92410 0.42488 0.78823
 C1490 C 0.92108 0.40001 0.78906
 C1491 C 0.93229 0.38406 0.75069
 C1492 C 0.94205 0.37144 0.73947
 C1493 C 0.88756 0.44328 0.80152
 C1494 C 0.87782 0.45643 0.81212
 H1495 H 0.88948 0.43832 0.75311
 H1496 H 0.93516 0.43269 0.75227
 H1497 H 0.88424 0.39268 0.75431
 H1498 H 0.88468 0.39437 0.80028
 H1499 H 0.93561 0.43438 0.79822
 H1500 H 0.93039 0.38872 0.79941
 C1501 C 0.10938 0.57873 0.76502
 C1502 C 0.08552 0.57597 0.75780
 C1503 C 0.08108 0.59946 0.76457
 C1504 C 0.10476 0.60246 0.77160
 C1505 C 0.10291 0.57147 0.78791
 C1506 C 0.09847 0.59496 0.79469
 C1507 C 0.07923 0.56848 0.78088
 C1508 C 0.07460 0.59221 0.78745
 C1509 C 0.06893 0.61496 0.75146
 C1510 C 0.05895 0.62764 0.74059
 C1511 C 0.11507 0.55573 0.80071
 C1512 C 0.12508 0.54261 0.81102
 H1513 H 0.12382 0.57302 0.75594
 H1514 H 0.08007 0.56834 0.74249
 H1515 H 0.11511 0.61661 0.76763
 H1516 H 0.10393 0.60258 0.81000
 H1517 H 0.06887 0.55433 0.78484
 H1518 H 0.06015 0.59793 0.79652
 C1519 C 0.10374 0.42143 0.23082
 C1520 C 0.07913 0.42197 0.23569
 C1521 C 0.07776 0.39779 0.23014
 C1522 C 0.10221 0.39701 0.22545
 C1523 C 0.09890 0.42665 0.20703
 C1524 C 0.09755 0.40247 0.20145
 C1525 C 0.07446 0.42743 0.21172
 C1526 C 0.07290 0.40299 0.20635
 C1527 C 0.06607 0.38198 0.24340
 C1528 C 0.05651 0.36930 0.25474
 C1529 C 0.11076 0.44293 0.19450
 C1530 C 0.12061 0.45648 0.18450
 H1531 H 0.11654 0.42919 0.24075
 H1532 H 0.07143 0.42981 0.24992
 H1533 H 0.11349 0.38432 0.23124
 H1534 H 0.10526 0.39465 0.18722
 H1535 H 0.06318 0.44012 0.20593
 H1536 H 0.06009 0.39522 0.19644
   
