data_POSCAR
  _audit_creation_date              2014-09-24
  _audit_creation_method            'ToBaCCo'
  _symmetry_space_group_name_H-M    'P1'
  _symmetry_Int_Tables_number       1
  _symmetry_cell_setting            triclinic
  loop_
  _symmetry_equiv_pos_as_xyz
 x,y,z
_cell_length_a 70.0952
_cell_length_b 70.0952
_cell_length_c 70.0952
_cell_angle_alpha 90.000000
_cell_angle_beta 90.000000
_cell_angle_gamma 90.000000
loop_
  _atom_site_label
  _atom_site_type_symbol
  _atom_site_fract_x
  _atom_site_fract_y
  _atom_site_fract_z
C1 C 0.19240 0.22011 0.21457
 C2 C 0.20368 0.22524 0.19802
 C3 C 0.21954 0.21439 0.19251
 C4 C 0.22469 0.19746 0.20393
 C5 C 0.21352 0.19266 0.21995
 C6 C 0.19701 0.20416 0.22541
 C7 C 0.17631 0.22855 0.22344
 N8 N 0.17033 0.21869 0.23947
 C9 C 0.18312 0.20361 0.24054
 C10 C 0.22181 0.17597 0.22777
 N11 N 0.23759 0.16961 0.21768
 C12 C 0.23933 0.18299 0.20312
 C13 C 0.22694 0.22415 0.17588
 N14 N 0.21636 0.24035 0.17124
 C15 C 0.20222 0.24052 0.18498
 H16 H 0.16949 0.24139 0.21826
 H17 H 0.18292 0.19310 0.25185
 H18 H 0.21630 0.16906 0.24041
 H19 H 0.25024 0.18227 0.19223
 H20 H 0.23955 0.21979 0.16814
 H21 H 0.19111 0.25120 0.18576
 C22 C 0.69173 0.72136 0.71411
 C23 C 0.70374 0.72585 0.69764
 C24 C 0.71947 0.71425 0.69354
 C25 C 0.72396 0.69782 0.70554
 C26 C 0.71236 0.69368 0.72125
 C27 C 0.69589 0.70565 0.72572
 C28 C 0.67505 0.72970 0.72207
 N29 N 0.66837 0.72008 0.73808
 C30 C 0.68138 0.70534 0.74020
 C31 C 0.72031 0.67703 0.72962
 N32 N 0.73631 0.67034 0.72000
 C33 C 0.73844 0.68333 0.70524
 C34 C 0.72788 0.72213 0.67688
 N35 N 0.71829 0.73811 0.67010
 C36 C 0.70350 0.74029 0.68307
 H37 H 0.66843 0.74231 0.71618
 H38 H 0.68044 0.69472 0.75136
 H39 H 0.71443 0.67042 0.74224
 H40 H 0.74959 0.68236 0.69462
 H41 H 0.74052 0.71622 0.67033
 H42 H 0.69287 0.75143 0.68202
 C43 C 0.30676 0.78085 0.71621
 C44 C 0.29517 0.77579 0.69938
 C45 C 0.27926 0.78716 0.69458
 C46 C 0.27408 0.80387 0.70602
 C47 C 0.28525 0.80843 0.72174
 C48 C 0.30161 0.79689 0.72692
 C49 C 0.32330 0.77322 0.72597
 N50 N 0.32821 0.78384 0.74206
 C51 C 0.31474 0.79824 0.74215
 C52 C 0.27717 0.82501 0.72987
 N53 N 0.26119 0.83157 0.72014
 C54 C 0.25935 0.81829 0.70548
 C55 C 0.27133 0.77884 0.67793
 N56 N 0.28123 0.76288 0.67163
 C57 C 0.29579 0.76107 0.68499
 H58 H 0.33075 0.76039 0.72172
 H59 H 0.31419 0.80939 0.75281
 H60 H 0.28305 0.83145 0.74255
 H61 H 0.24823 0.81892 0.69479
 H62 H 0.25874 0.78446 0.67103
 H63 H 0.30654 0.75002 0.68434
 C64 C 0.80918 0.27961 0.21340
 C65 C 0.79766 0.27450 0.19701
 C66 C 0.78163 0.28521 0.19188
 C67 C 0.77657 0.30201 0.20352
 C68 C 0.78792 0.30674 0.21947
 C69 C 0.80460 0.29527 0.22463
 C70 C 0.82574 0.27144 0.22148
 N71 N 0.83225 0.28109 0.23752
 C72 C 0.81898 0.29575 0.23940
 C73 C 0.77966 0.32340 0.22744
 N74 N 0.76375 0.32977 0.21753
 C75 C 0.76190 0.31645 0.20293
 C76 C 0.77405 0.27551 0.17527
 N77 N 0.78471 0.25945 0.17030
 C78 C 0.79909 0.25936 0.18379
 H79 H 0.83218 0.25877 0.21558
 H80 H 0.81959 0.30639 0.25057
 H81 H 0.78530 0.33028 0.24003
 H82 H 0.75088 0.31720 0.19215
 H83 H 0.76125 0.27980 0.16778
 H84 H 0.81034 0.24882 0.18429
 C85 C 0.80898 0.72102 0.28668
 C86 C 0.79689 0.72537 0.30312
 C87 C 0.78119 0.71370 0.30711
 C88 C 0.77682 0.69730 0.29498
 C89 C 0.78849 0.69331 0.27925
 C90 C 0.80495 0.70541 0.27489
 C91 C 0.82562 0.72956 0.27889
 N92 N 0.83246 0.72026 0.26270
 C93 C 0.81951 0.70543 0.26039
 C94 C 0.78060 0.67666 0.27077
 N95 N 0.76459 0.66982 0.28031
 C96 C 0.76240 0.68272 0.29514
 C97 C 0.77269 0.72154 0.32378
 N98 N 0.78218 0.73756 0.33064
 C99 C 0.79702 0.73979 0.31773
 H100 H 0.83196 0.74211 0.28515
 H101 H 0.82044 0.69502 0.24904
 H102 H 0.78654 0.67015 0.25812
 H103 H 0.75122 0.68165 0.30573
 H104 H 0.76004 0.71558 0.33026
 H105 H 0.80759 0.75098 0.31881
 C106 C 0.30735 0.21952 -0.21355
 C107 C 0.29512 0.22400 -0.19728
 C108 C 0.27918 0.21257 -0.19347
 C109 C 0.27484 0.19609 -0.20558
 C110 C 0.28676 0.19193 -0.22108
 C111 C 0.30335 0.20392 -0.22532
 C112 C 0.32403 0.22805 -0.22121
 N113 N 0.33099 0.21875 -0.23734
 C114 C 0.31803 0.20393 -0.23973
 C115 C 0.27890 0.17534 -0.22965
 N116 N 0.26257 0.16863 -0.22048
 C117 C 0.26022 0.18165 -0.20572
 C118 C 0.27035 0.22094 -0.17719
 N119 N 0.27990 0.23700 -0.17052
 C120 C 0.29516 0.23866 -0.18297
 H121 H 0.33029 0.24063 -0.21494
 H122 H 0.31901 0.19353 -0.25109
 H123 H 0.28521 0.16890 -0.24213
 H124 H 0.24876 0.18085 -0.19541
 H125 H 0.25753 0.21532 -0.17071
 H126 H 0.30557 0.25003 -0.18216
 C127 C 0.69314 0.28257 -0.21593
 C128 C 0.70380 0.27607 -0.19898
 C129 C 0.72001 0.28628 -0.19330
 C130 C 0.72630 0.30303 -0.20369
 C131 C 0.71640 0.30946 -0.21960
 C132 C 0.69950 0.29887 -0.22584
 C133 C 0.67648 0.27617 -0.22625
 N134 N 0.67239 0.28758 -0.24200
 C135 C 0.68671 0.30133 -0.24127
 C136 C 0.72667 0.32615 -0.22601
 N137 N 0.74255 0.33007 -0.21474
 C138 C 0.74185 0.31562 -0.20118
 C139 C 0.72763 0.27674 -0.17725
 N140 N 0.71720 0.26085 -0.17209
 C141 C 0.70252 0.26050 -0.18549
 H142 H 0.66815 0.26377 -0.22236
 H143 H 0.68822 0.31300 -0.25118
 H144 H 0.72267 0.33459 -0.23830
 H145 H 0.75180 0.31392 -0.18957
 H146 H 0.74042 0.28129 -0.16990
 H147 H 0.69182 0.24939 -0.18602
 C148 C 0.19288 0.78088 0.28493
 C149 C 0.20301 0.77410 0.30189
 C150 C 0.21935 0.78357 0.30836
 C151 C 0.22617 0.80042 0.29815
 C152 C 0.21655 0.80721 0.28204
 C153 C 0.19952 0.79713 0.27532
 C154 C 0.17617 0.77476 0.27475
 N155 N 0.17205 0.78649 0.25937
 C156 C 0.18652 0.80003 0.26000
 C157 C 0.22699 0.82382 0.27591
 N158 N 0.24271 0.82754 0.28741
 C159 C 0.24178 0.81299 0.30092
 C160 C 0.22552 0.77345 0.32508
 N161 N 0.21368 0.75822 0.32941
 C162 C 0.20006 0.75887 0.31501
 H163 H 0.16745 0.76267 0.27877
 H164 H 0.18785 0.81161 0.24989
 H165 H 0.22318 0.83240 0.26366
 H166 H 0.25165 0.81119 0.31259
 H167 H 0.23770 0.77743 0.33369
 H168 H 0.18837 0.74887 0.31384
 C169 C 0.46992 0.44245 0.46620
 C170 C 0.47675 0.45276 0.44938
 C171 C 0.46717 0.46904 0.44286
 C172 C 0.45022 0.47573 0.45307
 C173 C 0.44349 0.46595 0.46915
 C174 C 0.45361 0.44892 0.47577
 C175 C 0.47610 0.42570 0.47631
 N176 N 0.46430 0.42138 0.49159
 C177 C 0.45069 0.43579 0.49099
 C178 C 0.42696 0.47632 0.47551
 N179 N 0.42316 0.49213 0.46422
 C180 C 0.43755 0.49139 0.45056
 C181 C 0.47765 0.47546 0.42640
 N182 N 0.49329 0.46399 0.42246
 C183 C 0.49236 0.45018 0.43668
 H184 H 0.48826 0.41709 0.47229
 H185 H 0.43905 0.43697 0.50104
 H186 H 0.41853 0.47251 0.48786
 H187 H 0.43905 0.50153 0.43906
 H188 H 0.47401 0.48797 0.41812
 H189 H 0.50234 0.43852 0.43804
 C190 C -0.03219 -0.05807 0.96628
 C191 C -0.02524 -0.04798 0.94936
 C192 C -0.03470 -0.03171 0.94266
 C193 C -0.05162 -0.02481 0.95269
 C194 C -0.05849 -0.03429 0.96884
 C195 C -0.04842 -0.05127 0.97576
 C196 C -0.02607 -0.07464 0.97677
 N197 N -0.03766 -0.07841 0.99240
 C198 C -0.05122 -0.06388 0.99138
 C199 C -0.07508 -0.02373 0.97485
 N200 N -0.07873 -0.00808 0.96321
 C201 C -0.06412 -0.00917 0.94977
 C202 C -0.02422 -0.02542 0.92621
 N203 N -0.00862 -0.03696 0.92238
 C204 C -0.00960 -0.05068 0.93670
 H205 H -0.01375 -0.08316 0.97306
 H206 H -0.06291 -0.06210 1.00124
 H207 H -0.08371 -0.02741 0.98711
 H208 H -0.06223 0.00063 0.93805
 H209 H -0.02783 -0.01298 0.91783
 H210 H 0.00037 -0.06233 0.93817
 C211 C 1.03065 0.55743 0.96329
 C212 C 1.02525 0.54614 0.94664
 C213 C 1.03603 0.53023 0.94202
 C214 C 1.05234 0.52484 0.95348
 C215 C 1.05790 0.53543 0.96947
 C216 C 1.04649 0.55247 0.97468
 C217 C 1.02271 0.57402 0.97146
 N218 N 1.03234 0.58036 0.98759
 C219 C 1.04692 0.56691 0.98950
 C220 C 1.07465 0.52539 0.97653
 N221 N 1.07912 0.50923 0.96568
 C222 C 1.06520 0.50957 0.95166
 C223 C 1.02771 0.52233 0.92539
 N224 N 1.01206 0.53254 0.91897
 C225 C 1.01057 0.54718 0.93225
 H226 H 1.01016 0.58061 0.96549
 H227 H 1.05746 0.56739 1.00077
 H228 H 1.08267 0.52967 0.98901
 H229 H 1.06418 0.49962 0.93997
 H230 H 1.03309 0.50959 0.91856
 H231 H 0.99984 0.55824 0.93151
 C232 C 0.53136 0.05710 0.46603
 C233 C 0.52452 0.04692 0.44913
 C234 C 0.53399 0.03058 0.44266
 C235 C 0.55088 0.02379 0.45283
 C236 C 0.55773 0.03346 0.46890
 C237 C 0.54765 0.05051 0.47560
 C238 C 0.52525 0.07384 0.47618
 N239 N 0.53702 0.07804 0.49151
 C240 C 0.55058 0.06358 0.49088
 C241 C 0.57437 0.02303 0.47500
 N242 N 0.57805 0.00727 0.46352
 C243 C 0.56345 0.00817 0.45006
 C244 C 0.52379 0.02437 0.42599
 N245 N 0.50853 0.03619 0.42170
 C246 C 0.50924 0.04985 0.43607
 H247 H 0.51314 0.08253 0.47217
 H248 H 0.56220 0.06231 0.50095
 H249 H 0.58299 0.02687 0.48720
 H250 H 0.56161 -0.00173 0.43843
 H251 H 0.52774 0.01218 0.41739
 H252 H 0.49924 0.06153 0.43727
 C253 C -0.03149 0.05836 0.53407
 C254 C -0.02571 0.04728 0.55077
 C255 C -0.03614 0.03109 0.55668
 C256 C -0.05322 0.02527 0.54574
 C257 C -0.05848 0.03619 0.52990
 C258 C -0.04758 0.05271 0.52401
 C259 C -0.02434 0.07486 0.52407
 N260 N -0.03540 0.07942 0.50826
 C261 C -0.04958 0.06568 0.50867
 C262 C -0.07500 0.02783 0.52217
 N263 N -0.08116 0.01187 0.53210
 C264 C -0.06751 0.01027 0.54655
 C265 C -0.02604 0.02409 0.57323
 N266 N -0.01006 0.03505 0.57761
 C267 C -0.01032 0.04913 0.56371
 H268 H -0.01160 0.08262 0.52803
 H269 H -0.06108 0.06485 0.49843
 H270 H -0.08159 0.03345 0.50946
 H271 H -0.06781 -0.00081 0.55729
 H272 H -0.03009 0.01151 0.58120
 H273 H 0.00004 0.06051 0.56278
 C274 C 0.46916 0.55667 0.03544
 C275 C 0.47537 0.54596 0.05251
 C276 C 0.46501 0.52975 0.05797
 C277 C 0.44847 0.52345 0.04726
 C278 C 0.44248 0.53335 0.03118
 C279 C 0.45313 0.55022 0.02518
 C280 C 0.47553 0.57346 0.02527
 N281 N 0.46439 0.57740 0.00926
 C282 C 0.45081 0.56295 0.00973
 C283 C 0.42602 0.52315 0.02426
 N284 N 0.42175 0.50736 0.03544
 C285 C 0.43568 0.50796 0.04946
 C286 C 0.47383 0.52246 0.07455
 N287 N 0.48937 0.53310 0.08038
 C288 C 0.49033 0.54751 0.06669
 H289 H 0.48776 0.58193 0.02938
 H290 H 0.43926 0.56137 -0.00031
 H291 H 0.41803 0.52703 0.01164
 H292 H 0.43673 0.49781 0.06102
 H293 H 0.46885 0.50981 0.08184
 H294 H 0.50085 0.55880 0.06703
 C295 C 0.53095 -0.05775 0.03492
 C296 C 0.52470 -0.04697 0.05191
 C297 C 0.53513 -0.03083 0.05750
 C298 C 0.55187 -0.02471 0.04695
 C299 C 0.55786 -0.03469 0.03089
 C300 C 0.54713 -0.05149 0.02483
 C301 C 0.52448 -0.07448 0.02472
 N302 N 0.53578 -0.07863 0.00889
 C303 C 0.54951 -0.06432 0.00947
 C304 C 0.57462 -0.02488 0.02422
 N305 N 0.57926 -0.00938 0.03564
 C306 C 0.56507 -0.00956 0.04940
 C307 C 0.52580 -0.02317 0.07367
 N308 N 0.50984 -0.03346 0.07893
 C309 C 0.50926 -0.04814 0.06554
 H310 H 0.51212 -0.08281 0.02874
 H311 H 0.56117 -0.06286 -0.00047
 H312 H 0.58306 -0.02927 0.01206
 H313 H 0.56414 0.00072 0.06087
 H314 H 0.53052 -0.01043 0.08100
 H315 H 0.49805 -0.05874 0.06511
 C316 C 1.02982 0.44340 0.53581
 C317 C 1.02500 0.45496 0.55225
 C318 C 1.03611 0.47075 0.55741
 C319 C 1.05302 0.47548 0.54578
 C320 C 1.05757 0.46392 0.52998
 C321 C 1.04577 0.44748 0.52482
 C322 C 1.02115 0.42721 0.52750
 N323 N 1.03076 0.42053 0.51151
 C324 C 1.04610 0.43305 0.51011
 C325 C 1.07429 0.47182 0.52191
 N326 N 1.08093 0.48787 0.53152
 C327 C 1.06764 0.49002 0.54615
 C328 C 1.02701 0.47808 0.57443
 N329 N 1.01111 0.46738 0.57974
 C330 C 1.01025 0.45341 0.56590
 H331 H 1.00853 0.42077 0.53351
 H332 H 1.05676 0.43223 0.49899
 H333 H 1.08077 0.46577 0.50933
 H334 H 1.06838 0.50127 0.55670
 H335 H 1.03227 0.49005 0.58264
 H336 H 0.99956 0.44227 0.56569
 C337 C 0.40589 0.00864 0.21975
 H338 H 0.40636 0.02165 0.22804
 C339 C 0.41881 0.00675 0.20378
 H340 H 0.42842 0.01853 0.20122
 C341 C 0.39366 -0.02165 0.21389
 H342 H 0.38406 -0.03322 0.21738
 C343 C 0.40648 -0.02406 0.19764
 H344 H 0.40574 -0.03722 0.18960
 N345 N 0.39311 -0.00531 0.22503
 C346 C 0.34195 0.02870 0.25881
 H347 H 0.34129 0.02024 0.27171
 C348 C 0.32857 0.04427 0.25664
 H349 H 0.31874 0.04672 0.26827
 C350 C 0.35535 0.03562 0.22925
 H351 H 0.36556 0.03269 0.21805
 C352 C 0.34213 0.05152 0.22660
 H353 H 0.34295 0.05965 0.21350
 Zn354 Zn 0.37443 -0.00073 0.24999
 N355 N 0.35537 0.02399 0.24525
 C356 C 0.39058 0.02107 0.28580
 N357 N 0.39293 0.00484 0.27500
 C358 C 0.40765 -0.00695 0.28097
 C359 C 0.42004 -0.00263 0.29717
 C360 C 0.40247 0.02575 0.30202
 C361 C 0.34350 -0.03366 0.24239
 C362 C 0.33136 -0.05007 0.24655
 C363 C 0.34458 -0.05098 0.27759
 C364 C 0.35645 -0.03476 0.27292
 N365 N 0.35623 -0.02590 0.25539
 H366 H 0.37925 0.03083 0.28201
 H367 H 0.41025 -0.01996 0.27309
 H368 H 0.43136 -0.01256 0.30058
 H369 H 0.39891 0.03868 0.30959
 H370 H 0.34252 -0.02724 0.22839
 H371 H 0.32203 -0.05530 0.23542
 H372 H 0.34572 -0.05642 0.29196
 H373 H 0.36586 -0.02920 0.28382
 C374 C 0.32782 0.05645 0.24025
 C375 C 0.41967 -0.00971 0.19167
 C376 C 0.33147 -0.05971 0.26451
 C377 C 0.41814 0.01424 0.30846
 C378 C 0.09126 -0.00727 0.71863
 H379 H 0.08938 -0.02049 0.72638
 C380 C 0.07890 -0.00364 0.70226
 H381 H 0.06852 -0.01439 0.69836
 C382 C 0.10659 0.02182 0.71425
 H383 H 0.11705 0.03237 0.71842
 C384 C 0.09469 0.02585 0.69785
 H385 H 0.09691 0.03935 0.69072
 N386 N 0.10525 0.00528 0.72478
 C387 C 0.15460 -0.03025 0.75973
 H388 H 0.15401 -0.02260 0.77312
 C389 C 0.16786 -0.04594 0.75802
 H390 H 0.17617 -0.04932 0.77055
 C391 C 0.14422 -0.03515 0.72859
 H392 H 0.13525 -0.03136 0.71661
 C393 C 0.15754 -0.05102 0.72628
 H394 H 0.15801 -0.05830 0.71268
 Zn395 Zn 0.12394 0.00035 0.74977
 N396 N 0.14270 -0.02452 0.74520
 C397 C 0.10645 -0.02206 0.78443
 N398 N 0.10560 -0.00488 0.77492
 C399 C 0.09228 0.00785 0.78210
 C400 C 0.08015 0.00378 0.79855
 C401 C 0.09470 -0.02659 0.80079
 C402 C 0.15484 0.03091 0.73956
 C403 C 0.16826 0.04651 0.74117
 C404 C 0.15826 0.05163 0.77297
 C405 C 0.14477 0.03586 0.77076
 N406 N 0.14299 0.02524 0.75416
 H407 H 0.11633 -0.03278 0.77937
 H408 H 0.09078 0.02156 0.77518
 H409 H 0.07032 0.01469 0.80331
 H410 H 0.09642 -0.04064 0.80691
 H411 H 0.15410 0.02328 0.72616
 H412 H 0.17648 0.04982 0.72857
 H413 H 0.15888 0.05889 0.78658
 H414 H 0.13589 0.03213 0.78282
 C415 C 0.17030 -0.05703 0.74101
 C416 C 0.08023 0.01320 0.69087
 C417 C 0.17096 0.05760 0.75816
 C418 C 0.08097 -0.01378 0.80888
 C419 C 0.59399 0.49147 0.22065
 H420 H 0.59296 0.47875 0.22933
 C421 C 0.58053 0.49387 0.20518
 H422 H 0.57022 0.48260 0.20299
 C423 C 0.60824 0.52052 0.21323
 H424 H 0.61878 0.53146 0.21595
 C425 C 0.59502 0.52335 0.19738
 H426 H 0.59617 0.53631 0.18907
 N427 N 0.60784 0.50469 0.22507
 C428 C 0.65890 0.47039 0.25883
 H429 H 0.65951 0.47883 0.27174
 C430 C 0.67229 0.45482 0.25668
 H431 H 0.68205 0.45234 0.26836
 C432 C 0.64564 0.46355 0.22919
 H433 H 0.63551 0.46652 0.21793
 C434 C 0.65888 0.44766 0.22655
 H435 H 0.65814 0.43957 0.21342
 Zn436 Zn 0.62673 0.50009 0.24989
 N437 N 0.64554 0.47514 0.24522
 C438 C 0.60950 0.47811 0.28512
 N439 N 0.60838 0.49502 0.27515
 C440 C 0.59472 0.50763 0.28191
 C441 C 0.58250 0.50371 0.29834
 C442 C 0.59768 0.47374 0.30149
 C443 C 0.65809 0.53020 0.23987
 C444 C 0.67154 0.54575 0.24165
 C445 C 0.66000 0.55194 0.27276
 C446 C 0.64663 0.53613 0.27045
 N447 N 0.64559 0.52501 0.25412
 H448 H 0.61968 0.46750 0.28043
 H449 H 0.59298 0.52112 0.27462
 H450 H 0.57239 0.51452 0.30272
 H451 H 0.59966 0.45990 0.30799
 H452 H 0.65793 0.52214 0.22671
 H453 H 0.68050 0.54862 0.22944
 H454 H 0.66004 0.55963 0.28615
 H455 H 0.63720 0.53278 0.28220
 C456 C 0.67315 0.44269 0.24025
 C457 C 0.58024 0.51010 0.19278
 C458 C 0.67340 0.55735 0.25837
 C459 C 0.58357 0.48644 0.30913
 C460 C 0.90703 0.50961 0.71821
 H461 H 0.90847 0.52308 0.72560
 C462 C 0.91987 0.50573 0.70228
 H463 H 0.93036 0.51641 0.69854
 C464 C 0.89246 0.48003 0.71444
 H465 H 0.88202 0.46946 0.71865
 C466 C 0.90493 0.47568 0.69858
 H467 H 0.90277 0.46212 0.69157
 N468 N 0.89334 0.49684 0.72456
 C469 C 0.84341 0.53143 0.75969
 H470 H 0.84365 0.52331 0.77282
 C471 C 0.82988 0.54688 0.75800
 H472 H 0.82090 0.54967 0.77021
 C473 C 0.85480 0.53753 0.72911
 H474 H 0.86424 0.53427 0.71734
 C475 C 0.84135 0.55327 0.72687
 H476 H 0.84124 0.56101 0.71352
 Zn477 Zn 0.87480 0.50167 0.74953
 N478 N 0.85590 0.52639 0.74540
 C479 C 0.89389 0.52216 0.78582
 N480 N 0.89365 0.50614 0.77424
 C481 C 0.90687 0.49238 0.77890
 C482 C 0.92032 0.49439 0.79440
 C483 C 0.90719 0.52466 0.80164
 C484 C 0.84345 0.46929 0.74162
 C485 C 0.83122 0.45289 0.74554
 C486 C 0.84476 0.45118 0.77641
 C487 C 0.85671 0.46741 0.77198
 N488 N 0.85638 0.47664 0.75465
 H489 H 0.88384 0.53349 0.78288
 H490 H 0.90732 0.47948 0.77044
 H491 H 0.93000 0.48264 0.79684
 H492 H 0.90660 0.53778 0.80974
 H493 H 0.84238 0.47603 0.72778
 H494 H 0.82174 0.44797 0.73439
 H495 H 0.84600 0.44540 0.79064
 H496 H 0.86628 0.47264 0.78290
 C497 C 0.82796 0.55850 0.74131
 C498 C 0.91956 0.48826 0.69180
 C499 C 0.83146 0.44285 0.76327
 C500 C 0.92132 0.51081 0.80649
 C501 C 0.21826 0.40683 0.00798
 H502 H 0.22542 0.40791 0.02160
 C503 C 0.20200 0.41938 0.00441
 H504 H 0.19762 0.42908 0.01560
 C505 C 0.21517 0.39328 -0.02215
 H506 H 0.21983 0.38346 -0.03310
 C507 C 0.19903 0.40552 -0.02621
 H508 H 0.19272 0.40421 -0.04021
 N509 N 0.22495 0.39359 -0.00511
 C510 C 0.25697 0.34137 0.02988
 H511 H 0.26969 0.33898 0.02147
 C512 C 0.25354 0.32897 0.04623
 H513 H 0.26393 0.31804 0.04949
 C514 C 0.22888 0.35804 0.03586
 H515 H 0.21871 0.36909 0.03233
 C516 C 0.22509 0.34614 0.05230
 H517 H 0.21212 0.34891 0.06017
 Zn518 Zn 0.24973 0.37458 -0.00039
 N519 N 0.24482 0.35603 0.02455
 C520 C 0.28512 0.39130 0.02125
 N521 N 0.27485 0.39275 0.00456
 C522 C 0.28125 0.40666 -0.00794
 C523 C 0.29767 0.41886 -0.00411
 C524 C 0.30152 0.40307 0.02550
 C525 C 0.24032 0.34190 -0.02915
 C526 C 0.24184 0.32851 -0.04477
 C527 C 0.27133 0.34235 -0.05357
 C528 C 0.26936 0.35556 -0.03754
 N529 N 0.25385 0.35560 -0.02527
 H530 H 0.28067 0.38088 0.03173
 H531 H 0.27366 0.40861 -0.02124
 H532 H 0.30180 0.42920 -0.01480
 H533 H 0.30839 0.40084 0.03912
 H534 H 0.22799 0.34098 -0.01991
 H535 H 0.23052 0.31814 -0.04598
 H536 H 0.28383 0.34354 -0.06254
 H537 H 0.28059 0.36588 -0.03519
 C538 C 0.23736 0.33098 0.05842
 C539 C 0.19140 0.41915 -0.01299
 C540 C 0.25740 0.32814 -0.05807
 C541 C 0.30876 0.41743 0.01290
 C542 C 0.71887 0.09223 -0.00802
 H543 H 0.72659 0.08993 -0.02118
 C544 C 0.70280 0.07972 -0.00374
 H545 H 0.69927 0.06859 -0.01383
 C546 C 0.71442 0.10870 0.02045
 H547 H 0.71836 0.11982 0.03040
 C548 C 0.69834 0.09665 0.02513
 H549 H 0.69095 0.09985 0.03826
 N550 N 0.72496 0.10669 0.00402
 C551 C 0.75903 0.15657 -0.03154
 H552 H 0.77204 0.15706 -0.02324
 C553 C 0.75712 0.16950 -0.04750
 H554 H 0.76887 0.17914 -0.05006
 C555 C 0.72879 0.14424 -0.03744
 H556 H 0.71725 0.13459 -0.03398
 C557 C 0.72634 0.15709 -0.05367
 H558 H 0.71320 0.15632 -0.06173
 Zn559 Zn 0.74988 0.12508 -0.00135
 N560 N 0.74512 0.14373 -0.02630
 C561 C 0.78387 0.10646 -0.02398
 N562 N 0.77483 0.10639 -0.00654
 C563 C 0.78238 0.09362 0.00656
 C564 C 0.79876 0.08135 0.00260
 C565 C 0.80007 0.09445 -0.02846
 C566 C 0.74280 0.15831 0.02912
 C567 C 0.74637 0.17073 0.04545
 C568 C 0.77512 0.15393 0.05097
 C569 C 0.77119 0.14200 0.03456
 N570 N 0.75503 0.14381 0.02352
 H571 H 0.77852 0.11589 -0.03497
 H572 H 0.77584 0.09274 0.02051
 H573 H 0.80381 0.07202 0.01382
 H574 H 0.80565 0.09552 -0.04278
 H575 H 0.72989 0.16055 0.02096
 H576 H 0.73589 0.18152 0.04891
 H577 H 0.78827 0.15129 0.05860
 H578 H 0.78144 0.13108 0.03085
 C579 C 0.74067 0.17032 -0.05961
 C580 C 0.69182 0.08123 0.01337
 C581 C 0.76278 0.16892 0.05736
 C582 C 0.80860 0.08133 -0.01526
 C583 C 0.22017 0.59353 0.49181
 H584 H 0.22799 0.59389 0.47851
 C585 C 0.20445 0.58027 0.49353
 H586 H 0.20126 0.57175 0.48109
 C587 C 0.21480 0.60444 0.52267
 H588 H 0.21837 0.61365 0.53453
 C589 C 0.19890 0.59114 0.52498
 H590 H 0.19141 0.59094 0.53848
 N591 N 0.22569 0.60572 0.50619
 C592 C 0.25676 0.65794 0.47054
 H593 H 0.26983 0.66049 0.47834
 C594 C 0.25246 0.67027 0.45429
 H595 H 0.26245 0.68150 0.45078
 C596 C 0.22859 0.64106 0.46593
 H597 H 0.21874 0.62985 0.46984
 C598 C 0.22392 0.65289 0.44967
 H599 H 0.21093 0.64937 0.44219
 Zn600 Zn 0.25042 0.62487 0.50168
 N601 N 0.24489 0.64333 0.47664
 C602 C 0.28554 0.60788 0.47933
 N603 N 0.27573 0.60670 0.49632
 C604 C 0.28264 0.59305 0.50887
 C605 C 0.29909 0.58091 0.50480
 C606 C 0.30192 0.59612 0.47481
 C607 C 0.24078 0.65660 0.53173
 C608 C 0.24275 0.67005 0.54728
 C609 C 0.27347 0.65771 0.55383
 C610 C 0.27100 0.64441 0.53796
 N611 N 0.25477 0.64375 0.52667
 H612 H 0.28072 0.61805 0.46878
 H613 H 0.27547 0.59128 0.52242
 H614 H 0.30359 0.57080 0.51556
 H615 H 0.30830 0.59814 0.46092
 H616 H 0.22770 0.65677 0.52353
 H617 H 0.23079 0.67939 0.55000
 H618 H 0.28677 0.65742 0.56166
 H619 H 0.28256 0.63470 0.53474
 C620 C 0.23552 0.66843 0.44309
 C621 C 0.19306 0.57812 0.51040
 C622 C 0.25937 0.67148 0.55909
 C623 C 0.30972 0.58203 0.48744
 C624 C 0.71708 0.90632 0.50813
 H625 H 0.72358 0.90731 0.52210
 C626 C 0.70066 0.91851 0.50404
 H627 H 0.69553 0.92787 0.51519
 C628 C 0.71576 0.89332 0.47765
 H629 H 0.72121 0.88388 0.46672
 C630 C 0.69953 0.90523 0.47305
 H631 H 0.69401 0.90407 0.45872
 N632 N 0.72473 0.89354 0.49512
 C633 C 0.75953 0.84387 0.53050
 H634 H 0.77270 0.84387 0.52244
 C635 C 0.75760 0.83047 0.54606
 H636 H 0.76969 0.82135 0.54896
 C637 C 0.72907 0.85567 0.53639
 H638 H 0.71742 0.86522 0.53300
 C639 C 0.72661 0.84237 0.55223
 H640 H 0.71322 0.84248 0.55991
 Zn641 Zn 0.74986 0.87513 0.50038
 N642 N 0.74541 0.85649 0.52530
 C643 C 0.78529 0.89509 0.52168
 N644 N 0.77479 0.89384 0.50495
 C645 C 0.78075 0.90586 0.49061
 C646 C 0.79649 0.91904 0.49267
 C647 C 0.80123 0.90825 0.52430
 C648 C 0.74048 0.84335 0.47048
 C649 C 0.74246 0.82991 0.45494
 C650 C 0.77328 0.84210 0.44856
 C651 C 0.77077 0.85545 0.46437
 N652 N 0.75448 0.85616 0.47557
 H653 H 0.78132 0.88600 0.53351
 H654 H 0.77324 0.90548 0.47714
 H655 H 0.80004 0.92757 0.48033
 H656 H 0.80837 0.90851 0.53798
 H657 H 0.72734 0.84326 0.47859
 H658 H 0.73043 0.82069 0.45214
 H659 H 0.78662 0.84234 0.44079
 H660 H 0.78233 0.86514 0.46763
 C661 C 0.74085 0.82884 0.55764
 C662 C 0.69090 0.91839 0.48614
 C663 C 0.75915 0.82839 0.44323
 C664 C 0.80744 0.92117 0.50981
 C665 C 0.00794 0.22004 0.40769
 H666 H 0.02119 0.22772 0.40963
 C667 C 0.00419 0.20364 0.41993
 H668 H 0.01487 0.19961 0.43031
 C669 C -0.02118 0.21592 0.39226
 H670 H -0.03167 0.22025 0.38182
 C671 C -0.02534 0.19952 0.40405
 H672 H -0.03889 0.19251 0.40179
 N673 N -0.00456 0.22629 0.39371
 C674 C 0.02978 0.26058 0.34344
 H675 H 0.02097 0.27323 0.34260
 C676 C 0.04556 0.25877 0.33032
 H677 H 0.04746 0.27022 0.32018
 C678 C 0.03695 0.23101 0.35672
 H679 H 0.03400 0.21969 0.36680
 C680 C 0.05306 0.22870 0.34375
 H681 H 0.06160 0.21588 0.34485
 Zn682 Zn 0.00036 0.25130 0.37536
 N683 N 0.02526 0.24695 0.35681
 C684 C 0.01895 0.28958 0.39273
 N685 N 0.00457 0.27607 0.39417
 C686 C -0.00757 0.27858 0.40937
 C687 C -0.00577 0.29402 0.42287
 C688 C 0.02106 0.30554 0.40594
 C689 C -0.02995 0.24119 0.34442
 C690 C -0.04557 0.24290 0.33108
 C691 C -0.05093 0.27452 0.34164
 C692 C -0.03513 0.27220 0.35503
 N693 N -0.02441 0.25565 0.35647
 H694 H 0.02908 0.28829 0.38116
 H695 H -0.01889 0.26829 0.41147
 H696 H -0.01584 0.29400 0.43451
 H697 H 0.03256 0.31556 0.40355
 H698 H -0.02220 0.22785 0.34493
 H699 H -0.04881 0.23042 0.32264
 H700 H -0.05830 0.28808 0.34124
 H701 H -0.03147 0.28412 0.36412
 C702 C 0.05825 0.24274 0.32993
 C703 C -0.01274 0.19242 0.41847
 C704 C -0.05676 0.25986 0.32873
 C705 C 0.00854 0.30862 0.42174
 C706 C -0.00902 0.71844 0.09429
 H707 H -0.02260 0.72575 0.09498
 C708 C -0.00707 0.70266 0.08110
 H709 H -0.01960 0.69890 0.07295
 C710 C 0.02237 0.71445 0.10423
 H711 H 0.03439 0.71864 0.11296
 C712 C 0.02489 0.69848 0.09103
 H713 H 0.03868 0.69156 0.09045
 N714 N 0.00553 0.72471 0.10592
 C715 C -0.02952 0.76012 0.15549
 H716 H -0.02200 0.77357 0.15463
 C717 C -0.04515 0.75852 0.16887
 H718 H -0.04858 0.77117 0.17697
 C719 C -0.03425 0.72880 0.14566
 H720 H -0.03045 0.71670 0.13686
 C721 C -0.05006 0.72661 0.15910
 H722 H -0.05725 0.71297 0.15980
 Zn723 Zn 0.00095 0.74987 0.12457
 N724 N -0.02373 0.74545 0.14380
 C725 C -0.02227 0.78370 0.10625
 N726 N -0.00475 0.77482 0.10591
 C727 C 0.00809 0.78254 0.09298
 C728 C 0.00381 0.79895 0.08083
 C729 C -0.02706 0.79991 0.09437
 C730 C 0.03208 0.74350 0.15750
 C731 C 0.04822 0.74780 0.16997
 C732 C 0.05303 0.77631 0.15258
 C733 C 0.03687 0.77164 0.14060
 N734 N 0.02611 0.75535 0.14283
 H735 H -0.03309 0.77821 0.11579
 H736 H 0.02209 0.77614 0.09187
 H737 H 0.01485 0.80414 0.07138
 H738 H -0.04142 0.80534 0.09566
 H739 H 0.02421 0.73047 0.16003
 H740 H 0.05161 0.73783 0.18125
 H741 H 0.06055 0.78929 0.14912
 H742 H 0.03304 0.78147 0.12935
 C743 C -0.05616 0.74150 0.17164
 C744 C 0.01017 0.69195 0.07852
 C745 C 0.05945 0.76473 0.16821
 C746 C -0.01414 0.80864 0.08110
 C747 C 0.49396 0.21839 0.59299
 H748 H 0.48086 0.22616 0.59054
 C749 C 0.49826 0.20221 0.58055
 H750 H 0.48821 0.19871 0.56938
 C751 C 0.52226 0.21384 0.60967
 H752 H 0.53217 0.21776 0.62083
 C753 C 0.52693 0.19764 0.59773
 H754 H 0.53997 0.19021 0.60114
 N755 N 0.50590 0.22450 0.60754
 C756 C 0.46990 0.25947 0.65689
 H757 H 0.47752 0.27288 0.65633
 C758 C 0.45417 0.25773 0.67014
 H759 H 0.45077 0.27026 0.67843
 C760 C 0.46507 0.22835 0.64649
 H761 H 0.46887 0.21639 0.63751
 C762 C 0.44917 0.22601 0.65980
 H763 H 0.44191 0.21240 0.66022
 Zn764 Zn 0.50052 0.24962 0.62595
 N765 N 0.47569 0.24498 0.64496
 C766 C 0.47859 0.28510 0.60921
 N767 N 0.49504 0.27453 0.60725
 C768 C 0.50709 0.28073 0.59283
 C769 C 0.50284 0.29691 0.58038
 C770 C 0.47397 0.30129 0.59726
 C771 C 0.53314 0.24235 0.65738
 C772 C 0.54954 0.24651 0.66957
 C773 C 0.55084 0.27734 0.65595
 C774 C 0.53462 0.27267 0.64403
 N775 N 0.52558 0.25524 0.64441
 H776 H 0.46859 0.28112 0.62026
 H777 H 0.52028 0.27306 0.59053
 H778 H 0.51299 0.30050 0.56933
 H779 H 0.46085 0.30865 0.60055
 H780 H 0.52659 0.22843 0.65852
 H781 H 0.55460 0.23544 0.67907
 H782 H 0.55642 0.29164 0.65464
 H783 H 0.52925 0.28351 0.63443
 C784 C 0.44306 0.24072 0.67255
 C785 C 0.51527 0.19108 0.58222
 C786 C 0.55939 0.26436 0.66928
 C787 C 0.48576 0.30797 0.58191
 C788 C 0.49681 0.72433 0.91510
 H789 H 0.50076 0.73762 0.92188
 C790 C 0.49348 0.70775 0.92725
 H791 H 0.49492 0.70942 0.94253
 C792 C 0.49001 0.70654 0.88792
 H793 H 0.48850 0.70528 0.87261
 C794 C 0.48642 0.68982 0.89953
 H795 H 0.48255 0.67683 0.89217
 N796 N 0.49505 0.72400 0.89541
 C797 C 0.52937 0.75943 0.84551
 H798 H 0.52138 0.77263 0.84589
 C799 C 0.54484 0.75776 0.83196
 H800 H 0.54772 0.77006 0.82313
 C801 C 0.53524 0.72868 0.85656
 H802 H 0.53190 0.71683 0.86587
 C803 C 0.55098 0.72648 0.84309
 H804 H 0.55863 0.71308 0.84285
 Zn805 Zn 0.49955 0.74922 0.87698
 N806 N 0.52420 0.74504 0.85784
 C807 C 0.52205 0.78339 0.89532
 N808 N 0.50469 0.77420 0.89560
 C809 C 0.49165 0.78162 0.90849
 C810 C 0.49559 0.79805 0.92070
 C811 C 0.52649 0.79964 0.90725
 C812 C 0.47509 0.75455 0.83885
 C813 C 0.45845 0.75778 0.82675
 C814 C 0.43954 0.75959 0.85464
 C815 C 0.45638 0.75642 0.86618
 N816 N 0.47433 0.75396 0.85861
 H817 H 0.53298 0.77813 0.88579
 H818 H 0.47778 0.77494 0.90953
 H819 H 0.48443 0.80302 0.93014
 H820 H 0.54074 0.80537 0.90603
 H821 H 0.48876 0.75259 0.83198
 H822 H 0.46049 0.75827 0.81146
 H823 H 0.42618 0.76095 0.86220
 H824 H 0.45475 0.75589 0.88152
 C825 C 0.55636 0.74103 0.82986
 C826 C 0.48784 0.68960 0.91993
 C827 C 0.43971 0.76069 0.83419
 C828 C 0.51335 0.80806 0.92049
 C829 C 0.12694 0.22102 0.27667
 C830 C 0.12425 0.24042 0.27720
 C831 C 0.13585 0.25266 0.26647
 C832 C 0.15059 0.24509 0.25469
 C833 C 0.15459 0.22515 0.25305
 C834 C 0.14222 0.21289 0.26474
 O835 O 0.11391 0.21210 0.28809
 C836 C 0.10291 0.22616 0.29590
 C837 C 0.10885 0.24371 0.28959
 C838 C 0.09978 0.26039 0.29578
 C839 C 0.08407 0.25936 0.30867
 C840 C 0.07643 0.24183 0.31589
 C841 C 0.08668 0.22477 0.30917
 H842 H 0.13358 0.26792 0.26708
 H843 H 0.15920 0.25518 0.24681
 H844 H 0.14415 0.19759 0.26433
 H845 H 0.10477 0.27415 0.29085
 H846 H 0.07807 0.27279 0.31324
 H847 H 0.08206 0.21083 0.31392
 C848 C 0.62737 0.72314 0.77806
 C849 C 0.61542 0.73608 0.76950
 C850 C 0.61980 0.74368 0.75154
 C851 C 0.63685 0.73813 0.74189
 C852 C 0.65038 0.72487 0.74953
 C853 C 0.64505 0.71718 0.76834
 O854 O 0.62016 0.71777 0.79536
 C855 C 0.60343 0.72752 0.79764
 C856 C 0.60006 0.73890 0.78208
 C857 C 0.58366 0.75029 0.78115
 C858 C 0.57026 0.75032 0.79649
 C859 C 0.57244 0.73921 0.81350
 C860 C 0.58975 0.72729 0.81361
 H861 H 0.61020 0.75380 0.74492
 H862 H 0.63922 0.74434 0.72800
 H863 H 0.65437 0.70702 0.77528
 H864 H 0.58109 0.75907 0.76871
 H865 H 0.55773 0.75912 0.79470
 H866 H 0.59264 0.71832 0.82583
 C867 C 0.37513 0.77094 0.77255
 C868 C 0.36959 0.77803 0.78995
 C869 C 0.35151 0.78617 0.79237
 C870 C 0.33861 0.78738 0.77669
 C871 C 0.34294 0.78069 0.75789
 C872 C 0.36199 0.77200 0.75610
 O873 O 0.39324 0.76377 0.77373
 C874 C 0.39908 0.76643 0.79217
 C875 C 0.38495 0.77514 0.80252
 C876 C 0.38769 0.77954 0.82182
 C877 C 0.40521 0.77487 0.83108
 C878 C 0.42083 0.76548 0.82182
 C879 C 0.41730 0.76145 0.80147
 H880 H 0.34729 0.79158 0.80620
 H881 H 0.32479 0.79362 0.77950
 H882 H 0.36657 0.76657 0.74240
 H883 H 0.37649 0.78663 0.82974
 H884 H 0.40648 0.77913 0.84583
 H885 H 0.42828 0.75450 0.79315
 C886 C -0.12748 0.27881 0.27672
 C887 C -0.11657 0.26444 0.26915
 C888 C -0.12169 0.25566 0.25202
 C889 C -0.13843 0.26146 0.24211
 C890 C -0.15103 0.27630 0.24858
 C891 C -0.14487 0.28521 0.26665
 O892 O -0.11962 0.28499 0.29349
 C893 C -0.10354 0.27428 0.29635
 C894 C -0.10122 0.26158 0.28168
 C895 C -0.08562 0.24912 0.28127
 C896 C -0.07192 0.24932 0.29629
 C897 C -0.07305 0.26166 0.31254
 C898 C -0.08956 0.27469 0.31208
 H899 H -0.11287 0.24439 0.24622
 H900 H -0.14109 0.25407 0.22891
 H901 H -0.15333 0.29655 0.27280
 H902 H -0.08388 0.23935 0.26944
 H903 H -0.05999 0.23970 0.29478
 H904 H -0.09161 0.28468 0.32366
 C905 C -0.12694 0.72264 0.22382
 C906 C -0.11651 0.73755 0.23100
 C907 C -0.12211 0.74674 0.24781
 C908 C -0.13882 0.74077 0.25776
 C909 C -0.15086 0.72534 0.25167
 C910 C -0.14425 0.71609 0.23393
 O911 O -0.11875 0.71609 0.20735
 C912 C -0.10293 0.72711 0.20424
 C913 C -0.10110 0.74039 0.21848
 C914 C -0.08581 0.75326 0.21851
 C915 C -0.07196 0.75286 0.20360
 C916 C -0.07259 0.73991 0.18779
 C917 C -0.08879 0.72649 0.18863
 H918 H -0.11372 0.75848 0.25330
 H919 H -0.14200 0.74858 0.27062
 H920 H -0.15228 0.70430 0.22806
 H921 H -0.08442 0.76350 0.22998
 H922 H -0.06031 0.76286 0.20485
 H923 H -0.09048 0.71602 0.17742
 C924 C 0.37186 0.22140 0.72403
 C925 C 0.38230 0.23618 0.73147
 C926 C 0.37663 0.24518 0.74835
 C927 C 0.35984 0.23917 0.75812
 C928 C 0.34777 0.22386 0.75178
 C929 C 0.35445 0.21479 0.73396
 O930 O 0.38013 0.21504 0.70753
 C931 C 0.39601 0.22604 0.70466
 C932 C 0.39780 0.23912 0.71908
 C933 C 0.41314 0.25193 0.71939
 C934 C 0.42709 0.25168 0.70457
 C935 C 0.42651 0.23895 0.68857
 C936 C 0.41025 0.22558 0.68913
 H937 H 0.38505 0.25681 0.75404
 H938 H 0.35665 0.24681 0.77107
 H939 H 0.34640 0.20311 0.72791
 H940 H 0.41449 0.26201 0.73101
 H941 H 0.43877 0.26161 0.70605
 H942 H 0.40859 0.21528 0.67777
 C943 C 0.62694 0.27282 0.72814
 C944 C 0.62840 0.28579 0.71356
 C945 C 0.64340 0.29893 0.71307
 C946 C 0.65744 0.29910 0.72777
 C947 C 0.65749 0.28625 0.74377
 C948 C 0.64141 0.27261 0.74352
 O949 O 0.61114 0.26164 0.72551
 C950 C 0.60265 0.26777 0.70901
 C951 C 0.61288 0.28254 0.70129
 C952 C 0.60709 0.29113 0.68420
 C953 C 0.59032 0.28475 0.67460
 C954 C 0.57828 0.26971 0.68146
 C955 C 0.58520 0.26097 0.69933
 H956 H 0.64436 0.30904 0.70145
 H957 H 0.66853 0.30960 0.72609
 H958 H 0.64005 0.26228 0.75489
 H959 H 0.61546 0.30262 0.67817
 H960 H 0.58705 0.29171 0.66125
 H961 H 0.57719 0.24939 0.70564
 C962 C 0.12777 0.77132 0.22622
 C963 C 0.12365 0.78868 0.21816
 C964 C 0.13428 0.80494 0.22298
 C965 C 0.14964 0.80365 0.23630
 C966 C 0.15516 0.78629 0.24552
 C967 C 0.14347 0.76968 0.24015
 O968 O 0.11569 0.75766 0.21929
 C969 C 0.10379 0.76665 0.20672
 C970 C 0.10821 0.78568 0.20568
 C971 C 0.09777 0.79790 0.19381
 C972 C 0.08245 0.79069 0.18248
 C973 C 0.07680 0.77103 0.18210
 C974 C 0.08807 0.75888 0.19506
 H975 H 0.13084 0.81855 0.21655
 H976 H 0.15718 0.81668 0.23959
 H977 H 0.14659 0.75591 0.24637
 H978 H 0.10125 0.81294 0.19331
 H979 H 0.07476 0.80107 0.17411
 H980 H 0.08486 0.74382 0.19595
 C981 C 0.27750 0.12846 0.22159
 C982 C 0.26777 0.11563 0.23273
 C983 C 0.24907 0.11940 0.23866
 C984 C 0.23988 0.13675 0.23331
 C985 C 0.24872 0.15126 0.22195
 C986 C 0.26828 0.14653 0.21587
 O987 O 0.29535 0.12165 0.21760
 C988 C 0.29677 0.10429 0.22641
 C989 C 0.28014 0.10014 0.23586
 C990 C 0.27820 0.08305 0.24605
 C991 C 0.29358 0.06972 0.24687
 C992 C 0.31161 0.07262 0.23771
 C993 C 0.31280 0.09066 0.22698
 H994 H 0.24152 0.10909 0.24732
 H995 H 0.22536 0.13861 0.23810
 H996 H 0.27614 0.15659 0.20720
 H997 H 0.26495 0.07990 0.25333
 H998 H 0.29105 0.05667 0.25468
 H999 H 0.32585 0.09414 0.21952
 C1000 C 0.77628 0.62944 0.72328
 C1001 C 0.76756 0.61737 0.73599
 C1002 C 0.74949 0.62163 0.74336
 C1003 C 0.73989 0.63869 0.73781
 C1004 C 0.74771 0.65235 0.72478
 C1005 C 0.76663 0.64714 0.71731
 O1006 O 0.79368 0.62234 0.71809
 C1007 C 0.79585 0.60554 0.72774
 C1008 C 0.78014 0.60203 0.73886
 C1009 C 0.77907 0.58554 0.75010
 C1010 C 0.79444 0.57219 0.75025
 C1011 C 0.81159 0.57453 0.73940
 C1012 C 0.81185 0.59192 0.72763
 H1013 H 0.74274 0.61192 0.75329
 H1014 H 0.72590 0.64099 0.74382
 H1015 H 0.77369 0.65656 0.70734
 H1016 H 0.76651 0.58287 0.75867
 H1017 H 0.79256 0.55957 0.75891
 H1018 H 0.82419 0.59491 0.71886
 C1019 C 0.77244 0.37556 0.77100
 C1020 C 0.78719 0.37373 0.78372
 C1021 C 0.78781 0.35845 0.79651
 C1022 C 0.77304 0.34451 0.79659
 C1023 C 0.75685 0.34487 0.78400
 C1024 C 0.75697 0.36121 0.77071
 O1025 O 0.77498 0.39159 0.76015
 C1026 C 0.79162 0.39982 0.76622
 C1027 C 0.79949 0.38922 0.78064
 C1028 C 0.81673 0.39469 0.78912
 C1029 C 0.82633 0.41154 0.78299
 C1030 C 0.81930 0.42394 0.76834
 C1031 C 0.80128 0.41735 0.75969
 H1032 H 0.79959 0.35719 0.80641
 H1033 H 0.77484 0.33316 0.80678
 H1034 H 0.74544 0.36286 0.76059
 H1035 H 0.82288 0.38602 0.80032
 H1036 H 0.83980 0.41460 0.78981
 H1037 H 0.79486 0.42567 0.74840
 C1038 C 0.27271 -0.12717 0.27289
 C1039 C 0.28717 -0.12859 0.28599
 C1040 C 0.28753 -0.14355 0.29920
 C1041 C 0.27281 -0.15758 0.29929
 C1042 C 0.25697 -0.15762 0.28627
 C1043 C 0.25734 -0.14159 0.27260
 O1044 O 0.27541 -0.11143 0.26167
 C1045 C 0.29185 -0.10293 0.26788
 C1046 C 0.29946 -0.11309 0.28276
 C1047 C 0.31648 -0.10725 0.29145
 C1048 C 0.32611 -0.09051 0.28505
 C1049 C 0.31933 -0.07857 0.26990
 C1050 C 0.30154 -0.08553 0.26106
 H1051 H 0.29906 -0.14448 0.30943
 H1052 H 0.27430 -0.16864 0.30985
 H1053 H 0.24606 -0.14025 0.26216
 H1054 H 0.32244 -0.11556 0.30303
 H1055 H 0.33940 -0.08717 0.29208
 H1056 H 0.29531 -0.07758 0.24940
 C1057 C 0.22212 -0.12799 0.72224
 C1058 C 0.22965 -0.11712 0.73667
 C1059 C 0.24671 -0.12234 0.74554
 C1060 C 0.25658 -0.13912 0.73978
 C1061 C 0.25016 -0.15167 0.72488
 C1062 C 0.23217 -0.14542 0.71588
 O1063 O 0.20543 -0.12004 0.71597
 C1064 C 0.20257 -0.10396 0.72668
 C1065 C 0.21717 -0.10173 0.73948
 C1066 C 0.21756 -0.08615 0.75197
 C1067 C 0.20260 -0.07238 0.75170
 C1068 C 0.18642 -0.07341 0.73926
 C1069 C 0.18690 -0.08990 0.72619
 H1070 H 0.25248 -0.11356 0.75687
 H1071 H 0.26972 -0.14184 0.74726
 H1072 H 0.22605 -0.15383 0.70448
 H1073 H 0.22934 -0.08447 0.76182
 H1074 H 0.20411 -0.06047 0.76136
 H1075 H 0.17537 -0.09188 0.71613
 C1076 C 0.72375 0.37085 0.22148
 C1077 C 0.73333 0.38356 0.23289
 C1078 C 0.75195 0.37971 0.23902
 C1079 C 0.76122 0.36243 0.23360
 C1080 C 0.75254 0.34804 0.22195
 C1081 C 0.73306 0.35285 0.21567
 O1082 O 0.70595 0.37770 0.21734
 C1083 C 0.70440 0.39497 0.22632
 C1084 C 0.72091 0.39902 0.23602
 C1085 C 0.72271 0.41601 0.24640
 C1086 C 0.70732 0.42934 0.24716
 C1087 C 0.68940 0.42653 0.23775
 C1088 C 0.68836 0.40859 0.22682
 H1089 H 0.75939 0.38993 0.24790
 H1090 H 0.77567 0.36052 0.23856
 H1091 H 0.72531 0.34290 0.20679
 H1092 H 0.73587 0.41909 0.25387
 H1093 H 0.70977 0.44231 0.25512
 H1094 H 0.67540 0.40519 0.21917
 C1095 C 0.72480 0.62861 0.27685
 C1096 C 0.73346 0.61678 0.26387
 C1097 C 0.75143 0.62131 0.25636
 C1098 C 0.76097 0.63838 0.26205
 C1099 C 0.75322 0.65180 0.27537
 C1100 C 0.73441 0.64632 0.28296
 O1101 O 0.70751 0.62127 0.28212
 C1102 C 0.70534 0.60458 0.27226
 C1103 C 0.72096 0.60136 0.26092
 C1104 C 0.72201 0.58502 0.24945
 C1105 C 0.70675 0.57153 0.24929
 C1106 C 0.68968 0.57355 0.26034
 C1107 C 0.68943 0.59080 0.27235
 H1108 H 0.75813 0.61180 0.24621
 H1109 H 0.77487 0.64086 0.25590
 H1110 H 0.72738 0.65553 0.29315
 H1111 H 0.73450 0.58256 0.24071
 H1112 H 0.70866 0.55906 0.24044
 H1113 H 0.67717 0.59358 0.28129
 C1114 C 0.22344 0.12823 0.77705
 C1115 C 0.23064 0.11771 0.76221
 C1116 C 0.24753 0.12321 0.75308
 C1117 C 0.25755 0.13989 0.75905
 C1118 C 0.25146 0.15200 0.77443
 C1119 C 0.23362 0.14551 0.78359
 O1120 O 0.20690 0.12014 0.78354
 C1121 C 0.20375 0.10430 0.77256
 C1122 C 0.21805 0.10235 0.75935
 C1123 C 0.21806 0.08702 0.74654
 C1124 C 0.20307 0.07323 0.74691
 C1125 C 0.18719 0.07398 0.75978
 C1126 C 0.18806 0.09023 0.77315
 H1127 H 0.25303 0.11475 0.74139
 H1128 H 0.27046 0.14298 0.75130
 H1129 H 0.22774 0.15361 0.79533
 H1130 H 0.22957 0.08553 0.73636
 H1131 H 0.20432 0.06155 0.73696
 H1132 H 0.17681 0.09202 0.78355
 C1133 C 0.22916 0.27055 0.12415
 C1134 C 0.22138 0.28778 0.12927
 C1135 C 0.21284 0.29022 0.14715
 C1136 C 0.21191 0.27472 0.16027
 C1137 C 0.21923 0.25605 0.15634
 C1138 C 0.22834 0.25427 0.13750
 O1139 O 0.23668 0.27169 0.10619
 C1140 C 0.23352 0.28992 0.10002
 C1141 C 0.22413 0.30019 0.11377
 C1142 C 0.21917 0.31931 0.11064
 C1143 C 0.22373 0.32838 0.09300
 C1144 C 0.23343 0.31903 0.07765
 C1145 C 0.23853 0.29906 0.08176
 H1146 H 0.20692 0.30394 0.15106
 H1147 H 0.20539 0.27760 0.17394
 H1148 H 0.23430 0.24069 0.13323
 H1149 H 0.21183 0.32726 0.12166
 H1150 H 0.21979 0.34322 0.09154
 H1151 H 0.24591 0.29081 0.07101
 C1152 C 0.72205 0.77784 0.62895
 C1153 C 0.73460 0.76885 0.61689
 C1154 C 0.74167 0.75068 0.62123
 C1155 C 0.73600 0.74125 0.63835
 C1156 C 0.72315 0.74935 0.65201
 C1157 C 0.71597 0.76837 0.64672
 O1158 O 0.71715 0.79528 0.62175
 C1159 C 0.72680 0.79721 0.60491
 C1160 C 0.73765 0.78130 0.60147
 C1161 C 0.74885 0.77997 0.58497
 C1162 C 0.74925 0.79526 0.57154
 C1163 C 0.73868 0.81260 0.57378
 C1164 C 0.72693 0.81314 0.59119
 H1165 H 0.75147 0.74372 0.61153
 H1166 H 0.74178 0.72717 0.64069
 H1167 H 0.70615 0.77564 0.65613
 H1168 H 0.75722 0.76725 0.58236
 H1169 H 0.75787 0.79317 0.55893
 H1170 H 0.71837 0.82564 0.59412
 C1171 C 0.77825 0.77732 0.37187
 C1172 C 0.76555 0.76839 0.38380
 C1173 C 0.75840 0.75026 0.37934
 C1174 C 0.76416 0.74082 0.36224
 C1175 C 0.77720 0.74884 0.34870
 C1176 C 0.78443 0.76782 0.35411
 O1177 O 0.78319 0.79473 0.37915
 C1178 C 0.77341 0.79671 0.39591
 C1179 C 0.76244 0.78084 0.39923
 C1180 C 0.75111 0.77956 0.41566
 C1181 C 0.75071 0.79483 0.42914
 C1182 C 0.76137 0.81214 0.42703
 C1183 C 0.77325 0.81263 0.40968
 H1184 H 0.74848 0.74334 0.38894
 H1185 H 0.75831 0.72679 0.35982
 H1186 H 0.79439 0.77505 0.34481
 H1187 H 0.74266 0.76689 0.41819
 H1188 H 0.74199 0.79274 0.44167
 H1189 H 0.78190 0.82508 0.40683
 C1190 C 0.27789 0.27458 -0.12726
 C1191 C 0.25879 0.27368 -0.12305
 C1192 C 0.24660 0.26171 -0.13348
 C1193 C 0.25392 0.25019 -0.14861
 C1194 C 0.27355 0.25004 -0.15420
 C1195 C 0.28573 0.26296 -0.14296
 O1196 O 0.28686 0.28700 -0.11519
 C1197 C 0.27313 0.29402 -0.10325
 C1198 C 0.25573 0.28622 -0.10767
 C1199 C 0.23937 0.29144 -0.09746
 C1200 C 0.24058 0.30485 -0.08218
 C1201 C 0.25803 0.31360 -0.07601
 C1202 C 0.27472 0.30782 -0.08743
 H1203 H 0.23156 0.26117 -0.13003
 H1204 H 0.24382 0.24139 -0.15625
 H1205 H 0.30080 0.26379 -0.14613
 H1206 H 0.22569 0.28538 -0.10127
 H1207 H 0.22729 0.30856 -0.07536
 H1208 H 0.28857 0.31371 -0.08403
 C1209 C 0.71900 0.22380 -0.12838
 C1210 C 0.73842 0.22179 -0.12677
 C1211 C 0.75075 0.23132 -0.13929
 C1212 C 0.74327 0.24343 -0.15383
 C1213 C 0.72332 0.24662 -0.15674
 C1214 C 0.71093 0.23613 -0.14342
 O1215 O 0.71002 0.21335 -0.11458
 C1216 C 0.72406 0.20465 -0.10420
 C1217 C 0.74165 0.20948 -0.11126
 C1218 C 0.75832 0.20225 -0.10292
 C1219 C 0.75724 0.18982 -0.08683
 C1220 C 0.73969 0.18404 -0.07809
 C1221 C 0.72261 0.19182 -0.08758
 H1222 H 0.76602 0.22958 -0.13787
 H1223 H 0.75341 0.25044 -0.16312
 H1224 H 0.69562 0.23780 -0.14444
 H1225 H 0.77210 0.20604 -0.10876
 H1226 H 0.77061 0.18443 -0.08139
 H1227 H 0.70865 0.18822 -0.08209
 C1228 C 0.22889 0.72557 0.37403
 C1229 C 0.21152 0.71760 0.37830
 C1230 C 0.19525 0.72230 0.36764
 C1231 C 0.19653 0.73542 0.35210
 C1232 C 0.21389 0.74455 0.34644
 C1233 C 0.23051 0.73929 0.35816
 O1234 O 0.24256 0.71878 0.38618
 C1235 C 0.23358 0.70637 0.39826
 C1236 C 0.21453 0.70532 0.39390
 C1237 C 0.20231 0.69362 0.40452
 C1238 C 0.20953 0.68248 0.41998
 C1239 C 0.22921 0.68212 0.42558
 C1240 C 0.24136 0.69491 0.41411
 H1241 H 0.18163 0.71594 0.37119
 H1242 H 0.18349 0.73863 0.34454
 H1243 H 0.24428 0.74546 0.35494
 H1244 H 0.18727 0.69311 0.40109
 H1245 H 0.19915 0.67425 0.42781
 H1246 H 0.25643 0.69580 0.41727
 C1247 C 0.27774 0.72269 0.63063
 C1248 C 0.26581 0.73189 0.61813
 C1249 C 0.25916 0.75032 0.62208
 C1250 C 0.26461 0.75978 0.63926
 C1251 C 0.27678 0.75150 0.65345
 C1252 C 0.28357 0.73220 0.64854
 O1253 O 0.28234 0.70504 0.62370
 C1254 C 0.27311 0.70319 0.60660
 C1255 C 0.26281 0.71937 0.60273
 C1256 C 0.25207 0.72082 0.58592
 C1257 C 0.25158 0.70540 0.57261
 C1258 C 0.26162 0.68780 0.57523
 C1259 C 0.27289 0.68713 0.59297
 H1260 H 0.24988 0.75746 0.61202
 H1261 H 0.25921 0.77407 0.64122
 H1262 H 0.29288 0.72475 0.65832
 H1263 H 0.24411 0.73372 0.58298
 H1264 H 0.24330 0.70758 0.55978
 H1265 H 0.28103 0.67443 0.59623
 C1266 C 0.77142 0.22927 0.12325
 C1267 C 0.77952 0.21212 0.12814
 C1268 C 0.78844 0.20973 0.14584
 C1269 C 0.78940 0.22519 0.15903
 C1270 C 0.78176 0.24378 0.15534
 C1271 C 0.77226 0.24551 0.13668
 O1272 O 0.76357 0.22809 0.10543
 C1273 C 0.76686 0.20992 0.09910
 C1274 C 0.77665 0.19973 0.11262
 C1275 C 0.78181 0.18069 0.10931
 C1276 C 0.77703 0.17163 0.09171
 C1277 C 0.76691 0.18088 0.07658
 C1278 C 0.76161 0.20077 0.08089
 H1279 H 0.79462 0.19608 0.14957
 H1280 H 0.79622 0.22233 0.17255
 H1281 H 0.76604 0.25903 0.13258
 H1282 H 0.78947 0.17280 0.12015
 H1283 H 0.78116 0.15685 0.09012
 H1284 H 0.75391 0.20897 0.07032
 C1285 C 0.47942 0.37687 0.52449
 C1286 C 0.46198 0.37250 0.53224
 C1287 C 0.44570 0.38304 0.52730
 C1288 C 0.44704 0.39856 0.51417
 C1289 C 0.46447 0.40434 0.50525
 C1290 C 0.48111 0.39274 0.51075
 O1291 O 0.49309 0.36484 0.53149
 C1292 C 0.48403 0.35271 0.54381
 C1293 C 0.46494 0.35695 0.54459
 C1294 C 0.45264 0.34626 0.55616
 C1295 C 0.45982 0.33088 0.56743
 C1296 C 0.47952 0.32540 0.56807
 C1297 C 0.49177 0.33694 0.55542
 H1298 H 0.43202 0.37941 0.53348
 H1299 H 0.43399 0.40603 0.51078
 H1300 H 0.49494 0.39605 0.50476
 H1301 H 0.43757 0.34959 0.55646
 H1302 H 0.44938 0.32299 0.57554
 H1303 H 0.50687 0.33388 0.55474
 C1304 C -0.02293 0.87630 0.02241
 C1305 C -0.03613 0.87755 0.03680
 C1306 C -0.04948 0.89239 0.03709
 C1307 C -0.04962 0.90648 0.02239
 C1308 C -0.03650 0.90670 0.00664
 C1309 C -0.02268 0.89078 0.00707
 O1310 O -0.01156 0.86066 0.02514
 C1311 C -0.01778 0.85203 0.04152
 C1312 C -0.03280 0.86202 0.04907
 C1313 C -0.04151 0.85602 0.06603
 C1314 C -0.03497 0.83930 0.07566
 C1315 C -0.01967 0.82751 0.06894
 C1316 C -0.01083 0.83465 0.05121
 H1317 H -0.05981 0.89319 0.04854
 H1318 H -0.06031 0.91743 0.02380
 H1319 H -0.01215 0.88957 -0.00413
 H1320 H -0.05320 0.86419 0.07196
 H1321 H -0.04205 0.83588 0.08890
 H1322 H 0.00095 0.82685 0.04501
 C1323 C 0.02984 0.62090 0.02678
 C1324 C 0.01533 0.63163 0.01923
 C1325 C 0.00657 0.62633 0.00214
 C1326 C 0.01252 0.60961 -0.00774
 C1327 C 0.02750 0.59712 -0.00131
 C1328 C 0.03638 0.60347 0.01674
 O1329 O 0.03599 0.62896 0.04349
 C1330 C 0.02512 0.64496 0.04632
 C1331 C 0.01231 0.64703 0.03170
 C1332 C -0.00038 0.66246 0.03131
 C1333 C -0.00030 0.67627 0.04626
 C1334 C 0.01216 0.67547 0.06244
 C1335 C 0.02543 0.65910 0.06198
 H1336 H -0.00481 0.63501 -0.00366
 H1337 H 0.00507 0.60690 -0.02089
 H1338 H 0.04783 0.59515 0.02289
 H1339 H -0.01025 0.66399 0.01953
 H1340 H -0.01015 0.68803 0.04477
 H1341 H 0.03552 0.65728 0.07351
 C1342 C 0.52184 0.12245 0.52451
 C1343 C 0.53922 0.12664 0.53250
 C1344 C 0.55548 0.11602 0.52770
 C1345 C 0.55418 0.10058 0.51445
 C1346 C 0.53682 0.09499 0.50529
 C1347 C 0.52020 0.10668 0.51065
 O1348 O 0.50817 0.13454 0.53141
 C1349 C 0.51717 0.14653 0.54391
 C1350 C 0.53621 0.14214 0.54491
 C1351 C 0.54844 0.15267 0.55670
 C1352 C 0.54123 0.16804 0.56797
 C1353 C 0.52156 0.17366 0.56839
 C1354 C 0.50940 0.16229 0.55552
 H1355 H 0.56910 0.11951 0.53407
 H1356 H 0.56722 0.09304 0.51118
 H1357 H 0.50642 0.10350 0.50447
 H1358 H 0.56348 0.14923 0.55717
 H1359 H 0.55163 0.17580 0.57626
 H1360 H 0.49432 0.16546 0.55465
 C1361 C -0.02171 0.12619 0.47811
 C1362 C -0.03106 0.12205 0.46140
 C1363 C -0.04112 0.10494 0.45929
 C1364 C -0.04192 0.09157 0.47458
 C1365 C -0.03294 0.09452 0.49269
 C1366 C -0.02233 0.11257 0.49413
 O1367 O -0.01293 0.14354 0.47676
 C1368 C -0.01689 0.15034 0.45891
 C1369 C -0.02799 0.13757 0.44910
 C1370 C -0.03396 0.14144 0.43042
 C1371 C -0.02866 0.15887 0.42135
 C1372 C -0.01726 0.17326 0.43029
 C1373 C -0.01115 0.16837 0.44977
 H1374 H -0.04829 0.10181 0.44598
 H1375 H -0.04966 0.07851 0.47194
 H1376 H -0.01505 0.11605 0.50728
 H1377 H -0.04262 0.13117 0.42281
 H1378 H -0.03343 0.16089 0.40682
 H1379 H -0.00245 0.17836 0.45768
 C1380 C 0.47856 0.62316 0.97965
 C1381 C 0.46637 0.62100 0.96449
 C1382 C 0.45397 0.60543 0.96354
 C1383 C 0.45372 0.59153 0.97836
 C1384 C 0.46578 0.59220 0.99495
 C1385 C 0.47872 0.60884 0.99516
 O1386 O 0.48912 0.63943 0.97741
 C1387 C 0.48341 0.64748 0.96055
 C1388 C 0.46953 0.63652 0.95221
 C1389 C 0.46148 0.64181 0.93467
 C1390 C 0.46770 0.65869 0.92514
 C1391 C 0.48210 0.67117 0.93246
 C1392 C 0.48992 0.66510 0.95103
 H1393 H 0.44449 0.60389 0.95144
 H1394 H 0.44390 0.57991 0.97624
 H1395 H 0.48843 0.61074 1.00700
 H1396 H 0.45046 0.63305 0.92832
 H1397 H 0.46075 0.66215 0.91181
 H1398 H 0.50089 0.67363 0.95773
 C1399 C 0.52129 0.87571 0.97924
 C1400 C 0.53402 0.87740 0.96447
 C1401 C 0.54687 0.89262 0.96377
 C1402 C 0.54701 0.90665 0.97846
 C1403 C 0.53443 0.90646 0.99467
 C1404 C 0.52106 0.89017 0.99462
 O1405 O 0.51038 0.85970 0.97677
 C1406 C 0.51642 0.85134 0.96017
 C1407 C 0.53088 0.86184 0.95225
 C1408 C 0.53935 0.85623 0.93505
 C1409 C 0.53316 0.83935 0.92553
 C1410 C 0.51846 0.82703 0.93260
 C1411 C 0.50982 0.83377 0.95058
 H1412 H 0.55677 0.89377 0.95198
 H1413 H 0.55724 0.91795 0.97656
 H1414 H 0.51093 0.88863 1.00616
 H1415 H 0.55059 0.86482 0.92886
 H1416 H 0.53999 0.83620 0.91208
 H1417 H 0.49849 0.82553 0.95704
 C1418 C 0.02891 0.37898 0.47374
 C1419 C 0.01089 0.37228 0.47739
 C1420 C -0.00052 0.38067 0.49140
 C1421 C 0.00645 0.39634 0.50226
 C1422 C 0.02501 0.40466 0.49973
 C1423 C 0.03637 0.39543 0.48460
 O1424 O 0.03724 0.36833 0.45966
 C1425 C 0.02413 0.35483 0.45444
 C1426 C 0.00780 0.35691 0.46496
 C1427 C -0.00789 0.34495 0.46200
 C1428 C -0.00707 0.33021 0.44804
 C1429 C 0.00940 0.32628 0.43656
 C1430 C 0.02539 0.33952 0.44005
 H1431 H -0.01473 0.37523 0.49404
 H1432 H -0.00342 0.40216 0.51252
 H1433 H 0.05059 0.40059 0.48155
 H1434 H -0.02080 0.34701 0.47021
 H1435 H -0.01996 0.32202 0.44618
 H1436 H 0.03843 0.33790 0.43198
 C1437 C 0.37654 0.52265 0.47824
 C1438 C 0.37959 0.53854 0.46722
 C1439 C 0.39589 0.53996 0.45572
 C1440 C 0.40954 0.52485 0.45523
 C1441 C 0.40775 0.50758 0.46602
 C1442 C 0.39047 0.50684 0.47799
 O1443 O 0.35985 0.52450 0.48818
 C1444 C 0.35235 0.54184 0.48327
 C1445 C 0.36406 0.55085 0.47044
 C1446 C 0.35933 0.56894 0.46333
 C1447 C 0.34217 0.57821 0.46924
 C1448 C 0.32878 0.57007 0.48237
 C1449 C 0.33458 0.55119 0.48961
 H1450 H 0.39817 0.55262 0.44717
 H1451 H 0.42186 0.52701 0.44626
 H1452 H 0.38784 0.49438 0.48670
 H1453 H 0.36878 0.57597 0.45334
 H1454 H 0.33961 0.59228 0.46351
 H1455 H 0.32545 0.54387 0.49967
 C1456 C 0.87596 0.02220 -0.02275
 C1457 C 0.87751 0.03656 -0.03596
 C1458 C 0.89255 0.03676 -0.04907
 C1459 C 0.90654 0.02199 -0.04896
 C1460 C 0.90646 0.00624 -0.03582
 C1461 C 0.89034 0.00678 -0.02226
 O1462 O 0.86015 0.02505 -0.01165
 C1463 C 0.85174 0.04148 -0.01804
 C1464 C 0.86202 0.04893 -0.03291
 C1465 C 0.85629 0.06591 -0.04177
 C1466 C 0.83953 0.07565 -0.03555
 C1467 C 0.82746 0.06905 -0.02042
 C1468 C 0.83432 0.05130 -0.01141
 H1469 H 0.89359 0.04820 -0.05939
 H1470 H 0.91766 0.02336 -0.05947
 H1471 H 0.88889 -0.00441 -0.01174
 H1472 H 0.86469 0.07175 -0.05334
 H1473 H 0.83630 0.08890 -0.04271
 H1474 H 0.82628 0.04519 0.00025
 C1475 C 0.62336 0.02367 0.02008
 C1476 C 0.62835 0.03080 0.03762
 C1477 C 0.61843 0.02532 0.05409
 C1478 C 0.60285 0.01228 0.05283
 C1479 C 0.59644 0.00403 0.03530
 C1480 C 0.60742 0.01004 0.01845
 O1481 O 0.63490 0.03113 0.00625
 C1482 C 0.64733 0.04311 0.01531
 C1483 C 0.64377 0.04324 0.03455
 C1484 C 0.65484 0.05441 0.04688
 C1485 C 0.66993 0.06595 0.03957
 C1486 C 0.67469 0.06721 0.01972
 C1487 C 0.66280 0.05498 0.00744
 H1488 H 0.62256 0.03102 0.06783
 H1489 H 0.59583 0.00843 0.06601
 H1490 H 0.60356 0.00456 0.00456
 H1491 H 0.65202 0.05419 0.06206
 H1492 H 0.67818 0.07377 0.04996
 H1493 H 0.66535 0.05482 -0.00777
 C1494 C 0.12166 0.52672 0.52925
 C1495 C 0.13251 0.51906 0.51489
 C1496 C 0.12720 0.50197 0.50611
 C1497 C 0.11033 0.49222 0.51189
 C1498 C 0.09779 0.49878 0.52674
 C1499 C 0.10415 0.51681 0.53564
 O1500 O 0.12970 0.54341 0.53545
 C1501 C 0.14583 0.54614 0.52476
 C1502 C 0.14800 0.53145 0.51204
 C1503 C 0.16362 0.53093 0.49960
 C1504 C 0.17749 0.54582 0.49983
 C1505 C 0.17655 0.56208 0.51218
 C1506 C 0.15999 0.56174 0.52520
 H1507 H 0.13595 0.49608 0.49483
 H1508 H 0.10753 0.47906 0.50447
 H1509 H 0.09575 0.52304 0.54698
 H1510 H 0.16526 0.51909 0.48982
 H1511 H 0.18940 0.54418 0.49020
 H1512 H 0.15805 0.57333 0.53520
 C1513 C 0.12479 0.47924 -0.02014
 C1514 C 0.12210 0.46385 -0.03194
 C1515 C 0.10619 0.46278 -0.04384
 C1516 C 0.09250 0.47775 -0.04406
 C1517 C 0.09374 0.49473 -0.03258
 C1518 C 0.11067 0.49500 -0.02001
 O1519 O 0.14132 0.47692 -0.00999
 C1520 C 0.14897 0.45981 -0.01559
 C1521 C 0.13751 0.45143 -0.02902
 C1522 C 0.14223 0.43369 -0.03692
 C1523 C 0.15921 0.42407 -0.03122
 C1524 C 0.17247 0.43152 -0.01759
 C1525 C 0.16665 0.45008 -0.00949
 H1526 H 0.10420 0.45044 -0.05291
 H1527 H 0.08049 0.47532 -0.05333
 H1528 H 0.11300 0.50708 -0.01069
 H1529 H 0.13289 0.42719 -0.04735
 H1530 H 0.16171 0.41024 -0.03755
 H1531 H 0.17567 0.45686 0.00104
 C1532 C 0.62342 0.97725 0.47793
 C1533 C 0.62193 0.96276 0.46487
 C1534 C 0.60691 0.96239 0.45173
 C1535 C 0.59289 0.97713 0.45167
 C1536 C 0.59291 0.99300 0.46465
 C1537 C 0.60900 0.99264 0.47825
 O1538 O 0.63920 0.97455 0.48910
 C1539 C 0.64767 0.95809 0.48289
 C1540 C 0.63744 0.95046 0.46807
 C1541 C 0.64323 0.93341 0.45939
 C1542 C 0.66000 0.92377 0.46574
 C1543 C 0.67202 0.93056 0.48083
 C1544 C 0.66510 0.94838 0.48965
 H1545 H 0.60593 0.95085 0.44152
 H1546 H 0.58179 0.97562 0.44115
 H1547 H 0.61039 1.00394 0.48866
 H1548 H 0.63487 0.92744 0.44786
 H1549 H 0.66329 0.91047 0.45872
 H1550 H 0.67310 0.95462 0.50127
 C1551 C 0.87853 0.97254 0.52954
 C1552 C 0.86729 0.98058 0.51569
 C1553 C 0.87211 0.99806 0.50750
 C1554 C 0.88891 1.00783 0.51331
 C1555 C 0.90198 1.00086 0.52753
 C1556 C 0.89607 0.98246 0.53593
 O1557 O 0.87080 0.95552 0.53523
 C1558 C 0.85450 0.95302 0.52474
 C1559 C 0.85193 0.96814 0.51263
 C1560 C 0.83613 0.96897 0.50043
 C1561 C 0.82247 0.95391 0.50027
 C1562 C 0.82379 0.93725 0.51200
 C1563 C 0.84051 0.93726 0.52480
 H1564 H 0.86297 1.00427 0.49670
 H1565 H 0.89112 1.02140 0.50647
 H1566 H 0.90483 0.97593 0.54683
 H1567 H 0.83422 0.98114 0.49112
 H1568 H 0.81040 0.95569 0.49085
 H1569 H 0.84272 0.92532 0.53432
 C1570 C 0.37506 0.47705 0.02179
 C1571 C 0.37895 0.46056 0.03162
 C1572 C 0.39587 0.45865 0.04207
 C1573 C 0.40929 0.47392 0.04274
 C1574 C 0.40660 0.49180 0.03323
 C1575 C 0.38874 0.49303 0.02227
 O1576 O 0.35788 0.47555 0.01271
 C1577 C 0.35093 0.45783 0.01697
 C1578 C 0.36345 0.44824 0.02855
 C1579 C 0.35939 0.42971 0.03486
 C1580 C 0.34203 0.42057 0.02942
 C1581 C 0.32788 0.42929 0.01755
 C1582 C 0.33298 0.44862 0.01110
 H1583 H 0.39881 0.44552 0.04963
 H1584 H 0.42218 0.47142 0.05080
 H1585 H 0.38546 0.50599 0.01456
 H1586 H 0.36947 0.42227 0.04388
 H1587 H 0.33990 0.40616 0.03446
 H1588 H 0.32319 0.45636 0.00202
 C1589 C 0.52396 0.47774 0.37584
 C1590 C 0.53985 0.46677 0.37904
 C1591 C 0.54124 0.45540 0.39543
 C1592 C 0.52608 0.45500 0.40903
 C1593 C 0.50879 0.46574 0.40709
 C1594 C 0.50810 0.47758 0.38972
 O1595 O 0.52586 0.48754 0.35907
 C1596 C 0.54323 0.48260 0.35168
 C1597 C 0.55222 0.46988 0.36352
 C1598 C 0.57033 0.46275 0.35891
 C1599 C 0.57965 0.46852 0.34173
 C1600 C 0.57154 0.48153 0.32820
 C1601 C 0.55263 0.48880 0.33388
 H1602 H 0.55390 0.44689 0.39783
 H1603 H 0.52821 0.44614 0.42144
 H1604 H 0.49564 0.48625 0.38698
 H1605 H 0.57734 0.45285 0.36847
 H1606 H 0.59374 0.46279 0.33927
 H1607 H 0.54533 0.49877 0.32464
 C1608 C 0.02189 -0.02288 0.87586
 C1609 C 0.03756 -0.03427 0.87865
 C1610 C 0.03885 -0.04608 0.89473
 C1611 C 0.02380 -0.04648 0.90846
 C1612 C 0.00677 -0.03529 0.90693
 C1613 C 0.00617 -0.02304 0.88987
 O1614 O 0.02383 -0.01271 0.85933
 C1615 C 0.04102 -0.01783 0.85166
 C1616 C 0.04985 -0.03103 0.86310
 C1617 C 0.06776 -0.03842 0.85816
 C1618 C 0.07703 -0.03241 0.84104
 C1619 C 0.06906 -0.01891 0.82793
 C1620 C 0.05037 -0.01139 0.83395
 H1621 H 0.05133 -0.05492 0.89680
 H1622 H 0.02582 -0.05572 0.92061
 H1623 H -0.00611 -0.01402 0.88746
 H1624 H 0.07465 -0.04869 0.86740
 H1625 H 0.09099 -0.03835 0.83830
 H1626 H 0.04319 -0.00105 0.82503
 C1627 C 0.02025 0.02168 0.62458
 C1628 C 0.03695 0.03099 0.62034
 C1629 C 0.03901 0.04090 0.60312
 C1630 C 0.02369 0.04159 0.58975
 C1631 C 0.00555 0.03267 0.59276
 C1632 C 0.00416 0.02222 0.61095
 O1633 O 0.02166 0.01304 0.64201
 C1634 C 0.03953 0.01704 0.64876
 C1635 C 0.04930 0.02805 0.63588
 C1636 C 0.06800 0.03406 0.63970
 C1637 C 0.07712 0.02890 0.65717
 C1638 C 0.06827 0.01759 0.67168
 C1639 C 0.04875 0.01143 0.66684
 H1640 H 0.05232 0.04803 0.59990
 H1641 H 0.02636 0.04920 0.57662
 H1642 H -0.00898 0.01496 0.61452
 H1643 H 0.07557 0.04265 0.62935
 H1644 H 0.09164 0.03372 0.65912
 H1645 H 0.04087 0.00279 0.67690
 C1646 C 0.52977 0.52896 0.12100
 C1647 C 0.51958 0.51916 0.13456
 C1648 C 0.50043 0.51441 0.13148
 C1649 C 0.49127 0.51953 0.11406
 C1650 C 0.50056 0.52944 0.09880
 C1651 C 0.52058 0.53439 0.10282
 O1652 O 0.54800 0.53199 0.12726
 C1653 C 0.54919 0.52392 0.14499
 C1654 C 0.53205 0.51588 0.14992
 C1655 C 0.52980 0.50658 0.16748
 C1656 C 0.54540 0.50524 0.18051
 C1657 C 0.56391 0.51303 0.17684
 C1658 C 0.56544 0.52287 0.15832
 H1659 H 0.49253 0.50684 0.14236
 H1660 H 0.47640 0.51570 0.11268
 H1661 H 0.52881 0.54189 0.09214
 H1662 H 0.51617 0.50036 0.17121
 H1663 H 0.54271 0.49813 0.19393
 H1664 H 0.57890 0.52923 0.15427
 C1665 C 0.47290 -0.03151 0.12274
 C1666 C 0.47115 -0.01208 0.12451
 C1667 C 0.48086 0.00023 0.11209
 C1668 C 0.49286 -0.00730 0.09748
 C1669 C 0.49576 -0.02726 0.09439
 C1670 C 0.48511 -0.03962 0.10761
 O1671 O 0.46233 -0.04046 0.13646
 C1672 C 0.45382 -0.02639 0.14696
 C1673 C 0.45889 -0.00881 0.14004
 C1674 C 0.45186 0.00788 0.14850
 C1675 C 0.43941 0.00683 0.16458
 C1676 C 0.43340 -0.01071 0.17319
 C1677 C 0.44097 -0.02780 0.16357
 H1678 H 0.47932 0.01551 0.11363
 H1679 H 0.49999 0.00283 0.08827
 H1680 H 0.48655 -0.05494 0.10646
 H1681 H 0.45583 0.02166 0.14277
 H1682 H 0.43417 0.02024 0.17009
 H1683 H 0.43719 -0.04176 0.16895
 C1684 C 0.97743 0.48280 0.62346
 C1685 C 0.97240 0.46501 0.62996
 C1686 C 0.97971 0.44853 0.62132
 C1687 C 0.99238 0.45002 0.60547
 C1688 C 0.99847 0.46778 0.59750
 C1689 C 0.99064 0.48468 0.60717
 O1690 O 0.96844 0.49656 0.63396
 C1691 C 0.95764 0.48721 0.64724
 C1692 C 0.95971 0.46786 0.64522
 C1693 C 0.94998 0.45525 0.65730
 C1694 C 0.93765 0.46237 0.67185
 C1695 C 0.93421 0.48226 0.67509
 C1696 C 0.94499 0.49488 0.66218
 H1697 H 0.97564 0.43461 0.62661
 H1698 H 0.99761 0.43685 0.59934
 H1699 H 0.99434 0.49874 0.60201
 H1700 H 0.95189 0.44001 0.65566
 H1701 H 0.93094 0.45189 0.68093
 H1702 H 0.94342 0.51016 0.66355
 C1703 C 0.97206 0.52900 0.87807
 C1704 C 0.98164 0.51775 0.86521
 C1705 C 1.00028 0.51163 0.86889
 C1706 C 1.00958 0.51690 0.88619
 C1707 C 1.00088 0.52836 0.90069
 C1708 C 0.98139 0.53465 0.89607
 O1709 O 0.95424 0.53317 0.87136
 C1710 C 0.95267 0.52435 0.85404
 C1711 C 0.96918 0.51475 0.84981
 C1712 C 0.97097 0.50453 0.83272
 C1713 C 0.95553 0.50385 0.81949
 C1714 C 0.93762 0.51318 0.82251
 C1715 C 0.93658 0.52394 0.84052
 H1716 H 1.00770 0.50288 0.85855
 H1717 H 1.02406 0.51196 0.88803
 H1718 H 0.97366 0.54339 0.90615
 H1719 H 0.98414 0.49713 0.82952
 H1720 H 0.95791 0.49602 0.80642
 H1721 H 0.92361 0.53151 0.84405
 C1722 C 0.47567 0.02095 0.37721
 C1723 C 0.46759 0.03829 0.37304
 C1724 C 0.47229 0.05455 0.38371
 C1725 C 0.48552 0.05329 0.39916
 C1726 C 0.49476 0.03596 0.40474
 C1727 C 0.48950 0.01934 0.39300
 O1728 O 0.46887 0.00728 0.36506
 C1729 C 0.45635 0.01623 0.35308
 C1730 C 0.45523 0.03526 0.35751
 C1731 C 0.44339 0.04745 0.34699
 C1732 C 0.43219 0.04022 0.33159
 C1733 C 0.43190 0.02056 0.32592
 C1734 C 0.44482 0.00844 0.33727
 H1735 H 0.46586 0.06815 0.38024
 H1736 H 0.48872 0.06634 0.40672
 H1737 H 0.49575 0.00559 0.39615
 H1738 H 0.44283 0.06248 0.35048
 H1739 H 0.42384 0.05058 0.32384
 H1740 H 0.44578 -0.00662 0.33406
   
