data_POSCAR
  _audit_creation_date              2014-09-24
  _audit_creation_method            'ToBaCCo'
  _symmetry_space_group_name_H-M    'P1'
  _symmetry_Int_Tables_number       1
  _symmetry_cell_setting            triclinic
  loop_
  _symmetry_equiv_pos_as_xyz
 x,y,z
_cell_length_a 64.6325
_cell_length_b 64.8094
_cell_length_c 64.7360
_cell_angle_alpha 90.041400
_cell_angle_beta 90.100500
_cell_angle_gamma 89.974800
loop_
  _atom_site_label
  _atom_site_type_symbol
  _atom_site_fract_x
  _atom_site_fract_y
  _atom_site_fract_z
C1 C 0.29976 0.43565 0.92096
 C2 C 0.30027 0.41991 0.93586
 C3 C 0.31584 0.41961 0.95055
 C4 C 0.33117 0.43491 0.95052
 C5 C 0.33063 0.45036 0.93592
 C6 C 0.31482 0.45078 0.92111
 C7 C 0.28696 0.43965 0.90437
 N8 N 0.29393 0.45684 0.89450
 C9 C 0.31097 0.46368 0.90476
 C10 C 0.34800 0.46225 0.93866
 N11 N 0.35940 0.45434 0.95455
 C12 C 0.34893 0.43762 0.96194
 C13 C 0.31273 0.40255 0.96273
 N14 N 0.29565 0.39236 0.95588
 C15 C 0.28797 0.40292 0.93937
 H16 H 0.27384 0.43040 0.89968
 H17 H 0.31997 0.47715 0.90069
 H18 H 0.35200 0.47540 0.92923
 H19 H 0.35427 0.42740 0.97402
 H20 H 0.32217 0.39805 0.97579
 H21 H 0.27460 0.39853 0.93032
 C22 C 0.43561 0.83010 0.45060
 C23 C 0.42004 0.81509 0.45016
 C24 C 0.41986 0.80027 0.43484
 C25 C 0.43548 0.80013 0.41980
 C26 C 0.45095 0.81485 0.42036
 C27 C 0.45093 0.83001 0.43582
 C28 C 0.43893 0.84691 0.46312
 N29 N 0.45597 0.85725 0.45631
 C30 C 0.46338 0.84679 0.43958
 C31 C 0.46372 0.81129 0.40379
 N32 N 0.45643 0.79474 0.39309
 C33 C 0.43909 0.78787 0.40280
 C34 C 0.40232 0.78857 0.43768
 N35 N 0.39187 0.79585 0.45445
 C36 C 0.40278 0.81213 0.46209
 H37 H 0.42907 0.85143 0.47581
 H38 H 0.47693 0.85089 0.43072
 H39 H 0.47740 0.82007 0.39990
 H40 H 0.42954 0.77511 0.39779
 H41 H 0.39733 0.77611 0.42777
 H42 H 0.39836 0.82177 0.47496
 C43 C 0.93651 0.92118 0.79923
 C44 C 0.92174 0.93697 0.79792
 C45 C 0.92155 0.95263 0.81244
 C46 C 0.93619 0.95268 0.82850
 C47 C 0.95069 0.93709 0.82974
 C48 C 0.95086 0.92124 0.81499
 C49 C 0.93919 0.90319 0.78833
 N50 N 0.95491 0.89213 0.79702
 C51 C 0.96213 0.90331 0.81339
 C52 C 0.96159 0.93995 0.84774
 N53 N 0.95420 0.95699 0.85767
 C54 C 0.93865 0.96489 0.84575
 C55 C 0.90473 0.96495 0.80811
 N56 N 0.89476 0.95720 0.79127
 C57 C 0.90514 0.94006 0.78499
 H58 H 0.92953 0.89819 0.77564
 H59 H 0.97431 0.89878 0.82391
 H60 H 0.97330 0.92957 0.85356
 H61 H 0.92911 0.97807 0.84941
 H62 H 0.89983 0.97819 0.81703
 H63 H 0.90086 0.93039 0.77204
 C64 C 0.43905 -0.07716 0.29565
 C65 C 0.42366 -0.06193 0.29580
 C66 C 0.42268 -0.04793 0.31184
 C67 C 0.43732 -0.04880 0.32788
 C68 C 0.45251 -0.06384 0.32772
 C69 C 0.45333 -0.07819 0.31148
 C70 C 0.44167 -0.09438 0.28357
 N71 N 0.45716 -0.10617 0.29167
 C72 C 0.46447 -0.09609 0.30871
 C73 C 0.46305 -0.06241 0.34616
 N74 N 0.45475 -0.04680 0.35753
 C75 C 0.43898 -0.03843 0.34637
 C76 C 0.40448 -0.03709 0.30950
 N77 N 0.39437 -0.04413 0.29240
 C78 C 0.40622 -0.05929 0.28393
 H79 H 0.43217 -0.09820 0.27037
 H80 H 0.47599 -0.10199 0.31931
 H81 H 0.47524 -0.07266 0.35127
 H82 H 0.42897 -0.02603 0.35138
 H83 H 0.39848 -0.02590 0.32033
 H84 H 0.40213 -0.06871 0.27077
 C85 C 0.80092 0.31729 0.32885
 C86 C 0.80094 0.33304 0.31396
 C87 C 0.81588 0.33324 0.29869
 C88 C 0.83107 0.31778 0.29814
 C89 C 0.83106 0.30235 0.31282
 C90 C 0.81585 0.30205 0.32821
 C91 C 0.78925 0.31389 0.34630
 N92 N 0.79673 0.29696 0.35628
 C93 C 0.81299 0.28963 0.34515
 C94 C 0.84846 0.29058 0.30967
 N95 N 0.85912 0.29840 0.29336
 C96 C 0.84841 0.31502 0.28615
 C97 C 0.81268 0.35066 0.28696
 N98 N 0.79609 0.36103 0.29464
 C99 C 0.78888 0.35035 0.31122
 H100 H 0.77682 0.32364 0.35178
 H101 H 0.82250 0.27649 0.34916
 H102 H 0.85346 0.27788 0.31928
 H103 H 0.85308 0.32493 0.27357
 H104 H 0.82206 0.35554 0.27403
 H105 H 0.77575 0.35476 0.32059
 C106 C -0.18800 0.83051 0.79756
 C107 C -0.17228 0.81559 0.79810
 C108 C -0.17224 0.80074 0.81337
 C109 C -0.18792 0.80055 0.82829
 C110 C -0.20328 0.81533 0.82794
 C111 C -0.20331 0.83047 0.81242
 C112 C -0.19121 0.84745 0.78521
 N113 N -0.20818 0.85789 0.79211
 C114 C -0.21558 0.84746 0.80884
 C115 C -0.21515 0.81242 0.84534
 N116 N -0.20745 0.79615 0.85631
 C117 C -0.19075 0.78884 0.84570
 C118 C -0.15421 0.78966 0.81139
 N119 N -0.14321 0.79740 0.79528
 C120 C -0.15432 0.81321 0.78697
 H121 H -0.18129 0.85201 0.77259
 H122 H -0.22903 0.85171 0.81781
 H123 H -0.22787 0.82220 0.85001
 H124 H -0.18066 0.77640 0.85037
 H125 H -0.14899 0.77760 0.82171
 H126 H -0.14949 0.82286 0.77425
 C127 C 0.94748 0.33373 0.43149
 C128 C 0.94686 0.31908 0.41550
 C129 C 0.93223 0.30355 0.41586
 C130 C 0.91796 0.30244 0.43208
 C131 C 0.91854 0.31684 0.44779
 C132 C 0.93335 0.33266 0.44744
 C133 C 0.95992 0.35058 0.43521
 N134 N 0.95363 0.35994 0.45302
 C135 C 0.93728 0.34896 0.46047
 C136 C 0.90278 0.31211 0.46122
 N137 N 0.89246 0.29528 0.45398
 C138 C 0.90174 0.28930 0.43609
 C139 C 0.93491 0.29186 0.39835
 N140 N 0.95075 0.29995 0.38715
 C141 C 0.95814 0.31663 0.39764
 H142 H 0.97232 0.35572 0.42528
 H143 H 0.92903 0.35220 0.47463
 H144 H 0.89918 0.32037 0.47529
 H145 H 0.89693 0.27660 0.42638
 H146 H 0.92579 0.27851 0.39418
 H147 H 0.97045 0.32665 0.39243
 C148 C 0.44851 0.43260 0.83265
 C149 C 0.44842 0.41789 0.81682
 C150 C 0.43344 0.41855 0.80160
 C151 C 0.41833 0.43411 0.80203
 C152 C 0.41842 0.44862 0.81771
 C153 C 0.43370 0.44787 0.83310
 C154 C 0.46103 0.43529 0.84958
 N155 N 0.45429 0.45199 0.86051
 C156 C 0.43753 0.45977 0.85028
 C157 C 0.40189 0.46158 0.81441
 N158 N 0.39177 0.45544 0.79700
 C159 C 0.40186 0.43864 0.78936
 C160 C 0.43702 0.40210 0.78857
 N161 N 0.45386 0.39154 0.79555
 C162 C 0.46089 0.40125 0.81281
 H163 H 0.47410 0.42561 0.85335
 H164 H 0.42837 0.47287 0.85495
 H165 H 0.39756 0.47439 0.82420
 H166 H 0.39773 0.43036 0.77545
 H167 H 0.42779 0.39804 0.77523
 H168 H 0.47423 0.39666 0.82181
 C169 C 0.79963 0.92117 0.93545
 C170 C 0.79986 0.93634 0.92003
 C171 C 0.81434 0.95196 0.92077
 C172 C 0.82889 0.95257 0.93684
 C173 C 0.82873 0.93763 0.95202
 C174 C 0.81391 0.92178 0.95134
 C175 C 0.78756 0.90399 0.93839
 N176 N 0.79402 0.89394 0.95575
 C177 C 0.81024 0.90488 0.96370
 C178 C 0.84513 0.94171 0.96503
 N179 N 0.85541 0.95873 0.95804
 C180 C 0.84532 0.96541 0.94078
 C181 C 0.81177 0.96376 0.90332
 N182 N 0.79615 0.95559 0.89179
 C183 C 0.78875 0.93883 0.90205
 H184 H 0.77472 0.89950 0.92866
 H185 H 0.81916 0.90090 0.97726
 H186 H 0.84946 0.93237 0.97817
 H187 H 0.84942 0.97875 0.93165
 H188 H 0.82103 0.97702 0.89922
 H189 H 0.77678 0.92858 0.89644
 C190 C 0.29498 0.82868 0.31121
 C191 C 0.29517 0.81388 0.32704
 C192 C 0.31031 0.79881 0.32733
 C193 C 0.32551 0.79833 0.31189
 C194 C 0.32528 0.81287 0.29631
 C195 C 0.30992 0.82816 0.29599
 C196 C 0.28310 0.84599 0.30782
 N197 N 0.29049 0.85618 0.29093
 C198 C 0.30695 0.84519 0.28368
 C199 C 0.34291 0.81002 0.28479
 N200 N 0.35405 0.79423 0.29311
 C201 C 0.34336 0.78696 0.30966
 C202 C 0.30788 0.78776 0.34526
 N203 N 0.29171 0.79578 0.35607
 C204 C 0.28382 0.81175 0.34491
 H205 H 0.27056 0.85103 0.31764
 H206 H 0.31623 0.84915 0.27039
 H207 H 0.34755 0.81942 0.27181
 H208 H 0.34873 0.77509 0.32012
 H209 H 0.31767 0.77516 0.35022
 H210 H 0.27143 0.82181 0.34989
 C211 C 0.80343 0.41779 0.43108
 C212 C 0.80388 0.43300 0.41574
 C213 C 0.81946 0.44756 0.41573
 C214 C 0.83481 0.44708 0.43104
 C215 C 0.83434 0.43212 0.44618
 C216 C 0.81853 0.41732 0.44620
 C217 C 0.79040 0.40146 0.43459
 N218 N 0.79727 0.39093 0.45142
 C219 C 0.81445 0.40064 0.45867
 C220 C 0.85103 0.43545 0.45893
 N221 N 0.86177 0.45214 0.45191
 C222 C 0.85180 0.45924 0.43475
 C223 C 0.81608 0.46030 0.39911
 N224 N 0.79882 0.45380 0.38898
 C225 C 0.79130 0.43703 0.39908
 H226 H 0.77697 0.39757 0.42540
 H227 H 0.82376 0.39563 0.47161
 H228 H 0.85502 0.42605 0.47214
 H229 H 0.85617 0.47262 0.42579
 H230 H 0.82541 0.47349 0.39487
 H231 H 0.77780 0.42822 0.39461
 C232 C 0.93331 0.82912 -0.04924
 C233 C 0.91893 0.81296 -0.04889
 C234 C 0.91953 0.79781 -0.06389
 C235 C 0.93451 0.79866 -0.07954
 C236 C 0.94868 0.81459 -0.07990
 C237 C 0.94804 0.82998 -0.06464
 C238 C 0.93568 0.84641 -0.03717
 N239 N 0.95144 0.85795 -0.04491
 C240 C 0.95908 0.84790 -0.06173
 C241 C 0.96093 0.81177 -0.09704
 N242 N 0.95456 0.79448 -0.10727
 C243 C 0.93832 0.78646 -0.09650
 C244 C 0.90322 0.78469 -0.06019
 N245 N 0.89263 0.79160 -0.04339
 C246 C 0.90224 0.80892 -0.03641
 H247 H 0.92627 0.85031 -0.02394
 H248 H 0.97127 0.85354 -0.07166
 H249 H 0.97322 0.82203 -0.10178
 H250 H 0.92994 0.77256 -0.10042
 H251 H 0.89925 0.77122 -0.06925
 H252 H 0.89715 0.81838 -0.02361
 C253 C 0.30065 0.33239 0.81582
 C254 C 0.30063 0.31637 0.83034
 C255 C 0.31580 0.30137 0.82970
 C256 C 0.33128 0.30225 0.81456
 C257 C 0.33132 0.31808 0.80027
 C258 C 0.31584 0.33324 0.80086
 C259 C 0.28807 0.34926 0.81307
 N260 N 0.29526 0.36044 0.79683
 C261 C 0.31226 0.35067 0.78925
 C262 C 0.34821 0.31520 0.78771
 N263 N 0.35847 0.29799 0.79400
 C264 C 0.34818 0.29000 0.81048
 C265 C 0.31206 0.28799 0.84574
 N266 N 0.29505 0.29456 0.85623
 C267 C 0.28801 0.31197 0.84683
 H268 H 0.27467 0.35304 0.82232
 H269 H 0.32174 0.35607 0.77664
 H270 H 0.35258 0.32484 0.77479
 H271 H 0.35273 0.27646 0.81913
 H272 H 0.32108 0.27442 0.84943
 H273 H 0.27490 0.32110 0.85176
 C274 C 0.17174 0.56475 0.54981
 C275 C 0.18707 0.58005 0.54924
 C276 C 0.20215 0.58073 0.56441
 C277 C 0.20210 0.56609 0.58040
 C278 C 0.18700 0.55103 0.58089
 C279 C 0.17178 0.55032 0.56548
 C280 C 0.15410 0.56150 0.53831
 N281 N 0.14342 0.54541 0.54660
 C282 C 0.15432 0.53847 0.56321
 C283 C 0.18944 0.54025 0.59898
 N284 N 0.20573 0.54827 0.60961
 C285 C 0.21361 0.56408 0.59820
 C286 C 0.21410 0.59790 0.56068
 N287 N 0.20672 0.60763 0.54356
 C288 C 0.19015 0.59675 0.53653
 H289 H 0.14895 0.57091 0.52550
 H290 H 0.14973 0.52613 0.57344
 H291 H 0.17934 0.52813 0.60444
 H292 H 0.22633 0.57394 0.60269
 H293 H 0.22685 0.60316 0.57016
 H294 H 0.18088 0.60072 0.52317
 C295 C 0.57635 0.68811 0.04731
 C296 C 0.56054 0.67326 0.04665
 C297 C 0.54521 0.67339 0.06149
 C298 C 0.54553 0.68817 0.07731
 C299 C 0.56122 0.70261 0.07814
 C300 C 0.57672 0.70265 0.06296
 C301 C 0.59422 0.69057 0.03604
 N302 N 0.60551 0.70622 0.04443
 C303 C 0.59483 0.71364 0.06094
 C304 C 0.55907 0.71314 0.09650
 N305 N 0.54248 0.70543 0.10689
 C306 C 0.53410 0.69018 0.09509
 C307 C 0.53353 0.65589 0.05872
 N308 N 0.54149 0.64483 0.04272
 C309 C 0.55796 0.65552 0.03516
 H310 H 0.59875 0.68121 0.02297
 H311 H 0.60026 0.72553 0.07137
 H312 H 0.56961 0.72471 0.10238
 H313 H 0.52111 0.68059 0.09934
 H314 H 0.52083 0.65118 0.06848
 H315 H 0.56827 0.65011 0.02317
 C316 C 0.68037 0.19633 0.66410
 C317 C 0.66546 0.19624 0.67982
 C318 C 0.66626 0.18146 0.69519
 C319 C 0.68188 0.16641 0.69499
 C320 C 0.69655 0.16654 0.67951
 C321 C 0.69583 0.18163 0.66406
 C322 C 0.68385 0.20916 0.64751
 N323 N 0.70112 0.20259 0.63745
 C324 C 0.70848 0.18574 0.64758
 C325 C 0.70988 0.15045 0.68319
 N326 N 0.70367 0.14039 0.70052
 C327 C 0.68653 0.15014 0.70786
 C328 C 0.65043 0.18563 0.70872
 N329 N 0.63993 0.20254 0.70195
 C330 C 0.64907 0.20905 0.68418
 H331 H 0.67444 0.22228 0.64320
 H332 H 0.72234 0.17728 0.64360
 H333 H 0.72328 0.14650 0.67400
 H334 H 0.67785 0.14566 0.72141
 H335 H 0.64719 0.17722 0.72277
 H336 H 0.64432 0.22216 0.67501
 C337 C 1.07585 0.06106 0.20367
 C338 C 1.06007 0.07595 0.20354
 C339 C 1.04548 0.07585 0.18794
 C340 C 1.04648 0.06103 0.17221
 C341 C 1.06202 0.04643 0.17222
 C342 C 1.07685 0.04647 0.18811
 C343 C 1.09332 0.05876 0.21564
 N344 N 1.10506 0.04319 0.20772
 C345 C 1.09498 0.03568 0.19082
 C346 C 1.06043 0.03562 0.15393
 N347 N 1.04440 0.04347 0.14265
 C348 C 1.03579 0.05899 0.15397
 C349 C 1.03356 0.09324 0.19023
 N350 N 1.04059 0.10416 0.20676
 C351 C 1.05679 0.09355 0.21505
 H352 H 1.09740 0.06847 0.22859
 H353 H 1.10083 0.02398 0.18046
 H354 H 1.07107 0.02382 0.14876
 H355 H 1.02297 0.06865 0.14935
 H356 H 1.02114 0.09786 0.18002
 H357 H 1.06636 0.09879 0.22770
 C358 C 0.06802 0.16805 1.05131
 C359 C 0.08285 0.18378 1.05052
 C360 C 0.08287 0.19923 1.06521
 C361 C 0.06786 0.19928 1.08083
 C362 C 0.05313 0.18387 1.08152
 C363 C 0.05331 0.16803 1.06674
 C364 C 0.06516 0.15048 1.03977
 N365 N 0.04915 0.13958 1.04792
 C366 C 0.04177 0.15035 1.06439
 C367 C 0.04063 0.18781 1.09821
 N368 N 0.04737 0.20531 1.10781
 C369 C 0.06416 0.21229 1.09719
 C370 C 0.09941 0.21191 1.06102
 N371 N 0.10943 0.20452 1.04408
 C372 C 0.09929 0.18731 1.03760
 H373 H 0.07445 0.14591 1.02667
 H374 H 0.02946 0.14532 1.07451
 H375 H 0.02783 0.17824 1.10304
 H376 H 0.07283 0.22613 1.10067
 H377 H 0.10397 0.22525 1.06998
 H378 H 0.10348 0.17798 1.02439
 C379 C 0.17196 0.70424 0.68813
 C380 C 0.18691 0.70380 0.67241
 C381 C 0.20258 0.68928 0.67301
 C382 C 0.20352 0.67496 0.68918
 C383 C 0.18892 0.67549 0.70470
 C384 C 0.17306 0.69024 0.70420
 C385 C 0.15359 0.71482 0.69030
 N386 N 0.14349 0.70754 0.70724
 C387 C 0.15546 0.69256 0.71585
 C388 C 0.19186 0.65823 0.71667
 N389 N 0.20775 0.64700 0.70867
 C390 C 0.21505 0.65732 0.69191
 C391 C 0.21369 0.69115 0.65505
 N392 N 0.20524 0.70645 0.64340
 C393 C 0.18879 0.71423 0.65397
 H394 H 0.14748 0.72608 0.67957
 H395 H 0.15143 0.68333 0.72915
 H396 H 0.18226 0.65377 0.72957
 H397 H 0.22681 0.65166 0.68146
 H398 H 0.22682 0.68173 0.65080
 H399 H 0.17839 0.72606 0.64844
 C400 C 1.18352 0.16639 0.19603
 C401 C 1.16782 0.18128 0.19573
 C402 C 1.16652 0.19512 0.17958
 C403 C 1.18104 0.19431 0.16350
 C404 C 1.19660 0.17968 0.16384
 C405 C 1.19779 0.16549 0.18020
 C406 C 1.18845 0.15114 0.20989
 N407 N 1.20532 0.14074 0.20288
 C408 C 1.21118 0.14953 0.18470
 C409 C 1.20893 0.18319 0.14689
 N410 N 1.20133 0.19968 0.13617
 C411 C 1.18411 0.20639 0.14633
 C412 C 1.14996 0.20790 0.18357
 N413 N 1.14121 0.20214 0.20180
 C414 C 1.15215 0.18585 0.20929
 H415 H 1.18037 0.14799 0.22416
 H416 H 1.22401 0.14459 0.17521
 H417 H 1.22249 0.17426 0.14294
 H418 H 1.17490 0.21969 0.14216
 H419 H 1.14470 0.22036 0.17378
 H420 H 1.14919 0.17806 0.22376
 C421 C 0.67208 1.04884 0.56239
 C422 C 0.68749 1.04900 0.57764
 C423 C 0.70184 1.06478 0.57825
 C424 C 0.70106 1.08058 0.56344
 C425 C 0.68578 1.08047 0.54850
 C426 C 0.67114 1.06450 0.54798
 C427 C 0.65502 1.03653 0.55942
 N428 N 0.64352 1.04443 0.54367
 C429 C 0.65342 1.06152 0.53653
 C430 C 0.68776 1.09835 0.53728
 N431 N 0.70398 1.10946 0.54491
 C432 C 0.71218 1.09851 0.56095
 C433 C 0.71383 1.06177 0.59560
 N434 N 0.70709 1.04453 0.60553
 C435 C 0.69099 1.03666 0.59452
 H436 H 0.65103 1.02324 0.56868
 H437 H 0.64760 1.07176 0.52468
 H438 H 0.67784 1.10274 0.52457
 H439 H 0.72472 1.10356 0.57082
 H440 H 0.72607 1.07187 0.60090
 H441 H 0.68222 1.02304 0.59859
 C442 C 0.56243 0.54915 0.17316
 C443 C 0.57744 0.54915 0.18881
 C444 C 0.57630 0.56333 0.20469
 C445 C 0.56026 0.57791 0.20502
 C446 C 0.54551 0.57800 0.18954
 C447 C 0.54653 0.56341 0.17355
 C448 C 0.56061 0.53821 0.15503
 N449 N 0.54393 0.54538 0.14438
 C450 C 0.53524 0.56081 0.15572
 C451 C 0.53310 0.59499 0.19270
 N452 N 0.53996 0.60524 0.20973
 C453 C 0.55654 0.59477 0.21736
 C454 C 0.59381 0.56097 0.21657
 N455 N 0.60573 0.54576 0.20823
 C456 C 0.59568 0.53849 0.19122
 H457 H 0.57124 0.52650 0.14963
 H458 H 0.52195 0.56993 0.15125
 H459 H 0.52062 0.59995 0.18271
 H460 H 0.56560 0.59932 0.23067
 H461 H 0.59777 0.57035 0.22979
 H462 H 0.60163 0.52705 0.18062
 C463 C 0.66826 0.68523 0.19775
 C464 C 0.68438 0.67076 0.19793
 C465 C 0.69957 0.67137 0.18295
 C466 C 0.69895 0.68667 0.16764
 C467 C 0.68318 0.70108 0.16761
 C468 C 0.66770 0.70030 0.18272
 C469 C 0.65058 0.68729 0.20939
 N470 N 0.63923 0.70324 0.20175
 C471 C 0.64978 0.71137 0.18550
 C472 C 0.68616 0.71370 0.15086
 N473 N 0.70337 0.70738 0.14059
 C474 C 0.71127 0.69079 0.15081
 C475 C 0.71277 0.65509 0.18665
 N476 N 0.70603 0.64466 0.20361
 C477 C 0.68866 0.65429 0.21054
 H478 H 0.64589 0.67724 0.22187
 H479 H 0.64468 0.72407 0.17594
 H480 H 0.67649 0.72664 0.14655
 H481 H 0.72476 0.68203 0.14623
 H482 H 0.72611 0.65110 0.17741
 H483 H 0.67976 0.64983 0.22394
 C484 C 0.16989 0.06327 1.04743
 C485 C 0.18506 0.07878 1.04735
 C486 C 0.20013 0.07907 1.06247
 C487 C 0.20036 0.06389 1.07788
 C488 C 0.18546 0.04865 1.07801
 C489 C 0.17013 0.04830 1.06265
 C490 C 0.15267 0.05972 1.03537
 N491 N 0.14251 0.04291 1.04281
 C492 C 0.15317 0.03589 1.05953
 C493 C 0.18839 0.03721 1.09567
 N494 N 0.20475 0.04511 1.10633
 C495 C 0.21219 0.06142 1.09537
 C496 C 0.21162 0.09668 1.05969
 N497 N 0.20409 0.10719 1.04310
 C498 C 0.18776 0.09621 1.03550
 H499 H 0.14775 0.06908 1.02243
 H500 H 0.14893 0.02270 1.06883
 H501 H 0.17860 0.02472 1.10085
 H502 H 0.22486 0.07131 1.09993
 H503 H 0.22406 0.10170 1.06964
 H504 H 0.17778 0.10089 1.02294
 C505 C 0.58403 0.19602 0.56689
 C506 C 0.56879 0.19635 0.58224
 C507 C 0.55373 0.18124 0.58273
 C508 C 0.55366 0.16559 0.56773
 C509 C 0.56867 0.16535 0.55254
 C510 C 0.58401 0.18063 0.55215
 C511 C 0.60038 0.20884 0.56263
 N512 N 0.61045 0.20158 0.54569
 C513 C 0.60046 0.18428 0.53917
 C514 C 0.56447 0.14897 0.53976
 N515 N 0.54730 0.13909 0.54678
 C516 C 0.54063 0.14921 0.56397
 C517 C 0.54086 0.18572 0.59907
 N518 N 0.54778 0.20320 0.60848
 C519 C 0.56489 0.20975 0.59820
 H520 H 0.60444 0.22263 0.57115
 H521 H 0.60483 0.17486 0.52609
 H522 H 0.57307 0.14488 0.52604
 H523 H 0.52728 0.14510 0.57313
 H524 H 0.52752 0.17680 0.60374
 H525 H 0.57367 0.22350 0.60182
 C526 C 0.08006 0.56895 0.69968
 C527 C 0.06333 0.58273 0.70045
 C528 C 0.04760 0.58127 0.68605
 C529 C 0.04833 0.56605 0.67071
 C530 C 0.06485 0.55254 0.66983
 C531 C 0.08086 0.55403 0.68444
 C532 C 0.09780 0.56712 0.71130
 N533 N 0.10950 0.55150 0.70346
 C534 C 0.09914 0.54347 0.68697
 C535 C 0.06163 0.53984 0.65306
 N536 N 0.04353 0.54533 0.64380
 C537 C 0.03536 0.56138 0.65457
 C538 C 0.03388 0.59699 0.68995
 N539 N 0.04089 0.60806 0.70636
 C540 C 0.05892 0.59938 0.71290
 H541 H 0.10181 0.57668 0.72440
 H542 H 0.10469 0.53120 0.67711
 H543 H 0.07193 0.52775 0.64786
 H544 H 0.02093 0.56909 0.65101
 H545 H 0.01988 0.60023 0.68134
 H546 H 0.06850 0.60508 0.72539
 C547 C 0.67068 0.55035 0.06444
 C548 C 0.68598 0.55106 0.07979
 C549 C 0.69989 0.56722 0.08026
 C550 C 0.69869 0.58292 0.06544
 C551 C 0.68365 0.58222 0.05028
 C552 C 0.66952 0.56581 0.04978
 C553 C 0.65471 0.53688 0.06065
 N554 N 0.64376 0.54380 0.04410
 C555 C 0.65276 0.56152 0.03736
 C556 C 0.68560 0.59986 0.03865
 N557 N 0.70138 0.61140 0.04647
 C558 C 0.70943 0.60102 0.06289
 C559 C 0.71259 0.56421 0.09704
 N560 N 0.70670 0.54664 0.10689
 C561 C 0.69036 0.53853 0.09638
 H562 H 0.65129 0.52308 0.06940
 H563 H 0.64729 0.57097 0.02472
 H564 H 0.67589 0.60399 0.02568
 H565 H 0.72172 0.60652 0.07282
 H566 H 0.72525 0.57412 0.10165
 H567 H 0.68192 0.52477 0.10061
 C568 C 0.06463 0.69924 0.58235
 C569 C 0.08024 0.69871 0.56735
 C570 C 0.08045 0.68321 0.55273
 C571 C 0.06502 0.66804 0.55286
 C572 C 0.04967 0.66843 0.56769
 C573 C 0.04948 0.68418 0.58260
 C574 C 0.06092 0.71223 0.59869
 N575 N 0.04389 0.70551 0.60899
 C576 C 0.03681 0.68830 0.59919
 C577 C 0.03714 0.65158 0.56421
 N578 N 0.04449 0.64103 0.54756
 C579 C 0.06157 0.65110 0.54060
 C580 C 0.09798 0.68579 0.54100
 N581 N 0.10853 0.70247 0.54820
 C582 C 0.09762 0.71054 0.56426
 H583 H 0.06997 0.72570 0.60269
 H584 H 0.02364 0.67915 0.60390
 H585 H 0.02382 0.64731 0.57334
 H586 H 0.07075 0.64663 0.52738
 H587 H 0.10315 0.67567 0.52874
 H588 H 0.10212 0.72375 0.57344
 C589 C 0.56517 1.05072 0.66870
 C590 C 0.58046 1.05140 0.68413
 C591 C 0.57976 1.06655 0.69920
 C592 C 0.56377 1.08121 0.69907
 C593 C 0.54896 1.08068 0.68371
 C594 C 0.54962 1.06530 0.66850
 C595 C 0.56208 1.03808 0.65185
 N596 N 0.54497 1.04464 0.64133
 C597 C 0.53738 1.06139 0.65158
 C598 C 0.53628 1.09746 0.68648
 N599 N 0.54288 1.10832 0.70329
 C600 C 0.55966 1.09823 0.71114
 C601 C 0.59711 1.06423 0.71133
 N602 N 0.60837 1.04807 0.70402
 C603 C 0.59819 1.04010 0.68743
 H604 H 0.57198 1.02535 0.64754
 H605 H 0.52368 1.07001 0.64740
 H606 H 0.52322 1.10127 0.67675
 H607 H 0.56899 1.10328 0.72404
 H608 H 0.60130 1.07385 0.72434
 H609 H 0.60366 1.02757 0.67786
 C610 C 0.45186 0.33062 0.93513
 C611 C 0.45189 0.31554 0.91952
 C612 C 0.43750 0.29980 0.91998
 C613 C 0.42284 0.29894 0.93585
 C614 C 0.42257 0.31390 0.95103
 C615 C 0.43728 0.32986 0.95070
 C616 C 0.46360 0.34805 0.93835
 N617 N 0.45662 0.35800 0.95557
 C618 C 0.44037 0.34687 0.96307
 C619 C 0.40536 0.31025 0.96304
 N620 N 0.39517 0.29344 0.95550
 C621 C 0.40599 0.28645 0.93888
 C622 C 0.43986 0.28843 0.90222
 N623 N 0.45527 0.29691 0.89077
 C624 C 0.46282 0.31344 0.90137
 H625 H 0.47602 0.35312 0.92841
 H626 H 0.43156 0.35051 0.97678
 H627 H 0.40011 0.31990 0.97562
 H628 H 0.40166 0.27375 0.92896
 H629 H 0.43053 0.27530 0.89780
 H630 H 0.47462 0.32388 0.89579
 C631 C 0.94514 0.42952 0.33695
 C632 C 0.94489 0.41434 0.32151
 C633 C 0.93022 0.41513 0.30605
 C634 C 0.91543 0.43091 0.30588
 C635 C 0.91560 0.44589 0.32107
 C636 C 0.93070 0.44525 0.33668
 C637 C 0.95791 0.43287 0.35359
 N638 N 0.95181 0.45041 0.36348
 C639 C 0.93504 0.45799 0.35314
 C640 C 0.89937 0.45910 0.31700
 N641 N 0.88936 0.45239 0.29975
 C642 C 0.89918 0.43516 0.29289
 C643 C 0.93350 0.39849 0.29332
 N644 N 0.94979 0.38739 0.30073
 C645 C 0.95681 0.39709 0.31804
 H646 H 0.97117 0.42351 0.35762
 H647 H 0.92634 0.47166 0.35715
 H648 H 0.89505 0.47239 0.32616
 H649 H 0.89494 0.42639 0.27929
 H650 H 0.92441 0.39483 0.27979
 H651 H 0.96934 0.39180 0.32777
 C652 C 0.30264 0.93148 0.41681
 C653 C 0.30153 0.91738 0.43323
 C654 C 0.31594 0.91824 0.44901
 C655 C 0.33173 0.93305 0.44857
 C656 C 0.33274 0.94698 0.43251
 C657 C 0.31810 0.94617 0.41651
 C658 C 0.29122 0.93392 0.39901
 N659 N 0.29935 0.94975 0.38776
 C660 C 0.31582 0.95730 0.39860
 C661 C 0.34979 0.95924 0.43590
 N662 N 0.35936 0.95303 0.45365
 C663 C 0.34824 0.93695 0.46142
 C664 C 0.31137 0.90266 0.46261
 N665 N 0.29455 0.89221 0.45552
 C666 C 0.28845 0.90117 0.43749
 H667 H 0.27838 0.92427 0.39439
 H668 H 0.32574 0.96991 0.39403
 H669 H 0.35500 0.97135 0.42568
 H670 H 0.35162 0.92874 0.47557
 H671 H 0.31970 0.89925 0.47671
 H672 H 0.27570 0.89611 0.42791
 O673 O 0.25008 0.47708 0.80749
 O674 O 0.21481 0.48020 0.80031
 O675 O 0.27560 0.44806 0.75363
 O676 O 0.27284 0.45319 0.71991
 O677 O 0.30505 0.50146 0.77871
 O678 O 0.29796 0.53763 0.77759
 O679 O 0.22288 0.50586 0.69845
 O680 O 0.22668 0.47000 0.70395
 O681 O 0.19674 0.53193 0.74966
 O682 O 0.20322 0.52929 0.78772
 O683 O 0.24887 0.55721 0.72491
 O684 O 0.28600 0.55022 0.73061
 O685 O 0.24778 0.53077 0.69885
 O686 O 0.28594 0.52312 0.70561
 O687 O 0.22450 0.55791 0.75023
 O688 O 0.22657 0.55052 0.78838
 O689 O 0.19639 0.50719 0.72475
 O690 O 0.20180 0.46948 0.73163
 O691 O 0.27561 0.50134 0.80740
 O692 O 0.27461 0.53809 0.79995
 O693 O 0.30442 0.47641 0.75407
 O694 O 0.29641 0.48147 0.71695
 O695 O 0.25104 0.44892 0.77886
 O696 O 0.21358 0.45719 0.77352
 Zr697 Zr 0.23802 0.47871 0.77732
 O698 O 0.21855 0.49750 0.75916
 Zr699 Zr 0.27458 0.47801 0.74116
 O700 O 0.25651 0.49652 0.72139
 Zr701 Zr 0.27510 0.51432 0.77757
 O702 O 0.25739 0.53447 0.75917
 Zr703 Zr 0.22506 0.49226 0.72783
 O704 O 0.24298 0.47179 0.74593
 Zr705 Zr 0.22582 0.52865 0.76409
 O706 O 0.24356 0.51001 0.78421
 Zr707 Zr 0.26228 0.52775 0.72783
 O708 O 0.28203 0.50925 0.74624
 O709 O 0.26941 0.48334 0.77233
 O710 O 0.23092 0.52329 0.73298
 C711 C 0.26485 0.48716 0.81625
 C712 C 0.26539 0.43980 0.76854
 C713 C 0.31354 0.48676 0.76839
 C714 C 0.23263 0.52112 0.69026
 C715 C 0.18829 0.52258 0.73428
 C716 C 0.23411 0.56601 0.73489
 H717 H 0.20388 0.49445 0.76223
 H718 H 0.26122 0.54892 0.76228
 H719 H 0.27814 0.47450 0.78123
 H720 H 0.25962 0.49330 0.70678
 H721 H 0.23120 0.45696 0.71052
 H722 H 0.26709 0.45874 0.70688
 H723 H 0.23856 0.55970 0.78603
 H724 H 0.26098 0.53728 0.80686
 H725 H 0.19226 0.47045 0.71966
 H726 H 0.21479 0.44652 0.78444
 H727 H 0.28509 0.55969 0.71862
 H728 H 0.30408 0.53765 0.76359
 H729 H 0.21500 0.49444 0.80581
 H730 H 0.19357 0.51768 0.78530
 H731 H 0.30633 0.46981 0.71771
 H732 H 0.28426 0.53359 0.69457
 O733 O 0.25021 0.05498 0.22365
 O734 O 0.28553 0.04719 0.22568
 O735 O 0.22266 0.00231 0.19483
 O736 O 0.22533 -0.03160 0.19920
 O737 O 0.19571 0.02711 0.24906
 O738 O 0.20346 0.02488 0.28507
 O739 O 0.27593 -0.05509 0.24965
 O740 O 0.27216 -0.04849 0.21432
 O741 O 0.30457 -0.00335 0.27570
 O742 O 0.29794 0.03402 0.27487
 O743 O 0.25337 -0.02971 0.30210
 O744 O 0.21611 -0.02222 0.29758
 O745 O 0.25097 -0.05512 0.27449
 O746 O 0.21319 -0.04599 0.26959
 O747 O 0.27781 -0.00448 0.30273
 O748 O 0.27504 0.03425 0.29653
 O749 O 0.30367 -0.02856 0.25129
 O750 O 0.29717 -0.02133 0.21373
 O751 O 0.22570 0.05507 0.24895
 O752 O 0.22753 0.04667 0.28569
 O753 O 0.19507 0.00279 0.22369
 O754 O 0.20247 -0.03462 0.22825
 O755 O 0.24786 0.02689 0.19510
 O756 O 0.28549 0.02075 0.20218
 Zr757 Zr 0.26184 0.02466 0.22454
 O758 O 0.28153 0.00600 0.24258
 Zr759 Zr 0.22465 -0.01078 0.22445
 O760 O 0.24300 -0.03105 0.24205
 Zr761 Zr 0.22588 0.02496 0.26135
 O762 O 0.24383 0.00590 0.28072
 Zr763 Zr 0.27450 -0.02515 0.23709
 O764 O 0.25617 -0.00651 0.21737
 Zr765 Zr 0.27523 0.01049 0.27405
 O766 O 0.25738 0.03116 0.25615
 Zr767 Zr 0.23826 -0.02521 0.27359
 O768 O 0.21825 -0.00615 0.25600
 O769 O 0.23058 0.02014 0.23012
 O770 O 0.26962 -0.02052 0.26839
 C771 C 0.23602 0.06387 0.23439
 C772 C 0.23282 0.01715 0.18640
 C773 C 0.18666 0.01736 0.23426
 C774 C 0.26549 -0.06389 0.26411
 C775 C 0.31263 -0.01868 0.26604
 C776 C 0.26864 -0.02021 0.31060
 H777 H 0.29613 0.00901 0.23916
 H778 H 0.24056 0.00873 0.29538
 H779 H 0.22181 0.02937 0.22167
 H780 H 0.23940 -0.04547 0.23853
 H781 H 0.26691 -0.04170 0.20166
 H782 H 0.23097 -0.04481 0.20437
 H783 H 0.26418 0.03098 0.30676
 H784 H 0.24123 0.05340 0.28460
 H785 H 0.30675 -0.03326 0.21446
 H786 H 0.28415 0.03186 0.19173
 H787 H 0.21714 -0.03449 0.30666
 H788 H 0.19740 0.01086 0.28519
 H789 H 0.28548 0.05293 0.23985
 H790 H 0.30650 0.03264 0.26230
 H791 H 0.19228 -0.03356 0.21683
 H792 H 0.21467 -0.05734 0.27974
 O793 O 0.47187 0.80465 0.25077
 O794 O 0.47416 0.79734 0.21516
 O795 O 0.44385 0.75214 0.27783
 O796 O 0.44831 0.71826 0.27479
 O797 O 0.49863 0.77660 0.30458
 O798 O 0.53452 0.77533 0.29625
 O799 O 0.49842 0.69482 0.22454
 O800 O 0.46318 0.70167 0.22791
 O801 O 0.52440 0.74708 0.19568
 O802 O 0.52324 0.78429 0.20220
 O803 O 0.55159 0.72119 0.24696
 O804 O 0.54686 0.72801 0.28407
 O805 O 0.52419 0.69542 0.24863
 O806 O 0.51913 0.70402 0.28660
 O807 O 0.55166 0.74625 0.22238
 O808 O 0.54489 0.78495 0.22519
 O809 O 0.50075 0.72115 0.19689
 O810 O 0.46289 0.72874 0.20285
 O811 O 0.49729 0.80498 0.27522
 O812 O 0.53417 0.79733 0.27240
 O813 O 0.47359 0.75193 0.30550
 O814 O 0.47748 0.71482 0.29736
 O815 O 0.44375 0.77647 0.25243
 O816 O 0.45076 0.77076 0.21494
 Zr817 Zr 0.47320 0.77458 0.23860
 O818 O 0.49125 0.75609 0.21880
 Zr819 Zr 0.47360 0.73903 0.27561
 O820 O 0.49132 0.71896 0.25718
 Zr821 Zr 0.51029 0.77513 0.27429
 O822 O 0.52972 0.75626 0.25629
 Zr823 Zr 0.48611 0.72488 0.22575
 O824 O 0.46632 0.74334 0.24417
 Zr825 Zr 0.52275 0.76087 0.22497
 O826 O 0.50479 0.78139 0.24290
 Zr827 Zr 0.52289 0.72509 0.26180
 O828 O 0.50523 0.74396 0.28184
 O829 O 0.47900 0.76998 0.26981
 O830 O 0.51745 0.72979 0.23053
 C831 C 0.48237 0.81354 0.26516
 C832 C 0.43518 0.76680 0.26753
 C833 C 0.48442 0.76632 0.31390
 C834 C 0.51343 0.68636 0.23455
 C835 C 0.51527 0.73129 0.18788
 C836 C 0.55988 0.73078 0.23169
 H837 H 0.48772 0.75908 0.20423
 H838 H 0.54439 0.75921 0.25952
 H839 H 0.47053 0.77894 0.27882
 H840 H 0.48795 0.70451 0.26074
 H841 H 0.45047 0.70856 0.23293
 H842 H 0.45342 0.70520 0.26874
 H843 H 0.55520 0.78184 0.23606
 H844 H 0.53256 0.80429 0.25888
 H845 H 0.46378 0.71685 0.19325
 H846 H 0.44028 0.78187 0.21629
 H847 H 0.55601 0.71576 0.28303
 H848 H 0.53501 0.76129 0.30221
 H849 H 0.48820 0.80342 0.21553
 H850 H 0.51035 0.78312 0.19403
 H851 H 0.46613 0.71576 0.30762
 H852 H 0.52924 0.69264 0.28487
 O853 O 0.05313 0.72224 0.74864
 O854 O 0.04735 0.72530 0.78435
 O855 O -0.00161 0.69649 0.72349
 O856 O -0.03509 0.70261 0.72604
 O857 O 0.02526 0.75002 0.69616
 O858 O 0.02489 0.78614 0.70449
 O859 O -0.05456 0.75392 0.77866
 O860 O -0.05042 0.71828 0.77338
 O861 O -0.00140 0.77640 0.80586
 O862 O 0.03556 0.77474 0.79838
 O863 O -0.02728 0.80505 0.75421
 O864 O -0.02164 0.79943 0.71697
 O865 O -0.05386 0.77933 0.75434
 O866 O -0.04743 0.77304 0.71605
 O867 O -0.00231 0.80422 0.77900
 O868 O 0.03632 0.79633 0.77545
 O869 O -0.02733 0.75273 0.80522
 O870 O -0.02227 0.71521 0.79742
 O871 O 0.05399 0.74820 0.72494
 O872 O 0.04755 0.78504 0.72779
 O873 O -0.00017 0.72574 0.69556
 O874 O -0.03721 0.73206 0.70389
 O875 O 0.02294 0.69519 0.74877
 O876 O 0.01989 0.70326 0.78612
 Zr877 Zr 0.02349 0.72500 0.76188
 O878 O 0.00599 0.74358 0.78206
 Zr879 Zr -0.01301 0.72676 0.72547
 O880 O -0.03217 0.74498 0.74442
 Zr881 Zr 0.02448 0.76197 0.72637
 O882 O 0.00661 0.78194 0.74481
 Zr883 Zr -0.02559 0.73945 0.77564
 O884 O -0.00819 0.71925 0.75678
 Zr885 Zr 0.01159 0.77492 0.77607
 O886 O 0.03118 0.75631 0.75765
 Zr887 Zr -0.02495 0.77616 0.73979
 O888 O -0.00706 0.75807 0.71926
 O889 O 0.01835 0.73090 0.73080
 O890 O -0.01976 0.77056 0.77098
 C891 C 0.06218 0.73274 0.73440
 C892 C 0.01230 0.68699 0.73409
 C893 C 0.01460 0.73594 0.68704
 C894 C -0.06254 0.76954 0.76928
 C895 C -0.01665 0.76683 0.81424
 C896 C -0.01742 0.81302 0.76950
 H897 H 0.00923 0.73983 0.79651
 H898 H 0.00999 0.79646 0.74152
 H899 H 0.02678 0.72190 0.72178
 H900 H -0.04691 0.74229 0.74128
 H901 H -0.04451 0.70534 0.76777
 H902 H -0.04791 0.70829 0.73212
 H903 H 0.03320 0.80676 0.76475
 H904 H 0.05451 0.78348 0.74134
 H905 H -0.03394 0.71618 0.80731
 H906 H 0.03049 0.69229 0.78450
 H907 H -0.03344 0.80913 0.71817
 H908 H 0.01093 0.78653 0.69819
 H909 H 0.05392 0.73908 0.78369
 H910 H 0.03482 0.76141 0.80578
 H911 H -0.03685 0.72088 0.69342
 H912 H -0.05816 0.78377 0.71809
 O913 O -0.03032 -0.05379 -0.00054
 O914 O -0.02588 -0.04788 0.03505
 O915 O -0.05690 0.00088 -0.02469
 O916 O -0.05040 0.03437 -0.02250
 O917 O -0.00442 -0.02627 -0.05404
 O918 O 0.03213 -0.02592 -0.04710
 O919 O 0.00272 0.05350 0.02828
 O920 O -0.03322 0.04933 0.02414
 O921 O 0.02706 0.00135 0.05425
 O922 O 0.02412 -0.03582 0.04785
 O923 O 0.05382 0.02513 0.00105
 O924 O 0.04556 0.02070 -0.03567
 O925 O 0.02804 0.05232 0.00385
 O926 O 0.01971 0.04689 -0.03434
 O927 O 0.05358 0.00031 0.02591
 O928 O 0.04436 -0.03780 0.02384
 O929 O 0.00298 0.02692 0.05446
 O930 O -0.03505 0.02142 0.04855
 O931 O -0.00524 -0.05468 -0.02524
 O932 O 0.03185 -0.04848 -0.02380
 O933 O -0.02883 -0.00097 -0.05367
 O934 O -0.02178 0.03607 -0.04580
 O935 O -0.05730 -0.02387 0.00031
 O936 O -0.04793 -0.02031 0.03746
 Zr937 Zr -0.02698 -0.02419 0.01255
 O938 O -0.00752 -0.00678 0.03207
 Zr939 Zr -0.02640 0.01213 -0.02393
 O940 O -0.00731 0.03119 -0.00567
 Zr941 Zr 0.00876 -0.02537 -0.02430
 O942 O 0.02951 -0.00767 -0.00658
 Zr943 Zr -0.01180 0.02466 0.02568
 O944 O -0.03283 0.00739 0.00761
 Zr945 Zr 0.02363 -0.01253 0.02494
 O946 O 0.00423 -0.03200 0.00716
 Zr947 Zr 0.02377 0.02386 -0.01138
 O948 O 0.00474 0.00609 -0.03125
 O949 O -0.02216 -0.01912 -0.01870
 O950 O 0.01924 0.01872 0.01996
 C951 C -0.02042 -0.06278 -0.01528
 C952 C -0.06603 -0.01320 -0.01404
 C953 C -0.01907 -0.01583 -0.06254
 C954 C 0.01853 0.06111 0.01894
 C955 C 0.01794 0.01683 0.06274
 C956 C 0.06248 0.01479 0.01562
 H957 H -0.01070 -0.00983 0.04669
 H958 H 0.04385 -0.01128 -0.01050
 H959 H -0.03154 -0.02752 -0.02736
 H960 H -0.01005 0.04591 -0.00864
 H961 H -0.04642 0.04333 0.01920
 H962 H -0.04439 0.04713 -0.01663
 H963 H 0.05392 -0.03550 0.01215
 H964 H 0.03052 -0.05569 -0.01039
 H965 H -0.03367 0.03314 0.05830
 H966 H -0.05897 -0.03088 0.03627
 H967 H 0.05553 0.03230 -0.03487
 H968 H 0.03212 -0.01211 -0.05362
 H969 H -0.01190 -0.05407 0.03427
 H970 H 0.01128 -0.03452 0.05603
 H971 H -0.03337 0.03568 -0.05585
 H972 H 0.03064 0.05746 -0.03248
 O973 O 0.05512 0.52626 0.50384
 O974 O 0.04952 0.52279 0.46833
 O975 O 0.00052 0.55396 0.52793
 O976 O -0.03302 0.54850 0.52457
 O977 O 0.02547 0.50008 0.55717
 O978 O 0.02511 0.46413 0.54934
 O979 O -0.05285 0.49683 0.47328
 O980 O -0.04767 0.53234 0.47753
 O981 O -0.00048 0.47164 0.44771
 O982 O 0.03707 0.47354 0.45537
 O983 O -0.02679 0.44508 0.49896
 O984 O -0.02205 0.45131 0.53606
 O985 O -0.05335 0.47204 0.49823
 O986 O -0.04673 0.47848 0.53640
 O987 O -0.00065 0.44450 0.47549
 O988 O 0.03728 0.45227 0.47833
 O989 O -0.02544 0.49636 0.44705
 O990 O -0.01921 0.53377 0.45377
 O991 O 0.05486 0.50157 0.52890
 O992 O 0.04804 0.46445 0.52629
 O993 O 0.00090 0.52523 0.55627
 O994 O -0.03615 0.51973 0.54747
 O995 O 0.02595 0.55378 0.50358
 O996 O 0.02254 0.54547 0.46603
 Zr997 Zr 0.02554 0.52396 0.49055
 O998 O 0.00801 0.50529 0.47046
 Zr999 Zr -0.01150 0.52387 0.52624
 O1000 O -0.03070 0.50560 0.50740
 Zr1001 Zr 0.02528 0.48788 0.52700
 O1002 O 0.00726 0.46788 0.50867
 Zr1003 Zr -0.02351 0.51033 0.47623
 O1004 O -0.00602 0.53061 0.49490
 Zr1005 Zr 0.01285 0.47402 0.47734
 O1006 O 0.03255 0.49262 0.49572
 Zr1007 Zr -0.02429 0.47433 0.51284
 O1008 O -0.00633 0.49257 0.53328
 O1009 O 0.01982 0.51890 0.52167
 O1010 O -0.01852 0.47912 0.48164
 C1011 C 0.06357 0.51639 0.51889
 C1012 C 0.01526 0.56265 0.51782
 C1013 C 0.01503 0.51475 0.56555
 C1014 C -0.06162 0.48199 0.48313
 C1015 C -0.01533 0.48145 0.43880
 C1016 C -0.01615 0.43621 0.48473
 H1017 H 0.01149 0.50861 0.45597
 H1018 H 0.01035 0.45340 0.51240
 H1019 H 0.02828 0.52785 0.53073
 H1020 H -0.04540 0.50876 0.51025
 H1021 H -0.04141 0.54527 0.48276
 H1022 H -0.04589 0.54295 0.51843
 H1023 H 0.03503 0.44330 0.49048
 H1024 H 0.05559 0.46608 0.51309
 H1025 H -0.03087 0.53298 0.44382
 H1026 H 0.03330 0.55627 0.46773
 H1027 H -0.03409 0.44192 0.53475
 H1028 H 0.01083 0.46353 0.55481
 H1029 H 0.05545 0.50872 0.46894
 H1030 H 0.03573 0.48605 0.44673
 H1031 H -0.03567 0.53117 0.55765
 H1032 H -0.05786 0.46816 0.53439
 O1033 O 0.50095 0.05378 0.52639
 O1034 O 0.46549 0.04707 0.52353
 O1035 O 0.52654 0.00006 0.55513
 O1036 O 0.52428 -0.03360 0.54996
 O1037 O 0.55478 0.02544 0.50127
 O1038 O 0.54747 0.02314 0.46502
 O1039 O 0.47318 -0.05546 0.49915
 O1040 O 0.47703 -0.04930 0.53443
 O1041 O 0.44558 -0.00295 0.47358
 O1042 O 0.45313 0.03411 0.47418
 O1043 O 0.49741 -0.02983 0.44674
 O1044 O 0.53463 -0.02341 0.45245
 O1045 O 0.49802 -0.05555 0.47420
 O1046 O 0.53596 -0.04792 0.47985
 O1047 O 0.47274 -0.00478 0.44636
 O1048 O 0.47610 0.03386 0.45274
 O1049 O 0.44597 -0.02835 0.49776
 O1050 O 0.45260 -0.02159 0.53532
 O1051 O 0.52546 0.05359 0.50110
 O1052 O 0.52384 0.04553 0.46436
 O1053 O 0.55473 0.00119 0.52668
 O1054 O 0.54712 -0.03629 0.52104
 O1055 O 0.50167 0.02499 0.55474
 O1056 O 0.46419 0.02056 0.54668
 Zr1057 Zr 0.48848 0.02381 0.52491
 O1058 O 0.46870 0.00559 0.50656
 Zr1059 Zr 0.52512 -0.01231 0.52515
 O1060 O 0.50661 -0.03213 0.50719
 Zr1061 Zr 0.52482 0.02362 0.48852
 O1062 O 0.50673 0.00505 0.46882
 Zr1063 Zr 0.47518 -0.02569 0.51192
 O1064 O 0.49361 -0.00749 0.53191
 Zr1065 Zr 0.47531 0.01010 0.47516
 O1066 O 0.49337 0.03035 0.49339
 Zr1067 Zr 0.51173 -0.02617 0.47576
 O1068 O 0.53193 -0.00762 0.49371
 O1069 O 0.51970 0.01873 0.51971
 O1070 O 0.48037 -0.02102 0.48065
 C1071 C 0.51535 0.06244 0.51578
 C1072 C 0.51617 0.01468 0.56372
 C1073 C 0.56340 0.01575 0.51635
 C1074 C 0.48333 -0.06417 0.48444
 C1075 C 0.43713 -0.01804 0.48327
 C1076 C 0.48223 -0.02020 0.43821
 H1077 H 0.45413 0.00886 0.50991
 H1078 H 0.51023 0.00792 0.45423
 H1079 H 0.52839 0.02770 0.52853
 H1080 H 0.50989 -0.04665 0.51057
 H1081 H 0.48244 -0.04274 0.54716
 H1082 H 0.51831 -0.04659 0.54458
 H1083 H 0.48705 0.03047 0.44264
 H1084 H 0.51017 0.05236 0.46523
 H1085 H 0.44279 -0.03333 0.53451
 H1086 H 0.46564 0.03153 0.55729
 H1087 H 0.53356 -0.03550 0.44310
 H1088 H 0.55380 0.00923 0.46538
 H1089 H 0.46608 0.05303 0.50947
 H1090 H 0.44487 0.03330 0.48700
 H1091 H 0.55744 -0.03532 0.53236
 H1092 H 0.53428 -0.05902 0.46944
 O1093 O 0.50164 0.55434 0.02722
 O1094 O 0.46593 0.54754 0.02374
 O1095 O 0.52744 0.50170 0.05591
 O1096 O 0.52363 0.46779 0.05170
 O1097 O 0.55600 0.52502 0.00178
 O1098 O 0.54833 0.52440 -0.03403
 O1099 O 0.47392 0.44513 -0.00045
 O1100 O 0.47733 0.45141 0.03506
 O1101 O 0.44714 0.49708 -0.02683
 O1102 O 0.45391 0.53429 -0.02565
 O1103 O 0.49925 0.47097 -0.05240
 O1104 O 0.53620 0.47657 -0.04608
 O1105 O 0.49913 0.44495 -0.02503
 O1106 O 0.53714 0.45278 -0.01822
 O1107 O 0.47529 0.49665 -0.05365
 O1108 O 0.47737 0.53486 -0.04637
 O1109 O 0.44690 0.47205 -0.00225
 O1110 O 0.45270 0.47916 0.03530
 O1111 O 0.52679 0.55430 0.00257
 O1112 O 0.52471 0.54650 -0.03439
 O1113 O 0.55556 0.50084 0.02727
 O1114 O 0.54717 0.46387 0.02328
 O1115 O 0.50233 0.52638 0.05525
 O1116 O 0.46481 0.52108 0.04726
 Zr1117 Zr 0.48908 0.52448 0.02551
 O1118 O 0.46950 0.50622 0.00693
 Zr1119 Zr 0.52555 0.48834 0.02634
 O1120 O 0.50729 0.46842 0.00822
 Zr1121 Zr 0.52579 0.52437 -0.01043
 O1122 O 0.50806 0.50561 -0.03023
 Zr1123 Zr 0.47581 0.47492 0.01243
 O1124 O 0.49397 0.49319 0.03269
 Zr1125 Zr 0.47655 0.51072 -0.02437
 O1126 O 0.49429 0.53107 -0.00594
 Zr1127 Zr 0.51290 0.47436 -0.02311
 O1128 O 0.53272 0.49307 -0.00503
 O1129 O 0.52040 0.51938 0.02064
 O1130 O 0.48147 0.47956 -0.01878
 C1131 C 0.51643 0.56302 0.01717
 C1132 C 0.51724 0.51664 0.06417
 C1133 C 0.56465 0.51477 0.01645
 C1134 C 0.48423 0.43635 -0.01505
 C1135 C 0.43855 0.48197 -0.01729
 C1136 C 0.48486 0.48116 -0.06155
 H1137 H 0.45488 0.50946 0.01004
 H1138 H 0.51182 0.50848 -0.04475
 H1139 H 0.52939 0.52825 0.02926
 H1140 H 0.51048 0.45390 0.01171
 H1141 H 0.48208 0.45811 0.04798
 H1142 H 0.51795 0.45464 0.04641
 H1143 H 0.48926 0.53233 -0.05563
 H1144 H 0.51139 0.55391 -0.03295
 H1145 H 0.44306 0.46729 0.03449
 H1146 H 0.46607 0.53222 0.05772
 H1147 H 0.53529 0.46426 -0.05516
 H1148 H 0.55381 0.51015 -0.03475
 H1149 H 0.46678 0.55357 0.00973
 H1150 H 0.44554 0.53340 -0.01290
 H1151 H 0.55703 0.46467 0.03501
 H1152 H 0.53550 0.44130 -0.02822
 O1153 O 0.77680 0.30449 0.49656
 O1154 O 0.77342 0.29831 0.53208
 O1155 O 0.80582 0.25006 0.47257
 O1156 O 0.80011 0.21644 0.47459
 O1157 O 0.75226 0.27574 0.44299
 O1158 O 0.71571 0.27351 0.44977
 O1159 O 0.74792 0.19607 0.52578
 O1160 O 0.78362 0.20126 0.52161
 O1161 O 0.72288 0.24870 0.55184
 O1162 O 0.72414 0.28565 0.54415
 O1163 O 0.69610 0.22233 0.49917
 O1164 O 0.70347 0.22734 0.46212
 O1165 O 0.72284 0.19609 0.50098
 O1166 O 0.73023 0.20196 0.46296
 O1167 O 0.69596 0.24739 0.52382
 O1168 O 0.70307 0.28571 0.52085
 O1169 O 0.74724 0.22339 0.55201
 O1170 O 0.78506 0.22938 0.54561
 O1171 O 0.75188 0.30400 0.47158
 O1172 O 0.71506 0.29639 0.47296
 O1173 O 0.77778 0.25155 0.44367
 O1174 O 0.77142 0.21409 0.45133
 O1175 O 0.80515 0.27538 0.49701
 O1176 O 0.79649 0.27178 0.53420
 Zr1177 Zr 0.77505 0.27470 0.50950
 O1178 O 0.75642 0.25678 0.52916
 Zr1179 Zr 0.77556 0.23809 0.47327
 O1180 O 0.75717 0.21856 0.49169
 Zr1181 Zr 0.73908 0.27424 0.47264
 O1182 O 0.71906 0.25613 0.49065
 Zr1183 Zr 0.76159 0.22538 0.52301
 O1184 O 0.78193 0.24326 0.50479
 Zr1185 Zr 0.72511 0.26156 0.52207
 O1186 O 0.74362 0.28144 0.50402
 Zr1187 Zr 0.72580 0.22479 0.48607
 O1188 O 0.74418 0.24291 0.46594
 O1189 O 0.77024 0.26921 0.47832
 O1190 O 0.73037 0.23035 0.51738
 C1191 C 0.76650 0.31288 0.48172
 C1192 C 0.81436 0.26472 0.48297
 C1193 C 0.76757 0.26611 0.43476
 C1194 C 0.73258 0.18772 0.51618
 C1195 C 0.73255 0.23369 0.56051
 C1196 C 0.68747 0.23240 0.51395
 H1197 H 0.75966 0.26014 0.54372
 H1198 H 0.70456 0.25918 0.48683
 H1199 H 0.77932 0.27799 0.46975
 H1200 H 0.76036 0.20392 0.48875
 H1201 H 0.79652 0.20748 0.51625
 H1202 H 0.79446 0.20353 0.48045
 H1203 H 0.69343 0.28275 0.50935
 H1204 H 0.71596 0.30356 0.48643
 H1205 H 0.78399 0.21781 0.55557
 H1206 H 0.80714 0.28273 0.53282
 H1207 H 0.69378 0.21553 0.46316
 H1208 H 0.71655 0.25977 0.44313
 H1209 H 0.75942 0.30443 0.53107
 H1210 H 0.73695 0.28480 0.55249
 H1211 H 0.78285 0.21491 0.44117
 H1212 H 0.71949 0.19119 0.46470
 O1213 O 0.74947 0.77930 -0.05607
 O1214 O 0.71395 0.77658 -0.04983
 O1215 O 0.77534 0.80679 -0.00234
 O1216 O 0.77279 0.80192 0.03103
 O1217 O 0.80274 0.75183 -0.02724
 O1218 O 0.79434 0.71639 -0.02670
 O1219 O 0.72094 0.75152 0.05284
 O1220 O 0.72489 0.78701 0.04664
 O1221 O 0.69350 0.72571 0.00085
 O1222 O 0.70005 0.72711 -0.03633
 O1223 O 0.74448 0.69925 0.02723
 O1224 O 0.78166 0.70402 0.02103
 O1225 O 0.74589 0.72662 0.05323
 O1226 O 0.78390 0.73175 0.04501
 O1227 O 0.72039 0.69878 0.00156
 O1228 O 0.72364 0.70601 -0.03722
 O1229 O 0.69390 0.75001 0.02619
 O1230 O 0.70031 0.78766 0.01892
 O1231 O 0.77365 0.75370 -0.05610
 O1232 O 0.77049 0.71668 -0.04862
 O1233 O 0.80345 0.77683 -0.00255
 O1234 O 0.79463 0.77274 0.03464
 O1235 O 0.75016 0.80712 -0.02702
 O1236 O 0.71254 0.79939 -0.02288
 Zr1237 Zr 0.73669 0.77745 -0.02625
 O1238 O 0.71657 0.75924 -0.00822
 Zr1239 Zr 0.77331 0.77688 0.00999
 O1240 O 0.75442 0.75929 0.02970
 Zr1241 Zr 0.77233 0.74049 -0.02635
 O1242 O 0.75418 0.72103 -0.00771
 Zr1243 Zr 0.72302 0.76438 0.02313
 O1244 O 0.74186 0.78412 0.00515
 Zr1245 Zr 0.72286 0.72780 -0.01284
 O1246 O 0.74100 0.74593 -0.03306
 Zr1247 Zr 0.75928 0.72787 0.02361
 O1248 O 0.77958 0.74540 0.00499
 O1249 O 0.76791 0.77174 -0.02115
 O1250 O 0.72801 0.73314 0.01834
 C1251 C 0.76392 0.76875 -0.06476
 C1252 C 0.76486 0.81574 -0.01668
 C1253 C 0.81204 0.76589 -0.01675
 C1254 C 0.73113 0.73691 0.06171
 C1255 C 0.68530 0.73507 0.01630
 C1256 C 0.72954 0.69071 0.01726
 H1257 H 0.70201 0.76269 -0.01144
 H1258 H 0.75753 0.70643 -0.01065
 H1259 H 0.77705 0.78038 -0.02981
 H1260 H 0.75770 0.76265 0.04426
 H1261 H 0.73009 0.79973 0.03998
 H1262 H 0.76583 0.79703 0.04371
 H1263 H 0.73437 0.69564 -0.03389
 H1264 H 0.75727 0.71865 -0.05611
 H1265 H 0.69051 0.78684 0.03067
 H1266 H 0.71415 0.81009 -0.03371
 H1267 H 0.78054 0.69494 0.03330
 H1268 H 0.79970 0.71527 -0.01242
 H1269 H 0.71414 0.76244 -0.05562
 H1270 H 0.69231 0.74026 -0.03566
 H1271 H 0.80533 0.78366 0.03370
 H1272 H 0.78213 0.72167 0.05638
 O1273 O 1.00135 0.19588 0.22052
 O1274 O 0.96603 0.20282 0.22278
 O1275 O 1.02828 0.24955 0.19381
 O1276 O 1.02607 0.28312 0.19940
 O1277 O 1.05510 0.22294 0.24752
 O1278 O 1.04705 0.22397 0.28363
 O1279 O 0.97355 0.30403 0.25064
 O1280 O 0.97926 0.29946 0.21463
 O1281 O 0.94611 0.25279 0.27408
 O1282 O 0.95259 0.21513 0.27214
 O1283 O 0.99774 0.27758 0.30195
 O1284 O 1.03514 0.27097 0.29656
 O1285 O 0.99784 0.30333 0.27622
 O1286 O 1.03633 0.29643 0.26977
 O1287 O 0.97249 0.25313 0.30129
 O1288 O 0.97546 0.21434 0.29420
 O1289 O 0.94720 0.27830 0.25001
 O1290 O 0.95424 0.27190 0.21229
 O1291 O 1.02507 0.19464 0.24659
 O1292 O 1.02328 0.20213 0.28327
 O1293 O 1.05602 0.24811 0.22305
 O1294 O 1.04840 0.28524 0.22889
 O1295 O 1.00280 0.22528 0.19290
 O1296 O 0.96525 0.23001 0.20045
 Zr1297 Zr 0.98922 0.22588 0.22252
 O1298 O 0.96931 0.24392 0.24088
 Zr1299 Zr 1.02636 0.26147 0.22390
 O1300 O 1.00778 0.28126 0.24184
 Zr1301 Zr 1.02487 0.22454 0.25961
 O1302 O 1.00676 0.24304 0.27938
 Zr1303 Zr 0.97643 0.27516 0.23625
 O1304 O 0.99495 0.25721 0.21628
 Zr1305 Zr 0.97536 0.23860 0.27230
 O1306 O 0.99341 0.21849 0.25395
 Zr1307 Zr 1.01234 0.27436 0.27317
 O1308 O 1.03252 0.25582 0.25532
 O1309 O 1.02046 0.23032 0.22846
 O1310 O 0.98114 0.26957 0.26740
 C1311 C 1.01511 0.18647 0.23139
 C1312 C 1.01771 0.23547 0.18457
 C1313 C 1.06437 0.23333 0.23334
 C1314 C 0.98267 0.31185 0.26650
 C1315 C 0.93828 0.26847 0.26472
 C1316 C 0.98203 0.26834 0.30982
 H1317 H 0.95473 0.24102 0.23721
 H1318 H 1.00997 0.23982 0.29397
 H1319 H 1.02928 0.22144 0.21969
 H1320 H 1.01114 0.29588 0.23899
 H1321 H 0.98435 0.29313 0.20167
 H1322 H 1.02025 0.29612 0.20490
 H1323 H 0.98606 0.21756 0.30476
 H1324 H 1.00943 0.19570 0.28220
 H1325 H 0.94469 0.28386 0.21310
 H1326 H 0.96674 0.21936 0.18953
 H1327 H 1.03403 0.28285 0.30615
 H1328 H 1.05337 0.23787 0.28401
 H1329 H 0.96578 0.19706 0.23694
 H1330 H 0.94404 0.21698 0.25960
 H1331 H 1.05880 0.28458 0.21766
 H1332 H 1.03433 0.30732 0.28034
 O1333 O 0.77617 0.94529 0.74953
 O1334 O 0.77299 0.95171 0.71431
 O1335 O 0.80686 0.99929 0.77353
 O1336 O 0.80194 1.03268 0.77223
 O1337 O 0.75299 0.97442 0.80351
 O1338 O 0.71656 0.97765 0.79708
 O1339 O 0.74997 1.05440 0.72081
 O1340 O 0.78555 1.04839 0.72497
 O1341 O 0.72345 1.00308 0.69495
 O1342 O 0.72351 0.96583 0.70248
 O1343 O 0.69824 1.03047 0.74694
 O1344 O 0.70469 1.02433 0.78409
 O1345 O 0.72608 1.05572 0.74664
 O1346 O 0.73259 1.04841 0.78441
 O1347 O 0.69628 1.00445 0.72340
 O1348 O 0.70266 0.96630 0.72560
 O1349 O 0.74915 1.02701 0.69419
 O1350 O 0.78640 1.02008 0.70106
 O1351 O 0.75129 0.94606 0.77442
 O1352 O 0.71478 0.95510 0.77371
 O1353 O 0.77894 0.99812 0.80275
 O1354 O 0.77335 1.03578 0.79514
 O1355 O 0.80538 0.97366 0.74944
 O1356 O 0.79650 0.97777 0.71217
 Zr1357 Zr 0.77520 0.97521 0.73695
 O1358 O 0.75678 0.99359 0.71742
 Zr1359 Zr 0.77685 1.01166 0.77322
 O1360 O 0.75897 1.03170 0.75485
 Zr1361 Zr 0.73955 0.97640 0.77392
 O1362 O 0.71986 0.99525 0.75610
 Zr1363 Zr 0.76296 1.02480 0.72349
 O1364 O 0.78291 1.00641 0.74168
 Zr1365 Zr 0.72536 0.98982 0.72462
 O1366 O 0.74359 0.96936 0.74247
 Zr1367 Zr 0.72750 1.02641 0.76063
 O1368 O 0.74544 1.00763 0.78063
 O1369 O 0.77079 0.98063 0.76818
 O1370 O 0.73160 1.02086 0.72924
 C1371 C 0.76549 0.93681 0.76398
 C1372 C 0.81498 0.98440 0.76320
 C1373 C 0.76849 0.98382 0.81172
 C1374 C 0.73575 1.06364 0.73120
 C1375 C 0.73399 1.01726 0.68587
 C1376 C 0.68876 1.02026 0.73276
 H1377 H 0.75983 0.99009 0.70286
 H1378 H 0.70529 0.99266 0.75997
 H1379 H 0.77968 0.97152 0.77665
 H1380 H 0.76265 1.04621 0.75786
 H1381 H 0.79831 1.04185 0.73035
 H1382 H 0.79674 1.04565 0.76608
 H1383 H 0.69357 0.96905 0.73757
 H1384 H 0.71527 0.94799 0.76018
 H1385 H 0.78593 1.03179 0.69121
 H1386 H 0.80701 0.96669 0.71354
 H1387 H 0.69547 1.03651 0.78305
 H1388 H 0.71746 0.99157 0.80333
 H1389 H 0.75863 0.94643 0.71481
 H1390 H 0.73609 0.96653 0.69384
 H1391 H 0.78463 1.03456 0.80547
 H1392 H 0.72225 1.05961 0.78293
 O1393 O 0.69674 0.53078 0.24851
 O1394 O 0.70332 0.52776 0.28391
 O1395 O 0.75118 0.55799 0.22297
 O1396 O 0.78478 0.55214 0.22596
 O1397 O 0.72533 0.50417 0.19449
 O1398 O 0.72521 0.46831 0.20248
 O1399 O 0.80543 0.50074 0.27665
 O1400 O 0.80015 0.53618 0.27254
 O1401 O 0.75246 0.47635 0.30379
 O1402 O 0.71522 0.47828 0.29655
 O1403 O 0.77746 0.44855 0.25123
 O1404 O 0.77263 0.45539 0.21440
 O1405 O 0.80438 0.47502 0.25263
 O1406 O 0.79792 0.48194 0.21433
 O1407 O 0.75271 0.44905 0.27618
 O1408 O 0.71445 0.45696 0.27356
 O1409 O 0.77858 0.49983 0.30323
 O1410 O 0.77241 0.53757 0.29710
 O1411 O 0.69620 0.50586 0.22368
 O1412 O 0.70290 0.46893 0.22580
 O1413 O 0.75004 0.52918 0.19486
 O1414 O 0.78710 0.52327 0.20288
 O1415 O 0.72632 0.55819 0.24788
 O1416 O 0.73047 0.55014 0.28534
 Zr1417 Zr 0.72670 0.52845 0.26104
 O1418 O 0.74449 0.50971 0.28082
 Zr1419 Zr 0.76297 0.52777 0.22463
 O1420 O 0.78239 0.50928 0.24306
 Zr1421 Zr 0.72582 0.49217 0.22473
 O1422 O 0.74394 0.47206 0.24279
 Zr1423 Zr 0.77597 0.51425 0.27436
 O1424 O 0.75824 0.53468 0.25605
 Zr1425 Zr 0.73908 0.47848 0.27420
 O1426 O 0.71924 0.49719 0.25614
 Zr1427 Zr 0.77546 0.47808 0.23790
 O1428 O 0.75732 0.49649 0.21781
 O1429 O 0.73165 0.52318 0.22981
 O1430 O 0.77041 0.48310 0.26919
 C1431 C 0.68774 0.52066 0.23394
 C1432 C 0.73675 0.56689 0.23337
 C1433 C 0.73579 0.51867 0.18586
 C1434 C 0.81337 0.48518 0.26720
 C1435 C 0.76805 0.48554 0.31202
 C1436 C 0.76738 0.44019 0.26613
 H1437 H 0.74136 0.51315 0.29537
 H1438 H 0.74058 0.45761 0.23917
 H1439 H 0.72301 0.53212 0.22091
 H1440 H 0.79707 0.51221 0.23991
 H1441 H 0.79380 0.54915 0.26753
 H1442 H 0.79774 0.54641 0.23172
 H1443 H 0.71691 0.44736 0.26194
 H1444 H 0.69589 0.47033 0.23931
 H1445 H 0.78425 0.53648 0.30682
 H1446 H 0.71980 0.56105 0.28382
 H1447 H 0.78456 0.44582 0.21538
 H1448 H 0.73934 0.46751 0.19668
 H1449 H 0.69709 0.51381 0.28342
 H1450 H 0.71653 0.49103 0.30485
 H1451 H 0.78666 0.53479 0.19281
 H1452 H 0.80896 0.47152 0.21638
 O1453 O 0.49984 0.19651 0.72063
 O1454 O 0.46447 0.20378 0.72313
 O1455 O 0.52737 0.24956 0.69408
 O1456 O 0.52501 0.28324 0.69928
 O1457 O 0.55390 0.22332 0.74791
 O1458 O 0.54575 0.22405 0.78378
 O1459 O 0.47375 0.30560 0.74957
 O1460 O 0.47817 0.29996 0.71435
 O1461 O 0.44473 0.25315 0.77366
 O1462 O 0.45139 0.21631 0.77302
 O1463 O 0.49738 0.27824 0.80222
 O1464 O 0.53423 0.27174 0.79670
 O1465 O 0.49783 0.30453 0.77532
 O1466 O 0.53607 0.29646 0.76962
 O1467 O 0.47183 0.25412 0.80168
 O1468 O 0.47439 0.21533 0.79444
 O1469 O 0.44627 0.27925 0.75025
 O1470 O 0.45310 0.27275 0.71265
 O1471 O 0.52371 0.19514 0.74656
 O1472 O 0.52156 0.20262 0.78344
 O1473 O 0.55497 0.24843 0.72340
 O1474 O 0.54749 0.28555 0.72866
 O1475 O 0.50149 0.22571 0.69303
 O1476 O 0.46400 0.23094 0.70064
 Zr1477 Zr 0.48793 0.22659 0.72270
 O1478 O 0.46828 0.24483 0.74112
 Zr1479 Zr 0.52533 0.26182 0.72399
 O1480 O 0.50695 0.28176 0.74187
 Zr1481 Zr 0.52359 0.22499 0.75977
 O1482 O 0.50574 0.24379 0.77949
 Zr1483 Zr 0.47550 0.27604 0.73643
 O1484 O 0.49386 0.25787 0.71644
 Zr1485 Zr 0.47429 0.23962 0.77258
 O1486 O 0.49206 0.21926 0.75418
 Zr1487 Zr 0.51150 0.27505 0.77321
 O1488 O 0.53146 0.25621 0.75542
 O1489 O 0.51922 0.23075 0.72862
 O1490 O 0.48010 0.27071 0.76773
 C1491 C 0.51369 0.18706 0.73134
 C1492 C 0.51668 0.23558 0.68483
 C1493 C 0.56327 0.23370 0.73379
 C1494 C 0.48352 0.31367 0.76490
 C1495 C 0.43689 0.26874 0.76421
 C1496 C 0.48187 0.26894 0.81036
 H1497 H 0.45370 0.24193 0.73746
 H1498 H 0.50900 0.24057 0.79406
 H1499 H 0.52805 0.22182 0.71992
 H1500 H 0.51055 0.29628 0.73882
 H1501 H 0.48337 0.29345 0.70153
 H1502 H 0.51925 0.29631 0.70468
 H1503 H 0.48508 0.21844 0.80495
 H1504 H 0.50783 0.19601 0.78198
 H1505 H 0.44356 0.28471 0.71348
 H1506 H 0.46533 0.22019 0.68979
 H1507 H 0.53350 0.28390 0.80598
 H1508 H 0.55173 0.23808 0.78466
 H1509 H 0.46476 0.19746 0.73704
 H1510 H 0.44394 0.21692 0.75967
 H1511 H 0.55781 0.28478 0.71735
 H1512 H 0.53420 0.30771 0.77982
 O1513 O 0.24952 0.77895 0.44550
 O1514 O 0.21397 0.77517 0.45201
 O1515 O 0.27496 0.80562 0.49984
 O1516 O 0.27308 0.79963 0.53340
 O1517 O 0.30332 0.75282 0.47264
 O1518 O 0.29607 0.71650 0.47359
 O1519 O 0.22262 0.74824 0.55412
 O1520 O 0.22622 0.78378 0.54868
 O1521 O 0.19510 0.72295 0.50214
 O1522 O 0.20082 0.72555 0.46483
 O1523 O 0.24812 0.69600 0.52559
 O1524 O 0.28485 0.70337 0.52059
 O1525 O 0.24658 0.72245 0.55284
 O1526 O 0.28475 0.72965 0.54621
 O1527 O 0.22317 0.69619 0.50073
 O1528 O 0.22467 0.70517 0.46258
 O1529 O 0.19568 0.74672 0.52796
 O1530 O 0.20109 0.78462 0.52139
 O1531 O 0.27431 0.75392 0.44480
 O1532 O 0.27213 0.71679 0.45130
 O1533 O 0.30349 0.77721 0.49793
 O1534 O 0.29605 0.77088 0.53523
 O1535 O 0.24959 0.80624 0.47533
 O1536 O 0.21224 0.79744 0.47943
 Zr1537 Zr 0.23689 0.77617 0.47541
 O1538 O 0.21740 0.75718 0.49331
 Zr1539 Zr 0.27390 0.77541 0.51141
 O1540 O 0.25573 0.75685 0.53087
 Zr1541 Zr 0.27344 0.74005 0.47418
 O1542 O 0.25574 0.71978 0.49235
 Zr1543 Zr 0.22428 0.76166 0.52469
 O1544 O 0.24233 0.78222 0.50694
 Zr1545 Zr 0.22418 0.72599 0.48779
 O1546 O 0.24188 0.74491 0.46786
 Zr1547 Zr 0.26103 0.72571 0.52382
 O1548 O 0.28088 0.74423 0.50557
 O1549 O 0.26819 0.77099 0.48023
 O1550 O 0.22963 0.73056 0.51902
 C1551 C 0.26429 0.76900 0.43658
 C1552 C 0.26427 0.81477 0.48576
 C1553 C 0.31206 0.76739 0.48294
 C1554 C 0.23213 0.73266 0.56197
 C1555 C 0.18712 0.73187 0.51799
 C1556 C 0.23348 0.68737 0.51527
 H1557 H 0.20273 0.76045 0.49044
 H1558 H 0.25946 0.70539 0.48882
 H1559 H 0.27684 0.78016 0.47164
 H1560 H 0.25905 0.75978 0.54550
 H1561 H 0.23106 0.79675 0.54222
 H1562 H 0.26702 0.79395 0.54621
 H1563 H 0.23640 0.69560 0.46471
 H1564 H 0.25877 0.71854 0.44401
 H1565 H 0.19157 0.78340 0.53332
 H1566 H 0.21346 0.80836 0.46877
 H1567 H 0.28412 0.69366 0.53240
 H1568 H 0.30263 0.71644 0.48742
 H1569 H 0.21447 0.76115 0.44595
 H1570 H 0.19278 0.73847 0.46610
 H1571 H 0.30631 0.78224 0.53450
 H1572 H 0.28296 0.71903 0.55706
 O1573 O 0.30604 0.25033 0.97215
 O1574 O 0.29939 0.21499 0.97496
 O1575 O 0.25233 0.27598 0.94363
 O1576 O 0.21887 0.27426 0.94866
 O1577 O 0.27771 0.30393 0.99830
 O1578 O 0.27627 0.29588 1.03432
 O1579 O 0.19661 0.22301 0.99935
 O1580 O 0.20265 0.22719 0.96385
 O1581 O 0.24766 0.19547 1.02540
 O1582 O 0.28555 0.20159 1.02376
 O1583 O 0.22246 0.24665 1.05170
 O1584 O 0.22892 0.28372 1.04649
 O1585 O 0.19642 0.24791 1.02425
 O1586 O 0.20474 0.28570 1.01882
 O1587 O 0.24826 0.22279 1.05256
 O1588 O 0.28643 0.22447 1.04526
 O1589 O 0.22315 0.19579 1.00019
 O1590 O 0.23030 0.20253 0.96282
 O1591 O 0.30625 0.27483 0.99741
 O1592 O 0.29862 0.27226 1.03414
 O1593 O 0.25316 0.30451 0.97307
 O1594 O 0.21585 0.29650 0.97776
 O1595 O 0.27707 0.25092 0.94384
 O1596 O 0.27271 0.21361 0.95187
 Zr1597 Zr 0.27602 0.23787 0.97367
 O1598 O 0.25758 0.21813 0.99180
 Zr1599 Zr 0.24006 0.27473 0.97366
 O1600 O 0.22005 0.25629 0.99138
 Zr1601 Zr 0.27630 0.27380 1.01027
 O1602 O 0.25744 0.25586 1.02977
 Zr1603 Zr 0.22631 0.22495 0.98639
 O1604 O 0.24468 0.24331 0.96666
 Zr1605 Zr 0.26217 0.22448 1.02325
 O1606 O 0.28269 0.24241 1.00522
 Zr1607 Zr 0.22613 0.26116 1.02286
 O1608 O 0.24499 0.28118 1.00517
 O1609 O 0.27119 0.26910 0.97901
 O1610 O 0.23102 0.22988 1.01773
 C1611 C 0.31489 0.26478 0.98258
 C1612 C 0.26669 0.26535 0.93491
 C1613 C 0.26750 0.31305 0.98389
 C1614 C 0.18784 0.23319 1.01400
 C1615 C 0.23261 0.18719 1.01538
 C1616 C 0.23266 0.23211 1.06059
 H1617 H 0.26064 0.20357 0.98837
 H1618 H 0.26043 0.25928 1.04436
 H1619 H 0.28005 0.27794 0.97026
 H1620 H 0.20551 0.25967 0.98800
 H1621 H 0.20932 0.23235 0.95111
 H1622 H 0.20590 0.26801 0.95378
 H1623 H 0.28430 0.23641 1.05455
 H1624 H 0.30572 0.25881 1.03264
 H1625 H 0.21836 0.19293 0.96338
 H1626 H 0.28368 0.21503 0.94126
 H1627 H 0.21672 0.28265 1.05570
 H1628 H 0.26222 0.30195 1.03453
 H1629 H 0.30474 0.21494 0.98929
 H1630 H 0.28380 0.19287 1.01134
 H1631 H 0.21680 0.30694 0.96661
 H1632 H 0.19345 0.28409 1.02903
 C1633 C 0.29075 0.38740 0.76989
 C1634 C 0.28688 0.37976 0.78966
 C1635 C 0.27443 0.39243 0.80250
 C1636 C 0.26682 0.41170 0.79543
 C1637 C 0.27141 0.41894 0.77530
 C1638 C 0.28328 0.40583 0.76309
 C1639 C 0.29266 0.40370 0.74224
 C1640 C 0.30125 0.38289 0.74988
 H1641 H 0.27096 0.38787 0.81817
 H1642 H 0.25789 0.42113 0.80596
 H1643 H 0.30479 0.41542 0.73927
 H1644 H 0.28076 0.40214 0.72993
 H1645 H 0.31839 0.38282 0.75131
 H1646 H 0.29443 0.36934 0.74185
 C1647 C 0.29396 -0.11490 0.26743
 C1648 C 0.28305 -0.12573 0.28279
 C1649 C 0.26405 -0.11698 0.28934
 C1650 C 0.25784 -0.09726 0.28260
 C1651 C 0.27037 -0.08564 0.26911
 C1652 C 0.28778 -0.09542 0.26086
 C1653 C 0.30946 -0.08775 0.25942
 C1654 C 0.31632 -0.10895 0.26657
 H1655 H 0.25410 -0.12489 0.30013
 H1656 H 0.24366 -0.09079 0.28871
 H1657 H 0.31282 -0.07536 0.27083
 H1658 H 0.31398 -0.08426 0.24324
 H1659 H 0.32380 -0.10884 0.28206
 H1660 H 0.32490 -0.11758 0.25446
 C1661 C 0.76820 0.88689 0.79414
 C1662 C 0.78372 0.87565 0.78387
 C1663 C 0.79047 0.88361 0.76461
 C1664 C 0.78379 0.90305 0.75754
 C1665 C 0.77014 0.91514 0.76942
 C1666 C 0.76169 0.90608 0.78711
 C1667 C 0.75984 0.91461 0.80843
 C1668 C 0.76700 0.89371 0.81621
 H1669 H 0.80139 0.87531 0.75511
 H1670 H 0.79012 0.90899 0.74325
 H1671 H 0.74355 0.91819 0.81255
 H1672 H 0.77112 0.92721 0.81155
 H1673 H 0.75478 0.88539 0.82493
 H1674 H 0.78240 0.89418 0.82388
 C1675 C 0.47957 0.86400 0.29458
 C1676 C 0.46291 0.87446 0.28529
 C1677 C 0.45169 0.86350 0.26995
 C1678 C 0.45802 0.84381 0.26335
 C1679 C 0.47586 0.83443 0.27164
 C1680 C 0.48583 0.84459 0.28792
 C1681 C 0.50819 0.84961 0.29047
 C1682 C 0.50144 0.87083 0.29776
 H1683 H 0.43804 0.86987 0.26278
 H1684 H 0.44905 0.83610 0.25149
 H1685 H 0.51665 0.84988 0.27552
 H1686 H 0.51561 0.84027 0.30281
 H1687 H 0.50602 0.88347 0.28710
 H1688 H 0.50507 0.87362 0.31432
 C1689 C -0.04753 0.86288 0.77382
 C1690 C -0.03883 0.87275 0.79114
 C1691 C -0.02406 0.86125 0.80262
 C1692 C -0.01715 0.84181 0.79575
 C1693 C -0.02469 0.83322 0.77721
 C1694 C -0.04071 0.84370 0.76717
 C1695 C -0.04285 0.84925 0.74493
 C1696 C -0.05020 0.87031 0.75209
 H1697 H -0.01737 0.86716 0.81671
 H1698 H -0.00556 0.83375 0.80475
 H1699 H -0.05514 0.84010 0.73714
 H1700 H -0.02774 0.84968 0.73675
 H1701 H -0.06668 0.87325 0.74813
 H1702 H -0.03935 0.88301 0.74810
 C1703 C -0.02424 -0.11255 -0.04551
 C1704 C -0.04210 -0.12196 -0.03771
 C1705 C -0.05401 -0.11045 -0.02344
 C1706 C -0.04695 -0.09129 -0.01591
 C1707 C -0.02786 -0.08310 -0.02249
 C1708 C -0.01738 -0.09364 -0.03817
 C1709 C 0.00478 -0.09993 -0.03935
 C1710 C -0.00270 -0.12068 -0.04734
 H1711 H -0.06859 -0.11622 -0.01774
 H1712 H -0.05634 -0.08309 -0.00476
 H1713 H 0.01229 -0.10082 -0.02390
 H1714 H 0.01342 -0.09089 -0.05110
 H1715 H 0.00042 -0.13366 -0.03654
 H1716 H 0.00178 -0.12357 -0.06366
 C1717 C -0.04787 0.38751 0.47824
 C1718 C -0.03777 0.37705 0.46210
 C1719 C -0.01827 0.38492 0.45596
 C1720 C -0.01061 0.40358 0.46415
 C1721 C -0.02229 0.41510 0.47847
 C1722 C -0.04040 0.40606 0.48605
 C1723 C -0.06153 0.41506 0.48810
 C1724 C -0.06979 0.39486 0.47958
 H1725 H -0.00898 0.37709 0.44453
 H1726 H 0.00398 0.40945 0.45843
 H1727 H -0.06411 0.42838 0.47757
 H1728 H -0.06583 0.41779 0.50449
 H1729 H -0.07724 0.39646 0.46416
 H1730 H -0.07892 0.38604 0.49112
 C1731 C 0.47984 -0.11405 0.45435
 C1732 C 0.46411 -0.12502 0.46453
 C1733 C 0.45715 -0.11679 0.48362
 C1734 C 0.46396 -0.09737 0.49063
 C1735 C 0.47793 -0.08560 0.47884
 C1736 C 0.48648 -0.09489 0.46132
 C1737 C 0.48855 -0.08651 0.43999
 C1738 C 0.48130 -0.10738 0.43226
 H1739 H 0.44600 -0.12486 0.49303
 H1740 H 0.45757 -0.09123 0.50482
 H1741 H 0.50490 -0.08307 0.43597
 H1742 H 0.47736 -0.07388 0.43678
 H1743 H 0.49353 -0.11586 0.42368
 H1744 H 0.46597 -0.10683 0.42444
 C1745 C 0.45447 0.38610 -0.01970
 C1746 C 0.46458 0.37573 -0.03592
 C1747 C 0.48353 0.38440 -0.04273
 C1748 C 0.49043 0.40364 -0.03527
 C1749 C 0.47868 0.41491 -0.02080
 C1750 C 0.46133 0.40512 -0.01243
 C1751 C 0.43989 0.41312 -0.00972
 C1752 C 0.43230 0.39243 -0.01767
 H1753 H 0.49294 0.37680 -0.05421
 H1754 H 0.50453 0.41006 -0.04160
 H1755 H 0.43635 0.42614 -0.02031
 H1756 H 0.43612 0.41584 0.00680
 H1757 H 0.42424 0.39348 -0.03283
 H1758 H 0.42400 0.38339 -0.00568
 C1759 C 0.79245 0.36490 0.47922
 C1760 C 0.78856 0.37205 0.45924
 C1761 C 0.77586 0.35924 0.44677
 C1762 C 0.76807 0.34030 0.45435
 C1763 C 0.77272 0.33351 0.47463
 C1764 C 0.78481 0.34674 0.48650
 C1765 C 0.79452 0.34916 0.50719
 C1766 C 0.80331 0.36965 0.49901
 H1767 H 0.77238 0.36337 0.43097
 H1768 H 0.75898 0.33073 0.44405
 H1769 H 0.80651 0.33731 0.51028
 H1770 H 0.78282 0.35117 0.51959
 H1771 H 0.82043 0.36941 0.49740
 H1772 H 0.79683 0.38349 0.50681
 C1773 C 0.77009 0.86525 -0.04710
 C1774 C 0.78545 0.87627 -0.03629
 C1775 C 0.79131 0.86830 -0.01672
 C1776 C 0.78389 0.84906 -0.00979
 C1777 C 0.77035 0.83722 -0.02209
 C1778 C 0.76279 0.84633 -0.04016
 C1779 C 0.76142 0.83762 -0.06143
 C1780 C 0.76948 0.85820 -0.06913
 H1781 H 0.80210 0.87638 -0.00687
 H1782 H 0.78953 0.84308 0.00479
 H1783 H 0.74516 0.83453 -0.06610
 H1784 H 0.77239 0.82464 -0.06399
 H1785 H 0.75783 0.86675 -0.07844
 H1786 H 0.78513 0.85717 -0.07618
 C1787 C 0.77161 0.29677 0.38518
 C1788 C 0.78985 0.28939 0.37610
 C1789 C 0.80174 0.27521 0.38774
 C1790 C 0.79440 0.26737 0.40663
 C1791 C 0.77502 0.27352 0.41450
 C1792 C 0.76446 0.28912 0.40388
 C1793 C 0.74244 0.28989 0.39699
 C1794 C 0.75024 0.29823 0.37650
 H1795 H 0.81658 0.26984 0.38229
 H1796 H 0.80386 0.25634 0.41493
 H1797 H 0.73329 0.30135 0.40593
 H1798 H 0.73533 0.27432 0.39575
 H1799 H 0.74548 0.31447 0.37367
 H1800 H 0.74769 0.28751 0.36333
 C1801 C 0.76904 0.79901 -0.11461
 C1802 C 0.78579 0.78948 -0.12472
 C1803 C 0.79592 0.77338 -0.11384
 C1804 C 0.78859 0.76643 -0.09465
 C1805 C 0.77099 0.77533 -0.08546
 C1806 C 0.76197 0.79218 -0.09550
 C1807 C 0.73986 0.79551 -0.10117
 C1808 C 0.74746 0.80294 -0.12204
 H1809 H 0.80932 0.76561 -0.12001
 H1810 H 0.79662 0.75381 -0.08718
 H1811 H 0.73258 0.80791 -0.09180
 H1812 H 0.73093 0.78087 -0.10199
 H1813 H 0.74440 0.81962 -0.12460
 H1814 H 0.74293 0.79265 -0.13503
 C1815 C 0.29654 0.48069 0.86479
 C1816 C 0.28519 0.46629 0.87627
 C1817 C 0.26500 0.46159 0.86927
 C1818 C 0.25777 0.46914 0.85013
 C1819 C 0.27049 0.48170 0.83768
 C1820 C 0.28937 0.48819 0.84604
 C1821 C 0.31046 0.48795 0.83667
 C1822 C 0.31834 0.47971 0.85718
 H1823 H 0.25508 0.45144 0.87804
 H1824 H 0.24267 0.46435 0.84468
 H1825 H 0.31614 0.50375 0.83314
 H1826 H 0.31188 0.47669 0.82377
 H1827 H 0.32862 0.49078 0.86536
 H1828 H 0.32432 0.46364 0.85621
 C1829 C 0.27473 -0.05195 0.35943
 C1830 C 0.29272 -0.04382 0.36865
 C1831 C 0.30398 -0.02923 0.35684
 C1832 C 0.29626 -0.02174 0.33795
 C1833 C 0.27705 -0.02850 0.33016
 C1834 C 0.26721 -0.04455 0.34070
 C1835 C 0.24523 -0.04632 0.34736
 C1836 C 0.25333 -0.05432 0.36788
 H1837 H 0.31860 -0.02311 0.36209
 H1838 H 0.30520 -0.01026 0.32972
 H1839 H 0.23668 -0.05817 0.33833
 H1840 H 0.23740 -0.03109 0.34857
 H1841 H 0.24922 -0.07074 0.37064
 H1842 H 0.25023 -0.04373 0.38104
 C1843 C -0.02385 -0.04637 -0.11214
 C1844 C -0.03973 -0.03631 -0.12311
 C1845 C -0.04979 -0.01979 -0.11279
 C1846 C -0.04304 -0.01297 -0.09324
 C1847 C -0.02607 -0.02238 -0.08329
 C1848 C -0.01735 -0.03966 -0.09282
 C1849 C 0.00480 -0.04420 -0.09725
 C1850 C -0.00216 -0.05145 -0.11844
 H1851 H -0.06267 -0.01173 -0.11968
 H1852 H -0.05091 -0.00004 -0.08613
 H1853 H 0.01090 -0.05687 -0.08740
 H1854 H 0.01453 -0.03006 -0.09771
 H1855 H 0.00021 -0.06828 -0.12073
 H1856 H 0.00349 -0.04152 -0.13124
 C1857 C -0.02325 0.44834 0.39137
 C1858 C -0.03862 0.45906 0.38031
 C1859 C -0.04340 0.47926 0.38722
 C1860 C -0.03488 0.48709 0.40564
 C1861 C -0.02141 0.47500 0.41777
 C1862 C -0.01496 0.45610 0.40961
 C1863 C -0.01442 0.43540 0.41963
 C1864 C -0.02349 0.42682 0.39977
 H1865 H -0.05412 0.48899 0.37890
 H1866 H -0.03971 0.50221 0.41088
 H1867 H -0.02514 0.43427 0.43300
 H1868 H 0.00165 0.43008 0.42264
 H1869 H -0.03942 0.42063 0.40165
 H1870 H -0.01260 0.41646 0.39148
 C1871 C 0.47902 -0.04883 0.38724
 C1872 C 0.46069 -0.04132 0.37837
 C1873 C 0.44802 -0.02875 0.39097
 C1874 C 0.45487 -0.02210 0.41054
 C1875 C 0.47451 -0.02791 0.41812
 C1876 C 0.48571 -0.04234 0.40658
 C1877 C 0.50785 -0.04217 0.40017
 C1878 C 0.50057 -0.04922 0.37896
 H1879 H 0.43307 -0.02351 0.38564
 H1880 H 0.44498 -0.01198 0.41945
 H1881 H 0.51708 -0.05404 0.40846
 H1882 H 0.51463 -0.02640 0.40019
 H1883 H 0.50575 -0.06512 0.37508
 H1884 H 0.50310 -0.03755 0.36664
 C1885 C 0.45559 0.47739 -0.11186
 C1886 C 0.46258 0.45927 -0.12138
 C1887 C 0.47873 0.44875 -0.11065
 C1888 C 0.48640 0.45605 -0.09144
 C1889 C 0.47844 0.47422 -0.08230
 C1890 C 0.46328 0.48447 -0.09358
 C1891 C 0.44925 0.50260 -0.09276
 C1892 C 0.44043 0.49476 -0.11337
 H1893 H 0.48526 0.43457 -0.11646
 H1894 H 0.49825 0.44716 -0.08362
 H1895 H 0.45778 0.51742 -0.09408
 H1896 H 0.43809 0.50165 -0.07979
 H1897 H 0.44373 0.50515 -0.12661
 H1898 H 0.42413 0.48943 -0.11209
 C1899 C 0.47991 0.79747 0.36300
 C1900 C 0.46563 0.78615 0.37469
 C1901 C 0.46067 0.76610 0.36766
 C1902 C 0.46763 0.75907 0.34827
 C1903 C 0.47986 0.77185 0.33556
 C1904 C 0.48685 0.79048 0.34397
 C1905 C 0.48666 0.81165 0.33491
 C1906 C 0.47901 0.81933 0.35572
 H1907 H 0.45070 0.75616 0.37661
 H1908 H 0.46257 0.74409 0.34284
 H1909 H 0.47508 0.81340 0.32231
 H1910 H 0.50250 0.81712 0.33112
 H1911 H 0.46297 0.82550 0.35523
 H1912 H 0.49045 0.82931 0.36379
 C1913 C -0.04693 0.77035 0.86416
 C1914 C -0.03710 0.78643 0.87498
 C1915 C -0.01815 0.79370 0.86667
 C1916 C -0.01092 0.78671 0.84735
 C1917 C -0.02240 0.77232 0.83569
 C1918 C -0.03981 0.76360 0.84507
 C1919 C -0.06114 0.76091 0.83669
 C1920 C -0.06902 0.76826 0.85749
 H1921 H -0.00900 0.80515 0.87464
 H1922 H 0.00316 0.79331 0.84119
 H1923 H -0.06480 0.74446 0.83347
 H1924 H -0.06463 0.77179 0.82388
 H1925 H -0.07731 0.75600 0.86614
 H1926 H -0.07719 0.78335 0.85672
 C1927 C 0.38369 0.76997 0.29531
 C1928 C 0.37464 0.78789 0.28715
 C1929 C 0.38702 0.80008 0.27397
 C1930 C 0.40668 0.79324 0.26762
 C1931 C 0.41461 0.77409 0.27434
 C1932 C 0.40317 0.76331 0.28913
 C1933 C 0.39685 0.74118 0.28946
 C1934 C 0.37553 0.74844 0.29618
 H1935 H 0.38156 0.81472 0.26817
 H1936 H 0.41549 0.80286 0.25715
 H1937 H 0.40515 0.73232 0.30162
 H1938 H 0.39699 0.73401 0.27385
 H1939 H 0.37159 0.74367 0.31219
 H1940 H 0.36326 0.74551 0.28447
 C1941 C -0.11374 0.77300 0.79733
 C1942 C -0.12251 0.79124 0.78962
 C1943 C -0.10981 0.80377 0.77706
 C1944 C -0.09018 0.79688 0.77064
 C1945 C -0.08268 0.77733 0.77668
 C1946 C -0.09437 0.76626 0.79104
 C1947 C -0.10088 0.74419 0.79090
 C1948 C -0.12213 0.75154 0.79774
 H1949 H -0.11508 0.81866 0.77170
 H1950 H -0.08115 0.80667 0.76054
 H1951 H -0.09267 0.73502 0.80288
 H1952 H -0.10078 0.73736 0.77513
 H1953 H -0.12614 0.74647 0.81364
 H1954 H -0.13441 0.74899 0.78596
 C1955 C 0.86369 0.29571 0.47925
 C1956 C 0.87467 0.28573 0.46349
 C1957 C 0.86731 0.26615 0.45718
 C1958 C 0.84815 0.25857 0.46434
 C1959 C 0.83601 0.27029 0.47813
 C1960 C 0.84495 0.28816 0.48638
 C1961 C 0.83614 0.30928 0.48901
 C1962 C 0.85658 0.31759 0.48103
 H1963 H 0.87571 0.25706 0.44598
 H1964 H 0.84239 0.24413 0.45818
 H1965 H 0.83342 0.31294 0.50554
 H1966 H 0.82287 0.31238 0.47849
 H1967 H 0.86535 0.32632 0.49296
 H1968 H 0.85524 0.32537 0.46578
 C1969 C 0.86213 0.76869 -0.04659
 C1970 C 0.87403 0.78260 -0.03502
 C1971 C 0.86667 0.78787 -0.01514
 C1972 C 0.84681 0.78169 -0.00863
 C1973 C 0.83397 0.76992 -0.02174
 C1974 C 0.84265 0.76250 -0.04009
 C1975 C 0.83414 0.76287 -0.06153
 C1976 C 0.85543 0.76967 -0.06867
 H1977 H 0.87571 0.79758 -0.00498
 H1978 H 0.84117 0.78699 0.00620
 H1979 H 0.82205 0.77490 -0.06363
 H1980 H 0.82986 0.74720 -0.06704
 H1981 H 0.85570 0.78563 -0.07497
 H1982 H 0.86332 0.75790 -0.07837
 C1983 C -0.11616 -0.01696 -0.04402
 C1984 C -0.12715 -0.03252 -0.03357
 C1985 C -0.11915 -0.03869 -0.01411
 C1986 C -0.09980 -0.03149 -0.00705
 C1987 C -0.08786 -0.01791 -0.01916
 C1988 C -0.09708 -0.00995 -0.03701
 C1989 C -0.08848 -0.00829 -0.05829
 C1990 C -0.10923 -0.01595 -0.06607
 H1991 H -0.12728 -0.04964 -0.00452
 H1992 H -0.09374 -0.03748 0.00736
 H1993 H -0.07564 -0.01937 -0.06109
 H1994 H -0.08518 0.00795 -0.06267
 H1995 H -0.10842 -0.03141 -0.07350
 H1996 H -0.11777 -0.00405 -0.07505
 C1997 C -0.10956 0.47603 0.45028
 C1998 C -0.12088 0.46065 0.46059
 C1999 C -0.11365 0.45472 0.48041
 C2000 C -0.09481 0.46232 0.48825
 C2001 C -0.08262 0.47598 0.47653
 C2002 C -0.09094 0.48340 0.45803
 C2003 C -0.08125 0.48442 0.43717
 C2004 C -0.10153 0.47635 0.42859
 H2005 H -0.12209 0.44388 0.48984
 H2006 H -0.08941 0.45677 0.50309
 H2007 H -0.06819 0.47337 0.43538
 H2008 H -0.07783 0.50054 0.43242
 H2009 H -0.10024 0.46065 0.42175
 H2010 H -0.10969 0.48786 0.41879
 C2011 C 0.38737 -0.04852 0.47852
 C2012 C 0.37687 -0.03863 0.46224
 C2013 C 0.38524 -0.01964 0.45533
 C2014 C 0.40438 -0.01241 0.46282
 C2015 C 0.41581 -0.02392 0.47736
 C2016 C 0.40633 -0.04140 0.48576
 C2017 C 0.41473 -0.06266 0.48849
 C2018 C 0.39409 -0.07054 0.48056
 H2019 H 0.37745 -0.01045 0.44378
 H2020 H 0.41061 0.00174 0.45647
 H2021 H 0.41757 -0.06642 0.50500
 H2022 H 0.42786 -0.06605 0.47792
 H2023 H 0.38516 -0.07896 0.49255
 H2024 H 0.39522 -0.07854 0.46540
 C2025 C 0.38858 0.45175 -0.02204
 C2026 C 0.37857 0.46085 -0.03908
 C2027 C 0.38974 0.47629 -0.04984
 C2028 C 0.40911 0.48318 -0.04275
 C2029 C 0.41808 0.47494 -0.02472
 C2030 C 0.40774 0.45864 -0.01510
 C2031 C 0.40193 0.45624 0.00704
 C2032 C 0.38100 0.44868 -0.00044
 H2033 H 0.38368 0.48345 -0.06363
 H2034 H 0.41680 0.49535 -0.05118
 H2035 H 0.40118 0.47124 0.01537
 H2036 H 0.41114 0.44407 0.01489
 H2037 H 0.36805 0.45924 0.00360
 H2038 H 0.37826 0.43215 0.00319
 C2039 C 0.36263 0.45536 0.77207
 C2040 C 0.37365 0.46500 0.78804
 C2041 C 0.36623 0.48439 0.79486
 C2042 C 0.34708 0.49215 0.78779
 C2043 C 0.33502 0.48082 0.77358
 C2044 C 0.34392 0.46310 0.76502
 C2045 C 0.33502 0.44208 0.76200
 C2046 C 0.35543 0.43354 0.76989
 H2047 H 0.37459 0.49323 0.80630
 H2048 H 0.34131 0.50645 0.79426
 H2049 H 0.32174 0.43886 0.77243
 H2050 H 0.33229 0.43871 0.74540
 H2051 H 0.36415 0.42497 0.75784
 H2052 H 0.35407 0.42551 0.78500
 C2053 C 0.36248 -0.02315 0.29661
 C2054 C 0.37363 -0.03845 0.28608
 C2055 C 0.36321 -0.04882 0.26984
 C2056 C 0.34337 -0.04254 0.26334
 C2057 C 0.33326 -0.02583 0.27294
 C2058 C 0.34287 -0.01707 0.29024
 C2059 C 0.34692 0.00504 0.29517
 C2060 C 0.36840 -0.00153 0.30208
 H2061 H 0.37037 -0.06141 0.26161
 H2062 H 0.33629 -0.05040 0.25038
 H2063 H 0.33708 0.01067 0.30807
 H2064 H 0.34700 0.01501 0.28120
 H2065 H 0.37087 0.00048 0.31896
 H2066 H 0.38098 0.00459 0.29212
 C2067 C 0.13931 0.52743 0.70259
 C2068 C 0.12976 0.54517 0.71052
 C2069 C 0.14117 0.55688 0.72506
 C2070 C 0.16023 0.54965 0.73284
 C2071 C 0.16844 0.53059 0.72623
 C2072 C 0.15813 0.52043 0.71016
 C2073 C 0.15188 0.49835 0.70836
 C2074 C 0.13122 0.50598 0.70014
 H2075 H 0.13532 0.57136 0.73091
 H2076 H 0.16825 0.55878 0.74435
 H2077 H 0.15071 0.49057 0.72362
 H2078 H 0.16117 0.48998 0.69660
 H2079 H 0.11802 0.50266 0.71063
 H2080 H 0.12863 0.50182 0.68368
 C2081 C 0.13656 0.02157 0.20420
 C2082 C 0.12558 0.03719 0.21444
 C2083 C 0.13601 0.04754 0.23068
 C2084 C 0.15576 0.04107 0.23733
 C2085 C 0.16574 0.02419 0.22788
 C2086 C 0.15606 0.01534 0.21069
 C2087 C 0.15174 -0.00680 0.20612
 C2088 C 0.13036 -0.00007 0.19909
 H2089 H 0.12893 0.06031 0.23872
 H2090 H 0.16297 0.04906 0.25015
 H2091 H 0.15153 -0.01653 0.22026
 H2092 H 0.16152 -0.01276 0.19332
 H2093 H 0.11770 -0.00586 0.20914
 H2094 H 0.12789 -0.00236 0.18225
 C2095 C 0.61061 0.70189 0.22721
 C2096 C 0.61877 0.70910 0.20849
 C2097 C 0.60575 0.72155 0.19613
 C2098 C 0.58651 0.72841 0.20358
 C2099 C 0.57969 0.72294 0.22353
 C2100 C 0.59156 0.70859 0.23449
 C2101 C 0.59892 0.70913 0.25633
 C2102 C 0.61980 0.70183 0.24839
 H2103 H 0.61048 0.72648 0.18092
 H2104 H 0.57723 0.73840 0.19386
 H2105 H 0.59095 0.69747 0.26607
 H2106 H 0.59925 0.72502 0.26282
 H2107 H 0.62383 0.68601 0.25366
 H2108 H 0.63230 0.71348 0.25024
 C2109 C 0.11302 0.73070 0.70548
 C2110 C 0.12278 0.71312 0.71348
 C2111 C 0.11107 0.70062 0.72703
 C2112 C 0.09138 0.70691 0.73388
 C2113 C 0.08281 0.72583 0.72734
 C2114 C 0.09361 0.73686 0.71222
 C2115 C 0.09926 0.75916 0.71147
 C2116 C 0.12054 0.75243 0.70410
 H2117 H 0.11712 0.68616 0.73273
 H2118 H 0.08309 0.69712 0.74459
 H2119 H 0.09944 0.76647 0.72702
 H2120 H 0.09030 0.76766 0.69953
 H2121 H 0.13310 0.75583 0.71535
 H2122 H 0.12378 0.75711 0.68791
 C2123 C 0.64009 0.22562 0.54715
 C2124 C 0.62842 0.21091 0.53638
 C2125 C 0.63493 0.20580 0.51617
 C2126 C 0.65381 0.21336 0.50832
 C2127 C 0.66645 0.22636 0.52043
 C2128 C 0.65857 0.23313 0.53937
 C2129 C 0.66859 0.23328 0.56017
 C2130 C 0.64837 0.22503 0.56872
 H2131 H 0.62597 0.19538 0.50667
 H2132 H 0.65887 0.20836 0.49319
 H2133 H 0.67221 0.24918 0.56551
 H2134 H 0.68160 0.22210 0.56138
 H2135 H 0.64041 0.23621 0.57903
 H2136 H 0.64963 0.20907 0.57490
 C2137 C 0.63478 0.73100 0.04576
 C2138 C 0.62595 0.71274 0.03814
 C2139 C 0.63824 0.70065 0.02474
 C2140 C 0.65750 0.70789 0.01765
 C2141 C 0.66512 0.72735 0.02383
 C2142 C 0.65384 0.73808 0.03881
 C2143 C 0.64695 0.76004 0.03910
 C2144 C 0.62610 0.75233 0.04670
 H2145 H 0.63294 0.68580 0.01929
 H2146 H 0.66619 0.69839 0.00700
 H2147 H 0.64633 0.76697 0.02340
 H2148 H 0.65544 0.76929 0.05083
 H2149 H 0.61333 0.75480 0.03543
 H2150 H 0.62264 0.75720 0.06280
 C2151 C 0.11203 0.01997 0.04630
 C2152 C 0.12369 0.03401 0.03466
 C2153 C 0.11627 0.03892 0.01471
 C2154 C 0.09667 0.03201 0.00802
 C2155 C 0.08413 0.01986 0.02104
 C2156 C 0.09281 0.01307 0.03964
 C2157 C 0.08403 0.01365 0.06092
 C2158 C 0.10503 0.02121 0.06825
 H2159 H 0.12510 0.04874 0.00452
 H2160 H 0.09102 0.03693 -0.00694
 H2161 H 0.08012 -0.00201 0.06668
 H2162 H 0.07157 0.02537 0.06261
 H2163 H 0.11312 0.00988 0.07831
 H2164 H 0.10476 0.03730 0.07423
 C2165 C 0.11395 0.54592 0.52201
 C2166 C 0.12316 0.53848 0.54018
 C2167 C 0.11124 0.52491 0.55245
 C2168 C 0.09195 0.51758 0.54551
 C2169 C 0.08396 0.52366 0.52617
 C2170 C 0.09487 0.53875 0.51526
 C2171 C 0.10129 0.53909 0.49316
 C2172 C 0.12221 0.54689 0.50050
 H2173 H 0.11678 0.51954 0.56724
 H2174 H 0.08347 0.50693 0.55520
 H2175 H 0.09249 0.55072 0.48408
 H2176 H 0.10191 0.52341 0.48619
 H2177 H 0.12543 0.56298 0.49552
 H2178 H 0.13503 0.53575 0.49782
 C2179 C 0.61389 0.04524 0.51931
 C2180 C 0.62328 0.03750 0.53724
 C2181 C 0.61152 0.02372 0.54940
 C2182 C 0.59216 0.01650 0.54254
 C2183 C 0.58395 0.02289 0.52338
 C2184 C 0.59475 0.03816 0.51259
 C2185 C 0.60103 0.03883 0.49045
 C2186 C 0.62200 0.04658 0.49777
 H2187 H 0.61722 0.01818 0.56407
 H2188 H 0.58380 0.00571 0.55218
 H2189 H 0.59215 0.05057 0.48159
 H2190 H 0.60164 0.02326 0.48326
 H2191 H 0.62515 0.06276 0.49305
 H2192 H 0.63482 0.03551 0.49483
 C2193 C 0.61403 0.51996 0.04716
 C2194 C 0.62553 0.53417 0.03560
 C2195 C 0.61832 0.53886 0.01552
 C2196 C 0.59888 0.53173 0.00869
 C2197 C 0.58633 0.51962 0.02173
 C2198 C 0.59494 0.51288 0.04039
 C2199 C 0.58605 0.51324 0.06165
 C2200 C 0.60693 0.52103 0.06909
 H2201 H 0.62714 0.54880 0.00544
 H2202 H 0.59327 0.53658 -0.00631
 H2203 H 0.58230 0.49750 0.06734
 H2204 H 0.57342 0.52478 0.06338
 H2205 H 0.61514 0.50976 0.07912
 H2206 H 0.60644 0.53709 0.07514
 C2207 C 0.04746 0.02021 0.11340
 C2208 C 0.03903 0.03784 0.12292
 C2209 C 0.02527 0.04985 0.11081
 C2210 C 0.01877 0.04319 0.09118
 C2211 C 0.02561 0.02424 0.08297
 C2212 C 0.04086 0.01359 0.09403
 C2213 C 0.04177 -0.00859 0.09998
 C2214 C 0.04899 -0.00147 0.12116
 H2215 H 0.01914 0.06434 0.11632
 H2216 H 0.00791 0.05272 0.08272
 H2217 H 0.05385 -0.01715 0.09129
 H2218 H 0.02626 -0.01602 0.10016
 H2219 H 0.06522 -0.00601 0.12459
 H2220 H 0.03771 -0.00480 0.13367
 C2221 C 0.01939 0.54657 0.61416
 C2222 C 0.03443 0.53606 0.62568
 C2223 C 0.04024 0.51620 0.61877
 C2224 C 0.03312 0.50858 0.59962
 C2225 C 0.01995 0.52061 0.58705
 C2226 C 0.01238 0.53906 0.59536
 C2227 C 0.01148 0.56012 0.58603
 C2228 C 0.01918 0.56836 0.60662
 H2229 H 0.05094 0.50690 0.62762
 H2230 H 0.03876 0.49380 0.59423
 H2231 H -0.00464 0.56491 0.58238
 H2232 H 0.02275 0.56220 0.57323
 H2233 H 0.00748 0.57793 0.61477
 H2234 H 0.03493 0.57522 0.60580
 C2235 C 0.52057 0.04590 0.61290
 C2236 C 0.53658 0.03603 0.62384
 C2237 C 0.54332 0.01671 0.61601
 C2238 C 0.53592 0.00912 0.59696
 C2239 C 0.52162 0.02057 0.58514
 C2240 C 0.51339 0.03840 0.59410
 C2241 C 0.51101 0.05947 0.58515
 C2242 C 0.51890 0.06777 0.60561
 H2243 H 0.55470 0.00757 0.62411
 H2244 H 0.54219 -0.00522 0.59107
 H2245 H 0.49455 0.06340 0.58209
 H2246 H 0.52175 0.06237 0.57205
 H2247 H 0.50694 0.07662 0.61418
 H2248 H 0.53421 0.07551 0.60441
 C2249 C 0.54630 0.52115 0.11480
 C2250 C 0.53779 0.53886 0.12393
 C2251 C 0.52378 0.55050 0.11186
 C2252 C 0.51702 0.54326 0.09248
 C2253 C 0.52412 0.52424 0.08458
 C2254 C 0.53970 0.51410 0.09564
 C2255 C 0.54114 0.49205 0.10204
 C2256 C 0.54834 0.49973 0.12304
 H2257 H 0.51762 0.56498 0.11738
 H2258 H 0.50595 0.55245 0.08391
 H2259 H 0.55335 0.48361 0.09341
 H2260 H 0.52580 0.48429 0.10246
 H2261 H 0.56469 0.49561 0.12646
 H2262 H 0.53720 0.49645 0.13569
 C2263 C 0.20364 0.52459 0.63958
 C2264 C 0.21192 0.54225 0.63020
 C2265 C 0.22555 0.55440 0.64222
 C2266 C 0.23219 0.54768 0.66184
 C2267 C 0.22534 0.52869 0.66999
 C2268 C 0.21010 0.51806 0.65895
 C2269 C 0.20910 0.49585 0.65301
 C2270 C 0.20209 0.50295 0.63175
 H2271 H 0.23153 0.56885 0.63647
 H2272 H 0.24305 0.55717 0.67036
 H2273 H 0.19689 0.48744 0.66166
 H2274 H 0.22456 0.48831 0.65297
 H2275 H 0.18587 0.49846 0.62819
 H2276 H 0.21348 0.49957 0.61935
 C2277 C 0.20340 0.02082 0.13591
 C2278 C 0.21149 0.03863 0.12663
 C2279 C 0.22547 0.05052 0.13851
 C2280 C 0.23251 0.04354 0.15788
 C2281 C 0.22571 0.02452 0.16598
 C2282 C 0.21025 0.01404 0.15508
 C2283 C 0.20922 -0.00809 0.14881
 C2284 C 0.20178 -0.00071 0.12780
 H2285 H 0.23139 0.06504 0.13289
 H2286 H 0.24352 0.05293 0.16631
 H2287 H 0.19720 -0.01668 0.15756
 H2288 H 0.22470 -0.01556 0.14838
 H2289 H 0.18552 -0.00520 0.12447
 H2290 H 0.21295 -0.00386 0.11513
 C2291 C 0.72569 0.20124 0.60831
 C2292 C 0.71053 0.21186 0.61952
 C2293 C 0.70514 0.23186 0.61260
 C2294 C 0.71296 0.23959 0.59380
 C2295 C 0.72639 0.22753 0.58158
 C2296 C 0.73338 0.20888 0.58988
 C2297 C 0.73393 0.18801 0.58019
 C2298 C 0.72558 0.17959 0.60037
 H2299 H 0.69433 0.24125 0.62118
 H2300 H 0.70773 0.25452 0.58841
 H2301 H 0.74998 0.18289 0.57682
 H2302 H 0.72280 0.18659 0.56716
 H2303 H 0.73689 0.16959 0.60859
 H2304 H 0.70971 0.17310 0.59898
 C2305 C 0.69965 0.73046 0.11034
 C2306 C 0.71160 0.71676 0.12215
 C2307 C 0.73191 0.71265 0.11523
 C2308 C 0.73872 0.71990 0.09589
 C2309 C 0.72547 0.73161 0.08313
 C2310 C 0.70645 0.73772 0.09137
 C2311 C 0.68536 0.73640 0.08206
 C2312 C 0.67787 0.72845 0.10280
 H2313 H 0.74230 0.70316 0.12425
 H2314 H 0.75400 0.71557 0.09058
 H2315 H 0.68439 0.72470 0.06953
 H2316 H 0.67907 0.75186 0.07810
 H2317 H 0.67251 0.71215 0.10229
 H2318 H 0.66721 0.73935 0.11068
 C2319 C 0.54450 0.72857 0.13732
 C2320 C 0.53637 0.71101 0.12762
 C2321 C 0.52279 0.69859 0.13941
 C2322 C 0.51601 0.70498 0.15909
 C2323 C 0.52265 0.72392 0.16755
 C2324 C 0.53786 0.73480 0.15672
 C2325 C 0.53880 0.75709 0.15108
 C2326 C 0.54603 0.75029 0.12980
 H2327 H 0.51695 0.68416 0.13340
 H2328 H 0.50517 0.69533 0.16739
 H2329 H 0.55090 0.76546 0.15998
 H2330 H 0.52331 0.76455 0.15096
 H2331 H 0.56226 0.75486 0.12649
 H2332 H 0.53473 0.75377 0.11731
 C2333 C 0.04641 0.72959 0.63861
 C2334 C 0.03511 0.71512 0.62710
 C2335 C 0.01490 0.71046 0.63399
 C2336 C 0.00762 0.71805 0.65307
 C2337 C 0.02030 0.73065 0.66559
 C2338 C 0.03919 0.73714 0.65732
 C2339 C 0.06026 0.73691 0.66680
 C2340 C 0.06819 0.72863 0.64636
 H2341 H 0.00499 0.70027 0.62520
 H2342 H -0.00747 0.71322 0.65844
 H2343 H 0.06162 0.72565 0.67970
 H2344 H 0.06592 0.75271 0.67036
 H2345 H 0.07418 0.71257 0.64737
 H2346 H 0.07849 0.73968 0.63822
 C2347 C 0.54358 0.63650 0.23145
 C2348 C 0.53190 0.62440 0.21778
 C2349 C 0.51213 0.63189 0.21213
 C2350 C 0.50566 0.65184 0.21805
 C2351 C 0.51875 0.66467 0.22986
 C2352 C 0.53715 0.65606 0.23733
 C2353 C 0.55862 0.66448 0.23668
 C2354 C 0.56570 0.64308 0.23024
 H2355 H 0.50194 0.62276 0.20252
 H2356 H 0.49081 0.65745 0.21269
 H2357 H 0.56427 0.66907 0.25225
 H2358 H 0.56067 0.67629 0.22440
 H2359 H 0.57548 0.63543 0.24211
 H2360 H 0.57191 0.64248 0.21423
 C2361 C 0.01728 0.63795 0.70302
 C2362 C 0.03115 0.62619 0.71481
 C2363 C 0.03551 0.63309 0.73504
 C2364 C 0.02843 0.65247 0.74188
 C2365 C 0.01674 0.66531 0.72869
 C2366 C 0.01025 0.65702 0.70979
 C2367 C 0.01123 0.66609 0.68862
 C2368 C 0.01894 0.64522 0.68119
 H2369 H 0.04519 0.62405 0.74524
 H2370 H 0.03306 0.65782 0.75705
 H2371 H 0.02298 0.67855 0.68729
 H2372 H -0.00437 0.67011 0.68256
 H2373 H 0.03518 0.64554 0.67556
 H2374 H 0.00777 0.63727 0.67082
 C2375 C 0.02387 0.11088 0.04904
 C2376 C 0.04228 0.11940 0.04144
 C2377 C 0.05421 0.10699 0.02799
 C2378 C 0.04659 0.08797 0.02073
 C2379 C 0.02692 0.08080 0.02678
 C2380 C 0.01645 0.09207 0.04196
 C2381 C -0.00547 0.09925 0.04245
 C2382 C 0.00263 0.11988 0.05015
 H2383 H 0.06919 0.11202 0.02262
 H2384 H 0.05595 0.07915 0.01002
 H2385 H -0.01474 0.09083 0.05418
 H2386 H -0.01256 0.10007 0.02680
 H2387 H -0.00209 0.12333 0.06629
 H2388 H 0.00029 0.13270 0.03899
 C2389 C 0.04701 0.61107 0.52399
 C2390 C 0.03579 0.62263 0.53846
 C2391 C 0.01567 0.61563 0.54342
 C2392 C 0.00840 0.59648 0.53600
 C2393 C 0.02097 0.58402 0.52329
 C2394 C 0.03978 0.59232 0.51662
 C2395 C 0.06086 0.58290 0.51678
 C2396 C 0.06882 0.60340 0.52488
 H2397 H 0.00582 0.62441 0.55363
 H2398 H -0.00663 0.59105 0.54099
 H2399 H 0.06642 0.57925 0.50096
 H2400 H 0.06232 0.57011 0.52814
 H2401 H 0.07902 0.61146 0.51369
 H2402 H 0.07492 0.60252 0.54093
 C2403 C 0.54828 0.11000 0.52204
 C2404 C 0.53776 0.12138 0.53716
 C2405 C 0.51756 0.11482 0.54237
 C2406 C 0.50959 0.09610 0.53459
 C2407 C 0.52152 0.08367 0.52127
 C2408 C 0.54036 0.09168 0.51432
 C2409 C 0.56119 0.08174 0.51365
 C2410 C 0.56990 0.10178 0.52211
 H2411 H 0.50822 0.12354 0.55309
 H2412 H 0.49457 0.09090 0.53985
 H2413 H 0.56624 0.07839 0.49759
 H2414 H 0.56260 0.06860 0.52462
 H2415 H 0.58000 0.10991 0.51088
 H2416 H 0.57641 0.10027 0.53795
 C2417 C 0.54349 0.61491 0.01884
 C2418 C 0.53553 0.62417 0.03674
 C2419 C 0.52263 0.61188 0.04934
 C2420 C 0.51638 0.59207 0.04298
 C2421 C 0.52292 0.58386 0.02388
 C2422 C 0.53742 0.59527 0.01264
 C2423 C 0.53729 0.60117 -0.00963
 C2424 C 0.54389 0.62265 -0.00287
 H2425 H 0.51699 0.61749 0.06400
 H2426 H 0.50618 0.58333 0.05293
 H2427 H 0.52153 0.60069 -0.01654
 H2428 H 0.54940 0.59287 -0.01854
 H2429 H 0.53197 0.63467 -0.00582
 H2430 H 0.55979 0.62669 -0.00797
 C2431 C 0.72852 0.13769 0.54616
 C2432 C 0.71025 0.12864 0.53854
 C2433 C 0.69835 0.14067 0.52461
 C2434 C 0.70554 0.15985 0.51742
 C2435 C 0.72491 0.16761 0.52373
 C2436 C 0.73564 0.15655 0.53886
 C2437 C 0.75768 0.14982 0.53926
 C2438 C 0.75001 0.12916 0.54723
 H2439 H 0.68351 0.13545 0.51897
 H2440 H 0.69602 0.16839 0.50662
 H2441 H 0.76694 0.15852 0.55083
 H2442 H 0.76460 0.14893 0.52357
 H2443 H 0.75498 0.12603 0.56338
 H2444 H 0.75253 0.11624 0.53621
 C2445 C 0.72532 0.64124 0.04790
 C2446 C 0.70762 0.63171 0.03974
 C2447 C 0.69575 0.64324 0.02544
 C2448 C 0.70279 0.66246 0.01813
 C2449 C 0.72176 0.67075 0.02501
 C2450 C 0.73212 0.66026 0.04082
 C2451 C 0.75432 0.65415 0.04230
 C2452 C 0.74692 0.63329 0.05000
 H2453 H 0.68131 0.63738 0.01943
 H2454 H 0.69357 0.67054 0.00674
 H2455 H 0.76273 0.66317 0.05427
 H2456 H 0.76203 0.65343 0.02697
 H2457 H 0.75123 0.63033 0.06636
 H2458 H 0.75029 0.62042 0.03914
 C2459 C 0.23137 0.61692 0.70635
 C2460 C 0.21379 0.62643 0.71477
 C2461 C 0.20152 0.61446 0.72827
 C2462 C 0.20805 0.59479 0.73469
 C2463 C 0.22696 0.58643 0.72773
 C2464 C 0.23773 0.59742 0.71259
 C2465 C 0.26005 0.60316 0.71170
 C2466 C 0.25313 0.62453 0.70492
 H2467 H 0.18708 0.62026 0.73429
 H2468 H 0.19846 0.58635 0.74547
 H2469 H 0.26842 0.59456 0.69943
 H2470 H 0.26760 0.60298 0.72715
 H2471 H 0.25764 0.62820 0.68878
 H2472 H 0.25662 0.63679 0.71644
 C2473 C 0.20450 0.11255 0.22867
 C2474 C 0.21489 0.12333 0.21303
 C2475 C 0.23479 0.11616 0.20752
 C2476 C 0.24245 0.09735 0.21542
 C2477 C 0.23047 0.08538 0.22913
 C2478 C 0.21210 0.09411 0.23648
 C2479 C 0.19100 0.08489 0.23799
 C2480 C 0.18266 0.10505 0.22945
 H2481 H 0.24405 0.12443 0.19637
 H2482 H 0.25718 0.09165 0.20986
 H2483 H 0.18639 0.08202 0.25427
 H2484 H 0.18883 0.07161 0.22731
 H2485 H 0.17320 0.11372 0.24085
 H2486 H 0.17558 0.10346 0.21385
 C2487 C 0.72755 1.11064 0.69778
 C2488 C 0.71375 1.12263 0.70941
 C2489 C 0.71022 1.11657 0.73007
 C2490 C 0.71818 1.09778 0.73763
 C2491 C 0.72999 1.08473 0.72478
 C2492 C 0.73546 1.09220 0.70528
 C2493 C 0.73398 1.08195 0.68467
 C2494 C 0.72529 1.10212 0.67644
 H2495 H 0.70065 1.12581 0.74015
 H2496 H 0.71427 1.09307 0.75319
 H2497 H 0.72260 1.06908 0.68443
 H2498 H 0.74946 1.07811 0.67827
 H2499 H 0.70886 1.10097 0.67143
 H2500 H 0.73578 1.10981 0.66525
 C2501 C 0.70510 0.61551 0.22826
 C2502 C 0.71540 0.62663 0.21283
 C2503 C 0.73518 0.61940 0.20685
 C2504 C 0.74283 0.60037 0.21424
 C2505 C 0.73100 0.58828 0.22794
 C2506 C 0.71273 0.59691 0.23561
 C2507 C 0.69166 0.58764 0.23708
 C2508 C 0.68326 0.60795 0.22902
 H2509 H 0.74441 0.62782 0.19580
 H2510 H 0.75747 0.59471 0.20842
 H2511 H 0.68719 0.58445 0.25333
 H2512 H 0.68943 0.57459 0.22614
 H2513 H 0.67385 0.61633 0.24067
 H2514 H 0.67609 0.60668 0.21344
 C2515 C 0.53999 0.13506 0.72952
 C2516 C 0.53481 0.12660 0.71027
 C2517 C 0.52084 0.13864 0.69822
 C2518 C 0.51346 0.15802 0.70527
 C2519 C 0.51940 0.16598 0.72477
 C2520 C 0.53234 0.15340 0.73645
 C2521 C 0.54252 0.15179 0.75697
 C2522 C 0.55140 0.13117 0.74923
 H2523 H 0.51610 0.13377 0.68297
 H2524 H 0.50354 0.16694 0.69516
 H2525 H 0.53112 0.15001 0.76967
 H2526 H 0.55435 0.16389 0.75948
 H2527 H 0.54531 0.11755 0.75767
 H2528 H 0.56847 0.13160 0.74721
 C2529 C 1.03818 0.13291 0.23221
 C2530 C 1.03346 0.12435 0.21297
 C2531 C 1.02155 0.13707 0.19960
 C2532 C 1.01516 0.15711 0.20570
 C2533 C 1.02048 0.16518 0.22535
 C2534 C 1.03194 0.15213 0.23804
 C2535 C 1.04154 0.15063 0.25887
 C2536 C 1.04874 0.12895 0.25234
 H2537 H 1.01748 0.13194 0.18424
 H2538 H 1.00645 0.16639 0.19483
 H2539 H 1.02978 0.15050 0.27138
 H2540 H 1.05439 0.16177 0.26102
 H2541 H 1.04127 0.11631 0.26119
 H2542 H 1.06582 0.12777 0.25074
 C2543 C 0.20283 0.63801 0.52066
 C2544 C 0.21473 0.62633 0.53452
 C2545 C 0.23478 0.63369 0.53922
 C2546 C 0.24133 0.65325 0.53232
 C2547 C 0.22808 0.66582 0.52041
 C2548 C 0.20936 0.65721 0.51378
 C2549 C 0.18803 0.66598 0.51474
 C2550 C 0.18085 0.64498 0.52225
 H2551 H 0.24513 0.62481 0.54888
 H2552 H 0.25640 0.65884 0.53706
 H2553 H 0.18197 0.67002 0.49919
 H2554 H 0.18653 0.67830 0.52661
 H2555 H 0.17063 0.63697 0.51098
 H2556 H 0.17512 0.64513 0.53844
 C2557 C 0.22408 0.13962 1.04825
 C2558 C 0.21080 0.12735 1.03619
 C2559 C 0.20331 0.13615 1.01763
 C2560 C 0.21033 0.15556 1.01082
 C2561 C 0.22500 0.16683 1.02236
 C2562 C 0.23088 0.15881 1.04153
 C2563 C 0.25194 0.15593 1.05046
 C2564 C 0.24468 0.13488 1.05772
 H2565 H 0.19262 0.12786 1.00783
 H2566 H 0.20470 0.16140 0.99619
 H2567 H 0.25503 0.16685 1.06336
 H2568 H 0.26420 0.15515 1.03846
 H2569 H 0.24386 0.13371 1.07484
 H2570 H 0.25273 0.12188 1.04991
 C2571 C 0.20559 0.73100 0.61385
 C2572 C 0.21205 0.71263 0.62308
 C2573 C 0.22584 0.70038 0.61115
 C2574 C 0.23259 0.70687 0.59133
 C2575 C 0.22576 0.72579 0.58275
 C2576 C 0.21214 0.73719 0.59487
 C2577 C 0.20056 0.75701 0.59561
 C2578 C 0.19308 0.75008 0.61707
 H2579 H 0.23134 0.68570 0.61682
 H2580 H 0.24298 0.69697 0.58275
 H2581 H 0.18803 0.75774 0.58387
 H2582 H 0.21105 0.77059 0.59609
 H2583 H 0.17619 0.74690 0.61757
 H2584 H 0.19918 0.75974 0.62990
 C2585 C 0.19934 0.22420 1.10798
 C2586 C 0.20986 0.20868 1.11899
 C2587 C 0.22986 0.20332 1.11178
 C2588 C 0.23773 0.21163 1.09330
 C2589 C 0.22591 0.22552 1.08139
 C2590 C 0.20714 0.23230 1.08970
 C2591 C 0.18630 0.23332 1.07983
 C2592 C 0.17769 0.22444 1.09972
 H2593 H 0.23946 0.19240 1.11997
 H2594 H 0.25273 0.20647 1.08794
 H2595 H 0.18476 0.22270 1.06640
 H2596 H 0.18129 0.24947 1.07691
 H2597 H 0.17113 0.20869 1.09784
 H2598 H 0.16762 0.23551 1.10813
 C2599 C 0.72955 0.55028 0.13741
 C2600 C 0.71615 0.53831 0.12529
 C2601 C 0.71229 0.51788 0.13193
 C2602 C 0.71943 0.51097 0.15131
 C2603 C 0.73079 0.52422 0.16434
 C2604 C 0.73671 0.54339 0.15638
 C2605 C 0.73510 0.56431 0.16590
 C2606 C 0.72719 0.57190 0.14515
 H2607 H 0.70305 0.50748 0.12268
 H2608 H 0.71524 0.49563 0.15645
 H2609 H 0.75050 0.57071 0.17008
 H2610 H 0.72330 0.56508 0.17837
 H2611 H 0.73805 0.58275 0.13748
 H2612 H 0.71078 0.57704 0.14553
 C2613 C 0.70382 1.02162 0.63596
 C2614 C 0.71512 1.03615 0.62457
 C2615 C 0.73467 1.04196 0.63244
 C2616 C 0.74123 1.03528 0.65211
 C2617 C 0.72846 1.02254 0.66435
 C2618 C 0.71035 1.01496 0.65526
 C2619 C 0.68883 1.01435 0.66350
 C2620 C 0.68164 1.02180 0.64243
 H2621 H 0.74463 1.05222 0.62384
 H2622 H 0.75590 1.04080 0.65802
 H2623 H 0.68617 1.02573 0.67610
 H2624 H 0.68386 0.99832 0.66693
 H2625 H 0.67494 1.03761 0.64272
 H2626 H 0.67228 1.01012 0.63401
 C2627 C 0.54994 0.22773 0.63768
 C2628 C 0.53862 0.21341 0.62602
 C2629 C 0.51802 0.20951 0.63216
 C2630 C 0.51028 0.21763 0.65082
 C2631 C 0.52291 0.22996 0.66364
 C2632 C 0.54229 0.23577 0.65599
 C2633 C 0.56301 0.23509 0.66622
 C2634 C 0.57140 0.22626 0.64617
 H2635 H 0.50815 0.19950 0.62312
 H2636 H 0.49484 0.21337 0.65568
 H2637 H 0.56361 0.22401 0.67933
 H2638 H 0.56902 0.25077 0.66975
 H2639 H 0.57687 0.21005 0.64762
 H2640 H 0.58229 0.23688 0.63822
 C2641 C 1.04908 0.23027 0.13562
 C2642 C 1.03876 0.21447 0.12484
 C2643 C 1.01906 0.20861 0.13241
 C2644 C 1.01155 0.21638 0.15127
 C2645 C 1.02350 0.23017 0.16316
 C2646 C 1.04168 0.23780 0.15430
 C2647 C 1.06284 0.23956 0.16338
 C2648 C 1.07102 0.23131 0.14302
 H2649 H 1.00954 0.19757 0.12427
 H2650 H 0.99690 0.21068 0.15701
 H2651 H 1.06537 0.22885 0.17657
 H2652 H 1.06727 0.25587 0.16635
 H2653 H 1.07831 0.21583 0.14439
 H2654 H 1.08026 0.24291 0.13439
 C2655 C 0.61206 0.20207 0.72823
 C2656 C 0.62255 0.21210 0.71219
 C2657 C 0.61531 0.23190 0.70653
 C2658 C 0.59660 0.23965 0.71456
 C2659 C 0.58476 0.22789 0.72856
 C2660 C 0.59374 0.20980 0.73624
 C2661 C 0.58477 0.18880 0.73895
 C2662 C 0.60472 0.18029 0.72997
 H2663 H 0.62339 0.24106 0.69518
 H2664 H 0.59086 0.25426 0.70880
 H2665 H 0.57100 0.18603 0.72900
 H2666 H 0.58281 0.18500 0.75556
 H2667 H 0.60260 0.17276 0.71466
 H2668 H 0.61387 0.17125 0.74136
 C2669 C 1.11304 0.20155 0.22769
 C2670 C 1.12366 0.21164 0.21176
 C2671 C 1.11641 0.23138 0.20597
 C2672 C 1.09766 0.23914 0.21392
 C2673 C 1.08578 0.22741 0.22794
 C2674 C 1.09464 0.20924 0.23557
 C2675 C 1.08555 0.18821 0.23788
 C2676 C 1.10564 0.17976 0.22913
 H2677 H 1.12459 0.24047 0.19463
 H2678 H 1.09194 0.25375 0.20816
 H2679 H 1.07195 0.18561 0.22765
 H2680 H 1.08321 0.18414 0.25438
 H2681 H 1.10375 0.17237 0.21373
 H2682 H 1.11462 0.17062 0.24057
 C2683 C 0.13688 0.70213 0.52245
 C2684 C 0.12867 0.70907 0.54125
 C2685 C 0.14138 0.72188 0.55355
 C2686 C 0.16041 0.72921 0.54602
 C2687 C 0.16731 0.72389 0.52604
 C2688 C 0.15570 0.70934 0.51506
 C2689 C 0.14814 0.70984 0.49329
 C2690 C 0.12752 0.70196 0.50135
 H2691 H 0.13659 0.72665 0.56880
 H2692 H 0.16947 0.73938 0.55573
 H2693 H 0.15634 0.69847 0.48338
 H2694 H 0.14733 0.72576 0.48695
 H2695 H 0.12388 0.68607 0.49600
 H2696 H 0.11470 0.71329 0.49968
 C2697 C 0.13924 0.20165 1.02032
 C2698 C 0.12768 0.21310 1.03460
 C2699 C 0.13470 0.23323 1.03927
 C2700 C 0.15392 0.24029 1.03186
 C2701 C 0.16645 0.22747 1.01947
 C2702 C 0.15808 0.20868 1.01293
 C2703 C 0.16743 0.18765 1.01344
 C2704 C 0.14684 0.17990 1.02156
 H2705 H 0.12589 0.24325 1.04930
 H2706 H 0.15936 0.25536 1.03663
 H2707 H 0.18021 0.18638 1.02490
 H2708 H 0.17109 0.18186 0.99770
 H2709 H 0.14768 0.17408 1.03770
 H2710 H 0.13875 0.16956 1.01047
 C2711 C 0.63716 0.52409 0.20456
 C2712 C 0.62636 0.53992 0.21468
 C2713 C 0.63703 0.55062 0.23050
 C2714 C 0.65688 0.54431 0.23692
 C2715 C 0.66677 0.52729 0.22761
 C2716 C 0.65681 0.51803 0.21080
 C2717 C 0.65236 0.49578 0.20695
 C2718 C 0.63085 0.50234 0.20016
 H2719 H 0.63009 0.56357 0.23836
 H2720 H 0.66423 0.55254 0.24950
 H2721 H 0.65244 0.48644 0.22135
 H2722 H 0.66186 0.48944 0.19413
 H2723 H 0.61839 0.49684 0.21063
 H2724 H 0.62801 0.49961 0.18344
 C2725 C 0.63582 1.02155 0.70818
 C2726 C 0.62824 1.04140 0.71169
 C2727 C 0.64149 1.05472 0.72307
 C2728 C 0.66111 1.04787 0.73028
 C2729 C 0.66807 1.02749 0.72636
 C2730 C 0.65454 1.01500 0.71523
 C2731 C 0.65160 0.99356 0.70758
 C2732 C 0.63046 1.00094 0.69944
 H2733 H 0.63698 1.07049 0.72613
 H2734 H 0.67088 1.05861 0.73860
 H2735 H 0.65040 0.98225 0.72043
 H2736 H 0.66271 0.98939 0.69522
 H2737 H 0.61712 0.99374 0.70748
 H2738 H 0.62953 1.00108 0.68229
 C2739 C 0.85931 0.45044 0.27621
 C2740 C 0.87156 0.46170 0.29007
 C2741 C 0.86593 0.48244 0.29382
 C2742 C 0.84739 0.49057 0.28568
 C2743 C 0.83414 0.47817 0.27357
 C2744 C 0.84110 0.45846 0.26819
 C2745 C 0.83017 0.43823 0.26972
 C2746 C 0.85010 0.42942 0.27851
 H2747 H 0.87539 0.49219 0.30356
 H2748 H 0.84302 0.50622 0.28962
 H2749 H 0.82616 0.43185 0.25428
 H2750 H 0.81724 0.43849 0.28104
 H2751 H 0.85749 0.41793 0.26812
 H2752 H 0.84874 0.42457 0.29493
 C2753 C 0.86397 0.95310 0.76877
 C2754 C 0.87618 0.96529 0.78191
 C2755 C 0.86942 0.98568 0.78567
 C2756 C 0.84985 0.99237 0.77874
 C2757 C 0.83669 0.97891 0.76774
 C2758 C 0.84475 0.95976 0.76185
 C2759 C 0.83550 0.93875 0.76376
 C2760 C 0.85650 0.93143 0.77138
 H2761 H 0.87874 0.99620 0.79470
 H2762 H 0.84468 1.00772 0.78287
 H2763 H 0.83114 0.93217 0.74850
 H2764 H 0.82321 0.93796 0.77575
 H2765 H 0.86416 0.92058 0.76050
 H2766 H 0.85644 0.92642 0.78781
 C2767 C 0.38935 0.30178 0.77175
 C2768 C 0.37688 0.28964 0.78460
 C2769 C 0.38302 0.26897 0.78782
 C2770 C 0.40224 0.26179 0.78053
 C2771 C 0.41567 0.27506 0.76969
 C2772 C 0.40823 0.29465 0.76446
 C2773 C 0.41826 0.31525 0.76702
 C2774 C 0.39761 0.32307 0.77503
 H2775 H 0.37343 0.25851 0.79660
 H2776 H 0.40691 0.24615 0.78412
 H2777 H 0.42270 0.32215 0.75195
 H2778 H 0.43068 0.31521 0.77893
 H2779 H 0.39024 0.33452 0.76457
 H2780 H 0.39801 0.32754 0.79161
 C2781 C 0.88809 0.27329 0.29436
 C2782 C 0.87924 0.29146 0.28652
 C2783 C 0.89139 0.30320 0.27272
 C2784 C 0.91054 0.29575 0.26557
 C2785 C 0.91818 0.27642 0.27210
 C2786 C 0.90706 0.26605 0.28742
 C2787 C 0.90019 0.24410 0.28815
 C2788 C 0.87939 0.25199 0.29569
 H2789 H 0.88610 0.31794 0.26700
 H2790 H 0.91913 0.30498 0.25462
 H2791 H 0.90876 0.23511 0.30002
 H2792 H 0.89949 0.23685 0.27259
 H2793 H 0.87600 0.24737 0.31187
 H2794 H 0.86657 0.24934 0.28451
 C2795 C 0.36050 0.77395 0.45077
 C2796 C 0.37189 0.78886 0.46167
 C2797 C 0.36236 0.79769 0.47925
 C2798 C 0.34309 0.79057 0.48633
 C2799 C 0.33267 0.77444 0.47608
 C2800 C 0.34140 0.76703 0.45776
 C2801 C 0.34562 0.74534 0.45137
 C2802 C 0.36653 0.75278 0.44380
 H2803 H 0.36981 0.80971 0.48807
 H2804 H 0.33660 0.79747 0.50011
 H2805 H 0.33520 0.74024 0.43867
 H2806 H 0.34666 0.73459 0.46472
 H2807 H 0.36812 0.75176 0.42673
 H2808 H 0.37976 0.74639 0.45275
 C2809 C 0.36489 0.29510 0.97903
 C2810 C 0.37519 0.28599 0.96227
 C2811 C 0.36455 0.27021 0.95150
 C2812 C 0.34524 0.26299 0.95835
 C2813 C 0.33578 0.27139 0.97605
 C2814 C 0.34571 0.28801 0.98569
 C2815 C 0.35130 0.29065 1.00790
 C2816 C 0.37221 0.29845 1.00068
 H2817 H 0.37106 0.26301 0.93796
 H2818 H 0.33787 0.25060 0.94987
 H2819 H 0.35216 0.27573 1.01632
 H2820 H 0.34183 0.30274 1.01556
 H2821 H 0.38526 0.28810 1.00496
 H2822 H 0.37469 0.31505 1.00420
 C2823 C 0.80178 0.47682 0.35875
 C2824 C 0.79003 0.46336 0.37089
 C2825 C 0.76931 0.45980 0.36483
 C2826 C 0.76171 0.46761 0.34598
 C2827 C 0.77460 0.47928 0.33290
 C2828 C 0.79426 0.48457 0.34026
 C2829 C 0.81477 0.48258 0.32988
 C2830 C 0.82304 0.47408 0.35013
 H2831 H 0.75916 0.45043 0.37419
 H2832 H 0.74607 0.46381 0.34130
 H2833 H 0.82143 0.49784 0.32578
 H2834 H 0.81467 0.47102 0.31717
 H2835 H 0.83451 0.48445 0.35762
 H2836 H 0.82774 0.45759 0.34917
 C2837 C 0.77197 0.95422 0.86203
 C2838 C 0.78981 0.96222 0.87144
 C2839 C 0.80185 0.97610 0.85968
 C2840 C 0.79492 0.98321 0.84033
 C2841 C 0.77580 0.97661 0.83213
 C2842 C 0.76520 0.96119 0.84290
 C2843 C 0.74301 0.96013 0.84908
 C2844 C 0.75039 0.95253 0.87004
 H2845 H 0.81646 0.98185 0.86541
 H2846 H 0.80443 0.99415 0.83200
 H2847 H 0.73439 0.94823 0.84018
 H2848 H 0.73553 0.97558 0.84965
 H2849 H 0.74591 0.93628 0.87318
 H2850 H 0.74721 0.96355 0.88282
 C2851 C 0.26678 0.79698 0.38520
 C2852 C 0.28540 0.78988 0.37663
 C2853 C 0.29816 0.77755 0.38936
 C2854 C 0.29127 0.77081 0.40880
 C2855 C 0.27149 0.77629 0.41619
 C2856 C 0.26006 0.79045 0.40453
 C2857 C 0.23803 0.78949 0.39768
 C2858 C 0.24536 0.79660 0.37655
 H2859 H 0.31332 0.77268 0.38431
 H2860 H 0.30138 0.76101 0.41787
 H2861 H 0.22827 0.80111 0.40573
 H2862 H 0.23178 0.77351 0.39771
 H2863 H 0.23974 0.81229 0.37245
 H2864 H 0.24339 0.78475 0.36427
 C2865 C 0.29757 0.27032 0.88569
 C2866 C 0.28630 0.28487 0.87428
 C2867 C 0.26627 0.28988 0.88147
 C2868 C 0.25929 0.28275 0.90082
 C2869 C 0.27209 0.27027 0.91330
 C2870 C 0.29061 0.26318 0.90465
 C2871 C 0.31189 0.26295 0.91359
 C2872 C 0.31954 0.27080 0.89288
 H2873 H 0.25631 0.30007 0.87274
 H2874 H 0.24436 0.28786 0.90639
 H2875 H 0.31720 0.24703 0.91714
 H2876 H 0.31383 0.27432 0.92633
 H2877 H 0.32935 0.25939 0.88461
 H2878 H 0.32594 0.28671 0.89359
 C2879 C 0.47971 0.29759 0.86134
 C2880 C 0.46117 0.29076 0.87016
 C2881 C 0.44816 0.27835 0.85771
 C2882 C 0.45479 0.27129 0.83822
 C2883 C 0.47455 0.27648 0.83064
 C2884 C 0.48621 0.29062 0.84214
 C2885 C 0.50831 0.28973 0.84876
 C2886 C 0.50120 0.29736 0.86981
 H2887 H 0.43304 0.27369 0.86305
 H2888 H 0.44458 0.26143 0.82933
 H2889 H 0.51802 0.30113 0.84040
 H2890 H 0.51451 0.27373 0.84903
 H2891 H 0.50687 0.31312 0.87351
 H2892 H 0.50326 0.28579 0.88233
 C2893 C 0.97597 0.30049 0.35829
 C2894 C 0.95775 0.29286 0.36718
 C2895 C 0.94621 0.27849 0.35540
 C2896 C 0.95406 0.27047 0.33678
 C2897 C 0.97361 0.27663 0.32935
 C2898 C 0.98361 0.29267 0.33985
 C2899 C 1.00550 0.29428 0.34697
 C2900 C 0.99717 0.30279 0.36720
 H2901 H 0.93135 0.27298 0.36065
 H2902 H 0.94496 0.25914 0.32846
 H2903 H 1.01437 0.30584 0.33792
 H2904 H 1.01310 0.27896 0.34861
 H2905 H 1.00139 0.31922 0.36977
 H2906 H 0.99989 0.29242 0.38061
 C2907 C 0.47724 0.36141 0.79767
 C2908 C 0.46294 0.37329 0.78654
 C2909 C 0.45804 0.36672 0.76629
 C2910 C 0.46540 0.34767 0.75872
 C2911 C 0.47792 0.33486 0.77117
 C2912 C 0.48453 0.34273 0.79017
 C2913 C 0.48397 0.33291 0.81099
 C2914 C 0.47603 0.35333 0.81926
 H2915 H 0.44794 0.37578 0.75655
 H2916 H 0.46053 0.34261 0.74353
 H2917 H 0.49970 0.32893 0.81669
 H2918 H 0.47237 0.32029 0.81192
 H2919 H 0.48722 0.36105 0.82977
 H2920 H 0.45988 0.35252 0.82511
 C2921 C 0.97491 0.35837 0.30100
 C2922 C 0.95745 0.36810 0.29252
 C2923 C 0.94717 0.35769 0.27627
 C2924 C 0.95547 0.33958 0.26763
 C2925 C 0.97421 0.33123 0.27504
 C2926 C 0.98296 0.34038 0.29257
 C2927 C 1.00474 0.34693 0.29641
 C2928 C 0.99599 0.36667 0.30558
 H2929 H 0.93297 0.36358 0.26975
 H2930 H 0.94734 0.33236 0.25490
 H2931 H 1.01355 0.34943 0.28188
 H2932 H 1.01254 0.33696 0.30801
 H2933 H 0.99969 0.38068 0.29638
 H2934 H 0.99896 0.36804 0.32244
 C2935 C 0.29599 0.86332 0.48044
 C2936 C 0.28522 0.87457 0.46539
 C2937 C 0.26514 0.86767 0.46016
 C2938 C 0.25760 0.84869 0.46771
 C2939 C 0.26991 0.83630 0.48077
 C2940 C 0.28854 0.84471 0.48791
 C2941 C 0.30963 0.83534 0.48859
 C2942 C 0.31782 0.85571 0.48044
 H2943 H 0.25561 0.87632 0.44949
 H2944 H 0.24267 0.84325 0.46239
 H2945 H 0.31142 0.82238 0.47747
 H2946 H 0.31471 0.83196 0.50465
 H2947 H 0.32443 0.85456 0.46463
 H2948 H 0.32764 0.86401 0.49185
 C2949 C 0.29885 0.36192 0.97881
 C2950 C 0.28725 0.37378 0.96485
 C2951 C 0.26705 0.36681 0.96016
 C2952 C 0.26009 0.34741 0.96711
 C2953 C 0.27307 0.33462 0.97910
 C2954 C 0.29191 0.34290 0.98577
 C2955 C 0.31308 0.33373 0.98513
 C2956 C 0.32071 0.35450 0.97744
 H2957 H 0.25688 0.37584 0.95045
 H2958 H 0.24496 0.34206 0.96231
 H2959 H 0.31451 0.32119 0.97347
 H2960 H 0.31888 0.32982 1.00081
 H2961 H 0.32654 0.35406 0.96129
 H2962 H 0.33102 0.36240 0.98869
 C2963 C 0.77431 0.39223 0.29860
 C2964 C 0.78738 0.37988 0.28654
 C2965 C 0.79134 0.38647 0.26612
 C2966 C 0.78429 0.40582 0.25910
 C2967 C 0.77298 0.41897 0.27228
 C2968 C 0.76729 0.41125 0.29163
 C2969 C 0.76960 0.42091 0.31245
 C2970 C 0.77730 0.40011 0.32009
 H2971 H 0.80040 0.37706 0.25572
 H2972 H 0.78835 0.41077 0.24366
 H2973 H 0.75445 0.42543 0.31917
 H2974 H 0.78166 0.43315 0.31282
 H2975 H 0.76657 0.39271 0.33124
 H2976 H 0.79383 0.40026 0.32488
   
