data_POSCAR
  _audit_creation_date              2014-09-24
  _audit_creation_method            'ToBaCCo'
  _symmetry_space_group_name_H-M    'P1'
  _symmetry_Int_Tables_number       1
  _symmetry_cell_setting            triclinic
  loop_
  _symmetry_equiv_pos_as_xyz
 x,y,z
_cell_length_a 59.3152
_cell_length_b 59.3413
_cell_length_c 52.6631
_cell_angle_alpha 91.353400
_cell_angle_beta 88.452100
_cell_angle_gamma 94.964900
loop_
  _atom_site_label
  _atom_site_type_symbol
  _atom_site_fract_x
  _atom_site_fract_y
  _atom_site_fract_z
C1 C 0.40062 0.04325 0.27969
 H2 H 0.39906 0.05284 0.26270
 C3 C 0.41748 0.05005 0.29703
 H4 H 0.42912 0.06476 0.29337
 C5 C 0.38777 0.01201 0.30510
 H6 H 0.37606 -0.00263 0.30844
 C7 C 0.40423 0.01820 0.32285
 H8 H 0.40541 0.00803 0.33950
 N9 N 0.38675 0.02405 0.28358
 C10 C 0.36811 -0.00458 0.20932
 H11 H 0.35006 -0.00814 0.21242
 C12 C 0.37845 -0.01223 0.18696
 H13 H 0.36811 -0.02146 0.17290
 C14 C 0.40354 0.01052 0.22467
 H15 H 0.41344 0.01880 0.23961
 C16 C 0.41454 0.00333 0.20251
 H17 H 0.43268 0.00704 0.20042
 Zn18 Zn 0.36553 0.01368 0.25878
 N19 N 0.38066 0.00674 0.22757
 C20 C 0.33828 0.04214 0.23224
 N21 N 0.34537 0.03618 0.25527
 C22 C 0.33941 0.04730 0.27694
 C23 C 0.32659 0.06585 0.27592
 C24 C 0.32496 0.06029 0.23039
 C25 C 0.36322 -0.03104 0.26992
 C26 C 0.35373 -0.05293 0.27345
 C27 C 0.31673 -0.03885 0.27624
 C28 C 0.32713 -0.01696 0.27272
 N29 N 0.34992 -0.01369 0.26897
 H30 H 0.34323 0.03310 0.21524
 H31 H 0.34539 0.04226 0.29500
 H32 H 0.32320 0.07512 0.29334
 H33 H 0.31941 0.06465 0.21186
 H34 H 0.38136 -0.02784 0.26727
 H35 H 0.36534 -0.06589 0.27496
 H36 H 0.29844 -0.04079 0.27735
 H37 H 0.31689 -0.00279 0.27173
 C38 C 0.40201 -0.00825 0.18324
 C39 C 0.41952 0.03709 0.31856
 C40 C 0.32992 -0.05768 0.27514
 C41 C 0.31939 0.07284 0.25236
 C42 C 0.12071 0.01103 0.71966
 H43 H 0.11787 0.01952 0.73773
 C44 C 0.10909 0.01677 0.69830
 H45 H 0.09702 0.02942 0.70009
 C46 C 0.13887 -0.01687 0.69581
 H47 H 0.15043 -0.02998 0.69490
 C48 C 0.12790 -0.01149 0.67400
 H49 H 0.13105 -0.02070 0.65644
 N50 N 0.13437 -0.00630 0.71829
 C51 C 0.12902 -0.03328 0.79467
 H52 H 0.14670 -0.03386 0.79890
 C53 C 0.11236 -0.03877 0.81330
 H54 H 0.11729 -0.04303 0.83214
 C55 C 0.10111 -0.02554 0.76546
 H56 H 0.09672 -0.02057 0.74678
 C57 C 0.08397 -0.03067 0.78355
 H58 H 0.06654 -0.02884 0.77895
 Zn59 Zn 0.14668 -0.01611 0.74848
 N60 N 0.12318 -0.02589 0.77169
 C61 C 0.15802 0.01938 0.78385
 N62 N 0.16467 0.00880 0.76205
 C63 C 0.18229 0.01776 0.74741
 C64 C 0.19347 0.03863 0.75403
 C65 C 0.16852 0.04046 0.79094
 C66 C 0.15124 -0.06052 0.73445
 C67 C 0.16159 -0.08061 0.73130
 C68 C 0.19714 -0.06039 0.74270
 C69 C 0.18602 -0.04069 0.74592
 N70 N 0.16345 -0.04116 0.74181
 H71 H 0.14352 0.01235 0.79476
 H72 H 0.18673 0.00934 0.72977
 H73 H 0.20649 0.04632 0.74137
 H74 H 0.16201 0.04960 0.80721
 H75 H 0.13323 -0.06042 0.73175
 H76 H 0.15129 -0.09599 0.72646
 H77 H 0.21511 -0.05973 0.74608
 H78 H 0.19533 -0.02525 0.75228
 C79 C 0.08963 -0.03662 0.80802
 C80 C 0.11198 0.00476 0.67535
 C81 C 0.18481 -0.08080 0.73570
 C82 C 0.18606 0.05044 0.77555
 C83 C 0.58985 0.48296 0.22235
 H84 H 0.58016 0.47657 0.23871
 C85 C 0.57861 0.48862 0.20065
 H86 H 0.56034 0.48580 0.20023
 C87 C 0.62535 0.49454 0.20301
 H88 H 0.64357 0.49720 0.20431
 C89 C 0.61486 0.50061 0.18114
 H90 H 0.62522 0.50788 0.16567
 N91 N 0.61285 0.48576 0.22298
 C92 C 0.61266 0.48446 0.30227
 H93 H 0.62456 0.49924 0.30325
 C94 C 0.60079 0.47749 0.32417
 H95 H 0.60321 0.48749 0.34151
 C96 C 0.59594 0.45289 0.27910
 H97 H 0.59466 0.44313 0.26151
 C98 C 0.58357 0.44526 0.30077
 H99 H 0.57264 0.42969 0.29984
 Zn100 Zn 0.62939 0.48101 0.25231
 N101 N 0.61013 0.47221 0.28027
 C102 C 0.63285 0.52659 0.26426
 N103 N 0.64578 0.50909 0.25964
 C104 C 0.66878 0.51238 0.25819
 C105 C 0.67957 0.53428 0.26066
 C106 C 0.64287 0.54849 0.26741
 C107 C 0.65081 0.44632 0.22455
 C108 C 0.66385 0.42776 0.22260
 C109 C 0.67321 0.43366 0.26676
 C110 C 0.66025 0.45219 0.26776
 N111 N 0.64915 0.45797 0.24698
 H112 H 0.61460 0.52350 0.26505
 H113 H 0.67870 0.49824 0.25404
 H114 H 0.69778 0.53682 0.25817
 H115 H 0.63211 0.56210 0.27111
 H116 H 0.64160 0.45104 0.20834
 H117 H 0.66492 0.41867 0.20461
 H118 H 0.68099 0.42886 0.28394
 H119 H 0.65834 0.46155 0.28546
 C120 C 0.58638 0.45746 0.32375
 C121 C 0.59117 0.49750 0.17960
 C122 C 0.67499 0.42095 0.24403
 C123 C 0.66648 0.55275 0.26470
 C124 C 0.87758 0.53749 0.78414
 H125 H 0.87549 0.54976 0.76969
 C126 C 0.89327 0.54249 0.80334
 H127 H 0.90331 0.55863 0.80351
 C128 C 0.86752 0.50128 0.80106
 H129 H 0.85701 0.48557 0.80100
 C130 C 0.88375 0.50498 0.81945
 H131 H 0.88553 0.49185 0.83304
 N132 N 0.86573 0.51678 0.78284
 C133 C 0.85706 0.49221 0.70552
 H134 H 0.83898 0.48776 0.70589
 C135 C 0.87016 0.48622 0.68447
 H136 H 0.86192 0.47738 0.66857
 C137 C 0.88973 0.50826 0.72635
 H138 H 0.89734 0.51649 0.74291
 C139 C 0.90351 0.50275 0.70552
 H140 H 0.92153 0.50750 0.70593
 Zn141 Zn 0.84779 0.50817 0.75443
 N142 N 0.86691 0.50326 0.72579
 C143 C 0.82583 0.53887 0.72501
 N144 N 0.82864 0.53113 0.74871
 C145 C 0.81964 0.54121 0.76958
 C146 C 0.80806 0.56048 0.76722
 C147 C 0.81389 0.55783 0.72170
 C148 C 0.84460 0.46272 0.76148
 C149 C 0.83513 0.44085 0.76510
 C150 C 0.79792 0.45449 0.76457
 C151 C 0.80827 0.47653 0.76182
 N152 N 0.83126 0.48008 0.76027
 H153 H 0.83327 0.53070 0.70867
 H154 H 0.82241 0.53486 0.78823
 H155 H 0.80227 0.56889 0.78432
 H156 H 0.81184 0.56366 0.70265
 H157 H 0.86280 0.46600 0.75985
 H158 H 0.84637 0.42757 0.76682
 H159 H 0.77964 0.45168 0.76486
 H160 H 0.79802 0.49063 0.76036
 C161 C 0.89369 0.49177 0.68410
 C162 C 0.89746 0.52548 0.82028
 C163 C 0.81150 0.43626 0.76583
 C164 C 0.80528 0.56930 0.74304
 C165 C 0.19867 0.40509 0.98513
 H166 H 0.20149 0.39206 0.97098
 C167 C 0.18064 0.41851 0.98281
 H168 H 0.16962 0.41545 0.96682
 C169 C 0.20833 0.42324 1.02439
 H170 H 0.21888 0.42451 1.04090
 C171 C 0.19101 0.43743 1.02248
 H172 H 0.18887 0.45003 1.03733
 N173 N 0.21191 0.40758 1.00583
 C174 C 0.27809 0.39110 1.02760
 H175 H 0.27450 0.37300 1.02931
 C176 C 0.29990 0.40098 1.03131
 H177 H 0.31316 0.39040 1.03588
 C178 C 0.26543 0.42668 1.01790
 H179 H 0.25219 0.43645 1.01158
 C180 C 0.28712 0.43730 1.02142
 H181 H 0.29042 0.45518 1.01776
 Zn182 Zn 0.23398 0.38769 1.01198
 N183 N 0.26147 0.40392 1.02070
 C184 C 0.24906 0.38209 0.96231
 N185 N 0.24062 0.37007 0.98259
 C186 C 0.23893 0.34704 0.98191
 C187 C 0.24497 0.33525 0.95975
 C188 C 0.25558 0.37104 0.93999
 C189 C 0.23121 0.37466 1.06279
 C190 C 0.22332 0.36191 1.08355
 C191 C 0.19758 0.33975 1.05601
 C192 C 0.20558 0.35335 1.03584
 N193 N 0.22275 0.36979 1.03937
 H194 H 0.25086 0.40038 0.96359
 H195 H 0.23308 0.33770 0.99851
 H196 H 0.24277 0.31694 0.95934
 H197 H 0.26243 0.38107 0.92423
 H198 H 0.24414 0.38842 1.06542
 H199 H 0.23076 0.36546 1.10193
 H200 H 0.18468 0.32598 1.05283
 H201 H 0.19848 0.35048 1.01722
 C202 C 0.30473 0.42422 1.02746
 C203 C 0.17644 0.43483 1.00182
 C204 C 0.20667 0.34395 1.08011
 C205 C 0.25323 0.34727 0.93827
 C206 C 0.78583 0.07794 1.02642
 H207 H 0.77379 0.07565 1.04214
 C208 C 0.80360 0.06405 1.02389
 H209 H 0.80400 0.05056 1.03725
 C210 C 0.79898 0.09835 0.99013
 H211 H 0.79743 0.11224 0.97754
 C212 C 0.81712 0.08495 0.98692
 H213 H 0.82935 0.08945 0.97191
 N214 N 0.78402 0.09486 1.00987
 C215 C 0.72961 0.07846 1.01940
 H216 H 0.74116 0.07074 1.00631
 C217 C 0.70848 0.06717 1.02498
 H218 H 0.70381 0.05091 1.01594
 C219 C 0.72077 0.10985 1.04530
 H220 H 0.72534 0.12662 1.05282
 C221 C 0.69939 0.09928 1.05113
 H222 H 0.68763 0.10813 1.06294
 Zn223 Zn 0.76225 0.11575 1.01694
 N224 N 0.73519 0.09962 1.02914
 C225 C 0.74412 0.11749 0.96871
 N226 N 0.75536 0.13047 0.98673
 C227 C 0.76053 0.15304 0.98345
 C228 C 0.75404 0.16340 0.96151
 C229 C 0.73737 0.12712 0.94652
 C230 C 0.79314 0.13225 1.05410
 C231 C 0.80074 0.14538 1.07496
 C232 C 0.77035 0.16924 1.06939
 C233 C 0.76306 0.15540 1.04883
 N234 N 0.77408 0.13688 1.04206
 H235 H 0.74021 0.09961 0.97165
 H236 H 0.76984 0.16304 0.99772
 H237 H 0.75860 0.18130 0.95904
 H238 H 0.72826 0.11647 0.93256
 H239 H 0.80195 0.11774 1.04838
 H240 H 0.81508 0.14065 1.08533
 H241 H 0.76069 0.18316 1.07550
 H242 H 0.74811 0.15898 1.03888
 C243 C 0.69285 0.07795 1.04034
 C244 C 0.82015 0.06767 1.00429
 C245 C 0.78895 0.16375 1.08315
 C246 C 0.74231 0.15039 0.94266
 C247 C 0.28697 0.57336 0.48865
 H248 H 0.27055 0.56592 0.49492
 C249 C 0.30517 0.55988 0.48611
 H250 H 0.30249 0.54205 0.49026
 C251 C 0.31055 0.60563 0.47597
 H252 H 0.31258 0.62362 0.47267
 C253 C 0.32914 0.59285 0.47325
 H254 H 0.34546 0.60127 0.46799
 N255 N 0.29016 0.59592 0.48426
 C256 C 0.22132 0.60417 0.48566
 H257 H 0.22348 0.61524 0.46974
 C258 C 0.19977 0.59439 0.49137
 H259 H 0.18615 0.59749 0.47896
 C260 C 0.23600 0.58733 0.52125
 H261 H 0.25025 0.58493 0.53299
 C262 C 0.21432 0.57744 0.52804
 H263 H 0.21198 0.56754 0.54506
 Zn264 Zn 0.26771 0.61607 0.49161
 N265 N 0.23908 0.60049 0.50033
 C266 C 0.25854 0.62131 0.44088
 N267 N 0.26452 0.63340 0.46222
 C268 C 0.26641 0.65644 0.46247
 C269 C 0.26085 0.66813 0.44103
 C270 C 0.25224 0.63221 0.41940
 C271 C 0.29558 0.63018 0.53255
 C272 C 0.30142 0.64220 0.55481
 C273 C 0.26946 0.66419 0.54974
 C274 C 0.26395 0.65145 0.52779
 N275 N 0.27698 0.63480 0.51966
 H276 H 0.25728 0.60302 0.44115
 H277 H 0.27187 0.66583 0.47933
 H278 H 0.26258 0.68643 0.44159
 H279 H 0.24608 0.62193 0.40339
 H280 H 0.30533 0.61644 0.52634
 H281 H 0.31556 0.63762 0.56562
 H282 H 0.25851 0.67681 0.55663
 H283 H 0.24889 0.65436 0.51763
 C284 C 0.19579 0.58133 0.51315
 C285 C 0.32675 0.56974 0.47891
 C286 C 0.28815 0.65925 0.56366
 C287 C 0.25320 0.65599 0.41920
 C288 C 0.72175 0.91551 0.47146
 H289 H 0.73651 0.92077 0.45987
 C290 C 0.70166 0.92609 0.46898
 H291 H 0.70109 0.93935 0.45531
 C292 C 0.70419 0.89123 0.50249
 H293 H 0.70469 0.87708 0.51486
 C294 C 0.68419 0.90153 0.50112
 H295 H 0.67025 0.89574 0.51366
 N296 N 0.72286 0.89897 0.48879
 C297 C 0.79349 0.89843 0.50902
 H298 H 0.79315 0.88037 0.51159
 C299 C 0.81351 0.91203 0.51234
 H300 H 0.82862 0.90429 0.51735
 C301 C 0.77429 0.93021 0.49834
 H302 H 0.75894 0.93724 0.49311
 C303 C 0.79417 0.94447 0.50109
 H304 H 0.79405 0.96240 0.49775
 Zn305 Zn 0.75012 0.88576 0.49583
 N306 N 0.77454 0.90755 0.50169
 C307 C 0.77601 0.87383 0.45280
 N308 N 0.75790 0.86692 0.46797
 C309 C 0.74493 0.84738 0.46278
 C310 C 0.75014 0.83385 0.44168
 C311 C 0.78152 0.86107 0.43129
 C312 C 0.73713 0.88021 0.54663
 C313 C 0.73052 0.86858 0.56864
 C314 C 0.74518 0.83522 0.54976
 C315 C 0.75042 0.84723 0.52756
 N316 N 0.74572 0.86915 0.52617
 H317 H 0.78579 0.88966 0.45685
 H318 H 0.73038 0.84247 0.47487
 H319 H 0.73941 0.81862 0.43734
 H320 H 0.79546 0.86716 0.41886
 H321 H 0.73406 0.89784 0.54522
 H322 H 0.72199 0.87763 0.58354
 H323 H 0.74974 0.81800 0.55037
 H324 H 0.75828 0.83902 0.51151
 C325 C 0.81409 0.93528 0.50797
 C326 C 0.68258 0.91931 0.48429
 C327 C 0.73428 0.84558 0.57055
 C328 C 0.76845 0.84091 0.42554
 C329 C 0.00490 0.27926 0.43601
 H330 H 0.00767 0.26433 0.44644
 C331 C 0.00345 0.30001 0.44905
 H332 H 0.00467 0.30066 0.46952
 C333 C -0.00058 0.29646 0.39679
 H334 H -0.00210 0.29494 0.37638
 C335 C -0.00154 0.31746 0.40885
 H336 H -0.00331 0.33198 0.39726
 N337 N 0.00273 0.27791 0.41033
 C338 C 0.02413 0.21249 0.40589
 H339 H 0.03581 0.21669 0.39037
 C340 C 0.02696 0.19331 0.41983
 H341 H 0.04025 0.18328 0.41302
 C342 C -0.00781 0.22024 0.43109
 H343 H -0.02137 0.23085 0.43550
 C344 C -0.00520 0.20150 0.44619
 H345 H -0.01686 0.19892 0.46212
 Zn346 Zn 0.00370 0.25096 0.39028
 N347 N 0.00679 0.22544 0.41132
 C348 C 0.03345 0.23924 0.34860
 N349 N 0.02941 0.25485 0.36721
 C350 C 0.04468 0.27290 0.37159
 C351 C 0.06501 0.27548 0.35765
 C352 C 0.05382 0.24105 0.33433
 C353 C -0.04316 0.24961 0.38767
 C354 C -0.06447 0.24911 0.37696
 C355 C -0.04704 0.24371 0.33563
 C356 C -0.02589 0.24473 0.34715
 N357 N -0.02434 0.24739 0.37283
 H358 H 0.02143 0.22469 0.34572
 H359 H 0.04167 0.28497 0.38667
 H360 H 0.07688 0.28992 0.36179
 H361 H 0.05716 0.22787 0.32052
 H362 H -0.04154 0.25253 0.40790
 H363 H -0.07890 0.25174 0.38934
 H364 H -0.04784 0.24113 0.31525
 H365 H -0.01080 0.24362 0.33544
 C366 C 0.01235 0.18718 0.44074
 C367 C 0.00004 0.31952 0.43544
 C368 C -0.06680 0.24595 0.35056
 C369 C 0.07018 0.25912 0.33922
 C370 C 0.01294 0.72728 0.08010
 H371 H 0.02589 0.74087 0.07666
 C372 C 0.01186 0.70810 0.06408
 H373 H 0.02409 0.70735 0.04854
 C374 C -0.01937 0.71252 0.10349
 H375 H -0.03171 0.71424 0.11866
 C376 C -0.02081 0.69285 0.08826
 H377 H -0.03393 0.67959 0.09259
 N378 N -0.00245 0.72917 0.09952
 C379 C 0.00993 0.80187 0.11164
 H380 H 0.01433 0.80231 0.13146
 C381 C 0.01160 0.82184 0.09797
 H382 H 0.01713 0.83757 0.10762
 C383 C -0.00359 0.78085 0.07555
 H384 H -0.00987 0.76487 0.06701
 C385 C -0.00208 0.80046 0.06109
 H386 H -0.00675 0.79925 0.04134
 Zn387 Zn -0.00008 0.75580 0.12096
 N388 N 0.00249 0.78189 0.10033
 C389 C 0.02598 0.75518 0.16648
 N390 N 0.02659 0.75640 0.14064
 C391 C 0.04667 0.75849 0.12750
 C392 C 0.06703 0.75832 0.14006
 C393 C 0.04607 0.75487 0.17988
 C394 C -0.04013 0.77342 0.13822
 C395 C -0.06087 0.77404 0.15107
 C396 C -0.05317 0.74079 0.17362
 C397 C -0.03245 0.74080 0.16010
 N398 N -0.02657 0.75668 0.14234
 H399 H 0.00997 0.75420 0.17680
 H400 H 0.04692 0.76038 0.10716
 H401 H 0.08276 0.75991 0.12908
 H402 H 0.04525 0.75314 0.20031
 H403 H -0.03517 0.78622 0.12445
 H404 H -0.07037 0.78833 0.14748
 H405 H -0.05751 0.72693 0.18629
 H406 H -0.02147 0.72752 0.16309
 C407 C 0.00567 0.82136 0.07226
 C408 C -0.00501 0.69031 0.06821
 C409 C -0.06851 0.75705 0.16852
 C410 C 0.06695 0.75597 0.16656
 C411 C 0.51958 0.21811 0.59511
 H412 H 0.53313 0.23153 0.59459
 C413 C 0.52077 0.19898 0.57916
 H414 H 0.53506 0.19817 0.56606
 C415 C 0.48472 0.20286 0.61303
 H416 H 0.47098 0.20401 0.62673
 C417 C 0.48535 0.18340 0.59772
 H418 H 0.47199 0.16993 0.60004
 N419 N 0.50154 0.21990 0.61134
 C420 C 0.49694 0.29171 0.63019
 H421 H 0.49299 0.28997 0.65026
 C422 C 0.49669 0.31279 0.61907
 H423 H 0.49225 0.32701 0.63084
 C424 C 0.50627 0.27483 0.59056
 H425 H 0.50961 0.25995 0.57939
 C426 C 0.50654 0.29575 0.57867
 H427 H 0.51068 0.29669 0.55857
 Zn428 Zn 0.50052 0.24556 0.63384
 N429 N 0.50186 0.27326 0.61601
 C430 C 0.53893 0.26439 0.66127
 N431 N 0.52487 0.24551 0.65635
 C432 C 0.52810 0.22539 0.66691
 C433 C 0.54652 0.22347 0.68240
 C434 C 0.55736 0.26331 0.67708
 C435 C 0.45371 0.24384 0.63939
 C436 C 0.43278 0.24430 0.65191
 C437 C 0.45159 0.24468 0.69206
 C438 C 0.47225 0.24388 0.67869
 N439 N 0.47291 0.24367 0.65282
 H440 H 0.53616 0.28019 0.65257
 H441 H 0.51666 0.21066 0.66268
 H442 H 0.54940 0.20715 0.68990
 H443 H 0.56888 0.27824 0.68023
 H444 H 0.45476 0.24386 0.61884
 H445 H 0.41774 0.24417 0.64070
 H446 H 0.45145 0.24563 0.71261
 H447 H 0.48779 0.24413 0.68900
 C448 C 0.50181 0.31518 0.59298
 C449 C 0.50345 0.18123 0.58029
 C450 C 0.43152 0.24528 0.67862
 C451 C 0.56151 0.24254 0.68740
 C452 C 0.51525 0.79029 0.89885
 H453 H 0.52762 0.78718 0.88413
 C454 C 0.51674 0.81117 0.91161
 H455 H 0.53007 0.82396 0.90628
 C456 C 0.48290 0.77786 0.92371
 H457 H 0.46991 0.76474 0.92869
 C458 C 0.48391 0.79854 0.93718
 H459 H 0.47124 0.80144 0.95181
 N460 N 0.49803 0.77435 0.90436
 C461 C 0.48843 0.70135 0.89274
 H462 H 0.48473 0.70085 0.87273
 C463 C 0.48897 0.68126 0.90577
 H464 H 0.48556 0.66526 0.89569
 C465 C 0.49828 0.72284 0.92995
 H466 H 0.50257 0.73909 0.93907
 C467 C 0.49881 0.70304 0.94384
 H468 H 0.50348 0.70414 0.96360
 Zn469 Zn 0.49522 0.74724 0.88383
 N470 N 0.49348 0.72158 0.90477
 C471 C 0.53697 0.73174 0.86748
 N472 N 0.52152 0.74641 0.86185
 C473 C 0.52575 0.76146 0.84278
 C474 C 0.54655 0.76276 0.82934
 C475 C 0.55788 0.73246 0.85458
 C476 C 0.44823 0.74641 0.87843
 C477 C 0.42755 0.74494 0.86626
 C478 C 0.44754 0.74156 0.82605
 C479 C 0.46798 0.74335 0.83906
 N480 N 0.46800 0.74584 0.86486
 H481 H 0.53357 0.72002 0.88277
 H482 H 0.51341 0.77323 0.83881
 H483 H 0.54998 0.77550 0.81504
 H484 H 0.57004 0.72090 0.85980
 H485 H 0.44837 0.74766 0.89886
 H486 H 0.41220 0.74591 0.87767
 H487 H 0.44789 0.73912 0.80561
 H488 H 0.48372 0.74223 0.82851
 C489 C 0.49467 0.68195 0.93149
 C490 C 0.50061 0.81568 0.93056
 C491 C 0.42689 0.74223 0.83970
 C492 C 0.56317 0.74851 0.83568
 C493 C -0.21766 0.63583 0.95678
 H494 H -0.21173 0.63782 0.97602
 C495 C -0.20814 0.65003 0.93787
 H496 H -0.19517 0.66332 0.94262
 C497 C -0.24194 0.61616 0.92710
 H498 H -0.25491 0.60275 0.92296
 C499 C -0.23262 0.62966 0.90754
 H500 H -0.23905 0.62707 0.88855
 N501 N -0.23477 0.61985 0.95126
 C502 C -0.26333 0.60590 1.02665
 H503 H -0.26419 0.58762 1.02527
 C504 C -0.27049 0.61647 1.04897
 H505 H -0.27732 0.60572 1.06410
 C506 C -0.25514 0.64125 1.00717
 H507 H -0.24956 0.65082 0.99063
 C508 C -0.26210 0.65264 1.02925
 H509 H -0.26056 0.67092 1.02933
 Zn510 Zn -0.24713 0.60120 0.97738
 N511 N -0.25541 0.61830 1.00651
 C512 C -0.21095 0.58744 1.00484
 N513 N -0.22460 0.58219 0.98487
 C514 C -0.22000 0.56577 0.96756
 C515 C -0.20100 0.55380 0.96996
 C516 C -0.19140 0.57632 1.00759
 C517 C -0.29017 0.59755 0.95901
 C518 C -0.31198 0.58788 0.95489
 C519 C -0.30002 0.55161 0.96635
 C520 C -0.27828 0.56203 0.97021
 N521 N -0.27395 0.58470 0.96692
 H522 H -0.21449 0.60118 1.01777
 H523 H -0.23072 0.56250 0.95136
 H524 H -0.19782 0.54072 0.95599
 H525 H -0.18013 0.58177 1.02277
 H526 H -0.28635 0.61560 0.95708
 H527 H -0.32495 0.59855 0.94966
 H528 H -0.30370 0.53388 0.97054
 H529 H -0.26538 0.55228 0.97741
 C530 C -0.26949 0.64034 1.05105
 C531 C -0.21583 0.64708 0.91298
 C532 C -0.31728 0.56482 0.95945
 C533 C -0.18594 0.55948 0.98974
 C534 C -0.22967 0.36671 0.53561
 H535 H -0.22381 0.36250 0.51659
 C536 C -0.22403 0.35459 0.55534
 H537 H -0.21319 0.34109 0.55165
 C538 C -0.24967 0.39154 0.56223
 H539 H -0.25922 0.40612 0.56505
 C540 C -0.24440 0.37847 0.58434
 H541 H -0.25225 0.38337 0.60211
 N542 N -0.24328 0.38547 0.53952
 C543 C -0.26073 0.38965 0.46106
 H544 H -0.25290 0.40639 0.45713
 C545 C -0.26866 0.37554 0.44113
 H546 H -0.26594 0.38141 0.42191
 C547 C -0.27296 0.36176 0.49103
 H548 H -0.27477 0.35666 0.51061
 C549 C -0.28165 0.34727 0.47170
 H550 H -0.29015 0.33105 0.47672
 Zn551 Zn -0.25167 0.40231 0.51153
 N552 N -0.26239 0.38233 0.48533
 C553 C -0.21120 0.40946 0.48405
 N554 N -0.22543 0.42004 0.50010
 C555 C -0.21931 0.44093 0.51025
 C556 C -0.19810 0.45199 0.50420
 C557 C -0.18989 0.41978 0.47770
 C558 C -0.29392 0.40700 0.53224
 C559 C -0.31447 0.41608 0.53696
 C560 C -0.29901 0.45073 0.51768
 C561 C -0.27851 0.44091 0.51346
 N562 N -0.27644 0.41932 0.52063
 H563 H -0.21594 0.39246 0.47715
 H564 H -0.23033 0.44851 0.52406
 H565 H -0.19295 0.46812 0.51326
 H566 H -0.17841 0.41071 0.46575
 H567 H -0.29205 0.38974 0.53737
 H568 H -0.32755 0.40572 0.54699
 H569 H -0.30040 0.46742 0.51037
 H570 H -0.26482 0.45012 0.50315
 C571 C -0.27921 0.35391 0.44623
 C572 C -0.23193 0.36039 0.58172
 C573 C -0.31783 0.43799 0.52878
 C574 C -0.18298 0.44107 0.48822
 C575 C 0.27052 -0.12711 0.01604
 H576 H 0.27872 -0.13018 -0.00217
 C577 C 0.27584 -0.13846 0.03644
 H578 H 0.28875 -0.15019 0.03429
 C579 C 0.24426 -0.10622 0.03975
 H580 H 0.23219 -0.09359 0.04107
 C581 C 0.24962 -0.11819 0.06273
 H582 H 0.23999 -0.11458 0.07984
 N583 N 0.25406 -0.11069 0.01810
 C584 C 0.23766 -0.10923 -0.06157
 H585 H 0.24337 -0.09195 -0.06612
 C586 C 0.23035 -0.12448 -0.08084
 H587 H 0.23140 -0.11882 -0.10024
 C588 C 0.23027 -0.13742 -0.03067
 H589 H 0.22988 -0.14225 -0.01099
 C590 C 0.22207 -0.15300 -0.04918
 H591 H 0.21544 -0.16967 -0.04329
 Zn592 Zn 0.24770 -0.09495 -0.01138
 N593 N 0.23820 -0.11612 -0.03718
 C594 C 0.28793 -0.08604 -0.04034
 N595 N 0.27483 -0.07792 -0.02119
 C596 C 0.28250 -0.05983 -0.00651
 C597 C 0.30416 -0.04918 -0.01084
 C598 C 0.30977 -0.07613 -0.04506
 C599 C 0.20338 -0.08971 -0.00046
 C600 C 0.18300 -0.07985 0.00082
 C601 C 0.20344 -0.04339 -0.00582
 C602 C 0.22359 -0.05419 -0.00768
 N603 N 0.22309 -0.07703 -0.00529
 H604 H 0.28206 -0.10108 -0.05097
 H605 H 0.27222 -0.05435 0.00935
 H606 H 0.31042 -0.03540 0.00162
 H607 H 0.32036 -0.08338 -0.05962
 H608 H 0.20346 -0.10780 0.00159
 H609 H 0.16769 -0.09065 0.00467
 H610 H 0.20417 -0.02536 -0.00887
 H611 H 0.23936 -0.04440 -0.01205
 C612 C 0.22252 -0.14685 -0.07485
 C613 C 0.26497 -0.13385 0.06170
 C614 C 0.18254 -0.05642 -0.00270
 C615 C 0.31822 -0.05775 -0.02990
 C616 C 0.29240 1.14331 0.46499
 H617 H 0.30020 1.14466 0.48335
 C618 C 0.30021 1.15798 0.44572
 H619 H 0.31372 1.17103 0.44934
 C620 C 0.26525 1.12461 0.43771
 H621 H 0.25185 1.11138 0.43460
 C622 C 0.27291 1.13851 0.41776
 H623 H 0.26493 1.13637 0.39949
 N624 N 0.27480 1.12747 0.46087
 C625 C 0.25042 1.10988 0.53723
 H626 H 0.24936 1.09167 0.53476
 C627 C 0.24308 1.11950 0.56008
 H628 H 0.23637 1.10843 0.57502
 C629 C 0.25927 1.14615 0.51998
 H630 H 0.26495 1.15650 0.50408
 C631 C 0.25241 1.15653 0.54272
 H632 H 0.25378 1.17481 0.54427
 Zn633 Zn 0.26535 1.10752 0.48708
 N634 N 0.25845 1.12319 0.51780
 C635 C 0.30287 1.09211 0.51127
 N636 N 0.28919 1.08911 0.49099
 C637 C 0.29393 1.07490 0.47133
 C638 C 0.31300 1.06274 0.47168
 C639 C 0.32248 1.08075 0.51209
 C640 C 0.22043 1.10250 0.47523
 C641 C 0.19876 1.09175 0.47318
 C642 C 0.21439 1.05569 0.47680
 C643 C 0.23588 1.06719 0.47897
 N644 N 0.23836 1.09022 0.47856
 H645 H 0.29914 1.10410 0.52625
 H646 H 0.28305 1.07333 0.45511
 H647 H 0.31612 1.05124 0.45598
 H648 H 0.33366 1.08431 0.52785
 H649 H 0.22289 1.12078 0.47542
 H650 H 0.18449 1.10182 0.47167
 H651 H 0.21233 1.03746 0.47847
 H652 H 0.25023 1.05778 0.48247
 C653 C 0.24420 1.14317 0.56324
 C654 C 0.29038 1.15555 0.42183
 C655 C 0.19553 1.06814 0.47468
 C656 C 0.32790 1.06589 0.49201
 C657 C 0.18260 0.47095 0.26248
 H658 H 0.18307 0.48419 0.27698
 C659 C 0.19576 0.45268 0.26482
 H660 H 0.20621 0.45182 0.28125
 C661 C 0.16853 0.45588 0.22339
 H662 H 0.15805 0.45713 0.20715
 C663 C 0.18158 0.43758 0.22478
 H664 H 0.18052 0.42470 0.20984
 N665 N 0.16865 0.47175 0.24247
 C666 C 0.15182 0.54129 0.23436
 H667 H 0.13372 0.53842 0.23345
 C668 C 0.16174 0.56305 0.23123
 H669 H 0.15087 0.57641 0.22812
 C670 C 0.18773 0.52713 0.23724
 H671 H 0.19778 0.51297 0.23934
 C672 C 0.19849 0.54907 0.23490
 H673 H 0.21675 0.55170 0.23575
 Zn674 Zn 0.14833 0.49466 0.24048
 N675 N 0.16469 0.52370 0.23715
 C676 C 0.11138 0.50932 0.26908
 N677 N 0.12883 0.49590 0.27000
 C678 C 0.13293 0.48525 0.29178
 C679 C 0.12076 0.48970 0.31417
 C680 C 0.09915 0.51466 0.29112
 C681 C 0.13050 0.50424 0.19345
 C682 C 0.11459 0.50257 0.17458
 C683 C 0.10020 0.46611 0.19045
 C684 C 0.11530 0.46949 0.21050
 N685 N 0.12976 0.48859 0.21187
 H686 H 0.10716 0.51637 0.25132
 H687 H 0.14597 0.47370 0.29214
 H688 H 0.12458 0.48117 0.33127
 H689 H 0.08642 0.52657 0.28999
 H690 H 0.14311 0.51842 0.19351
 H691 H 0.11537 0.51581 0.16067
 H692 H 0.08846 0.45109 0.19024
 H693 H 0.11524 0.45706 0.22521
 C694 C 0.18532 0.56742 0.23220
 C695 C 0.19501 0.43554 0.24596
 C696 C 0.09864 0.48357 0.17306
 C697 C 0.10426 0.50541 0.31435
 C698 C -0.18920 1.02611 0.27414
 H699 H -0.19109 1.01140 0.28600
 C700 C -0.19976 1.04560 0.28146
 H701 H -0.20990 1.04580 0.29887
 C702 C -0.17198 1.04470 0.23834
 H703 H -0.16052 1.04490 0.22214
 C704 C -0.18217 1.06430 0.24485
 H705 H -0.17871 1.07909 0.23323
 N706 N -0.17520 1.02620 0.25317
 C707 C -0.15994 0.96015 0.22358
 H708 H -0.14242 0.96500 0.21858
 C709 C -0.16921 0.93839 0.21767
 H710 H -0.15876 0.92667 0.20791
 C711 C -0.19445 0.96926 0.24339
 H712 H -0.20402 0.98127 0.25384
 C713 C -0.20444 0.94746 0.23791
 H714 H -0.22162 0.94273 0.24446
 Zn715 Zn -0.15622 1.00236 0.24687
 N716 N -0.17239 0.97492 0.23668
 C717 C -0.13657 0.97692 0.28451
 N718 N -0.14061 0.99797 0.27701
 C719 C -0.13202 1.01682 0.28974
 C720 C -0.11805 1.01501 0.31034
 C721 C -0.12254 0.97434 0.30500
 C722 C -0.14132 1.01349 0.19682
 C723 C -0.12558 1.01955 0.17742
 C724 C -0.09570 1.01818 0.20744
 C725 C -0.11204 1.01275 0.22634
 N726 N -0.13439 1.01058 0.22083
 H727 H -0.14350 0.96216 0.27404
 H728 H -0.13546 1.03334 0.28336
 H729 H -0.11120 1.03029 0.32002
 H730 H -0.11874 0.95752 0.31007
 H731 H -0.15916 1.01111 0.19275
 H732 H -0.13176 1.02120 0.15847
 H733 H -0.07814 1.02021 0.21279
 H734 H -0.10675 1.01013 0.24542
 C735 C -0.19149 0.93156 0.22556
 C736 C -0.19557 1.06518 0.26710
 C737 C -0.10222 1.02171 0.18238
 C738 C -0.11266 0.99359 0.31783
 C739 C 0.31958 0.52459 -0.22378
 H740 H 0.32791 0.51624 -0.20912
 C741 C 0.30649 0.54241 -0.21718
 H742 H 0.30536 0.54821 -0.19757
 C743 C 0.31225 0.52862 -0.26742
 H744 H 0.31523 0.52364 -0.28703
 C745 C 0.29886 0.54631 -0.26165
 H746 H 0.29182 0.55521 -0.27689
 N747 N 0.32305 0.51884 -0.24867
 C748 C 0.34542 0.45610 -0.28350
 H749 H 0.36334 0.46087 -0.28619
 C750 C 0.33697 0.43514 -0.28930
 H751 H 0.34817 0.42317 -0.29722
 C752 C 0.30907 0.46777 -0.27155
 H753 H 0.29848 0.48015 -0.26344
 C754 C 0.29881 0.44494 -0.27847
 H755 H 0.28090 0.44120 -0.27449
 Zn756 Zn 0.34521 0.49939 -0.25931
 N757 N 0.33097 0.47220 -0.27278
 C758 C 0.36744 0.47125 -0.22592
 N759 N 0.36369 0.49294 -0.23146
 C760 C 0.37267 0.51061 -0.21697
 C761 C 0.38563 0.50685 -0.19601
 C762 C 0.38069 0.46675 -0.20534
 C763 C 0.35836 0.50824 -0.31002
 C764 C 0.37182 0.51751 -0.32994
 C765 C 0.39470 0.53915 -0.29921
 C766 C 0.38071 0.52957 -0.27987
 N767 N 0.36329 0.51394 -0.28549
 H768 H 0.35990 0.45726 -0.23707
 H769 H 0.36909 0.52768 -0.22108
 H770 H 0.39211 0.52108 -0.18430
 H771 H 0.38315 0.44943 -0.20086
 H772 H 0.34417 0.49616 -0.31416
 H773 H 0.36821 0.51196 -0.34926
 H774 H 0.40892 0.55101 -0.29436
 H775 H 0.38421 0.53429 -0.26041
 C776 C 0.31237 0.42853 -0.28515
 C777 C 0.29665 0.55386 -0.23640
 C778 C 0.39057 0.53278 -0.32460
 C779 C 0.38967 0.48470 -0.18997
 C780 C 0.68260 -0.02947 -0.24632
 H781 H 0.69131 -0.01277 -0.24661
 C782 C 0.69442 -0.04727 -0.24246
 H783 H 0.71259 -0.04465 -0.24048
 C784 C 0.64739 -0.05204 -0.24444
 H785 H 0.62920 -0.05403 -0.24597
 C786 C 0.65949 -0.07176 -0.23854
 H787 H 0.64961 -0.08785 -0.23636
 N788 N 0.65841 -0.03253 -0.24872
 C789 C 0.63963 0.03165 -0.27797
 H790 H 0.62171 0.02785 -0.27409
 C791 C 0.64784 0.05354 -0.28409
 H792 H 0.63574 0.06602 -0.28590
 C793 C 0.67647 0.01948 -0.28076
 H794 H 0.68755 0.00609 -0.28028
 C795 C 0.68558 0.04136 -0.28679
 H796 H 0.70374 0.04429 -0.28925
 Zn797 Zn 0.63955 -0.00969 -0.25691
 N798 N 0.65413 0.01564 -0.27422
 C799 C 0.63244 0.02264 -0.21733
 N800 N 0.62650 0.00112 -0.22584
 C801 C 0.61161 -0.01296 -0.21228
 C802 C 0.60121 -0.00518 -0.19005
 C803 C 0.62259 0.03103 -0.19504
 C804 C 0.62348 -0.03241 -0.30089
 C805 C 0.60756 -0.03991 -0.31900
 C806 C 0.57802 -0.02881 -0.29006
 C807 C 0.59447 -0.02126 -0.27272
 N808 N 0.61676 -0.02273 -0.27858
 H809 H 0.64505 0.03333 -0.22759
 H810 H 0.60748 -0.03014 -0.21895
 H811 H 0.58925 -0.01646 -0.17950
 H812 H 0.62749 0.04811 -0.18837
 H813 H 0.64134 -0.03333 -0.30508
 H814 H 0.61331 -0.04608 -0.33736
 H815 H 0.56043 -0.02659 -0.28548
 H816 H 0.58937 -0.01313 -0.25521
 C817 C 0.67138 0.05928 -0.28632
 C818 C 0.68229 -0.06995 -0.23840
 C819 C 0.58455 -0.03735 -0.31399
 C820 C 0.60660 0.01708 -0.18143
 C821 C 0.03277 0.26793 0.84871
 H822 H 0.02790 0.28456 0.85409
 C823 C 0.05217 0.26571 0.83341
 H824 H 0.06245 0.28071 0.82741
 C825 C 0.02571 0.22805 0.85053
 H826 H 0.01529 0.21343 0.85722
 C827 C 0.04499 0.22507 0.83554
 H828 H 0.04941 0.20810 0.83090
 N829 N 0.02025 0.24919 0.85724
 C830 C -0.05215 0.24768 0.87098
 H831 H -0.05304 0.24670 0.89148
 C832 C -0.07198 0.24738 0.85737
 H833 H -0.08811 0.24603 0.86760
 C834 C -0.02999 0.25057 0.83290
 H835 H -0.01351 0.25199 0.82350
 C836 C -0.04951 0.25039 0.81846
 H837 H -0.04794 0.25194 0.79803
 Zn838 Zn -0.00546 0.25126 0.87891
 N839 N -0.03166 0.24964 0.85872
 C840 C -0.02027 0.29283 0.89866
 N841 N -0.00291 0.27923 0.89813
 C842 C 0.01637 0.28539 0.91095
 C843 C 0.01842 0.30546 0.92557
 C844 C -0.01894 0.31301 0.91299
 C845 C -0.02238 0.20787 0.89557
 C846 C -0.02337 0.18848 0.91023
 C847 C 0.00623 0.20654 0.93607
 C848 C 0.00669 0.22560 0.92087
 N849 N -0.00752 0.22601 0.90105
 H850 H -0.03524 0.28819 0.88790
 H851 H 0.03036 0.27486 0.90964
 H852 H 0.03379 0.30981 0.93586
 H853 H -0.03290 0.32360 0.91280
 H854 H -0.03301 0.20805 0.87926
 H855 H -0.03487 0.17405 0.90497
 H856 H 0.01767 0.20663 0.95176
 H857 H 0.01866 0.23989 0.92479
 C858 C -0.07083 0.24927 0.83081
 C859 C 0.05868 0.24404 0.82713
 C860 C -0.00884 0.18754 0.93073
 C861 C 0.00053 0.31955 0.92688
 C862 C 0.47686 0.27311 0.16187
 H863 H 0.48878 0.28767 0.16513
 C864 C 0.45567 0.27164 0.17448
 H865 H 0.45140 0.28515 0.18743
 C866 C 0.46734 0.23842 0.13999
 H867 H 0.47145 0.22580 0.12593
 C868 C 0.44609 0.23632 0.15204
 H869 H 0.43447 0.22176 0.14758
 N870 N 0.48232 0.25656 0.14503
 C871 C 0.55638 0.26419 0.13436
 H872 H 0.55728 0.26423 0.11381
 C873 C 0.57618 0.26378 0.14800
 H874 H 0.59226 0.26415 0.13773
 C875 C 0.53417 0.26280 0.17242
 H876 H 0.51771 0.26160 0.18182
 C877 C 0.55363 0.26224 0.18686
 H878 H 0.55187 0.26075 0.20728
 Zn879 Zn 0.51007 0.25962 0.12567
 N880 N 0.53587 0.26354 0.14660
 C881 C 0.52520 0.30073 0.09999
 N882 N 0.50845 0.28375 0.10304
 C883 C 0.48903 0.28321 0.08980
 C884 C 0.48561 0.30040 0.07311
 C885 C 0.52264 0.31810 0.08304
 C886 C 0.51352 0.21364 0.12022
 C887 C 0.51483 0.19279 0.10793
 C888 C 0.51663 0.21160 0.06763
 C889 C 0.51475 0.23215 0.08077
 N890 N 0.51302 0.23270 0.10659
 H891 H 0.54040 0.30103 0.11088
 H892 H 0.47599 0.26951 0.09258
 H893 H 0.46978 0.30010 0.06326
 H894 H 0.53580 0.33184 0.08114
 H895 H 0.51224 0.21464 0.14075
 H896 H 0.51409 0.17780 0.11934
 H897 H 0.51832 0.21152 0.04712
 H898 H 0.51478 0.24762 0.07034
 C899 C 0.57499 0.26224 0.17460
 C900 C 0.43987 0.25316 0.16932
 C901 C 0.51658 0.19149 0.08124
 C902 C 0.50251 0.31813 0.06967
 C903 C -0.02887 0.77491 0.66025
 H904 H -0.01574 0.78712 0.66719
 C905 C -0.04912 0.77256 0.67243
 H906 H -0.05195 0.78329 0.68890
 C907 C -0.04042 0.74731 0.62859
 H908 H -0.03736 0.73794 0.61119
 C909 C -0.06296 0.74443 0.64102
 H910 H -0.07509 0.73183 0.63285
 N911 N -0.02459 0.76151 0.63778
 C912 C 0.04965 0.77119 0.62651
 H913 H 0.05020 0.77426 0.60633
 C914 C 0.06984 0.76997 0.63928
 H915 H 0.08571 0.77298 0.62879
 C916 C 0.02821 0.76282 0.66415
 H917 H 0.01197 0.75905 0.67357
 C918 C 0.04807 0.76110 0.67763
 H919 H 0.04671 0.75624 0.69733
 Zn920 Zn 0.00307 0.76526 0.61829
 N921 N 0.02931 0.76769 0.63897
 C922 C 0.01738 0.80858 0.59695
 N923 N 0.00151 0.79058 0.59694
 C924 C -0.01657 0.78990 0.58147
 C925 C -0.01906 0.80755 0.56492
 C926 C 0.01572 0.82645 0.58040
 C927 C 0.00498 0.71940 0.61139
 C928 C 0.00671 0.69869 0.59890
 C929 C 0.00983 0.71796 0.55889
 C930 C 0.00780 0.73845 0.57224
 N931 N 0.00546 0.73872 0.59805
 H932 H 0.03131 0.80920 0.60980
 H933 H -0.02905 0.77549 0.58189
 H934 H -0.03348 0.80661 0.55264
 H935 H 0.02849 0.84065 0.58066
 H936 H 0.00306 0.72012 0.63188
 H937 H 0.00583 0.68352 0.61003
 H938 H 0.01213 0.71799 0.53842
 H939 H 0.00841 0.75408 0.56202
 C940 C 0.06933 0.76428 0.66509
 C941 C -0.06775 0.75664 0.66215
 C942 C 0.00952 0.69774 0.57232
 C943 C -0.00268 0.82604 0.56409
 C944 C 0.52833 0.76080 0.33977
 H945 H 0.52080 0.77667 0.34258
 C946 C 0.54809 0.75988 0.32471
 H947 H 0.55594 0.77520 0.31634
 C948 C 0.52767 0.72166 0.34795
 H949 H 0.51965 0.70675 0.35690
 C950 C 0.54723 0.71996 0.33304
 H951 H 0.55404 0.70366 0.33074
 N952 N 0.51876 0.74189 0.35132
 C953 C 0.44574 0.73994 0.36238
 H954 H 0.44396 0.73697 0.38255
 C955 C 0.42654 0.74146 0.34802
 H956 H 0.40999 0.73971 0.35732
 C957 C 0.46945 0.74589 0.32581
 H958 H 0.48624 0.74780 0.31724
 C959 C 0.45062 0.74739 0.31065
 H960 H 0.45308 0.75073 0.29059
 Zn961 Zn 0.49233 0.74283 0.37240
 N962 N 0.46673 0.74280 0.35131
 C963 C 0.47657 0.78155 0.39853
 N964 N 0.49488 0.76963 0.39355
 C965 C 0.51555 0.77700 0.40265
 C966 C 0.51849 0.79725 0.41683
 C967 C 0.47870 0.80171 0.41292
 C968 C 0.47715 0.69770 0.38410
 C969 C 0.47699 0.67729 0.39684
 C970 C 0.50188 0.69594 0.42781
 C971 C 0.50169 0.71601 0.41436
 N972 N 0.48958 0.71651 0.39280
 H973 H 0.46030 0.77572 0.39108
 H974 H 0.52991 0.76736 0.39844
 H975 H 0.53514 0.80301 0.42355
 H976 H 0.46403 0.81116 0.41615
 H977 H 0.46798 0.69830 0.36670
 H978 H 0.46729 0.66244 0.38933
 H979 H 0.51215 0.69570 0.44447
 H980 H 0.51175 0.73103 0.42074
 C981 C 0.42887 0.74575 0.32191
 C982 C 0.55800 0.73929 0.32156
 C983 C 0.48977 0.67610 0.41878
 C984 C 0.49992 0.80998 0.42199
 B985 B -0.00795 0.01535 1.02538
 B986 B -0.02567 0.00949 1.00098
 B987 B -0.00401 0.03019 0.99872
 B988 B 0.01859 0.02153 1.01359
 B989 B 0.01078 -0.00453 1.02501
 B990 B -0.01681 -0.01180 1.01758
 B991 B 0.00797 -0.00717 0.97313
 B992 B 0.02582 -0.00184 0.99736
 B993 B 0.00423 -0.02217 1.00022
 B994 B -0.01829 -0.01369 0.98519
 B995 B -0.01043 0.01269 0.97380
 B996 B 0.01710 0.01976 0.98139
 B997 B 0.49035 0.51464 0.52755
 B998 B 0.47665 0.50439 0.50145
 B999 B 0.50018 0.52239 0.49852
 B1000 B 0.51848 0.51658 0.52107
 B1001 B 0.50591 0.49445 0.53790
 B1002 B 0.47983 0.48722 0.52595
 B1003 B 0.51160 0.47984 0.48874
 B1004 B 0.52517 0.48980 0.51499
 B1005 B 0.50143 0.47202 0.51775
 B1006 B 0.48333 0.47791 0.49525
 B1007 B 0.49603 0.49986 0.47835
 B1008 B 0.52216 0.50723 0.49053
 B1009 B 0.51204 0.98507 0.52067
 B1010 B 0.53245 0.98967 0.49784
 B1011 B 0.50947 0.97163 0.49185
 B1012 B 0.48673 0.98178 0.50652
 B1013 B 0.49577 1.00687 0.52091
 B1014 B 0.52434 1.01147 0.51577
 B1015 B 0.50366 1.01161 0.47020
 B1016 B 0.48324 1.00641 0.49277
 B1017 B 0.50621 1.02484 0.49862
 B1018 B 0.52911 1.01462 0.48401
 B1019 B 0.52008 0.98979 0.46937
 B1020 B 0.49156 0.98494 0.47455
 B1021 B 0.00633 0.49667 1.02224
 B1022 B 0.02501 0.49997 0.99750
 B1023 B 0.00334 0.47947 0.99643
 B1024 B -0.01963 0.48961 1.01097
 B1025 B -0.01189 0.51672 1.02071
 B1026 B 0.01596 0.52283 1.01251
 B1027 B -0.00750 0.51488 0.96905
 B1028 B -0.02612 0.51151 0.99374
 B1029 B -0.00440 0.53201 0.99483
 B1030 B 0.01851 0.52186 0.98021
 B1031 B 0.01076 0.49477 0.97046
 B1032 B -0.01705 0.48859 0.97865
 B1033 B 0.02221 0.52166 0.48108
 B1034 B 0.03207 0.51885 0.51047
 B1035 B 0.01128 0.53601 0.50610
 B1036 B -0.00601 0.52417 0.48350
 B1037 B 0.00417 0.49915 0.47435
 B1038 B 0.02791 0.49592 0.49108
 B1039 B -0.00792 0.49684 0.52489
 B1040 B -0.01761 0.49959 0.49547
 B1041 B 0.00309 0.48243 0.49993
 B1042 B 0.02038 0.49424 0.52258
 B1043 B 0.01022 0.51922 0.53170
 B1044 B -0.01344 0.52256 0.51486
 B1045 B 0.52280 0.01969 -0.01734
 B1046 B 0.53146 0.01416 0.01183
 B1047 B 0.51045 0.03116 0.00867
 B1048 B 0.49447 0.02144 -0.01591
 B1049 B 0.50562 -0.00224 -0.02762
 B1050 B 0.52874 -0.00677 -0.01037
 B1051 B 0.49149 -0.01008 0.02153
 B1052 B 0.48297 -0.00443 -0.00776
 B1053 B 0.50392 -0.02156 -0.00432
 B1054 B 0.51998 -0.01174 0.02023
 B1055 B 0.50873 0.01194 0.03193
 B1056 B 0.48564 0.01642 0.01466
 B1057 B 0.47823 0.48567 -0.02911
 B1058 B 0.46782 0.48761 0.00080
 B1059 B 0.48760 0.46949 -0.00608
 B1060 B 0.50606 0.48145 -0.02799
 B1061 B 0.49756 0.50743 -0.03405
 B1062 B 0.47377 0.51129 -0.01609
 B1063 B 0.50814 0.50681 0.01632
 B1064 B 0.51857 0.50486 -0.01364
 B1065 B 0.49886 0.52297 -0.00668
 B1066 B 0.48030 0.51103 0.01518
 B1067 B 0.48879 0.48501 0.02123
 B1068 B 0.51267 0.48128 0.00332
 B1069 B -0.00836 0.99597 0.46658
 B1070 B -0.02239 0.99523 0.49491
 B1071 B -0.00359 0.97597 0.48728
 B1072 B 0.01831 0.98926 0.47060
 B1073 B 0.01299 1.01677 0.46823
 B1074 B -0.01251 1.02025 0.48293
 B1075 B 0.01632 1.00788 0.51885
 B1076 B 0.03050 1.00916 0.49065
 B1077 B 0.01167 1.02823 0.49788
 B1078 B -0.01017 1.01503 0.51456
 B1079 B -0.00477 0.98738 0.51684
 B1080 B 0.02064 0.98404 0.50189
 B1081 B 0.76529 0.23600 0.25197
 B1082 B 0.75658 0.22314 0.27914
 B1083 B 0.77441 0.24690 0.28014
 B1084 B 0.76736 0.26435 0.25736
 B1085 B 0.74462 0.25113 0.24223
 B1086 B 0.73810 0.22542 0.25578
 B1087 B 0.73214 0.25825 0.29204
 B1088 B 0.74105 0.27110 0.26478
 B1089 B 0.72304 0.24742 0.26385
 B1090 B 0.73004 0.22993 0.28664
 B1091 B 0.75289 0.24300 0.30166
 B1092 B 0.75945 0.26873 0.28838
 B1093 B 0.73250 0.76288 0.72979
 B1094 B 0.74310 0.77860 0.75466
 B1095 B 0.72345 0.75668 0.75956
 B1096 B 0.72837 0.73561 0.73866
 B1097 B 0.75153 0.74467 0.72055
 B1098 B 0.76043 0.77157 0.73027
 B1099 B 0.76476 0.74345 0.76966
 B1100 B 0.75406 0.72763 0.74511
 B1101 B 0.77372 0.74957 0.74000
 B1102 B 0.76882 0.77068 0.76093
 B1103 B 0.74572 0.76155 0.77905
 B1104 B 0.73682 0.73482 0.76934
 B1105 B 0.25612 0.25744 0.77394
 B1106 B 0.25299 0.26671 0.74442
 B1107 B 0.27111 0.24695 0.74917
 B1108 B 0.25994 0.22948 0.77204
 B1109 B 0.23435 0.23853 0.78098
 B1110 B 0.23009 0.26176 0.76380
 B1111 B 0.23271 0.22597 0.73055
 B1112 B 0.23585 0.21668 0.76009
 B1113 B 0.21772 0.23642 0.75530
 B1114 B 0.22892 0.25394 0.73248
 B1115 B 0.25445 0.24486 0.72355
 B1116 B 0.25874 0.22164 0.74072
 B1117 B 0.23874 0.74282 0.26031
 B1118 B 0.24221 0.73320 0.23018
 B1119 B 0.22482 0.75380 0.23627
 B1120 B 0.23603 0.77104 0.25969
 B1121 B 0.26087 0.76091 0.26748
 B1122 B 0.26471 0.73739 0.24913
 B1123 B 0.26450 0.77319 0.21758
 B1124 B 0.26096 0.78276 0.24769
 B1125 B 0.27835 0.76214 0.24160
 B1126 B 0.26712 0.74494 0.21813
 B1127 B 0.24227 0.75508 0.21030
 B1128 B 0.23846 0.77866 0.22865
 B1129 B 0.26076 0.72727 0.73473
 B1130 B 0.25130 0.71365 0.76111
 B1131 B 0.27036 0.73635 0.76338
 B1132 B 0.26451 0.75532 0.74175
 B1133 B 0.24130 0.74418 0.72599
 B1134 B 0.23306 0.71813 0.73803
 B1135 B 0.22903 0.74968 0.77613
 B1136 B 0.23883 0.76331 0.74975
 B1137 B 0.21948 0.74082 0.74736
 B1138 B 0.22524 0.72168 0.76914
 B1139 B 0.24871 0.73265 0.78474
 B1140 B 0.25680 0.75864 0.77299
 B1141 B 0.23777 0.26051 0.23106
 B1142 B 0.24858 0.27894 0.25330
 B1143 B 0.22913 0.25767 0.26144
 B1144 B 0.23395 0.23449 0.24353
 B1145 B 0.25687 0.24177 0.22421
 B1146 B 0.26571 0.26940 0.23016
 B1147 B 0.27051 0.24597 0.27334
 B1148 B 0.25980 0.22761 0.25095
 B1149 B 0.27923 0.24895 0.24297
 B1150 B 0.27437 0.27205 0.26086
 B1151 B 0.25148 0.26480 0.28013
 B1152 B 0.24262 0.23709 0.27419
 B1153 B 0.75612 0.75490 0.25966
 B1154 B 0.75211 0.76538 0.23085
 B1155 B 0.76936 0.74447 0.23365
 B1156 B 0.75841 0.72668 0.25637
 B1157 B 0.73388 0.73684 0.26729
 B1158 B 0.73000 0.76093 0.25146
 B1159 B 0.72933 0.72591 0.21663
 B1160 B 0.73321 0.71549 0.24554
 B1161 B 0.71602 0.73640 0.24276
 B1162 B 0.72695 0.75412 0.21999
 B1163 B 0.75154 0.74404 0.20911
 B1164 B 0.75544 0.71992 0.22497
 B1165 B 0.73423 0.22992 0.77757
 B1166 B 0.73750 0.21970 0.74769
 B1167 B 0.71964 0.23993 0.75363
 B1168 B 0.73087 0.25796 0.77629
 B1169 B 0.75613 0.24863 0.78388
 B1170 B 0.76025 0.22483 0.76609
 B1171 B 0.75842 0.25989 0.73352
 B1172 B 0.75527 0.26999 0.76352
 B1173 B 0.77310 0.24978 0.75757
 B1174 B 0.76192 0.23185 0.73479
 B1175 B 0.73653 0.24106 0.72723
 B1176 B 0.73245 0.26485 0.74507
 C1177 C 0.46799 1.04004 0.37593
 C1178 C 0.47097 1.02644 0.35409
 C1179 C 0.45629 1.02755 0.33392
 C1180 C 0.43843 1.04158 0.33585
 C1181 C 0.43634 1.05608 0.35710
 C1182 C 0.45111 1.05530 0.37737
 C1183 C 0.48110 1.03644 0.39862
 C1184 C 0.47691 1.04867 0.42112
 C1185 C 0.48691 1.04282 0.44358
 C1186 C 0.49950 1.02374 0.44406
 C1187 C 0.50523 1.01311 0.42079
 C1188 C 0.49590 1.01921 0.39811
 C1189 C 0.44829 1.06815 0.39980
 C1190 C 0.46110 1.06501 0.42127
 C1191 C 0.48729 1.01066 0.35368
 C1192 C 0.49952 1.00704 0.37539
 H1193 H 0.43544 1.08007 0.40112
 H1194 H 0.45769 1.07454 0.43855
 H1195 H 0.48982 1.00022 0.33686
 H1196 H 0.51110 0.99387 0.37472
 H1197 H 0.45750 1.01614 0.31764
 H1198 H 0.42225 1.06656 0.35862
 H1199 H 0.48248 1.05140 0.46096
 H1200 H 0.51541 0.99881 0.42038
 C1201 C -0.05207 0.52863 0.87472
 C1202 C -0.05481 0.50992 0.85798
 C1203 C -0.07111 0.50952 0.83946
 C1204 C -0.08440 0.52787 0.83694
 C1205 C -0.08010 0.54746 0.85238
 C1206 C -0.06452 0.54751 0.87209
 C1207 C -0.03716 0.52760 0.89647
 C1208 C -0.03624 0.54504 0.91497
 C1209 C -0.02457 0.54236 0.93744
 C1210 C -0.01435 0.52215 0.94147
 C1211 C -0.01368 0.50598 0.92146
 C1212 C -0.02552 0.50829 0.89936
 C1213 C -0.06209 0.56533 0.89015
 C1214 C -0.04837 0.56402 0.91137
 C1215 C -0.04200 0.49140 0.86082
 C1216 C -0.02741 0.49068 0.88110
 H1217 H -0.07158 0.58000 0.88843
 H1218 H -0.04775 0.57767 0.92543
 H1219 H -0.04383 0.47703 0.84772
 H1220 H -0.01838 0.47574 0.88318
 H1221 H -0.07364 0.49473 0.82702
 H1222 H -0.09029 0.56164 0.85067
 H1223 H -0.02522 0.55507 0.95236
 H1224 H -0.00575 0.49042 0.92380
 C1225 C 0.04611 -0.02922 0.87266
 C1226 C 0.05012 -0.01162 0.85530
 C1227 C 0.06306 -0.01509 0.83332
 C1228 C 0.07284 -0.03558 0.82905
 C1229 C 0.06847 -0.05333 0.84631
 C1230 C 0.05471 -0.05030 0.86812
 C1231 C 0.03384 -0.02498 0.89673
 C1232 C 0.02966 -0.04236 0.91433
 C1233 C 0.01898 -0.03763 0.93788
 C1234 C 0.01519 -0.01512 0.94485
 C1235 C 0.01845 0.00162 0.92609
 C1236 C 0.02745 -0.00321 0.90216
 C1237 C 0.04994 -0.06750 0.88593
 C1238 C 0.03732 -0.06370 0.90846
 C1239 C 0.04215 0.00955 0.86083
 C1240 C 0.03118 0.01377 0.88404
 H1241 H 0.05626 -0.08393 0.88260
 H1242 H 0.03434 -0.07730 0.92184
 H1243 H 0.04514 0.02320 0.84752
 H1244 H 0.02603 0.03059 0.88807
 H1245 H 0.06678 -0.00131 0.82027
 H1246 H 0.07613 -0.06911 0.84300
 H1247 H 0.01499 -0.05112 0.95114
 H1248 H 0.01468 0.01889 0.93014
 C1249 C 0.55423 0.44725 0.39592
 C1250 C 0.57796 0.45000 0.39377
 C1251 C 0.58836 0.45040 0.36972
 C1252 C 0.57527 0.44963 0.34782
 C1253 C 0.55158 0.44518 0.35003
 C1254 C 0.54091 0.44407 0.37425
 C1255 C 0.54317 0.45043 0.42100
 C1256 C 0.51947 0.44932 0.42317
 C1257 C 0.50921 0.45549 0.44647
 C1258 C 0.52257 0.46467 0.46671
 C1259 C 0.54632 0.46521 0.46381
 C1260 C 0.55661 0.45736 0.44166
 C1261 C 0.51719 0.44172 0.37730
 C1262 C 0.50665 0.44406 0.40140
 C1263 C 0.59083 0.45456 0.41553
 C1264 C 0.58030 0.45855 0.43907
 H1265 H 0.50667 0.43898 0.36083
 H1266 H 0.48834 0.44303 0.40273
 H1267 H 0.60915 0.45656 0.41406
 H1268 H 0.59079 0.46353 0.45514
 H1269 H 0.60663 0.45348 0.36799
 H1270 H 0.54146 0.44453 0.33315
 H1271 H 0.49094 0.45547 0.44778
 H1272 H 0.55734 0.47406 0.47719
 C1273 C 0.55897 0.51050 0.10996
 C1274 C 0.54831 0.51605 0.13310
 C1275 C 0.55893 0.51214 0.15600
 C1276 C 0.57997 0.50261 0.15569
 C1277 C 0.59036 0.49738 0.13219
 C1278 C 0.58000 0.50126 0.10938
 C1279 C 0.54743 0.51331 0.08590
 C1280 C 0.55760 0.50633 0.06311
 C1281 C 0.54565 0.50645 0.04074
 C1282 C 0.52359 0.51378 0.04042
 C1283 C 0.51410 0.52198 0.06338
 C1284 C 0.52586 0.52143 0.08628
 C1285 C 0.59003 0.49541 0.08599
 C1286 C 0.57898 0.49786 0.06322
 C1287 C 0.52706 0.52491 0.13277
 C1288 C 0.51603 0.52754 0.10979
 H1289 H 0.60630 0.48838 0.08532
 H1290 H 0.58698 0.49253 0.04560
 H1291 H 0.51865 0.52940 0.15046
 H1292 H 0.49943 0.53387 0.11049
 H1293 H 0.55084 0.51642 0.17396
 H1294 H 0.60623 0.48958 0.13162
 H1295 H 0.55311 0.49893 0.02399
 H1296 H 0.49701 0.52715 0.06381
 C1297 C 0.06751 1.00820 0.61307
 C1298 C 0.07600 1.02854 0.62481
 C1299 C 0.09055 1.02771 0.64548
 C1300 C 0.09655 1.00666 0.65396
 C1301 C 0.08729 0.98659 0.64224
 C1302 C 0.07298 0.98721 0.62181
 C1303 C 0.05296 1.00876 0.59089
 C1304 C 0.04527 0.98834 0.57901
 C1305 C 0.03287 0.98875 0.55712
 C1306 C 0.02807 1.00935 0.54623
 C1307 C 0.03419 1.02976 0.55969
 C1308 C 0.04739 1.02957 0.58167
 C1309 C 0.06429 0.96714 0.60979
 C1310 C 0.05067 0.96769 0.58867
 C1311 C 0.06990 1.04913 0.61537
 C1312 C 0.05579 1.04963 0.59425
 H1313 H 0.06834 0.95088 0.61651
 H1314 H 0.04462 0.95182 0.57956
 H1315 H 0.07622 1.06500 0.62424
 H1316 H 0.05177 1.06586 0.58746
 H1317 H 0.09748 1.04326 0.65459
 H1318 H 0.09121 0.97032 0.64912
 H1319 H 0.02746 0.97257 0.54837
 H1320 H 0.02980 1.04569 0.55239
 C1321 C -0.06660 0.48397 0.61569
 C1322 C -0.08868 0.49075 0.61467
 C1323 C -0.10156 0.49248 0.63706
 C1324 C -0.09261 0.48784 0.66062
 C1325 C -0.07050 0.48071 0.66141
 C1326 C -0.05738 0.47874 0.63885
 C1327 C -0.05247 0.48372 0.59221
 C1328 C -0.02999 0.47799 0.59300
 C1329 C -0.01610 0.47973 0.57071
 C1330 C -0.02444 0.48811 0.54818
 C1331 C -0.04716 0.49371 0.54845
 C1332 C -0.06126 0.49097 0.56977
 C1333 C -0.03506 0.47234 0.63893
 C1334 C -0.02164 0.47189 0.61641
 C1335 C -0.09721 0.49663 0.59141
 C1336 C -0.08365 0.49690 0.56932
 H1337 H -0.02773 0.46809 0.65663
 H1338 H -0.00439 0.46738 0.61749
 H1339 H -0.11425 0.50177 0.59041
 H1340 H -0.09058 0.50230 0.55185
 H1341 H -0.11827 0.49849 0.63622
 H1342 H -0.06349 0.47697 0.67947
 H1343 H 0.00147 0.47614 0.57142
 H1344 H -0.05385 0.50207 0.53272
 C1345 C 0.43609 -0.02375 0.11280
 C1346 C 0.41389 -0.01722 0.11268
 C1347 C 0.40256 -0.01312 0.13579
 C1348 C 0.41330 -0.01524 0.15905
 C1349 C 0.43531 -0.02269 0.15883
 C1350 C 0.44685 -0.02676 0.13572
 C1351 C 0.44889 -0.02573 0.08852
 C1352 C 0.47168 -0.03049 0.08860
 C1353 C 0.48465 -0.02911 0.06579
 C1354 C 0.47523 -0.02191 0.04329
 C1355 C 0.45183 -0.01891 0.04355
 C1356 C 0.43869 -0.02071 0.06592
 C1357 C 0.46928 -0.03281 0.13502
 C1358 C 0.48148 -0.03463 0.11187
 C1359 C 0.40382 -0.01376 0.08944
 C1360 C 0.41604 -0.01542 0.06643
 H1361 H 0.47775 -0.03538 0.15256
 H1362 H 0.49900 -0.03843 0.11230
 H1363 H 0.38665 -0.00889 0.08908
 H1364 H 0.40796 -0.01166 0.04899
 H1365 H 0.38584 -0.00710 0.13557
 H1366 H 0.44364 -0.02477 0.17657
 H1367 H 0.50259 -0.03127 0.06628
 H1368 H 0.44407 -0.01238 0.02737
 C1369 C 0.37339 0.45143 0.01873
 C1370 C 0.35879 0.46302 0.03474
 C1371 C 0.33612 0.45417 0.03790
 C1372 C 0.32849 0.43373 0.02547
 C1373 C 0.34346 0.42239 0.00967
 C1374 C 0.36582 0.43118 0.00609
 C1375 C 0.39701 0.46073 0.01479
 C1376 C 0.41115 0.44933 -0.00180
 C1377 C 0.43330 0.45822 -0.00592
 C1378 C 0.44206 0.47820 0.00673
 C1379 C 0.42763 0.48954 0.02345
 C1380 C 0.40493 0.48089 0.02741
 C1381 C 0.38063 0.42019 -0.01018
 C1382 C 0.40295 0.42919 -0.01415
 C1383 C 0.36720 0.48321 0.04704
 C1384 C 0.38990 0.49193 0.04353
 H1385 H 0.37489 0.40460 -0.02004
 H1386 H 0.41389 0.42030 -0.02698
 H1387 H 0.35616 0.49234 0.05949
 H1388 H 0.39567 0.50751 0.05338
 H1389 H 0.32451 0.46297 0.04998
 H1390 H 0.33749 0.40695 -0.00038
 H1391 H 0.44373 0.44929 -0.01920
 H1392 H 0.43388 0.50506 0.03311
 C1393 C -0.11957 0.96895 0.50722
 C1394 C -0.13409 0.97256 0.48736
 C1395 C -0.15649 0.96280 0.48852
 C1396 C -0.16409 0.94921 0.50912
 C1397 C -0.14961 0.94665 0.52939
 C1398 C -0.12728 0.95635 0.52847
 C1399 C -0.09555 0.97748 0.50514
 C1400 C -0.08089 0.97300 0.52449
 C1401 C -0.05781 0.97972 0.52162
 C1402 C -0.04911 0.98998 0.49906
 C1403 C -0.06441 0.99608 0.48090
 C1404 C -0.08755 0.98925 0.48345
 C1405 C -0.11223 0.95284 0.54783
 C1406 C -0.08940 0.96106 0.54588
 C1407 C -0.12561 0.98497 0.46623
 C1408 C -0.10272 0.99323 0.46434
 H1409 H -0.11803 0.94320 0.56433
 H1410 H -0.07820 0.95754 0.56094
 H1411 H -0.13663 0.98789 0.45079
 H1412 H -0.09674 1.00226 0.44748
 H1413 H -0.16754 0.96458 0.47276
 H1414 H -0.15551 0.93630 0.54533
 H1415 H -0.04657 0.97576 0.53643
 H1416 H -0.05834 1.00560 0.46444
 C1417 C -0.11905 0.03478 1.00097
 C1418 C -0.13152 0.03535 1.02391
 C1419 C -0.15205 0.04552 1.02476
 C1420 C -0.16027 0.05531 1.00284
 C1421 C -0.14773 0.05341 0.97972
 C1422 C -0.12712 0.04351 0.97878
 C1423 C -0.09668 0.02568 1.00038
 C1424 C -0.08385 0.02603 0.97765
 C1425 C -0.06186 0.01928 0.97766
 C1426 C -0.05214 0.01322 1.00051
 C1427 C -0.06620 0.01056 1.02244
 C1428 C -0.08824 0.01753 1.02273
 C1429 C -0.11413 0.04272 0.95612
 C1430 C -0.09282 0.03417 0.95558
 C1431 C -0.12283 0.02643 1.04577
 C1432 C -0.10163 0.01750 1.04514
 H1433 H -0.12024 0.04929 0.93879
 H1434 H -0.08307 0.03444 0.93788
 H1435 H -0.13231 0.02668 1.06364
 H1436 H -0.09538 0.01120 1.06253
 H1437 H -0.16058 0.04698 1.04306
 H1438 H -0.15389 0.05942 0.96218
 H1439 H -0.05191 0.02033 0.96012
 H1440 H -0.05970 0.00411 1.03960
 C1441 C 0.38751 0.53593 0.48329
 C1442 C 0.38508 0.55045 0.46307
 C1443 C 0.36473 0.56061 0.46097
 C1444 C 0.34703 0.55666 0.47918
 C1445 C 0.34961 0.54156 0.49897
 C1446 C 0.36983 0.53120 0.50114
 C1447 C 0.40930 0.52618 0.48638
 C1448 C 0.41191 0.51212 0.50695
 C1449 C 0.43302 0.50395 0.51063
 C1450 C 0.45179 0.51052 0.49453
 C1451 C 0.44839 0.52353 0.47314
 C1452 C 0.42730 0.53168 0.46918
 C1453 C 0.37299 0.51676 0.52128
 C1454 C 0.39365 0.50732 0.52407
 C1455 C 0.40329 0.55505 0.44580
 C1456 C 0.42406 0.54585 0.44883
 H1457 H 0.35949 0.51299 0.53520
 H1458 H 0.39550 0.49658 0.54011
 H1459 H 0.40162 0.56620 0.43009
 H1460 H 0.43782 0.55021 0.43540
 H1461 H 0.36285 0.57196 0.44549
 H1462 H 0.33632 0.53865 0.51333
 H1463 H 0.43504 0.49364 0.52697
 H1464 H 0.46217 0.52781 0.45985
 C1465 C 0.12639 0.55654 0.52360
 C1466 C 0.13219 0.57901 0.51658
 C1467 C 0.15486 0.58735 0.51586
 C1468 C 0.17207 0.57308 0.52011
 C1469 C 0.16608 0.55078 0.52823
 C1470 C 0.14307 0.54244 0.53012
 C1471 C 0.10252 0.54730 0.52259
 C1472 C 0.09637 0.52481 0.52934
 C1473 C 0.07355 0.51598 0.52723
 C1474 C 0.05740 0.52920 0.51696
 C1475 C 0.06469 0.55133 0.50924
 C1476 C 0.08659 0.56077 0.51314
 C1477 C 0.13632 0.52007 0.53718
 C1478 C 0.11337 0.51150 0.53709
 C1479 C 0.11537 0.59238 0.50884
 C1480 C 0.09298 0.58326 0.50667
 H1481 H 0.14892 0.50897 0.54243
 H1482 H 0.10901 0.49410 0.54235
 H1483 H 0.11971 0.60973 0.50335
 H1484 H 0.08060 0.59383 0.49964
 H1485 H 0.15920 0.60474 0.51045
 H1486 H 0.17919 0.53968 0.53172
 H1487 H 0.06870 0.49861 0.53229
 H1488 H 0.05386 0.56111 0.49864
 C1489 C 0.62370 0.05181 0.03613
 C1490 C 0.63018 0.07442 0.03006
 C1491 C 0.65261 0.08300 0.03308
 C1492 C 0.66881 0.06902 0.04120
 C1493 C 0.66217 0.04638 0.04738
 C1494 C 0.63943 0.03772 0.04512
 C1495 C 0.60024 0.04247 0.03181
 C1496 C 0.59355 0.01982 0.03749
 C1497 C 0.57124 0.01092 0.03243
 C1498 C 0.55609 0.02437 0.02079
 C1499 C 0.56375 0.04685 0.01472
 C1500 C 0.58528 0.05613 0.02081
 C1501 C 0.63215 0.01518 0.05092
 C1502 C 0.60957 0.00644 0.04737
 C1503 C 0.61433 0.08779 0.02006
 C1504 C 0.59229 0.07871 0.01524
 H1505 H 0.64405 0.00413 0.05800
 H1506 H 0.60475 -0.01107 0.05186
 H1507 H 0.61918 0.10524 0.01528
 H1508 H 0.58068 0.08941 0.00690
 H1509 H 0.65778 0.10027 0.02776
 H1510 H 0.67471 0.03555 0.05348
 H1511 H 0.56604 -0.00658 0.03661
 H1512 H 0.55347 0.05713 0.00396
 C1513 C 0.62026 0.95087 0.48933
 C1514 C 0.62033 0.92745 0.49232
 C1515 C 0.64044 0.91725 0.48838
 C1516 C 0.66097 0.93033 0.48338
 C1517 C 0.66060 0.95385 0.47979
 C1518 C 0.64009 0.96416 0.48242
 C1519 C 0.59895 0.96160 0.49360
 C1520 C 0.59818 0.98476 0.48923
 C1521 C 0.57721 0.99435 0.49180
 C1522 C 0.55737 0.98089 0.49933
 C1523 C 0.55945 0.95827 0.50545
 C1524 C 0.57963 0.94831 0.50168
 C1525 C 0.63893 0.98748 0.47881
 C1526 C 0.61828 0.99753 0.48181
 C1527 C 0.60041 0.91465 0.49989
 C1528 C 0.58044 0.92498 0.50488
 H1529 H 0.65405 0.99800 0.47340
 H1530 H 0.61810 1.01544 0.47841
 H1531 H 0.60035 0.89657 0.50237
 H1532 H 0.56540 0.91457 0.51086
 H1533 H 0.64013 0.89906 0.49003
 H1534 H 0.67620 0.96418 0.47584
 H1535 H 0.57631 1.01196 0.48730
 H1536 H 0.54507 0.94746 0.51115
 C1537 C 0.11628 0.46999 0.99989
 C1538 C 0.12500 0.46495 1.02338
 C1539 C 0.14479 0.45375 1.02384
 C1540 C 0.15620 0.44798 1.00104
 C1541 C 0.14757 0.45396 0.97766
 C1542 C 0.12743 0.46465 0.97697
 C1543 C 0.09461 0.48030 0.99929
 C1544 C 0.08521 0.48426 0.97582
 C1545 C 0.06367 0.49220 0.97541
 C1546 C 0.05124 0.49552 0.99829
 C1547 C 0.06217 0.49397 1.02149
 C1548 C 0.08337 0.48543 1.02219
 C1549 C 0.11791 0.46963 0.95382
 C1550 C 0.09709 0.47918 0.95325
 C1551 C 0.11348 0.47071 1.04596
 C1552 C 0.09310 0.48100 1.04538
 H1553 H 0.12637 0.46565 0.93599
 H1554 H 0.09003 0.48220 0.93501
 H1555 H 0.12014 0.46700 1.06422
 H1556 H 0.08454 0.48485 1.06320
 H1557 H 0.15078 0.44889 1.04199
 H1558 H 0.15632 0.45008 0.95998
 H1559 H 0.05609 0.49437 0.95723
 H1560 H 0.05425 0.49885 1.03914
 C1561 C -0.00287 0.38624 0.46829
 C1562 C -0.01582 0.37948 0.44709
 C1563 C -0.01586 0.35727 0.43777
 C1564 C -0.00201 0.34197 0.44833
 C1565 C 0.01052 0.34886 0.47009
 C1566 C 0.00996 0.37100 0.48028
 C1567 C -0.00216 0.40997 0.47749
 C1568 C 0.01053 0.41697 0.49886
 C1569 C 0.01139 0.43986 0.50712
 C1570 C 0.00042 0.45572 0.49337
 C1571 C -0.01144 0.44812 0.47140
 C1572 C -0.01352 0.42539 0.46403
 C1573 C 0.02242 0.37851 0.50172
 C1574 C 0.02250 0.40100 0.51100
 C1575 C -0.02788 0.39527 0.43495
 C1576 C -0.02648 0.41795 0.44307
 H1577 H 0.03232 0.36694 0.51131
 H1578 H 0.03242 0.40605 0.52748
 H1579 H -0.03793 0.39022 0.41857
 H1580 H -0.03554 0.42977 0.43276
 H1581 H -0.02632 0.35212 0.42174
 H1582 H 0.02128 0.33738 0.47852
 H1583 H 0.02115 0.44538 0.52356
 H1584 H -0.01938 0.45989 0.45986
 C1585 C 0.50008 -0.11643 -0.04037
 C1586 C 0.50045 -0.12083 -0.06669
 C1587 C 0.50048 -0.14311 -0.07575
 C1588 C 0.50004 -0.16108 -0.05881
 C1589 C 0.49915 -0.15659 -0.03239
 C1590 C 0.49940 -0.13412 -0.02304
 C1591 C 0.50066 -0.09282 -0.03086
 C1592 C 0.50075 -0.08811 -0.00459
 C1593 C 0.50177 -0.06540 0.00420
 C1594 C 0.50256 -0.04763 -0.01325
 C1595 C 0.50222 -0.05304 -0.03954
 C1596 C 0.50135 -0.07537 -0.04837
 C1597 C 0.49925 -0.12885 0.00316
 C1598 C 0.49995 -0.10626 0.01222
 C1599 C 0.50094 -0.10285 -0.08355
 C1600 C 0.50133 -0.08048 -0.07453
 H1601 H 0.49873 -0.14230 0.01677
 H1602 H 0.49995 -0.10298 0.03253
 H1603 H 0.50113 -0.10610 -0.10388
 H1604 H 0.50180 -0.06704 -0.08816
 H1605 H 0.50078 -0.14655 -0.09607
 H1606 H 0.49879 -0.17045 -0.01931
 H1607 H 0.50196 -0.06159 0.02442
 H1608 H 0.50266 -0.03996 -0.05355
 C1609 C 0.00914 -0.11537 1.03361
 C1610 C -0.00847 -0.13194 1.02808
 C1611 C -0.00926 -0.15297 1.04008
 C1612 C 0.00742 -0.15735 1.05756
 C1613 C 0.02541 -0.14073 1.06198
 C1614 C 0.02619 -0.11968 1.05039
 C1615 C 0.00920 -0.09270 1.02258
 C1616 C 0.02597 -0.07582 1.02960
 C1617 C 0.02479 -0.05383 1.02123
 C1618 C 0.00748 -0.04840 1.00505
 C1619 C -0.00879 -0.06586 0.99737
 C1620 C -0.00817 -0.08799 1.00640
 C1621 C 0.04330 -0.10257 1.05597
 C1622 C 0.04311 -0.08095 1.04587
 C1623 C -0.02528 -0.12684 1.01129
 C1624 C -0.02509 -0.10529 1.00058
 H1625 H 0.05660 -0.10572 1.06880
 H1626 H 0.05626 -0.06803 1.05122
 H1627 H -0.03894 -0.13948 1.00672
 H1628 H -0.03861 -0.10200 0.98812
 H1629 H -0.02328 -0.16551 1.03659
 H1630 H 0.03863 -0.14401 1.07488
 H1631 H 0.03700 -0.04075 1.02836
 H1632 H -0.02255 -0.06205 0.98550
 C1633 C 0.50192 0.38103 0.56017
 C1634 C 0.50931 0.37902 0.58504
 C1635 C 0.50973 0.35749 0.59526
 C1636 C 0.50231 0.33788 0.58113
 C1637 C 0.49509 0.34023 0.55603
 C1638 C 0.49499 0.36179 0.54543
 C1639 C 0.50135 0.40375 0.54944
 C1640 C 0.49431 0.40590 0.52443
 C1641 C 0.49408 0.42764 0.51428
 C1642 C 0.50057 0.44711 0.52917
 C1643 C 0.50713 0.44440 0.55445
 C1644 C 0.50786 0.42289 0.56449
 C1645 C 0.48794 0.36458 0.52048
 C1646 C 0.48773 0.38623 0.51012
 C1647 C 0.51600 0.39862 0.59935
 C1648 C 0.51518 0.42018 0.58929
 H1649 H 0.48258 0.34991 0.50882
 H1650 H 0.48226 0.38756 0.49080
 H1651 H 0.52175 0.39728 0.61857
 H1652 H 0.52037 0.43486 0.60102
 H1653 H 0.51591 0.35606 0.61428
 H1654 H 0.48914 0.32541 0.54493
 H1655 H 0.48902 0.42936 0.49485
 H1656 H 0.51238 0.45898 0.56629
 C1657 C 0.50537 1.11862 0.53760
 C1658 C 0.52575 1.13024 0.54529
 C1659 C 0.52518 1.15102 0.55862
 C1660 C 0.50438 1.16023 0.56418
 C1661 C 0.48422 1.14863 0.55535
 C1662 C 0.48458 1.12772 0.54242
 C1663 C 0.50571 1.09608 0.52513
 C1664 C 0.48524 1.08397 0.51877
 C1665 C 0.48548 1.06189 0.50883
 C1666 C 0.50594 1.05164 0.50488
 C1667 C 0.52646 1.06471 0.51023
 C1668 C 0.52640 1.08671 0.52074
 C1669 C 0.46448 1.11543 0.53484
 C1670 C 0.46479 1.09387 0.52334
 C1671 C 0.54622 1.12051 0.54012
 C1672 C 0.54655 1.09918 0.52795
 H1673 H 0.44831 1.12229 0.53837
 H1674 H 0.44885 1.08472 0.51837
 H1675 H 0.56211 1.12931 0.54583
 H1676 H 0.56268 1.09218 0.52469
 H1677 H 0.54083 1.15952 0.56545
 H1678 H 0.46814 1.15567 0.55888
 H1679 H 0.46954 1.05288 0.50460
 H1680 H 0.54249 1.05739 0.50752
 C1681 C -0.00625 0.62702 1.02625
 C1682 C 0.01447 0.63980 1.03000
 C1683 C 0.01471 0.66066 1.04316
 C1684 C -0.00562 0.66897 1.05243
 C1685 C -0.02635 0.65621 1.04754
 C1686 C -0.02672 0.63510 1.03481
 C1687 C -0.00639 0.60425 1.01428
 C1688 C -0.02692 0.59081 1.01211
 C1689 C -0.02667 0.56829 1.00332
 C1690 C -0.00608 0.55899 0.99701
 C1691 C 0.01414 0.57352 0.99736
 C1692 C 0.01414 0.59589 1.00652
 C1693 C -0.04709 0.62157 1.03116
 C1694 C -0.04717 0.59977 1.02012
 C1695 C 0.03464 0.63113 1.02123
 C1696 C 0.03446 0.60959 1.00958
 H1697 H -0.06304 0.62763 1.03755
 H1698 H -0.06318 0.58962 1.01843
 H1699 H 0.05074 0.64088 1.02384
 H1700 H 0.05045 0.60334 1.00365
 H1701 H 0.03084 0.66991 1.04701
 H1702 H -0.04219 0.66248 1.05395
 H1703 H -0.04246 0.55803 1.00260
 H1704 H 0.03024 0.56701 0.99244
 C1705 C 0.50294 0.61818 -0.03533
 C1706 C 0.48941 0.63318 -0.02230
 C1707 C 0.48731 0.65464 -0.03251
 C1708 C 0.49831 0.66064 -0.05578
 C1709 C 0.51233 0.64562 -0.06801
 C1710 C 0.51462 0.62439 -0.05801
 C1711 C 0.50402 0.59510 -0.02583
 C1712 C 0.51650 0.57993 -0.03985
 C1713 C 0.51576 0.55754 -0.03243
 C1714 C 0.50306 0.54983 -0.01073
 C1715 C 0.49131 0.56557 0.00383
 C1716 C 0.49154 0.58824 -0.00387
 C1717 C 0.52775 0.60896 -0.07081
 C1718 C 0.52863 0.58705 -0.06191
 C1719 C 0.47771 0.62603 0.00011
 C1720 C 0.47876 0.60398 0.00915
 H1721 H 0.53693 0.61365 -0.08823
 H1722 H 0.53845 0.57541 -0.07273
 H1723 H 0.46727 0.63741 0.01045
 H1724 H 0.46906 0.59905 0.02615
 H1725 H 0.47649 0.66621 -0.02305
 H1726 H 0.52106 0.65033 -0.08571
 H1727 H 0.52436 0.54589 -0.04459
 H1728 H 0.48106 0.55997 0.02021
 C1729 C 0.01819 1.12466 0.47765
 C1730 C -0.00073 1.13664 0.48319
 C1731 C -0.00243 1.15762 0.47169
 C1732 C 0.01489 1.16708 0.45484
 C1733 C 0.03462 1.15518 0.45162
 C1734 C 0.03591 1.13382 0.46198
 C1735 C 0.01887 1.10150 0.48720
 C1736 C 0.03652 1.08866 0.47903
 C1737 C 0.03521 1.06562 0.48444
 C1738 C 0.01715 1.05533 0.49933
 C1739 C 0.00061 1.06918 0.50935
 C1740 C 0.00093 1.09201 0.50248
 C1741 C 0.05425 1.12101 0.45592
 C1742 C 0.05434 1.09866 0.46390
 C1743 C -0.01807 1.12689 0.49926
 C1744 C -0.01714 1.10508 0.50894
 H1745 H 0.06814 1.12793 0.44389
 H1746 H 0.06823 1.08896 0.45773
 H1747 H -0.03275 1.13598 0.50396
 H1748 H -0.03116 1.09804 0.52071
 H1749 H -0.01792 1.16558 0.47517
 H1750 H 0.04926 1.16201 0.44086
 H1751 H 0.04722 1.05554 0.47481
 H1752 H -0.01377 1.06172 0.52025
 C1753 C 0.79455 0.69386 0.85334
 C1754 C 0.78978 0.70174 0.87811
 C1755 C 0.78875 0.68659 0.89813
 C1756 C 0.79143 0.66358 0.89328
 C1757 C 0.79747 0.65614 0.86864
 C1758 C 0.79908 0.67128 0.84851
 C1759 C 0.79245 0.70885 0.83182
 C1760 C 0.79586 0.70062 0.80694
 C1761 C 0.79078 0.71385 0.78653
 C1762 C 0.77985 0.73378 0.79096
 C1763 C 0.77899 0.74293 0.81591
 C1764 C 0.78506 0.73043 0.83644
 C1765 C 0.80357 0.66399 0.82344
 C1766 C 0.80226 0.67853 0.80298
 C1767 C 0.78434 0.72413 0.88209
 C1768 C 0.78188 0.73823 0.86155
 H1769 H 0.80729 0.64668 0.81950
 H1770 H 0.80492 0.67199 0.78385
 H1771 H 0.78078 0.73042 0.90114
 H1772 H 0.77642 0.75497 0.86531
 H1773 H 0.78381 0.69224 0.91705
 H1774 H 0.79960 0.63839 0.86498
 H1775 H 0.79365 0.70759 0.76742
 H1776 H 0.77185 0.75889 0.81975
 C1777 C 0.29952 0.20100 0.36074
 C1778 C 0.30564 0.17879 0.35702
 C1779 C 0.30406 0.16415 0.37762
 C1780 C 0.29673 0.17180 0.40168
 C1781 C 0.29226 0.19450 0.40551
 C1782 C 0.29311 0.20908 0.38495
 C1783 C 0.29762 0.21529 0.33855
 C1784 C 0.28865 0.23629 0.34189
 C1785 C 0.28282 0.24784 0.32050
 C1786 C 0.28551 0.23827 0.29593
 C1787 C 0.29789 0.21910 0.29295
 C1788 C 0.30282 0.20681 0.31419
 C1789 C 0.28606 0.23101 0.38776
 C1790 C 0.28370 0.24435 0.36653
 C1791 C 0.31183 0.17130 0.33250
 C1792 C 0.31075 0.18522 0.31145
 H1793 H 0.28122 0.23746 0.40635
 H1794 H 0.27700 0.26066 0.36934
 H1795 H 0.31679 0.15428 0.32941
 H1796 H 0.31481 0.17849 0.29273
 H1797 H 0.30745 0.14659 0.37478
 H1798 H 0.28633 0.20021 0.42403
 H1799 H 0.27438 0.26321 0.32331
 H1800 H 0.30166 0.21240 0.27420
 C1801 C 0.70860 0.30904 0.38225
 C1802 C 0.71349 0.30010 0.40571
 C1803 C 0.71618 0.31463 0.42697
 C1804 C 0.71392 0.33799 0.42494
 C1805 C 0.70724 0.34628 0.40162
 C1806 C 0.70513 0.33200 0.38008
 C1807 C 0.70900 0.29452 0.35919
 C1808 C 0.70646 0.30400 0.33541
 C1809 C 0.71046 0.29112 0.31337
 C1810 C 0.71779 0.26921 0.31489
 C1811 C 0.71722 0.25909 0.33899
 C1812 C 0.71371 0.27190 0.36117
 C1813 C 0.70095 0.34049 0.35611
 C1814 C 0.70172 0.32674 0.33410
 C1815 C 0.71693 0.27704 0.40714
 C1816 C 0.71686 0.26312 0.38524
 H1817 H 0.69809 0.35815 0.35421
 H1818 H 0.69955 0.33421 0.31584
 H1819 H 0.72047 0.26987 0.42519
 H1820 H 0.72045 0.24564 0.38702
 H1821 H 0.72150 0.30791 0.44457
 H1822 H 0.70470 0.36402 0.39989
 H1823 H 0.70880 0.29875 0.29530
 H1824 H 0.72189 0.24196 0.34080
 C1825 C 0.20971 0.80463 0.86429
 C1826 C 0.21676 0.79742 0.88774
 C1827 C 0.22011 0.81318 0.90776
 C1828 C 0.21618 0.83607 0.90470
 C1829 C 0.20775 0.84265 0.88139
 C1830 C 0.20497 0.82711 0.86096
 C1831 C 0.20893 0.78874 0.84233
 C1832 C 0.20389 0.79641 0.81831
 C1833 C 0.20655 0.78223 0.79693
 C1834 C 0.21543 0.76109 0.79930
 C1835 C 0.21722 0.75262 0.82397
 C1836 C 0.21485 0.76663 0.84542
 C1837 C 0.19855 0.83380 0.83694
 C1838 C 0.19808 0.81872 0.81594
 C1839 C 0.22143 0.77480 0.89039
 C1840 C 0.22033 0.75960 0.86960
 H1841 H 0.19471 0.85107 0.83411
 H1842 H 0.19405 0.82484 0.79752
 H1843 H 0.22666 0.76898 0.90849
 H1844 H 0.22487 0.74253 0.87222
 H1845 H 0.22697 0.80771 0.92520
 H1846 H 0.20400 0.85997 0.87880
 H1847 H 0.20301 0.78838 0.77848
 H1848 H 0.22280 0.73594 0.82658
 C1849 C 0.27646 0.82993 0.12801
 C1850 C 0.26982 0.85203 0.13016
 C1851 C 0.26716 0.86420 0.10823
 C1852 C 0.27024 0.85439 0.08377
 C1853 C 0.27805 0.83241 0.08211
 C1854 C 0.28094 0.82007 0.10418
 C1855 C 0.27741 0.81646 0.15112
 C1856 C 0.28289 0.79390 0.14920
 C1857 C 0.28150 0.78054 0.17118
 C1858 C 0.27367 0.78944 0.19465
 C1859 C 0.26860 0.81232 0.19567
 C1860 C 0.27097 0.82591 0.17448
 C1861 C 0.28724 0.79770 0.10296
 C1862 C 0.28825 0.78488 0.12505
 C1863 C 0.26499 0.86134 0.15421
 C1864 C 0.26534 0.84841 0.17600
 H1865 H 0.29088 0.78983 0.08471
 H1866 H 0.29257 0.76755 0.12311
 H1867 H 0.26002 0.87846 0.15611
 H1868 H 0.26058 0.85589 0.19413
 H1869 H 0.26271 0.88145 0.11052
 H1870 H 0.28042 0.82411 0.06384
 H1871 H 0.28474 0.76287 0.16955
 H1872 H 0.26077 0.81946 0.21236
 C1873 C 0.77487 0.31973 0.64596
 C1874 C 0.77956 0.31069 0.62180
 C1875 C 0.77826 0.32437 0.60036
 C1876 C 0.77250 0.34713 0.60309
 C1877 C 0.77016 0.35610 0.62810
 C1878 C 0.77027 0.34240 0.64922
 C1879 C 0.77346 0.30492 0.66818
 C1880 C 0.76580 0.31352 0.69143
 C1881 C 0.76105 0.29890 0.71136
 C1882 C 0.76669 0.27620 0.71019
 C1883 C 0.77535 0.26792 0.68678
 C1884 C 0.77797 0.28211 0.66540
 C1885 C 0.76462 0.35080 0.67347
 C1886 C 0.76188 0.33645 0.69414
 C1887 C 0.78441 0.28786 0.61960
 C1888 C 0.78392 0.27393 0.64104
 H1889 H 0.76113 0.36833 0.67623
 H1890 H 0.75641 0.34328 0.71234
 H1891 H 0.78826 0.28058 0.60110
 H1892 H 0.78745 0.25641 0.63836
 H1893 H 0.78039 0.31661 0.58178
 H1894 H 0.76784 0.37378 0.63159
 H1895 H 0.75192 0.30545 0.72749
 H1896 H 0.77860 0.25027 0.68475
 C1897 C 0.22819 0.17409 0.63548
 C1898 C 0.23786 0.15330 0.63448
 C1899 C 0.24259 0.14323 0.61087
 C1900 C 0.23773 0.15366 0.58813
 C1901 C 0.22748 0.17433 0.58948
 C1902 C 0.22285 0.18470 0.61316
 C1903 C 0.22489 0.18558 0.66032
 C1904 C 0.21667 0.20709 0.66142
 C1905 C 0.21613 0.21904 0.68489
 C1906 C 0.22452 0.20985 0.70693
 C1907 C 0.23150 0.18764 0.70530
 C1908 C 0.23173 0.17554 0.68230
 C1909 C 0.21365 0.20577 0.61503
 C1910 C 0.21065 0.21678 0.63872
 C1911 C 0.24344 0.14332 0.65711
 C1912 C 0.24044 0.15427 0.68063
 H1913 H 0.20929 0.21413 0.59799
 H1914 H 0.20420 0.23332 0.63918
 H1915 H 0.25077 0.12721 0.65658
 H1916 H 0.24566 0.14635 0.69759
 H1917 H 0.25090 0.12767 0.61028
 H1918 H 0.22336 0.18244 0.57220
 H1919 H 0.21108 0.23616 0.68546
 H1920 H 0.23906 0.18036 0.72126
 C1921 C 0.71845 0.67372 0.12175
 C1922 C 0.72474 0.65147 0.12111
 C1923 C 0.72784 0.64041 0.09774
 C1924 C 0.72526 0.65138 0.07454
 C1925 C 0.71844 0.67378 0.07573
 C1926 C 0.71502 0.68495 0.09926
 C1927 C 0.71690 0.68594 0.14642
 C1928 C 0.71166 0.70859 0.14728
 C1929 C 0.71254 0.72076 0.17069
 C1930 C 0.71982 0.71068 0.19278
 C1931 C 0.72457 0.68772 0.19107
 C1932 C 0.72263 0.67526 0.16843
 C1933 C 0.70891 0.70737 0.10083
 C1934 C 0.70718 0.71894 0.12441
 C1935 C 0.72898 0.64095 0.14387
 C1936 C 0.72812 0.65271 0.16713
 H1937 H 0.70598 0.71625 0.08365
 H1938 H 0.70306 0.73638 0.12462
 H1939 H 0.73378 0.62373 0.14362
 H1940 H 0.73239 0.64428 0.18417
 H1941 H 0.73401 0.62380 0.09800
 H1942 H 0.71548 0.68257 0.05852
 H1943 H 0.70956 0.73852 0.17115
 H1944 H 0.73201 0.67975 0.20661
 C1945 C 0.20969 0.63728 0.22680
 C1946 C 0.22294 0.62103 0.21568
 C1947 C 0.21551 0.59788 0.21784
 C1948 C 0.19523 0.59129 0.23146
 C1949 C 0.18311 0.60800 0.24364
 C1950 C 0.18983 0.63084 0.24083
 C1951 C 0.21685 0.66154 0.22417
 C1952 C 0.20332 0.67743 0.23526
 C1953 C 0.21063 0.70022 0.23432
 C1954 C 0.23188 0.70779 0.22336
 C1955 C 0.24500 0.69162 0.21132
 C1956 C 0.23745 0.66836 0.21167
 C1957 C 0.17678 0.64735 0.25163
 C1958 C 0.18333 0.67030 0.24871
 C1959 C 0.24315 0.62840 0.20257
 C1960 C 0.25039 0.65162 0.20083
 H1961 H 0.16137 0.64249 0.26240
 H1962 H 0.17291 0.68258 0.25752
 H1963 H 0.25361 0.61612 0.19387
 H1964 H 0.26631 0.65649 0.19106
 H1965 H 0.22508 0.58518 0.20851
 H1966 H 0.16803 0.60321 0.25502
 H1967 H 0.20066 0.71165 0.24505
 H1968 H 0.26148 0.69692 0.20307
 C1969 C 0.69886 0.12706 0.72356
 C1970 C 0.71115 0.11220 0.70876
 C1971 C 0.70195 0.08972 0.70478
 C1972 C 0.68027 0.08227 0.71502
 C1973 C 0.66810 0.09806 0.72908
 C1974 C 0.67739 0.12010 0.73376
 C1975 C 0.70885 0.15021 0.72914
 C1976 C 0.69698 0.16433 0.74528
 C1977 C 0.70669 0.18584 0.75139
 C1978 C 0.72769 0.19427 0.74057
 C1979 C 0.73948 0.17985 0.72423
 C1980 C 0.73021 0.15759 0.71877
 C1981 C 0.66582 0.13503 0.74932
 C1982 C 0.67556 0.15674 0.75518
 C1983 C 0.73253 0.12010 0.69865
 C1984 C 0.74180 0.14245 0.70338
 H1985 H 0.64925 0.12976 0.75739
 H1986 H 0.66623 0.16768 0.76755
 H1987 H 0.74222 0.10890 0.68705
 H1988 H 0.75830 0.14779 0.69522
 H1989 H 0.71157 0.07830 0.69342
 H1990 H 0.65202 0.09293 0.73835
 H1991 H 0.69758 0.19605 0.76473
 H1992 H 0.75583 0.18576 0.71607
 C1993 C 0.78443 0.13106 0.28548
 C1994 C 0.80738 0.12775 0.28117
 C1995 C 0.81370 0.10587 0.27687
 C1996 C 0.79728 0.08731 0.27609
 C1997 C 0.77441 0.09062 0.28157
 C1998 C 0.76785 0.11265 0.28609
 C1999 C 0.77755 0.15433 0.28768
 C2000 C 0.75453 0.15791 0.29051
 C2001 C 0.74800 0.18017 0.29017
 C2002 C 0.76428 0.19866 0.28597
 C2003 C 0.78731 0.19439 0.28375
 C2004 C 0.79402 0.17253 0.28490
 C2005 C 0.74501 0.11684 0.28996
 C2006 C 0.73848 0.13908 0.29219
 C2007 C 0.82349 0.14646 0.27986
 C2008 C 0.81690 0.16851 0.28152
 H2009 H 0.73202 0.10285 0.29060
 H2010 H 0.72064 0.14153 0.29446
 H2011 H 0.84125 0.14404 0.27661
 H2012 H 0.82975 0.18254 0.27950
 H2013 H 0.83135 0.10329 0.27295
 H2014 H 0.76175 0.07633 0.28092
 H2015 H 0.73016 0.18283 0.29143
 H2016 H 0.80008 0.20743 0.27828
 C2017 C 0.27731 0.62100 0.77143
 C2018 C 0.30011 0.61702 0.76700
 C2019 C 0.30614 0.59483 0.76594
 C2020 C 0.28959 0.57666 0.76860
 C2021 C 0.26681 0.58065 0.77339
 C2022 C 0.26056 0.60302 0.77494
 C2023 C 0.27076 0.64437 0.77110
 C2024 C 0.24795 0.64857 0.77474
 C2025 C 0.24179 0.67089 0.77303
 C2026 C 0.25824 0.68872 0.76685
 C2027 C 0.28095 0.68374 0.76313
 C2028 C 0.28735 0.66194 0.76569
 C2029 C 0.23792 0.60784 0.77905
 C2030 C 0.23175 0.63023 0.77908
 C2031 C 0.31633 0.63523 0.76264
 C2032 C 0.31001 0.65734 0.76179
 H2033 H 0.22483 0.59418 0.78188
 H2034 H 0.21407 0.63315 0.78194
 H2035 H 0.33394 0.63229 0.75920
 H2036 H 0.32293 0.67092 0.75772
 H2037 H 0.32362 0.59156 0.76195
 H2038 H 0.25409 0.56649 0.77517
 H2039 H 0.22416 0.67414 0.77540
 H2040 H 0.29369 0.69630 0.75622
 C2041 C 0.28789 0.36009 0.72171
 C2042 C 0.27381 0.37500 0.71115
 C2043 C 0.28190 0.39782 0.70838
 C2044 C 0.30431 0.40544 0.71506
 C2045 C 0.31841 0.38967 0.72430
 C2046 C 0.31010 0.36734 0.72848
 C2047 C 0.27901 0.33662 0.72664
 C2048 C 0.29243 0.32260 0.73952
 C2049 C 0.28354 0.30097 0.74574
 C2050 C 0.26214 0.29208 0.73725
 C2051 C 0.24885 0.30636 0.72406
 C2052 C 0.25705 0.32891 0.71928
 C2053 C 0.32333 0.35241 0.74041
 C2054 C 0.31448 0.33050 0.74625
 C2055 C 0.25184 0.36680 0.70409
 C2056 C 0.24372 0.34407 0.70776
 H2057 H 0.34045 0.35790 0.74588
 H2058 H 0.32502 0.31961 0.75600
 H2059 H 0.24081 0.37806 0.69572
 H2060 H 0.22670 0.33846 0.70203
 H2061 H 0.27090 0.40947 0.70066
 H2062 H 0.33535 0.39510 0.73046
 H2063 H 0.29345 0.29121 0.75759
 H2064 H 0.23202 0.30022 0.71817
 C2065 C 0.78546 0.86116 0.22166
 C2066 C 0.77088 0.87699 0.21398
 C2067 C 0.77830 0.90020 0.21512
 C2068 C 0.80018 0.90732 0.22361
 C2069 C 0.81446 0.89109 0.23113
 C2070 C 0.80720 0.86809 0.23033
 C2071 C 0.77762 0.83688 0.22144
 C2072 C 0.79189 0.82141 0.23039
 C2073 C 0.78393 0.79873 0.23206
 C2074 C 0.76194 0.79085 0.22440
 C2075 C 0.74802 0.80659 0.21462
 C2076 C 0.75571 0.82973 0.21344
 C2077 C 0.82116 0.85195 0.23854
 C2078 C 0.81358 0.82898 0.23870
 C2079 C 0.74918 0.86923 0.20566
 C2080 C 0.74174 0.84602 0.20535
 H2081 H 0.83796 0.85716 0.24527
 H2082 H 0.82471 0.81707 0.24564
 H2083 H 0.73774 0.88121 0.19958
 H2084 H 0.72479 0.84084 0.19912
 H2085 H 0.76722 0.91265 0.20935
 H2086 H 0.83110 0.89645 0.23825
 H2087 H 0.79447 0.78775 0.24145
 H2088 H 0.73090 0.80114 0.20915
 C2089 C 0.71478 0.87011 0.76681
 C2090 C 0.72432 0.88734 0.75106
 C2091 C 0.71446 0.90802 0.75087
 C2092 C 0.69423 0.91085 0.76495
 C2093 C 0.68538 0.89345 0.78118
 C2094 C 0.69573 0.87326 0.78242
 C2095 C 0.72419 0.84794 0.76603
 C2096 C 0.71448 0.83076 0.78171
 C2097 C 0.72232 0.80929 0.77966
 C2098 C 0.73850 0.80429 0.76079
 C2099 C 0.74919 0.82211 0.74632
 C2100 C 0.74199 0.84400 0.74884
 C2101 C 0.68691 0.85586 0.79839
 C2102 C 0.69630 0.83500 0.79823
 C2103 C 0.74284 0.88314 0.73492
 C2104 C 0.75140 0.86177 0.73366
 H2105 H 0.67236 0.85822 0.81074
 H2106 H 0.68871 0.82182 0.81044
 H2107 H 0.75033 0.89625 0.72258
 H2108 H 0.76517 0.85900 0.72034
 H2109 H 0.72141 0.92103 0.73808
 H2110 H 0.67046 0.89565 0.79301
 H2111 H 0.71501 0.79636 0.79215
 H2112 H 0.76212 0.81877 0.73214
 C2113 C 0.22411 0.37259 0.25191
 C2114 C 0.21328 0.38176 0.27332
 C2115 C 0.20489 0.40306 0.27172
 C2116 C 0.20691 0.41486 0.24877
 C2117 C 0.21836 0.40567 0.22772
 C2118 C 0.22695 0.38450 0.22916
 C2119 C 0.23185 0.34971 0.25302
 C2120 C 0.24228 0.34041 0.23149
 C2121 C 0.24874 0.31833 0.23227
 C2122 C 0.24393 0.30508 0.25401
 C2123 C 0.23429 0.31507 0.27578
 C2124 C 0.22806 0.33732 0.27534
 C2125 C 0.23769 0.37471 0.20807
 C2126 C 0.24532 0.35305 0.20925
 C2127 C 0.21034 0.36910 0.29556
 C2128 C 0.21757 0.34723 0.29654
 H2129 H 0.23995 0.38373 0.19041
 H2130 H 0.25321 0.34595 0.19244
 H2131 H 0.20200 0.37599 0.31220
 H2132 H 0.21459 0.33786 0.31390
 H2133 H 0.19581 0.40992 0.28786
 H2134 H 0.22008 0.41477 0.21007
 H2135 H 0.25636 0.31113 0.21536
 H2136 H 0.23125 0.30555 0.29294
 C2137 C 0.12330 0.23600 0.79140
 C2138 C 0.11674 0.22428 0.81363
 C2139 C 0.09535 0.22665 0.82465
 C2140 C 0.08066 0.24102 0.81402
 C2141 C 0.08741 0.25273 0.79170
 C2142 C 0.10875 0.25011 0.78016
 C2143 C 0.14619 0.23415 0.78031
 C2144 C 0.15311 0.24611 0.75834
 C2145 C 0.17546 0.24524 0.74878
 C2146 C 0.19101 0.23315 0.76167
 C2147 C 0.18340 0.22126 0.78367
 C2148 C 0.16111 0.22132 0.79271
 C2149 C 0.11606 0.26154 0.75791
 C2150 C 0.13780 0.25948 0.74712
 C2151 C 0.13191 0.21087 0.82486
 C2152 C 0.15381 0.20955 0.81467
 H2153 H 0.10499 0.27238 0.74892
 H2154 H 0.14283 0.26885 0.73019
 H2155 H 0.12700 0.20173 0.84199
 H2156 H 0.16523 0.19948 0.82427
 H2157 H 0.09039 0.21790 0.84203
 H2158 H 0.07610 0.26377 0.78342
 H2159 H 0.18102 0.25496 0.73227
 H2160 H 0.19504 0.21256 0.79459
 C2161 C 0.62283 0.73519 0.28423
 C2162 C 0.60703 0.74798 0.27313
 C2163 C 0.58568 0.74941 0.28522
 C2164 C 0.58025 0.73800 0.30813
 C2165 C 0.59643 0.72530 0.31881
 C2166 C 0.61764 0.72384 0.30703
 C2167 C 0.64549 0.73411 0.27219
 C2168 C 0.66136 0.72205 0.28404
 C2169 C 0.68319 0.72218 0.27368
 C2170 C 0.68961 0.73382 0.25112
 C2171 C 0.67322 0.74542 0.23899
 C2172 C 0.65112 0.74577 0.24965
 C2173 C 0.63389 0.71148 0.31790
 C2174 C 0.65542 0.71065 0.30663
 C2175 C 0.61307 0.75918 0.25034
 C2176 C 0.63470 0.75807 0.23881
 H2177 H 0.63003 0.70262 0.33546
 H2178 H 0.66762 0.70121 0.31583
 H2179 H 0.60106 0.76906 0.24147
 H2180 H 0.63868 0.76718 0.22145
 H2181 H 0.57331 0.75918 0.27680
 H2182 H 0.59269 0.71690 0.33668
 H2183 H 0.69538 0.71355 0.28388
 H2184 H 0.67785 0.75484 0.22199
 C2185 C 0.63538 0.25316 0.21536
 C2186 C 0.61944 0.26694 0.22620
 C2187 C 0.59960 0.26988 0.21298
 C2188 C 0.59577 0.25917 0.18905
 C2189 C 0.61193 0.24518 0.17877
 C2190 C 0.63174 0.24222 0.19173
 C2191 C 0.65645 0.25032 0.22884
 C2192 C 0.67250 0.23693 0.21767
 C2193 C 0.69293 0.23515 0.22985
 C2194 C 0.69771 0.24670 0.25317
 C2195 C 0.68078 0.25913 0.26467
 C2196 C 0.66032 0.26134 0.25238
 C2197 C 0.64807 0.22862 0.18138
 C2198 C 0.66814 0.22608 0.19410
 C2199 C 0.62382 0.27763 0.24990
 C2200 C 0.64387 0.27485 0.26277
 H2201 H 0.64544 0.22006 0.16317
 H2202 H 0.68043 0.21568 0.18528
 H2203 H 0.61171 0.28833 0.25853
 H2204 H 0.64662 0.28356 0.28088
 H2205 H 0.58738 0.28075 0.22106
 H2206 H 0.60901 0.23642 0.16072
 H2207 H 0.70545 0.22540 0.22044
 H2208 H 0.68358 0.26771 0.28263
 C2209 C 0.13137 0.75244 0.70170
 C2210 C 0.11416 0.76203 0.71598
 C2211 C 0.09388 0.76599 0.70410
 C2212 C 0.09075 0.76029 0.67811
 C2213 C 0.10823 0.75032 0.66438
 C2214 C 0.12853 0.74655 0.67595
 C2215 C 0.15284 0.74852 0.71388
 C2216 C 0.17002 0.73919 0.69941
 C2217 C 0.19057 0.73610 0.71072
 C2218 C 0.19444 0.74235 0.73646
 C2219 C 0.17646 0.75064 0.75102
 C2220 C 0.15579 0.75418 0.73968
 C2221 C 0.14608 0.73698 0.66220
 C2222 C 0.16649 0.73344 0.67371
 C2223 C 0.11770 0.76748 0.74181
 C2224 C 0.13807 0.76354 0.75346
 H2225 H 0.14409 0.73234 0.64232
 H2226 H 0.17966 0.72620 0.66234
 H2227 H 0.10460 0.77486 0.75315
 H2228 H 0.14005 0.76807 0.77338
 H2229 H 0.08072 0.77374 0.71496
 H2230 H 0.10598 0.74520 0.64466
 H2231 H 0.20375 0.72921 0.69906
 H2232 H 0.17836 0.75442 0.77098
 C2233 C 0.86619 0.75115 0.69595
 C2234 C 0.86904 0.74723 0.66976
 C2235 C 0.89087 0.74884 0.65883
 C2236 C 0.91018 0.75479 0.67365
 C2237 C 0.90677 0.75911 0.70002
 C2238 C 0.88488 0.75700 0.71125
 C2239 C 0.84312 0.74954 0.70744
 C2240 C 0.84012 0.75336 0.73366
 C2241 C 0.81803 0.75229 0.74433
 C2242 C 0.79900 0.74778 0.72885
 C2243 C 0.80261 0.74446 0.70245
 C2244 C 0.82448 0.74486 0.69179
 C2245 C 0.88124 0.76062 0.73749
 C2246 C 0.85928 0.75873 0.74851
 C2247 C 0.84993 0.74211 0.65482
 C2248 C 0.82802 0.74110 0.66562
 H2249 H 0.89548 0.76503 0.74962
 H2250 H 0.85727 0.76178 0.76878
 H2251 H 0.85190 0.73911 0.63454
 H2252 H 0.81373 0.73739 0.65337
 H2253 H 0.89252 0.74652 0.63843
 H2254 H 0.92109 0.76322 0.71211
 H2255 H 0.81574 0.75581 0.76445
 H2256 H 0.78842 0.74186 0.68989
 C2257 C 0.37242 0.24872 0.20162
 C2258 C 0.39074 0.25536 0.21726
 C2259 C 0.41284 0.25696 0.20669
 C2260 C 0.41660 0.25182 0.18072
 C2261 C 0.39794 0.24522 0.16540
 C2262 C 0.37585 0.24371 0.17570
 C2263 C 0.34913 0.24741 0.21246
 C2264 C 0.33084 0.24151 0.19660
 C2265 C 0.30873 0.24131 0.20666
 C2266 C 0.30462 0.24647 0.23260
 C2267 C 0.32333 0.25235 0.24821
 C2268 C 0.34558 0.25280 0.23825
 C2269 C 0.35712 0.23749 0.16053
 C2270 C 0.33499 0.23649 0.17078
 C2271 C 0.38653 0.26037 0.24309
 C2272 C 0.36435 0.25911 0.25340
 H2273 H 0.35956 0.23358 0.14049
 H2274 H 0.32099 0.23188 0.15835
 H2275 H 0.40048 0.26545 0.25542
 H2276 H 0.36186 0.26331 0.27336
 H2277 H 0.42709 0.26192 0.21865
 H2278 H 0.40059 0.24162 0.14532
 H2279 H 0.29476 0.23780 0.19393
 H2280 H 0.32069 0.25745 0.26784
 C2281 C 0.36919 0.75805 0.28207
 C2282 C 0.38432 0.74371 0.27064
 C2283 C 0.40431 0.74001 0.28327
 C2284 C 0.40875 0.75029 0.30730
 C2285 C 0.39360 0.76502 0.31800
 C2286 C 0.37382 0.76887 0.30560
 C2287 C 0.34763 0.76111 0.26974
 C2288 C 0.33225 0.77452 0.28204
 C2289 C 0.31106 0.77576 0.27179
 C2290 C 0.30476 0.76421 0.24888
 C2291 C 0.32082 0.75142 0.23616
 C2292 C 0.34227 0.74963 0.24674
 C2293 C 0.35829 0.78290 0.31672
 C2294 C 0.33780 0.78563 0.30515
 C2295 C 0.37876 0.73297 0.24723
 C2296 C 0.35812 0.73587 0.23551
 H2297 H 0.36176 0.79142 0.33480
 H2298 H 0.32598 0.79615 0.31467
 H2299 H 0.39026 0.72190 0.23810
 H2300 H 0.35437 0.72690 0.21776
 H2301 H 0.41596 0.72866 0.27492
 H2302 H 0.39713 0.77332 0.33620
 H2303 H 0.29905 0.78502 0.28270
 H2304 H 0.31626 0.74192 0.21897
 C2305 C 0.86649 0.25436 0.79358
 C2306 C 0.88236 0.24085 0.78212
 C2307 C 0.90336 0.23960 0.79375
 C2308 C 0.90816 0.25162 0.81674
 C2309 C 0.89229 0.26569 0.82722
 C2310 C 0.87142 0.26692 0.81600
 C2311 C 0.84390 0.25469 0.78259
 C2312 C 0.82785 0.26712 0.79516
 C2313 C 0.80596 0.26592 0.78624
 C2314 C 0.79965 0.25319 0.76409
 C2315 C 0.81624 0.24125 0.75112
 C2316 C 0.83840 0.24173 0.76056
 C2317 C 0.85512 0.27993 0.82733
 C2318 C 0.83361 0.27991 0.81716
 C2319 C 0.87653 0.22845 0.75977
 C2320 C 0.85498 0.22893 0.74915
 H2321 H 0.85880 0.28973 0.84457
 H2322 H 0.82126 0.28971 0.82685
 H2323 H 0.88859 0.21800 0.75060
 H2324 H 0.85114 0.21884 0.73216
 H2325 H 0.91553 0.22874 0.78552
 H2326 H 0.89604 0.27541 0.84452
 H2327 H 0.79364 0.27458 0.79737
 H2328 H 0.81169 0.23086 0.73454
 C2329 C 0.54284 0.96402 0.62139
 C2330 C 0.54273 0.98116 0.64023
 C2331 C 0.55514 0.97944 0.66205
 C2332 C 0.56833 0.96116 0.66499
 C2333 C 0.56777 0.94361 0.64634
 C2334 C 0.55478 0.94491 0.62446
 C2335 C 0.53156 0.96703 0.59727
 C2336 C 0.53182 0.95032 0.57795
 C2337 C 0.52248 0.95436 0.55422
 C2338 C 0.51579 0.97600 0.54894
 C2339 C 0.51416 0.99161 0.56961
 C2340 C 0.52179 0.98723 0.59351
 C2341 C 0.55414 0.92809 0.60509
 C2342 C 0.54256 0.93060 0.58239
 C2343 C 0.53133 1.00046 0.63631
 C2344 C 0.52116 1.00353 0.61321
 H2345 H 0.56304 0.91309 0.60726
 H2346 H 0.54296 0.91749 0.56776
 H2347 H 0.53109 1.01371 0.65081
 H2348 H 0.51338 1.01913 0.61045
 H2349 H 0.55584 0.99327 0.67591
 H2350 H 0.57789 0.92945 0.64853
 H2351 H 0.52104 0.94094 0.54007
 H2352 H 0.50821 1.00812 0.56717
 C2353 C 0.05040 0.48386 1.11723
 C2354 C 0.05628 0.50355 1.13163
 C2355 C 0.07244 0.50314 1.15019
 C2356 C 0.08203 0.48292 1.15581
 C2357 C 0.07426 0.46267 1.14273
 C2358 C 0.05936 0.46339 1.12241
 C2359 C 0.03561 0.48517 1.09541
 C2360 C 0.03195 0.46644 1.07876
 C2361 C 0.02056 0.46898 1.05597
 C2362 C 0.01288 0.49012 1.05023
 C2363 C 0.01461 0.50772 1.06878
 C2364 C 0.02670 0.50570 1.09068
 C2365 C 0.05413 0.44448 1.10631
 C2366 C 0.04099 0.44609 1.08462
 C2367 C 0.04641 0.52358 1.12675
 C2368 C 0.03153 0.52454 1.10681
 H2369 H 0.06099 0.42857 1.10993
 H2370 H 0.03824 0.43141 1.07211
 H2371 H 0.05059 0.53877 1.13811
 H2372 H 0.02467 0.54048 1.10322
 H2373 H 0.07697 0.51862 1.16095
 H2374 H 0.08149 0.44695 1.14645
 H2375 H 0.01920 0.45515 1.04223
 H2376 H 0.00854 0.52403 1.06524
 C2377 C -0.05495 0.03086 1.12114
 C2378 C -0.04949 0.01872 1.14232
 C2379 C -0.06466 0.01687 1.16316
 C2380 C -0.08585 0.02612 1.16259
 C2381 C -0.09066 0.03881 1.14123
 C2382 C -0.07520 0.04138 1.12063
 C2383 C -0.03994 0.03119 1.09835
 C2384 C -0.04569 0.04272 1.07683
 C2385 C -0.03293 0.04056 1.05420
 C2386 C -0.01600 0.02529 1.05241
 C2387 C -0.00906 0.01573 1.07492
 C2388 C -0.02107 0.01848 1.09786
 C2389 C -0.07993 0.05361 1.09914
 C2390 C -0.06528 0.05448 1.07770
 C2391 C -0.02952 0.00758 1.14175
 C2392 C -0.01563 0.00730 1.11979
 H2393 H -0.09539 0.06203 1.09858
 H2394 H -0.06996 0.06342 1.06119
 H2395 H -0.02507 -0.00178 1.15803
 H2396 H -0.00096 -0.00238 1.11971
 H2397 H -0.06061 0.00651 1.17877
 H2398 H -0.10631 0.04691 1.14061
 H2399 H -0.03811 0.04860 1.03744
 H2400 H 0.00452 0.00465 1.07444
 C2401 C 0.43808 0.54366 0.61384
 C2402 C 0.41533 0.54726 0.61009
 C2403 C 0.39989 0.54529 0.63076
 C2404 C 0.40717 0.53968 0.65491
 C2405 C 0.43032 0.53773 0.65862
 C2406 C 0.44579 0.53934 0.63808
 C2407 C 0.45361 0.54224 0.59166
 C2408 C 0.47561 0.53615 0.59517
 C2409 C 0.48887 0.53076 0.57391
 C2410 C 0.47993 0.53048 0.54929
 C2411 C 0.45944 0.54034 0.54605
 C2412 C 0.44562 0.54508 0.56721
 C2413 C 0.46849 0.53509 0.64101
 C2414 C 0.48316 0.53346 0.61987
 C2415 C 0.40827 0.55142 0.58547
 C2416 C 0.42326 0.55059 0.56440
 H2417 H 0.47467 0.53193 0.65966
 H2418 H 0.50021 0.52898 0.62279
 H2419 H 0.39084 0.55450 0.58234
 H2420 H 0.41691 0.55299 0.54564
 H2421 H 0.38210 0.54703 0.62788
 H2422 H 0.43601 0.53315 0.67704
 H2423 H 0.50527 0.52466 0.57690
 H2424 H 0.45341 0.54284 0.52729
 C2425 C 0.42393 0.47636 -0.12088
 C2426 C 0.43301 0.46766 -0.14359
 C2427 C 0.42137 0.46953 -0.16634
 C2428 C 0.40121 0.48052 -0.16623
 C2429 C 0.39219 0.48863 -0.14322
 C2430 C 0.40342 0.48661 -0.12053
 C2431 C 0.43661 0.47577 -0.09721
 C2432 C 0.42786 0.48550 -0.07503
 C2433 C 0.44070 0.48696 -0.05328
 C2434 C 0.46233 0.47860 -0.05288
 C2435 C 0.47055 0.46799 -0.07515
 C2436 C 0.45776 0.46672 -0.09750
 C2437 C 0.39485 0.49534 -0.09763
 C2438 C 0.40688 0.49480 -0.07522
 C2439 C 0.45386 0.45800 -0.14308
 C2440 C 0.46602 0.45758 -0.12047
 H2441 H 0.37898 0.50313 -0.09713
 H2442 H 0.39998 0.50224 -0.05803
 H2443 H 0.46108 0.45115 -0.16041
 H2444 H 0.48224 0.45046 -0.12112
 H2445 H 0.42833 0.46330 -0.18414
 H2446 H 0.37658 0.49690 -0.14314
 H2447 H 0.43407 0.49592 -0.03699
 H2448 H 0.48725 0.46187 -0.07551
 C2449 C -0.06460 0.98948 0.37669
 C2450 C -0.08346 0.97349 0.37579
 C2451 C -0.09909 0.97459 0.35633
 C2452 C -0.09592 0.99163 0.33801
 C2453 C -0.07658 1.00715 0.33900
 C2454 C -0.06101 1.00629 0.35836
 C2455 C -0.04868 0.98913 0.39770
 C2456 C -0.03054 1.00587 0.39921
 C2457 C -0.01668 1.00678 0.42033
 C2458 C -0.02083 0.99120 0.44012
 C2459 C -0.03802 0.97340 0.43724
 C2460 C -0.05243 0.97269 0.41642
 C2461 C -0.04216 1.02223 0.36002
 C2462 C -0.02723 1.02209 0.38017
 C2463 C -0.08649 0.95704 0.39467
 C2464 C -0.07121 0.95661 0.41459
 H2465 H -0.03919 1.03523 0.34591
 H2466 H -0.01322 1.03504 0.38111
 H2467 H -0.10094 0.94457 0.39423
 H2468 H -0.07441 0.94390 0.42899
 H2469 H -0.11395 0.96261 0.35582
 H2470 H -0.07367 1.02000 0.32471
 H2471 H -0.00342 1.02044 0.42178
 H2472 H -0.04146 0.96122 0.45210
 C2473 C 0.07232 0.52459 0.38506
 C2474 C 0.09484 0.51898 0.38459
 C2475 C 0.10524 0.51346 0.36137
 C2476 C 0.09311 0.51254 0.33866
 C2477 C 0.07054 0.51857 0.33946
 C2478 C 0.06013 0.52474 0.36262
 C2479 C 0.06088 0.52901 0.40970
 C2480 C 0.03808 0.53371 0.41043
 C2481 C 0.02659 0.53527 0.43409
 C2482 C 0.03731 0.53047 0.45679
 C2483 C 0.06056 0.52679 0.45535
 C2484 C 0.07244 0.52645 0.43213
 C2485 C 0.03756 0.53037 0.36396
 C2486 C 0.02678 0.53493 0.38743
 C2487 C 0.10632 0.51819 0.40747
 C2488 C 0.09521 0.52159 0.43087
 H2489 H 0.02798 0.53076 0.34677
 H2490 H 0.00918 0.53854 0.38762
 H2491 H 0.12374 0.51401 0.40734
 H2492 H 0.10435 0.51979 0.44816
 H2493 H 0.12277 0.50962 0.36113
 H2494 H 0.06081 0.51783 0.32232
 H2495 H 0.00869 0.53769 0.43446
 H2496 H 0.06915 0.52153 0.47165
 C2497 C 0.57587 0.03360 -0.11022
 C2498 C 0.56439 0.03705 -0.13260
 C2499 C 0.57496 0.03266 -0.15620
 C2500 C 0.59675 0.02496 -0.15724
 C2501 C 0.60841 0.02258 -0.13478
 C2502 C 0.59793 0.02657 -0.11116
 C2503 C 0.56388 0.03543 -0.08543
 C2504 C 0.57451 0.02939 -0.06350
 C2505 C 0.56191 0.02715 -0.04082
 C2506 C 0.53877 0.03131 -0.03942
 C2507 C 0.52902 0.03955 -0.06119
 C2508 C 0.54130 0.04091 -0.08445
 C2509 C 0.60856 0.02235 -0.08849
 C2510 C 0.59698 0.02357 -0.06505
 C2511 C 0.54219 0.04367 -0.13083
 C2512 C 0.53089 0.04568 -0.10716
 H2513 H 0.62561 0.01707 -0.08897
 H2514 H 0.60539 0.01909 -0.04810
 H2515 H 0.53322 0.04661 -0.14792
 H2516 H 0.51350 0.05000 -0.10674
 H2517 H 0.56601 0.03434 -0.17365
 H2518 H 0.62512 0.01644 -0.13574
 H2519 H 0.56973 0.01958 -0.02526
 H2520 H 0.51124 0.04249 -0.06083
 C2521 C 0.61341 0.53941 -0.03215
 C2522 C 0.62134 0.55973 -0.01993
 C2523 C 0.64392 0.56789 -0.02336
 C2524 C 0.65876 0.55585 -0.03860
 C2525 C 0.65076 0.53533 -0.05059
 C2526 C 0.62788 0.52710 -0.04758
 C2527 C 0.58958 0.53073 -0.02833
 C2528 C 0.58136 0.51043 -0.04043
 C2529 C 0.55855 0.50225 -0.03639
 C2530 C 0.54427 0.51414 -0.02002
 C2531 C 0.55328 0.53429 -0.00791
 C2532 C 0.57558 0.54276 -0.01219
 C2533 C 0.61913 0.50684 -0.05945
 C2534 C 0.59625 0.49870 -0.05602
 C2535 C 0.60665 0.57141 -0.00419
 C2536 C 0.58413 0.56299 -0.00027
 H2537 H 0.63005 0.49717 -0.07146
 H2538 H 0.59023 0.48300 -0.06548
 H2539 H 0.61266 0.58708 0.00535
 H2540 H 0.57332 0.57238 0.01220
 H2541 H 0.65016 0.58342 -0.01364
 H2542 H 0.66225 0.52598 -0.06224
 H2543 H 0.55213 0.48657 -0.04558
 H2544 H 0.54310 0.54341 0.00545
 C2545 C 0.12756 1.03900 0.48359
 C2546 C 0.13603 1.05628 0.50033
 C2547 C 0.15841 1.06531 0.49730
 C2548 C 0.17237 1.05725 0.47778
 C2549 C 0.16399 1.03947 0.46151
 C2550 C 0.14134 1.03042 0.46418
 C2551 C 0.10363 1.03024 0.48604
 C2552 C 0.09466 1.01367 0.46876
 C2553 C 0.07144 1.00635 0.47050
 C2554 C 0.05732 1.01572 0.48927
 C2555 C 0.06708 1.03188 0.50661
 C2556 C 0.08996 1.03927 0.50510
 C2557 C 0.13198 1.01339 0.44761
 C2558 C 0.10903 1.00520 0.44981
 C2559 C 0.12186 1.06455 0.51948
 C2560 C 0.09916 1.05616 0.52184
 H2561 H 0.14239 1.00658 0.43256
 H2562 H 0.10242 0.99234 0.43638
 H2563 H 0.12830 1.07782 0.53253
 H2564 H 0.08864 1.06318 0.53666
 H2565 H 0.16501 1.07878 0.51003
 H2566 H 0.17482 1.03327 0.44648
 H2567 H 0.06440 0.99383 0.45694
 H2568 H 0.05667 1.04023 0.52016
 C2569 C 0.11877 -0.03001 0.99318
 C2570 C 0.12194 -0.05167 0.98324
 C2571 C 0.14311 -0.06001 0.98465
 C2572 C 0.16155 -0.04691 0.99555
 C2573 C 0.15831 -0.02463 1.00437
 C2574 C 0.13673 -0.01634 1.00379
 C2575 C 0.09602 -0.02179 0.99292
 C2576 C 0.09218 -0.00069 1.00409
 C2577 C 0.06994 0.00625 1.00506
 C2578 C 0.05181 -0.00785 0.99479
 C2579 C 0.05670 -0.02837 0.98283
 C2580 C 0.07835 -0.03560 0.98215
 C2581 C 0.13251 0.00505 1.01412
 C2582 C 0.11060 0.01265 1.01444
 C2583 C 0.10381 -0.06483 0.97228
 C2584 C 0.08236 -0.05687 0.97163
 H2585 H 0.14615 0.01584 1.02245
 H2586 H 0.10806 0.02904 1.02303
 H2587 H 0.10615 -0.08152 0.96437
 H2588 H 0.06870 -0.06762 0.96325
 H2589 H 0.14528 -0.07662 0.97641
 H2590 H 0.17208 -0.01425 1.01302
 H2591 H 0.06678 0.02226 1.01418
 H2592 H 0.04346 -0.03984 0.97554
 C2593 C 0.61625 0.46073 0.52988
 C2594 C 0.61906 0.43752 0.52900
 C2595 C 0.64082 0.43032 0.52926
 C2596 C 0.66022 0.44598 0.53005
 C2597 C 0.65693 0.46941 0.53091
 C2598 C 0.63498 0.47681 0.53095
 C2599 C 0.59326 0.46827 0.52861
 C2600 C 0.59022 0.49147 0.52875
 C2601 C 0.56827 0.49842 0.52607
 C2602 C 0.54959 0.48226 0.52245
 C2603 C 0.55341 0.45910 0.52247
 C2604 C 0.57487 0.45206 0.52588
 C2605 C 0.63131 0.49995 0.53164
 C2606 C 0.60934 0.50714 0.53062
 C2607 C 0.60008 0.42180 0.52700
 C2608 C 0.57834 0.42895 0.52531
 H2609 H 0.64557 0.51262 0.53261
 H2610 H 0.60735 0.52512 0.53079
 H2611 H 0.60207 0.40381 0.52625
 H2612 H 0.56416 0.41630 0.52324
 H2613 H 0.64240 0.41234 0.52712
 H2614 H 0.67126 0.48196 0.53210
 H2615 H 0.56600 0.51632 0.52558
 H2616 H 0.54042 0.44625 0.51728
 C2617 C -0.11294 0.46489 0.48504
 C2618 C -0.12876 0.47896 0.47621
 C2619 C -0.15193 0.47131 0.47711
 C2620 C -0.15890 0.44961 0.48626
 C2621 C -0.14274 0.43573 0.49467
 C2622 C -0.11983 0.44335 0.49443
 C2623 C -0.08876 0.47308 0.48530
 C2624 C -0.07343 0.45950 0.49577
 C2625 C -0.05097 0.46790 0.49801
 C2626 C -0.04295 0.48942 0.48890
 C2627 C -0.05854 0.50266 0.47766
 C2628 C -0.08161 0.49469 0.47627
 C2629 C -0.10376 0.42999 0.50398
 C2630 C -0.08095 0.43804 0.50487
 C2631 C -0.12102 0.50042 0.46703
 C2632 C -0.09786 0.50809 0.46693
 H2633 H -0.10894 0.41337 0.51130
 H2634 H -0.06910 0.42743 0.51292
 H2635 H -0.13299 0.51145 0.46004
 H2636 H -0.09269 0.52481 0.45993
 H2637 H -0.16444 0.48203 0.47071
 H2638 H -0.14815 0.41919 0.50211
 H2639 H -0.04021 0.45804 0.50866
 H2640 H -0.05304 0.51950 0.47124
 C2641 C 0.38862 -0.03556 -0.02938
 C2642 C 0.37293 -0.01951 -0.03267
 C2643 C 0.34976 -0.02676 -0.03344
 C2644 C 0.34251 -0.04989 -0.03139
 C2645 C 0.35853 -0.06576 -0.02883
 C2646 C 0.38156 -0.05868 -0.02741
 C2647 C 0.41278 -0.02796 -0.02674
 C2648 C 0.42807 -0.04385 -0.02151
 C2649 C 0.45053 -0.03642 -0.01666
 C2650 C 0.45829 -0.01328 -0.01767
 C2651 C 0.44278 0.00237 -0.02405
 C2652 C 0.41992 -0.00484 -0.02809
 C2653 C 0.39755 -0.07418 -0.02313
 C2654 C 0.42041 -0.06686 -0.02000
 C2655 C 0.38074 0.00347 -0.03443
 C2656 C 0.40385 0.01066 -0.03233
 H2657 H 0.39226 -0.09204 -0.02154
 H2658 H 0.43214 -0.07928 -0.01605
 H2659 H 0.36886 0.01603 -0.03712
 H2660 H 0.40910 0.02857 -0.03341
 H2661 H 0.33737 -0.01454 -0.03533
 H2662 H 0.35291 -0.08353 -0.02678
 H2663 H 0.46116 -0.04875 -0.01024
 H2664 H 0.44808 0.02030 -0.02442
 C2665 C 0.39125 1.03583 0.49167
 C2666 C 0.37989 1.03981 0.51486
 C2667 C 0.35884 1.04879 0.51477
 C2668 C 0.34942 1.05462 0.49177
 C2669 C 0.36110 1.05035 0.46864
 C2670 C 0.38188 1.04070 0.46848
 C2671 C 0.41363 1.02684 0.49173
 C2672 C 0.42492 1.02252 0.46859
 C2673 C 0.44645 1.01444 0.46887
 C2674 C 0.45747 1.01251 0.49200
 C2675 C 0.44520 1.01573 0.51502
 C2676 C 0.42341 1.02296 0.51498
 C2677 C 0.39364 1.03614 0.44564
 C2678 C 0.41468 1.02694 0.44569
 C2679 C 0.38997 1.03508 0.53773
 C2680 C 0.41146 1.02694 0.53780
 H2681 H 0.38655 1.03975 0.42758
 H2682 H 0.42324 1.02377 0.42768
 H2683 H 0.38136 1.03808 0.55575
 H2684 H 0.41885 1.02393 0.55587
 H2685 H 0.34992 1.05139 0.53268
 H2686 H 0.35442 1.05504 0.45076
 H2687 H 0.45468 1.01011 0.45106
 H2688 H 0.45277 1.01338 0.53314
 C2689 C -0.12059 0.53374 0.99178
 C2690 C -0.13183 0.53901 1.01467
 C2691 C -0.15361 0.54640 1.01399
 C2692 C -0.16389 0.54929 0.99058
 C2693 C -0.15234 0.54366 0.96780
 C2694 C -0.13082 0.53566 0.96832
 C2695 C -0.09744 0.52662 0.99235
 C2696 C -0.08626 0.52117 0.96951
 C2697 C -0.06409 0.51485 0.97015
 C2698 C -0.05239 0.51570 0.99314
 C2699 C -0.06438 0.52013 1.01604
 C2700 C -0.08682 0.52567 1.01572
 C2701 C -0.11913 0.53001 0.94580
 C2702 C -0.09729 0.52266 0.94640
 C2703 C -0.12087 0.53726 1.03777
 C2704 C -0.09868 0.53083 1.03827
 H2705 H -0.12687 0.53137 0.92756
 H2706 H -0.08878 0.51861 0.92861
 H2707 H -0.12936 0.54128 1.05557
 H2708 H -0.09066 0.53010 1.05645
 H2709 H -0.16237 0.55019 1.03168
 H2710 H -0.15967 0.54618 0.94958
 H2711 H -0.05609 0.50951 0.95267
 H2712 H -0.05612 0.51999 1.03412
 C2713 C 0.01518 0.63183 0.53885
 C2714 C 0.02645 0.63826 0.56133
 C2715 C 0.02551 0.66022 0.57110
 C2716 C 0.01266 0.67566 0.55930
 C2717 C 0.00200 0.66925 0.53623
 C2718 C 0.00325 0.64724 0.52589
 C2719 C 0.01519 0.60825 0.52930
 C2720 C 0.00385 0.60148 0.50693
 C2721 C 0.00342 0.57866 0.49849
 C2722 C 0.01363 0.56269 0.51286
 C2723 C 0.02446 0.57013 0.53554
 C2724 C 0.02584 0.59273 0.54339
 C2725 C -0.00771 0.64001 0.50337
 C2726 C -0.00728 0.61759 0.49397
 C2727 C 0.03779 0.62237 0.57421
 C2728 C 0.03732 0.59990 0.56550
 H2729 H -0.01691 0.65171 0.49306
 H2730 H -0.01613 0.61273 0.47669
 H2731 H 0.04659 0.62719 0.59154
 H2732 H 0.04581 0.58799 0.57633
 H2733 H 0.03432 0.66512 0.58842
 H2734 H -0.00793 0.68100 0.52695
 H2735 H -0.00542 0.57327 0.48136
 H2736 H 0.03211 0.55832 0.54732
 C2737 C 0.51758 0.12538 0.04675
 C2738 C 0.52843 0.13036 0.06983
 C2739 C 0.52919 0.15233 0.07999
 C2740 C 0.51817 0.16917 0.06810
 C2741 C 0.50777 0.16404 0.04457
 C2742 C 0.50762 0.14214 0.03370
 C2743 C 0.51611 0.10200 0.03649
 C2744 C 0.50562 0.09684 0.01321
 C2745 C 0.50423 0.07436 0.00370
 C2746 C 0.51254 0.05714 0.01792
 C2747 C 0.52223 0.06284 0.04169
 C2748 C 0.52474 0.08514 0.05058
 C2749 C 0.49724 0.13644 0.01042
 C2750 C 0.49647 0.11423 0.00023
 C2751 C 0.53771 0.11311 0.08280
 C2752 C 0.53566 0.09079 0.07347
 H2753 H 0.48956 0.14922 0.00005
 H2754 H 0.48828 0.11058 -0.01773
 H2755 H 0.54612 0.11679 0.10062
 H2756 H 0.54262 0.07784 0.08429
 H2757 H 0.53796 0.15612 0.09756
 H2758 H 0.49914 0.17675 0.03519
 H2759 H 0.49639 0.07027 -0.01437
 H2760 H 0.52852 0.04998 0.05322
 C2761 C -0.00783 0.12456 0.96909
 C2762 C -0.02867 0.13216 0.96271
 C2763 C -0.02899 0.15315 0.95103
 C2764 C -0.00864 0.16641 0.94543
 C2765 C 0.01207 0.15874 0.95265
 C2766 C 0.01257 0.13780 0.96440
 C2767 C -0.00727 0.10187 0.97986
 C2768 C 0.01360 0.09390 0.98529
 C2769 C 0.01415 0.07167 0.99359
 C2770 C -0.00593 0.05702 0.99586
 C2771 C -0.02675 0.06601 0.99174
 C2772 C -0.02753 0.08822 0.98348
 C2773 C 0.03311 0.12951 0.97080
 C2774 C 0.03361 0.10794 0.98110
 C2775 C -0.04871 0.11831 0.96748
 C2776 C -0.04815 0.09671 0.97769
 H2777 H 0.04897 0.13958 0.96738
 H2778 H 0.04986 0.10201 0.98525
 H2779 H -0.06493 0.12400 0.96277
 H2780 H -0.06396 0.08635 0.98047
 H2781 H -0.04505 0.15901 0.94594
 H2782 H 0.02786 0.16858 0.94818
 H2783 H 0.03046 0.06546 0.99680
 H2784 H -0.04244 0.05588 0.99423
 C2785 C 0.49553 0.61200 0.45343
 C2786 C 0.49236 0.63104 0.46903
 C2787 C 0.49052 0.65207 0.45775
 C2788 C 0.49158 0.65398 0.43106
 C2789 C 0.49479 0.63463 0.41582
 C2790 C 0.49686 0.61367 0.42687
 C2791 C 0.49751 0.58986 0.46509
 C2792 C 0.50098 0.57100 0.44942
 C2793 C 0.50267 0.55001 0.46044
 C2794 C 0.50012 0.54732 0.48702
 C2795 C 0.49749 0.56672 0.50251
 C2796 C 0.49599 0.58799 0.49161
 C2797 C 0.50032 0.59434 0.41185
 C2798 C 0.50241 0.57339 0.42293
 C2799 C 0.49107 0.62857 0.49555
 C2800 C 0.49282 0.60744 0.50663
 H2801 H 0.50143 0.59542 0.39133
 H2802 H 0.50504 0.55890 0.41064
 H2803 H 0.48862 0.64308 0.50787
 H2804 H 0.49161 0.60632 0.52714
 H2805 H 0.48798 0.66684 0.46964
 H2806 H 0.49607 0.63597 0.39533
 H2807 H 0.50540 0.53564 0.44803
 H2808 H 0.49665 0.56546 0.52294
 C2809 C 0.50695 0.87633 0.45687
 C2810 C 0.48929 0.86075 0.46515
 C2811 C 0.48725 0.83884 0.45413
 C2812 C 0.50290 0.83248 0.43517
 C2813 C 0.52086 0.84821 0.42767
 C2814 C 0.52281 0.87019 0.43822
 C2815 C 0.50844 0.89977 0.46725
 C2816 C 0.52530 0.91557 0.45779
 C2817 C 0.52574 0.93809 0.46628
 C2818 C 0.51001 0.94506 0.48493
 C2819 C 0.49355 0.92872 0.49478
 C2820 C 0.49250 0.90611 0.48571
 C2821 C 0.53995 0.88637 0.42995
 C2822 C 0.54110 0.90870 0.43947
 C2823 C 0.47381 0.86759 0.48392
 C2824 C 0.47546 0.88982 0.49410
 H2825 H 0.55232 0.88185 0.41562
 H2826 H 0.55434 0.92077 0.43221
 H2827 H 0.46015 0.85573 0.49061
 H2828 H 0.46303 0.89439 0.50832
 H2829 H 0.47346 0.82680 0.46012
 H2830 H 0.53277 0.84360 0.41286
 H2831 H 0.53841 0.95024 0.45811
 H2832 H 0.48110 0.93369 0.50878
 C2833 C 0.00462 0.38387 0.96673
 C2834 C -0.01577 0.36999 0.96745
 C2835 C -0.01680 0.34867 0.95514
 C2836 C 0.00231 0.34128 0.94186
 C2837 C 0.02281 0.35524 0.94201
 C2838 C 0.02402 0.37657 0.95429
 C2839 C 0.00536 0.40694 0.97808
 C2840 C 0.02537 0.42124 0.97610
 C2841 C 0.02534 0.44384 0.98448
 C2842 C 0.00544 0.45255 0.99440
 C2843 C -0.01409 0.43735 0.99783
 C2844 C -0.01431 0.41469 0.98936
 C2845 C 0.04403 0.39110 0.95364
 C2846 C 0.04469 0.41305 0.96435
 C2847 C -0.03490 0.37802 0.97981
 C2848 C -0.03418 0.39997 0.99056
 H2849 H 0.05917 0.38566 0.94424
 H2850 H 0.06030 0.42392 0.96279
 H2851 H -0.05072 0.36744 0.98064
 H2852 H -0.04950 0.40568 0.99927
 H2853 H -0.03256 0.33798 0.95558
 H2854 H 0.03756 0.34994 0.93168
 H2855 H 0.04050 0.45472 0.98155
 H2856 H -0.02967 0.44344 1.00538
 C2857 C 0.49010 0.37722 0.02925
 C2858 C 0.50780 0.36450 0.02068
 C2859 C 0.51184 0.34484 0.03369
 C2860 C 0.49792 0.33785 0.05467
 C2861 C 0.47983 0.35039 0.06238
 C2862 C 0.47610 0.37030 0.05009
 C2863 C 0.48698 0.39890 0.01720
 C2864 C 0.47090 0.41258 0.02765
 C2865 C 0.47011 0.43439 0.01871
 C2866 C 0.48429 0.44260 -0.00167
 C2867 C 0.49939 0.42795 -0.01310
 C2868 C 0.50127 0.40633 -0.00319
 C2869 C 0.45925 0.38391 0.05896
 C2870 C 0.45687 0.40485 0.04812
 C2871 C 0.52141 0.37211 -0.00023
 C2872 C 0.51808 0.39256 -0.01208
 H2873 H 0.44834 0.37872 0.07499
 H2874 H 0.44424 0.41529 0.05615
 H2875 H 0.53501 0.36238 -0.00722
 H2876 H 0.52928 0.39800 -0.02777
 H2877 H 0.52578 0.33511 0.02776
 H2878 H 0.46931 0.34512 0.07871
 H2879 H 0.45956 0.44544 0.02928
 H2880 H 0.51101 0.43402 -0.02814
 C2881 C -0.00807 0.88320 0.51688
 C2882 C 0.01238 0.87290 0.51704
 C2883 C 0.01387 0.85386 0.53203
 C2884 C -0.00492 0.84505 0.54670
 C2885 C -0.02559 0.85503 0.54549
 C2886 C -0.02717 0.87431 0.53084
 C2887 C -0.00904 0.90453 0.50318
 C2888 C -0.02885 0.91585 0.50474
 C2889 C -0.02855 0.93771 0.49497
 C2890 C -0.00834 0.94877 0.48502
 C2891 C 0.01036 0.93577 0.48049
 C2892 C 0.01039 0.91402 0.49036
 C2893 C -0.04715 0.88544 0.53069
 C2894 C -0.04797 0.90588 0.51790
 C2895 C 0.03115 0.88235 0.50291
 C2896 C 0.03014 0.90251 0.48971
 H2897 H -0.06206 0.87871 0.54125
 H2898 H -0.06342 0.91439 0.51917
 H2899 H 0.04695 0.87445 0.50265
 H2900 H 0.04526 0.90965 0.47982
 H2901 H 0.02972 0.84609 0.53263
 H2902 H -0.04008 0.84842 0.55683
 H2903 H -0.04359 0.94648 0.49703
 H2904 H 0.02598 0.94352 0.47219
 C2905 C 0.20227 0.30110 0.14345
 C2906 C 0.20741 0.29216 0.11923
 C2907 C 0.20628 0.30570 0.09799
 C2908 C 0.20115 0.32829 0.10107
 C2909 C 0.19485 0.33666 0.12521
 C2910 C 0.19532 0.32306 0.14655
 C2911 C 0.20648 0.28815 0.16608
 C2912 C 0.20256 0.29755 0.19033
 C2913 C 0.20937 0.28651 0.21168
 C2914 C 0.22226 0.26770 0.20870
 C2915 C 0.22401 0.25731 0.18443
 C2916 C 0.21627 0.26754 0.16305
 C2917 C 0.19052 0.33147 0.17110
 C2918 C 0.19381 0.31878 0.19265
 C2919 C 0.21537 0.27059 0.11694
 C2920 C 0.21989 0.25852 0.13852
 H2921 H 0.18497 0.34831 0.17373
 H2922 H 0.19076 0.32623 0.21128
 H2923 H 0.21926 0.26348 0.09835
 H2924 H 0.22719 0.24248 0.13598
 H2925 H 0.21146 0.29943 0.07941
 H2926 H 0.19098 0.35413 0.12749
 H2927 H 0.20639 0.29383 0.23033
 H2928 H 0.23286 0.24218 0.18171
 C2929 C 0.71694 0.80812 0.63851
 C2930 C 0.71875 0.83182 0.63980
 C2931 C 0.72431 0.84396 0.61767
 C2932 C 0.72717 0.83264 0.59399
 C2933 C 0.72362 0.80876 0.59301
 C2934 C 0.71929 0.79645 0.61526
 C2935 C 0.71418 0.79532 0.66217
 C2936 C 0.71518 0.77180 0.66121
 C2937 C 0.71702 0.76035 0.68392
 C2938 C 0.71842 0.77246 0.70735
 C2939 C 0.71289 0.79507 0.70804
 C2940 C 0.71235 0.80701 0.68549
 C2941 C 0.71824 0.77268 0.61486
 C2942 C 0.71651 0.76056 0.63750
 C2943 C 0.71581 0.84292 0.66340
 C2944 C 0.71223 0.83067 0.68584
 H2945 H 0.71986 0.76345 0.59700
 H2946 H 0.71706 0.74236 0.63648
 H2947 H 0.71681 0.86123 0.66461
 H2948 H 0.71069 0.83989 0.70372
 H2949 H 0.72720 0.86216 0.61940
 H2950 H 0.72470 0.79953 0.57513
 H2951 H 0.71984 0.74254 0.68298
 H2952 H 0.71094 0.80402 0.72583
 C2953 C 0.28977 0.68665 0.63896
 C2954 C 0.28421 0.66339 0.63470
 C2955 C 0.28542 0.65445 0.60999
 C2956 C 0.29107 0.66872 0.58951
 C2957 C 0.29704 0.69192 0.59391
 C2958 C 0.29665 0.70098 0.61882
 C2959 C 0.28651 0.69644 0.66464
 C2960 C 0.29110 0.71981 0.66892
 C2961 C 0.28567 0.72930 0.69282
 C2962 C 0.27420 0.71580 0.71168
 C2963 C 0.27006 0.69233 0.70673
 C2964 C 0.27677 0.68252 0.68379
 C2965 C 0.30192 0.72418 0.62395
 C2966 C 0.29942 0.73339 0.64863
 C2967 C 0.27617 0.64973 0.65494
 C2968 C 0.27220 0.65921 0.67904
 H2969 H 0.30748 0.73540 0.60865
 H2970 H 0.30307 0.75145 0.65160
 H2971 H 0.27190 0.63177 0.65185
 H2972 H 0.26493 0.64831 0.69391
 H2973 H 0.28053 0.63664 0.60641
 H2974 H 0.30129 0.70286 0.57797
 H2975 H 0.28845 0.74745 0.69578
 H2976 H 0.25972 0.68167 0.71951
 C2977 C 0.79391 0.19399 0.15711
 C2978 C 0.79000 0.17039 0.15414
 C2979 C 0.79029 0.16065 0.12975
 C2980 C 0.79329 0.17435 0.10833
 C2981 C 0.79770 0.19794 0.11145
 C2982 C 0.79828 0.20786 0.13598
 C2983 C 0.79134 0.20447 0.18257
 C2984 C 0.79415 0.22810 0.18558
 C2985 C 0.78906 0.23806 0.20933
 C2986 C 0.77943 0.22463 0.22936
 C2987 C 0.77728 0.20089 0.22575
 C2988 C 0.78380 0.19076 0.20289
 C2989 C 0.80195 0.23141 0.13982
 C2990 C 0.80017 0.24134 0.16424
 C2991 C 0.78434 0.15710 0.17544
 C2992 C 0.78097 0.16715 0.19939
 H2993 H 0.80560 0.24231 0.12374
 H2994 H 0.80244 0.25960 0.16623
 H2995 H 0.78137 0.13889 0.17335
 H2996 H 0.77542 0.15642 0.21513
 H2997 H 0.78651 0.14253 0.12727
 H2998 H 0.79992 0.20846 0.09488
 H2999 H 0.79036 0.25634 0.21126
 H3000 H 0.76834 0.19005 0.23941
 C3001 C 0.72797 0.18053 0.87217
 C3002 C 0.72371 0.19220 0.89504
 C3003 C 0.72795 0.18218 0.91821
 C3004 C 0.73638 0.16064 0.91847
 C3005 C 0.74000 0.14905 0.89529
 C3006 C 0.73603 0.15895 0.87215
 C3007 C 0.72526 0.19161 0.84774
 C3008 C 0.73138 0.18059 0.82513
 C3009 C 0.73181 0.19221 0.80238
 C3010 C 0.72576 0.21473 0.80156
 C3011 C 0.71807 0.22496 0.82434
 C3012 C 0.71830 0.21364 0.84758
 C3013 C 0.74080 0.14801 0.84896
 C3014 C 0.73864 0.15871 0.82584
 C3015 C 0.71593 0.21391 0.89417
 C3016 C 0.71322 0.22441 0.87087
 H3017 H 0.74693 0.13132 0.84870
 H3018 H 0.74329 0.15001 0.80840
 H3019 H 0.71240 0.22308 0.91165
 H3020 H 0.70780 0.24139 0.87113
 H3021 H 0.72491 0.19116 0.93597
 H3022 H 0.74683 0.13268 0.89520
 H3023 H 0.73901 0.18416 0.78582
 H3024 H 0.71385 0.24237 0.82442
 C3025 C 0.23590 0.68952 0.35172
 C3026 C 0.23177 0.69980 0.37544
 C3027 C 0.23699 0.68872 0.39765
 C3028 C 0.24681 0.66779 0.39606
 C3029 C 0.25079 0.65798 0.37194
 C3030 C 0.24519 0.66855 0.34988
 C3031 C 0.23178 0.70152 0.32829
 C3032 C 0.23741 0.69167 0.30488
 C3033 C 0.23682 0.70420 0.28305
 C3034 C 0.23036 0.72664 0.28365
 C3035 C 0.22312 0.73574 0.30727
 C3036 C 0.22421 0.72333 0.32976
 C3037 C 0.24946 0.65878 0.32593
 C3038 C 0.24560 0.67016 0.30377
 C3039 C 0.22308 0.72116 0.37631
 C3040 C 0.21946 0.73275 0.35389
 H3041 H 0.25642 0.64250 0.32431
 H3042 H 0.24984 0.66240 0.28562
 H3043 H 0.21966 0.72929 0.39447
 H3044 H 0.21352 0.74949 0.35550
 H3045 H 0.23353 0.69643 0.41603
 H3046 H 0.25896 0.64237 0.37012
 H3047 H 0.24416 0.69697 0.26615
 H3048 H 0.21872 0.75308 0.30853
 C3049 C 0.77407 0.80670 0.35378
 C3050 C 0.77845 0.79514 0.37584
 C3051 C 0.77706 0.80642 0.39957
 C3052 C 0.77186 0.82915 0.40095
 C3053 C 0.76842 0.84066 0.37860
 C3054 C 0.76903 0.82942 0.35502
 C3055 C 0.77328 0.79441 0.32910
 C3056 C 0.76637 0.80536 0.30778
 C3057 C 0.76234 0.79291 0.28540
 C3058 C 0.76651 0.76984 0.28315
 C3059 C 0.77491 0.75945 0.30442
 C3060 C 0.77762 0.77151 0.32770
 C3061 C 0.76364 0.84018 0.33282
 C3062 C 0.76204 0.82825 0.30962
 C3063 C 0.78336 0.77239 0.37368
 C3064 C 0.78315 0.76084 0.35000
 H3065 H 0.75978 0.85770 0.33357
 H3066 H 0.75692 0.83688 0.29309
 H3067 H 0.78697 0.76330 0.39049
 H3068 H 0.78654 0.74319 0.34930
 H3069 H 0.77969 0.79759 0.41689
 H3070 H 0.76414 0.85807 0.37978
 H3071 H 0.75413 0.80108 0.27056
 H3072 H 0.77751 0.74160 0.30356
 C3073 C 0.26456 0.31242 0.86715
 C3074 C 0.27056 0.30257 0.88968
 C3075 C 0.26745 0.31417 0.91300
 C3076 C 0.25816 0.33535 0.91376
 C3077 C 0.25260 0.34496 0.89079
 C3078 C 0.25574 0.33364 0.86756
 C3079 C 0.26633 0.29977 0.84279
 C3080 C 0.25885 0.30915 0.82073
 C3081 C 0.25786 0.29619 0.79834
 C3082 C 0.26448 0.27384 0.79727
 C3083 C 0.27326 0.26514 0.81936
 C3084 C 0.27387 0.27796 0.84231
 C3085 C 0.24942 0.34285 0.84479
 C3086 C 0.25091 0.33078 0.82175
 C3087 C 0.27891 0.28106 0.88841
 C3088 C 0.28052 0.26898 0.86516
 H3089 H 0.24271 0.35926 0.84487
 H3090 H 0.24519 0.33818 0.80471
 H3091 H 0.28374 0.27327 0.90561
 H3092 H 0.28644 0.25221 0.86520
 H3093 H 0.27202 0.30665 0.93048
 H3094 H 0.24494 0.36089 0.89099
 H3095 H 0.24989 0.30312 0.78244
 H3096 H 0.27796 0.24789 0.81925
 C3097 C 0.78729 0.36619 0.76901
 C3098 C 0.77439 0.38207 0.78142
 C3099 C 0.78187 0.40527 0.78020
 C3100 C 0.80181 0.41230 0.76618
 C3101 C 0.81355 0.39600 0.75273
 C3102 C 0.80682 0.37308 0.75463
 C3103 C 0.78011 0.34187 0.77066
 C3104 C 0.79340 0.32635 0.75847
 C3105 C 0.78622 0.30353 0.75884
 C3106 C 0.76521 0.29559 0.77011
 C3107 C 0.75227 0.31137 0.78309
 C3108 C 0.75979 0.33465 0.78350
 C3109 C 0.81954 0.35693 0.74254
 C3110 C 0.81305 0.33389 0.74465
 C3111 C 0.75445 0.37429 0.79480
 C3112 C 0.74716 0.35103 0.79558
 H3113 H 0.83468 0.36214 0.73147
 H3114 H 0.82324 0.32189 0.73494
 H3115 H 0.74425 0.38629 0.80447
 H3116 H 0.73146 0.34585 0.80564
 H3117 H 0.77254 0.41766 0.79046
 H3118 H 0.82827 0.40112 0.74094
 H3119 H 0.79610 0.29235 0.74759
 H3120 H 0.73603 0.30578 0.79174
 C3121 C 0.30109 0.87543 0.26843
 C3122 C 0.28846 0.89152 0.28072
 C3123 C 0.29800 0.91406 0.28321
 C3124 C 0.32040 0.92046 0.27401
 C3125 C 0.33258 0.90341 0.26207
 C3126 C 0.32305 0.88131 0.25898
 C3127 C 0.29096 0.85207 0.26460
 C3128 C 0.30327 0.83669 0.25076
 C3129 C 0.29338 0.81510 0.24579
 C3130 C 0.27160 0.80778 0.25548
 C3131 C 0.25941 0.82339 0.26974
 C3132 C 0.26897 0.84578 0.27400
 C3133 C 0.33500 0.86515 0.24576
 C3134 C 0.32518 0.84322 0.24151
 C3135 C 0.26650 0.88469 0.29007
 C3136 C 0.25699 0.86220 0.28691
 H3137 H 0.35197 0.86958 0.23827
 H3138 H 0.33480 0.83130 0.23085
 H3139 H 0.25652 0.89685 0.29979
 H3140 H 0.24001 0.85775 0.29430
 H3141 H 0.28813 0.92615 0.29317
 H3142 H 0.34898 0.90738 0.25300
 H3143 H 0.30266 0.80427 0.23336
 H3144 H 0.24243 0.81840 0.27678
 C3145 C 0.21280 0.85511 0.73643
 C3146 C 0.22017 0.87215 0.75400
 C3147 C 0.21148 0.89329 0.75314
 C3148 C 0.19559 0.89753 0.73480
 C3149 C 0.18892 0.88042 0.71682
 C3150 C 0.19728 0.85908 0.71774
 C3151 C 0.22092 0.83246 0.73819
 C3152 C 0.21276 0.81509 0.72141
 C3153 C 0.21946 0.79324 0.72421
 C3154 C 0.23390 0.78863 0.74391
 C3155 C 0.24299 0.80666 0.75953
 C3156 C 0.23615 0.82844 0.75713
 C3157 C 0.18997 0.84146 0.70081
 C3158 C 0.19751 0.81979 0.70268
 C3159 C 0.23560 0.86752 0.77255
 C3160 C 0.24355 0.84604 0.77401
 H3161 H 0.17798 0.84432 0.68630
 H3162 H 0.19110 0.80653 0.68960
 H3163 H 0.24139 0.88054 0.78622
 H3164 H 0.25521 0.84306 0.78882
 H3165 H 0.21644 0.90612 0.76738
 H3166 H 0.17695 0.88357 0.70241
 H3167 H 0.21296 0.77982 0.71145
 H3168 H 0.25434 0.80365 0.77460
 C3169 C 0.70783 0.35930 0.24608
 C3170 C 0.71677 0.37843 0.25978
 C3171 C 0.70663 0.39881 0.25809
 C3172 C 0.68726 0.40005 0.24335
 C3173 C 0.67882 0.38072 0.22933
 C3174 C 0.68907 0.36033 0.23058
 C3175 C 0.71783 0.33758 0.24867
 C3176 C 0.70866 0.31837 0.23530
 C3177 C 0.71751 0.29755 0.23878
 C3178 C 0.73439 0.29549 0.25674
 C3179 C 0.74433 0.31530 0.26880
 C3180 C 0.73594 0.33632 0.26503
 C3181 C 0.68056 0.34078 0.21721
 C3182 C 0.69027 0.32018 0.21942
 C3183 C 0.73532 0.37665 0.27544
 C3184 C 0.74469 0.35592 0.27810
 H3185 H 0.66610 0.34134 0.20517
 H3186 H 0.68296 0.30542 0.20910
 H3187 H 0.74239 0.39129 0.28612
 H3188 H 0.75866 0.35517 0.29079
 H3189 H 0.71360 0.41360 0.26860
 H3190 H 0.66376 0.38123 0.21823
 H3191 H 0.71064 0.28293 0.22804
 H3192 H 0.75774 0.31430 0.28217
 C3193 C 0.69475 0.62169 0.26037
 C3194 C 0.67379 0.61498 0.24956
 C3195 C 0.66503 0.59247 0.25103
 C3196 C 0.67672 0.57651 0.26356
 C3197 C 0.69788 0.58342 0.27424
 C3198 C 0.70701 0.60611 0.27262
 C3199 C 0.70416 0.64543 0.25832
 C3200 C 0.72545 0.65230 0.26832
 C3201 C 0.73461 0.67489 0.26528
 C3202 C 0.72254 0.69035 0.25223
 C3203 C 0.70101 0.68281 0.24289
 C3204 C 0.69186 0.66065 0.24573
 C3205 C 0.72813 0.61361 0.28280
 C3206 C 0.73720 0.63627 0.28063
 C3207 C 0.66197 0.63085 0.23726
 C3208 C 0.67085 0.65334 0.23541
 H3209 H 0.73782 0.60182 0.29234
 H3210 H 0.75362 0.64122 0.28851
 H3211 H 0.64577 0.62581 0.22889
 H3212 H 0.66129 0.66508 0.22560
 H3213 H 0.64916 0.58732 0.24197
 H3214 H 0.70707 0.57129 0.28389
 H3215 H 0.75123 0.68019 0.27244
 H3216 H 0.69162 0.69380 0.23193
 C3217 C 0.20536 0.12111 0.77633
 C3218 C 0.22002 0.10669 0.78688
 C3219 C 0.21356 0.08332 0.78747
 C3220 C 0.19249 0.07481 0.77800
 C3221 C 0.17780 0.08954 0.76823
 C3222 C 0.18425 0.11266 0.76698
 C3223 C 0.21258 0.14537 0.77401
 C3224 C 0.19852 0.15926 0.76181
 C3225 C 0.20601 0.18181 0.75795
 C3226 C 0.22704 0.19118 0.76702
 C3227 C 0.24079 0.17705 0.77979
 C3228 C 0.23376 0.15399 0.78295
 C3229 C 0.17035 0.12732 0.75568
 C3230 C 0.17746 0.15024 0.75293
 C3231 C 0.24101 0.11592 0.79593
 C3232 C 0.24769 0.13919 0.79415
 H3233 H 0.15407 0.12092 0.74837
 H3234 H 0.16648 0.16095 0.74359
 H3235 H 0.25246 0.10504 0.80421
 H3236 H 0.26410 0.14556 0.80114
 H3237 H 0.22491 0.07179 0.79475
 H3238 H 0.16174 0.08276 0.76060
 H3239 H 0.19566 0.19173 0.74678
 H3240 H 0.25724 0.18370 0.78638
 C3241 C 0.28857 0.13554 0.24898
 C3242 C 0.30225 0.12872 0.22854
 C3243 C 0.31180 0.10801 0.22953
 C3244 C 0.30759 0.09391 0.25063
 C3245 C 0.29322 0.10079 0.27064
 C3246 C 0.28394 0.12174 0.27007
 C3247 C 0.27950 0.15788 0.24860
 C3248 C 0.26657 0.16515 0.26945
 C3249 C 0.25914 0.18698 0.26959
 C3250 C 0.26498 0.20162 0.24925
 C3251 C 0.27675 0.19337 0.22788
 C3252 C 0.28448 0.17178 0.22768
 C3253 C 0.27054 0.12938 0.29039
 C3254 C 0.26206 0.15076 0.29013
 C3255 C 0.30657 0.14299 0.20775
 C3256 C 0.29773 0.16413 0.20727
 H3257 H 0.26689 0.11892 0.30683
 H3258 H 0.25219 0.15620 0.30640
 H3259 H 0.31705 0.13788 0.19183
 H3260 H 0.30170 0.17478 0.19103
 H3261 H 0.32318 0.10334 0.21423
 H3262 H 0.28945 0.09003 0.28680
 H3263 H 0.24985 0.19287 0.28609
 H3264 H 0.28048 0.20384 0.21159
 C3265 C 0.77822 0.63386 0.73873
 C3266 C 0.79444 0.62783 0.72052
 C3267 C 0.80279 0.60648 0.72154
 C3268 C 0.79479 0.59104 0.74042
 C3269 C 0.77778 0.59715 0.75786
 C3270 C 0.76976 0.61865 0.75740
 C3271 C 0.77047 0.65680 0.73878
 C3272 C 0.75510 0.66316 0.75775
 C3273 C 0.74895 0.68539 0.75875
 C3274 C 0.75822 0.70145 0.74108
 C3275 C 0.77243 0.69424 0.72119
 C3276 C 0.77908 0.67213 0.72032
 C3277 C 0.75390 0.62545 0.77567
 C3278 C 0.74678 0.64738 0.77593
 C3279 C 0.80245 0.64353 0.70209
 C3280 C 0.79479 0.66526 0.70189
 H3281 H 0.74727 0.61387 0.79019
 H3282 H 0.73490 0.65212 0.79068
 H3283 H 0.81493 0.63906 0.68786
 H3284 H 0.80160 0.67695 0.68756
 H3285 H 0.81611 0.60231 0.70823
 H3286 H 0.77103 0.58536 0.77211
 H3287 H 0.73768 0.69026 0.77403
 H3288 H 0.77889 0.70586 0.70682
 C3289 C 0.86486 0.75334 0.19860
 C3290 C 0.88138 0.74316 0.21170
 C3291 C 0.90378 0.74432 0.20177
 C3292 C 0.90995 0.75607 0.17897
 C3293 C 0.89260 0.76631 0.16657
 C3294 C 0.87034 0.76485 0.17606
 C3295 C 0.84120 0.75155 0.20831
 C3296 C 0.82471 0.76086 0.19432
 C3297 C 0.80225 0.75845 0.20281
 C3298 C 0.79581 0.74751 0.22578
 C3299 C 0.81267 0.73845 0.23992
 C3300 C 0.83544 0.74022 0.23103
 C3301 C 0.85333 0.77434 0.16290
 C3302 C 0.83086 0.77228 0.17182
 C3303 C 0.87510 0.73199 0.23447
 C3304 C 0.85258 0.73066 0.24402
 H3305 H 0.85736 0.78323 0.14540
 H3306 H 0.81818 0.77963 0.16097
 H3307 H 0.88766 0.72414 0.24497
 H3308 H 0.84853 0.72184 0.26155
 H3309 H 0.91633 0.73683 0.21261
 H3310 H 0.89564 0.77416 0.14833
 H3311 H 0.78980 0.76549 0.19137
 H3312 H 0.80806 0.72972 0.25739
 C3313 C 0.36624 0.25114 0.71412
 C3314 C 0.38158 0.23835 0.72602
 C3315 C 0.40324 0.23676 0.71481
 C3316 C 0.40943 0.24795 0.69194
 C3317 C 0.39404 0.26149 0.68109
 C3318 C 0.37239 0.26280 0.69175
 C3319 C 0.34300 0.25166 0.72467
 C3320 C 0.32743 0.26315 0.71159
 C3321 C 0.30498 0.26197 0.72014
 C3322 C 0.29778 0.25043 0.74252
 C3323 C 0.31387 0.23956 0.75601
 C3324 C 0.33648 0.23981 0.74684
 C3325 C 0.35653 0.27501 0.67994
 C3326 C 0.33434 0.27501 0.68957
 C3327 C 0.37465 0.22698 0.74844
 C3328 C 0.35255 0.22780 0.75874
 H3329 H 0.36114 0.28412 0.66271
 H3330 H 0.32240 0.28412 0.67952
 H3331 H 0.38631 0.21712 0.75793
 H3332 H 0.34787 0.21854 0.77585
 H3333 H 0.41492 0.22629 0.72338
 H3334 H 0.39877 0.27075 0.66399
 H3335 H 0.29301 0.26980 0.70879
 H3336 H 0.30864 0.23010 0.77282
 C3337 C 0.36186 0.73673 0.80457
 C3338 C 0.36440 0.72661 0.82802
 C3339 C 0.38580 0.72786 0.83881
 C3340 C 0.40467 0.73964 0.82676
 C3341 C 0.40188 0.74936 0.80292
 C3342 C 0.38048 0.74790 0.79172
 C3343 C 0.33916 0.73597 0.79353
 C3344 C 0.33645 0.74609 0.77009
 C3345 C 0.31465 0.74568 0.75998
 C3346 C 0.29561 0.73566 0.77350
 C3347 C 0.29891 0.72563 0.79705
 C3348 C 0.32053 0.72550 0.80693
 C3349 C 0.37717 0.75770 0.76818
 C3350 C 0.35558 0.75672 0.75751
 C3351 C 0.34539 0.71576 0.84050
 C3352 C 0.32381 0.71531 0.83019
 H3353 H 0.39136 0.76632 0.75798
 H3354 H 0.35381 0.76460 0.73941
 H3355 H 0.34716 0.70784 0.85859
 H3356 H 0.30955 0.70704 0.84062
 H3357 H 0.38771 0.71975 0.85676
 H3358 H 0.41615 0.75856 0.79344
 H3359 H 0.31251 0.75349 0.74191
 H3360 H 0.28466 0.71767 0.80776
 C3361 C 0.86665 0.24574 0.31929
 C3362 C 0.86925 0.23684 0.34339
 C3363 C 0.89101 0.23630 0.35294
 C3364 C 0.91030 0.24522 0.33905
 C3365 C 0.90733 0.25391 0.31466
 C3366 C 0.88553 0.25405 0.30465
 C3367 C 0.84366 0.24647 0.30932
 C3368 C 0.84088 0.25492 0.28500
 C3369 C 0.81886 0.25525 0.27554
 C3370 C 0.79974 0.24758 0.29053
 C3371 C 0.80313 0.23970 0.31518
 C3372 C 0.82489 0.23873 0.32440
 C3373 C 0.88213 0.26253 0.28043
 C3374 C 0.86024 0.26281 0.27072
 C3375 C 0.84999 0.22888 0.35769
 C3376 C 0.82819 0.22994 0.34842
 H3377 H 0.89651 0.26897 0.26884
 H3378 H 0.85846 0.26941 0.25194
 H3379 H 0.85177 0.22197 0.37632
 H3380 H 0.81378 0.22376 0.36015
 H3381 H 0.89285 0.22892 0.37131
 H3382 H 0.92184 0.26102 0.30372
 H3383 H 0.81665 0.26137 0.25662
 H3384 H 0.78889 0.23349 0.32709
 C3385 C 0.13685 0.26160 0.30457
 C3386 C 0.13411 0.26792 0.33023
 C3387 C 0.11230 0.26713 0.34121
 C3388 C 0.09313 0.26018 0.32679
 C3389 C 0.09619 0.25388 0.30099
 C3390 C 0.11807 0.25454 0.28979
 C3391 C 0.15990 0.26188 0.29315
 C3392 C 0.16280 0.25495 0.26770
 C3393 C 0.18484 0.25434 0.25730
 C3394 C 0.20395 0.26083 0.27210
 C3395 C 0.20047 0.26772 0.29766
 C3396 C 0.17861 0.26837 0.30819
 C3397 C 0.12162 0.24809 0.26423
 C3398 C 0.14359 0.24824 0.25339
 C3399 C 0.15327 0.27462 0.34456
 C3400 C 0.17514 0.27483 0.33373
 H3401 H 0.10732 0.24265 0.25255
 H3402 H 0.14555 0.24289 0.23371
 H3403 H 0.15136 0.27955 0.36439
 H3404 H 0.18947 0.27989 0.34552
 H3405 H 0.11033 0.27146 0.36120
 H3406 H 0.08162 0.24860 0.28965
 H3407 H 0.18703 0.24815 0.23797
 H3408 H 0.21471 0.27191 0.30982
 C3409 C 0.63062 0.75531 0.80306
 C3410 C 0.61216 0.75662 0.78717
 C3411 C 0.59004 0.75468 0.79781
 C3412 C 0.58642 0.75120 0.82409
 C3413 C 0.60526 0.75024 0.83965
 C3414 C 0.62732 0.75222 0.82928
 C3415 C 0.65386 0.75681 0.79201
 C3416 C 0.67216 0.75506 0.80792
 C3417 C 0.69408 0.75567 0.79735
 C3418 C 0.69813 0.75816 0.77093
 C3419 C 0.67945 0.75999 0.75525
 C3420 C 0.65729 0.75938 0.76572
 C3421 C 0.64614 0.75092 0.84463
 C3422 C 0.66818 0.75230 0.83413
 C3423 C 0.61626 0.75952 0.76096
 C3424 C 0.63840 0.76084 0.75043
 H3425 H 0.64381 0.74861 0.86491
 H3426 H 0.68221 0.75099 0.84661
 H3427 H 0.60222 0.76058 0.74844
 H3428 H 0.64073 0.76285 0.73011
 H3429 H 0.57568 0.75538 0.78565
 H3430 H 0.60276 0.74805 0.85994
 H3431 H 0.70799 0.75389 0.80986
 H3432 H 0.68189 0.76125 0.73493
 C3433 C 0.62534 0.23681 0.72136
 C3434 C 0.61057 0.25156 0.73271
 C3435 C 0.58936 0.25334 0.72187
 C3436 C 0.58294 0.24004 0.70029
 C3437 C 0.59770 0.22489 0.68972
 C3438 C 0.61905 0.22349 0.69986
 C3439 C 0.64823 0.23601 0.73141
 C3440 C 0.66346 0.22276 0.71856
 C3441 C 0.68573 0.22372 0.72642
 C3442 C 0.69299 0.23664 0.74807
 C3443 C 0.67717 0.24930 0.76138
 C3444 C 0.65485 0.24941 0.75273
 C3445 C 0.63451 0.20960 0.68832
 C3446 C 0.65645 0.20943 0.69736
 C3447 C 0.61760 0.26452 0.75426
 C3448 C 0.63927 0.26332 0.76421
 H3449 H 0.62982 0.19925 0.67175
 H3450 H 0.66813 0.19896 0.68749
 H3451 H 0.60634 0.27587 0.76335
 H3452 H 0.64405 0.27381 0.78064
 H3453 H 0.57795 0.26505 0.72999
 H3454 H 0.59289 0.21491 0.67290
 H3455 H 0.69759 0.21480 0.71488
 H3456 H 0.68248 0.25995 0.77750
 C3457 C 0.13103 0.75088 0.20119
 C3458 C 0.11515 0.76369 0.21375
 C3459 C 0.09380 0.76497 0.20290
 C3460 C 0.08859 0.75366 0.17958
 C3461 C 0.10459 0.74034 0.16788
 C3462 C 0.12581 0.73908 0.17837
 C3463 C 0.15386 0.75035 0.21160
 C3464 C 0.16984 0.73842 0.19818
 C3465 C 0.19183 0.73917 0.20690
 C3466 C 0.19830 0.75113 0.22949
 C3467 C 0.18181 0.76264 0.24321
 C3468 C 0.15955 0.76247 0.23412
 C3469 C 0.14212 0.72668 0.16603
 C3470 C 0.16382 0.72645 0.17571
 C3471 C 0.12124 0.77532 0.23650
 C3472 C 0.14300 0.77468 0.24653
 H3473 H 0.13824 0.71746 0.14846
 H3474 H 0.17609 0.71705 0.16532
 H3475 H 0.10918 0.78524 0.24650
 H3476 H 0.14700 0.78414 0.26391
 H3477 H 0.08161 0.77528 0.21208
 H3478 H 0.10061 0.73115 0.15031
 H3479 H 0.20406 0.73065 0.19545
 H3480 H 0.18646 0.77234 0.26024
   
