data_POSCAR
  _audit_creation_date              2014-09-24
  _audit_creation_method            'ToBaCCo'
  _symmetry_space_group_name_H-M    'P1'
  _symmetry_Int_Tables_number       1
  _symmetry_cell_setting            triclinic
  loop_
  _symmetry_equiv_pos_as_xyz
 x,y,z
_cell_length_a 51.3204
_cell_length_b 53.7839
_cell_length_c 53.3650
_cell_angle_alpha 89.818500
_cell_angle_beta 89.682700
_cell_angle_gamma 90.125200
loop_
  _atom_site_label
  _atom_site_type_symbol
  _atom_site_fract_x
  _atom_site_fract_y
  _atom_site_fract_z
O1 O 0.36114 0.32616 -0.02826
 O2 O 0.32909 0.35832 0.02396
 O3 O 0.36305 0.32226 0.01975
 O4 O 0.32771 0.36170 -0.02459
 O5 O 0.29560 0.33449 -0.02591
 O6 O 0.33043 0.29542 0.02039
 O7 O 0.29641 0.33166 0.02275
 O8 O 0.32973 0.29807 -0.02849
 Cu9 Cu 0.34838 0.34487 -0.00207
 Cu10 Cu 0.30980 0.31215 -0.00288
 C11 C 0.35121 0.30643 -0.03708
 C12 C 0.30707 0.35087 0.03201
 C13 C 0.35303 0.30202 0.02744
 C14 C 0.30571 0.35498 -0.03303
 O15 O 0.67256 0.63985 0.02418
 O16 O 0.63900 0.67640 -0.02370
 O17 O 0.67060 0.63898 -0.02431
 O18 O 0.64119 0.67717 0.02487
 O19 O 0.67408 0.70361 0.02256
 O20 O 0.70450 0.66413 -0.02618
 O21 O 0.67239 0.70222 -0.02617
 O22 O 0.70608 0.66559 0.02263
 Cu23 Cu 0.65251 0.65556 0.00042
 Cu24 Cu 0.69267 0.68649 -0.00203
 C25 C 0.69498 0.64636 0.03167
 C26 C 0.64976 0.69557 -0.03309
 C27 C 0.69268 0.64468 -0.03355
 C28 C 0.65241 0.69692 0.03208
 O29 O 0.67263 0.35172 0.97539
 O30 O 0.64416 0.31914 1.02939
 O31 O 0.67652 0.35539 1.02383
 O32 O 0.63978 0.31503 0.98182
 O33 O 0.67270 0.28874 0.97991
 O34 O 0.70929 0.32899 1.02387
 O35 O 0.67618 0.29183 1.02845
 O36 O 0.70598 0.32590 0.97529
 Cu37 Cu 0.65512 0.33806 1.00250
 Cu38 Cu 0.69439 0.30621 1.00176
 C39 C 0.69436 0.34476 0.96638
 C40 C 0.65492 0.29966 1.03788
 C41 C 0.69903 0.34920 1.03134
 C42 C 0.64955 0.29478 0.97412
 O43 O 0.36345 0.67909 1.02344
 O44 O 0.32616 0.64256 0.97820
 O45 O 0.35911 0.67862 0.97559
 O46 O 0.33084 0.64184 1.02680
 O47 O 0.29742 0.66737 1.02923
 O48 O 0.32753 0.70617 0.97928
 O49 O 0.29372 0.66933 0.98058
 O50 O 0.33035 0.70486 1.02808
 Cu51 Cu 0.34804 0.65778 1.00086
 Cu52 Cu 0.30894 0.68960 1.00464
 C53 C 0.35351 0.69837 1.03322
 C54 C 0.30375 0.64977 0.97137
 C55 C 0.34855 0.69887 0.96891
 C56 C 0.30912 0.64784 1.03655
 O57 O 0.02354 0.32454 0.36068
 O58 O -0.02320 0.35999 0.32338
 O59 O -0.02709 0.32603 0.35860
 O60 O 0.02659 0.35861 0.32696
 O61 O 0.02676 0.33044 0.29697
 O62 O -0.02562 0.29610 0.33053
 O63 O -0.02400 0.33019 0.29502
 O64 O 0.02500 0.29553 0.33154
 Cu65 Cu -0.00036 0.34511 0.34538
 Cu66 Cu 0.00054 0.31011 0.31059
 C67 C 0.03252 0.30416 0.35243
 C68 C -0.03120 0.35145 0.30265
 C69 C -0.03518 0.30520 0.35055
 C70 C 0.03565 0.35042 0.30643
 O71 O 0.02033 0.67418 0.63905
 O72 O -0.02791 0.63737 0.67368
 O73 O -0.02949 0.67130 0.63977
 O74 O 0.02285 0.63914 0.67308
 O75 O 0.02097 0.66662 0.70362
 O76 O -0.02932 0.70109 0.66804
 O77 O -0.02996 0.66621 0.70293
 O78 O 0.02124 0.70194 0.66945
 Cu79 Cu -0.00326 0.65253 0.65358
 Cu80 Cu -0.00436 0.68678 0.68909
 C81 C 0.02868 0.69450 0.64800
 C82 C -0.03758 0.64559 0.69395
 C83 C -0.03796 0.69203 0.64767
 C84 C 0.03060 0.64698 0.69418
 O85 O 1.02560 0.63678 0.32609
 O86 O 0.97482 0.66965 0.36127
 O87 O 0.97511 0.63682 0.32594
 O88 O 1.02544 0.66987 0.36126
 O89 O 1.02533 0.70026 0.33348
 O90 O 0.97559 0.66626 0.29704
 O91 O 0.97460 0.69963 0.33296
 O92 O 1.02627 0.66664 0.29766
 Cu93 Cu 1.00024 0.65034 0.34647
 Cu94 Cu 1.00050 0.68623 0.31242
 C95 C 1.03452 0.64586 0.30580
 C96 C 0.96600 0.69022 0.35328
 C97 C 0.96692 0.64565 0.30535
 C98 C 1.03386 0.69085 0.35374
 O99 O 0.97819 0.32773 0.63915
 O100 O 1.02726 0.36323 0.67352
 O101 O 1.02862 0.32853 0.64022
 O102 O 0.97669 0.36257 0.67245
 O103 O 0.97632 0.33476 0.70293
 O104 O 1.02775 0.29956 0.66952
 O105 O 1.02721 0.33499 0.70360
 O106 O 0.97724 0.29940 0.66914
 Cu107 Cu 1.00273 0.34835 0.65340
 Cu108 Cu 1.00212 0.31436 0.68939
 C109 C 0.96941 0.30744 0.64806
 C110 C 1.03567 0.35531 0.69438
 C111 C 1.03685 0.30802 0.64895
 C112 C 0.96766 0.35469 0.69320
 O113 O 0.32354 -0.02633 0.35572
 O114 O 0.35255 0.02530 0.32065
 O115 O 0.31914 0.02167 0.35678
 O116 O 0.35637 -0.02276 0.31892
 O117 O 0.32420 -0.02490 0.29173
 O118 O 0.28702 0.02044 0.32951
 O119 O 0.32110 0.02330 0.29265
 O120 O 0.29085 -0.02800 0.32911
 Cu121 Cu 0.34109 -0.00038 0.34072
 Cu122 Cu 0.30249 -0.00247 0.30802
 C123 C 0.30221 -0.03592 0.34869
 C124 C 0.34208 0.03302 0.30062
 C125 C 0.29676 0.02874 0.34968
 C126 C 0.34679 -0.03139 0.29883
 O127 O 0.64317 0.01810 0.68257
 O128 O 0.68436 -0.02025 0.64185
 O129 O 0.64926 -0.02894 0.67627
 O130 O 0.67713 0.02694 0.64722
 O131 O 0.70986 0.02613 0.67385
 O132 O 0.67821 -0.02690 0.70663
 O133 O 0.71406 -0.02233 0.67158
 O134 O 0.67511 0.02114 0.70995
 Cu135 Cu 0.66044 -0.00108 0.65910
 Cu136 Cu 0.69753 -0.00043 0.69334
 C137 C 0.65201 0.02617 0.70319
 C138 C 0.70611 -0.02808 0.64985
 C139 C 0.65822 -0.03694 0.69689
 C140 C 0.69857 0.03572 0.65499
 O141 O 0.35856 0.97403 0.67547
 O142 O 0.32568 1.02280 0.63976
 O143 O 0.36027 1.02220 0.67457
 O144 O 0.32358 0.97463 0.64049
 O145 O 0.29227 0.97599 0.66895
 O146 O 0.32941 1.02383 0.70346
 O147 O 0.29429 1.02437 0.66813
 O148 O 0.32780 0.97541 0.70446
 Cu149 Cu 0.34510 0.99819 0.65472
 Cu150 Cu 0.30778 0.99995 0.68917
 C151 C 0.34912 0.96656 0.69619
 C152 C 0.30445 1.03197 0.64772
 C153 C 0.35122 1.03121 0.69478
 C154 C 0.30155 0.96734 0.64863
 O155 O 0.63908 0.97956 0.32620
 O156 O 0.67154 1.02469 0.36671
 O157 O 0.63723 1.02685 0.33171
 O158 O 0.67356 0.97642 0.36203
 O159 O 0.70596 0.98149 0.33514
 O160 O 0.66792 1.03027 0.30278
 O161 O 0.70279 1.02967 0.33865
 O162 O 0.67149 0.98205 0.29889
 Cu163 Cu 0.65233 1.00130 0.34956
 Cu164 Cu 0.69026 1.00624 0.31606
 C165 C 0.64944 0.97337 0.30551
 C166 C 0.69250 1.03525 0.35963
 C167 C 0.64602 1.03689 0.31183
 C168 C 0.69613 0.97062 0.35415
 C169 C 0.86114 0.78462 0.47683
 C170 C 0.86905 0.77499 0.49992
 C171 C 0.86260 0.78658 0.52252
 C172 C 0.84771 0.80868 0.52217
 C173 C 0.83874 0.81826 0.49892
 C174 C 0.84550 0.80621 0.47615
 C175 C 0.83598 0.81572 0.45342
 C176 C 0.82008 0.83666 0.45299
 C177 C 0.81314 0.84888 0.47527
 C178 C 0.82267 0.83974 0.49847
 C179 C 0.84124 0.82123 0.54437
 C180 C 0.82616 0.84271 0.54385
 C181 C 0.81601 0.85191 0.52123
 C182 C 0.79964 0.87311 0.52060
 C183 C 0.79063 0.88187 0.49748
 C184 C 0.79696 0.87008 0.47500
 H185 H 0.84048 0.80685 0.43575
 H186 H 0.81326 0.84323 0.43499
 H187 H 0.84783 0.81461 0.56241
 H188 H 0.82257 0.85197 0.56148
 H189 H 0.88086 0.75828 0.50029
 H190 H 0.77765 0.89777 0.49699
 C191 C 0.13641 0.21277 0.47909
 C192 C 0.12882 0.22297 0.50204
 C193 C 0.13837 0.21398 0.52479
 C194 C 0.15612 0.19390 0.52477
 C195 C 0.16398 0.18322 0.50159
 C196 C 0.15415 0.19271 0.47866
 C197 C 0.16303 0.18251 0.45595
 C198 C 0.18094 0.16312 0.45570
 C199 C 0.19077 0.15326 0.47813
 C200 C 0.18236 0.16353 0.50131
 C201 C 0.16689 0.18480 0.54714
 C202 C 0.18486 0.16546 0.54685
 C203 C 0.19288 0.15463 0.52417
 C204 C 0.21174 0.13559 0.52365
 C205 C 0.21972 0.12559 0.50077
 C206 C 0.20953 0.13401 0.47806
 H207 H 0.15654 0.18966 0.43809
 H208 H 0.18736 0.15625 0.43766
 H209 H 0.16183 0.19277 0.56510
 H210 H 0.19269 0.15928 0.56460
 H211 H 0.11510 0.23830 0.50218
 H212 H 0.23422 0.11093 0.50066
 C213 C 0.21471 0.85955 0.47670
 C214 C 0.22284 0.86979 0.49938
 C215 C 0.21128 0.86299 0.52218
 C216 C 0.19088 0.84523 0.52242
 C217 C 0.18285 0.83419 0.49956
 C218 C 0.19482 0.84138 0.47661
 C219 C 0.18707 0.82981 0.45428
 C220 C 0.16784 0.81153 0.45440
 C221 C 0.15543 0.80432 0.47682
 C222 C 0.16308 0.81566 0.49967
 C223 C 0.17862 0.83789 0.54486
 C224 C 0.15885 0.82015 0.54492
 C225 C 0.15118 0.80837 0.52266
 C226 C 0.13174 0.78966 0.52263
 C227 C 0.12459 0.77868 0.49995
 C228 C 0.13599 0.78565 0.47715
 H229 H 0.19611 0.83453 0.43651
 H230 H 0.16301 0.80293 0.43673
 H231 H 0.18422 0.84574 0.56267
 H232 H 0.14972 0.81575 0.56269
 H233 H 0.23824 0.88366 0.49924
 H234 H 0.10979 0.76423 0.50004
 C235 C 0.86196 0.21706 0.52314
 C236 C 0.86992 0.22603 0.49971
 C237 C 0.85948 0.21682 0.47742
 C238 C 0.84023 0.19794 0.47849
 C239 C 0.83188 0.18862 0.50218
 C240 C 0.84274 0.19823 0.52459
 C241 C 0.83352 0.18933 0.54781
 C242 C 0.81428 0.17110 0.54909
 C243 C 0.80335 0.16125 0.52720
 C244 C 0.81216 0.17007 0.50350
 C245 C 0.82850 0.18872 0.45666
 C246 C 0.80922 0.17048 0.45795
 C247 C 0.80086 0.16081 0.48114
 C248 C 0.78087 0.14270 0.48272
 C249 C 0.77240 0.13434 0.50623
 C250 C 0.78328 0.14327 0.52836
 H251 H 0.84081 0.19660 0.56530
 H252 H 0.80779 0.16501 0.56745
 H253 H 0.83383 0.19579 0.43833
 H254 H 0.80063 0.16434 0.44057
 H255 H 0.88482 0.24035 0.49878
 H256 H 0.75703 0.12047 0.50735
 C257 C 0.52312 0.78892 0.86333
 C258 C 0.49898 0.78074 0.87244
 C259 C 0.47557 0.79054 0.86358
 C260 C 0.47612 0.80924 0.84491
 C261 C 0.50047 0.81775 0.83536
 C262 C 0.52406 0.80749 0.84452
 C263 C 0.54786 0.81544 0.83403
 C264 C 0.54857 0.83337 0.81518
 C265 C 0.52553 0.84409 0.80608
 C266 C 0.50120 0.83609 0.81614
 C267 C 0.45302 0.81904 0.83498
 C268 C 0.45374 0.83701 0.81617
 C269 C 0.47758 0.84593 0.80661
 C270 C 0.47848 0.86384 0.78716
 C271 C 0.50257 0.87146 0.77746
 C272 C 0.52603 0.86198 0.78658
 H273 H 0.56619 0.80757 0.83999
 H274 H 0.56742 0.83845 0.80754
 H275 H 0.43412 0.81265 0.84140
 H276 H 0.43533 0.84354 0.80894
 H277 H 0.49839 0.76651 0.88690
 H278 H 0.50308 0.88532 0.76264
 C279 C 0.51771 0.13665 0.21575
 C280 C 0.49319 0.12760 0.22278
 C281 C 0.47059 0.13501 0.21038
 C282 C 0.47228 0.15193 0.19017
 C283 C 0.49691 0.16183 0.18318
 C284 C 0.51976 0.15414 0.19598
 C285 C 0.54386 0.16463 0.18913
 C286 C 0.54557 0.18225 0.17004
 C287 C 0.52326 0.18997 0.15699
 C288 C 0.49864 0.17976 0.16365
 C289 C 0.45001 0.15929 0.17692
 C290 C 0.45177 0.17651 0.15744
 C291 C 0.47574 0.18754 0.15094
 C292 C 0.47764 0.20587 0.13185
 C293 C 0.50211 0.21580 0.12577
 C294 C 0.52480 0.20806 0.13782
 H295 H 0.56160 0.15956 0.19873
 H296 H 0.56458 0.18997 0.16580
 H297 H 0.43100 0.15171 0.18146
 H298 H 0.43406 0.18104 0.14756
 H299 H 0.49163 0.11452 0.23825
 H300 H 0.50359 0.22992 0.11125
 C301 C 0.52265 0.12247 0.80096
 C302 C 0.49946 0.11720 0.78838
 C303 C 0.47636 0.12974 0.79377
 C304 C 0.47618 0.14852 0.81217
 C305 C 0.49956 0.15430 0.82507
 C306 C 0.52288 0.14113 0.81960
 C307 C 0.54550 0.14658 0.83328
 C308 C 0.54549 0.16513 0.85146
 C309 C 0.52288 0.17892 0.85664
 C310 C 0.49957 0.17323 0.84354
 C311 C 0.45336 0.16179 0.81780
 C312 C 0.45339 0.18039 0.83587
 C313 C 0.47623 0.18633 0.84897
 C314 C 0.47644 0.20520 0.86727
 C315 C 0.49949 0.21074 0.87982
 C316 C 0.52264 0.19789 0.87495
 H317 H 0.56339 0.13641 0.83020
 H318 H 0.56339 0.16843 0.86156
 H319 H 0.43528 0.15796 0.80817
 H320 H 0.43532 0.19014 0.83945
 H321 H 0.49937 0.10298 0.77398
 H322 H 0.49938 0.22537 0.89378
 C323 C 0.48208 0.79661 0.13044
 C324 C 0.50626 0.78720 0.12296
 C325 C 0.52963 0.79663 0.13229
 C326 C 0.52910 0.81633 0.14970
 C327 C 0.50474 0.82561 0.15824
 C328 C 0.48110 0.81575 0.14859
 C329 C 0.45729 0.82556 0.15707
 C330 C 0.45657 0.84381 0.17548
 C331 C 0.47965 0.85374 0.18536
 C332 C 0.50402 0.84481 0.17646
 C333 C 0.55220 0.82685 0.15891
 C334 C 0.55149 0.84615 0.17621
 C335 C 0.52766 0.85502 0.18571
 C336 C 0.52669 0.87410 0.20392
 C337 C 0.50249 0.88204 0.21299
 C338 C 0.47910 0.87223 0.20411
 H339 H 0.43889 0.81917 0.14971
 H340 H 0.43765 0.85012 0.18180
 H341 H 0.57109 0.82035 0.15270
 H342 H 0.56988 0.85393 0.18210
 H343 H 0.50695 0.77216 0.10945
 H344 H 0.50181 0.89633 0.22730
 C345 C 0.77956 0.47308 0.86027
 C346 C 0.76962 0.49550 0.86937
 C347 C 0.77881 0.51847 0.86075
 C348 C 0.79865 0.51927 0.84229
 C349 C 0.80886 0.49667 0.83267
 C350 C 0.79931 0.47347 0.84168
 C351 C 0.80913 0.45138 0.83127
 C352 C 0.82811 0.45198 0.81253
 C353 C 0.83783 0.47469 0.80336
 C354 C 0.82813 0.49727 0.81350
 C355 C 0.80794 0.54198 0.83264
 C356 C 0.82688 0.54256 0.81387
 C357 C 0.83714 0.52045 0.80399
 C358 C 0.85564 0.52082 0.78431
 C359 C 0.86492 0.49848 0.77449
 C360 C 0.85639 0.47552 0.78372
 H361 H 0.80194 0.43337 0.83719
 H362 H 0.83481 0.43444 0.80501
 H363 H 0.80039 0.55955 0.83926
 H364 H 0.83317 0.56054 0.80692
 H365 H 0.75448 0.49508 0.88365
 H366 H 0.87901 0.49896 0.75925
 C367 C 0.14272 0.47582 0.21635
 C368 C 0.13349 0.49844 0.22555
 C369 C 0.14270 0.52121 0.21630
 C370 C 0.16214 0.52145 0.19736
 C371 C 0.17158 0.49858 0.18767
 C372 C 0.16174 0.47567 0.19713
 C373 C 0.17166 0.45327 0.18761
 C374 C 0.19089 0.45328 0.16912
 C375 C 0.20091 0.47569 0.15940
 C376 C 0.19133 0.49859 0.16891
 C377 C 0.17300 0.54384 0.18846
 C378 C 0.19252 0.54385 0.17023
 C379 C 0.20188 0.52148 0.16012
 C380 C 0.22208 0.52126 0.14198
 C381 C 0.23116 0.49857 0.13275
 C382 C 0.22082 0.47588 0.14095
 H383 H 0.16479 0.43549 0.19457
 H384 H 0.19813 0.43547 0.16283
 H385 H 0.16685 0.56161 0.19584
 H386 H 0.20043 0.56161 0.16436
 H387 H 0.11875 0.49831 0.24021
 H388 H 0.24640 0.49860 0.11857
 C389 C 0.78937 0.52107 0.13256
 C390 C 0.78078 0.49836 0.12304
 C391 C 0.79197 0.47587 0.13043
 C392 C 0.81266 0.47596 0.14781
 C393 C 0.82112 0.49886 0.15821
 C394 C 0.80945 0.52153 0.15052
 C395 C 0.81762 0.54392 0.16148
 C396 C 0.83678 0.54410 0.17983
 C397 C 0.84868 0.52193 0.18770
 C398 C 0.84082 0.49905 0.17679
 C399 C 0.82473 0.45381 0.15542
 C400 C 0.84450 0.45405 0.17318
 C401 C 0.85230 0.47633 0.18467
 C402 C 0.87143 0.47666 0.20370
 C403 C 0.87872 0.49936 0.21433
 C404 C 0.86777 0.52187 0.20668
 H405 H 0.80894 0.56150 0.15624
 H406 H 0.84195 0.56182 0.18798
 H407 H 0.81901 0.43605 0.14770
 H408 H 0.85347 0.43649 0.17786
 H409 H 0.76494 0.49818 0.10963
 H410 H 0.89315 0.49953 0.22912
 C411 C 0.13665 0.48011 0.78932
 C412 C 0.12793 0.50276 0.77966
 C413 C 0.13600 0.52544 0.78968
 C414 C 0.15347 0.52567 0.81007
 C415 C 0.16267 0.50279 0.82000
 C416 C 0.15417 0.47990 0.80964
 C417 C 0.16402 0.45749 0.81930
 C418 C 0.18219 0.45750 0.83858
 C419 C 0.19107 0.47991 0.84898
 C420 C 0.18109 0.50280 0.83976
 C421 C 0.16261 0.54810 0.82023
 C422 C 0.18069 0.54812 0.83960
 C423 C 0.19024 0.52572 0.84959
 C424 C 0.20942 0.52553 0.86850
 C425 C 0.21908 0.50285 0.87725
 C426 C 0.21036 0.48016 0.86777
 H427 H 0.15807 0.43972 0.81174
 H428 H 0.18947 0.43975 0.84505
 H429 H 0.15613 0.56586 0.81301
 H430 H 0.18743 0.56593 0.84639
 H431 H 0.11468 0.50272 0.76387
 H432 H 0.23403 0.50287 0.89156
 C433 C 0.26696 0.39599 0.08549
 C434 C 0.25417 0.37533 0.07515
 C435 C 0.26747 0.36006 0.05825
 C436 C 0.29345 0.36527 0.05169
 C437 C 0.30580 0.38547 0.06325
 N438 N 0.29243 0.40011 0.07951
 C439 C 0.25362 0.41418 0.10189
 N440 N 0.26848 0.42925 0.11650
 C441 C 0.25817 0.44808 0.13021
 C442 C 0.23139 0.45300 0.12931
 C443 C 0.21555 0.43762 0.11467
 C444 C 0.22654 0.41810 0.10103
 H445 H 0.25725 0.34454 0.04992
 H446 H 0.32589 0.39003 0.05898
 H447 H 0.27098 0.45976 0.14115
 H448 H 0.19489 0.44132 0.11309
 H449 H 0.23415 0.37098 0.07987
 H450 H 0.21408 0.40717 0.08904
 C451 C 0.73378 0.59949 0.08431
 C452 C 0.70697 0.59649 0.08012
 C453 C 0.69431 0.61221 0.06341
 C454 C 0.70815 0.63098 0.05077
 C455 C 0.73480 0.63380 0.05587
 N456 N 0.74685 0.61799 0.07204
 C457 C 0.74852 0.58151 0.09976
 N458 N 0.77416 0.57750 0.09439
 C459 C 0.78816 0.55933 0.10588
 C460 C 0.77614 0.54369 0.12351
 C461 C 0.75017 0.54810 0.13016
 C462 C 0.73636 0.56717 0.11857
 H463 H 0.67374 0.60931 0.06002
 H464 H 0.74622 0.64800 0.04645
 H465 H 0.80825 0.55633 0.10039
 H466 H 0.74043 0.53630 0.14380
 H467 H 0.69595 0.58155 0.08871
 H468 H 0.71628 0.57019 0.12397
 C469 C 0.73100 0.39156 0.91193
 C470 C 0.70387 0.39260 0.91525
 C471 C 0.69178 0.37671 0.93242
 C472 C 0.70654 0.35949 0.94604
 C473 C 0.73342 0.35811 0.94126
 N474 N 0.74488 0.37421 0.92484
 C475 C 0.74462 0.41036 0.89625
 N476 N 0.73043 0.42626 0.88187
 C477 C 0.74148 0.44546 0.86909
 C478 C 0.76833 0.44986 0.87075
 C479 C 0.78352 0.43347 0.88493
 C480 C 0.77178 0.41354 0.89753
 H481 H 0.67096 0.37830 0.93545
 H482 H 0.74551 0.34507 0.95138
 H483 H 0.72919 0.45784 0.85836
 H484 H 0.80426 0.43662 0.88691
 H485 H 0.69217 0.40619 0.90543
 H486 H 0.78366 0.40144 0.90898
 C487 C 0.26185 0.60410 0.92007
 C488 C 0.28911 0.60250 0.92130
 C489 C 0.30272 0.61773 0.93773
 C490 C 0.28938 0.63489 0.95275
 C491 C 0.26221 0.63666 0.95034
 N492 N 0.24925 0.62121 0.93451
 C493 C 0.24694 0.58629 0.90455
 N494 N 0.26003 0.57097 0.88860
 C495 C 0.24801 0.55256 0.87573
 C496 C 0.22127 0.54836 0.87890
 C497 C 0.20708 0.56427 0.89459
 C498 C 0.21983 0.58343 0.90733
 H499 H 0.32369 0.61588 0.93887
 H500 H 0.25121 0.64968 0.96160
 H501 H 0.25952 0.54053 0.86380
 H502 H 0.18644 0.56126 0.89768
 H503 H 0.29984 0.58909 0.91024
 H504 H 0.20882 0.59512 0.92000
 C505 C 0.08452 0.26383 0.39943
 C506 C 0.08262 0.28975 0.40171
 C507 C 0.06601 0.30290 0.38601
 C508 C 0.05158 0.29042 0.36770
 C509 C 0.05478 0.26463 0.36527
 N510 N 0.07068 0.25208 0.38122
 C511 C 0.10002 0.24935 0.41765
 N512 N 0.11693 0.26147 0.43297
 C513 C 0.12985 0.24974 0.45167
 C514 C 0.12567 0.22438 0.45619
 C515 C 0.10885 0.21128 0.44036
 C516 C 0.09617 0.22366 0.42087
 H517 H 0.06422 0.32282 0.38839
 H518 H 0.04394 0.25435 0.35136
 H519 H 0.14266 0.26041 0.46362
 H520 H 0.10491 0.19174 0.44364
 H521 H 0.09319 0.29974 0.41603
 H522 H 0.08266 0.21350 0.40921
 C523 C 0.07640 0.74036 0.60144
 C524 C 0.08089 0.74027 0.62736
 C525 C 0.06530 0.72532 0.64293
 C526 C 0.04602 0.71007 0.63246
 C527 C 0.04256 0.71049 0.60644
 N528 N 0.05738 0.72564 0.59184
 C529 C 0.09134 0.75614 0.58399
 N530 N 0.07839 0.76738 0.56492
 C531 C 0.09097 0.77979 0.54628
 C532 C 0.11828 0.78051 0.54557
 C533 C 0.13208 0.76930 0.56523
 C534 C 0.11862 0.75742 0.58475
 H535 H 0.06837 0.72552 0.66299
 H536 H 0.02762 0.69926 0.59774
 H537 H 0.07970 0.78808 0.53135
 H538 H 0.15318 0.76889 0.56492
 H539 H 0.09579 0.75200 0.63545
 H540 H 0.12939 0.74807 0.59939
 C541 C 0.91102 0.72903 0.39911
 C542 C 0.91558 0.70360 0.40323
 C543 C 0.93301 0.69090 0.38785
 C544 C 0.94596 0.70331 0.36825
 C545 C 0.94042 0.72858 0.36430
 N546 N 0.92361 0.74071 0.37983
 C547 C 0.89492 0.74379 0.41673
 N548 N 0.90069 0.76829 0.42015
 C549 C 0.88877 0.78226 0.43806
 C550 C 0.87019 0.77144 0.45408
 C551 C 0.86308 0.74661 0.45021
 C552 C 0.87516 0.73279 0.43141
 H553 H 0.93674 0.67144 0.39164
 H554 H 0.95008 0.73887 0.34946
 H555 H 0.89474 0.80139 0.44065
 H556 H 0.84878 0.73774 0.46230
 H557 H 0.90675 0.69373 0.41881
 H558 H 0.86946 0.71360 0.42887
 C559 C 0.91772 0.26531 0.60219
 C560 C 0.92822 0.25423 0.62377
 C561 C 0.94456 0.26813 0.63927
 C562 C 0.95045 0.29296 0.63328
 C563 C 0.93883 0.30351 0.61203
 N564 N 0.92307 0.28963 0.59727
 C565 C 0.90161 0.25149 0.58401
 N566 N 0.88601 0.26472 0.56833
 C567 C 0.87231 0.25389 0.54961
 C568 C 0.87424 0.22826 0.54550
 C569 C 0.89003 0.21411 0.56142
 C570 C 0.90365 0.22562 0.58081
 H571 H 0.95300 0.25933 0.65558
 H572 H 0.94258 0.32267 0.60687
 H573 H 0.86047 0.26537 0.53749
 H574 H 0.89237 0.19434 0.55834
 H575 H 0.92396 0.23512 0.62869
 H576 H 0.91648 0.21450 0.59228
 C577 C 0.38538 0.08708 0.25938
 C578 C 0.38595 0.08724 0.28567
 C579 C 0.37097 0.07015 0.29909
 C580 C 0.35511 0.05311 0.28648
 C581 C 0.35409 0.05424 0.26024
 N582 N 0.36948 0.07064 0.24746
 C583 C 0.40414 0.10213 0.24466
 N584 N 0.41465 0.09234 0.22337
 C585 C 0.43475 0.10349 0.21095
 C586 C 0.44560 0.12548 0.22024
 C587 C 0.43434 0.13656 0.24134
 C588 C 0.41345 0.12505 0.25351
 H589 H 0.37233 0.06980 0.31934
 H590 H 0.34219 0.04124 0.24988
 H591 H 0.44311 0.09456 0.19464
 H592 H 0.44241 0.15356 0.24891
 H593 H 0.39893 0.09942 0.29583
 H594 H 0.40527 0.13360 0.27011
 C595 C 0.60153 0.06622 0.75213
 C596 C 0.59118 0.04886 0.73536
 C597 C 0.60773 0.03625 0.71909
 C598 C 0.63465 0.04054 0.71977
 C599 C 0.64434 0.05805 0.73686
 N600 N 0.62768 0.07059 0.75224
 C601 C 0.58397 0.08025 0.76877
 N602 N 0.58560 0.10551 0.76967
 C603 C 0.56736 0.11948 0.78175
 C604 C 0.54590 0.10795 0.79339
 C605 C 0.54472 0.08192 0.79379
 C606 C 0.56368 0.06802 0.78151
 H607 H 0.59951 0.02281 0.70627
 H608 H 0.66501 0.06191 0.73779
 H609 H 0.56874 0.13955 0.78093
 H610 H 0.52835 0.07245 0.80251
 H611 H 0.57041 0.04537 0.73456
 H612 H 0.56199 0.04795 0.78111
 C613 C 0.39542 0.91624 0.73898
 C614 C 0.37369 0.92750 0.75036
 C615 C 0.35789 0.94334 0.73623
 C616 C 0.36371 0.94794 0.71090
 C617 C 0.38494 0.93549 0.70007
 N618 N 0.40003 0.92030 0.71418
 C619 C 0.41432 0.90086 0.75297
 N620 N 0.43030 0.88554 0.73968
 C621 C 0.44998 0.87263 0.75050
 C622 C 0.45485 0.87514 0.77615
 C623 C 0.43858 0.89056 0.79040
 C624 C 0.41818 0.90338 0.77892
 H625 H 0.34158 0.95247 0.74526
 H626 H 0.38996 0.93822 0.68053
 H627 H 0.46233 0.86102 0.73894
 H628 H 0.44222 0.89327 0.81018
 H629 H 0.36893 0.92432 0.76987
 H630 H 0.40656 0.91596 0.79008
 C631 C 0.60514 0.92747 0.25675
 C632 C 0.63207 0.92340 0.25849
 C633 C 0.64698 0.93856 0.27423
 C634 C 0.63477 0.95698 0.28866
 C635 C 0.60779 0.96012 0.28654
 N636 N 0.59391 0.94572 0.27063
 C637 C 0.58833 0.91285 0.24013
 N638 N 0.56989 0.92502 0.22667
 C639 C 0.55142 0.91280 0.21341
 C640 C 0.55007 0.88677 0.21412
 C641 C 0.56910 0.87375 0.22763
 C642 C 0.58860 0.88677 0.24035
 H643 H 0.66782 0.93573 0.27541
 H644 H 0.59779 0.97438 0.29714
 H645 H 0.53696 0.92345 0.20333
 H646 H 0.56822 0.85368 0.22917
 H647 H 0.64145 0.90908 0.24747
 H648 H 0.60267 0.87668 0.25148
 C649 C 0.39646 0.26553 0.90987
 C650 C 0.40181 0.29083 0.91390
 C651 C 0.38636 0.30435 0.93049
 C652 C 0.36549 0.29288 0.94309
 C653 C 0.36011 0.26784 0.93786
 N654 N 0.37577 0.25487 0.92192
 C655 C 0.41455 0.24963 0.89533
 N656 N 0.41632 0.22505 0.90134
 C657 C 0.43475 0.20996 0.89113
 C658 C 0.45311 0.21969 0.87424
 C659 C 0.45101 0.24457 0.86684
 C660 C 0.43157 0.25955 0.87709
 H661 H 0.39126 0.32362 0.93401
 H662 H 0.34423 0.25827 0.94725
 H663 H 0.43595 0.19078 0.89720
 H664 H 0.46498 0.25255 0.85380
 H665 H 0.41851 0.29993 0.90548
 H666 H 0.43042 0.27878 0.87122
 C667 C 0.60468 0.73865 0.91569
 C668 C 0.62766 0.74889 0.92556
 C669 C 0.64295 0.73464 0.94177
 C670 C 0.63534 0.71034 0.94817
 C671 C 0.61277 0.70058 0.93718
 N672 N 0.59826 0.71477 0.92154
 C673 C 0.58643 0.75296 0.89990
 N674 N 0.56920 0.74009 0.88557
 C675 C 0.54988 0.75141 0.87260
 C676 C 0.54666 0.77721 0.87406
 C677 C 0.56434 0.79103 0.88833
 C678 C 0.58437 0.77900 0.90120
 H679 H 0.66033 0.74280 0.94973
 H680 H 0.60636 0.68182 0.94132
 H681 H 0.53643 0.74019 0.86188
 H682 H 0.56200 0.81094 0.89026
 H683 H 0.63379 0.76761 0.92095
 H684 H 0.59709 0.78989 0.91298
 C685 C 0.40178 0.74385 0.07898
 C686 C 0.37505 0.74240 0.08452
 C687 C 0.35895 0.72759 0.06957
 C688 C 0.36971 0.71381 0.04978
 C689 C 0.39658 0.71553 0.04524
 N690 N 0.41164 0.73053 0.05952
 C691 C 0.41971 0.75982 0.09313
 N692 N 0.43861 0.77228 0.08026
 C693 C 0.45751 0.78546 0.09195
 C694 C 0.45872 0.78588 0.11818
 C695 C 0.43935 0.77328 0.13192
 C696 C 0.41950 0.76053 0.11942
 H697 H 0.33824 0.72675 0.07352
 H698 H 0.40553 0.70543 0.02993
 H699 H 0.47225 0.79478 0.08075
 H700 H 0.44011 0.77260 0.15219
 H701 H 0.36669 0.75302 0.09975
 H702 H 0.40505 0.75026 0.13011
 C703 C 0.61098 0.25768 0.09133
 C704 C 0.63328 0.24695 0.08043
 C705 C 0.64854 0.26099 0.06379
 C706 C 0.64168 0.28561 0.05811
 C707 C 0.62023 0.29602 0.07061
 N708 N 0.60558 0.28197 0.08645
 C709 C 0.59182 0.24338 0.10645
 N710 N 0.57381 0.25633 0.11993
 C711 C 0.55328 0.24516 0.13153
 C712 C 0.54962 0.21947 0.12941
 C713 C 0.56818 0.20551 0.11628
 C714 C 0.58940 0.21736 0.10482
 H715 H 0.66508 0.25231 0.05469
 H716 H 0.61447 0.31506 0.06712
 H717 H 0.53919 0.25646 0.14144
 H718 H 0.56557 0.18567 0.11393
 H719 H 0.63872 0.22791 0.08422
 H720 H 0.60269 0.20634 0.09370
 C721 C 0.26626 0.08566 0.60180
 C722 C 0.29282 0.08060 0.59801
 C723 C 0.30530 0.06350 0.61340
 C724 C 0.29154 0.05141 0.63267
 C725 C 0.26518 0.05739 0.63631
 N726 N 0.25326 0.07388 0.62076
 C727 C 0.25168 0.10152 0.58410
 N728 N 0.22606 0.09644 0.57981
 C729 C 0.21231 0.10832 0.56166
 C730 C 0.22458 0.12606 0.54637
 C731 C 0.25051 0.13241 0.55112
 C732 C 0.26408 0.12039 0.57015
 H733 H 0.32566 0.05941 0.60989
 H734 H 0.25386 0.04838 0.65092
 H735 H 0.19224 0.10308 0.55837
 H736 H 0.26043 0.14611 0.53958
 H737 H 0.30368 0.08884 0.58266
 H738 H 0.28418 0.12545 0.57342
 C739 C 0.72793 0.08761 0.40697
 C740 C 0.70361 0.07747 0.41344
 C741 C 0.69191 0.06022 0.39770
 C742 C 0.70419 0.05300 0.37526
 C743 C 0.72850 0.06381 0.36935
 N744 N 0.73973 0.08036 0.38528
 C745 C 0.74157 0.10464 0.42420
 N746 N 0.76797 0.10322 0.42639
 C747 C 0.78127 0.11647 0.44387
 C748 C 0.76780 0.13198 0.46056
 C749 C 0.74081 0.13453 0.45791
 C750 C 0.72765 0.12104 0.43968
 H751 H 0.67325 0.05248 0.40329
 H752 H 0.73883 0.05882 0.35236
 H753 H 0.80212 0.11402 0.44554
 H754 H 0.72986 0.14636 0.47053
 H755 H 0.69401 0.08217 0.43090
 H756 H 0.70674 0.12304 0.43811
 C757 C 0.75193 0.92761 0.60054
 C758 C 0.75147 0.92173 0.62618
 C759 C 0.73692 0.93650 0.64261
 C760 C 0.72237 0.95650 0.63329
 C761 C 0.72336 0.96167 0.60755
 N762 N 0.73813 0.94746 0.59206
 C763 C 0.76672 0.91275 0.58228
 N764 N 0.78000 0.92469 0.56367
 C765 C 0.79203 0.91223 0.54481
 C766 C 0.79026 0.88623 0.54341
 C767 C 0.77657 0.87354 0.56241
 C768 C 0.76518 0.88672 0.58214
 H769 H 0.73658 0.93205 0.66242
 H770 H 0.71261 0.97716 0.59978
 H771 H 0.80217 0.92269 0.53037
 H772 H 0.77399 0.85358 0.56152
 H773 H 0.76245 0.90612 0.63339
 H774 H 0.75411 0.87682 0.59635
 C775 C 0.26737 0.90907 0.39615
 C776 C 0.29383 0.91513 0.39888
 C777 C 0.30527 0.93249 0.38285
 C778 C 0.29056 0.94394 0.36400
 C779 C 0.26438 0.93687 0.36133
 N780 N 0.25350 0.92012 0.37748
 C781 C 0.25366 0.89314 0.41469
 N782 N 0.22767 0.89668 0.41864
 C783 C 0.21440 0.88485 0.43733
 C784 C 0.22753 0.86879 0.45363
 C785 C 0.25395 0.86400 0.44934
 C786 C 0.26703 0.87587 0.42971
 H787 H 0.32553 0.93741 0.38563
 H788 H 0.25233 0.94531 0.34707
 H789 H 0.19395 0.88889 0.44022
 H790 H 0.26455 0.85160 0.46163
 H791 H 0.30544 0.90757 0.41392
 H792 H 0.28746 0.87190 0.42678
 C793 C 0.08879 0.40151 0.73440
 C794 C 0.08550 0.40490 0.70851
 C795 C 0.06867 0.38937 0.69545
 C796 C 0.05511 0.37034 0.70797
 C797 C 0.05941 0.36709 0.73373
 N798 N 0.07562 0.38278 0.74621
 C799 C 0.10418 0.41936 0.74934
 N800 N 0.09692 0.42401 0.77348
 C801 C 0.10824 0.44227 0.78730
 C802 C 0.12769 0.45730 0.77663
 C803 C 0.13629 0.45219 0.75228
 C804 C 0.12480 0.43308 0.73865
 H805 H 0.06590 0.39259 0.67560
 H806 H 0.04921 0.35270 0.74410
 H807 H 0.10122 0.44583 0.80611
 H808 H 0.15133 0.46351 0.74360
 H809 H 0.09483 0.42004 0.69851
 H810 H 0.13162 0.42954 0.71978
 C811 C 0.08790 0.60107 0.26398
 C812 C 0.07720 0.62235 0.25267
 C813 C 0.06035 0.63755 0.26648
 C814 C 0.05416 0.63158 0.29145
 C815 C 0.06605 0.61070 0.30225
 N816 N 0.08227 0.59622 0.28846
 C817 C 0.10432 0.58298 0.25023
 N818 N 0.11923 0.56701 0.26382
 C819 C 0.13280 0.54814 0.25314
 C820 C 0.13140 0.54410 0.22726
 C821 C 0.11653 0.56045 0.21271
 C822 C 0.10304 0.58001 0.22408
 H823 H 0.05171 0.65358 0.25748
 H824 H 0.06211 0.60555 0.32153
 H825 H 0.14395 0.53574 0.26494
 H826 H 0.11459 0.55749 0.19274
 H827 H 0.08162 0.62725 0.23344
 H828 H 0.09080 0.59172 0.21262
 C829 C 0.92337 0.39844 0.25582
 C830 C 0.91849 0.37275 0.25557
 C831 C 0.93329 0.35708 0.27088
 C832 C 0.95216 0.36720 0.28684
 C833 C 0.95599 0.39300 0.28679
 N834 N 0.94196 0.40771 0.27125
 C835 C 0.90938 0.41590 0.23954
 N836 N 0.92312 0.43455 0.22836
 C837 C 0.91138 0.45302 0.21529
 C838 C 0.88413 0.45397 0.21376
 C839 C 0.86953 0.43479 0.22498
 C840 C 0.88215 0.41543 0.23755
 H841 H 0.92995 0.33720 0.27038
 H842 H 0.97064 0.40143 0.29858
 H843 H 0.92325 0.46759 0.20703
 H844 H 0.84844 0.43531 0.22483
 H845 H 0.90393 0.36492 0.24326
 H846 H 0.87075 0.40112 0.24683
 C847 C 0.90689 0.59987 0.73226
 C848 C 0.91142 0.59653 0.70653
 C849 C 0.92913 0.61184 0.69405
 C850 C 0.94233 0.63063 0.70700
 C851 C 0.93684 0.63384 0.73259
 N852 N 0.91978 0.61833 0.74452
 C853 C 0.89046 0.58216 0.74659
 N854 N 0.89679 0.57672 0.77076
 C855 C 0.88459 0.55833 0.78393
 C856 C 0.86523 0.54397 0.77250
 C857 C 0.85754 0.54997 0.74813
 C858 C 0.86990 0.56921 0.73518
 H859 H 0.93280 0.60869 0.67431
 H860 H 0.94674 0.64806 0.74326
 H861 H 0.89091 0.55406 0.80277
 H862 H 0.84260 0.53916 0.73887
 H863 H 0.90232 0.58157 0.69625
 H864 H 0.86387 0.57340 0.71624
 C865 C 0.72735 0.59652 0.91405
 C866 C 0.70182 0.59204 0.92245
 C867 C 0.69030 0.60819 0.93951
 C868 C 0.70399 0.62905 0.94835
 C869 C 0.72941 0.63312 0.93911
 N870 N 0.74040 0.61679 0.92271
 C871 C 0.74083 0.57855 0.89756
 N872 N 0.76693 0.57485 0.90026
 C873 C 0.77991 0.55675 0.88754
 C874 C 0.76637 0.54096 0.87128
 C875 C 0.73978 0.54507 0.86745
 C876 C 0.72697 0.56395 0.88036
 H877 H 0.67071 0.60406 0.94599
 H878 H 0.74083 0.64885 0.94536
 H879 H 0.80047 0.55397 0.89094
 H880 H 0.72881 0.53318 0.85498
 H881 H 0.69108 0.57572 0.91667
 H882 H 0.70636 0.56671 0.87725
 C883 C 0.26614 0.40267 0.91746
 C884 C 0.29159 0.40839 0.92496
 C885 C 0.30466 0.39247 0.94116
 C886 C 0.29265 0.37058 0.94998
 C887 C 0.26718 0.36536 0.94175
 N888 N 0.25463 0.38148 0.92619
 C889 C 0.25123 0.42023 0.90167
 N890 N 0.22520 0.42329 0.90584
 C891 C 0.21117 0.44122 0.89392
 C892 C 0.22353 0.45750 0.87705
 C893 C 0.24997 0.45396 0.87165
 C894 C 0.26384 0.43526 0.88374
 H895 H 0.32418 0.39753 0.94690
 H896 H 0.25700 0.34883 0.94806
 H897 H 0.19075 0.44356 0.89851
 H898 H 0.26005 0.46626 0.85871
 H899 H 0.30110 0.42543 0.91908
 H900 H 0.28435 0.43302 0.87954
 C901 C 0.27449 0.59996 0.08972
 C902 C 0.29989 0.59530 0.08110
 C903 C 0.31146 0.61141 0.06385
 C904 C 0.29797 0.63241 0.05507
 C905 C 0.27275 0.63672 0.06464
 N906 N 0.26168 0.62043 0.08117
 C907 C 0.26078 0.58192 0.10618
 N908 N 0.23460 0.57856 0.10358
 C909 C 0.22139 0.56035 0.11612
 C910 C 0.23474 0.54407 0.13207
 C911 C 0.26142 0.54785 0.13586
 C912 C 0.27447 0.56685 0.12314
 H913 H 0.33088 0.60710 0.05713
 H914 H 0.26149 0.65258 0.05848
 H915 H 0.20077 0.55783 0.11273
 H916 H 0.27227 0.53556 0.14806
 H917 H 0.31043 0.57884 0.08678
 H918 H 0.29515 0.56931 0.12616
 C919 C 0.73898 0.39737 0.07988
 C920 C 0.71310 0.40235 0.07335
 C921 C 0.69998 0.38635 0.05735
 C922 C 0.71237 0.36505 0.04782
 C923 C 0.73833 0.36061 0.05500
 N924 N 0.75091 0.37683 0.07037
 C925 C 0.75363 0.41501 0.09567
 N926 N 0.77902 0.42026 0.09014
 C927 C 0.79240 0.43856 0.10215
 C928 C 0.77998 0.45287 0.12059
 C929 C 0.75429 0.44702 0.12732
 C930 C 0.74111 0.42803 0.11504
 H931 H 0.68007 0.39082 0.05244
 H932 H 0.74880 0.34456 0.04807
 H933 H 0.81223 0.44272 0.09652
 H934 H 0.74419 0.45778 0.14146
 H935 H 0.70324 0.41888 0.07995
 H936 H 0.72110 0.42404 0.12020
 C937 C 0.91032 0.73203 0.60196
 C938 C 0.91604 0.70717 0.59645
 C939 C 0.93273 0.69385 0.61191
 C940 C 0.94366 0.70501 0.63323
 C941 C 0.93671 0.72977 0.63856
 N942 N 0.92085 0.74262 0.62274
 C943 C 0.89492 0.74719 0.58426
 N944 N 0.90234 0.77105 0.57922
 C945 C 0.89111 0.78473 0.56069
 C946 C 0.87149 0.77426 0.54583
 C947 C 0.86281 0.75017 0.55143
 C948 C 0.87434 0.73663 0.57069
 H949 H 0.93733 0.67486 0.60685
 H950 H 0.94465 0.73925 0.65468
 H951 H 0.89834 0.80326 0.55673
 H952 H 0.84774 0.74154 0.54026
 H953 H 0.90860 0.69834 0.57974
 H954 H 0.86774 0.71785 0.57442
 C955 C 0.91176 0.26484 0.39538
 C956 C 0.92128 0.25412 0.37317
 C957 C 0.93823 0.26776 0.35772
 C958 C 0.94588 0.29200 0.36439
 C959 C 0.93495 0.30228 0.38626
 N960 N 0.91857 0.28864 0.40091
 C961 C 0.89548 0.25103 0.41377
 N962 N 0.88103 0.26435 0.43045
 C963 C 0.86795 0.25352 0.44980
 C964 C 0.86949 0.22779 0.45368
 C965 C 0.88378 0.21351 0.43653
 C966 C 0.89668 0.22502 0.41643
 H967 H 0.94584 0.25904 0.34095
 H968 H 0.93979 0.32097 0.39213
 H969 H 0.85725 0.26513 0.46280
 H970 H 0.88587 0.19366 0.43934
 H971 H 0.91588 0.23545 0.36778
 H972 H 0.90859 0.21380 0.40412
 C973 C 0.08956 0.26735 0.60468
 C974 C 0.07902 0.25627 0.62631
 C975 C 0.06229 0.27002 0.64175
 C976 C 0.05553 0.29457 0.63527
 C977 C 0.06714 0.30502 0.61372
 N978 N 0.08351 0.29137 0.59927
 C979 C 0.10549 0.25312 0.58656
 N980 N 0.10240 0.22802 0.58449
 C981 C 0.11407 0.21474 0.56588
 C982 C 0.12955 0.22687 0.54784
 C983 C 0.13372 0.25250 0.55019
 C984 C 0.12176 0.26566 0.56949
 H985 H 0.05395 0.26111 0.65817
 H986 H 0.06297 0.32392 0.60802
 H987 H 0.11027 0.19500 0.56444
 H988 H 0.14544 0.26244 0.53649
 H989 H 0.08342 0.23716 0.63107
 H990 H 0.12456 0.28559 0.57056
 C991 C 0.08587 0.73064 0.39931
 C992 C 0.07978 0.70585 0.40510
 C993 C 0.06286 0.69260 0.38979
 C994 C 0.05220 0.70373 0.36829
 C995 C 0.05971 0.72832 0.36256
 N996 N 0.07579 0.74107 0.37819
 C997 C 0.10169 0.74567 0.41685
 N998 N 0.11565 0.73397 0.43501
 C999 C 0.12828 0.74656 0.45330
 C1000 C 0.12678 0.77254 0.45443
 C1001 C 0.11319 0.78516 0.43556
 C1002 C 0.10084 0.77178 0.41654
 H1003 H 0.05796 0.67368 0.39505
 H1004 H 0.05215 0.73773 0.34619
 H1005 H 0.13852 0.73624 0.46763
 H1006 H 0.11125 0.80520 0.43615
 H1007 H 0.08728 0.69696 0.42180
 H1008 H 0.08969 0.78169 0.40255
 C1009 C 0.61149 0.90983 0.73601
 C1010 C 0.61050 0.91108 0.70975
 C1011 C 0.62667 0.92767 0.69689
 C1012 C 0.64418 0.94278 0.71002
 C1013 C 0.64576 0.93991 0.73612
 N1014 N 0.62930 0.92404 0.74834
 C1015 C 0.59187 0.89503 0.75022
 N1016 N 0.57463 0.88053 0.73753
 C1017 C 0.55447 0.86867 0.74907
 C1018 C 0.55042 0.87142 0.77489
 C1019 C 0.56822 0.88570 0.78857
 C1020 C 0.58910 0.89739 0.77633
 H1021 H 0.62491 0.92921 0.67673
 H1022 H 0.65900 0.95125 0.74694
 H1023 H 0.54103 0.85785 0.73794
 H1024 H 0.56539 0.88849 0.80849
 H1025 H 0.59661 0.90017 0.69924
 H1026 H 0.60224 0.90895 0.78703
 C1027 C 0.39490 0.92094 0.25450
 C1028 C 0.37204 0.93075 0.24403
 C1029 C 0.35585 0.94585 0.25864
 C1030 C 0.36246 0.95124 0.28354
 C1031 C 0.38504 0.94045 0.29344
 N1032 N 0.40042 0.92584 0.27890
 C1033 C 0.41387 0.90610 0.23993
 N1034 N 0.43061 0.89119 0.25271
 C1035 C 0.45045 0.87895 0.24127
 C1036 C 0.45477 0.88186 0.21549
 C1037 C 0.43762 0.89677 0.20174
 C1038 C 0.41700 0.90883 0.21385
 H1039 H 0.33850 0.95370 0.25032
 H1040 H 0.39072 0.94384 0.31263
 H1041 H 0.46353 0.86777 0.25245
 H1042 H 0.44084 0.89985 0.18189
 H1043 H 0.36665 0.92688 0.22486
 H1044 H 0.40467 0.92112 0.20310
 C1045 C 0.59705 0.08857 0.27338
 C1046 C 0.59187 0.08244 0.29853
 C1047 C 0.60831 0.06617 0.31118
 C1048 C 0.63004 0.05590 0.29899
 C1049 C 0.63497 0.06291 0.27404
 N1050 N 0.61839 0.07858 0.26193
 C1051 C 0.57859 0.10375 0.25852
 N1052 N 0.57688 0.09992 0.23334
 C1053 C 0.55860 0.11137 0.21898
 C1054 C 0.54044 0.12744 0.23002
 C1055 C 0.54241 0.13241 0.25567
 C1056 C 0.56159 0.12084 0.26993
 H1057 H 0.60367 0.06122 0.33038
 H1058 H 0.65142 0.05531 0.26390
 H1059 H 0.55753 0.10712 0.19920
 H1060 H 0.52868 0.14479 0.26471
 H1061 H 0.57470 0.08919 0.30816
 H1062 H 0.56271 0.12500 0.28971
 C1063 C 0.39770 0.08374 0.73475
 C1064 C 0.40376 0.07807 0.70971
 C1065 C 0.38824 0.06135 0.69662
 C1066 C 0.36660 0.05019 0.70825
 C1067 C 0.36079 0.05672 0.73311
 N1068 N 0.37647 0.07284 0.74567
 C1069 C 0.41535 0.09917 0.75016
 N1070 N 0.41668 0.09474 0.77529
 C1071 C 0.43470 0.10595 0.79009
 C1072 C 0.45306 0.12224 0.77952
 C1073 C 0.45131 0.12806 0.75403
 C1074 C 0.43229 0.11681 0.73932
 H1075 H 0.39350 0.05682 0.67749
 H1076 H 0.34432 0.04848 0.74281
 H1077 H 0.43567 0.10106 0.80975
 H1078 H 0.46531 0.14055 0.74537
 H1079 H 0.42092 0.08554 0.70052
 H1080 H 0.43144 0.12141 0.71960
 C1081 C 0.61070 0.74163 0.08446
 C1082 C 0.60761 0.71569 0.08482
 C1083 C 0.62183 0.70112 0.06817
 C1084 C 0.63956 0.71218 0.05145
 C1085 C 0.64320 0.73802 0.05253
 N1086 N 0.62855 0.75199 0.06850
 C1087 C 0.59308 0.75754 0.09955
 N1088 N 0.57723 0.74677 0.11706
 C1089 C 0.55826 0.75956 0.12919
 C1090 C 0.55388 0.78461 0.12347
 C1091 C 0.57048 0.79649 0.10626
 C1092 C 0.59031 0.78305 0.09439
 H1093 H 0.61860 0.68121 0.06804
 H1094 H 0.65673 0.74721 0.03991
 H1095 H 0.54567 0.74984 0.14232
 H1096 H 0.56730 0.81575 0.10117
 H1097 H 0.59356 0.70675 0.09710
 H1098 H 0.60236 0.79218 0.08040
 C1099 C 0.39940 0.25568 0.07440
 C1100 C 0.37234 0.25638 0.07839
 C1101 C 0.35685 0.27124 0.06286
 C1102 C 0.36848 0.28581 0.04400
 C1103 C 0.39558 0.28462 0.04081
 N1104 N 0.41010 0.26961 0.05567
 C1105 C 0.41688 0.24025 0.08977
 N1106 N 0.43734 0.22882 0.07835
 C1107 C 0.45582 0.21635 0.09141
 C1108 C 0.45491 0.21563 0.11769
 C1109 C 0.43388 0.22718 0.12991
 C1110 C 0.41457 0.23917 0.11597
 H1111 H 0.33596 0.27167 0.06578
 H1112 H 0.40520 0.29534 0.02624
 H1113 H 0.47183 0.20784 0.08133
 H1114 H 0.43293 0.22767 0.15018
 H1115 H 0.36330 0.24529 0.09303
 H1116 H 0.39886 0.24865 0.12559
 C1117 C 0.60083 0.24551 0.93284
 C1118 C 0.58991 0.26190 0.95031
 C1119 C 0.60595 0.27812 0.96335
 C1120 C 0.63296 0.27785 0.95940
 C1121 C 0.64327 0.26108 0.94184
 N1122 N 0.62708 0.24570 0.92883
 C1123 C 0.58364 0.22901 0.91832
 N1124 N 0.58549 0.22850 0.89285
 C1125 C 0.56736 0.21680 0.87849
 C1126 C 0.54574 0.20522 0.88981
 C1127 C 0.54431 0.20444 0.91602
 C1128 C 0.56321 0.21626 0.93032
 H1129 H 0.59722 0.29067 0.97682
 H1130 H 0.66403 0.26045 0.93824
 H1131 H 0.56894 0.21786 0.85828
 H1132 H 0.52782 0.19576 0.92534
 H1133 H 0.56906 0.26247 0.95353
 H1134 H 0.56130 0.21637 0.95054
 C1135 C 0.39175 0.74289 0.91632
 C1136 C 0.37124 0.75399 0.92983
 C1137 C 0.35624 0.73949 0.94636
 C1138 C 0.36167 0.71410 0.94942
 C1139 C 0.38148 0.70360 0.93468
 N1140 N 0.39581 0.71803 0.91891
 C1141 C 0.41029 0.75709 0.90035
 N1142 N 0.42578 0.74408 0.88429
 C1143 C 0.44556 0.75481 0.87116
 C1144 C 0.45116 0.78008 0.87424
 C1145 C 0.43520 0.79417 0.89013
 C1146 C 0.41465 0.78278 0.90319
 H1147 H 0.34101 0.74828 0.95730
 H1148 H 0.38610 0.68402 0.93614
 H1149 H 0.45763 0.74338 0.85914
 H1150 H 0.43938 0.81366 0.89325
 H1151 H 0.36690 0.77357 0.92799
 H1152 H 0.40342 0.79377 0.91626
 C1153 C 0.74045 0.91876 0.39710
 C1154 C 0.71311 0.91797 0.39819
 C1155 C 0.69863 0.93449 0.38368
 C1156 C 0.71124 0.95157 0.36780
 C1157 C 0.73857 0.95119 0.36658
 N1158 N 0.75231 0.93534 0.38139
 C1159 C 0.75649 0.90393 0.41456
 N1160 N 0.77883 0.91409 0.42371
 C1161 C 0.79305 0.90278 0.44188
 C1162 C 0.78484 0.87998 0.45197
 C1163 C 0.76258 0.86861 0.44216
 C1164 C 0.74835 0.88049 0.42339
 H1165 H 0.67758 0.93422 0.38524
 H1166 H 0.74904 0.96418 0.35469
 H1167 H 0.81013 0.91204 0.44920
 H1168 H 0.75567 0.85109 0.44976
 H1169 H 0.70298 0.90558 0.41098
 H1170 H 0.73092 0.87169 0.41629
 C1171 C 0.25826 0.91746 0.60244
 C1172 C 0.24567 0.92914 0.62268
 C1173 C 0.25990 0.94491 0.63833
 C1174 C 0.28653 0.94910 0.63381
 C1175 C 0.29847 0.93642 0.61390
 N1176 N 0.28426 0.92122 0.59898
 C1177 C 0.24434 0.90174 0.58410
 N1178 N 0.25853 0.88545 0.57014
 C1179 C 0.24795 0.87196 0.55128
 C1180 C 0.22163 0.87485 0.54513
 C1181 C 0.20644 0.89131 0.55930
 C1182 C 0.21767 0.90470 0.57893
 H1183 H 0.24996 0.95424 0.65357
 H1184 H 0.31902 0.93886 0.60989
 H1185 H 0.26028 0.85960 0.54053
 H1186 H 0.18620 0.89440 0.55461
 H1187 H 0.22516 0.92623 0.62644
 H1188 H 0.20585 0.91802 0.58898
 C1189 C 0.25482 0.07873 0.39722
 C1190 C 0.24205 0.06802 0.37665
 C1191 C 0.25577 0.05197 0.36077
 C1192 C 0.28207 0.04658 0.36536
 C1193 C 0.29420 0.05818 0.38573
 N1194 N 0.28049 0.07366 0.40086
 C1195 C 0.24151 0.09493 0.41565
 N1196 N 0.25652 0.10962 0.43051
 C1197 C 0.24642 0.12332 0.44952
 C1198 C 0.21970 0.12235 0.45488
 C1199 C 0.20365 0.10772 0.43968
 C1200 C 0.21444 0.09404 0.41995
 H1201 H 0.24572 0.04355 0.34514
 H1202 H 0.31452 0.05482 0.38985
 H1203 H 0.25937 0.13428 0.46103
 H1204 H 0.18299 0.10618 0.44369
 H1205 H 0.22183 0.07196 0.37270
 H1206 H 0.20186 0.08207 0.40914
 C1207 C 0.73439 0.09230 0.61016
 C1208 C 0.70729 0.08867 0.60916
 C1209 C 0.69558 0.07089 0.62455
 C1210 C 0.71061 0.05669 0.64112
 C1211 C 0.73748 0.06148 0.64231
 N1212 N 0.74861 0.07863 0.62671
 C1213 C 0.74798 0.10849 0.59172
 N1214 N 0.77276 0.10267 0.58454
 C1215 C 0.78522 0.11475 0.56548
 C1216 C 0.77241 0.13353 0.55216
 C1217 C 0.74743 0.14064 0.55988
 C1218 C 0.73525 0.12839 0.57982
 H1219 H 0.67480 0.06774 0.62296
 H1220 H 0.74979 0.05083 0.65474
 H1221 H 0.80455 0.10886 0.55989
 H1222 H 0.73708 0.15512 0.54992
 H1223 H 0.69531 0.09843 0.59576
 H1224 H 0.71586 0.13409 0.58535
 C1225 C 0.91518 0.60052 0.26255
 C1226 C 0.91667 0.59724 0.28862
 C1227 C 0.93302 0.61245 0.30262
 C1228 C 0.94764 0.63125 0.29088
 C1229 C 0.94472 0.63476 0.26496
 N1230 N 0.92907 0.61929 0.25157
 C1231 C 0.90032 0.58264 0.24704
 N1232 N 0.88514 0.56514 0.25852
 C1233 C 0.87322 0.54662 0.24569
 C1234 C 0.87668 0.54461 0.21973
 C1235 C 0.89156 0.56274 0.20726
 C1236 C 0.90326 0.58193 0.22084
 H1237 H 0.93457 0.60921 0.32260
 H1238 H 0.95567 0.64906 0.25520
 H1239 H 0.86192 0.53285 0.25589
 H1240 H 0.89493 0.56146 0.18726
 H1241 H 0.90604 0.58250 0.29806
 H1242 H 0.91537 0.59537 0.21108
 C1243 C 0.91091 0.39923 0.73094
 C1244 C 0.91582 0.40293 0.70528
 C1245 C 0.93391 0.38801 0.69298
 C1246 C 0.94718 0.36928 0.70602
 C1247 C 0.94137 0.36577 0.73153
 N1248 N 0.92388 0.38085 0.74328
 C1249 C 0.89383 0.41636 0.74516
 N1250 N 0.89912 0.42099 0.76971
 C1251 C 0.88613 0.43864 0.78304
 C1252 C 0.86693 0.45306 0.77144
 C1253 C 0.86033 0.44790 0.74659
 C1254 C 0.87351 0.42940 0.73346
 H1255 H 0.93782 0.39143 0.67330
 H1256 H 0.95128 0.35160 0.74230
 H1257 H 0.89165 0.44226 0.80223
 H1258 H 0.84555 0.45876 0.73717
 H1259 H 0.90668 0.41783 0.69492
 H1260 H 0.86820 0.42582 0.71421
 C1261 C 0.08523 0.60254 0.73465
 C1262 C 0.08234 0.59928 0.70870
 C1263 C 0.06502 0.61424 0.69549
 C1264 C 0.05055 0.63258 0.70791
 C1265 C 0.05441 0.63571 0.73375
 N1266 N 0.07113 0.62059 0.74636
 C1267 C 0.10133 0.58527 0.74971
 N1268 N 0.09415 0.58011 0.77382
 C1269 C 0.10623 0.56229 0.78772
 C1270 C 0.12644 0.54824 0.77719
 C1271 C 0.13495 0.55396 0.75289
 C1272 C 0.12266 0.57261 0.73918
 H1273 H 0.06260 0.61109 0.67560
 H1274 H 0.04351 0.64955 0.74407
 H1275 H 0.09919 0.55823 0.80645
 H1276 H 0.15051 0.54338 0.74427
 H1277 H 0.09243 0.58466 0.69875
 H1278 H 0.12943 0.57658 0.72035
 C1279 C 0.09128 0.39626 0.26823
 C1280 C 0.08803 0.39834 0.29429
 C1281 C 0.07052 0.38276 0.30674
 C1282 C 0.05622 0.36495 0.29346
 C1283 C 0.06056 0.36286 0.26755
 N1284 N 0.07744 0.37862 0.25568
 C1285 C 0.10738 0.41443 0.25402
 N1286 N 0.10049 0.42054 0.23014
 C1287 C 0.11258 0.43908 0.21707
 C1288 C 0.13252 0.45290 0.22826
 C1289 C 0.14069 0.44634 0.25234
 C1290 C 0.12838 0.42697 0.26519
 H1291 H 0.06772 0.38508 0.32673
 H1292 H 0.04977 0.34947 0.25660
 H1293 H 0.10589 0.44376 0.19845
 H1294 H 0.15609 0.45669 0.26141
 H1295 H 0.09790 0.41259 0.30492
 H1296 H 0.13494 0.42228 0.28385
   
