data_POSCAR
  _audit_creation_date              2014-09-24
  _audit_creation_method            'ToBaCCo'
  _symmetry_space_group_name_H-M    'P1'
  _symmetry_Int_Tables_number       1
  _symmetry_cell_setting            triclinic
  loop_
  _symmetry_equiv_pos_as_xyz
 x,y,z
_cell_length_a 47.0838
_cell_length_b 44.6055
_cell_length_c 38.7893
_cell_angle_alpha 90.338100
_cell_angle_beta 90.081800
_cell_angle_gamma 90.121600
loop_
  _atom_site_label
  _atom_site_type_symbol
  _atom_site_fract_x
  _atom_site_fract_y
  _atom_site_fract_z
Zr1 Zr -0.05778 0.01035 -0.00228
 O2 O -0.09392 -0.01137 -0.02346
 O3 O -0.07646 0.04135 0.03175
 O4 O -0.08005 -0.01506 0.03464
 O5 O -0.04999 0.05789 -0.07203
 O6 O -0.04574 -0.04277 0.06109
 O7 O -0.08196 0.03900 -0.03354
 O8 O -0.03840 0.06491 0.05641
 O9 O -0.03020 0.00978 0.04007
 O10 O -0.03095 0.04738 -0.00813
 O11 O -0.03688 -0.03117 -0.00535
 O12 O -0.03863 0.00515 -0.05120
 Zr13 Zr 0.03976 0.00032 -0.01695
 Zr14 Zr -0.00784 -0.03062 0.03564
 Zr15 Zr -0.01026 0.04136 -0.05518
 Zr16 Zr -0.00248 0.04580 0.03276
 O17 O -0.01375 0.03519 -0.10914
 O18 O 0.00249 0.04043 0.08671
 O19 O 0.01919 0.04222 -0.01438
 O20 O 0.02027 0.00564 0.03143
 O21 O 0.01327 -0.03702 -0.01135
 O22 O 0.01201 0.00108 -0.05903
 C23 C -0.06521 0.06069 0.05241
 C24 C -0.07531 0.05506 -0.05975
 C25 C -0.07176 -0.03478 0.05656
 O26 O -0.00150 -0.02469 0.08926
 O27 O 0.03116 -0.05028 0.04980
 O28 O 0.06338 -0.03051 0.01228
 C29 C 0.05643 -0.04765 0.03746
 O30 O -0.05632 -0.04853 -0.06968
 Zr31 Zr -0.01538 -0.03503 -0.05233
 O32 O 0.05860 -0.03086 -0.05048
 O33 O -0.01270 -0.07777 0.03386
 O34 O -0.01959 -0.08144 -0.04187
 O35 O -0.01738 -0.03157 -0.10679
 O36 O 0.02079 -0.05700 -0.07202
 C37 C 0.04758 -0.05211 -0.06867
 O38 O 0.07605 0.02047 0.00586
 O39 O -0.00833 0.08876 -0.05373
 O40 O 0.06236 0.02795 -0.05122
 O41 O 0.02828 0.05646 -0.07709
 O42 O -0.00106 0.09272 0.02433
 O43 O 0.03843 0.06293 0.04531
 C44 C 0.05432 0.04877 -0.07188
 H45 H -0.04119 0.06673 -0.00799
 H46 H 0.03450 0.00576 0.05025
 H47 H 0.02200 -0.00027 -0.08142
 H48 H -0.05044 -0.04806 -0.00347
 H49 H 0.00006 0.06043 0.09755
 H50 H -0.00274 -0.04484 0.09976
 H51 H -0.01044 -0.08503 0.05781
 H52 H -0.01754 -0.09238 -0.06403
 H53 H -0.00243 0.10275 0.04714
 H54 H -0.01052 0.09570 -0.07780
 H55 H -0.01268 0.05540 -0.11954
 H56 H -0.01516 -0.05206 -0.11642
 H57 H 0.03689 0.07693 0.06512
 H58 H 0.09305 0.01124 -0.00492
 H59 H -0.11099 -0.00206 -0.01293
 H60 H -0.05448 -0.06592 -0.08550
 Zr61 Zr 0.53990 0.49969 0.48269
 O62 O 0.57630 0.51987 0.50522
 O63 O 0.55859 0.46811 0.44957
 O64 O 0.56342 0.46902 0.51224
 O65 O 0.52860 0.55548 0.42206
 O66 O 0.53116 0.44966 0.55000
 O67 O 0.56258 0.52694 0.44810
 O68 O 0.52066 0.44202 0.42827
 O69 O 0.51326 0.46253 0.48869
 O70 O 0.51212 0.50028 0.44063
 O71 O 0.52050 0.50546 0.53105
 O72 O 0.51951 0.54171 0.48483
 Zr73 Zr 0.44242 0.51033 0.49742
 Zr74 Zr 0.49223 0.46937 0.53565
 Zr75 Zr 0.49001 0.54070 0.44411
 Zr76 Zr 0.48459 0.46436 0.44772
 O77 O 0.49211 0.58810 0.44506
 O78 O 0.48013 0.41805 0.45862
 O79 O 0.46149 0.50465 0.44851
 O80 O 0.46315 0.46869 0.49470
 O81 O 0.47007 0.50992 0.53971
 O82 O 0.46941 0.54717 0.49115
 C83 C 0.54748 0.44675 0.43164
 C84 C 0.55462 0.54769 0.42730
 C85 C 0.55644 0.45210 0.53762
 O86 O 0.48721 0.42223 0.53432
 O87 O 0.45429 0.45754 0.56122
 O88 O 0.42007 0.48523 0.53455
 C89 C 0.42829 0.46560 0.55662
 O90 O 0.53898 0.56276 0.54419
 Zr91 Zr 0.49795 0.54574 0.53198
 O92 O 0.42397 0.54158 0.53136
 O93 O 0.49858 0.47569 0.58921
 O94 O 0.50302 0.54080 0.58598
 O95 O 0.49955 0.59259 0.52309
 O96 O 0.46220 0.56518 0.55556
 C97 C 0.43538 0.56101 0.55180
 O98 O 0.40614 0.48870 0.47648
 O99 O 0.48646 0.53411 0.39021
 O100 O 0.41834 0.53893 0.46595
 O101 O 0.45032 0.55730 0.42713
 O102 O 0.48261 0.46743 0.39323
 O103 O 0.44358 0.45095 0.43052
 C104 C 0.42501 0.55473 0.43953
 H105 H 0.52211 0.49870 0.41825
 H106 H 0.44952 0.45187 0.49674
 H107 H 0.45926 0.56658 0.49114
 H108 H 0.53474 0.50566 0.54985
 H109 H 0.48212 0.40694 0.43656
 H110 H 0.48945 0.41514 0.55833
 H111 H 0.49729 0.45562 0.59991
 H112 H 0.50073 0.56090 0.59661
 H113 H 0.48475 0.44686 0.38380
 H114 H 0.48762 0.55423 0.37960
 H115 H 0.48996 0.59485 0.42091
 H116 H 0.49831 0.60279 0.54581
 H117 H 0.44533 0.43347 0.41482
 H118 H 0.38914 0.49817 0.48697
 H119 H 0.59325 0.51046 0.49453
 H120 H 0.53756 0.57691 0.56387
 Zr121 Zr 0.54525 -0.01772 0.50918
 O122 O 0.57905 0.00164 0.48096
 O123 O 0.56686 -0.04764 0.54168
 O124 O 0.57266 0.00760 0.54135
 O125 O 0.52668 -0.06924 0.44598
 O126 O 0.54264 0.03834 0.57105
 O127 O 0.56429 -0.04867 0.47495
 O128 O 0.53143 -0.06749 0.57461
 O129 O 0.52304 -0.01319 0.55563
 O130 O 0.51666 -0.05362 0.51102
 O131 O 0.52558 0.02456 0.50673
 O132 O 0.52014 -0.01432 0.46411
 Zr133 Zr 0.44684 -0.00369 0.51160
 Zr134 Zr 0.50186 0.02789 0.55219
 Zr135 Zr 0.49039 -0.04922 0.46806
 Zr136 Zr 0.49355 -0.04814 0.55624
 O137 O 0.48820 -0.04671 0.41366
 O138 O 0.49577 -0.03920 0.60993
 O139 O 0.46619 -0.04632 0.51345
 O140 O 0.47222 -0.00700 0.55607
 O141 O 0.47514 0.03251 0.50938
 O142 O 0.46922 -0.00829 0.46530
 C143 C 0.55762 -0.06484 0.56576
 C144 C 0.55346 -0.06640 0.45207
 C145 C 0.56757 0.02841 0.56365
 O146 O 0.50057 0.02596 0.60665
 O147 O 0.46629 0.05194 0.56974
 O148 O 0.42832 0.03035 0.54253
 C149 C 0.43959 0.04989 0.56311
 O150 O 0.53674 0.03840 0.43883
 Zr151 Zr 0.49826 0.02679 0.46407
 O152 O 0.42508 0.02648 0.48004
 O153 O 0.50987 0.07427 0.54622
 O154 O 0.50420 0.07356 0.47113
 O155 O 0.49425 0.01959 0.41019
 O156 O 0.46029 0.04813 0.44826
 C157 C 0.43412 0.04507 0.45740
 O158 O 0.41342 -0.02094 0.54214
 O159 O 0.48605 -0.09615 0.47382
 O160 O 0.41933 -0.03191 0.48276
 O161 O 0.44933 -0.06269 0.45284
 O162 O 0.48937 -0.09533 0.55135
 O163 O 0.45428 -0.06245 0.57760
 C164 C 0.42438 -0.05347 0.46131
 H165 H 0.52612 -0.07341 0.51066
 H166 H 0.46058 -0.00502 0.57720
 H167 H 0.45679 -0.00779 0.44471
 H168 H 0.53990 0.04078 0.50524
 H169 H 0.49886 -0.05858 0.62170
 H170 H 0.50432 0.04655 0.61527
 H171 H 0.51065 0.08314 0.56969
 H172 H 0.49933 0.08342 0.44908
 H173 H 0.49353 -0.10414 0.57420
 H174 H 0.48523 -0.10483 0.45026
 H175 H 0.48490 -0.06739 0.40504
 H176 H 0.49106 0.03939 0.39938
 H177 H 0.45797 -0.07556 0.59761
 H178 H 0.39557 -0.01160 0.53389
 H179 H 0.59689 -0.00797 0.48886
 H180 H 0.53325 0.05532 0.42298
 Zr181 Zr -0.05297 0.49643 0.00803
 O182 O -0.08657 0.47903 0.03817
 O183 O -0.07465 0.52660 -0.02364
 O184 O -0.07174 0.53028 0.03907
 O185 O -0.04994 0.43815 -0.05155
 O186 O -0.03395 0.55180 0.06672
 O187 O -0.08021 0.46810 -0.02112
 O188 O -0.03943 0.54815 -0.05535
 O189 O -0.02478 0.53276 0.00631
 O190 O -0.03030 0.49217 -0.03811
 O191 O -0.02782 0.49294 0.05267
 O192 O -0.03352 0.45384 0.00969
 Zr193 Zr 0.04548 0.48271 0.00632
 Zr194 Zr 0.00175 0.52795 0.04929
 Zr195 Zr -0.00903 0.45131 -0.03549
 Zr196 Zr -0.00140 0.52735 -0.03884
 O197 O -0.01351 0.40437 -0.03007
 O198 O 0.00388 0.57414 -0.03122
 O199 O 0.02063 0.48632 -0.03893
 O200 O 0.02572 0.52494 0.00401
 O201 O 0.02301 0.48691 0.05260
 O202 O 0.01699 0.44671 0.00765
 C203 C -0.06571 0.54507 -0.04652
 C204 C -0.07508 0.44695 -0.04312
 C205 C -0.06061 0.54972 0.05989
 O206 O 0.00970 0.57439 0.04376
 O207 O 0.04242 0.53841 0.06856
 O208 O 0.07264 0.50787 0.03889
 C209 C 0.06740 0.52855 0.06129
 O210 O -0.04577 0.43734 0.07359
 Zr211 Zr -0.00640 0.45186 0.05270
 O212 O 0.06699 0.45263 0.03873
 O213 O 0.00015 0.52569 0.10372
 O214 O -0.00451 0.46048 0.10647
 O215 O -0.01043 0.40469 0.04744
 O216 O 0.03143 0.43251 0.07123
 C217 C 0.05766 0.43527 0.06262
 O218 O 0.07940 0.50234 -0.02144
 O219 O -0.01068 0.45404 -0.08991
 O220 O 0.06478 0.45207 -0.02803
 O221 O 0.02745 0.43146 -0.05735
 O222 O -0.00462 0.52033 -0.09283
 O223 O 0.03718 0.53965 -0.06345
 C224 C 0.05423 0.43432 -0.05114
 H225 H -0.04258 0.49270 -0.05883
 H226 H 0.04000 0.54122 0.00276
 H227 H 0.02650 0.42694 0.00720
 H228 H -0.03958 0.49478 0.07371
 H229 H -0.00099 0.58411 -0.05321
 H230 H 0.01032 0.58312 0.06730
 H231 H 0.00383 0.54624 0.11253
 H232 H -0.00145 0.44104 0.11812
 H233 H -0.00791 0.54012 -0.10360
 H234 H -0.01391 0.43341 -0.09870
 H235 H -0.01414 0.39580 -0.05369
 H236 H -0.00639 0.39576 0.07027
 H237 H 0.03366 0.55675 -0.07904
 H238 H 0.09721 0.49271 -0.01349
 H239 H -0.10438 0.48834 0.02974
 H240 H -0.04218 0.42412 0.09355
 Zr241 Zr 0.05936 0.49481 0.49891
 O242 O 0.09313 0.46949 0.51992
 O243 O 0.08085 0.52268 0.46435
 O244 O 0.07801 0.46633 0.46154
 O245 O 0.05702 0.54546 0.56671
 O246 O 0.04011 0.44211 0.43723
 O247 O 0.08685 0.52188 0.52899
 O248 O 0.04523 0.54900 0.43853
 O249 O 0.03108 0.49584 0.45716
 O250 O 0.03654 0.53476 0.50369
 O251 O 0.03412 0.45609 0.50372
 O252 O 0.04044 0.49346 0.54823
 Zr253 Zr -0.03898 0.49627 0.51588
 Zr254 Zr 0.00443 0.45862 0.46357
 Zr255 Zr 0.01594 0.53261 0.55107
 Zr256 Zr 0.00750 0.53500 0.46338
 O257 O 0.01965 0.52813 0.60517
 O258 O 0.00144 0.52783 0.40979
 O259 O -0.01394 0.53540 0.51098
 O260 O -0.01965 0.49789 0.46697
 O261 O -0.01645 0.45609 0.51107
 O262 O -0.01035 0.49536 0.55711
 C263 C 0.07159 0.54224 0.44294
 C264 C 0.08186 0.53973 0.55450
 C265 C 0.06686 0.44730 0.44030
 O266 O -0.00279 0.46322 0.41001
 O267 O -0.03636 0.44249 0.45106
 O268 O -0.06610 0.46708 0.48799
 C269 C -0.06111 0.44818 0.46349
 O270 O 0.05256 0.43850 0.56814
 Zr271 Zr 0.01310 0.45624 0.55119
 O272 O -0.06028 0.46833 0.55094
 O273 O 0.00492 0.41129 0.46686
 O274 O 0.01211 0.40932 0.54207
 O275 O 0.01658 0.46152 0.60541
 O276 O -0.02471 0.43928 0.57259
 C277 C -0.05096 0.44677 0.56972
 O278 O -0.07331 0.51974 0.49336
 O279 O 0.01885 0.57989 0.54794
 O280 O -0.05784 0.52724 0.55036
 O281 O -0.02004 0.55287 0.57291
 O282 O 0.01096 0.58204 0.47053
 O283 O -0.03123 0.55641 0.44997
 C284 C -0.04680 0.54792 0.56955
 H285 H 0.04865 0.55290 0.50282
 H286 H -0.03407 0.49886 0.44842
 H287 H -0.01991 0.49596 0.57982
 H288 H 0.04579 0.43771 0.50195
 H289 H 0.00622 0.54681 0.39796
 H290 H -0.00357 0.44268 0.40013
 H291 H 0.00146 0.40345 0.44326
 H292 H 0.00925 0.39938 0.56459
 H293 H 0.01383 0.59110 0.44752
 H294 H 0.02225 0.58748 0.57166
 H295 H 0.02078 0.54870 0.61487
 H296 H 0.01229 0.44182 0.61593
 H297 H -0.02807 0.56950 0.42980
 H298 H -0.09093 0.51276 0.50482
 H299 H 0.11090 0.47655 0.50887
 H300 H 0.04908 0.42205 0.58464
 Zr301 Zr 0.46263 -0.00328 0.01812
 O302 O 0.42943 0.02282 -0.00298
 O303 O 0.43991 -0.03241 0.05050
 O304 O 0.43488 -0.02965 -0.01238
 O305 O 0.48275 0.04887 0.08001
 O306 O 0.46406 -0.05287 -0.05110
 O307 O 0.44443 0.02629 0.05462
 O308 O 0.47408 -0.06449 0.06967
 O309 O 0.48374 -0.04393 0.01004
 O310 O 0.49064 -0.00813 0.05956
 O311 O 0.48261 0.00082 -0.03017
 O312 O 0.48910 0.03503 0.01718
 Zr313 Zr 0.56106 -0.00763 0.00260
 Zr314 Zr 0.50528 -0.03908 -0.03677
 Zr315 Zr 0.51831 0.02834 0.05732
 Zr316 Zr 0.51273 -0.04771 0.05047
 O317 O 0.52346 0.07550 0.05838
 O318 O 0.51017 -0.09383 0.03716
 O319 O 0.54135 -0.01154 0.05126
 O320 O 0.53435 -0.04551 0.00348
 O321 O 0.53334 -0.00263 -0.03929
 O322 O 0.53973 0.03285 0.01067
 C323 C 0.44820 -0.05561 0.06731
 C324 C 0.45588 0.04532 0.07563
 C325 C 0.43942 -0.04718 -0.03829
 O326 O 0.50414 -0.08650 -0.03784
 O327 O 0.54069 -0.05523 -0.06398
 O328 O 0.57904 -0.03416 -0.03701
 C329 C 0.56755 -0.05133 -0.06000
 O330 O 0.47339 0.06095 -0.04150
 Zr331 Zr 0.51114 0.03695 -0.02989
 O332 O 0.58401 0.02194 -0.02879
 O333 O 0.49885 -0.03044 -0.08978
 O334 O 0.50511 0.03393 -0.08399
 O335 O 0.51663 0.08316 -0.01849
 O336 O 0.54948 0.05062 -0.05337
 C337 C 0.57556 0.04278 -0.04910
 O338 O 0.59375 -0.03593 0.02102
 O339 O 0.52066 0.02032 0.11097
 O340 O 0.58916 0.01488 0.03658
 O341 O 0.55960 0.03764 0.07520
 O342 O 0.51569 -0.04627 0.10501
 O343 O 0.55132 -0.06811 0.06632
 C344 C 0.58445 0.03094 0.06370
 H345 H 0.48078 -0.00861 0.08209
 H346 H 0.54536 -0.06419 0.00024
 H347 H 0.55266 0.05036 0.01173
 H348 H 0.46845 0.00363 -0.04876
 H349 H 0.50668 -0.10513 0.05866
 H350 H 0.50064 -0.09256 -0.06211
 H351 H 0.49742 -0.05018 -0.10152
 H352 H 0.51060 0.05351 -0.09394
 H353 H 0.51058 -0.06644 0.11364
 H354 H 0.52253 0.04015 0.12239
 H355 H 0.52679 0.08131 0.08275
 H356 H 0.52006 0.09360 -0.04058
 H357 H 0.54705 -0.08549 0.08122
 H358 H 0.61188 -0.02876 0.01094
 H359 H 0.41142 0.01587 0.00762
 H360 H 0.47727 0.07548 -0.06012
 Zr361 Zr 0.45303 0.49969 -0.00247
 O362 O 0.42226 0.52226 0.02779
 O363 O 0.42769 0.47618 -0.03777
 O364 O 0.43023 0.53116 -0.03164
 O365 O 0.46220 0.44288 0.05678
 O366 O 0.46455 0.55722 -0.06034
 O367 O 0.42889 0.46963 0.02722
 O368 O 0.46002 0.45179 -0.07146
 O369 O 0.47624 0.50246 -0.04834
 O370 O 0.47588 0.45969 -0.00652
 O371 O 0.47840 0.53825 0.00284
 O372 O 0.47712 0.49698 0.04329
 Zr373 Zr 0.55164 0.49773 -0.00217
 Zr374 Zr 0.50318 0.53947 -0.04198
 Zr375 Zr 0.50150 0.45792 0.03732
 Zr376 Zr 0.50016 0.46321 -0.05092
 O377 O 0.50246 0.45771 0.09186
 O378 O 0.50081 0.47442 -0.10396
 O379 O 0.52658 0.45871 -0.00745
 O380 O 0.52728 0.50032 -0.04749
 O381 O 0.52914 0.53799 0.00184
 O382 O 0.52800 0.49501 0.04328
 C383 C 0.43444 0.45876 -0.06288
 C384 C 0.43634 0.44957 0.04912
 C385 C 0.43846 0.55155 -0.05272
 O386 O 0.50459 0.53938 -0.09649
 O387 O 0.54250 0.55728 -0.05807
 O388 O 0.57564 0.52970 -0.02928
 C389 C 0.56830 0.55081 -0.04988
 O390 O 0.46736 0.55026 0.07131
 Zr391 Zr 0.50448 0.53422 0.04618
 O392 O 0.57709 0.52191 0.03248
 O393 O 0.50275 0.58630 -0.03308
 O394 O 0.50530 0.58164 0.04267
 O395 O 0.50679 0.52502 0.09969
 O396 O 0.54464 0.54873 0.06345
 C397 C 0.57024 0.54133 0.05554
 O398 O 0.58252 0.47654 -0.03355
 O399 O 0.49952 0.41116 0.02819
 O400 O 0.57438 0.46490 0.02508
 O401 O 0.54007 0.43825 0.05317
 O402 O 0.49651 0.41582 -0.04996
 O403 O 0.53726 0.44319 -0.07198
 C404 C 0.56615 0.44405 0.04557
 H405 H 0.46363 0.44167 -0.00805
 H406 H 0.53958 0.50111 -0.06814
 H407 H 0.53986 0.49282 0.06420
 H408 H 0.46668 0.55652 0.00537
 H409 H 0.49482 0.45635 -0.11708
 H410 H 0.50430 0.56064 -0.10376
 H411 H 0.50356 0.59598 -0.05599
 H412 H 0.51100 0.58961 0.06556
 H413 H 0.49160 0.40906 -0.07362
 H414 H 0.49860 0.40149 0.05109
 H415 H 0.50251 0.43641 0.09900
 H416 H 0.51228 0.54391 0.11157
 H417 H 0.53221 0.43192 -0.09319
 H418 H 0.60145 0.48252 -0.02454
 H419 H 0.40328 0.51633 0.01889
 H420 H 0.47267 0.56596 0.08829
 Zr421 Zr 0.05141 -0.00212 0.49711
 O422 O 0.08239 -0.02325 0.46582
 O423 O 0.07680 0.02257 0.53138
 O424 O 0.07505 0.02984 0.46951
 O425 O 0.04033 -0.06144 0.55287
 O426 O 0.04163 0.05694 0.44058
 O427 O 0.07442 -0.03472 0.52452
 O428 O 0.04428 0.04957 0.56200
 O429 O 0.02861 0.03800 0.50063
 O430 O 0.02794 -0.00459 0.54270
 O431 O 0.02687 -0.00010 0.45186
 O432 O 0.02659 -0.04134 0.49242
 Zr433 Zr -0.04720 -0.00090 0.49725
 Zr434 Zr 0.00246 0.03890 0.45691
 Zr435 Zr 0.00163 -0.04192 0.53730
 Zr436 Zr 0.00416 0.03449 0.54517
 O437 O -0.00027 -0.08878 0.52885
 O438 O 0.00459 0.08188 0.54103
 O439 O -0.02296 -0.00297 0.54292
 O440 O -0.02212 0.03792 0.50190
 O441 O -0.02417 0.00159 0.45123
 O442 O -0.02411 -0.04076 0.49356
 C443 C 0.06991 0.04225 0.55413
 C444 C 0.06635 -0.05564 0.54506
 C445 C 0.06750 0.05074 0.44873
 O446 O 0.00147 0.08580 0.46522
 O447 O -0.03646 0.05584 0.43810
 O448 O -0.07037 0.02994 0.46769
 C449 C -0.06247 0.04997 0.44600
 O450 O 0.03721 -0.05746 0.42815
 Zr451 Zr 0.00003 -0.03746 0.44901
 O452 O -0.07250 -0.02491 0.46238
 O453 O 0.00396 0.03832 0.40240
 O454 O 0.00057 -0.02679 0.39582
 O455 O -0.00343 -0.08485 0.45054
 O456 O -0.04009 -0.04918 0.42867
 C457 C -0.06569 -0.04234 0.43732
 O458 O -0.07797 0.02178 0.52740
 O459 O 0.00298 -0.04155 0.59184
 O460 O -0.07106 -0.03083 0.52740
 O461 O -0.03750 -0.05701 0.55721
 O462 O 0.00680 0.02588 0.59879
 O463 O -0.03299 0.05044 0.57030
 C464 C -0.06342 -0.05061 0.54954
 H465 H 0.03992 -0.00653 0.56356
 H466 H -0.03400 0.05611 0.50420
 H467 H -0.03626 -0.05887 0.49229
 H468 H 0.03912 0.00058 0.43115
 H469 H 0.01028 0.09013 0.56380
 H470 H 0.00216 0.09525 0.44218
 H471 H 0.00340 0.05950 0.39487
 H472 H -0.00533 -0.04503 0.38294
 H473 H 0.01215 0.04494 0.61037
 H474 H 0.00312 -0.06278 0.59925
 H475 H -0.00101 -0.09822 0.55189
 H476 H -0.00838 -0.09183 0.42697
 H477 H -0.02774 0.06636 0.58705
 H478 H -0.09696 0.01564 0.51871
 H479 H 0.10128 -0.01705 0.47473
 H480 H 0.03219 -0.06903 0.40714
 Zr481 Zr 0.75170 0.20138 0.25192
 O482 O 0.73115 0.16690 0.27975
 O483 O 0.77496 0.17697 0.21539
 O484 O 0.72305 0.17733 0.21996
 O485 O 0.80520 0.21137 0.31224
 O486 O 0.69605 0.21406 0.19566
 O487 O 0.78106 0.17611 0.28079
 O488 O 0.79590 0.21341 0.18310
 O489 O 0.74811 0.22768 0.20765
 O490 O 0.78876 0.22724 0.24950
 O491 O 0.71446 0.22663 0.25889
 O492 O 0.75354 0.22542 0.29901
 Zr493 Zr 0.75013 0.30596 0.25806
 Zr494 Zr 0.71231 0.25443 0.21569
 Zr495 Zr 0.78964 0.25286 0.29469
 Zr496 Zr 0.78445 0.25445 0.20661
 O497 O 0.78992 0.25221 0.34924
 O498 O 0.77375 0.25727 0.15360
 O499 O 0.78783 0.28098 0.25148
 O500 O 0.74847 0.28154 0.21156
 O501 O 0.71284 0.28047 0.26071
 O502 O 0.75376 0.27941 0.30212
 C503 C 0.79044 0.18581 0.19017
 C504 C 0.79983 0.18408 0.30326
 C505 C 0.70277 0.18647 0.20028
 O506 O 0.71205 0.25722 0.16125
 O507 O 0.69446 0.29542 0.20083
 O508 O 0.71934 0.33097 0.23083
 C509 C 0.69984 0.32274 0.20940
 O510 O 0.70376 0.21242 0.32693
 Zr511 Zr 0.71747 0.25294 0.30360
 O512 O 0.72604 0.33042 0.29383
 O513 O 0.66804 0.25257 0.22474
 O514 O 0.67254 0.25161 0.29994
 O515 O 0.72674 0.25411 0.35712
 O516 O 0.70183 0.29409 0.32280
 C517 C 0.70774 0.32168 0.31618
 O518 O 0.76907 0.34076 0.22911
 O519 O 0.83396 0.25251 0.28576
 O520 O 0.78092 0.32995 0.28671
 O521 O 0.80763 0.29354 0.31220
 O522 O 0.82942 0.25190 0.20793
 O523 O 0.80233 0.29503 0.18797
 C524 C 0.80143 0.32115 0.30618
 H525 H 0.80620 0.21504 0.24734
 H526 H 0.74729 0.29510 0.19150
 H527 H 0.75556 0.29133 0.32362
 H528 H 0.69757 0.21346 0.26061
 H529 H 0.79101 0.25221 0.14020
 H530 H 0.69189 0.25658 0.15389
 H531 H 0.65861 0.25380 0.20193
 H532 H 0.66483 0.25651 0.32306
 H533 H 0.83594 0.24759 0.18413
 H534 H 0.84323 0.25105 0.30864
 H535 H 0.81010 0.25279 0.35652
 H536 H 0.70885 0.25895 0.36936
 H537 H 0.81365 0.29080 0.16701
 H538 H 0.76269 0.36006 0.23931
 H539 H 0.73748 0.14753 0.26970
 H540 H 0.68913 0.21694 0.34452
 Zr541 Zr 0.75810 0.79966 0.75122
 O542 O 0.78153 0.83340 0.77748
 O543 O 0.73266 0.82537 0.71800
 O544 O 0.78568 0.82314 0.71834
 O545 O 0.70909 0.79057 0.81671
 O546 O 0.80905 0.78641 0.68863
 O547 O 0.73287 0.82541 0.78491
 O548 O 0.70864 0.78993 0.68693
 O549 O 0.75798 0.77402 0.70584
 O550 O 0.72024 0.77514 0.75163
 O551 O 0.79495 0.77316 0.75365
 O552 O 0.75875 0.77504 0.79755
 Zr553 Zr 0.75711 0.69517 0.75403
 Zr554 Zr 0.79349 0.74601 0.70941
 Zr555 Zr 0.72168 0.74888 0.79592
 Zr556 Zr 0.72093 0.74837 0.70763
 O557 O 0.72500 0.74785 0.85031
 O558 O 0.72796 0.74637 0.65367
 O559 O 0.71987 0.72139 0.75183
 O560 O 0.75633 0.72014 0.70819
 O561 O 0.79516 0.71947 0.75372
 O562 O 0.75715 0.72105 0.79913
 C563 C 0.71503 0.81730 0.69431
 C564 C 0.71550 0.81780 0.80890
 C565 C 0.80386 0.81408 0.69591
 O566 O 0.79000 0.74345 0.65509
 O567 O 0.80937 0.70435 0.69227
 O568 O 0.78433 0.66951 0.72259
 C569 C 0.80312 0.67712 0.70023
 O570 O 0.81048 0.78639 0.82062
 Zr571 Zr 0.79417 0.74646 0.79780
 O572 O 0.78387 0.66952 0.78572
 O573 O 0.83826 0.74692 0.71408
 O574 O 0.83874 0.74634 0.79003
 O575 O 0.78836 0.74506 0.85198
 O576 O 0.80979 0.70485 0.81472
 C577 C 0.80340 0.67753 0.80711
 O578 O 0.73506 0.66125 0.72635
 O579 O 0.67695 0.75156 0.79151
 O580 O 0.72753 0.67173 0.78457
 O581 O 0.70295 0.70859 0.81262
 O582 O 0.67628 0.75185 0.71354
 O583 O 0.70089 0.70859 0.68936
 C584 C 0.70795 0.68092 0.80520
 H585 H 0.70316 0.78803 0.75179
 H586 H 0.75571 0.70684 0.68768
 H587 H 0.75640 0.70873 0.82026
 H588 H 0.81230 0.78574 0.75417
 H589 H 0.70995 0.75202 0.64217
 H590 H 0.80962 0.74373 0.64586
 H591 H 0.84601 0.74554 0.69038
 H592 H 0.84779 0.74121 0.81231
 H593 H 0.66817 0.75659 0.69062
 H594 H 0.66935 0.75280 0.81529
 H595 H 0.70535 0.74793 0.85942
 H596 H 0.80690 0.73984 0.86246
 H597 H 0.68841 0.71345 0.66960
 H598 H 0.74152 0.64161 0.73532
 H599 H 0.77498 0.85310 0.76878
 H600 H 0.82607 0.78130 0.83669
 Zr601 Zr 0.25618 0.30408 0.75951
 O602 O 0.23928 0.34460 0.74014
 O603 O 0.28490 0.31976 0.79672
 O604 O 0.23217 0.32731 0.79722
 O605 O 0.30457 0.29558 0.69283
 O606 O 0.20170 0.29183 0.81770
 O607 O 0.28679 0.32895 0.73213
 O608 O 0.30279 0.27708 0.82044
 O609 O 0.25097 0.27306 0.79929
 O610 O 0.28951 0.27344 0.75442
 O611 O 0.21571 0.28530 0.75159
 O612 O 0.25304 0.28656 0.70891
 Zr613 Zr 0.24054 0.20289 0.73630
 Zr614 Zr 0.21157 0.25263 0.78987
 Zr615 Zr 0.28532 0.25421 0.70555
 Zr616 Zr 0.28340 0.24172 0.79274
 O617 O 0.28340 0.26056 0.65158
 O618 O 0.27447 0.23475 0.84566
 O619 O 0.28142 0.22128 0.74381
 O620 O 0.24395 0.22068 0.78641
 O621 O 0.20696 0.23322 0.74095
 O622 O 0.24595 0.23409 0.69681
 C623 C 0.30114 0.30575 0.81783
 C624 C 0.30292 0.32195 0.70654
 C625 C 0.21163 0.31872 0.81680
 O626 O 0.21310 0.24243 0.84303
 O627 O 0.18869 0.21274 0.79866
 O628 O 0.20757 0.17893 0.76077
 C629 C 0.18994 0.18654 0.78463
 O630 O 0.20490 0.31007 0.68785
 Zr631 Zr 0.21351 0.26522 0.70277
 O632 O 0.21194 0.18719 0.69906
 O633 O 0.16769 0.26186 0.78497
 O634 O 0.16941 0.27248 0.70998
 O635 O 0.22037 0.26973 0.64902
 O636 O 0.19148 0.22978 0.67838
 C637 C 0.19397 0.20114 0.68008
 O638 O 0.25575 0.16238 0.75765
 O639 O 0.32976 0.24881 0.71070
 O640 O 0.26623 0.17880 0.70145
 O641 O 0.29800 0.21352 0.68193
 O642 O 0.32802 0.23697 0.78768
 O643 O 0.29568 0.19695 0.80377
 C644 C 0.28792 0.18662 0.68340
 H645 H 0.30850 0.28279 0.75672
 H646 H 0.24171 0.20483 0.80397
 H647 H 0.24533 0.22484 0.67355
 H648 H 0.20070 0.30073 0.75343
 H649 H 0.29279 0.23540 0.85824
 H650 H 0.19355 0.24488 0.85202
 H651 H 0.15913 0.25883 0.80801
 H652 H 0.16033 0.27219 0.68691
 H653 H 0.33623 0.23681 0.81122
 H654 H 0.33800 0.25155 0.68743
 H655 H 0.30306 0.25841 0.64283
 H656 H 0.20151 0.26943 0.63766
 H657 H 0.30779 0.19680 0.82465
 H658 H 0.24641 0.14565 0.74500
 H659 H 0.24876 0.36132 0.75267
 H660 H 0.18929 0.31019 0.67072
 Zr661 Zr 0.23947 0.70359 0.23830
 O662 O 0.26125 0.67094 0.20864
 O663 O 0.21309 0.67685 0.26905
 O664 O 0.26689 0.67735 0.26893
 O665 O 0.18911 0.71865 0.17580
 O666 O 0.29199 0.71176 0.30049
 O667 O 0.21199 0.68075 0.20370
 O668 O 0.19105 0.71083 0.30411
 O669 O 0.24112 0.72642 0.28570
 O670 O 0.20260 0.72950 0.24111
 O671 O 0.27710 0.72918 0.23718
 O672 O 0.24014 0.73107 0.19415
 Zr673 Zr 0.24192 0.80833 0.24394
 Zr674 Zr 0.27737 0.75373 0.28346
 Zr675 Zr 0.20408 0.75830 0.19912
 Zr676 Zr 0.20498 0.75333 0.28717
 O677 O 0.20643 0.76194 0.14482
 O678 O 0.21364 0.75106 0.34075
 O679 O 0.20392 0.78311 0.24529
 O680 O 0.24118 0.78066 0.28773
 O681 O 0.27916 0.78287 0.24134
 O682 O 0.24030 0.78504 0.19706
 C683 C 0.19595 0.68390 0.29353
 C684 C 0.19409 0.69075 0.18133
 C685 C 0.28582 0.68467 0.29152
 O686 O 0.27493 0.75299 0.33791
 O687 O 0.29491 0.79369 0.30386
 O688 O 0.27184 0.83103 0.27520
 C689 C 0.29032 0.82152 0.29705
 O690 O 0.29173 0.71978 0.16927
 Zr691 Zr 0.27649 0.75856 0.19536
 O692 O 0.26757 0.83523 0.21233
 O693 O 0.32199 0.75181 0.27752
 O694 O 0.32115 0.75755 0.20239
 O695 O 0.26986 0.76282 0.14152
 O696 O 0.29245 0.80086 0.18086
 C697 C 0.28634 0.82796 0.18975
 O698 O 0.22197 0.84094 0.27550
 O699 O 0.15938 0.75741 0.20474
 O700 O 0.21250 0.83453 0.21608
 O701 O 0.18683 0.79997 0.18550
 O702 O 0.16011 0.75228 0.28237
 O703 O 0.18681 0.79226 0.30997
 C704 C 0.19275 0.82705 0.19464
 H705 H 0.18493 0.71746 0.24033
 H706 H 0.24149 0.79276 0.30920
 H707 H 0.23944 0.79840 0.17679
 H708 H 0.29404 0.71617 0.23524
 H709 H 0.19582 0.74501 0.35240
 H710 H 0.29467 0.75144 0.34660
 H711 H 0.33022 0.75141 0.30104
 H712 H 0.33000 0.76403 0.18050
 H713 H 0.15225 0.74619 0.30497
 H714 H 0.15120 0.75785 0.18119
 H715 H 0.18665 0.76336 0.13623
 H716 H 0.28831 0.76836 0.13102
 H717 H 0.17502 0.78638 0.32994
 H718 H 0.22888 0.86087 0.26788
 H719 H 0.25411 0.65100 0.21589
 H720 H 0.30739 0.72549 0.15360
 Zr721 Zr 0.25078 0.80762 0.75599
 O722 O 0.26883 0.84187 0.72539
 O723 O 0.22573 0.83265 0.79023
 O724 O 0.21927 0.83033 0.72746
 O725 O 0.30799 0.79934 0.81168
 O726 O 0.19571 0.79300 0.69866
 O727 O 0.28057 0.83382 0.78386
 O728 O 0.20226 0.79667 0.82059
 O729 O 0.21426 0.78090 0.75911
 O730 O 0.25470 0.78294 0.80141
 O731 O 0.25034 0.78147 0.71066
 O732 O 0.28933 0.78385 0.75133
 Zr733 Zr 0.25574 0.70340 0.75544
 Zr734 Zr 0.21500 0.75312 0.71532
 Zr735 Zr 0.29154 0.75747 0.79600
 Zr736 Zr 0.21917 0.75538 0.80355
 O737 O 0.33596 0.75844 0.78782
 O738 O 0.17434 0.75261 0.79903
 O739 O 0.25621 0.72911 0.80127
 O740 O 0.21751 0.72732 0.76015
 O741 O 0.25185 0.72759 0.70963
 O742 O 0.29200 0.73029 0.75207
 C743 C 0.20752 0.82416 0.81282
 C744 C 0.30107 0.82646 0.80417
 C745 C 0.20010 0.82075 0.70633
 O746 O 0.17075 0.74906 0.72347
 O747 O 0.20143 0.71103 0.69597
 O748 O 0.22800 0.67696 0.72551
 C749 C 0.20865 0.68399 0.70361
 O750 O 0.30425 0.79617 0.68781
 Zr751 Zr 0.28727 0.75564 0.70774
 O752 O 0.27974 0.67833 0.72020
 O753 O 0.21532 0.75464 0.66081
 O754 O 0.27722 0.75647 0.65444
 O755 O 0.33228 0.75430 0.70957
 O756 O 0.29977 0.71416 0.68621
 C757 C 0.29493 0.68669 0.69451
 O758 O 0.23629 0.66949 0.78533
 O759 O 0.29117 0.75889 0.85053
 O760 O 0.28562 0.68022 0.78549
 O761 O 0.30836 0.71722 0.81574
 O762 O 0.22744 0.75878 0.85720
 O763 O 0.20636 0.71527 0.82849
 C764 C 0.30393 0.68951 0.80777
 H765 H 0.25588 0.79571 0.82232
 H766 H 0.20106 0.71360 0.76224
 H767 H 0.30981 0.71860 0.75069
 H768 H 0.24895 0.79429 0.68997
 H769 H 0.16618 0.75805 0.82175
 H770 H 0.16171 0.74906 0.70039
 H771 H 0.19532 0.75258 0.65312
 H772 H 0.29479 0.75152 0.64160
 H773 H 0.20916 0.76322 0.86878
 H774 H 0.31123 0.76040 0.85810
 H775 H 0.34500 0.75820 0.81090
 H776 H 0.33904 0.74945 0.68600
 H777 H 0.19114 0.71984 0.84529
 H778 H 0.24321 0.64989 0.77651
 H779 H 0.26175 0.86129 0.73452
 H780 H 0.31591 0.79169 0.66720
 Zr781 Zr 0.25603 0.19510 0.25227
 O782 O 0.23416 0.16126 0.22428
 O783 O 0.28238 0.16936 0.28434
 O784 O 0.28355 0.16941 0.22123
 O785 O 0.20155 0.20861 0.31039
 O786 O 0.30911 0.20421 0.19148
 O787 O 0.22618 0.17171 0.28248
 O788 O 0.30851 0.20462 0.31316
 O789 O 0.29413 0.21935 0.25232
 O790 O 0.25587 0.22097 0.29739
 O791 O 0.25562 0.22007 0.20643
 O792 O 0.21886 0.22138 0.24977
 Zr793 Zr 0.25719 0.29959 0.24950
 Zr794 Zr 0.29280 0.24589 0.20801
 Zr795 Zr 0.22047 0.24887 0.29390
 Zr796 Zr 0.29294 0.24632 0.29638
 O797 O 0.17578 0.25174 0.28912
 O798 O 0.33756 0.24626 0.28899
 O799 O 0.25756 0.27496 0.29584
 O800 O 0.29401 0.27305 0.25226
 O801 O 0.25733 0.27394 0.20413
 O802 O 0.21931 0.27512 0.24959
 C803 C 0.30196 0.17732 0.30569
 C804 C 0.20652 0.18093 0.30298
 C805 C 0.30277 0.17699 0.19940
 O806 O 0.33754 0.24707 0.21303
 O807 O 0.30838 0.28628 0.18723
 O808 O 0.28494 0.32303 0.21682
 C809 C 0.30318 0.31395 0.19448
 O810 O 0.20029 0.20858 0.18713
 Zr811 Zr 0.22024 0.24835 0.20558
 O812 O 0.23195 0.32533 0.21609
 O813 O 0.28964 0.24301 0.15368
 O814 O 0.22761 0.24638 0.15169
 O815 O 0.17556 0.25187 0.21104
 O816 O 0.20809 0.28992 0.18478
 C817 C 0.21445 0.31728 0.19225
 O818 O 0.28053 0.33328 0.27595
 O819 O 0.22344 0.24770 0.34831
 O820 O 0.23181 0.32539 0.28300
 O821 O 0.20798 0.29056 0.31478
 O822 O 0.28686 0.24475 0.35051
 O823 O 0.30912 0.28619 0.31946
 C824 C 0.21444 0.31780 0.30701
 H825 H 0.25498 0.20864 0.31850
 H826 H 0.31135 0.28562 0.25293
 H827 H 0.20224 0.28804 0.24963
 H828 H 0.25516 0.20674 0.18593
 H829 H 0.34648 0.24106 0.31132
 H830 H 0.34544 0.24561 0.18941
 H831 H 0.30931 0.24335 0.14463
 H832 H 0.20968 0.25203 0.14002
 H833 H 0.30534 0.23943 0.36109
 H834 H 0.20374 0.24787 0.35726
 H835 H 0.16805 0.25298 0.31283
 H836 H 0.16761 0.25658 0.18803
 H837 H 0.32458 0.28106 0.33570
 H838 H 0.27406 0.35300 0.26721
 H839 H 0.24051 0.14160 0.23331
 H840 H 0.18797 0.21343 0.16723
 Zr841 Zr 0.74141 0.70170 0.23610
 O842 O 0.75678 0.66124 0.25742
 O843 O 0.71281 0.68593 0.19896
 O844 O 0.70851 0.67763 0.26059
 O845 O 0.79863 0.71249 0.18141
 O846 O 0.68957 0.71139 0.29850
 O847 O 0.76705 0.67767 0.20112
 O848 O 0.69212 0.72843 0.17838
 O849 O 0.70775 0.73192 0.24085
 O850 O 0.74664 0.73291 0.19659
 O851 O 0.74484 0.71947 0.28621
 O852 O 0.78227 0.72017 0.24347
 Zr853 Zr 0.75680 0.80289 0.25926
 Zr854 Zr 0.71238 0.75134 0.28975
 Zr855 Zr 0.78598 0.75313 0.20521
 Zr856 Zr 0.71413 0.76394 0.20264
 O857 O 0.83044 0.74778 0.21025
 O858 O 0.67003 0.77111 0.20997
 O859 O 0.75362 0.78538 0.20866
 O860 O 0.71636 0.78401 0.25146
 O861 O 0.75175 0.77185 0.29905
 O862 O 0.79020 0.77235 0.25409
 C863 C 0.69472 0.69980 0.18009
 C864 C 0.78861 0.68557 0.18290
 C865 C 0.69087 0.68520 0.28444
 O866 O 0.66848 0.76049 0.28500
 O867 O 0.70251 0.79050 0.31767
 O868 O 0.73280 0.82607 0.29702
 C869 C 0.71236 0.81742 0.31673
 O870 O 0.79667 0.69585 0.30330
 Zr871 Zr 0.78425 0.74060 0.29241
 O872 O 0.78549 0.81861 0.29644
 O873 O 0.71403 0.74107 0.34290
 O874 O 0.77544 0.73353 0.34534
 O875 O 0.82888 0.73605 0.28729
 O876 O 0.80354 0.77600 0.32012
 C877 C 0.80178 0.80465 0.31753
 O878 O 0.73977 0.84337 0.23992
 O879 O 0.78396 0.75956 0.15126
 O880 O 0.78731 0.82786 0.23185
 O881 O 0.80513 0.79455 0.19250
 O882 O 0.72084 0.76843 0.14887
 O883 O 0.70542 0.80878 0.18775
 C884 C 0.80343 0.82090 0.20624
 H885 H 0.74599 0.72367 0.17333
 H886 H 0.70132 0.79941 0.25335
 H887 H 0.80917 0.78176 0.25635
 H888 H 0.74266 0.70360 0.30376
 H889 H 0.66091 0.77080 0.18693
 H890 H 0.65997 0.75743 0.30807
 H891 H 0.69449 0.74346 0.35194
 H892 H 0.79379 0.73420 0.35787
 H893 H 0.70194 0.76810 0.13758
 H894 H 0.80360 0.75747 0.14246
 H895 H 0.83863 0.75056 0.18697
 H896 H 0.83711 0.73585 0.31082
 H897 H 0.68977 0.80886 0.17068
 H898 H 0.74922 0.86011 0.25243
 H899 H 0.74746 0.64448 0.24480
 H900 H 0.80882 0.69570 0.32416
 Zr901 Zr 0.74194 0.30910 0.74533
 O902 O 0.72213 0.34186 0.77681
 O903 O 0.76765 0.33584 0.71357
 O904 O 0.77207 0.33180 0.77633
 O905 O 0.68675 0.30066 0.68703
 O906 O 0.79484 0.29449 0.80539
 O907 O 0.71254 0.33528 0.71739
 O908 O 0.79270 0.30130 0.68256
 O909 O 0.77911 0.28353 0.74279
 O910 O 0.74022 0.28568 0.69854
 O911 O 0.74117 0.28155 0.78923
 O912 O 0.70390 0.28393 0.74687
 Zr913 Zr 0.73930 0.20435 0.74006
 Zr914 Zr 0.77729 0.25453 0.78502
 Zr915 Zr 0.70394 0.25900 0.70079
 Zr916 Zr 0.77637 0.25912 0.69690
 O917 O 0.65925 0.25823 0.70654
 O918 O 0.82104 0.25772 0.70376
 O919 O 0.73996 0.23171 0.69582
 O920 O 0.77697 0.22986 0.73882
 O921 O 0.74103 0.22730 0.78737
 O922 O 0.70245 0.23029 0.74289
 C923 C 0.78664 0.32844 0.69131
 C924 C 0.69275 0.32776 0.69601
 C925 C 0.79045 0.32229 0.79832
 O926 O 0.82191 0.25259 0.77906
 O927 O 0.79185 0.21257 0.80213
 O928 O 0.76673 0.17814 0.77064
 C929 C 0.78565 0.18547 0.79320
 O930 O 0.68663 0.29328 0.81124
 Zr931 Zr 0.70493 0.25425 0.78886
 O932 O 0.71309 0.17772 0.77113
 O933 O 0.77488 0.25385 0.83948
 O934 O 0.71358 0.25255 0.84248
 O935 O 0.66006 0.25283 0.78413
 O936 O 0.69142 0.21176 0.80645
 C937 C 0.69632 0.18479 0.79597
 O938 O 0.76095 0.17160 0.71042
 O939 O 0.70621 0.26248 0.64647
 O940 O 0.71174 0.18146 0.70560
 O941 O 0.68885 0.21931 0.67764
 O942 O 0.76974 0.26355 0.64307
 O943 O 0.79128 0.22020 0.67080
 C944 C 0.69382 0.19143 0.68324
 H945 H 0.73940 0.29900 0.67825
 H946 H 0.79388 0.21681 0.73690
 H947 H 0.68479 0.21821 0.74225
 H948 H 0.74151 0.29372 0.81065
 H949 H 0.82988 0.26407 0.68181
 H950 H 0.83015 0.25217 0.80257
 H951 H 0.79462 0.25228 0.84817
 H952 H 0.69578 0.24655 0.85420
 H953 H 0.78823 0.26897 0.63259
 H954 H 0.68641 0.26390 0.63792
 H955 H 0.65103 0.25861 0.68301
 H956 H 0.65228 0.24678 0.80679
 H957 H 0.80686 0.22580 0.65496
 H958 H 0.75382 0.15168 0.71775
 H959 H 0.72909 0.36173 0.76910
 H960 H 0.67470 0.28750 0.83114
 C961 C 0.07177 0.41704 0.93011
 C962 C 0.10146 0.41750 0.93319
 C963 C 0.11993 0.39640 0.91379
 C964 C 0.14786 0.40477 0.90544
 C965 C 0.16563 0.38512 0.88713
 C966 C 0.15580 0.35651 0.87723
 C967 C 0.12813 0.34796 0.88646
 C968 C 0.11039 0.36760 0.90445
 C969 C 0.17338 0.33456 0.85788
 C970 C 0.19788 0.34148 0.83905
 H971 H 0.11163 0.43425 0.94941
 H972 H 0.15587 0.42666 0.91286
 H973 H 0.18702 0.39231 0.88128
 H974 H 0.12010 0.32593 0.87962
 H975 H 0.08941 0.35987 0.91153
 H976 H 0.16537 0.31179 0.85657
 H977 H 0.06227 0.40193 0.91136
 H978 H 0.20600 0.36417 0.83854
 C979 C 0.40180 0.57188 0.42368
 C980 C 0.40369 0.58468 0.39107
 C981 C 0.38097 0.60415 0.37734
 C982 C 0.37486 0.60389 0.34192
 C983 C 0.35400 0.62288 0.32843
 C984 C 0.33939 0.64295 0.35013
 C985 C 0.34579 0.64344 0.38544
 C986 C 0.36615 0.62404 0.39902
 C987 C 0.31930 0.66532 0.33634
 C988 C 0.30233 0.66030 0.30732
 H989 H 0.42177 0.57960 0.37482
 H990 H 0.38627 0.58900 0.32469
 H991 H 0.35007 0.62258 0.30093
 H992 H 0.33514 0.65906 0.40255
 H993 H 0.37092 0.62531 0.42630
 H994 H 0.31764 0.68657 0.34989
 H995 H 0.38232 0.57431 0.43825
 H996 H 0.30155 0.63823 0.29555
 C997 C 0.91386 0.93198 0.56589
 C998 C 0.91865 0.91463 0.59503
 C999 C 0.89682 0.89423 0.60870
 C1000 C 0.89406 0.89086 0.64442
 C1001 C 0.87402 0.87098 0.65785
 C1002 C 0.85698 0.85357 0.63566
 C1003 C 0.86019 0.85642 0.59992
 C1004 C 0.87969 0.87691 0.58649
 C1005 C 0.83690 0.83131 0.64947
 C1006 C 0.82068 0.83728 0.67867
 H1007 H 0.93864 0.91662 0.60875
 H1008 H 0.90735 0.90372 0.66192
 H1009 H 0.87239 0.86862 0.68555
 H1010 H 0.84751 0.84288 0.58244
 H1011 H 0.88195 0.87861 0.55879
 H1012 H 0.83447 0.81009 0.63603
 H1013 H 0.89287 0.93248 0.55441
 H1014 H 0.82084 0.85964 0.68977
 C1015 C 0.60922 0.04320 0.08250
 C1016 C 0.60563 0.05977 0.11291
 C1017 C 0.62827 0.07700 0.13075
 C1018 C 0.61989 0.09979 0.15361
 C1019 C 0.64002 0.11784 0.17002
 C1020 C 0.66914 0.11342 0.16417
 C1021 C 0.67776 0.08973 0.14266
 C1022 C 0.65748 0.07175 0.12578
 C1023 C 0.69029 0.13387 0.18004
 C1024 C 0.68472 0.16450 0.18228
 H1025 H 0.58429 0.06230 0.12295
 H1026 H 0.59758 0.10408 0.15832
 H1027 H 0.63274 0.13536 0.18730
 H1028 H 0.70013 0.08568 0.13819
 H1029 H 0.66477 0.05388 0.10906
 H1030 H 0.71055 0.12513 0.18856
 H1031 H 0.63007 0.04041 0.07129
 H1032 H 0.66568 0.17309 0.17013
 C1033 C 0.91485 0.06791 0.43033
 C1034 C 0.91869 0.08444 0.40034
 C1035 C 0.89618 0.10425 0.38698
 C1036 C 0.89172 0.10643 0.35133
 C1037 C 0.87077 0.12553 0.33835
 C1038 C 0.85450 0.14333 0.36088
 C1039 C 0.85937 0.14156 0.39647
 C1040 C 0.87977 0.12192 0.40947
 C1041 C 0.83391 0.16542 0.34778
 C1042 C 0.81726 0.16026 0.31857
 H1043 H 0.93810 0.08191 0.38565
 H1044 H 0.90437 0.09325 0.33357
 H1045 H 0.86794 0.12705 0.31072
 H1046 H 0.84737 0.15543 0.41422
 H1047 H 0.88325 0.12116 0.43706
 H1048 H 0.83140 0.18622 0.36204
 H1049 H 0.89422 0.06784 0.44268
 H1050 H 0.81739 0.13839 0.30629
 C1051 C 0.40592 0.45022 0.57641
 C1052 C 0.41190 0.43079 0.60356
 C1053 C 0.39024 0.41048 0.61835
 C1054 C 0.39157 0.40292 0.65339
 C1055 C 0.37237 0.38227 0.66735
 C1056 C 0.35195 0.36820 0.64624
 C1057 C 0.35086 0.37549 0.61113
 C1058 C 0.36956 0.39669 0.59737
 C1059 C 0.33278 0.34469 0.65974
 C1060 C 0.32128 0.34589 0.69286
 H1061 H 0.43320 0.43018 0.61414
 H1062 H 0.40760 0.41291 0.66992
 H1063 H 0.37413 0.37658 0.69437
 H1064 H 0.33553 0.36467 0.59429
 H1065 H 0.36850 0.40145 0.57006
 H1066 H 0.32637 0.32671 0.64248
 H1067 H 0.38410 0.45305 0.56815
 H1068 H 0.32503 0.36550 0.70885
 C1069 C 0.58583 0.93084 0.91717
 C1070 C 0.61521 0.92902 0.92103
 C1071 C 0.63185 0.90563 0.90300
 C1072 C 0.66009 0.91129 0.89354
 C1073 C 0.67604 0.88922 0.87660
 C1074 C 0.66403 0.86093 0.86936
 C1075 C 0.63613 0.85503 0.87991
 C1076 C 0.62015 0.87713 0.89641
 C1077 C 0.67993 0.83683 0.85165
 C1078 C 0.70178 0.84226 0.82824
 H1079 H 0.62618 0.94465 0.93791
 H1080 H 0.66971 0.93289 0.89900
 H1081 H 0.69780 0.89420 0.86978
 H1082 H 0.62658 0.83328 0.87513
 H1083 H 0.59880 0.87161 0.90455
 H1084 H 0.67267 0.81398 0.85522
 H1085 H 0.57538 0.91673 0.89818
 H1086 H 0.70802 0.86505 0.82246
 C1087 C 0.09184 0.54230 0.07945
 C1088 C 0.08811 0.56644 0.10216
 C1089 C 0.11146 0.58386 0.11841
 C1090 C 0.10528 0.61276 0.13065
 C1091 C 0.12632 0.63046 0.14590
 C1092 C 0.15418 0.61964 0.14950
 C1093 C 0.16029 0.59034 0.13837
 C1094 C 0.13918 0.57262 0.12266
 C1095 C 0.17653 0.63857 0.16562
 C1096 C 0.17662 0.66959 0.16117
 H1097 H 0.06672 0.57454 0.10653
 H1098 H 0.08405 0.62183 0.12820
 H1099 H 0.12057 0.65251 0.15533
 H1100 H 0.18148 0.58133 0.14144
 H1101 H 0.14455 0.55014 0.11439
 H1102 H 0.19284 0.62809 0.18113
 H1103 H 0.11294 0.53438 0.07330
 H1104 H 0.16166 0.67931 0.14319
 C1105 C 0.42708 0.92580 0.08494
 C1106 C 0.39809 0.93200 0.08531
 C1107 C 0.37766 0.91039 0.09998
 C1108 C 0.35316 0.92064 0.11680
 C1109 C 0.33435 0.90025 0.13201
 C1110 C 0.33972 0.86923 0.13017
 C1111 C 0.36359 0.85910 0.11201
 C1112 C 0.38237 0.87938 0.09711
 C1113 C 0.32122 0.84650 0.14636
 C1114 C 0.30189 0.85244 0.17279
 H1115 H 0.39037 0.95321 0.07562
 H1116 H 0.34887 0.94444 0.11874
 H1117 H 0.31571 0.90890 0.14487
 H1118 H 0.36796 0.83533 0.10968
 H1119 H 0.40049 0.87069 0.08315
 H1120 H 0.32432 0.82341 0.13838
 H1121 H 0.43479 0.90581 0.09758
 H1122 H 0.29860 0.87507 0.18205
 C1123 C 0.56646 0.42568 0.41394
 C1124 C 0.59592 0.42723 0.41716
 C1125 C 0.61492 0.40426 0.40230
 C1126 C 0.64289 0.41211 0.39384
 C1127 C 0.66125 0.39088 0.37946
 C1128 C 0.65190 0.36131 0.37357
 C1129 C 0.62429 0.35322 0.38333
 C1130 C 0.60592 0.37445 0.39749
 C1131 C 0.67017 0.33829 0.35752
 C1132 C 0.69239 0.34515 0.33517
 H1133 H 0.60548 0.44619 0.43041
 H1134 H 0.65046 0.43480 0.39803
 H1135 H 0.68272 0.39766 0.37339
 H1136 H 0.61677 0.33046 0.37960
 H1137 H 0.58488 0.36729 0.40504
 H1138 H 0.66432 0.31501 0.36111
 H1139 H 0.55678 0.40802 0.39867
 H1140 H 0.69752 0.36825 0.32950
 C1141 C 0.91456 0.56202 0.93820
 C1142 C 0.92029 0.58118 0.91072
 C1143 C 0.89788 0.60032 0.89612
 C1144 C 0.89532 0.60313 0.86027
 C1145 C 0.87426 0.62144 0.84617
 C1146 C 0.85603 0.63783 0.86784
 C1147 C 0.85899 0.63544 0.90367
 C1148 C 0.87947 0.61649 0.91774
 C1149 C 0.83547 0.65933 0.85366
 C1150 C 0.82016 0.65381 0.82350
 H1151 H 0.94089 0.58092 0.89828
 H1152 H 0.90951 0.59102 0.84324
 H1153 H 0.87284 0.62352 0.81842
 H1154 H 0.84541 0.64827 0.92076
 H1155 H 0.88144 0.61507 0.94551
 H1156 H 0.83203 0.68009 0.86771
 H1157 H 0.89279 0.56034 0.94717
 H1158 H 0.82090 0.63186 0.81142
 C1159 C 0.09308 0.05742 0.57241
 C1160 C 0.08761 0.08003 0.59637
 C1161 C 0.11017 0.09781 0.61295
 C1162 C 0.10365 0.12681 0.62441
 C1163 C 0.12449 0.14472 0.63957
 C1164 C 0.15226 0.13380 0.64365
 C1165 C 0.15856 0.10441 0.63331
 C1166 C 0.13772 0.08652 0.61793
 C1167 C 0.17454 0.15205 0.66010
 C1168 C 0.17431 0.18325 0.65921
 H1169 H 0.06583 0.08660 0.60127
 H1170 H 0.08241 0.13573 0.62135
 H1171 H 0.11862 0.16685 0.64859
 H1172 H 0.17969 0.09538 0.63697
 H1173 H 0.14316 0.06384 0.61049
 H1174 H 0.19164 0.14053 0.67321
 H1175 H 0.11467 0.05166 0.56554
 H1176 H 0.15868 0.19497 0.64390
 C1177 C 0.08537 0.42883 0.41842
 C1178 C 0.11489 0.42845 0.42111
 C1179 C 0.13185 0.40509 0.40344
 C1180 C 0.15929 0.41167 0.39162
 C1181 C 0.17529 0.38975 0.37446
 C1182 C 0.16416 0.36073 0.36933
 C1183 C 0.13718 0.35394 0.38236
 C1184 C 0.12114 0.37585 0.39912
 C1185 C 0.18001 0.33677 0.35122
 C1186 C 0.20082 0.34228 0.32646
 H1187 H 0.12571 0.44538 0.43639
 H1188 H 0.16818 0.43388 0.39529
 H1189 H 0.19641 0.39550 0.36573
 H1190 H 0.12833 0.33164 0.37928
 H1191 H 0.10050 0.36967 0.40911
 H1192 H 0.17353 0.31380 0.35580
 H1193 H 0.07502 0.41330 0.40085
 H1194 H 0.20644 0.36508 0.31992
 C1195 C 0.41623 0.57031 0.93199
 C1196 C 0.42126 0.58853 0.90362
 C1197 C 0.39959 0.60948 0.89075
 C1198 C 0.39637 0.61352 0.85517
 C1199 C 0.37614 0.63355 0.84255
 C1200 C 0.35936 0.65044 0.86543
 C1201 C 0.36314 0.64703 0.90103
 C1202 C 0.38283 0.62639 0.91364
 C1203 C 0.33877 0.67255 0.85251
 C1204 C 0.32192 0.66661 0.82374
 H1205 H 0.44111 0.58658 0.88969
 H1206 H 0.40936 0.60097 0.83716
 H1207 H 0.37407 0.63634 0.81495
 H1208 H 0.35067 0.66015 0.91904
 H1209 H 0.38542 0.62416 0.94125
 H1210 H 0.33625 0.69348 0.86648
 H1211 H 0.39529 0.56990 0.94352
 H1212 H 0.32230 0.64446 0.81213
 C1213 C 0.59209 0.04227 0.58154
 C1214 C 0.58840 0.06646 0.60420
 C1215 C 0.61172 0.08404 0.62029
 C1216 C 0.60537 0.11283 0.63271
 C1217 C 0.62632 0.13067 0.64790
 C1218 C 0.65428 0.12010 0.65125
 C1219 C 0.66059 0.09090 0.63991
 C1220 C 0.63955 0.07304 0.62426
 C1221 C 0.67655 0.13917 0.66735
 C1222 C 0.67634 0.17022 0.66315
 H1223 H 0.56700 0.07446 0.60871
 H1224 H 0.58404 0.12172 0.63048
 H1225 H 0.62043 0.15262 0.65750
 H1226 H 0.68187 0.08208 0.64277
 H1227 H 0.64507 0.05066 0.61582
 H1228 H 0.69305 0.12875 0.68261
 H1229 H 0.61318 0.03438 0.57527
 H1230 H 0.66120 0.17991 0.64537
 C1231 C 0.90593 0.94965 0.07626
 C1232 C 0.91201 0.93019 0.10334
 C1233 C 0.89044 0.90977 0.11810
 C1234 C 0.89182 0.90216 0.15312
 C1235 C 0.87270 0.88142 0.16706
 C1236 C 0.85231 0.86732 0.14594
 C1237 C 0.85116 0.87465 0.11085
 C1238 C 0.86979 0.89593 0.09711
 C1239 C 0.83320 0.84374 0.15943
 C1240 C 0.82172 0.84490 0.19255
 H1241 H 0.93332 0.92966 0.11392
 H1242 H 0.90783 0.91219 0.16966
 H1243 H 0.87450 0.87570 0.19406
 H1244 H 0.83586 0.86380 0.09401
 H1245 H 0.86870 0.90073 0.06981
 H1246 H 0.82683 0.82575 0.14216
 H1247 H 0.88411 0.95241 0.06802
 H1248 H 0.82543 0.86451 0.20855
 C1249 C 0.90147 0.07220 0.92449
 C1250 C 0.90349 0.08533 0.89208
 C1251 C 0.88081 0.10487 0.87850
 C1252 C 0.87477 0.10486 0.84308
 C1253 C 0.85391 0.12391 0.82974
 C1254 C 0.83924 0.14378 0.85161
 C1255 C 0.84559 0.14405 0.88694
 C1256 C 0.86595 0.12458 0.90036
 C1257 C 0.81911 0.16615 0.83798
 C1258 C 0.80213 0.16111 0.80900
 H1259 H 0.92166 0.08047 0.87589
 H1260 H 0.88622 0.09011 0.82574
 H1261 H 0.85002 0.12380 0.80223
 H1262 H 0.83488 0.15952 0.90416
 H1263 H 0.87067 0.12565 0.92766
 H1264 H 0.81746 0.18737 0.85158
 H1265 H 0.88192 0.07441 0.93898
 H1266 H 0.80135 0.13905 0.79723
 C1267 C 0.10609 0.55595 0.56984
 C1268 C 0.10363 0.57046 0.60167
 C1269 C 0.12481 0.59201 0.61516
 C1270 C 0.12766 0.59556 0.65093
 C1271 C 0.14551 0.61768 0.66463
 C1272 C 0.16042 0.63713 0.64273
 C1273 C 0.15748 0.63373 0.60692
 C1274 C 0.14007 0.61113 0.59318
 C1275 C 0.17777 0.66199 0.65689
 C1276 C 0.19333 0.65893 0.68724
 H1277 H 0.08509 0.56611 0.61743
 H1278 H 0.11572 0.58141 0.66833
 H1279 H 0.14681 0.62023 0.69237
 H1280 H 0.16853 0.64871 0.58959
 H1281 H 0.13769 0.60944 0.56547
 H1282 H 0.17896 0.68277 0.64264
 H1283 H 0.12570 0.55743 0.55539
 H1284 H 0.19476 0.63713 0.69927
 C1285 C 0.57252 0.91430 0.43163
 C1286 C 0.60215 0.91580 0.43354
 C1287 C 0.62078 0.89471 0.41435
 C1288 C 0.64836 0.90357 0.40500
 C1289 C 0.66622 0.88399 0.38673
 C1290 C 0.65684 0.85496 0.37784
 C1291 C 0.62957 0.84593 0.38810
 C1292 C 0.61174 0.86549 0.40607
 C1293 C 0.67448 0.83309 0.35841
 C1294 C 0.69866 0.84015 0.33905
 H1295 H 0.61201 0.93347 0.44870
 H1296 H 0.65600 0.92581 0.41158
 H1297 H 0.68730 0.89160 0.38006
 H1298 H 0.62189 0.82359 0.38206
 H1299 H 0.59108 0.85739 0.41392
 H1300 H 0.66676 0.81019 0.35755
 H1301 H 0.56263 0.89838 0.41418
 H1302 H 0.70656 0.86291 0.33821
 C1303 C 0.41349 0.43217 0.06521
 C1304 C 0.41816 0.41464 0.09423
 C1305 C 0.39626 0.39425 0.10774
 C1306 C 0.39354 0.39065 0.14343
 C1307 C 0.37348 0.37073 0.15672
 C1308 C 0.35637 0.35351 0.13441
 C1309 C 0.35954 0.35659 0.09870
 C1310 C 0.37907 0.37713 0.08541
 C1311 C 0.33626 0.33123 0.14809
 C1312 C 0.32005 0.33716 0.17731
 H1313 H 0.43813 0.41648 0.10801
 H1314 H 0.40688 0.40335 0.16101
 H1315 H 0.37188 0.36819 0.18440
 H1316 H 0.34680 0.34320 0.08112
 H1317 H 0.38129 0.37901 0.05772
 H1318 H 0.33379 0.31006 0.13457
 H1319 H 0.39254 0.43284 0.05367
 H1320 H 0.32024 0.35948 0.18848
 C1321 C 0.59344 0.55611 0.07413
 C1322 C 0.58800 0.57820 0.09872
 C1323 C 0.61060 0.59599 0.11513
 C1324 C 0.60409 0.62496 0.12668
 C1325 C 0.62507 0.64299 0.14134
 C1326 C 0.65293 0.63219 0.14482
 C1327 C 0.65922 0.60281 0.13450
 C1328 C 0.63824 0.58480 0.11961
 C1329 C 0.67537 0.65061 0.16063
 C1330 C 0.67503 0.68179 0.15946
 H1331 H 0.56623 0.58453 0.10405
 H1332 H 0.58279 0.63379 0.12398
 H1333 H 0.61925 0.66512 0.15040
 H1334 H 0.68043 0.59388 0.13774
 H1335 H 0.64366 0.56213 0.11208
 H1336 H 0.69263 0.63921 0.17357
 H1337 H 0.61501 0.55060 0.06693
 H1338 H 0.65921 0.69337 0.14428
 C1339 C 0.06659 0.92714 0.91322
 C1340 C 0.09608 0.92923 0.91555
 C1341 C 0.11503 0.90651 0.90015
 C1342 C 0.14252 0.91481 0.89012
 C1343 C 0.16077 0.89376 0.87520
 C1344 C 0.15181 0.86392 0.87036
 C1345 C 0.12470 0.85542 0.88160
 C1346 C 0.10644 0.87647 0.89629
 C1347 C 0.17004 0.84097 0.85414
 C1348 C 0.19164 0.84777 0.83089
 H1349 H 0.10562 0.94841 0.92837
 H1350 H 0.14978 0.93770 0.89354
 H1351 H 0.18189 0.90088 0.86794
 H1352 H 0.11752 0.83245 0.87870
 H1353 H 0.08581 0.86899 0.90502
 H1354 H 0.16482 0.81766 0.85874
 H1355 H 0.05694 0.90929 0.89821
 H1356 H 0.19613 0.87083 0.82426
 C1357 C 0.41268 0.06433 0.44141
 C1358 C 0.41684 0.07803 0.40966
 C1359 C 0.39530 0.09817 0.39484
 C1360 C 0.39030 0.09786 0.35920
 C1361 C 0.37009 0.11702 0.34478
 C1362 C 0.35509 0.13728 0.36581
 C1363 C 0.36053 0.13798 0.40134
 C1364 C 0.38022 0.11837 0.41583
 C1365 C 0.33535 0.15940 0.35108
 C1366 C 0.31849 0.15347 0.32225
 H1367 H 0.43550 0.07261 0.39456
 H1368 H 0.40195 0.08267 0.34256
 H1369 H 0.36685 0.11661 0.31714
 H1370 H 0.34952 0.15377 0.41789
 H1371 H 0.38417 0.11954 0.44331
 H1372 H 0.33368 0.18100 0.36387
 H1373 H 0.39252 0.06694 0.45451
 H1374 H 0.31765 0.13105 0.31141
 C1375 C 0.92874 0.42848 0.58914
 C1376 C 0.89943 0.43283 0.58825
 C1377 C 0.87975 0.41098 0.60399
 C1378 C 0.85378 0.42064 0.61777
 C1379 C 0.83520 0.40011 0.63314
 C1380 C 0.84226 0.36948 0.63450
 C1381 C 0.86779 0.35983 0.61962
 C1382 C 0.88634 0.38027 0.60458
 C1383 C 0.82369 0.34664 0.65037
 C1384 C 0.80257 0.35282 0.67463
 H1385 H 0.89079 0.45268 0.57621
 H1386 H 0.84803 0.44413 0.61700
 H1387 H 0.81531 0.40828 0.64342
 H1388 H 0.87352 0.33631 0.61980
 H1389 H 0.90566 0.37187 0.59298
 H1390 H 0.82811 0.32341 0.64403
 H1391 H 0.93733 0.41002 0.60385
 H1392 H 0.79828 0.37564 0.68260
 C1393 C 0.92116 0.57193 0.07735
 C1394 C 0.89179 0.57403 0.07296
 C1395 C 0.87491 0.59804 0.08998
 C1396 C 0.84632 0.59286 0.09830
 C1397 C 0.83029 0.61491 0.11529
 C1398 C 0.84256 0.64278 0.12406
 C1399 C 0.87080 0.64831 0.11447
 C1400 C 0.88681 0.62628 0.09768
 C1401 C 0.82682 0.66676 0.14273
 C1402 C 0.80249 0.66170 0.16248
 H1403 H 0.88080 0.55707 0.05791
 H1404 H 0.83648 0.57153 0.09207
 H1405 H 0.80833 0.61003 0.12111
 H1406 H 0.88067 0.66972 0.12028
 H1407 H 0.90840 0.63164 0.09045
 H1408 H 0.83583 0.68914 0.14258
 H1409 H 0.93172 0.58753 0.09462
 H1410 H 0.79382 0.63931 0.16447
 C1411 C 0.57923 0.43432 0.55328
 C1412 C 0.57752 0.42377 0.58699
 C1413 C 0.60010 0.40533 0.60267
 C1414 C 0.60495 0.40709 0.63834
 C1415 C 0.62543 0.38891 0.65393
 C1416 C 0.64097 0.36824 0.63408
 C1417 C 0.63597 0.36639 0.59847
 C1418 C 0.61591 0.38490 0.58282
 C1419 C 0.66060 0.34651 0.64991
 C1420 C 0.67566 0.35175 0.68042
 H1421 H 0.55967 0.43037 0.60292
 H1422 H 0.59276 0.42245 0.65417
 H1423 H 0.62829 0.39029 0.68159
 H1424 H 0.64740 0.35030 0.58275
 H1425 H 0.61215 0.38245 0.55541
 H1426 H 0.66375 0.32544 0.63639
 H1427 H 0.59847 0.43084 0.53853
 H1428 H 0.67539 0.37368 0.69252
 C1429 C 0.09032 0.06907 0.43390
 C1430 C 0.08676 0.08503 0.40345
 C1431 C 0.10939 0.10438 0.38946
 C1432 C 0.11335 0.10596 0.35370
 C1433 C 0.13428 0.12468 0.33993
 C1434 C 0.15106 0.14271 0.36177
 C1435 C 0.14672 0.14154 0.39749
 C1436 C 0.12631 0.12225 0.41130
 C1437 C 0.17181 0.16424 0.34774
 C1438 C 0.18812 0.15807 0.31859
 H1439 H 0.06747 0.08206 0.38854
 H1440 H 0.10029 0.09262 0.33643
 H1441 H 0.13672 0.12573 0.31221
 H1442 H 0.15916 0.15557 0.41471
 H1443 H 0.12323 0.12194 0.43895
 H1444 H 0.17493 0.18525 0.36142
 H1445 H 0.11080 0.06919 0.44668
 H1446 H 0.18750 0.13591 0.30705
 C1447 C 0.41461 0.93778 0.94607
 C1448 C 0.41542 0.92608 0.91260
 C1449 C 0.39220 0.90783 0.89744
 C1450 C 0.38808 0.90788 0.86158
 C1451 C 0.36788 0.88895 0.84622
 C1452 C 0.35186 0.86912 0.86648
 C1453 C 0.35594 0.86914 0.90234
 C1454 C 0.37569 0.88851 0.91776
 C1455 C 0.33278 0.84644 0.85078
 C1456 C 0.31786 0.85084 0.82005
 H1457 H 0.43373 0.93078 0.89659
 H1458 H 0.40082 0.92230 0.84537
 H1459 H 0.36570 0.88897 0.81844
 H1460 H 0.34410 0.85378 0.91842
 H1461 H 0.37885 0.88740 0.94537
 H1462 H 0.32986 0.82554 0.86447
 H1463 H 0.39526 0.93622 0.96102
 H1464 H 0.31782 0.87268 0.80802
 C1465 C 0.08871 0.92606 0.56092
 C1466 C 0.08485 0.91246 0.59286
 C1467 C 0.10712 0.89424 0.60946
 C1468 C 0.10954 0.89439 0.64552
 C1469 C 0.12983 0.87654 0.66190
 C1470 C 0.14760 0.85769 0.64241
 C1471 C 0.14492 0.85728 0.60639
 C1472 C 0.12510 0.87563 0.58998
 C1473 C 0.16756 0.83673 0.65902
 C1474 C 0.18173 0.84316 0.68984
 H1475 H 0.06549 0.91678 0.60713
 H1476 H 0.09567 0.90833 0.66103
 H1477 H 0.13095 0.87676 0.68978
 H1478 H 0.15814 0.84261 0.59092
 H1479 H 0.12325 0.87454 0.56217
 H1480 H 0.17205 0.81582 0.64576
 H1481 H 0.10922 0.92496 0.54839
 H1482 H 0.18005 0.86523 0.70143
 C1483 C 0.57739 0.56408 0.40940
 C1484 C 0.57249 0.58306 0.38157
 C1485 C 0.59511 0.60262 0.36758
 C1486 C 0.59623 0.60853 0.33210
 C1487 C 0.61695 0.62786 0.31878
 C1488 C 0.63642 0.64222 0.34095
 C1489 C 0.63497 0.63664 0.37645
 C1490 C 0.61476 0.61679 0.38963
 C1491 C 0.65717 0.66450 0.32823
 C1492 C 0.67061 0.66219 0.29626
 H1493 H 0.55175 0.58332 0.36943
 H1494 H 0.58105 0.59816 0.31471
 H1495 H 0.61716 0.63229 0.29137
 H1496 H 0.64951 0.64775 0.39406
 H1497 H 0.61397 0.61327 0.41721
 H1498 H 0.66325 0.68256 0.34555
 H1499 H 0.59887 0.56149 0.41898
 H1500 H 0.66710 0.64258 0.28021
 C1501 C 0.43757 0.06534 0.09599
 C1502 C 0.40805 0.06589 0.09312
 C1503 C 0.39085 0.08934 0.11036
 C1504 C 0.36289 0.08296 0.12045
 C1505 C 0.34636 0.10490 0.13678
 C1506 C 0.35748 0.13378 0.14293
 C1507 C 0.38511 0.14035 0.13183
 C1508 C 0.40166 0.11841 0.11582
 C1509 C 0.34082 0.15786 0.15977
 C1510 C 0.31834 0.15246 0.18233
 H1511 H 0.39727 0.04862 0.07830
 H1512 H 0.35392 0.06091 0.11590
 H1513 H 0.32481 0.09929 0.14394
 H1514 H 0.39399 0.16254 0.13570
 H1515 H 0.42273 0.12450 0.10719
 H1516 H 0.34758 0.18080 0.15565
 H1517 H 0.44806 0.08114 0.11309
 H1518 H 0.31241 0.12969 0.18859
 C1519 C 0.90255 0.43344 0.94163
 C1520 C 0.90571 0.41292 0.91433
 C1521 C 0.88168 0.39713 0.89762
 C1522 C 0.88243 0.39213 0.86188
 C1523 C 0.86145 0.37484 0.84564
 C1524 C 0.83975 0.36147 0.86506
 C1525 C 0.83896 0.36645 0.90084
 C1526 C 0.85950 0.38455 0.91697
 C1527 C 0.81934 0.34039 0.84880
 C1528 C 0.80812 0.34499 0.81593
 H1529 H 0.92653 0.40936 0.90313
 H1530 H 0.89954 0.40132 0.84654
 H1531 H 0.86293 0.37087 0.81814
 H1532 H 0.82259 0.35608 0.91635
 H1533 H 0.85879 0.38757 0.94467
 H1534 H 0.81257 0.32100 0.86338
 H1535 H 0.88127 0.43937 0.94982
 H1536 H 0.81193 0.36608 0.80302
 C1537 C 0.59758 0.05967 0.93249
 C1538 C 0.59120 0.07763 0.90427
 C1539 C 0.61225 0.09812 0.88896
 C1540 C 0.61186 0.10312 0.85332
 C1541 C 0.63064 0.12366 0.83855
 C1542 C 0.64959 0.14010 0.85939
 C1543 C 0.64970 0.13540 0.89509
 C1544 C 0.63144 0.11429 0.90975
 C1545 C 0.66801 0.16350 0.84464
 C1546 C 0.68085 0.16016 0.81253
 H1547 H 0.57026 0.07637 0.89272
 H1548 H 0.59694 0.09119 0.83694
 H1549 H 0.62966 0.12741 0.81101
 H1550 H 0.66389 0.14814 0.91162
 H1551 H 0.63166 0.11138 0.93745
 H1552 H 0.67210 0.18354 0.85980
 H1553 H 0.61927 0.05832 0.94169
 H1554 H 0.67944 0.13886 0.79906
 C1555 C 0.41699 0.58105 0.57169
 C1556 C 0.38748 0.57989 0.57030
 C1557 C 0.37026 0.60299 0.58767
 C1558 C 0.34457 0.59510 0.60341
 C1559 C 0.32902 0.61658 0.62175
 C1560 C 0.33887 0.64634 0.62410
 C1561 C 0.36373 0.65446 0.60671
 C1562 C 0.37938 0.63300 0.58877
 C1563 C 0.32396 0.66950 0.64435
 C1564 C 0.30767 0.66294 0.67331
 H1565 H 0.37690 0.56137 0.55738
 H1566 H 0.33693 0.57219 0.60225
 H1567 H 0.30935 0.60984 0.63385
 H1568 H 0.37143 0.67737 0.60764
 H1569 H 0.39861 0.63994 0.57577
 H1570 H 0.32784 0.69274 0.63782
 H1571 H 0.42725 0.59813 0.58734
 H1572 H 0.30475 0.63994 0.68134
 C1573 C 0.07783 0.41615 0.08112
 C1574 C 0.10724 0.41870 0.07807
 C1575 C 0.12638 0.39713 0.09512
 C1576 C 0.15273 0.40668 0.10813
 C1577 C 0.17054 0.38653 0.12533
 C1578 C 0.16234 0.35638 0.12923
 C1579 C 0.13649 0.34672 0.11497
 C1580 C 0.11865 0.36683 0.09822
 C1581 C 0.17998 0.33405 0.14734
 C1582 C 0.20021 0.34108 0.17252
 H1583 H 0.11635 0.43736 0.06414
 H1584 H 0.15930 0.42985 0.10549
 H1585 H 0.19070 0.39455 0.13512
 H1586 H 0.12988 0.32352 0.11715
 H1587 H 0.09891 0.35854 0.08742
 H1588 H 0.17517 0.31065 0.14235
 H1589 H 0.06901 0.39928 0.09803
 H1590 H 0.20468 0.36420 0.17921
 C1591 C 0.91089 0.94422 0.41780
 C1592 C 0.91546 0.92154 0.39369
 C1593 C 0.89188 0.90479 0.37780
 C1594 C 0.89606 0.87464 0.36906
 C1595 C 0.87380 0.85762 0.35555
 C1596 C 0.84698 0.87066 0.35033
 C1597 C 0.84311 0.90115 0.35774
 C1598 C 0.86535 0.91812 0.37155
 C1599 C 0.82334 0.85338 0.33531
 C1600 C 0.82105 0.82244 0.33907
 H1601 H 0.93689 0.91364 0.38911
 H1602 H 0.91649 0.86410 0.37319
 H1603 H 0.87782 0.83447 0.34871
 H1604 H 0.82280 0.91176 0.35308
 H1605 H 0.86179 0.94164 0.37696
 H1606 H 0.80767 0.86533 0.32024
 H1607 H 0.88947 0.95074 0.42459
 H1608 H 0.83527 0.81064 0.35622
 C1609 C 0.93459 0.56821 0.58905
 C1610 C 0.90503 0.56703 0.58806
 C1611 C 0.88766 0.59035 0.60522
 C1612 C 0.86109 0.58292 0.61911
 C1613 C 0.84484 0.60465 0.63623
 C1614 C 0.85485 0.63433 0.63937
 C1615 C 0.88090 0.64191 0.62427
 C1616 C 0.89717 0.62022 0.60745
 C1617 C 0.83868 0.65818 0.65729
 C1618 C 0.81822 0.65264 0.68247
 H1619 H 0.89447 0.54839 0.57537
 H1620 H 0.85310 0.56018 0.61712
 H1621 H 0.82441 0.59817 0.64649
 H1622 H 0.88885 0.66470 0.62574
 H1623 H 0.91704 0.62701 0.59586
 H1624 H 0.84420 0.68122 0.65159
 H1625 H 0.94489 0.58549 0.60435
 H1626 H 0.81334 0.62988 0.68994
 C1627 C 0.58845 0.42596 0.06174
 C1628 C 0.58499 0.41368 0.09443
 C1629 C 0.60757 0.39621 0.11144
 C1630 C 0.61044 0.39748 0.14744
 C1631 C 0.63111 0.38031 0.16414
 C1632 C 0.64880 0.36111 0.14503
 C1633 C 0.64576 0.35972 0.10908
 C1634 C 0.62554 0.37729 0.09236
 C1635 C 0.66871 0.34028 0.16185
 C1636 C 0.68231 0.34605 0.19322
 H1637 H 0.56585 0.41862 0.10886
 H1638 H 0.59660 0.41170 0.16265
 H1639 H 0.63249 0.38126 0.19199
 H1640 H 0.65889 0.34473 0.09391
 H1641 H 0.62337 0.37531 0.06465
 H1642 H 0.67336 0.31952 0.14834
 H1643 H 0.60883 0.42443 0.04895
 H1644 H 0.68070 0.36788 0.20541
 C1645 C 0.39988 0.93127 0.44512
 C1646 C 0.40256 0.91675 0.41326
 C1647 C 0.37962 0.89899 0.39677
 C1648 C 0.37844 0.89728 0.36065
 C1649 C 0.35860 0.87868 0.34417
 C1650 C 0.33997 0.86085 0.36357
 C1651 C 0.34118 0.86249 0.39972
 C1652 C 0.36058 0.88168 0.41622
 C1653 C 0.32069 0.83894 0.34669
 C1654 C 0.30770 0.84433 0.31494
 H1655 H 0.42228 0.91916 0.39914
 H1656 H 0.39316 0.91011 0.34514
 H1657 H 0.35864 0.87740 0.31629
 H1658 H 0.32725 0.84869 0.41520
 H1659 H 0.36144 0.88202 0.44411
 H1660 H 0.31591 0.81832 0.36015
 H1661 H 0.37943 0.93217 0.45782
 H1662 H 0.30965 0.86625 0.30328
 C1663 C 0.07701 0.06535 0.91030
 C1664 C 0.07203 0.08425 0.88241
 C1665 C 0.09456 0.10386 0.86831
 C1666 C 0.09556 0.10973 0.83281
 C1667 C 0.11620 0.12910 0.81936
 C1668 C 0.13568 0.14355 0.84142
 C1669 C 0.13435 0.13802 0.87694
 C1670 C 0.11424 0.11813 0.89025
 C1671 C 0.15635 0.16586 0.82856
 C1672 C 0.16969 0.16356 0.79652
 H1673 H 0.05129 0.08435 0.87026
 H1674 H 0.08037 0.09928 0.81550
 H1675 H 0.11631 0.13349 0.79194
 H1676 H 0.14891 0.14920 0.89447
 H1677 H 0.11353 0.11465 0.91783
 H1678 H 0.16249 0.18393 0.84585
 H1679 H 0.09850 0.06289 0.91990
 H1680 H 0.16613 0.14394 0.78050
 C1681 C 0.07925 0.93451 0.05295
 C1682 C 0.07749 0.92362 0.08651
 C1683 C 0.10005 0.90507 0.10200
 C1684 C 0.10485 0.90652 0.13769
 C1685 C 0.12532 0.88823 0.15311
 C1686 C 0.14092 0.86775 0.13304
 C1687 C 0.13596 0.86620 0.09741
 C1688 C 0.11591 0.88483 0.08194
 C1689 C 0.16057 0.84594 0.14867
 C1690 C 0.17563 0.85107 0.17919
 H1691 H 0.05959 0.93001 0.10246
 H1692 H 0.09262 0.92172 0.15368
 H1693 H 0.12814 0.88937 0.18078
 H1694 H 0.14744 0.85026 0.08153
 H1695 H 0.11218 0.88262 0.05450
 H1696 H 0.16372 0.82495 0.13500
 H1697 H 0.09853 0.93122 0.03821
 H1698 H 0.17534 0.87295 0.19142
 C1699 C 0.91454 0.43172 0.44872
 C1700 C 0.91579 0.41941 0.41557
 C1701 C 0.89301 0.40068 0.40033
 C1702 C 0.88927 0.40053 0.36443
 C1703 C 0.86943 0.38135 0.34889
 C1704 C 0.85337 0.36146 0.36900
 C1705 C 0.85715 0.36154 0.40491
 C1706 C 0.87656 0.38121 0.42053
 C1707 C 0.83419 0.33906 0.35296
 C1708 C 0.81901 0.34451 0.32270
 H1709 H 0.93406 0.42436 0.39958
 H1710 H 0.90199 0.41506 0.34832
 H1711 H 0.86748 0.38132 0.32108
 H1712 H 0.84525 0.34614 0.42087
 H1713 H 0.87946 0.38030 0.44820
 H1714 H 0.83121 0.31789 0.36605
 H1715 H 0.89521 0.42997 0.46367
 H1716 H 0.81914 0.36672 0.31158
 C1717 C 0.42144 0.07221 0.58049
 C1718 C 0.39210 0.07442 0.57587
 C1719 C 0.37516 0.09854 0.59260
 C1720 C 0.34640 0.09356 0.60019
 C1721 C 0.33022 0.11572 0.61675
 C1722 C 0.34251 0.14351 0.62583
 C1723 C 0.37095 0.14882 0.61699
 C1724 C 0.38711 0.12668 0.60062
 C1725 C 0.32659 0.16760 0.64406
 C1726 C 0.30191 0.16268 0.66322
 H1727 H 0.38114 0.05750 0.56073
 H1728 H 0.33651 0.07231 0.59369
 H1729 H 0.30812 0.11101 0.62200
 H1730 H 0.38085 0.17016 0.62306
 H1731 H 0.40885 0.13190 0.59394
 H1732 H 0.33574 0.18991 0.64414
 H1733 H 0.43202 0.08779 0.59776
 H1734 H 0.29310 0.14034 0.66503
 C1735 C 0.59128 0.56904 0.93552
 C1736 C 0.58788 0.58519 0.90517
 C1737 C 0.61065 0.60445 0.89135
 C1738 C 0.61464 0.60618 0.85561
 C1739 C 0.63567 0.62485 0.84199
 C1740 C 0.65252 0.64267 0.86396
 C1741 C 0.64816 0.64135 0.89966
 C1742 C 0.62765 0.62211 0.91333
 C1743 C 0.67336 0.66418 0.85007
 C1744 C 0.68965 0.65803 0.82090
 H1745 H 0.56859 0.58244 0.89020
 H1746 H 0.60152 0.59300 0.83824
 H1747 H 0.63813 0.62602 0.81428
 H1748 H 0.66066 0.65523 0.91698
 H1749 H 0.62454 0.62168 0.94097
 H1750 H 0.67650 0.68516 0.86379
 H1751 H 0.61174 0.56895 0.94835
 H1752 H 0.68900 0.63587 0.80932
 C1753 C 0.41096 0.44546 0.91754
 C1754 C 0.41538 0.42238 0.89388
 C1755 C 0.39169 0.40565 0.87812
 C1756 C 0.39569 0.37539 0.86972
 C1757 C 0.37337 0.35843 0.85624
 C1758 C 0.34666 0.37160 0.85069
 C1759 C 0.34297 0.40217 0.85781
 C1760 C 0.36526 0.41910 0.87160
 C1761 C 0.32298 0.35440 0.83558
 C1762 C 0.32050 0.32348 0.83937
 H1763 H 0.43674 0.41417 0.88961
 H1764 H 0.41604 0.36473 0.87407
 H1765 H 0.37728 0.33520 0.84964
 H1766 H 0.32275 0.41290 0.85292
 H1767 H 0.36182 0.44268 0.87674
 H1768 H 0.30742 0.36642 0.82041
 H1769 H 0.38959 0.45231 0.92410
 H1770 H 0.33461 0.31161 0.85659
 C1771 C 0.91619 0.08058 0.07223
 C1772 C 0.88671 0.07996 0.06945
 C1773 C 0.86913 0.10308 0.08629
 C1774 C 0.84237 0.09549 0.09942
 C1775 C 0.82616 0.11692 0.11693
 C1776 C 0.83643 0.14638 0.12110
 C1777 C 0.86248 0.15427 0.10630
 C1778 C 0.87877 0.13284 0.08917
 C1779 C 0.82084 0.16938 0.14084
 C1780 C 0.80300 0.16241 0.16828
 H1781 H 0.87632 0.06190 0.05549
 H1782 H 0.83433 0.07281 0.09680
 H1783 H 0.80565 0.11040 0.12699
 H1784 H 0.87057 0.17696 0.10866
 H1785 H 0.89885 0.13963 0.07811
 H1786 H 0.82568 0.19269 0.13567
 H1787 H 0.92625 0.09722 0.08867
 H1788 H 0.79915 0.13927 0.17510
 C1789 C 0.57786 0.91610 0.58423
 C1790 C 0.60724 0.91857 0.58087
 C1791 C 0.62646 0.89702 0.59781
 C1792 C 0.65292 0.90656 0.61050
 C1793 C 0.67081 0.88642 0.62758
 C1794 C 0.66258 0.85630 0.63168
 C1795 C 0.63661 0.84665 0.61775
 C1796 C 0.61868 0.86676 0.60112
 C1797 C 0.68031 0.83400 0.64967
 C1798 C 0.70068 0.84107 0.67468
 H1799 H 0.61630 0.93715 0.56673
 H1800 H 0.65951 0.92970 0.60769
 H1801 H 0.69107 0.89442 0.63712
 H1802 H 0.62997 0.82348 0.62009
 H1803 H 0.59885 0.85847 0.59056
 H1804 H 0.67548 0.81059 0.64476
 H1805 H 0.56911 0.89934 0.60134
 H1806 H 0.70517 0.86419 0.68130
 C1807 C 0.09315 0.55905 0.42375
 C1808 C 0.08647 0.57752 0.39615
 C1809 C 0.10758 0.59839 0.38173
 C1810 C 0.10860 0.60316 0.34608
 C1811 C 0.12805 0.62354 0.33228
 C1812 C 0.14619 0.64004 0.35413
 C1813 C 0.14474 0.63571 0.38981
 C1814 C 0.12585 0.61476 0.40352
 C1815 C 0.16542 0.66315 0.34039
 C1816 C 0.17990 0.65935 0.30942
 H1817 H 0.06546 0.57659 0.38474
 H1818 H 0.09441 0.59104 0.32895
 H1819 H 0.12831 0.62706 0.30468
 H1820 H 0.15826 0.64853 0.40708
 H1821 H 0.12497 0.61199 0.43121
 H1822 H 0.16875 0.68338 0.35549
 H1823 H 0.11497 0.55777 0.43255
 H1824 H 0.17906 0.63792 0.29615
   
