data_POSCAR
  _audit_creation_date              2014-09-24
  _audit_creation_method            'ToBaCCo'
  _symmetry_space_group_name_H-M    'P1'
  _symmetry_Int_Tables_number       1
  _symmetry_cell_setting            triclinic
  loop_
  _symmetry_equiv_pos_as_xyz
 x,y,z
_cell_length_a 55.9885
_cell_length_b 55.9249
_cell_length_c 56.3043
_cell_angle_alpha 89.810000
_cell_angle_beta 89.944800
_cell_angle_gamma 89.897000
loop_
  _atom_site_label
  _atom_site_type_symbol
  _atom_site_fract_x
  _atom_site_fract_y
  _atom_site_fract_z
C1 C 0.33500 1.33214 0.30411
 C2 C 0.35090 1.32117 0.32018
 C3 C 0.34336 1.31413 0.34299
 C4 C 0.31975 1.31875 0.35019
 C5 C 0.30335 1.32966 0.33458
 C6 C 0.31134 1.33613 0.31170
 H7 H 0.36890 1.31677 0.31465
 H8 H 0.31411 1.31312 0.36773
 H9 H 0.29958 1.34659 0.30054
 C10 C 0.36357 0.86775 0.83438
 C11 C 0.33922 0.87096 0.83964
 C12 C 0.32747 0.85565 0.85591
 C13 C 0.34096 0.83754 0.86732
 C14 C 0.36546 0.83478 0.86287
 C15 C 0.37640 0.84966 0.84605
 H16 H 0.32934 0.88475 0.83032
 H17 H 0.33278 0.82643 0.88084
 H18 H 0.39500 0.84677 0.84156
 C19 C 0.84700 1.34765 0.81832
 C20 C 0.83238 1.36252 0.83208
 C21 C 0.82255 1.35453 0.85372
 C22 C 0.82809 1.33118 0.86140
 C23 C 0.84370 1.31655 0.84831
 C24 C 0.85330 1.32494 0.82682
 H25 H 0.82728 1.37975 0.82479
 H26 H 0.82108 1.32453 0.87810
 H27 H 0.86443 1.31332 0.81611
 C28 C 0.86685 0.86666 0.33736
 C29 C 0.84234 0.87058 0.34082
 C30 C 0.82980 0.85841 0.35888
 C31 C 0.84213 0.84219 0.37364
 C32 C 0.86668 0.83803 0.37027
 C33 C 0.87870 0.85021 0.35203
 H34 H 0.83305 0.88343 0.32972
 H35 H 0.83262 0.83266 0.38750
 H36 H 0.89735 0.84620 0.34873
 C37 C 0.67167 0.66938 0.29738
 C38 C 0.69102 0.65883 0.30970
 C39 C 0.70114 0.67049 0.32937
 C40 C 0.69061 0.69153 0.33793
 C41 C 0.67075 0.70159 0.32668
 C42 C 0.66144 0.69059 0.30647
 H43 H 0.69977 0.64308 0.30265
 H44 H 0.69826 0.70047 0.35319
 H45 H 0.64624 0.69881 0.29774
 C46 C 0.64231 0.13332 0.83007
 C47 C 0.62777 0.15212 0.83790
 C48 C 0.63541 0.16747 0.85599
 C49 C 0.65833 0.16432 0.86562
 C50 C 0.67360 0.14577 0.85785
 C51 C 0.66496 0.12996 0.84033
 H52 H 0.61031 0.15463 0.82999
 H53 H 0.66361 0.17560 0.88027
 H54 H 0.67625 0.11584 0.83347
 C55 C 1.17101 0.66480 0.80136
 C56 C 1.19084 0.65780 0.81511
 C57 C 1.19873 0.67191 0.83405
 C58 C 1.18628 0.69292 0.83955
 C59 C 1.16631 0.69998 0.82630
 C60 C 1.15846 0.68575 0.80739
 H61 H 1.20068 0.64176 0.81051
 H62 H 1.19224 0.70404 0.85411
 H63 H 1.14353 0.69170 0.79664
 C64 C 1.13583 0.12464 0.33660
 C65 C 1.15235 0.11468 0.35277
 C66 C 1.16380 0.12855 0.37028
 C67 C 1.15821 0.15308 0.37165
 C68 C 1.14126 0.16335 0.35629
 C69 C 1.13044 0.14916 0.33878
 H70 H 1.15823 0.09644 0.35028
 H71 H 1.16641 0.16413 0.38512
 H72 H 1.11683 0.15720 0.32770
 C73 C 0.63935 1.35682 0.67189
 C74 C 0.66127 1.36757 0.66643
 C75 C 0.67787 1.35642 0.65133
 C76 C 0.67187 1.33416 0.64143
 C77 C 0.65066 1.32230 0.64805
 C78 C 0.63431 1.33393 0.66315
 H79 H 0.66508 1.38509 0.67367
 H80 H 0.68445 1.32525 0.62981
 H81 H 0.61786 1.32516 0.66833
 C82 C 0.64150 0.85462 1.17110
 C83 C 0.63106 0.83582 1.15816
 C84 C 0.63723 0.83185 1.13432
 C85 C 0.65417 0.84684 1.12356
 C86 C 0.66471 0.86572 1.13607
 C87 C 0.65838 0.86951 1.15990
 H88 H 0.61765 0.82465 1.16650
 H89 H 0.65969 0.84346 1.10542
 H90 H 0.66658 0.88398 1.16969
 C91 C 1.14230 1.35314 1.17618
 C92 C 1.13770 1.32931 1.16956
 C93 C 1.15380 1.31685 1.15479
 C94 C 1.17489 1.32825 1.14717
 C95 C 1.18087 1.35109 1.15547
 C96 C 1.16419 1.36348 1.16943
 H97 H 1.12135 1.32068 1.17523
 H98 H 1.18740 1.31864 1.13600
 H99 H 1.16854 1.38135 1.17543
 C100 C 1.15042 0.84915 0.67798
 C101 C 1.14515 0.82687 0.66767
 C102 C 1.15401 0.82097 0.64519
 C103 C 1.16732 0.83780 0.63244
 C104 C 1.17229 0.86029 0.64211
 C105 C 1.16409 0.86584 0.66502
 H106 H 1.13464 0.81381 0.67732
 H107 H 1.17429 0.83316 0.61507
 H108 H 1.16861 0.88294 0.67278
 C109 C 0.34271 0.64849 0.68247
 C110 C 0.34724 0.67171 0.67464
 C111 C 0.33863 0.67966 0.65260
 C112 C 0.32556 0.66388 0.63819
 C113 C 0.32127 0.64006 0.64558
 C114 C 0.33013 0.63269 0.66792
 H115 H 0.35702 0.68379 0.68607
 H116 H 0.31913 0.67016 0.62114
 H117 H 0.32599 0.61512 0.67495
 C118 C 0.34738 0.15502 1.18377
 C119 C 0.32544 0.14666 1.17502
 C120 C 0.31803 0.15247 1.15204
 C121 C 0.33283 0.16622 1.13740
 C122 C 0.35510 0.17427 1.14555
 C123 C 0.36230 0.16865 1.16886
 H124 H 0.31374 0.13620 1.18634
 H125 H 0.32664 0.17120 1.11983
 H126 H 0.37917 0.17529 1.17552
 C127 C 0.84925 0.64309 1.17759
 C128 C 0.83434 0.62960 1.16274
 C129 C 0.82832 0.63767 1.13992
 C130 C 0.83606 0.66031 1.13232
 C131 C 0.85063 0.67426 1.14713
 C132 C 0.85814 0.66497 1.16914
 H133 H 0.82764 0.61245 1.16878
 H134 H 0.83035 0.66720 1.11523
 H135 H 0.86935 0.67579 1.18052
 C136 C 0.86422 0.13738 0.66944
 C137 C 0.84493 0.12377 0.66090
 C138 C 0.83001 0.13227 0.64247
 C139 C 0.83380 0.15573 0.63396
 C140 C 0.85271 0.16975 0.64251
 C141 C 0.86819 0.16020 0.65964
 H142 H 0.84179 0.10629 0.66853
 H143 H 0.82299 0.16286 0.61968
 H144 H 0.88232 0.17138 0.66658
 C145 C 1.34340 0.34994 0.68260
 C146 C 1.32175 0.35395 0.67071
 C147 C 1.31646 0.34178 0.64974
 C148 C 1.33318 0.32584 0.64021
 C149 C 1.35547 0.32204 0.65123
 C150 C 1.36038 0.33444 0.67250
 H151 H 1.30865 0.36613 0.67809
 H152 H 1.32899 0.31730 0.62350
 H153 H 1.37663 0.33074 0.68224
 C154 C 1.34231 0.84521 1.18694
 C155 C 1.32069 0.84909 1.17461
 C156 C 1.31592 0.83762 1.15308
 C157 C 1.33293 0.82212 1.14338
 C158 C 1.35483 0.81824 1.15485
 C159 C 1.35943 0.82988 1.17649
 H160 H 1.30746 0.86148 1.18132
 H161 H 1.32930 0.81355 1.12653
 H162 H 1.37584 0.82568 1.18574
 C163 C 0.83739 0.33951 1.19000
 C164 C 0.85460 0.32457 1.17916
 C165 C 0.84997 0.31330 1.15737
 C166 C 0.82797 0.31709 1.14614
 C167 C 0.81080 0.33208 1.15629
 C168 C 0.81555 0.34321 1.17801
 H169 H 0.87117 0.32042 1.18815
 H170 H 0.82439 0.30887 1.12911
 H171 H 0.80222 0.35530 1.18503
 C172 C 0.84557 0.85063 0.67847
 C173 C 0.85452 0.82815 0.67190
 C174 C 0.84745 0.81774 0.65037
 C175 C 0.83194 0.83021 0.63509
 C176 C 0.82385 0.85317 0.64100
 C177 C 0.83066 0.86318 0.66275
 H178 H 0.86574 0.81817 0.68410
 H179 H 0.82633 0.82210 0.61855
 H180 H 0.82374 0.88056 0.66782
 C181 C 0.65449 0.65193 0.67942
 C182 C 0.63830 0.66592 0.66630
 C183 C 0.64476 0.67538 0.64405
 C184 C 0.66767 0.67076 0.63500
 C185 C 0.68379 0.65643 0.64771
 C186 C 0.67703 0.64683 0.66968
 H187 H 0.62106 0.67037 0.67386
 H188 H 0.67293 0.67809 0.61794
 H189 H 0.68964 0.63588 0.67947
 C190 C 0.66658 1.17085 1.20117
 C191 C 0.68752 1.15902 1.19429
 C192 C 0.70086 1.16723 1.17487
 C193 C 0.69303 1.18739 1.16221
 C194 C 0.67190 1.19958 1.16864
 C195 C 0.65865 1.19079 1.18812
 H196 H 0.69371 1.14371 1.20442
 H197 H 0.70341 1.19322 1.14705
 H198 H 0.64278 1.20010 1.19409
 C199 C 0.17498 0.67145 1.20177
 C200 C 0.16316 0.69096 1.19064
 C201 C 0.17481 0.70423 1.17253
 C202 C 0.19711 0.69606 1.16418
 C203 C 0.20802 0.67577 1.17364
 C204 C 0.19699 0.66363 1.19225
 H205 H 0.14642 0.69746 1.19781
 H206 H 0.20583 0.70498 1.14942
 H207 H 0.20583 0.64791 1.19937
 C208 C 0.14225 1.14345 0.67322
 C209 C 0.12802 1.15973 0.66070
 C210 C 0.13304 1.16576 0.63692
 C211 C 0.15315 1.15534 0.62592
 C212 C 0.16652 1.13773 0.63789
 C213 C 0.16100 1.13186 0.66154
 H214 H 0.11339 1.16838 0.66997
 H215 H 0.15727 1.15937 0.60752
 H216 H 0.17160 1.11865 0.67094
 C217 C 1.33761 0.65840 0.30704
 C218 C 1.32523 0.64236 0.32163
 C219 C 1.31723 0.64925 0.34428
 C220 C 1.32205 0.67256 0.35246
 C221 C 1.33407 0.68920 0.33781
 C222 C 1.34180 0.68163 0.31521
 H223 H 1.32121 0.62463 0.31506
 H224 H 1.31563 0.67786 0.36982
 H225 H 1.35256 0.69341 0.30431
 C226 C 1.33114 1.16421 0.80234
 C227 C 1.31165 1.15487 0.81492
 C228 C 1.30329 1.16624 0.83544
 C229 C 1.31503 1.18671 0.84380
 C230 C 1.33414 1.19686 0.83101
 C231 C 1.34221 1.18513 0.81035
 H232 H 1.30244 1.13925 0.80823
 H233 H 1.30792 1.19570 0.85929
 H234 H 1.35713 1.19221 0.80030
 C235 C 0.85781 0.64481 0.82462
 C236 C 0.84004 0.63043 0.83482
 C237 C 0.83307 0.63365 0.85849
 C238 C 0.84381 0.65172 0.87195
 C239 C 0.86199 0.66610 0.86214
 C240 C 0.86899 0.66238 0.83840
 H241 H 0.83154 0.61672 0.82422
 H242 H 0.83805 0.65446 0.89011
 H243 H 0.88295 0.67322 0.83054
 C244 C 0.84678 1.14829 0.31910
 C245 C 0.83219 1.13259 0.33202
 C246 C 0.82328 1.13903 0.35439
 C247 C 0.82896 1.16157 0.36363
 C248 C 0.84363 1.17740 0.35088
 C249 C 0.85291 1.17051 0.32877
 H250 H 0.82710 1.11566 0.32419
 H251 H 0.82191 1.16688 0.38076
 H252 H 0.86364 1.18293 0.31851
 C253 C 0.64544 0.35237 0.32372
 C254 C 0.64035 0.32837 0.32985
 C255 C 0.65664 0.31459 0.34346
 C256 C 0.67831 0.32531 0.35049
 C257 C 0.68367 0.34883 0.34427
 C258 C 0.66724 0.36231 0.33128
 H259 H 0.62377 0.32045 0.32393
 H260 H 0.69110 0.31569 0.36135
 H261 H 0.67226 0.38026 0.32600
 C262 C 0.65388 0.84327 0.81603
 C263 C 0.64832 0.82165 0.82749
 C264 C 0.65847 0.81588 0.84945
 C265 C 0.67379 0.83216 0.86049
 C266 C 0.67889 0.85428 0.84979
 C267 C 0.66885 0.85975 0.82752
 H268 H 0.63657 0.80889 0.81902
 H269 H 0.68151 0.82767 0.87758
 H270 H 0.67352 0.87636 0.81873
 C271 C 0.14641 0.35221 0.82619
 C272 C 0.13531 0.33357 0.83908
 C273 C 0.13974 0.33012 0.86327
 C274 C 0.15588 0.34496 0.87493
 C275 C 0.16710 0.36390 0.86282
 C276 C 0.16211 0.36764 0.83851
 H277 H 0.12204 0.32230 0.83074
 H278 H 0.15935 0.34197 0.89364
 H279 H 0.17093 0.38213 0.82922
 C280 C 0.13582 0.86397 0.32962
 C281 C 0.12519 0.84392 0.34041
 C282 C 0.13723 0.83105 0.35833
 C283 C 0.16088 0.83714 0.36407
 C284 C 0.17212 0.85632 0.35253
 C285 C 0.15928 0.87004 0.33605
 H286 H 0.10705 0.83905 0.33582
 H287 H 0.17050 0.82707 0.37748
 H288 H 0.16813 0.88496 0.32743
 O289 O 0.97009 0.91536 0.87920
 O290 O 0.96809 0.88793 0.85124
 C291 C 0.96069 0.90735 0.86031
 C292 C 0.94034 0.92031 0.84940
 C293 C 0.92798 0.91053 0.82996
 H294 H 0.93382 0.89373 0.82239
 O295 O 1.02402 1.08803 0.88504
 O296 O 1.02467 1.11729 0.85870
 C297 C 1.03256 1.09735 0.86626
 C298 C 1.05223 1.08525 0.85335
 C299 C 1.06297 1.09645 0.83375
 H300 H 1.05625 1.11354 0.82754
 O301 O 0.87978 0.98287 0.91652
 O302 O 0.85079 0.98521 0.89011
 C303 C 0.85963 0.97603 0.90887
 C304 C 0.84669 0.95669 0.92148
 C305 C 0.82351 0.95049 0.91453
 H306 H 0.81488 0.96037 0.90034
 O307 O 1.11677 1.02005 0.91141
 O308 O 1.14393 1.02061 0.88303
 C309 C 1.13578 1.02864 0.90254
 C310 C 1.14758 1.04920 0.91426
 C311 C 1.16527 1.06235 0.90211
 H312 H 1.17126 1.05676 0.88468
 O313 O 0.91017 0.88272 0.97604
 O314 O 0.88176 0.85544 0.97609
 C315 C 0.90139 0.86344 0.96804
 C316 C 0.91407 0.85040 0.94901
 C317 C 0.90827 0.82661 0.94380
 H318 H 0.89461 0.81752 0.95406
 O319 O 1.08746 1.11657 0.97951
 O320 O 1.11576 1.14395 0.97959
 C321 C 1.09578 1.13642 0.97212
 C322 C 1.08221 1.15042 0.95428
 C323 C 1.08841 1.17418 0.94855
 H324 H 1.10304 1.18284 0.95768
 O325 O 0.91330 1.02781 0.88273
 O326 O 0.88513 1.02964 0.85544
 C327 C 0.90526 1.03633 0.86338
 C328 C 0.91949 1.05458 0.85061
 C329 C 0.91499 1.06062 0.82670
 H330 H 0.90129 1.05113 0.81700
 O331 O 1.08227 0.97524 0.87827
 O332 O 1.10962 0.97521 0.85007
 C333 C 1.09019 0.96722 0.85870
 C334 C 1.07737 0.94753 0.84659
 C335 C 1.08793 0.93577 0.82718
 H336 H 1.10490 0.94187 0.82017
 O337 O 1.01729 0.88099 0.90934
 O338 O 1.01596 0.85397 0.88090
 C339 C 1.02512 0.86188 0.89995
 C340 C 1.04603 0.84958 0.91043
 C341 C 1.05860 0.83248 0.89704
 H342 H 1.05220 0.82725 0.87966
 O343 O 0.97683 1.11980 0.91795
 O344 O 0.97646 1.14829 0.89077
 C345 C 0.96816 1.13914 0.90973
 C346 C 0.94759 1.15051 0.92184
 C347 C 0.93466 1.16897 0.91061
 H348 H 0.94022 1.17553 0.89335
 O349 O 0.88346 1.08726 0.98400
 O350 O 0.85647 1.11595 0.98609
 C351 C 0.86422 1.09680 0.97667
 C352 C 0.85157 1.08645 0.95598
 C353 C 0.83124 1.09787 0.94678
 H354 H 0.82367 1.11297 0.95615
 O355 O 1.11466 0.90916 0.97126
 O356 O 1.14172 0.88049 0.97000
 C357 C 1.13363 0.90033 0.96244
 C358 C 1.14591 0.91247 0.94240
 C359 C 1.16581 0.90168 0.93172
 H360 H 1.17311 0.88543 0.93935
 O361 O 0.97753 1.08816 0.88467
 O362 O 0.97826 1.11662 0.85744
 C363 C 0.96997 1.09699 0.86528
 C364 C 0.95119 1.08438 0.85188
 C365 C 0.94622 1.09060 0.82832
 H366 H 0.95613 1.10508 0.82019
 O367 O 1.01691 0.91488 0.87819
 O368 O 1.01517 0.88779 0.84987
 C369 C 1.02448 0.90653 0.85864
 C370 C 1.04523 0.91783 0.84669
 C371 C 1.05631 0.90623 0.82757
 H372 H 1.04889 0.88977 0.82067
 O373 O 1.11623 0.97321 0.90951
 O374 O 1.14366 0.97342 0.88141
 C375 C 1.13522 0.96466 0.90049
 C376 C 1.14685 0.94369 0.91188
 C377 C 1.16666 0.93234 0.90123
 H378 H 1.17413 0.93942 0.88491
 O379 O 0.88150 1.02952 0.91654
 O380 O 0.85316 1.03200 0.88949
 C381 C 0.86239 1.03908 0.90883
 C382 C 0.85107 1.05888 0.92230
 C383 C 0.83087 1.07085 0.91322
 H384 H 0.82337 1.06543 0.89635
 O385 O 0.91656 1.11909 0.98310
 O386 O 0.88947 1.14772 0.98489
 C387 C 0.90795 1.13867 0.97538
 C388 C 0.91847 1.15032 0.95419
 C389 C 0.90595 1.16880 0.94279
 H390 H 0.88961 1.17562 0.95058
 O391 O 1.08084 0.87748 0.97109
 O392 O 1.10817 0.84909 0.96961
 C393 C 1.08906 0.85849 0.96180
 C394 C 1.07735 0.84809 0.94065
 C395 C 1.08977 0.83134 0.92678
 H396 H 1.10725 0.82507 0.93227
 O397 O 1.08400 1.02201 0.87949
 O398 O 1.11111 1.02218 0.85106
 C399 C 1.09240 1.03092 0.86046
 C400 C 1.08108 1.05250 0.85001
 C401 C 1.09149 1.06400 0.83030
 H402 H 1.10714 1.05639 0.82186
 O403 O 0.91062 0.98135 0.88257
 O404 O 0.88170 0.98318 0.85605
 C405 C 0.90084 0.97368 0.86372
 C406 C 0.91121 0.95287 0.85113
 C407 C 0.89928 0.94297 0.83161
 H408 H 0.88334 0.95159 0.82483
 O409 O 1.02349 1.11969 0.91867
 O410 O 1.02314 1.14903 0.89240
 C411 C 1.03126 1.13971 0.91136
 C412 C 1.05031 1.15195 0.92477
 C413 C 1.05642 1.17566 0.91953
 H414 H 1.04664 1.18534 0.90595
 O415 O 0.97081 0.88207 0.91136
 O416 O 0.96949 0.85439 0.88357
 C417 C 0.96229 0.86268 0.90332
 C418 C 0.94365 0.85000 0.91708
 C419 C 0.93734 0.82627 0.91181
 H420 H 0.94639 0.81682 0.89762
 O421 O 1.11794 1.08147 0.97619
 O422 O 1.14614 1.10893 0.97584
 C423 C 1.13689 1.09010 0.96726
 C424 C 1.14775 1.07913 0.94591
 C425 C 1.16545 1.09172 0.93357
 H426 H 1.17202 1.10852 0.94053
 O427 O 0.87874 0.91695 0.97695
 O428 O 0.85005 0.89001 0.97626
 C429 C 0.85896 0.90954 0.96878
 C430 C 0.84642 0.92378 0.95027
 C431 C 0.82321 0.91771 0.94284
 H432 H 0.81408 0.90268 0.95094
 Cu433 Cu 0.99380 0.90108 0.89731
 Cu434 Cu 0.99189 0.86838 0.86347
 Cu435 Cu 1.00048 1.10107 0.90432
 Cu436 Cu 1.00073 1.13576 0.87217
 Cu437 Cu 0.89919 1.00537 0.90225
 Cu438 Cu 0.86477 1.00781 0.87014
 Cu439 Cu 1.09713 0.99750 0.89750
 Cu440 Cu 1.12983 0.99779 0.86357
 C441 C 0.93187 0.94156 0.85974
 H442 H 0.94094 0.94890 0.87505
 C443 C 0.90722 0.92159 0.82119
 C444 C 1.06131 1.06318 0.86127
 H445 H 1.05344 1.05468 0.87671
 C446 C 1.08274 1.08614 0.82233
 C447 C 0.85791 0.94344 0.93957
 H448 H 0.87591 0.94803 0.94487
 C449 C 0.81159 0.93115 0.92512
 C450 C 1.13898 1.05773 0.93623
 H451 H 1.12482 1.04824 0.94535
 C452 C 1.17374 1.08393 0.91147
 C453 C 0.93197 0.86183 0.93577
 H454 H 0.93649 0.88022 0.93972
 C455 C 0.91995 0.81437 0.92541
 C456 C 1.06305 1.13961 0.94238
 H457 H 1.05846 1.12122 0.94636
 C458 C 1.07525 1.18702 0.93145
 C459 C 0.93788 1.06630 0.86281
 H460 H 0.94144 1.06179 0.88120
 C461 C 0.92863 1.07845 0.81523
 C462 C 1.05582 0.93858 0.85602
 H463 H 1.04782 0.94720 0.87129
 C464 C 1.07772 0.91490 0.81798
 C465 C 1.05541 0.85707 0.93237
 H466 H 1.04616 0.87068 0.94250
 C467 C 1.08067 0.82380 0.90491
 C468 C 0.93938 1.14137 0.94368
 H469 H 0.94884 1.12673 0.95214
 C470 C 0.91352 1.17781 0.92078
 C471 C 0.86120 1.06679 0.94374
 H472 H 0.87711 1.05810 0.95054
 C473 C 0.82101 1.09056 0.92521
 C474 C 1.13672 0.93362 0.93252
 H475 H 1.12111 0.94181 0.94049
 C476 C 1.17601 0.91107 0.91089
 O477 O 1.02372 0.90799 1.11611
 O478 O 1.02341 0.87995 1.14377
 C479 C 1.03166 0.89943 1.13548
 C480 C 1.05086 0.91233 1.14810
 C481 C 1.05557 0.90814 1.17235
 H482 H 1.04476 0.89549 1.18221
 O483 O 0.98161 1.08040 1.12318
 O484 O 0.98237 1.10767 1.15136
 C485 C 0.97331 1.08897 1.14237
 C486 C 0.95219 1.07771 1.15367
 C487 C 0.93994 1.08951 1.17210
 H488 H 0.94653 1.10637 1.17886
 O489 O 0.88429 1.02083 1.09016
 O490 O 0.85702 1.02043 1.11847
 C491 C 0.86559 1.02949 1.09958
 C492 C 0.85457 1.05131 1.08958
 C493 C 0.83752 1.06369 1.10297
 H494 H 0.83112 1.05616 1.11956
 O495 O 1.12087 0.96890 1.08223
 O496 O 1.14925 0.96667 1.10926
 C497 C 1.13984 0.95927 1.09011
 C498 C 1.15026 0.93851 1.07747
 C499 C 1.16902 0.92523 1.08774
 H500 H 1.17660 0.93081 1.10452
 O501 O 1.08238 0.87568 1.01809
 O502 O 1.10963 0.84722 1.01636
 C503 C 1.09107 0.85612 1.02584
 C504 C 1.08074 0.84453 1.04726
 C505 C 1.09430 0.82754 1.05984
 H506 H 1.11132 0.82164 1.05278
 O507 O 0.91917 1.11785 1.02949
 O508 O 0.89266 1.14701 1.03110
 C509 C 0.91208 1.13758 1.03814
 C510 C 0.92624 1.14924 1.05705
 C511 C 0.92014 1.17216 1.06529
 H512 H 0.90548 1.18185 1.05717
 O513 O 0.91576 0.97204 1.12071
 O514 O 0.88856 0.97177 1.14909
 C515 C 0.90767 0.96359 1.14007
 C516 C 0.92067 0.94400 1.15204
 C517 C 0.91545 0.93767 1.17564
 H518 H 0.90179 0.94726 1.18540
 O519 O 1.09051 1.01511 1.11744
 O520 O 1.11877 1.01300 1.14465
 C521 C 1.09923 1.02179 1.13718
 C522 C 1.08650 1.04005 1.15140
 C523 C 1.09291 1.04451 1.17507
 H524 H 1.10728 1.03436 1.18317
 O525 O 0.97586 0.87791 1.08331
 O526 O 0.97556 0.84938 1.11042
 C527 C 0.96702 0.85877 1.09160
 C528 C 0.94591 0.84795 1.07991
 C529 C 0.93444 0.82836 1.09047
 H530 H 0.94162 0.82042 1.10654
 O531 O 1.02978 1.11203 1.09168
 O532 O 1.03142 1.13870 1.12040
 C533 C 1.03900 1.13066 1.10071
 C534 C 1.05923 1.14254 1.08850
 C535 C 1.07115 1.16187 1.09913
 H536 H 1.06505 1.16885 1.11601
 O537 O 0.87875 0.91530 1.02322
 O538 O 0.84961 0.88881 1.02252
 C539 C 0.85888 0.90763 1.03104
 C540 C 0.84680 0.92049 1.05057
 C541 C 0.82287 0.91575 1.05631
 H542 H 0.81280 0.90299 1.04592
 O543 O 1.12090 1.07997 1.02269
 O544 O 1.14946 1.10708 1.02213
 C545 C 1.14073 1.08780 1.03034
 C546 C 1.15296 1.07551 1.05024
 C547 C 1.17148 1.08726 1.06210
 H548 H 1.17807 1.10417 1.05533
 O549 O 1.02832 1.07796 1.12282
 O550 O 1.02924 1.10447 1.15172
 C551 C 1.03673 1.08515 1.14246
 C552 C 1.05583 1.07107 1.15411
 C553 C 1.06266 1.07555 1.17769
 H554 H 1.05341 1.08910 1.18789
 O555 O 0.97746 0.90838 1.11778
 O556 O 0.97736 0.87990 1.14500
 C557 C 0.96972 0.89982 1.13727
 C558 C 0.95142 0.91308 1.15081
 C559 C 0.94643 0.90730 1.17459
 H560 H 0.95643 0.89327 1.18346
 O561 O 1.12220 1.01587 1.08374
 O562 O 1.15052 1.01416 1.11088
 C563 C 1.14172 1.02355 1.09224
 C564 C 1.15348 1.04442 1.08091
 C565 C 1.17193 1.05671 1.09270
 H566 H 1.17850 1.05028 1.10965
 O567 O 0.88226 0.97429 1.08880
 O568 O 0.85483 0.97397 1.11695
 C569 C 0.86258 0.96662 1.09707
 C570 C 0.84875 0.94892 1.08333
 C571 C 0.82491 0.94363 1.08919
 H572 H 0.81630 0.95264 1.10391
 O573 O 1.08905 1.11318 1.02588
 O574 O 1.11778 1.14012 1.02571
 C575 C 1.09874 1.13167 1.03468
 C576 C 1.08843 1.14290 1.05617
 C577 C 1.10031 1.16190 1.06728
 H578 H 1.11652 1.16911 1.05955
 O579 O 0.91095 0.88205 1.02234
 O580 O 0.88198 0.85540 1.02253
 C581 C 0.90183 0.86294 1.03052
 C582 C 0.91400 0.84991 1.05011
 C583 C 0.90304 0.83001 1.06088
 H584 H 0.88608 0.82347 1.05433
 O585 O 1.08856 0.96898 1.11490
 O586 O 1.11675 0.96709 1.14223
 C587 C 1.09678 0.96017 1.13402
 C588 C 1.08283 0.94193 1.14702
 C589 C 1.08749 0.93739 1.17101
 H590 H 1.10187 0.94690 1.17968
 O591 O 0.91728 1.01874 1.12175
 O592 O 0.88986 1.01842 1.14993
 C593 C 0.90906 1.02680 1.14119
 C594 C 0.92097 1.04715 1.15303
 C595 C 0.90909 1.05924 1.17133
 H596 H 0.89208 1.05265 1.17779
 O597 O 0.98345 1.11334 1.09092
 O598 O 0.98497 1.14073 1.11898
 C599 C 0.97647 1.13311 1.09947
 C600 C 0.95786 1.14704 1.08692
 C601 C 0.95165 1.16999 1.09473
 H602 H 0.96099 1.17778 1.10966
 O603 O 1.02271 0.87563 1.08340
 O604 O 1.02290 0.84734 1.11078
 C605 C 1.03109 0.85617 1.09164
 C606 C 1.05154 0.84454 1.07959
 C607 C 1.06545 0.82756 1.09189
 H608 H 1.06042 0.82208 1.10968
 O609 O 1.11544 0.90800 1.01778
 O610 O 1.14243 0.87928 1.01609
 C611 C 1.13470 0.89855 1.02521
 C612 C 1.14764 0.90906 1.04557
 C613 C 1.16659 0.89637 1.05590
 H614 H 1.17283 0.88001 1.04771
 O615 O 0.88472 1.08681 1.03067
 O616 O 0.85823 1.11594 1.03283
 C617 C 0.86633 1.09607 1.04023
 C618 C 0.85501 1.08417 1.06089
 C619 C 0.83795 1.09639 1.07473
 H620 H 0.83222 1.11422 1.06972
 Cu621 Cu 0.99996 0.89523 1.09737
 Cu622 Cu 0.99981 0.86102 1.13000
 Cu623 Cu 1.00572 1.09315 1.10439
 Cu624 Cu 1.00710 1.12556 1.13853
 Cu625 Cu 0.89751 0.90194 0.99961
 Cu626 Cu 0.86300 0.86967 0.99924
 Cu627 Cu 1.09549 0.89536 0.99467
 Cu628 Cu 1.12809 0.86109 0.99284
 Cu629 Cu 0.90363 1.09981 1.00678
 Cu630 Cu 0.87147 1.13448 1.00902
 Cu631 Cu 1.10094 1.09510 1.00096
 Cu632 Cu 1.13523 1.12764 1.00068
 Cu633 Cu 0.90266 0.99624 1.10251
 Cu634 Cu 0.86982 0.99593 1.13647
 Cu635 Cu 1.10287 0.99250 1.09672
 Cu636 Cu 1.13692 0.99000 1.12927
 C637 C 1.06441 0.92946 1.13573
 H638 H 1.06085 0.93287 1.11711
 C639 C 1.07358 0.92108 1.18407
 C640 C 0.94262 1.05643 1.14436
 H641 H 0.95155 1.04756 1.12976
 C642 C 0.91813 1.08062 1.18056
 C643 C 0.86311 1.06155 1.06843
 H644 H 0.87676 1.05233 1.05833
 C645 C 0.82961 1.08641 1.09607
 C646 C 1.13973 0.93027 1.05632
 H647 H 1.12477 0.93989 1.04867
 C648 C 1.17698 0.90389 1.07724
 C649 C 1.05926 0.85281 1.05722
 H650 H 1.04911 0.86651 1.04803
 C651 C 1.08720 0.81954 1.08244
 C652 C 0.94529 1.13694 1.06784
 H653 H 0.94981 1.11908 1.06192
 C654 C 0.93286 1.18267 1.08404
 C655 C 0.93866 0.93163 1.13981
 H656 H 0.94248 0.93621 1.12148
 C657 C 0.92855 0.91961 1.18708
 C658 C 1.06778 1.05322 1.14121
 H659 H 1.06283 1.04991 1.12292
 C660 C 1.08097 1.06209 1.18840
 C661 C 0.93562 0.85856 1.05961
 H662 H 0.94398 0.87413 1.05172
 C663 C 0.91302 0.81951 1.08120
 C664 C 1.06784 1.13341 1.06686
 H665 H 1.05893 1.11836 1.05870
 C666 C 1.09187 1.17136 1.08875
 C667 C 0.85947 0.93731 1.06399
 H668 H 0.87795 0.94103 1.05964
 C669 C 0.81179 0.92736 1.07548
 C670 C 1.14422 1.05394 1.05961
 H671 H 1.12946 1.04511 1.05085
 C672 C 1.18053 1.07846 1.08361
 O673 O 0.96935 0.41192 0.38036
 O674 O 0.96631 0.38462 0.35234
 C675 C 0.95953 0.40418 0.36157
 C676 C 0.93934 0.41751 0.35098
 C677 C 0.92588 0.40728 0.33258
 H678 H 0.93087 0.38999 0.32549
 O679 O 1.02617 0.58639 0.37808
 O680 O 1.02707 0.61483 0.35089
 C681 C 1.03466 0.59498 0.35896
 C682 C 1.05453 0.58236 0.34690
 C683 C 1.06821 0.59415 0.32945
 H684 H 1.06347 0.61212 0.32392
 O685 O 0.88098 0.48244 0.41761
 O686 O 0.85242 0.48444 0.39071
 C687 C 0.86104 0.47535 0.40955
 C688 C 0.84843 0.45509 0.42093
 C689 C 0.82958 0.44412 0.40881
 H690 H 0.82299 0.45195 0.39245
 O691 O 1.11652 0.51514 0.40876
 O692 O 1.14413 0.51307 0.38089
 C693 C 1.13653 0.52171 0.40034
 C694 C 1.15062 0.54023 0.41289
 C695 C 1.17342 0.54688 0.40472
 H696 H 1.18121 0.53783 0.38958
 O697 O 0.90940 0.38351 0.47806
 O698 O 0.87981 0.35755 0.47897
 C699 C 0.89943 0.36477 0.47014
 C700 C 0.91001 0.35186 0.44970
 C701 C 0.89794 0.33233 0.43985
 H702 H 0.88189 0.32569 0.44835
 O703 O 1.09234 0.61333 0.47305
 O704 O 1.12185 0.63941 0.47262
 C705 C 1.10166 0.63245 0.46507
 C706 C 1.08879 0.64638 0.44665
 C707 C 1.09494 0.67024 0.44142
 H708 H 1.10927 0.67890 0.45100
 O709 O 0.91577 0.52691 0.38357
 O710 O 0.88698 0.52826 0.35690
 C711 C 0.90703 0.53550 0.36456
 C712 C 0.91918 0.55528 0.35188
 C713 C 0.90782 0.56603 0.33250
 H714 H 0.89185 0.55787 0.32535
 O715 O 1.07942 0.47203 0.37614
 O716 O 1.10642 0.47073 0.34763
 C717 C 1.08668 0.46378 0.35642
 C718 C 1.07238 0.44541 0.34395
 C719 C 1.07779 0.43901 0.32051
 H720 H 1.09214 0.44808 0.31123
 O721 O 1.01582 0.37602 0.40955
 O722 O 1.01330 0.34895 0.38129
 C723 C 1.02279 0.35653 0.40029
 C724 C 1.04275 0.34316 0.41134
 C725 C 1.05285 0.32323 0.40000
 H726 H 1.04510 0.31671 0.38364
 O727 O 0.98273 0.62130 0.41246
 O728 O 0.98326 0.64983 0.38530
 C729 C 0.97565 0.64156 0.40492
 C730 C 0.95807 0.65527 0.41903
 C731 C 0.95258 0.67918 0.41342
 H732 H 0.96173 0.68813 0.39896
 O733 O 0.88897 0.59266 0.47752
 O734 O 0.86285 0.62222 0.47808
 C735 C 0.87015 0.60255 0.46952
 C736 C 0.85721 0.59172 0.44935
 C737 C 0.83926 0.60473 0.43759
 H738 H 0.83403 0.62219 0.44409
 O739 O 1.11096 0.40401 0.47026
 O740 O 1.13774 0.37505 0.46988
 C741 C 1.12973 0.39468 0.46163
 C742 C 1.14151 0.40605 0.44089
 C743 C 1.15968 0.39381 0.42863
 H744 H 1.16604 0.37667 0.43508
 O745 O 0.97951 0.58860 0.38017
 O746 O 0.97970 0.61693 0.35285
 C747 C 0.97076 0.59790 0.36152
 C748 C 0.94951 0.58665 0.35056
 C749 C 0.93705 0.59787 0.33179
 H750 H 0.94325 0.61481 0.32477
 O751 O 1.01571 0.41000 0.37815
 O752 O 1.01284 0.38319 0.34967
 C753 C 1.02225 0.40203 0.35808
 C754 C 1.04121 0.41480 0.34476
 C755 C 1.04705 0.40846 0.32129
 H756 H 1.03733 0.39432 0.31246
 O757 O 1.11259 0.46842 0.40806
 O758 O 1.13954 0.46652 0.37955
 C759 C 1.13085 0.45855 0.39886
 C760 C 1.14160 0.43700 0.41002
 C761 C 1.15948 0.42426 0.39795
 H762 H 1.16605 0.43071 0.38099
 O763 O 0.88301 0.52938 0.41611
 O764 O 0.85448 0.53101 0.38916
 C765 C 0.86410 0.53897 0.40791
 C766 C 0.85398 0.56045 0.41940
 C767 C 0.83588 0.57365 0.40799
 H768 H 0.82842 0.56737 0.39139
 O769 O 0.92320 0.62385 0.47780
 O770 O 0.89696 0.65329 0.47895
 C771 C 0.91571 0.64397 0.47032
 C772 C 0.92862 0.65633 0.45101
 C773 C 0.92291 0.67999 0.44484
 H774 H 0.90935 0.68964 0.45469
 O775 O 1.07811 0.37165 0.47055
 O776 O 1.10498 0.34276 0.47030
 C777 C 1.08600 0.35207 0.46214
 C778 C 1.07362 0.34076 0.44186
 C779 C 1.08347 0.32072 0.43035
 H780 H 1.09971 0.31263 0.43710
 O781 O 1.08345 0.51883 0.37668
 O782 O 1.11118 0.51728 0.34890
 C783 C 1.09270 0.52705 0.35770
 C784 C 1.08286 0.54900 0.34645
 C785 C 1.09608 0.56096 0.32888
 H786 H 1.11252 0.55310 0.32238
 O787 O 0.91170 0.48013 0.38332
 O788 O 0.88283 0.48204 0.35674
 C789 C 0.90173 0.47231 0.36461
 C790 C 0.91125 0.45090 0.35251
 C791 C 0.89809 0.44040 0.33411
 H792 H 0.88191 0.44893 0.32777
 O793 O 1.02873 0.61739 0.41170
 O794 O 1.02931 0.64621 0.38483
 C795 C 1.03740 0.63678 0.40379
 C796 C 1.05712 0.64835 0.41682
 C797 C 1.06317 0.67217 0.41214
 H798 H 1.05321 0.68228 0.39900
 O799 O 0.96943 0.37916 0.41264
 O800 O 0.96649 0.35178 0.38471
 C801 C 0.95960 0.36052 0.40441
 C802 C 0.93925 0.34968 0.41742
 C803 C 0.92666 0.33030 0.40769
 H804 H 0.93241 0.32259 0.39101
 O805 O 1.12198 0.57768 0.47166
 O806 O 1.15167 0.60352 0.47089
 C807 C 1.14169 0.58478 0.46298
 C808 C 1.15289 0.57136 0.44323
 C809 C 1.17552 0.57791 0.43462
 H810 H 1.18517 0.59243 0.44291
 O811 O 0.87845 0.41795 0.47875
 O812 O 0.84893 0.39190 0.47945
 C813 C 0.85856 0.41054 0.47081
 C814 C 0.84725 0.42302 0.45047
 C815 C 0.82861 0.41205 0.43772
 H816 H 0.82175 0.39485 0.44340
 Cu817 Cu 0.99296 0.39695 0.39801
 Cu818 Cu 0.98953 0.36433 0.36421
 Cu819 Cu 1.00411 0.60048 0.39817
 Cu820 Cu 1.00492 0.63466 0.36552
 Cu821 Cu 0.90075 0.50458 0.40291
 Cu822 Cu 0.86632 0.50664 0.37073
 Cu823 Cu 1.09525 0.49379 0.39521
 Cu824 Cu 1.12802 0.49169 0.36143
 C825 C 0.93197 0.43943 0.36075
 H826 H 0.94190 0.44716 0.37533
 C827 C 0.90501 0.41844 0.32437
 C828 C 1.06193 0.55972 0.35516
 H829 H 1.05197 0.55089 0.36915
 C830 C 1.08937 0.58383 0.32083
 C831 C 0.85702 0.44458 0.44191
 H832 H 0.87197 0.45267 0.45104
 C833 C 0.82014 0.42225 0.41652
 C834 C 1.14067 0.55241 0.43235
 H835 H 1.12303 0.54757 0.43863
 C836 C 1.18594 0.56573 0.41547
 C837 C 0.93084 0.36024 0.43853
 H838 H 0.93999 0.37561 0.44579
 C839 C 0.90578 0.32176 0.41864
 C840 C 1.06984 0.63568 0.43427
 H841 H 1.06516 0.61725 0.43799
 C842 C 1.08180 0.68329 0.42450
 C843 C 0.94027 0.56543 0.36056
 H844 H 0.94900 0.55722 0.37569
 C845 C 0.91578 0.58784 0.32305
 C846 C 1.05387 0.43341 0.35582
 H847 H 1.04975 0.43816 0.37401
 C848 C 1.06510 0.42076 0.30896
 C849 C 1.05310 0.35158 0.43238
 H850 H 1.04566 0.36723 0.44094
 C851 C 1.07335 0.31202 0.40924
 C852 C 0.94624 0.64417 0.43807
 H853 H 0.95033 0.62573 0.44246
 C854 C 0.93501 0.69156 0.42630
 C855 C 0.86434 0.56950 0.44022
 H856 H 0.87864 0.55969 0.44880
 C857 C 0.82882 0.59602 0.41670
 C858 C 1.13276 0.42779 0.43157
 H859 H 1.11845 0.43710 0.44064
 C860 C 1.16832 0.40258 0.40694
 O861 O 1.02280 0.40916 0.61810
 O862 O 1.02204 0.38092 0.64548
 C863 C 1.03113 0.39993 0.63703
 C864 C 1.05215 0.41092 0.64874
 C865 C 1.06271 0.40000 0.66862
 H866 H 1.05453 0.38423 0.67630
 O867 O 0.98602 0.58645 0.61970
 O868 O 0.98848 0.61409 0.64743
 C869 C 0.97880 0.59533 0.63917
 C870 C 0.95804 0.58442 0.65140
 C871 C 0.94700 0.59602 0.67069
 H872 H 0.95448 0.61238 0.67773
 O873 O 0.88746 0.52911 0.58763
 O874 O 0.85997 0.53070 0.61567
 C875 C 0.86875 0.53856 0.59638
 C876 C 0.85771 0.55948 0.58444
 C877 C 0.83867 0.57195 0.59519
 H878 H 0.83142 0.56582 0.61198
 O879 O 1.11718 0.46650 0.58125
 O880 O 1.14647 0.46442 0.60734
 C881 C 1.13625 0.45672 0.58872
 C882 C 1.14622 0.43565 0.57621
 C883 C 1.16573 0.42314 0.58597
 H884 H 1.17377 0.42923 0.60236
 O885 O 1.07779 0.37232 0.51704
 O886 O 1.10427 0.34307 0.51670
 C887 C 1.08537 0.35246 0.52507
 C888 C 1.07237 0.34069 0.54481
 C889 C 1.07708 0.31676 0.55105
 H890 H 1.08969 0.30641 0.54069
 O891 O 0.92390 0.62247 0.52439
 O892 O 0.89710 0.65142 0.52519
 C893 C 0.91599 0.64178 0.53329
 C894 C 0.92779 0.65251 0.55423
 C895 C 0.91603 0.67062 0.56680
 H896 H 0.89924 0.67771 0.56024
 O897 O 0.91790 0.47998 0.61925
 O898 O 0.89017 0.48141 0.64704
 C899 C 0.90887 0.47191 0.63837
 C900 C 0.91938 0.45053 0.65002
 C901 C 0.90736 0.43956 0.66901
 H902 H 0.89123 0.44762 0.67605
 O903 O 1.08985 0.51574 0.61516
 O904 O 1.11947 0.51401 0.64087
 C905 C 1.10025 0.52366 0.63354
 C906 C 1.09071 0.54509 0.64580
 C907 C 1.10388 0.55572 0.66410
 H908 H 1.12010 0.54719 0.67037
 O909 O 0.97326 0.37942 0.58699
 O910 O 0.97234 0.35122 0.61445
 C911 C 0.96411 0.36041 0.59550
 C912 C 0.94320 0.34946 0.58358
 C913 C 0.93166 0.32933 0.59342
 H914 H 0.93851 0.32111 0.60949
 O915 O 1.03292 0.61636 0.58512
 O916 O 1.03556 0.64431 0.61251
 C917 C 1.04264 0.63519 0.59307
 C918 C 1.06308 0.64585 0.58006
 C919 C 1.07538 0.66559 0.58945
 H920 H 1.06941 0.67359 0.60591
 O921 O 0.87971 0.41794 0.52537
 O922 O 0.85013 0.39198 0.52625
 C923 C 0.86019 0.41060 0.53432
 C924 C 0.84966 0.42341 0.55487
 C925 C 0.83004 0.41371 0.56735
 H926 H 0.82241 0.39691 0.56166
 O927 O 1.12364 0.57721 0.51802
 O928 O 1.15364 0.60268 0.51724
 C929 C 1.14397 0.58385 0.52549
 C930 C 1.15618 0.56980 0.54432
 C931 C 1.17952 0.57566 0.55147
 H932 H 1.18902 0.58998 0.54257
 O933 O 1.03253 0.58378 0.61772
 O934 O 1.03540 0.61156 0.64526
 C935 C 1.04225 0.59180 0.63644
 C936 C 1.06248 0.57853 0.64727
 C937 C 1.07610 0.58896 0.66548
 H938 H 1.07121 0.60638 0.67232
 O939 O 0.97620 0.41275 0.61860
 O940 O 0.97509 0.38456 0.64605
 C941 C 0.96771 0.40446 0.63784
 C942 C 0.94818 0.41753 0.64999
 C943 C 0.93587 0.40692 0.66910
 H944 H 0.94145 0.38962 0.67584
 O945 O 1.12109 0.51321 0.58114
 O946 O 1.15066 0.51098 0.60690
 C947 C 1.14163 0.51983 0.58813
 C948 C 1.15496 0.53843 0.57472
 C949 C 1.17827 0.54458 0.58152
 H950 H 1.18656 0.53533 0.59631
 O951 O 0.88525 0.48234 0.58666
 O952 O 0.85770 0.48415 0.61461
 C953 C 0.86549 0.47534 0.59532
 C954 C 0.85201 0.45569 0.58392
 C955 C 0.83170 0.44649 0.59523
 H956 H 0.82458 0.45577 0.61051
 O957 O 1.09292 0.61192 0.51945
 O958 O 1.12287 0.63746 0.51895
 C959 C 1.10312 0.63040 0.52763
 C960 C 1.09251 0.64337 0.54800
 C961 C 1.10427 0.66328 0.55747
 H962 H 1.12015 0.67004 0.54877
 O963 O 0.91044 0.38338 0.52451
 O964 O 0.88081 0.35746 0.52527
 C965 C 0.90085 0.36465 0.53300
 C966 C 0.91246 0.35166 0.55282
 C967 C 0.90129 0.33164 0.56287
 H968 H 0.88495 0.32486 0.55511
 O969 O 1.08778 0.46885 0.61670
 O970 O 1.11713 0.46715 0.64273
 C971 C 1.09691 0.46002 0.63549
 C972 C 1.08435 0.44044 0.64822
 C973 C 1.09473 0.42916 0.66814
 H974 H 1.11161 0.43552 0.67504
 O975 O 0.92082 0.52687 0.61952
 O976 O 0.89314 0.52810 0.64738
 C977 C 0.91280 0.53546 0.63883
 C978 C 0.92567 0.55510 0.65089
 C979 C 0.91490 0.56701 0.66998
 H980 H 0.89786 0.56089 0.67680
 O981 O 0.98632 0.61917 0.58729
 O982 O 0.98855 0.64689 0.61496
 C983 C 0.97904 0.63873 0.59617
 C984 C 0.95845 0.65127 0.58516
 C985 C 0.94626 0.66949 0.59753
 H986 H 0.95258 0.67535 0.61473
 O987 O 1.01968 0.37786 0.58422
 O988 O 1.01871 0.34939 0.61140
 C989 C 1.02657 0.35760 0.59179
 C990 C 1.04388 0.34349 0.57763
 C991 C 1.04895 0.31971 0.58370
 H992 H 1.04029 0.31183 0.59905
 O993 O 1.11155 0.40390 0.51676
 O994 O 1.13816 0.37479 0.51645
 C995 C 1.13056 0.39447 0.52479
 C996 C 1.14350 0.40565 0.54481
 C997 C 1.16325 0.39381 0.55462
 H998 H 1.16990 0.37764 0.54636
 O999 O 0.88990 0.59134 0.52395
 O1000 O 0.86330 0.62048 0.52433
 C1001 C 0.87107 0.60071 0.53241
 C1002 C 0.85878 0.58944 0.55279
 C1003 C 0.83965 0.60135 0.56358
 H1004 H 0.83274 0.61764 0.55567
 Cu1005 Cu 0.99811 0.39764 0.59930
 Cu1006 Cu 0.99713 0.36379 0.63219
 Cu1007 Cu 1.00918 0.59870 0.59971
 Cu1008 Cu 1.01232 0.63202 0.63280
 Cu1009 Cu 0.89740 0.40337 0.50159
 Cu1010 Cu 0.86194 0.37215 0.50257
 Cu1011 Cu 1.09187 0.39083 0.49368
 Cu1012 Cu 1.12406 0.35610 0.49344
 Cu1013 Cu 0.90920 0.60464 0.50071
 Cu1014 Cu 0.87738 0.63977 0.50168
 Cu1015 Cu 1.10473 0.59248 0.49555
 Cu1016 Cu 1.14050 0.62335 0.49486
 Cu1017 Cu 0.90566 0.50448 0.60047
 Cu1018 Cu 0.87253 0.50619 0.63399
 Cu1019 Cu 1.10099 0.49126 0.59604
 Cu1020 Cu 1.13636 0.48902 0.62705
 C1021 C 1.06295 0.43130 0.63889
 H1022 H 1.05515 0.43953 0.62328
 C1023 C 1.08418 0.40871 0.67826
 C1024 C 0.94738 0.56377 0.64187
 H1025 H 0.95542 0.55504 0.62669
 C1026 C 0.92520 0.58760 0.67971
 C1027 C 0.86756 0.56835 0.56317
 H1028 H 0.88266 0.55932 0.55513
 C1029 C 0.82989 0.59316 0.58500
 C1030 C 1.13517 0.42674 0.55558
 H1031 H 1.11968 0.43579 0.54832
 C1032 C 1.17407 0.40198 0.57548
 C1033 C 1.05553 0.35377 0.55803
 H1034 H 1.05191 0.37224 0.55340
 C1035 C 1.06517 0.30601 0.57032
 C1036 C 0.94911 0.64303 0.56343
 H1037 H 0.95793 0.62857 0.55412
 C1038 C 0.92474 0.67878 0.58862
 C1039 C 0.93991 0.43948 0.64075
 H1040 H 0.94891 0.44750 0.62567
 C1041 C 0.91520 0.41762 0.67834
 C1042 C 1.06987 0.55651 0.63766
 H1043 H 1.05989 0.54868 0.62317
 C1044 C 1.09707 0.57786 0.67367
 C1045 C 0.93353 0.36032 0.56315
 H1046 H 0.94197 0.37608 0.55572
 C1047 C 0.91049 0.32058 0.58330
 C1048 C 1.07175 0.63494 0.55925
 H1049 H 1.06279 0.61933 0.55224
 C1050 C 1.09618 0.67422 0.57839
 C1051 C 0.86065 0.44429 0.56348
 H1052 H 0.87642 0.45125 0.55473
 C1053 C 0.82119 0.42494 0.58790
 C1054 C 1.14414 0.55100 0.55593
 H1055 H 1.12604 0.54658 0.55078
 C1056 C 1.19076 0.56305 0.56998
 O1057 O 0.47041 0.91566 0.38112
 O1058 O 0.46836 0.88898 0.35245
 C1059 C 0.46110 0.90829 0.36194
 C1060 C 0.44097 0.92175 0.35115
 C1061 C 0.42821 0.91196 0.33201
 H1062 H 0.43358 0.89491 0.32463
 O1063 O 0.52290 1.08803 0.38619
 O1064 O 0.52328 1.11651 0.35900
 C1065 C 0.53114 1.09673 0.36701
 C1066 C 0.55126 1.08488 0.35463
 C1067 C 0.56364 1.09762 0.33710
 H1068 H 0.55712 1.11499 0.33143
 O1069 O 0.37824 0.98199 0.41685
 O1070 O 0.35023 0.98417 0.38939
 C1071 C 0.35880 0.97446 0.40792
 C1072 C 0.34664 0.95340 0.41829
 C1073 C 0.32722 0.94305 0.40640
 H1074 H 0.32028 0.95132 0.39040
 O1075 O 0.61566 1.01793 0.41349
 O1076 O 0.64361 1.01795 0.38584
 C1077 C 0.63561 1.02532 0.40565
 C1078 C 0.64944 1.04304 0.41942
 C1079 C 0.67307 1.04834 0.41305
 H1080 H 0.68136 1.03899 0.39836
 O1081 O 0.40837 0.88060 0.47476
 O1082 O 0.37909 0.85428 0.47454
 C1083 C 0.39881 0.86193 0.46628
 C1084 C 0.41008 0.84993 0.44568
 C1085 C 0.39797 0.83161 0.43359
 H1086 H 0.38097 0.82515 0.44017
 O1087 O 0.58954 1.11529 0.47870
 O1088 O 0.61911 1.14126 0.47859
 C1089 C 0.59920 1.13413 0.47050
 C1090 C 0.58774 1.14721 0.45058
 C1091 C 0.59999 1.16577 0.43898
 H1092 H 0.61719 1.17153 0.44563
 O1093 O 0.41176 1.02976 0.38625
 O1094 O 0.38320 1.03206 0.35941
 C1095 C 0.40293 1.03935 0.36774
 C1096 C 0.41510 1.05981 0.35624
 C1097 C 0.40405 1.07187 0.33731
 H1098 H 0.38710 1.06562 0.33046
 O1099 O 0.58109 0.97482 0.37834
 O1100 O 0.60861 0.97525 0.35032
 C1101 C 0.58916 0.96712 0.35870
 C1102 C 0.57643 0.94752 0.34633
 C1103 C 0.58675 0.93614 0.32650
 H1104 H 0.60348 0.94258 0.31925
 O1105 O 0.51717 0.87992 0.41037
 O1106 O 0.51594 0.85355 0.38136
 C1107 C 0.52515 0.86111 0.40055
 C1108 C 0.54631 0.84891 0.41082
 C1109 C 0.55962 0.83255 0.39713
 H1110 H 0.55366 0.82771 0.37948
 O1111 O 0.47844 1.12292 0.41988
 O1112 O 0.47943 1.15148 0.39280
 C1113 C 0.47113 1.14297 0.41205
 C1114 C 0.45215 1.15612 0.42493
 C1115 C 0.44484 1.17890 0.41730
 H1116 H 0.45381 1.18735 0.40242
 O1117 O 0.38238 1.09198 0.48194
 O1118 O 0.35498 1.12033 0.48328
 C1119 C 0.36276 1.10077 0.47474
 C1120 C 0.34911 1.08780 0.45631
 C1121 C 0.32490 1.09299 0.45185
 H1122 H 0.31585 1.10679 0.46191
 O1123 O 0.61448 0.90798 0.47239
 O1124 O 0.64144 0.87919 0.47188
 C1125 C 0.63346 0.89892 0.46384
 C1126 C 0.64554 0.91099 0.44362
 C1127 C 0.66585 0.90083 0.43280
 H1128 H 0.67361 0.88456 0.43992
 O1129 O 0.47628 1.09116 0.38642
 O1130 O 0.47672 1.11977 0.35938
 C1131 C 0.46789 1.10056 0.36761
 C1132 C 0.44697 1.08963 0.35587
 C1133 C 0.43579 1.10122 0.33662
 H1134 H 0.44312 1.11767 0.32948
 O1135 O 0.51705 0.91377 0.37897
 O1136 O 0.51499 0.88729 0.35012
 C1137 C 0.52433 0.90585 0.35908
 C1138 C 0.54471 0.91748 0.34682
 C1139 C 0.55533 0.90638 0.32714
 H1140 H 0.54765 0.89014 0.32004
 O1141 O 0.61395 0.97152 0.41059
 O1142 O 0.64145 0.97172 0.38252
 C1143 C 0.63291 0.96291 0.40155
 C1144 C 0.64480 0.94207 0.41289
 C1145 C 0.66488 0.93152 0.40226
 H1146 H 0.67224 0.93916 0.38613
 O1147 O 0.37979 1.02883 0.41976
 O1148 O 0.35119 1.03052 0.39288
 C1149 C 0.36018 1.03755 0.41235
 C1150 C 0.34791 1.05633 0.42628
 C1151 C 0.32373 1.06148 0.42231
 H1152 H 0.31384 1.05129 0.40927
 O1153 O 0.41547 1.12409 0.48180
 O1154 O 0.38856 1.15289 0.48292
 C1155 C 0.40755 1.14400 0.47424
 C1156 C 0.42054 1.15652 0.45494
 C1157 C 0.41320 1.17918 0.44678
 H1158 H 0.39810 1.18805 0.45498
 O1159 O 0.58047 0.87710 0.47166
 O1160 O 0.60748 0.84833 0.47117
 C1161 C 0.58866 0.85790 0.46279
 C1162 C 0.57727 0.84750 0.44147
 C1163 C 0.59016 0.83125 0.42756
 H1164 H 0.60758 0.82513 0.43339
 O1165 O 0.58323 1.02178 0.38100
 O1166 O 0.61109 1.02247 0.35331
 C1167 C 0.59230 1.03123 0.36252
 C1168 C 0.58154 1.05333 0.35246
 C1169 C 0.59395 1.06680 0.33518
 H1170 H 0.61100 1.06059 0.32847
 O1171 O 0.41109 0.98280 0.38472
 O1172 O 0.38289 0.98523 0.35750
 C1173 C 0.40190 0.97563 0.36541
 C1174 C 0.41239 0.95490 0.35273
 C1175 C 0.40008 0.94486 0.33351
 H1176 H 0.38404 0.95344 0.32689
 O1177 O 0.52524 1.12087 0.41825
 O1178 O 0.52603 1.14920 0.39091
 C1179 C 0.53447 1.13978 0.40967
 C1180 C 0.55602 1.15013 0.42087
 C1181 C 0.56859 1.16871 0.40954
 H1182 H 0.56185 1.17631 0.39313
 O1183 O 0.47023 0.88092 0.41179
 O1184 O 0.46885 0.85426 0.38307
 C1185 C 0.46116 0.86221 0.40276
 C1186 C 0.44057 0.85034 0.41448
 C1187 C 0.42806 0.83222 0.40262
 H1188 H 0.43436 0.82591 0.38554
 O1189 O 0.61965 1.08002 0.47780
 O1190 O 0.64939 1.10583 0.47796
 C1191 C 0.63963 1.08708 0.46975
 C1192 C 0.65140 1.07349 0.45044
 C1193 C 0.67497 1.07874 0.44357
 H1194 H 0.68490 1.09250 0.45276
 O1195 O 0.37708 0.91467 0.47499
 O1196 O 0.34781 0.88831 0.47456
 C1197 C 0.35733 0.90733 0.46665
 C1198 C 0.34587 0.92051 0.44692
 C1199 C 0.32630 0.91055 0.43488
 H1200 H 0.31895 0.89358 0.44063
 Cu1201 Cu 0.49386 0.90016 0.39849
 Cu1202 Cu 0.49178 0.86832 0.36393
 Cu1203 Cu 0.50054 1.10293 0.40547
 Cu1204 Cu 0.50138 1.13705 0.37277
 Cu1205 Cu 0.39807 1.00575 0.40464
 Cu1206 Cu 0.36414 1.00836 0.37201
 Cu1207 Cu 0.59559 0.99646 0.39851
 Cu1208 Cu 0.62884 0.99694 0.36508
 C1209 C 0.43297 0.94332 0.36133
 H1210 H 0.44225 0.95063 0.37653
 C1211 C 0.40750 0.92319 0.32341
 C1212 C 0.56019 1.06260 0.36211
 H1213 H 0.55099 1.05291 0.37607
 C1214 C 0.58534 1.08926 0.32797
 C1215 C 0.35577 0.94207 0.43863
 H1216 H 0.37113 0.94963 0.44755
 C1217 C 0.31720 0.92151 0.41437
 C1218 C 0.63885 1.05547 0.43836
 H1219 H 0.62054 1.05158 0.44325
 C1220 C 0.68597 1.06604 0.42506
 C1221 C 0.43156 0.85890 0.43615
 H1222 H 0.44069 0.87340 0.44503
 C1223 C 0.40663 0.82307 0.41184
 C1224 C 0.56564 1.13966 0.44151
 H1225 H 0.55636 1.12496 0.45001
 C1226 C 0.59077 1.17632 0.41824
 C1227 C 0.43665 1.06873 0.36533
 H1228 H 0.44492 1.05990 0.38037
 C1229 C 0.41417 1.09259 0.32760
 C1230 C 0.55525 0.93818 0.35614
 H1231 H 0.54749 0.94644 0.37173
 C1232 C 0.57649 0.91530 0.31712
 C1233 C 0.55525 0.85612 0.43307
 H1234 H 0.54557 0.86928 0.44339
 C1235 C 0.58181 0.82420 0.40522
 C1236 C 0.44012 1.14526 0.44396
 H1237 H 0.44558 1.12760 0.44979
 C1238 C 0.42543 1.19055 0.42808
 C1239 C 0.36037 1.06939 0.44347
 H1240 H 0.37905 1.06544 0.44660
 C1241 C 0.31203 1.07950 0.43520
 C1242 C 0.63537 0.93176 0.43365
 H1243 H 0.61958 0.93954 0.44165
 C1244 C 0.67541 0.91088 0.41196
 O1245 O 0.51940 0.90752 0.61458
 O1246 O 0.51922 0.87867 0.64139
 C1247 C 0.52807 0.89785 0.63314
 C1248 C 0.54913 0.90846 0.64487
 C1249 C 0.55997 0.89656 0.66402
 H1250 H 0.55238 0.88008 0.67081
 O1251 O 0.47936 1.08374 0.62066
 O1252 O 0.48008 1.11103 0.64884
 C1253 C 0.47076 1.09254 0.63961
 C1254 C 0.44899 1.08180 0.65021
 C1255 C 0.43565 1.09440 0.66737
 H1256 H 0.44178 1.11160 0.67370
 O1257 O 0.38150 1.02386 0.58643
 O1258 O 0.35326 1.02343 0.61381
 C1259 C 0.36206 1.03204 0.59482
 C1260 C 0.34975 1.05202 0.58262
 C1261 C 0.32598 1.05758 0.58814
 H1262 H 0.31653 1.04693 0.60122
 O1263 O 0.61646 0.96894 0.58264
 O1264 O 0.64499 0.96713 0.60961
 C1265 C 0.63600 0.96014 0.59012
 C1266 C 0.64822 0.94136 0.57621
 C1267 C 0.67194 0.93513 0.58123
 H1268 H 0.68156 0.94451 0.59505
 O1269 O 0.58010 0.87587 0.51806
 O1270 O 0.60677 0.84682 0.51777
 C1271 C 0.58750 0.85583 0.52575
 C1272 C 0.57363 0.84315 0.54440
 C1273 C 0.57964 0.81969 0.55122
 H1274 H 0.59422 0.81047 0.54248
 O1275 O 0.41739 1.12203 0.52788
 O1276 O 0.39073 1.15105 0.52946
 C1277 C 0.41018 1.14163 0.53661
 C1278 C 0.42455 1.15320 0.55547
 C1279 C 0.41935 1.17652 0.56318
 H1280 H 0.40512 1.18653 0.55472
 O1281 O 0.41287 0.97562 0.61819
 O1282 O 0.38527 0.97591 0.64616
 C1283 C 0.40449 0.96751 0.63758
 C1284 C 0.41723 0.94797 0.65002
 C1285 C 0.41173 0.94199 0.67365
 H1286 H 0.39811 0.95190 0.68316
 O1287 O 0.58554 1.01492 0.61770
 O1288 O 0.61356 1.01252 0.64511
 C1289 C 0.59428 1.02166 0.63736
 C1290 C 0.58208 1.04058 0.65116
 C1291 C 0.58937 1.04583 0.67435
 H1292 H 0.60392 1.03575 0.68220
 O1293 O 0.46956 0.87805 0.58368
 O1294 O 0.46896 0.84994 0.61124
 C1295 C 0.46048 0.85913 0.59242
 C1296 C 0.43936 0.84815 0.58108
 C1297 C 0.42695 0.82964 0.59258
 H1298 H 0.43327 0.82275 0.60946
 O1299 O 0.52852 1.11442 0.58972
 O1300 O 0.53036 1.14108 0.61841
 C1301 C 0.53798 1.13292 0.59876
 C1302 C 0.55844 1.14453 0.58652
 C1303 C 0.56992 1.16448 0.59653
 H1304 H 0.56343 1.17207 0.61300
 O1305 O 0.37766 0.91494 0.52112
 O1306 O 0.34792 0.88913 0.52072
 C1307 C 0.35755 0.90797 0.52888
 C1308 C 0.34554 0.92168 0.54790
 C1309 C 0.32168 0.91696 0.55392
 H1310 H 0.31176 0.90353 0.54424
 O1311 O 0.62130 1.08002 0.52403
 O1312 O 0.65085 1.10605 0.52411
 C1313 C 0.64135 1.08702 0.53198
 C1314 C 0.65333 1.07305 0.55092
 C1315 C 0.67678 1.07843 0.55819
 H1316 H 0.68663 1.09260 0.54944
 O1317 O 0.52600 1.08060 0.62141
 O1318 O 0.52701 1.10705 0.65033
 C1319 C 0.53418 1.08752 0.64126
 C1320 C 0.55269 1.07287 0.65332
 C1321 C 0.56022 1.07790 0.67665
 H1322 H 0.55177 1.09223 0.68649
 O1323 O 0.47294 0.91062 0.61618
 O1324 O 0.47294 0.88255 0.64380
 C1325 C 0.46548 0.90255 0.63594
 C1326 C 0.44751 0.91645 0.64943
 C1327 C 0.44223 0.91106 0.67325
 H1328 H 0.45188 0.89694 0.68235
 O1329 O 0.61810 1.01540 0.58486
 O1330 O 0.64623 1.01336 0.61220
 C1331 C 0.63793 1.02244 0.59322
 C1332 C 0.65143 1.04145 0.58086
 C1333 C 0.67480 1.04695 0.58782
 H1334 H 0.68296 1.03710 0.60230
 O1335 O 0.38066 0.97718 0.58496
 O1336 O 0.35287 0.97708 0.61275
 C1337 C 0.36095 0.96946 0.59309
 C1338 C 0.34734 0.95138 0.57959
 C1339 C 0.32356 0.94612 0.58564
 H1340 H 0.31494 0.95551 0.60011
 O1341 O 0.58945 1.11349 0.52526
 O1342 O 0.61891 1.13960 0.52541
 C1343 C 0.59927 1.13195 0.53389
 C1344 C 0.58829 1.14400 0.55466
 C1345 C 0.59959 1.16369 0.56510
 H1346 H 0.61577 1.17085 0.55728
 O1347 O 0.40761 0.87974 0.52120
 O1348 O 0.37809 0.85369 0.52130
 C1349 C 0.39783 0.86104 0.52957
 C1350 C 0.40894 0.84862 0.55000
 C1351 C 0.39701 0.82975 0.56153
 H1352 H 0.38018 0.82318 0.55468
 O1353 O 0.58461 0.96828 0.61595
 O1354 O 0.61304 0.96592 0.64295
 C1355 C 0.59330 0.95872 0.63454
 C1356 C 0.58084 0.93837 0.64587
 C1357 C 0.59123 0.92637 0.66528
 H1358 H 0.60791 0.93265 0.67273
 O1359 O 0.41490 1.02234 0.61798
 O1360 O 0.38665 1.02266 0.64530
 C1361 C 0.40616 1.03077 0.63700
 C1362 C 0.41775 1.05128 0.64887
 C1363 C 0.40502 1.06392 0.66616
 H1364 H 0.38773 1.05746 0.67199
 O1365 O 0.48206 1.11675 0.58880
 O1366 O 0.48379 1.14411 0.61688
 C1367 C 0.47518 1.13656 0.59739
 C1368 C 0.45656 1.15064 0.58495
 C1369 C 0.45097 1.17383 0.59250
 H1370 H 0.46064 1.18143 0.60731
 O1371 O 0.51615 0.87669 0.58060
 O1372 O 0.51550 0.84784 0.60739
 C1373 C 0.52347 0.85654 0.58803
 C1374 C 0.54196 0.84343 0.57442
 C1375 C 0.54804 0.81994 0.58072
 H1376 H 0.53862 0.81113 0.59510
 O1377 O 0.61451 0.90712 0.51878
 O1378 O 0.64154 0.87840 0.51834
 C1379 C 0.63382 0.89806 0.52658
 C1380 C 0.64717 0.91059 0.54551
 C1381 C 0.67086 0.90424 0.55111
 H1382 H 0.67975 0.89006 0.54143
 O1383 O 0.38295 1.09105 0.52790
 O1384 O 0.35578 1.11961 0.52949
 C1385 C 0.36371 1.09948 0.53647
 C1386 C 0.35057 1.08545 0.55458
 C1387 C 0.32672 1.09089 0.56045
 H1388 H 0.31767 1.10559 0.55165
 Cu1389 Cu 0.49447 0.89608 0.59604
 Cu1390 Cu 0.49412 0.86185 0.62863
 Cu1391 Cu 0.50399 1.09612 0.60239
 Cu1392 Cu 0.50552 1.12848 0.63652
 Cu1393 Cu 0.39570 0.90003 0.49804
 Cu1394 Cu 0.36034 0.86862 0.49784
 Cu1395 Cu 0.59474 0.89491 0.49544
 Cu1396 Cu 0.62694 0.86020 0.49497
 Cu1397 Cu 0.40225 1.10448 0.50477
 Cu1398 Cu 0.36986 1.13895 0.50649
 Cu1399 Cu 0.60201 1.09465 0.50143
 Cu1400 Cu 0.63739 1.12595 0.50145
 Cu1401 Cu 0.40030 0.99959 0.59912
 Cu1402 Cu 0.36680 0.99966 0.63237
 Cu1403 Cu 0.59829 0.99214 0.59759
 Cu1404 Cu 0.63225 0.98957 0.63026
 C1405 C 0.55961 0.92945 0.63598
 H1406 H 0.55168 0.93838 0.62081
 C1407 C 0.58106 0.90529 0.67413
 C1408 C 0.43986 1.06022 0.64109
 H1409 H 0.44951 1.05082 0.62729
 C1410 C 0.41334 1.08578 0.67488
 C1411 C 0.36183 1.06589 0.56568
 H1412 H 0.38023 1.06168 0.56140
 C1413 C 0.31419 1.07671 0.57692
 C1414 C 0.63608 0.92923 0.55811
 H1415 H 0.61774 0.93399 0.55416
 C1416 C 0.68344 0.91679 0.56867
 C1417 C 0.55462 0.85479 0.55600
 H1418 H 0.55015 0.87303 0.55120
 C1419 C 0.56677 0.80794 0.56922
 C1420 C 0.44341 1.14055 0.56628
 H1421 H 0.44740 1.12248 0.56064
 C1422 C 0.43259 1.18704 0.58164
 C1423 C 0.43514 0.93513 0.63813
 H1424 H 0.43912 0.93940 0.61976
 C1425 C 0.42443 0.92385 0.68544
 C1426 C 0.56358 1.05399 0.64091
 H1427 H 0.55812 1.05015 0.62287
 C1428 C 0.57841 1.06421 0.68741
 C1429 C 0.43031 0.85740 0.55971
 H1430 H 0.43945 0.87213 0.55110
 C1431 C 0.40578 0.82051 0.58298
 C1432 C 0.56763 1.13464 0.56541
 H1433 H 0.55912 1.11910 0.55775
 C1434 C 0.59066 1.17390 0.58604
 C1435 C 0.35813 0.93917 0.56062
 H1436 H 0.37657 0.94289 0.55612
 C1437 C 0.31057 0.92918 0.57267
 C1438 C 0.64093 1.05442 0.56226
 H1439 H 0.62281 1.05032 0.55695
 C1440 C 0.68773 1.06519 0.57647
 O1441 O 0.46977 0.41797 0.87987
 O1442 O 0.46741 0.39090 0.85156
 C1443 C 0.46023 0.41028 0.86092
 C1444 C 0.43972 0.42332 0.85048
 C1445 C 0.42737 0.41378 0.83096
 H1446 H 0.43362 0.39749 0.82263
 O1447 O 0.52352 0.58629 0.87960
 O1448 O 0.52377 0.61485 0.85249
 C1449 C 0.53146 0.59494 0.86024
 C1450 C 0.55100 0.58244 0.84760
 C1451 C 0.56284 0.59356 0.82847
 H1452 H 0.55663 0.61063 0.82171
 O1453 O 0.37674 0.48309 0.91990
 O1454 O 0.34758 0.48521 0.89369
 C1455 C 0.35652 0.47611 0.91238
 C1456 C 0.34363 0.45685 0.92524
 C1457 C 0.32030 0.45027 0.91871
 H1458 H 0.31120 0.45970 0.90451
 O1459 O 0.61709 0.51867 0.90984
 O1460 O 0.64471 0.51751 0.88189
 C1461 C 0.63709 0.52551 0.90158
 C1462 C 0.65152 0.54301 0.91498
 C1463 C 0.67504 0.54815 0.90811
 H1464 H 0.68267 0.53915 0.89287
 O1465 O 0.40797 0.38392 0.97608
 O1466 O 0.37889 0.35738 0.97619
 C1467 C 0.39791 0.36572 0.96708
 C1468 C 0.40807 0.35490 0.94529
 C1469 C 0.39501 0.33791 0.93213
 H1470 H 0.37762 0.33206 0.93824
 O1471 O 0.59124 0.61067 0.97611
 O1472 O 0.62072 0.63676 0.97553
 C1473 C 0.60075 0.62942 0.96763
 C1474 C 0.58933 0.64233 0.94760
 C1475 C 0.60133 0.66153 0.93704
 H1476 H 0.61785 0.66788 0.94478
 O1477 O 0.41085 0.52884 0.88701
 O1478 O 0.38191 0.53046 0.86051
 C1479 C 0.40192 0.53781 0.86826
 C1480 C 0.41413 0.55782 0.85590
 C1481 C 0.40265 0.56948 0.83706
 H1482 H 0.38564 0.56287 0.83070
 O1483 O 0.58135 0.47508 0.87675
 O1484 O 0.60859 0.47425 0.84843
 C1485 C 0.58885 0.46711 0.85700
 C1486 C 0.57462 0.44901 0.84424
 C1487 C 0.58012 0.44264 0.82078
 H1488 H 0.59458 0.45152 0.81149
 O1489 O 0.51572 0.38218 0.90998
 O1490 O 0.51353 0.35501 0.88176
 C1491 C 0.52249 0.36247 0.90108
 C1492 C 0.54124 0.34836 0.91317
 C1493 C 0.54656 0.32502 0.90583
 H1494 H 0.53654 0.31703 0.89144
 O1495 O 0.48111 0.62095 0.91554
 O1496 O 0.48193 0.64992 0.88888
 C1497 C 0.47420 0.64138 0.90834
 C1498 C 0.45648 0.65497 0.92241
 C1499 C 0.45066 0.67864 0.91639
 H1500 H 0.45984 0.68749 0.90187
 O1501 O 0.38691 0.59240 0.98192
 O1502 O 0.36098 0.62207 0.98370
 C1503 C 0.36783 0.60239 0.97477
 C1504 C 0.35419 0.59177 0.95496
 C1505 C 0.33609 0.60507 0.94389
 H1506 H 0.33095 0.62229 0.95106
 O1507 O 0.61382 0.40815 0.97118
 O1508 O 0.64083 0.37944 0.96939
 C1509 C 0.63295 0.39958 0.96248
 C1510 C 0.64583 0.41311 0.94389
 C1511 C 0.66972 0.40774 0.93811
 H1512 H 0.67912 0.39383 0.94776
 O1513 O 0.47692 0.58858 0.88299
 O1514 O 0.47685 0.61740 0.85619
 C1515 C 0.46788 0.59828 0.86468
 C1516 C 0.44615 0.58761 0.85394
 C1517 C 0.43419 0.59907 0.83503
 H1518 H 0.44129 0.61541 0.82745
 O1519 O 0.51635 0.41529 0.87756
 O1520 O 0.51399 0.38829 0.84920
 C1521 C 0.52332 0.40706 0.85770
 C1522 C 0.54273 0.41929 0.84467
 C1523 C 0.54878 0.41271 0.82134
 H1524 H 0.53891 0.39874 0.81239
 O1525 O 0.61394 0.47240 0.90933
 O1526 O 0.64144 0.47145 0.88124
 C1527 C 0.63299 0.46364 0.90072
 C1528 C 0.64557 0.44435 0.91358
 C1529 C 0.66931 0.43880 0.90799
 H1530 H 0.67824 0.44856 0.89390
 O1531 O 0.37904 0.53004 0.92020
 O1532 O 0.35022 0.53206 0.89359
 C1533 C 0.36007 0.53977 0.91235
 C1534 C 0.35026 0.56117 0.92436
 C1535 C 0.33226 0.57490 0.91339
 H1536 H 0.32466 0.56912 0.89668
 O1537 O 0.42127 0.62342 0.98075
 O1538 O 0.39535 0.65310 0.98271
 C1539 C 0.41377 0.64363 0.97350
 C1540 C 0.42647 0.65596 0.95393
 C1541 C 0.42043 0.67948 0.94728
 H1542 H 0.40655 0.68906 0.95673
 O1543 O 0.57960 0.37662 0.97093
 O1544 O 0.60638 0.34774 0.96894
 C1545 C 0.58699 0.35717 0.96190
 C1546 C 0.57301 0.34577 0.94276
 C1547 C 0.57838 0.32251 0.93494
 H1548 H 0.59264 0.31243 0.94331
 O1549 O 0.58350 0.52156 0.87829
 O1550 O 0.61114 0.52078 0.85036
 C1551 C 0.59231 0.52984 0.85919
 C1552 C 0.58115 0.55079 0.84761
 C1553 C 0.59283 0.56228 0.82877
 H1554 H 0.60948 0.55513 0.82193
 O1555 O 0.40834 0.48223 0.88605
 O1556 O 0.37915 0.48392 0.85984
 C1557 C 0.39858 0.47475 0.86713
 C1558 C 0.40937 0.45461 0.85391
 C1559 C 0.39724 0.44470 0.83453
 H1560 H 0.38055 0.45251 0.82857
 O1561 O 0.52740 0.61663 0.91368
 O1562 O 0.52842 0.64525 0.88666
 C1563 C 0.53692 0.63543 0.90526
 C1564 C 0.55857 0.64530 0.91682
 C1565 C 0.57128 0.66429 0.90625
 H1566 H 0.56494 0.67224 0.88985
 O1567 O 0.46928 0.38475 0.91169
 O1568 O 0.46723 0.35775 0.88329
 C1569 C 0.45980 0.36617 0.90289
 C1570 C 0.43889 0.35499 0.91450
 C1571 C 0.42600 0.33766 0.90214
 H1572 H 0.43274 0.33110 0.88532
 O1573 O 0.62377 0.57783 0.97521
 O1574 O 0.65329 0.60390 0.97515
 C1575 C 0.64357 0.58521 0.96689
 C1576 C 0.65490 0.57215 0.94701
 C1577 C 0.67846 0.57717 0.93984
 H1578 H 0.68890 0.59022 0.94947
 O1579 O 0.37725 0.41810 0.98039
 O1580 O 0.34809 0.39167 0.98154
 C1581 C 0.35682 0.41109 0.97357
 C1582 C 0.34361 0.42533 0.95555
 C1583 C 0.32010 0.41943 0.94917
 H1584 H 0.31095 0.40495 0.95821
 Cu1585 Cu 0.49318 0.40283 0.89756
 Cu1586 Cu 0.49042 0.37025 0.86360
 Cu1587 Cu 0.50210 0.60021 0.90056
 Cu1588 Cu 0.50270 0.63470 0.86831
 Cu1589 Cu 0.39656 0.50575 0.90603
 Cu1590 Cu 0.36182 0.50801 0.87426
 Cu1591 Cu 0.59615 0.49699 0.89633
 Cu1592 Cu 0.62917 0.49585 0.86256
 C1593 C 0.43072 0.44393 0.86166
 H1594 H 0.43983 0.45113 0.87701
 C1595 C 0.40594 0.42419 0.82320
 C1596 C 0.56009 0.56084 0.85676
 H1597 H 0.55138 0.55242 0.87179
 C1598 C 0.58397 0.58371 0.81936
 C1599 C 0.35504 0.44431 0.94371
 H1600 H 0.37321 0.44891 0.94845
 C1601 C 0.30838 0.43181 0.93080
 C1602 C 0.64171 0.55491 0.93459
 H1603 H 0.62348 0.55114 0.93984
 C1604 C 0.68878 0.56498 0.92055
 C1605 C 0.42997 0.36337 0.93622
 H1606 H 0.43972 0.37708 0.94567
 C1607 C 0.40371 0.32974 0.91020
 C1608 C 0.56780 0.63441 0.93752
 H1609 H 0.55861 0.61932 0.94541
 C1610 C 0.59293 0.67215 0.91609
 C1611 C 0.43600 0.56688 0.86413
 H1612 H 0.44470 0.55823 0.87904
 C1613 C 0.41221 0.59025 0.82686
 C1614 C 0.55570 0.43748 0.85589
 H1615 H 0.55141 0.44230 0.87402
 C1616 C 0.56723 0.42457 0.80923
 C1617 C 0.55434 0.35846 0.93183
 H1618 H 0.55036 0.37653 0.93750
 C1619 C 0.56500 0.31194 0.91669
 C1620 C 0.44454 0.64392 0.94141
 H1621 H 0.44893 0.62563 0.94610
 C1622 C 0.43271 0.69095 0.92874
 C1623 C 0.36097 0.56969 0.94525
 H1624 H 0.37535 0.55961 0.95340
 C1625 C 0.32547 0.59712 0.92280
 C1626 C 0.63404 0.43160 0.93169
 H1627 H 0.61562 0.43577 0.93597
 C1628 C 0.68173 0.42087 0.92042
 O1629 O 0.52322 0.40877 1.11843
 O1630 O 0.52211 0.38063 1.14595
 C1631 C 0.53069 0.40009 1.13794
 C1632 C 0.54994 0.41267 1.15091
 C1633 C 0.55588 0.40664 1.17447
 H1634 H 0.54586 0.39293 1.18375
 O1635 O 0.48623 0.58246 1.12083
 O1636 O 0.48795 0.61024 1.14848
 C1637 C 0.47848 0.59146 1.14001
 C1638 C 0.45742 0.58077 1.15186
 C1639 C 0.44547 0.59346 1.16978
 H1640 H 0.45234 0.61052 1.17577
 O1641 O 0.38723 0.52615 1.08956
 O1642 O 0.36019 0.52717 1.11804
 C1643 C 0.36893 0.53570 1.09902
 C1644 C 0.35864 0.55782 1.08865
 C1645 C 0.34210 0.57146 1.10178
 H1646 H 0.33588 0.56518 1.11893
 O1647 O 0.61903 0.46589 1.08434
 O1648 O 0.64767 0.46279 1.11103
 C1649 C 0.63770 0.45558 1.09209
 C1650 C 0.64752 0.43462 1.07929
 C1651 C 0.66587 0.42081 1.08953
 H1652 H 0.67306 0.42573 1.10668
 O1653 O 0.58093 0.37536 1.01752
 O1654 O 0.60780 0.34654 1.01545
 C1655 C 0.58948 0.35574 1.02516
 C1656 C 0.57956 0.34461 1.04691
 C1657 C 0.59308 0.32727 1.05888
 H1658 H 0.60916 0.32031 1.05070
 O1659 O 0.42353 0.62234 1.02707
 O1660 O 0.39755 0.65198 1.02884
 C1661 C 0.41669 0.64208 1.03592
 C1662 C 0.43076 0.65319 1.05517
 C1663 C 0.42460 0.67588 1.06400
 H1664 H 0.41003 0.68583 1.05602
 O1665 O 0.41745 0.47584 1.11970
 O1666 O 0.38995 0.47667 1.14777
 C1667 C 0.40838 0.46719 1.13856
 C1668 C 0.41838 0.44502 1.14911
 C1669 C 0.40532 0.43252 1.16643
 H1670 H 0.38862 0.43977 1.17300
 O1671 O 0.59287 0.51551 1.11832
 O1672 O 0.62236 0.51371 1.14421
 C1673 C 0.60335 0.52353 1.13666
 C1674 C 0.59371 0.54513 1.14850
 C1675 C 0.60764 0.55814 1.16486
 H1676 H 0.62534 0.55193 1.16966
 O1677 O 0.47692 0.37803 1.08401
 O1678 O 0.47685 0.34869 1.11027
 C1679 C 0.46882 0.35813 1.09129
 C1680 C 0.44951 0.34621 1.07777
 C1681 C 0.44246 0.32280 1.08346
 H1682 H 0.45166 0.31301 1.09736
 O1683 O 0.53372 0.61330 1.08782
 O1684 O 0.53559 0.64123 1.11534
 C1685 C 0.54272 0.63251 1.09576
 C1686 C 0.56167 0.64468 1.08197
 C1687 C 0.56836 0.66832 1.08710
 H1688 H 0.55954 0.67796 1.10129
 O1689 O 0.38022 0.41496 1.02648
 O1690 O 0.35183 0.38772 1.02785
 C1691 C 0.36141 0.40657 1.03599
 C1692 C 0.35098 0.41874 1.05695
 C1693 C 0.33209 0.40825 1.06986
 H1694 H 0.32513 0.39107 1.06446
 O1695 O 0.62378 0.57614 1.02155
 O1696 O 0.65292 0.60263 1.02134
 C1697 C 0.64382 0.58337 1.02924
 C1698 C 0.65653 0.56935 1.04768
 C1699 C 0.67996 0.57528 1.05426
 H1700 H 0.68907 0.58991 1.04545
 O1701 O 0.53311 0.58022 1.12010
 O1702 O 0.53496 0.60807 1.14766
 C1703 C 0.54238 0.58852 1.13892
 C1704 C 0.56321 0.57642 1.14982
 C1705 C 0.57698 0.58872 1.16650
 H1706 H 0.57094 0.60594 1.17295
 O1707 O 0.47669 0.40943 1.11763
 O1708 O 0.47537 0.38028 1.14406
 C1709 C 0.46765 0.40017 1.13619
 C1710 C 0.44729 0.41217 1.14804
 C1711 C 0.43409 0.40012 1.16566
 H1712 H 0.43942 0.38239 1.17142
 O1713 O 0.62279 0.51235 1.08360
 O1714 O 0.65230 0.50947 1.10937
 C1715 C 0.64338 0.51858 1.09063
 C1716 C 0.65657 0.53726 1.07730
 C1717 C 0.68012 0.54324 1.08341
 H1718 H 0.68913 0.53354 1.09748
 O1719 O 0.38463 0.47914 1.08768
 O1720 O 0.35734 0.48042 1.11591
 C1721 C 0.36510 0.47176 1.09654
 C1722 C 0.35216 0.45157 1.08547
 C1723 C 0.33259 0.44148 1.09730
 H1724 H 0.32534 0.45053 1.11267
 O1725 O 0.59347 0.61140 1.02250
 O1726 O 0.62241 0.63811 1.02188
 C1727 C 0.60277 0.63055 1.03030
 C1728 C 0.59072 0.64384 1.04958
 C1729 C 0.59691 0.66759 1.05464
 H1730 H 0.61040 0.67654 1.04407
 O1731 O 0.41241 0.38184 1.02230
 O1732 O 0.38415 0.35442 1.02254
 C1733 C 0.40431 0.36199 1.02974
 C1734 C 0.41818 0.34800 1.04745
 C1735 C 0.41167 0.32444 1.05319
 H1736 H 0.39686 0.31608 1.04405
 O1737 O 0.58776 0.46910 1.11812
 O1738 O 0.61627 0.46715 1.14506
 C1739 C 0.59594 0.46062 1.13740
 C1740 C 0.58180 0.44255 1.15058
 C1741 C 0.58736 0.43649 1.17411
 H1742 H 0.60195 0.44550 1.18297
 O1743 O 0.42069 0.52273 1.12113
 O1744 O 0.39340 0.52339 1.14939
 C1745 C 0.41291 0.53096 1.14068
 C1746 C 0.42564 0.55081 1.15253
 C1747 C 0.41429 0.56354 1.17085
 H1748 H 0.39704 0.55777 1.17747
 O1749 O 0.48743 0.61588 1.08883
 O1750 O 0.48958 0.64355 1.11658
 C1751 C 0.48072 0.63583 1.09734
 C1752 C 0.46210 0.65004 1.08513
 C1753 C 0.45586 0.67281 1.09355
 H1754 H 0.46513 0.68020 1.10872
 O1755 O 0.52351 0.37726 1.08484
 O1756 O 0.52375 0.34896 1.11222
 C1757 C 0.53200 0.35787 1.09312
 C1758 C 0.55225 0.34617 1.08079
 C1759 C 0.56651 0.32922 1.09276
 H1760 H 0.56231 0.32422 1.11090
 O1761 O 0.61426 0.40668 1.01755
 O1762 O 0.64099 0.37772 1.01558
 C1763 C 0.63325 0.39680 1.02510
 C1764 C 0.64568 0.40652 1.04615
 C1765 C 0.66429 0.39333 1.05647
 H1766 H 0.67076 0.37733 1.04777
 O1767 O 0.38964 0.59108 1.02824
 O1768 O 0.36369 0.62074 1.03013
 C1769 C 0.37149 0.60077 1.03773
 C1770 C 0.36010 0.58955 1.05869
 C1771 C 0.34368 0.60279 1.07209
 H1772 H 0.33830 0.62046 1.06617
 Cu1773 Cu 0.50019 0.39624 1.09857
 Cu1774 Cu 0.49943 0.36171 1.13080
 Cu1775 Cu 0.50992 0.59509 1.10169
 Cu1776 Cu 0.51222 0.62836 1.13501
 Cu1777 Cu 0.39733 0.40234 1.00128
 Cu1778 Cu 0.36289 0.37006 1.00219
 Cu1779 Cu 0.59439 0.39458 0.99418
 Cu1780 Cu 0.62664 0.35991 0.99194
 Cu1781 Cu 0.40797 0.60435 1.00424
 Cu1782 Cu 0.37665 0.63984 1.00651
 Cu1783 Cu 0.60516 0.59135 0.99899
 Cu1784 Cu 0.64019 0.62308 0.99854
 Cu1785 Cu 0.40524 0.50093 1.10167
 Cu1786 Cu 0.37249 0.50199 1.13558
 Cu1787 Cu 0.60269 0.49094 1.09852
 Cu1788 Cu 0.63759 0.48792 1.13005
 C1789 C 0.56289 0.43076 1.13927
 H1790 H 0.55866 0.43524 1.12102
 C1791 C 0.57431 0.41881 1.18632
 C1792 C 0.44742 0.55936 1.14340
 H1793 H 0.45599 0.54995 1.12892
 C1794 C 0.42383 0.58509 1.17907
 C1795 C 0.36744 0.56698 1.06703
 H1796 H 0.38067 0.55696 1.05713
 C1797 C 0.33507 0.59418 1.09382
 C1798 C 0.63748 0.42728 1.05757
 H1799 H 0.62284 0.43736 1.04989
 C1800 C 0.67406 0.39992 1.07839
 C1801 C 0.55899 0.35382 1.05789
 H1802 H 0.54875 0.36762 1.04896
 C1803 C 0.58736 0.32024 1.08212
 C1804 C 0.44967 0.64051 1.06573
 H1805 H 0.45423 0.62283 1.05934
 C1806 C 0.43716 0.68584 1.08313
 C1807 C 0.43942 0.43474 1.14007
 H1808 H 0.44920 0.44394 1.12619
 C1809 C 0.41287 0.41001 1.17450
 C1810 C 0.57151 0.55445 1.14118
 H1811 H 0.56111 0.54510 1.12792
 C1812 C 0.59954 0.58030 1.17340
 C1813 C 0.43737 0.35859 1.05960
 H1814 H 0.44237 0.37683 1.05544
 C1815 C 0.42375 0.31174 1.07110
 C1816 C 0.57292 0.63265 1.06317
 H1817 H 0.56804 0.61433 1.05931
 C1818 C 0.58567 0.68000 1.07323
 C1819 C 0.36101 0.44029 1.06506
 H1820 H 0.37623 0.44794 1.05591
 C1821 C 0.32305 0.41933 1.09041
 C1822 C 0.64506 0.55023 1.05918
 H1823 H 0.62683 0.54586 1.05448
 C1824 C 0.69192 0.56221 1.07195
 C1825 C 1.10971 1.10592 1.27835
 C1826 C 1.10835 1.08163 1.28168
 C1827 C 1.11472 1.07060 1.30284
 C1828 C 1.12321 1.08510 1.32125
 C1829 C 1.12553 1.11040 1.31836
 C1830 C 1.11805 1.12077 1.29642
 O1831 O 1.10351 1.11273 1.25658
 C1832 C 1.09813 1.09226 1.24597
 C1833 C 1.10085 1.07268 1.26057
 C1834 C 1.09713 1.04939 1.25284
 C1835 C 1.09042 1.04614 1.22906
 C1836 C 1.08748 1.06603 1.21359
 C1837 C 1.09123 1.08946 1.22231
 H1838 H 1.11331 1.05142 1.30509
 H1839 H 1.12743 1.07637 1.33789
 H1840 H 1.11998 1.13965 1.29267
 H1841 H 1.09958 1.03425 1.26462
 H1842 H 1.08744 1.02814 1.22269
 H1843 H 1.08947 1.10494 1.21084
 C1844 C 1.13643 0.63279 0.75318
 C1845 C 1.15492 0.62567 0.73873
 C1846 C 1.17867 0.63084 0.74352
 C1847 C 1.18364 0.64380 0.76416
 C1848 C 1.16499 0.65129 0.77957
 C1849 C 1.14097 0.64584 0.77383
 O1850 O 1.11518 0.62573 0.74538
 C1851 C 1.12045 0.61391 0.72560
 C1852 C 1.14453 0.61341 0.72080
 C1853 C 1.15412 0.60193 0.70115
 C1854 C 1.13826 0.59038 0.68580
 C1855 C 1.11329 0.59035 0.69034
 C1856 C 1.10427 0.60251 0.71052
 H1857 H 1.19288 0.62507 0.73180
 H1858 H 1.20206 0.64821 0.76802
 H1859 H 1.12637 0.65122 0.78526
 H1860 H 1.17315 0.60190 0.69773
 H1861 H 1.14544 0.58166 0.67020
 H1862 H 1.08535 0.60277 0.71450
 C1863 C 0.61459 1.11118 0.77307
 C1864 C 0.61582 1.08687 0.77653
 C1865 C 0.62598 1.07660 0.79669
 C1866 C 0.63507 1.09205 0.81409
 C1867 C 0.63364 1.11721 0.81112
 C1868 C 0.62327 1.12685 0.79023
 O1869 O 0.60488 1.11728 0.75240
 C1870 C 0.59979 1.09634 0.74260
 C1871 C 0.60601 1.07719 0.75671
 C1872 C 0.60248 1.05363 0.74984
 C1873 C 0.59255 1.04963 0.72734
 C1874 C 0.58660 1.06904 0.71205
 C1875 C 0.58996 1.09278 0.72008
 H1876 H 0.62691 1.05739 0.79893
 H1877 H 0.64282 1.08448 0.83005
 H1878 H 0.62218 1.14598 0.78737
 H1879 H 0.60739 1.03884 0.76129
 H1880 H 0.58972 1.03135 0.72173
 H1881 H 0.58592 1.10799 0.70884
 C1882 C 0.65298 0.62763 1.24920
 C1883 C 0.64757 0.64394 1.23172
 C1884 C 0.64970 0.66843 1.23474
 C1885 C 0.65762 0.67660 1.25680
 C1886 C 0.66391 0.66034 1.27531
 C1887 C 0.66205 0.63532 1.27108
 O1888 O 0.64702 0.60535 1.24337
 C1889 C 0.63778 0.60778 1.22171
 C1890 C 0.63813 0.63106 1.21375
 C1891 C 0.62844 0.63819 1.19220
 C1892 C 0.61722 0.62075 1.17850
 C1893 C 0.61532 0.59677 1.18668
 C1894 C 0.62644 0.58999 1.20831
 H1895 H 0.64483 0.68088 1.22080
 H1896 H 0.65948 0.69572 1.25910
 H1897 H 0.66595 0.62236 1.28487
 H1898 H 0.62890 0.65666 1.18644
 H1899 H 0.60912 0.62611 1.16184
 H1900 H 0.62497 0.57192 1.21511
 C1901 C 0.88447 0.89141 1.27713
 C1902 C 0.90780 0.89769 1.28146
 C1903 C 0.91824 0.89575 1.30375
 C1904 C 0.90422 0.88649 1.32225
 C1905 C 0.88031 0.87903 1.31816
 C1906 C 0.87021 0.88201 1.29526
 O1907 O 0.87823 0.89413 1.25452
 C1908 C 0.89810 0.90218 1.24438
 C1909 C 0.91676 0.90452 1.26009
 C1910 C 0.93956 0.91144 1.25307
 C1911 C 0.94326 0.91622 1.22886
 C1912 C 0.92423 0.91427 1.21240
 C1913 C 0.90129 0.90728 1.22030
 H1914 H 0.93662 0.90087 1.30673
 H1915 H 0.91215 0.88479 1.33971
 H1916 H 0.85220 0.87619 1.29140
 H1917 H 0.95403 0.91283 1.26572
 H1918 H 0.96086 0.92159 1.22291
 H1919 H 0.88658 0.90539 1.20798
 C1920 C 0.88026 0.36863 0.76372
 C1921 C 0.86130 0.37259 0.74865
 C1922 C 0.83778 0.36784 0.75490
 C1923 C 0.83354 0.35894 0.77777
 C1924 C 0.85267 0.35493 0.79378
 C1925 C 0.87645 0.35947 0.78656
 O1926 O 0.90102 0.37566 0.75461
 C1927 C 0.89498 0.38427 0.73340
 C1928 C 0.87087 0.38276 0.72896
 C1929 C 0.86037 0.39169 0.70842
 C1930 C 0.87529 0.40283 0.69179
 C1931 C 0.90021 0.40490 0.69595
 C1932 C 0.91024 0.39515 0.71695
 H1933 H 0.82318 0.37140 0.74280
 H1934 H 0.81530 0.35555 0.78327
 H1935 H 0.89126 0.35693 0.79866
 H1936 H 0.84131 0.39043 0.70546
 H1937 H 0.86744 0.40993 0.67567
 H1938 H 0.92914 0.39672 0.72066
 C1939 C 0.37970 0.89589 0.77534
 C1940 C 0.40278 0.90291 0.77990
 C1941 C 0.41318 0.90092 0.80221
 C1942 C 0.39949 0.89065 0.82043
 C1943 C 0.37593 0.88234 0.81604
 C1944 C 0.36571 0.88562 0.79325
 O1945 O 0.37366 0.89834 0.75264
 C1946 C 0.39340 0.90693 0.74267
 C1947 C 0.41178 0.90991 0.75858
 C1948 C 0.43455 0.91713 0.75174
 C1949 C 0.43852 0.92154 0.72750
 C1950 C 0.41978 0.91894 0.71080
 C1951 C 0.39685 0.91169 0.71853
 H1952 H 0.43141 0.90648 0.80534
 H1953 H 0.40750 0.88844 0.83780
 H1954 H 0.34802 0.87900 0.78920
 H1955 H 0.44884 0.91892 0.76454
 H1956 H 0.45611 0.92709 0.72169
 H1957 H 0.38238 0.90924 0.70602
 C1958 C 0.37221 0.35646 1.25436
 C1959 C 0.35511 0.35872 1.23702
 C1960 C 0.33174 0.35125 1.24012
 C1961 C 0.32548 0.34154 1.26220
 C1962 C 0.34241 0.33970 1.28111
 C1963 C 0.36645 0.34673 1.27654
 O1964 O 0.39315 0.36570 1.24804
 C1965 C 0.38907 0.37402 1.22628
 C1966 C 0.36601 0.37023 1.21877
 C1967 C 0.35736 0.37867 1.19719
 C1968 C 0.37310 0.39164 1.18273
 C1969 C 0.39700 0.39577 1.18999
 C1970 C 0.40519 0.38659 1.21197
 H1971 H 0.31865 0.35307 1.22608
 H1972 H 0.30735 0.33521 1.26424
 H1973 H 0.38000 0.34641 1.29021
 H1974 H 0.33903 0.37574 1.19184
 H1975 H 0.36673 0.39854 1.16588
 H1976 H 0.42326 0.38980 1.21801
 C1977 C 0.88475 1.10717 0.72488
 C1978 C 0.90884 1.11160 0.72365
 C1979 C 0.91920 1.12454 0.70525
 C1980 C 0.90412 1.13332 0.68735
 C1981 C 0.87916 1.12843 0.68764
 C1982 C 0.86954 1.11481 0.70676
 O1983 O 0.87825 1.09645 0.74497
 C1984 C 0.89876 1.09388 0.75657
 C1985 C 0.91802 1.10254 0.74407
 C1986 C 0.94114 1.10199 0.75287
 C1987 C 0.94451 1.09269 0.77575
 C1988 C 0.92480 1.08494 0.78979
 C1989 C 0.90160 1.08504 0.77966
 H1990 H 0.93818 1.12820 0.70494
 H1991 H 0.91213 1.14328 0.67287
 H1992 H 0.85056 1.11148 0.70833
 H1993 H 0.95605 1.10866 0.74257
 H1994 H 0.96254 1.09196 0.78262
 H1995 H 0.88608 1.07956 0.78975
 C1996 C 0.88018 0.63033 0.23473
 C1997 C 0.86123 0.62211 0.24791
 C1998 C 0.83837 0.61962 0.23874
 C1999 C 0.83478 0.62601 0.21497
 C2000 C 0.85371 0.63570 0.20108
 C2001 C 0.87674 0.63814 0.21138
 O2002 O 0.90093 0.62859 0.24610
 C2003 C 0.89482 0.61928 0.26699
 C2004 C 0.87063 0.61555 0.26906
 C2005 C 0.86013 0.60572 0.28910
 C2006 C 0.87524 0.59853 0.30751
 C2007 C 0.90051 0.60017 0.30520
 C2008 C 0.91039 0.61160 0.28494
 H2009 H 0.82392 0.61245 0.24936
 H2010 H 0.81696 0.62430 0.20772
 H2011 H 0.89179 0.64466 0.20115
 H2012 H 0.84099 0.60330 0.29038
 H2013 H 0.86721 0.59082 0.32326
 H2014 H 0.92952 0.61310 0.28256
 C2015 C 0.38119 1.13567 0.23874
 C2016 C 0.36371 1.13859 0.25568
 C2017 C 0.34118 1.14762 0.25052
 C2018 C 0.33631 1.15361 0.22684
 C2019 C 0.35382 1.15037 0.20886
 C2020 C 0.37676 1.14166 0.21502
 O2021 O 0.40094 1.12562 0.24727
 C2022 C 0.39574 1.12204 0.27004
 C2023 C 0.37314 1.12967 0.27602
 C2024 C 0.36336 1.12637 0.29849
 C2025 C 0.37735 1.11451 0.31545
 C2026 C 0.40066 1.10638 0.30974
 C2027 C 0.41014 1.11050 0.28680
 H2028 H 0.32768 1.14957 0.26415
 H2029 H 0.31878 1.16052 0.22243
 H2030 H 0.39032 1.13866 0.20163
 H2031 H 0.34540 1.13222 0.30264
 H2032 H 0.37000 1.11136 0.33299
 H2033 H 0.42773 1.10406 0.28196
 C2034 C 0.37654 0.63028 0.73757
 C2035 C 0.35812 0.62971 0.75375
 C2036 C 0.33457 0.63477 0.74772
 C2037 C 0.32978 0.64077 0.72401
 C2038 C 0.34846 0.64172 0.70707
 C2039 C 0.37221 0.63654 0.71390
 O2040 O 0.39737 0.62358 0.74680
 C2041 C 0.39194 0.61871 0.76929
 C2042 C 0.36816 0.62233 0.77441
 C2043 C 0.35828 0.61750 0.79652
 C2044 C 0.37338 0.60799 0.81397
 C2045 C 0.39782 0.60334 0.80902
 C2046 C 0.40738 0.60932 0.78650
 H2047 H 0.32035 0.63387 0.76074
 H2048 H 0.31159 0.64477 0.71879
 H2049 H 0.38667 0.63699 0.70112
 H2050 H 0.33949 0.62042 0.80005
 H2051 H 0.36591 0.60364 0.83120
 H2052 H 0.42586 0.60561 0.78217
 C2053 C 1.12468 0.88117 0.73143
 C2054 C 1.12485 0.86294 0.74788
 C2055 C 1.13375 0.84029 0.74298
 C2056 C 1.14261 0.83615 0.72007
 C2057 C 1.14220 0.85445 0.70249
 C2058 C 1.13332 0.87741 0.70847
 O2059 O 1.11497 0.90120 0.73964
 C2060 C 1.10881 0.89543 0.76171
 C2061 C 1.11440 0.87217 0.76757
 C2062 C 1.10870 0.86201 0.78940
 C2063 C 1.09663 0.87638 0.80587
 C2064 C 1.09074 0.90044 0.80032
 C2065 C 1.09713 0.91019 0.77800
 H2066 H 1.13373 0.82626 0.75627
 H2067 H 1.14979 0.81863 0.71605
 H2068 H 1.13248 0.89169 0.69546
 H2069 H 1.11312 0.84360 0.79350
 H2070 H 1.09189 0.86885 0.82298
 H2071 H 1.09261 0.92844 0.77332
 C2072 C 1.10076 0.37160 0.22453
 C2073 C 1.09891 0.39563 0.21958
 C2074 C 1.10958 0.40621 0.19998
 C2075 C 1.12331 0.39161 0.18515
 C2076 C 1.12597 0.36668 0.18979
 C2077 C 1.11358 0.35643 0.20938
 O2078 O 1.09169 0.36581 0.24562
 C2079 C 1.08402 0.38664 0.25408
 C2080 C 1.08787 0.40537 0.23868
 C2081 C 1.08315 0.42903 0.24454
 C2082 C 1.07454 0.43369 0.26741
 C2083 C 1.07106 0.41485 0.28400
 C2084 C 1.07533 0.39088 0.27700
 H2085 H 1.10823 0.42525 0.19675
 H2086 H 1.13195 0.39987 0.16998
 H2087 H 1.11577 0.33777 0.21409
 H2088 H 1.08671 0.44347 0.23220
 H2089 H 1.07120 0.45206 0.27247
 H2090 H 1.07342 0.37623 0.28947
 C2091 C 0.62099 0.88457 0.22788
 C2092 C 0.61883 0.86500 0.24258
 C2093 C 0.62440 0.84191 0.23534
 C2094 C 0.63232 0.83879 0.21190
 C2095 C 0.63451 0.85861 0.19622
 C2096 C 0.62901 0.88189 0.20451
 O2097 O 0.61378 0.90479 0.23799
 C2098 C 0.60688 0.89781 0.25952
 C2099 C 0.60964 0.87362 0.26317
 C2100 C 0.60267 0.86226 0.28403
 C2101 C 0.59219 0.87633 0.30178
 C2102 C 0.58885 0.90130 0.29844
 C2103 C 0.59666 0.91224 0.27709
 H2104 H 0.62240 0.82678 0.24720
 H2105 H 0.63664 0.82092 0.20591
 H2106 H 0.63010 0.89730 0.19287
 H2107 H 0.60490 0.84317 0.28643
 H2108 H 0.58654 0.86777 0.31812
 H2109 H 0.59409 0.93119 0.27397
 C2110 C 0.60228 0.37504 0.72483
 C2111 C 0.59683 0.39824 0.71858
 C2112 C 0.60304 0.40811 0.69676
 C2113 C 0.61590 0.39369 0.68093
 C2114 C 0.62231 0.36992 0.68714
 C2115 C 0.61488 0.36026 0.70919
 O2116 O 0.59638 0.36982 0.74711
 C2117 C 0.58717 0.39017 0.75511
 C2118 C 0.58709 0.40813 0.73834
 C2119 C 0.58015 0.43145 0.74343
 C2120 C 0.57316 0.43654 0.76681
 C2121 C 0.57307 0.41837 0.78442
 C2122 C 0.57986 0.39476 0.77840
 H2123 H 0.59891 0.42652 0.69242
 H2124 H 0.62167 0.40127 0.66415
 H2125 H 0.62016 0.34243 0.71462
 H2126 H 0.58073 0.44538 0.73005
 H2127 H 0.56808 0.45466 0.77132
 H2128 H 0.58050 0.38074 0.79170
 C2129 C 1.26489 1.11708 1.13108
 C2130 C 1.24855 1.13523 1.12803
 C2131 C 1.25375 1.15909 1.13257
 C2132 C 1.27680 1.16449 1.14057
 C2133 C 1.29389 1.14610 1.14403
 C2134 C 1.28784 1.12203 1.13943
 O2135 O 1.25672 1.09588 1.12428
 C2136 C 1.23475 1.10078 1.11679
 C2137 C 1.22890 1.12461 1.11887
 C2138 C 1.20725 1.13398 1.11123
 C2139 C 1.19113 1.11827 1.10052
 C2140 C 1.19694 1.09373 1.09744
 C2141 C 1.21887 1.08474 1.10621
 H2142 H 1.24068 1.17307 1.12966
 H2143 H 1.28145 1.18294 1.14405
 H2144 H 1.30079 1.10780 1.14165
 H2145 H 1.20312 1.15281 1.11299
 H2146 H 1.17426 1.12530 1.09414
 H2147 H 1.22385 1.06619 1.10383
 C2148 C 1.27296 0.61580 0.60696
 C2149 C 1.27792 0.59176 0.60835
 C2150 C 1.29738 0.58271 0.62072
 C2151 C 1.31211 0.59903 0.63255
 C2152 C 1.30747 0.62411 0.63172
 C2153 C 1.28781 0.63248 0.61799
 O2154 O 1.25236 0.62046 0.59617
 C2155 C 1.24421 0.59889 0.59062
 C2156 C 1.25930 0.58075 0.59753
 C2157 C 1.25372 0.55672 0.59471
 C2158 C 1.23151 0.55113 0.58468
 C2159 C 1.21521 0.56946 0.57801
 C2160 C 1.22196 0.59374 0.58065
 H2161 H 1.30074 0.56367 0.62179
 H2162 H 1.32732 0.59196 0.64214
 H2163 H 1.28290 0.65120 0.61746
 H2164 H 1.26583 0.54276 0.60047
 H2165 H 1.22684 0.53249 0.58250
 H2166 H 1.20979 0.60815 0.57626
 C2167 C 0.77397 1.11182 0.61257
 C2168 C 0.77772 1.08756 0.61244
 C2169 C 0.79800 1.07699 0.62195
 C2170 C 0.81522 1.09201 0.63201
 C2171 C 0.81214 1.11737 0.63243
 C2172 C 0.79098 1.12721 0.62224
 O2173 O 0.75294 1.11810 0.60352
 C2174 C 0.74329 1.09730 0.59748
 C2175 C 0.75783 1.07809 0.60249
 C2176 C 0.75111 1.05459 0.59825
 C2177 C 0.72829 1.05068 0.58886
 C2178 C 0.71261 1.07010 0.58406
 C2179 C 0.72046 1.09382 0.58808
 H2180 H 0.80051 1.05780 0.62163
 H2181 H 0.83137 1.08365 0.63856
 H2182 H 0.78712 1.14616 0.62271
 H2183 H 0.76288 1.03978 0.60237
 H2184 H 0.72269 1.03246 0.58561
 H2185 H 0.70882 1.10898 0.58493
 C2186 C 0.77564 0.61481 1.10513
 C2187 C 0.78195 0.59114 1.10272
 C2188 C 0.80375 0.58211 1.11047
 C2189 C 0.81945 0.59801 1.12163
 C2190 C 0.81315 0.62238 1.12483
 C2191 C 0.79113 0.63101 1.11595
 O2192 O 0.75347 0.61934 1.09806
 C2193 C 0.74561 0.59808 1.09116
 C2194 C 0.76234 0.58022 1.09368
 C2195 C 0.75737 0.55632 1.08904
 C2196 C 0.73417 0.55059 1.08157
 C2197 C 0.71657 0.56868 1.07886
 C2198 C 0.72252 0.59281 1.08352
 H2199 H 0.80818 0.56336 1.10869
 H2200 H 0.83623 0.59123 1.12848
 H2201 H 0.78563 0.64936 1.11874
 H2202 H 0.77074 0.54253 1.09151
 H2203 H 0.72986 0.53208 1.07798
 H2204 H 0.70931 0.60691 1.08213
 C2205 C 1.26792 0.88301 0.86892
 C2206 C 1.25486 0.86278 0.87362
 C2207 C 1.26445 0.83993 0.87231
 C2208 C 1.28861 0.83777 0.86617
 C2209 C 1.30280 0.85829 0.86097
 C2210 C 1.29185 0.88128 0.86189
 O2211 O 1.25589 0.90307 0.87333
 C2212 C 1.23477 0.89524 0.88088
 C2213 C 1.23322 0.87070 0.88111
 C2214 C 1.21319 0.85853 0.88916
 C2215 C 1.19411 0.87216 0.89785
 C2216 C 1.19546 0.89753 0.89887
 C2217 C 1.21596 0.90924 0.88966
 H2218 H 1.25385 0.82429 0.87643
 H2219 H 1.29604 0.81992 0.86499
 H2220 H 1.30199 0.89748 0.85893
 H2221 H 1.21242 0.83919 0.88913
 H2222 H 1.17839 0.86286 0.90422
 H2223 H 1.21769 0.92850 0.89040
 C2224 C 1.25104 0.35000 0.37047
 C2225 C 1.23392 0.35109 0.35303
 C2226 C 1.23803 0.34374 0.32991
 C2227 C 1.26097 0.33559 0.32424
 C2228 C 1.27958 0.33500 0.34155
 C2229 C 1.27400 0.34154 0.36535
 O2230 O 1.24382 0.35950 0.39088
 C2231 C 1.22172 0.36679 0.38610
 C2232 C 1.21487 0.36202 0.36315
 C2233 C 1.19319 0.36953 0.35372
 C2234 C 1.17793 0.38265 0.36851
 C2235 C 1.18454 0.38793 0.39223
 C2236 C 1.20663 0.37958 0.40128
 H2237 H 1.22422 0.34480 0.31651
 H2238 H 1.26407 0.32968 0.30621
 H2239 H 1.28751 0.34211 0.37907
 H2240 H 1.18840 0.36587 0.33547
 H2241 H 1.16100 0.38884 0.36149
 H2242 H 1.21220 0.38371 0.41921
 C2243 C 0.76966 0.87308 0.38620
 C2244 C 0.75558 0.87345 0.36620
 C2245 C 0.76437 0.86837 0.34367
 C2246 C 0.78874 0.86291 0.34161
 C2247 C 0.80380 0.86261 0.36188
 C2248 C 0.79397 0.86745 0.38458
 O2249 O 0.75799 0.87971 0.40569
 C2250 C 0.73610 0.88439 0.39778
 C2251 C 0.73373 0.88081 0.37373
 C2252 C 0.71275 0.88574 0.36147
 C2253 C 0.69350 0.89506 0.37445
 C2254 C 0.69548 0.89925 0.39922
 C2255 C 0.71702 0.89344 0.41112
 H2256 H 0.75297 0.86900 0.32817
 H2257 H 0.79597 0.85909 0.32417
 H2258 H 0.80509 0.86778 0.40029
 H2259 H 0.71140 0.88297 0.34251
 H2260 H 0.67708 0.89928 0.36517
 H2261 H 0.71915 0.89681 0.42993
 C2262 C 0.77008 0.37463 0.88924
 C2263 C 0.77337 0.39896 0.88862
 C2264 C 0.79282 0.40961 0.87757
 C2265 C 0.80942 0.39461 0.86637
 C2266 C 0.80662 0.36927 0.86661
 C2267 C 0.78677 0.35928 0.87891
 O2268 O 0.74919 0.36831 0.89853
 C2269 C 0.73913 0.38912 0.90391
 C2270 C 0.75333 0.40840 0.89840
 C2271 C 0.74587 0.43191 0.90124
 C2272 C 0.72262 0.43574 0.90965
 C2273 C 0.70718 0.41621 0.91462
 C2274 C 0.71584 0.39252 0.91223
 H2275 H 0.79481 0.42885 0.87700
 H2276 H 0.82463 0.40288 0.85779
 H2277 H 0.78321 0.34026 0.87882
 H2278 H 0.75733 0.44678 0.89662
 H2279 H 0.71646 0.45398 0.91176
 H2280 H 0.70441 0.37725 0.91541
 C2281 C 0.72266 0.89661 1.12040
 C2282 C 0.71763 0.90406 1.09763
 C2283 C 0.69537 0.90108 1.08718
 C2284 C 0.67770 0.88946 1.10054
 C2285 C 0.68255 0.88098 1.12384
 C2286 C 0.70524 0.88513 1.13410
 O2287 O 0.74538 0.89986 1.12638
 C2288 C 0.75488 0.90944 1.10693
 C2289 C 0.73864 0.91231 1.08881
 C2290 C 0.74504 0.92039 1.06630
 C2291 C 0.76920 0.92561 1.06225
 C2292 C 0.78631 0.92286 1.08062
 C2293 C 0.77897 0.91494 1.10338
 H2294 H 0.69193 0.90687 1.06914
 H2295 H 0.66039 0.88646 1.09251
 H2296 H 0.70961 0.87837 1.15161
 H2297 H 0.73200 0.92209 1.05222
 H2298 H 0.77468 0.93165 1.04478
 H2299 H 0.79178 0.91223 1.11754
 C2300 C 0.73391 0.37696 0.62169
 C2301 C 0.74509 0.38758 0.64060
 C2302 C 0.73501 0.38884 0.66307
 C2303 C 0.71238 0.37875 0.66627
 C2304 C 0.70048 0.36687 0.64733
 C2305 C 0.71179 0.36574 0.62471
 O2306 O 0.74592 0.37948 0.60142
 C2307 C 0.76518 0.39177 0.60784
 C2308 C 0.76561 0.39675 0.63172
 C2309 C 0.78403 0.40915 0.64248
 C2310 C 0.80264 0.41726 0.62798
 C2311 C 0.80216 0.41383 0.60292
 C2312 C 0.78325 0.40033 0.59284
 H2313 H 0.74409 0.39765 0.67757
 H2314 H 0.70460 0.37945 0.68387
 H2315 H 0.70313 0.35753 0.60961
 H2316 H 0.78415 0.41241 0.66142
 H2317 H 0.81737 0.42635 0.63646
 H2318 H 0.78214 0.39726 0.57391
 C2319 C 0.22493 0.89719 0.62266
 C2320 C 0.21887 0.90160 0.59935
 C2321 C 0.19709 0.89478 0.58969
 C2322 C 0.18117 0.88236 0.60446
 C2323 C 0.18724 0.87708 0.62837
 C2324 C 0.20919 0.88516 0.63776
 O2325 O 0.24727 0.90323 0.62772
 C2326 C 0.25552 0.91149 0.60716
 C2327 C 0.23885 0.91087 0.58924
 C2328 C 0.24427 0.91672 0.56582
 C2329 C 0.26788 0.92330 0.56063
 C2330 C 0.28543 0.92393 0.57878
 C2331 C 0.27902 0.91829 0.60245
 H2332 H 0.19292 0.89802 0.57119
 H2333 H 0.16448 0.87602 0.59709
 H2334 H 0.21456 0.88064 0.65569
 H2335 H 0.23097 0.91563 0.55193
 H2336 H 0.27262 0.92760 0.54246
 H2337 H 0.29221 0.91804 0.61651
 C2338 C 0.23719 0.37008 1.12550
 C2339 C 0.24853 0.38088 1.14424
 C2340 C 0.23848 0.38268 1.16668
 C2341 C 0.21569 0.37301 1.17002
 C2342 C 0.20366 0.36095 1.15128
 C2343 C 0.21496 0.35914 1.12873
 O2344 O 0.24902 0.37245 1.10512
 C2345 C 0.26831 0.38483 1.11128
 C2346 C 0.26897 0.38997 1.13512
 C2347 C 0.28734 0.40271 1.14559
 C2348 C 0.30558 0.41109 1.13080
 C2349 C 0.30475 0.40758 1.10577
 C2350 C 0.28602 0.39363 1.09601
 H2351 H 0.24763 0.39170 1.18100
 H2352 H 0.20782 0.37422 1.18755
 H2353 H 0.20614 0.35076 1.11381
 H2354 H 0.28761 0.40613 1.16450
 H2355 H 0.32024 0.42059 1.13898
 H2356 H 0.28467 0.39055 1.07709
 C2357 C 0.73090 1.11903 0.87967
 C2358 C 0.74239 1.13924 0.88734
 C2359 C 0.73243 1.16189 0.88559
 C2360 C 0.70956 1.16386 0.87568
 C2361 C 0.69694 1.14333 0.86745
 C2362 C 0.70826 1.12055 0.86931
 O2363 O 0.74319 1.09911 0.88393
 C2364 C 0.76290 1.10701 0.89442
 C2365 C 0.76330 1.13146 0.89679
 C2366 C 0.78202 1.14358 0.90749
 C2367 C 0.80107 1.12993 0.91635
 C2368 C 0.80098 1.10456 0.91471
 C2369 C 0.78163 1.09301 0.90327
 H2370 H 0.74188 1.17755 0.89177
 H2371 H 0.70219 1.18166 0.87378
 H2372 H 0.69937 1.10424 0.86410
 H2373 H 0.78196 1.16287 0.90902
 H2374 H 0.81593 1.13920 0.92443
 H2375 H 0.78087 1.07372 0.90184
 C2376 C 0.74976 0.63431 0.35959
 C2377 C 0.76686 0.65176 0.36213
 C2378 C 0.76412 0.67482 0.35336
 C2379 C 0.74266 0.68033 0.34189
 C2380 C 0.72437 0.66294 0.33947
 C2381 C 0.72817 0.63940 0.34804
 O2382 O 0.75581 0.61380 0.37001
 C2383 C 0.77710 0.61852 0.37936
 C2384 C 0.78456 0.64154 0.37504
 C2385 C 0.80581 0.65072 0.38385
 C2386 C 0.82006 0.63553 0.39769
 C2387 C 0.81294 0.61164 0.40243
 C2388 C 0.79117 0.60296 0.39295
 H2389 H 0.77785 0.68821 0.35566
 H2390 H 0.74005 0.69833 0.33520
 H2391 H 0.71443 0.62589 0.34664
 H2392 H 0.81116 0.66897 0.38029
 H2393 H 0.83681 0.64228 0.40451
 H2394 H 0.78526 0.58485 0.39639
 C2395 C 0.21983 1.11814 0.40479
 C2396 C 0.21698 1.09445 0.41065
 C2397 C 0.19662 1.08158 0.40501
 C2398 C 0.17863 1.09339 0.39229
 C2399 C 0.18104 1.11785 0.38540
 C2400 C 0.20182 1.13053 0.39265
 O2401 O 0.24155 1.12632 0.40980
 C2402 C 0.25258 1.10733 0.41895
 C2403 C 0.23821 1.08742 0.41994
 C2404 C 0.24648 1.06508 0.42704
 C2405 C 0.27068 1.06303 0.43299
 C2406 C 0.28608 1.08311 0.43169
 C2407 C 0.27677 1.10573 0.42506
 H2408 H 0.19493 1.06285 0.40960
 H2409 H 0.16273 1.08334 0.38794
 H2410 H 0.20495 1.14885 0.38723
 H2411 H 0.23490 1.04961 0.42726
 H2412 H 0.27764 1.04566 0.43803
 H2413 H 0.28828 1.12118 0.42336
 C2414 C 0.24631 0.63711 0.86718
 C2415 C 0.26225 0.65512 0.87201
 C2416 C 0.25870 0.67865 0.86486
 C2417 C 0.23775 0.68390 0.85228
 C2418 C 0.22085 0.66572 0.84714
 C2419 C 0.22535 0.64192 0.85460
 O2420 O 0.25303 0.61604 0.87590
 C2421 C 0.27367 0.62091 0.88644
 C2422 C 0.28006 0.64457 0.88453
 C2423 C 0.30081 0.65372 0.89442
 C2424 C 0.31559 0.63785 0.90690
 C2425 C 0.30939 0.61333 0.90939
 C2426 C 0.28816 0.60473 0.89878
 H2427 H 0.27156 0.69248 0.86886
 H2428 H 0.23478 0.70210 0.84636
 H2429 H 0.21273 0.62771 0.85109
 H2430 H 0.30547 0.67241 0.89258
 H2431 H 0.33201 0.64464 0.91444
 H2432 H 0.28294 0.58617 0.90041
 C2433 C 1.12315 1.26076 1.13266
 C2434 C 1.14215 1.24514 1.13225
 C2435 C 1.16492 1.25146 1.13970
 C2436 C 1.16834 1.27493 1.14764
 C2437 C 1.14921 1.29168 1.14777
 C2438 C 1.12617 1.28427 1.14045
 O2439 O 1.10315 1.25127 1.12421
 C2440 C 1.10974 1.22923 1.11827
 C2441 C 1.13346 1.22465 1.12277
 C2442 C 1.14445 1.20313 1.11695
 C2443 C 1.13044 1.18565 1.10590
 C2444 C 1.10591 1.18988 1.10111
 C2445 C 1.09535 1.21191 1.10762
 H2446 H 1.17958 1.23883 1.13922
 H2447 H 1.18597 1.28008 1.15361
 H2448 H 1.11126 1.29662 1.14005
 H2449 H 1.16321 1.20005 1.12046
 H2450 H 1.13864 1.16880 1.10104
 H2451 H 1.07675 1.21565 1.10386
 C2452 C 1.12590 0.76399 0.62298
 C2453 C 1.14603 0.75131 0.61679
 C2454 C 1.16900 0.76026 0.61949
 C2455 C 1.17134 0.78329 0.62891
 C2456 C 1.15089 0.79668 0.63560
 C2457 C 1.12783 0.78681 0.63278
 O2458 O 1.10576 0.75252 0.61804
 C2459 C 1.11338 0.73216 0.60857
 C2460 C 1.13787 0.73053 0.60754
 C2461 C 1.14973 0.71095 0.59805
 C2462 C 1.13578 0.69234 0.58899
 C2463 C 1.11042 0.69372 0.58923
 C2464 C 1.09911 0.71389 0.59949
 H2465 H 1.18454 0.75000 0.61427
 H2466 H 1.18905 0.79073 0.63111
 H2467 H 1.11197 0.79682 0.63752
 H2468 H 1.16904 0.71007 0.59756
 H2469 H 1.14480 0.67683 0.58179
 H2470 H 1.07985 0.71562 0.59982
 C2471 C 0.62089 1.26555 0.62612
 C2472 C 0.64015 1.25026 0.62589
 C2473 C 0.66290 1.25715 0.63283
 C2474 C 0.66601 1.28083 0.64024
 C2475 C 0.64658 1.29722 0.64039
 C2476 C 0.62359 1.28929 0.63338
 O2477 O 0.60090 1.25540 0.61840
 C2478 C 0.60776 1.23327 0.61314
 C2479 C 0.63164 1.22928 0.61739
 C2480 C 0.64288 1.20770 0.61242
 C2481 C 0.62900 1.18950 0.60243
 C2482 C 0.60436 1.19311 0.59775
 C2483 C 0.59350 1.21524 0.60348
 H2484 H 0.67775 1.24474 0.63253
 H2485 H 0.68359 1.28631 0.64606
 H2486 H 0.60842 1.30132 0.63312
 H2487 H 0.66173 1.20508 0.61579
 H2488 H 0.63744 1.17260 0.59819
 H2489 H 0.57479 1.21851 0.59982
 C2490 C 0.61377 0.77089 1.11648
 C2491 C 0.60885 0.77491 1.09287
 C2492 C 0.61173 0.79710 1.08209
 C2493 C 0.62038 0.81586 1.09611
 C2494 C 0.62624 0.81215 1.12042
 C2495 C 0.62250 0.78931 1.13077
 O2496 O 0.61023 0.74833 1.12306
 C2497 C 0.60301 0.73790 1.10315
 C2498 C 0.60197 0.75340 1.08415
 C2499 C 0.59583 0.74611 1.06137
 C2500 C 0.59053 0.72185 1.05803
 C2501 C 0.59126 0.70551 1.07734
 C2502 C 0.59744 0.71373 1.10029
 H2503 H 0.60768 0.79983 1.06349
 H2504 H 0.62266 0.83326 1.08795
 H2505 H 0.62705 0.78573 1.14912
 H2506 H 0.59536 0.75861 1.04666
 H2507 H 0.58570 0.71577 1.04044
 H2508 H 0.59841 0.70157 1.11527
 C2509 C 0.87679 1.26194 0.87027
 C2510 C 0.85789 1.24722 0.87574
 C2511 C 0.83421 1.25377 0.87205
 C2512 C 0.82980 1.27654 0.86253
 C2513 C 0.84894 1.29210 0.85680
 C2514 C 0.87280 1.28455 0.86041
 O2515 O 0.89780 1.25279 0.87651
 C2516 C 0.89201 1.23187 0.88614
 C2517 C 0.86781 1.22762 0.88600
 C2518 C 0.85764 1.20731 0.89600
 C2519 C 0.87301 1.19081 0.90688
 C2520 C 0.89804 1.19492 0.90776
 C2521 C 0.90769 1.21561 0.89684
 H2522 H 0.81965 1.24197 0.87680
 H2523 H 0.81149 1.28220 0.85982
 H2524 H 0.88768 1.29630 0.85658
 H2525 H 0.83853 1.20443 0.89574
 H2526 H 0.86539 1.17487 0.91478
 H2527 H 0.92664 1.21935 0.89745
 C2528 C 0.88606 0.77969 0.39833
 C2529 C 0.90912 0.78532 0.40460
 C2530 C 0.91845 0.80820 0.40225
 C2531 C 0.90365 0.82585 0.39235
 C2532 C 0.88012 0.82032 0.38471
 C2533 C 0.87100 0.79700 0.38840
 O2534 O 0.88109 0.75663 0.40110
 C2535 C 0.90150 0.74754 0.40911
 C2536 C 0.91927 0.76433 0.41140
 C2537 C 0.94251 0.75845 0.41797
 C2538 C 0.94761 0.73428 0.42255
 C2539 C 0.92948 0.71674 0.42075
 C2540 C 0.90607 0.72348 0.41403
 H2541 H 0.93667 0.81219 0.40725
 H2542 H 0.91082 0.84365 0.38984
 H2543 H 0.85334 0.79210 0.38233
 H2544 H 0.95630 0.77193 0.41923
 H2545 H 0.96555 0.72920 0.42771
 H2546 H 0.89204 0.71031 0.41224
 C2547 C 0.36932 1.26656 0.38332
 C2548 C 0.39252 1.27439 0.38526
 C2549 C 0.40051 1.29542 0.37467
 C2550 C 0.38400 1.30878 0.36133
 C2551 C 0.36002 1.30097 0.35883
 C2552 C 0.35257 1.27968 0.37031
 O2553 O 0.36572 1.24541 0.39349
 C2554 C 0.38711 1.23972 0.40199
 C2555 C 0.40413 1.25686 0.39744
 C2556 C 0.42804 1.25390 0.40348
 C2557 C 0.43473 1.23227 0.41433
 C2558 C 0.41758 1.21417 0.41894
 C2559 C 0.39334 1.21818 0.41301
 H2560 H 0.41892 1.30107 0.37619
 H2561 H 0.38993 1.32506 0.35270
 H2562 H 0.33457 1.27294 0.36827
 H2563 H 0.44117 1.26751 0.39945
 H2564 H 0.45333 1.22942 0.41880
 H2565 H 0.37997 1.20448 0.41578
 C2566 C 0.38547 0.77686 0.89216
 C2567 C 0.40848 0.78272 0.89833
 C2568 C 0.41818 0.80519 0.89418
 C2569 C 0.40365 0.82230 0.88302
 C2570 C 0.37995 0.81666 0.87592
 C2571 C 0.37071 0.79358 0.88088
 O2572 O 0.37998 0.75429 0.89718
 C2573 C 0.40000 0.74574 0.90663
 C2574 C 0.41801 0.76241 0.90764
 C2575 C 0.44085 0.75701 0.91575
 C2576 C 0.44538 0.73340 0.92298
 C2577 C 0.42710 0.71592 0.92223
 C2578 C 0.40400 0.72224 0.91417
 H2579 H 0.43634 0.80938 0.89923
 H2580 H 0.41093 0.83995 0.87987
 H2581 H 0.35288 0.78852 0.87547
 H2582 H 0.45481 0.77037 0.91607
 H2583 H 0.46312 0.72863 0.92903
 H2584 H 0.38990 0.70906 0.91304
 C2585 C 1.12406 0.74683 0.84960
 C2586 C 1.13844 0.76672 0.84802
 C2587 C 1.16109 0.76622 0.83792
 C2588 C 1.16951 0.74419 0.82959
 C2589 C 1.15529 0.72332 0.83146
 C2590 C 1.13201 0.72473 0.84113
 O2591 O 1.10394 0.75085 0.86149
 C2592 C 1.10575 0.77369 0.86765
 C2593 C 1.12658 0.78417 0.85985
 C2594 C 1.13310 0.80735 0.86581
 C2595 C 1.11758 0.82027 0.88051
 C2596 C 1.09602 0.80990 0.88878
 C2597 C 1.08983 0.78639 0.88202
 H2598 H 1.17221 0.78202 0.83728
 H2599 H 1.18746 0.74312 0.82245
 H2600 H 1.12116 0.70887 0.84337
 H2601 H 1.14980 0.81502 0.85983
 H2602 H 1.12237 0.83827 0.88567
 H2603 H 1.07364 0.77804 0.88849
 C2604 C 1.11926 0.22149 0.38282
 C2605 C 1.11656 0.23512 0.36261
 C2606 C 1.12255 0.22682 0.34013
 C2607 C 1.13137 0.20339 0.33833
 C2608 C 1.13402 0.18877 0.35884
 C2609 C 1.12817 0.19818 0.38146
 O2610 O 1.11167 0.23246 0.40232
 C2611 C 1.10396 0.25345 0.39424
 C2612 C 1.10654 0.25594 0.37006
 C2613 C 1.09889 0.27612 0.35775
 C2614 C 1.08808 0.29449 0.37088
 C2615 C 1.08509 0.29240 0.39586
 C2616 C 1.09338 0.27158 0.40769
 H2617 H 1.12013 0.23784 0.32447
 H2618 H 1.13589 0.19650 0.32094
 H2619 H 1.12955 0.18734 0.39737
 H2620 H 1.10101 0.27762 0.33870
 H2621 H 1.08218 0.31042 0.36159
 H2622 H 1.09114 0.26934 0.42667
 C2623 C 0.62885 0.74869 0.35077
 C2624 C 0.64440 0.76755 0.35313
 C2625 C 0.66835 0.76618 0.34673
 C2626 C 0.67669 0.74440 0.33766
 C2627 C 0.66108 0.72465 0.33508
 C2628 C 0.63671 0.72693 0.34142
 O2629 O 0.60724 0.75330 0.35947
 C2630 C 0.60925 0.77552 0.36753
 C2631 C 0.63164 0.78502 0.36396
 C2632 C 0.63825 0.80744 0.37217
 C2633 C 0.62122 0.82047 0.38498
 C2634 C 0.59815 0.81094 0.38939
 C2635 C 0.59189 0.78833 0.38010
 H2636 H 0.68030 0.78117 0.34912
 H2637 H 0.69535 0.74280 0.33282
 H2638 H 0.62457 0.71195 0.34001
 H2639 H 0.65606 0.81439 0.36935
 H2640 H 0.62613 0.83780 0.39199
 H2641 H 0.57454 0.78054 0.38360
 C2642 C 0.61270 0.22610 0.88095
 C2643 C 0.58876 0.22118 0.88324
 C2644 C 0.57892 0.19930 0.87696
 C2645 C 0.59441 0.18174 0.86801
 C2646 C 0.61923 0.18636 0.86531
 C2647 C 0.62839 0.20900 0.87192
 O2648 O 0.61842 0.24803 0.88787
 C2649 C 0.59761 0.25715 0.89465
 C2650 C 0.57888 0.24148 0.89211
 C2651 C 0.55544 0.24752 0.89765
 C2652 C 0.55111 0.27075 0.90599
 C2653 C 0.57012 0.28727 0.90877
 C2654 C 0.59374 0.28024 0.90318
 H2655 H 0.56002 0.19581 0.87902
 H2656 H 0.58708 0.16444 0.86353
 H2657 H 0.64712 0.21330 0.86987
 H2658 H 0.54099 0.23491 0.89542
 H2659 H 0.53297 0.27590 0.91033
 H2660 H 0.60854 0.29257 0.90484
 C2661 C 0.87122 0.72955 1.11396
 C2662 C 0.86867 0.74639 1.13154
 C2663 C 0.85982 0.74106 1.15396
 C2664 C 0.85354 0.71729 1.15860
 C2665 C 0.85635 0.69937 1.14099
 C2666 C 0.86498 0.70570 1.11817
 O2667 O 0.88091 0.73835 1.09422
 C2668 C 0.88460 0.76118 1.09956
 C2669 C 0.87742 0.76693 1.12222
 C2670 C 0.88071 0.78943 1.13207
 C2671 C 0.89212 0.80671 1.11807
 C2672 C 0.89978 0.80126 1.09470
 C2673 C 0.89570 0.77828 1.08515
 H2674 H 0.85809 0.75464 1.16750
 H2675 H 0.84657 0.71280 1.17600
 H2676 H 0.86751 0.69238 1.10449
 H2677 H 0.87516 0.79338 1.15005
 H2678 H 0.89527 0.82429 1.12544
 H2679 H 0.90177 0.77367 1.06748
 C2680 C 0.88108 0.22758 0.62157
 C2681 C 0.86120 0.24191 0.61961
 C2682 C 0.83824 0.23380 0.62445
 C2683 C 0.83565 0.20994 0.63174
 C2684 C 0.85586 0.19473 0.63407
 C2685 C 0.87893 0.20380 0.62888
 O2686 O 0.90118 0.23868 0.61555
 C2687 C 0.89381 0.26051 0.60968
 C2688 C 0.86949 0.26337 0.61193
 C2689 C 0.85782 0.28457 0.60628
 C2690 C 0.87171 0.30348 0.59755
 C2691 C 0.89678 0.30092 0.59456
 C2692 C 0.90804 0.27919 0.60113
 H2693 H 0.82287 0.24543 0.62267
 H2694 H 0.81794 0.20340 0.63593
 H2695 H 0.89467 0.19261 0.63023
 H2696 H 0.83867 0.28638 0.60820
 H2697 H 0.86289 0.32009 0.59286
 H2698 H 0.92707 0.27665 0.59881
 C2699 C 0.35929 0.73351 0.61746
 C2700 C 0.35636 0.75116 0.63418
 C2701 C 0.34644 0.74693 0.65642
 C2702 C 0.33969 0.72343 0.66186
 C2703 C 0.34311 0.70470 0.64522
 C2704 C 0.35259 0.70996 0.62247
 O2705 O 0.37027 0.74115 0.59792
 C2706 C 0.37445 0.76406 0.60250
 C2707 C 0.36633 0.77101 0.62451
 C2708 C 0.37019 0.79373 0.63366
 C2709 C 0.38305 0.80995 0.61960
 C2710 C 0.39155 0.80326 0.59685
 C2711 C 0.38695 0.78008 0.58803
 H2712 H 0.34449 0.76109 0.66933
 H2713 H 0.33228 0.71968 0.67925
 H2714 H 0.35582 0.69597 0.60961
 H2715 H 0.36396 0.79864 0.65119
 H2716 H 0.38656 0.82768 0.62643
 H2717 H 0.39363 0.77451 0.57086
 C2718 C 0.38974 0.22735 1.12248
 C2719 C 0.39159 0.22154 1.09882
 C2720 C 0.38344 0.19997 1.08972
 C2721 C 0.37247 0.18397 1.10555
 C2722 C 0.36977 0.18978 1.12994
 C2723 C 0.37904 0.21162 1.13857
 O2724 O 0.39731 0.24931 1.12722
 C2725 C 0.40397 0.25755 1.10610
 C2726 C 0.40079 0.24129 1.08811
 C2727 C 0.40513 0.24676 1.06437
 C2728 C 0.41299 0.26997 1.05896
 C2729 C 0.41643 0.28706 1.07720
 C2730 C 0.41206 0.28062 1.10114
 H2731 H 0.38487 0.19589 1.07099
 H2732 H 0.36552 0.16729 1.09872
 H2733 H 0.37671 0.21683 1.15694
 H2734 H 0.40214 0.23377 1.05048
 H2735 H 0.41632 0.27470 1.04059
 H2736 H 0.41404 0.29346 1.11536
 C2737 C 1.12525 1.11411 0.73129
 C2738 C 1.12476 1.13379 0.74589
 C2739 C 1.13075 1.15662 0.73813
 C2740 C 1.13719 1.15936 0.71423
 C2741 C 1.13763 1.13943 0.69873
 C2742 C 1.13196 1.11638 0.70747
 O2743 O 1.11745 1.09434 0.74190
 C2744 C 1.11190 1.10176 0.76362
 C2745 C 1.11609 1.12574 0.76693
 C2746 C 1.11048 1.13757 0.78787
 C2747 C 1.09991 1.12419 0.80612
 C2748 C 1.09506 1.09946 0.80314
 C2749 C 1.10150 1.08803 0.78165
 H2750 H 1.12990 1.17186 0.74989
 H2751 H 1.14144 1.17706 0.70762
 H2752 H 1.13169 1.10101 0.69583
 H2753 H 1.11379 1.15651 0.78995
 H2754 H 1.09537 1.13310 0.82257
 H2755 H 1.09771 1.06928 0.77876
 C2756 C 1.13480 0.64413 0.24774
 C2757 C 1.15177 0.63619 0.26352
 C2758 C 1.17596 0.64019 0.26059
 C2759 C 1.18321 0.65243 0.24021
 C2760 C 1.16640 0.66063 0.22293
 C2761 C 1.14159 0.65705 0.22736
 O2762 O 1.11284 0.63700 0.25355
 C2763 C 1.11624 0.62434 0.27338
 C2764 C 1.13979 0.62349 0.28015
 C2765 C 1.14783 0.61069 0.29972
 C2766 C 1.13091 0.59800 0.31294
 C2767 C 1.10643 0.59806 0.30635
 C2768 C 1.09892 0.61177 0.28641
 H2769 H 1.18890 0.63375 0.27338
 H2770 H 1.20214 0.65586 0.23825
 H2771 H 1.12815 0.66261 0.21468
 H2772 H 1.16653 0.61032 0.30457
 H2773 H 1.13691 0.58814 0.32841
 H2774 H 1.08039 0.61210 0.28091
 C2775 C 0.63751 1.13313 0.24887
 C2776 C 0.63306 1.15032 0.26571
 C2777 C 0.63845 1.17435 0.26235
 C2778 C 0.64906 1.18095 0.24076
 C2779 C 0.65418 1.16356 0.22319
 C2780 C 0.64832 1.13927 0.22735
 O2781 O 0.63020 1.11147 0.25536
 C2782 C 0.62099 1.11509 0.27682
 C2783 C 0.62248 1.13855 0.28396
 C2784 C 0.61369 1.14656 0.30556
 C2785 C 0.60237 1.12981 0.32022
 C2786 C 0.59977 1.10561 0.31302
 C2787 C 0.60973 1.09803 0.29119
 H2788 H 0.63459 1.18754 0.27585
 H2789 H 0.65372 1.19952 0.23788
 H2790 H 0.65193 1.12568 0.21417
 H2791 H 0.61519 1.16510 0.31080
 H2792 H 0.59522 1.13578 0.33708
 H2793 H 0.60789 1.07975 0.28520
 C2794 C 0.62065 0.62763 0.73246
 C2795 C 0.63816 0.62855 0.74954
 C2796 C 0.66103 0.63698 0.74503
 C2797 C 0.66614 0.64476 0.72190
 C2798 C 0.64851 0.64380 0.70379
 C2799 C 0.62535 0.63521 0.70929
 O2800 O 0.60028 0.61844 0.74039
 C2801 C 0.60508 0.61341 0.76295
 C2802 C 0.62805 0.61925 0.76938
 C2803 C 0.63728 0.61467 0.79183
 C2804 C 0.62229 0.60333 0.80828
 C2805 C 0.59859 0.59701 0.80207
 C2806 C 0.58972 0.60242 0.77919
 H2807 H 0.67449 0.63751 0.75880
 H2808 H 0.68378 0.65173 0.71818
 H2809 H 0.61159 0.63401 0.69586
 H2810 H 0.65548 0.61925 0.79638
 H2811 H 0.62915 0.59923 0.82582
 H2812 H 0.57179 0.59744 0.77400
 C2813 C 0.87556 0.87395 0.73393
 C2814 C 0.85577 0.88000 0.74713
 C2815 C 0.83256 0.87655 0.73919
 C2816 C 0.82956 0.86660 0.71660
 C2817 C 0.84961 0.86020 0.70255
 C2818 C 0.87298 0.86366 0.71146
 O2819 O 0.89598 0.87968 0.74450
 C2820 C 0.88887 0.88952 0.76479
 C2821 C 0.86444 0.89004 0.76722
 C2822 C 0.85302 0.89994 0.78677
 C2823 C 0.86736 0.90991 0.80452
 C2824 C 0.89265 0.91008 0.80239
 C2825 C 0.90354 0.89943 0.78227
 H2826 H 0.81730 0.88165 0.74987
 H2827 H 0.81162 0.86391 0.70996
 H2828 H 0.88855 0.85916 0.70095
 H2829 H 0.83375 0.90007 0.78826
 H2830 H 0.85870 0.91745 0.81999
 H2831 H 0.92274 0.89941 0.78000
 C2832 C 0.86895 0.36735 0.24133
 C2833 C 0.84990 0.37309 0.25557
 C2834 C 0.82648 0.36796 0.24950
 C2835 C 0.82247 0.35658 0.22774
 C2836 C 0.84179 0.35049 0.21227
 C2837 C 0.86547 0.35592 0.21966
 O2838 O 0.88977 0.37433 0.25016
 C2839 C 0.88366 0.38468 0.27046
 C2840 C 0.85945 0.38437 0.27460
 C2841 C 0.84908 0.39459 0.29457
 C2842 C 0.86430 0.40568 0.31090
 C2843 C 0.88937 0.40640 0.30697
 C2844 C 0.89915 0.39555 0.28649
 H2845 H 0.81177 0.37254 0.26113
 H2846 H 0.80423 0.35189 0.22356
 H2847 H 0.88086 0.35258 0.20852
 H2848 H 0.82997 0.39410 0.29744
 H2849 H 0.85659 0.41355 0.32671
 H2850 H 0.91816 0.39596 0.28294
 C2851 C 0.37318 0.87280 0.23896
 C2852 C 0.35386 0.87864 0.25282
 C2853 C 0.33054 0.87371 0.24625
 C2854 C 0.32689 0.86244 0.22437
 C2855 C 0.34645 0.85621 0.20927
 C2856 C 0.37004 0.86141 0.21717
 O2857 O 0.39385 0.87960 0.24831
 C2858 C 0.38736 0.88990 0.26854
 C2859 C 0.36307 0.88973 0.27211
 C2860 C 0.35228 0.89983 0.29192
 C2861 C 0.36715 0.91068 0.30871
 C2862 C 0.39231 0.91136 0.30541
 C2863 C 0.40254 0.90059 0.28506
 H2864 H 0.31563 0.87836 0.25759
 H2865 H 0.30869 0.85789 0.21986
 H2866 H 0.38561 0.85789 0.20634
 H2867 H 0.33310 0.89941 0.29434
 H2868 H 0.35906 0.91839 0.32441
 H2869 H 0.42163 0.90091 0.28198
 C2870 C 0.37331 0.37889 0.73552
 C2871 C 0.35432 0.38036 0.75094
 C2872 C 0.33160 0.37227 0.74531
 C2873 C 0.32828 0.36225 0.72280
 C2874 C 0.34747 0.36071 0.70631
 C2875 C 0.37037 0.36914 0.71292
 O2876 O 0.39342 0.38758 0.74448
 C2877 C 0.38692 0.39473 0.76601
 C2878 C 0.36315 0.39076 0.77077
 C2879 C 0.35241 0.39713 0.79208
 C2880 C 0.36676 0.40817 0.80920
 C2881 C 0.39135 0.41247 0.80478
 C2882 C 0.40161 0.40547 0.78290
 H2883 H 0.31700 0.37348 0.75786
 H2884 H 0.31078 0.35537 0.71837
 H2885 H 0.38537 0.36839 0.70080
 H2886 H 0.33366 0.39381 0.79538
 H2887 H 0.35880 0.41319 0.82600
 H2888 H 0.42029 0.40864 0.77906
 C2889 C 1.10005 0.88119 1.27659
 C2890 C 1.10258 0.90562 1.27730
 C2891 C 1.11521 0.91727 1.29501
 C2892 C 1.12601 0.90317 1.31257
 C2893 C 1.12348 0.87784 1.31265
 C2894 C 1.10959 0.86684 1.29463
 O2895 O 1.09012 0.87358 1.25655
 C2896 C 1.08622 0.89367 1.24446
 C2897 C 1.09320 0.91376 1.25663
 C2898 C 1.09207 0.93659 1.24698
 C2899 C 1.08405 0.93881 1.22356
 C2900 C 1.07804 0.91831 1.20996
 C2901 C 1.07845 0.89543 1.22090
 H2902 H 1.11748 0.93649 1.29479
 H2903 H 1.13614 0.91211 1.32630
 H2904 H 1.10802 0.84758 1.29347
 H2905 H 1.09773 0.95210 1.25693
 H2906 H 1.08326 0.95652 1.21576
 H2907 H 1.07438 0.87941 1.21096
 C2908 C 1.13073 0.38037 0.76780
 C2909 C 1.12568 0.36022 0.75486
 C2910 C 1.12836 0.33729 0.76388
 C2911 C 1.13601 0.33490 0.78742
 C2912 C 1.14109 0.35529 0.80172
 C2913 C 1.13912 0.37844 0.79122
 O2914 O 1.12516 0.40048 0.75629
 C2915 C 1.11644 0.39273 0.73570
 C2916 C 1.11653 0.36822 0.73399
 C2917 C 1.10727 0.35608 0.71461
 C2918 C 1.09723 0.36972 0.69624
 C2919 C 1.09633 0.39507 0.69756
 C2920 C 1.10649 0.40675 0.71750
 H2921 H 1.12412 0.32171 0.75333
 H2922 H 1.13818 0.31695 0.79437
 H2923 H 1.14210 0.39452 0.80142
 H2924 H 1.10746 0.33675 0.71379
 H2925 H 1.09002 0.36047 0.68099
 H2926 H 1.10585 0.42602 0.71918
 C2927 C 0.62763 0.87372 0.76179
 C2928 C 0.62683 0.85476 0.74631
 C2929 C 0.63510 0.83209 0.75215
 C2930 C 0.64438 0.82870 0.77500
 C2931 C 0.64497 0.84778 0.79161
 C2932 C 0.63670 0.87073 0.78471
 O2933 O 0.61851 0.89369 0.75271
 C2934 C 0.61175 0.88713 0.73109
 C2935 C 0.61639 0.86345 0.72637
 C2936 C 0.61009 0.85252 0.70517
 C2937 C 0.59844 0.86657 0.68809
 C2938 C 0.59352 0.89106 0.69244
 C2939 C 0.60047 0.90155 0.71419
 H2940 H 0.63436 0.81750 0.73959
 H2941 H 0.65113 0.81117 0.77972
 H2942 H 0.63672 0.88561 0.79697
 H2943 H 0.61380 0.83380 0.70197
 H2944 H 0.59334 0.85846 0.67141
 H2945 H 0.59672 0.92015 0.71798
 C2946 C 0.60637 0.37113 1.27342
 C2947 C 0.60535 0.39534 1.27742
 C2948 C 0.61557 0.40604 1.29713
 C2949 C 0.62801 0.39133 1.31305
 C2950 C 0.62993 0.36620 1.30932
 C2951 C 0.61797 0.35593 1.28955
 O2952 O 0.59780 0.36503 1.25226
 C2953 C 0.59129 0.38586 1.24278
 C2954 C 0.59543 0.40491 1.25758
 C2955 C 0.59181 0.42852 1.25068
 C2956 C 0.58394 0.43274 1.22743
 C2957 C 0.58005 0.41352 1.21151
 C2958 C 0.58330 0.38966 1.21951
 H2959 H 0.61483 0.42520 1.29968
 H2960 H 0.63627 0.39968 1.32829
 H2961 H 0.61962 0.33710 1.28545
 H2962 H 0.59557 0.44321 1.26256
 H2963 H 0.58136 0.45105 1.22163
 H2964 H 0.58102 0.37468 1.20761
 C2965 C 0.88169 1.12882 1.26525
 C2966 C 0.86351 1.12726 1.24889
 C2967 C 0.83996 1.13312 1.25413
 C2968 C 0.83486 1.14066 1.27730
 C2969 C 0.85323 1.14230 1.29450
 C2970 C 0.87705 1.13663 1.28836
 O2971 O 0.90246 1.12080 1.25703
 C2972 C 0.89724 1.11399 1.23505
 C2973 C 0.87364 1.11765 1.22924
 C2974 C 0.86388 1.11059 1.20771
 C2975 C 0.87898 1.09899 1.19160
 C2976 C 0.90331 1.09460 1.19725
 C2977 C 0.91268 1.10263 1.21914
 H2978 H 0.82592 1.13135 1.24105
 H2979 H 0.81657 1.14484 1.28204
 H2980 H 0.89121 1.13728 1.30141
 H2981 H 0.84519 1.11346 1.20368
 H2982 H 0.87168 1.09309 1.17481
 H2983 H 0.93108 1.09918 1.22401
 C2984 C 0.89189 0.62988 0.76868
 C2985 C 0.87377 0.63131 0.75224
 C2986 C 0.85057 0.63795 0.75813
 C2987 C 0.84575 0.64306 0.78201
 C2988 C 0.86403 0.64157 0.79936
 C2989 C 0.88755 0.63527 0.79254
 O2990 O 0.91215 0.62143 0.75965
 C2991 C 0.90667 0.61740 0.73705
 C2992 C 0.88339 0.62323 0.73166
 C2993 C 0.87329 0.61902 0.70954
 C2994 C 0.88763 0.60800 0.69236
 C2995 C 0.91156 0.60140 0.69752
 C2996 C 0.92139 0.60661 0.72006
 H2997 H 0.83654 0.63852 0.74493
 H2998 H 0.82769 0.64775 0.78714
 H2999 H 0.90164 0.63346 0.80558
 H3000 H 0.85485 0.62347 0.70585
 H3001 H 0.87999 0.60412 0.67513
 H3002 H 0.93944 0.60132 0.72456
 C3003 C 0.36936 1.13759 0.75383
 C3004 C 0.35232 1.13367 0.73671
 C3005 C 0.32828 1.13897 0.73999
 C3006 C 0.32149 1.14882 0.76183
 C3007 C 0.33872 1.15329 0.77972
 C3008 C 0.36304 1.14768 0.77559
 O3009 O 0.39102 1.13021 0.74745
 C3010 C 0.38754 1.12147 0.72581
 C3011 C 0.36417 1.12333 0.71844
 C3012 C 0.35625 1.11477 0.69674
 C3013 C 0.37298 1.10332 0.68221
 C3014 C 0.39707 1.10041 0.68963
 C3015 C 0.40459 1.11013 0.71155
 H3016 H 0.31520 1.13546 0.72630
 H3017 H 0.30288 1.15325 0.76476
 H3018 H 0.37648 1.15071 0.78906
 H3019 H 0.33777 1.11645 0.69137
 H3020 H 0.36709 1.09625 0.66532
 H3021 H 0.42277 1.10796 0.71773
 C3022 C 0.36834 0.62321 1.25850
 C3023 C 0.36818 0.63977 1.24039
 C3024 C 0.35713 0.66194 1.24237
 C3025 C 0.34623 0.66748 1.26409
 C3026 C 0.34683 0.65107 1.28341
 C3027 C 0.35771 0.62839 1.28032
 O3028 O 0.38027 0.60341 1.25308
 C3029 C 0.38790 0.60765 1.23113
 C3030 C 0.38109 0.62973 1.22263
 C3031 C 0.38801 0.63834 1.20049
 C3032 C 0.40247 0.62353 1.18647
 C3033 C 0.40945 0.60056 1.19470
 C3034 C 0.40194 0.59244 1.21730
 H3035 H 0.35718 0.67464 1.22782
 H3036 H 0.33762 0.68472 1.26595
 H3037 H 0.35881 0.61560 1.29475
 H3038 H 0.38262 0.65588 1.19430
 H3039 H 0.40800 0.62975 1.16908
 H3040 H 0.40716 0.57501 1.22395
 C3041 C 1.12150 1.27393 0.89597
 C3042 C 1.09771 1.27879 0.89985
 C3043 C 1.08688 1.30001 0.89265
 C3044 C 1.10113 1.31691 0.88087
 C3045 C 1.12567 1.31238 0.87670
 C3046 C 1.13610 1.29068 0.88453
 O3047 O 1.12781 1.25207 0.90293
 C3048 C 1.10757 1.24296 0.91136
 C3049 C 1.08867 1.25867 0.90993
 C3050 C 1.06557 1.25254 0.91656
 C3051 C 1.06164 1.22912 0.92458
 C3052 C 1.08066 1.21233 0.92576
 C3053 C 1.10409 1.21954 0.91950
 H3054 H 1.06804 1.30324 0.89557
 H3055 H 1.09308 1.33344 0.87477
 H3056 H 1.15473 1.28673 0.88114
 H3057 H 1.05096 1.26516 0.91506
 H3058 H 1.04366 1.22385 0.92938
 H3059 H 1.11882 1.20698 0.91977
 C3060 C 1.12283 0.77227 0.38868
 C3061 C 1.09989 0.77678 0.39622
 C3062 C 1.08834 0.79842 0.39218
 C3063 C 1.10092 0.81617 0.37981
 C3064 C 1.12458 0.81203 0.37170
 C3065 C 1.13575 0.78977 0.37644
 O3066 O 1.13000 0.75008 0.39331
 C3067 C 1.11115 0.74038 0.40396
 C3068 C 1.09229 0.75604 0.40620
 C3069 C 1.07031 0.74938 0.41556
 C3070 C 1.06747 0.72547 0.42248
 C3071 C 1.08648 0.70886 0.42003
 C3072 C 1.10881 0.71652 0.41106
 H3073 H 1.07019 0.80144 0.39811
 H3074 H 1.09225 0.83321 0.37660
 H3075 H 1.15365 0.78596 0.37020
 H3076 H 1.05566 0.76196 0.41684
 H3077 H 1.05029 0.71967 0.42920
 H3078 H 1.12338 0.70402 0.40851
 C3079 C 0.62426 1.26058 0.36557
 C3080 C 0.64315 1.24520 0.36876
 C3081 C 0.66640 1.25103 0.36266
 C3082 C 0.67056 1.27392 0.35344
 C3083 C 0.65157 1.29073 0.35039
 C3084 C 0.62786 1.28338 0.35591
 O3085 O 0.60381 1.25198 0.37405
 C3086 C 0.61004 1.23074 0.38277
 C3087 C 0.63392 1.22577 0.37989
 C3088 C 0.64461 1.20513 0.38866
 C3089 C 0.63013 1.18892 0.40104
 C3090 C 0.60544 1.19364 0.40457
 C3091 C 0.59522 1.21478 0.39500
 H3092 H 0.68097 1.23857 0.36537
 H3093 H 0.68870 1.27831 0.34844
 H3094 H 0.61287 1.29555 0.35461
 H3095 H 0.66350 1.20174 0.38629
 H3096 H 0.63815 1.17266 0.40785
 H3097 H 0.57652 1.21899 0.39762
 C3098 C 0.62730 0.76089 0.87265
 C3099 C 0.64667 0.74661 0.87773
 C3100 C 0.67014 0.75412 0.87471
 C3101 C 0.67382 0.77728 0.86587
 C3102 C 0.65415 0.79216 0.86004
 C3103 C 0.63055 0.78384 0.86349
 O3104 O 0.60653 0.75060 0.87767
 C3105 C 0.61295 0.72930 0.88602
 C3106 C 0.63730 0.72597 0.88621
 C3107 C 0.64803 0.70513 0.89437
 C3108 C 0.63307 0.68717 0.90322
 C3109 C 0.60788 0.69045 0.90415
 C3110 C 0.59767 0.71169 0.89490
 H3111 H 0.68507 0.74259 0.87907
 H3112 H 0.69193 0.78349 0.86311
 H3113 H 0.61528 0.79498 0.85929
 H3114 H 0.66723 0.70288 0.89416
 H3115 H 0.64116 0.67079 0.90968
 H3116 H 0.57859 0.71479 0.89549
 C3117 C 0.87795 1.26097 1.12553
 C3118 C 0.90162 1.26752 1.12555
 C3119 C 0.90963 1.28865 1.13576
 C3120 C 0.89251 1.30366 1.14628
 C3121 C 0.86796 1.29729 1.14641
 C3122 C 0.86070 1.27556 1.13586
 O3123 O 0.87408 1.23994 1.11544
 C3124 C 0.89577 1.23303 1.10892
 C3125 C 0.91327 1.24925 1.11467
 C3126 C 0.93734 1.24521 1.11003
 C3127 C 0.94361 1.22345 1.09932
 C3128 C 0.92587 1.20633 1.09349
 C3129 C 0.90157 1.21141 1.09815
 H3130 H 0.92836 1.29340 1.13565
 H3131 H 0.89833 1.32034 1.15407
 H3132 H 0.84220 1.26996 1.13599
 H3133 H 0.95082 1.25818 1.11479
 H3134 H 0.96227 1.21982 1.09575
 H3135 H 0.88768 1.19853 1.09434
 C3136 C 0.88454 0.76400 0.63340
 C3137 C 0.86697 0.74691 0.63183
 C3138 C 0.84302 0.75173 0.63636
 C3139 C 0.83689 0.77518 0.64270
 C3140 C 0.85465 0.79308 0.64458
 C3141 C 0.87887 0.78738 0.64012
 O3142 O 0.90587 0.75606 0.62660
 C3143 C 0.90165 0.73349 0.62061
 C3144 C 0.87812 0.72703 0.62364
 C3145 C 0.86934 0.70475 0.61727
 C3146 C 0.88532 0.68862 0.60682
 C3147 C 0.90953 0.69501 0.60281
 C3148 C 0.91797 0.71758 0.61034
 H3149 H 0.82947 0.73808 0.63456
 H3150 H 0.81832 0.77951 0.64602
 H3151 H 0.89264 0.80092 0.64102
 H3152 H 0.85070 0.70019 0.61962
 H3153 H 0.87871 0.67136 0.60116
 H3154 H 0.93622 0.72303 0.60704
 C3155 C 0.38109 1.26974 0.61921
 C3156 C 0.40508 1.27380 0.62208
 C3157 C 0.41388 1.29324 0.63461
 C3158 C 0.39725 1.30921 0.64449
 C3159 C 0.37220 1.30578 0.64144
 C3160 C 0.36428 1.28552 0.62843
 O3161 O 0.37633 1.24951 0.60794
 C3162 C 0.39784 1.24065 0.60345
 C3163 C 0.41606 1.25491 0.61157
 C3164 C 0.43998 1.24875 0.60917
 C3165 C 0.44530 1.22680 0.59834
 C3166 C 0.42677 1.21133 0.59055
 C3167 C 0.40268 1.21869 0.59285
 H3168 H 0.43288 1.29595 0.63684
 H3169 H 0.40412 1.32466 0.65375
 H3170 H 0.34555 1.28127 0.62644
 H3171 H 0.45404 1.26027 0.61563
 H3172 H 0.46386 1.22175 0.59633
 H3173 H 0.38806 1.20726 0.58756
 C3174 C 0.38257 0.76491 1.12414
 C3175 C 0.40633 0.77105 1.12461
 C3176 C 0.41447 0.79218 1.13471
 C3177 C 0.39740 0.80764 1.14466
 C3178 C 0.37274 0.80173 1.14437
 C3179 C 0.36533 0.77996 1.13392
 O3180 O 0.37857 0.74386 1.11410
 C3181 C 0.40028 0.73653 1.10807
 C3182 C 0.41792 0.75249 1.11410
 C3183 C 0.44200 0.74810 1.10988
 C3184 C 0.44815 0.72627 1.09922
 C3185 C 0.43028 0.70941 1.09299
 C3186 C 0.40597 0.71482 1.09734
 H3187 H 0.43328 0.79662 1.13492
 H3188 H 0.40337 0.82432 1.15233
 H3189 H 0.34674 0.77469 1.13371
 H3190 H 0.45558 0.76089 1.11483
 H3191 H 0.46682 0.72244 1.09587
 H3192 H 0.39196 0.70218 1.09318
 C3193 C 0.88840 0.72535 0.88112
 C3194 C 0.89278 0.72084 0.90474
 C3195 C 0.88815 0.69885 0.91534
 C3196 C 0.87845 0.68080 0.90106
 C3197 C 0.87339 0.68504 0.87667
 C3198 C 0.87870 0.70768 0.86659
 O3199 O 0.89346 0.74765 0.87471
 C3200 C 0.90113 0.75745 0.89474
 C3201 C 0.90100 0.74180 0.91366
 C3202 C 0.90732 0.74857 0.93654
 C3203 C 0.91388 0.77249 0.94010
 C3204 C 0.91414 0.78900 0.92090
 C3205 C 0.90792 0.78125 0.89783
 H3206 H 0.89172 0.69575 0.93399
 H3207 H 0.87489 0.66352 0.90902
 H3208 H 0.87473 0.71169 0.84819
 H3209 H 0.90686 0.73599 0.95118
 H3210 H 0.91867 0.77823 0.95782
 H3211 H 0.90761 0.79358 0.88296
 C3212 C 0.87354 0.23361 0.37273
 C3213 C 0.85380 0.24708 0.37854
 C3214 C 0.83055 0.23901 0.37548
 C3215 C 0.82749 0.21603 0.36617
 C3216 C 0.84752 0.20178 0.35997
 C3217 C 0.87089 0.21080 0.36306
 O3218 O 0.89401 0.24427 0.37810
 C3219 C 0.88701 0.26490 0.38747
 C3220 C 0.86258 0.26749 0.38802
 C3221 C 0.85130 0.28740 0.39752
 C3222 C 0.86577 0.30534 0.40710
 C3223 C 0.89105 0.30298 0.40729
 C3224 C 0.90180 0.28253 0.39699
 H3225 H 0.81533 0.24988 0.38042
 H3226 H 0.80954 0.20926 0.36376
 H3227 H 0.88644 0.20012 0.35873
 H3228 H 0.83203 0.28902 0.39769
 H3229 H 0.85724 0.32108 0.41439
 H3230 H 0.92098 0.28009 0.39702
 C3231 C 0.35361 0.74098 0.37467
 C3232 C 0.35486 0.75835 0.35740
 C3233 C 0.34781 0.75457 0.33414
 C3234 C 0.33984 0.73171 0.32813
 C3235 C 0.33903 0.71285 0.34526
 C3236 C 0.34514 0.71807 0.36923
 O3237 O 0.36306 0.74790 0.39521
 C3238 C 0.37047 0.77005 0.39065
 C3239 C 0.36579 0.77722 0.36774
 C3240 C 0.37341 0.79895 0.35847
 C3241 C 0.38657 0.81394 0.37338
 C3242 C 0.39187 0.80703 0.39706
 C3243 C 0.38336 0.78489 0.40597
 H3244 H 0.34906 0.76856 0.32087
 H3245 H 0.33431 0.72880 0.30995
 H3246 H 0.34544 0.70430 0.38278
 H3247 H 0.36979 0.80398 0.34024
 H3248 H 0.39281 0.83092 0.36646
 H3249 H 0.38747 0.77908 0.42387
 C3250 C 0.35468 0.24821 0.86778
 C3251 C 0.36080 0.26408 0.85016
 C3252 C 0.35936 0.25865 0.82619
 C3253 C 0.35104 0.23592 0.82001
 C3254 C 0.34372 0.21920 0.83773
 C3255 C 0.34554 0.22575 0.86207
 O3256 O 0.35940 0.25629 0.88946
 C3257 C 0.36855 0.27783 0.88537
 C3258 C 0.36940 0.28350 0.86158
 C3259 C 0.37880 0.30476 0.85302
 C3260 C 0.38851 0.32054 0.86959
 C3261 C 0.38927 0.31460 0.89415
 C3262 C 0.37841 0.29324 0.90226
 H3263 H 0.36471 0.27138 0.81269
 H3264 H 0.34933 0.23193 0.80129
 H3265 H 0.34104 0.21340 0.87622
 H3266 H 0.37914 0.30882 0.83422
 H3267 H 0.39627 0.33707 0.86316
 H3268 H 0.37893 0.28814 0.92082
 C3269 C 1.13337 0.74926 1.14553
 C3270 C 1.14972 0.76636 1.13896
 C3271 C 1.17374 0.76490 1.14451
 C3272 C 1.18156 0.74454 1.15664
 C3273 C 1.16546 0.72584 1.16313
 C3274 C 1.14068 0.72890 1.15833
 O3275 O 1.11164 0.75363 1.13689
 C3276 C 1.11453 0.77384 1.12461
 C3277 C 1.13755 0.78228 1.12544
 C3278 C 1.14513 0.80236 1.11298
 C3279 C 1.12827 0.81433 1.09898
 C3280 C 1.10435 0.80610 1.09753
 C3281 C 1.09730 0.78566 1.11082
 H3282 H 1.18621 0.77865 1.13910
 H3283 H 1.20037 0.74344 1.16098
 H3284 H 1.12785 0.71505 1.16252
 H3285 H 1.16344 0.80847 1.11382
 H3286 H 1.13385 0.83016 1.08934
 H3287 H 1.07921 0.77890 1.10993
 C3288 C 1.11124 0.21666 0.60001
 C3289 C 1.08711 0.21493 0.60419
 C3290 C 1.07712 0.19708 0.61814
 C3291 C 1.09266 0.18053 0.62864
 C3292 C 1.11777 0.18161 0.62464
 C3293 C 1.12702 0.19962 0.60936
 O3294 O 1.11719 0.23666 0.58864
 C3295 C 1.09634 0.24766 0.58555
 C3296 C 1.07738 0.23488 0.59448
 C3297 C 1.05410 0.24345 0.59442
 C3298 C 1.05019 0.26640 0.58522
 C3299 C 1.06951 0.28060 0.57688
 C3300 C 1.09289 0.27075 0.57654
 H3301 H 1.05811 0.19643 0.62158
 H3302 H 1.08498 0.16668 0.63974
 H3303 H 1.14604 0.20161 0.60650
 H3304 H 1.03952 0.23303 0.60165
 H3305 H 1.03212 0.27332 0.58512
 H3306 H 1.10810 0.28118 0.57075
 C3307 C 0.61960 0.72714 0.60885
 C3308 C 0.59594 0.72072 0.60746
 C3309 C 0.58716 0.69963 0.61727
 C3310 C 0.60344 0.68459 0.62905
 C3311 C 0.62794 0.69088 0.63078
 C3312 C 0.63607 0.71243 0.62032
 O3313 O 0.62408 0.74846 0.59949
 C3314 C 0.60279 0.75570 0.59205
 C3315 C 0.58496 0.73937 0.59645
 C3316 C 0.56110 0.74386 0.59121
 C3317 C 0.55537 0.76624 0.58139
 C3318 C 0.57341 0.78354 0.57706
 C3319 C 0.59752 0.77796 0.58212
 H3320 H 0.56842 0.69507 0.61619
 H3321 H 0.59700 0.66810 0.63685
 H3322 H 0.65453 0.71799 0.62179
 H3323 H 0.54734 0.73084 0.59504
 H3324 H 0.53685 0.77029 0.57753
 H3325 H 0.61158 0.79098 0.57953
 C3326 C 0.63368 0.24658 1.14053
 C3327 C 0.65096 0.26103 1.13087
 C3328 C 0.67519 0.25642 1.13314
 C3329 C 0.68199 0.23591 1.14579
 C3330 C 0.66463 0.22042 1.15621
 C3331 C 0.64001 0.22631 1.15366
 O3332 O 0.61163 0.25355 1.13511
 C3333 C 0.61515 0.27289 1.12179
 C3334 C 0.63894 0.27825 1.11885
 C3335 C 0.64687 0.29733 1.10519
 C3336 C 0.62959 0.31132 1.09377
 C3337 C 0.60488 0.30585 1.09582
 C3338 C 0.59755 0.28656 1.11046
 H3339 H 0.68844 0.26809 1.12527
 H3340 H 0.70092 0.23274 1.14804
 H3341 H 0.62602 0.21485 1.16047
 H3342 H 0.66570 0.30119 1.10323
 H3343 H 0.63551 0.32638 1.08318
 H3344 H 0.57889 0.28187 1.11230
 C3345 C 1.25431 1.12785 0.86166
 C3346 C 1.23706 1.14496 0.86545
 C3347 C 1.24042 1.16902 0.86030
 C3348 C 1.26248 1.17578 0.85071
 C3349 C 1.28059 1.15853 0.84643
 C3350 C 1.27637 1.13416 0.85190
 O3351 O 1.24769 1.10615 0.86872
 C3352 C 1.22577 1.10968 0.87712
 C3353 C 1.21847 1.13314 0.87537
 C3354 C 1.19653 1.14115 0.88363
 C3355 C 1.18165 1.12441 0.89465
 C3356 C 1.18893 1.10021 0.89734
 C3357 C 1.21112 1.09260 0.88797
 H3358 H 1.22658 1.18213 0.86362
 H3359 H 1.26536 1.19442 0.84626
 H3360 H 1.28993 1.12068 0.84892
 H3361 H 1.19126 1.15972 0.88206
 H3362 H 1.16458 1.13035 0.90156
 H3363 H 1.21717 1.07431 0.89003
 C3364 C 1.26609 0.62213 0.37888
 C3365 C 1.27300 0.59851 0.37946
 C3366 C 1.29476 0.59067 0.37044
 C3367 C 1.30977 0.60778 0.35993
 C3368 C 1.30281 0.63219 0.35852
 C3369 C 1.28081 0.63948 0.36863
 O3370 O 1.24424 0.62565 0.38738
 C3371 C 1.23719 0.60379 0.39338
 C3372 C 1.25409 0.58652 0.38884
 C3373 C 1.24991 0.56227 0.39260
 C3374 C 1.22741 0.55557 0.40144
 C3375 C 1.20971 0.57306 0.40641
 C3376 C 1.21481 0.59755 0.40238
 H3377 H 1.29975 0.57197 0.37095
 H3378 H 1.32657 0.60195 0.35235
 H3379 H 1.27475 0.65783 0.36735
 H3380 H 1.26338 0.54897 0.38861
 H3381 H 1.22379 0.53680 0.40453
 H3382 H 1.20152 0.61126 0.40556
 C3383 C 0.77001 1.11574 0.38844
 C3384 C 0.77515 1.09169 0.38921
 C3385 C 0.79592 1.08207 0.37958
 C3386 C 0.81196 1.09788 0.36855
 C3387 C 0.80697 1.12275 0.36737
 C3388 C 0.78574 1.13176 0.37772
 O3389 O 0.74876 1.12108 0.39746
 C3390 C 0.74027 1.09995 0.40405
 C3391 C 0.75572 1.08137 0.39942
 C3392 C 0.74988 1.05760 0.40374
 C3393 C 0.72707 1.05277 0.41291
 C3394 C 0.71069 1.07161 0.41754
 C3395 C 0.71760 1.09557 0.41336
 H3396 H 0.79946 1.06305 0.38017
 H3397 H 0.82817 1.09075 0.36080
 H3398 H 0.78115 1.15055 0.37662
 H3399 H 0.76223 1.04326 0.39973
 H3400 H 0.72201 1.03436 0.41611
 H3401 H 0.70531 1.11025 0.41622
 C3402 C 0.77692 0.61180 0.88891
 C3403 C 0.77983 0.58747 0.88672
 C3404 C 0.79972 0.57720 0.87600
 C3405 C 0.81729 0.59265 0.86702
 C3406 C 0.81477 0.61780 0.86907
 C3407 C 0.79438 0.62749 0.88042
 O3408 O 0.75611 0.61786 0.89855
 C3409 C 0.74567 0.59690 0.90253
 C3410 C 0.75951 0.57777 0.89569
 C3411 C 0.75179 0.55423 0.89747
 C3412 C 0.72873 0.55024 0.90636
 C3413 C 0.71380 0.56965 0.91309
 C3414 C 0.72264 0.59333 0.91146
 H3415 H 0.80146 0.55801 0.87423
 H3416 H 0.83284 0.58507 0.85840
 H3417 H 0.79183 0.64663 0.88184
 H3418 H 0.76298 0.53948 0.89190
 H3419 H 0.72241 0.53200 0.90780
 H3420 H 0.71161 0.60854 0.91607
 C3421 C 1.26279 0.86857 1.12552
 C3422 C 1.24916 0.84919 1.11915
 C3423 C 1.25648 0.82569 1.12292
 C3424 C 1.27874 0.82204 1.13381
 C3425 C 1.29294 0.84175 1.14087
 C3426 C 1.28480 0.86534 1.13662
 O3427 O 1.25287 0.88937 1.11979
 C3428 C 1.23247 0.88300 1.10965
 C3429 C 1.22931 0.85862 1.10894
 C3430 C 1.20924 0.84803 1.09908
 C3431 C 1.19189 0.86317 1.08920
 C3432 C 1.19498 0.88842 1.08907
 C3433 C 1.21550 0.89842 1.09981
 H3434 H 1.24549 0.81073 1.11761
 H3435 H 1.28477 0.80392 1.13711
 H3436 H 1.29542 0.88069 1.14163
 H3437 H 1.20704 0.82880 1.09892
 H3438 H 1.17604 0.85518 1.08163
 H3439 H 1.21847 0.91754 1.09993
 C3440 C 1.26188 0.37063 0.62279
 C3441 C 1.24886 0.35069 0.61687
 C3442 C 1.25693 0.32753 0.62098
 C3443 C 1.27937 0.32479 0.63169
 C3444 C 1.29305 0.34508 0.63816
 C3445 C 1.28411 0.36833 0.63369
 O3446 O 1.25120 0.39099 0.61682
 C3447 C 1.23095 0.38372 0.60697
 C3448 C 1.22865 0.35924 0.60668
 C3449 C 1.20892 0.34774 0.59719
 C3450 C 1.19090 0.36205 0.58735
 C3451 C 1.19301 0.38739 0.58690
 C3452 C 1.21330 0.39833 0.59714
 H3453 H 1.24638 0.31213 0.61605
 H3454 H 1.28600 0.30693 0.63521
 H3455 H 1.29430 0.38409 0.63827
 H3456 H 1.20746 0.32844 0.59734
 H3457 H 1.17525 0.35335 0.58016
 H3458 H 1.21554 0.41756 0.59698
 C3459 C 0.76985 0.87044 0.60454
 C3460 C 0.77509 0.89396 0.59960
 C3461 C 0.79628 0.90476 0.60662
 C3462 C 0.81261 0.89084 0.61955
 C3463 C 0.80756 0.86662 0.62513
 C3464 C 0.78602 0.85616 0.61712
 O3465 O 0.74795 0.86423 0.59790
 C3466 C 0.73916 0.88429 0.58865
 C3467 C 0.75511 0.90298 0.58923
 C3468 C 0.74912 0.92605 0.58214
 C3469 C 0.72564 0.93013 0.57449
 C3470 C 0.70872 0.91128 0.57404
 C3471 C 0.71574 0.88790 0.58078
 H3472 H 0.79981 0.92341 0.60288
 H3473 H 0.82901 0.89902 0.62566
 H3474 H 0.78144 0.83791 0.62168
 H3475 H 0.76186 0.94055 0.58314
 H3476 H 0.72040 0.94810 0.56943
 H3477 H 0.70301 0.87335 0.58118
 C3478 C 0.75807 0.36345 1.12868
 C3479 C 0.74493 0.34421 1.12103
 C3480 C 0.75231 0.32065 1.12423
 C3481 C 0.77416 0.31680 1.13582
 C3482 C 0.78790 0.33637 1.14405
 C3483 C 0.77967 0.36002 1.14045
 O3484 O 0.74822 0.38437 1.12330
 C3485 C 0.72838 0.37820 1.11203
 C3486 C 0.72550 0.35385 1.11026
 C3487 C 0.70610 0.34347 1.09898
 C3488 C 0.68906 0.35883 1.08893
 C3489 C 0.69182 0.38408 1.09005
 C3490 C 0.71173 0.39383 1.10205
 H3491 H 0.74171 0.30581 1.11791
 H3492 H 0.78031 0.29863 1.13859
 H3493 H 0.78998 0.37528 1.14629
 H3494 H 0.70421 0.32425 1.09788
 H3495 H 0.67369 0.35101 1.08030
 H3496 H 0.71451 0.41295 1.10307
 C3497 C 0.75021 1.13911 1.13866
 C3498 C 0.76632 1.13356 1.15626
 C3499 C 0.76212 1.13830 1.18012
 C3500 C 0.74041 1.14930 1.18610
 C3501 C 0.72351 1.15531 1.16827
 C3502 C 0.72858 1.15015 1.14418
 O3503 O 0.75736 1.13238 1.11720
 C3504 C 0.77846 1.12236 1.12135
 C3505 C 0.78476 1.12270 1.14497
 C3506 C 0.80576 1.11260 1.15345
 C3507 C 0.82070 1.10131 1.13697
 C3508 C 0.81440 1.10023 1.11255
 C3509 C 0.79315 1.11132 1.10458
 H3510 H 0.77504 1.13362 1.19366
 H3511 H 0.73686 1.15338 1.20456
 H3512 H 0.71590 1.15425 1.13023
 H3513 H 0.81030 1.11306 1.17213
 H3514 H 0.83708 1.09312 1.14323
 H3515 H 0.78782 1.11056 1.08611
 C3516 C 0.74052 0.62618 0.62772
 C3517 C 0.75447 0.64580 0.62279
 C3518 C 0.74630 0.66917 0.62518
 C3519 C 0.72278 0.67245 0.63312
 C3520 C 0.70819 0.65252 0.63869
 C3521 C 0.71722 0.62905 0.63604
 O3522 O 0.75133 0.60556 0.62307
 C3523 C 0.77260 0.61232 0.61507
 C3524 C 0.77544 0.63676 0.61474
 C3525 C 0.79604 0.64782 0.60654
 C3526 C 0.81427 0.63312 0.59777
 C3527 C 0.81149 0.60786 0.59702
 C3528 C 0.79052 0.59731 0.60634
 H3529 H 0.75754 0.68430 0.62088
 H3530 H 0.71598 0.69047 0.63522
 H3531 H 0.70629 0.61357 0.63995
 H3532 H 0.79788 0.66708 0.60655
 H3533 H 0.83041 0.64145 0.59115
 H3534 H 0.78779 0.57816 0.60580
 C3535 C 0.22432 1.12063 0.60776
 C3536 C 0.22064 1.09650 0.60477
 C3537 C 0.19968 1.08509 0.61159
 C3538 C 0.18180 1.09909 0.62211
 C3539 C 0.18511 1.12397 0.62538
 C3540 C 0.20655 1.13500 0.61785
 O3541 O 0.24613 1.12755 0.60147
 C3542 C 0.25642 1.10735 0.59438
 C3543 C 0.24150 1.08789 0.59598
 C3544 C 0.24883 1.06480 0.59058
 C3545 C 0.27262 1.06153 0.58356
 C3546 C 0.28862 1.08117 0.58224
 C3547 C 0.28022 1.10451 0.58732
 H3548 H 0.19739 1.06601 0.60940
 H3549 H 0.16546 1.09057 0.62798
 H3550 H 0.20960 1.15389 0.62062
 H3551 H 0.23678 1.04976 0.59213
 H3552 H 0.27870 1.04361 0.57946
 H3553 H 0.29208 1.11977 0.58685
 C3554 C 0.25709 0.63728 1.14801
 C3555 C 0.27490 0.65398 1.14537
 C3556 C 0.27222 0.67775 1.15202
 C3557 C 0.25018 0.68465 1.16166
 C3558 C 0.23146 0.66781 1.16448
 C3559 C 0.23510 0.64370 1.15780
 O3560 O 0.26286 0.61600 1.13928
 C3561 C 0.28478 0.61937 1.13091
 C3562 C 0.29296 0.64231 1.13428
 C3563 C 0.31491 0.65018 1.12588
 C3564 C 0.32889 0.63385 1.11315
 C3565 C 0.32072 0.61020 1.10902
 C3566 C 0.29853 0.60272 1.11844
 H3567 H 0.28643 0.69061 1.14949
 H3568 H 0.24761 0.70311 1.16683
 H3569 H 0.22096 0.63060 1.15938
 H3570 H 0.32085 0.66837 1.12859
 H3571 H 0.34596 0.63969 1.10619
 H3572 H 0.29176 0.58489 1.11525
 C3573 C 0.73155 0.87931 0.88329
 C3574 C 0.72539 0.90310 0.88442
 C3575 C 0.70452 0.91213 0.87440
 C3576 C 0.68932 0.89594 0.86286
 C3577 C 0.69519 0.87127 0.86167
 C3578 C 0.71666 0.86293 0.87208
 O3579 O 0.75258 0.87452 0.89308
 C3580 C 0.75988 0.89574 0.90060
 C3581 C 0.74386 0.91381 0.89582
 C3582 C 0.74828 0.93756 0.90147
 C3583 C 0.77029 0.94295 0.91206
 C3584 C 0.78739 0.92470 0.91666
 C3585 C 0.78183 0.90067 0.91120
 H3586 H 0.70016 0.93097 0.87531
 H3587 H 0.67288 0.90253 0.85510
 H3588 H 0.72185 0.84430 0.87110
 H3589 H 0.73545 0.95150 0.89748
 H3590 H 0.77422 0.96140 0.91631
 H3591 H 0.79464 0.88643 0.91405
 C3592 C 0.73652 0.37265 0.37827
 C3593 C 0.75149 0.37847 0.35975
 C3594 C 0.74540 0.37511 0.33606
 C3595 C 0.72289 0.36533 0.33123
 C3596 C 0.70724 0.35896 0.34998
 C3597 C 0.71419 0.36249 0.37386
 O3598 O 0.74532 0.37849 0.39938
 C3599 C 0.76632 0.38817 0.39405
 C3600 C 0.77095 0.38841 0.37004
 C3601 C 0.79155 0.39819 0.36036
 C3602 C 0.80790 0.40856 0.37602
 C3603 C 0.80331 0.40930 0.40085
 C3604 C 0.78238 0.39847 0.41002
 H3605 H 0.75740 0.38013 0.32182
 H3606 H 0.71761 0.36264 0.31293
 H3607 H 0.70235 0.35800 0.38841
 H3608 H 0.79480 0.39808 0.34140
 H3609 H 0.82408 0.41626 0.36874
 H3610 H 0.77833 0.39888 0.42882
 C3611 C 0.22905 0.87515 0.38306
 C3612 C 0.24371 0.87818 0.36365
 C3613 C 0.23654 0.87311 0.34061
 C3614 C 0.21312 0.86501 0.33735
 C3615 C 0.19744 0.86215 0.35698
 C3616 C 0.20569 0.86684 0.38024
 O3617 O 0.23900 0.88229 0.40323
 C3618 C 0.26034 0.89006 0.39636
 C3619 C 0.26406 0.88794 0.37230
 C3620 C 0.28460 0.89610 0.36106
 C3621 C 0.30204 0.90699 0.37518
 C3622 C 0.29866 0.90951 0.40004
 C3623 C 0.27758 0.90066 0.41080
 H3624 H 0.24834 0.87588 0.32561
 H3625 H 0.20695 0.86142 0.31948
 H3626 H 0.19393 0.86526 0.39544
 H3627 H 0.28699 0.89442 0.34206
 H3628 H 0.31822 0.91345 0.36678
 H3629 H 0.27443 0.90261 0.42967
 C3630 C 0.22323 0.39651 0.88173
 C3631 C 0.21678 0.40331 0.90431
 C3632 C 0.19412 0.39937 0.91357
 C3633 C 0.17755 0.38745 0.89920
 C3634 C 0.18387 0.37950 0.87609
 C3635 C 0.20695 0.38464 0.86704
 O3636 O 0.24605 0.40096 0.87685
 C3637 C 0.25415 0.41064 0.89683
 C3638 C 0.23695 0.41236 0.91420
 C3639 C 0.24185 0.42044 0.93703
 C3640 C 0.26547 0.42697 0.94220
 C3641 C 0.28351 0.42558 0.92458
 C3642 C 0.27771 0.41750 0.90147
 H3643 H 0.18951 0.40477 0.93144
 H3644 H 0.15993 0.38386 0.90631
 H3645 H 0.21245 0.37841 0.84969
 H3646 H 0.22809 0.42122 0.95051
 H3647 H 0.26980 0.43305 0.95992
 H3648 H 0.29129 0.41585 0.88787
   
