data_POSCAR
  _audit_creation_date              2014-09-24
  _audit_creation_method            'ToBaCCo'
  _symmetry_space_group_name_H-M    'P1'
  _symmetry_Int_Tables_number       1
  _symmetry_cell_setting            triclinic
  loop_
  _symmetry_equiv_pos_as_xyz
 x,y,z
_cell_length_a 89.6441
_cell_length_b 89.3954
_cell_length_c 89.4505
_cell_angle_alpha 90.090500
_cell_angle_beta 90.071100
_cell_angle_gamma 89.976700
loop_
  _atom_site_label
  _atom_site_type_symbol
  _atom_site_fract_x
  _atom_site_fract_y
  _atom_site_fract_z
C1 C 0.30165 0.43794 0.92747
 C2 C 0.30175 0.42695 0.93863
 C3 C 0.31296 0.42684 0.94932
 C4 C 0.32421 0.43773 0.94896
 C5 C 0.32411 0.44860 0.93793
 C6 C 0.31277 0.44871 0.92712
 C7 C 0.29267 0.44023 0.91518
 N8 N 0.29810 0.45209 0.90752
 C9 C 0.31036 0.45737 0.91463
 C10 C 0.33676 0.45715 0.93981
 N11 N 0.34438 0.45169 0.95170
 C12 C 0.33691 0.43983 0.95739
 C13 C 0.31073 0.41446 0.95818
 N14 N 0.29848 0.40718 0.95309
 C15 C 0.29289 0.41463 0.94117
 H16 H 0.28316 0.43355 0.91183
 H17 H 0.31723 0.46654 0.91076
 H18 H 0.34033 0.46639 0.93287
 H19 H 0.34062 0.43305 0.96670
 H20 H 0.31771 0.41077 0.96735
 H21 H 0.28336 0.41110 0.93461
 C22 C 0.43871 0.82255 0.45052
 C23 C 0.42769 0.81142 0.45036
 C24 C 0.42778 0.80054 0.43931
 C25 C 0.43889 0.80066 0.42828
 C26 C 0.44978 0.81165 0.42844
 C27 C 0.44970 0.82266 0.43962
 C28 C 0.44082 0.83502 0.45934
 N29 N 0.45280 0.84256 0.45401
 C30 C 0.45832 0.83520 0.44198
 C31 C 0.45851 0.80956 0.41595
 N32 N 0.45315 0.79760 0.40835
 C33 C 0.44117 0.79206 0.41570
 C34 C 0.41531 0.79179 0.44136
 N35 N 0.40779 0.79713 0.45336
 C36 C 0.41517 0.80911 0.45896
 H37 H 0.43394 0.83858 0.46863
 H38 H 0.46761 0.83892 0.43521
 H39 H 0.46779 0.81646 0.41241
 H40 H 0.43440 0.78276 0.41194
 H41 H 0.41173 0.78252 0.43443
 H42 H 0.41147 0.81587 0.46830
 C43 C 0.93526 0.92412 0.80408
 C44 C 0.92415 0.93516 0.80421
 C45 C 0.92419 0.94609 0.81522
 C46 C 0.93534 0.94610 0.82623
 C47 C 0.94633 0.93518 0.82610
 C48 C 0.94629 0.92412 0.81496
 C49 C 0.93756 0.91174 0.79519
 N50 N 0.94967 0.90437 0.80045
 C51 C 0.95512 0.91174 0.81252
 C52 C 0.95521 0.93750 0.83847
 N53 N 0.94984 0.94953 0.84595
 C54 C 0.93771 0.95489 0.83867
 C55 C 0.91175 0.95486 0.81302
 N56 N 0.90430 0.94949 0.80098
 C57 C 0.91169 0.93747 0.79550
 H58 H 0.93075 0.90817 0.78582
 H59 H 0.96456 0.90819 0.81920
 H60 H 0.96464 0.93076 0.84194
 H61 H 0.93095 0.96425 0.84232
 H62 H 0.90820 0.96423 0.81983
 H63 H 0.90808 0.93074 0.78609
 C64 C 0.43836 -0.07226 0.30017
 C65 C 0.42714 -0.06133 0.30053
 C66 C 0.42726 -0.05043 0.31156
 C67 C 0.43861 -0.05033 0.32237
 C68 C 0.44970 -0.06112 0.32202
 C69 C 0.44958 -0.07215 0.31085
 C70 C 0.44051 -0.08472 0.29134
 N71 N 0.45273 -0.09203 0.29646
 C72 C 0.45837 -0.08455 0.30836
 C73 C 0.45864 -0.05888 0.33435
 N74 N 0.45321 -0.04701 0.34204
 C75 C 0.44098 -0.04169 0.33490
 C76 C 0.41460 -0.04190 0.30972
 N77 N 0.40693 -0.04739 0.29787
 C78 C 0.41440 -0.05925 0.29216
 H79 H 0.43348 -0.08842 0.28220
 H80 H 0.46786 -0.08810 0.31497
 H81 H 0.46809 -0.06561 0.33773
 H82 H 0.43410 -0.03252 0.33880
 H83 H 0.41101 -0.03266 0.31670
 H84 H 0.41064 -0.06607 0.28288
 C85 C 0.80276 0.31340 0.32369
 C86 C 0.80298 0.32462 0.31276
 C87 C 0.81417 0.32478 0.30208
 C88 C 0.82527 0.31373 0.30221
 C89 C 0.82504 0.30263 0.31301
 C90 C 0.81372 0.30247 0.32381
 C91 C 0.79374 0.31095 0.33590
 N92 N 0.79901 0.29884 0.34329
 C93 C 0.81120 0.29355 0.33609
 C94 C 0.83754 0.29391 0.31092
 N95 N 0.84521 0.29948 0.29914
 C96 C 0.83789 0.31157 0.29371
 C97 C 0.81204 0.33733 0.29341
 N98 N 0.79988 0.34465 0.29861
 C99 C 0.79424 0.33708 0.31041
 H100 H 0.78431 0.31768 0.33938
 H101 H 0.81793 0.28418 0.33975
 H102 H 0.84099 0.28446 0.31764
 H103 H 0.84167 0.31845 0.28452
 H104 H 0.81900 0.34105 0.28426
 H105 H 0.78472 0.34056 0.31699
 C106 C -0.18611 0.82512 0.80232
 C107 C -0.17510 0.81397 0.80247
 C108 C -0.17540 0.80291 0.81330
 C109 C -0.18671 0.80285 0.82411
 C110 C -0.19760 0.81387 0.82397
 C111 C -0.19729 0.82507 0.81302
 C112 C -0.18815 0.83765 0.79361
 N113 N -0.20027 0.84506 0.79880
 C114 C -0.20596 0.83757 0.81064
 C115 C -0.20664 0.81151 0.83618
 N116 N -0.20146 0.79936 0.84358
 C117 C -0.18930 0.79396 0.83640
 C118 C -0.16298 0.79407 0.81120
 N119 N -0.15529 0.79954 0.79940
 C120 C -0.16251 0.81168 0.79396
 H121 H -0.18117 0.84128 0.78443
 H122 H -0.21546 0.84113 0.81722
 H123 H -0.21602 0.81832 0.83964
 H124 H -0.18264 0.78454 0.84005
 H125 H -0.15960 0.78460 0.81794
 H126 H -0.15868 0.81852 0.78474
 C127 C 0.94752 0.32473 0.43648
 C128 C 0.94766 0.31367 0.42535
 C129 C 0.93702 0.30242 0.42544
 C130 C 0.92612 0.30210 0.43667
 C131 C 0.92599 0.31303 0.44768
 C132 C 0.93675 0.32442 0.44758
 C133 C 0.95599 0.33739 0.43872
 N134 N 0.95058 0.34463 0.45087
 C135 C 0.93883 0.33689 0.45639
 C136 C 0.91375 0.31041 0.45659
 N137 N 0.90658 0.29819 0.45123
 C138 C 0.91396 0.29301 0.43907
 C139 C 0.93936 0.29372 0.41294
 N140 N 0.95113 0.29945 0.40539
 C141 C 0.95630 0.31162 0.41279
 H142 H 0.96516 0.34123 0.43184
 H143 H 0.93212 0.34027 0.46588
 H144 H 0.91010 0.31709 0.46601
 H145 H 0.91050 0.28358 0.43229
 H146 H 0.93282 0.28418 0.40940
 H147 H 0.96543 0.31864 0.40911
 C148 C 0.44826 0.43709 0.82457
 C149 C 0.44817 0.42601 0.81347
 C150 C 0.43737 0.42623 0.80237
 C151 C 0.42654 0.43755 0.80224
 C152 C 0.42662 0.44851 0.81321
 C153 C 0.43754 0.44828 0.82445
 C154 C 0.45686 0.43915 0.83718
 N155 N 0.45159 0.45129 0.84456
 C156 C 0.43979 0.45697 0.83698
 C157 C 0.41436 0.45747 0.81084
 N158 N 0.40696 0.45219 0.79872
 C159 C 0.41422 0.44003 0.79337
 C160 C 0.43947 0.41370 0.79364
 N161 N 0.45125 0.40601 0.79921
 C162 C 0.45666 0.41335 0.81132
 H163 H 0.46600 0.43215 0.84090
 H164 H 0.43314 0.46645 0.84051
 H165 H 0.41083 0.46686 0.81763
 H166 H 0.41056 0.43327 0.78400
 H167 H 0.43274 0.41022 0.78421
 H168 H 0.46583 0.40954 0.81823
 C169 C 0.80315 0.92571 0.93669
 C170 C 0.80326 0.93657 0.92540
 C171 C 0.81442 0.94728 0.92508
 C172 C 0.82562 0.94726 0.93604
 C173 C 0.82551 0.93652 0.94721
 C174 C 0.81421 0.92568 0.94753
 C175 C 0.79415 0.91350 0.93928
 N176 N 0.79953 0.90620 0.95140
 C177 C 0.81177 0.91345 0.95655
 C178 C 0.83805 0.93873 0.95584
 N179 N 0.84563 0.95052 0.95015
 C180 C 0.83822 0.95584 0.93807
 C181 C 0.81215 0.95587 0.91250
 N182 N 0.79993 0.95058 0.90532
 C183 C 0.79439 0.93880 0.91303
 H184 H 0.78467 0.90998 0.93264
 H185 H 0.81859 0.90987 0.96589
 H186 H 0.84157 0.93208 0.96533
 H187 H 0.84190 0.96502 0.93110
 H188 H 0.81905 0.96502 0.90866
 H189 H 0.78484 0.93217 0.90967
 C190 C 0.30068 0.82336 0.31177
 C191 C 0.30038 0.81212 0.32268
 C192 C 0.31111 0.80096 0.32263
 C193 C 0.32227 0.80090 0.31166
 C194 C 0.32256 0.81200 0.30087
 C195 C 0.31171 0.82330 0.30092
 C196 C 0.29222 0.83605 0.30964
 N197 N 0.29789 0.84355 0.29779
 C198 C 0.30979 0.83596 0.29236
 C199 C 0.33508 0.80967 0.29226
 N200 N 0.34226 0.79745 0.29760
 C201 C 0.33461 0.79199 0.30944
 C202 C 0.30864 0.79214 0.33499
 N203 N 0.29670 0.79771 0.34241
 C204 C 0.29155 0.80991 0.33508
 H205 H 0.28291 0.83975 0.31642
 H206 H 0.31674 0.83957 0.28315
 H207 H 0.33893 0.81655 0.28309
 H208 H 0.33801 0.78253 0.31617
 H209 H 0.31526 0.78266 0.33856
 H210 H 0.28236 0.81687 0.33874
 C211 C 0.80299 0.42585 0.43647
 C212 C 0.80314 0.43664 0.42511
 C213 C 0.81427 0.44739 0.42480
 C214 C 0.82539 0.44746 0.43584
 C215 C 0.82524 0.43679 0.44707
 C216 C 0.81398 0.42592 0.44738
 C217 C 0.79404 0.41361 0.43906
 N218 N 0.79937 0.40638 0.45124
 C219 C 0.81153 0.41372 0.45643
 C220 C 0.83775 0.43905 0.45574
 N221 N 0.84534 0.45081 0.45001
 C222 C 0.83799 0.45606 0.43786
 C223 C 0.81209 0.45588 0.41216
 N224 N 0.79994 0.45051 0.40491
 C225 C 0.79436 0.43877 0.41265
 H226 H 0.78463 0.40999 0.43238
 H227 H 0.81831 0.41020 0.46582
 H228 H 0.84125 0.43244 0.46526
 H229 H 0.84170 0.46518 0.43084
 H230 H 0.81899 0.46503 0.40831
 H231 H 0.78487 0.43209 0.40926
 C232 C 0.93687 0.82393 -0.05248
 C233 C 0.92606 0.81260 -0.05244
 C234 C 0.92609 0.80177 -0.06354
 C235 C 0.93694 0.80214 -0.07482
 C236 C 0.94763 0.81335 -0.07486
 C237 C 0.94759 0.82431 -0.06362
 C238 C 0.93901 0.83634 -0.04360
 N239 N 0.95074 0.84411 -0.04911
 C240 C 0.95608 0.83694 -0.06133
 C241 C 0.95619 0.81141 -0.08749
 N242 N 0.95092 0.79934 -0.09498
 C243 C 0.93917 0.79357 -0.08743
 C244 C 0.91388 0.79273 -0.06120
 N245 N 0.90657 0.79786 -0.04898
 C246 C 0.91383 0.80998 -0.04352
 H247 H 0.93234 0.83968 -0.03408
 H248 H 0.96520 0.84084 -0.06822
 H249 H 0.96532 0.81845 -0.09115
 H250 H 0.93255 0.78409 -0.09103
 H251 H 0.91033 0.78341 -0.06807
 H252 H 0.91024 0.81661 -0.03405
 C253 C 0.30131 0.32256 0.81208
 C254 C 0.30120 0.31161 0.82328
 C255 C 0.31227 0.30079 0.82367
 C256 C 0.32359 0.30080 0.81286
 C257 C 0.32370 0.31163 0.80178
 C258 C 0.31249 0.32257 0.80139
 C259 C 0.29250 0.33491 0.80950
 N260 N 0.29809 0.34229 0.79754
 C261 C 0.31029 0.33494 0.79249
 C262 C 0.33637 0.30942 0.79337
 N263 N 0.34381 0.29755 0.79910
 C264 C 0.33619 0.29218 0.81099
 C265 C 0.30986 0.29219 0.83619
 N266 N 0.29764 0.29755 0.84329
 C267 C 0.29224 0.30941 0.83558
 H268 H 0.28300 0.33851 0.81605
 H269 H 0.31726 0.33855 0.78329
 H270 H 0.34009 0.31613 0.78403
 H271 H 0.33975 0.28295 0.81796
 H272 H 0.31670 0.28299 0.84009
 H273 H 0.28277 0.31615 0.83891
 C274 C 0.17600 0.56326 0.55211
 C275 C 0.18688 0.57452 0.55252
 C276 C 0.19756 0.57457 0.56374
 C277 C 0.19748 0.56335 0.57468
 C278 C 0.18673 0.55222 0.57427
 C279 C 0.17593 0.55217 0.56292
 C280 C 0.16380 0.56091 0.54304
 N281 N 0.15645 0.54870 0.54813
 C282 C 0.16368 0.54326 0.56026
 C283 C 0.18885 0.54335 0.58667
 N284 N 0.20059 0.54886 0.59446
 C285 C 0.20597 0.56107 0.58732
 C286 C 0.20615 0.58719 0.56182
 N287 N 0.20092 0.59466 0.54975
 C288 C 0.18916 0.58711 0.54396
 H289 H 0.16028 0.56777 0.53371
 H290 H 0.16006 0.53380 0.56686
 H291 H 0.18215 0.53384 0.58999
 H292 H 0.21511 0.56795 0.59123
 H293 H 0.21529 0.59085 0.56886
 H294 H 0.18256 0.59070 0.53447
 C295 C 0.57438 0.68756 0.05227
 C296 C 0.56310 0.67669 0.05219
 C297 C 0.55222 0.67681 0.06318
 C298 C 0.55250 0.68780 0.07439
 C299 C 0.56364 0.69854 0.07447
 C300 C 0.57465 0.69842 0.06334
 C301 C 0.58681 0.68968 0.04348
 N302 N 0.59447 0.70152 0.04898
 C303 C 0.58722 0.70696 0.06111
 C304 C 0.56160 0.70723 0.08702
 N305 N 0.54952 0.70200 0.09443
 C306 C 0.54386 0.69014 0.08690
 C307 C 0.54324 0.66454 0.06082
 N308 N 0.54843 0.65711 0.04870
 C309 C 0.56055 0.66435 0.04332
 H310 H 0.59022 0.68292 0.03402
 H311 H 0.59102 0.71620 0.06796
 H312 H 0.56856 0.71643 0.09070
 H313 H 0.53440 0.68351 0.09046
 H314 H 0.53388 0.66105 0.06762
 H315 H 0.56722 0.66067 0.03391
 C316 C 0.68753 0.19892 0.67638
 C317 C 0.67671 0.19906 0.68769
 C318 C 0.67701 0.18830 0.69882
 C319 C 0.68813 0.17727 0.69879
 C320 C 0.69883 0.17713 0.68762
 C321 C 0.69853 0.18801 0.67635
 C322 C 0.68947 0.20743 0.66371
 N323 N 0.70133 0.20192 0.65613
 C324 C 0.70697 0.19007 0.66367
 C325 C 0.70763 0.16470 0.68987
 N326 N 0.70249 0.15743 0.70209
 C327 C 0.69059 0.16493 0.70764
 C328 C 0.66471 0.19062 0.70774
 N329 N 0.65708 0.20249 0.70227
 C330 C 0.66423 0.20775 0.69002
 H331 H 0.68256 0.21668 0.66007
 H332 H 0.71626 0.18325 0.65999
 H333 H 0.71679 0.16098 0.68291
 H334 H 0.68399 0.16141 0.71714
 H335 H 0.66132 0.18394 0.71724
 H336 H 0.66039 0.21693 0.68313
 C337 C 1.07257 0.06065 0.19943
 C338 C 1.06147 0.07171 0.19937
 C339 C 1.05054 0.07161 0.18840
 C340 C 1.05057 0.06045 0.17737
 C341 C 1.06155 0.04952 0.17742
 C342 C 1.07261 0.04962 0.18852
 C343 C 1.08505 0.05852 0.20816
 N344 N 1.09254 0.04650 0.20279
 C345 C 1.08512 0.04096 0.19080
 C346 C 1.05936 0.04073 0.16495
 N347 N 1.04735 0.04610 0.15747
 C348 C 1.04188 0.05814 0.16487
 C349 C 1.04182 0.08412 0.19056
 N350 N 1.04723 0.09167 0.20253
 C351 C 1.05923 0.08427 0.20801
 H352 H 1.08865 0.06541 0.21746
 H353 H 1.08879 0.03161 0.18403
 H354 H 1.06621 0.03141 0.16136
 H355 H 1.03257 0.06494 0.16120
 H356 H 1.03252 0.08770 0.18370
 H357 H 1.06603 0.08799 0.21731
 C358 C 0.06217 0.17737 1.05116
 C359 C 0.07347 0.18822 1.05127
 C360 C 0.07355 0.19927 1.06216
 C361 C 0.06232 0.19960 1.07306
 C362 C 0.05116 0.18888 1.07295
 C363 C 0.05109 0.17770 1.06193
 C364 C 0.05982 0.16484 1.04249
 N365 N 0.04761 0.15769 1.04779
 C366 C 0.04217 0.16536 1.05965
 C367 C 0.04234 0.19137 1.08530
 N368 N 0.04792 0.20332 1.09277
 C369 C 0.06012 0.20845 1.08548
 C370 C 0.08622 0.20770 1.06006
 N371 N 0.09371 0.20202 1.04820
 C372 C 0.08610 0.19012 1.04273
 H373 H 0.06668 0.16097 1.03332
 H374 H 0.03270 0.16198 1.06635
 H375 H 0.03286 0.18475 1.08883
 H376 H 0.06710 0.21764 1.08918
 H377 H 0.08993 0.21702 1.06686
 H378 H 0.08970 0.18317 1.03349
 C379 C 0.17628 0.69806 0.68723
 C380 C 0.18714 0.69797 0.67596
 C381 C 0.19794 0.68687 0.67571
 C382 C 0.19801 0.67574 0.68674
 C383 C 0.18728 0.67583 0.69788
 C384 C 0.17636 0.68706 0.69813
 C385 C 0.16398 0.70695 0.68974
 N386 N 0.15672 0.70157 0.70186
 C387 C 0.16410 0.68943 0.70709
 C388 C 0.18955 0.66331 0.70653
 N389 N 0.20137 0.65575 0.70089
 C390 C 0.20664 0.66315 0.68880
 C391 C 0.20648 0.68909 0.66312
 N392 N 0.20109 0.70122 0.65585
 C393 C 0.18929 0.70675 0.66351
 H394 H 0.16035 0.71635 0.68305
 H395 H 0.16057 0.68263 0.71645
 H396 H 0.18292 0.65975 0.71599
 H397 H 0.21581 0.65946 0.68185
 H398 H 0.21568 0.68221 0.65933
 H399 H 0.18257 0.71621 0.66007
 C400 C 1.18878 0.17688 0.19876
 C401 C 1.17764 0.18790 0.19886
 C402 C 1.17728 0.19866 0.18774
 C403 C 1.18804 0.19854 0.17638
 C404 C 1.19905 0.18764 0.17628
 C405 C 1.19942 0.17675 0.18754
 C406 C 1.19131 0.16454 0.20762
 N407 N 1.20319 0.15706 0.20201
 C408 C 1.20825 0.16434 0.18975
 C409 C 1.20743 0.18973 0.16356
 N410 N 1.20174 0.20160 0.15608
 C411 C 1.18990 0.20708 0.16371
 C412 C 1.16480 0.20734 0.19014
 N413 N 1.15772 0.20206 0.20241
 C414 C 1.16538 0.19019 0.20785
 H415 H 1.18476 0.16103 0.21715
 H416 H 1.21739 0.16063 0.18276
 H417 H 1.21672 0.18292 0.15984
 H418 H 1.18296 0.21633 0.16014
 H419 H 1.16092 0.21651 0.18327
 H420 H 1.16205 0.18350 0.21735
 C421 C 0.67544 1.05290 0.56267
 C422 C 0.68668 1.05254 0.57358
 C423 C 0.69768 1.06342 0.57372
 C424 C 0.69757 1.07480 0.56295
 C425 C 0.68647 1.07516 0.55216
 C426 C 0.67533 1.06414 0.55202
 C427 C 0.66294 1.04425 0.56033
 N428 N 0.65538 1.05000 0.54855
 C429 C 0.66276 1.06214 0.54337
 C430 C 0.68870 1.08781 0.54368
 N431 N 0.70086 1.09500 0.54910
 C432 C 0.70639 1.08725 0.56087
 C433 C 0.70659 1.06077 0.58599
 N434 N 0.70122 1.04857 0.59316
 C435 C 0.68907 1.04344 0.58576
 H436 H 0.65941 1.03472 0.56689
 H437 H 0.65907 1.06917 0.53424
 H438 H 0.68182 1.09167 0.53450
 H439 H 0.71588 1.09059 0.56760
 H440 H 0.71601 1.06741 0.58967
 H441 H 0.68228 1.03405 0.58922
 C442 C 0.56138 0.55114 0.17762
 C443 C 0.57248 0.55126 0.18868
 C444 C 0.57264 0.56247 0.19940
 C445 C 0.56171 0.57369 0.19919
 C446 C 0.55074 0.57357 0.18826
 C447 C 0.55057 0.56223 0.17741
 C448 C 0.55903 0.54218 0.16530
 N449 N 0.54710 0.54760 0.15775
 C450 C 0.54183 0.55983 0.16496
 C451 C 0.54219 0.58622 0.19025
 N452 N 0.54773 0.59388 0.20208
 C453 C 0.55965 0.58641 0.20765
 C454 C 0.58513 0.56030 0.20812
 N455 N 0.59241 0.54808 0.20291
 C456 C 0.58486 0.54246 0.19105
 H457 H 0.56574 0.53272 0.16183
 H458 H 0.53261 0.56670 0.16119
 H459 H 0.53288 0.58980 0.18339
 H460 H 0.56651 0.59016 0.21689
 H461 H 0.58888 0.56730 0.21727
 H462 H 0.58837 0.53295 0.18441
 C463 C 0.67517 0.68730 0.19714
 C464 C 0.68655 0.67654 0.19733
 C465 C 0.69744 0.67660 0.18634
 C466 C 0.69707 0.68744 0.17503
 C467 C 0.68582 0.69808 0.17484
 C468 C 0.67481 0.69801 0.18596
 C469 C 0.66273 0.68943 0.20591
 N470 N 0.65496 0.70113 0.20029
 C471 C 0.66215 0.70648 0.18811
 C472 C 0.68781 0.70664 0.16220
 N473 N 0.69994 0.70140 0.15486
 C474 C 0.70570 0.68969 0.16251
 C475 C 0.70652 0.66443 0.18883
 N476 N 0.70138 0.65711 0.20101
 C477 C 0.68920 0.66432 0.20632
 H478 H 0.65939 0.68277 0.21543
 H479 H 0.65827 0.71560 0.18117
 H480 H 0.68078 0.71573 0.15843
 H481 H 0.71523 0.68311 0.15904
 H482 H 0.71590 0.66092 0.18206
 H483 H 0.68255 0.66071 0.21574
 C484 C 0.17728 0.06195 1.05077
 C485 C 0.18826 0.07311 1.05116
 C486 C 0.19914 0.07288 1.06218
 C487 C 0.19917 0.06149 1.07294
 C488 C 0.18831 0.05046 1.07256
 C489 C 0.17731 0.05069 1.06141
 C490 C 0.16486 0.05989 1.04193
 N491 N 0.15748 0.04769 1.04698
 C492 C 0.16490 0.04197 1.05887
 C493 C 0.19052 0.04144 1.08483
 N494 N 0.20241 0.04675 1.09251
 C495 C 0.20780 0.05899 1.08544
 C496 C 0.20777 0.08550 1.06036
 N497 N 0.20236 0.09323 1.04854
 C498 C 0.19045 0.08585 1.04282
 H499 H 0.16122 0.06695 1.03281
 H500 H 0.16130 0.03246 1.06541
 H501 H 0.18375 0.03199 1.08816
 H502 H 0.21702 0.06578 1.08934
 H503 H 0.21703 0.08899 1.06732
 H504 H 0.18369 0.08968 1.03354
 C505 C 0.57439 0.19831 0.56266
 C506 C 0.56316 0.19862 0.57355
 C507 C 0.55219 0.18770 0.57362
 C508 C 0.55233 0.17633 0.56281
 C509 C 0.56343 0.17602 0.55205
 C510 C 0.57453 0.18707 0.55197
 C511 C 0.58690 0.20695 0.56041
 N512 N 0.59449 0.20120 0.54865
 C513 C 0.58711 0.18907 0.54339
 C514 C 0.56129 0.16332 0.54358
 N515 N 0.54919 0.15605 0.54898
 C516 C 0.54362 0.16382 0.56072
 C517 C 0.54331 0.19026 0.58591
 N518 N 0.54865 0.20244 0.59317
 C519 C 0.56076 0.20766 0.58580
 H520 H 0.59043 0.21646 0.56704
 H521 H 0.59084 0.18202 0.53427
 H522 H 0.56820 0.15944 0.53444
 H523 H 0.53418 0.16041 0.56744
 H524 H 0.53395 0.18355 0.58955
 H525 H 0.56754 0.21704 0.58935
 C526 C 0.07365 0.56216 0.69876
 C527 C 0.06229 0.57295 0.69892
 C528 C 0.05115 0.57258 0.68817
 C529 C 0.05122 0.56141 0.67715
 C530 C 0.06244 0.55074 0.67700
 C531 C 0.07372 0.55112 0.68787
 C532 C 0.08633 0.56029 0.70727
 N533 N 0.09396 0.54843 0.70177
 C534 C 0.08644 0.54272 0.68993
 C535 C 0.06021 0.54187 0.66459
 N536 N 0.04794 0.54694 0.65734
 C537 C 0.04234 0.55886 0.66483
 C538 C 0.04216 0.58486 0.69050
 N539 N 0.04762 0.59254 0.70236
 C540 C 0.05990 0.58545 0.70761
 H541 H 0.08993 0.56724 0.71652
 H542 H 0.09015 0.53341 0.68312
 H543 H 0.06719 0.53272 0.66087
 H544 H 0.03280 0.56541 0.66133
 H545 H 0.03263 0.58820 0.68384
 H546 H 0.06679 0.58934 0.71677
 C547 C 0.67685 0.55152 0.06105
 C548 C 0.68788 0.55144 0.07218
 C549 C 0.69867 0.56253 0.07246
 C550 C 0.69856 0.57384 0.06162
 C551 C 0.68766 0.57392 0.05061
 C552 C 0.67674 0.56269 0.05033
 C553 C 0.66449 0.54270 0.05859
 N554 N 0.65702 0.54829 0.04667
 C555 C 0.66432 0.56049 0.04152
 C556 C 0.68977 0.58660 0.04215
 N557 N 0.70164 0.59409 0.04778
 C558 C 0.70712 0.58648 0.05967
 C559 C 0.70735 0.56015 0.08495
 N560 N 0.70205 0.54793 0.09212
 C561 C 0.69016 0.54250 0.08449
 H562 H 0.66096 0.53321 0.06521
 H563 H 0.66062 0.56746 0.03235
 H564 H 0.68297 0.59031 0.03285
 H565 H 0.71638 0.59008 0.06657
 H566 H 0.71654 0.56702 0.08878
 H567 H 0.68346 0.53303 0.08790
 C568 C 0.06284 0.69910 0.57291
 C569 C 0.07401 0.69876 0.56196
 C570 C 0.07390 0.68771 0.55107
 C571 C 0.06260 0.67686 0.55101
 C572 C 0.05156 0.67719 0.56184
 C573 C 0.05168 0.68837 0.57285
 C574 C 0.06066 0.70797 0.58531
 N575 N 0.04849 0.70286 0.59265
 C576 C 0.04290 0.69090 0.58522
 C577 C 0.04261 0.66487 0.55958
 N578 N 0.04799 0.65720 0.54768
 C579 C 0.06019 0.66435 0.54234
 C580 C 0.08648 0.68963 0.54246
 N581 N 0.09409 0.70154 0.54789
 C582 C 0.08666 0.70722 0.55979
 H583 H 0.06762 0.71718 0.58897
 H584 H 0.03341 0.68432 0.58879
 H585 H 0.03316 0.66149 0.56630
 H586 H 0.06700 0.66049 0.53312
 H587 H 0.09003 0.68269 0.53320
 H588 H 0.09039 0.71655 0.56656
 C589 C 0.56248 1.05190 0.67570
 C590 C 0.57334 1.05180 0.68701
 C591 C 0.57306 1.06260 0.69814
 C592 C 0.56192 1.07361 0.69812
 C593 C 0.55118 1.07371 0.68695
 C594 C 0.55147 1.06279 0.67567
 C595 C 0.56049 1.04329 0.66307
 N596 N 0.54856 1.04873 0.65552
 C597 C 0.54295 1.06064 0.66303
 C598 C 0.54231 1.08609 0.68925
 N599 N 0.54745 1.09336 0.70152
 C600 C 0.55941 1.08593 0.70704
 C601 C 0.58534 1.06027 0.70711
 N602 N 0.59294 1.04836 0.70165
 C603 C 0.58579 1.04309 0.68938
 H604 H 0.56738 1.03401 0.65947
 H605 H 0.53361 1.06741 0.65938
 H606 H 0.53309 1.08974 0.68233
 H607 H 0.56601 1.08943 0.71658
 H608 H 0.58872 1.06694 0.71664
 H609 H 0.58959 1.03386 0.68251
 C610 C 0.44726 0.32505 0.93706
 C611 C 0.44733 0.31400 0.92591
 C612 C 0.43670 0.30275 0.92607
 C613 C 0.42588 0.30241 0.93737
 C614 C 0.42581 0.31333 0.94838
 C615 C 0.43656 0.32472 0.94823
 C616 C 0.45573 0.33772 0.93925
 N617 N 0.45039 0.34494 0.95145
 C618 C 0.43868 0.33719 0.95704
 C619 C 0.41362 0.31070 0.95736
 N620 N 0.40642 0.29849 0.95202
 C621 C 0.41373 0.29332 0.93982
 C622 C 0.43896 0.29408 0.91354
 N623 N 0.45066 0.29982 0.90591
 C624 C 0.45588 0.31198 0.91329
 H625 H 0.46484 0.34158 0.93232
 H626 H 0.43202 0.34056 0.96657
 H627 H 0.41002 0.31737 0.96680
 H628 H 0.41023 0.28391 0.93304
 H629 H 0.43239 0.28453 0.91003
 H630 H 0.46498 0.31901 0.90955
 C631 C 0.94670 0.43588 0.32516
 C632 C 0.94659 0.42485 0.31400
 C633 C 0.93561 0.42496 0.30309
 C634 C 0.92460 0.43611 0.30320
 C635 C 0.92471 0.44701 0.31423
 C636 C 0.93582 0.44690 0.32528
 C637 C 0.95554 0.43807 0.33758
 N638 N 0.95024 0.45012 0.34508
 C639 C 0.93821 0.45562 0.33776
 C640 C 0.91233 0.45588 0.31203
 N641 N 0.90486 0.45059 0.29997
 C642 C 0.91217 0.43852 0.29447
 C643 C 0.93781 0.41256 0.29420
 N644 N 0.94982 0.40505 0.29950
 C645 C 0.95529 0.41238 0.31158
 H646 H 0.96488 0.43122 0.34109
 H647 H 0.93151 0.46502 0.34143
 H648 H 0.90883 0.46525 0.31887
 H649 H 0.90851 0.43183 0.28506
 H650 H 0.93100 0.40905 0.28482
 H651 H 0.96467 0.40870 0.31829
 C652 C 0.30229 0.93757 0.42572
 C653 C 0.30210 0.92682 0.43712
 C654 C 0.31285 0.92715 0.44826
 C655 C 0.32392 0.93823 0.44813
 C656 C 0.32411 0.94885 0.43686
 C657 C 0.31323 0.94852 0.42559
 C658 C 0.29373 0.93947 0.41306
 N659 N 0.29925 0.95128 0.40539
 C660 C 0.31116 0.95691 0.41285
 C661 C 0.33653 0.95766 0.43909
 N662 N 0.34373 0.95259 0.45141
 C663 C 0.33622 0.94073 0.45704
 C664 C 0.31046 0.91494 0.45731
 N665 N 0.29855 0.90734 0.45191
 C666 C 0.29334 0.91442 0.43958
 H667 H 0.28443 0.93259 0.40952
 H668 H 0.31798 0.96618 0.40911
 H669 H 0.34026 0.96679 0.43208
 H670 H 0.33966 0.93420 0.46663
 H671 H 0.31710 0.91160 0.46686
 H672 H 0.28414 0.91059 0.43272
 O673 O 0.25095 0.48019 0.78998
 O674 O 0.22550 0.48217 0.78517
 O675 O 0.26900 0.45979 0.75078
 O676 O 0.26985 0.46428 0.72622
 O677 O 0.28977 0.49911 0.76985
 O678 O 0.28491 0.52453 0.76785
 O679 O 0.23038 0.50030 0.71117
 O680 O 0.23324 0.47492 0.71535
 O681 O 0.21112 0.51905 0.74915
 O682 O 0.21543 0.51894 0.77502
 O683 O 0.24888 0.53868 0.73080
 O684 O 0.27546 0.53369 0.73138
 O685 O 0.24832 0.51828 0.71107
 O686 O 0.27614 0.51668 0.71663
 O687 O 0.23126 0.53895 0.74900
 O688 O 0.23395 0.53216 0.77737
 O689 O 0.21115 0.50134 0.73090
 O690 O 0.21589 0.47421 0.73583
 O691 O 0.26864 0.49847 0.79015
 O692 O 0.26546 0.52551 0.78427
 O693 O 0.28997 0.48129 0.75165
 O694 O 0.28387 0.48340 0.72442
 O695 O 0.25137 0.45977 0.76902
 O696 O 0.22443 0.46570 0.76564
 Zr697 Zr 0.24201 0.48139 0.76827
 O698 O 0.22772 0.49485 0.75533
 Zr699 Zr 0.26838 0.48166 0.74218
 O700 O 0.25488 0.49451 0.72782
 Zr701 Zr 0.26808 0.50793 0.76853
 O702 O 0.25513 0.52226 0.75504
 Zr703 Zr 0.23222 0.49109 0.73264
 O704 O 0.24568 0.47649 0.74552
 Zr705 Zr 0.23249 0.51758 0.75875
 O706 O 0.24543 0.50416 0.77327
 Zr707 Zr 0.25848 0.51728 0.73232
 O708 O 0.27308 0.50441 0.74578
 O709 O 0.26456 0.48529 0.76471
 O710 O 0.23588 0.51385 0.73605
 C711 C 0.26123 0.48788 0.79647
 C712 C 0.26164 0.45335 0.76130
 C713 C 0.29627 0.48880 0.76222
 C714 C 0.23760 0.51099 0.70485
 C715 C 0.20490 0.51198 0.73828
 C716 C 0.23837 0.54509 0.73816
 H717 H 0.21722 0.49246 0.75774
 H718 H 0.25761 0.53278 0.75740
 H719 H 0.27094 0.47887 0.77106
 H720 H 0.25708 0.49190 0.71731
 H721 H 0.23645 0.46544 0.72007
 H722 H 0.26173 0.46598 0.71894
 H723 H 0.24069 0.54048 0.77465
 H724 H 0.27329 0.52452 0.79206
 H725 H 0.20877 0.47472 0.72734
 H726 H 0.22538 0.45793 0.77350
 H727 H 0.27518 0.53937 0.74087
 H728 H 0.28902 0.52443 0.75758
 H729 H 0.22583 0.49236 0.78952
 H730 H 0.21101 0.50886 0.77594
 H731 H 0.28989 0.49249 0.72632
 H732 H 0.27403 0.50855 0.70942
 O733 O 0.21039 0.01904 0.24915
 O734 O 0.21522 0.01715 0.27466
 O735 O 0.24947 0.03936 0.23100
 O736 O 0.27397 0.03485 0.23009
 O737 O 0.23046 -0.00003 0.21026
 O738 O 0.23253 -0.02544 0.21519
 O739 O 0.28913 -0.00094 0.26965
 O740 O 0.28485 0.02441 0.26678
 O741 O 0.25132 -0.01968 0.28910
 O742 O 0.22548 -0.01954 0.28484
 O743 O 0.26954 -0.03946 0.25127
 O744 O 0.26894 -0.03460 0.22465
 O745 O 0.28923 -0.01902 0.25173
 O746 O 0.28359 -0.01758 0.22387
 O747 O 0.25138 -0.03966 0.26893
 O748 O 0.22308 -0.03282 0.26633
 O749 O 0.26949 -0.00197 0.28898
 O750 O 0.26447 0.02513 0.28423
 O751 O 0.21023 0.00069 0.23147
 O752 O 0.21614 -0.02633 0.23469
 O753 O 0.24859 0.01778 0.21001
 O754 O 0.27577 0.01568 0.21608
 O755 O 0.23128 0.03946 0.24868
 O756 O 0.23468 0.03363 0.27568
 Zr757 Zr 0.23207 0.01788 0.25809
 O758 O 0.24503 0.00448 0.27242
 Zr759 Zr 0.25807 0.01748 0.23163
 O760 O 0.27244 0.00469 0.24516
 Zr761 Zr 0.23182 -0.00876 0.23201
 O762 O 0.24533 -0.02304 0.24501
 Zr763 Zr 0.26767 0.00821 0.26786
 O764 O 0.25476 0.02276 0.25437
 Zr765 Zr 0.24166 -0.01826 0.26771
 O766 O 0.22713 -0.00491 0.25471
 Zr767 Zr 0.26799 -0.01810 0.24161
 O768 O 0.25451 -0.00528 0.22697
 O769 O 0.23560 0.01389 0.23549
 O770 O 0.26430 -0.01457 0.26426
 C771 C 0.20391 0.01131 0.23888
 C772 C 0.23899 0.04584 0.23838
 C773 C 0.23805 0.01026 0.20372
 C774 C 0.29545 -0.01164 0.26242
 C775 C 0.26218 -0.01259 0.29528
 C776 C 0.26218 -0.04584 0.26180
 H777 H 0.24266 0.00691 0.28295
 H778 H 0.24298 -0.03357 0.24255
 H779 H 0.22924 0.02028 0.22909
 H780 H 0.28292 0.00729 0.24292
 H781 H 0.28010 0.03388 0.26357
 H782 H 0.28124 0.03319 0.23823
 H783 H 0.22575 -0.04113 0.25952
 H784 H 0.20837 -0.02537 0.22684
 H785 H 0.27295 0.02466 0.29134
 H786 H 0.22682 0.04139 0.27472
 H787 H 0.25944 -0.04023 0.22492
 H788 H 0.24275 -0.02533 0.21103
 H789 H 0.21092 0.00696 0.27436
 H790 H 0.22456 -0.00944 0.28927
 H791 H 0.27388 0.00657 0.21006
 H792 H 0.29077 -0.00943 0.22593
 O793 O 0.49891 0.77025 0.29008
 O794 O 0.52433 0.76832 0.28530
 O795 O 0.48077 0.79056 0.25086
 O796 O 0.47983 0.78600 0.22631
 O797 O 0.46008 0.75123 0.26990
 O798 O 0.46498 0.72582 0.26786
 O799 O 0.51936 0.75010 0.21126
 O800 O 0.51646 0.77547 0.21550
 O801 O 0.53873 0.73138 0.24917
 O802 O 0.53449 0.73158 0.27507
 O803 O 0.50098 0.71166 0.23084
 O804 O 0.47441 0.71659 0.23137
 O805 O 0.50150 0.73203 0.21112
 O806 O 0.47366 0.73360 0.21666
 O807 O 0.51861 0.71145 0.24908
 O808 O 0.51602 0.71833 0.27743
 O809 O 0.53861 0.74908 0.23097
 O810 O 0.53386 0.77621 0.23597
 O811 O 0.48126 0.75194 0.29022
 O812 O 0.48446 0.72490 0.28430
 O813 O 0.45982 0.76901 0.25172
 O814 O 0.46587 0.76685 0.22449
 O815 O 0.49842 0.79065 0.26913
 O816 O 0.52536 0.78475 0.26579
 Zr817 Zr 0.50780 0.76904 0.26838
 O818 O 0.52210 0.75560 0.25543
 Zr819 Zr 0.48138 0.76866 0.24227
 O820 O 0.49489 0.75582 0.22790
 Zr821 Zr 0.48178 0.74246 0.26858
 O822 O 0.49474 0.72813 0.25508
 Zr823 Zr 0.51754 0.75931 0.23274
 O824 O 0.50407 0.77390 0.24563
 Zr825 Zr 0.51739 0.73287 0.25881
 O826 O 0.50443 0.74627 0.27334
 Zr827 Zr 0.49135 0.73305 0.23236
 O828 O 0.47675 0.74592 0.24583
 O829 O 0.48525 0.76510 0.26480
 O830 O 0.51395 0.73654 0.23611
 C831 C 0.48866 0.76255 0.29657
 C832 C 0.48814 0.79704 0.26138
 C833 C 0.45354 0.76151 0.26226
 C834 C 0.51218 0.73937 0.20492
 C835 C 0.54489 0.73844 0.23830
 C836 C 0.51149 0.70527 0.23824
 H837 H 0.53260 0.75800 0.25784
 H838 H 0.49229 0.71761 0.25743
 H839 H 0.47887 0.77152 0.27115
 H840 H 0.49266 0.75841 0.21739
 H841 H 0.51325 0.78495 0.22024
 H842 H 0.48797 0.78433 0.21906
 H843 H 0.50922 0.71004 0.27474
 H844 H 0.47664 0.72589 0.29208
 H845 H 0.54096 0.77571 0.22749
 H846 H 0.52440 0.79254 0.27365
 H847 H 0.47468 0.71097 0.24088
 H848 H 0.46085 0.72590 0.25759
 H849 H 0.52407 0.75813 0.28959
 H850 H 0.53893 0.74167 0.27596
 H851 H 0.45987 0.75775 0.22637
 H852 H 0.47576 0.74170 0.20944
 O853 O 0.03981 0.73061 0.74923
 O854 O 0.03498 0.73260 0.77473
 O855 O 0.00078 0.71025 0.73094
 O856 O -0.02374 0.71475 0.72999
 O857 O 0.01978 0.74959 0.71029
 O858 O 0.01774 0.77501 0.71521
 O859 O -0.03889 0.75075 0.76955
 O860 O -0.03467 0.72536 0.76663
 O861 O -0.00106 0.76945 0.78906
 O862 O 0.02480 0.76930 0.78483
 O863 O -0.01934 0.78912 0.75123
 O864 O -0.01865 0.78418 0.72454
 O865 O -0.03898 0.76875 0.75161
 O866 O -0.03337 0.76719 0.72375
 O867 O -0.00121 0.78935 0.76896
 O868 O 0.02711 0.78259 0.76635
 O869 O -0.01926 0.75177 0.78889
 O870 O -0.01428 0.72463 0.78412
 O871 O 0.04000 0.74890 0.73154
 O872 O 0.03410 0.77595 0.73478
 O873 O 0.00166 0.73177 0.70997
 O874 O -0.02552 0.73389 0.71596
 O875 O 0.01893 0.71021 0.74871
 O876 O 0.01552 0.71612 0.77569
 Zr877 Zr 0.01814 0.73182 0.75811
 O878 O 0.00518 0.74526 0.77240
 Zr879 Zr -0.00784 0.73213 0.73156
 O880 O -0.02221 0.74498 0.74506
 Zr881 Zr 0.01841 0.75838 0.73204
 O882 O 0.00491 0.77271 0.74499
 Zr883 Zr -0.01745 0.74152 0.76777
 O884 O -0.00455 0.72693 0.75431
 Zr885 Zr 0.00857 0.76799 0.76769
 O886 O 0.02310 0.75459 0.75474
 Zr887 Zr -0.01775 0.76775 0.74152
 O888 O -0.00427 0.75488 0.72692
 O889 O 0.01463 0.73574 0.73550
 O890 O -0.01406 0.76428 0.76418
 C891 C 0.04630 0.73828 0.73896
 C892 C 0.01126 0.70380 0.73837
 C893 C 0.01220 0.73928 0.70371
 C894 C -0.04519 0.76145 0.76232
 C895 C -0.01193 0.76240 0.79522
 C896 C -0.01204 0.79550 0.76183
 H897 H 0.00755 0.74286 0.78293
 H898 H 0.00725 0.78323 0.74255
 H899 H 0.02098 0.72932 0.72912
 H900 H -0.03270 0.74238 0.74279
 H901 H -0.02994 0.71588 0.76342
 H902 H -0.03103 0.71646 0.73808
 H903 H 0.02439 0.79092 0.75960
 H904 H 0.04189 0.77496 0.72697
 H905 H -0.02276 0.72514 0.79122
 H906 H 0.02339 0.70836 0.77476
 H907 H -0.00922 0.78990 0.72493
 H908 H 0.00750 0.77493 0.71106
 H909 H 0.03931 0.74278 0.77442
 H910 H 0.02566 0.75923 0.78930
 H911 H -0.02364 0.74299 0.70996
 H912 H -0.04054 0.75904 0.72580
 O913 O 0.00088 0.03984 0.01982
 O914 O -0.02457 0.03503 0.01788
 O915 O 0.01904 0.00062 0.04008
 O916 O 0.01996 -0.02394 0.03552
 O917 O 0.03969 0.01970 0.00077
 O918 O 0.03476 0.01768 -0.02461
 O919 O -0.01958 -0.03904 -0.00041
 O920 O -0.01669 -0.03481 0.02496
 O921 O -0.03897 -0.00107 -0.01907
 O922 O -0.03470 0.02485 -0.01886
 O923 O -0.00127 -0.01945 -0.03875
 O924 O 0.02535 -0.01881 -0.03385
 O925 O -0.00168 -0.03915 -0.01842
 O926 O 0.02612 -0.03355 -0.01688
 O927 O -0.01892 -0.00123 -0.03895
 O928 O -0.01623 0.02717 -0.03213
 O929 O -0.03884 -0.01934 -0.00144
 O930 O -0.03410 -0.01434 0.02570
 O931 O 0.01851 0.04001 0.00152
 O932 O 0.01527 0.03410 -0.02552
 O933 O 0.03997 0.00151 0.01854
 O934 O 0.03391 -0.02575 0.01639
 O935 O 0.00138 0.01888 0.04018
 O936 O -0.02556 0.01549 0.03429
 Zr937 Zr -0.00803 0.01812 0.01859
 O938 O -0.02233 0.00516 0.00513
 Zr939 Zr 0.01840 -0.00798 0.01820
 O940 O 0.00488 -0.02236 0.00535
 Zr941 Zr 0.01797 0.01837 -0.00799
 O942 O 0.00501 0.00485 -0.02232
 Zr943 Zr -0.01777 -0.01755 0.00882
 O944 O -0.00430 -0.00465 0.02342
 Zr945 Zr -0.01763 0.00856 -0.01758
 O946 O -0.00467 0.02310 -0.00416
 Zr947 Zr 0.00842 -0.01787 -0.01740
 O948 O 0.02302 -0.00439 -0.00453
 O949 O 0.01452 0.01457 0.01464
 O950 O -0.01418 -0.01414 -0.01392
 C951 C 0.01112 0.04634 0.01213
 C952 C 0.01167 0.01114 0.04656
 C953 C 0.04624 0.01206 0.01105
 C954 C -0.01238 -0.04537 -0.01112
 C955 C -0.04513 -0.01198 -0.01206
 C956 C -0.01183 -0.01210 -0.04511
 H957 H -0.03283 0.00756 0.00754
 H958 H 0.00745 0.00720 -0.03283
 H959 H 0.02091 0.02092 0.02106
 H960 H 0.00712 -0.03288 0.00793
 H961 H -0.01348 -0.03006 0.03444
 H962 H 0.01181 -0.03119 0.03386
 H963 H -0.00953 0.02443 -0.04047
 H964 H 0.02308 0.04191 -0.02452
 H965 H -0.04120 -0.02283 0.02517
 H966 H -0.02460 0.02336 0.04207
 H967 H 0.02499 -0.00933 -0.03954
 H968 H 0.03886 0.00740 -0.02457
 H969 H -0.02429 0.03935 0.00770
 H970 H -0.03915 0.02573 -0.00878
 H971 H 0.03991 -0.02385 0.00730
 H972 H 0.02406 -0.04076 -0.00876
 O973 O 0.00087 0.53959 0.51939
 O974 O -0.02459 0.53483 0.51739
 O975 O 0.01891 0.50034 0.53969
 O976 O 0.01980 0.47577 0.53513
 O977 O 0.03966 0.51938 0.50043
 O978 O 0.03479 0.51735 0.47502
 O979 O -0.01973 0.46075 0.49912
 O980 O -0.01684 0.46497 0.52450
 O981 O -0.03900 0.49876 0.48046
 O982 O -0.03468 0.52466 0.48065
 O983 O -0.00129 0.48032 0.46081
 O984 O 0.02530 0.48087 0.46576
 O985 O -0.00181 0.46060 0.48114
 O986 O 0.02602 0.46613 0.48275
 O987 O -0.01890 0.49857 0.46059
 O988 O -0.01619 0.52696 0.46742
 O989 O -0.03894 0.48051 0.49810
 O990 O -0.03420 0.48548 0.52524
 O991 O 0.01853 0.53972 0.50111
 O992 O 0.01533 0.53381 0.47407
 O993 O 0.03987 0.50120 0.51821
 O994 O 0.03379 0.47395 0.51601
 O995 O 0.00129 0.51863 0.53975
 O996 O -0.02565 0.51531 0.53381
 Zr997 Zr -0.00808 0.51789 0.51814
 O998 O -0.02238 0.50496 0.50467
 Zr999 Zr 0.01830 0.49174 0.51780
 O1000 O 0.00477 0.47738 0.50493
 Zr1001 Zr 0.01797 0.51808 0.49161
 O1002 O 0.00500 0.50459 0.47726
 Zr1003 Zr -0.01787 0.48224 0.50837
 O1004 O -0.00440 0.49512 0.52299
 Zr1005 Zr -0.01763 0.50835 0.48196
 O1006 O -0.00467 0.52286 0.49540
 Zr1007 Zr 0.00836 0.48185 0.48219
 O1008 O 0.02297 0.49531 0.49508
 O1009 O 0.01447 0.51429 0.51423
 O1010 O -0.01424 0.48563 0.48563
 C1011 C 0.01115 0.54607 0.51172
 C1012 C 0.01155 0.51088 0.54614
 C1013 C 0.04617 0.51176 0.51074
 C1014 C -0.01253 0.45441 0.48843
 C1015 C -0.04520 0.48788 0.48748
 C1016 C -0.01182 0.48769 0.45443
 H1017 H -0.03289 0.50737 0.50706
 H1018 H 0.00747 0.50693 0.46676
 H1019 H 0.02085 0.52063 0.52066
 H1020 H 0.00698 0.46686 0.50751
 H1021 H -0.01363 0.46970 0.53399
 H1022 H 0.01165 0.46851 0.53343
 H1023 H -0.00946 0.52421 0.45910
 H1024 H 0.02316 0.54160 0.47508
 H1025 H -0.04132 0.47700 0.52471
 H1026 H -0.02469 0.52318 0.54159
 H1027 H 0.02501 0.49037 0.46012
 H1028 H 0.03889 0.50707 0.47510
 H1029 H -0.02427 0.53917 0.50722
 H1030 H -0.03913 0.52557 0.49072
 H1031 H 0.03981 0.47584 0.50694
 H1032 H 0.02391 0.45892 0.49086
 O1033 O 0.46010 -0.00088 0.48049
 O1034 O 0.46488 0.02463 0.48248
 O1035 O 0.49918 -0.01909 0.46022
 O1036 O 0.52367 -0.02007 0.46478
 O1037 O 0.48016 -0.03980 0.49955
 O1038 O 0.48214 -0.03483 0.52493
 O1039 O 0.53875 0.01962 0.50067
 O1040 O 0.53454 0.01667 0.47532
 O1041 O 0.50093 0.03909 0.51935
 O1042 O 0.47508 0.03482 0.51920
 O1043 O 0.51921 0.00124 0.53907
 O1044 O 0.51862 -0.02541 0.53415
 O1045 O 0.53888 0.00171 0.51871
 O1046 O 0.53328 -0.02621 0.51714
 O1047 O 0.50106 0.01896 0.53928
 O1048 O 0.47275 0.01632 0.53246
 O1049 O 0.51909 0.03893 0.50166
 O1050 O 0.51412 0.03412 0.47456
 O1051 O 0.45991 -0.01857 0.49877
 O1052 O 0.46579 -0.01527 0.52583
 O1053 O 0.49828 -0.04009 0.48176
 O1054 O 0.52547 -0.03404 0.48391
 O1055 O 0.48101 -0.00135 0.46014
 O1056 O 0.48436 0.02565 0.46606
 Zr1057 Zr 0.48175 0.00805 0.48174
 O1058 O 0.49469 0.02239 0.49518
 Zr1059 Zr 0.50776 -0.01847 0.48211
 O1060 O 0.52212 -0.00492 0.49494
 Zr1061 Zr 0.48149 -0.01802 0.50830
 O1062 O 0.49499 -0.00502 0.52262
 Zr1063 Zr 0.51732 0.01779 0.49146
 O1064 O 0.50444 0.00428 0.47688
 Zr1065 Zr 0.49131 0.01768 0.51790
 O1066 O 0.47678 0.00470 0.50450
 Zr1067 Zr 0.51766 -0.00845 0.51770
 O1068 O 0.50418 -0.02309 0.50484
 O1069 O 0.48528 -0.01457 0.48567
 O1070 O 0.51395 0.01421 0.51421
 C1071 C 0.45361 -0.01116 0.48815
 C1072 C 0.48872 -0.01167 0.45375
 C1073 C 0.48776 -0.04638 0.48927
 C1074 C 0.54507 0.01243 0.51138
 C1075 C 0.51177 0.04526 0.51228
 C1076 C 0.51188 0.01182 0.54545
 H1077 H 0.49230 0.03292 0.49278
 H1078 H 0.49265 -0.00748 0.53313
 H1079 H 0.47894 -0.02097 0.47925
 H1080 H 0.53260 -0.00717 0.49235
 H1081 H 0.52981 0.01344 0.46584
 H1082 H 0.53092 -0.01191 0.46644
 H1083 H 0.47546 0.00954 0.54077
 H1084 H 0.45799 -0.02309 0.52482
 H1085 H 0.52259 0.04124 0.47506
 H1086 H 0.47651 0.02470 0.45829
 H1087 H 0.50914 -0.02511 0.53978
 H1088 H 0.49239 -0.03896 0.52489
 H1089 H 0.46056 0.02434 0.49266
 H1090 H 0.47417 0.03924 0.50911
 H1091 H 0.52357 -0.04005 0.49300
 H1092 H 0.54050 -0.02411 0.50905
 O1093 O 0.50053 0.54006 0.01961
 O1094 O 0.47507 0.53529 0.01759
 O1095 O 0.51861 0.50090 0.03999
 O1096 O 0.51951 0.47632 0.03550
 O1097 O 0.53932 0.51984 0.00065
 O1098 O 0.53441 0.51777 -0.02475
 O1099 O 0.48000 0.46116 -0.00048
 O1100 O 0.48290 0.46542 0.02488
 O1101 O 0.46067 0.49909 -0.01922
 O1102 O 0.46494 0.52497 -0.01911
 O1103 O 0.49845 0.48068 -0.03886
 O1104 O 0.52503 0.48125 -0.03387
 O1105 O 0.49791 0.46099 -0.01847
 O1106 O 0.52572 0.46653 -0.01687
 O1107 O 0.48080 0.49890 -0.03912
 O1108 O 0.48343 0.52730 -0.03232
 O1109 O 0.46076 0.48090 -0.00151
 O1110 O 0.46552 0.48592 0.02560
 O1111 O 0.51820 0.54017 0.00134
 O1112 O 0.51495 0.53423 -0.02569
 O1113 O 0.53957 0.50170 0.01847
 O1114 O 0.53350 0.47445 0.01638
 O1115 O 0.50094 0.51915 0.04000
 O1116 O 0.47401 0.51580 0.03407
 Zr1117 Zr 0.49159 0.51836 0.01840
 O1118 O 0.47730 0.50537 0.00496
 Zr1119 Zr 0.51799 0.49224 0.01812
 O1120 O 0.50449 0.47783 0.00529
 Zr1121 Zr 0.51762 0.51851 -0.00813
 O1122 O 0.50467 0.50497 -0.02245
 Zr1123 Zr 0.48184 0.48267 0.00872
 O1124 O 0.49530 0.49560 0.02330
 Zr1125 Zr 0.48203 0.50870 -0.01775
 O1126 O 0.49497 0.52328 -0.00436
 Zr1127 Zr 0.50806 0.48225 -0.01747
 O1128 O 0.52265 0.49576 -0.00461
 O1129 O 0.51414 0.51477 0.01450
 O1130 O 0.48545 0.48600 -0.01403
 C1131 C 0.51081 0.54652 0.01194
 C1132 C 0.51122 0.51143 0.04642
 C1133 C 0.54586 0.51223 0.01095
 C1134 C 0.48720 0.45480 -0.01117
 C1135 C 0.45448 0.48824 -0.01215
 C1136 C 0.48793 0.48805 -0.04527
 H1137 H 0.46679 0.50778 0.00735
 H1138 H 0.50714 0.50730 -0.03295
 H1139 H 0.52053 0.52113 0.02091
 H1140 H 0.50671 0.46731 0.00789
 H1141 H 0.48611 0.47018 0.03436
 H1142 H 0.51139 0.46904 0.03381
 H1143 H 0.49020 0.52457 -0.04062
 H1144 H 0.52277 0.54202 -0.02470
 H1145 H 0.45842 0.47743 0.02510
 H1146 H 0.47496 0.52370 0.04182
 H1147 H 0.52472 0.49072 -0.03955
 H1148 H 0.53854 0.50750 -0.02465
 H1149 H 0.47541 0.53962 0.00742
 H1150 H 0.46055 0.52595 -0.00902
 H1151 H 0.53950 0.47631 0.00728
 H1152 H 0.52363 0.45935 -0.00875
 O1153 O 0.76979 0.28958 0.49899
 O1154 O 0.76766 0.28478 0.52452
 O1155 O 0.79009 0.25026 0.48098
 O1156 O 0.78556 0.22563 0.48032
 O1157 O 0.75121 0.26932 0.45997
 O1158 O 0.72542 0.26662 0.46492
 O1159 O 0.74941 0.21082 0.51950
 O1160 O 0.77478 0.21485 0.51661
 O1161 O 0.73103 0.24888 0.53886
 O1162 O 0.73269 0.27610 0.53338
 O1163 O 0.71127 0.23073 0.50104
 O1164 O 0.71618 0.23133 0.47438
 O1165 O 0.73146 0.21080 0.50151
 O1166 O 0.73293 0.21627 0.47371
 O1167 O 0.71123 0.24875 0.51897
 O1168 O 0.71527 0.27462 0.51629
 O1169 O 0.74862 0.23059 0.53883
 O1170 O 0.77568 0.23535 0.53403
 O1171 O 0.75161 0.28974 0.48120
 O1172 O 0.72475 0.28414 0.48285
 O1173 O 0.76884 0.25101 0.45986
 O1174 O 0.76648 0.22390 0.46592
 O1175 O 0.79006 0.26861 0.49860
 O1176 O 0.78419 0.26533 0.52551
 Zr1177 Zr 0.76849 0.26789 0.50791
 O1178 O 0.75512 0.25494 0.52224
 Zr1179 Zr 0.76826 0.24166 0.48151
 O1180 O 0.75529 0.22740 0.49498
 Zr1181 Zr 0.74217 0.26810 0.48159
 O1182 O 0.72788 0.25486 0.49476
 Zr1183 Zr 0.75877 0.23223 0.51769
 O1184 O 0.77336 0.24509 0.50427
 Zr1185 Zr 0.73249 0.25849 0.51747
 O1186 O 0.74577 0.27296 0.50433
 Zr1187 Zr 0.73260 0.23206 0.49138
 O1188 O 0.74560 0.24530 0.47671
 O1189 O 0.76470 0.26424 0.48528
 O1190 O 0.73609 0.23577 0.51404
 C1191 C 0.76218 0.29607 0.48867
 C1192 C 0.79649 0.26083 0.48835
 C1193 C 0.76148 0.26163 0.45351
 C1194 C 0.73870 0.20455 0.51226
 C1195 C 0.73806 0.23802 0.54510
 C1196 C 0.70499 0.23801 0.51172
 H1197 H 0.75760 0.25732 0.53276
 H1198 H 0.71739 0.25737 0.49242
 H1199 H 0.77114 0.27057 0.47893
 H1200 H 0.75778 0.21686 0.49276
 H1201 H 0.78425 0.21953 0.51338
 H1202 H 0.78343 0.21805 0.48805
 H1203 H 0.71910 0.28287 0.51001
 H1204 H 0.72611 0.29155 0.47470
 H1205 H 0.77515 0.22687 0.54114
 H1206 H 0.79187 0.27328 0.52461
 H1207 H 0.71063 0.24089 0.47472
 H1208 H 0.72637 0.25664 0.46020
 H1209 H 0.75753 0.28915 0.52415
 H1210 H 0.74137 0.27460 0.54004
 H1211 H 0.75734 0.22573 0.45998
 H1212 H 0.74116 0.20916 0.47567
 O1213 O 0.76950 0.79020 -0.00145
 O1214 O 0.76736 0.78536 0.02405
 O1215 O 0.78965 0.75085 -0.01957
 O1216 O 0.78502 0.72626 -0.02038
 O1217 O 0.75080 0.77013 -0.04051
 O1218 O 0.72501 0.76750 -0.03555
 O1219 O 0.74897 0.71143 0.01881
 O1220 O 0.77433 0.71546 0.01596
 O1221 O 0.73063 0.74949 0.03833
 O1222 O 0.73237 0.77672 0.03294
 O1223 O 0.71081 0.73147 0.00052
 O1224 O 0.71563 0.73215 -0.02613
 O1225 O 0.73099 0.71149 0.00085
 O1226 O 0.73242 0.71711 -0.02694
 O1227 O 0.71083 0.74946 0.01848
 O1228 O 0.71493 0.77534 0.01585
 O1229 O 0.74816 0.73113 0.03822
 O1230 O 0.77523 0.73589 0.03345
 O1231 O 0.75130 0.79048 -0.01922
 O1232 O 0.72441 0.78495 -0.01754
 O1233 O 0.76839 0.75178 -0.04069
 O1234 O 0.76594 0.72464 -0.03471
 O1235 O 0.78970 0.76916 -0.00190
 O1236 O 0.78382 0.76586 0.02500
 Zr1237 Zr 0.76813 0.76850 0.00741
 O1238 O 0.75473 0.75555 0.02172
 Zr1239 Zr 0.76779 0.74235 -0.01908
 O1240 O 0.75480 0.72809 -0.00562
 Zr1241 Zr 0.74178 0.76886 -0.01888
 O1242 O 0.72747 0.75561 -0.00574
 Zr1243 Zr 0.75832 0.73284 0.01709
 O1244 O 0.77293 0.74570 0.00369
 Zr1245 Zr 0.73210 0.75917 0.01697
 O1246 O 0.74542 0.77365 0.00387
 Zr1247 Zr 0.73213 0.73281 -0.00919
 O1248 O 0.74514 0.74607 -0.02384
 O1249 O 0.76431 0.76493 -0.01523
 O1250 O 0.73565 0.73644 0.01348
 C1251 C 0.76190 0.79675 -0.01175
 C1252 C 0.79609 0.76137 -0.01216
 C1253 C 0.76106 0.76244 -0.04700
 C1254 C 0.73826 0.70519 0.01155
 C1255 C 0.73761 0.73856 0.04452
 C1256 C 0.70457 0.73874 0.01123
 H1257 H 0.75722 0.75788 0.03224
 H1258 H 0.71698 0.75816 -0.00806
 H1259 H 0.77077 0.77126 -0.02156
 H1260 H 0.75728 0.71755 -0.00789
 H1261 H 0.78380 0.72014 0.01274
 H1262 H 0.78294 0.71872 -0.01259
 H1263 H 0.71878 0.78361 0.00962
 H1264 H 0.72579 0.79239 -0.02565
 H1265 H 0.77468 0.72739 0.04054
 H1266 H 0.79153 0.77377 0.02411
 H1267 H 0.71016 0.74175 -0.02579
 H1268 H 0.72591 0.75752 -0.04028
 H1269 H 0.75723 0.78974 0.02372
 H1270 H 0.74104 0.77518 0.03960
 H1271 H 0.75682 0.72655 -0.04067
 H1272 H 0.74061 0.70996 -0.02501
 O1273 O 1.00144 0.20997 0.23013
 O1274 O 0.97600 0.21475 0.23204
 O1275 O 1.01949 0.24922 0.20987
 O1276 O 1.02037 0.27379 0.21443
 O1277 O 1.04026 0.23016 0.24916
 O1278 O 1.03538 0.23218 0.27456
 O1279 O 0.98084 0.28881 0.25035
 O1280 O 0.98374 0.28461 0.22497
 O1281 O 0.96158 0.25084 0.26896
 O1282 O 0.96591 0.22491 0.26876
 O1283 O 0.99930 0.26923 0.28871
 O1284 O 1.02589 0.26867 0.28381
 O1285 O 0.99874 0.28895 0.26839
 O1286 O 1.02659 0.28342 0.26682
 O1287 O 0.98168 0.25099 0.28888
 O1288 O 0.98439 0.22261 0.28205
 O1289 O 0.96164 0.26907 0.25130
 O1290 O 0.96638 0.26411 0.22418
 O1291 O 1.01911 0.20982 0.24843
 O1292 O 1.01593 0.21573 0.27547
 O1293 O 1.04046 0.24836 0.23141
 O1294 O 1.03435 0.27561 0.23359
 O1295 O 1.00188 0.23094 0.20976
 O1296 O 0.97493 0.23428 0.21563
 Zr1297 Zr 0.99251 0.23168 0.23134
 O1298 O 0.97820 0.24462 0.24479
 Zr1299 Zr 1.01887 0.25782 0.23176
 O1300 O 1.00535 0.27218 0.24460
 Zr1301 Zr 1.01856 0.23147 0.25793
 O1302 O 1.00559 0.24496 0.27225
 Zr1303 Zr 0.98271 0.26733 0.24109
 O1304 O 0.99618 0.25445 0.22651
 Zr1305 Zr 0.98295 0.24122 0.26750
 O1306 O 0.99591 0.22670 0.25410
 Zr1307 Zr 1.00893 0.26770 0.26735
 O1308 O 1.02355 0.25423 0.25449
 O1309 O 1.01505 0.23527 0.23531
 O1310 O 0.98634 0.26393 0.26384
 C1311 C 1.01170 0.20348 0.23782
 C1312 C 1.01214 0.23869 0.20339
 C1313 C 1.04676 0.23780 0.23889
 C1314 C 0.98801 0.29514 0.26108
 C1315 C 0.95538 0.26172 0.26191
 C1316 C 0.98877 0.26186 0.29507
 H1317 H 0.96770 0.24221 0.24237
 H1318 H 1.00806 0.24261 0.28276
 H1319 H 1.02144 0.22891 0.22889
 H1320 H 1.00756 0.28270 0.24202
 H1321 H 0.98695 0.27988 0.21549
 H1322 H 1.01223 0.28105 0.21612
 H1323 H 0.99115 0.22534 0.29037
 H1324 H 1.02376 0.20794 0.27447
 H1325 H 0.95927 0.27259 0.22469
 H1326 H 0.97590 0.22642 0.20785
 H1327 H 1.02561 0.25917 0.28944
 H1328 H 1.03948 0.24246 0.27450
 H1329 H 0.97629 0.21044 0.24222
 H1330 H 0.96143 0.22405 0.25869
 H1331 H 1.04037 0.27372 0.24268
 H1332 H 1.02446 0.29065 0.25874
 O1333 O 0.74888 1.03966 0.73037
 O1334 O 0.77432 1.03485 0.73238
 O1335 O 0.73080 1.00046 0.70994
 O1336 O 0.73000 0.97585 0.71442
 O1337 O 0.71001 1.01952 0.74916
 O1338 O 0.71482 1.01748 0.77458
 O1339 O 0.76939 0.96083 0.75049
 O1340 O 0.76654 0.96501 0.72511
 O1341 O 0.78862 0.99881 0.76929
 O1342 O 0.78432 1.02477 0.76907
 O1343 O 0.75092 0.98047 0.78883
 O1344 O 0.72430 0.98105 0.78381
 O1345 O 0.75147 0.96072 0.76846
 O1346 O 0.72365 0.96625 0.76682
 O1347 O 0.76851 0.99873 0.78909
 O1348 O 0.76583 1.02708 0.78230
 O1349 O 0.78859 0.98054 0.75160
 O1350 O 0.78392 0.98550 0.72446
 O1351 O 0.73116 1.03983 0.74860
 O1352 O 0.73426 1.03394 0.77563
 O1353 O 0.70983 1.00129 0.73137
 O1354 O 0.71590 0.97406 0.73351
 O1355 O 0.74844 1.01871 0.70996
 O1356 O 0.77537 1.01531 0.71590
 Zr1357 Zr 0.75779 1.01795 0.73156
 O1358 O 0.77207 1.00501 0.74503
 Zr1359 Zr 0.73141 0.99183 0.73180
 O1360 O 0.74490 0.97747 0.74468
 Zr1361 Zr 0.73168 1.01819 0.75804
 O1362 O 0.74463 1.00472 0.77239
 Zr1363 Zr 0.76756 0.98230 0.74128
 O1364 O 0.75411 0.99518 0.72666
 Zr1365 Zr 0.76728 1.00845 0.76773
 O1366 O 0.75433 1.02296 0.75431
 Zr1367 Zr 0.74129 0.98197 0.76743
 O1368 O 0.72670 0.99542 0.75452
 O1369 O 0.73524 1.01437 0.73543
 O1370 O 0.76389 0.98573 0.76402
 C1371 C 0.73860 1.04616 0.73803
 C1372 C 0.73817 1.01099 0.70353
 C1373 C 0.70352 1.01188 0.73883
 C1374 C 0.76220 0.95451 0.76118
 C1375 C 0.79482 0.98790 0.76227
 C1376 C 0.76143 0.98786 0.79523
 H1377 H 0.78258 1.00741 0.74267
 H1378 H 0.74215 1.00708 0.78289
 H1379 H 0.72886 1.02073 0.72900
 H1380 H 0.74270 0.96695 0.74207
 H1381 H 0.76335 0.96974 0.71563
 H1382 H 0.73806 0.96852 0.71620
 H1383 H 0.75903 1.02439 0.79057
 H1384 H 0.72643 1.04172 0.77461
 H1385 H 0.79103 0.97701 0.72499
 H1386 H 0.77443 1.02319 0.70815
 H1387 H 0.72461 0.99054 0.78950
 H1388 H 0.71072 1.00720 0.77447
 H1389 H 0.77401 1.03918 0.74257
 H1390 H 0.78887 1.02555 0.75904
 H1391 H 0.70990 0.97594 0.74260
 H1392 H 0.72575 0.95905 0.75869
 O1393 O 0.71019 0.51985 0.24879
 O1394 O 0.71504 0.51784 0.27427
 O1395 O 0.74921 0.54027 0.23067
 O1396 O 0.77374 0.53579 0.22979
 O1397 O 0.73023 0.50100 0.20975
 O1398 O 0.73227 0.47558 0.21453
 O1399 O 0.78888 0.49969 0.26917
 O1400 O 0.78467 0.52509 0.26638
 O1401 O 0.75109 0.48092 0.28847
 O1402 O 0.72521 0.48109 0.28418
 O1403 O 0.76933 0.46135 0.25055
 O1404 O 0.76868 0.46636 0.22391
 O1405 O 0.78898 0.48171 0.25115
 O1406 O 0.78339 0.48338 0.22327
 O1407 O 0.75120 0.46107 0.26824
 O1408 O 0.72289 0.46785 0.26562
 O1409 O 0.76926 0.49863 0.28844
 O1410 O 0.76428 0.52577 0.28382
 O1411 O 0.71000 0.50162 0.23099
 O1412 O 0.71592 0.47456 0.23405
 O1413 O 0.74837 0.51880 0.20959
 O1414 O 0.77554 0.51668 0.21565
 O1415 O 0.73105 0.54026 0.24837
 O1416 O 0.73451 0.53431 0.27534
 Zr1417 Zr 0.73187 0.51864 0.25769
 O1418 O 0.74482 0.50516 0.27194
 Zr1419 Zr 0.75785 0.51840 0.23120
 O1420 O 0.77222 0.50552 0.24466
 Zr1421 Zr 0.73159 0.49215 0.23146
 O1422 O 0.74510 0.47779 0.24437
 Zr1423 Zr 0.76745 0.50892 0.26738
 O1424 O 0.75455 0.52354 0.25397
 Zr1425 Zr 0.74144 0.48244 0.26708
 O1426 O 0.72691 0.49588 0.25418
 Zr1427 Zr 0.76776 0.48275 0.24098
 O1428 O 0.75428 0.49566 0.22643
 O1429 O 0.73538 0.51477 0.23506
 O1430 O 0.76407 0.48617 0.26365
 C1431 C 0.70369 0.51219 0.23848
 C1432 C 0.73872 0.54669 0.23808
 C1433 C 0.73783 0.51132 0.20326
 C1434 C 0.79518 0.48899 0.26192
 C1435 C 0.76195 0.48797 0.29469
 C1436 C 0.76202 0.45493 0.26109
 H1437 H 0.74245 0.50753 0.28248
 H1438 H 0.74276 0.46728 0.24185
 H1439 H 0.72901 0.52120 0.22870
 H1440 H 0.78271 0.50812 0.24244
 H1441 H 0.77993 0.53458 0.26321
 H1442 H 0.78105 0.53404 0.23787
 H1443 H 0.72559 0.45956 0.25880
 H1444 H 0.70813 0.47558 0.22623
 H1445 H 0.77276 0.52525 0.29093
 H1446 H 0.72665 0.54208 0.27443
 H1447 H 0.75922 0.46068 0.22421
 H1448 H 0.74251 0.47567 0.21040
 H1449 H 0.71075 0.50765 0.27395
 H1450 H 0.72438 0.49114 0.28874
 H1451 H 0.77367 0.50758 0.20960
 H1452 H 0.79059 0.49148 0.22541
 O1453 O 0.53973 0.23028 0.74938
 O1454 O 0.53497 0.23217 0.77490
 O1455 O 0.50067 0.20985 0.73118
 O1456 O 0.47613 0.21430 0.73035
 O1457 O 0.51950 0.24927 0.71055
 O1458 O 0.51741 0.27466 0.71551
 O1459 O 0.46103 0.25016 0.77000
 O1460 O 0.46533 0.22480 0.76708
 O1461 O 0.49889 0.26899 0.78940
 O1462 O 0.52470 0.26889 0.78514
 O1463 O 0.48048 0.28866 0.75165
 O1464 O 0.48101 0.28374 0.72499
 O1465 O 0.46084 0.26821 0.75211
 O1466 O 0.46635 0.26671 0.72424
 O1467 O 0.49870 0.28891 0.76929
 O1468 O 0.52702 0.28212 0.76661
 O1469 O 0.48074 0.25126 0.78929
 O1470 O 0.48578 0.22414 0.78450
 O1471 O 0.53979 0.24860 0.73173
 O1472 O 0.53384 0.27562 0.73501
 O1473 O 0.50141 0.23142 0.71026
 O1474 O 0.47424 0.23345 0.71637
 O1475 O 0.51890 0.20982 0.74886
 O1476 O 0.51553 0.21565 0.77588
 Zr1477 Zr 0.51808 0.23140 0.75833
 O1478 O 0.50515 0.24480 0.77270
 Zr1479 Zr 0.49200 0.23171 0.73189
 O1480 O 0.47765 0.24450 0.74547
 Zr1481 Zr 0.51819 0.25802 0.73231
 O1482 O 0.50470 0.27229 0.74533
 Zr1483 Zr 0.48250 0.24102 0.76816
 O1484 O 0.49538 0.22648 0.75462
 Zr1485 Zr 0.50846 0.26754 0.76801
 O1486 O 0.52298 0.25419 0.75499
 Zr1487 Zr 0.48204 0.26728 0.74194
 O1488 O 0.49549 0.25447 0.72728
 O1489 O 0.51447 0.23536 0.73575
 O1490 O 0.48582 0.26380 0.76459
 C1491 C 0.54616 0.23800 0.73911
 C1492 C 0.51120 0.20342 0.73853
 C1493 C 0.51191 0.23896 0.70398
 C1494 C 0.45468 0.26085 0.76281
 C1495 C 0.48806 0.26191 0.79559
 C1496 C 0.48785 0.29506 0.76219
 H1497 H 0.50756 0.24240 0.78322
 H1498 H 0.50701 0.28281 0.74289
 H1499 H 0.52082 0.22898 0.72933
 H1500 H 0.46716 0.24187 0.74324
 H1501 H 0.47009 0.21534 0.76384
 H1502 H 0.46888 0.21596 0.73850
 H1503 H 0.52428 0.29045 0.75987
 H1504 H 0.54160 0.27466 0.72716
 H1505 H 0.47733 0.22462 0.79162
 H1506 H 0.52341 0.20790 0.77490
 H1507 H 0.49046 0.28943 0.72530
 H1508 H 0.50716 0.27455 0.71138
 H1509 H 0.53926 0.24236 0.77462
 H1510 H 0.52566 0.25879 0.78953
 H1511 H 0.47608 0.24256 0.71037
 H1512 H 0.45920 0.25855 0.72630
 O1513 O 0.28983 0.75118 0.48058
 O1514 O 0.28507 0.72568 0.48256
 O1515 O 0.25067 0.76923 0.46017
 O1516 O 0.22617 0.77016 0.46469
 O1517 O 0.26972 0.79017 0.49943
 O1518 O 0.26769 0.78539 0.52484
 O1519 O 0.21120 0.73067 0.50064
 O1520 O 0.21541 0.73345 0.47529
 O1521 O 0.24911 0.71137 0.51944
 O1522 O 0.27495 0.71569 0.51929
 O1523 O 0.23076 0.74926 0.53903
 O1524 O 0.23131 0.77589 0.53407
 O1525 O 0.21107 0.74869 0.51862
 O1526 O 0.21663 0.77659 0.51703
 O1527 O 0.24897 0.73160 0.53930
 O1528 O 0.27726 0.73427 0.53250
 O1529 O 0.23090 0.71138 0.50175
 O1530 O 0.23585 0.71603 0.47463
 O1531 O 0.28999 0.76895 0.49884
 O1532 O 0.28410 0.76588 0.52587
 O1533 O 0.25156 0.79033 0.48163
 O1534 O 0.22439 0.78425 0.48378
 O1535 O 0.26891 0.75156 0.46016
 O1536 O 0.26558 0.72457 0.46610
 Zr1537 Zr 0.26818 0.74224 0.48177
 O1538 O 0.25529 0.72795 0.49523
 Zr1539 Zr 0.24212 0.76870 0.48204
 O1540 O 0.22780 0.75519 0.49489
 Zr1541 Zr 0.26840 0.76846 0.50828
 O1542 O 0.25496 0.75550 0.52261
 Zr1543 Zr 0.23264 0.73247 0.49147
 O1544 O 0.24547 0.74592 0.47687
 Zr1545 Zr 0.25869 0.73279 0.51793
 O1546 O 0.27316 0.74573 0.50452
 Zr1547 Zr 0.23228 0.75886 0.51764
 O1548 O 0.24570 0.77346 0.50477
 O1549 O 0.26461 0.76486 0.48565
 O1550 O 0.23603 0.73618 0.51422
 C1551 C 0.29631 0.76149 0.48827
 C1552 C 0.26117 0.76182 0.45373
 C1553 C 0.26210 0.79667 0.48911
 C1554 C 0.20488 0.73794 0.51131
 C1555 C 0.23826 0.70514 0.51240
 C1556 C 0.23813 0.73873 0.54543
 H1557 H 0.25769 0.71741 0.49285
 H1558 H 0.25730 0.75801 0.53312
 H1559 H 0.27094 0.77124 0.47923
 H1560 H 0.21731 0.75741 0.49228
 H1561 H 0.22013 0.73663 0.46581
 H1562 H 0.21894 0.76199 0.46636
 H1563 H 0.27455 0.74108 0.54080
 H1564 H 0.29186 0.77372 0.52486
 H1565 H 0.22739 0.70889 0.47515
 H1566 H 0.27343 0.72550 0.45834
 H1567 H 0.24080 0.77565 0.53970
 H1568 H 0.25744 0.78951 0.52473
 H1569 H 0.28938 0.72600 0.49275
 H1570 H 0.27582 0.71117 0.50923
 H1571 H 0.22629 0.79032 0.49285
 H1572 H 0.20943 0.77446 0.50891
 O1573 O 0.26965 0.28977 0.99996
 O1574 O 0.26762 0.28495 1.02545
 O1575 O 0.28995 0.25059 0.98179
 O1576 O 0.28547 0.22599 0.98090
 O1577 O 0.25080 0.26965 0.96093
 O1578 O 0.22544 0.26765 0.96573
 O1579 O 0.24950 0.21090 1.02024
 O1580 O 0.27480 0.21511 1.01749
 O1581 O 0.23079 0.24890 1.03964
 O1582 O 0.23096 0.27479 1.03541
 O1583 O 0.21123 0.23059 1.00168
 O1584 O 0.21623 0.23116 0.97507
 O1585 O 0.23157 0.21081 1.00223
 O1586 O 0.23318 0.21641 0.97438
 O1587 O 0.21096 0.24882 1.01938
 O1588 O 0.21781 0.27718 1.01683
 O1589 O 0.24843 0.23064 1.03958
 O1590 O 0.27549 0.23558 1.03495
 O1591 O 0.25146 0.28996 0.98217
 O1592 O 0.22447 0.28409 0.98526
 O1593 O 0.26854 0.25142 0.96073
 O1594 O 0.26641 0.22419 0.96675
 O1595 O 0.28997 0.26882 0.99952
 O1596 O 0.28404 0.26541 1.02649
 Zr1597 Zr 0.26841 0.26805 1.00885
 O1598 O 0.25496 0.25510 1.02309
 Zr1599 Zr 0.26814 0.24196 0.98233
 O1600 O 0.25528 0.22759 0.99578
 Zr1601 Zr 0.24198 0.26833 0.98264
 O1602 O 0.22766 0.25483 0.99554
 Zr1603 Zr 0.25868 0.23240 1.01851
 O1604 O 0.27328 0.24528 1.00511
 Zr1605 Zr 0.23231 0.25853 1.01826
 O1606 O 0.24571 0.27306 1.00536
 Zr1607 Zr 0.23259 0.23209 0.99213
 O1608 O 0.24547 0.24556 0.97758
 O1609 O 0.26454 0.26450 0.98623
 O1610 O 0.23599 0.23581 1.01480
 C1611 C 0.26202 0.29628 0.98965
 C1612 C 0.29637 0.26111 0.98921
 C1613 C 0.26108 0.26200 0.95442
 C1614 C 0.23886 0.20458 1.01295
 C1615 C 0.23782 0.23802 1.04585
 C1616 C 0.20482 0.23798 1.01220
 H1617 H 0.25733 0.25750 1.03363
 H1618 H 0.21718 0.25720 0.99303
 H1619 H 0.27096 0.27086 0.97986
 H1620 H 0.25787 0.21707 0.99354
 H1621 H 0.28427 0.21984 1.01431
 H1622 H 0.28371 0.21867 0.98897
 H1623 H 0.20955 0.27449 1.00999
 H1624 H 0.22549 0.29188 0.97744
 H1625 H 0.27497 0.22709 1.04205
 H1626 H 0.29179 0.27328 1.02559
 H1627 H 0.21060 0.24067 0.97535
 H1628 H 0.22554 0.25738 0.96157
 H1629 H 0.25747 0.28931 1.02510
 H1630 H 0.24101 0.27570 1.03988
 H1631 H 0.25734 0.22607 0.96071
 H1632 H 0.24129 0.20920 0.97647
 C1633 C 0.28139 0.41578 0.76160
 C1634 C 0.27414 0.40853 0.77339
 C1635 C 0.26248 0.41574 0.78090
 C1636 C 0.25822 0.43021 0.77680
 C1637 C 0.29278 0.35597 0.79204
 C1638 C 0.27716 0.43025 0.75747
 C1639 C 0.27899 0.39394 0.77812
 C1640 C 0.28320 0.38184 0.78231
 C1641 C 0.28830 0.36782 0.78745
 C1642 C 0.26559 0.43770 0.76510
 H1643 H 0.29045 0.41032 0.75573
 H1644 H 0.25682 0.41024 0.79007
 H1645 H 0.24930 0.43558 0.78294
 H1646 H 0.28309 0.43567 0.74844
 C1647 C 0.28277 -0.08294 0.26320
 C1648 C 0.27532 -0.09021 0.27485
 C1649 C 0.26344 -0.08309 0.28208
 C1650 C 0.25907 -0.06872 0.27776
 C1651 C 0.29316 -0.14327 0.29292
 C1652 C 0.27842 -0.06857 0.25885
 C1653 C 0.28005 -0.10485 0.27957
 C1654 C 0.28409 -0.11704 0.28365
 C1655 C 0.28893 -0.13123 0.28858
 C1656 C 0.26654 -0.06125 0.26611
 H1657 H 0.29200 -0.08834 0.25755
 H1658 H 0.25762 -0.08861 0.29113
 H1659 H 0.24991 -0.06344 0.28362
 H1660 H 0.28445 -0.06316 0.24987
 C1661 C 0.76390 0.91744 0.78175
 C1662 C 0.77593 0.91044 0.77465
 C1663 C 0.78329 0.91771 0.76294
 C1664 C 0.77872 0.93196 0.75842
 C1665 C 0.79476 0.85806 0.79367
 C1666 C 0.75931 0.93169 0.77726
 C1667 C 0.78093 0.89597 0.77961
 C1668 C 0.78520 0.88393 0.78391
 C1669 C 0.79031 0.86993 0.78910
 C1670 C 0.76670 0.93916 0.76557
 H1671 H 0.75815 0.91193 0.79086
 H1672 H 0.79264 0.91241 0.75739
 H1673 H 0.78470 0.93738 0.74942
 H1674 H 0.75005 0.93688 0.78305
 C1675 C 0.46855 0.83470 0.26148
 C1676 C 0.47587 0.84201 0.27323
 C1677 C 0.48749 0.83481 0.28081
 C1678 C 0.49166 0.82028 0.27680
 C1679 C 0.45766 0.89493 0.29139
 C1680 C 0.47270 0.82016 0.25745
 C1681 C 0.47114 0.85669 0.27784
 C1682 C 0.46703 0.86887 0.28191
 C1683 C 0.46205 0.88299 0.28692
 C1684 C 0.48423 0.81272 0.26514
 H1685 H 0.45952 0.84016 0.25557
 H1686 H 0.49320 0.84036 0.28994
 H1687 H 0.50057 0.81491 0.28297
 H1688 H 0.46672 0.81470 0.24844
 C1689 C -0.03318 0.83225 0.76380
 C1690 C -0.02586 0.83946 0.77560
 C1691 C -0.01381 0.83247 0.78268
 C1692 C -0.00917 0.81826 0.77807
 C1693 C -0.04518 0.89149 0.79520
 C1694 C -0.02857 0.81804 0.75916
 C1695 C -0.03095 0.85386 0.78071
 C1696 C -0.03532 0.86582 0.78515
 C1697 C -0.04058 0.87971 0.79050
 C1698 C -0.01655 0.81083 0.76630
 H1699 H -0.04255 0.83756 0.75826
 H1700 H -0.00809 0.83794 0.79186
 H1701 H 0.00009 0.81305 0.78385
 H1702 H -0.03453 0.81266 0.75010
 C1703 C -0.03324 -0.08229 -0.01287
 C1704 C -0.02580 -0.08956 -0.02455
 C1705 C -0.01381 -0.08253 -0.03164
 C1706 C -0.00932 -0.06824 -0.02717
 C1707 C -0.04412 -0.14213 -0.04365
 C1708 C -0.02878 -0.06799 -0.00837
 C1709 C -0.03067 -0.10409 -0.02950
 C1710 C -0.03483 -0.11617 -0.03381
 C1711 C -0.03979 -0.13022 -0.03904
 C1712 C -0.01680 -0.06075 -0.01551
 H1713 H -0.04257 -0.08762 -0.00733
 H1714 H -0.00800 -0.08805 -0.04072
 H1715 H -0.00008 -0.06302 -0.03294
 H1716 H -0.03482 -0.06256 0.00061
 C1717 C -0.03352 0.41755 0.48667
 C1718 C -0.02612 0.41026 0.47498
 C1719 C -0.01411 0.41726 0.46787
 C1720 C -0.00957 0.43154 0.47235
 C1721 C -0.04456 0.35768 0.45599
 C1722 C -0.02901 0.43184 0.49118
 C1723 C -0.03103 0.39574 0.47004
 C1724 C -0.03522 0.38366 0.46575
 C1725 C -0.04021 0.36960 0.46056
 C1726 C -0.01701 0.43904 0.48403
 H1727 H -0.04285 0.41225 0.49222
 H1728 H -0.00832 0.41172 0.45879
 H1729 H -0.00032 0.43673 0.46657
 H1730 H -0.03502 0.43728 0.50016
 C1731 C 0.48738 -0.08425 0.47002
 C1732 C 0.47550 -0.09132 0.47727
 C1733 C 0.46788 -0.08387 0.48872
 C1734 C 0.47201 -0.06934 0.49281
 C1735 C 0.45762 -0.14435 0.45905
 C1736 C 0.49153 -0.06972 0.47407
 C1737 C 0.47084 -0.10601 0.47263
 C1738 C 0.46680 -0.11821 0.46853
 C1739 C 0.46192 -0.13237 0.46352
 C1740 C 0.48382 -0.06204 0.48545
 H1741 H 0.49333 -0.08990 0.46111
 H1742 H 0.45865 -0.08923 0.49439
 H1743 H 0.46581 -0.06378 0.50159
 H1744 H 0.50066 -0.06447 0.46816
 C1745 C 0.48568 0.41761 -0.03165
 C1746 C 0.47367 0.41061 -0.02454
 C1747 C 0.46625 0.41792 -0.01287
 C1748 C 0.47075 0.43222 -0.00839
 C1749 C 0.45525 0.35800 -0.04346
 C1750 C 0.49020 0.43190 -0.02719
 C1751 C 0.46877 0.39608 -0.02946
 C1752 C 0.46459 0.38399 -0.03373
 C1753 C 0.45961 0.36993 -0.03890
 C1754 C 0.48275 0.43942 -0.01554
 H1755 H 0.49148 0.41206 -0.04072
 H1756 H 0.45692 0.41262 -0.00732
 H1757 H 0.46472 0.43767 0.00058
 H1758 H 0.49945 0.43709 -0.03298
 C1759 C 0.78230 0.33340 0.48776
 C1760 C 0.77484 0.34068 0.47611
 C1761 C 0.76293 0.33359 0.46889
 C1762 C 0.75861 0.31919 0.47315
 C1763 C 0.79388 0.39283 0.45686
 C1764 C 0.77801 0.31901 0.49206
 C1765 C 0.77976 0.35518 0.47119
 C1766 C 0.78405 0.36719 0.46686
 C1767 C 0.78927 0.38109 0.46156
 C1768 C 0.76619 0.31166 0.48471
 H1769 H 0.79157 0.33878 0.49340
 H1770 H 0.75710 0.33911 0.45982
 H1771 H 0.74948 0.31389 0.46723
 H1772 H 0.78411 0.31356 0.50098
 C1773 C 0.76294 0.83428 -0.03151
 C1774 C 0.77485 0.84131 -0.02422
 C1775 C 0.78221 0.83399 -0.01252
 C1776 C 0.77782 0.81961 -0.00826
 C1777 C 0.79429 0.89339 -0.04332
 C1778 C 0.75852 0.81990 -0.02728
 C1779 C 0.77988 0.85578 -0.02910
 C1780 C 0.78428 0.86777 -0.03339
 C1781 C 0.78960 0.88165 -0.03864
 C1782 C 0.76600 0.81233 -0.01568
 H1783 H 0.75720 0.83983 -0.04061
 H1784 H 0.79147 0.83932 -0.00683
 H1785 H 0.78384 0.81414 0.00069
 H1786 H 0.74940 0.81465 -0.03325
 C1787 C 0.76255 0.28176 0.41620
 C1788 C 0.77420 0.27427 0.40896
 C1789 C 0.78137 0.26233 0.41607
 C1790 C 0.77706 0.25802 0.43045
 C1791 C 0.79342 0.29334 0.35684
 C1792 C 0.75821 0.27748 0.43057
 C1793 C 0.77914 0.27918 0.39448
 C1794 C 0.78347 0.28348 0.38248
 C1795 C 0.78875 0.28872 0.36858
 C1796 C 0.76550 0.26563 0.43794
 H1797 H 0.75694 0.29104 0.41081
 H1798 H 0.79043 0.25648 0.41059
 H1799 H 0.78293 0.24887 0.43577
 H1800 H 0.74929 0.28360 0.43598
 C1801 C 0.78092 0.76316 -0.08445
 C1802 C 0.77383 0.77518 -0.09150
 C1803 C 0.76223 0.78272 -0.08423
 C1804 C 0.75788 0.77841 -0.06987
 C1805 C 0.79322 0.79422 -0.14359
 C1806 C 0.77659 0.75882 -0.07008
 C1807 C 0.77880 0.78011 -0.10597
 C1808 C 0.78317 0.78441 -0.11796
 C1809 C 0.78849 0.78962 -0.13185
 C1810 C 0.76509 0.76648 -0.06256
 H1811 H 0.78993 0.75727 -0.08996
 H1812 H 0.75669 0.79206 -0.08958
 H1813 H 0.74900 0.78457 -0.06443
 H1814 H 0.78240 0.74961 -0.06481
 C1815 C 0.28087 0.48746 0.83409
 C1816 C 0.27372 0.47553 0.84121
 C1817 C 0.26218 0.46792 0.83389
 C1818 C 0.25794 0.47208 0.81944
 C1819 C 0.29260 0.45732 0.89382
 C1820 C 0.27665 0.49165 0.81964
 C1821 C 0.27855 0.47080 0.85580
 C1822 C 0.28280 0.46669 0.86791
 C1823 C 0.28799 0.46172 0.88195
 C1824 C 0.26520 0.48393 0.81208
 H1825 H 0.28984 0.49341 0.83964
 H1826 H 0.25659 0.45864 0.83929
 H1827 H 0.24910 0.46588 0.81398
 H1828 H 0.28250 0.50081 0.81433
 C1829 C 0.26384 -0.03322 0.33233
 C1830 C 0.27579 -0.02603 0.33938
 C1831 C 0.28316 -0.01431 0.33213
 C1832 C 0.27866 -0.00985 0.31785
 C1833 C 0.29433 -0.04398 0.39224
 C1834 C 0.25931 -0.02879 0.31804
 C1835 C 0.28066 -0.03081 0.35395
 C1836 C 0.28487 -0.03488 0.36609
 C1837 C 0.28991 -0.03974 0.38023
 C1838 C 0.26669 -0.01706 0.31060
 H1839 H 0.25807 -0.04233 0.33783
 H1840 H 0.29245 -0.00868 0.33748
 H1841 H 0.28463 -0.00082 0.31247
 H1842 H 0.25009 -0.03462 0.31280
 C1843 C -0.03264 -0.01390 -0.08206
 C1844 C -0.02553 -0.02595 -0.08909
 C1845 C -0.01374 -0.03325 -0.08190
 C1846 C -0.00913 -0.02863 -0.06769
 C1847 C -0.04494 -0.04532 -0.14115
 C1848 C -0.02806 -0.00925 -0.06785
 C1849 C -0.03061 -0.03105 -0.10349
 C1850 C -0.03499 -0.03544 -0.11546
 C1851 C -0.04029 -0.04071 -0.12937
 C1852 C -0.01629 -0.01662 -0.06045
 H1853 H -0.04181 -0.00819 -0.08751
 H1854 H -0.00819 -0.04262 -0.08722
 H1855 H -0.00007 -0.03459 -0.06233
 H1856 H -0.03385 0.00000 -0.06262
 C1857 C -0.03244 0.48612 0.41737
 C1858 C -0.02536 0.47407 0.41034
 C1859 C -0.01365 0.46666 0.41757
 C1860 C -0.00910 0.47120 0.43183
 C1861 C -0.04457 0.45514 0.35804
 C1862 C -0.02792 0.49069 0.43163
 C1863 C -0.03036 0.46907 0.39588
 C1864 C -0.03470 0.46478 0.38386
 C1865 C -0.03995 0.45964 0.36988
 C1866 C -0.01623 0.48323 0.43907
 H1867 H -0.04154 0.49191 0.41189
 H1868 H -0.00812 0.45729 0.41224
 H1869 H -0.00010 0.46518 0.43722
 H1870 H -0.03369 0.49996 0.43686
 C1871 C 0.46939 -0.01218 0.41598
 C1872 C 0.47688 -0.02387 0.40877
 C1873 C 0.48853 -0.03129 0.41607
 C1874 C 0.49256 -0.02718 0.43061
 C1875 C 0.45861 -0.04185 0.35582
 C1876 C 0.47339 -0.00804 0.43051
 C1877 C 0.47226 -0.02855 0.39408
 C1878 C 0.46816 -0.03261 0.38189
 C1879 C 0.46312 -0.03752 0.36776
 C1880 C 0.48496 -0.01557 0.43806
 H1881 H 0.46033 -0.00638 0.41044
 H1882 H 0.49437 -0.04038 0.41060
 H1883 H 0.50150 -0.03323 0.43607
 H1884 H 0.46729 0.00093 0.43589
 C1885 C 0.46763 0.48662 -0.08251
 C1886 C 0.47483 0.47465 -0.08956
 C1887 C 0.48648 0.46721 -0.08225
 C1888 C 0.49086 0.47166 -0.06791
 C1889 C 0.45653 0.45621 -0.14235
 C1890 C 0.47198 0.49109 -0.06817
 C1891 C 0.47005 0.46979 -0.10414
 C1892 C 0.46592 0.46561 -0.11627
 C1893 C 0.46093 0.46060 -0.13038
 C1894 C 0.48362 0.48362 -0.06067
 H1895 H 0.45858 0.49243 -0.08805
 H1896 H 0.49210 0.45791 -0.08760
 H1897 H 0.49982 0.46563 -0.06248
 H1898 H 0.46614 0.50032 -0.06294
 C1899 C 0.48800 0.78237 0.33413
 C1900 C 0.47653 0.77473 0.34146
 C1901 C 0.46928 0.76286 0.33428
 C1902 C 0.47337 0.75874 0.31976
 C1903 C 0.45842 0.79250 0.39451
 C1904 C 0.49212 0.77828 0.31962
 C1905 C 0.47188 0.77935 0.35615
 C1906 C 0.46781 0.78336 0.36836
 C1907 C 0.46283 0.78822 0.38252
 C1908 C 0.48478 0.76647 0.31221
 H1909 H 0.49366 0.79160 0.33958
 H1910 H 0.46036 0.75689 0.33983
 H1911 H 0.46747 0.74962 0.31442
 H1912 H 0.50092 0.78449 0.31416
 C1913 C -0.03293 0.76435 0.83200
 C1914 C -0.02553 0.77607 0.83925
 C1915 C -0.01355 0.78319 0.83222
 C1916 C -0.00902 0.77867 0.81796
 C1917 C -0.04411 0.79448 0.89193
 C1918 C -0.02843 0.75980 0.81774
 C1919 C -0.03041 0.78097 0.85378
 C1920 C -0.03461 0.78515 0.86588
 C1921 C -0.03967 0.79013 0.87997
 C1922 C -0.01644 0.76693 0.81052
 H1923 H -0.04224 0.75878 0.83732
 H1924 H -0.00776 0.79231 0.83773
 H1925 H 0.00022 0.78445 0.81274
 H1926 H -0.03443 0.75076 0.81235
 C1927 C 0.41582 0.78082 0.26260
 C1928 C 0.40876 0.77361 0.27451
 C1929 C 0.41615 0.76214 0.28216
 C1930 C 0.43063 0.75802 0.27804
 C1931 C 0.35600 0.79205 0.29245
 C1932 C 0.43029 0.77673 0.25845
 C1933 C 0.39413 0.77830 0.27919
 C1934 C 0.38199 0.78245 0.28324
 C1935 C 0.36791 0.78753 0.28813
 C1936 C 0.43792 0.76535 0.26619
 H1937 H 0.41021 0.78974 0.25662
 H1938 H 0.41080 0.75651 0.29143
 H1939 H 0.43615 0.74924 0.28426
 H1940 H 0.43554 0.78262 0.24929
 C1941 C -0.08221 0.78202 0.76378
 C1942 C -0.08922 0.77493 0.77580
 C1943 C -0.08198 0.76323 0.78323
 C1944 C -0.06774 0.75870 0.77875
 C1945 C -0.14157 0.79408 0.79423
 C1946 C -0.06797 0.77753 0.75927
 C1947 C -0.10368 0.77990 0.78070
 C1948 C -0.11572 0.78423 0.78488
 C1949 C -0.12971 0.78947 0.78987
 C1950 C -0.06052 0.76584 0.76674
 H1951 H -0.08769 0.79112 0.75796
 H1952 H -0.08730 0.75769 0.79258
 H1953 H -0.06234 0.74971 0.78479
 H1954 H -0.06276 0.78330 0.75001
 C1955 C 0.83391 0.28065 0.48749
 C1956 C 0.84107 0.27320 0.47576
 C1957 C 0.83389 0.26135 0.46849
 C1958 C 0.81951 0.25710 0.47278
 C1959 C 0.89308 0.29252 0.45669
 C1960 C 0.81953 0.27644 0.49181
 C1961 C 0.85553 0.27810 0.47081
 C1962 C 0.86751 0.28244 0.46651
 C1963 C 0.88137 0.28777 0.46129
 C1964 C 0.81209 0.26469 0.48440
 H1965 H 0.83935 0.28987 0.49318
 H1966 H 0.83932 0.25552 0.45936
 H1967 H 0.81413 0.24803 0.46681
 H1968 H 0.81418 0.28255 0.50078
 C1969 C 0.83355 0.76159 -0.03191
 C1970 C 0.84079 0.77341 -0.02463
 C1971 C 0.83364 0.78095 -0.01295
 C1972 C 0.81922 0.77685 -0.00868
 C1973 C 0.89301 0.79227 -0.04356
 C1974 C 0.81913 0.75746 -0.02767
 C1975 C 0.85531 0.77818 -0.02953
 C1976 C 0.86734 0.78241 -0.03381
 C1977 C 0.88126 0.78762 -0.03899
 C1978 C 0.81172 0.76514 -0.01608
 H1979 H 0.83898 0.75571 -0.04100
 H1980 H 0.83913 0.79014 -0.00727
 H1981 H 0.81387 0.78302 0.00026
 H1982 H 0.81371 0.74842 -0.03362
 C1983 C -0.08179 -0.03313 -0.01425
 C1984 C -0.08898 -0.02570 -0.02598
 C1985 C -0.08196 -0.01364 -0.03301
 C1986 C -0.06777 -0.00906 -0.02839
 C1987 C -0.14135 -0.04447 -0.04488
 C1988 C -0.06760 -0.02858 -0.00960
 C1989 C -0.10343 -0.03065 -0.03100
 C1990 C -0.11546 -0.03490 -0.03529
 C1991 C -0.12946 -0.04000 -0.04042
 C1992 C -0.06038 -0.01651 -0.01665
 H1993 H -0.08711 -0.04250 -0.00875
 H1994 H -0.08741 -0.00783 -0.04213
 H1995 H -0.06255 0.00023 -0.03410
 H1996 H -0.06225 -0.03460 -0.00057
 C1997 C -0.08207 0.48639 0.46660
 C1998 C -0.08914 0.47438 0.47367
 C1999 C -0.08196 0.46693 0.48539
 C2000 C -0.06774 0.47140 0.48999
 C2001 C -0.14162 0.45580 0.45495
 C2002 C -0.06784 0.49089 0.47118
 C2003 C -0.10362 0.46951 0.46870
 C2004 C -0.11568 0.46531 0.46445
 C2005 C -0.12971 0.46025 0.45937
 C2006 C -0.06047 0.48342 0.48291
 H2007 H -0.08751 0.49221 0.45749
 H2008 H -0.08732 0.45759 0.49091
 H2009 H -0.06240 0.46536 0.49902
 H2010 H -0.06259 0.50015 0.46544
 C2011 C 0.41632 -0.01196 0.46801
 C2012 C 0.40903 -0.02361 0.47543
 C2013 C 0.41612 -0.03090 0.48731
 C2014 C 0.43052 -0.02669 0.49164
 C2015 C 0.35665 -0.04228 0.45651
 C2016 C 0.43071 -0.00772 0.47230
 C2017 C 0.39450 -0.02842 0.47054
 C2018 C 0.38245 -0.03262 0.46626
 C2019 C 0.36848 -0.03774 0.46107
 C2020 C 0.43805 -0.01512 0.48410
 H2021 H 0.41094 -0.00626 0.45877
 H2022 H 0.41060 -0.03996 0.49312
 H2023 H 0.43581 -0.03265 0.50075
 H2024 H 0.43615 0.00122 0.46624
 C2025 C 0.41764 0.46739 -0.01393
 C2026 C 0.41040 0.47484 -0.02562
 C2027 C 0.41747 0.48679 -0.03279
 C2028 C 0.43175 0.49124 -0.02834
 C2029 C 0.35753 0.45658 -0.04358
 C2030 C 0.43192 0.47181 -0.00946
 C2031 C 0.39583 0.47005 -0.03041
 C2032 C 0.38368 0.46592 -0.03449
 C2033 C 0.36954 0.46095 -0.03934
 C2034 C 0.43918 0.48378 -0.01664
 H2035 H 0.41227 0.45810 -0.00833
 H2036 H 0.41198 0.49261 -0.04187
 H2037 H 0.43700 0.50046 -0.03415
 H2038 H 0.43729 0.46579 -0.00045
 C2039 C 0.33361 0.48807 0.78227
 C2040 C 0.34094 0.47651 0.77470
 C2041 C 0.33387 0.46927 0.76277
 C2042 C 0.31944 0.47344 0.75852
 C2043 C 0.39334 0.45769 0.79334
 C2044 C 0.31918 0.49227 0.77805
 C2045 C 0.35549 0.47170 0.77952
 C2046 C 0.36755 0.46747 0.78372
 C2047 C 0.38153 0.46229 0.78882
 C2048 C 0.31187 0.48491 0.76620
 H2049 H 0.33897 0.49372 0.79156
 H2050 H 0.33943 0.46027 0.75686
 H2051 H 0.31417 0.46752 0.74936
 H2052 H 0.31370 0.50113 0.78422
 C2053 C 0.33251 -0.01283 0.28299
 C2054 C 0.33983 -0.02444 0.27547
 C2055 C 0.33275 -0.03173 0.26358
 C2056 C 0.31837 -0.02749 0.25924
 C2057 C 0.39298 -0.04228 0.29297
 C2058 C 0.31813 -0.00856 0.27867
 C2059 C 0.35449 -0.02908 0.28014
 C2060 C 0.36670 -0.03311 0.28411
 C2061 C 0.38091 -0.03798 0.28884
 C2062 C 0.31086 -0.01587 0.26677
 H2063 H 0.33789 -0.00714 0.29224
 H2064 H 0.33830 -0.04076 0.25771
 H2065 H 0.31312 -0.03339 0.25005
 H2066 H 0.31269 0.00039 0.28475
 C2067 C 0.16801 0.51380 0.71747
 C2068 C 0.16080 0.52548 0.72497
 C2069 C 0.16791 0.53264 0.73694
 C2070 C 0.18220 0.52819 0.74136
 C2071 C 0.10787 0.54344 0.70691
 C2072 C 0.18230 0.50932 0.72186
 C2073 C 0.14621 0.53028 0.72023
 C2074 C 0.13405 0.53435 0.71615
 C2075 C 0.11989 0.53921 0.71123
 C2076 C 0.18959 0.51648 0.73385
 H2077 H 0.16261 0.50820 0.70817
 H2078 H 0.16244 0.54172 0.74280
 H2079 H 0.18747 0.53398 0.75059
 H2080 H 0.18764 0.50030 0.71580
 C2081 C 0.16630 0.01156 0.21933
 C2082 C 0.15916 0.02348 0.22652
 C2083 C 0.16647 0.03117 0.23803
 C2084 C 0.18093 0.02708 0.24223
 C2085 C 0.10633 0.04134 0.20810
 C2086 C 0.18076 0.00744 0.22350
 C2087 C 0.14452 0.02811 0.22177
 C2088 C 0.13237 0.03214 0.21761
 C2089 C 0.11826 0.03702 0.21256
 C2090 C 0.18831 0.01522 0.23494
 H2091 H 0.16075 0.00556 0.21038
 H2092 H 0.16105 0.04044 0.24365
 H2093 H 0.18639 0.03332 0.25106
 H2094 H 0.18608 -0.00172 0.21763
 C2095 C 0.58178 0.71761 0.23659
 C2096 C 0.58879 0.72475 0.22460
 C2097 C 0.58157 0.73650 0.21723
 C2098 C 0.56737 0.74106 0.22177
 C2099 C 0.64120 0.70629 0.20565
 C2100 C 0.56756 0.72215 0.24117
 C2101 C 0.60325 0.71983 0.21964
 C2102 C 0.61530 0.71564 0.21536
 C2103 C 0.62931 0.71065 0.21019
 C2104 C 0.56015 0.73391 0.23378
 H2105 H 0.58725 0.70847 0.24235
 H2106 H 0.58689 0.74208 0.20791
 H2107 H 0.56200 0.75012 0.21580
 H2108 H 0.56235 0.71636 0.25041
 C2109 C 0.08359 0.71817 0.73802
 C2110 C 0.09087 0.72573 0.72645
 C2111 C 0.08379 0.73769 0.71929
 C2112 C 0.06940 0.74196 0.72353
 C2113 C 0.14313 0.70698 0.70740
 C2114 C 0.06920 0.72241 0.74229
 C2115 C 0.10539 0.72088 0.72157
 C2116 C 0.11741 0.71666 0.71728
 C2117 C 0.13135 0.71152 0.71204
 C2118 C 0.06187 0.73429 0.73501
 H2119 H 0.08896 0.70887 0.74361
 H2120 H 0.08932 0.74360 0.71030
 H2121 H 0.06412 0.75114 0.71767
 H2122 H 0.06375 0.71624 0.75114
 C2123 C 0.66805 0.23649 0.53235
 C2124 C 0.66088 0.22469 0.52499
 C2125 C 0.66801 0.21739 0.51314
 C2126 C 0.68229 0.22181 0.50870
 C2127 C 0.60828 0.20637 0.54341
 C2128 C 0.68233 0.24094 0.52795
 C2129 C 0.64635 0.21986 0.52982
 C2130 C 0.63426 0.21571 0.53398
 C2131 C 0.62020 0.21073 0.53900
 C2132 C 0.68966 0.23362 0.51609
 H2133 H 0.66264 0.24219 0.54157
 H2134 H 0.66257 0.20821 0.50739
 H2135 H 0.68759 0.21590 0.49957
 H2136 H 0.68766 0.25003 0.53392
 C2137 C 0.66774 0.73708 0.03207
 C2138 C 0.66056 0.72528 0.02472
 C2139 C 0.66762 0.71805 0.01278
 C2140 C 0.68186 0.72253 0.00827
 C2141 C 0.60819 0.70672 0.04360
 C2142 C 0.68198 0.74159 0.02758
 C2143 C 0.64609 0.72037 0.02965
 C2144 C 0.63405 0.71616 0.03391
 C2145 C 0.62006 0.71112 0.03906
 C2146 C 0.68925 0.73432 0.01566
 H2147 H 0.66239 0.74273 0.04135
 H2148 H 0.66217 0.70887 0.00704
 H2149 H 0.68712 0.71666 -0.00092
 H2150 H 0.68733 0.75067 0.03356
 C2151 C 0.08396 0.01251 0.03036
 C2152 C 0.09101 0.02442 0.02311
 C2153 C 0.08361 0.03203 0.01164
 C2154 C 0.06914 0.02787 0.00753
 C2155 C 0.14374 0.04252 0.04155
 C2156 C 0.06949 0.00832 0.02628
 C2157 C 0.10563 0.02914 0.02780
 C2158 C 0.11777 0.03323 0.03194
 C2159 C 0.13184 0.03817 0.03702
 C2160 C 0.06185 0.01602 0.01488
 H2161 H 0.08958 0.00656 0.03929
 H2162 H 0.08895 0.04129 0.00598
 H2163 H 0.06360 0.03406 -0.00128
 H2164 H 0.06425 -0.00084 0.03219
 C2165 C 0.08342 0.53192 0.51164
 C2166 C 0.09075 0.52439 0.52322
 C2167 C 0.08371 0.51242 0.53039
 C2168 C 0.06932 0.50812 0.52615
 C2169 C 0.14290 0.54328 0.54248
 C2170 C 0.06903 0.52764 0.50737
 C2171 C 0.10524 0.52928 0.52812
 C2172 C 0.11725 0.53355 0.53245
 C2173 C 0.13115 0.53872 0.53775
 C2174 C 0.06174 0.51576 0.51467
 H2175 H 0.08876 0.54122 0.50604
 H2176 H 0.08927 0.50654 0.53940
 H2177 H 0.06407 0.49894 0.53202
 H2178 H 0.06355 0.53379 0.49850
 C2179 C 0.58215 0.01411 0.53186
 C2180 C 0.58914 0.02606 0.52463
 C2181 C 0.58187 0.03338 0.51288
 C2182 C 0.56761 0.02885 0.50844
 C2183 C 0.64162 0.04479 0.54322
 C2184 C 0.56789 0.00955 0.52746
 C2185 C 0.60364 0.03103 0.52947
 C2186 C 0.61570 0.03528 0.53367
 C2187 C 0.62973 0.04037 0.53874
 C2188 C 0.56041 0.01691 0.51572
 H2189 H 0.58767 0.00839 0.54099
 H2190 H 0.58717 0.04268 0.50723
 H2191 H 0.56219 0.03480 0.49941
 H2192 H 0.56269 0.00035 0.53333
 C2193 C 0.58355 0.51277 0.03032
 C2194 C 0.59062 0.52463 0.02300
 C2195 C 0.58324 0.53217 0.01146
 C2196 C 0.56877 0.52799 0.00736
 C2197 C 0.64330 0.54301 0.04131
 C2198 C 0.56909 0.50857 0.02624
 C2199 C 0.60524 0.52939 0.02768
 C2200 C 0.61736 0.53354 0.03179
 C2201 C 0.63142 0.53857 0.03683
 C2202 C 0.56147 0.51620 0.01478
 H2203 H 0.58916 0.50689 0.03930
 H2204 H 0.58860 0.54139 0.00575
 H2205 H 0.56326 0.53412 -0.00150
 H2206 H 0.56383 0.49946 0.03221
 C2207 C 0.03135 0.01125 0.08417
 C2208 C 0.02408 0.02303 0.09148
 C2209 C 0.01248 0.03063 0.08429
 C2210 C 0.00826 0.02661 0.06978
 C2211 C 0.04242 0.04109 0.14441
 C2212 C 0.02716 0.00720 0.06966
 C2213 C 0.02886 0.02763 0.10616
 C2214 C 0.03300 0.03169 0.11833
 C2215 C 0.03802 0.03666 0.13245
 C2216 C 0.01563 0.01491 0.06223
 H2217 H 0.04038 0.00532 0.08963
 H2218 H 0.00680 0.03978 0.08984
 H2219 H -0.00065 0.03280 0.06442
 H2220 H 0.03309 -0.00183 0.06421
 C2221 C 0.01234 0.53046 0.58382
 C2222 C 0.02399 0.52293 0.59101
 C2223 C 0.03127 0.51114 0.58373
 C2224 C 0.02706 0.50702 0.56924
 C2225 C 0.04259 0.54148 0.64365
 C2226 C 0.00810 0.52638 0.56933
 C2227 C 0.02881 0.52764 0.60562
 C2228 C 0.03301 0.53181 0.61774
 C2229 C 0.03810 0.53693 0.63178
 C2230 C 0.01550 0.51468 0.56181
 H2231 H 0.00665 0.53963 0.58934
 H2232 H 0.04033 0.50526 0.58919
 H2233 H 0.03301 0.49799 0.56381
 H2234 H -0.00082 0.53253 0.56397
 C2235 C 0.53270 0.01346 0.58241
 C2236 C 0.52532 0.02519 0.58966
 C2237 C 0.51338 0.03238 0.58260
 C2238 C 0.50889 0.02794 0.56829
 C2239 C 0.54370 0.04376 0.64241
 C2240 C 0.52824 0.00899 0.56810
 C2241 C 0.53019 0.03006 0.60422
 C2242 C 0.53436 0.03426 0.61634
 C2243 C 0.53935 0.03932 0.63044
 C2244 C 0.51630 0.01621 0.56083
 H2245 H 0.54198 0.00784 0.58777
 H2246 H 0.50760 0.04150 0.58810
 H2247 H 0.49969 0.03378 0.56304
 H2248 H 0.53423 -0.00004 0.56270
 C2249 C 0.53085 0.51180 0.08405
 C2250 C 0.52350 0.52355 0.09130
 C2251 C 0.51185 0.53105 0.08408
 C2252 C 0.50767 0.52694 0.06958
 C2253 C 0.54182 0.54215 0.14403
 C2254 C 0.52670 0.50766 0.06955
 C2255 C 0.52825 0.52829 0.10594
 C2256 C 0.53238 0.53247 0.11808
 C2257 C 0.53739 0.53759 0.13214
 C2258 C 0.51512 0.51527 0.06208
 H2259 H 0.53992 0.50595 0.08953
 H2260 H 0.50611 0.54019 0.08958
 H2261 H 0.49873 0.53305 0.06420
 H2262 H 0.53270 0.49864 0.06413
 C2263 C 0.23612 0.53145 0.66774
 C2264 C 0.22410 0.52436 0.66071
 C2265 C 0.21665 0.51270 0.66798
 C2266 C 0.22113 0.50821 0.68226
 C2267 C 0.20573 0.54340 0.60821
 C2268 C 0.24063 0.52699 0.68202
 C2269 C 0.21920 0.52929 0.64620
 C2270 C 0.21504 0.53359 0.63414
 C2271 C 0.21007 0.53881 0.62010
 C2272 C 0.23315 0.51535 0.68949
 H2273 H 0.24195 0.54051 0.66223
 H2274 H 0.20729 0.50716 0.66265
 H2275 H 0.21508 0.49925 0.68768
 H2276 H 0.24990 0.53277 0.68723
 C2277 C 0.23763 0.02957 0.16596
 C2278 C 0.22566 0.02240 0.15890
 C2279 C 0.21802 0.01096 0.16630
 C2280 C 0.22219 0.00681 0.18078
 C2281 C 0.20758 0.04121 0.10622
 C2282 C 0.24183 0.02545 0.18044
 C2283 C 0.22093 0.02716 0.14428
 C2284 C 0.21684 0.03138 0.13216
 C2285 C 0.21191 0.03658 0.11811
 C2286 C 0.23409 0.01409 0.18808
 H2287 H 0.24360 0.03847 0.16035
 H2288 H 0.20871 0.00536 0.16095
 H2289 H 0.21597 -0.00196 0.18631
 H2290 H 0.25102 0.03131 0.18569
 C2291 C 0.71746 0.23687 0.58214
 C2292 C 0.72454 0.22490 0.58928
 C2293 C 0.73618 0.21734 0.58209
 C2294 C 0.74067 0.22167 0.56777
 C2295 C 0.70638 0.20703 0.64222
 C2296 C 0.72192 0.24123 0.56782
 C2297 C 0.71971 0.22021 0.60388
 C2298 C 0.71559 0.21618 0.61604
 C2299 C 0.71066 0.21132 0.63020
 C2300 C 0.73357 0.23365 0.56044
 H2301 H 0.70841 0.24278 0.58759
 H2302 H 0.74172 0.20804 0.58751
 H2303 H 0.74964 0.21556 0.56243
 H2304 H 0.71618 0.25047 0.56252
 C2305 C 0.71684 0.73715 0.08144
 C2306 C 0.72386 0.72510 0.08852
 C2307 C 0.73553 0.71760 0.08133
 C2308 C 0.74011 0.72205 0.06708
 C2309 C 0.70515 0.70666 0.14107
 C2310 C 0.72139 0.74164 0.06720
 C2311 C 0.71890 0.72026 0.10302
 C2312 C 0.71465 0.71609 0.11509
 C2313 C 0.70958 0.71107 0.12915
 C2314 C 0.73307 0.73411 0.05981
 H2315 H 0.70777 0.74302 0.08690
 H2316 H 0.74102 0.70823 0.08669
 H2317 H 0.74910 0.71598 0.06174
 H2318 H 0.71569 0.75093 0.06194
 C2319 C 0.53309 0.73780 0.16806
 C2320 C 0.52572 0.72608 0.16076
 C2321 C 0.51377 0.71889 0.16775
 C2322 C 0.50924 0.72331 0.18204
 C2323 C 0.54431 0.70736 0.10820
 C2324 C 0.52859 0.74225 0.18235
 C2325 C 0.53065 0.72121 0.14623
 C2326 C 0.53486 0.71698 0.13415
 C2327 C 0.53991 0.71187 0.12011
 C2328 C 0.51664 0.73502 0.18955
 H2329 H 0.54238 0.74342 0.16276
 H2330 H 0.50801 0.70978 0.16220
 H2331 H 0.50003 0.71747 0.18723
 H2332 H 0.53457 0.75127 0.18780
 C2333 C 0.01283 0.71981 0.66598
 C2334 C 0.02475 0.72704 0.65896
 C2335 C 0.03229 0.73858 0.66637
 C2336 C 0.02805 0.74275 0.68083
 C2337 C 0.04321 0.70834 0.60635
 C2338 C 0.00857 0.72395 0.68043
 C2339 C 0.02956 0.72227 0.64436
 C2340 C 0.03373 0.71807 0.63226
 C2341 C 0.03877 0.71292 0.61822
 C2342 C 0.01621 0.73541 0.68809
 H2343 H 0.00694 0.71084 0.66035
 H2344 H 0.04156 0.74423 0.66105
 H2345 H 0.03420 0.75159 0.68638
 H2346 H -0.00058 0.71804 0.68566
 C2347 C 0.53175 0.66799 0.23700
 C2348 C 0.52454 0.66087 0.22507
 C2349 C 0.51291 0.66816 0.21759
 C2350 C 0.50855 0.68253 0.22195
 C2351 C 0.54259 0.60780 0.20713
 C2352 C 0.52743 0.68236 0.24138
 C2353 C 0.52926 0.64623 0.22033
 C2354 C 0.53334 0.63403 0.21626
 C2355 C 0.53826 0.61984 0.21139
 C2356 C 0.51580 0.68985 0.23388
 H2357 H 0.54079 0.66246 0.24284
 H2358 H 0.50727 0.66276 0.20832
 H2359 H 0.49959 0.68795 0.21589
 H2360 H 0.53328 0.68764 0.25058
 C2361 C 0.01171 0.66620 0.71858
 C2362 C 0.02340 0.65893 0.72599
 C2363 C 0.03081 0.66614 0.73774
 C2364 C 0.02669 0.68062 0.74195
 C2365 C 0.04213 0.60625 0.70763
 C2366 C 0.00756 0.68069 0.72277
 C2367 C 0.02816 0.64431 0.72120
 C2368 C 0.03237 0.63219 0.71706
 C2369 C 0.03753 0.61813 0.71205
 C2370 C 0.01509 0.68814 0.73443
 H2371 H 0.00593 0.66073 0.70944
 H2372 H 0.03990 0.66063 0.74353
 H2373 H 0.03274 0.68599 0.75096
 H2374 H -0.00139 0.68612 0.71672
 C2375 C 0.01202 0.08384 0.03210
 C2376 C 0.02349 0.09116 0.02446
 C2377 C 0.03063 0.08402 0.01252
 C2378 C 0.02645 0.06954 0.00834
 C2379 C 0.04218 0.14394 0.04257
 C2380 C 0.00781 0.06935 0.02795
 C2381 C 0.02828 0.10580 0.02916
 C2382 C 0.03248 0.11794 0.03325
 C2383 C 0.03762 0.13203 0.03820
 C2384 C 0.01506 0.06197 0.01608
 H2385 H 0.00644 0.08925 0.04139
 H2386 H 0.03956 0.08957 0.00655
 H2387 H 0.03229 0.06422 -0.00083
 H2388 H -0.00098 0.06388 0.03417
 C2389 C 0.03079 0.58367 0.51223
 C2390 C 0.02364 0.59082 0.52416
 C2391 C 0.01212 0.58353 0.53175
 C2392 C 0.00786 0.56907 0.52756
 C2393 C 0.04251 0.64348 0.54244
 C2394 C 0.02657 0.56922 0.50801
 C2395 C 0.02848 0.60543 0.52892
 C2396 C 0.03272 0.61754 0.53304
 C2397 C 0.03791 0.63160 0.53803
 C2398 C 0.01512 0.56168 0.51570
 H2399 H 0.03976 0.58920 0.50630
 H2400 H 0.00653 0.58895 0.54103
 H2401 H -0.00097 0.56363 0.53374
 H2402 H 0.03242 0.56389 0.49885
 C2403 C 0.53267 0.08213 0.51405
 C2404 C 0.52529 0.08941 0.52575
 C2405 C 0.51335 0.08237 0.53293
 C2406 C 0.50884 0.06806 0.52847
 C2407 C 0.54390 0.14220 0.54388
 C2408 C 0.52820 0.06783 0.50957
 C2409 C 0.53015 0.10398 0.53057
 C2410 C 0.53436 0.11611 0.53468
 C2411 C 0.53944 0.13023 0.53959
 C2412 C 0.51625 0.06059 0.51676
 H2413 H 0.54196 0.08747 0.50845
 H2414 H 0.50757 0.08789 0.54203
 H2415 H 0.49963 0.06283 0.53428
 H2416 H 0.53419 0.06243 0.50055
 C2417 C 0.51195 0.58392 0.03208
 C2418 C 0.52352 0.59118 0.02452
 C2419 C 0.53061 0.58404 0.01254
 C2420 C 0.52631 0.56963 0.00827
 C2421 C 0.54284 0.64350 0.04328
 C2422 C 0.50762 0.56951 0.02783
 C2423 C 0.52848 0.60571 0.02937
 C2424 C 0.53283 0.61775 0.03360
 C2425 C 0.53814 0.63170 0.03874
 C2426 C 0.51483 0.56212 0.01594
 H2427 H 0.50641 0.58933 0.04140
 H2428 H 0.53961 0.58955 0.00663
 H2429 H 0.53212 0.56431 -0.00092
 H2430 H 0.49876 0.56408 0.03401
 C2431 C 0.73680 0.16769 0.53321
 C2432 C 0.72508 0.16049 0.52579
 C2433 C 0.71799 0.16755 0.51377
 C2434 C 0.72252 0.18180 0.50925
 C2435 C 0.70599 0.10802 0.54423
 C2436 C 0.74137 0.18194 0.52872
 C2437 C 0.72010 0.14600 0.53069
 C2438 C 0.71578 0.13394 0.53488
 C2439 C 0.71057 0.11992 0.53988
 C2440 C 0.73424 0.18921 0.51671
 H2441 H 0.74234 0.16234 0.54255
 H2442 H 0.70888 0.16208 0.50796
 H2443 H 0.71676 0.18704 0.49999
 H2444 H 0.75038 0.18731 0.53475
 C2445 C 0.71775 0.66806 0.01286
 C2446 C 0.72500 0.66092 0.02473
 C2447 C 0.73672 0.66812 0.03214
 C2448 C 0.74114 0.68246 0.02778
 C2449 C 0.70682 0.60798 0.04273
 C2450 C 0.72214 0.68240 0.00847
 C2451 C 0.72022 0.64631 0.02948
 C2452 C 0.71611 0.63415 0.03357
 C2453 C 0.71116 0.61999 0.03846
 C2454 C 0.73387 0.68981 0.01591
 H2455 H 0.70864 0.66260 0.00706
 H2456 H 0.74239 0.66270 0.04137
 H2457 H 0.75018 0.68782 0.03379
 H2458 H 0.71627 0.68771 -0.00069
 C2459 C 0.21798 0.58229 0.73667
 C2460 C 0.22516 0.58932 0.72471
 C2461 C 0.23684 0.58202 0.71732
 C2462 C 0.24126 0.56771 0.72179
 C2463 C 0.20666 0.64196 0.70611
 C2464 C 0.22238 0.56798 0.74117
 C2465 C 0.22033 0.60386 0.71981
 C2466 C 0.21615 0.61596 0.71559
 C2467 C 0.21110 0.63003 0.71053
 C2468 C 0.23404 0.56048 0.73374
 H2469 H 0.20890 0.58782 0.74245
 H2470 H 0.24245 0.58735 0.70802
 H2471 H 0.25025 0.56228 0.71579
 H2472 H 0.21654 0.56276 0.75038
 C2473 C 0.21948 0.08352 0.23757
 C2474 C 0.22700 0.09069 0.22592
 C2475 C 0.23875 0.08340 0.21864
 C2476 C 0.24283 0.06891 0.22285
 C2477 C 0.20861 0.14336 0.20733
 C2478 C 0.22353 0.06903 0.24181
 C2479 C 0.22233 0.10531 0.22109
 C2480 C 0.21820 0.11743 0.21689
 C2481 C 0.21313 0.13148 0.21181
 C2482 C 0.23519 0.06149 0.23442
 H2483 H 0.21034 0.08905 0.24326
 H2484 H 0.24462 0.08884 0.20957
 H2485 H 0.25184 0.06346 0.21690
 H2486 H 0.21740 0.06368 0.25075
 C2487 C 0.71906 1.08384 0.73757
 C2488 C 0.72632 1.09098 0.72574
 C2489 C 0.73788 1.08366 0.71819
 C2490 C 0.74205 1.06918 0.72234
 C2491 C 0.70786 1.14371 0.70740
 C2492 C 0.72320 1.06936 0.74175
 C2493 C 0.72158 1.10561 0.72101
 C2494 C 0.71743 1.11775 0.71688
 C2495 C 0.71236 1.13181 0.71186
 C2496 C 0.73469 1.06179 0.73410
 H2497 H 0.71007 1.08939 0.74346
 H2498 H 0.74356 1.08908 0.70898
 H2499 H 0.75092 1.06371 0.71619
 H2500 H 0.71727 1.06403 0.75084
 C2501 C 0.71895 0.58423 0.23731
 C2502 C 0.72633 0.59141 0.22558
 C2503 C 0.73811 0.58420 0.21827
 C2504 C 0.74236 0.56977 0.22252
 C2505 C 0.70704 0.64358 0.20652
 C2506 C 0.72317 0.56980 0.24159
 C2507 C 0.72143 0.60593 0.22066
 C2508 C 0.71709 0.61794 0.21637
 C2509 C 0.71177 0.63184 0.21115
 C2510 C 0.73484 0.56233 0.23415
 H2511 H 0.70979 0.58969 0.24302
 H2512 H 0.74387 0.58965 0.20913
 H2513 H 0.75137 0.56437 0.21653
 H2514 H 0.71712 0.56443 0.25058
 C2515 C 0.51167 0.16593 0.71852
 C2516 C 0.52349 0.15870 0.72574
 C2517 C 0.53098 0.16587 0.73746
 C2518 C 0.52681 0.18030 0.74182
 C2519 C 0.54227 0.10628 0.70666
 C2520 C 0.50747 0.18037 0.72285
 C2521 C 0.52829 0.14415 0.72078
 C2522 C 0.53251 0.13208 0.71647
 C2523 C 0.53768 0.11810 0.71125
 C2524 C 0.51508 0.18779 0.73448
 H2525 H 0.50582 0.16049 0.70940
 H2526 H 0.54017 0.16039 0.74310
 H2527 H 0.53293 0.18566 0.75079
 H2528 H 0.49841 0.18577 0.71694
 C2529 C 1.03116 0.16575 0.23745
 C2530 C 1.02389 0.15857 0.22560
 C2531 C 1.01238 0.16590 0.21799
 C2532 C 1.00825 0.18042 0.22209
 C2533 C 1.04198 0.10551 0.20768
 C2534 C 1.02706 0.18027 0.24159
 C2535 C 1.02855 0.14387 0.22095
 C2536 C 1.03262 0.13167 0.21691
 C2537 C 1.03758 0.11750 0.21201
 C2538 C 1.01561 0.18783 0.23389
 H2539 H 1.04012 0.16019 0.24340
 H2540 H 1.00670 0.16046 0.20877
 H2541 H 0.99941 0.18589 0.21591
 H2542 H 1.03298 0.18561 0.25070
 C2543 C 0.23675 0.66822 0.53327
 C2544 C 0.22478 0.66111 0.52616
 C2545 C 0.21736 0.66827 0.51440
 C2546 C 0.22182 0.68253 0.50983
 C2547 C 0.20622 0.60848 0.54463
 C2548 C 0.24124 0.68248 0.52872
 C2549 C 0.21993 0.64659 0.53109
 C2550 C 0.21574 0.63450 0.53528
 C2551 C 0.21067 0.62042 0.54028
 C2552 C 0.23380 0.68984 0.51696
 H2553 H 0.24255 0.66279 0.54241
 H2554 H 0.20806 0.66288 0.50884
 H2555 H 0.21581 0.68785 0.50077
 H2556 H 0.25046 0.68777 0.53449
 C2557 C 0.23741 0.16751 1.03358
 C2558 C 0.22583 0.16020 1.02604
 C2559 C 0.21866 0.16729 1.01409
 C2560 C 0.22298 0.18165 1.00973
 C2561 C 0.20759 0.10715 1.04363
 C2562 C 0.24176 0.18188 1.02925
 C2563 C 0.22109 0.14557 1.03073
 C2564 C 0.21698 0.13338 1.03473
 C2565 C 0.21199 0.11919 1.03949
 C2566 C 0.23456 0.18916 1.01729
 H2567 H 0.24302 0.16214 1.04287
 H2568 H 0.20965 0.16174 1.00819
 H2569 H 0.21716 0.18690 1.00051
 H2570 H 0.25069 0.18732 1.03535
 C2571 C 0.21730 0.73711 0.58233
 C2572 C 0.22474 0.72542 0.58959
 C2573 C 0.23673 0.71829 0.58257
 C2574 C 0.24121 0.72272 0.56828
 C2575 C 0.20628 0.70660 0.64210
 C2576 C 0.22176 0.74157 0.56804
 C2577 C 0.21985 0.72052 0.60410
 C2578 C 0.21567 0.71627 0.61617
 C2579 C 0.21066 0.71112 0.63020
 C2580 C 0.23373 0.73438 0.56081
 H2581 H 0.20798 0.74268 0.58765
 H2582 H 0.24254 0.70920 0.58808
 H2583 H 0.25044 0.71691 0.56306
 H2584 H 0.21572 0.75056 0.56262
 C2585 C 0.23599 0.21718 1.08275
 C2586 C 0.22433 0.22466 1.08997
 C2587 C 0.21718 0.23662 1.08287
 C2588 C 0.22163 0.24106 1.06857
 C2589 C 0.20644 0.20648 1.14291
 C2590 C 0.24046 0.22158 1.06845
 C2591 C 0.21954 0.21989 1.10456
 C2592 C 0.21548 0.21578 1.11672
 C2593 C 0.21065 0.21083 1.13088
 C2594 C 0.23331 0.23357 1.06116
 H2595 H 0.24157 0.20788 1.08813
 H2596 H 0.20812 0.24247 1.08835
 H2597 H 0.21585 0.25030 1.06330
 H2598 H 0.24946 0.21553 1.06309
 C2599 C 0.73738 0.53083 0.16561
 C2600 C 0.72545 0.52367 0.15850
 C2601 C 0.71783 0.51217 0.16583
 C2602 C 0.72200 0.50796 0.18029
 C2603 C 0.70728 0.54247 0.10584
 C2604 C 0.74158 0.52665 0.18006
 C2605 C 0.72072 0.52848 0.14389
 C2606 C 0.71663 0.53271 0.13177
 C2607 C 0.71167 0.53789 0.11772
 C2608 C 0.73386 0.51523 0.18764
 H2609 H 0.74334 0.53978 0.16004
 H2610 H 0.70854 0.50658 0.16043
 H2611 H 0.71579 0.49915 0.18577
 H2612 H 0.75075 0.53251 0.18536
 C2613 C 0.71824 1.01167 0.66606
 C2614 C 0.72559 1.02343 0.65885
 C2615 C 0.73738 1.03077 0.66603
 C2616 C 0.74167 1.02653 0.68044
 C2617 C 0.70667 1.04289 0.60670
 C2618 C 0.72251 1.00740 0.68047
 C2619 C 0.72067 1.02836 0.64435
 C2620 C 0.71641 1.03274 0.63234
 C2621 C 0.71124 1.03811 0.61844
 C2622 C 0.73420 1.01488 0.68790
 H2623 H 0.70907 1.00594 0.66061
 H2624 H 0.74312 1.03992 0.66057
 H2625 H 0.75070 1.03255 0.68580
 H2626 H 0.71650 0.99840 0.68587
 C2627 C 0.51258 0.21949 0.66625
 C2628 C 0.52444 0.22679 0.65921
 C2629 C 0.53190 0.23840 0.66660
 C2630 C 0.52767 0.24255 0.68106
 C2631 C 0.54325 0.20799 0.60679
 C2632 C 0.50832 0.22361 0.68071
 C2633 C 0.52931 0.22201 0.64465
 C2634 C 0.53355 0.21780 0.63257
 C2635 C 0.53870 0.21262 0.61860
 C2636 C 0.51589 0.23512 0.68835
 H2637 H 0.50676 0.21046 0.66064
 H2638 H 0.54113 0.24410 0.66127
 H2639 H 0.53376 0.25144 0.68659
 H2640 H 0.49922 0.21764 0.68596
 C2641 C 1.03178 0.23853 0.16581
 C2642 C 1.02450 0.22676 0.15850
 C2643 C 1.01289 0.21919 0.16567
 C2644 C 1.00868 0.22323 0.18017
 C2645 C 1.04293 0.20842 0.10576
 C2646 C 1.02760 0.24260 0.18031
 C2647 C 1.02929 0.22210 0.14387
 C2648 C 1.03345 0.21799 0.13173
 C2649 C 1.03849 0.21293 0.11766
 C2650 C 1.01607 0.23492 0.18772
 H2651 H 1.04082 0.24444 0.16037
 H2652 H 1.00720 0.21003 0.16013
 H2653 H 0.99977 0.21706 0.18552
 H2654 H 1.03354 0.25163 0.18577
 C2655 C 0.58366 0.23774 0.71945
 C2656 C 0.59083 0.22581 0.72657
 C2657 C 0.58358 0.21813 0.73808
 C2658 C 0.56915 0.22224 0.74235
 C2659 C 0.64339 0.20774 0.70770
 C2660 C 0.56923 0.24188 0.72369
 C2661 C 0.60541 0.22114 0.72172
 C2662 C 0.61750 0.21707 0.71746
 C2663 C 0.63153 0.21212 0.71228
 C2664 C 0.56174 0.23410 0.73513
 H2665 H 0.58915 0.24374 0.71050
 H2666 H 0.58902 0.20885 0.74364
 H2667 H 0.56374 0.21599 0.75118
 H2668 H 0.56389 0.25105 0.71787
 C2669 C 1.08413 0.21781 0.23813
 C2670 C 1.09148 0.22546 0.22666
 C2671 C 1.08440 0.23743 0.21951
 C2672 C 1.06996 0.24162 0.22365
 C2673 C 1.14404 0.20728 0.20790
 C2674 C 1.06968 0.22197 0.24230
 C2675 C 1.10606 0.22073 0.22189
 C2676 C 1.11816 0.21663 0.21767
 C2677 C 1.13218 0.21167 0.21250
 C2678 C 1.06237 0.23386 0.23502
 H2679 H 1.08949 0.20850 0.24372
 H2680 H 1.08998 0.24341 0.21059
 H2681 H 1.06469 0.25081 0.21780
 H2682 H 1.06419 0.21573 0.25108
 C2683 C 0.16800 0.71712 0.51274
 C2684 C 0.16070 0.72460 0.52438
 C2685 C 0.16772 0.73659 0.53158
 C2686 C 0.18203 0.74103 0.52724
 C2687 C 0.10794 0.70657 0.54266
 C2688 C 0.18230 0.72153 0.50837
 C2689 C 0.14614 0.71980 0.52914
 C2690 C 0.13401 0.71571 0.53326
 C2691 C 0.11991 0.71083 0.53826
 C2692 C 0.18952 0.73352 0.51561
 H2693 H 0.16267 0.70779 0.50712
 H2694 H 0.16219 0.74244 0.54062
 H2695 H 0.18723 0.75028 0.53308
 H2696 H 0.18773 0.71547 0.49942
 C2697 C 0.16783 0.21735 1.01346
 C2698 C 0.16053 0.22485 1.02509
 C2699 C 0.16759 0.23678 1.03234
 C2700 C 0.18194 0.24116 1.02807
 C2701 C 0.10760 0.20702 1.04306
 C2702 C 0.18217 0.22170 1.00916
 C2703 C 0.14592 0.22012 1.02977
 C2704 C 0.13376 0.21608 1.03383
 C2705 C 0.11961 0.21124 1.03874
 C2706 C 0.18943 0.23363 1.01645
 H2707 H 0.16247 0.20808 1.00779
 H2708 H 0.16206 0.24264 1.04138
 H2709 H 0.18718 0.25036 1.03395
 H2710 H 0.18760 0.21563 1.00020
 C2711 C 0.66605 0.51270 0.21898
 C2712 C 0.65893 0.52453 0.22635
 C2713 C 0.66626 0.53205 0.23794
 C2714 C 0.68072 0.52790 0.24207
 C2715 C 0.60616 0.54282 0.20820
 C2716 C 0.68052 0.50852 0.22308
 C2717 C 0.64430 0.52925 0.22168
 C2718 C 0.63216 0.53338 0.21760
 C2719 C 0.61808 0.53839 0.21262
 C2720 C 0.68808 0.51614 0.23460
 H2721 H 0.66049 0.50682 0.20996
 H2722 H 0.66086 0.54125 0.24369
 H2723 H 0.68619 0.53403 0.25097
 H2724 H 0.68583 0.49943 0.21708
 C2725 C 0.66624 1.03204 0.73784
 C2726 C 0.65894 1.02446 0.72626
 C2727 C 0.66600 1.01247 0.71910
 C2728 C 0.68039 1.00819 0.72337
 C2729 C 0.60658 1.04304 0.70717
 C2730 C 0.68063 1.02779 0.74213
 C2731 C 0.64441 1.02929 0.72136
 C2732 C 0.63237 1.03349 0.71706
 C2733 C 0.61840 1.03856 0.71181
 C2734 C 0.68795 1.01588 0.73486
 H2735 H 0.66089 1.04136 0.74343
 H2736 H 0.66046 1.00654 0.71010
 H2737 H 0.68566 0.99899 0.71751
 H2738 H 0.68610 1.03398 0.75100
 C2739 C 0.83215 0.46834 0.26355
 C2740 C 0.83913 0.47543 0.27563
 C2741 C 0.83190 0.48717 0.28303
 C2742 C 0.81769 0.49173 0.27847
 C2743 C 0.89123 0.45611 0.29463
 C2744 C 0.81794 0.47287 0.25895
 C2745 C 0.85354 0.47041 0.28065
 C2746 C 0.86552 0.46604 0.28496
 C2747 C 0.87943 0.46076 0.29012
 C2748 C 0.81049 0.48458 0.26640
 H2749 H 0.83763 0.45922 0.25776
 H2750 H 0.83719 0.49270 0.29243
 H2751 H 0.81229 0.50074 0.28449
 H2752 H 0.81275 0.46710 0.24966
 C2753 C 0.83145 0.96671 0.76456
 C2754 C 0.83857 0.97410 0.77637
 C2755 C 0.83153 0.98617 0.78341
 C2756 C 0.81738 0.99079 0.77872
 C2757 C 0.89065 0.95493 0.79561
 C2758 C 0.81730 0.97129 0.75985
 C2759 C 0.85296 0.96908 0.78148
 C2760 C 0.86492 0.96475 0.78585
 C2761 C 0.87884 0.95952 0.79107
 C2762 C 0.81005 0.98336 0.76691
 H2763 H 0.83679 0.95732 0.75906
 H2764 H 0.83693 0.99195 0.79259
 H2765 H 0.81214 1.00009 0.78444
 H2766 H 0.81200 0.96529 0.75076
 C2767 C 0.41781 0.26228 0.78364
 C2768 C 0.41047 0.27390 0.77617
 C2769 C 0.41747 0.28109 0.76420
 C2770 C 0.43177 0.27675 0.75975
 C2771 C 0.35767 0.29228 0.79411
 C2772 C 0.43212 0.25791 0.77921
 C2773 C 0.39590 0.27867 0.78097
 C2774 C 0.38377 0.28281 0.78505
 C2775 C 0.36965 0.28784 0.78989
 C2776 C 0.43931 0.26514 0.76723
 H2777 H 0.41251 0.25666 0.79295
 H2778 H 0.41190 0.29012 0.75837
 H2779 H 0.43695 0.28259 0.75052
 H2780 H 0.43759 0.24897 0.78526
 C2781 C 0.91864 0.28274 0.26384
 C2782 C 0.91145 0.27534 0.27556
 C2783 C 0.91850 0.26334 0.28269
 C2784 C 0.93273 0.25879 0.27817
 C2785 C 0.85898 0.29415 0.29398
 C2786 C 0.93286 0.27822 0.25929
 C2787 C 0.89697 0.28026 0.28046
 C2788 C 0.88491 0.28452 0.28464
 C2789 C 0.87088 0.28965 0.28963
 C2790 C 0.94011 0.26622 0.26643
 H2791 H 0.91329 0.29207 0.25827
 H2792 H 0.91305 0.25755 0.29180
 H2793 H 0.93798 0.24954 0.28394
 H2794 H 0.93820 0.28423 0.25026
 C2795 C 0.33393 0.78097 0.48798
 C2796 C 0.34109 0.77367 0.47615
 C2797 C 0.33377 0.76212 0.46852
 C2798 C 0.31930 0.75799 0.47259
 C2799 C 0.39399 0.79184 0.45845
 C2800 C 0.31946 0.77687 0.49208
 C2801 C 0.35574 0.77833 0.47155
 C2802 C 0.36791 0.78242 0.46755
 C2803 C 0.38203 0.78741 0.46272
 C2804 C 0.31191 0.76539 0.48437
 H2805 H 0.33948 0.78995 0.49394
 H2806 H 0.33920 0.75642 0.45932
 H2807 H 0.31385 0.74913 0.46639
 H2808 H 0.31413 0.78282 0.50118
 C2809 C 0.33380 0.28092 0.98840
 C2810 C 0.34094 0.27350 0.97664
 C2811 C 0.33375 0.26168 0.96932
 C2812 C 0.31937 0.25743 0.97360
 C2813 C 0.39293 0.29283 0.95753
 C2814 C 0.31942 0.27670 0.99271
 C2815 C 0.35541 0.27841 0.97170
 C2816 C 0.36738 0.28276 0.96739
 C2817 C 0.38123 0.28809 0.96216
 C2818 C 0.31196 0.26498 0.98526
 H2819 H 0.33925 0.29011 0.99412
 H2820 H 0.33917 0.25589 0.96017
 H2821 H 0.31398 0.24839 0.96761
 H2822 H 0.31407 0.28277 1.00171
 C2823 C 0.78300 0.48597 0.33147
 C2824 C 0.77565 0.47419 0.33864
 C2825 C 0.76367 0.46706 0.33156
 C2826 C 0.75910 0.47162 0.31733
 C2827 C 0.79456 0.45568 0.39114
 C2828 C 0.77846 0.49055 0.31724
 C2829 C 0.78059 0.46926 0.35313
 C2830 C 0.78487 0.46505 0.36519
 C2831 C 0.79003 0.46005 0.37923
 C2832 C 0.76648 0.48340 0.30997
 H2833 H 0.79231 0.49155 0.33684
 H2834 H 0.75792 0.45791 0.33700
 H2835 H 0.74987 0.46583 0.31206
 H2836 H 0.78442 0.49963 0.31192
 C2837 C 0.78202 0.98650 0.83230
 C2838 C 0.77505 0.97440 0.83931
 C2839 C 0.76340 0.96689 0.83206
 C2840 C 0.75882 0.97137 0.81781
 C2841 C 0.79444 0.95584 0.89163
 C2842 C 0.77747 0.99101 0.81805
 C2843 C 0.78010 0.96949 0.85378
 C2844 C 0.78449 0.96529 0.86580
 C2845 C 0.78979 0.96026 0.87978
 C2846 C 0.76586 0.98345 0.81059
 H2847 H 0.79107 0.99237 0.83780
 H2848 H 0.75795 0.95749 0.83738
 H2849 H 0.74988 0.96528 0.81239
 H2850 H 0.78317 1.00032 0.81285
 C2851 C 0.28060 0.76244 0.41607
 C2852 C 0.27305 0.77407 0.40884
 C2853 C 0.26131 0.78139 0.41610
 C2854 C 0.25726 0.77725 0.43060
 C2855 C 0.29132 0.79243 0.35612
 C2856 C 0.27658 0.75827 0.43056
 C2857 C 0.27769 0.77882 0.39421
 C2858 C 0.28179 0.78296 0.38207
 C2859 C 0.28683 0.78799 0.36801
 C2860 C 0.26492 0.76571 0.43807
 H2861 H 0.28973 0.75672 0.41056
 H2862 H 0.25541 0.79044 0.41062
 H2863 H 0.24825 0.78324 0.43602
 H2864 H 0.28274 0.74935 0.43595
 C2865 C 0.28052 0.26238 0.91675
 C2866 C 0.27338 0.27434 0.90966
 C2867 C 0.26191 0.28201 0.91702
 C2868 C 0.25772 0.27785 0.93148
 C2869 C 0.29215 0.29240 0.85700
 C2870 C 0.27636 0.25819 0.93120
 C2871 C 0.27816 0.27906 0.89506
 C2872 C 0.28238 0.28314 0.88294
 C2873 C 0.28755 0.28806 0.86889
 C2874 C 0.26498 0.26595 0.93880
 H2875 H 0.28944 0.25639 0.91117
 H2876 H 0.25633 0.29131 0.91164
 H2877 H 0.24894 0.28408 0.93697
 H2878 H 0.28221 0.24900 0.93648
 C2879 C 0.48651 0.28279 0.83255
 C2880 C 0.47451 0.27573 0.83960
 C2881 C 0.46709 0.26399 0.83239
 C2882 C 0.47158 0.25938 0.81814
 C2883 C 0.45594 0.29456 0.89213
 C2884 C 0.49103 0.27821 0.81830
 C2885 C 0.46962 0.28071 0.85409
 C2886 C 0.46542 0.28499 0.86616
 C2887 C 0.46037 0.29010 0.88021
 C2888 C 0.48358 0.26647 0.81089
 H2889 H 0.49231 0.29192 0.83802
 H2890 H 0.45776 0.25846 0.83773
 H2891 H 0.46556 0.25034 0.81278
 H2892 H 0.50028 0.28396 0.81307
 C2893 C 0.98705 0.28282 0.33197
 C2894 C 0.97535 0.27543 0.33919
 C2895 C 0.96823 0.26341 0.33213
 C2896 C 0.97270 0.25887 0.31786
 C2897 C 0.95650 0.29418 0.39165
 C2898 C 0.99155 0.27831 0.31770
 C2899 C 0.97042 0.28038 0.35368
 C2900 C 0.96616 0.28463 0.36574
 C2901 C 0.96101 0.28973 0.37976
 C2902 C 0.98439 0.26631 0.31043
 H2903 H 0.99261 0.29217 0.33732
 H2904 H 0.95913 0.25763 0.33760
 H2905 H 0.96691 0.24962 0.31260
 H2906 H 1.00055 0.28432 0.31232
 C2907 C 0.48650 0.33228 0.78262
 C2908 C 0.47455 0.33935 0.77544
 C2909 C 0.46711 0.33206 0.76376
 C2910 C 0.47151 0.31772 0.75933
 C2911 C 0.45636 0.39217 0.79393
 C2912 C 0.49093 0.31794 0.77822
 C2913 C 0.46974 0.35393 0.78027
 C2914 C 0.46562 0.36607 0.78445
 C2915 C 0.46068 0.38019 0.78949
 C2916 C 0.48346 0.31046 0.76655
 H2917 H 0.49232 0.33781 0.79171
 H2918 H 0.45782 0.33742 0.75815
 H2919 H 0.46548 0.31230 0.75034
 H2920 H 0.50014 0.31270 0.78406
 C2921 C 0.98624 0.33220 0.28176
 C2922 C 0.97420 0.33917 0.27465
 C2923 C 0.96687 0.33190 0.26289
 C2924 C 0.97147 0.31766 0.25833
 C2925 C 0.95515 0.39139 0.29397
 C2926 C 0.99087 0.31797 0.27723
 C2927 C 0.96915 0.35361 0.27967
 C2928 C 0.96483 0.36562 0.28403
 C2929 C 0.95966 0.37957 0.28931
 C2930 C 0.98349 0.31048 0.26550
 H2931 H 0.99198 0.33772 0.29091
 H2932 H 0.95751 0.33718 0.25733
 H2933 H 0.96550 0.31224 0.24929
 H2934 H 1.00013 0.31278 0.28303
 C2935 C 0.28218 0.83404 0.48819
 C2936 C 0.27461 0.84135 0.47662
 C2937 C 0.26266 0.83426 0.46946
 C2938 C 0.25840 0.81984 0.47370
 C2939 C 0.29320 0.89372 0.45748
 C2940 C 0.27795 0.81961 0.49245
 C2941 C 0.27943 0.85590 0.47174
 C2942 C 0.28362 0.86795 0.46743
 C2943 C 0.28871 0.88192 0.46216
 C2944 C 0.26608 0.81228 0.48517
 H2945 H 0.29147 0.83941 0.49378
 H2946 H 0.25674 0.83981 0.46047
 H2947 H 0.24923 0.81455 0.46784
 H2948 H 0.28413 0.81414 0.50131
 C2949 C 0.26266 0.33389 0.97003
 C2950 C 0.27454 0.34099 0.97729
 C2951 C 0.28204 0.33368 0.98890
 C2952 C 0.27781 0.31924 0.99311
 C2953 C 0.29314 0.39351 0.95856
 C2954 C 0.25841 0.31945 0.97421
 C2955 C 0.27936 0.35557 0.97249
 C2956 C 0.28356 0.36766 0.96828
 C2957 C 0.28865 0.38167 0.96313
 C2958 C 0.26601 0.31189 0.98573
 H2959 H 0.25680 0.33944 0.96100
 H2960 H 0.29128 0.33907 0.99457
 H2961 H 0.28393 0.31377 1.00200
 H2962 H 0.24929 0.31415 0.96827
 C2963 C 0.76366 0.41780 0.28155
 C2964 C 0.77566 0.41079 0.27440
 C2965 C 0.78300 0.41807 0.26269
 C2966 C 0.77846 0.43234 0.25822
 C2967 C 0.79456 0.35838 0.29324
 C2968 C 0.75910 0.43207 0.27711
 C2969 C 0.78065 0.39631 0.27932
 C2970 C 0.78493 0.38426 0.28358
 C2971 C 0.79006 0.37025 0.28872
 C2972 C 0.76649 0.43956 0.26543
 H2973 H 0.75792 0.41228 0.29066
 H2974 H 0.79233 0.41276 0.25710
 H2975 H 0.78444 0.43777 0.24922
 H2976 H 0.74987 0.43728 0.28294
   
