data_POSCAR
  _audit_creation_date              2014-09-24
  _audit_creation_method            'ToBaCCo'
  _symmetry_space_group_name_H-M    'P1'
  _symmetry_Int_Tables_number       1
  _symmetry_cell_setting            triclinic
  loop_
  _symmetry_equiv_pos_as_xyz
 x,y,z
_cell_length_a 72.6445
_cell_length_b 71.8960
_cell_length_c 73.0475
_cell_angle_alpha 90.031600
_cell_angle_beta 89.869800
_cell_angle_gamma 90.116000
loop_
  _atom_site_label
  _atom_site_type_symbol
  _atom_site_fract_x
  _atom_site_fract_y
  _atom_site_fract_z
C1 C 0.35822 0.33544 0.33490
 C2 C 0.35022 0.35126 0.32707
 C3 C 0.33441 0.35907 0.33492
 C4 C 0.32662 0.35107 0.35061
 C5 C 0.33460 0.33526 0.35845
 C6 C 0.35042 0.32745 0.35060
 H7 H 0.35614 0.35732 0.31480
 H8 H 0.31426 0.35699 0.35657
 H9 H 0.35649 0.31509 0.35655
 C10 C 0.35970 0.83606 -0.16493
 C11 C 0.35147 0.85176 -0.17277
 C12 C 0.33557 0.85940 -0.16489
 C13 C 0.32793 0.85133 -0.14914
 C14 C 0.33614 0.83563 -0.14130
 C15 C 0.35203 0.82801 -0.14918
 H16 H 0.35728 0.85788 -0.18509
 H17 H 0.31551 0.85708 -0.14312
 H18 H 0.35825 0.81573 -0.14318
 C19 C 0.85820 0.33551 -0.16541
 C20 C 0.85006 0.35118 -0.17337
 C21 C 0.83422 0.35898 -0.16555
 C22 C 0.82653 0.35107 -0.14974
 C23 C 0.83466 0.33539 -0.14179
 C24 C 0.85051 0.32763 -0.14961
 H25 H 0.85595 0.35714 -0.18572
 H26 H 0.81416 0.35695 -0.14374
 H27 H 0.85670 0.31538 -0.14356
 C28 C 0.85833 0.83618 0.33518
 C29 C 0.85020 0.85180 0.32710
 C30 C 0.83437 0.85968 0.33488
 C31 C 0.82669 0.85190 0.35076
 C32 C 0.83481 0.83628 0.35883
 C33 C 0.85064 0.82844 0.35105
 H34 H 0.85607 0.85764 0.31469
 H35 H 0.81431 0.85782 0.35671
 H36 H 0.85681 0.81622 0.35719
 C37 C 0.64285 0.66744 0.33459
 C38 C 0.65082 0.65156 0.32681
 C39 C 0.66658 0.64374 0.33465
 C40 C 0.67437 0.65179 0.35030
 C41 C 0.66640 0.66767 0.35810
 C42 C 0.65064 0.67548 0.35025
 H43 H 0.64488 0.64542 0.31461
 H44 H 0.68667 0.64583 0.35628
 H45 H 0.64455 0.68786 0.35619
 C46 C 0.64241 0.16671 -0.16592
 C47 C 0.65063 0.15101 -0.17378
 C48 C 0.66648 0.14334 -0.16593
 C49 C 0.67407 0.15139 -0.15017
 C50 C 0.66585 0.16710 -0.14230
 C51 C 0.65001 0.17475 -0.15018
 H52 H 0.64479 0.14491 -0.18607
 H53 H 0.68643 0.14558 -0.14413
 H54 H 0.64374 0.18701 -0.14419
 C55 C 0.14134 0.66487 -0.16370
 C56 C 0.14895 0.64867 -0.17120
 C57 C 0.16460 0.64068 -0.16325
 C58 C 0.17259 0.64888 -0.14777
 C59 C 0.16497 0.66507 -0.14026
 C60 C 0.14935 0.67306 -0.14823
 H61 H 0.14282 0.64246 -0.18329
 H62 H 0.18480 0.64283 -0.14168
 H63 H 0.14357 0.68571 -0.14254
 C64 C 0.14143 0.16513 0.33609
 C65 C 0.14925 0.14899 0.32869
 C66 C 0.16487 0.14114 0.33678
 C67 C 0.17265 0.14941 0.35232
 C68 C 0.16484 0.16555 0.35974
 C69 C 0.14922 0.17340 0.35162
 H70 H 0.14332 0.14267 0.31656
 H71 H 0.18484 0.14342 0.35849
 H72 H 0.14328 0.18600 0.35726
 C73 C 0.64048 0.33436 0.66369
 C74 C 0.64843 0.35013 0.67174
 C75 C 0.66447 0.35788 0.66427
 C76 C 0.67255 0.34989 0.64872
 C77 C 0.66461 0.33412 0.64066
 C78 C 0.64857 0.32636 0.64814
 H79 H 0.64226 0.35621 0.68388
 H80 H 0.68506 0.35579 0.64303
 H81 H 0.64251 0.31405 0.64202
 C82 C 0.64101 0.83384 1.16397
 C83 C 0.64878 0.84996 1.17154
 C84 C 0.66447 0.85795 1.16354
 C85 C 0.67236 0.84984 1.14794
 C86 C 0.66459 0.83374 1.14036
 C87 C 0.64893 0.82575 1.14837
 H88 H 0.64276 0.85616 1.18371
 H89 H 0.68459 0.85590 1.14180
 H90 H 0.64305 0.81317 1.14256
 C91 C 0.14023 0.33359 1.16420
 C92 C 0.14793 0.34985 1.17157
 C93 C 0.16349 0.35788 1.16341
 C94 C 0.17135 0.34971 1.14784
 C95 C 0.16367 0.33347 1.14045
 C96 C 0.14812 0.32542 1.14862
 H97 H 0.14197 0.35613 1.18372
 H98 H 0.18349 0.35584 1.14162
 H99 H 0.14232 0.31274 1.14297
 C100 C 0.14108 0.83511 0.66340
 C101 C 0.14898 0.85110 0.67110
 C102 C 0.16499 0.85877 0.66342
 C103 C 0.17307 0.85045 0.64802
 C104 C 0.16516 0.83448 0.64032
 C105 C 0.14917 0.82682 0.64799
 H106 H 0.14280 0.85744 0.68312
 H107 H 0.18554 0.85626 0.64213
 H108 H 0.14317 0.81436 0.64209
 C109 C 0.35980 0.66426 0.66451
 C110 C 0.35184 0.64842 0.67242
 C111 C 0.33592 0.64061 0.66480
 C112 C 0.32799 0.64863 0.64923
 C113 C 0.33594 0.66448 0.64131
 C114 C 0.35186 0.67228 0.64895
 H115 H 0.35789 0.64231 0.68457
 H116 H 0.31558 0.64268 0.64341
 H117 H 0.35793 0.68465 0.64293
 C118 C 0.35744 0.16627 1.16566
 C119 C 0.34948 0.15041 1.17353
 C120 C 0.33379 0.14237 1.16565
 C121 C 0.32609 0.15021 1.14986
 C122 C 0.33405 0.16607 1.14199
 C123 C 0.34974 0.17409 1.14988
 H124 H 0.35539 0.14448 1.18584
 H125 H 0.31384 0.14413 1.14381
 H126 H 0.35580 0.18647 1.14388
 C127 C 0.85706 0.66782 1.16593
 C128 C 0.84913 0.65193 1.17379
 C129 C 0.83345 0.64388 1.16592
 C130 C 0.82570 0.65173 1.15018
 C131 C 0.83362 0.66761 1.14231
 C132 C 0.84931 0.67565 1.15018
 H133 H 0.85506 0.64594 1.18605
 H134 H 0.81348 0.64559 1.14417
 H135 H 0.85536 0.68803 1.14417
 C136 C 0.85925 0.16413 0.66445
 C137 C 0.85106 0.14846 0.67250
 C138 C 0.83503 0.14079 0.66494
 C139 C 0.82721 0.14880 0.64930
 C140 C 0.83537 0.16447 0.64126
 C141 C 0.85139 0.17212 0.64881
 H142 H 0.85705 0.14236 0.68471
 H143 H 0.81471 0.14300 0.64350
 H144 H 0.85759 0.18436 0.64264
 C145 C 0.33537 0.35914 0.66488
 C146 C 0.35112 0.35124 0.67267
 C147 C 0.35897 0.33531 0.66486
 C148 C 0.35107 0.32729 0.64925
 C149 C 0.33531 0.33519 0.64146
 C150 C 0.32748 0.35113 0.64926
 H151 H 0.35713 0.35735 0.68485
 H152 H 0.35706 0.31486 0.64331
 H153 H 0.31521 0.35718 0.64331
 C154 C 0.33615 0.85925 0.16411
 C155 C 0.35168 0.85117 0.17217
 C156 C 0.35935 0.83501 0.16462
 C157 C 0.35150 0.82697 0.14900
 C158 C 0.33597 0.83505 0.14094
 C159 C 0.32831 0.85120 0.14850
 H160 H 0.35765 0.85731 0.18436
 H161 H 0.35733 0.81438 0.14325
 H162 H 0.31618 0.85736 0.14236
 C163 C 0.83408 0.35651 0.16643
 C164 C 0.84974 0.34852 0.17431
 C165 C 0.85769 0.33268 0.16643
 C166 C 0.84997 0.32484 0.15064
 C167 C 0.83430 0.33282 0.14275
 C168 C 0.82637 0.34866 0.15065
 H169 H 0.85563 0.35451 0.18661
 H170 H 0.85604 0.31249 0.14461
 H171 H 0.81415 0.35476 0.14463
 C172 C 0.83506 0.85762 0.66639
 C173 C 0.85079 0.84962 0.67414
 C174 C 0.85868 0.83380 0.66617
 C175 C 0.85085 0.82599 0.65043
 C176 C 0.83512 0.83397 0.64267
 C177 C 0.82724 0.84980 0.65065
 H178 H 0.85675 0.85557 0.68643
 H179 H 0.85687 0.81364 0.64434
 H180 H 0.81496 0.85588 0.64475
 C181 C 0.66525 0.64280 0.66520
 C182 C 0.64933 0.65062 0.67282
 C183 C 0.64142 0.66640 0.66484
 C184 C 0.64943 0.67436 0.64923
 C185 C 0.66535 0.66654 0.64160
 C186 C 0.67324 0.65075 0.64959
 H187 H 0.64322 0.64455 0.68500
 H188 H 0.64340 0.68668 0.64314
 H189 H 0.68566 0.64479 0.64378
 C190 C 0.66437 0.14167 0.16386
 C191 C 0.64879 0.14974 0.17192
 C192 C 0.64119 0.16593 0.16445
 C193 C 0.64917 0.17404 0.14890
 C194 C 0.66473 0.16597 0.14082
 C195 C 0.67232 0.14978 0.14830
 H196 H 0.64271 0.14354 0.18405
 H197 H 0.64338 0.18667 0.14320
 H198 H 0.68447 0.14362 0.14215
 C199 C 0.16431 0.64243 0.16393
 C200 C 0.17227 0.65050 0.14835
 C201 C 0.16467 0.66665 0.14080
 C202 C 0.14907 0.67472 0.14882
 C203 C 0.14109 0.66666 0.16440
 C204 C 0.14871 0.65050 0.17194
 H205 H 0.18444 0.64434 0.14224
 H206 H 0.14328 0.68732 0.14308
 H207 H 0.14264 0.64434 0.18409
 C208 C 0.16557 0.14214 0.66514
 C209 C 0.17350 0.15039 0.64964
 C210 C 0.16571 0.16646 0.64212
 C211 C 0.14996 0.17427 0.65009
 C212 C 0.14200 0.16601 0.66558
 C213 C 0.14980 0.14993 0.67309
 H214 H 0.18578 0.14443 0.64356
 H215 H 0.14400 0.18680 0.64436
 H216 H 0.14373 0.14362 0.68516
 C217 C 0.33550 0.64052 0.33508
 C218 C 0.35122 0.64852 0.32719
 C219 C 0.35919 0.66437 0.33507
 C220 C 0.35144 0.67219 0.35086
 C221 C 0.33572 0.66420 0.35876
 C222 C 0.32776 0.64835 0.35088
 H223 H 0.35709 0.64258 0.31484
 H224 H 0.35748 0.68459 0.35685
 H225 H 0.31546 0.64229 0.35686
 C226 C 0.33653 0.13920 0.83680
 C227 C 0.35256 0.14692 0.82926
 C228 C 0.36056 0.16268 0.83726
 C229 C 0.35256 0.17070 0.85284
 C230 C 0.33654 0.16298 0.86039
 C231 C 0.32855 0.14721 0.85239
 H232 H 0.35863 0.14085 0.81706
 H233 H 0.35863 0.18304 0.85890
 H234 H 0.31602 0.14136 0.85811
 C235 C 0.83581 0.64192 0.83455
 C236 C 0.85148 0.65002 0.82664
 C237 C 0.85956 0.66572 0.83469
 C238 C 0.85198 0.67331 0.85068
 C239 C 0.83632 0.66521 0.85860
 C240 C 0.82825 0.64952 0.85054
 H241 H 0.85725 0.64424 0.81417
 H242 H 0.85813 0.68556 0.85684
 H243 H 0.81601 0.64336 0.85657
 C244 C 0.83490 0.14006 0.33538
 C245 C 0.82715 0.14792 0.35116
 C246 C 0.83515 0.16373 0.35908
 C247 C 0.85093 0.17166 0.35124
 C248 C 0.85869 0.16382 0.33546
 C249 C 0.85068 0.14801 0.32755
 H250 H 0.81481 0.14191 0.35711
 H251 H 0.85700 0.18403 0.35725
 H252 H 0.85656 0.14206 0.31521
 C253 C 0.66667 0.35634 0.33503
 C254 C 0.65084 0.34860 0.32718
 C255 C 0.64279 0.33269 0.33488
 C256 C 0.65057 0.32456 0.35046
 C257 C 0.66640 0.33230 0.35833
 C258 C 0.67444 0.34820 0.35061
 H259 H 0.64491 0.35481 0.31502
 H260 H 0.64442 0.31216 0.35635
 H261 H 0.68679 0.35411 0.35661
 C262 C 0.66263 0.86067 0.83824
 C263 C 0.64671 0.85315 0.83036
 C264 C 0.63859 0.83719 0.83787
 C265 C 0.64637 0.82877 0.85331
 C266 C 0.66230 0.83628 0.86120
 C267 C 0.67041 0.85223 0.85367
 H268 H 0.64081 0.85955 0.81828
 H269 H 0.64021 0.81628 0.85899
 H270 H 0.68287 0.85792 0.85964
 C271 C 0.16431 0.35700 0.83559
 C272 C 0.17222 0.34876 0.85105
 C273 C 0.16452 0.33255 0.85847
 C274 C 0.14888 0.32459 0.85043
 C275 C 0.14095 0.33282 0.83497
 C276 C 0.14867 0.34904 0.82756
 H277 H 0.18441 0.35484 0.85718
 H278 H 0.14299 0.31196 0.85609
 H279 H 0.14263 0.35534 0.81550
 C280 C 0.16607 0.85736 0.33604
 C281 C 0.15032 0.84947 0.32818
 C282 C 0.14253 0.83337 0.33576
 C283 C 0.15049 0.82520 0.35124
 C284 C 0.16625 0.83310 0.35911
 C285 C 0.17402 0.84919 0.35151
 H286 H 0.14425 0.85571 0.31611
 H287 H 0.14455 0.81265 0.35703
 H288 H 0.18631 0.85522 0.35751
 O289 O 0.22735 0.98166 0.25296
 O290 O 0.25181 1.01848 0.22765
 O291 O 0.25214 0.98221 0.22720
 O292 O 0.22710 1.01791 0.25340
 O293 O 0.24907 1.01790 0.27432
 O294 O 0.27412 0.98219 0.24810
 O295 O 0.27378 1.01848 0.24856
 O296 O 0.24932 0.98163 0.27387
 Cu297 Cu 0.23739 1.00005 0.23819
 Cu298 Cu 0.26380 1.00003 0.26331
 C299 C 0.23422 0.97541 0.26767
 C300 C 0.26686 1.02478 0.23389
 C301 C 0.26734 0.97613 0.23326
 C302 C 0.23390 1.02399 0.26823
 O303 O 0.25125 0.51810 0.72827
 O304 O 0.22612 0.48170 0.75357
 O305 O 0.22609 0.51796 0.75368
 O306 O 0.25131 0.48184 0.72817
 O307 O 0.27297 0.48186 0.74940
 O308 O 0.24775 0.51797 0.77490
 O309 O 0.24779 0.48171 0.77479
 O310 O 0.27292 0.51811 0.74950
 Cu311 Cu 0.23650 0.49990 0.73878
 Cu312 Cu 0.26254 0.49991 0.76429
 C313 C 0.26630 0.52428 0.73464
 C314 C 0.23275 0.47552 0.76842
 C315 C 0.23270 0.52410 0.76857
 C316 C 0.26637 0.47572 0.73450
 O317 O 0.75035 -0.01891 0.27180
 O318 O 0.72547 0.01735 0.24637
 O319 O 0.72550 -0.01891 0.24627
 O320 O 0.75041 0.01738 0.27184
 O321 O 0.77228 0.01744 0.25073
 O322 O 0.74737 -0.01884 0.22515
 O323 O 0.74733 0.01743 0.22525
 O324 O 0.77222 -0.01885 0.25069
 Cu325 Cu 0.73573 -0.00077 0.26121
 Cu326 Cu 0.76202 -0.00070 0.23583
 C327 C 0.76544 -0.02507 0.26549
 C328 C 0.73223 0.02356 0.23155
 C329 C 0.73227 -0.02505 0.23143
 C330 C 0.76550 0.02360 0.26555
 O331 O 0.74788 0.48184 0.72629
 O332 O 0.77326 0.51816 0.75131
 O333 O 0.77308 0.48185 0.75143
 O334 O 0.74799 0.51815 0.72624
 O335 O 0.72644 0.51825 0.74767
 O336 O 0.75152 0.48196 0.77286
 O337 O 0.75170 0.51827 0.77274
 O338 O 0.72632 0.48194 0.74772
 Cu339 Cu 0.76273 0.49999 0.73665
 Cu340 Cu 0.73682 0.50012 0.76241
 C341 C 0.73289 0.47567 0.73285
 C342 C 0.76670 0.52444 0.76617
 C343 C 0.76646 0.47569 0.76633
 C344 C 0.73305 0.52442 0.73278
 O345 O 0.25011 0.48179 0.27198
 O346 O 0.22539 0.51818 0.24654
 O347 O 0.22520 0.48190 0.24647
 O348 O 0.25037 0.51808 0.27197
 O349 O 0.27220 0.51798 0.25081
 O350 O 0.24703 0.48182 0.22531
 O351 O 0.24722 0.51810 0.22538
 O352 O 0.27193 0.48170 0.25082
 Cu353 Cu 0.23556 0.49999 0.26138
 Cu354 Cu 0.26180 0.49989 0.23595
 C355 C 0.26515 0.47555 0.26565
 C356 C 0.23217 0.52434 0.23171
 C357 C 0.23190 0.47571 0.23162
 C358 C 0.26549 0.52419 0.26564
 O359 O 0.75193 1.01795 0.72750
 O360 O 0.72659 0.98237 0.75366
 O361 O 0.72700 1.01865 0.75293
 O362 O 0.75172 0.98165 0.72823
 O363 O 0.77346 0.98197 0.74937
 O364 O 0.74874 1.01894 0.77408
 O365 O 0.74833 0.98266 0.77480
 O366 O 0.77367 1.01826 0.74865
 Cu367 Cu 0.73711 1.00009 0.73844
 Cu368 Cu 0.76325 1.00046 0.76386
 C369 C 0.76698 1.02424 0.73375
 C370 C 0.73321 0.97647 0.76861
 C371 C 0.73379 1.02515 0.76759
 C372 C 0.76672 0.97552 0.73467
 O373 O 0.75196 0.51805 0.22735
 O374 O 0.72712 0.48176 0.25300
 O375 O 0.72701 0.51808 0.25281
 O376 O 0.75212 0.48173 0.22759
 O377 O 0.77389 0.48200 0.24870
 O378 O 0.74878 0.51835 0.27392
 O379 O 0.74890 0.48201 0.27412
 O380 O 0.77373 0.51832 0.24846
 Cu381 Cu 0.73735 0.49988 0.23805
 Cu382 Cu 0.76352 0.50020 0.26344
 C383 C 0.76695 0.52442 0.23365
 C384 C 0.73390 0.47564 0.26780
 C385 C 0.73375 0.52447 0.26753
 C386 C 0.76716 0.47562 0.23397
 O387 O 0.25139 -0.01903 0.77242
 O388 O 0.22667 0.01747 0.74714
 O389 O 0.22650 -0.01881 0.74690
 O390 O 0.25159 0.01724 0.77262
 O391 O 0.27345 0.01730 0.75149
 O392 O 0.24836 -0.01875 0.72577
 O393 O 0.24853 0.01752 0.72602
 O394 O 0.27326 -0.01899 0.75130
 Cu395 Cu 0.23683 -0.00079 0.76190
 Cu396 Cu 0.26311 -0.00073 0.73651
 C397 C 0.26646 -0.02522 0.76609
 C398 C 0.23347 0.02371 0.73236
 C399 C 0.23323 -0.02492 0.73203
 C400 C 0.26671 0.02342 0.76634
 O401 O 0.24711 0.27199 0.98174
 O402 O 0.27271 0.24736 1.01774
 O403 O 0.27289 0.24705 0.98202
 O404 O 0.24688 0.27223 1.01750
 O405 O 0.22581 0.24997 1.01758
 O406 O 0.25183 0.22479 0.98211
 O407 O 0.25164 0.22511 1.01784
 O408 O 0.22604 0.24974 0.98181
 Cu409 Cu 0.26202 0.26191 0.99973
 Cu410 Cu 0.23670 0.23515 0.99984
 C411 C 0.23234 0.26494 0.97559
 C412 C 0.26641 0.23216 1.02397
 C413 C 0.26668 0.23173 0.97599
 C414 C 0.23205 0.26526 1.02365
 O415 O 0.24885 0.77213 0.48228
 O416 O 0.27426 0.74707 0.51813
 O417 O 0.27436 0.74693 0.48238
 O418 O 0.24873 0.77226 0.51803
 O419 O 0.22743 0.75024 0.51807
 O420 O 0.25305 0.72491 0.48242
 O421 O 0.25297 0.72504 0.51817
 O422 O 0.22755 0.75011 0.48232
 Cu423 Cu 0.26370 0.76182 0.50020
 Cu424 Cu 0.23810 0.73535 0.50026
 C425 C 0.23400 0.76527 0.47613
 C426 C 0.26782 0.73191 0.52430
 C427 C 0.26794 0.73173 0.47627
 C428 C 0.23384 0.76544 0.52418
 O429 O 0.27424 0.75229 -0.01810
 O430 O 0.24845 0.72722 0.01767
 O431 O 0.24852 0.72716 -0.01808
 O432 O 0.27413 0.75235 0.01765
 O433 O 0.25298 0.77444 0.01762
 O434 O 0.22737 0.74925 -0.01811
 O435 O 0.22730 0.74931 0.01764
 O436 O 0.25310 0.77437 -0.01813
 Cu437 Cu 0.26347 0.73752 -0.00022
 Cu438 Cu 0.23805 0.76408 -0.00025
 C439 C 0.26795 0.76749 -0.02425
 C440 C 0.23361 0.73411 0.02380
 C441 C 0.23370 0.73403 -0.02421
 C442 C 0.26779 0.76756 0.02378
 O443 O 0.27324 0.25269 0.48223
 O444 O 0.24787 0.22753 0.51823
 O445 O 0.24771 0.22739 0.48247
 O446 O 0.27345 0.25274 0.51799
 O447 O 0.25219 0.27472 0.51812
 O448 O 0.22645 0.24936 0.48257
 O449 O 0.22660 0.24950 0.51833
 O450 O 0.25198 0.27467 0.48235
 Cu451 Cu 0.26271 0.23787 0.50021
 Cu452 Cu 0.23715 0.26428 0.50035
 C453 C 0.26681 0.26784 0.47611
 C454 C 0.23305 0.23436 0.52447
 C455 C 0.23282 0.23418 0.47641
 C456 C 0.26707 0.26791 0.52417
 O457 O 0.75227 0.72558 0.98142
 O458 O 0.72649 0.75075 1.01710
 O459 O 0.72641 0.75060 0.98138
 O460 O 0.75220 0.72584 1.01717
 O461 O 0.77330 0.74807 1.01703
 O462 O 0.74751 0.77282 0.98122
 O463 O 0.74759 0.77297 1.01695
 O464 O 0.77335 0.74781 0.98128
 Cu465 Cu 0.73722 0.73594 0.99924
 Cu466 Cu 0.76257 0.76265 0.99906
 C467 C 0.76713 0.73249 0.97528
 C468 C 0.73279 0.76601 1.02318
 C469 C 0.73263 0.76586 0.97522
 C470 C 0.76697 0.73289 1.02330
 O471 O 0.77368 0.24715 0.51804
 O472 O 0.74806 0.27201 0.48222
 O473 O 0.74814 0.27233 0.51797
 O474 O 0.77362 0.24688 0.48230
 O475 O 0.75235 0.22482 0.48253
 O476 O 0.72687 0.25028 0.51821
 O477 O 0.72680 0.24995 0.48246
 O478 O 0.75242 0.22509 0.51827
 Cu479 Cu 0.76302 0.26182 0.50011
 Cu480 Cu 0.73746 0.23531 0.50040
 C481 C 0.76730 0.23200 0.52430
 C482 C 0.73320 0.26509 0.47617
 C483 C 0.73328 0.26552 0.52422
 C484 C 0.76720 0.23165 0.47629
 O485 O 0.77344 0.25243 -0.01811
 O486 O 0.74762 0.22712 0.01747
 O487 O 0.74769 0.22737 -0.01828
 O488 O 0.77339 0.25213 0.01766
 O489 O 0.75231 0.27428 0.01786
 O490 O 0.72661 0.24952 -0.01810
 O491 O 0.72654 0.24928 0.01765
 O492 O 0.75236 0.27459 -0.01792
 Cu493 Cu 0.76267 0.23753 -0.00034
 Cu494 Cu 0.73733 0.26416 -0.00011
 C495 C 0.76717 0.26770 -0.02414
 C496 C 0.73281 0.23401 0.02368
 C497 C 0.73290 0.23435 -0.02436
 C498 C 0.76709 0.26729 0.02395
 O499 O 0.72684 0.74998 0.48250
 O500 O 0.75237 0.77487 0.51847
 O501 O 0.75238 0.77525 0.48272
 O502 O 0.72692 0.74952 0.51827
 O503 O 0.74823 0.72759 0.51794
 O504 O 0.77369 0.75333 0.48240
 O505 O 0.77368 0.75295 0.51814
 O506 O 0.74816 0.72806 0.48218
 Cu507 Cu 0.73747 0.76462 0.50052
 Cu508 Cu 0.76309 0.73827 0.50013
 C509 C 0.73328 0.73491 0.47614
 C510 C 0.76725 0.76803 0.52449
 C511 C 0.76725 0.76854 0.47644
 C512 C 0.73337 0.73430 0.52423
 O513 O 1.01821 0.27254 0.24805
 O514 O 0.98231 0.24715 0.27351
 O515 O 1.01825 0.24716 0.27331
 O516 O 0.98225 0.27245 0.24820
 O517 O 0.98217 0.25054 0.22693
 O518 O 1.01817 0.22525 0.25204
 O519 O 0.98224 0.22525 0.25224
 O520 O 1.01813 0.25063 0.22679
 Cu521 Cu 1.00027 0.26204 0.26291
 Cu522 Cu 1.00018 0.23570 0.23735
 C523 C 1.02433 0.26579 0.23320
 C524 C 0.97611 0.23200 0.26709
 C525 C 1.02438 0.23201 0.26684
 C526 C 0.97601 0.26567 0.23342
 O527 O 0.48121 0.25117 0.72702
 O528 O 0.51769 0.22612 0.75173
 O529 O 0.48178 0.22583 0.75246
 O530 O 0.51710 0.25132 0.72630
 O531 O 0.51740 0.27334 0.74746
 O532 O 0.48206 0.24784 0.77363
 O533 O 0.51797 0.24814 0.77289
 O534 O 0.48151 0.27318 0.74818
 Cu535 Cu 0.49939 0.23639 0.73725
 Cu536 Cu 0.49974 0.26284 0.76268
 C537 C 0.47519 0.26639 0.73345
 C538 C 0.52408 0.23298 0.76641
 C539 C 0.47593 0.23255 0.76744
 C540 C 0.52330 0.26656 0.73252
 O541 O 0.01669 0.25083 0.77307
 O542 O -0.01902 0.22549 0.74746
 O543 O 0.01690 0.22556 0.74777
 O544 O -0.01926 0.25098 0.77278
 O545 O -0.01894 0.27286 0.75151
 O546 O 0.01717 0.24746 0.72651
 O547 O -0.01874 0.24737 0.72619
 O548 O 0.01700 0.27272 0.75181
 Cu549 Cu -0.00124 0.23601 0.76242
 Cu550 Cu -0.00089 0.26232 0.73686
 C551 C 0.02302 0.26594 0.76666
 C552 C -0.02494 0.23217 0.73253
 C553 C 0.02326 0.23233 0.73301
 C554 C -0.02524 0.26618 0.76632
 O555 O 0.48197 0.27406 0.25229
 O556 O 0.51773 0.24867 0.22678
 O557 O 0.48178 0.24884 0.22687
 O558 O 0.51792 0.27380 0.25227
 O559 O 0.51772 0.25176 0.27338
 O560 O 0.48159 0.22680 0.24799
 O561 O 0.51756 0.22663 0.24789
 O562 O 0.48177 0.25203 0.27341
 Cu563 Cu 0.49987 0.26357 0.23742
 Cu564 Cu 0.49964 0.23708 0.26280
 C565 C 0.47573 0.26726 0.26708
 C566 C 0.52380 0.23345 0.23311
 C567 C 0.47548 0.23369 0.23323
 C568 C 0.52403 0.26690 0.26703
 O569 O 1.01935 0.77415 0.74731
 O570 O 0.98355 0.74883 0.77299
 O571 O 1.01949 0.74894 0.77288
 O572 O 0.98344 0.77387 0.74751
 O573 O 0.98346 0.75177 0.72643
 O574 O 1.01953 0.72683 0.75181
 O575 O 0.98358 0.72673 0.75191
 O576 O 1.01938 0.75205 0.72624
 Cu577 Cu 1.00150 0.76367 0.76230
 Cu578 Cu 1.00154 0.73711 0.73697
 C579 C 1.02543 0.76735 0.73246
 C580 C 0.97738 0.73361 0.76668
 C581 C 1.02565 0.73371 0.76660
 C582 C 0.97723 0.76693 0.73279
 O583 O 0.48236 0.75140 0.22641
 O584 O 0.51843 0.72640 0.25173
 O585 O 0.48248 0.72618 0.25183
 O586 O 0.51831 0.75151 0.22623
 O587 O 0.51831 0.77357 0.24734
 O588 O 0.48244 0.74824 0.27295
 O589 O 0.51839 0.74847 0.27283
 O590 O 0.48236 0.77346 0.24752
 Cu591 Cu 0.50039 0.73664 0.23692
 Cu592 Cu 0.50037 0.76316 0.26230
 C593 C 0.47619 0.76658 0.23277
 C594 C 0.52461 0.73331 0.26647
 C595 C 0.47631 0.73301 0.26663
 C596 C 0.52447 0.76673 0.23255
 O597 O -0.01789 0.77488 0.25261
 O598 O 0.01784 0.74956 0.22700
 O599 O -0.01812 0.74980 0.22705
 O600 O 0.01805 0.77455 0.25263
 O601 O 0.01776 0.75238 0.27361
 O602 O -0.01837 0.72764 0.24804
 O603 O 0.01759 0.72739 0.24798
 O604 O -0.01818 0.75271 0.27360
 Cu605 Cu -0.00001 0.76443 0.23770
 Cu606 Cu -0.00033 0.73779 0.26293
 C607 C -0.02418 0.76799 0.26734
 C608 C 0.02386 0.73429 0.23325
 C609 C -0.02446 0.73463 0.23332
 C610 C 0.02411 0.76755 0.26736
 O611 O 0.51747 0.75306 0.77343
 O612 O 0.48201 0.72713 0.74799
 O613 O 0.51793 0.72753 0.74816
 O614 O 0.48158 0.75279 0.77311
 O615 O 0.48164 0.77452 0.75169
 O616 O 0.51795 0.74930 0.72678
 O617 O 0.48205 0.74887 0.72659
 O618 O 0.51752 0.77480 0.75203
 Cu619 Cu 0.49975 0.73793 0.76283
 Cu620 Cu 0.49980 0.76406 0.73711
 C621 C 0.52352 0.76827 0.76700
 C622 C 0.47599 0.73366 0.73304
 C623 C 0.52412 0.73420 0.73329
 C624 C 0.47543 0.76789 0.76656
 C625 C 0.43313 0.29353 0.29299
 C626 C 0.41518 0.29123 0.28579
 C627 C 0.39996 0.29998 0.29448
 C628 C 0.40277 0.31100 0.31031
 C629 C 0.42073 0.31336 0.31747
 C630 C 0.43595 0.30460 0.30878
 C631 C 0.45377 0.30715 0.31618
 C632 C 0.45647 0.31806 0.33172
 C633 C 0.44159 0.32663 0.34022
 C634 C 0.42389 0.32434 0.33324
 C635 C 0.38215 0.29747 0.28702
 C636 C 0.37946 0.28665 0.27142
 C637 C 0.39434 0.27811 0.26291
 C638 C 0.41202 0.28030 0.26997
 C639 C 0.38718 0.31983 0.31921
 C640 C 0.37407 0.32703 0.32646
 C641 C 0.44861 0.28445 0.28414
 C642 C 0.46119 0.27672 0.27652
 H643 H 0.46577 0.30078 0.31004
 H644 H 0.47020 0.31989 0.33719
 H645 H 0.44377 0.33509 0.35229
 H646 H 0.41275 0.33129 0.34032
 H647 H 0.37014 0.30385 0.29313
 H648 H 0.36575 0.28490 0.26589
 H649 H 0.39219 0.26976 0.25077
 H650 H 0.42314 0.27336 0.26286
 C651 C 0.43362 0.79512 0.79286
 C652 C 0.41926 0.80304 0.78236
 C653 C 0.40423 0.81190 0.79127
 C654 C 0.40362 0.81278 0.81062
 C655 C 0.41809 0.80510 0.82112
 C656 C 0.43314 0.79625 0.81221
 C657 C 0.44743 0.78865 0.82299
 C658 C 0.44687 0.78975 0.84204
 C659 C 0.43216 0.79839 0.85074
 C660 C 0.41789 0.80599 0.84047
 C661 C 0.39003 0.81967 0.78047
 C662 C 0.39066 0.81872 0.76143
 C663 C 0.40536 0.81005 0.75272
 C664 C 0.41953 0.80227 0.76299
 C665 C 0.38795 0.82131 0.81970
 C666 C 0.37477 0.82828 0.82703
 C667 C 0.44868 0.78557 0.78375
 C668 C 0.46100 0.77754 0.77602
 H669 H 0.45917 0.78181 0.81684
 H670 H 0.45792 0.78387 0.85007
 H671 H 0.43179 0.79921 0.86554
 H672 H 0.40674 0.81259 0.84786
 H673 H 0.37832 0.82658 0.78661
 H674 H 0.37969 0.82474 0.75339
 H675 H 0.40578 0.80934 0.73792
 H676 H 0.43067 0.79570 0.75559
 C677 C -0.06718 0.29343 0.79240
 C678 C -0.08244 0.29946 0.78195
 C679 C -0.09749 0.30843 0.79074
 C680 C -0.09720 0.31129 0.80992
 C681 C -0.08185 0.30543 0.82033
 C682 C -0.06679 0.29648 0.81154
 C683 C -0.05163 0.29071 0.82225
 C684 C -0.05134 0.29371 0.84110
 C685 C -0.06606 0.30246 0.84969
 C686 C -0.08118 0.30827 0.83949
 C687 C -0.11261 0.31431 0.78001
 C688 C -0.11286 0.31141 0.76115
 C689 C -0.09816 0.30263 0.75257
 C690 C -0.08309 0.29670 0.76277
 C691 C -0.11280 0.32002 0.81891
 C692 C -0.12593 0.32714 0.82617
 C693 C -0.05203 0.28389 0.78343
 C694 C -0.03966 0.27586 0.77576
 H695 H -0.03985 0.28386 0.81618
 H696 H -0.03962 0.28922 0.84908
 H697 H -0.06577 0.30476 0.86433
 H698 H -0.09230 0.31503 0.84678
 H699 H -0.12436 0.32122 0.78606
 H700 H -0.12453 0.31600 0.75316
 H701 H -0.09842 0.30041 0.73791
 H702 H -0.07199 0.28995 0.75546
 C703 C -0.06678 0.79413 0.29336
 C704 C -0.08473 0.79189 0.28614
 C705 C -0.09994 0.80065 0.29483
 C706 C -0.09712 0.81160 0.31071
 C707 C -0.07918 0.81387 0.31791
 C708 C -0.06396 0.80511 0.30921
 C709 C -0.04615 0.80758 0.31665
 C710 C -0.04344 0.81841 0.33225
 C711 C -0.05831 0.82697 0.34076
 C712 C -0.07601 0.82478 0.33374
 C713 C -0.11774 0.79822 0.28732
 C714 C -0.12043 0.78745 0.27169
 C715 C -0.10556 0.77888 0.26319
 C716 C -0.08789 0.78100 0.27028
 C717 C -0.11271 0.82047 0.31960
 C718 C -0.12582 0.82771 0.32680
 C719 C -0.05130 0.78510 0.28447
 C720 C -0.03872 0.77741 0.27682
 H721 H -0.03415 0.80120 0.31051
 H722 H -0.02972 0.82016 0.33775
 H723 H -0.05613 0.83536 0.35287
 H724 H -0.08714 0.83171 0.34083
 H725 H -0.12974 0.80461 0.29343
 H726 H -0.13413 0.78576 0.26612
 H727 H -0.10771 0.77056 0.25103
 H728 H -0.07677 0.77404 0.26318
 C729 C 0.56756 0.70813 0.29262
 C730 C 0.58548 0.71539 0.28980
 C731 C 0.60080 0.70703 0.29859
 C732 C 0.59813 0.69144 0.31014
 C733 C 0.58021 0.68420 0.31299
 C734 C 0.56487 0.69257 0.30420
 C735 C 0.54709 0.68509 0.30725
 C736 C 0.54453 0.66976 0.31865
 C737 C 0.55952 0.66156 0.32723
 C738 C 0.57718 0.66864 0.32448
 C739 C 0.61858 0.71454 0.29555
 C740 C 0.62115 0.72988 0.28416
 C741 C 0.60616 0.73806 0.27557
 C742 C 0.58851 0.73096 0.27829
 C743 C 0.61383 0.68283 0.31900
 C744 C 0.62699 0.67577 0.32620
 C745 C 0.55196 0.71669 0.28358
 C746 C 0.53927 0.72409 0.27588
 H747 H 0.53501 0.69099 0.30087
 H748 H 0.53083 0.66421 0.32083
 H749 H 0.55745 0.64965 0.33606
 H750 H 0.58841 0.66180 0.33146
 H751 H 0.63068 0.70866 0.30193
 H752 H 0.63484 0.73544 0.28200
 H753 H 0.60822 0.75000 0.26677
 H754 H 0.57730 0.73781 0.27129
 C755 C 0.56706 0.20726 0.79203
 C756 C 0.58518 0.21164 0.78624
 C757 C 0.60050 0.20320 0.79498
 C758 C 0.59761 0.19042 0.80946
 C759 C 0.57950 0.18599 0.81521
 C760 C 0.56418 0.19443 0.80646
 C761 C 0.54620 0.18980 0.81244
 C762 C 0.54344 0.17718 0.82667
 C763 C 0.55841 0.16893 0.83522
 C764 C 0.57627 0.17323 0.82961
 C765 C 0.61847 0.20782 0.78896
 C766 C 0.62124 0.22041 0.77472
 C767 C 0.60627 0.22866 0.76617
 C768 C 0.58842 0.22437 0.77180
 C769 C 0.61330 0.18187 0.81840
 C770 C 0.62649 0.17490 0.82565
 C771 C 0.55147 0.21607 0.78318
 C772 C 0.53879 0.22364 0.77564
 H773 H 0.53412 0.19585 0.80620
 H774 H 0.52959 0.17379 0.83107
 H775 H 0.55619 0.15914 0.84627
 H776 H 0.58748 0.16645 0.83668
 H777 H 0.63057 0.20177 0.79518
 H778 H 0.63508 0.22379 0.77030
 H779 H 0.60848 0.23843 0.75511
 H780 H 0.57722 0.23115 0.76471
 C781 C 1.06755 0.70761 0.79363
 C782 C 1.08472 0.71685 0.79513
 C783 C 1.09966 0.70800 0.80412
 C784 C 1.09736 0.68995 0.81154
 C785 C 1.08017 0.68075 0.81013
 C786 C 1.06521 0.68961 0.80116
 C787 C 1.04817 0.68013 0.79991
 C788 C 1.04595 0.66241 0.80732
 C789 C 1.06057 0.65375 0.81609
 C790 C 1.07752 0.66274 0.81752
 C791 C 1.11669 0.71752 0.80543
 C792 C 1.11890 0.73526 0.79807
 C793 C 1.10429 0.74391 0.78927
 C794 C 1.08737 0.73488 0.78778
 C795 C 1.11274 0.68084 0.82047
 C796 C 1.12569 0.67346 0.82776
 C797 C 1.05239 0.71659 0.78420
 C798 C 1.04004 0.72428 0.77624
 H799 H 1.03639 0.68631 0.79323
 H800 H 1.03282 0.65536 0.80625
 H801 H 1.05878 0.63998 0.82182
 H802 H 1.08848 0.65545 0.82447
 H803 H 1.12846 0.71138 0.81215
 H804 H 1.13201 0.74233 0.79920
 H805 H 1.10608 0.75769 0.78358
 H806 H 1.07643 0.74219 0.78082
 C807 C 1.06697 0.20605 0.29287
 C808 C 1.06382 0.19239 0.30647
 C809 C 1.07899 0.18390 0.31545
 C810 C 1.09720 0.18914 0.31076
 C811 C 1.10034 0.20274 0.29708
 C812 C 1.08518 0.21120 0.28809
 C813 C 1.08867 0.22471 0.27441
 C814 C 1.10662 0.22974 0.26978
 C815 C 1.12144 0.22150 0.27859
 C816 C 1.11842 0.20815 0.29210
 C817 C 1.07550 0.17027 0.32900
 C818 C 1.05755 0.16516 0.33354
 C819 C 1.04273 0.17345 0.32476
 C820 C 1.04575 0.18693 0.31138
 C821 C 1.11271 0.18053 0.31994
 C822 C 1.12573 0.17347 0.32741
 C823 C 1.05152 0.21495 0.28385
 C824 C 1.03895 0.22259 0.27620
 H825 H 1.07761 0.23151 0.26715
 H826 H 1.10904 0.24011 0.25929
 H827 H 1.13536 0.22546 0.27496
 H828 H 1.13039 0.20213 0.29857
 H829 H 1.08658 0.16342 0.33620
 H830 H 1.05513 0.15470 0.34393
 H831 H 1.02881 0.16943 0.32833
 H832 H 1.03379 0.19298 0.30491
 C833 C 0.56476 0.29302 0.70483
 C834 C 0.57585 0.28268 0.69255
 C835 C 0.59102 0.29137 0.68365
 C836 C 0.59501 0.31033 0.68711
 C837 C 0.58373 0.32075 0.69915
 C838 C 0.56856 0.31206 0.70804
 C839 C 0.55753 0.32273 0.72009
 C840 C 0.56138 0.34146 0.72326
 C841 C 0.57621 0.34995 0.71457
 C842 C 0.58731 0.33978 0.70265
 C843 C 0.60195 0.28073 0.67148
 C844 C 0.59802 0.26205 0.66819
 C845 C 0.58320 0.25356 0.67690
 C846 C 0.57220 0.26368 0.68895
 C847 C 0.61095 0.31899 0.67860
 C848 C 0.62434 0.32606 0.67171
 C849 C 0.54975 0.28391 0.71449
 C850 C 0.53752 0.27612 0.72265
 H851 H 0.54583 0.31675 0.72716
 H852 H 0.55279 0.34942 0.73251
 H853 H 0.57914 0.36449 0.71707
 H854 H 0.59869 0.34700 0.69620
 H855 H 0.61362 0.28673 0.66436
 H856 H 0.60651 0.25413 0.65884
 H857 H 0.58020 0.23904 0.67431
 H858 H 0.56081 0.25645 0.69538
 C859 C 0.56712 0.79249 0.20607
 C860 C 0.56425 0.80816 0.19470
 C861 C 0.57946 0.81678 0.18581
 C862 C 0.59745 0.80969 0.18835
 C863 C 0.60031 0.79400 0.19970
 C864 C 0.58510 0.78538 0.20859
 C865 C 0.58831 0.76972 0.21989
 C866 C 0.60603 0.76276 0.22230
 C867 C 0.62089 0.77119 0.21361
 C868 C 0.61815 0.78663 0.20242
 C869 C 0.57626 0.83244 0.17452
 C870 C 0.55853 0.83937 0.17208
 C871 C 0.54366 0.83093 0.18076
 C872 C 0.54640 0.81550 0.19196
 C873 C 0.61303 0.81854 0.17937
 C874 C 0.62610 0.82578 0.17206
 C875 C 0.55163 0.78368 0.21523
 C876 C 0.53904 0.77611 0.22302
 H877 H 0.57721 0.76268 0.22696
 H878 H 0.60823 0.75075 0.23095
 H879 H 0.63463 0.76573 0.21553
 H880 H 0.63015 0.79269 0.19595
 H881 H 0.58739 0.83947 0.16748
 H882 H 0.55633 0.85135 0.16340
 H883 H 0.52992 0.83636 0.17882
 H884 H 0.53441 0.80941 0.19843
 C885 C 1.06682 0.29186 0.20677
 C886 C 1.06431 0.30910 0.19778
 C887 C 1.07944 0.31784 0.18885
 C888 C 1.09697 0.30926 0.18894
 C889 C 1.09948 0.29203 0.19797
 C890 C 1.08437 0.28332 0.20694
 C891 C 1.08725 0.26614 0.21596
 C892 C 1.10454 0.25780 0.21609
 C893 C 1.11930 0.26629 0.20728
 C894 C 1.11688 0.28320 0.19830
 C895 C 1.07662 0.33511 0.18002
 C896 C 1.05934 0.34351 0.18000
 C897 C 1.04455 0.33495 0.18871
 C898 C 1.04693 0.31793 0.19751
 C899 C 1.11245 0.31819 0.17988
 C900 C 1.12543 0.32548 0.17245
 C901 C 1.05142 0.28291 0.21594
 C902 C 1.03888 0.27524 0.22371
 H903 H 1.07619 0.25899 0.22301
 H904 H 1.10648 0.24466 0.22305
 H905 H 1.13271 0.25975 0.20741
 H906 H 1.12878 0.28927 0.19164
 H907 H 1.08770 0.34230 0.17306
 H908 H 1.05743 0.35673 0.17319
 H909 H 1.03116 0.34152 0.18866
 H910 H 1.03502 0.31181 0.20411
 C911 C 1.06659 0.79436 0.70486
 C912 C 1.07341 0.81157 0.71144
 C913 C 1.08847 0.82033 0.70244
 C914 C 1.09662 0.81184 0.68693
 C915 C 1.08957 0.79481 0.68014
 C916 C 1.07450 0.78605 0.68913
 C917 C 1.06774 0.76899 0.68214
 C918 C 1.07562 0.76084 0.66670
 C919 C 1.09035 0.76941 0.65791
 C920 C 1.09731 0.78620 0.66449
 C921 C 1.09510 0.83749 0.70932
 C922 C 1.08707 0.84576 0.72462
 C923 C 1.07234 0.83719 0.73341
 C924 C 1.06553 0.82028 0.72696
 C925 C 1.11251 0.82038 0.67824
 C926 C 1.12586 0.82735 0.67119
 C927 C 1.05175 0.78498 0.71452
 C928 C 1.03962 0.77702 0.72265
 H929 H 1.05628 0.76181 0.68849
 H930 H 1.07026 0.74780 0.66152
 H931 H 1.09642 0.76302 0.64591
 H932 H 1.10877 0.79234 0.65717
 H933 H 1.10652 0.84471 0.70293
 H934 H 1.09231 0.85890 0.72969
 H935 H 1.06614 0.84367 0.74529
 H936 H 1.05404 0.81416 0.73425
 C937 C 0.43493 0.70607 0.70595
 C938 C 0.42849 0.71285 0.68894
 C939 C 0.41346 0.70392 0.68009
 C940 C 0.40497 0.68826 0.68830
 C941 C 0.41164 0.68126 0.70514
 C942 C 0.42666 0.69018 0.71399
 C943 C 0.43302 0.68297 0.73085
 C944 C 0.42479 0.66738 0.73874
 C945 C 0.41010 0.65866 0.73008
 C946 C 0.40354 0.66545 0.71347
 C947 C 0.40720 0.71101 0.66314
 C948 C 0.41556 0.72647 0.65514
 C949 C 0.43025 0.73520 0.66379
 C950 C 0.43669 0.72854 0.68050
 C951 C 0.38913 0.67962 0.67967
 C952 C 0.37583 0.67256 0.67266
 C953 C 0.44975 0.71568 0.71539
 C954 C 0.46184 0.72381 0.72337
 H955 H 0.44442 0.68927 0.73810
 H956 H 0.42983 0.66205 0.75163
 H957 H 0.40375 0.64655 0.73625
 H958 H 0.39210 0.65817 0.70725
 H959 H 0.39583 0.70468 0.65588
 H960 H 0.41060 0.73170 0.64216
 H961 H 0.43669 0.74721 0.65752
 H962 H 0.44817 0.73579 0.68668
 C963 C 0.43251 0.20806 0.20733
 C964 C 0.43529 0.19659 0.19181
 C965 C 0.41998 0.18796 0.18315
 C966 C 0.40198 0.19087 0.19007
 C967 C 0.39921 0.20236 0.20559
 C968 C 0.41452 0.21097 0.21424
 C969 C 0.41139 0.22238 0.22975
 C970 C 0.39367 0.22517 0.23652
 C971 C 0.37870 0.21675 0.22805
 C972 C 0.38135 0.20547 0.21275
 C973 C 0.42310 0.17655 0.16766
 C974 C 0.44084 0.17373 0.16092
 C975 C 0.45580 0.18216 0.16939
 C976 C 0.45315 0.19348 0.18466
 C977 C 0.38633 0.18207 0.18126
 C978 C 0.37322 0.17482 0.17407
 C979 C 0.44811 0.21690 0.21621
 C980 C 0.46079 0.22443 0.22382
 H981 H 0.42259 0.22925 0.23681
 H982 H 0.39154 0.23388 0.24842
 H983 H 0.36495 0.21897 0.23336
 H984 H 0.36927 0.19923 0.20665
 H985 H 0.41189 0.16970 0.16061
 H986 H 0.44298 0.16496 0.14906
 H987 H 0.46956 0.17993 0.16410
 H988 H 0.46522 0.19974 0.19078
 C989 C -0.06755 0.70924 0.20741
 C990 C -0.06491 0.69804 0.19168
 C991 C -0.08029 0.68950 0.18306
 C992 C -0.09822 0.69221 0.19023
 C993 C -0.10085 0.70339 0.20598
 C994 C -0.08548 0.71194 0.21459
 C995 C -0.08846 0.72307 0.23032
 C996 C -0.10612 0.72565 0.23736
 C997 C -0.12114 0.71728 0.22895
 C998 C -0.11863 0.70628 0.21343
 C999 C -0.07731 0.67837 0.16735
 C1000 C -0.05964 0.67574 0.16035
 C1001 C -0.04461 0.68410 0.16878
 C1002 C -0.04713 0.69514 0.18427
 C1003 C -0.11395 0.68350 0.18145
 C1004 C -0.12711 0.67632 0.17429
 C1005 C -0.05190 0.71800 0.21625
 C1006 C -0.03917 0.72547 0.22387
 H1007 H -0.07722 0.72988 0.23736
 H1008 H -0.10814 0.73416 0.24943
 H1009 H -0.13483 0.71932 0.23448
 H1010 H -0.13075 0.70006 0.20738
 H1011 H -0.08857 0.67158 0.16032
 H1012 H -0.05761 0.66718 0.14833
 H1013 H -0.03091 0.68202 0.16329
 H1014 H -0.03502 0.70134 0.19035
 C1015 C -0.06611 0.20492 0.70534
 C1016 C -0.07212 0.21137 0.68805
 C1017 C -0.08721 0.20255 0.67921
 C1018 C -0.09620 0.18734 0.68772
 C1019 C -0.08996 0.18065 0.70484
 C1020 C -0.07487 0.18948 0.71368
 C1021 C -0.06893 0.18261 0.73083
 C1022 C -0.07763 0.16744 0.73901
 C1023 C -0.09239 0.15882 0.73037
 C1024 C -0.09854 0.16529 0.71348
 C1025 C -0.09303 0.20930 0.66197
 C1026 C -0.08418 0.22433 0.65369
 C1027 C -0.06942 0.23295 0.66234
 C1028 C -0.06340 0.22661 0.67932
 C1029 C -0.11212 0.17884 0.67909
 C1030 C -0.12549 0.17188 0.67212
 C1031 C -0.05125 0.21445 0.71476
 C1032 C -0.03912 0.22249 0.72277
 H1033 H -0.05750 0.18884 0.73808
 H1034 H -0.07290 0.16236 0.75213
 H1035 H -0.09910 0.14704 0.73678
 H1036 H -0.11006 0.15810 0.70729
 H1037 H -0.10443 0.20303 0.65470
 H1038 H -0.08879 0.22930 0.64050
 H1039 H -0.06259 0.24461 0.65585
 H1040 H -0.05185 0.23375 0.68549
 C1041 C 0.29128 0.43324 0.29244
 C1042 C 0.30506 0.43686 0.30565
 C1043 C 0.31401 0.42182 0.31458
 C1044 C 0.30912 0.40327 0.31023
 C1045 C 0.29527 0.39966 0.29707
 C1046 C 0.28633 0.41468 0.28815
 C1047 C 0.27254 0.41071 0.27504
 C1048 C 0.26773 0.39243 0.27087
 C1049 C 0.27647 0.37774 0.27959
 C1050 C 0.29009 0.38122 0.29255
 C1051 C 0.32774 0.42578 0.32774
 C1052 C 0.33249 0.44407 0.33196
 C1053 C 0.32375 0.45877 0.32324
 C1054 C 0.31018 0.45529 0.31022
 C1055 C 0.31831 0.38786 0.31920
 C1056 C 0.32577 0.37485 0.32647
 C1057 C 0.28220 0.44855 0.28317
 C1058 C 0.27451 0.46102 0.27528
 H1059 H 0.26533 0.42166 0.26788
 H1060 H 0.25715 0.38965 0.26081
 H1061 H 0.27267 0.36356 0.27631
 H1062 H 0.29648 0.36932 0.29897
 H1063 H 0.33492 0.41481 0.33489
 H1064 H 0.34303 0.44685 0.34207
 H1065 H 0.32749 0.47295 0.32657
 H1066 H 0.30375 0.46718 0.30380
 C1067 C 0.29261 -0.06753 0.79288
 C1068 C 0.28731 -0.08609 0.78905
 C1069 C 0.29625 -0.10108 0.79804
 C1070 C 0.31045 -0.09743 0.81081
 C1071 C 0.31571 -0.07887 0.81469
 C1072 C 0.30676 -0.06387 0.80570
 C1073 C 0.31227 -0.04544 0.80978
 C1074 C 0.32623 -0.04192 0.82238
 C1075 C 0.33497 -0.05659 0.83117
 C1076 C 0.32983 -0.07488 0.82742
 C1077 C 0.29072 -0.11952 0.79396
 C1078 C 0.27677 -0.12304 0.78135
 C1079 C 0.26804 -0.10839 0.77256
 C1080 C 0.27318 -0.09010 0.77631
 C1081 C 0.31967 -0.11280 0.81982
 C1082 C 0.32721 -0.12576 0.82710
 C1083 C 0.28352 -0.05225 0.78358
 C1084 C 0.27582 -0.03978 0.77568
 H1085 H 0.30587 -0.03358 0.80330
 H1086 H 0.33028 -0.02774 0.82534
 H1087 H 0.34581 -0.05378 0.84094
 H1088 H 0.33703 -0.08582 0.83460
 H1089 H 0.29709 -0.13139 0.80044
 H1090 H 0.27273 -0.13723 0.77839
 H1091 H 0.25721 -0.11119 0.76278
 H1092 H 0.26596 -0.07918 0.76912
 C1093 C 0.79236 0.43287 0.79253
 C1094 C 0.80419 0.43611 0.80758
 C1095 C 0.81290 0.42088 0.81642
 C1096 C 0.80973 0.40251 0.81015
 C1097 C 0.79788 0.39928 0.79510
 C1098 C 0.78917 0.41450 0.78627
 C1099 C 0.77737 0.41091 0.77126
 C1100 C 0.77429 0.39281 0.76515
 C1101 C 0.78282 0.37793 0.77379
 C1102 C 0.79449 0.38104 0.78859
 C1103 C 0.82465 0.42446 0.83145
 C1104 C 0.82772 0.44256 0.83757
 C1105 C 0.81920 0.45745 0.82893
 C1106 C 0.80756 0.45434 0.81409
 C1107 C 0.81867 0.38694 0.81911
 C1108 C 0.82601 0.37388 0.82639
 C1109 C 0.78342 0.44838 0.78347
 C1110 C 0.77581 0.46102 0.77576
 H1111 H 0.77042 0.42202 0.76409
 H1112 H 0.76525 0.39032 0.75364
 H1113 H 0.78038 0.36389 0.76899
 H1114 H 0.80080 0.36901 0.79486
 H1115 H 0.83158 0.41333 0.83862
 H1116 H 0.83675 0.44504 0.84909
 H1117 H 0.82163 0.47148 0.83373
 H1118 H 0.80125 0.46637 0.80781
 C1119 C 0.79162 -0.06733 0.29230
 C1120 C 0.78660 -0.08590 0.28816
 C1121 C 0.79555 -0.10090 0.29714
 C1122 C 0.80947 -0.09723 0.31021
 C1123 C 0.81444 -0.07866 0.31439
 C1124 C 0.80549 -0.06366 0.30541
 C1125 C 0.81069 -0.04521 0.30981
 C1126 C 0.82434 -0.04167 0.32273
 C1127 C 0.83310 -0.05634 0.33151
 C1128 C 0.82826 -0.07464 0.32744
 C1129 C 0.79029 -0.11934 0.29277
 C1130 C 0.77659 -0.12287 0.27991
 C1131 C 0.76784 -0.10822 0.27113
 C1132 C 0.77273 -0.08992 0.27515
 C1133 C 0.81864 -0.11259 0.31929
 C1134 C 0.82611 -0.12553 0.32669
 C1135 C 0.78253 -0.05205 0.28300
 C1136 C 0.77482 -0.03959 0.27510
 H1137 H 0.80427 -0.03335 0.30334
 H1138 H 0.82814 -0.02748 0.32594
 H1139 H 0.84369 -0.05351 0.34153
 H1140 H 0.83546 -0.08558 0.33463
 H1141 H 0.79669 -0.13122 0.29923
 H1142 H 0.77274 -0.13707 0.27673
 H1143 H 0.75720 -0.11103 0.26114
 H1144 H 0.76552 -0.07900 0.26796
 C1145 C 0.29354 0.56582 0.70745
 C1146 C 0.30857 0.57492 0.71595
 C1147 C 0.31756 0.58992 0.70692
 C1148 C 0.31148 0.59574 0.68944
 C1149 C 0.29663 0.58646 0.68081
 C1150 C 0.28763 0.57146 0.68984
 C1151 C 0.27278 0.56245 0.68097
 C1152 C 0.26700 0.56808 0.66366
 C1153 C 0.27581 0.58274 0.65483
 C1154 C 0.29045 0.59189 0.66325
 C1155 C 0.33252 0.59883 0.71572
 C1156 C 0.33843 0.59309 0.73294
 C1157 C 0.32962 0.57844 0.74178
 C1158 C 0.31485 0.56941 0.73345
 C1159 C 0.32025 0.61148 0.68051
 C1160 C 0.32745 0.62469 0.67326
 C1161 C 0.28397 0.55090 0.71694
 C1162 C 0.27594 0.53866 0.72495
 H1163 H 0.26551 0.55096 0.68727
 H1164 H 0.25563 0.56102 0.65706
 H1165 H 0.27127 0.58706 0.64139
 H1166 H 0.29687 0.60320 0.65583
 H1167 H 0.33983 0.61028 0.70939
 H1168 H 0.34990 0.60005 0.73947
 H1169 H 0.33426 0.57403 0.75516
 H1170 H 0.30846 0.55808 0.74087
 C1171 C 0.29231 1.06785 0.20736
 C1172 C 0.28545 1.08609 0.21003
 C1173 C 0.29409 1.10140 0.20117
 C1174 C 0.30954 1.09839 0.18970
 C1175 C 0.31635 1.08016 0.18697
 C1176 C 0.30771 1.06484 0.19583
 C1177 C 0.31478 1.04675 0.19291
 C1178 C 0.32995 1.04386 0.18156
 C1179 C 0.33840 1.05884 0.17290
 C1180 C 0.33174 1.07681 0.17552
 C1181 C 0.28699 1.11949 0.20406
 C1182 C 0.27180 1.12238 0.21538
 C1183 C 0.26335 1.10741 0.22405
 C1184 C 0.27004 1.08945 0.22145
 C1185 C 0.31845 1.11409 0.18083
 C1186 C 0.32572 1.12729 0.17362
 C1187 C 0.28353 1.05227 0.21656
 C1188 C 0.27604 1.03957 0.22437
 H1189 H 0.30866 1.03466 0.19934
 H1190 H 0.33518 1.02993 0.17947
 H1191 H 0.35018 1.05652 0.16409
 H1192 H 0.33877 1.08801 0.16849
 H1193 H 0.29308 1.13158 0.19761
 H1194 H 0.26655 1.13631 0.21743
 H1195 H 0.25156 1.10973 0.23283
 H1196 H 0.26299 1.07827 0.22850
 C1197 C 0.79220 0.56776 0.20741
 C1198 C 0.80756 0.56501 0.19577
 C1199 C 0.81607 0.58050 0.18710
 C1200 C 0.80917 0.59866 0.19012
 C1201 C 0.79376 0.60140 0.20172
 C1202 C 0.78525 0.58590 0.21039
 C1203 C 0.76987 0.58900 0.22194
 C1204 C 0.76308 0.60688 0.22482
 C1205 C 0.77141 0.62203 0.21635
 C1206 C 0.78658 0.61940 0.20493
 C1207 C 0.83143 0.57741 0.17554
 C1208 C 0.83818 0.55952 0.17263
 C1209 C 0.82985 0.54437 0.18110
 C1210 C 0.81471 0.54700 0.19255
 C1211 C 0.81791 0.61453 0.18138
 C1212 C 0.82506 0.62784 0.17426
 C1213 C 0.78355 0.55200 0.21642
 C1214 C 0.77613 0.53920 0.22414
 H1215 H 0.76291 0.57767 0.22884
 H1216 H 0.75129 0.60898 0.23365
 H1217 H 0.76609 0.63589 0.21864
 H1218 H 0.79257 0.63163 0.19864
 H1219 H 0.83837 0.58876 0.16864
 H1220 H 0.84994 0.55740 0.16374
 H1221 H 0.83514 0.53050 0.17879
 H1222 H 0.80869 0.53478 0.19884
 C1223 C 0.79283 1.06684 0.70692
 C1224 C 0.78645 1.08519 0.70999
 C1225 C 0.79524 1.10042 0.70115
 C1226 C 0.81035 1.09722 0.68928
 C1227 C 0.81667 1.07887 0.68615
 C1228 C 0.80787 1.06363 0.69499
 C1229 C 0.81442 1.04541 0.69164
 C1230 C 0.82924 1.04233 0.67989
 C1231 C 0.83785 1.05722 0.67125
 C1232 C 0.83170 1.07531 0.67430
 C1233 C 0.78863 1.11863 0.70445
 C1234 C 0.77374 1.12170 0.71613
 C1235 C 0.76513 1.10681 0.72475
 C1236 C 0.77136 1.08874 0.72179
 C1237 C 0.81939 1.11281 0.68036
 C1238 C 0.82679 1.12589 0.67306
 C1239 C 0.78394 1.05135 0.71615
 C1240 C 0.77635 1.03877 0.72405
 H1241 H 0.80816 1.03338 0.69804
 H1242 H 0.83407 1.02830 0.67747
 H1243 H 0.84936 1.05475 0.66214
 H1244 H 0.83883 1.08644 0.66726
 H1245 H 0.79486 1.13067 0.69805
 H1246 H 0.76886 1.13572 0.71848
 H1247 H 0.75354 1.10926 0.73377
 H1248 H 0.76420 1.07762 0.72882
 C1249 C 0.70818 0.56780 0.29336
 C1250 C 0.71551 0.58591 0.29095
 C1251 C 0.70693 0.60137 0.29956
 C1252 C 0.69105 0.59863 0.31053
 C1253 C 0.68372 0.58053 0.31295
 C1254 C 0.69232 0.56507 0.30433
 C1255 C 0.68474 0.54711 0.30693
 C1256 C 0.66910 0.54449 0.31772
 C1257 C 0.66070 0.55961 0.32614
 C1258 C 0.66786 0.57745 0.32383
 C1259 C 0.71451 0.61933 0.29694
 C1260 C 0.73013 0.62194 0.28613
 C1261 C 0.73853 0.60683 0.27772
 C1262 C 0.73136 0.58900 0.28003
 C1263 C 0.68225 0.61447 0.31924
 C1264 C 0.67505 0.62774 0.32634
 C1265 C 0.71695 0.55207 0.28447
 C1266 C 0.72446 0.53927 0.27687
 H1267 H 0.69079 0.53492 0.30066
 H1268 H 0.66348 0.53066 0.31955
 H1269 H 0.64855 0.55750 0.33450
 H1270 H 0.66085 0.58877 0.33066
 H1271 H 0.70847 0.63152 0.30320
 H1272 H 0.73575 0.63577 0.28429
 H1273 H 0.75068 0.60893 0.26936
 H1274 H 0.73839 0.57770 0.27319
 C1275 C 0.70828 1.06865 0.79321
 C1276 C 0.71552 1.08679 0.79079
 C1277 C 0.70685 1.10220 0.79940
 C1278 C 0.69098 1.09939 0.81036
 C1279 C 0.68376 1.08124 0.81279
 C1280 C 0.69244 1.06583 0.80419
 C1281 C 0.68496 1.04782 0.80681
 C1282 C 0.66936 1.04512 0.81762
 C1283 C 0.66087 1.06019 0.82603
 C1284 C 0.66792 1.07808 0.82369
 C1285 C 0.71434 1.12020 0.79677
 C1286 C 0.72996 1.12289 0.78598
 C1287 C 0.73845 1.10782 0.77758
 C1288 C 0.73137 1.08995 0.77989
 C1289 C 0.68206 1.11516 0.81904
 C1290 C 0.67471 1.12834 0.82616
 C1291 C 0.71710 1.05295 0.78432
 C1292 C 0.72460 1.04010 0.77679
 H1293 H 0.69109 1.03567 0.80055
 H1294 H 0.66382 1.03126 0.81948
 H1295 H 0.64875 1.05802 0.83441
 H1296 H 0.66084 1.08936 0.83051
 H1297 H 0.70823 1.13237 0.80303
 H1298 H 0.73551 1.13675 0.78413
 H1299 H 0.75060 1.10998 0.76923
 H1300 H 0.73846 1.07868 0.77307
 C1301 C 0.20576 0.56564 0.79593
 C1302 C 0.18822 0.57160 0.78992
 C1303 C 0.17936 0.58676 0.79878
 C1304 C 0.18809 0.59586 0.81361
 C1305 C 0.20548 0.58968 0.81985
 C1306 C 0.21434 0.57452 0.81098
 C1307 C 0.23175 0.56866 0.81741
 C1308 C 0.24016 0.57750 0.83218
 C1309 C 0.23149 0.59231 0.84085
 C1310 C 0.21435 0.59839 0.83481
 C1311 C 0.16187 0.59253 0.79247
 C1312 C 0.15336 0.58356 0.77784
 C1313 C 0.16202 0.56874 0.76916
 C1314 C 0.17925 0.56278 0.77507
 C1315 C 0.17942 0.61186 0.82215
 C1316 C 0.17238 0.62531 0.82908
 C1317 C 0.21516 0.55067 0.78639
 C1318 C 0.22309 0.53843 0.77832
 H1319 H 0.23903 0.55719 0.81113
 H1320 H 0.25348 0.57282 0.83693
 H1321 H 0.23808 0.59912 0.85233
 H1322 H 0.20815 0.60996 0.84201
 H1323 H 0.15458 0.60398 0.79879
 H1324 H 0.13997 0.58814 0.77320
 H1325 H 0.15535 0.56182 0.75780
 H1326 H 0.18543 0.55118 0.76790
 C1327 C 0.20696 1.06538 0.29581
 C1328 C 0.18939 1.07124 0.28978
 C1329 C 0.18047 1.08638 0.29861
 C1330 C 0.18916 1.09556 0.31341
 C1331 C 0.20658 1.08948 0.31966
 C1332 C 0.21550 1.07434 0.31083
 C1333 C 0.23295 1.06857 0.31726
 C1334 C 0.24133 1.07748 0.33201
 C1335 C 0.23260 1.09228 0.34064
 C1336 C 0.21542 1.09827 0.33460
 C1337 C 0.16296 1.09206 0.29228
 C1338 C 0.15449 1.08302 0.27765
 C1339 C 0.16321 1.06822 0.26902
 C1340 C 0.18047 1.06234 0.27496
 C1341 C 0.18041 1.11153 0.32192
 C1342 C 0.17326 1.12494 0.32879
 C1343 C 0.21642 1.05045 0.28627
 C1344 C 0.22436 1.03825 0.27815
 H1345 H 0.24027 1.05711 0.31100
 H1346 H 0.25466 1.07288 0.33676
 H1347 H 0.23916 1.09915 0.35209
 H1348 H 0.20917 1.10983 0.34177
 H1349 H 0.15561 1.10349 0.29856
 H1350 H 0.14109 1.08753 0.27299
 H1351 H 0.15658 1.06124 0.25767
 H1352 H 0.18669 1.05075 0.26782
 C1353 C 0.70656 0.43283 0.70690
 C1354 C 0.70850 0.41464 0.71407
 C1355 C 0.69970 0.39940 0.70528
 C1356 C 0.68905 0.40242 0.68934
 C1357 C 0.68710 0.42061 0.68219
 C1358 C 0.69588 0.43586 0.69099
 C1359 C 0.69375 0.45391 0.68358
 C1360 C 0.68324 0.45682 0.66791
 C1361 C 0.67465 0.44191 0.65930
 C1362 C 0.67651 0.42399 0.66629
 C1363 C 0.70183 0.38135 0.71272
 C1364 C 0.71235 0.37845 0.72838
 C1365 C 0.72096 0.39335 0.73698
 C1366 C 0.71911 0.41126 0.72996
 C1367 C 0.68020 0.38680 0.68030
 C1368 C 0.67297 0.37370 0.67291
 C1369 C 0.71566 0.44835 0.71586
 C1370 C 0.72340 0.46099 0.72349
 H1371 H 0.70017 0.46595 0.68980
 H1372 H 0.68176 0.47072 0.66242
 H1373 H 0.66651 0.44425 0.64713
 H1374 H 0.66957 0.41284 0.65912
 H1375 H 0.69540 0.36931 0.70653
 H1376 H 0.71382 0.36455 0.73389
 H1377 H 0.72910 0.39102 0.74915
 H1378 H 0.72607 0.42240 0.73714
 C1379 C 0.70571 -0.06691 0.20418
 C1380 C 0.71497 -0.07673 0.19011
 C1381 C 0.70616 -0.09196 0.18130
 C1382 C 0.68815 -0.09728 0.18661
 C1383 C 0.67876 -0.08725 0.20045
 C1384 C 0.68757 -0.07202 0.20926
 C1385 C 0.67793 -0.06225 0.22311
 C1386 C 0.66011 -0.06738 0.22810
 C1387 C 0.65150 -0.08228 0.21949
 C1388 C 0.66066 -0.09216 0.20582
 C1389 C 0.71573 -0.10162 0.16733
 C1390 C 0.73348 -0.09637 0.16220
 C1391 C 0.74209 -0.08149 0.17082
 C1392 C 0.73302 -0.07174 0.18463
 C1393 C 0.67944 -0.11328 0.17811
 C1394 C 0.67234 -0.12672 0.17120
 C1395 C 0.71498 -0.05183 0.21368
 C1396 C 0.72280 -0.03949 0.22171
 H1397 H 0.68404 -0.05055 0.23019
 H1398 H 0.65293 -0.05975 0.23871
 H1399 H 0.63765 -0.08621 0.22342
 H1400 H 0.65339 -0.10363 0.19951
 H1401 H 0.70959 -0.11328 0.16021
 H1402 H 0.74058 -0.10390 0.15148
 H1403 H 0.75588 -0.07747 0.16678
 H1404 H 0.74028 -0.06024 0.19091
 C1405 C 0.20513 0.43402 0.20429
 C1406 C 0.21438 0.42420 0.19021
 C1407 C 0.20556 0.40900 0.18137
 C1408 C 0.18754 0.40369 0.18667
 C1409 C 0.17815 0.41373 0.20051
 C1410 C 0.18697 0.42894 0.20934
 C1411 C 0.17734 0.43871 0.22318
 C1412 C 0.15950 0.43361 0.22815
 C1413 C 0.15088 0.41874 0.21951
 C1414 C 0.16003 0.40885 0.20585
 C1415 C 0.21511 0.39936 0.16738
 C1416 C 0.23287 0.40459 0.16227
 C1417 C 0.24150 0.41945 0.17091
 C1418 C 0.23244 0.42919 0.18474
 C1419 C 0.17885 0.38765 0.17821
 C1420 C 0.17177 0.37417 0.17137
 C1421 C 0.21444 0.44905 0.21384
 C1422 C 0.22233 0.46133 0.22190
 H1423 H 0.18346 0.45039 0.23028
 H1424 H 0.15232 0.44125 0.23875
 H1425 H 0.13701 0.41484 0.22342
 H1426 H 0.15274 0.39740 0.19952
 H1427 H 0.20896 0.38772 0.16024
 H1428 H 0.23997 0.39707 0.15153
 H1429 H 0.25530 0.42346 0.16688
 H1430 H 0.23971 0.44066 0.19104
 C1431 C 0.20643 -0.06651 0.70461
 C1432 C 0.21504 -0.07531 0.68952
 C1433 C 0.20619 -0.09046 0.68061
 C1434 C 0.18878 -0.09671 0.68685
 C1435 C 0.18003 -0.08771 0.70175
 C1436 C 0.18888 -0.07256 0.71065
 C1437 C 0.17989 -0.06383 0.72556
 C1438 C 0.16265 -0.06989 0.73149
 C1439 C 0.15400 -0.08470 0.72279
 C1440 C 0.16252 -0.09356 0.70808
 C1441 C 0.21510 -0.09909 0.66560
 C1442 C 0.23227 -0.09293 0.65956
 C1443 C 0.24093 -0.07813 0.66827
 C1444 C 0.23249 -0.06937 0.68309
 C1445 C 0.18007 -0.11263 0.67821
 C1446 C 0.17294 -0.12600 0.67119
 C1447 C 0.21579 -0.05152 0.71416
 C1448 C 0.22369 -0.03926 0.72224
 H1449 H 0.18606 -0.05224 0.73276
 H1450 H 0.15597 -0.06304 0.74291
 H1451 H 0.14060 -0.08935 0.72745
 H1452 H 0.15523 -0.10501 0.70174
 H1453 H 0.20891 -0.11065 0.65837
 H1454 H 0.23889 -0.09968 0.64806
 H1455 H 0.25427 -0.07339 0.66353
 H1456 H 0.23976 -0.05790 0.68940
 C1457 C 0.29287 0.29350 0.43333
 C1458 C 0.29051 0.28599 0.41555
 C1459 C 0.29924 0.29458 0.40030
 C1460 C 0.31026 0.31063 0.40291
 C1461 C 0.31263 0.31812 0.42068
 C1462 C 0.30390 0.30953 0.43594
 C1463 C 0.30645 0.31728 0.45357
 C1464 C 0.31732 0.33307 0.45606
 C1465 C 0.32586 0.34147 0.44115
 C1466 C 0.32358 0.33415 0.42363
 C1467 C 0.29667 0.28682 0.38267
 C1468 C 0.28581 0.27103 0.38018
 C1469 C 0.27728 0.26263 0.39509
 C1470 C 0.27954 0.26996 0.41260
 C1471 C 0.31906 0.31946 0.38729
 C1472 C 0.32623 0.32671 0.37421
 C1473 C 0.28388 0.28471 0.44886
 C1474 C 0.27622 0.27717 0.46149
 H1475 H 0.30009 0.31124 0.46559
 H1476 H 0.31913 0.33882 0.46964
 H1477 H 0.33429 0.35373 0.44316
 H1478 H 0.33049 0.34117 0.41245
 H1479 H 0.30303 0.29285 0.37064
 H1480 H 0.28400 0.26528 0.36660
 H1481 H 0.26889 0.25034 0.39309
 H1482 H 0.27262 0.26293 0.42376
 C1483 C 0.29449 0.79323 -0.06670
 C1484 C 0.29186 0.78611 -0.08459
 C1485 C 0.30065 0.79481 -0.09975
 C1486 C 0.31200 0.81059 -0.09694
 C1487 C 0.31468 0.81766 -0.07904
 C1488 C 0.30590 0.80896 -0.06388
 C1489 C 0.30876 0.81629 -0.04613
 C1490 C 0.32000 0.83178 -0.04342
 C1491 C 0.32860 0.84028 -0.05824
 C1492 C 0.32602 0.83337 -0.07588
 C1493 C 0.29781 0.78743 -0.11750
 C1494 C 0.28664 0.77189 -0.12019
 C1495 C 0.27805 0.76338 -0.10537
 C1496 C 0.28057 0.77036 -0.08775
 C1497 C 0.32077 0.81959 -0.11248
 C1498 C 0.32788 0.82697 -0.12553
 C1499 C 0.28536 0.78439 -0.05128
 C1500 C 0.27755 0.77682 -0.03875
 H1501 H 0.30236 0.81015 -0.03417
 H1502 H 0.32205 0.83721 -0.02975
 H1503 H 0.33733 0.85230 -0.05607
 H1504 H 0.33300 0.84045 -0.08698
 H1505 H 0.30420 0.79355 -0.12946
 H1506 H 0.28465 0.76642 -0.13385
 H1507 H 0.26942 0.75130 -0.10753
 H1508 H 0.27358 0.76325 -0.07667
 C1509 C 0.79344 0.29342 -0.06675
 C1510 C 0.79089 0.28606 -0.08456
 C1511 C 0.79952 0.29473 -0.09982
 C1512 C 0.81064 0.31071 -0.09719
 C1513 C 0.81324 0.31802 -0.07938
 C1514 C 0.80461 0.30935 -0.06411
 C1515 C 0.80740 0.31691 -0.04644
 C1516 C 0.81840 0.33261 -0.04392
 C1517 C 0.82683 0.34109 -0.05885
 C1518 C 0.82433 0.33395 -0.07641
 C1519 C 0.79677 0.28712 -0.11749
 C1520 C 0.78582 0.27139 -0.12001
 C1521 C 0.77739 0.26291 -0.10509
 C1522 C 0.77983 0.27011 -0.08755
 C1523 C 0.81932 0.31962 -0.11283
 C1524 C 0.82640 0.32689 -0.12595
 C1525 C 0.78444 0.28462 -0.05124
 C1526 C 0.77671 0.27706 -0.03865
 H1527 H 0.80113 0.31080 -0.03441
 H1528 H 0.82040 0.33821 -0.03031
 H1529 H 0.83537 0.35328 -0.05682
 H1530 H 0.83117 0.34102 -0.08759
 H1531 H 0.80305 0.29322 -0.12953
 H1532 H 0.78389 0.26575 -0.13361
 H1533 H 0.76893 0.25068 -0.10711
 H1534 H 0.77297 0.26301 -0.07638
 C1535 C 0.79313 0.79475 0.43387
 C1536 C 0.78595 0.79212 0.41605
 C1537 C 0.79464 0.80076 0.40080
 C1538 C 0.81046 0.81197 0.40347
 C1539 C 0.81762 0.81462 0.42130
 C1540 C 0.80892 0.80598 0.43655
 C1541 C 0.81633 0.80883 0.45424
 C1542 C 0.83190 0.81987 0.45679
 C1543 C 0.84041 0.82830 0.44188
 C1544 C 0.83341 0.82576 0.42431
 C1545 C 0.78721 0.79792 0.38311
 C1546 C 0.77163 0.78689 0.38056
 C1547 C 0.76312 0.77845 0.39547
 C1548 C 0.77015 0.78097 0.41303
 C1549 C 0.81933 0.82074 0.38785
 C1550 C 0.82650 0.82790 0.37472
 C1551 C 0.78428 0.78577 0.44938
 C1552 C 0.77666 0.77807 0.46195
 H1553 H 0.81018 0.80256 0.46626
 H1554 H 0.83739 0.82189 0.47042
 H1555 H 0.85251 0.83686 0.44394
 H1556 H 0.84051 0.83260 0.41314
 H1557 H 0.79333 0.80418 0.37109
 H1558 H 0.76613 0.78488 0.36694
 H1559 H 0.75100 0.76993 0.39342
 H1560 H 0.76304 0.77410 0.42417
 C1561 C 0.70706 0.29171 0.56656
 C1562 C 0.70971 0.28479 0.58451
 C1563 C 0.70093 0.29360 0.59960
 C1564 C 0.68954 0.30928 0.59666
 C1565 C 0.68690 0.31620 0.57871
 C1566 C 0.69568 0.30739 0.56362
 C1567 C 0.69284 0.31456 0.54581
 C1568 C 0.68165 0.33002 0.54299
 C1569 C 0.67307 0.33864 0.55774
 C1570 C 0.67561 0.33187 0.57543
 C1571 C 0.70380 0.28643 0.61741
 C1572 C 0.71501 0.27099 0.62023
 C1573 C 0.72359 0.26237 0.60548
 C1574 C 0.72104 0.26914 0.58780
 C1575 C 0.68058 0.31824 0.61210
 C1576 C 0.67324 0.32556 0.62505
 C1577 C 0.71610 0.28270 0.55119
 C1578 C 0.72381 0.27500 0.53869
 H1579 H 0.69923 0.30833 0.53390
 H1580 H 0.67963 0.33533 0.52927
 H1581 H 0.66440 0.35064 0.55548
 H1582 H 0.66865 0.33904 0.58647
 H1583 H 0.69743 0.29265 0.62933
 H1584 H 0.71704 0.26568 0.63395
 H1585 H 0.73225 0.25036 0.60774
 H1586 H 0.72802 0.26196 0.57678
 C1587 C 0.70660 0.79182 1.06578
 C1588 C 0.71348 0.78897 1.08368
 C1589 C 0.70472 0.79761 1.09887
 C1590 C 0.68914 0.80906 1.09608
 C1591 C 0.68228 0.81193 1.07818
 C1592 C 0.69104 0.80328 1.06298
 C1593 C 0.68394 0.80637 1.04521
 C1594 C 0.66862 0.81768 1.04253
 C1595 C 0.66006 0.82614 1.05739
 C1596 C 0.66675 0.82334 1.07504
 C1597 C 0.71186 0.79456 1.11664
 C1598 C 0.72724 0.78335 1.11932
 C1599 C 0.73583 0.77492 1.10447
 C1600 C 0.72907 0.77762 1.08683
 C1601 C 0.68024 0.81790 1.11163
 C1602 C 0.67301 0.82516 1.12466
 C1603 C 0.71557 0.78292 1.05030
 C1604 C 0.72327 0.77533 1.03772
 H1605 H 0.69013 0.80009 1.03323
 H1606 H 0.66337 0.81990 1.02885
 H1607 H 0.64817 0.83491 1.05524
 H1608 H 0.65963 0.83022 1.08616
 H1609 H 0.70567 0.80082 1.12863
 H1610 H 0.73253 0.78120 1.13299
 H1611 H 0.74780 0.76627 1.10661
 H1612 H 0.73622 0.77074 1.07573
 C1613 C 0.20551 0.29102 1.06605
 C1614 C 0.20834 0.28412 1.08398
 C1615 C 0.19957 0.29284 1.09912
 C1616 C 0.18804 0.30842 1.09625
 C1617 C 0.18516 0.31528 1.07831
 C1618 C 0.19393 0.30654 1.06317
 C1619 C 0.19086 0.31365 1.04537
 C1620 C 0.17945 0.32895 1.04261
 C1621 C 0.17088 0.33749 1.05742
 C1622 C 0.17366 0.33079 1.07510
 C1623 C 0.20261 0.28569 1.11691
 C1624 C 0.21398 0.27035 1.11966
 C1625 C 0.22256 0.26183 1.10486
 C1626 C 0.21983 0.26857 1.08720
 C1627 C 0.17924 0.31742 1.11177
 C1628 C 0.17206 0.32480 1.12477
 C1629 C 0.21463 0.28216 1.05064
 C1630 C 0.22243 0.27459 1.03812
 H1631 H 0.19722 0.30747 1.03342
 H1632 H 0.17724 0.33420 1.02890
 H1633 H 0.16202 0.34936 1.05520
 H1634 H 0.16669 0.33790 1.08618
 H1635 H 0.19624 0.29183 1.12887
 H1636 H 0.21613 0.26506 1.13336
 H1637 H 0.23135 0.24990 1.10707
 H1638 H 0.22681 0.26146 1.07613
 C1639 C 0.20746 0.79154 0.56646
 C1640 C 0.21028 0.78480 0.58446
 C1641 C 0.20151 0.79366 0.59952
 C1642 C 0.18995 0.80920 0.59650
 C1643 C 0.18710 0.81591 0.57851
 C1644 C 0.19588 0.80705 0.56344
 C1645 C 0.19283 0.81400 0.54558
 C1646 C 0.18142 0.82927 0.54269
 C1647 C 0.17284 0.83794 0.55742
 C1648 C 0.17560 0.83140 0.57515
 C1649 C 0.20456 0.78669 0.61737
 C1650 C 0.21590 0.77136 0.62026
 C1651 C 0.22445 0.76267 0.60554
 C1652 C 0.22175 0.76927 0.58781
 C1653 C 0.18104 0.81826 0.61191
 C1654 C 0.17374 0.82570 0.62480
 C1655 C 0.21655 0.78254 0.55113
 C1656 C 0.22431 0.77486 0.53864
 H1657 H 0.19920 0.80772 0.53369
 H1658 H 0.17922 0.83440 0.52893
 H1659 H 0.16399 0.84980 0.55509
 H1660 H 0.16863 0.83860 0.58617
 H1661 H 0.19821 0.79297 0.62928
 H1662 H 0.21805 0.76619 0.63401
 H1663 H 0.23320 0.75074 0.60785
 H1664 H 0.22873 0.76205 0.57681
 C1665 C 0.29397 0.70626 0.56686
 C1666 C 0.29125 0.71339 0.58474
 C1667 C 0.29999 0.70478 0.59991
 C1668 C 0.31142 0.68909 0.59711
 C1669 C 0.31416 0.68198 0.57923
 C1670 C 0.30541 0.69059 0.56406
 C1671 C 0.30835 0.68323 0.54632
 C1672 C 0.31962 0.66779 0.54364
 C1673 C 0.32817 0.65937 0.55848
 C1674 C 0.32553 0.66632 0.57610
 C1675 C 0.29705 0.71215 0.61765
 C1676 C 0.28582 0.72761 0.62033
 C1677 C 0.27728 0.73604 0.60550
 C1678 C 0.27989 0.72907 0.58789
 C1679 C 0.32026 0.68025 0.61264
 C1680 C 0.32749 0.67301 0.62565
 C1681 C 0.28495 0.71506 0.55142
 C1682 C 0.27726 0.72260 0.53885
 H1683 H 0.30199 0.68931 0.53436
 H1684 H 0.32172 0.66234 0.52998
 H1685 H 0.33691 0.64739 0.55632
 H1686 H 0.33247 0.65930 0.58720
 H1687 H 0.30339 0.70607 0.62963
 H1688 H 0.28374 0.73307 0.63399
 H1689 H 0.26861 0.74808 0.60765
 H1690 H 0.27294 0.73611 0.57680
 C1691 C 0.29270 0.20708 1.06678
 C1692 C 0.29004 0.21452 1.08454
 C1693 C 0.29873 0.20610 1.09984
 C1694 C 0.31003 0.19027 1.09729
 C1695 C 0.31275 0.18287 1.07952
 C1696 C 0.30406 0.19131 1.06421
 C1697 C 0.30697 0.18366 1.04659
 C1698 C 0.31814 0.16812 1.04415
 C1699 C 0.32664 0.15987 1.05911
 C1700 C 0.32402 0.16710 1.07663
 C1701 C 0.29586 0.21378 1.11746
 C1702 C 0.28472 0.22935 1.11991
 C1703 C 0.27621 0.23759 1.10495
 C1704 C 0.27878 0.23032 1.08745
 C1705 C 0.31873 0.18157 1.11297
 C1706 C 0.32581 0.17444 1.12612
 C1707 C 0.28366 0.21565 1.05122
 C1708 C 0.27593 0.22303 1.03859
 H1709 H 0.30065 0.18960 1.03453
 H1710 H 0.32023 0.16245 1.03057
 H1711 H 0.33531 0.14780 1.05714
 H1712 H 0.33092 0.16021 1.08784
 H1713 H 0.30218 0.20788 1.12953
 H1714 H 0.28268 0.23505 1.13348
 H1715 H 0.26759 0.24969 1.10691
 H1716 H 0.27187 0.23723 1.07625
 C1717 C 0.79262 0.70791 1.06653
 C1718 C 0.80895 0.69744 1.06427
 C1719 C 0.81750 0.68915 1.07973
 C1720 C 0.80965 0.69138 1.09736
 C1721 C 0.79331 0.70185 1.09962
 C1722 C 0.78476 0.71013 1.08416
 C1723 C 0.76840 0.72049 1.08677
 C1724 C 0.76071 0.72260 1.10413
 C1725 C 0.76909 0.71454 1.11925
 C1726 C 0.78521 0.70428 1.11710
 C1727 C 0.83383 0.67877 1.07713
 C1728 C 0.84149 0.67662 1.05975
 C1729 C 0.83312 0.68471 1.04463
 C1730 C 0.81703 0.69501 1.04679
 C1731 C 0.81833 0.68289 1.11317
 C1732 C 0.82539 0.67590 1.12640
 C1733 C 0.78390 0.71649 1.05080
 C1734 C 0.77637 0.72383 1.03803
 H1735 H 0.76137 0.72705 1.07544
 H1736 H 0.74816 0.73050 1.10586
 H1737 H 0.76308 0.71624 1.13271
 H1738 H 0.79121 0.69828 1.12928
 H1739 H 0.84083 0.67221 1.08846
 H1740 H 0.85398 0.66863 1.05800
 H1741 H 0.83912 0.68299 1.03116
 H1742 H 0.81102 0.70103 1.03462
 C1743 C 0.79361 0.20644 0.56679
 C1744 C 0.80511 0.19082 0.56395
 C1745 C 0.81383 0.18216 0.57911
 C1746 C 0.81100 0.18919 0.59702
 C1747 C 0.79954 0.20484 0.59984
 C1748 C 0.79082 0.21349 0.58468
 C1749 C 0.77941 0.22912 0.58785
 C1750 C 0.77671 0.23602 0.60548
 C1751 C 0.78523 0.22755 0.62031
 C1752 C 0.79652 0.21214 0.61760
 C1753 C 0.82524 0.16655 0.57594
 C1754 C 0.82796 0.15969 0.55829
 C1755 C 0.81944 0.16817 0.54347
 C1756 C 0.80812 0.18356 0.54619
 C1757 C 0.81980 0.18030 0.61254
 C1758 C 0.82698 0.17302 0.62556
 C1759 C 0.78456 0.21523 0.55137
 C1760 C 0.77682 0.22275 0.53882
 H1761 H 0.77247 0.23620 0.57677
 H1762 H 0.76799 0.24801 0.60765
 H1763 H 0.78309 0.23295 0.63398
 H1764 H 0.80284 0.20604 0.62957
 H1765 H 0.83217 0.15950 0.58703
 H1766 H 0.83673 0.14774 0.55611
 H1767 H 0.82159 0.16279 0.52979
 H1768 H 0.80179 0.18968 0.53423
 C1769 C 0.70750 0.70942 0.43319
 C1770 C 0.69148 0.69845 0.43572
 C1771 C 0.68294 0.68984 0.42040
 C1772 C 0.69046 0.69225 0.40265
 C1773 C 0.70647 0.70324 0.40013
 C1774 C 0.71501 0.71185 0.41544
 C1775 C 0.73100 0.72278 0.41257
 C1776 C 0.73836 0.72510 0.39509
 C1777 C 0.73001 0.71667 0.38012
 C1778 C 0.71425 0.70585 0.38253
 C1779 C 0.66694 0.67895 0.42326
 C1780 C 0.65959 0.67663 0.44075
 C1781 C 0.66794 0.68505 0.45572
 C1782 C 0.68372 0.69585 0.45332
 C1783 C 0.68178 0.68344 0.38699
 C1784 C 0.67469 0.67620 0.37388
 C1785 C 0.71629 0.71822 0.44879
 C1786 C 0.72387 0.72571 0.46148
 H1787 H 0.73799 0.72964 0.42377
 H1788 H 0.75062 0.73346 0.39315
 H1789 H 0.73578 0.71851 0.36656
 H1790 H 0.70826 0.69958 0.37046
 H1791 H 0.65995 0.67212 0.41204
 H1792 H 0.64734 0.66826 0.44269
 H1793 H 0.66218 0.68321 0.46928
 H1794 H 0.68973 0.70212 0.46538
 C1795 C 0.70671 0.20899 -0.06714
 C1796 C 0.69517 0.19332 -0.06450
 C1797 C 0.68657 0.18470 -0.07979
 C1798 C 0.68957 0.19182 -0.09763
 C1799 C 0.70107 0.20753 -0.10026
 C1800 C 0.70967 0.21613 -0.08497
 C1801 C 0.72114 0.23180 -0.08795
 C1802 C 0.72402 0.23877 -0.10552
 C1803 C 0.71562 0.23035 -0.12047
 C1804 C 0.70426 0.21492 -0.11795
 C1805 C 0.67514 0.16903 -0.07681
 C1806 C 0.67228 0.16205 -0.05923
 C1807 C 0.68068 0.17048 -0.04429
 C1808 C 0.69201 0.18594 -0.04681
 C1809 C 0.68096 0.18294 -0.11330
 C1810 C 0.67398 0.17566 -0.12645
 C1811 C 0.71567 0.21770 -0.05159
 C1812 C 0.72338 0.22516 -0.03896
 H1813 H 0.72799 0.23883 -0.07677
 H1814 H 0.73280 0.25077 -0.10755
 H1815 H 0.71790 0.23582 -0.13409
 H1816 H 0.69803 0.20886 -0.13001
 H1817 H 0.66830 0.16200 -0.08801
 H1818 H 0.66350 0.15004 -0.05720
 H1819 H 0.67843 0.16501 -0.03066
 H1820 H 0.69824 0.19202 -0.03476
 C1821 C 0.20725 0.70795 -0.06643
 C1822 C 0.19546 0.69256 -0.06336
 C1823 C 0.18665 0.68371 -0.07839
 C1824 C 0.18969 0.69031 -0.09641
 C1825 C 0.20145 0.70574 -0.09948
 C1826 C 0.21025 0.71459 -0.08445
 C1827 C 0.22195 0.72999 -0.08786
 C1828 C 0.22483 0.73648 -0.10561
 C1829 C 0.21624 0.72782 -0.12030
 C1830 C 0.20468 0.71262 -0.11736
 C1831 C 0.17494 0.66834 -0.07498
 C1832 C 0.17200 0.66190 -0.05722
 C1833 C 0.18061 0.67055 -0.04252
 C1834 C 0.19222 0.68571 -0.04547
 C1835 C 0.18079 0.68123 -0.11181
 C1836 C 0.17351 0.67380 -0.12471
 C1837 C 0.21637 0.71695 -0.05113
 C1838 C 0.22415 0.72462 -0.03866
 H1839 H 0.22896 0.73720 -0.07688
 H1840 H 0.23377 0.74831 -0.10796
 H1841 H 0.21853 0.73292 -0.13407
 H1842 H 0.19830 0.70636 -0.12924
 H1843 H 0.16793 0.66115 -0.08597
 H1844 H 0.16299 0.65013 -0.05485
 H1845 H 0.17828 0.66550 -0.02875
 H1846 H 0.19861 0.69199 -0.03360
 C1847 C 0.20652 0.20820 0.43404
 C1848 C 0.20960 0.21495 0.41607
 C1849 C 0.20089 0.20618 0.40094
 C1850 C 0.18913 0.19072 0.40386
 C1851 C 0.18603 0.18399 0.42182
 C1852 C 0.19475 0.19276 0.43696
 C1853 C 0.19146 0.18577 0.45478
 C1854 C 0.17988 0.17055 0.45758
 C1855 C 0.17136 0.16197 0.44278
 C1856 C 0.17435 0.16855 0.42508
 C1857 C 0.20421 0.21315 0.38311
 C1858 C 0.21580 0.22836 0.38031
 C1859 C 0.22430 0.23695 0.39510
 C1860 C 0.22131 0.23037 0.41280
 C1861 C 0.18032 0.18172 0.38837
 C1862 C 0.17317 0.17431 0.37539
 C1863 C 0.21555 0.21713 0.44944
 C1864 C 0.22328 0.22477 0.46195
 H1865 H 0.19778 0.19198 0.46672
 H1866 H 0.17752 0.16539 0.47130
 H1867 H 0.16239 0.15015 0.44503
 H1868 H 0.16742 0.16142 0.41401
 H1869 H 0.19790 0.20695 0.37117
 H1870 H 0.21818 0.23351 0.36658
 H1871 H 0.23325 0.24879 0.39285
 H1872 H 0.22825 0.23753 0.42385
 C1873 C 0.29356 0.43434 0.70714
 C1874 C 0.30907 0.42580 0.71528
 C1875 C 0.31797 0.41076 0.70628
 C1876 C 0.31130 0.40433 0.68920
 C1877 C 0.29600 0.41308 0.68091
 C1878 C 0.28710 0.42813 0.68991
 C1879 C 0.27177 0.43660 0.68139
 C1880 C 0.26545 0.43040 0.66445
 C1881 C 0.27416 0.41570 0.65564
 C1882 C 0.28926 0.40708 0.66372
 C1883 C 0.33342 0.40241 0.71470
 C1884 C 0.33990 0.40876 0.73152
 C1885 C 0.33118 0.42345 0.74034
 C1886 C 0.31593 0.43192 0.73238
 C1887 C 0.31995 0.38848 0.68037
 C1888 C 0.32702 0.37518 0.67321
 C1889 C 0.28403 0.44924 0.71668
 C1890 C 0.27602 0.46143 0.72474
 H1891 H 0.26455 0.44809 0.68770
 H1892 H 0.25372 0.43705 0.65812
 H1893 H 0.26921 0.41095 0.64248
 H1894 H 0.29559 0.39570 0.65634
 H1895 H 0.34067 0.39094 0.70837
 H1896 H 0.35175 0.40223 0.73775
 H1897 H 0.33626 0.42832 0.75341
 H1898 H 0.30962 0.44331 0.73976
 C1899 C 0.29419 0.93499 0.20526
 C1900 C 0.31293 0.93115 0.20899
 C1901 C 0.32183 0.91604 0.20010
 C1902 C 0.31195 0.90486 0.18752
 C1903 C 0.29334 0.90896 0.18348
 C1904 C 0.28444 0.92407 0.19237
 C1905 C 0.26580 0.92783 0.18818
 C1906 C 0.25624 0.91699 0.17554
 C1907 C 0.26494 0.90223 0.16683
 C1908 C 0.28328 0.89819 0.17071
 C1909 C 0.34053 0.91240 0.20413
 C1910 C 0.35017 0.92341 0.21657
 C1911 C 0.34147 0.93819 0.22525
 C1912 C 0.32306 0.94208 0.22157
 C1913 C 0.32077 0.88890 0.17907
 C1914 C 0.32789 0.87547 0.17219
 C1915 C 0.28483 0.94984 0.21501
 C1916 C 0.27691 0.96196 0.22326
 H1917 H 0.25843 0.93919 0.19457
 H1918 H 0.24199 0.92008 0.17247
 H1919 H 0.25746 0.89385 0.15702
 H1920 H 0.28946 0.88657 0.16357
 H1921 H 0.34789 0.90107 0.19769
 H1922 H 0.36447 0.92044 0.21947
 H1923 H 0.34903 0.94670 0.23489
 H1924 H 0.31690 0.95375 0.22864
 C1925 C 0.79274 0.43233 0.20812
 C1926 C 0.78659 0.41405 0.21201
 C1927 C 0.79512 0.39860 0.20333
 C1928 C 0.80976 0.40153 0.19082
 C1929 C 0.81592 0.41981 0.18694
 C1930 C 0.80738 0.43526 0.19561
 C1931 C 0.81376 0.45341 0.19153
 C1932 C 0.82819 0.45621 0.17923
 C1933 C 0.83655 0.44110 0.17075
 C1934 C 0.83054 0.42308 0.17450
 C1935 C 0.78873 0.38046 0.20744
 C1936 C 0.77433 0.37766 0.21978
 C1937 C 0.76599 0.39276 0.22828
 C1938 C 0.77199 0.41077 0.22450
 C1939 C 0.81849 0.38572 0.18201
 C1940 C 0.82565 0.37247 0.17483
 C1941 C 0.78398 0.44806 0.21702
 C1942 C 0.77646 0.46085 0.22462
 H1943 H 0.80769 0.46559 0.19779
 H1944 H 0.83291 0.47018 0.17626
 H1945 H 0.84776 0.44335 0.16120
 H1946 H 0.83747 0.41178 0.16757
 H1947 H 0.79477 0.36826 0.20118
 H1948 H 0.76962 0.36369 0.22276
 H1949 H 0.75481 0.39051 0.23784
 H1950 H 0.76507 0.42206 0.23146
 C1951 C 0.79290 0.93261 0.70873
 C1952 C 0.78970 0.91424 0.71501
 C1953 C 0.79852 0.89902 0.70623
 C1954 C 0.81049 0.90224 0.69123
 C1955 C 0.81373 0.92060 0.68498
 C1956 C 0.80490 0.93584 0.69376
 C1957 C 0.80835 0.95406 0.68728
 C1958 C 0.82018 0.95716 0.67255
 C1959 C 0.82881 0.94227 0.66396
 C1960 C 0.82566 0.92417 0.67005
 C1961 C 0.79511 0.88079 0.71275
 C1962 C 0.78333 0.87770 0.72752
 C1963 C 0.77469 0.89258 0.73610
 C1964 C 0.77779 0.91067 0.72997
 C1965 C 0.81939 0.88664 0.68223
 C1966 C 0.82662 0.87350 0.67492
 C1967 C 0.78381 0.94811 0.71770
 C1968 C 0.77610 0.96077 0.72533
 H1969 H 0.80196 0.96609 0.69352
 H1970 H 0.82267 0.97120 0.66777
 H1971 H 0.83799 0.94475 0.65252
 H1972 H 0.83269 0.91304 0.66293
 H1973 H 0.80150 0.86875 0.70654
 H1974 H 0.78088 0.86367 0.73233
 H1975 H 0.76555 0.89010 0.74757
 H1976 H 0.77075 0.92178 0.73710
 C1977 C 0.70705 0.56744 0.70701
 C1978 C 0.69602 0.56451 0.69131
 C1979 C 0.68729 0.57986 0.68268
 C1980 C 0.68965 0.59803 0.68980
 C1981 C 0.70066 0.60094 0.70553
 C1982 C 0.70939 0.58561 0.71415
 C1983 C 0.72036 0.58888 0.72983
 C1984 C 0.72261 0.60678 0.73681
 C1985 C 0.71406 0.62177 0.72839
 C1986 C 0.70320 0.61897 0.71292
 C1987 C 0.67634 0.57660 0.66700
 C1988 C 0.67408 0.55869 0.66004
 C1989 C 0.68261 0.54369 0.66848
 C1990 C 0.69347 0.54649 0.68394
 C1991 C 0.68085 0.61374 0.68095
 C1992 C 0.67366 0.62691 0.67370
 C1993 C 0.71605 0.55182 0.71583
 C1994 C 0.72370 0.53913 0.72341
 H1995 H 0.72730 0.57768 0.73688
 H1996 H 0.73101 0.60902 0.74884
 H1997 H 0.71584 0.63565 0.73387
 H1998 H 0.69684 0.63108 0.70686
 H1999 H 0.66943 0.58782 0.65996
 H2000 H 0.66566 0.55644 0.64802
 H2001 H 0.68081 0.52980 0.66301
 H2002 H 0.69982 0.53439 0.69003
 C2003 C 0.70568 0.06540 0.20446
 C2004 C 0.71517 0.07567 0.19085
 C2005 C 0.70641 0.09094 0.18214
 C2006 C 0.68820 0.09585 0.18710
 C2007 C 0.67859 0.08538 0.20048
 C2008 C 0.68735 0.07010 0.20918
 C2009 C 0.67749 0.05987 0.22255
 C2010 C 0.65948 0.06460 0.22719
 C2011 C 0.65091 0.07955 0.21870
 C2012 C 0.66029 0.08987 0.20549
 C2013 C 0.71621 0.10105 0.16864
 C2014 C 0.73415 0.09621 0.16386
 C2015 C 0.74272 0.08128 0.17237
 C2016 C 0.73341 0.07108 0.18572
 C2017 C 0.67953 0.11190 0.17872
 C2018 C 0.67252 0.12539 0.17188
 C2019 C 0.71492 0.05031 0.21390
 C2020 C 0.72275 0.03798 0.22188
 H2021 H 0.68356 0.04812 0.22952
 H2022 H 0.65213 0.05662 0.23744
 H2023 H 0.63692 0.08317 0.22236
 H2024 H 0.65305 0.10137 0.19925
 H2025 H 0.71012 0.11277 0.16161
 H2026 H 0.74144 0.10409 0.15349
 H2027 H 0.75666 0.07757 0.16860
 H2028 H 0.74066 0.05957 0.19193
 C2029 C 0.20575 0.56632 0.20469
 C2030 C 0.18751 0.57118 0.20960
 C2031 C 0.17873 0.58644 0.20088
 C2032 C 0.18823 0.59674 0.18730
 C2033 C 0.20636 0.59169 0.18218
 C2034 C 0.21515 0.57644 0.19090
 C2035 C 0.23330 0.57172 0.18561
 C2036 C 0.24251 0.58177 0.17208
 C2037 C 0.23392 0.59667 0.16355
 C2038 C 0.21606 0.60164 0.16849
 C2039 C 0.16052 0.59108 0.20608
 C2040 C 0.15125 0.58094 0.21949
 C2041 C 0.15983 0.56602 0.22801
 C2042 C 0.17775 0.56113 0.22318
 C2043 C 0.17954 0.61275 0.17888
 C2044 C 0.17249 0.62620 0.17201
 C2045 C 0.21498 0.55120 0.21409
 C2046 C 0.22276 0.53882 0.22205
 H2047 H 0.24056 0.56022 0.19184
 H2048 H 0.25639 0.57796 0.16820
 H2049 H 0.24113 0.60443 0.15305
 H2050 H 0.20995 0.61333 0.16144
 H2051 H 0.15327 0.60257 0.19983
 H2052 H 0.13733 0.58468 0.22329
 H2053 H 0.15257 0.55818 0.23842
 H2054 H 0.18384 0.54941 0.23018
 C2055 C 0.20710 0.06589 0.70558
 C2056 C 0.18896 0.07090 0.71067
 C2057 C 0.18021 0.08623 0.70203
 C2058 C 0.18965 0.09644 0.68834
 C2059 C 0.20769 0.09125 0.68305
 C2060 C 0.21644 0.07593 0.69170
 C2061 C 0.23451 0.07106 0.68623
 C2062 C 0.24366 0.08102 0.67260
 C2063 C 0.23510 0.09599 0.66414
 C2064 C 0.21733 0.10111 0.66926
 C2065 C 0.16210 0.09102 0.70741
 C2066 C 0.15288 0.08096 0.72092
 C2067 C 0.16143 0.06598 0.72937
 C2068 C 0.17927 0.06095 0.72436
 C2069 C 0.18097 0.11248 0.67997
 C2070 C 0.17388 0.12594 0.67314
 C2071 C 0.21631 0.05070 0.71489
 C2072 C 0.22408 0.03826 0.72278
 H2073 H 0.24174 0.05951 0.69239
 H2074 H 0.25747 0.07710 0.66858
 H2075 H 0.24227 0.10368 0.65356
 H2076 H 0.21124 0.11285 0.66226
 H2077 H 0.15486 0.10256 0.70122
 H2078 H 0.13903 0.08481 0.72486
 H2079 H 0.15421 0.05820 0.73985
 H2080 H 0.18533 0.04918 0.73131
 C2081 C 0.29216 0.56641 0.29228
 C2082 C 0.30587 0.56276 0.30554
 C2083 C 0.31493 0.57777 0.31447
 C2084 C 0.31022 0.59634 0.31008
 C2085 C 0.29651 0.59999 0.29681
 C2086 C 0.28746 0.58498 0.28788
 C2087 C 0.27382 0.58899 0.27465
 C2088 C 0.26926 0.60729 0.27035
 C2089 C 0.27811 0.62196 0.27908
 C2090 C 0.29159 0.61844 0.29217
 C2091 C 0.32860 0.57378 0.32766
 C2092 C 0.33319 0.55548 0.33191
 C2093 C 0.32434 0.54080 0.32318
 C2094 C 0.31082 0.54431 0.31014
 C2095 C 0.31942 0.61173 0.31917
 C2096 C 0.32686 0.62473 0.32653
 C2097 C 0.28289 0.55112 0.28309
 C2098 C 0.27503 0.53867 0.27525
 H2099 H 0.26654 0.57806 0.26748
 H2100 H 0.25881 0.61009 0.26019
 H2101 H 0.27453 0.63615 0.27570
 H2102 H 0.29808 0.63032 0.29857
 H2103 H 0.33587 0.58473 0.33481
 H2104 H 0.34369 0.55267 0.34203
 H2105 H 0.32796 0.52661 0.32653
 H2106 H 0.30431 0.53244 0.30371
 C2107 C 0.29316 0.06548 0.79340
 C2108 C 0.28805 0.08407 0.78957
 C2109 C 0.29705 0.09901 0.79864
 C2110 C 0.31114 0.09528 0.81149
 C2111 C 0.31623 0.07670 0.81535
 C2112 C 0.30722 0.06175 0.80628
 C2113 C 0.31256 0.04329 0.81035
 C2114 C 0.32641 0.03970 0.82302
 C2115 C 0.33522 0.05431 0.83190
 C2116 C 0.33025 0.07263 0.82816
 C2117 C 0.29170 0.11748 0.79458
 C2118 C 0.27785 0.12108 0.78190
 C2119 C 0.26905 0.10647 0.77303
 C2120 C 0.27402 0.08816 0.77676
 C2121 C 0.32036 0.11060 0.82067
 C2122 C 0.32785 0.12352 0.82812
 C2123 C 0.28398 0.05026 0.78403
 C2124 C 0.27619 0.03786 0.77606
 H2125 H 0.30610 0.03146 0.80380
 H2126 H 0.33033 0.02549 0.82597
 H2127 H 0.34598 0.05145 0.84173
 H2128 H 0.33750 0.08353 0.83541
 H2129 H 0.29813 0.12932 0.80113
 H2130 H 0.27393 0.13528 0.77896
 H2131 H 0.25830 0.10934 0.76319
 H2132 H 0.26676 0.07728 0.76950
 C2133 C 0.79311 0.56722 0.79211
 C2134 C 0.80477 0.56399 0.80728
 C2135 C 0.81364 0.57919 0.81608
 C2136 C 0.81081 0.59754 0.80964
 C2137 C 0.79917 0.60077 0.79445
 C2138 C 0.79029 0.58557 0.78566
 C2139 C 0.77871 0.58915 0.77050
 C2140 C 0.77600 0.60722 0.76418
 C2141 C 0.78468 0.62208 0.77278
 C2142 C 0.79613 0.61898 0.78774
 C2143 C 0.82522 0.57561 0.83122
 C2144 C 0.82796 0.55752 0.83750
 C2145 C 0.81929 0.54266 0.82889
 C2146 C 0.80782 0.54577 0.81395
 C2147 C 0.81982 0.61310 0.81862
 C2148 C 0.82718 0.62616 0.82596
 C2149 C 0.78396 0.55174 0.78315
 C2150 C 0.77619 0.53911 0.77552
 H2151 H 0.77165 0.57805 0.76335
 H2152 H 0.76714 0.60969 0.75255
 H2153 H 0.78253 0.63609 0.76782
 H2154 H 0.80257 0.63099 0.79396
 H2155 H 0.83226 0.58672 0.83837
 H2156 H 0.83685 0.55503 0.84911
 H2157 H 0.82146 0.52864 0.83382
 H2158 H 0.80138 0.53376 0.80770
 C2159 C 0.79178 0.06592 0.29240
 C2160 C 0.78699 0.08448 0.28807
 C2161 C 0.79596 0.09951 0.29705
 C2162 C 0.80967 0.09589 0.31033
 C2163 C 0.81444 0.07733 0.31469
 C2164 C 0.80546 0.06230 0.30570
 C2165 C 0.81045 0.04386 0.31029
 C2166 C 0.82393 0.04037 0.32339
 C2167 C 0.83272 0.05507 0.33216
 C2168 C 0.82808 0.07336 0.32792
 C2169 C 0.79094 0.11794 0.29247
 C2170 C 0.77743 0.12143 0.27940
 C2171 C 0.76865 0.10675 0.27063
 C2172 C 0.77332 0.08846 0.27486
 C2173 C 0.81883 0.11129 0.31944
 C2174 C 0.82625 0.12429 0.32682
 C2175 C 0.78265 0.05061 0.28311
 C2176 C 0.77492 0.03813 0.27521
 H2177 H 0.80400 0.03198 0.30384
 H2178 H 0.82758 0.02619 0.32674
 H2179 H 0.84318 0.05228 0.34232
 H2180 H 0.83529 0.08433 0.33510
 H2181 H 0.79737 0.12984 0.29891
 H2182 H 0.77377 0.13562 0.27607
 H2183 H 0.75817 0.10953 0.26049
 H2184 H 0.76609 0.07751 0.26766
 C2185 C 0.70854 0.43238 0.29404
 C2186 C 0.69187 0.43486 0.30381
 C2187 C 0.68325 0.41938 0.31241
 C2188 C 0.69137 0.40153 0.31120
 C2189 C 0.70809 0.39908 0.30150
 C2190 C 0.71670 0.41454 0.29288
 C2191 C 0.73338 0.41173 0.28321
 C2192 C 0.74135 0.39416 0.28213
 C2193 C 0.73295 0.37903 0.29057
 C2194 C 0.71650 0.38138 0.30015
 C2195 C 0.66655 0.42218 0.32204
 C2196 C 0.65860 0.43977 0.32314
 C2197 C 0.66704 0.45491 0.31475
 C2198 C 0.68349 0.45256 0.30518
 C2199 C 0.68249 0.38566 0.31980
 C2200 C 0.67522 0.37237 0.32682
 C2201 C 0.71725 0.44810 0.28502
 C2202 C 0.72471 0.46087 0.27731
 H2203 H 0.74045 0.42306 0.27641
 H2204 H 0.75413 0.39227 0.27471
 H2205 H 0.73920 0.36541 0.28969
 H2206 H 0.71049 0.36919 0.30648
 H2207 H 0.65948 0.41084 0.32880
 H2208 H 0.64581 0.44166 0.33055
 H2209 H 0.66080 0.46854 0.31565
 H2210 H 0.68954 0.46475 0.29889
 C2211 C 0.70627 0.93526 0.79653
 C2212 C 0.68682 0.93400 0.79607
 C2213 C 0.67771 0.91906 0.80508
 C2214 C 0.68810 0.90546 0.81450
 C2215 C 0.70753 0.90688 0.81521
 C2216 C 0.71664 0.92181 0.80618
 C2217 C 0.73609 0.92286 0.80699
 C2218 C 0.74623 0.90957 0.81647
 C2219 C 0.73732 0.89500 0.82532
 C2220 C 0.71820 0.89359 0.82474
 C2221 C 0.65826 0.91806 0.80436
 C2222 C 0.64811 0.93145 0.79502
 C2223 C 0.65701 0.94606 0.78622
 C2224 C 0.67615 0.94739 0.78668
 C2225 C 0.67887 0.88980 0.82311
 C2226 C 0.67137 0.87662 0.83010
 C2227 C 0.71564 0.95013 0.78680
 C2228 C 0.72358 0.96228 0.77857
 H2229 H 0.74365 0.93396 0.80035
 H2230 H 0.76109 0.91060 0.81696
 H2231 H 0.74526 0.88472 0.83268
 H2232 H 0.71190 0.88201 0.83185
 H2233 H 0.65071 0.90696 0.81101
 H2234 H 0.63324 0.93048 0.79462
 H2235 H 0.64906 0.95642 0.77898
 H2236 H 0.68245 0.95901 0.77964
 C2237 C 0.20584 0.43361 0.79537
 C2238 C 0.21443 0.42457 0.81030
 C2239 C 0.20559 0.40925 0.81895
 C2240 C 0.18822 0.40305 0.81261
 C2241 C 0.17947 0.41232 0.79792
 C2242 C 0.18831 0.42764 0.78927
 C2243 C 0.17933 0.43662 0.77456
 C2244 C 0.16209 0.43067 0.76858
 C2245 C 0.15344 0.41569 0.77705
 C2246 C 0.16198 0.40656 0.79154
 C2247 C 0.21446 0.40040 0.83380
 C2248 C 0.23158 0.40652 0.83995
 C2249 C 0.24023 0.42149 0.83149
 C2250 C 0.23183 0.43045 0.81681
 C2251 C 0.17957 0.38690 0.82092
 C2252 C 0.17253 0.37334 0.82767
 C2253 C 0.21524 0.44872 0.78600
 C2254 C 0.22317 0.46107 0.77806
 H2255 H 0.18550 0.44834 0.76755
 H2256 H 0.15541 0.43772 0.75733
 H2257 H 0.14005 0.41113 0.77236
 H2258 H 0.15470 0.39498 0.79769
 H2259 H 0.20827 0.38870 0.84083
 H2260 H 0.23816 0.39961 0.85135
 H2261 H 0.25353 0.42618 0.83631
 H2262 H 0.23910 0.44203 0.81068
 C2263 C 0.20766 0.93338 0.29478
 C2264 C 0.21582 0.92514 0.31037
 C2265 C 0.20700 0.90991 0.31920
 C2266 C 0.19008 0.90301 0.31238
 C2267 C 0.18177 0.91145 0.29697
 C2268 C 0.19059 0.92668 0.28814
 C2269 C 0.18205 0.93484 0.27272
 C2270 C 0.16527 0.92816 0.26622
 C2271 C 0.15665 0.91327 0.27485
 C2272 C 0.16474 0.90496 0.29005
 C2273 C 0.21545 0.90186 0.33473
 C2274 C 0.23213 0.90866 0.34135
 C2275 C 0.24076 0.92355 0.33272
 C2276 C 0.23276 0.93174 0.31739
 C2277 C 0.18144 0.88700 0.32095
 C2278 C 0.17437 0.87356 0.32792
 C2279 C 0.21700 0.94848 0.28534
 C2280 C 0.22483 0.96087 0.27735
 H2281 H 0.18821 0.94646 0.26555
 H2282 H 0.15892 0.93458 0.25441
 H2283 H 0.14362 0.90814 0.26975
 H2284 H 0.15750 0.89343 0.29632
 H2285 H 0.20926 0.89026 0.34192
 H2286 H 0.23840 0.90235 0.35325
 H2287 H 0.25371 0.92879 0.33792
 H2288 H 0.23999 0.94330 0.31115
 C2289 C 0.43369 0.29345 0.70670
 C2290 C 0.42737 0.28674 0.68960
 C2291 C 0.41238 0.29563 0.68072
 C2292 C 0.40381 0.31119 0.68900
 C2293 C 0.41032 0.31810 0.70595
 C2294 C 0.42531 0.30920 0.71483
 C2295 C 0.43153 0.31632 0.73180
 C2296 C 0.42320 0.33179 0.73976
 C2297 C 0.40856 0.34049 0.73108
 C2298 C 0.40213 0.33378 0.71436
 C2299 C 0.40627 0.28863 0.66367
 C2300 C 0.41472 0.27328 0.65561
 C2301 C 0.42937 0.26458 0.66429
 C2302 C 0.43568 0.27117 0.68110
 C2303 C 0.38807 0.31985 0.68026
 C2304 C 0.37487 0.32694 0.67316
 C2305 C 0.44858 0.28398 0.71608
 C2306 C 0.46081 0.27600 0.72396
 H2307 H 0.44289 0.31004 0.73908
 H2308 H 0.42814 0.33705 0.75274
 H2309 H 0.40214 0.35251 0.73731
 H2310 H 0.39072 0.34104 0.70813
 H2311 H 0.39494 0.29494 0.65637
 H2312 H 0.40988 0.26812 0.64255
 H2313 H 0.43589 0.25267 0.65797
 H2314 H 0.44713 0.26394 0.68731
 C2315 C 0.43362 0.79263 0.20681
 C2316 C 0.41554 0.78986 0.21360
 C2317 C 0.40041 0.79864 0.20488
 C2318 C 0.40343 0.81016 0.18943
 C2319 C 0.42151 0.81296 0.18267
 C2320 C 0.43665 0.80417 0.19139
 C2321 C 0.45460 0.80717 0.18440
 C2322 C 0.45751 0.81855 0.16922
 C2323 C 0.44271 0.82714 0.16069
 C2324 C 0.42489 0.82442 0.16728
 C2325 C 0.38247 0.79566 0.21192
 C2326 C 0.37957 0.78435 0.22715
 C2327 C 0.39437 0.77578 0.23568
 C2328 C 0.41218 0.77843 0.22903
 C2329 C 0.38794 0.81908 0.18051
 C2330 C 0.37497 0.82640 0.17320
 C2331 C 0.44904 0.78359 0.21572
 C2332 C 0.46161 0.77592 0.22335
 H2333 H 0.46655 0.80079 0.19057
 H2334 H 0.47133 0.82070 0.16405
 H2335 H 0.44504 0.83596 0.14890
 H2336 H 0.41382 0.83140 0.16018
 H2337 H 0.37051 0.80203 0.20576
 H2338 H 0.36576 0.78225 0.23236
 H2339 H 0.39205 0.76705 0.24753
 H2340 H 0.42323 0.77145 0.23615
 C2341 C 0.93301 0.29148 0.20792
 C2342 C 0.91510 0.28885 0.21519
 C2343 C 0.89974 0.29736 0.20659
 C2344 C 0.90237 0.30847 0.19079
 C2345 C 0.92029 0.31116 0.18357
 C2346 C 0.93566 0.30264 0.19217
 C2347 C 0.95343 0.30553 0.18472
 C2348 C 0.95597 0.31654 0.16921
 C2349 C 0.94095 0.32486 0.16080
 C2350 C 0.92328 0.32224 0.16783
 C2351 C 0.88197 0.29452 0.21410
 C2352 C 0.87946 0.28361 0.22967
 C2353 C 0.89448 0.27531 0.23809
 C2354 C 0.91212 0.27783 0.23098
 C2355 C 0.88665 0.31711 0.18199
 C2356 C 0.87351 0.32423 0.17481
 C2357 C 0.94864 0.28262 0.21665
 C2358 C 0.96134 0.27503 0.22415
 H2359 H 0.96554 0.29935 0.19078
 H2360 H 0.96966 0.31862 0.16370
 H2361 H 0.94299 0.33339 0.14876
 H2362 H 0.91203 0.32900 0.16081
 H2363 H 0.86985 0.30070 0.20806
 H2364 H 0.86577 0.28160 0.23524
 H2365 H 0.89246 0.26690 0.25022
 H2366 H 0.92335 0.27107 0.23803
 C2367 C 0.93410 0.79239 0.70722
 C2368 C 0.93663 0.80306 0.69112
 C2369 C 0.92124 0.81160 0.68258
 C2370 C 0.90343 0.80942 0.69020
 C2371 C 0.90090 0.79876 0.70631
 C2372 C 0.91628 0.79022 0.71484
 C2373 C 0.91341 0.77962 0.73094
 C2374 C 0.89586 0.77755 0.73841
 C2375 C 0.88082 0.78590 0.73007
 C2376 C 0.88323 0.79640 0.71420
 C2377 C 0.92411 0.82218 0.66649
 C2378 C 0.94167 0.82429 0.65905
 C2379 C 0.95671 0.81595 0.66741
 C2380 C 0.95430 0.80544 0.68326
 C2381 C 0.88770 0.81814 0.68151
 C2382 C 0.87453 0.82532 0.67443
 C2383 C 0.94976 0.78361 0.71595
 C2384 C 0.96250 0.77612 0.72346
 H2385 H 0.92466 0.77284 0.73794
 H2386 H 0.89392 0.76945 0.75075
 H2387 H 0.86721 0.78426 0.73592
 H2388 H 0.87110 0.80262 0.70822
 H2389 H 0.91284 0.82893 0.65949
 H2390 H 0.94362 0.83243 0.64674
 H2391 H 0.97033 0.81763 0.66158
 H2392 H 0.96642 0.79922 0.68927
 C2393 C 0.56714 0.29224 0.29297
 C2394 C 0.58506 0.28959 0.28575
 C2395 C 0.60046 0.29791 0.29452
 C2396 C 0.59786 0.30888 0.31042
 C2397 C 0.57994 0.31156 0.31761
 C2398 C 0.56453 0.30322 0.30886
 C2399 C 0.54675 0.30610 0.31628
 C2400 C 0.54426 0.31694 0.33191
 C2401 C 0.55932 0.32509 0.34048
 C2402 C 0.57699 0.32247 0.33348
 C2403 C 0.61824 0.29502 0.28707
 C2404 C 0.62072 0.28430 0.27137
 C2405 C 0.60565 0.27623 0.26275
 C2406 C 0.58801 0.27876 0.26981
 C2407 C 0.61362 0.31743 0.31930
 C2408 C 0.62684 0.32444 0.32650
 C2409 C 0.55147 0.28357 0.28406
 C2410 C 0.53874 0.27612 0.27643
 H2411 H 0.53462 0.30005 0.31010
 H2412 H 0.53056 0.31903 0.33740
 H2413 H 0.55731 0.33349 0.35262
 H2414 H 0.58827 0.32908 0.34063
 H2415 H 0.63039 0.30101 0.29328
 H2416 H 0.63441 0.28226 0.26584
 H2417 H 0.60764 0.26800 0.25050
 H2418 H 0.57674 0.27217 0.26262
 C2419 C 0.56434 0.79601 0.79429
 C2420 C 0.57682 0.80732 0.78434
 C2421 C 0.59165 0.81620 0.79354
 C2422 C 0.59393 0.81371 0.81263
 C2423 C 0.58126 0.80268 0.82263
 C2424 C 0.56641 0.79381 0.81344
 C2425 C 0.55396 0.78280 0.82372
 C2426 C 0.55611 0.78062 0.84254
 C2427 C 0.57063 0.78929 0.85153
 C2428 C 0.58311 0.80020 0.84176
 C2429 C 0.60399 0.82738 0.78329
 C2430 C 0.60173 0.82972 0.76449
 C2431 C 0.58723 0.82103 0.75550
 C2432 C 0.57488 0.80993 0.76523
 C2433 C 0.60953 0.82217 0.82186
 C2434 C 0.62268 0.82908 0.82929
 C2435 C 0.54962 0.78634 0.78476
 C2436 C 0.53760 0.77817 0.77672
 H2437 H 0.54244 0.77580 0.81734
 H2438 H 0.54645 0.77217 0.85020
 H2439 H 0.57223 0.78755 0.86616
 H2440 H 0.59417 0.80668 0.84936
 H2441 H 0.61546 0.83445 0.78967
 H2442 H 0.61128 0.83833 0.75687
 H2443 H 0.58554 0.82289 0.74089
 H2444 H 0.56381 0.80348 0.75763
 C2445 C 0.06585 0.29147 0.79290
 C2446 C 0.08379 0.28428 0.79016
 C2447 C 0.09909 0.29281 0.79890
 C2448 C 0.09638 0.30848 0.81033
 C2449 C 0.07845 0.31565 0.81311
 C2450 C 0.06313 0.30711 0.80436
 C2451 C 0.04534 0.31452 0.80734
 C2452 C 0.04275 0.32993 0.81863
 C2453 C 0.05771 0.33828 0.82717
 C2454 C 0.07539 0.33128 0.82449
 C2455 C 0.11688 0.28536 0.79595
 C2456 C 0.11947 0.26992 0.78470
 C2457 C 0.10451 0.26157 0.77616
 C2458 C 0.08685 0.26862 0.77879
 C2459 C 0.11206 0.31723 0.81918
 C2460 C 0.12517 0.32440 0.82644
 C2461 C 0.05027 0.28277 0.78386
 C2462 C 0.03763 0.27526 0.77614
 H2463 H 0.03327 0.30850 0.80100
 H2464 H 0.02904 0.33542 0.82076
 H2465 H 0.05562 0.35025 0.83593
 H2466 H 0.08660 0.33824 0.83144
 H2467 H 0.12896 0.29135 0.80230
 H2468 H 0.13317 0.26440 0.78261
 H2469 H 0.10659 0.24956 0.76746
 H2470 H 0.07566 0.26163 0.77184
 C2471 C 0.06713 0.79254 0.29376
 C2472 C 0.08501 0.78525 0.29099
 C2473 C 0.10037 0.79362 0.29979
 C2474 C 0.09775 0.80924 0.31131
 C2475 C 0.07985 0.81650 0.31413
 C2476 C 0.06450 0.80812 0.30533
 C2477 C 0.04675 0.81562 0.30834
 C2478 C 0.04423 0.83097 0.31972
 C2479 C 0.05924 0.83917 0.32832
 C2480 C 0.07688 0.83208 0.32561
 C2481 C 0.11811 0.78608 0.29679
 C2482 C 0.12061 0.77070 0.28544
 C2483 C 0.10560 0.76250 0.27685
 C2484 C 0.08798 0.76964 0.27952
 C2485 C 0.11348 0.81789 0.32016
 C2486 C 0.12666 0.82499 0.32736
 C2487 C 0.05151 0.78402 0.28465
 C2488 C 0.03880 0.77667 0.27688
 H2489 H 0.03465 0.80971 0.30195
 H2490 H 0.03056 0.83653 0.32186
 H2491 H 0.05722 0.85110 0.33714
 H2492 H 0.08813 0.83893 0.33261
 H2493 H 0.13022 0.79196 0.30318
 H2494 H 0.13427 0.76511 0.28331
 H2495 H 0.10760 0.75053 0.26808
 H2496 H 0.07674 0.76277 0.27252
 C2497 C 0.56596 0.70774 0.70626
 C2498 C 0.57025 0.68895 0.71015
 C2499 C 0.58540 0.68027 0.70126
 C2500 C 0.59618 0.69044 0.68854
 C2501 C 0.59171 0.70913 0.68444
 C2502 C 0.57657 0.71782 0.69333
 C2503 C 0.57243 0.73655 0.68906
 C2504 C 0.58294 0.74642 0.67636
 C2505 C 0.59774 0.73793 0.66766
 C2506 C 0.60214 0.71950 0.67160
 C2507 C 0.58946 0.66150 0.70542
 C2508 C 0.57885 0.65158 0.71799
 C2509 C 0.56404 0.66006 0.72668
 C2510 C 0.55972 0.67853 0.72286
 C2511 C 0.61206 0.68179 0.67996
 C2512 C 0.62538 0.67472 0.67298
 C2513 C 0.55089 0.71684 0.71580
 C2514 C 0.53856 0.72464 0.72376
 H2515 H 0.56104 0.74376 0.69545
 H2516 H 0.57957 0.76073 0.67325
 H2517 H 0.60585 0.74565 0.65780
 H2518 H 0.61377 0.71350 0.66446
 H2519 H 0.60084 0.65429 0.69900
 H2520 H 0.58214 0.63722 0.72100
 H2521 H 0.55584 0.65229 0.73643
 H2522 H 0.54806 0.68452 0.72995
 C2523 C 0.56649 0.20761 0.20693
 C2524 C 0.56360 0.19626 0.19135
 C2525 C 0.57884 0.18768 0.18251
 C2526 C 0.59687 0.19052 0.18929
 C2527 C 0.59976 0.20188 0.20487
 C2528 C 0.58453 0.21044 0.21373
 C2529 C 0.58777 0.22169 0.22931
 C2530 C 0.60554 0.22438 0.23597
 C2531 C 0.62043 0.21607 0.22727
 C2532 C 0.61767 0.20494 0.21189
 C2533 C 0.57560 0.17638 0.16697
 C2534 C 0.55782 0.17364 0.16035
 C2535 C 0.54293 0.18203 0.16899
 C2536 C 0.54570 0.19323 0.18432
 C2537 C 0.61245 0.18172 0.18032
 C2538 C 0.62549 0.17448 0.17301
 C2539 C 0.55099 0.21648 0.21595
 C2540 C 0.53838 0.22407 0.22365
 H2541 H 0.57664 0.22848 0.23655
 H2542 H 0.60775 0.23294 0.24796
 H2543 H 0.63421 0.21824 0.23248
 H2544 H 0.62970 0.19877 0.20561
 H2545 H 0.58675 0.16957 0.15978
 H2546 H 0.55560 0.16496 0.14844
 H2547 H 0.52915 0.17986 0.16379
 H2548 H 0.53369 0.19945 0.19059
 C2549 C 0.06647 0.70854 0.20684
 C2550 C 0.06355 0.69304 0.19525
 C2551 C 0.07875 0.68441 0.18640
 C2552 C 0.09679 0.69135 0.18920
 C2553 C 0.09971 0.70689 0.20077
 C2554 C 0.08451 0.71551 0.20962
 C2555 C 0.08777 0.73103 0.22113
 C2556 C 0.10553 0.73784 0.22379
 C2557 C 0.12039 0.72940 0.21515
 C2558 C 0.11760 0.71410 0.20376
 C2559 C 0.07549 0.66892 0.17488
 C2560 C 0.05772 0.66215 0.17218
 C2561 C 0.04285 0.67058 0.18083
 C2562 C 0.04565 0.68586 0.19225
 C2563 C 0.11236 0.68250 0.18025
 C2564 C 0.12539 0.67523 0.17295
 C2565 C 0.05100 0.71735 0.21597
 C2566 C 0.03841 0.72492 0.22374
 H2567 H 0.07667 0.73807 0.22817
 H2568 H 0.10777 0.74975 0.23258
 H2569 H 0.13417 0.73474 0.21727
 H2570 H 0.12960 0.70802 0.19734
 H2571 H 0.08661 0.66190 0.16785
 H2572 H 0.05547 0.65028 0.16333
 H2573 H 0.02907 0.66527 0.17869
 H2574 H 0.03366 0.69196 0.19867
 C2575 C 0.06643 0.20684 0.70732
 C2576 C 0.06389 0.19092 0.69618
 C2577 C 0.07928 0.18247 0.68751
 C2578 C 0.09713 0.19000 0.69002
 C2579 C 0.09967 0.20594 0.70114
 C2580 C 0.08428 0.21438 0.70982
 C2581 C 0.08716 0.23030 0.72088
 C2582 C 0.10474 0.23768 0.72327
 C2583 C 0.11979 0.22943 0.71478
 C2584 C 0.11737 0.21373 0.70384
 C2585 C 0.07640 0.16657 0.67644
 C2586 C 0.05880 0.15922 0.67402
 C2587 C 0.04375 0.16749 0.68251
 C2588 C 0.04618 0.18316 0.69348
 C2589 C 0.11290 0.18135 0.68123
 C2590 C 0.12610 0.17429 0.67403
 C2591 C 0.05075 0.21551 0.71621
 C2592 C 0.03800 0.22299 0.72377
 H2593 H 0.07590 0.23722 0.72778
 H2594 H 0.10669 0.24989 0.73173
 H2595 H 0.13342 0.23522 0.71668
 H2596 H 0.12951 0.20782 0.69752
 H2597 H 0.08768 0.15965 0.66956
 H2598 H 0.05684 0.14705 0.66551
 H2599 H 0.03011 0.16173 0.68058
 H2600 H 0.03405 0.18910 0.69980
 C2601 C 0.43376 0.70676 0.29281
 C2602 C 0.43671 0.69551 0.30843
 C2603 C 0.42153 0.68672 0.31722
 C2604 C 0.40350 0.68924 0.31033
 C2605 C 0.40056 0.70048 0.29469
 C2606 C 0.41573 0.70926 0.28590
 C2607 C 0.41245 0.72041 0.27027
 C2608 C 0.39469 0.72280 0.26352
 C2609 C 0.37985 0.71423 0.27213
 C2610 C 0.38267 0.70319 0.28754
 C2611 C 0.42481 0.67555 0.33282
 C2612 C 0.44258 0.67312 0.33954
 C2613 C 0.45742 0.68170 0.33094
 C2614 C 0.45460 0.69278 0.31555
 C2615 C 0.38796 0.68029 0.31928
 C2616 C 0.37493 0.67297 0.32657
 C2617 C 0.44921 0.71584 0.28384
 C2618 C 0.46177 0.72356 0.27614
 H2619 H 0.42353 0.72737 0.26310
 H2620 H 0.39243 0.73132 0.25153
 H2621 H 0.36608 0.71614 0.26683
 H2622 H 0.37068 0.69681 0.29374
 H2623 H 0.41370 0.66859 0.33997
 H2624 H 0.44484 0.66453 0.35148
 H2625 H 0.47120 0.67976 0.33621
 H2626 H 0.46657 0.69917 0.30933
 C2627 C 0.43528 0.20514 0.79543
 C2628 C 0.42616 0.21407 0.81015
 C2629 C 0.41128 0.20502 0.81918
 C2630 C 0.40560 0.18710 0.81343
 C2631 C 0.41495 0.17802 0.79895
 C2632 C 0.42983 0.18706 0.78992
 C2633 C 0.43890 0.17773 0.77542
 C2634 C 0.43343 0.15998 0.77000
 C2635 C 0.41888 0.15114 0.77883
 C2636 C 0.40969 0.15999 0.79315
 C2637 C 0.40233 0.21426 0.83381
 C2638 C 0.40791 0.23194 0.83936
 C2639 C 0.42245 0.24079 0.83053
 C2640 C 0.43152 0.23203 0.81608
 C2641 C 0.38985 0.17824 0.82208
 C2642 C 0.37659 0.17105 0.82909
 C2643 C 0.44994 0.21472 0.78568
 C2644 C 0.46191 0.22280 0.77743
 H2645 H 0.45031 0.18403 0.76815
 H2646 H 0.44053 0.15304 0.75889
 H2647 H 0.41469 0.13734 0.77458
 H2648 H 0.39847 0.15253 0.79962
 H2649 H 0.39096 0.20793 0.84113
 H2650 H 0.40091 0.23880 0.85058
 H2651 H 0.42674 0.25452 0.83489
 H2652 H 0.44277 0.23947 0.80965
 C2653 C 0.93453 0.70776 0.79275
 C2654 C 0.93731 0.69648 0.80838
 C2655 C 0.92202 0.68781 0.81709
 C2656 C 0.90404 0.69048 0.81013
 C2657 C 0.90126 0.70176 0.79449
 C2658 C 0.91655 0.71043 0.78578
 C2659 C 0.91342 0.72166 0.77017
 C2660 C 0.89571 0.72421 0.76335
 C2661 C 0.88077 0.71573 0.77186
 C2662 C 0.88343 0.70462 0.78725
 C2663 C 0.92514 0.67661 0.83270
 C2664 C 0.94286 0.67404 0.83951
 C2665 C 0.95780 0.68250 0.83098
 C2666 C 0.95514 0.69361 0.81559
 C2667 C 0.88841 0.68163 0.81900
 C2668 C 0.87532 0.67434 0.82624
 C2669 C 0.95010 0.71666 0.78382
 C2670 C 0.96275 0.72426 0.77615
 H2671 H 0.92459 0.72856 0.76307
 H2672 H 0.89357 0.73281 0.75138
 H2673 H 0.86704 0.71776 0.76651
 H2674 H 0.87137 0.69832 0.79339
 H2675 H 0.91395 0.66973 0.83980
 H2676 H 0.94500 0.66543 0.85147
 H2677 H 0.97154 0.68046 0.83633
 H2678 H 0.96720 0.69990 0.80942
 C2679 C 0.93344 0.20589 0.29318
 C2680 C 0.93638 0.19446 0.30868
 C2681 C 0.92117 0.18575 0.31749
 C2682 C 0.90312 0.18852 0.31075
 C2683 C 0.90019 0.19992 0.29522
 C2684 C 0.91540 0.20862 0.28641
 C2685 C 0.91213 0.21993 0.27089
 C2686 C 0.89435 0.22255 0.26426
 C2687 C 0.87948 0.21407 0.27290
 C2688 C 0.88229 0.20287 0.28820
 C2689 C 0.92445 0.17440 0.33296
 C2690 C 0.94224 0.17171 0.33953
 C2691 C 0.95711 0.18021 0.33090
 C2692 C 0.95429 0.19148 0.31565
 C2693 C 0.88756 0.17964 0.31972
 C2694 C 0.87448 0.17236 0.32700
 C2695 C 0.94892 0.21489 0.28421
 C2696 C 0.96152 0.22257 0.27654
 H2697 H 0.92324 0.22684 0.26369
 H2698 H 0.89211 0.23119 0.25234
 H2699 H 0.86570 0.21616 0.26770
 H2700 H 0.87028 0.19657 0.29443
 H2701 H 0.91332 0.16749 0.34013
 H2702 H 0.94451 0.16297 0.35137
 H2703 H 0.97091 0.17807 0.33605
 H2704 H 0.96629 0.19780 0.30940
 C2705 C 0.29346 0.29350 0.56673
 C2706 C 0.30441 0.30959 0.56411
 C2707 C 0.31316 0.31817 0.57933
 C2708 C 0.31091 0.31059 0.59709
 C2709 C 0.30001 0.29445 0.59970
 C2710 C 0.29126 0.28588 0.58449
 C2711 C 0.28041 0.26976 0.58746
 C2712 C 0.27831 0.26232 0.60494
 C2713 C 0.28686 0.27070 0.61982
 C2714 C 0.29760 0.28658 0.61731
 C2715 C 0.32402 0.33425 0.57637
 C2716 C 0.32618 0.34167 0.55887
 C2717 C 0.31763 0.33329 0.54399
 C2718 C 0.30685 0.31743 0.54649
 C2719 C 0.31971 0.31942 0.61268
 C2720 C 0.32690 0.32666 0.62573
 C2721 C 0.28437 0.28478 0.55125
 C2722 C 0.27661 0.27726 0.53868
 H2723 H 0.27347 0.26273 0.57633
 H2724 H 0.27001 0.24996 0.60696
 H2725 H 0.28518 0.26486 0.63338
 H2726 H 0.30399 0.29259 0.62931
 H2727 H 0.33096 0.34126 0.58752
 H2728 H 0.33454 0.35398 0.55686
 H2729 H 0.31935 0.33910 0.53043
 H2730 H 0.30047 0.31140 0.53450
 C2731 C 0.29405 0.79324 0.06634
 C2732 C 0.30532 0.80908 0.06360
 C2733 C 0.31409 0.81769 0.07880
 C2734 C 0.31153 0.81039 0.09663
 C2735 C 0.30027 0.79453 0.09936
 C2736 C 0.29150 0.78593 0.08417
 C2737 C 0.28029 0.77009 0.08725
 C2738 C 0.27785 0.76294 0.10481
 C2739 C 0.28643 0.77135 0.11966
 C2740 C 0.29752 0.78696 0.11705
 C2741 C 0.32529 0.83352 0.07573
 C2742 C 0.32775 0.84065 0.05816
 C2743 C 0.31917 0.83224 0.04331
 C2744 C 0.30807 0.81663 0.04592
 C2745 C 0.32036 0.81924 0.11219
 C2746 C 0.32757 0.82650 0.12523
 C2747 C 0.28500 0.78444 0.05088
 C2748 C 0.27728 0.77689 0.03831
 H2749 H 0.27331 0.76305 0.07614
 H2750 H 0.26927 0.75079 0.10691
 H2751 H 0.28449 0.76574 0.13328
 H2752 H 0.30390 0.79300 0.12903
 H2753 H 0.33225 0.84054 0.08685
 H2754 H 0.33636 0.85277 0.05606
 H2755 H 0.32112 0.83784 0.02968
 H2756 H 0.30168 0.81057 0.03394
 C2757 C 0.79321 0.29216 0.06705
 C2758 C 0.80447 0.30807 0.06469
 C2759 C 0.81308 0.31644 0.08011
 C2760 C 0.81036 0.30884 0.09780
 C2761 C 0.79915 0.29288 0.10014
 C2762 C 0.79055 0.28451 0.08473
 C2763 C 0.77942 0.26854 0.08742
 C2764 C 0.77687 0.26105 0.10483
 C2765 C 0.78523 0.26926 0.11991
 C2766 C 0.79626 0.28499 0.11767
 C2767 C 0.82426 0.33236 0.07741
 C2768 C 0.82688 0.33978 0.05998
 C2769 C 0.81848 0.33159 0.04490
 C2770 C 0.80739 0.31592 0.04715
 C2771 C 0.81902 0.31744 0.11359
 C2772 C 0.82607 0.32450 0.12682
 C2773 C 0.78425 0.28368 0.05138
 C2774 C 0.77657 0.27637 0.03865
 H2775 H 0.77261 0.26165 0.07613
 H2776 H 0.76837 0.24880 0.10663
 H2777 H 0.78319 0.26340 0.13341
 H2778 H 0.80248 0.29086 0.12982
 H2779 H 0.83108 0.33921 0.08872
 H2780 H 0.83548 0.35195 0.05815
 H2781 H 0.82057 0.33741 0.03139
 H2782 H 0.80114 0.31003 0.03501
 C2783 C 0.79343 0.79316 0.56740
 C2784 C 0.80449 0.80921 0.56495
 C2785 C 0.81320 0.81762 0.58028
 C2786 C 0.81081 0.80992 0.59797
 C2787 C 0.79978 0.79384 0.60042
 C2788 C 0.79106 0.78544 0.58509
 C2789 C 0.78009 0.76938 0.58788
 C2790 C 0.77783 0.76182 0.60530
 C2791 C 0.78634 0.77005 0.62029
 C2792 C 0.79720 0.78587 0.61796
 C2793 C 0.82417 0.83366 0.57750
 C2794 C 0.82648 0.84119 0.56006
 C2795 C 0.81796 0.83296 0.54507
 C2796 C 0.80708 0.81715 0.54741
 C2797 C 0.81959 0.81856 0.61367
 C2798 C 0.82675 0.82564 0.62683
 C2799 C 0.78441 0.78459 0.55181
 C2800 C 0.77671 0.77721 0.53913
 H2801 H 0.77318 0.76247 0.57666
 H2802 H 0.76945 0.74950 0.60718
 H2803 H 0.78453 0.76413 0.63380
 H2804 H 0.80354 0.79176 0.63004
 H2805 H 0.83108 0.84055 0.58873
 H2806 H 0.83491 0.85347 0.55817
 H2807 H 0.81979 0.83886 0.53156
 H2808 H 0.80073 0.81125 0.53533
 C2809 C 0.29410 0.70594 0.43366
 C2810 C 0.30533 0.69011 0.43635
 C2811 C 0.31402 0.68146 0.42111
 C2812 C 0.31143 0.68871 0.40328
 C2813 C 0.30020 0.70455 0.40060
 C2814 C 0.29151 0.71319 0.41583
 C2815 C 0.28033 0.72901 0.41280
 C2816 C 0.27784 0.73609 0.39523
 C2817 C 0.28634 0.72765 0.38034
 C2818 C 0.29740 0.71206 0.38291
 C2819 C 0.32517 0.66564 0.42414
 C2820 C 0.32765 0.65856 0.44171
 C2821 C 0.31915 0.66701 0.45661
 C2822 C 0.30810 0.68260 0.45404
 C2823 C 0.32021 0.67986 0.38768
 C2824 C 0.32737 0.67264 0.37458
 C2825 C 0.28512 0.71477 0.44917
 C2826 C 0.27743 0.72235 0.46175
 H2827 H 0.27341 0.73607 0.42394
 H2828 H 0.26928 0.74822 0.39317
 H2829 H 0.28436 0.73321 0.36672
 H2830 H 0.30372 0.70599 0.37089
 H2831 H 0.33207 0.65859 0.41298
 H2832 H 0.33622 0.64644 0.44378
 H2833 H 0.32113 0.66145 0.47023
 H2834 H 0.30177 0.68869 0.46605
 C2835 C 0.29360 0.20566 0.93402
 C2836 C 0.29118 0.21257 0.91604
 C2837 C 0.30016 0.20376 0.90107
 C2838 C 0.31150 0.18808 0.90417
 C2839 C 0.31395 0.18119 0.92216
 C2840 C 0.30498 0.19001 0.93713
 C2841 C 0.30763 0.18287 0.95498
 C2842 C 0.31883 0.16746 0.95796
 C2843 C 0.32761 0.15884 0.94332
 C2844 C 0.32525 0.16557 0.92560
 C2845 C 0.29753 0.21093 0.88322
 C2846 C 0.28637 0.22637 0.88025
 C2847 C 0.27760 0.23500 0.89488
 C2848 C 0.27991 0.22823 0.91259
 C2849 C 0.32055 0.17902 0.88884
 C2850 C 0.32793 0.17162 0.87596
 C2851 C 0.28431 0.21463 0.94925
 C2852 C 0.27639 0.22231 0.96164
 H2853 H 0.30108 0.18911 0.96681
 H2854 H 0.32071 0.16218 0.97171
 H2855 H 0.33630 0.14688 0.94571
 H2856 H 0.33236 0.15839 0.91465
 H2857 H 0.30406 0.20470 0.87139
 H2858 H 0.28454 0.23168 0.86651
 H2859 H 0.26898 0.24701 0.89250
 H2860 H 0.27278 0.23542 0.92352
 C2861 C 0.79457 0.70586 0.93396
 C2862 C 0.81120 0.71340 0.92701
 C2863 C 0.82015 0.70476 0.91192
 C2864 C 0.81241 0.68863 0.90388
 C2865 C 0.79595 0.68090 0.91101
 C2866 C 0.78700 0.68955 0.92610
 C2867 C 0.77051 0.68162 0.93294
 C2868 C 0.76308 0.66561 0.92511
 C2869 C 0.77183 0.65716 0.91036
 C2870 C 0.78808 0.66466 0.90333
 C2871 C 0.83670 0.71261 0.90516
 C2872 C 0.84420 0.72855 0.91307
 C2873 C 0.83545 0.73700 0.92782
 C2874 C 0.81914 0.72957 0.93477
 C2875 C 0.82114 0.68022 0.88801
 C2876 C 0.82817 0.67334 0.87468
 C2877 C 0.78502 0.71512 0.94887
 C2878 C 0.77692 0.72295 0.96105
 H2879 H 0.76320 0.68768 0.94439
 H2880 H 0.75047 0.65973 0.93052
 H2881 H 0.76601 0.64472 0.90433
 H2882 H 0.79438 0.65758 0.89185
 H2883 H 0.84402 0.70652 0.89372
 H2884 H 0.85687 0.73437 0.90772
 H2885 H 0.84133 0.74938 0.93392
 H2886 H 0.81286 0.73663 0.94628
 C2887 C 0.79338 0.20574 0.43376
 C2888 C 0.80483 0.19010 0.43657
 C2889 C 0.81355 0.18139 0.42139
 C2890 C 0.81076 0.18838 0.40349
 C2891 C 0.79935 0.20406 0.40069
 C2892 C 0.79063 0.21277 0.41587
 C2893 C 0.77930 0.22845 0.41273
 C2894 C 0.77667 0.23534 0.39510
 C2895 C 0.78517 0.22680 0.38026
 C2896 C 0.79638 0.21134 0.38293
 C2897 C 0.82493 0.16576 0.42453
 C2898 C 0.82763 0.15894 0.44218
 C2899 C 0.81911 0.16747 0.45702
 C2900 C 0.80782 0.18287 0.45433
 C2901 C 0.81958 0.17946 0.38794
 C2902 C 0.82677 0.17221 0.37487
 C2903 C 0.78436 0.21461 0.44921
 C2904 C 0.77666 0.22223 0.46177
 H2905 H 0.77237 0.23557 0.42382
 H2906 H 0.76802 0.24738 0.39296
 H2907 H 0.78307 0.23220 0.36659
 H2908 H 0.80270 0.20520 0.37095
 H2909 H 0.83185 0.15866 0.41342
 H2910 H 0.83638 0.14698 0.44434
 H2911 H 0.82125 0.16212 0.47070
 H2912 H 0.80149 0.18903 0.46630
 C2913 C 0.70716 0.29038 0.43336
 C2914 C 0.69580 0.30614 0.43596
 C2915 C 0.68729 0.31474 0.42065
 C2916 C 0.69019 0.30752 0.40284
 C2917 C 0.70148 0.29170 0.40025
 C2918 C 0.70998 0.28309 0.41556
 C2919 C 0.72121 0.26728 0.41263
 C2920 C 0.72394 0.26017 0.39509
 C2921 C 0.71565 0.26860 0.38012
 C2922 C 0.70454 0.28418 0.38259
 C2923 C 0.67601 0.33050 0.42358
 C2924 C 0.67322 0.33756 0.44114
 C2925 C 0.68154 0.32914 0.45611
 C2926 C 0.69271 0.31361 0.45363
 C2927 C 0.68164 0.31639 0.38716
 C2928 C 0.67463 0.32369 0.37407
 C2929 C 0.71608 0.28170 0.44892
 C2930 C 0.72374 0.27427 0.46157
 H2931 H 0.72797 0.26023 0.42383
 H2932 H 0.73251 0.24803 0.39311
 H2933 H 0.71782 0.26302 0.36652
 H2934 H 0.69838 0.29024 0.37051
 H2935 H 0.66925 0.33752 0.41237
 H2936 H 0.66455 0.34963 0.44313
 H2937 H 0.67932 0.33468 0.46972
 H2938 H 0.69887 0.30753 0.46570
 C2939 C 0.70533 0.79216 0.93374
 C2940 C 0.69166 0.80568 0.93741
 C2941 C 0.68255 0.81471 0.92269
 C2942 C 0.68717 0.81018 0.90438
 C2943 C 0.70078 0.79659 0.90071
 C2944 C 0.70989 0.78756 0.91543
 C2945 C 0.72346 0.77405 0.91140
 C2946 C 0.72790 0.76957 0.89336
 C2947 C 0.71899 0.77840 0.87898
 C2948 C 0.70559 0.79177 0.88253
 C2949 C 0.66895 0.82818 0.92670
 C2950 C 0.66446 0.83260 0.94474
 C2951 C 0.67336 0.82377 0.95914
 C2952 C 0.68682 0.81046 0.95559
 C2953 C 0.67807 0.81955 0.88930
 C2954 C 0.67074 0.82723 0.87660
 C2955 C 0.71479 0.78302 0.94874
 C2956 C 0.72283 0.77527 0.96097
 H2957 H 0.73077 0.76679 0.92212
 H2958 H 0.73831 0.75920 0.89054
 H2959 H 0.72249 0.77488 0.86499
 H2960 H 0.69905 0.79824 0.87087
 H2961 H 0.66164 0.83542 0.91597
 H2962 H 0.65401 0.84294 0.94757
 H2963 H 0.66982 0.82725 0.97313
 H2964 H 0.69336 0.80396 0.96724
 C2965 C 0.20615 0.29038 0.93292
 C2966 C 0.19428 0.30571 0.93576
 C2967 C 0.18560 0.31436 0.92057
 C2968 C 0.18884 0.30763 0.90263
 C2969 C 0.20070 0.29228 0.89979
 C2970 C 0.20938 0.28363 0.91498
 C2971 C 0.22118 0.26830 0.91179
 C2972 C 0.22429 0.26170 0.89412
 C2973 C 0.21581 0.27016 0.87927
 C2974 C 0.20414 0.28528 0.88199
 C2975 C 0.17380 0.32967 0.92375
 C2976 C 0.17067 0.33625 0.94144
 C2977 C 0.17916 0.32779 0.95628
 C2978 C 0.19084 0.31269 0.95356
 C2979 C 0.18008 0.31653 0.88709
 C2980 C 0.17291 0.32386 0.87409
 C2981 C 0.21515 0.28159 0.94838
 C2982 C 0.22285 0.27411 0.96098
 H2983 H 0.22811 0.26125 0.92289
 H2984 H 0.23331 0.24993 0.89194
 H2985 H 0.21827 0.26499 0.86557
 H2986 H 0.19786 0.29140 0.87000
 H2987 H 0.16687 0.33671 0.91264
 H2988 H 0.16160 0.34798 0.94362
 H2989 H 0.17669 0.33296 0.96999
 H2990 H 0.19713 0.30656 0.96554
 C2991 C 0.20797 0.79095 0.43352
 C2992 C 0.21073 0.78385 0.41564
 C2993 C 0.20206 0.79252 0.40046
 C2994 C 0.19068 0.80824 0.40325
 C2995 C 0.18791 0.81533 0.42113
 C2996 C 0.19658 0.80666 0.43632
 C2997 C 0.19361 0.81399 0.45406
 C2998 C 0.18240 0.82947 0.45674
 C2999 C 0.17392 0.83795 0.44189
 C3000 C 0.17660 0.83103 0.42426
 C3001 C 0.20503 0.78516 0.38272
 C3002 C 0.21623 0.76967 0.38005
 C3003 C 0.22469 0.76119 0.39489
 C3004 C 0.22204 0.76814 0.41251
 C3005 C 0.18189 0.81713 0.38771
 C3006 C 0.17469 0.82445 0.37473
 C3007 C 0.21694 0.78212 0.44898
 C3008 C 0.22459 0.77456 0.46156
 H3009 H 0.19990 0.80787 0.46603
 H3010 H 0.18028 0.83490 0.47040
 H3011 H 0.16523 0.84997 0.44404
 H3012 H 0.16972 0.83811 0.41315
 H3013 H 0.19875 0.79128 0.37074
 H3014 H 0.21833 0.76422 0.36639
 H3015 H 0.23335 0.74914 0.39275
 H3016 H 0.22894 0.76105 0.42360
 C3017 C 0.70744 0.70825 0.56686
 C3018 C 0.71041 0.71523 0.58475
 C3019 C 0.70170 0.70659 0.59998
 C3020 C 0.69007 0.69100 0.59724
 C3021 C 0.68713 0.68400 0.57936
 C3022 C 0.69584 0.69265 0.56412
 C3023 C 0.69270 0.68540 0.54638
 C3024 C 0.68128 0.67003 0.54376
 C3025 C 0.67276 0.66158 0.55866
 C3026 C 0.67560 0.66842 0.57628
 C3027 C 0.70488 0.71383 0.61773
 C3028 C 0.71631 0.72918 0.62035
 C3029 C 0.72482 0.73764 0.60546
 C3030 C 0.72197 0.73080 0.58784
 C3031 C 0.68117 0.68221 0.61282
 C3032 C 0.67388 0.67501 0.62588
 C3033 C 0.71636 0.71714 0.55135
 C3034 C 0.72398 0.72480 0.53876
 H3035 H 0.69902 0.69151 0.53438
 H3036 H 0.67903 0.66466 0.53010
 H3037 H 0.66390 0.64964 0.55655
 H3038 H 0.66868 0.66137 0.58743
 H3039 H 0.69857 0.70773 0.62974
 H3040 H 0.71858 0.73454 0.63401
 H3041 H 0.73366 0.74959 0.60757
 H3042 H 0.72892 0.73786 0.57671
 C3043 C 0.70650 0.20820 0.06622
 C3044 C 0.70956 0.21505 0.08414
 C3045 C 0.70089 0.20633 0.09934
 C3046 C 0.68918 0.19081 0.09653
 C3047 C 0.68608 0.18400 0.07861
 C3048 C 0.69476 0.19272 0.06340
 C3049 C 0.69147 0.18566 0.04561
 C3050 C 0.67992 0.17041 0.04292
 C3051 C 0.67143 0.16187 0.05779
 C3052 C 0.67442 0.16853 0.07546
 C3053 C 0.70418 0.21340 0.11713
 C3054 C 0.71569 0.22869 0.11982
 C3055 C 0.72414 0.23725 0.10495
 C3056 C 0.72119 0.23056 0.08729
 C3057 C 0.68039 0.18188 0.11209
 C3058 C 0.67319 0.17456 0.12513
 C3059 C 0.71552 0.21706 0.05075
 C3060 C 0.72326 0.22465 0.03818
 H3061 H 0.69776 0.19184 0.03362
 H3062 H 0.67755 0.16518 0.02923
 H3063 H 0.66247 0.15003 0.05563
 H3064 H 0.66751 0.16143 0.08659
 H3065 H 0.69791 0.20723 0.12913
 H3066 H 0.71804 0.23393 0.13351
 H3067 H 0.73302 0.24916 0.10711
 H3068 H 0.72810 0.23768 0.07618
 C3069 C 0.20713 0.70845 0.06632
 C3070 C 0.19539 0.69297 0.06348
 C3071 C 0.18654 0.68435 0.07865
 C3072 C 0.18947 0.69126 0.09657
 C3073 C 0.20121 0.70675 0.09941
 C3074 C 0.21006 0.71536 0.08424
 C3075 C 0.22174 0.73082 0.08743
 C3076 C 0.22455 0.73759 0.10508
 C3077 C 0.21591 0.72916 0.11991
 C3078 C 0.20436 0.71391 0.11719
 C3079 C 0.17488 0.66889 0.07547
 C3080 C 0.17206 0.66213 0.05781
 C3081 C 0.18072 0.67056 0.04298
 C3082 C 0.19226 0.68581 0.04570
 C3083 C 0.18050 0.68244 0.11210
 C3084 C 0.17319 0.67520 0.12511
 C3085 C 0.21625 0.71726 0.05088
 C3086 C 0.22403 0.72481 0.03833
 H3087 H 0.22880 0.73785 0.07635
 H3088 H 0.23348 0.74946 0.10726
 H3089 H 0.21814 0.73446 0.13360
 H3090 H 0.19794 0.70783 0.12916
 H3091 H 0.16784 0.66187 0.08657
 H3092 H 0.16310 0.65029 0.05562
 H3093 H 0.17848 0.66526 0.02929
 H3094 H 0.19869 0.69190 0.03374
 C3095 C 0.20715 0.20869 0.56733
 C3096 C 0.19536 0.19324 0.56462
 C3097 C 0.18673 0.18457 0.57989
 C3098 C 0.18996 0.19141 0.59778
 C3099 C 0.20173 0.20689 0.60049
 C3100 C 0.21035 0.21555 0.58523
 C3101 C 0.22207 0.23101 0.58829
 C3102 C 0.22514 0.23773 0.60591
 C3103 C 0.21671 0.22925 0.62084
 C3104 C 0.20514 0.21400 0.61825
 C3105 C 0.17500 0.16914 0.57683
 C3106 C 0.17189 0.16246 0.55919
 C3107 C 0.18033 0.17093 0.54426
 C3108 C 0.19194 0.18615 0.54686
 C3109 C 0.18124 0.18250 0.61340
 C3110 C 0.17410 0.17516 0.62645
 C3111 C 0.21606 0.21751 0.55179
 C3112 C 0.22367 0.22506 0.53913
 H3113 H 0.22896 0.23807 0.57712
 H3114 H 0.23409 0.24960 0.60799
 H3115 H 0.21915 0.23453 0.63451
 H3116 H 0.19889 0.20789 0.63029
 H3117 H 0.16812 0.16209 0.58801
 H3118 H 0.16288 0.15064 0.55710
 H3119 H 0.17788 0.16568 0.53059
 H3120 H 0.19819 0.19228 0.53483
   
