data_POSCAR
  _audit_creation_date              2014-09-24
  _audit_creation_method            'ToBaCCo'
  _symmetry_space_group_name_H-M    'P1'
  _symmetry_Int_Tables_number       1
  _symmetry_cell_setting            triclinic
  loop_
  _symmetry_equiv_pos_as_xyz
 x,y,z
_cell_length_a 60.7526
_cell_length_b 59.7870
_cell_length_c 62.4279
_cell_angle_alpha 89.013300
_cell_angle_beta 91.174500
_cell_angle_gamma 88.885600
loop_
  _atom_site_label
  _atom_site_type_symbol
  _atom_site_fract_x
  _atom_site_fract_y
  _atom_site_fract_z
C1 C 0.37845 -0.02106 0.24788
 C2 C 0.39064 -0.00218 0.24207
 C3 C 0.40011 -0.00079 0.22177
 C4 C 0.39712 -0.01801 0.20708
 C5 C 0.38433 -0.03631 0.21275
 C6 C 0.37503 -0.03830 0.23311
 C7 C 0.39298 0.01649 0.25700
 C8 C 0.40761 0.01441 0.27464
 C9 C 0.40997 0.03196 0.28919
 C10 C 0.39658 0.05138 0.28601
 C11 C 0.38178 0.05363 0.26850
 C12 C 0.38028 0.03619 0.25380
 H13 H 0.37120 -0.02164 0.26355
 H14 H 0.40934 0.01385 0.21738
 H15 H 0.41729 -0.00092 0.27686
 H16 H 0.36865 0.03740 0.24044
 H17 H 0.38185 -0.04936 0.20111
 H18 H 0.39685 0.06479 0.29736
 C19 C 0.12368 -0.02517 0.75728
 C20 C 0.11256 -0.00525 0.76256
 C21 C 0.10350 -0.00295 0.78291
 C22 C 0.10558 -0.02048 0.79813
 C23 C 0.11737 -0.03996 0.79292
 C24 C 0.12640 -0.04253 0.77260
 C25 C 0.11151 0.01369 0.74718
 C26 C 0.09844 0.01245 0.72848
 C27 C 0.09804 0.03010 0.71321
 C28 C 0.11129 0.04873 0.71704
 C29 C 0.12444 0.05017 0.73568
 C30 C 0.12430 0.03259 0.75087
 H31 H 0.13114 -0.02653 0.74174
 H32 H 0.09538 0.01267 0.78685
 H33 H 0.08902 -0.00248 0.72610
 H34 H 0.13477 0.03296 0.76510
 H35 H 0.11959 -0.05327 0.80483
 H36 H 0.11155 0.06230 0.70528
 C37 C 0.62076 0.47503 0.25068
 C38 C 0.60837 0.49467 0.25429
 C39 C 0.59381 0.49551 0.27146
 C40 C 0.59158 0.47693 0.28526
 C41 C 0.60391 0.45730 0.28123
 C42 C 0.61862 0.45627 0.26425
 C43 C 0.61043 0.51430 0.23994
 C44 C 0.59642 0.51670 0.22184
 C45 C 0.59868 0.53483 0.20746
 C46 C 0.61529 0.55031 0.21142
 C47 C 0.62922 0.54832 0.22958
 C48 C 0.62666 0.53024 0.24394
 H49 H 0.63225 0.47462 0.23765
 H50 H 0.58436 0.51073 0.27415
 H51 H 0.58425 0.50408 0.21895
 H52 H 0.63763 0.52810 0.25775
 H53 H 0.60209 0.44239 0.29098
 H54 H 0.61743 0.56414 0.20023
 C55 C 0.87699 0.48406 0.74484
 C56 C 0.88938 0.50325 0.74068
 C57 C 0.90070 0.50532 0.72138
 C58 C 0.89959 0.48847 0.70609
 C59 C 0.88736 0.46929 0.71056
 C60 C 0.87581 0.46700 0.72966
 C61 C 0.88982 0.52157 0.75616
 C62 C 0.90294 0.51947 0.77491
 C63 C 0.90282 0.53654 0.79022
 C64 C 0.88900 0.55541 0.78642
 C65 C 0.87599 0.55781 0.76769
 C66 C 0.87662 0.54087 0.75242
 H67 H 0.86783 0.48294 0.75950
 H68 H 0.91004 0.52023 0.71816
 H69 H 0.91282 0.50437 0.77734
 H70 H 0.86625 0.54214 0.73811
 H71 H 0.88686 0.45582 0.69919
 H72 H 0.88831 0.56854 0.79820
 C73 C 0.25573 0.36663 1.03414
 C74 C 0.25921 0.37611 1.01375
 C75 C 0.27698 0.39041 1.01067
 C76 C 0.29103 0.39582 1.02796
 C77 C 0.28683 0.38689 1.04835
 C78 C 0.26970 0.37178 1.05166
 C79 C 0.24441 0.37095 0.99543
 C80 C 0.22249 0.37900 0.99469
 C81 C 0.20869 0.37487 0.97680
 C82 C 0.21679 0.36152 0.96031
 C83 C 0.23862 0.35325 0.96095
 C84 C 0.25246 0.35850 0.97833
 H85 H 0.24194 0.35566 1.03615
 H86 H 0.27933 0.39760 0.99489
 H87 H 0.21650 0.38859 1.00798
 H88 H 0.26943 0.35253 0.97877
 H89 H 0.29762 0.39112 1.06167
 H90 H 0.20628 0.35838 0.94650
 C91 C 0.73820 0.13791 1.02677
 C92 C 0.73985 0.12629 1.00752
 C93 C 0.72388 0.11062 1.00197
 C94 C 0.70672 0.10583 1.01595
 C95 C 0.70533 0.11753 1.03524
 C96 C 0.72070 0.13387 1.04070
 C97 C 0.75820 0.13086 0.99305
 C98 C 0.77976 0.12403 0.99876
 C99 C 0.79732 0.12830 0.98504
 C100 C 0.79315 0.14076 0.96592
 C101 C 0.77154 0.14797 0.96026
 C102 C 0.75416 0.14243 0.97368
 H103 H 0.75081 0.14977 1.03073
 H104 H 0.72504 0.10192 0.98693
 H105 H 0.78273 0.11486 1.01371
 H106 H 0.73745 0.14771 0.96936
 H107 H 0.69164 0.11471 1.04571
 H108 H 0.80648 0.14469 0.95539
 C109 C 0.23849 0.63141 0.53693
 C110 C 0.23445 0.62420 0.51602
 C111 C 0.21357 0.61623 0.51042
 C112 C 0.19673 0.61521 0.52553
 C113 C 0.20075 0.62360 0.54623
 C114 C 0.22162 0.63180 0.55193
 C115 C 0.25170 0.62629 0.49970
 C116 C 0.27265 0.61633 0.50302
 C117 C 0.28907 0.61860 0.48759
 C118 C 0.28467 0.63222 0.46927
 C119 C 0.26383 0.64257 0.46599
 C120 C 0.24734 0.63899 0.48097
 H121 H 0.25454 0.63779 0.54123
 H122 H 0.21056 0.61045 0.49427
 H123 H 0.27597 0.60634 0.51742
 H124 H 0.23123 0.64684 0.47846
 H125 H 0.18789 0.62377 0.55795
 H126 H 0.29726 0.63473 0.45753
 C127 C 0.75239 0.87238 0.52467
 C128 C 0.75891 0.87978 0.50437
 C129 C 0.77997 0.88878 0.50195
 C130 C 0.79457 0.89058 0.51975
 C131 C 0.78778 0.88248 0.53981
 C132 C 0.76696 0.87307 0.54232
 C133 C 0.74416 0.87694 0.48543
 C134 C 0.72258 0.88593 0.48497
 C135 C 0.70849 0.88287 0.46704
 C136 C 0.71593 0.86960 0.45020
 C137 C 0.73735 0.86028 0.45062
 C138 C 0.75153 0.86454 0.46800
 H139 H 0.73632 0.86510 0.52651
 H140 H 0.78444 0.89437 0.48612
 H141 H 0.71703 0.89522 0.49862
 H142 H 0.76810 0.85748 0.46835
 H143 H 0.79871 0.88367 0.55367
 H144 H 0.70518 0.86710 0.43642
 C145 C -0.03468 0.23563 0.35300
 C146 C -0.01431 0.23208 0.36347
 C147 C -0.01005 0.21248 0.37548
 C148 C -0.02645 0.19641 0.37770
 C149 C -0.04694 0.20026 0.36740
 C150 C -0.05120 0.21955 0.35470
 C151 C 0.00214 0.24963 0.36337
 C152 C 0.00033 0.26723 0.37774
 C153 C 0.01653 0.28349 0.37872
 C154 C 0.03481 0.28179 0.36541
 C155 C 0.03706 0.26373 0.35141
 C156 C 0.02043 0.24790 0.35021
 H157 H -0.03744 0.25117 0.34418
 H158 H 0.00567 0.21068 0.38382
 H159 H -0.01365 0.26815 0.38824
 H160 H 0.02199 0.23385 0.33955
 H161 H -0.05969 0.18792 0.36911
 H162 H 0.04742 0.29427 0.36628
 C163 C -0.02123 0.74656 0.13111
 C164 C -0.00111 0.74959 0.12095
 C165 C 0.00152 0.76785 0.10696
 C166 C -0.01582 0.78317 0.10320
 C167 C -0.03597 0.77998 0.11324
 C168 C -0.03886 0.76191 0.12749
 C169 C 0.01704 0.73325 0.12451
 C170 C 0.01392 0.71081 0.11945
 C171 C 0.03152 0.69517 0.12124
 C172 C 0.05209 0.70244 0.12872
 C173 C 0.05508 0.72467 0.13468
 C174 C 0.03757 0.74016 0.13218
 H175 H -0.02274 0.73214 0.14160
 H176 H 0.01707 0.77013 0.09906
 H177 H -0.00198 0.70625 0.11299
 H178 H 0.03984 0.75760 0.13591
 H179 H -0.04947 0.79174 0.10995
 H180 H 0.06586 0.69065 0.13022
 C181 C 0.47385 0.23694 0.63021
 C182 C 0.49483 0.23987 0.62180
 C183 C 0.49845 0.25775 0.60757
 C184 C 0.48136 0.27293 0.60221
 C185 C 0.46048 0.27003 0.61084
 C186 C 0.45665 0.25223 0.62502
 C187 C 0.51302 0.22438 0.62813
 C188 C 0.51044 0.20127 0.62624
 C189 C 0.52804 0.18640 0.63129
 C190 C 0.54814 0.19494 0.63841
 C191 C 0.55070 0.21797 0.64085
 C192 C 0.53312 0.23269 0.63556
 H193 H 0.47118 0.22282 0.64085
 H194 H 0.51462 0.26001 0.60091
 H195 H 0.49508 0.19523 0.61971
 H196 H 0.53511 0.25059 0.63681
 H197 H 0.44722 0.28179 0.60664
 H198 H 0.56193 0.18359 0.64196
 C199 C 0.47161 0.72861 0.85512
 C200 C 0.49402 0.72527 0.85992
 C201 C 0.50361 0.70392 0.85786
 C202 C 0.49088 0.68566 0.85173
 C203 C 0.46838 0.68945 0.84659
 C204 C 0.45878 0.71082 0.84817
 C205 C 0.50747 0.74416 0.86698
 C206 C 0.49959 0.75918 0.88223
 C207 C 0.51192 0.77779 0.88775
 C208 C 0.53247 0.78108 0.87853
 C209 C 0.54053 0.76617 0.86347
 C210 C 0.52803 0.74761 0.85786
 H211 H 0.46424 0.74507 0.85693
 H212 H 0.52088 0.70137 0.86216
 H213 H 0.48374 0.75666 0.88946
 H214 H 0.53414 0.73579 0.84636
 H215 H 0.45792 0.67610 0.84145
 H216 H 0.54212 0.79541 0.88297
 C217 C -0.28052 0.62573 1.00400
 C218 C -0.25959 0.63481 1.00761
 C219 C -0.25422 0.64396 1.02758
 C220 C -0.26966 0.64406 1.04400
 C221 C -0.29029 0.63455 1.04032
 C222 C -0.29607 0.62525 1.02048
 C223 C -0.24295 0.63378 0.99072
 C224 C -0.24630 0.64601 0.97145
 C225 C -0.23096 0.64436 0.95488
 C226 C -0.21258 0.62989 0.95794
 C227 C -0.20893 0.61767 0.97710
 C228 C -0.22416 0.61986 0.99360
 H229 H -0.28407 0.61859 0.98855
 H230 H -0.23794 0.65052 1.03033
 H231 H -0.26097 0.65644 0.96964
 H232 H -0.22206 0.61017 1.00833
 H233 H -0.30198 0.63434 1.05324
 H234 H -0.20078 0.62814 0.94523
 C235 C -0.28204 0.36428 0.49088
 C236 C -0.26126 0.35482 0.48624
 C237 C -0.25782 0.34509 0.46620
 C238 C -0.27497 0.34478 0.45080
 C239 C -0.29541 0.35459 0.45554
 C240 C -0.29930 0.36451 0.47542
 C241 C -0.24286 0.35609 0.50209
 C242 C -0.24531 0.34757 0.52304
 C243 C -0.22853 0.35007 0.53861
 C244 C -0.20953 0.36161 0.53302
 C245 C -0.20673 0.37022 0.51221
 C246 C -0.22340 0.36710 0.49665
 H247 H -0.28419 0.37196 0.50627
 H248 H -0.24173 0.33823 0.46259
 H249 H -0.26050 0.33954 0.52715
 H250 H -0.22192 0.37425 0.48071
 H251 H -0.30844 0.35463 0.44339
 H252 H -0.19680 0.36415 0.54513
 C253 C 0.22240 -0.13056 0.00261
 C254 C 0.24277 -0.14089 -0.00158
 C255 C 0.24564 -0.15249 -0.02071
 C256 C 0.22822 -0.15425 -0.03577
 C257 C 0.20796 -0.14334 -0.03138
 C258 C 0.20490 -0.13146 -0.01238
 C259 C 0.26113 -0.13946 0.01416
 C260 C 0.25952 -0.15000 0.03433
 C261 C 0.27635 -0.14793 0.05001
 C262 C 0.29454 -0.13467 0.04507
 C263 C 0.29643 -0.12408 0.02494
 C264 C 0.27969 -0.12678 0.00939
 H265 H 0.22067 -0.12128 0.01722
 H266 H 0.26148 -0.16042 -0.02365
 H267 H 0.24491 -0.15942 0.03751
 H268 H 0.28044 -0.11827 -0.00602
 H269 H 0.19433 -0.14343 -0.04270
 H270 H 0.30747 -0.13248 0.05706
 C271 C 0.22261 1.12137 0.51084
 C272 C 0.24045 1.13573 0.51353
 C273 C 0.24241 1.14849 0.53213
 C274 C 0.22665 1.14686 0.54826
 C275 C 0.20896 1.13235 0.54533
 C276 C 0.20668 1.11961 0.52677
 C277 C 0.25779 1.13642 0.49738
 C278 C 0.25661 1.15233 0.48056
 C279 C 0.27302 1.15302 0.46497
 C280 C 0.29033 1.13688 0.46639
 C281 C 0.29173 1.12096 0.48318
 C282 C 0.27537 1.12087 0.49872
 H283 H 0.22167 1.11120 0.49669
 H284 H 0.25647 1.15915 0.53397
 H285 H 0.24290 1.16422 0.47976
 H286 H 0.27582 1.10841 0.51153
 H287 H 0.19683 1.13081 0.55775
 H288 H 0.30269 1.13593 0.45424
 C289 C 0.10445 0.51879 0.21822
 C290 C 0.11588 0.52421 0.23713
 C291 C 0.12679 0.54471 0.23837
 C292 C 0.12690 0.55946 0.22048
 C293 C 0.11590 0.55338 0.20154
 C294 C 0.10434 0.53339 0.20040
 C295 C 0.11729 0.50771 0.25504
 C296 C 0.12776 0.48688 0.25212
 C297 C 0.12867 0.47059 0.26861
 C298 C 0.11786 0.47501 0.28788
 C299 C 0.10705 0.49575 0.29089
 C300 C 0.10742 0.51225 0.27463
 H301 H 0.09624 0.50290 0.21721
 H302 H 0.13588 0.54848 0.25291
 H303 H 0.13549 0.48352 0.23698
 H304 H 0.09917 0.52826 0.27684
 H305 H 0.11614 0.56441 0.18757
 H306 H 0.11773 0.46248 0.30056
 C307 C -0.10946 0.99770 0.22416
 C308 C -0.11890 0.99136 0.24356
 C309 C -0.12720 0.96970 0.24601
 C310 C -0.12620 0.95420 0.22915
 C311 C -0.11577 0.96075 0.21011
 C312 C -0.10696 0.98232 0.20756
 C313 C -0.11789 1.00663 0.26205
 C314 C -0.12740 1.02831 0.26086
 C315 C -0.12546 1.04303 0.27836
 C316 C -0.11289 1.03577 0.29651
 C317 C -0.10308 1.01431 0.29763
 C318 C -0.10617 0.99969 0.28063
 H319 H -0.10271 1.01430 0.22260
 H320 H -0.13435 0.96546 0.26119
 H321 H -0.13640 1.03312 0.24637
 H322 H -0.09864 0.98310 0.28148
 H323 H -0.11502 0.94901 0.19714
 H324 H -0.11108 1.04673 0.31006
 C325 C 0.39378 0.49378 -0.28318
 C326 C 0.38419 0.48837 -0.26357
 C327 C 0.37652 0.46666 -0.25998
 C328 C 0.37849 0.45024 -0.27578
 C329 C 0.38878 0.45578 -0.29510
 C330 C 0.39682 0.47749 -0.29891
 C331 C 0.38339 0.50509 -0.24633
 C332 C 0.37327 0.52620 -0.24987
 C333 C 0.37277 0.54226 -0.23356
 C334 C 0.38385 0.53709 -0.21389
 C335 C 0.39427 0.51609 -0.21035
 C336 C 0.39342 0.50004 -0.22639
 H337 H 0.39986 0.51054 -0.28571
 H338 H 0.36854 0.46302 -0.24504
 H339 H 0.36532 0.52983 -0.26528
 H340 H 0.40135 0.48381 -0.22364
 H341 H 0.38990 0.44314 -0.30723
 H342 H 0.38430 0.54890 -0.20103
 C343 C 0.59543 0.02423 -0.28092
 C344 C 0.60831 0.02886 -0.26266
 C345 C 0.62032 0.04874 -0.26189
 C346 C 0.62002 0.06365 -0.27967
 C347 C 0.60752 0.05835 -0.29798
 C348 C 0.59487 0.03895 -0.29877
 C349 C 0.61019 0.01183 -0.24520
 C350 C 0.62073 -0.00879 -0.24899
 C351 C 0.62138 -0.02600 -0.23336
 C352 C 0.61038 -0.02258 -0.21398
 C353 C 0.59960 -0.00202 -0.21003
 C354 C 0.60008 0.01530 -0.22551
 H355 H 0.58672 0.00863 -0.28127
 H356 H 0.63050 0.05191 -0.24788
 H357 H 0.62851 -0.01136 -0.26426
 H358 H 0.59175 0.03114 -0.22265
 H359 H 0.60752 0.06967 -0.31176
 H360 H 0.61014 -0.03569 -0.20188
 C361 C 0.01011 0.21375 0.86508
 C362 C 0.00181 0.23460 0.85786
 C363 C -0.01861 0.23615 0.84719
 C364 C -0.03080 0.21687 0.84348
 C365 C -0.02226 0.19601 0.85043
 C366 C -0.00216 0.19441 0.86182
 C367 C 0.01460 0.25486 0.86107
 C368 C 0.03515 0.25672 0.85165
 C369 C 0.04721 0.27633 0.85383
 C370 C 0.03843 0.29412 0.86541
 C371 C 0.01779 0.29234 0.87507
 C372 C 0.00598 0.27261 0.87285
 H373 H 0.02599 0.21275 0.87330
 H374 H -0.02457 0.25235 0.84130
 H375 H 0.04132 0.24309 0.84211
 H376 H -0.00992 0.27103 0.88025
 H377 H -0.03181 0.18112 0.84786
 H378 H 0.04818 0.30892 0.86746
 C379 C 0.49205 0.22046 0.10199
 C380 C 0.49519 0.24199 0.10965
 C381 C 0.51559 0.24764 0.11863
 C382 C 0.53270 0.23166 0.12046
 C383 C 0.52957 0.21013 0.11232
 C384 C 0.50921 0.20451 0.10289
 C385 C 0.47738 0.25884 0.10725
 C386 C 0.45676 0.25504 0.11607
 C387 C 0.43969 0.27109 0.11348
 C388 C 0.44326 0.29068 0.10150
 C389 C 0.46401 0.29460 0.09280
 C390 C 0.48091 0.27857 0.09564
 H391 H 0.47635 0.21641 0.09459
 H392 H 0.51800 0.26439 0.12452
 H393 H 0.45408 0.23960 0.12491
 H394 H 0.49691 0.28143 0.08881
 H395 H 0.54324 0.19830 0.11257
 H396 H 0.42997 0.30288 0.09922
 C397 C -0.00719 0.70166 0.62811
 C398 C -0.00158 0.72274 0.63554
 C399 C 0.01646 0.72499 0.64950
 C400 C 0.02904 0.70607 0.65613
 C401 C 0.02336 0.68497 0.64858
 C402 C 0.00563 0.68269 0.63411
 C403 C -0.01542 0.74229 0.62960
 C404 C -0.03631 0.74441 0.63836
 C405 C -0.05003 0.76297 0.63305
 C406 C -0.04267 0.77887 0.61818
 C407 C -0.02129 0.77732 0.61000
 C408 C -0.00782 0.75878 0.61556
 H409 H -0.02161 0.70028 0.61780
 H410 H 0.02008 0.74138 0.65563
 H411 H -0.04175 0.73119 0.64893
 H412 H 0.00861 0.75730 0.60922
 H413 H 0.03325 0.67039 0.65341
 H414 H -0.05337 0.79291 0.61351
 C415 C 0.51343 0.71771 0.37090
 C416 C 0.50439 0.73738 0.36162
 C417 C 0.48288 0.73768 0.35323
 C418 C 0.47028 0.71831 0.35396
 C419 C 0.47950 0.69859 0.36299
 C420 C 0.50107 0.69822 0.37170
 C421 C 0.51729 0.75783 0.36087
 C422 C 0.53658 0.75845 0.34912
 C423 C 0.54894 0.77802 0.34825
 C424 C 0.54168 0.79699 0.35916
 C425 C 0.52229 0.79643 0.37113
 C426 C 0.51016 0.77677 0.37177
 H427 H 0.52997 0.71771 0.37778
 H428 H 0.47625 0.75294 0.34580
 H429 H 0.54153 0.74379 0.34032
 H430 H 0.49525 0.77604 0.38101
 H431 H 0.46938 0.68393 0.36405
 H432 H 0.55172 0.81173 0.35882
 Zr433 Zr 0.02149 -0.01322 1.03739
 O434 O 0.04291 -0.00316 1.06243
 O435 O 0.01345 -0.04550 1.04746
 O436 O 0.00446 -0.01242 1.06656
 O437 O 0.06213 -0.02808 1.00210
 O438 O -0.02595 0.00963 1.05906
 O439 O 0.05192 -0.03147 1.03694
 O440 O -0.01141 -0.05653 1.02201
 O441 O -0.01208 -0.01441 1.02921
 O442 O 0.01924 -0.02952 1.00810
 O443 O 0.00998 0.02025 1.03634
 O444 O 0.04051 0.00576 1.01611
 Zr445 Zr -0.00785 0.02200 0.97567
 Zr446 Zr -0.02319 0.01892 1.02652
 Zr447 Zr 0.03648 -0.00997 0.98651
 Zr448 Zr -0.01397 -0.02971 0.99956
 O449 O 0.06708 0.00420 0.97896
 O450 O -0.04620 -0.03627 1.01012
 O451 O 0.00342 -0.01161 0.97646
 O452 O -0.02666 0.00308 0.99700
 O453 O -0.00594 0.03873 1.00482
 O454 O 0.02557 0.02314 0.98404
 C455 C -0.00003 -0.05953 1.03950
 C456 C 0.06524 -0.03527 1.02147
 C457 C -0.01388 -0.00293 1.07171
 O458 O -0.05497 0.00619 1.03151
 O459 O -0.04720 0.04013 1.01130
 O460 O -0.03670 0.04213 0.97644
 C461 C -0.04974 0.04708 0.99172
 O462 O 0.04961 0.04116 1.04013
 Zr463 Zr 0.02739 0.03859 1.01358
 O464 O 0.00061 0.05418 0.96564
 O465 O -0.02572 0.04836 1.04469
 O466 O 0.01612 0.06604 1.03171
 O467 O 0.05913 0.04705 1.00290
 O468 O 0.02364 0.06626 0.99217
 C469 C 0.01305 0.06886 0.97420
 O470 O -0.03102 0.01304 0.95165
 O471 O 0.04036 -0.04086 0.97081
 O472 O 0.00685 0.01805 0.94556
 O473 O 0.03670 -0.00464 0.95317
 O474 O -0.00382 -0.05851 0.98271
 O475 O -0.03399 -0.03335 0.97156
 C476 C 0.02407 0.00679 0.94009
 H477 H 0.02538 -0.04498 1.00872
 H478 H -0.04227 0.00280 0.99217
 H479 H 0.03445 0.03122 0.97339
 H480 H 0.01153 0.02716 1.05059
 H481 H -0.04879 -0.05242 1.00814
 H482 H -0.06267 0.01680 1.04097
 H483 H -0.04078 0.04882 1.05047
 H484 H 0.02599 0.07869 1.02883
 H485 H -0.01440 -0.07047 0.98590
 H486 H 0.05526 -0.04102 0.96462
 H487 H 0.07475 -0.00651 0.96957
 H488 H 0.06116 0.06317 1.00565
 H489 H -0.04235 -0.04736 0.97275
 H490 H -0.03248 0.02581 0.94132
 H491 H 0.04460 -0.01605 1.07259
 H492 H 0.05455 0.05679 1.04121
 Zr493 Zr 0.51417 0.47533 0.52364
 O494 O 0.53676 0.48930 0.54567
 O495 O 0.50900 0.44375 0.53746
 O496 O 0.49960 0.47836 0.55390
 O497 O 0.55260 0.45872 0.48679
 O498 O 0.46757 0.49799 0.54689
 O499 O 0.54542 0.45888 0.52251
 O500 O 0.48287 0.42887 0.51539
 O501 O 0.48028 0.47158 0.51855
 O502 O 0.51045 0.45570 0.49647
 O503 O 0.50089 0.50802 0.52012
 O504 O 0.53019 0.49279 0.49896
 Zr505 Zr 0.47787 0.50203 0.46137
 Zr506 Zr 0.46726 0.50395 0.51350
 Zr507 Zr 0.52467 0.47355 0.47164
 Zr508 Zr 0.47679 0.45300 0.49084
 O509 O 0.55346 0.48838 0.45982
 O510 O 0.44614 0.44598 0.50489
 O511 O 0.49112 0.46922 0.46464
 O512 O 0.46211 0.48475 0.48614
 O513 O 0.48136 0.52202 0.48841
 O514 O 0.51170 0.50570 0.46661
 C515 C 0.49583 0.42821 0.53198
 C516 C 0.55770 0.45410 0.50650
 C517 C 0.48125 0.48739 0.55962
 O518 O 0.43670 0.49047 0.52226
 O519 O 0.44133 0.52266 0.49855
 O520 O 0.44815 0.52094 0.46279
 C521 C 0.43660 0.52735 0.47875
 O522 O 0.53916 0.53160 0.51813
 Zr523 Zr 0.51514 0.52456 0.49408
 O524 O 0.48296 0.53346 0.44756
 O525 O 0.46480 0.53503 0.52906
 O526 O 0.50379 0.55350 0.50998
 O527 O 0.54535 0.53308 0.47990
 O528 O 0.50807 0.54932 0.47006
 C529 C 0.49534 0.54953 0.45327
 O530 O 0.45352 0.48891 0.44061
 O531 O 0.52928 0.44115 0.45912
 O532 O 0.49057 0.49585 0.43061
 O533 O 0.52151 0.47466 0.43813
 O534 O 0.48713 0.42307 0.47596
 O535 O 0.45460 0.44530 0.46537
 C536 C 0.50759 0.48431 0.42500
 H537 H 0.51754 0.44071 0.49810
 H538 H 0.44622 0.48322 0.48280
 H539 H 0.51913 0.51298 0.45445
 H540 H 0.50323 0.51657 0.53339
 H541 H 0.44436 0.42954 0.50475
 H542 H 0.42931 0.50169 0.53130
 H543 H 0.45030 0.53545 0.53604
 H544 H 0.51249 0.56626 0.50478
 H545 H 0.47772 0.41090 0.48128
 H546 H 0.54354 0.44109 0.45168
 H547 H 0.56091 0.47699 0.45101
 H548 H 0.54658 0.54957 0.48040
 H549 H 0.44744 0.43093 0.46861
 H550 H 0.45036 0.50039 0.42924
 H551 H 0.54006 0.47770 0.55689
 H552 H 0.54328 0.54751 0.51691
 Zr553 Zr 0.47572 1.00406 0.52926
 O554 O 0.45418 0.98421 0.54742
 O555 O 0.47535 1.03418 0.54585
 O556 O 0.48876 0.99904 0.56072
 O557 O 0.43739 1.02002 0.48996
 O558 O 0.52367 0.98595 0.55523
 O559 O 0.44297 1.01654 0.52614
 O560 O 0.50239 1.05374 0.52948
 O561 O 0.50876 1.01313 0.52790
 O562 O 0.47801 1.02747 0.50416
 O563 O 0.49366 0.97410 0.52476
 O564 O 0.46366 0.98779 0.50179
 Zr565 Zr 0.51856 0.99050 0.46923
 Zr566 Zr 0.52641 0.98376 0.52188
 Zr567 Zr 0.46779 1.01103 0.47667
 Zr568 Zr 0.51103 1.03546 0.50221
 O569 O 0.44227 0.99389 0.46074
 O570 O 0.54044 1.04504 0.51815
 O571 O 0.50062 1.02069 0.47355
 O572 O 0.53022 1.00679 0.49666
 O573 O 0.51652 0.96695 0.49430
 O574 O 0.48545 0.98165 0.47066
 C575 C 0.48823 1.05087 0.54431
 C576 C 0.43096 1.02163 0.50942
 C577 C 0.50815 0.99273 0.56740
 O578 O 0.55394 1.00033 0.53501
 O579 O 0.55572 0.97187 0.50870
 O580 O 0.55062 0.97577 0.47248
 C581 C 0.56221 0.97008 0.48936
 O582 O 0.45909 0.94608 0.51683
 Zr583 Zr 0.48331 0.95912 0.49621
 O584 O 0.51885 0.96042 0.45279
 O585 O 0.53266 0.95139 0.53510
 O586 O 0.49733 0.93010 0.51147
 O587 O 0.45588 0.94815 0.47794
 O588 O 0.49561 0.93846 0.47179
 C589 C 0.50902 0.94199 0.45641
 O590 O 0.54170 1.00933 0.45201
 O591 O 0.45929 1.04402 0.46626
 O592 O 0.50666 0.99882 0.43791
 O593 O 0.47294 1.01493 0.44367
 O594 O 0.49652 1.06589 0.49037
 O595 O 0.53172 1.04983 0.47886
 C596 C 0.48871 1.00891 0.43144
 H597 H 0.46895 1.04115 0.50636
 H598 H 0.54578 1.01102 0.49507
 H599 H 0.47988 0.97491 0.45727
 H600 H 0.49195 0.96366 0.53707
 H601 H 0.53979 1.06152 0.51958
 H602 H 0.56241 0.98921 0.54399
 H603 H 0.54644 0.95226 0.54378
 H604 H 0.49084 0.91694 0.50448
 H605 H 0.50387 1.07820 0.49797
 H606 H 0.44565 1.04308 0.45737
 H607 H 0.43374 1.00525 0.45212
 H608 H 0.45704 0.93162 0.47724
 H609 H 0.53612 1.06491 0.48343
 H610 H 0.54704 0.99977 0.44029
 H611 H 0.44866 0.99369 0.55912
 H612 H 0.45715 0.92999 0.51396
 Zr613 Zr -0.02152 0.50640 1.02884
 O614 O -0.04343 0.48905 1.04881
 O615 O -0.02045 0.53790 1.04302
 O616 O -0.00808 0.50311 1.06034
 O617 O -0.06012 0.52051 0.98917
 O618 O 0.02595 0.48764 1.05521
 O619 O -0.05393 0.51976 1.02535
 O620 O 0.00630 0.55543 1.02427
 O621 O 0.01178 0.51416 1.02626
 O622 O -0.01901 0.52754 1.00199
 O623 O -0.00470 0.47548 1.02617
 O624 O -0.03462 0.48830 1.00292
 Zr625 Zr 0.01969 0.48640 0.96928
 Zr626 Zr 0.02829 0.48368 1.02205
 Zr627 Zr -0.03031 0.50924 0.97606
 Zr628 Zr 0.01420 0.53419 0.99885
 O629 O -0.05688 0.49181 0.96221
 O630 O 0.04404 0.54400 1.01385
 O631 O 0.00275 0.51747 0.97161
 O632 O 0.03234 0.50448 0.99518
 O633 O 0.01738 0.46499 0.99601
 O634 O -0.01367 0.47886 0.97196
 C635 C -0.00754 0.55428 1.03958
 C636 C -0.06611 0.52390 1.00854
 C637 C 0.01096 0.49586 1.06718
 O638 O 0.05622 0.50054 1.03390
 O639 O 0.05718 0.47022 1.00939
 O640 O 0.05148 0.47102 0.97312
 C641 C 0.06330 0.46662 0.99019
 O642 O -0.04008 0.44791 1.02113
 Zr643 Zr -0.01605 0.45853 0.99908
 O644 O 0.01866 0.45503 0.95527
 O645 O 0.03407 0.45204 1.03701
 O646 O -0.00250 0.43029 1.01602
 O647 O -0.04440 0.44736 0.98235
 O648 O -0.00525 0.43553 0.97587
 C649 C 0.00806 0.43738 0.96013
 O650 O 0.04301 0.50287 0.95018
 O651 O -0.03774 0.54154 0.96313
 O652 O 0.00734 0.49250 0.93768
 O653 O -0.02600 0.50969 0.94278
 O654 O 0.00057 0.56391 0.98455
 O655 O 0.03517 0.54569 0.97433
 C656 C -0.01066 0.50218 0.93075
 H657 H -0.02759 0.54169 1.00324
 H658 H 0.04800 0.50806 0.99304
 H659 H -0.01977 0.47124 0.95927
 H660 H -0.00650 0.46606 1.03920
 H661 H 0.04401 0.56058 1.01391
 H662 H 0.06458 0.48985 1.04344
 H663 H 0.04801 0.45310 1.04542
 H664 H -0.00957 0.41684 1.01015
 H665 H 0.00848 0.57664 0.99086
 H666 H -0.05168 0.54041 0.95474
 H667 H -0.06523 0.50271 0.95290
 H668 H -0.04386 0.43077 0.98274
 H669 H 0.04026 0.56089 0.97773
 H670 H 0.04776 0.49214 0.93916
 H671 H -0.04836 0.49969 1.05983
 H672 H -0.04261 0.43172 1.01942
 Zr673 Zr -0.02228 0.47837 0.46140
 O674 O -0.04308 0.49192 0.43664
 O675 O -0.01439 0.44683 0.44957
 O676 O -0.00474 0.48151 0.43263
 O677 O -0.06433 0.46331 0.49482
 O678 O 0.02595 0.50080 0.44213
 O679 O -0.05306 0.46187 0.46024
 O680 O 0.00991 0.43200 0.47461
 O681 O 0.01107 0.47440 0.47021
 O682 O -0.02113 0.45918 0.48971
 O683 O -0.01007 0.51091 0.46460
 O684 O -0.04144 0.49642 0.48324
 Zr685 Zr 0.00613 0.50588 0.52560
 Zr686 Zr 0.02279 0.50668 0.47510
 Zr687 Zr -0.03847 0.47775 0.51197
 Zr688 Zr 0.01186 0.45617 0.49893
 O689 O -0.06896 0.49293 0.51982
 O690 O 0.04441 0.44880 0.48921
 O691 O -0.00574 0.47310 0.52265
 O692 O 0.02512 0.48786 0.50370
 O693 O 0.00532 0.52536 0.49737
 O694 O -0.02700 0.50989 0.51649
 C695 C -0.00103 0.43145 0.45671
 C696 C -0.06716 0.45813 0.47507
 C697 C 0.01379 0.49060 0.42842
 O698 O 0.05434 0.49235 0.47006
 O699 O 0.04677 0.52506 0.49200
 O700 O 0.03550 0.52409 0.52665
 C701 C 0.04894 0.52993 0.51198
 O702 O -0.04953 0.53418 0.46119
 Zr703 Zr -0.02774 0.52807 0.48781
 O704 O -0.00142 0.53786 0.53683
 O705 O 0.02652 0.53767 0.45883
 O706 O -0.01584 0.55635 0.47103
 O707 O -0.05937 0.53760 0.49865
 O708 O -0.02336 0.55360 0.51030
 C709 C -0.01293 0.55415 0.52841
 O710 O 0.02817 0.49302 0.54970
 O711 O -0.04334 0.44565 0.52568
 O712 O -0.00982 0.50061 0.55501
 O713 O -0.03963 0.48014 0.54545
 O714 O 0.00047 0.42635 0.51346
 O715 O 0.03080 0.44844 0.52719
 C716 C -0.02747 0.48998 0.55939
 H717 H -0.02758 0.44422 0.48800
 H718 H 0.04059 0.48618 0.50888
 H719 H -0.03593 0.51765 0.52728
 H720 H -0.01116 0.51930 0.45079
 H721 H 0.04663 0.43234 0.49024
 H722 H 0.06255 0.50336 0.46146
 H723 H 0.04173 0.53770 0.45339
 H724 H -0.02558 0.56927 0.47433
 H725 H 0.01083 0.41408 0.50972
 H726 H -0.05842 0.44577 0.53144
 H727 H -0.07710 0.48178 0.52833
 H728 H -0.06094 0.55405 0.49674
 H729 H 0.03864 0.43392 0.52551
 H730 H 0.02973 0.50471 0.56068
 H731 H -0.04472 0.48015 0.42575
 H732 H -0.05443 0.55008 0.46096
 Zr733 Zr 0.48093 -0.02216 -0.03106
 O734 O 0.46053 -0.00412 -0.05345
 O735 O 0.48164 -0.05412 -0.04408
 O736 O 0.49608 -0.02076 -0.06134
 O737 O 0.43996 -0.03140 0.00554
 O738 O 0.53031 -0.00741 -0.05395
 O739 O 0.44797 -0.03335 -0.02994
 O740 O 0.50430 -0.07419 -0.02096
 O741 O 0.51368 -0.03257 -0.02529
 O742 O 0.48111 -0.04214 -0.00322
 O743 O 0.49893 0.00740 -0.02802
 O744 O 0.46726 -0.00185 -0.00717
 Zr745 Zr 0.51949 -0.00312 0.03128
 Zr746 Zr 0.53131 -0.00322 -0.02059
 Zr747 Zr 0.46926 -0.02177 0.02086
 Zr748 Zr 0.51369 -0.05156 0.00304
 O749 O 0.44265 -0.00150 0.03103
 O750 O 0.54305 -0.06443 -0.01030
 O751 O 0.50150 -0.03280 0.02860
 O752 O 0.53290 -0.02321 0.00731
 O753 O 0.51962 0.01725 0.00366
 O754 O 0.48688 0.00734 0.02523
 C755 C 0.49186 -0.07214 -0.03787
 C756 C 0.43484 -0.03565 -0.01405
 C757 C 0.51536 -0.01445 -0.06694
 O758 O 0.55909 -0.02289 -0.02884
 O759 O 0.55951 0.00988 -0.00549
 O760 O 0.55173 0.00923 0.03013
 C761 C 0.56439 0.01343 0.01432
 O762 O 0.46410 0.03774 -0.02716
 Zr763 Zr 0.48687 0.02645 -0.00283
 O764 O 0.51975 0.02903 0.04388
 O765 O 0.53927 0.02716 -0.03623
 O766 O 0.50211 0.05267 -0.01994
 O767 O 0.45871 0.04122 0.01115
 O768 O 0.49831 0.04948 0.01998
 C769 C 0.51073 0.04741 0.03693
 O770 O 0.54068 -0.02113 0.05302
 O771 O 0.45995 -0.05264 0.03470
 O772 O 0.50535 -0.00613 0.06184
 O773 O 0.47142 -0.02015 0.05444
 O774 O 0.49878 -0.07911 0.01846
 O775 O 0.53389 -0.06359 0.02912
 C776 C 0.48639 -0.01323 0.06749
 H777 H 0.47201 -0.05561 -0.00452
 H778 H 0.54825 -0.02789 0.01101
 H779 H 0.48058 0.01623 0.03693
 H780 H 0.49810 0.01644 -0.04145
 H781 H 0.54225 -0.08097 -0.00984
 H782 H 0.56843 -0.01322 -0.03778
 H783 H 0.55373 0.02470 -0.04298
 H784 H 0.49540 0.06696 -0.01524
 H785 H 0.50637 -0.09290 0.01367
 H786 H 0.44564 -0.04994 0.04165
 H787 H 0.43336 -0.01114 0.04004
 H788 H 0.46023 0.05767 0.01004
 H789 H 0.53904 -0.07904 0.02624
 H790 H 0.54554 -0.01049 0.06410
 H791 H 0.45587 -0.01487 -0.06451
 H792 H 0.46223 0.05420 -0.02647
 Zr793 Zr 0.51452 0.52478 -0.02880
 O794 O 0.53745 0.50740 -0.04779
 O795 O 0.51141 0.55546 -0.04503
 O796 O 0.50121 0.52070 -0.06003
 O797 O 0.55189 0.54128 0.01003
 O798 O 0.46820 0.50421 -0.05445
 O799 O 0.54621 0.53881 -0.02608
 O800 O 0.48279 0.57269 -0.02835
 O801 O 0.48071 0.53163 -0.02689
 O802 O 0.51049 0.54676 -0.00344
 O803 O 0.49966 0.49358 -0.02452
 O804 O 0.52875 0.50800 -0.00178
 Zr805 Zr 0.47452 0.50571 0.03164
 Zr806 Zr 0.46608 0.50092 -0.02097
 Zr807 Zr 0.52283 0.52962 0.02371
 Zr808 Zr 0.47682 0.55259 -0.00095
 O809 O 0.55056 0.51351 0.03866
 O810 O 0.44612 0.56109 -0.01603
 O811 O 0.48926 0.53716 0.02746
 O812 O 0.46062 0.52247 0.00457
 O813 O 0.47834 0.48365 0.00623
 O814 O 0.50829 0.49886 0.02951
 C815 C 0.49686 0.57117 -0.04344
 C816 C 0.55796 0.54388 -0.00948
 C817 C 0.48280 0.51267 -0.06667
 O818 O 0.43674 0.51636 -0.03330
 O819 O 0.43879 0.48565 -0.00714
 O820 O 0.44389 0.48957 0.02890
 C821 C 0.43286 0.48294 0.01240
 O822 O 0.53782 0.46829 -0.01712
 Zr823 Zr 0.51211 0.47795 0.00358
 O824 O 0.47691 0.47454 0.04729
 O825 O 0.46277 0.46891 -0.03447
 O826 O 0.50156 0.44903 -0.01260
 O827 O 0.54018 0.46717 0.02201
 O828 O 0.50109 0.45500 0.02688
 C829 C 0.48753 0.45665 0.04240
 O830 O 0.45034 0.52253 0.04965
 O831 O 0.52780 0.56247 0.03469
 O832 O 0.48647 0.51241 0.06292
 O833 O 0.51859 0.53047 0.05701
 O834 O 0.48861 0.58333 0.01072
 O835 O 0.45542 0.56437 0.02307
 C836 C 0.50388 0.52250 0.06941
 H837 H 0.51816 0.56104 -0.00569
 H838 H 0.44472 0.52556 0.00650
 H839 H 0.51468 0.49154 0.04261
 H840 H 0.50223 0.48392 -0.03699
 H841 H 0.44510 0.57763 -0.01721
 H842 H 0.42917 0.50509 -0.04211
 H843 H 0.44867 0.46923 -0.04274
 H844 H 0.50952 0.43597 -0.00593
 H845 H 0.47975 0.59546 0.00350
 H846 H 0.54177 0.56206 0.04318
 H847 H 0.55817 0.52495 0.04723
 H848 H 0.54047 0.45059 0.02216
 H849 H 0.44954 0.57942 0.01889
 H850 H 0.44606 0.51211 0.06132
 H851 H 0.54166 0.51784 -0.05947
 H852 H 0.54164 0.45227 -0.01461
 Zr853 Zr 0.02620 1.00694 0.47401
 O854 O 0.04826 0.99122 0.45293
 O855 O 0.02411 1.03961 0.46135
 O856 O 0.01206 1.00644 0.44275
 O857 O 0.06481 1.01836 0.51357
 O858 O -0.02081 0.98937 0.44742
 O859 O 0.05813 1.02012 0.47747
 O860 O -0.00251 1.05599 0.48142
 O861 O -0.00742 1.01419 0.47713
 O862 O 0.02314 1.02599 0.50160
 O863 O 0.01089 0.97569 0.47583
 O864 O 0.04056 0.98707 0.49910
 Zr865 Zr -0.01305 0.98242 0.53330
 Zr866 Zr -0.02244 0.98319 0.48056
 Zr867 Zr 0.03573 1.00597 0.52669
 Zr868 Zr -0.01032 1.03218 0.50521
 O869 O 0.06309 0.98753 0.53969
 O870 O -0.04026 1.04277 0.48982
 O871 O 0.00240 1.01371 0.53173
 O872 O -0.02704 1.00206 0.50811
 O873 O -0.01020 0.96293 0.50591
 O874 O 0.02055 0.97521 0.53006
 C875 C 0.01135 1.05609 0.46609
 C876 C 0.07036 1.02320 0.49426
 C877 C -0.00645 0.99897 0.43572
 O878 O -0.05160 1.00034 0.47001
 O879 O -0.04995 0.96739 0.49331
 O880 O -0.04402 0.96708 0.52951
 C881 C -0.05562 0.96272 0.51260
 O882 O 0.04794 0.94834 0.47983
 Zr883 Zr 0.02341 0.95690 0.50222
 O884 O -0.01029 0.95014 0.54639
 O885 O -0.02677 0.95276 0.46432
 O886 O 0.01122 0.92995 0.48412
 O887 O 0.05215 0.94446 0.51861
 O888 O 0.01333 0.93197 0.52430
 C889 C 0.00037 0.93269 0.54039
 O890 O -0.03694 0.99732 0.55306
 O891 O 0.04232 1.03729 0.54051
 O892 O -0.00085 0.98679 0.56492
 O893 O 0.03167 1.00447 0.55996
 O894 O 0.00157 1.06067 0.52122
 O895 O -0.03220 1.04153 0.52979
 C896 C 0.01667 0.99634 0.57191
 H897 H 0.03114 1.04024 0.50090
 H898 H -0.04285 1.00524 0.51052
 H899 H 0.02706 0.96674 0.54248
 H900 H 0.01299 0.96729 0.46247
 H901 H -0.04099 1.05933 0.49025
 H902 H -0.05955 0.99018 0.46028
 H903 H -0.04105 0.95412 0.45639
 H904 H 0.01894 0.91613 0.48942
 H905 H -0.00703 1.07384 0.51562
 H906 H 0.05640 1.03553 0.54873
 H907 H 0.07113 0.99776 0.54925
 H908 H 0.05226 0.92794 0.51754
 H909 H -0.03850 1.05663 0.52651
 H910 H -0.04106 0.98585 0.56386
 H911 H 0.05253 1.00274 0.44226
 H912 H 0.05129 0.93208 0.48094
 Zr913 Zr 0.71930 0.26321 0.21272
 O914 O 0.72601 0.28612 0.18753
 O915 O 0.68634 0.25537 0.20590
 O916 O 0.71806 0.24811 0.18233
 O917 O 0.71069 0.30397 0.25042
 O918 O 0.73798 0.21566 0.18760
 O919 O 0.70280 0.29449 0.21592
 O920 O 0.67871 0.22875 0.23118
 O921 O 0.71823 0.22894 0.22003
 O922 O 0.70678 0.26025 0.24357
 O923 O 0.75189 0.25109 0.21013
 O924 O 0.74084 0.28138 0.23256
 Zr925 Zr 0.76053 0.23049 0.26986
 Zr926 Zr 0.75078 0.21722 0.21899
 Zr927 Zr 0.72889 0.27661 0.26355
 Zr928 Zr 0.70697 0.22626 0.25126
 O929 O 0.74448 0.30696 0.27096
 O930 O 0.69884 0.19357 0.24154
 O931 O 0.72785 0.24273 0.27279
 O932 O 0.73894 0.21271 0.24997
 O933 O 0.77321 0.23341 0.23900
 O934 O 0.76132 0.26475 0.26243
 C935 C 0.67370 0.24085 0.21451
 C936 C 0.70182 0.30795 0.23181
 C937 C 0.72598 0.22926 0.17599
 O938 O 0.73685 0.18542 0.21452
 O939 O 0.77273 0.19223 0.23062
 O940 O 0.77918 0.20035 0.26576
 C941 C 0.78180 0.18814 0.24906
 O942 O 0.77283 0.29124 0.20565
 Zr943 Zr 0.77289 0.26754 0.23142
 O944 O 0.79357 0.23774 0.27605
 O945 O 0.77719 0.21463 0.19752
 O946 O 0.79712 0.25658 0.20977
 O947 O 0.78300 0.29907 0.24269
 O948 O 0.80250 0.26211 0.24922
 C949 C 0.80720 0.25017 0.26608
 O950 O 0.75439 0.20647 0.29421
 O951 O 0.70042 0.28071 0.28217
 O952 O 0.76025 0.24477 0.30080
 O953 O 0.73767 0.27550 0.29620
 O954 O 0.68075 0.23707 0.27073
 O955 O 0.70619 0.20576 0.27938
 C956 C 0.75004 0.26224 0.30783
 H957 H 0.69175 0.26682 0.24460
 H958 H 0.73885 0.19669 0.25425
 H959 H 0.77075 0.27314 0.27247
 H960 H 0.75719 0.25307 0.19533
 H961 H 0.68331 0.19108 0.24533
 H962 H 0.74573 0.17771 0.20362
 H963 H 0.77644 0.19959 0.19113
 H964 H 0.81002 0.26632 0.21154
 H965 H 0.66846 0.22665 0.26849
 H966 H 0.70127 0.29567 0.28871
 H967 H 0.73514 0.31469 0.28148
 H968 H 0.79851 0.30102 0.23851
 H969 H 0.69189 0.19812 0.27996
 H970 H 0.76818 0.20452 0.30290
 H971 H 0.71224 0.28829 0.17885
 H972 H 0.78802 0.29641 0.20345
 Zr973 Zr 0.76734 0.75064 0.72272
 O974 O 0.75848 0.73189 0.69551
 O975 O 0.80020 0.75782 0.71677
 O976 O 0.76903 0.77021 0.69440
 O977 O 0.77620 0.70477 0.75635
 O978 O 0.74849 0.80159 0.70120
 O979 O 0.78332 0.71876 0.72305
 O980 O 0.81077 0.77922 0.74497
 O981 O 0.76996 0.78369 0.73294
 O982 O 0.78112 0.74884 0.75364
 O983 O 0.73517 0.76432 0.72097
 O984 O 0.74600 0.73050 0.74057
 Zr985 Zr 0.72976 0.77645 0.78212
 Zr986 Zr 0.73771 0.79677 0.73283
 Zr987 Zr 0.75924 0.73055 0.77187
 Zr988 Zr 0.78265 0.78155 0.76421
 O989 O 0.74267 0.70004 0.77624
 O990 O 0.79198 0.81465 0.75640
 O991 O 0.76206 0.76287 0.78408
 O992 O 0.75108 0.79629 0.76407
 O993 O 0.71573 0.77845 0.75120
 O994 O 0.72721 0.74358 0.77163
 C995 C 0.81430 0.76942 0.72714
 C996 C 0.78457 0.70322 0.73766
 C997 C 0.76059 0.78948 0.68906
 O998 O 0.75288 0.82828 0.73093
 O999 O 0.71716 0.82092 0.74719
 O1000 O 0.71210 0.80720 0.78105
 C1001 C 0.70901 0.82208 0.76607
 O1002 O 0.71326 0.72530 0.71289
 Zr1003 Zr 0.71450 0.74564 0.74046
 O1004 O 0.69654 0.77007 0.78743
 O1005 O 0.71013 0.80331 0.71228
 O1006 O 0.68996 0.75982 0.71942
 O1007 O 0.70308 0.71348 0.74905
 O1008 O 0.68570 0.75047 0.75812
 C1009 C 0.68201 0.76018 0.77594
 O1010 O 0.73803 0.79664 0.80853
 O1011 O 0.78817 0.72260 0.79014
 O1012 O 0.73041 0.75816 0.81154
 O1013 O 0.75185 0.72755 0.80447
 O1014 O 0.80862 0.76753 0.78364
 O1015 O 0.78509 0.79898 0.79353
 C1016 C 0.74040 0.73966 0.81712
 H1017 H 0.79592 0.74159 0.75424
 H1018 H 0.75192 0.81158 0.76984
 H1019 H 0.71775 0.73433 0.78083
 H1020 H 0.72931 0.76448 0.70604
 H1021 H 0.80777 0.81597 0.76037
 H1022 H 0.74364 0.83775 0.72099
 H1023 H 0.71114 0.81907 0.70726
 H1024 H 0.67687 0.75023 0.72020
 H1025 H 0.82133 0.77759 0.78253
 H1026 H 0.78689 0.70690 0.79524
 H1027 H 0.75208 0.69053 0.78599
 H1028 H 0.68740 0.71285 0.74444
 H1029 H 0.79954 0.80631 0.79451
 H1030 H 0.72474 0.79801 0.81742
 H1031 H 0.77182 0.73035 0.68669
 H1032 H 0.69790 0.72072 0.71012
 Zr1033 Zr 0.24655 0.22646 0.78729
 O1034 O 0.25812 0.20344 0.81128
 O1035 O 0.21454 0.23334 0.79708
 O1036 O 0.24773 0.24199 0.81738
 O1037 O 0.23236 0.18705 0.74996
 O1038 O 0.26818 0.27312 0.81173
 O1039 O 0.22987 0.19575 0.78527
 O1040 O 0.20242 0.26105 0.77387
 O1041 O 0.24383 0.26095 0.78103
 O1042 O 0.22947 0.23038 0.75803
 O1043 O 0.27901 0.23807 0.78710
 O1044 O 0.26511 0.20821 0.76513
 Zr1045 Zr 0.27817 0.25942 0.72729
 Zr1046 Zr 0.27615 0.27219 0.77904
 Zr1047 Zr 0.24856 0.21398 0.73566
 Zr1048 Zr 0.22778 0.26453 0.75137
 O1049 O 0.26351 0.18349 0.72633
 O1050 O 0.22071 0.29679 0.76338
 O1051 O 0.24547 0.24808 0.72743
 O1052 O 0.25955 0.27735 0.74957
 O1053 O 0.29550 0.25580 0.75655
 O1054 O 0.28073 0.22507 0.73390
 C1055 C 0.20014 0.24784 0.79018
 C1056 C 0.22617 0.18297 0.76921
 C1057 C 0.25675 0.26014 0.82366
 O1058 O 0.26261 0.30414 0.78569
 O1059 O 0.29564 0.29721 0.76527
 O1060 O 0.29668 0.28889 0.72975
 C1061 C 0.30164 0.30111 0.74589
 O1062 O 0.30051 0.19714 0.78858
 Zr1063 Zr 0.29681 0.22155 0.76354
 O1064 O 0.31019 0.25171 0.71751
 O1065 O 0.30570 0.27376 0.79743
 O1066 O 0.32385 0.23138 0.78299
 O1067 O 0.30627 0.19026 0.75073
 O1068 O 0.32347 0.22709 0.74321
 C1069 C 0.32541 0.23901 0.72605
 O1070 O 0.26777 0.28401 0.70423
 O1071 O 0.21769 0.21071 0.71978
 O1072 O 0.27379 0.24589 0.69635
 O1073 O 0.25220 0.21573 0.70232
 O1074 O 0.19909 0.25517 0.73408
 O1075 O 0.22243 0.28623 0.72436
 C1076 C 0.26265 0.22904 0.68991
 H1077 H 0.21450 0.22412 0.75820
 H1078 H 0.25853 0.29344 0.74559
 H1079 H 0.28875 0.21674 0.72282
 H1080 H 0.28634 0.23567 0.80129
 H1081 H 0.20463 0.29954 0.76160
 H1082 H 0.27310 0.31141 0.79562
 H1083 H 0.30577 0.28869 0.80407
 H1084 H 0.33652 0.22140 0.77977
 H1085 H 0.18706 0.26572 0.73791
 H1086 H 0.21784 0.19586 0.71295
 H1087 H 0.25282 0.17613 0.71668
 H1088 H 0.32225 0.18801 0.75371
 H1089 H 0.20831 0.29456 0.72587
 H1090 H 0.28002 0.28599 0.69414
 H1091 H 0.24585 0.20114 0.82128
 H1092 H 0.31604 0.19182 0.78955
 Zr1093 Zr 0.26665 0.78013 0.29385
 O1094 O 0.25600 0.80326 0.31693
 O1095 O 0.29923 0.77334 0.30398
 O1096 O 0.26685 0.76476 0.32470
 O1097 O 0.27877 0.81918 0.25470
 O1098 O 0.24566 0.73407 0.32014
 O1099 O 0.28270 0.81109 0.29044
 O1100 O 0.31004 0.74512 0.28214
 O1101 O 0.26907 0.74561 0.28915
 O1102 O 0.28260 0.77578 0.26479
 O1103 O 0.23406 0.76878 0.29384
 O1104 O 0.24712 0.79789 0.27060
 Zr1105 Zr 0.23276 0.74601 0.23516
 Zr1106 Zr 0.23664 0.73460 0.28752
 Zr1107 Zr 0.26262 0.79173 0.24150
 Zr1108 Zr 0.28396 0.74151 0.25971
 O1109 O 0.24729 0.82194 0.23035
 O1110 O 0.29158 0.70941 0.27315
 O1111 O 0.26542 0.75749 0.23491
 O1112 O 0.25218 0.72862 0.25849
 O1113 O 0.21641 0.75034 0.26406
 O1114 O 0.23041 0.78051 0.23997
 C1115 C 0.31317 0.75848 0.29782
 C1116 C 0.28540 0.82378 0.27381
 C1117 C 0.25774 0.74680 0.33164
 O1118 O 0.25031 0.70268 0.29570
 O1119 O 0.21628 0.70975 0.27532
 O1120 O 0.21428 0.71649 0.23922
 C1121 C 0.20966 0.70512 0.25627
 O1122 O 0.21191 0.80942 0.29307
 Zr1123 Zr 0.21526 0.78469 0.26924
 O1124 O 0.20056 0.75357 0.22467
 O1125 O 0.20790 0.73354 0.30609
 O1126 O 0.18884 0.77502 0.28880
 O1127 O 0.20586 0.81589 0.25479
 O1128 O 0.18791 0.77891 0.24865
 C1129 C 0.18553 0.76652 0.23212
 O1130 O 0.24222 0.72090 0.21348
 O1131 O 0.29304 0.79484 0.22588
 O1132 O 0.23623 0.75896 0.20360
 O1133 O 0.25790 0.78933 0.20822
 O1134 O 0.31202 0.75068 0.24216
 O1135 O 0.28826 0.71945 0.23372
 C1136 C 0.24706 0.77577 0.19641
 H1137 H 0.29754 0.78211 0.26476
 H1138 H 0.25301 0.71244 0.25540
 H1139 H 0.22205 0.78863 0.22839
 H1140 H 0.22723 0.77142 0.30786
 H1141 H 0.30757 0.70658 0.27143
 H1142 H 0.24026 0.69563 0.30602
 H1143 H 0.20800 0.71873 0.31348
 H1144 H 0.17599 0.78481 0.28487
 H1145 H 0.32418 0.74017 0.24649
 H1146 H 0.29260 0.80955 0.21831
 H1147 H 0.25767 0.82914 0.22044
 H1148 H 0.18987 0.81817 0.25704
 H1149 H 0.30252 0.71127 0.23554
 H1150 H 0.22957 0.71880 0.20345
 H1151 H 0.26869 0.80569 0.32681
 H1152 H 0.19642 0.81487 0.29326
 Zr1153 Zr 0.22533 0.76443 0.72260
 O1154 O 0.23539 0.78404 0.69613
 O1155 O 0.19245 0.75854 0.71448
 O1156 O 0.22409 0.74567 0.69419
 O1157 O 0.21538 0.80857 0.75608
 O1158 O 0.24465 0.71420 0.70239
 O1159 O 0.20967 0.79647 0.72200
 O1160 O 0.18181 0.73393 0.74047
 O1161 O 0.22279 0.73084 0.73213
 O1162 O 0.21030 0.76438 0.75242
 O1163 O 0.25772 0.75129 0.72326
 O1164 O 0.24559 0.78379 0.74257
 Zr1165 Zr 0.26087 0.73587 0.78466
 Zr1166 Zr 0.25515 0.71822 0.73445
 Zr1167 Zr 0.23109 0.78184 0.77273
 Zr1168 Zr 0.20883 0.73105 0.76228
 O1169 O 0.24715 0.81204 0.77975
 O1170 O 0.20053 0.69821 0.75322
 O1171 O 0.22829 0.74883 0.78410
 O1172 O 0.24060 0.71677 0.76457
 O1173 O 0.27612 0.73579 0.75487
 O1174 O 0.26325 0.76935 0.77496
 C1175 C 0.17841 0.74564 0.72316
 C1176 C 0.20810 0.81129 0.73670
 C1177 C 0.23246 0.72641 0.68954
 O1178 O 0.24113 0.68626 0.73148
 O1179 O 0.27590 0.69392 0.74973
 O1180 O 0.27951 0.70564 0.78420
 C1181 C 0.28352 0.69181 0.76908
 O1182 O 0.27978 0.79055 0.71744
 Zr1183 Zr 0.27726 0.76917 0.74480
 O1184 O 0.29354 0.74292 0.79304
 O1185 O 0.28316 0.71348 0.71534
 O1186 O 0.30309 0.75596 0.72616
 O1187 O 0.28724 0.80139 0.75429
 O1188 O 0.30510 0.76468 0.76521
 C1189 C 0.30822 0.75408 0.78313
 O1190 O 0.25216 0.71375 0.80981
 O1191 O 0.20101 0.78881 0.78807
 O1192 O 0.25806 0.75231 0.81441
 O1193 O 0.23600 0.78264 0.80604
 O1194 O 0.18173 0.74368 0.77957
 O1195 O 0.20515 0.71202 0.79101
 C1196 C 0.24687 0.76995 0.81950
 H1197 H 0.19547 0.77156 0.75199
 H1198 H 0.23982 0.70116 0.77001
 H1199 H 0.27197 0.77829 0.78515
 H1200 H 0.26407 0.75187 0.70879
 H1201 H 0.18458 0.69648 0.75563
 H1202 H 0.25076 0.67754 0.72193
 H1203 H 0.28270 0.69792 0.71015
 H1204 H 0.31600 0.76564 0.72820
 H1205 H 0.16921 0.73361 0.77700
 H1206 H 0.20188 0.80423 0.79354
 H1207 H 0.23707 0.82090 0.78874
 H1208 H 0.30311 0.80261 0.75119
 H1209 H 0.19076 0.70452 0.79060
 H1210 H 0.26509 0.71225 0.81974
 H1211 H 0.22239 0.78604 0.68635
 H1212 H 0.29524 0.79523 0.71601
 Zr1213 Zr 0.26871 0.24497 0.22708
 O1214 O 0.25472 0.22413 0.20356
 O1215 O 0.30008 0.25055 0.21488
 O1216 O 0.26468 0.26192 0.19719
 O1217 O 0.28286 0.20165 0.26242
 O1218 O 0.24812 0.29515 0.20554
 O1219 O 0.28393 0.21271 0.22731
 O1220 O 0.31593 0.27367 0.23925
 O1221 O 0.27389 0.27865 0.23408
 O1222 O 0.28789 0.24522 0.25526
 O1223 O 0.23711 0.25952 0.23009
 O1224 O 0.25070 0.22710 0.25011
 Zr1225 Zr 0.24344 0.27673 0.29016
 Zr1226 Zr 0.24254 0.29272 0.23868
 Zr1227 Zr 0.26956 0.22916 0.27853
 Zr1228 Zr 0.29200 0.27862 0.26281
 O1229 O 0.25349 0.19969 0.28823
 O1230 O 0.30024 0.31065 0.25067
 O1231 O 0.27520 0.26226 0.28747
 O1232 O 0.26135 0.29437 0.26708
 O1233 O 0.22399 0.27673 0.26208
 O1234 O 0.23838 0.24319 0.28295
 C1235 C 0.31608 0.26235 0.22192
 C1236 C 0.28764 0.19837 0.24272
 C1237 C 0.25666 0.28148 0.19217
 O1238 O 0.25738 0.32377 0.23219
 O1239 O 0.22503 0.31826 0.25429
 O1240 O 0.22613 0.30775 0.28962
 C1241 C 0.22037 0.32125 0.27409
 O1242 O 0.21301 0.22083 0.22927
 Zr1243 Zr 0.22007 0.24323 0.25446
 O1244 O 0.21199 0.27184 0.30213
 O1245 O 0.21212 0.29839 0.22217
 O1246 O 0.19240 0.25676 0.23709
 O1247 O 0.20979 0.21221 0.26742
 O1248 O 0.19533 0.25052 0.27676
 C1249 C 0.19536 0.26165 0.29426
 O1250 O 0.25714 0.29873 0.31283
 O1251 O 0.30118 0.22161 0.29195
 O1252 O 0.24889 0.26066 0.32037
 O1253 O 0.26867 0.22923 0.31215
 O1254 O 0.32076 0.26534 0.27857
 O1255 O 0.30033 0.29839 0.28965
 C1256 C 0.25971 0.24253 0.32558
 H1257 H 0.30237 0.23756 0.25388
 H1258 H 0.26348 0.31006 0.27138
 H1259 H 0.23068 0.23497 0.29438
 H1260 H 0.22856 0.25875 0.21646
 H1261 H 0.31649 0.31176 0.25157
 H1262 H 0.24674 0.33269 0.22315
 H1263 H 0.21244 0.31376 0.21601
 H1264 H 0.17945 0.24790 0.24111
 H1265 H 0.33324 0.27479 0.27438
 H1266 H 0.30052 0.20645 0.29856
 H1267 H 0.26431 0.19070 0.29699
 H1268 H 0.19353 0.21189 0.26588
 H1269 H 0.31480 0.30530 0.28738
 H1270 H 0.24585 0.30135 0.32382
 H1271 H 0.26611 0.22147 0.19268
 H1272 H 0.19728 0.21683 0.22959
 Zr1273 Zr 0.74703 0.72552 0.28174
 O1274 O 0.75829 0.70393 0.30704
 O1275 O 0.71418 0.73122 0.28967
 O1276 O 0.74595 0.74220 0.31129
 O1277 O 0.73682 0.68398 0.24526
 O1278 O 0.76558 0.77382 0.30545
 O1279 O 0.73195 0.69393 0.27998
 O1280 O 0.70207 0.75750 0.26497
 O1281 O 0.74302 0.75963 0.27415
 O1282 O 0.73138 0.72754 0.25163
 O1283 O 0.77892 0.73863 0.28256
 O1284 O 0.76766 0.70742 0.26118
 Zr1285 Zr 0.78028 0.75805 0.22220
 Zr1286 Zr 0.77487 0.77229 0.27324
 Zr1287 Zr 0.75243 0.71129 0.23085
 Zr1288 Zr 0.72844 0.76136 0.24368
 O1289 O 0.76925 0.68118 0.22339
 O1290 O 0.71919 0.79369 0.25418
 O1291 O 0.74820 0.74497 0.22128
 O1292 O 0.75960 0.77571 0.24294
 O1293 O 0.79621 0.75620 0.25229
 O1294 O 0.78407 0.72402 0.23010
 C1295 C 0.69952 0.74479 0.28159
 C1296 C 0.72980 0.68031 0.26430
 C1297 C 0.75412 0.76086 0.31733
 O1298 O 0.75934 0.80369 0.27837
 O1299 O 0.79358 0.79796 0.25972
 O1300 O 0.79716 0.78871 0.22465
 C1301 C 0.80047 0.80172 0.24065
 O1302 O 0.80267 0.69915 0.28661
 Zr1303 Zr 0.79877 0.72224 0.26047
 O1304 O 0.81308 0.75149 0.21424
 O1305 O 0.80345 0.77601 0.29269
 O1306 O 0.82438 0.73423 0.28052
 O1307 O 0.80988 0.69076 0.24930
 O1308 O 0.82611 0.72801 0.24100
 C1309 C 0.82839 0.73957 0.22366
 O1310 O 0.77013 0.78137 0.19788
 O1311 O 0.72267 0.70605 0.21361
 O1312 O 0.77784 0.74328 0.19157
 O1313 O 0.75798 0.71193 0.19782
 O1314 O 0.70125 0.74993 0.22537
 O1315 O 0.72352 0.78183 0.21575
 C1316 C 0.76817 0.72540 0.18536
 H1317 H 0.71675 0.72054 0.25130
 H1318 H 0.75801 0.79163 0.23842
 H1319 H 0.79302 0.71568 0.21971
 H1320 H 0.78564 0.73709 0.29711
 H1321 H 0.70312 0.79561 0.25149
 H1322 H 0.76892 0.81182 0.28851
 H1323 H 0.80244 0.79113 0.29891
 H1324 H 0.83767 0.72477 0.27819
 H1325 H 0.68852 0.75999 0.22821
 H1326 H 0.72386 0.69097 0.20734
 H1327 H 0.75948 0.67296 0.21349
 H1328 H 0.82585 0.68932 0.25277
 H1329 H 0.70895 0.78950 0.21628
 H1330 H 0.78285 0.78354 0.18838
 H1331 H 0.74560 0.70140 0.31647
 H1332 H 0.81834 0.69443 0.28813
 Zr1333 Zr 0.76676 0.28266 0.78561
 O1334 O 0.75722 0.30570 0.80922
 O1335 O 0.79965 0.27564 0.79435
 O1336 O 0.76828 0.26716 0.81639
 O1337 O 0.77763 0.32195 0.74620
 O1338 O 0.74702 0.23643 0.81252
 O1339 O 0.78285 0.31347 0.78174
 O1340 O 0.80941 0.24771 0.77173
 O1341 O 0.76883 0.24818 0.78060
 O1342 O 0.78137 0.27848 0.75585
 O1343 O 0.73419 0.27145 0.78696
 O1344 O 0.74636 0.30072 0.76331
 Zr1345 Zr 0.73015 0.24910 0.72820
 Zr1346 Zr 0.73635 0.23732 0.78034
 Zr1347 Zr 0.76052 0.29474 0.73351
 Zr1348 Zr 0.78233 0.24426 0.75048
 O1349 O 0.74489 0.32515 0.72332
 O1350 O 0.79045 0.21207 0.76348
 O1351 O 0.76278 0.26052 0.72660
 O1352 O 0.75049 0.23148 0.75059
 O1353 O 0.71517 0.25332 0.75782
 O1354 O 0.72825 0.28360 0.73330
 C1355 C 0.81326 0.26088 0.78742
 C1356 C 0.78508 0.32626 0.76512
 C1357 C 0.75959 0.24910 0.82360
 O1358 O 0.75015 0.20525 0.78768
 O1359 O 0.71529 0.21268 0.76894
 O1360 O 0.71162 0.21961 0.73296
 C1361 C 0.70774 0.20816 0.75020
 O1362 O 0.71230 0.31216 0.78740
 Zr1363 Zr 0.71445 0.28764 0.76323
 O1364 O 0.69769 0.25717 0.71900
 O1365 O 0.70857 0.23628 0.80021
 O1366 O 0.68886 0.27789 0.78380
 O1367 O 0.70460 0.31902 0.74942
 O1368 O 0.68621 0.28229 0.74373
 C1369 C 0.68311 0.27018 0.72713
 O1370 O 0.73828 0.22400 0.70601
 O1371 O 0.79014 0.29774 0.71652
 O1372 O 0.73260 0.26208 0.69651
 O1373 O 0.75414 0.29267 0.70041
 O1374 O 0.80954 0.25341 0.73171
 O1375 O 0.78529 0.22232 0.72422
 C1376 C 0.74298 0.27903 0.68895
 H1377 H 0.79632 0.28472 0.75522
 H1378 H 0.75109 0.21532 0.74738
 H1379 H 0.71946 0.29185 0.72211
 H1380 H 0.72803 0.27401 0.80129
 H1381 H 0.80632 0.20922 0.76102
 H1382 H 0.74058 0.19820 0.79844
 H1383 H 0.70897 0.22145 0.80757
 H1384 H 0.67592 0.28779 0.78049
 H1385 H 0.82184 0.24284 0.73546
 H1386 H 0.78948 0.31253 0.70909
 H1387 H 0.75484 0.33239 0.71303
 H1388 H 0.68877 0.32139 0.75241
 H1389 H 0.79957 0.21407 0.72539
 H1390 H 0.72517 0.22210 0.69652
 H1391 H 0.77032 0.30802 0.81862
 H1392 H 0.69686 0.31764 0.78831
 C1393 C 0.42489 1.02916 0.30674
 C1394 C 0.43034 1.04614 0.32098
 C1395 C 0.44306 1.04223 0.34106
 N1396 N 0.44421 1.05897 0.35538
 N1397 N 0.45420 1.05567 0.37436
 C1398 C 0.46369 1.03559 0.37969
 N1399 N 0.46288 1.01883 0.36527
 N1400 N 0.45271 1.02209 0.34627
 C1401 C 0.47219 1.03190 0.40168
 C1402 C 0.48542 1.01367 0.40837
 H1403 H 0.42459 1.06314 0.31814
 H1404 H 0.46696 1.04386 0.41350
 H1405 H 0.43263 1.01284 0.30946
 H1406 H 0.49277 1.00268 0.39677
 C1407 C -0.08462 0.53562 0.80946
 C1408 C -0.06934 0.51879 0.81582
 C1409 C -0.05835 0.51923 0.83715
 N1410 N -0.04291 0.50343 0.84310
 N1411 N -0.03363 0.50342 0.86269
 C1412 C -0.03948 0.51925 0.87699
 N1413 N -0.05480 0.53503 0.87098
 N1414 N -0.06399 0.53506 0.85147
 C1415 C -0.03115 0.51885 0.89927
 C1416 C -0.01462 0.50431 0.90738
 H1417 H -0.06531 0.50507 0.80547
 H1418 H -0.03928 0.53015 0.91011
 H1419 H -0.08697 0.54931 0.82040
 H1420 H -0.00522 0.49393 0.89669
 C1421 C 0.09678 -0.01882 0.81999
 C1422 C 0.07955 -0.00443 0.82564
 C1423 C 0.07131 -0.00432 0.84767
 N1424 N 0.05352 0.00854 0.85267
 N1425 N 0.04600 0.00853 0.87261
 C1426 C 0.05603 -0.00437 0.88822
 N1427 N 0.07380 -0.01714 0.88320
 N1428 N 0.08128 -0.01714 0.86333
 C1429 C 0.04845 -0.00472 0.91039
 C1430 C 0.03007 0.00729 0.91733
 H1431 H 0.07146 0.00642 0.81373
 H1432 H 0.05803 -0.01492 0.92181
 H1433 H 0.10361 -0.03037 0.83204
 H1434 H 0.02020 0.01735 0.90603
 C1435 C 0.57632 0.47843 0.30360
 C1436 C 0.57704 0.46310 0.32077
 C1437 C 0.56237 0.46385 0.33919
 N1438 N 0.56385 0.44693 0.35388
 N1439 N 0.55171 0.44729 0.37133
 C1440 C 0.53755 0.46456 0.37482
 N1441 N 0.53583 0.48153 0.36005
 N1442 N 0.54801 0.48115 0.34246
 C1443 C 0.52629 0.46511 0.39540
 C1444 C 0.51232 0.48235 0.40201
 H1445 H 0.58932 0.44982 0.32144
 H1446 H 0.53085 0.45184 0.40680
 H1447 H 0.56461 0.49231 0.30388
 H1448 H 0.50612 0.49502 0.39071
 C1449 C 0.58498 0.53799 0.18764
 C1450 C 0.56612 0.52600 0.18243
 C1451 C 0.55449 0.52960 0.16162
 N1452 N 0.53695 0.51698 0.15614
 N1453 N 0.52708 0.51953 0.13692
 C1454 C 0.53439 0.53488 0.12255
 N1455 N 0.55174 0.54760 0.12814
 N1456 N 0.56157 0.54504 0.14728
 C1457 C 0.52533 0.53684 0.10057
 C1458 C 0.50804 0.52407 0.09270
 H1459 H 0.55986 0.51358 0.19338
 H1460 H 0.53388 0.54777 0.08964
 H1461 H 0.59017 0.55072 0.17636
 H1462 H 0.49860 0.51390 0.10354
 C1463 C 0.08559 1.02983 0.69394
 C1464 C 0.07116 1.01303 0.68764
 C1465 C 0.06068 1.01356 0.66610
 N1466 N 0.04654 0.99736 0.66013
 N1467 N 0.03788 0.99727 0.64030
 C1468 C 0.04309 1.01342 0.62579
 N1469 N 0.05709 1.02963 0.63182
 N1470 N 0.06568 1.02973 0.65158
 C1471 C 0.03543 1.01297 0.60336
 C1472 C 0.02031 0.99784 0.59525
 H1473 H 0.06758 0.99906 0.69810
 H1474 H 0.04285 1.02482 0.59247
 H1475 H 0.08747 1.04382 0.68290
 H1476 H 0.01153 0.98688 0.60595
 C1477 C -0.08879 0.49100 0.68554
 C1478 C -0.09664 0.48116 0.66684
 C1479 C -0.08512 0.48139 0.64638
 N1480 N -0.09433 0.47082 0.62951
 N1481 N -0.08432 0.47023 0.61079
 C1482 C -0.06468 0.48015 0.60818
 N1483 N -0.05534 0.49081 0.62505
 N1484 N -0.06538 0.49138 0.64388
 C1485 C -0.05453 0.47932 0.58705
 C1486 C -0.03488 0.48963 0.58178
 H1487 H -0.11221 0.47266 0.66701
 H1488 H -0.06364 0.47061 0.57475
 H1489 H -0.07428 0.50123 0.68499
 H1490 H -0.02551 0.49835 0.59387
 C1491 C 0.40618 -0.01733 0.18531
 C1492 C 0.42613 -0.00761 0.18007
 C1493 C 0.43528 -0.01033 0.15853
 N1494 N 0.45566 -0.00287 0.15391
 N1495 N 0.46400 -0.00580 0.13451
 C1496 C 0.45223 -0.01637 0.11908
 N1497 N 0.43189 -0.02374 0.12371
 N1498 N 0.42361 -0.02083 0.14303
 C1499 C 0.46040 -0.01945 0.09732
 C1500 C 0.48092 -0.01248 0.09041
 H1501 H 0.43570 0.00092 0.19213
 H1502 H 0.44916 -0.02696 0.08596
 H1503 H 0.39761 -0.02685 0.17322
 H1504 H 0.49250 -0.00530 0.10164
 C1505 C 0.31029 0.41058 0.02563
 C1506 C 0.32027 0.41534 0.00617
 C1507 C 0.34061 0.42836 0.00479
 N1508 N 0.34941 0.43243 -0.01464
 N1509 N 0.36801 0.44371 -0.01630
 C1510 C 0.37858 0.45133 0.00141
 N1511 N 0.36979 0.44732 0.02091
 N1512 N 0.35114 0.43604 0.02256
 C1513 C 0.39926 0.46349 -0.00107
 C1514 C 0.41195 0.47136 0.01606
 H1515 H 0.31369 0.40870 -0.00857
 H1516 H 0.40483 0.46608 -0.01729
 H1517 H 0.31781 0.41688 0.04016
 H1518 H 0.40660 0.46881 0.03235
 C1519 C -0.18433 0.90003 0.51856
 C1520 C -0.17490 0.90857 0.49993
 C1521 C -0.15285 0.91852 0.49994
 N1522 N -0.14439 0.92563 0.48115
 N1523 N -0.12459 0.93478 0.48066
 C1524 C -0.11247 0.93723 0.49894
 N1525 N -0.12089 0.93013 0.51782
 N1526 N -0.14072 0.92093 0.51830
 C1527 C -0.09070 0.94752 0.49765
 C1528 C -0.07702 0.95176 0.51536
 H1529 H -0.18348 0.90811 0.48465
 H1530 H -0.08539 0.95225 0.48177
 H1531 H -0.17456 0.90078 0.53325
 H1532 H -0.08218 0.94731 0.53135
 C1533 C -0.18046 0.11928 0.99132
 C1534 C -0.16368 0.11506 0.97683
 C1535 C -0.14286 0.10341 0.98334
 N1536 N -0.12760 0.09859 0.96842
 N1537 N -0.10907 0.08741 0.97388
 C1538 C -0.10506 0.08060 0.99450
 N1539 N -0.12026 0.08552 1.00944
 N1540 N -0.13880 0.09670 1.00397
 C1541 C -0.08496 0.06759 1.00074
 C1542 C -0.06903 0.06152 0.98599
 H1543 H -0.16616 0.11916 0.96001
 H1544 H -0.08297 0.06216 1.01733
 H1545 H -0.17782 0.11402 1.00788
 H1546 H -0.07105 0.06701 0.96942
 C1547 C 0.31055 0.60666 0.49129
 C1548 C 0.32477 0.60070 0.47488
 C1549 C 0.34526 0.58743 0.47894
 N1550 N 0.35782 0.58102 0.46228
 N1551 N 0.37620 0.56878 0.46566
 C1552 C 0.38272 0.56249 0.48586
 N1553 N 0.37019 0.56896 0.50250
 N1554 N 0.35182 0.58117 0.49913
 C1555 C 0.40290 0.54884 0.49008
 C1556 C 0.41653 0.54106 0.47391
 H1557 H 0.32047 0.60497 0.45840
 H1558 H 0.40707 0.54470 0.50666
 H1559 H 0.31462 0.60102 0.50750
 H1560 H 0.41242 0.54509 0.45731
 C1561 C 0.17536 0.60543 0.51880
 C1562 C 0.15959 0.59749 0.53293
 C1563 C 0.13962 0.58589 0.52543
 N1564 N 0.12500 0.57824 0.53986
 N1565 N 0.10719 0.56728 0.53343
 C1566 C 0.10330 0.56349 0.51230
 N1567 N 0.11790 0.57117 0.49786
 N1568 N 0.13570 0.58215 0.50429
 C1569 C 0.08386 0.55101 0.50490
 C1570 C 0.06814 0.54297 0.51898
 H1571 H 0.16218 0.59885 0.55003
 H1572 H 0.08198 0.54796 0.48791
 H1573 H 0.17255 0.60306 0.50180
 H1574 H 0.06997 0.54626 0.53593
 C1575 C 0.68974 0.08951 0.00967
 C1576 C 0.67716 0.07814 0.02470
 C1577 C 0.65788 0.06481 0.01888
 N1578 N 0.64570 0.05566 0.03463
 N1579 N 0.62750 0.04453 0.02991
 C1580 C 0.62078 0.04211 0.00922
 N1581 N 0.63307 0.05110 -0.00657
 N1582 N 0.65127 0.06229 -0.00184
 C1583 C 0.60021 0.03061 0.00382
 C1584 C 0.58588 0.02321 0.01955
 H1585 H 0.68103 0.07955 0.04161
 H1586 H 0.59584 0.02875 -0.01296
 H1587 H 0.68696 0.08655 -0.00724
 H1588 H 0.59012 0.02547 0.03630
 C1589 C 0.68598 0.89303 0.46519
 C1590 C 0.67892 0.91128 0.47707
 C1591 C 0.65674 0.92158 0.47446
 N1592 N 0.65037 0.93770 0.48814
 N1593 N 0.63034 0.94707 0.48642
 C1594 C 0.61587 0.94082 0.47086
 N1595 N 0.62232 0.92488 0.45694
 N1596 N 0.64238 0.91540 0.45872
 C1597 C 0.59328 0.95055 0.46977
 C1598 C 0.58492 0.96152 0.48745
 H1599 H 0.68992 0.91864 0.48869
 H1600 H 0.58281 0.94777 0.45585
 H1601 H 0.67481 0.88652 0.45316
 H1602 H 0.59523 0.96249 0.50176
 C1603 C 0.18594 0.38439 0.97441
 C1604 C 0.17878 0.40369 0.98468
 C1605 C 0.15671 0.41399 0.98094
 N1606 N 0.15067 0.43197 0.99253
 N1607 N 0.13083 0.44153 0.98969
 C1608 C 0.11620 0.43364 0.97505
 N1609 N 0.12231 0.41578 0.96321
 N1610 N 0.14220 0.40612 0.96611
 C1611 C 0.09377 0.44372 0.97283
 C1612 C 0.08596 0.45774 0.98871
 H1613 H 0.18980 0.41208 0.99558
 H1614 H 0.08295 0.43887 0.95977
 H1615 H 0.17490 0.37682 0.96290
 H1616 H 0.09665 0.46088 1.00240
 C1617 C 0.01460 0.30142 0.39450
 C1618 C 0.02220 0.32285 0.39050
 C1619 C 0.01994 0.34064 0.40617
 N1620 N 0.02001 0.36231 0.39949
 N1621 N 0.01746 0.37867 0.41344
 C1622 C 0.01502 0.37396 0.43461
 N1623 N 0.01541 0.35229 0.44139
 N1624 N 0.01771 0.33588 0.42738
 C1625 C 0.01157 0.39204 0.44982
 C1626 C 0.00207 0.41226 0.44280
 H1627 H 0.02863 0.32716 0.37494
 H1628 H 0.01554 0.38914 0.46665
 H1629 H 0.00581 0.29804 0.40910
 H1630 H -0.00368 0.41408 0.42629
 C1631 C 0.50319 -0.20572 -0.09737
 C1632 C 0.50344 -0.18314 -0.10289
 C1633 C 0.49910 -0.16551 -0.08757
 N1634 N 0.49642 -0.14413 -0.09479
 N1635 N 0.49447 -0.12750 -0.08106
 C1636 C 0.49534 -0.13163 -0.05962
 N1637 N 0.49796 -0.15305 -0.05236
 N1638 N 0.49975 -0.16974 -0.06612
 C1639 C 0.49497 -0.11314 -0.04456
 C1640 C 0.48921 -0.09156 -0.05150
 H1641 H 0.50798 -0.17814 -0.11896
 H1642 H 0.49996 -0.11639 -0.02802
 H1643 H 0.49644 -0.21130 -0.08231
 H1644 H 0.48270 -0.08869 -0.06763
 C1645 C -0.01278 -0.19740 1.08890
 C1646 C -0.02152 -0.17653 1.09393
 C1647 C -0.01863 -0.15680 1.08026
 N1648 N -0.02045 -0.13620 1.08882
 N1649 N -0.01780 -0.11800 1.07670
 C1650 C -0.01353 -0.11975 1.05553
 N1651 N -0.01209 -0.14035 1.04685
 N1652 N -0.01449 -0.15861 1.05906
 C1653 C -0.01032 -0.09968 1.04235
 C1654 C -0.00268 -0.08031 1.05169
 H1655 H -0.02965 -0.17427 1.10904
 H1656 H -0.01304 -0.10037 1.02517
 H1657 H -0.00225 -0.19913 1.07520
 H1658 H 0.00218 -0.08055 1.06850
 C1659 C 0.48551 0.29200 0.58788
 C1660 C 0.47782 0.31331 0.59274
 C1661 C 0.48127 0.33252 0.57855
 N1662 N 0.48053 0.35346 0.58649
 N1663 N 0.48323 0.37114 0.57365
 C1664 C 0.48650 0.36847 0.55240
 N1665 N 0.48699 0.34753 0.54440
 N1666 N 0.48456 0.32982 0.55729
 C1667 C 0.48869 0.38786 0.53810
 C1668 C 0.49553 0.40829 0.54584
 H1669 H 0.46974 0.31612 0.60780
 H1670 H 0.48520 0.38594 0.52115
 H1671 H 0.49600 0.28958 0.57424
 H1672 H 0.50117 0.40961 0.56234
 C1673 C 0.52692 1.16231 0.62688
 C1674 C 0.50729 1.15128 0.62307
 C1675 C 0.50708 1.13076 0.61060
 N1676 N 0.48768 1.12142 0.60499
 N1677 N 0.48720 1.10446 0.59144
 C1678 C 0.50612 1.09641 0.58296
 N1679 N 0.52550 1.10552 0.58882
 N1680 N 0.52598 1.12240 0.60238
 C1681 C 0.50594 1.07919 0.56668
 C1682 C 0.48713 1.06764 0.56102
 H1683 H 0.49165 1.15890 0.62706
 H1684 H 0.52131 1.07546 0.55884
 H1685 H 0.54238 1.15339 0.62463
 H1686 H 0.47212 1.06977 0.56988
 C1687 C 0.02975 0.67298 1.11459
 C1688 C 0.01006 0.66296 1.10851
 C1689 C 0.01013 0.64214 1.09649
 N1690 N -0.00902 0.63158 1.09237
 N1691 N -0.00929 0.61358 1.08010
 C1692 C 0.00957 0.60569 1.07139
 N1693 N 0.02869 0.61622 1.07554
 N1694 N 0.02897 0.63411 1.08790
 C1695 C 0.00955 0.58673 1.05694
 C1696 C -0.00849 0.57300 1.05435
 H1697 H -0.00576 0.67059 1.11178
 H1698 H 0.02450 0.58324 1.04830
 H1699 H 0.04481 0.66303 1.11357
 H1700 H -0.02288 0.57524 1.06410
 C1701 C 0.50070 0.66420 -0.14685
 C1702 C 0.48903 0.64436 -0.14771
 C1703 C 0.49489 0.62655 -0.13222
 N1704 N 0.47863 0.61702 -0.12092
 N1705 N 0.48343 0.60426 -0.10375
 C1706 C 0.50467 0.60055 -0.09733
 N1707 N 0.52101 0.60930 -0.10910
 N1708 N 0.51619 0.62235 -0.12612
 C1709 C 0.50979 0.58768 -0.07773
 C1710 C 0.49531 0.58793 -0.06074
 H1711 H 0.47254 0.64395 -0.15442
 H1712 H 0.52493 0.57780 -0.07676
 H1713 H 0.51763 0.66298 -0.14100
 H1714 H 0.48122 0.59935 -0.06122
 C1715 C -0.02364 1.17709 0.39056
 C1716 C -0.00366 1.16941 0.39964
 C1717 C -0.00314 1.15002 0.41427
 N1718 N 0.01555 1.13747 0.41711
 N1719 N 0.01580 1.11946 0.42998
 C1720 C -0.00258 1.11359 0.44058
 N1721 N -0.02111 1.12639 0.43805
 N1722 N -0.02141 1.14425 0.42506
 C1723 C -0.00291 1.09363 0.45437
 C1724 C 0.01287 1.07658 0.45309
 H1725 H 0.01184 1.17662 0.39531
 H1726 H -0.01677 1.09171 0.46485
 H1727 H -0.03804 1.16709 0.39341
 H1728 H 0.02601 1.07786 0.44168
 C1729 C 0.76689 0.65611 0.93515
 C1730 C 0.75072 0.67234 0.92948
 C1731 C 0.75037 0.68305 0.90793
 N1732 N 0.73658 0.70071 0.90309
 N1733 N 0.73646 0.71034 0.88361
 C1734 C 0.75009 0.70258 0.86829
 N1735 N 0.76372 0.68493 0.87314
 N1736 N 0.76388 0.67539 0.89253
 C1737 C 0.75051 0.71236 0.84652
 C1738 C 0.73861 0.73146 0.83950
 H1739 H 0.73852 0.67775 0.94073
 H1740 H 0.76120 0.70392 0.83543
 H1741 H 0.77921 0.65252 0.92330
 H1742 H 0.72820 0.74045 0.85044
 C1743 C 0.27123 0.16917 0.44816
 C1744 C 0.28808 0.17353 0.43375
 C1745 C 0.28541 0.18777 0.41434
 N1746 N 0.30242 0.18893 0.40069
 N1747 N 0.30036 0.20037 0.38229
 C1748 C 0.28126 0.21129 0.37682
 N1749 N 0.26419 0.21043 0.39056
 N1750 N 0.26622 0.19883 0.40902
 C1751 C 0.27916 0.22182 0.35539
 C1752 C 0.26185 0.23603 0.34846
 H1753 H 0.30425 0.16603 0.43622
 H1754 H 0.29194 0.21763 0.34420
 H1755 H 0.25607 0.17896 0.44636
 H1756 H 0.24989 0.24213 0.35969
 C1757 C 0.72783 0.33576 0.42904
 C1758 C 0.74298 0.31898 0.42356
 C1759 C 0.74336 0.31048 0.40143
 N1760 N 0.75576 0.29216 0.39644
 N1761 N 0.75559 0.28438 0.37648
 C1762 C 0.74302 0.29472 0.36083
 N1763 N 0.73082 0.31303 0.36585
 N1764 N 0.73096 0.32073 0.38570
 C1765 C 0.74202 0.28699 0.33858
 C1766 C 0.75269 0.26794 0.33075
 H1767 H 0.75390 0.31138 0.43563
 H1768 H 0.73185 0.29722 0.32767
 H1769 H 0.71625 0.34192 0.41679
 H1770 H 0.76290 0.25737 0.34132
 C1771 C 0.23184 0.83353 0.94531
 C1772 C 0.21561 0.82944 0.92966
 C1773 C 0.21977 0.81815 0.90927
 N1774 N 0.20328 0.81787 0.89435
 N1775 N 0.20634 0.80852 0.87545
 C1776 C 0.22595 0.79884 0.87071
 N1777 N 0.24256 0.79886 0.88567
 N1778 N 0.23952 0.80839 0.90464
 C1779 C 0.22871 0.79013 0.84899
 C1780 C 0.24601 0.77633 0.84229
 H1781 H 0.19881 0.83498 0.93170
 H1782 H 0.21573 0.79478 0.83750
 H1783 H 0.24825 0.82680 0.94267
 H1784 H 0.25829 0.76983 0.85370
 C1785 C 0.27572 0.84201 0.07061
 C1786 C 0.25952 0.82751 0.07801
 C1787 C 0.26003 0.81877 0.10031
 N1788 N 0.24494 0.80377 0.10693
 N1789 N 0.24509 0.79622 0.12719
 C1790 C 0.26037 0.80343 0.14157
 N1791 N 0.27541 0.81837 0.13493
 N1792 N 0.27528 0.82586 0.11473
 C1793 C 0.26061 0.79635 0.16427
 C1794 C 0.24685 0.78024 0.17303
 H1795 H 0.24625 0.82221 0.06764
 H1796 H 0.27222 0.80465 0.17470
 H1797 H 0.28907 0.84569 0.08171
 H1798 H 0.23577 0.77110 0.16275
 C1799 C 0.76951 0.34224 0.56120
 C1800 C 0.75489 0.32608 0.56843
 C1801 C 0.75438 0.31932 0.59133
 N1802 N 0.74140 0.30239 0.59801
 N1803 N 0.74101 0.29630 0.61870
 C1804 C 0.75359 0.30698 0.63344
 N1805 N 0.76647 0.32389 0.62673
 N1806 N 0.76688 0.32992 0.60613
 C1807 C 0.75364 0.30104 0.65645
 C1808 C 0.74195 0.28343 0.66552
 H1809 H 0.74406 0.31783 0.55725
 H1810 H 0.76368 0.31126 0.66679
 H1811 H 0.78090 0.34918 0.57277
 H1812 H 0.73208 0.27283 0.65542
 C1813 C 0.22809 0.15902 0.56881
 C1814 C 0.24426 0.17431 0.57461
 C1815 C 0.24482 0.18403 0.59624
 N1816 N 0.26049 0.19891 0.60187
 N1817 N 0.26134 0.20713 0.62164
 C1818 C 0.24651 0.20073 0.63646
 N1819 N 0.23088 0.18597 0.63077
 N1820 N 0.23002 0.17782 0.61109
 C1821 C 0.24736 0.20840 0.65873
 C1822 C 0.26195 0.22418 0.66674
 H1823 H 0.25686 0.17904 0.56355
 H1824 H 0.23587 0.20073 0.66954
 H1825 H 0.21559 0.15532 0.58042
 H1826 H 0.27292 0.23280 0.65608
 C1827 C 0.73531 0.65261 0.06566
 C1828 C 0.75039 0.66934 0.07028
 C1829 C 0.75321 0.67744 0.09240
 N1830 N 0.76502 0.69602 0.09662
 N1831 N 0.76701 0.70349 0.11662
 C1832 C 0.75730 0.69254 0.13308
 N1833 N 0.74571 0.67394 0.12882
 N1834 N 0.74368 0.66656 0.10893
 C1835 C 0.75867 0.70003 0.15539
 C1836 C 0.76874 0.71953 0.16241
 H1837 H 0.75942 0.67726 0.05755
 H1838 H 0.75071 0.68939 0.16700
 H1839 H 0.72545 0.64621 0.07858
 H1840 H 0.77678 0.73046 0.15112
 C1841 C 0.13898 0.58082 0.22031
 C1842 C 0.14536 0.59219 0.23868
 C1843 C 0.15676 0.61376 0.23760
 N1844 N 0.16188 0.62443 0.25596
 N1845 N 0.17224 0.64386 0.25538
 C1846 C 0.17789 0.65344 0.23642
 N1847 N 0.17274 0.64278 0.21801
 N1848 N 0.16235 0.62332 0.21858
 C1849 C 0.18987 0.67475 0.23585
 C1850 C 0.19595 0.68514 0.25483
 H1851 H 0.14148 0.58558 0.25435
 H1852 H 0.19455 0.68184 0.22057
 H1853 H 0.14214 0.58848 0.20485
 H1854 H 0.19133 0.67755 0.26992
 C1855 C 0.63310 0.08442 0.71946
 C1856 C 0.64122 0.09555 0.73734
 C1857 C 0.65303 0.11689 0.73538
 N1858 N 0.65958 0.12762 0.75330
 N1859 N 0.67015 0.14689 0.75188
 C1860 C 0.67463 0.15628 0.73250
 N1861 N 0.66809 0.14555 0.71453
 N1862 N 0.65747 0.12625 0.71595
 C1863 C 0.68676 0.17752 0.73098
 C1864 C 0.69382 0.18824 0.74949
 H1865 H 0.63829 0.08903 0.75328
 H1866 H 0.69070 0.18434 0.71537
 H1867 H 0.63548 0.09200 0.70381
 H1868 H 0.68985 0.18088 0.76488
 C1869 C 0.86432 0.06451 0.27882
 C1870 C 0.85141 0.07440 0.26225
 C1871 C 0.84021 0.09647 0.26418
 N1872 N 0.82900 0.10541 0.24699
 N1873 N 0.81843 0.12504 0.24829
 C1874 C 0.81853 0.13662 0.26685
 N1875 N 0.82974 0.12768 0.28412
 N1876 N 0.84039 0.10799 0.28281
 C1877 C 0.80636 0.15832 0.26820
 C1878 C 0.79581 0.16768 0.25000
 H1879 H 0.84913 0.06609 0.24718
 H1880 H 0.80541 0.16667 0.28342
 H1881 H 0.86642 0.07412 0.29326
 H1882 H 0.79731 0.15896 0.23501
 C1883 C 0.36091 0.56256 0.76242
 C1884 C 0.35741 0.57948 0.77737
 C1885 C 0.34354 0.59958 0.77243
 N1886 N 0.33973 0.61480 0.78790
 N1887 N 0.32697 0.63286 0.78385
 C1888 C 0.31752 0.63637 0.76414
 N1889 N 0.32139 0.62119 0.74866
 N1890 N 0.33412 0.60314 0.75272
 C1891 C 0.30323 0.65613 0.75926
 C1892 C 0.29791 0.67220 0.77443
 H1893 H 0.36420 0.57809 0.79345
 H1894 H 0.29656 0.65795 0.74308
 H1895 H 0.35327 0.56499 0.74668
 H1896 H 0.30446 0.67040 0.79065
 C1897 C 0.36928 0.42747 0.72693
 C1898 C 0.36420 0.41794 0.74679
 C1899 C 0.35362 0.39604 0.74918
 N1900 N 0.34895 0.38825 0.76908
 N1901 N 0.33888 0.36884 0.77175
 C1902 C 0.33308 0.35640 0.75464
 N1903 N 0.33780 0.36411 0.73467
 N1904 N 0.34789 0.38358 0.73199
 C1905 C 0.32134 0.33532 0.75820
 C1906 C 0.31483 0.32120 0.74173
 H1907 H 0.36804 0.42670 0.76137
 H1908 H 0.31731 0.33102 0.77457
 H1909 H 0.36660 0.41773 0.71267
 H1910 H 0.31909 0.32519 0.72536
 C1911 C 0.86495 0.93244 0.23044
 C1912 C 0.85473 0.92327 0.24842
 C1913 C 0.84519 0.90068 0.24903
 N1914 N 0.83679 0.89299 0.26764
 N1915 N 0.82775 0.87292 0.26882
 C1916 C 0.82665 0.85966 0.25144
 N1917 N 0.83506 0.86726 0.23270
 N1918 N 0.84419 0.88742 0.23152
 C1919 C 0.81608 0.83771 0.25360
 C1920 C 0.81269 0.82265 0.23696
 H1921 H 0.85352 0.93254 0.26303
 H1922 H 0.81012 0.83351 0.26938
 H1923 H 0.86612 0.92196 0.21650
 H1924 H 0.81848 0.82653 0.22106
 C1925 C 0.63340 0.95279 0.76175
 C1926 C 0.63933 0.93610 0.77691
 C1927 C 0.65223 0.91587 0.77133
 N1928 N 0.65742 0.90015 0.78666
 N1929 N 0.66929 0.88195 0.78199
 C1930 C 0.67648 0.87876 0.76178
 N1931 N 0.67128 0.89447 0.74644
 N1932 N 0.65938 0.91266 0.75110
 C1933 C 0.68990 0.85885 0.75634
 C1934 C 0.69523 0.84180 0.77126
 H1935 H 0.63505 0.93790 0.79351
 H1936 H 0.69575 0.85765 0.74012
 H1937 H 0.63864 0.95062 0.74542
 H1938 H 0.68911 0.84291 0.78739
 C1939 C 0.14071 0.44917 0.26482
 C1940 C 0.14845 0.43445 0.28107
 C1941 C 0.16147 0.41402 0.27649
 N1942 N 0.16905 0.40047 0.29282
 N1943 N 0.18104 0.38211 0.28892
 C1944 C 0.18594 0.37663 0.26850
 N1945 N 0.17835 0.39017 0.25219
 N1946 N 0.16636 0.40849 0.25609
 C1947 C 0.19924 0.35650 0.26370
 C1948 C 0.20741 0.34147 0.27947
 H1949 H 0.14567 0.43818 0.29769
 H1950 H 0.20258 0.35338 0.24703
 H1951 H 0.14470 0.44542 0.24841
 H1952 H 0.20395 0.34441 0.29615
 C1953 C 0.06877 0.27869 0.84378
 C1954 C 0.08296 0.26041 0.84139
 C1955 C 0.10391 0.26215 0.83043
 N1956 N 0.11830 0.24458 0.83130
 N1957 N 0.13726 0.24557 0.82111
 C1958 C 0.14246 0.26410 0.80956
 N1959 N 0.12799 0.28167 0.80856
 N1960 N 0.10903 0.28073 0.81887
 C1961 C 0.16326 0.26500 0.79811
 C1962 C 0.17951 0.24861 0.80179
 H1963 H 0.07883 0.24426 0.84812
 H1964 H 0.16586 0.27864 0.78686
 H1965 H 0.07394 0.29525 0.83898
 H1966 H 0.17713 0.23568 0.81385
 C1967 C 0.56942 0.77899 0.33601
 C1968 C 0.58286 0.76015 0.33343
 C1969 C 0.60322 0.76076 0.32133
 N1970 N 0.61712 0.74278 0.32215
 N1971 N 0.63578 0.74294 0.31141
 C1972 C 0.64118 0.76105 0.29935
 N1973 N 0.62716 0.77899 0.29832
 N1974 N 0.60850 0.77887 0.30917
 C1975 C 0.66199 0.76135 0.28784
 C1976 C 0.67830 0.74518 0.29222
 H1977 H 0.57888 0.74448 0.34124
 H1978 H 0.66478 0.77478 0.27640
 H1979 H 0.57462 0.79508 0.32993
 H1980 H 0.67573 0.73251 0.30450
 C1981 C 0.55382 0.23810 0.13038
 C1982 C 0.56679 0.22310 0.14265
 C1983 C 0.58693 0.22999 0.15388
 N1984 N 0.59634 0.21635 0.16917
 N1985 N 0.61449 0.22241 0.17966
 C1986 C 0.62396 0.24229 0.17520
 N1987 N 0.61467 0.25587 0.15976
 N1988 N 0.59641 0.24987 0.14934
 C1989 C 0.64428 0.24880 0.18641
 C1990 C 0.65205 0.23706 0.20456
 H1991 H 0.56137 0.20613 0.14522
 H1992 H 0.65340 0.26274 0.18007
 H1993 H 0.55827 0.25556 0.12960
 H1994 H 0.64230 0.22377 0.21127
 C1995 C 0.04822 0.70784 0.67076
 C1996 C 0.06086 0.72698 0.67148
 C1997 C 0.08109 0.72795 0.68449
 N1998 N 0.09481 0.74527 0.68161
 N1999 N 0.11371 0.74606 0.69265
 C2000 C 0.11953 0.72959 0.70703
 N2001 N 0.10566 0.71241 0.71016
 N2002 N 0.08676 0.71157 0.69903
 C2003 C 0.14071 0.73002 0.71862
 C2004 C 0.15686 0.74482 0.71241
 H2005 H 0.05683 0.74118 0.66105
 H2006 H 0.14393 0.71805 0.73158
 H2007 H 0.05359 0.69307 0.67989
 H2008 H 0.15381 0.75605 0.69882
 C2009 C 0.92932 0.76623 0.64223
 C2010 C 0.92319 0.75584 0.66132
 C2011 C 0.90153 0.75991 0.67041
 N2012 N 0.89865 0.75667 0.69170
 N2013 N 0.87893 0.75991 0.70013
 C2014 C 0.86140 0.76632 0.68751
 N2015 N 0.86424 0.76939 0.66618
 N2016 N 0.88401 0.76638 0.65778
 C2017 C 0.83942 0.76848 0.69638
 C2018 C 0.83626 0.77113 0.71819
 H2019 H 0.93492 0.74597 0.67092
 H2020 H 0.82533 0.76756 0.68551
 H2021 H 0.91817 0.77880 0.63513
 H2022 H 0.85010 0.77433 0.72885
 C2023 C 0.41823 0.26786 0.12350
 C2024 C 0.41681 0.25842 0.14394
 C2025 C 0.39594 0.25739 0.15519
 N2026 N 0.39615 0.25542 0.17685
 N2027 N 0.37737 0.25511 0.18743
 C2028 C 0.35771 0.25653 0.17671
 N2029 N 0.35748 0.25810 0.15500
 N2030 N 0.37629 0.25866 0.14442
 C2031 C 0.33701 0.25648 0.18834
 C2032 C 0.33639 0.26268 0.20970
 H2033 H 0.43170 0.25343 0.15275
 H2034 H 0.32195 0.25246 0.17977
 H2035 H 0.40363 0.27521 0.11573
 H2036 H 0.35117 0.26860 0.21760
 C2037 C 0.44759 0.71823 0.34521
 C2038 C 0.43384 0.73713 0.34544
 C2039 C 0.41173 0.73740 0.33566
 N2040 N 0.39821 0.75545 0.33805
 N2041 N 0.37828 0.75622 0.32879
 C2042 C 0.37121 0.73898 0.31673
 N2043 N 0.38474 0.72094 0.31431
 N2044 N 0.40465 0.72014 0.32364
 C2045 C 0.34958 0.73986 0.30594
 C2046 C 0.33436 0.75704 0.30945
 H2047 H 0.43930 0.75217 0.35318
 H2048 H 0.34559 0.72665 0.29492
 H2049 H 0.44127 0.70264 0.33923
 H2050 H 0.33800 0.76975 0.32109
 C2051 C 0.94751 0.21814 0.83255
 C2052 C 0.93356 0.23674 0.83424
 C2053 C 0.91193 0.23806 0.82355
 N2054 N 0.89815 0.25556 0.82741
 N2055 N 0.87843 0.25707 0.81779
 C2056 C 0.87183 0.24116 0.80393
 N2057 N 0.88565 0.22371 0.79999
 N2058 N 0.90537 0.22216 0.80966
 C2059 C 0.85021 0.24267 0.79322
 C2060 C 0.83486 0.25926 0.79818
 H2061 H 0.93823 0.25055 0.84424
 H2062 H 0.84624 0.23029 0.78135
 H2063 H 0.94186 0.20359 0.82410
 H2064 H 0.83864 0.27126 0.81046
 C2065 C 0.58316 1.03452 0.68214
 C2066 C 0.56732 1.01801 0.67965
 C2067 C 0.55849 1.01283 0.65820
 N2068 N 0.53851 1.00326 0.65565
 N2069 N 0.53082 0.99831 0.63613
 C2070 C 0.54304 1.00252 0.61857
 N2071 N 0.56305 1.01184 0.62121
 N2072 N 0.57059 1.01700 0.64061
 C2073 C 0.53565 0.99683 0.59686
 C2074 C 0.51366 0.99451 0.59043
 H2075 H 0.56083 1.00916 0.69332
 H2076 H 0.54825 0.99655 0.58483
 H2077 H 0.58638 1.04496 0.66821
 H2078 H 0.50063 0.99667 0.60184
 C2079 C 0.09370 0.52743 1.17990
 C2080 C 0.07356 0.51668 1.17851
 C2081 C 0.06409 0.51077 1.15753
 N2082 N 0.04210 0.50770 1.15484
 N2083 N 0.03363 0.50268 1.13565
 C2084 C 0.04696 0.50030 1.11859
 N2085 N 0.06891 0.50307 1.12140
 N2086 N 0.07731 0.50830 1.14045
 C2087 C 0.03854 0.49486 1.09715
 C2088 C 0.01665 0.49787 1.09018
 H2089 H 0.06432 0.51338 1.19283
 H2090 H 0.05087 0.49010 1.08570
 H2091 H 0.10144 0.53294 1.16529
 H2092 H 0.00428 0.50370 1.10113
 C2093 C -0.09545 -0.01097 1.18920
 C2094 C -0.08652 -0.02565 1.17429
 C2095 C -0.07393 -0.01760 1.15582
 N2096 N -0.05989 -0.03176 1.14585
 N2097 N -0.04867 -0.02486 1.12892
 C2098 C -0.05119 -0.00355 1.12122
 N2099 N -0.06534 0.01056 1.13110
 N2100 N -0.07640 0.00372 1.14817
 C2101 C -0.04009 0.00387 1.10165
 C2102 C -0.02207 -0.00770 1.09337
 H2103 H -0.08708 -0.04355 1.17686
 H2104 H -0.04671 0.01857 1.09321
 H2105 H -0.09178 0.00663 1.18728
 H2106 H -0.01444 -0.02140 1.10257
 C2107 C 0.40772 0.48360 0.68220
 C2108 C 0.41662 0.46845 0.66771
 C2109 C 0.42781 0.47598 0.64820
 N2110 N 0.44198 0.46191 0.63829
 N2111 N 0.45178 0.46827 0.62033
 C2112 C 0.44764 0.48889 0.61151
 N2113 N 0.43337 0.50291 0.62135
 N2114 N 0.42374 0.49664 0.63943
 C2115 C 0.45701 0.49549 0.59080
 C2116 C 0.47504 0.48427 0.58217
 H2117 H 0.41686 0.45067 0.67119
 H2118 H 0.44897 0.50907 0.58177
 H2119 H 0.41067 0.50121 0.67929
 H2120 H 0.48408 0.47182 0.59184
 C2121 C 0.40565 0.51020 -0.18981
 C2122 C 0.41851 0.52532 -0.17855
 C2123 C 0.42997 0.51901 -0.15823
 N2124 N 0.44559 0.53243 -0.14983
 N2125 N 0.45558 0.52717 -0.13114
 C2126 C 0.45024 0.50831 -0.12013
 N2127 N 0.43461 0.49492 -0.12854
 N2128 N 0.42475 0.50009 -0.14727
 C2129 C 0.45955 0.50315 -0.09863
 C2130 C 0.47752 0.51423 -0.08982
 H2131 H 0.42078 0.54199 -0.18510
 H2132 H 0.45117 0.49086 -0.08897
 H2133 H 0.40527 0.49294 -0.18425
 H2134 H 0.48695 0.52539 -0.09976
 C2135 C -0.08994 1.00650 0.31661
 C2136 C -0.07605 1.02049 0.32810
 C2137 C -0.06315 1.01240 0.34703
 N2138 N -0.04734 1.02535 0.35582
 N2139 N -0.03616 1.01852 0.37344
 C2140 C -0.04044 0.99849 0.38291
 N2141 N -0.05621 0.98555 0.37408
 N2142 N -0.06727 0.99231 0.35643
 C2143 C -0.03000 0.99154 0.40349
 C2144 C -0.01224 1.00252 0.41284
 H2145 H -0.07422 1.03770 0.32285
 H2146 H -0.03754 0.97798 0.41223
 H2147 H -0.09006 0.98883 0.32075
 H2148 H -0.00351 1.01498 0.40373
 C2149 C 0.09536 0.50055 0.31090
 C2150 C 0.08328 0.48437 0.32165
 C2151 C 0.07143 0.48915 0.34146
 N2152 N 0.05642 0.47453 0.34887
 N2153 N 0.04597 0.47835 0.36706
 C2154 C 0.05023 0.49690 0.37858
 N2155 N 0.06529 0.51148 0.37120
 N2156 N 0.07562 0.50774 0.35294
 C2157 C 0.03985 0.50077 0.39933
 C2158 C 0.02191 0.48862 0.40642
 H2159 H 0.08181 0.46786 0.31496
 H2160 H 0.04685 0.51341 0.40951
 H2161 H 0.09490 0.51763 0.31641
 H2162 H 0.01399 0.47697 0.39579
 C2163 C 0.58804 0.00182 -0.18971
 C2164 C 0.57620 -0.01485 -0.17933
 C2165 C 0.56547 -0.01122 -0.15865
 N2166 N 0.55092 -0.02628 -0.15109
 N2167 N 0.54180 -0.02365 -0.13201
 C2168 C 0.54702 -0.00592 -0.11971
 N2169 N 0.56157 0.00910 -0.12727
 N2170 N 0.57055 0.00657 -0.14639
 C2171 C 0.53858 -0.00348 -0.09789
 C2172 C 0.52102 -0.01559 -0.08981
 H2173 H 0.57443 -0.03098 -0.18674
 H2174 H 0.54686 0.00827 -0.08761
 H2175 H 0.58784 0.01858 -0.18338
 H2176 H 0.51145 -0.02606 -0.10031
 C2177 C 0.68308 0.61538 0.01850
 C2178 C 0.67430 0.60505 0.00030
 C2179 C 0.65273 0.59395 0.00101
 N2180 N 0.64342 0.58535 -0.01698
 N2181 N 0.62405 0.57517 -0.01621
 C2182 C 0.61336 0.57316 0.00263
 N2183 N 0.62272 0.58169 0.02054
 N2184 N 0.64196 0.59187 0.01975
 C2185 C 0.59204 0.56201 0.00439
 C2186 C 0.57974 0.55390 -0.01290
 H2187 H 0.68301 0.60480 -0.01461
 H2188 H 0.58550 0.56062 0.02036
 H2189 H 0.67291 0.61556 0.03257
 H2190 H 0.58578 0.55556 -0.02903
 C2191 C 0.18814 1.10384 0.52548
 C2192 C 0.17961 1.09492 0.50655
 C2193 C 0.16061 1.07983 0.50689
 N2194 N 0.15030 1.07389 0.48836
 N2195 N 0.13278 1.06073 0.48874
 C2196 C 0.12503 1.05296 0.50768
 N2197 N 0.13546 1.05874 0.52612
 N2198 N 0.15288 1.07190 0.52574
 C2199 C 0.10522 1.03920 0.50894
 C2200 C 0.09186 1.03390 0.49131
 H2201 H 0.18621 1.09972 0.49121
 H2202 H 0.10032 1.03405 0.52484
 H2203 H 0.18013 1.09978 0.54036
 H2204 H 0.09655 1.03894 0.47532
 C2205 C 0.18356 -0.11927 0.99030
 C2206 C 0.17617 -0.10970 1.00927
 C2207 C 0.15526 -0.09655 1.00953
 N2208 N 0.14723 -0.08849 1.02815
 N2209 N 0.12857 -0.07623 1.02816
 C2210 C 0.11734 -0.07159 1.00950
 N2211 N 0.12540 -0.07965 0.99101
 N2212 N 0.14391 -0.09188 0.99101
 C2213 C 0.09713 -0.05756 1.00827
 C2214 C 0.08532 -0.04935 1.02562
 H2215 H 0.18560 -0.11176 1.02407
 H2216 H 0.09102 -0.05373 0.99217
 H2217 H 0.17289 -0.11775 0.97621
 H2218 H 0.09037 -0.05376 1.04191
 C2219 C 0.67987 0.37480 0.47832
 C2220 C 0.67268 0.38597 0.49659
 C2221 C 0.65102 0.39787 0.49638
 N2222 N 0.64305 0.40733 0.51440
 N2223 N 0.62371 0.41843 0.51391
 C2224 C 0.61172 0.42052 0.49532
 N2225 N 0.61972 0.41109 0.47741
 N2226 N 0.63891 0.40000 0.47792
 C2227 C 0.59063 0.43308 0.49357
 C2228 C 0.57895 0.44200 0.51066
 H2229 H 0.68276 0.38643 0.51102
 H2230 H 0.58370 0.43501 0.47750
 H2231 H 0.66834 0.37438 0.46486
 H2232 H 0.58503 0.43953 0.52697
 C2233 C -0.18716 0.38410 0.50829
 C2234 C -0.17827 0.38903 0.48827
 C2235 C -0.15928 0.40411 0.48662
 N2236 N -0.14684 0.40493 0.46872
 N2237 N -0.12942 0.41825 0.46773
 C2238 C -0.12401 0.43137 0.48455
 N2239 N -0.13663 0.43069 0.50220
 N2240 N -0.15385 0.41737 0.50324
 C2241 C -0.10454 0.44570 0.48501
 C2242 C -0.08792 0.44652 0.46977
 H2243 H -0.18475 0.38140 0.47393
 H2244 H -0.10259 0.45534 0.49943
 H2245 H -0.17890 0.39056 0.52238
 H2246 H -0.08966 0.43784 0.45477
 C2247 C 0.31537 -0.10917 0.02163
 C2248 C 0.32351 -0.10260 0.00171
 C2249 C 0.34246 -0.08749 0.00033
 N2250 N 0.35344 -0.08478 -0.01830
 N2251 N 0.37095 -0.07162 -0.01923
 C2252 C 0.37796 -0.06055 -0.00158
 N2253 N 0.36680 -0.06307 0.01686
 N2254 N 0.34944 -0.07625 0.01781
 C2255 C 0.39791 -0.04691 -0.00129
 C2256 C 0.41273 -0.04496 -0.01808
 H2257 H 0.31659 -0.10922 -0.01292
 H2258 H 0.40196 -0.03933 0.01390
 H2259 H 0.32390 -0.10358 0.03593
 H2260 H 0.40882 -0.05187 -0.03358
 C2261 C 0.30999 1.10413 0.48311
 C2262 C 0.31853 1.09283 0.50133
 C2263 C 0.33787 1.07758 0.50001
 N2264 N 0.34843 1.06971 0.51810
 N2265 N 0.36646 1.05670 0.51689
 C2266 C 0.37451 1.05101 0.49752
 N2267 N 0.36379 1.05865 0.47951
 N2268 N 0.34586 1.07167 0.48072
 C2269 C 0.39506 1.03783 0.49545
 C2270 C 0.40860 1.03092 0.51279
 H2271 H 0.31188 1.09613 0.51693
 H2272 H 0.40042 1.03470 0.47931
 H2273 H 0.31805 1.10157 0.46800
 H2274 H 0.40336 1.03379 0.52901
 C2275 C -0.18955 0.60214 0.97844
 C2276 C -0.17993 0.59329 0.99738
 C2277 C -0.15999 0.57870 0.99684
 N2278 N -0.14896 0.57251 1.01523
 N2279 N -0.13059 0.55991 1.01463
 C2280 C -0.12265 0.55297 0.99559
 N2281 N -0.13380 0.55900 0.97730
 N2282 N -0.15207 0.57159 0.97790
 C2283 C -0.10194 0.53990 0.99408
 C2284 C -0.08819 0.53406 1.01161
 H2285 H -0.18636 0.59778 1.01278
 H2286 H -0.09682 0.53563 0.97812
 H2287 H -0.18180 0.59819 0.96346
 H2288 H -0.09316 0.53811 1.02767
 C2289 C 0.00150 0.66052 0.62504
 C2290 C -0.00886 0.65795 0.60514
 C2291 C -0.00920 0.63642 0.59438
 N2292 N -0.01803 0.63527 0.57433
 N2293 N -0.01737 0.61615 0.56377
 C2294 C -0.00780 0.59751 0.57288
 N2295 N 0.00088 0.59860 0.59300
 N2296 N 0.00022 0.61774 0.60358
 C2297 C -0.00629 0.57660 0.56113
 C2298 C -0.01468 0.57494 0.54032
 H2299 H -0.01535 0.67232 0.59616
 H2300 H 0.00177 0.56227 0.56901
 H2301 H 0.00888 0.64598 0.63316
 H2302 H -0.02307 0.58917 0.53261
 C2303 C 0.50550 0.18301 0.09228
 C2304 C 0.51910 0.16409 0.09481
 C2305 C 0.51519 0.14414 0.08202
 N2306 N 0.52732 0.12517 0.08582
 N2307 N 0.52398 0.10711 0.07407
 C2308 C 0.50846 0.10745 0.05807
 N2309 N 0.49643 0.12645 0.05421
 N2310 N 0.49973 0.14446 0.06598
 C2311 C 0.50451 0.08776 0.04501
 C2312 C 0.51498 0.06731 0.04959
 H2313 H 0.53269 0.16366 0.10627
 H2314 H 0.49275 0.08933 0.03176
 H2315 H 0.49118 0.18212 0.08170
 H2316 H 0.52632 0.06566 0.06317
 C2317 C 0.00478 0.17257 0.87120
 C2318 C 0.01560 0.17068 0.89107
 C2319 C 0.01596 0.14959 0.90340
 N2320 N 0.02284 0.14920 0.92423
 N2321 N 0.02130 0.13063 0.93615
 C2322 C 0.01277 0.11185 0.92765
 N2323 N 0.00620 0.11216 0.90677
 N2324 N 0.00772 0.13070 0.89487
 C2325 C 0.00988 0.09155 0.94059
 C2326 C 0.01598 0.08985 0.96219
 H2327 H 0.02138 0.18545 0.89905
 H2328 H 0.00265 0.07738 0.93268
 H2329 H -0.00197 0.15774 0.86404
 H2330 H 0.02395 0.10362 0.97006
 C2331 C 0.51017 0.67837 0.38340
 C2332 C 0.50300 0.65690 0.37925
 C2333 C 0.50658 0.63828 0.39453
 N2334 N 0.49631 0.61876 0.39097
 N2335 N 0.49745 0.60230 0.40555
 C2336 C 0.50887 0.60472 0.42426
 N2337 N 0.51952 0.62411 0.42769
 N2338 N 0.51830 0.64066 0.41311
 C2339 C 0.50920 0.58682 0.44069
 C2340 C 0.49494 0.56901 0.43878
 H2341 H 0.49269 0.65396 0.36527
 H2342 H 0.52052 0.58770 0.45427
 H2343 H 0.52195 0.68091 0.39635
 H2344 H 0.48339 0.56872 0.42533
 C2345 C 0.51485 0.81531 0.38430
 C2346 C 0.52261 0.83697 0.38220
 C2347 C 0.51683 0.85435 0.39748
 N2348 N 0.52582 0.87482 0.39564
 N2349 N 0.52144 0.89051 0.40986
 C2350 C 0.50792 0.88631 0.42646
 N2351 N 0.49880 0.86587 0.42824
 N2352 N 0.50321 0.85015 0.41401
 C2353 C 0.50330 0.90347 0.44234
 C2354 C 0.51350 0.92406 0.44138
 H2355 H 0.53356 0.84141 0.36945
 H2356 H 0.49180 0.89984 0.45492
 H2357 H 0.50289 0.81183 0.39650
 H2358 H 0.52506 0.92746 0.42879
 C2359 C 0.00885 0.31030 0.88848
 C2360 C 0.01460 0.33254 0.88561
 C2361 C 0.00938 0.34976 0.90119
 N2362 N 0.01781 0.37039 0.89857
 N2363 N 0.01456 0.38597 0.91315
 C2364 C 0.00278 0.38155 0.93092
 N2365 N -0.00595 0.36097 0.93344
 N2366 N -0.00262 0.34530 0.91885
 C2367 C -0.00027 0.39874 0.94717
 C2368 C 0.01140 0.41849 0.94594
 H2369 H 0.02428 0.33746 0.87201
 H2370 H -0.01170 0.39594 0.95999
 H2371 H -0.00227 0.30581 0.90114
 H2372 H 0.02311 0.42075 0.93325
 C2373 C 0.46880 0.31526 0.08087
 C2374 C 0.45966 0.33592 0.08606
 C2375 C 0.46763 0.35663 0.07634
 N2376 N 0.46020 0.37671 0.08325
 N2377 N 0.46777 0.39561 0.07485
 C2378 C 0.48311 0.39504 0.05933
 N2379 N 0.49050 0.37497 0.05240
 N2380 N 0.48294 0.35610 0.06080
 C2381 C 0.49100 0.41561 0.04933
 C2382 C 0.48317 0.43657 0.05521
 H2383 H 0.44762 0.33716 0.09855
 H2384 H 0.50220 0.41407 0.03612
 H2385 H 0.48187 0.31454 0.06933
 H2386 H 0.47196 0.43807 0.06842
 C2387 C -0.01268 0.79535 0.59630
 C2388 C -0.01838 0.81759 0.59995
 C2389 C -0.01104 0.83638 0.58676
 N2390 N -0.01730 0.85736 0.59210
 N2391 N -0.01167 0.87481 0.58011
 C2392 C 0.00043 0.87201 0.56229
 N2393 N 0.00689 0.85098 0.55698
 N2394 N 0.00123 0.83343 0.56902
 C2395 C 0.00578 0.89144 0.54872
 C2396 C -0.00281 0.91250 0.55344
 H2397 H -0.02872 0.82164 0.61333
 H2398 H 0.01578 0.88909 0.53474
 H2399 H -0.00073 0.79127 0.58426
 H2400 H -0.01309 0.91440 0.56730
 C2401 C 0.26741 0.36260 0.07242
 C2402 C 0.25512 0.34378 0.07764
 C2403 C 0.25470 0.33518 0.09994
 N2404 N 0.25088 0.31323 0.10414
 N2405 N 0.25096 0.30536 0.12428
 C2406 C 0.25467 0.31921 0.14096
 N2407 N 0.25818 0.34117 0.13674
 N2408 N 0.25834 0.34898 0.11664
 C2409 C 0.25437 0.31116 0.16338
 C2410 C 0.25718 0.28868 0.16945
 H2411 H 0.24731 0.33406 0.06529
 H2412 H 0.25276 0.32365 0.17566
 H2413 H 0.27714 0.36974 0.08527
 H2414 H 0.26052 0.27629 0.15743
 C2415 C 0.76032 0.86370 0.56325
 C2416 C 0.77534 0.85230 0.57692
 C2417 C 0.76925 0.84265 0.59775
 N2418 N 0.78337 0.82816 0.60821
 N2419 N 0.77840 0.81952 0.62728
 C2420 C 0.75917 0.82518 0.63669
 N2421 N 0.74509 0.83978 0.62629
 N2422 N 0.75000 0.84831 0.60713
 C2423 C 0.75374 0.81616 0.65799
 C2424 C 0.76544 0.79816 0.66750
 H2425 H 0.79211 0.84959 0.57184
 H2426 H 0.73998 0.82364 0.66621
 H2427 H 0.74305 0.86435 0.56727
 H2428 H 0.77831 0.78981 0.65869
 C2429 C 0.22649 0.64083 0.57340
 C2430 C 0.21186 0.65484 0.58407
 C2431 C 0.21827 0.66595 0.60415
 N2432 N 0.20595 0.68329 0.61150
 N2433 N 0.21182 0.69364 0.62945
 C2434 C 0.23021 0.68696 0.64076
 N2435 N 0.24242 0.66953 0.63349
 N2436 N 0.23663 0.65929 0.61550
 C2437 C 0.23672 0.69759 0.66101
 C2438 C 0.22715 0.71749 0.66815
 H2439 H 0.19592 0.65898 0.57681
 H2440 H 0.24952 0.68928 0.67070
 H2441 H 0.24310 0.63851 0.57981
 H2442 H 0.21506 0.72642 0.65809
 C2443 C 0.71799 0.14522 0.06004
 C2444 C 0.72873 0.16478 0.06577
 C2445 C 0.72573 0.17448 0.08704
 N2446 N 0.73057 0.19621 0.09060
 N2447 N 0.72852 0.20477 0.11007
 C2448 C 0.72169 0.19184 0.12667
 N2449 N 0.71695 0.17014 0.12310
 N2450 N 0.71878 0.16166 0.10364
 C2451 C 0.72149 0.20005 0.14866
 C2452 C 0.72147 0.22265 0.15378
 H2453 H 0.73871 0.17373 0.05447
 H2454 H 0.72204 0.18760 0.16150
 H2455 H 0.70593 0.13887 0.07107
 H2456 H 0.71864 0.23541 0.14145
 C2457 C 0.76622 0.16064 0.94019
 C2458 C 0.78034 0.17581 0.93057
 C2459 C 0.77339 0.18885 0.91121
 N2460 N 0.78620 0.20534 0.90333
 N2461 N 0.77996 0.21699 0.88572
 C2462 C 0.76066 0.21255 0.87540
 N2463 N 0.74792 0.19610 0.88330
 N2464 N 0.75410 0.18454 0.90087
 C2465 C 0.75382 0.22393 0.85519
 C2466 C 0.76491 0.24177 0.84586
 H2467 H 0.79638 0.17881 0.93772
 H2468 H 0.73972 0.21715 0.84681
 H2469 H 0.74968 0.15916 0.93361
 H2470 H 0.77830 0.24955 0.85447
 C2471 C 0.25844 0.65675 0.44688
 C2472 C 0.27361 0.67049 0.43683
 C2473 C 0.26714 0.68486 0.41821
 N2474 N 0.28134 0.69998 0.41015
 N2475 N 0.27569 0.71264 0.39301
 C2476 C 0.25560 0.71060 0.38333
 N2477 N 0.24145 0.69552 0.39142
 N2478 N 0.24705 0.68297 0.40856
 C2479 C 0.24947 0.72277 0.36335
 C2480 C 0.26201 0.73958 0.35410
 H2481 H 0.29033 0.67124 0.44306
 H2482 H 0.23485 0.71724 0.35491
 H2483 H 0.24138 0.65759 0.44147
 H2484 H 0.27582 0.74642 0.36286
 C2485 C 0.74547 0.84662 0.43280
 C2486 C 0.73188 0.83242 0.42122
 C2487 C 0.73985 0.81961 0.40290
 N2488 N 0.72709 0.80366 0.39406
 N2489 N 0.73374 0.79257 0.37693
 C2490 C 0.75338 0.79711 0.36797
 N2491 N 0.76613 0.81304 0.37681
 N2492 N 0.75954 0.82403 0.39400
 C2493 C 0.76030 0.78639 0.34810
 C2494 C 0.74941 0.76833 0.33917
 H2495 H 0.71493 0.83040 0.42583
 H2496 H 0.77403 0.79360 0.33981
 H2497 H 0.76289 0.84689 0.42944
 H2498 H 0.73657 0.76013 0.34796
 C2499 C 0.24758 0.34016 0.94308
 C2500 C 0.23470 0.32570 0.93105
 C2501 C 0.24298 0.31424 0.91204
 N2502 N 0.23087 0.29803 0.90280
 N2503 N 0.23754 0.28829 0.88495
 C2504 C 0.25653 0.29450 0.87560
 N2505 N 0.26864 0.31069 0.88486
 N2506 N 0.26205 0.32033 0.90279
 C2507 C 0.26327 0.28511 0.85503
 C2508 C 0.25289 0.26684 0.84590
 H2509 H 0.21794 0.32261 0.93568
 H2510 H 0.27621 0.29340 0.84646
 H2511 H 0.26495 0.34146 0.93973
 H2512 H 0.24077 0.25783 0.85495
 C2513 C 0.86170 0.44718 0.73206
 C2514 C 0.85377 0.43866 0.75134
 C2515 C 0.83982 0.41865 0.75147
 N2516 N 0.83516 0.40780 0.77011
 N2517 N 0.82291 0.38948 0.77000
 C2518 C 0.81481 0.38144 0.75124
 N2519 N 0.81932 0.39240 0.73272
 N2520 N 0.83158 0.41059 0.73282
 C2521 C 0.80151 0.36114 0.75024
 C2522 C 0.79740 0.34715 0.76781
 H2523 H 0.85837 0.44608 0.76643
 H2524 H 0.79521 0.35670 0.73455
 H2525 H 0.85788 0.43827 0.71752
 H2526 H 0.80382 0.35122 0.78355
 C2527 C 0.36227 0.94274 0.23720
 C2528 C 0.35289 0.93655 0.25670
 C2529 C 0.33893 0.91659 0.25783
 N2530 N 0.33438 0.90653 0.27690
 N2531 N 0.32221 0.88815 0.27758
 C2532 C 0.31405 0.87933 0.25918
 N2533 N 0.31837 0.88957 0.24025
 N2534 N 0.33057 0.90777 0.23958
 C2535 C 0.30090 0.85893 0.25885
 C2536 C 0.29729 0.84494 0.27655
 H2537 H 0.35620 0.94560 0.27122
 H2538 H 0.29442 0.85428 0.24329
 H2539 H 0.35965 0.93157 0.22392
 H2540 H 0.30375 0.84918 0.29223
 C2541 C 0.14020 0.93733 0.76888
 C2542 C 0.14397 0.92805 0.74886
 C2543 C 0.15867 0.90825 0.74718
 N2544 N 0.15763 0.89474 0.72989
 N2545 N 0.17043 0.87635 0.72903
 C2546 C 0.18484 0.87103 0.74537
 N2547 N 0.18608 0.88476 0.76238
 N2548 N 0.17325 0.90295 0.76329
 C2549 C 0.19844 0.85045 0.74598
 C2550 C 0.19682 0.83292 0.73153
 H2551 H 0.13549 0.93467 0.73464
 H2552 H 0.20943 0.84842 0.75980
 H2553 H 0.14725 0.92887 0.78298
 H2554 H 0.18665 0.83473 0.71713
 C2555 C 0.63237 0.43570 0.26244
 C2556 C 0.64017 0.42707 0.24331
 C2557 C 0.65276 0.40564 0.24344
 N2558 N 0.65616 0.39435 0.22503
 N2559 N 0.66703 0.37468 0.22544
 C2560 C 0.67494 0.36569 0.24430
 N2561 N 0.67170 0.37709 0.26257
 N2562 N 0.66081 0.39661 0.26217
 C2563 C 0.68699 0.34409 0.24567
 C2564 C 0.68958 0.32944 0.22865
 H2565 H 0.63607 0.43539 0.22817
 H2566 H 0.69384 0.33936 0.26130
 H2567 H 0.63524 0.42596 0.27707
 H2568 H 0.68245 0.33366 0.21303
 C2569 C 0.64701 0.56471 0.23197
 C2570 C 0.65521 0.57229 0.25157
 C2571 C 0.67153 0.59032 0.25220
 N2572 N 0.67532 0.60190 0.27043
 N2573 N 0.68927 0.61892 0.27058
 C2574 C 0.70003 0.62484 0.25252
 N2575 N 0.69645 0.61304 0.23446
 N2576 N 0.68249 0.59618 0.23429
 C2577 C 0.71470 0.64415 0.25153
 C2578 C 0.71775 0.65936 0.26805
 H2579 H 0.64854 0.56611 0.26644
 H2580 H 0.72247 0.64721 0.23632
 H2581 H 0.65263 0.57263 0.21738
 H2582 H 0.71022 0.65651 0.28340
 C2583 C 0.13920 0.06951 0.73769
 C2584 C 0.14893 0.07664 0.75682
 C2585 C 0.16431 0.09547 0.75682
 N2586 N 0.17092 0.10496 0.77546
 N2587 N 0.18473 0.12209 0.77532
 C2588 C 0.19249 0.13019 0.75650
 N2589 N 0.18600 0.12057 0.73798
 N2590 N 0.17219 0.10359 0.73812
 C2591 C 0.20740 0.14923 0.75538
 C2592 C 0.21329 0.16253 0.77271
 H2593 H 0.14496 0.06879 0.77196
 H2594 H 0.21320 0.15357 0.73958
 H2595 H 0.14227 0.07896 0.72312
 H2596 H 0.20745 0.15863 0.78859
 C2597 C 0.36705 0.07371 0.26739
 C2598 C 0.35704 0.08273 0.24871
 C2599 C 0.34267 0.10294 0.24965
 N2600 N 0.33680 0.11485 0.23159
 N2601 N 0.32426 0.13341 0.23271
 C2602 C 0.31706 0.14059 0.25195
 N2603 N 0.32274 0.12853 0.26987
 N2604 N 0.33530 0.11014 0.26876
 C2605 C 0.30371 0.16120 0.25425
 C2606 C 0.29878 0.17685 0.23783
 H2607 H 0.36041 0.07556 0.23329
 H2608 H 0.29836 0.16467 0.27033
 H2609 H 0.36468 0.08248 0.28224
 H2610 H 0.30400 0.17375 0.22165
 C2611 C 0.86086 0.57748 0.76569
 C2612 C 0.85360 0.58751 0.74635
 C2613 C 0.83892 0.60753 0.74636
 N2614 N 0.83605 0.62079 0.72855
 N2615 N 0.82328 0.63924 0.72897
 C2616 C 0.81284 0.64494 0.74720
 N2617 N 0.81552 0.63153 0.76482
 N2618 N 0.82831 0.61325 0.76443
 C2619 C 0.79902 0.66532 0.74880
 C2620 C 0.79691 0.68228 0.73312
 H2621 H 0.85951 0.58137 0.73126
 H2622 H 0.79083 0.66744 0.76390
 H2623 H 0.85614 0.58528 0.78050
 H2624 H 0.80503 0.68057 0.71794
 C2625 C 0.94077 0.76025 0.13752
 C2626 C 0.93584 0.74488 0.15374
 C2627 C 0.91438 0.74571 0.16409
 N2628 N 0.91094 0.73311 0.18194
 N2629 N 0.89171 0.73431 0.19177
 C2630 C 0.87528 0.74813 0.18406
 N2631 N 0.87866 0.76055 0.16613
 N2632 N 0.89787 0.75939 0.15635
 C2633 C 0.85405 0.74980 0.19462
 C2634 C 0.85004 0.73854 0.21378
 H2635 H 0.94788 0.73282 0.15999
 H2636 H 0.84124 0.76019 0.18702
 H2637 H 0.92807 0.77248 0.13286
 H2638 H 0.86292 0.72833 0.22153
 C2639 C 0.43467 0.25049 0.63438
 C2640 C 0.43124 0.24029 0.65421
 C2641 C 0.40984 0.24158 0.66451
 N2642 N 0.40748 0.23236 0.68429
 N2643 N 0.38834 0.23408 0.69417
 C2644 C 0.37092 0.24512 0.68464
 N2645 N 0.37325 0.25428 0.66483
 N2646 N 0.39239 0.25255 0.65493
 C2647 C 0.34986 0.24733 0.69543
 C2648 C 0.34661 0.23751 0.71544
 H2649 H 0.44475 0.23238 0.66320
 H2650 H 0.33658 0.25665 0.68731
 H2651 H 0.42108 0.25933 0.62628
 H2652 H 0.35979 0.22784 0.72333
 C2653 C 0.43510 0.71388 0.84329
 C2654 C 0.42605 0.73405 0.83552
 C2655 C 0.40264 0.73633 0.82983
 N2656 N 0.39533 0.75403 0.81765
 N2657 N 0.37425 0.75577 0.81154
 C2658 C 0.35975 0.73997 0.81754
 N2659 N 0.36698 0.72250 0.83007
 N2660 N 0.38808 0.72068 0.83607
 C2661 C 0.33685 0.74097 0.80985
 C2662 C 0.33030 0.75496 0.79278
 H2663 H 0.43650 0.74807 0.83211
 H2664 H 0.32541 0.72924 0.81661
 H2665 H 0.42472 0.69940 0.84458
 H2666 H 0.34208 0.76589 0.78538
 C2667 C 0.92801 0.22187 0.34465
 C2668 C 0.92153 0.23879 0.33001
 C2669 C 0.89925 0.23911 0.32042
 N2670 N 0.89391 0.25326 0.30381
 N2671 N 0.87381 0.25318 0.29485
 C2672 C 0.85840 0.23898 0.30226
 N2673 N 0.86370 0.22501 0.31894
 N2674 N 0.88375 0.22505 0.32783
 C2675 C 0.83623 0.23839 0.29278
 C2676 C 0.82978 0.25108 0.27476
 H2677 H 0.93276 0.25140 0.32467
 H2678 H 0.82462 0.22735 0.30029
 H2679 H 0.91614 0.20906 0.34813
 H2680 H 0.84139 0.26189 0.26697
 C2681 C 0.05686 0.26069 0.33840
 C2682 C 0.07742 0.26793 0.34529
 C2683 C 0.09743 0.26417 0.33307
 N2684 N 0.11690 0.27138 0.34100
 N2685 N 0.13532 0.26825 0.33021
 C2686 C 0.13494 0.25776 0.31110
 N2687 N 0.11546 0.25049 0.30316
 N2688 N 0.09699 0.25363 0.31396
 C2689 C 0.15518 0.25466 0.29899
 C2690 C 0.17507 0.26307 0.30643
 H2691 H 0.07926 0.27605 0.36056
 H2692 H 0.15430 0.24619 0.28381
 H2693 H 0.05551 0.25108 0.32388
 H2694 H 0.17574 0.27176 0.32152
 C2695 C 0.56216 0.77022 0.85413
 C2696 C 0.56768 0.76274 0.83393
 C2697 C 0.58976 0.76543 0.82554
 N2698 N 0.59470 0.75687 0.80623
 N2699 N 0.61495 0.75843 0.79872
 C2700 C 0.63094 0.76861 0.81027
 N2701 N 0.62597 0.77731 0.82951
 N2702 N 0.60572 0.77572 0.83704
 C2703 C 0.65340 0.76984 0.80246
 C2704 C 0.65945 0.75964 0.78356
 H2705 H 0.55567 0.75448 0.82394
 H2706 H 0.66548 0.77855 0.81202
 H2707 H 0.57384 0.77992 0.86324
 H2708 H 0.64733 0.75090 0.77406
 C2709 C 0.57223 0.22612 0.64802
 C2710 C 0.57464 0.24509 0.66041
 C2711 C 0.59636 0.25097 0.66893
 N2712 N 0.59823 0.26432 0.68621
 N2713 N 0.61794 0.26823 0.69495
 C2714 C 0.63641 0.25902 0.68658
 N2715 N 0.63455 0.24612 0.66905
 N2716 N 0.61488 0.24212 0.66041
 C2717 C 0.65811 0.26150 0.69666
 C2718 C 0.66135 0.27133 0.71650
 H2719 H 0.56032 0.25451 0.66549
 H2720 H 0.67195 0.25387 0.68865
 H2721 H 0.58657 0.21566 0.64497
 H2722 H 0.64778 0.27950 0.72445
 C2723 C 0.07679 0.73112 0.14318
 C2724 C 0.07944 0.74762 0.15848
 C2725 C 0.10090 0.75101 0.16901
 N2726 N 0.10245 0.76383 0.18670
 N2727 N 0.12169 0.76586 0.19705
 C2728 C 0.14003 0.75517 0.19000
 N2729 N 0.13851 0.74263 0.17219
 N2730 N 0.11931 0.74056 0.16190
 C2731 C 0.16121 0.75619 0.20149
 C2732 C 0.16412 0.76735 0.22073
 H2733 H 0.06530 0.75686 0.16419
 H2734 H 0.17495 0.74714 0.19470
 H2735 H 0.09091 0.72090 0.13890
 H2736 H 0.15059 0.77674 0.22749
   
