data_POSCAR
  _audit_creation_date              2014-09-24
  _audit_creation_method            'ToBaCCo'
  _symmetry_space_group_name_H-M    'P1'
  _symmetry_Int_Tables_number       1
  _symmetry_cell_setting            triclinic
  loop_
  _symmetry_equiv_pos_as_xyz
 x,y,z
_cell_length_a 61.2961
_cell_length_b 61.4585
_cell_length_c 60.4805
_cell_angle_alpha 89.972100
_cell_angle_beta 89.978400
_cell_angle_gamma 89.923800
loop_
  _atom_site_label
  _atom_site_type_symbol
  _atom_site_fract_x
  _atom_site_fract_y
  _atom_site_fract_z
C1 C 0.34242 1.37348 0.34636
 C2 C 0.34939 1.38341 0.32668
 C3 C 0.36726 1.37507 0.31453
 C4 C 0.37814 1.35651 0.32289
 C5 C 0.37164 1.34674 0.34280
 C6 C 0.35369 1.35523 0.35456
 C7 C 0.32422 1.38152 0.35787
 C8 C 0.31707 1.37180 0.37780
 C9 C 0.32896 1.35381 0.38602
 C10 C 0.34699 1.34543 0.37451
 C11 C 0.35828 1.32719 0.38255
 C12 C 0.37625 1.31866 0.37098
 C13 C 0.38286 1.32858 0.35114
 H14 H 0.34011 1.39708 0.32039
 H15 H 0.39237 1.35008 0.31452
 H16 H 0.31618 1.39593 0.35153
 H17 H 0.32367 1.34544 0.40084
 H18 H 0.35323 1.31973 0.39798
 H19 H 0.39655 1.32192 0.34200
 C20 C 0.33958 0.86965 0.84654
 C21 C 0.34474 0.87825 0.82564
 C22 C 0.36257 0.87012 0.81344
 C23 C 0.37524 0.85321 0.82247
 C24 C 0.37035 0.84452 0.84332
 C25 C 0.35251 0.85282 0.85545
 C26 C 0.32164 0.87756 0.85860
 C27 C 0.31649 0.86918 0.87978
 C28 C 0.32982 0.85246 0.88846
 C29 C 0.34747 0.84409 0.87638
 C30 C 0.35986 0.82673 0.88474
 C31 C 0.37738 0.81813 0.87255
 C32 C 0.38275 0.82732 0.85201
 H33 H 0.33497 0.89138 0.81892
 H34 H 0.38867 0.84644 0.81304
 H35 H 0.31225 0.89086 0.85168
 H36 H 0.32590 0.84499 0.90419
 H37 H 0.35583 0.81978 0.90071
 H38 H 0.39616 0.82061 0.84250
 C39 C 0.83704 1.35440 0.82639
 C40 C 0.85071 1.35988 0.80865
 C41 C 0.86693 1.34532 0.80098
 C42 C 0.86949 1.32528 0.81216
 C43 C 0.85621 1.31981 0.83022
 C44 C 0.83969 1.33423 0.83715
 C45 C 0.82047 1.36866 0.83327
 C46 C 0.80633 1.36288 0.85058
 C47 C 0.80910 1.34275 0.86130
 C48 C 0.82577 1.32845 0.85481
 C49 C 0.82881 1.30850 0.86573
 C50 C 0.84573 1.29439 0.85936
 C51 C 0.85924 1.30009 0.84149
 H52 H 0.84771 1.37508 0.80010
 H53 H 0.88233 1.31410 0.80739
 H54 H 0.81824 1.38409 0.82486
 H55 H 0.79838 1.33834 0.87484
 H56 H 0.81835 1.30415 0.87950
 H57 H 0.87205 1.28903 0.83629
 C58 C 0.85326 0.88542 0.36279
 C59 C 0.86116 0.89662 0.34426
 C60 C 0.87872 0.88831 0.33176
 C61 C 0.88901 0.86902 0.33911
 C62 C 0.88167 0.85805 0.35806
 C63 C 0.86348 0.86607 0.36975
 C64 C 0.83470 0.89292 0.37392
 C65 C 0.82585 0.88115 0.39170
 C66 C 0.83648 0.86217 0.39904
 C67 C 0.85526 0.85454 0.38816
 C68 C 0.86568 0.83533 0.39503
 C69 C 0.88417 0.82750 0.38374
 C70 C 0.89201 0.83895 0.36525
 H71 H 0.85245 0.91098 0.33876
 H72 H 0.90311 0.86268 0.33044
 H73 H 0.82687 0.90781 0.36847
 H74 H 0.82973 0.85295 0.41270
 H75 H 0.85952 0.82655 0.40927
 H76 H 0.90594 0.83271 0.35618
 C77 C 0.67313 0.64159 0.33383
 C78 C 0.66600 0.62772 0.31689
 C79 C 0.64832 0.63349 0.30307
 C80 C 0.63786 0.65372 0.30684
 C81 C 0.64447 0.66751 0.32413
 C82 C 0.66220 0.66142 0.33766
 C83 C 0.69132 0.63603 0.34678
 C84 C 0.69869 0.64991 0.36371
 C85 C 0.68723 0.66936 0.36785
 C86 C 0.66908 0.67521 0.35495
 C87 C 0.65785 0.69473 0.35895
 C88 C 0.64002 0.70091 0.34571
 C89 C 0.63355 0.68727 0.32820
 H90 H 0.67501 0.61283 0.31395
 H91 H 0.62384 0.65843 0.29705
 H92 H 0.70011 0.62113 0.34323
 H93 H 0.69246 0.67999 0.38112
 H94 H 0.66322 0.70535 0.37218
 H95 H 0.61978 0.69189 0.31797
 C96 C 0.67021 0.13847 0.83836
 C97 C 0.66409 0.12992 0.81788
 C98 C 0.64560 0.13782 0.80687
 C99 C 0.63294 0.15436 0.81657
 C100 C 0.63909 0.16337 0.83699
 C101 C 0.65787 0.15539 0.84788
 C102 C 0.68868 0.13050 0.84929
 C103 C 0.69561 0.13962 0.86948
 C104 C 0.68330 0.15677 0.87869
 C105 C 0.66443 0.16443 0.86820
 C106 C 0.65211 0.18113 0.87772
 C107 C 0.63343 0.18919 0.86709
 C108 C 0.62702 0.18035 0.84665
 H109 H 0.67364 0.11696 0.81047
 H110 H 0.61863 0.16042 0.80801
 H111 H 0.69824 0.11788 0.84135
 H112 H 0.68781 0.16366 0.89452
 H113 H 0.65732 0.18824 0.89325
 H114 H 0.61264 0.18663 0.83838
 C115 C 1.15047 0.62496 0.85568
 C116 C 1.14059 0.61282 0.83864
 C117 C 1.11963 0.61841 0.83089
 C118 C 1.10857 0.63615 0.84028
 C119 C 1.11827 0.64860 0.85690
 C120 C 1.13929 0.64305 0.86460
 C121 C 1.17150 0.61975 0.86359
 C122 C 1.18186 0.63296 0.87965
 C123 C 1.17023 0.65085 0.88828
 C124 C 1.14922 0.65586 0.88100
 C125 C 1.13818 0.67387 0.88970
 C126 C 1.11751 0.67984 0.88172
 C127 C 1.10753 0.66693 0.86546
 H128 H 1.14915 0.59915 0.83135
 H129 H 1.09260 0.64068 0.83408
 H130 H 1.18014 0.60612 0.85633
 H131 H 1.17724 0.66070 0.90133
 H132 H 1.14586 0.68344 0.90257
 H133 H 1.09171 0.67153 0.85894
 C134 C 1.16929 0.14039 0.33014
 C135 C 1.16157 0.13148 0.31040
 C136 C 1.14593 0.14248 0.29758
 C137 C 1.13798 0.16270 0.30510
 C138 C 1.14643 0.17224 0.32436
 C139 C 1.16222 0.16108 0.33697
 C140 C 1.18419 0.12881 0.34296
 C141 C 1.19324 0.13783 0.36226
 C142 C 1.18694 0.15914 0.36850
 C143 C 1.17104 0.17062 0.35625
 C144 C 1.16379 0.19143 0.36277
 C145 C 1.14819 0.20271 0.35002
 C146 C 1.13957 0.19294 0.33097
 H147 H 1.16720 0.11546 0.30549
 H148 H 1.12615 0.17164 0.29534
 H149 H 1.18961 0.11303 0.33710
 H150 H 1.19365 0.16644 0.38332
 H151 H 1.17046 0.19899 0.37747
 H152 H 1.12742 0.20154 0.32128
 C153 C 0.68555 1.34796 0.67067
 C154 C 0.67731 1.36119 0.68758
 C155 C 0.65897 1.35474 0.69987
 C156 C 0.64846 1.33502 0.69475
 C157 C 0.65677 1.32134 0.67811
 C158 C 0.67558 1.32779 0.66625
 C159 C 0.70385 1.35446 0.65836
 C160 C 0.71291 1.34078 0.64196
 C161 C 0.70307 1.32039 0.63822
 C162 C 0.68453 1.31398 0.65004
 C163 C 0.67481 1.29389 0.64576
 C164 C 0.65611 1.28731 0.65730
 C165 C 0.64694 1.30117 0.67333
 H166 H 0.68519 1.37653 0.69133
 H167 H 0.63431 1.33003 0.70423
 H168 H 0.71153 1.36983 0.66236
 H169 H 0.70911 1.30975 0.62531
 H170 H 0.68168 1.28333 0.63318
 H171 H 0.63252 1.29605 0.68230
 C172 C 0.65278 0.86507 1.15578
 C173 C 0.64080 0.87378 1.17337
 C174 C 0.62264 0.86271 1.18230
 C175 C 0.61647 0.84267 1.17265
 C176 C 0.62862 0.83355 1.15523
 C177 C 0.64685 0.84481 1.14678
 C178 C 0.67088 0.87624 1.14732
 C179 C 0.68338 0.86729 1.13012
 C180 C 0.67747 0.84700 1.12125
 C181 C 0.65933 0.83570 1.12950
 C182 C 0.65371 0.81526 1.12098
 C183 C 0.63587 0.80363 1.12959
 C184 C 0.62324 0.81303 1.14655
 H185 H 0.64538 0.88966 1.17959
 H186 H 0.60298 0.83345 1.17940
 H187 H 0.67560 0.89168 1.15453
 H188 H 0.68699 0.84003 1.10790
 H189 H 0.66330 0.80835 1.10765
 H190 H 0.60961 0.80409 1.15345
 C191 C 1.16250 1.36280 1.16293
 C192 C 1.15042 1.37172 1.18040
 C193 C 1.13075 1.36211 1.18732
 C194 C 1.12324 1.34333 1.17643
 C195 C 1.13506 1.33435 1.15875
 C196 C 1.15468 1.34425 1.15184
 C197 C 1.18235 1.37216 1.15653
 C198 C 1.19454 1.36363 1.13871
 C199 C 1.18612 1.34543 1.12727
 C200 C 1.16657 1.33549 1.13398
 C201 C 1.15898 1.31662 1.12342
 C202 C 1.13975 1.30627 1.13058
 C203 C 1.12778 1.31542 1.14814
 H204 H 1.15626 1.38633 1.18847
 H205 H 1.10834 1.33553 1.18191
 H206 H 1.18785 1.38664 1.16507
 H207 H 1.19533 1.33809 1.11392
 H208 H 1.16813 1.30990 1.10969
 H209 H 1.11309 1.30746 1.15396
 C210 C 1.15438 0.87626 0.65458
 C211 C 1.14259 0.88414 0.67282
 C212 C 1.12379 0.87329 0.68029
 C213 C 1.11668 0.85456 0.66915
 C214 C 1.12838 0.84640 0.65106
 C215 C 1.14737 0.85720 0.64378
 C216 C 1.17328 0.88694 0.64727
 C217 C 1.18576 0.87870 0.62945
 C218 C 1.17847 0.85948 0.61891
 C219 C 1.15942 0.84882 0.62585
 C220 C 1.15230 0.82978 0.61521
 C221 C 1.13343 0.81890 0.62249
 C222 C 1.12154 0.82741 0.64037
 H223 H 1.14802 0.89873 0.68124
 H224 H 1.10235 0.84596 0.67500
 H225 H 1.17872 0.90110 0.65635
 H226 H 1.18706 0.85308 0.60468
 H227 H 1.16166 0.82316 0.60156
 H228 H 1.10684 0.81926 0.64590
 C229 C 0.32397 0.65743 0.67341
 C230 C 0.33716 0.64736 0.68945
 C231 C 0.35794 0.65576 0.69449
 C232 C 0.36550 0.67432 0.68330
 C233 C 0.35249 0.68465 0.66743
 C234 C 0.33163 0.67628 0.66253
 C235 C 0.30329 0.64905 0.66801
 C236 C 0.29015 0.65961 0.65223
 C237 C 0.29783 0.67846 0.64175
 C238 C 0.31845 0.68677 0.64668
 C239 C 0.32613 0.70534 0.63581
 C240 C 0.34689 0.71371 0.64055
 C241 C 0.35998 0.70330 0.65644
 H242 H 0.33136 0.63293 0.69792
 H243 H 0.38140 0.68095 0.68730
 H244 H 0.29734 0.63449 0.67612
 H245 H 0.28783 0.68642 0.62934
 H246 H 0.31606 0.71309 0.62333
 H247 H 0.37593 0.70985 0.66039
 C248 C 0.31716 0.15269 1.17122
 C249 C 0.32390 0.14094 1.18993
 C250 C 0.34354 0.14610 1.20104
 C251 C 0.35623 0.16351 1.19277
 C252 C 0.34954 0.17551 1.17424
 C253 C 0.32996 0.17010 1.16341
 C254 C 0.29778 0.14727 1.16018
 C255 C 0.29087 0.15925 1.14163
 C256 C 0.30358 0.17674 1.13410
 C257 C 0.32312 0.18217 1.14478
 C258 C 0.33591 0.19951 1.13717
 C259 C 0.35540 0.20509 1.14799
 C260 C 0.36210 0.19302 1.16652
 H261 H 0.31411 0.12724 1.19519
 H262 H 0.37089 0.16862 1.20127
 H263 H 0.28786 0.13392 1.16617
 H264 H 0.29839 0.18591 1.11971
 H265 H 0.33051 0.20894 1.12303
 H266 H 0.37722 0.19715 1.17480
 C267 C 0.83051 0.63603 1.16239
 C268 C 0.83647 0.62465 1.18160
 C269 C 0.85298 0.63268 1.19546
 C270 C 0.86340 0.65229 1.19005
 C271 C 0.85762 0.66378 1.17097
 C272 C 0.84119 0.65562 1.15695
 C273 C 0.81388 0.62824 1.14870
 C274 C 0.80750 0.63984 1.12971
 C275 C 0.81854 0.65915 1.12409
 C276 C 0.83533 0.66715 1.13763
 C277 C 0.84611 0.68668 1.13247
 C278 C 0.86226 0.69495 1.14668
 C279 C 0.86791 0.68342 1.16584
 H280 H 0.82838 0.60950 1.18571
 H281 H 0.87584 0.65881 1.20094
 H282 H 0.80579 0.61311 1.15289
 H283 H 0.81364 0.66824 1.10955
 H284 H 0.84169 0.69569 1.11772
 H285 H 0.88052 0.68972 1.17665
 C286 C 0.84645 0.13150 0.66110
 C287 C 0.85771 0.12250 0.67907
 C288 C 0.87904 0.12930 0.68456
 C289 C 0.88893 0.14523 0.67102
 C290 C 0.87783 0.15423 0.65289
 C291 C 0.85649 0.14735 0.64784
 C292 C 0.82524 0.12469 0.65632
 C293 C 0.81359 0.13316 0.63815
 C294 C 0.82399 0.14888 0.62461
 C295 C 0.84518 0.15637 0.62964
 C296 C 0.85523 0.17290 0.61707
 C297 C 0.87650 0.17995 0.62225
 C298 C 0.88767 0.17037 0.64001
 H299 H 0.84987 0.10954 0.68820
 H300 H 0.90493 0.15155 0.67501
 H301 H 0.81819 0.11194 0.66642
 H302 H 0.81533 0.15604 0.61079
 H303 H 0.84663 0.18024 0.60329
 H304 H 0.90395 0.17593 0.64414
 C305 C 1.35232 0.32343 0.66510
 C306 C 1.36613 0.33534 0.67900
 C307 C 1.35929 0.35522 0.68844
 C308 C 1.33839 0.36332 0.68285
 C309 C 1.32461 0.35178 0.66854
 C310 C 1.33147 0.33156 0.65999
 C311 C 1.35899 0.30329 0.65655
 C312 C 1.34507 0.29089 0.64284
 C313 C 1.32424 0.29936 0.63788
 C314 C 1.31749 0.31948 0.64623
 C315 C 1.29701 0.32783 0.64064
 C316 C 1.29030 0.34822 0.64847
 C317 C 1.30409 0.36015 0.66251
 H318 H 1.38177 0.32834 0.68339
 H319 H 1.33298 0.37896 0.68903
 H320 H 1.37476 0.29699 0.66149
 H321 H 1.31346 0.29090 0.62662
 H322 H 1.28648 0.31874 0.62960
 H323 H 1.29883 0.37585 0.66870
 C324 C 1.36043 0.82782 1.16192
 C325 C 1.37073 0.83528 1.18119
 C326 C 1.36431 0.85494 1.19126
 C327 C 1.34770 0.86747 1.18135
 C328 C 1.33735 0.86034 1.16192
 C329 C 1.34361 0.84031 1.15235
 C330 C 1.36647 0.80786 1.15233
 C331 C 1.35537 0.79967 1.13361
 C332 C 1.33864 0.81248 1.12423
 C333 C 1.33296 0.83270 1.13325
 C334 C 1.31671 0.84539 1.12335
 C335 C 1.31061 0.86552 1.13243
 C336 C 1.32075 0.87279 1.15194
 H337 H 1.38378 0.82571 1.18840
 H338 H 1.34248 0.88254 1.18901
 H339 H 1.37901 0.79823 1.16031
 H340 H 1.33046 0.80720 1.10929
 H341 H 1.30855 0.83951 1.10861
 H342 H 1.31597 0.88825 1.15908
 C343 C 0.87037 0.34002 1.15871
 C344 C 0.87931 0.34708 1.17873
 C345 C 0.86956 0.36402 1.19069
 C346 C 0.85104 0.37451 1.18203
 C347 C 0.84180 0.36746 1.16198
 C348 C 0.85128 0.34984 1.15048
 C349 C 0.88017 0.32301 1.14707
 C350 C 0.87077 0.31467 1.12758
 C351 C 0.85114 0.32410 1.11982
 C352 C 0.84166 0.34199 1.13084
 C353 C 0.82289 0.35233 1.12247
 C354 C 0.81377 0.37044 1.13343
 C355 C 0.82320 0.37765 1.15334
 H356 H 0.89390 0.33931 1.18513
 H357 H 0.84355 0.38772 1.19117
 H358 H 0.89462 0.31546 1.15403
 H359 H 0.84374 0.31823 1.10469
 H360 H 0.81574 0.34669 1.10713
 H361 H 0.81596 0.39119 1.16219
 C362 C 0.87534 0.84196 0.65048
 C363 C 0.88805 0.84898 0.66834
 C364 C 0.88249 0.86796 0.67989
 C365 C 0.86432 0.88028 0.67324
 C366 C 0.85172 0.87376 0.65502
 C367 C 0.85721 0.85443 0.64367
 C368 C 0.88007 0.82228 0.63981
 C369 C 0.86694 0.81482 0.62233
 C370 C 0.84932 0.82767 0.61516
 C371 C 0.84431 0.84734 0.62578
 C372 C 0.82630 0.85974 0.61911
 C373 C 0.82059 0.87897 0.63036
 C374 C 0.83347 0.88591 0.64828
 H375 H 0.90188 0.83933 0.67378
 H376 H 0.86001 0.89489 0.68231
 H377 H 0.89350 0.81237 0.64571
 H378 H 0.83931 0.82222 0.60147
 H379 H 0.81666 0.85438 0.60512
 H380 H 0.82902 0.90051 0.65727
 C381 C 0.63041 0.65819 0.65376
 C382 C 0.62175 0.64654 0.67163
 C383 C 0.63084 0.62649 0.67807
 C384 C 0.64850 0.61793 0.66602
 C385 C 0.65726 0.62937 0.64802
 C386 C 0.64823 0.64960 0.64186
 C387 C 0.62181 0.67852 0.64793
 C388 C 0.63085 0.69055 0.63042
 C389 C 0.64842 0.68177 0.61838
 C390 C 0.65721 0.66141 0.62403
 C391 C 0.67520 0.65292 0.61253
 C392 C 0.68446 0.63288 0.61877
 C393 C 0.67526 0.62115 0.63642
 H394 H 0.60795 0.65314 0.68063
 H395 H 0.65582 0.60265 0.67106
 H396 H 0.60809 0.68507 0.65709
 H397 H 0.65564 0.69107 0.60502
 H398 H 0.68240 0.66218 0.59913
 H399 H 0.68218 0.60559 0.64116
 C400 C 0.61831 1.14825 1.14705
 C401 C 0.61019 1.13725 1.16563
 C402 C 0.62192 1.11991 1.17509
 C403 C 0.64170 1.11328 1.16549
 C404 C 0.65012 1.12422 1.14703
 C405 C 0.63845 1.14187 1.13786
 C406 C 0.60693 1.16598 1.13803
 C407 C 0.61560 1.17799 1.12013
 C408 C 0.63574 1.17119 1.11103
 C409 C 0.64713 1.15337 1.11975
 C410 C 0.66732 1.14714 1.11084
 C411 C 0.67916 1.12972 1.12001
 C412 C 0.67034 1.11824 1.13803
 H413 H 0.59484 1.14229 1.17293
 H414 H 0.65092 1.10009 1.17290
 H415 H 0.59193 1.17109 1.14595
 H416 H 0.64248 1.17934 1.09670
 H417 H 0.67390 1.15593 1.09681
 H418 H 0.67952 1.10505 1.14546
 C419 C 0.13060 0.65373 1.15071
 C420 C 0.12300 0.64537 1.17107
 C421 C 0.13051 0.62502 1.17919
 C422 C 0.14691 0.61406 1.16708
 C423 C 0.15492 0.62235 1.14717
 C424 C 0.14636 0.64189 1.13864
 C425 C 0.12251 0.67349 1.14195
 C426 C 0.12923 0.68092 1.12081
 C427 C 0.14499 0.66869 1.10923
 C428 C 0.15378 0.64966 1.11807
 C429 C 0.17029 0.63852 1.10671
 C430 C 0.17962 0.61963 1.11564
 C431 C 0.17160 0.61142 1.13573
 H432 H 0.11037 0.65420 1.17982
 H433 H 0.15418 0.59927 1.17347
 H434 H 0.11024 0.68243 1.15112
 H435 H 0.15139 0.67453 1.09361
 H436 H 0.17647 0.64505 1.09128
 H437 H 0.17846 0.59657 1.14251
 C438 C 0.13927 1.16390 0.67026
 C439 C 0.13089 1.15128 0.68768
 C440 C 0.14094 1.13146 0.69399
 C441 C 0.15979 1.12476 0.68238
 C442 C 0.16853 1.13741 0.66525
 C443 C 0.15820 1.15697 0.65906
 C444 C 0.12899 1.18337 0.66385
 C445 C 0.13747 1.19606 0.64646
 C446 C 0.15651 1.18906 0.63557
 C447 C 0.16694 1.16968 0.64177
 C448 C 0.18612 1.16295 0.63110
 C449 C 0.19679 1.14368 0.63750
 C450 C 0.18776 1.13094 0.65451
 H451 H 0.11600 1.15661 0.69566
 H452 H 0.16848 1.11019 0.68728
 H453 H 0.11426 1.18856 0.67226
 H454 H 0.16346 1.19893 0.62249
 H455 H 0.19274 1.17272 0.61776
 H456 H 0.19601 1.11622 0.65979
 C457 C 1.36322 0.66984 0.33225
 C458 C 1.37381 0.66247 0.31304
 C459 C 1.36634 0.64390 0.30149
 C460 C 1.34763 0.63309 0.30963
 C461 C 1.33664 0.64058 0.32851
 C462 C 1.34464 0.65881 0.34005
 C463 C 1.37106 0.68805 0.34381
 C464 C 1.36084 0.69533 0.36345
 C465 C 1.34220 0.68401 0.37097
 C466 C 1.33391 0.66612 0.35929
 C467 C 1.31472 0.65574 0.36630
 C468 C 1.30614 0.63806 0.35439
 C469 C 1.31747 0.63034 0.33574
 H470 H 1.38845 0.67081 0.30774
 H471 H 1.34078 0.61944 0.30071
 H472 H 1.38576 0.69588 0.33789
 H473 H 1.33337 0.68965 0.38539
 H474 H 1.30606 0.66190 0.38063
 H475 H 1.31125 0.61642 0.32674
 C476 C 1.35581 1.16365 0.83530
 C477 C 1.36216 1.15377 0.81528
 C478 C 1.34888 1.13785 0.80526
 C479 C 1.32916 1.13186 0.81544
 C480 C 1.32267 1.14138 0.83543
 C481 C 1.33613 1.15717 0.84548
 C482 C 1.36867 1.17993 0.84529
 C483 C 1.36267 1.18896 0.86595
 C484 C 1.34316 1.18189 0.87594
 C485 C 1.32973 1.16662 0.86568
 C486 C 1.30974 1.16097 0.87526
 C487 C 1.29618 1.14564 0.86515
 C488 C 1.30283 1.13554 0.84545
 H489 H 1.37724 1.15862 0.80734
 H490 H 1.31893 1.11957 0.80785
 H491 H 1.38374 1.18489 0.83739
 H492 H 1.33759 1.18923 0.89124
 H493 H 1.30464 1.16850 0.89064
 H494 H 1.29231 1.12358 0.83773
 C495 C 0.87282 0.65538 0.84360
 C496 C 0.88254 0.64118 0.82853
 C497 C 0.87193 0.62205 0.82207
 C498 C 0.85130 0.61704 0.83088
 C499 C 0.84150 0.63096 0.84650
 C500 C 0.85236 0.65022 0.85288
 C501 C 0.88315 0.67487 0.84921
 C502 C 0.87350 0.68917 0.86431
 C503 C 0.85346 0.68382 0.87415
 C504 C 0.84268 0.66451 0.86830
 C505 C 0.82226 0.65944 0.87733
 C506 C 0.81115 0.64041 0.87098
 C507 C 0.82096 0.62619 0.85560
 H508 H 0.89821 0.64527 0.82130
 H509 H 0.84301 0.60235 0.82563
 H510 H 0.89874 0.67899 0.84184
 H511 H 0.84607 0.69498 0.88585
 H512 H 0.81499 0.67033 0.88934
 H513 H 0.81241 0.61165 0.85040
 C514 C 0.87227 1.16084 0.34842
 C515 C 0.88367 1.15224 0.33029
 C516 C 0.87470 1.13533 0.31735
 C517 C 0.85419 1.12682 0.32364
 C518 C 0.84270 1.13526 0.34170
 C519 C 0.85171 1.15234 0.35419
 C520 C 0.88081 1.17836 0.36040
 C521 C 0.86909 1.18754 0.37806
 C522 C 0.84884 1.17864 0.38412
 C523 C 0.83999 1.16116 0.37220
 C524 C 0.81933 1.15280 0.37751
 C525 C 0.81017 1.13592 0.36488
 C526 C 0.82207 1.12711 0.34718
 H527 H 0.89897 1.15976 0.32566
 H528 H 0.84719 1.11315 0.31489
 H529 H 0.89655 1.18505 0.35585
 H530 H 0.83965 1.18582 0.39759
 H531 H 0.81011 1.15982 0.39105
 H532 H 0.81515 1.11393 0.33755
 C533 C 0.63813 0.34040 0.33398
 C534 C 0.63221 0.35072 0.31419
 C535 C 0.64583 0.36652 0.30426
 C536 C 0.66544 0.37207 0.31522
 C537 C 0.67152 0.36190 0.33506
 C538 C 0.65794 0.34586 0.34438
 C539 C 0.62475 0.32427 0.34323
 C540 C 0.63101 0.31337 0.36264
 C541 C 0.65078 0.31895 0.37297
 C542 C 0.66428 0.33510 0.36398
 C543 C 0.68412 0.34050 0.37414
 C544 C 0.69762 0.35667 0.36508
 C545 C 0.69116 0.36737 0.34560
 H546 H 0.61746 0.34534 0.30603
 H547 H 0.67588 0.38478 0.30879
 H548 H 0.60969 0.31980 0.33502
 H549 H 0.65562 0.31072 0.38806
 H550 H 0.68901 0.33227 0.38921
 H551 H 0.70171 0.37961 0.33839
 C552 C 0.63062 0.84444 0.84195
 C553 C 0.62570 0.85314 0.82105
 C554 C 0.63805 0.87044 0.81242
 C555 C 0.65480 0.87955 0.82516
 C556 C 0.65978 0.87113 0.84604
 C557 C 0.64796 0.85327 0.85440
 C558 C 0.61877 0.82682 0.85043
 C559 C 0.62432 0.81757 0.87093
 C560 C 0.64187 0.82619 0.88310
 C561 C 0.65365 0.84414 0.87506
 C562 C 0.67108 0.85308 0.88718
 C563 C 0.68242 0.87127 0.87901
 C564 C 0.67667 0.88015 0.85849
 H565 H 0.61272 0.84608 0.81124
 H566 H 0.66404 0.89319 0.81873
 H567 H 0.60549 0.81995 0.84088
 H568 H 0.64616 0.81907 0.89892
 H569 H 0.67569 0.84611 0.90298
 H570 H 0.68577 0.89388 0.85201
 C571 C 0.14356 0.31911 0.83165
 C572 C 0.13102 0.32984 0.81565
 C573 C 0.13886 0.34866 0.80512
 C574 C 0.15948 0.35692 0.81099
 C575 C 0.17222 0.34642 0.82713
 C576 C 0.16427 0.32730 0.83730
 C577 C 0.13577 0.30014 0.84184
 C578 C 0.14843 0.28886 0.85770
 C579 C 0.16916 0.29733 0.86310
 C580 C 0.17705 0.31632 0.85310
 C581 C 0.19756 0.32452 0.85882
 C582 C 0.20559 0.34360 0.84902
 C583 C 0.19281 0.35458 0.83322
 H584 H 0.11526 0.32327 0.81100
 H585 H 0.16553 0.37154 0.80307
 H586 H 0.12017 0.29377 0.83653
 H587 H 0.17902 0.28978 0.87582
 H588 H 0.20726 0.31617 0.87121
 H589 H 0.19902 0.36925 0.82551
 C590 C 0.12420 0.85040 0.36022
 C591 C 0.11119 0.85751 0.34246
 C592 C 0.11707 0.87604 0.32994
 C593 C 0.13543 0.88818 0.33677
 C594 C 0.14834 0.88143 0.35454
 C595 C 0.14301 0.86222 0.36603
 C596 C 0.11920 0.83109 0.37160
 C597 C 0.13315 0.82292 0.38833
 C598 C 0.15184 0.83514 0.39394
 C599 C 0.15674 0.85465 0.38306
 C600 C 0.17547 0.86652 0.38869
 C601 C 0.18066 0.88585 0.37747
 C602 C 0.16694 0.89330 0.36053
 H603 H 0.09741 0.84762 0.33756
 H604 H 0.13967 0.90321 0.32845
 H605 H 0.10514 0.82181 0.36631
 H606 H 0.16242 0.82989 0.40726
 H607 H 0.18607 0.86072 0.40178
 H608 H 0.17117 0.90796 0.35153
 O609 O 1.06879 1.02733 1.11252
 O610 O 1.09315 1.03114 1.13905
 C611 C 1.07507 1.03645 1.13022
 C612 C 1.06165 1.05389 1.14032
 C613 C 1.06756 1.06267 1.16089
 H614 H 1.08099 1.05550 1.16996
 O615 O 0.91905 0.97233 1.11304
 O616 O 0.89356 0.97102 1.13873
 C617 C 0.91189 0.96481 1.13123
 C618 C 0.92473 0.94810 1.14325
 C619 C 0.91738 0.93960 1.16357
 H620 H 0.90252 0.94576 1.17098
 O621 O 1.00611 1.11238 1.07718
 O622 O 1.00374 1.13811 1.10247
 C623 C 1.01225 1.13060 1.08489
 C624 C 1.03004 1.14265 1.07367
 C625 C 1.03637 1.16343 1.08090
 H626 H 1.02770 1.17109 1.09444
 O627 O 0.98533 0.88821 1.08672
 O628 O 0.98656 0.86347 1.11313
 C629 C 0.97927 0.87005 1.09465
 C630 C 0.96329 0.85683 1.08224
 C631 C 0.95825 0.83538 1.08862
 H632 H 0.96627 0.82805 1.10274
 O633 O 1.09823 1.08483 1.02511
 O634 O 1.12218 1.11158 1.02443
 C635 C 1.11542 1.09372 1.03251
 C636 C 1.12737 1.08305 1.05082
 C637 C 1.14823 1.09014 1.05730
 H638 H 1.15600 1.10350 1.04866
 O639 O 0.89709 0.91008 1.02633
 O640 O 0.87444 0.88222 1.02680
 C641 C 0.88022 0.90076 1.03398
 C642 C 0.86749 0.91133 1.05176
 C643 C 0.84848 0.90157 1.05994
 H644 H 0.84256 0.88663 1.05257
 O645 O 0.96546 1.07959 1.10698
 O646 O 0.96296 1.10519 1.13239
 C647 C 0.95721 1.08677 1.12482
 C648 C 0.94048 1.07377 1.13660
 C649 C 0.93107 1.08159 1.15626
 H650 H 0.93630 1.09703 1.16305
 O651 O 1.02361 0.92243 1.11739
 O652 O 1.02510 0.89798 1.14406
 C653 C 1.03111 0.91603 1.13587
 C654 C 1.04742 0.92959 1.14744
 C655 C 1.05669 0.92286 1.16760
 H656 H 1.05153 0.90770 1.17507
 O657 O 1.10382 0.98612 1.08613
 O658 O 1.12804 0.98962 1.11284
 C659 C 1.12176 0.98058 1.09504
 C660 C 1.13509 0.96301 1.08498
 C661 C 1.15432 0.95585 1.09529
 H662 H 1.16002 0.96394 1.11011
 O663 O 0.88572 1.01059 1.08064
 O664 O 0.86000 1.00913 1.10611
 C665 C 0.86720 1.01656 1.08791
 C666 C 0.85424 1.03272 1.07534
 C667 C 0.83274 1.03768 1.08159
 H668 H 0.82539 1.02930 1.09548
 O669 O 0.90733 1.10021 1.02025
 O670 O 0.87922 1.12260 1.01848
 C671 C 0.89761 1.11740 1.02655
 C672 C 0.90766 1.13112 1.04377
 C673 C 0.89823 1.15100 1.04997
 H674 H 0.88401 1.15688 1.04117
 O675 O 1.08612 0.89476 1.03037
 O676 O 1.11350 0.87150 1.03153
 C677 C 1.09509 0.87792 1.03862
 C678 C 1.08413 0.86635 1.05714
 C679 C 1.09281 0.84702 1.06623
 H680 H 1.10739 0.83981 1.05923
 O681 O 0.91573 1.01476 1.11030
 O682 O 0.89014 1.01354 1.13590
 C683 C 0.90707 1.02238 1.12770
 C684 C 0.91622 1.04220 1.13807
 C685 C 0.90710 1.05030 1.15767
 H686 H 0.89418 1.04136 1.16583
 O687 O 1.07362 0.98519 1.11616
 O688 O 1.09787 0.98918 1.14278
 C689 C 1.08133 0.97958 1.13483
 C690 C 1.07165 0.96105 1.14697
 C691 C 1.08041 0.95438 1.16728
 H692 H 1.09315 0.96398 1.17491
 O693 O 1.02754 0.89293 1.08717
 O694 O 1.02880 0.86836 1.11374
 C695 C 1.03620 0.87619 1.09579
 C696 C 1.05534 0.86590 1.08516
 C697 C 1.06429 0.84685 1.09405
 H698 H 1.05664 0.83926 1.10825
 O699 O 0.96350 1.10947 1.07681
 O700 O 0.96098 1.13521 1.10206
 C701 C 0.95440 1.12658 1.08421
 C702 C 0.93553 1.13581 1.07213
 C703 C 0.92575 1.15559 1.07843
 H704 H 0.93240 1.16465 1.09222
 O705 O 0.88145 1.06697 1.02157
 O706 O 0.85319 1.08915 1.01976
 C707 C 0.86271 1.07277 1.02829
 C708 C 0.85211 1.06040 1.04635
 C709 C 0.83064 1.06514 1.05285
 H710 H 0.82147 1.07755 1.04413
 O711 O 1.11211 0.92800 1.02993
 O712 O 1.13962 0.90490 1.03123
 C713 C 1.13012 0.92196 1.03830
 C714 C 1.13940 0.93444 1.05709
 C715 C 1.15864 0.92755 1.06767
 H716 H 1.16732 0.91343 1.06151
 O717 O 0.98138 0.91977 1.11482
 O718 O 0.98277 0.89523 1.14140
 C719 C 0.97412 0.91204 1.13282
 C720 C 0.95513 0.92231 1.14374
 C721 C 0.94766 0.91423 1.16401
 H722 H 0.95656 0.90123 1.17211
 O723 O 1.00770 1.08259 1.10726
 O724 O 1.00531 1.10817 1.13271
 C725 C 1.01416 1.09093 1.12528
 C726 C 1.03231 1.08073 1.13765
 C727 C 1.03896 1.08966 1.15787
 H728 H 1.03082 1.10403 1.16413
 O729 O 0.88997 0.96844 1.08232
 O730 O 0.86436 0.96694 1.10789
 C731 C 0.87298 0.95960 1.09029
 C732 C 0.86373 0.94019 1.07927
 C733 C 0.84460 0.93025 1.08719
 H734 H 0.83598 0.93720 1.10115
 O735 O 1.10064 1.02847 1.08422
 O736 O 1.12512 1.03185 1.11072
 C737 C 1.11754 1.03758 1.09208
 C738 C 1.12835 1.05525 1.07966
 C739 C 1.14919 1.06237 1.08579
 H740 H 1.15752 1.05460 1.09949
 O741 O 0.92968 0.88313 1.02705
 O742 O 0.90699 0.85528 1.02727
 C743 C 0.92388 0.86474 1.03462
 C744 C 0.93659 0.85434 1.05243
 C745 C 0.93219 0.83284 1.05859
 H746 H 0.91991 0.82360 1.04976
 O747 O 1.06669 1.11283 1.02307
 O748 O 1.09033 1.13983 1.02231
 C749 C 1.07291 1.13138 1.02981
 C750 C 1.05992 1.14290 1.04686
 C751 C 1.06599 1.16369 1.05426
 H752 H 1.07982 1.17181 1.04677
 Cu753 Cu 1.08427 1.00641 1.09709
 Cu754 Cu 1.11345 1.01089 1.12901
 Cu755 Cu 0.90520 0.99162 1.09404
 Cu756 Cu 0.87450 0.99007 1.12479
 Cu757 Cu 0.98586 1.09355 1.08939
 Cu758 Cu 0.98302 1.12427 1.11995
 Cu759 Cu 1.00432 0.90828 1.09885
 Cu760 Cu 1.00590 0.87878 1.13077
 C761 C 1.04373 1.06281 1.12895
 H762 H 1.03909 1.05622 1.11303
 C763 C 1.05654 1.08078 1.16966
 C764 C 0.94371 0.93941 1.13356
 H765 H 0.94927 0.94551 1.11773
 C766 C 0.92871 0.92250 1.17392
 C767 C 1.04179 1.13266 1.05650
 H768 H 1.03722 1.11650 1.05108
 C769 C 1.05434 1.17409 1.07130
 C770 C 0.95242 0.86610 1.06405
 H771 H 0.95578 0.88277 1.05934
 C772 C 0.94290 0.82326 1.07657
 C773 C 1.11767 1.06550 1.06202
 H774 H 1.10151 1.06008 1.05734
 C775 C 1.15935 1.07962 1.07462
 C776 C 0.87489 0.93071 1.06139
 H777 H 0.88978 0.93811 1.05536
 C778 C 0.83697 0.91085 1.07765
 C779 C 0.93304 1.05396 1.12771
 H780 H 0.93993 1.04798 1.11238
 C781 C 0.91428 1.07002 1.16676
 C782 C 1.05493 0.94877 1.13737
 H783 H 1.04830 0.95375 1.12156
 C784 C 1.07336 0.93510 1.17757
 C785 C 1.12790 0.95233 1.06579
 H786 H 1.11286 0.95754 1.05799
 C787 C 1.16612 0.93806 1.08688
 C788 C 0.86370 1.04403 1.05758
 H789 H 0.88037 1.04045 1.05284
 C790 C 0.82081 1.05384 1.07042
 C791 C 0.92641 1.12387 1.05470
 H792 H 0.93359 1.10842 1.05003
 C793 C 0.90705 1.16337 1.06735
 C794 C 1.06527 0.87546 1.06666
 H795 H 1.05856 0.89040 1.05999
 C796 C 1.08297 0.83731 1.08484
 O797 O 1.07863 0.97886 0.89455
 O798 O 1.10455 0.98108 0.86934
 C799 C 1.08737 0.97215 0.87676
 C800 C 1.07795 0.95323 0.86508
 C801 C 1.08748 0.94550 0.84553
 H802 H 1.10108 0.95419 0.83825
 O803 O 0.91883 1.00678 0.89229
 O804 O 0.89372 1.00419 0.86631
 C805 C 0.91066 1.01326 0.87415
 C806 C 0.92047 1.03207 0.86255
 C807 C 0.91136 1.03971 0.84273
 H808 H 0.89787 1.03105 0.83524
 O809 O 0.96757 1.09985 0.92115
 O810 O 0.96601 1.12462 0.89478
 C811 C 0.95896 1.11682 0.91285
 C812 C 0.94040 1.12746 0.92414
 C813 C 0.93375 1.14840 0.91794
 H814 H 0.94247 1.15688 0.90495
 O815 O 1.02974 0.88981 0.92598
 O816 O 1.03256 0.86331 0.90157
 C817 C 1.03886 0.87247 0.91931
 C818 C 1.05718 0.86300 0.93213
 C819 C 1.06643 0.84310 0.92566
 H820 H 1.05994 0.83447 0.91150
 O821 O 1.11368 0.92598 0.98653
 O822 O 1.14121 0.90288 0.98748
 C823 C 1.13191 0.91939 0.97901
 C824 C 1.14171 0.93050 0.95955
 C825 C 1.16081 0.92232 0.94949
 H826 H 1.16891 0.90822 0.95644
 O827 O 0.88241 1.06458 0.97875
 O828 O 0.85439 1.08705 0.97680
 C829 C 0.86408 1.06983 0.97059
 C830 C 0.85418 1.05622 0.95317
 C831 C 0.83332 1.06121 0.94522
 H832 H 0.82392 1.07386 0.95325
 O833 O 1.01328 1.07302 0.89245
 O834 O 1.01123 1.09761 0.86596
 C835 C 1.02036 1.08104 0.87447
 C836 C 1.04009 1.07183 0.86388
 C837 C 1.04910 1.08207 0.84530
 H838 H 1.04058 1.09564 0.83778
 O839 O 0.98485 0.91331 0.89358
 O840 O 0.98732 0.88690 0.86904
 C841 C 0.97809 0.90408 0.87609
 C842 C 0.95875 0.91313 0.86455
 C843 C 0.95028 0.90327 0.84535
 H844 H 0.95838 0.88931 0.83811
 O845 O 1.10409 1.02320 0.92601
 O846 O 1.13045 1.02478 0.90121
 C847 C 1.12170 1.03155 0.91897
 C848 C 1.13205 1.04950 0.93128
 C849 C 1.15342 1.05572 0.92622
 H850 H 1.16245 1.04697 0.91363
 O851 O 0.89183 0.96299 0.92307
 O852 O 0.86656 0.96020 0.89728
 C853 C 0.87472 0.95400 0.91553
 C854 C 0.86478 0.93578 0.92795
 C855 C 0.84502 0.92626 0.92117
 H856 H 0.83636 0.93268 0.90698
 O857 O 1.06715 1.11009 0.98019
 O858 O 1.09081 1.13707 0.97911
 C859 C 1.07370 1.12783 0.97180
 C860 C 1.06151 1.13747 0.95306
 C861 C 1.06793 1.15747 0.94398
 H862 H 1.08136 1.16636 0.95130
 O863 O 0.93046 0.88279 0.98415
 O864 O 0.90774 0.85497 0.98466
 C865 C 0.92480 0.86414 0.97723
 C866 C 0.93795 0.85302 0.96017
 C867 C 0.93362 0.83130 0.95486
 H868 H 0.92088 0.82261 0.96361
 O869 O 0.92237 0.96446 0.89347
 O870 O 0.89716 0.96182 0.86760
 C871 C 0.91536 0.95597 0.87571
 C872 C 0.92806 0.93860 0.86472
 C873 C 0.91985 0.92854 0.84572
 H874 H 0.90470 0.93423 0.83851
 O875 O 1.07586 1.02140 0.89414
 O876 O 1.10211 1.02363 0.86931
 C877 C 1.08365 1.02972 0.87657
 C878 C 1.07135 1.04711 0.86496
 C879 C 1.08030 1.05786 0.84646
 H880 H 1.09616 1.05307 0.84021
 O881 O 0.98768 0.88523 0.92522
 O882 O 0.99033 0.85859 0.90094
 C883 C 0.98214 0.86646 0.91852
 C884 C 0.96574 0.85400 0.93123
 C885 C 0.96091 0.83226 0.92588
 H886 H 0.96950 0.82421 0.91253
 O887 O 1.01007 1.10343 0.92179
 O888 O 1.00829 1.12799 0.89524
 C889 C 1.01619 1.12141 0.91348
 C890 C 1.03321 1.13444 0.92473
 C891 C 1.03988 1.15450 0.91591
 H892 H 1.03206 1.16081 0.90117
 O893 O 0.89710 0.90870 0.98317
 O894 O 0.87436 0.88091 0.98377
 C895 C 0.88028 0.89907 0.97580
 C896 C 0.86775 0.90882 0.95745
 C897 C 0.84819 0.89934 0.95034
 H898 H 0.84176 0.88524 0.95889
 O899 O 1.09949 1.08305 0.98225
 O900 O 1.12345 1.10978 0.98143
 C901 C 1.11704 1.09124 0.97482
 C902 C 1.12987 1.07903 0.95819
 C903 C 1.15127 1.08531 0.95262
 H904 H 1.15876 1.09913 0.96071
 O905 O 1.02716 0.91733 0.89365
 O906 O 1.03004 0.89110 0.86897
 C907 C 1.03561 0.90973 0.87611
 C908 C 1.05263 0.92254 0.86458
 C909 C 1.06233 0.91505 0.84490
 H910 H 1.05678 0.90004 0.83739
 O911 O 0.97076 1.06918 0.89184
 O912 O 0.96876 1.09386 0.86544
 C913 C 0.96282 1.07577 0.87363
 C914 C 0.94595 1.06265 0.86229
 C915 C 0.93659 1.07002 0.84245
 H916 H 0.94222 1.08506 0.83505
 O917 O 0.88880 1.00517 0.92221
 O918 O 0.86363 1.00239 0.89631
 C919 C 0.87056 1.01088 0.91410
 C920 C 0.85746 1.02785 0.92520
 C921 C 0.83688 1.03370 0.91686
 H922 H 0.83066 1.02567 0.90224
 O923 O 1.10761 0.98093 0.92575
 O924 O 1.13347 0.98271 0.90046
 C925 C 1.12599 0.97473 0.91831
 C926 C 1.13855 0.95755 0.92998
 C927 C 1.15777 0.94939 0.92051
 H928 H 1.16400 0.95669 0.90548
 O929 O 1.08524 0.89519 0.98721
 O930 O 1.11256 0.87182 0.98817
 C931 C 1.09441 0.87806 0.98010
 C932 C 1.08422 0.86566 0.96181
 C933 C 1.09332 0.84584 0.95489
 H934 H 1.10731 0.83915 0.96349
 O935 O 0.90846 1.09771 0.97748
 O936 O 0.88066 1.12047 0.97559
 C937 C 0.89937 1.11431 0.96899
 C938 C 0.91088 1.12630 0.95126
 C939 C 0.90429 1.14730 0.94472
 H940 H 0.89057 1.15509 0.95280
 Cu941 Cu 1.08885 1.00092 0.91255
 Cu942 Cu 1.12023 1.00327 0.88255
 Cu943 Cu 0.90799 0.98508 0.91037
 Cu944 Cu 0.87779 0.98188 0.87919
 Cu945 Cu 1.08054 1.09502 1.00276
 Cu946 Cu 1.10903 1.12734 1.00172
 Cu947 Cu 1.09665 0.91333 1.00851
 Cu948 Cu 1.12952 0.88552 1.00968
 Cu949 Cu 0.89775 1.08016 0.99971
 Cu950 Cu 0.86397 1.10703 0.99744
 Cu951 Cu 0.91581 0.89906 1.00514
 Cu952 Cu 0.88855 0.86558 1.00565
 Cu953 Cu 0.99055 1.08387 0.90946
 Cu954 Cu 0.98833 1.11343 0.87765
 Cu955 Cu 1.00707 0.90412 0.91196
 Cu956 Cu 1.01040 0.87234 0.88262
 C957 C 1.06040 0.94179 0.87432
 H958 H 1.05328 0.94749 0.88966
 C959 C 1.07988 0.92642 0.83540
 C960 C 0.93792 1.04353 0.87209
 H961 H 0.94476 1.03797 0.88762
 C962 C 0.91919 1.05875 0.83268
 C963 C 0.92902 1.11662 0.94094
 H964 H 0.93408 1.10039 0.94571
 C965 C 0.91595 1.15859 0.92830
 C966 C 1.06604 0.87408 0.95040
 H967 H 1.05915 0.88956 0.95538
 C968 C 1.08448 0.83449 0.93691
 C969 C 1.13076 0.94816 0.94962
 H970 H 1.11576 0.95421 0.95684
 C971 C 1.16877 0.93151 0.92975
 C972 C 0.86601 1.03922 0.94336
 H973 H 0.88219 1.03533 0.94940
 C974 C 0.82471 1.05047 0.92670
 C975 C 1.05119 1.05420 0.87345
 H976 H 1.04444 1.04645 0.88801
 C977 C 1.06938 1.07559 0.83673
 C978 C 0.94761 0.93093 0.87391
 H979 H 0.95377 0.93843 0.88886
 C980 C 0.93066 0.91083 0.83607
 C981 C 1.12049 1.06100 0.94752
 H982 H 1.10390 1.05626 0.95140
 C983 C 1.16321 1.07344 0.93685
 C984 C 0.87583 0.92709 0.94629
 H985 H 0.89115 0.93417 0.95151
 C986 C 0.83672 0.90795 0.93230
 C987 C 1.04399 1.12616 0.94344
 H988 H 1.03916 1.11054 0.95012
 C989 C 1.05728 1.16605 0.92535
 C990 C 0.95426 0.86418 0.94852
 H991 H 0.95755 0.88104 0.95251
 C992 C 0.94498 0.82080 0.93784
 O993 O 0.98472 0.42896 0.38661
 O994 O 0.98535 0.40589 0.35871
 C995 C 0.97751 0.42275 0.36797
 C996 C 0.95954 0.43510 0.35733
 C997 C 0.95245 0.42985 0.33587
 H998 H 0.96052 0.41703 0.32668
 O999 O 1.02240 0.59053 0.39611
 O1000 O 1.02144 0.61729 0.37182
 C1001 C 1.02960 0.59950 0.37861
 C1002 C 1.04789 0.58935 0.36631
 C1003 C 1.05546 0.59856 0.34650
 H1004 H 1.04723 0.61267 0.33973
 O1005 O 0.89514 0.48316 0.42056
 O1006 O 0.87007 0.48418 0.39443
 C1007 C 0.87769 0.47586 0.41204
 C1008 C 0.86637 0.45729 0.42252
 C1009 C 0.84544 0.45116 0.41556
 H1010 H 0.83751 0.46024 0.40247
 O1011 O 1.10917 0.53285 0.42293
 O1012 O 1.13514 0.53490 0.39778
 C1013 C 1.12695 0.54103 0.41606
 C1014 C 1.13793 0.55816 0.42924
 C1015 C 1.15887 0.56553 0.42345
 H1016 H 1.16741 0.55802 0.40975
 O1017 O 0.92691 0.39214 0.47207
 O1018 O 0.90176 0.36661 0.46995
 C1019 C 0.91951 0.37499 0.46316
 C1020 C 0.93142 0.36516 0.44432
 C1021 C 0.92411 0.34574 0.43462
 H1022 H 0.90984 0.33767 0.44125
 O1023 O 1.07719 0.61668 0.48699
 O1024 O 1.10200 0.64255 0.48877
 C1025 C 1.08434 0.63510 0.48082
 C1026 C 1.07200 0.64749 0.46388
 C1027 C 1.07673 0.66942 0.45915
 H1028 H 1.08929 0.67777 0.46843
 O1029 O 0.92450 0.52798 0.39355
 O1030 O 0.89963 0.52880 0.36721
 C1031 C 0.91712 0.53603 0.37572
 C1032 C 0.92884 0.55415 0.36490
 C1033 C 0.92328 0.56064 0.34338
 H1034 H 0.91088 0.55177 0.33437
 O1035 O 1.08076 0.49144 0.38970
 O1036 O 1.10665 0.49351 0.36447
 C1037 C 1.08918 0.48491 0.37169
 C1038 C 1.07926 0.46637 0.35964
 C1039 C 1.08933 0.45811 0.34053
 H1040 H 1.10351 0.46625 0.33376
 O1041 O 1.02757 0.39729 0.41422
 O1042 O 1.02818 0.37357 0.38689
 C1043 C 1.03531 0.38015 0.40543
 C1044 C 1.05300 0.36825 0.41705
 C1045 C 1.06000 0.34741 0.41032
 H1046 H 1.05232 0.33946 0.39638
 O1047 O 0.97804 0.61680 0.42734
 O1048 O 0.97683 0.64336 0.40285
 C1049 C 0.96963 0.63443 0.42030
 C1050 C 0.95092 0.64420 0.43227
 C1051 C 0.94156 0.66396 0.42522
 H1052 H 0.94841 0.67251 0.41117
 O1053 O 0.89150 0.58004 0.48344
 O1054 O 0.86512 0.60440 0.48541
 C1055 C 0.87338 0.58750 0.47660
 C1056 C 0.86230 0.57652 0.45788
 C1057 C 0.84136 0.58291 0.45083
 H1058 H 0.83274 0.59573 0.45950
 O1059 O 1.11120 0.42756 0.47415
 O1060 O 1.13791 0.40353 0.47272
 C1061 C 1.12923 0.42116 0.46604
 C1062 C 1.13995 0.43408 0.44831
 C1063 C 1.15948 0.42672 0.43858
 H1064 H 1.16684 0.41168 0.44423
 O1065 O 0.98008 0.58749 0.39673
 O1066 O 0.97908 0.61389 0.37201
 C1067 C 0.97257 0.59546 0.37895
 C1068 C 0.95590 0.58323 0.36645
 C1069 C 0.95001 0.58962 0.34499
 H1070 H 0.95784 0.60359 0.33750
 O1071 O 1.02727 0.43005 0.38718
 O1072 O 1.02815 0.40655 0.35966
 C1073 C 1.03514 0.42381 0.36882
 C1074 C 1.05306 0.43635 0.35838
 C1075 C 1.06342 0.42840 0.33929
 H1076 H 1.05791 0.41333 0.33190
 O1077 O 1.11006 0.49034 0.42034
 O1078 O 1.13594 0.49250 0.39510
 C1079 C 1.12802 0.48364 0.41233
 C1080 C 1.13944 0.46478 0.42246
 C1081 C 1.15908 0.45727 0.41327
 H1082 H 1.16651 0.46621 0.39980
 O1083 O 0.89384 0.52562 0.42312
 O1084 O 0.86887 0.52651 0.39689
 C1085 C 0.87599 0.53301 0.41547
 C1086 C 0.86365 0.54963 0.42810
 C1087 C 0.84264 0.55599 0.42149
 H1088 H 0.83514 0.54831 0.40728
 O1089 O 0.92042 0.61056 0.48486
 O1090 O 0.89418 0.63508 0.48664
 C1091 C 0.91203 0.62838 0.47842
 C1092 C 0.92279 0.64113 0.46074
 C1093 C 0.91373 0.66086 0.45352
 H1094 H 0.89938 0.66730 0.46170
 O1095 O 1.08306 0.39617 0.47306
 O1096 O 1.10964 0.37196 0.47193
 C1097 C 1.09148 0.37911 0.46485
 C1098 C 1.08021 0.36780 0.44659
 C1099 C 1.08667 0.34692 0.44004
 H1100 H 1.09971 0.33868 0.44880
 O1101 O 1.08026 0.53420 0.39156
 O1102 O 1.10608 0.53632 0.36628
 C1103 C 1.08811 0.54300 0.37426
 C1104 C 1.07647 0.56165 0.36393
 C1105 C 1.08392 0.57118 0.34410
 H1106 H 1.09810 0.56451 0.33582
 O1107 O 0.92577 0.48570 0.39113
 O1108 O 0.90077 0.48668 0.36492
 C1109 C 0.91865 0.47931 0.37251
 C1110 C 0.93099 0.46289 0.35964
 C1111 C 0.92440 0.45760 0.33811
 H1112 H 0.91057 0.46590 0.33077
 O1113 O 1.02058 0.61766 0.42886
 O1114 O 1.01941 0.64457 0.40474
 C1115 C 1.02705 0.63618 0.42235
 C1116 C 1.04383 0.64783 0.43529
 C1117 C 1.04875 0.66961 0.43073
 H1118 H 1.04009 0.67793 0.41760
 O1119 O 0.98507 0.39727 0.41476
 O1120 O 0.98552 0.37393 0.38708
 C1121 C 0.97788 0.38013 0.40558
 C1122 C 0.96003 0.36769 0.41623
 C1123 C 0.95263 0.34812 0.40693
 H1124 H 0.96087 0.34150 0.39258
 O1125 O 1.10726 0.58697 0.48466
 O1126 O 1.13240 0.61253 0.48653
 C1127 C 1.12500 0.59523 0.47781
 C1128 C 1.13694 0.58471 0.45935
 C1129 C 1.15785 0.59187 0.45327
 H1130 H 1.16537 0.60513 0.46226
 O1131 O 0.89613 0.42107 0.47347
 O1132 O 0.87078 0.39570 0.47160
 C1133 C 0.87835 0.41394 0.46544
 C1134 C 0.86664 0.42693 0.44856
 C1135 C 0.84558 0.42108 0.44152
 H1136 H 0.83747 0.40729 0.44903
 Cu1137 Cu 1.00614 0.41569 0.40345
 Cu1138 Cu 1.00684 0.38769 0.37026
 Cu1139 Cu 1.00039 0.60050 0.41472
 Cu1140 Cu 0.99910 0.63247 0.38541
 Cu1141 Cu 0.91227 0.50556 0.40978
 Cu1142 Cu 0.88231 0.50665 0.37825
 Cu1143 Cu 1.09242 0.51212 0.40859
 Cu1144 Cu 1.12350 0.51457 0.37836
 C1145 C 0.94876 0.45177 0.36903
 H1146 H 0.95381 0.45568 0.38572
 C1147 C 0.93498 0.44116 0.32613
 C1148 C 1.05836 0.57081 0.37474
 H1149 H 1.05271 0.56381 0.39015
 C1150 C 1.07350 0.58972 0.33527
 C1151 C 0.87676 0.44519 0.43913
 H1152 H 0.89304 0.44971 0.44436
 C1153 C 0.83476 0.43322 0.42509
 C1154 C 1.12720 0.56773 0.44733
 H1155 H 1.11098 0.56228 0.45176
 C1156 C 1.16901 0.58232 0.43541
 C1157 C 0.94949 0.37592 0.43508
 H1158 H 0.95496 0.39114 0.44218
 C1159 C 0.93461 0.33708 0.41591
 C1160 C 1.05538 0.63699 0.45200
 H1161 H 1.05176 0.62007 0.45538
 C1162 C 1.06494 0.68068 0.44272
 C1163 C 0.94535 0.56536 0.37621
 H1164 H 0.94960 0.56052 0.39289
 C1165 C 0.93381 0.57833 0.33328
 C1166 C 1.06100 0.45546 0.36834
 H1167 H 1.05342 0.46144 0.38333
 C1168 C 1.08170 0.43902 0.33040
 C1169 C 1.06322 0.37817 0.43523
 H1170 H 1.05826 0.39435 0.44028
 C1171 C 1.07662 0.33657 0.42207
 C1172 C 0.94149 0.63304 0.45016
 H1173 H 0.94836 0.61766 0.45547
 C1174 C 0.92286 0.67233 0.43570
 C1175 C 0.87319 0.55979 0.44646
 H1176 H 0.88945 0.55502 0.45153
 C1177 C 0.83133 0.57251 0.43278
 C1178 C 1.13008 0.45318 0.44014
 H1179 H 1.11478 0.45871 0.44714
 C1180 C 1.16907 0.43811 0.42092
 O1181 O 1.02502 0.41499 0.60512
 O1182 O 1.02605 0.38835 0.62954
 C1183 C 1.03306 0.40655 0.62250
 C1184 C 1.05126 0.41772 0.63406
 C1185 C 1.06192 0.40776 0.65208
 H1186 H 1.05638 0.39215 0.65821
 O1187 O 0.97852 0.57422 0.61666
 O1188 O 0.97683 0.59819 0.64372
 C1189 C 0.97015 0.58076 0.63469
 C1190 C 0.95198 0.56827 0.64466
 C1191 C 0.94159 0.57553 0.66408
 H1192 H 0.94739 0.58993 0.67255
 O1193 O 0.89407 0.51602 0.58030
 O1194 O 0.86841 0.51334 0.60573
 C1195 C 0.87606 0.52236 0.58850
 C1196 C 0.86428 0.54094 0.57845
 C1197 C 0.84450 0.54821 0.58755
 H1198 H 0.83720 0.53934 0.60114
 O1199 O 1.10860 0.48044 0.57856
 O1200 O 1.13444 0.47941 0.60392
 C1201 C 1.12687 0.47334 0.58540
 C1202 C 1.13922 0.45733 0.57218
 C1203 C 1.16013 0.45091 0.57894
 H1204 H 1.16767 0.45843 0.59324
 O1205 O 1.08331 0.39397 0.51607
 O1206 O 1.11012 0.37003 0.51492
 C1207 C 1.09191 0.37630 0.52273
 C1208 C 1.08073 0.36314 0.53995
 C1209 C 1.08892 0.34270 0.54631
 H1210 H 1.10347 0.33637 0.53842
 O1211 O 0.92153 0.60751 0.52783
 O1212 O 0.89579 0.63257 0.52963
 C1213 C 0.91386 0.62478 0.53633
 C1214 C 0.92608 0.63572 0.55427
 C1215 C 0.92159 0.65745 0.55982
 H1216 H 0.90940 0.66642 0.55059
 O1217 O 0.92524 0.47244 0.60778
 O1218 O 0.89964 0.47008 0.63330
 C1219 C 0.91773 0.46378 0.62527
 C1220 C 0.92996 0.44606 0.63631
 C1221 C 0.92419 0.43939 0.65767
 H1222 H 0.91081 0.44743 0.66609
 O1223 O 1.07781 0.51897 0.61326
 O1224 O 1.10371 0.51753 0.63851
 C1225 C 1.08573 0.52520 0.63162
 C1226 C 1.07446 0.54222 0.64464
 C1227 C 1.08357 0.54988 0.66441
 H1228 H 1.09832 0.54249 0.67085
 O1229 O 0.98255 0.38583 0.57394
 O1230 O 0.98281 0.35938 0.59856
 C1231 C 0.97509 0.36783 0.58104
 C1232 C 0.95668 0.35728 0.56913
 C1233 C 0.94690 0.33810 0.57724
 H1234 H 0.95334 0.33020 0.59187
 O1235 O 1.02099 0.60654 0.58920
 O1236 O 1.01983 0.63046 0.61635
 C1237 C 1.02778 0.62400 0.59808
 C1238 C 1.04540 0.63661 0.58724
 C1239 C 1.05290 0.65618 0.59650
 H1240 H 1.04504 0.66260 0.61115
 O1241 O 0.89609 0.41889 0.51627
 O1242 O 0.87062 0.39362 0.51448
 C1243 C 0.87819 0.41093 0.52304
 C1244 C 0.86648 0.42181 0.54134
 C1245 C 0.84557 0.41496 0.54791
 H1246 H 0.83753 0.40183 0.53919
 O1247 O 1.10721 0.58407 0.52767
 O1248 O 1.13241 0.60958 0.52973
 C1249 C 1.12476 0.59135 0.53599
 C1250 C 1.13595 0.57866 0.55348
 C1251 C 1.15606 0.58557 0.56218
 H1252 H 1.16388 0.60005 0.55573
 O1253 O 1.02097 0.57522 0.61787
 O1254 O 1.01974 0.59893 0.64518
 C1255 C 1.02786 0.58194 0.63645
 C1256 C 1.04609 0.57013 0.64728
 C1257 C 1.05531 0.57744 0.66729
 H1258 H 1.04846 0.59140 0.67574
 O1259 O 0.98259 0.41466 0.60519
 O1260 O 0.98333 0.38851 0.63015
 C1261 C 0.97562 0.40645 0.62310
 C1262 C 0.95813 0.41787 0.63544
 C1263 C 0.95208 0.41136 0.65690
 H1264 H 0.96063 0.39809 0.66491
 O1265 O 1.10675 0.52256 0.58207
 O1266 O 1.13256 0.52113 0.60744
 C1267 C 1.12449 0.52969 0.59016
 C1268 C 1.13575 0.54835 0.57972
 C1269 C 1.15605 0.55522 0.58778
 H1270 H 1.16379 0.54650 0.60125
 O1271 O 0.89549 0.47371 0.57710
 O1272 O 0.86988 0.47128 0.60260
 C1273 C 0.87780 0.46548 0.58413
 C1274 C 0.86642 0.44874 0.57100
 C1275 C 0.84551 0.44190 0.57715
 H1276 H 0.83758 0.44926 0.59132
 O1277 O 1.07702 0.61311 0.52995
 O1278 O 1.10201 0.63882 0.53191
 C1279 C 1.08450 0.63020 0.53897
 C1280 C 1.07306 0.63969 0.55828
 C1281 C 1.08049 0.65909 0.56793
 H1282 H 1.09446 0.66736 0.56090
 O1283 O 0.92593 0.38923 0.51528
 O1284 O 0.90065 0.36381 0.51336
 C1285 C 0.91808 0.37123 0.52186
 C1286 C 0.92878 0.35921 0.54016
 C1287 C 0.91917 0.34029 0.54869
 H1288 H 0.90441 0.33391 0.54128
 O1289 O 1.07884 0.47631 0.60880
 O1290 O 1.10483 0.47515 0.63397
 C1291 C 1.08741 0.46747 0.62569
 C1292 C 1.07771 0.44755 0.63540
 C1293 C 1.08814 0.43721 0.65317
 H1294 H 1.10262 0.44438 0.66041
 O1295 O 0.92365 0.51495 0.61069
 O1296 O 0.89785 0.51229 0.63598
 C1297 C 0.91525 0.52101 0.62889
 C1298 C 0.92518 0.53900 0.64158
 C1299 C 0.91492 0.54664 0.66077
 H1300 H 0.90031 0.53872 0.66689
 O1301 O 0.97867 0.60502 0.58750
 O1302 O 0.97743 0.62937 0.61427
 C1303 C 0.97084 0.62239 0.59562
 C1304 C 0.95392 0.63452 0.58321
 C1305 C 0.94923 0.65624 0.58850
 H1306 H 0.95802 0.66413 0.60180
 O1307 O 1.02524 0.38724 0.57311
 O1308 O 1.02592 0.36041 0.59731
 C1309 C 1.03326 0.36940 0.57987
 C1310 C 1.05185 0.35959 0.56770
 C1311 C 1.06026 0.33918 0.57379
 H1312 H 1.05234 0.32994 0.58676
 O1313 O 1.11139 0.42552 0.51728
 O1314 O 1.13833 0.40174 0.51600
 C1315 C 1.12962 0.41861 0.52435
 C1316 C 1.14050 0.43012 0.54276
 C1317 C 1.16117 0.42347 0.55024
 H1318 H 1.16956 0.41003 0.54233
 O1319 O 0.89199 0.57744 0.52647
 O1320 O 0.86602 0.60219 0.52868
 C1321 C 0.87425 0.58423 0.53488
 C1322 C 0.86345 0.57134 0.55242
 C1323 C 0.84374 0.57846 0.56187
 H1324 H 0.83616 0.59331 0.55598
 Cu1325 Cu 1.00372 0.40325 0.58687
 Cu1326 Cu 1.00454 0.37144 0.61629
 Cu1327 Cu 0.99995 0.58780 0.60019
 Cu1328 Cu 0.99825 0.61661 0.63265
 Cu1329 Cu 0.91384 0.40782 0.49441
 Cu1330 Cu 0.88352 0.37726 0.49212
 Cu1331 Cu 1.09458 0.41320 0.49530
 Cu1332 Cu 1.12673 0.38446 0.49377
 Cu1333 Cu 0.90893 0.59140 0.50546
 Cu1334 Cu 0.87764 0.62103 0.50786
 Cu1335 Cu 1.08966 0.59768 0.50702
 Cu1336 Cu 1.11974 0.62846 0.50933
 Cu1337 Cu 0.91224 0.49445 0.59140
 Cu1338 Cu 0.88140 0.49136 0.62197
 Cu1339 Cu 1.09028 0.49972 0.59322
 Cu1340 Cu 1.12137 0.49817 0.62360
 C1341 C 1.05920 0.43774 0.62600
 H1342 H 1.05137 0.44538 0.61194
 C1343 C 1.08056 0.41731 0.66142
 C1344 C 0.94379 0.54980 0.63372
 H1345 H 0.95145 0.54424 0.61859
 C1346 C 0.92290 0.56486 0.67198
 C1347 C 0.87350 0.55247 0.56073
 H1348 H 0.88891 0.54712 0.55383
 C1349 C 0.83420 0.56705 0.57952
 C1350 C 1.12968 0.44717 0.55379
 H1351 H 1.11347 0.45198 0.54860
 C1352 C 1.17103 0.43397 0.56820
 C1353 C 1.06208 0.37131 0.55062
 H1354 H 1.05586 0.38719 0.54602
 C1355 C 1.07878 0.33055 0.56317
 C1356 C 0.94243 0.62445 0.56591
 H1357 H 0.94591 0.60765 0.56179
 C1358 C 0.93331 0.66792 0.57671
 C1359 C 0.94709 0.43538 0.62541
 H1360 H 0.95146 0.44039 0.60882
 C1361 C 0.93527 0.42228 0.66825
 C1362 C 1.05561 0.55227 0.63637
 H1363 H 1.04885 0.54669 0.62083
 C1364 C 1.07420 0.56745 0.67577
 C1365 C 0.94761 0.36749 0.55039
 H1366 H 0.95478 0.38239 0.54418
 C1367 C 0.92800 0.32973 0.56719
 C1368 C 1.05544 0.62865 0.56798
 H1369 H 1.04989 0.61347 0.56086
 C1370 C 1.07051 0.66750 0.58704
 C1371 C 0.87668 0.43885 0.55290
 H1372 H 0.89294 0.44400 0.54823
 C1373 C 0.83493 0.42512 0.56572
 C1374 C 1.12596 0.55997 0.56235
 H1375 H 1.11023 0.55477 0.55613
 C1376 C 1.16622 0.57378 0.57920
 O1377 O 0.58417 1.01897 0.61008
 O1378 O 0.60976 1.01813 0.63569
 C1379 C 0.59157 1.02525 0.62862
 C1380 C 0.57870 1.04099 0.64184
 C1381 C 0.58507 1.04695 0.66336
 H1382 H 0.59965 1.04001 0.67065
 O1383 O 0.42404 0.97118 0.60982
 O1384 O 0.39877 0.96832 0.63563
 C1385 C 0.41690 0.96237 0.62736
 C1386 C 0.42979 0.94480 0.63786
 C1387 C 0.42453 0.93705 0.65904
 H1388 H 0.41128 0.94453 0.66815
 O1389 O 0.52027 1.10245 0.58848
 O1390 O 0.51944 1.12617 0.61584
 C1391 C 0.52691 1.12003 0.59730
 C1392 C 0.54379 1.13326 0.58618
 C1393 C 0.55024 1.15332 0.59512
 H1394 H 0.54235 1.15958 0.60985
 O1395 O 0.48519 0.89122 0.57148
 O1396 O 0.48644 0.86400 0.59523
 C1397 C 0.47867 0.87266 0.57782
 C1398 C 0.46153 0.86124 0.56515
 C1399 C 0.45468 0.84044 0.57162
 H1400 H 0.46241 0.83241 0.58552
 O1401 O 0.60765 1.08247 0.52649
 O1402 O 0.63198 1.10887 0.52765
 C1403 C 0.62543 1.09028 0.53387
 C1404 C 0.63862 1.07777 0.54993
 C1405 C 0.65994 1.08425 0.55497
 H1406 H 0.66679 1.09841 0.54685
 O1407 O 0.39611 0.91960 0.51550
 O1408 O 0.37172 0.89331 0.51407
 C1409 C 0.37885 0.91067 0.52283
 C1410 C 0.36727 0.92004 0.54218
 C1411 C 0.34760 0.91080 0.54946
 H1412 H 0.34033 0.89768 0.54007
 O1413 O 0.47870 1.06952 0.61707
 O1414 O 0.47812 1.09341 0.64426
 C1415 C 0.47102 1.07610 0.63544
 C1416 C 0.45312 1.06398 0.64630
 C1417 C 0.44568 1.07019 0.66730
 H1418 H 0.45370 1.08334 0.67602
 O1419 O 0.52675 0.92028 0.60353
 O1420 O 0.52800 0.89322 0.62749
 C1421 C 0.53456 0.91174 0.62091
 C1422 C 0.55155 0.92339 0.63353
 C1423 C 0.55618 0.91740 0.65536
 H1424 H 0.54710 0.90429 0.66304
 O1425 O 0.61436 0.97941 0.57654
 O1426 O 0.63994 0.97778 0.60210
 C1427 C 0.63208 0.97141 0.58375
 C1428 C 0.64309 0.95398 0.57097
 C1429 C 0.66228 0.94419 0.57897
 H1430 H 0.66957 0.94991 0.59421
 O1431 O 0.39240 1.01368 0.58200
 O1432 O 0.36662 1.01093 0.60728
 C1433 C 0.37420 1.01974 0.58986
 C1434 C 0.36210 1.03756 0.57882
 C1435 C 0.34116 1.04357 0.58601
 H1436 H 0.33355 1.03481 0.59950
 O1437 O 0.42070 1.10327 0.52862
 O1438 O 0.39486 1.12816 0.53117
 C1439 C 0.41292 1.12023 0.53763
 C1440 C 0.42485 1.13064 0.55598
 C1441 C 0.41870 1.15131 0.56360
 H1442 H 0.40546 1.15998 0.55561
 O1443 O 0.58352 0.89625 0.51216
 O1444 O 0.60934 0.87129 0.51018
 C1445 C 0.59152 0.87819 0.51835
 C1446 C 0.58021 0.86535 0.53555
 C1447 C 0.58689 0.84403 0.54038
 H1448 H 0.60022 0.83680 0.53118
 O1449 O 0.42110 1.01325 0.61335
 O1450 O 0.39560 1.01068 0.63893
 C1451 C 0.41305 1.01929 0.63174
 C1452 C 0.42418 1.03669 0.64447
 C1453 C 0.41659 1.04351 0.66538
 H1454 H 0.40244 1.03583 0.67275
 O1455 O 0.58489 0.97711 0.60691
 O1456 O 0.61008 0.97591 0.63293
 C1457 C 0.59235 0.96890 0.62462
 C1458 C 0.58011 0.95105 0.63540
 C1459 C 0.58468 0.94470 0.65725
 H1460 H 0.59729 0.95298 0.66654
 O1461 O 0.52755 0.89160 0.57206
 O1462 O 0.52882 0.86439 0.59582
 C1463 C 0.53558 0.87351 0.57828
 C1464 C 0.55304 0.86313 0.56503
 C1465 C 0.55998 0.84181 0.56968
 H1466 H 0.55211 0.83263 0.58272
 O1467 O 0.47811 1.09985 0.58742
 O1468 O 0.47743 1.12390 0.61450
 C1469 C 0.47042 1.11705 0.59599
 C1470 C 0.45301 1.12909 0.58443
 C1471 C 0.44678 1.14981 0.59173
 H1472 H 0.45492 1.15713 0.60577
 O1473 O 0.39047 1.07375 0.52650
 O1474 O 0.36452 1.09852 0.52895
 C1475 C 0.37260 1.08040 0.53481
 C1476 C 0.36138 1.06721 0.55188
 C1477 C 0.34046 1.07302 0.55932
 H1478 H 0.33207 1.08668 0.55183
 O1479 O 0.61324 0.92606 0.51425
 O1480 O 0.63909 0.90117 0.51212
 C1481 C 0.63113 0.91805 0.52116
 C1482 C 0.64246 0.92791 0.54038
 C1483 C 0.66160 0.91837 0.54869
 H1484 H 0.66869 0.90447 0.54033
 O1485 O 0.48422 0.91735 0.60518
 O1486 O 0.48563 0.89026 0.62907
 C1487 C 0.47739 0.90816 0.62273
 C1488 C 0.45947 0.91830 0.63561
 C1489 C 0.45398 0.91069 0.65682
 H1490 H 0.46310 0.89734 0.66400
 O1491 O 0.52151 1.06990 0.61579
 O1492 O 0.52075 1.09365 0.64311
 C1493 C 0.52883 1.07679 0.63409
 C1494 C 0.54742 1.06555 0.64462
 C1495 C 0.55373 1.07096 0.66615
 H1496 H 0.54441 1.08286 0.67543
 O1497 O 0.39406 0.97143 0.57975
 O1498 O 0.36849 0.96837 0.60521
 C1499 C 0.37669 0.96256 0.58681
 C1500 C 0.36624 0.94509 0.57361
 C1501 C 0.34667 0.93540 0.58074
 H1502 H 0.33905 0.94088 0.59591
 O1503 O 0.61386 1.02174 0.57979
 O1504 O 0.63989 1.02070 0.60491
 C1505 C 0.63158 1.02911 0.58763
 C1506 C 0.64195 1.04798 0.57650
 C1507 C 0.66331 1.05487 0.58161
 H1508 H 0.67285 1.04607 0.59375
 O1509 O 0.42786 0.89185 0.51267
 O1510 O 0.40351 0.86549 0.51152
 C1511 C 0.42105 0.87347 0.51926
 C1512 C 0.43326 0.86162 0.53662
 C1513 C 0.42640 0.84095 0.54364
 H1514 H 0.41254 0.83320 0.53581
 O1515 O 0.57604 1.11053 0.52927
 O1516 O 0.60035 1.13689 0.53079
 C1517 C 0.58317 1.12784 0.53811
 C1518 C 0.57158 1.13707 0.55744
 C1519 C 0.57822 1.15684 0.56699
 H1520 H 0.59172 1.16587 0.55995
 Cu1521 Cu 0.59688 0.99951 0.59072
 Cu1522 Cu 0.62762 0.99801 0.62139
 Cu1523 Cu 0.41045 0.99269 0.59373
 Cu1524 Cu 0.37976 0.98926 0.62430
 Cu1525 Cu 0.49976 1.08293 0.59954
 Cu1526 Cu 0.49883 1.11159 0.63225
 Cu1527 Cu 0.50581 0.90786 0.58573
 Cu1528 Cu 0.50737 0.87525 0.61429
 C1529 C 0.55978 1.05033 0.63271
 H1530 H 0.55497 1.04620 0.61600
 C1531 C 0.57244 1.06176 0.67563
 C1532 C 0.44739 0.93544 0.62640
 H1533 H 0.45140 0.94122 0.60997
 C1534 C 0.43662 0.92009 0.66876
 C1535 C 0.55430 1.12546 0.56714
 H1536 H 0.54941 1.10995 0.56024
 C1537 C 0.56746 1.16507 0.58571
 C1538 C 0.45096 0.87158 0.54738
 H1539 H 0.45602 0.88776 0.54245
 C1540 C 0.43707 0.83033 0.56108
 C1541 C 0.62989 1.05952 0.56054
 H1542 H 0.61336 1.05460 0.55669
 C1543 C 0.67253 1.07286 0.57054
 C1544 C 0.37635 0.93733 0.55423
 H1545 H 0.39164 0.94439 0.54884
 C1546 C 0.33726 0.91817 0.56880
 C1547 C 0.44249 1.04703 0.63520
 H1548 H 0.44819 1.04227 0.61895
 C1549 C 0.42750 1.06012 0.67697
 C1550 C 0.56340 0.94038 0.62375
 H1551 H 0.55987 0.94500 0.60684
 C1552 C 0.57250 0.92809 0.66741
 C1553 C 0.63343 0.94584 0.55153
 H1554 H 0.61843 0.95300 0.54547
 C1555 C 0.67148 0.92622 0.56805
 C1556 C 0.37196 1.04933 0.56158
 H1557 H 0.38823 1.04499 0.55613
 C1558 C 0.33022 1.06129 0.57635
 C1559 C 0.44216 1.11970 0.56637
 H1560 H 0.44680 1.10361 0.56077
 C1561 C 0.42968 1.16100 0.58138
 C1562 C 0.56314 0.87468 0.54781
 H1563 H 0.55805 0.89122 0.54430
 C1564 C 0.57682 0.83209 0.55734
 O1565 O 0.57956 0.99096 0.38694
 O1566 O 0.60497 0.99384 0.36129
 C1567 C 0.58760 0.98504 0.36855
 C1568 C 0.57721 0.96708 0.35601
 C1569 C 0.58636 0.95974 0.33607
 H1570 H 0.59995 0.96853 0.32898
 O1571 O 0.42156 1.02800 0.38947
 O1572 O 0.39621 1.02902 0.36362
 C1573 C 0.41375 1.03637 0.37198
 C1574 C 0.42490 1.05525 0.36177
 C1575 C 0.41827 1.06339 0.34111
 H1576 H 0.40548 1.05518 0.33202
 O1577 O 0.47558 1.11509 0.42728
 O1578 O 0.47452 1.14227 0.40350
 C1579 C 0.46739 1.13298 0.42083
 C1580 C 0.44891 1.14259 0.43326
 C1581 C 0.43893 1.16196 0.42608
 H1582 H 0.44518 1.17027 0.41162
 O1583 O 0.52572 0.89910 0.41079
 O1584 O 0.52638 0.87510 0.38371
 C1585 C 0.53360 0.88196 0.40212
 C1586 C 0.55159 0.87031 0.41357
 C1587 C 0.55832 0.84935 0.40692
 H1588 H 0.55000 0.84120 0.39348
 O1589 O 0.61239 0.92939 0.47110
 O1590 O 0.63839 0.90465 0.46902
 C1591 C 0.63019 0.92266 0.46285
 C1592 C 0.64111 0.93571 0.44552
 C1593 C 0.66150 0.92940 0.43710
 H1594 H 0.66948 0.91504 0.44363
 O1595 O 0.39123 1.07667 0.48329
 O1596 O 0.36540 1.10155 0.48583
 C1597 C 0.37352 1.08492 0.47640
 C1598 C 0.36275 1.07592 0.45654
 C1599 C 0.34466 1.08665 0.44759
 H1600 H 0.33778 1.10060 0.45607
 O1601 O 0.51882 1.08873 0.39486
 O1602 O 0.51781 1.11576 0.37087
 C1603 C 0.52583 1.09778 0.37737
 C1604 C 0.54382 1.08755 0.36478
 C1605 C 0.55051 1.09628 0.34445
 H1606 H 0.54175 1.10997 0.33747
 O1607 O 0.48208 0.92971 0.38272
 O1608 O 0.48294 0.90627 0.35516
 C1609 C 0.47476 0.92305 0.36427
 C1610 C 0.45616 0.93466 0.35371
 C1611 C 0.44823 0.92818 0.33290
 H1612 H 0.45616 0.91504 0.32404
 O1613 O 0.60772 1.03215 0.42046
 O1614 O 0.63334 1.03511 0.39503
 C1615 C 0.62531 1.04069 0.41357
 C1616 C 0.63631 1.05740 0.42723
 C1617 C 0.65767 1.06418 0.42234
 H1618 H 0.66643 1.05681 0.40871
 O1619 O 0.39287 0.98331 0.41720
 O1620 O 0.36712 0.98418 0.39178
 C1621 C 0.37526 0.97587 0.40919
 C1622 C 0.36476 0.95685 0.41989
 C1623 C 0.34536 0.94792 0.41140
 H1624 H 0.33737 0.95541 0.39734
 O1625 O 0.57534 1.11379 0.48594
 O1626 O 0.59988 1.13994 0.48749
 C1627 C 0.58252 1.13207 0.47934
 C1628 C 0.57144 1.14386 0.46116
 C1629 C 0.58129 1.16238 0.45203
 H1630 H 0.59604 1.16883 0.45937
 O1631 O 0.42587 0.89352 0.46944
 O1632 O 0.40145 0.86723 0.46834
 C1633 C 0.41860 0.87609 0.46080
 C1634 C 0.42984 0.86646 0.44137
 C1635 C 0.42147 0.84781 0.43082
 H1636 H 0.40681 0.84023 0.43716
 O1637 O 0.42270 0.98561 0.38692
 O1638 O 0.39717 0.98648 0.36127
 C1639 C 0.41516 0.97901 0.36855
 C1640 C 0.42717 0.96212 0.35582
 C1641 C 0.41975 0.95558 0.33488
 H1642 H 0.40551 0.96330 0.32772
 O1643 O 0.57813 1.03334 0.38987
 O1644 O 0.60349 1.03638 0.36419
 C1645 C 0.58545 1.04244 0.37252
 C1646 C 0.57303 1.06054 0.36235
 C1647 C 0.57957 1.06958 0.34205
 H1648 H 0.59366 1.06302 0.33351
 O1649 O 0.48319 0.89849 0.41142
 O1650 O 0.48376 0.87487 0.38398
 C1651 C 0.47612 0.88121 0.40244
 C1652 C 0.45821 0.86888 0.41309
 C1653 C 0.44997 0.85000 0.40314
 H1654 H 0.45793 0.84362 0.38853
 O1655 O 0.51824 1.11648 0.42699
 O1656 O 0.51741 1.14356 0.40308
 C1657 C 0.52536 1.13474 0.42029
 C1658 C 0.54372 1.14526 0.43211
 C1659 C 0.55400 1.16376 0.42314
 H1660 H 0.54796 1.17093 0.40796
 O1661 O 0.39605 0.92331 0.47233
 O1662 O 0.37165 0.89701 0.47103
 C1663 C 0.37858 0.91542 0.46448
 C1664 C 0.36660 0.92733 0.44700
 C1665 C 0.34734 0.91865 0.43824
 H1666 H 0.34063 0.90382 0.44513
 O1667 O 0.60585 1.08478 0.48364
 O1668 O 0.63047 1.11091 0.48505
 C1669 C 0.62330 1.09340 0.47654
 C1670 C 0.63526 1.08305 0.45809
 C1671 C 0.65659 1.08955 0.45302
 H1672 H 0.66434 1.10215 0.46277
 O1673 O 0.52483 0.93131 0.38315
 O1674 O 0.52589 0.90751 0.35591
 C1675 C 0.53281 0.92487 0.36492
 C1676 C 0.55076 0.93737 0.35446
 C1677 C 0.56062 0.92987 0.33491
 H1678 H 0.55485 0.91493 0.32748
 O1679 O 0.47640 1.08754 0.39484
 O1680 O 0.47544 1.11462 0.37091
 C1681 C 0.46874 1.09611 0.37736
 C1682 C 0.45170 1.08455 0.36459
 C1683 C 0.44481 1.09249 0.34398
 H1684 H 0.45214 1.10714 0.33736
 O1685 O 0.39172 1.02571 0.41955
 O1686 O 0.36618 1.02701 0.39394
 C1687 C 0.37393 1.03356 0.41226
 C1688 C 0.36278 1.05104 0.42495
 C1689 C 0.34452 1.06211 0.41622
 H1690 H 0.33780 1.05737 0.40038
 O1691 O 0.60978 0.98998 0.41680
 O1692 O 0.63528 0.99292 0.39125
 C1693 C 0.62785 0.98387 0.40858
 C1694 C 0.63998 0.96568 0.41897
 C1695 C 0.66045 0.95920 0.41082
 H1696 H 0.66792 0.96825 0.39745
 O1697 O 0.58352 0.89854 0.46906
 O1698 O 0.60946 0.87370 0.46729
 C1699 C 0.59143 0.88136 0.46047
 C1700 C 0.57971 0.87022 0.44226
 C1701 C 0.58607 0.84931 0.43552
 H1702 H 0.59949 0.84128 0.44387
 O1703 O 0.41920 1.10800 0.48576
 O1704 O 0.39323 1.13273 0.48855
 C1705 C 0.41092 1.12612 0.47994
 C1706 C 0.42142 1.13921 0.46233
 C1707 C 0.41182 1.15871 0.45507
 H1708 H 0.39747 1.16489 0.46343
 Cu1709 Cu 0.59124 1.01135 0.40605
 Cu1710 Cu 0.62177 1.01492 0.37532
 Cu1711 Cu 0.40972 1.00555 0.40585
 Cu1712 Cu 0.37908 1.00671 0.37510
 Cu1713 Cu 0.58867 1.09534 0.50630
 Cu1714 Cu 0.61800 1.12691 0.50789
 Cu1715 Cu 0.59560 0.91508 0.49179
 Cu1716 Cu 0.62671 0.88526 0.48942
 Cu1717 Cu 0.40799 1.08791 0.50587
 Cu1718 Cu 0.37683 1.11764 0.50899
 Cu1719 Cu 0.41393 0.90967 0.49260
 Cu1720 Cu 0.38463 0.87816 0.49115
 Cu1721 Cu 0.49732 1.09931 0.41345
 Cu1722 Cu 0.49616 1.13184 0.38476
 Cu1723 Cu 0.50392 0.91703 0.39971
 Cu1724 Cu 0.50482 0.88862 0.36689
 C1725 C 0.55917 0.95600 0.36486
 H1726 H 0.55211 0.96148 0.38031
 C1727 C 0.57849 0.94088 0.32554
 C1728 C 0.44179 1.06581 0.37324
 H1729 H 0.44683 1.05978 0.38928
 C1730 C 0.42823 1.08197 0.33202
 C1731 C 0.44011 1.13144 0.45150
 H1732 H 0.44739 1.11626 0.45682
 C1733 C 0.42026 1.17009 0.43681
 C1734 C 0.56233 0.88047 0.43135
 H1735 H 0.55744 0.89666 0.43645
 C1736 C 0.57535 0.83858 0.41812
 C1737 C 0.63059 0.95398 0.43649
 H1738 H 0.61469 0.95871 0.44267
 C1739 C 0.67131 0.94104 0.41975
 C1740 C 0.37162 1.05802 0.44523
 H1741 H 0.38591 1.04998 0.45190
 C1742 C 0.33568 1.08017 0.42739
 C1743 C 0.55503 1.06954 0.37348
 H1744 H 0.55010 1.06289 0.38930
 C1745 C 0.56839 1.08747 0.33298
 C1746 C 0.44555 0.95173 0.36496
 H1747 H 0.45126 0.95657 0.38117
 C1748 C 0.43013 0.93865 0.32332
 C1749 C 0.62532 1.06682 0.44526
 H1750 H 0.60879 1.06183 0.44903
 C1751 C 0.66800 1.08009 0.43534
 C1752 C 0.37510 0.94653 0.43786
 H1753 H 0.39023 0.95306 0.44428
 C1754 C 0.33674 0.92868 0.42041
 C1755 C 0.55252 1.13551 0.45122
 H1756 H 0.54513 1.12091 0.45789
 C1757 C 0.57305 1.17210 0.43280
 C1758 C 0.44824 0.87681 0.43237
 H1759 H 0.45443 0.89148 0.44003
 C1760 C 0.43136 0.83949 0.41156
 O1761 O 0.47756 0.42944 0.87727
 O1762 O 0.47740 0.40591 0.84976
 C1763 C 0.46965 0.42273 0.85911
 C1764 C 0.45075 0.43429 0.84936
 C1765 C 0.43961 0.42572 0.83096
 H1766 H 0.44523 0.41074 0.82344
 O1767 O 0.51914 0.58531 0.89180
 O1768 O 0.51867 0.61257 0.86810
 C1769 C 0.52638 0.59437 0.87443
 C1770 C 0.54446 0.58405 0.86189
 C1771 C 0.55224 0.59370 0.84240
 H1772 H 0.54432 0.60814 0.83594
 O1773 O 0.39164 0.48202 0.91472
 O1774 O 0.36572 0.48393 0.88949
 C1775 C 0.37395 0.47494 0.90647
 C1776 C 0.36307 0.45576 0.91635
 C1777 C 0.34277 0.44878 0.90834
 H1778 H 0.33472 0.45782 0.89529
 O1779 O 0.60782 0.52504 0.91537
 O1780 O 0.63344 0.52743 0.88987
 C1781 C 0.62575 0.53293 0.90859
 C1782 C 0.63759 0.54887 0.92248
 C1783 C 0.65917 0.55456 0.91751
 H1784 H 0.66742 0.54690 0.90369
 O1785 O 0.42323 0.38927 0.96398
 O1786 O 0.39832 0.36351 0.96194
 C1787 C 0.41581 0.37215 0.95491
 C1788 C 0.42739 0.36279 0.93558
 C1789 C 0.42032 0.34332 0.92561
 H1790 H 0.40647 0.33468 0.93242
 O1791 O 0.57827 0.60680 0.98059
 O1792 O 0.60361 0.63214 0.98262
 C1793 C 0.58597 0.62500 0.97437
 C1794 C 0.57483 0.63773 0.95685
 C1795 C 0.58427 0.65702 0.94900
 H1796 H 0.59896 0.66316 0.95674
 O1797 O 0.41981 0.52836 0.88875
 O1798 O 0.39366 0.53030 0.86379
 C1799 C 0.41133 0.53748 0.87198
 C1800 C 0.42159 0.55707 0.86229
 C1801 C 0.41113 0.56821 0.84507
 H1802 H 0.39606 0.56190 0.83825
 O1803 O 0.57837 0.48602 0.88039
 O1804 O 0.60350 0.48872 0.85444
 C1805 C 0.58590 0.48043 0.86163
 C1806 C 0.57424 0.46365 0.84857
 C1807 C 0.58213 0.45654 0.82789
 H1808 H 0.59659 0.46390 0.82082
 O1809 O 0.52144 0.39926 0.90495
 O1810 O 0.52187 0.37594 0.87724
 C1811 C 0.52927 0.38243 0.89574
 C1812 C 0.54735 0.37042 0.90644
 C1813 C 0.55547 0.35137 0.89670
 H1814 H 0.54810 0.34514 0.88171
 O1815 O 0.47679 0.61266 0.92484
 O1816 O 0.47637 0.64016 0.90143
 C1817 C 0.46891 0.63076 0.91858
 C1818 C 0.45022 0.64038 0.93080
 C1819 C 0.44054 0.65993 0.92361
 H1820 H 0.44724 0.66843 0.90947
 O1821 O 0.38819 0.57656 0.98111
 O1822 O 0.36213 0.60119 0.98373
 C1823 C 0.36995 0.58419 0.97478
 C1824 C 0.35825 0.57309 0.95657
 C1825 C 0.33631 0.57782 0.95143
 H1826 H 0.32739 0.58970 0.96110
 O1827 O 0.60868 0.42325 0.96646
 O1828 O 0.63382 0.39765 0.96409
 C1829 C 0.62605 0.41580 0.95781
 C1830 C 0.63672 0.42756 0.93937
 C1831 C 0.65429 0.41789 0.92826
 H1832 H 0.66091 0.40258 0.93414
 O1833 O 0.47647 0.58628 0.89162
 O1834 O 0.47585 0.61371 0.86812
 C1835 C 0.46843 0.59552 0.87465
 C1836 C 0.44959 0.58541 0.86320
 C1837 C 0.43889 0.59624 0.84572
 H1838 H 0.44501 0.61168 0.83970
 O1839 O 0.52022 0.43044 0.87618
 O1840 O 0.52007 0.40718 0.84843
 C1841 C 0.52743 0.42428 0.85749
 C1842 C 0.54520 0.43652 0.84658
 C1843 C 0.55302 0.42993 0.82587
 H1844 H 0.54530 0.41644 0.81742
 O1845 O 0.60787 0.48291 0.91084
 O1846 O 0.63310 0.48514 0.88494
 C1847 C 0.62545 0.47602 0.90215
 C1848 C 0.63651 0.45677 0.91184
 C1849 C 0.65423 0.44677 0.90096
 H1850 H 0.66056 0.45357 0.88573
 O1851 O 0.39001 0.52419 0.91898
 O1852 O 0.36394 0.52572 0.89388
 C1853 C 0.37169 0.53143 0.91243
 C1854 C 0.35935 0.54688 0.92630
 C1855 C 0.33750 0.55155 0.92151
 H1856 H 0.32962 0.54349 0.90774
 O1857 O 0.41873 0.60573 0.98242
 O1858 O 0.39291 0.63064 0.98475
 C1859 C 0.41068 0.62381 0.97635
 C1860 C 0.42172 0.63677 0.95893
 C1861 C 0.41254 0.65643 0.95169
 H1862 H 0.39804 0.66264 0.95976
 O1863 O 0.57875 0.39370 0.96419
 O1864 O 0.60396 0.36818 0.96175
 C1865 C 0.58631 0.37672 0.95493
 C1866 C 0.57491 0.36730 0.93554
 C1867 C 0.58263 0.34807 0.92561
 H1868 H 0.59649 0.33955 0.93262
 O1869 O 0.57747 0.52815 0.88567
 O1870 O 0.60280 0.53106 0.85995
 C1871 C 0.58500 0.53752 0.86860
 C1872 C 0.57315 0.55639 0.85905
 C1873 C 0.58061 0.56632 0.83953
 H1874 H 0.59484 0.55990 0.83113
 O1875 O 0.42068 0.48602 0.88388
 O1876 O 0.39467 0.48815 0.85877
 C1877 C 0.41261 0.48020 0.86546
 C1878 C 0.42333 0.46298 0.85231
 C1879 C 0.41289 0.45467 0.83354
 H1880 H 0.39821 0.46250 0.82751
 O1881 O 0.51963 0.61336 0.92364
 O1882 O 0.51944 0.64076 0.90009
 C1883 C 0.52732 0.63146 0.91708
 C1884 C 0.54624 0.64114 0.92883
 C1885 C 0.55615 0.66037 0.92105
 H1886 H 0.54949 0.66868 0.90677
 O1887 O 0.47906 0.39720 0.90490
 O1888 O 0.47962 0.37374 0.87731
 C1889 C 0.47225 0.37977 0.89594
 C1890 C 0.45515 0.36667 0.90688
 C1891 C 0.44812 0.34710 0.89736
 H1892 H 0.45624 0.34100 0.88271
 O1893 O 0.60841 0.57717 0.97863
 O1894 O 0.63386 0.60239 0.98093
 C1895 C 0.62626 0.58530 0.97192
 C1896 C 0.63792 0.57478 0.95323
 C1897 C 0.65946 0.58060 0.94769
 H1898 H 0.66799 0.59277 0.95731
 O1899 O 0.39322 0.41882 0.96661
 O1900 O 0.36814 0.39322 0.96446
 C1901 C 0.37557 0.41160 0.95844
 C1902 C 0.36390 0.42457 0.94147
 C1903 C 0.34371 0.41765 0.93296
 H1904 H 0.33621 0.40291 0.93919
 Cu1905 Cu 0.49950 0.41652 0.89354
 Cu1906 Cu 0.49982 0.38838 0.86037
 Cu1907 Cu 0.49804 0.59672 0.91035
 Cu1908 Cu 0.49760 0.62957 0.88212
 Cu1909 Cu 0.40820 0.50500 0.90410
 Cu1910 Cu 0.37697 0.50727 0.87387
 Cu1911 Cu 0.59035 0.50525 0.90059
 Cu1912 Cu 0.62075 0.50848 0.86972
 C1913 C 0.44247 0.45296 0.85986
 H1914 H 0.45043 0.45921 0.87453
 C1915 C 0.42040 0.43567 0.82317
 C1916 C 0.55492 0.56528 0.87001
 H1917 H 0.54925 0.55794 0.88524
 C1918 C 0.57031 0.58502 0.83118
 C1919 C 0.37338 0.44371 0.93310
 H1920 H 0.38911 0.44896 0.93924
 C1921 C 0.33300 0.42977 0.91649
 C1922 C 0.62721 0.55883 0.94055
 H1923 H 0.61052 0.55450 0.94443
 C1924 C 0.67025 0.57024 0.93006
 C1925 C 0.44490 0.37423 0.92613
 H1926 H 0.45016 0.38946 0.93336
 C1927 C 0.43059 0.33539 0.90638
 C1928 C 0.55570 0.63003 0.94682
 H1929 H 0.54853 0.61496 0.95260
 C1930 C 0.57538 0.66826 0.93090
 C1931 C 0.44090 0.56570 0.87117
 H1932 H 0.44876 0.55742 0.88482
 C1933 C 0.41948 0.58781 0.83688
 C1934 C 0.55565 0.45363 0.85761
 H1935 H 0.54977 0.45858 0.87373
 C1936 C 0.57145 0.43974 0.81638
 C1937 C 0.55709 0.37824 0.92593
 H1938 H 0.55116 0.39318 0.93330
 C1939 C 0.57305 0.34015 0.90613
 C1940 C 0.44071 0.62899 0.94856
 H1941 H 0.44771 0.61367 0.95387
 C1942 C 0.42157 0.66796 0.93384
 C1943 C 0.36949 0.55748 0.94397
 H1944 H 0.38644 0.55393 0.94755
 C1945 C 0.32574 0.56676 0.93406
 C1946 C 0.62804 0.44711 0.93116
 H1947 H 0.61412 0.45437 0.93938
 C1948 C 0.66288 0.42711 0.90895
 O1949 O 0.52219 0.41179 1.09925
 O1950 O 0.52286 0.38457 1.12302
 C1951 C 0.52971 0.40307 1.11670
 C1952 C 0.54676 0.41452 1.12954
 C1953 C 0.55253 0.40742 1.15082
 H1954 H 0.54433 0.39347 1.15794
 O1955 O 0.47824 0.56496 1.11148
 O1956 O 0.47799 0.58871 1.13878
 C1957 C 0.47073 0.57141 1.12993
 C1958 C 0.45279 0.55911 1.14068
 C1959 C 0.44448 0.56559 1.16132
 H1960 H 0.45229 0.57879 1.17013
 O1961 O 0.39149 0.51014 1.07703
 O1962 O 0.36584 0.50766 1.10248
 C1963 C 0.37367 0.51677 1.08538
 C1964 C 0.36225 0.53570 1.07562
 C1965 C 0.34252 0.54293 1.08478
 H1966 H 0.33518 0.53409 1.09838
 O1967 O 0.60971 0.47061 1.07388
 O1968 O 0.63516 0.46827 1.09951
 C1969 C 0.62729 0.46219 1.08108
 C1970 C 0.63823 0.44477 1.06807
 C1971 C 0.65727 0.43454 1.07599
 H1972 H 0.66438 0.43974 1.09150
 O1973 O 0.57909 0.38986 1.00732
 O1974 O 0.60439 0.36445 1.00465
 C1975 C 0.58684 0.37154 1.01316
 C1976 C 0.57598 0.35874 1.03073
 C1977 C 0.58475 0.33868 1.03742
 H1978 H 0.59851 0.33191 1.02853
 O1979 O 0.41914 0.60290 1.02538
 O1980 O 0.39380 0.62830 1.02794
 C1981 C 0.41174 0.62005 1.03439
 C1982 C 0.42402 0.63001 1.05288
 C1983 C 0.41862 0.65083 1.06086
 H1984 H 0.40594 0.66012 1.05271
 O1985 O 0.42111 0.46539 1.10410
 O1986 O 0.39550 0.46296 1.12958
 C1987 C 0.41338 0.45641 1.12133
 C1988 C 0.42518 0.43788 1.13150
 C1989 C 0.41781 0.42832 1.15128
 H1990 H 0.40333 0.43467 1.15925
 O1991 O 0.58098 0.51181 1.10719
 O1992 O 0.60670 0.51027 1.13263
 C1993 C 0.58911 0.51853 1.12530
 C1994 C 0.57832 0.53671 1.13726
 C1995 C 0.58893 0.54768 1.15475
 H1996 H 0.60491 0.54239 1.16020
 O1997 O 0.48043 0.38354 1.06649
 O1998 O 0.48117 0.35605 1.08992
 C1999 C 0.47346 0.36507 1.07268
 C2000 C 0.45576 0.35433 1.06004
 C2001 C 0.44763 0.33401 1.06673
 H2002 H 0.45504 0.32563 1.08060
 O2003 O 0.51963 0.59739 1.08214
 O2004 O 0.51929 0.62140 1.10923
 C2005 C 0.52660 0.61494 1.09067
 C2006 C 0.54357 0.62780 1.07906
 C2007 C 0.54860 0.64897 1.08606
 H2008 H 0.53978 0.65606 1.09983
 O2009 O 0.39348 0.41544 1.00962
 O2010 O 0.36830 0.38993 1.00754
 C2011 C 0.37581 0.40705 1.01652
 C2012 C 0.36405 0.41714 1.03534
 C2013 C 0.34334 0.40958 1.04153
 H2014 H 0.33615 0.39620 1.03247
 O2015 O 0.60857 0.57434 1.02181
 O2016 O 0.63338 0.60017 1.02417
 C2017 C 0.62599 0.58184 1.03028
 C2018 C 0.63736 0.56952 1.04794
 C2019 C 0.65592 0.57826 1.05833
 H2020 H 0.66239 0.59378 1.05294
 O2021 O 0.52118 0.56625 1.11096
 O2022 O 0.52083 0.59024 1.13804
 C2023 C 0.52897 0.57345 1.12900
 C2024 C 0.54852 0.56319 1.13900
 C2025 C 0.55914 0.57359 1.15655
 H2026 H 0.55196 0.58804 1.16381
 O2027 O 0.47972 0.41014 1.09967
 O2028 O 0.48042 0.38274 1.12323
 C2029 C 0.47252 0.40083 1.11696
 C2030 C 0.45433 0.41087 1.12944
 C2031 C 0.44705 0.40177 1.14941
 H2032 H 0.45575 0.38804 1.15637
 O2033 O 0.60940 0.51306 1.07578
 O2034 O 0.63516 0.51106 1.10115
 C2035 C 0.62718 0.51990 1.08392
 C2036 C 0.63805 0.53905 1.07397
 C2037 C 0.65657 0.54803 1.08404
 H2038 H 0.66381 0.53998 1.09820
 O2039 O 0.39205 0.46784 1.07298
 O2040 O 0.36625 0.46537 1.09827
 C2041 C 0.37423 0.45967 1.07973
 C2042 C 0.36307 0.44299 1.06607
 C2043 C 0.34210 0.43552 1.07168
 H2044 H 0.33358 0.44290 1.08546
 O2045 O 0.57754 0.60304 1.02359
 O2046 O 0.60222 0.62904 1.02566
 C2047 C 0.58454 0.62044 1.03239
 C2048 C 0.57204 0.63049 1.05077
 C2049 C 0.57692 0.65161 1.05816
 H2050 H 0.58962 0.66090 1.05004
 O2051 O 0.42392 0.38636 1.00712
 O2052 O 0.39890 0.36069 1.00523
 C2053 C 0.41649 0.36811 1.01342
 C2054 C 0.42801 0.35578 1.03098
 C2055 C 0.42013 0.33548 1.03797
 H2056 H 0.40593 0.32853 1.03002
 O2057 O 0.57927 0.46943 1.10371
 O2058 O 0.60448 0.46769 1.12966
 C2059 C 0.58664 0.46102 1.12135
 C2060 C 0.57452 0.44295 1.13191
 C2061 C 0.57999 0.43571 1.15323
 H2062 H 0.59262 0.44405 1.16243
 O2063 O 0.42123 0.50779 1.10716
 O2064 O 0.39567 0.50551 1.13271
 C2065 C 0.41333 0.51381 1.12559
 C2066 C 0.42453 0.53109 1.13844
 C2067 C 0.41624 0.53808 1.15891
 H2068 H 0.40167 0.53049 1.16545
 O2069 O 0.47710 0.59702 1.08334
 O2070 O 0.47708 0.62074 1.11069
 C2071 C 0.46965 0.61423 1.09228
 C2072 C 0.45215 0.62686 1.08128
 C2073 C 0.44631 0.64750 1.08925
 H2074 H 0.45456 0.65394 1.10366
 O2075 O 0.52295 0.38420 1.06686
 O2076 O 0.52386 0.35682 1.09042
 C2077 C 0.53096 0.36614 1.07311
 C2078 C 0.54902 0.35620 1.06035
 C2079 C 0.55829 0.33632 1.06706
 H2080 H 0.55199 0.32810 1.08155
 O2081 O 0.60915 0.41941 1.00987
 O2082 O 0.63436 0.39392 1.00733
 C2083 C 0.62674 0.41078 1.01675
 C2084 C 0.63795 0.41983 1.03648
 C2085 C 0.65694 0.40988 1.04469
 H2086 H 0.66410 0.39634 1.03581
 O2087 O 0.38994 0.57262 1.02384
 O2088 O 0.36434 0.59771 1.02670
 C2089 C 0.37236 0.57950 1.03251
 C2090 C 0.36149 0.56638 1.04987
 C2091 C 0.34162 0.57326 1.05919
 H2092 H 0.33379 0.58798 1.05329
 Cu2093 Cu 0.50127 0.40015 1.08071
 Cu2094 Cu 0.50219 0.36726 1.10898
 Cu2095 Cu 0.49898 0.57892 1.09434
 Cu2096 Cu 0.49876 0.60753 1.12701
 Cu2097 Cu 0.41099 0.40500 0.98698
 Cu2098 Cu 0.38093 0.37423 0.98463
 Cu2099 Cu 0.59142 0.40915 0.98725
 Cu2100 Cu 0.62171 0.37857 0.98423
 Cu2101 Cu 0.40653 0.58696 1.00289
 Cu2102 Cu 0.37575 0.61703 1.00603
 Cu2103 Cu 0.59074 0.58775 1.00094
 Cu2104 Cu 0.62076 0.61850 1.00357
 Cu2105 Cu 0.40906 0.48795 1.08780
 Cu2106 Cu 0.37824 0.48509 1.11831
 Cu2107 Cu 0.59229 0.49134 1.08763
 Cu2108 Cu 0.62298 0.48900 1.11825
 C2109 C 0.55773 0.43240 1.12032
 H2110 H 0.55355 0.43777 1.10379
 C2111 C 0.56899 0.41803 1.16289
 C2112 C 0.44289 0.54164 1.12957
 H2113 H 0.44907 0.53669 1.11356
 C2114 C 0.42610 0.55529 1.17058
 C2115 C 0.37156 0.54744 1.05807
 H2116 H 0.38701 0.54216 1.05120
 C2117 C 0.33218 0.56168 1.07676
 C2118 C 0.62884 0.43737 1.04821
 H2119 H 0.61399 0.44487 1.04218
 C2120 C 0.66663 0.41695 1.06449
 C2121 C 0.55793 0.36723 1.04211
 H2122 H 0.55125 0.38282 1.03718
 C2123 C 0.57627 0.32749 1.05575
 C2124 C 0.44101 0.61831 1.06302
 H2125 H 0.44525 0.60224 1.05703
 C2126 C 0.42981 0.65982 1.07902
 C2127 C 0.44348 0.42908 1.12082
 H2128 H 0.44897 0.43608 1.10535
 C2129 C 0.42868 0.41024 1.16046
 C2130 C 0.55809 0.54463 1.12961
 H2131 H 0.55012 0.53678 1.11577
 C2132 C 0.57957 0.56647 1.16413
 C2133 C 0.44597 0.36498 1.04199
 H2134 H 0.45189 0.38083 1.03696
 C2135 C 0.42976 0.32451 1.05587
 C2136 C 0.55521 0.61879 1.06124
 H2137 H 0.55150 0.60240 1.05583
 C2138 C 0.56510 0.66106 1.07564
 C2139 C 0.37374 0.43391 1.04766
 H2140 H 0.38991 0.43952 1.04324
 C2141 C 0.33203 0.41878 1.05949
 C2142 C 0.62869 0.54979 1.05576
 H2143 H 0.61411 0.54322 1.04819
 C2144 C 0.66542 0.56775 1.07657
 C2145 C 1.11645 1.13501 1.27129
 C2146 C 1.10885 1.12443 1.25227
 C2147 C 1.12369 1.11307 1.23857
 C2148 C 1.14570 1.11186 1.24446
 C2149 C 1.15295 1.12145 1.26397
 C2150 C 1.13850 1.13323 1.27764
 C2151 C 1.11626 1.10276 1.21940
 C2152 C 1.09400 1.10278 1.21426
 C2153 C 1.07898 1.11333 1.22840
 C2154 C 1.08654 1.12447 1.24710
 C2155 C 1.05664 1.11239 1.22365
 C2156 C 1.04928 1.10128 1.20497
 C2157 C 1.06416 1.09133 1.19037
 C2158 C 1.08656 1.09222 1.19523
 H2159 H 1.10488 1.14340 1.28184
 H2160 H 1.15728 1.10320 1.23415
 H2161 H 1.17014 1.12023 1.26792
 H2162 H 1.12773 1.09432 1.20874
 H2163 H 1.07506 1.13280 1.25781
 H2164 H 1.04485 1.12013 1.23446
 H2165 H 1.03189 1.10049 1.20197
 H2166 H 1.09834 1.08506 1.18403
 C2167 C 1.12022 0.60494 0.79182
 C2168 C 1.10914 0.59727 0.77302
 C2169 C 1.08702 0.59090 0.77474
 C2170 C 1.07652 0.59187 0.79531
 C2171 C 1.08753 0.59988 0.81380
 C2172 C 1.10932 0.60678 0.81217
 C2173 C 1.07562 0.58410 0.75582
 C2174 C 1.08602 0.58367 0.73515
 C2175 C 1.10822 0.58978 0.73351
 C2176 C 1.11962 0.59652 0.75242
 C2177 C 1.11870 0.58904 0.71294
 C2178 C 1.10741 0.58211 0.69420
 C2179 C 1.08537 0.57605 0.69560
 C2180 C 1.07464 0.57706 0.71609
 H2181 H 1.13693 0.61052 0.79040
 H2182 H 1.05962 0.58699 0.79697
 H2183 H 1.07886 0.60119 0.82936
 H2184 H 1.05864 0.57935 0.75716
 H2185 H 1.13658 0.60137 0.75107
 H2186 H 1.13569 0.59365 0.71137
 H2187 H 1.11591 0.58140 0.67851
 H2188 H 1.05769 0.57217 0.71725
 C2189 C 0.61918 1.11909 0.78193
 C2190 C 0.61436 1.10849 0.76198
 C2191 C 0.63019 1.10772 0.74494
 C2192 C 0.65058 1.11747 0.74820
 C2193 C 0.65537 1.12763 0.76824
 C2194 C 0.63976 1.12848 0.78521
 C2195 C 0.62542 1.09719 0.72497
 C2196 C 0.60502 1.08741 0.72178
 C2197 C 0.58928 1.08797 0.73891
 C2198 C 0.59406 1.09846 0.75890
 C2199 C 0.56882 1.07839 0.73558
 C2200 C 0.56370 1.06903 0.71523
 C2201 C 0.57905 1.06883 0.69797
 C2202 C 0.59988 1.07760 0.70150
 H2203 H 0.60722 1.11949 0.79514
 H2204 H 0.66290 1.11703 0.73535
 H2205 H 0.67135 1.13478 0.77058
 H2206 H 0.63751 1.09675 0.71187
 H2207 H 0.58195 1.09897 0.77197
 H2208 H 0.55659 1.07861 0.74852
 H2209 H 0.54756 1.06231 0.71274
 H2210 H 0.61165 1.07772 0.68811
 C2211 C 0.63205 0.62754 1.26620
 C2212 C 0.62513 0.61353 1.24923
 C2213 C 0.62676 0.59076 1.25197
 C2214 C 0.63600 0.58244 1.27138
 C2215 C 0.64336 0.59646 1.28799
 C2216 C 0.64129 0.61929 1.28590
 C2217 C 0.61904 0.57673 1.23534
 C2218 C 0.60992 0.58523 1.21584
 C2219 C 0.60910 0.60807 1.21285
 C2220 C 0.61661 0.62202 1.22953
 C2221 C 0.60042 0.61669 1.19334
 C2222 C 0.59178 0.60294 1.17729
 C2223 C 0.59146 0.58025 1.18037
 C2224 C 0.60116 0.57140 1.19947
 H2225 H 0.63100 0.64494 1.26350
 H2226 H 0.63741 0.56502 1.27382
 H2227 H 0.64972 0.58915 1.30294
 H2228 H 0.61995 0.55925 1.23765
 H2229 H 0.61561 0.63950 1.22726
 H2230 H 0.59994 0.63412 1.19065
 H2231 H 0.58490 0.61014 1.16249
 H2232 H 0.60108 0.55393 1.20198
 C2233 C 0.89293 0.88612 1.29384
 C2234 C 0.89791 0.89591 1.27352
 C2235 C 0.89593 0.91868 1.27104
 C2236 C 0.88861 0.93122 1.28889
 C2237 C 0.88305 0.92129 1.30890
 C2238 C 0.88514 0.89857 1.31179
 C2239 C 0.90114 0.92850 1.25074
 C2240 C 0.90794 0.91572 1.23278
 C2241 C 0.90934 0.89286 1.23518
 C2242 C 0.90446 0.88314 1.25553
 C2243 C 0.91573 0.88002 1.21722
 C2244 C 0.92128 0.88973 1.19718
 C2245 C 0.92072 0.91249 1.19472
 C2246 C 0.91361 0.92541 1.21251
 H2247 H 0.89394 0.86856 1.29508
 H2248 H 0.88705 0.94872 1.28734
 H2249 H 0.87778 0.93168 1.32234
 H2250 H 0.89985 0.94601 1.24892
 H2251 H 0.90574 0.86562 1.25735
 H2252 H 0.91664 0.86247 1.21871
 H2253 H 0.92625 0.87939 1.18358
 H2254 H 0.91315 0.94296 1.21079
 C2255 C 0.88480 0.37235 0.77690
 C2256 C 0.89628 0.37764 0.75757
 C2257 C 0.90296 0.36101 0.74296
 C2258 C 0.89883 0.33927 0.74845
 C2259 C 0.88759 0.33405 0.76785
 C2260 C 0.87985 0.35051 0.78219
 C2261 C 0.91327 0.36640 0.72295
 C2262 C 0.91699 0.38827 0.71741
 C2263 C 0.91108 0.40484 0.73252
 C2264 C 0.90084 0.39942 0.75249
 C2265 C 0.91496 0.42664 0.72716
 C2266 C 0.92370 0.43212 0.70662
 C2267 C 0.92871 0.41593 0.69099
 C2268 C 0.92589 0.39393 0.69676
 H2269 H 0.88017 0.38538 0.78801
 H2270 H 0.90389 0.32626 0.73748
 H2271 H 0.88391 0.31708 0.77076
 H2272 H 0.91798 0.35363 0.71152
 H2273 H 0.89594 0.41220 0.76383
 H2274 H 0.91077 0.43952 0.73865
 H2275 H 0.92617 0.44915 0.70276
 H2276 H 0.92963 0.38131 0.68482
 C2277 C 0.38960 0.88169 0.78441
 C2278 C 0.39461 0.88897 0.76299
 C2279 C 0.37757 0.89373 0.74800
 C2280 C 0.35583 0.89121 0.75474
 C2281 C 0.35098 0.88381 0.77604
 C2282 C 0.36777 0.87885 0.79108
 C2283 C 0.38254 0.90080 0.72649
 C2284 C 0.40434 0.90311 0.71976
 C2285 C 0.42137 0.89836 0.73478
 C2286 C 0.41640 0.89138 0.75630
 C2287 C 0.44312 0.90063 0.72801
 C2288 C 0.44801 0.90757 0.70657
 C2289 C 0.43125 0.91237 0.69145
 C2290 C 0.40940 0.91005 0.69822
 H2291 H 0.40272 0.87826 0.79591
 H2292 H 0.34256 0.89474 0.74345
 H2293 H 0.33406 0.88150 0.78058
 H2294 H 0.36945 0.90443 0.71499
 H2295 H 0.42949 0.88772 0.76779
 H2296 H 0.45637 0.89712 0.73932
 H2297 H 0.46495 0.90951 0.70192
 H2298 H 0.39631 0.91343 0.68666
 C2299 C 0.38384 0.37273 1.27739
 C2300 C 0.39061 0.38258 1.25759
 C2301 C 0.38817 0.40526 1.25475
 C2302 C 0.37852 0.41761 1.27156
 C2303 C 0.37140 0.40767 1.29105
 C2304 C 0.37410 0.38508 1.29449
 C2305 C 0.39534 0.41520 1.23514
 C2306 C 0.40452 0.40265 1.21812
 C2307 C 0.40641 0.37986 1.22075
 C2308 C 0.39960 0.37000 1.24050
 C2309 C 0.41505 0.36728 1.20354
 C2310 C 0.42194 0.37714 1.18396
 C2311 C 0.42069 0.39986 1.18124
 C2312 C 0.41183 0.41250 1.19849
 H2313 H 0.38536 0.35524 1.27892
 H2314 H 0.37654 0.43504 1.26968
 H2315 H 0.36468 0.41806 1.30379
 H2316 H 0.39366 0.43266 1.23309
 H2317 H 0.40125 0.35254 1.24254
 H2318 H 0.41638 0.34977 1.20518
 H2319 H 0.42810 0.36685 1.17084
 H2320 H 0.41090 0.43003 1.19682
 C2321 C 0.87811 1.11213 0.72141
 C2322 C 0.88870 1.10307 0.73975
 C2323 C 0.91170 1.10242 0.74046
 C2324 C 0.92370 1.11085 0.72274
 C2325 C 0.91305 1.11976 0.70441
 C2326 C 0.89001 1.12048 0.70327
 C2327 C 0.92230 1.09339 0.75888
 C2328 C 0.91009 1.08499 0.77657
 C2329 C 0.88704 1.08561 0.77576
 C2330 C 0.87651 1.09470 0.75741
 C2331 C 0.87485 1.07717 0.79336
 C2332 C 0.88536 1.06827 0.81170
 C2333 C 0.90826 1.06764 0.81279
 C2334 C 0.92055 1.07603 0.79511
 H2335 H 0.86050 1.11333 0.72194
 H2336 H 0.94137 1.11037 0.72293
 H2337 H 0.92312 1.12520 0.69081
 H2338 H 0.93998 1.09292 0.75946
 H2339 H 0.85882 1.09519 0.75685
 H2340 H 0.85717 1.07757 0.79302
 H2341 H 0.87555 1.06223 0.82527
 H2342 H 0.93821 1.07546 0.79574
 C2343 C 0.88137 0.61878 0.22147
 C2344 C 0.88749 0.60961 0.24173
 C2345 C 0.87126 0.60224 0.25656
 C2346 C 0.84920 0.60370 0.25059
 C2347 C 0.84324 0.61301 0.23040
 C2348 C 0.85924 0.62097 0.21587
 C2349 C 0.87733 0.59396 0.27727
 C2350 C 0.89940 0.59315 0.28335
 C2351 C 0.91562 0.60014 0.26833
 C2352 C 0.90957 0.60821 0.24756
 C2353 C 0.93764 0.59928 0.27447
 C2354 C 0.94355 0.59194 0.29547
 C2355 C 0.92755 0.58533 0.31070
 C2356 C 0.90547 0.58581 0.30441
 H2357 H 0.89382 0.62457 0.21018
 H2358 H 0.83655 0.59807 0.26173
 H2359 H 0.82608 0.61466 0.22645
 H2360 H 0.86488 0.58852 0.28876
 H2361 H 0.92200 0.61382 0.23613
 H2362 H 0.95029 0.60444 0.26310
 H2363 H 0.96068 0.59137 0.29979
 H2364 H 0.89296 0.58102 0.31611
 C2365 C 0.37257 1.13239 0.22569
 C2366 C 0.37921 1.12162 0.24502
 C2367 C 0.36345 1.11260 0.25934
 C2368 C 0.34133 1.11404 0.25380
 C2369 C 0.33480 1.12466 0.23446
 C2370 C 0.35024 1.13437 0.22016
 C2371 C 0.37003 1.10246 0.27906
 C2372 C 0.39224 1.10117 0.28456
 C2373 C 0.40804 1.10976 0.26993
 C2374 C 0.40144 1.11989 0.25026
 C2375 C 0.43021 1.10833 0.27534
 C2376 C 0.43670 1.09890 0.29527
 C2377 C 0.42117 1.09076 0.31026
 C2378 C 0.39891 1.09172 0.30461
 H2379 H 0.38504 1.13860 0.21470
 H2380 H 0.32899 1.10723 0.26461
 H2381 H 0.31746 1.12613 0.23149
 H2382 H 0.35788 1.09576 0.29018
 H2383 H 0.41358 1.12667 0.23918
 H2384 H 0.44254 1.11466 0.26423
 H2385 H 0.45396 1.09800 0.29900
 H2386 H 0.38674 1.08570 0.31609
 C2387 C 0.36287 0.64053 0.73256
 C2388 C 0.37615 0.63206 0.74941
 C2389 C 0.39858 0.62831 0.74535
 C2390 C 0.40732 0.63317 0.72451
 C2391 C 0.39403 0.64182 0.70791
 C2392 C 0.37173 0.64559 0.71178
 C2393 C 0.41187 0.61976 0.76217
 C2394 C 0.40301 0.61486 0.78298
 C2395 C 0.38059 0.61878 0.78701
 C2396 C 0.36735 0.62740 0.77026
 C2397 C 0.37164 0.61369 0.80768
 C2398 C 0.38458 0.60422 0.82401
 C2399 C 0.40675 0.59988 0.82010
 C2400 C 0.41604 0.60563 0.79969
 H2401 H 0.34575 0.64368 0.73577
 H2402 H 0.42445 0.63039 0.72107
 H2403 H 0.40116 0.64552 0.69196
 H2404 H 0.42904 0.61678 0.75901
 H2405 H 0.35017 0.63031 0.77339
 H2406 H 0.35453 0.61666 0.81107
 H2407 H 0.37721 0.59998 0.83971
 H2408 H 0.43311 0.60215 0.79658
 C2409 C 1.12365 0.88667 0.71935
 C2410 C 1.11261 0.89294 0.73865
 C2411 C 1.08954 0.89366 0.73885
 C2412 C 1.07795 0.88811 0.71969
 C2413 C 1.08908 0.88175 0.70058
 C2414 C 1.11200 0.88093 0.70024
 C2415 C 1.07848 0.89986 0.75818
 C2416 C 1.09020 0.90538 0.77730
 C2417 C 1.11328 0.90460 0.77703
 C2418 C 1.12431 0.89835 0.75776
 C2419 C 1.12501 0.91026 0.79604
 C2420 C 1.11404 0.91700 0.81504
 C2421 C 1.09114 0.91807 0.81547
 C2422 C 1.07926 0.91194 0.79661
 H2423 H 1.14132 0.88578 0.71936
 H2424 H 1.06028 0.88861 0.71950
 H2425 H 1.07977 0.87753 0.68599
 H2426 H 1.06079 0.90045 0.75832
 H2427 H 1.14200 0.89778 0.75761
 H2428 H 1.14268 0.90968 0.79615
 H2429 H 1.12348 0.92142 0.82949
 H2430 H 1.06160 0.91287 0.79680
 C2431 C 1.12921 0.38035 0.22442
 C2432 C 1.11760 0.39025 0.24169
 C2433 C 1.09458 0.39133 0.24078
 C2434 C 1.08360 0.38248 0.22255
 C2435 C 1.09531 0.37284 0.20529
 C2436 C 1.11822 0.37175 0.20598
 C2437 C 1.08296 0.40130 0.25803
 C2438 C 1.09410 0.41029 0.27613
 C2439 C 1.11715 0.40927 0.27693
 C2440 C 1.12873 0.39920 0.25976
 C2441 C 1.12827 0.41833 0.29493
 C2442 C 1.11671 0.42821 0.31209
 C2443 C 1.09380 0.42925 0.31159
 C2444 C 1.08259 0.42026 0.29348
 H2445 H 1.14683 0.37928 0.22540
 H2446 H 1.06596 0.38321 0.22153
 H2447 H 1.08643 0.36661 0.19118
 H2448 H 1.06529 0.40209 0.25736
 H2449 H 1.14640 0.39841 0.26043
 H2450 H 1.14591 0.41764 0.29583
 H2451 H 1.12571 0.43465 0.32602
 H2452 H 1.06493 0.42111 0.29286
 C2453 C 0.62231 0.88420 0.21659
 C2454 C 0.61129 0.89317 0.23472
 C2455 C 0.58863 0.88989 0.23712
 C2456 C 0.57752 0.87710 0.22161
 C2457 C 0.58871 0.86779 0.20378
 C2458 C 0.61125 0.87147 0.20071
 C2459 C 0.57754 0.89929 0.25508
 C2460 C 0.58900 0.91141 0.27097
 C2461 C 0.61180 0.91410 0.26881
 C2462 C 0.62274 0.90519 0.25061
 C2463 C 0.62338 0.92548 0.28504
 C2464 C 0.61255 0.93406 0.30335
 C2465 C 0.58978 0.93195 0.30562
 C2466 C 0.57811 0.92065 0.28914
 H2467 H 0.63981 0.88645 0.21553
 H2468 H 0.56014 0.87434 0.22321
 H2469 H 0.57933 0.85855 0.19190
 H2470 H 0.56008 0.89694 0.25683
 H2471 H 0.64021 0.90746 0.24891
 H2472 H 0.64090 0.92744 0.28376
 H2473 H 0.62221 0.94199 0.31595
 H2474 H 0.56056 0.91902 0.29037
 C2475 C 0.62973 0.37527 0.72015
 C2476 C 0.62293 0.38844 0.73788
 C2477 C 0.63803 0.39433 0.75453
 C2478 C 0.65975 0.38737 0.75290
 C2479 C 0.66645 0.37461 0.73504
 C2480 C 0.65152 0.36832 0.71863
 C2481 C 0.63115 0.40689 0.77263
 C2482 C 0.60935 0.41369 0.77433
 C2483 C 0.59440 0.40828 0.75738
 C2484 C 0.60128 0.39573 0.73928
 C2485 C 0.57264 0.41508 0.75908
 C2486 C 0.56551 0.42628 0.77782
 C2487 C 0.57999 0.43103 0.79518
 C2488 C 0.60208 0.42520 0.79305
 H2489 H 0.61821 0.37064 0.70739
 H2490 H 0.67156 0.39177 0.76545
 H2491 H 0.68331 0.36936 0.73416
 H2492 H 0.64268 0.41110 0.78554
 H2493 H 0.58971 0.39138 0.72645
 H2494 H 0.56100 0.41124 0.74619
 H2495 H 0.54846 0.43079 0.77903
 H2496 H 0.61333 0.42860 0.80644
 C2497 C 1.26603 1.13165 1.12468
 C2498 C 1.24651 1.12596 1.11408
 C2499 C 1.23099 1.14224 1.10893
 C2500 C 1.23552 1.16402 1.11409
 C2501 C 1.25508 1.16957 1.12451
 C2502 C 1.27039 1.15343 1.13008
 C2503 C 1.21114 1.13646 1.09897
 C2504 C 1.20658 1.11458 1.09421
 C2505 C 1.22234 1.09840 1.09898
 C2506 C 1.24221 1.10420 1.10879
 C2507 C 1.21781 1.07656 1.09430
 C2508 C 1.19757 1.07066 1.08569
 C2509 C 1.18151 1.08647 1.08148
 C2510 C 1.18630 1.10851 1.08530
 H2511 H 1.27791 1.11916 1.12865
 H2512 H 1.22386 1.17673 1.11023
 H2513 H 1.25811 1.18645 1.12861
 H2514 H 1.19913 1.14892 1.09527
 H2515 H 1.25416 1.09172 1.11265
 H2516 H 1.22975 1.06398 1.09771
 H2517 H 1.19431 1.05362 1.08258
 H2518 H 1.17394 1.12079 1.08223
 C2519 C 1.26656 0.62940 0.63830
 C2520 C 1.24691 0.62225 0.62882
 C2521 C 1.22897 0.63670 0.62731
 C2522 C 1.23080 0.65785 0.63573
 C2523 C 1.25049 0.66492 0.64476
 C2524 C 1.26859 0.65093 0.64577
 C2525 C 1.20966 0.62999 0.61697
 C2526 C 1.20804 0.60903 0.60801
 C2527 C 1.22582 0.59443 0.60983
 C2528 C 1.24514 0.60113 0.62023
 C2529 C 1.22397 0.57335 0.60118
 C2530 C 1.20466 0.56676 0.59095
 C2531 C 1.18702 0.58122 0.58891
 C2532 C 1.18884 0.60239 0.59736
 H2533 H 1.28057 0.61863 0.63883
 H2534 H 1.21720 0.66909 0.63480
 H2535 H 1.25177 0.68156 0.65052
 H2536 H 1.19599 0.64115 0.61568
 H2537 H 1.25884 0.59000 0.62142
 H2538 H 1.23740 0.56193 0.60246
 H2539 H 1.20345 0.55033 0.58458
 H2540 H 1.17511 0.61346 0.59611
 C2541 C 0.78419 1.12315 0.61206
 C2542 C 0.76376 1.11339 0.60808
 C2543 C 0.75050 1.10698 0.62607
 C2544 C 0.75783 1.11033 0.64766
 C2545 C 0.77835 1.11931 0.65151
 C2546 C 0.79210 1.12562 0.63385
 C2547 C 0.73019 1.09713 0.62226
 C2548 C 0.72302 1.09323 0.60062
 C2549 C 0.73640 1.09933 0.58258
 C2550 C 0.75660 1.10945 0.58640
 C2551 C 0.72928 1.09532 0.56096
 C2552 C 0.70888 1.08594 0.55722
 C2553 C 0.69515 1.08033 0.57498
 C2554 C 0.70253 1.08365 0.59671
 H2555 H 0.79441 1.12743 0.59810
 H2556 H 0.74780 1.10573 0.66166
 H2557 H 0.78316 1.12179 0.66854
 H2558 H 0.72003 1.09240 0.63613
 H2559 H 0.76676 1.11417 0.57252
 H2560 H 0.73935 1.09971 0.54693
 H2561 H 0.70364 1.08334 0.54033
 H2562 H 0.69201 1.07954 0.61050
 C2563 C 0.77020 0.62369 1.12693
 C2564 C 0.75284 0.61514 1.11467
 C2565 C 0.75385 0.61504 1.09133
 C2566 C 0.77223 0.62375 1.08069
 C2567 C 0.78959 0.63211 1.09308
 C2568 C 0.78884 0.63193 1.11631
 C2569 C 0.73658 0.60606 1.07909
 C2570 C 0.71846 0.59703 1.08998
 C2571 C 0.71754 0.59730 1.11336
 C2572 C 0.73465 0.60645 1.12552
 C2573 C 0.69958 0.58824 1.12428
 C2574 C 0.68274 0.57874 1.11222
 C2575 C 0.68348 0.57813 1.08900
 C2576 C 0.70133 0.58753 1.07793
 H2577 H 0.76923 0.62388 1.14483
 H2578 H 0.77330 0.62384 1.06280
 H2579 H 0.80381 0.63828 1.08451
 H2580 H 0.73735 0.60589 1.06118
 H2581 H 0.73392 0.60655 1.14344
 H2582 H 0.69859 0.58843 1.14217
 H2583 H 0.66896 0.57201 1.12109
 H2584 H 0.70206 0.58707 1.06003
 C2585 C 1.27940 0.88486 0.88101
 C2586 C 1.26112 0.89206 0.89300
 C2587 C 1.26164 0.89220 0.91634
 C2588 C 1.28030 0.88470 0.92730
 C2589 C 1.29824 0.87706 0.91532
 C2590 C 1.29824 0.87708 0.89193
 C2591 C 1.24349 0.89975 0.92833
 C2592 C 1.22464 0.90683 0.91723
 C2593 C 1.22400 0.90611 0.89385
 C2594 C 1.24223 0.89888 0.88192
 C2595 C 1.20511 0.91269 0.88272
 C2596 C 1.18715 0.92037 0.89453
 C2597 C 1.18771 0.92191 0.91775
 C2598 C 1.20648 0.91474 0.92905
 H2599 H 1.27835 0.88436 0.86315
 H2600 H 1.28104 0.88474 0.94520
 H2601 H 1.31246 0.87198 0.92458
 H2602 H 1.24401 0.90007 0.94626
 H2603 H 1.24170 0.89855 0.86399
 H2604 H 1.20423 0.91198 0.86484
 H2605 H 1.17273 0.92515 0.88539
 H2606 H 1.20715 0.91581 0.94692
 C2607 C 1.28104 0.38980 0.37743
 C2608 C 1.26232 0.39731 0.38844
 C2609 C 1.26069 0.39519 0.41162
 C2610 C 1.27772 0.38534 0.42336
 C2611 C 1.29618 0.37759 0.41228
 C2612 C 1.29830 0.37973 0.38910
 C2613 C 1.24203 0.40286 0.42267
 C2614 C 1.22483 0.41237 0.41072
 C2615 C 1.22638 0.41414 0.38746
 C2616 C 1.24511 0.40670 0.37650
 C2617 C 1.20913 0.42331 0.37548
 C2618 C 1.19055 0.43083 0.38640
 C2619 C 1.18887 0.42956 0.40957
 C2620 C 1.20611 0.42014 0.42164
 H2621 H 1.28150 0.39096 0.35957
 H2622 H 1.27680 0.38365 0.44117
 H2623 H 1.30913 0.37071 0.42223
 H2624 H 1.24085 0.40134 0.44050
 H2625 H 1.24627 0.40819 0.35866
 H2626 H 1.20996 0.42460 0.35763
 H2627 H 1.17735 0.43748 0.37660
 H2628 H 1.20511 0.41914 0.43950
 C2629 C 0.78795 0.89575 0.38800
 C2630 C 0.76830 0.90322 0.39705
 C2631 C 0.76534 0.90313 0.42023
 C2632 C 0.78216 0.89542 0.43391
 C2633 C 0.80179 0.88806 0.42472
 C2634 C 0.80493 0.88833 0.40170
 C2635 C 0.74568 0.91077 0.42928
 C2636 C 0.72897 0.91846 0.41541
 C2637 C 0.73201 0.91849 0.39223
 C2638 C 0.75162 0.91086 0.38321
 C2639 C 0.71534 0.92613 0.37840
 C2640 C 0.69575 0.93359 0.38739
 C2641 C 0.69246 0.93364 0.41040
 C2642 C 0.70924 0.92609 0.42433
 H2643 H 0.78999 0.89560 0.37019
 H2644 H 0.78019 0.89521 0.45171
 H2645 H 0.81466 0.88253 0.43562
 H2646 H 0.74337 0.91071 0.44706
 H2647 H 0.75393 0.91091 0.36542
 H2648 H 0.71739 0.92618 0.36060
 H2649 H 0.68299 0.93895 0.37628
 H2650 H 0.70699 0.92626 0.44211
 C2651 C 0.76721 0.36960 0.86015
 C2652 C 0.75024 0.38336 0.86700
 C2653 C 0.75449 0.40559 0.87122
 C2654 C 0.77562 0.41374 0.86796
 C2655 C 0.79243 0.39992 0.86098
 C2656 C 0.78842 0.37771 0.85729
 C2657 C 0.73765 0.41917 0.87893
 C2658 C 0.71668 0.41072 0.88263
 C2659 C 0.71243 0.38856 0.87788
 C2660 C 0.72916 0.37510 0.86999
 C2661 C 0.69162 0.38000 0.88167
 C2662 C 0.67537 0.39296 0.89097
 C2663 C 0.67954 0.41477 0.89646
 C2664 C 0.70005 0.42380 0.89170
 H2665 H 0.76394 0.35254 0.85700
 H2666 H 0.77920 0.43073 0.87103
 H2667 H 0.80868 0.40649 0.85890
 H2668 H 0.74098 0.43614 0.88247
 H2669 H 0.72590 0.35807 0.86664
 H2670 H 0.68806 0.36312 0.87800
 H2671 H 0.65958 0.38581 0.89438
 H2672 H 0.70333 0.44059 0.89602
 C2673 C 0.72258 0.86742 1.11846
 C2674 C 0.74144 0.87837 1.11152
 C2675 C 0.74078 0.90111 1.10795
 C2676 C 0.72123 0.91248 1.11137
 C2677 C 0.70254 0.90145 1.11837
 C2678 C 0.70303 0.87886 1.12201
 C2679 C 0.75966 0.91209 1.10105
 C2680 C 0.77917 0.90061 1.09763
 C2681 C 0.77977 0.87786 1.10122
 C2682 C 0.76094 0.86691 1.10819
 C2683 C 0.79919 0.86636 1.09763
 C2684 C 0.81779 0.87721 1.09024
 C2685 C 0.81737 0.89976 1.08644
 C2686 C 0.79804 0.91144 1.09041
 H2687 H 0.72322 0.85005 1.12153
 H2688 H 0.72039 0.92989 1.10867
 H2689 H 0.68760 0.91058 1.12083
 H2690 H 0.75914 0.92953 1.09829
 H2691 H 0.76145 0.84947 1.11093
 H2692 H 0.79996 0.84895 1.10037
 H2693 H 0.83260 0.86795 1.08752
 H2694 H 0.79756 0.92881 1.08734
 C2695 C 0.73496 0.36943 0.62442
 C2696 C 0.75305 0.37587 0.61183
 C2697 C 0.76824 0.36015 0.60450
 C2698 C 0.76478 0.33819 0.60937
 C2699 C 0.74653 0.33180 0.62154
 C2700 C 0.73136 0.34729 0.62948
 C2701 C 0.78676 0.36666 0.59260
 C2702 C 0.79024 0.38872 0.58791
 C2703 C 0.77466 0.40438 0.59466
 C2704 C 0.75616 0.39786 0.60653
 C2705 C 0.77813 0.42641 0.58993
 C2706 C 0.79732 0.43300 0.57952
 C2707 C 0.81332 0.41769 0.57355
 C2708 C 0.80940 0.39547 0.57723
 H2709 H 0.72326 0.38170 0.62944
 H2710 H 0.77630 0.32591 0.60394
 H2711 H 0.74497 0.31471 0.62551
 H2712 H 0.79861 0.35461 0.58730
 H2713 H 0.74440 0.40993 0.61196
 H2714 H 0.76629 0.43860 0.59481
 H2715 H 0.79994 0.45019 0.57659
 H2716 H 0.82175 0.38358 0.57285
 C2717 C 0.22259 0.87750 0.61290
 C2718 C 0.24190 0.88792 0.60627
 C2719 C 0.24400 0.91065 0.60881
 C2720 C 0.22687 0.92253 0.61822
 C2721 C 0.20782 0.91205 0.62509
 C2722 C 0.20519 0.88934 0.62249
 C2723 C 0.26322 0.92112 0.60197
 C2724 C 0.28049 0.90906 0.59287
 C2725 C 0.27849 0.88624 0.59070
 C2726 C 0.25921 0.87584 0.59733
 C2727 C 0.29582 0.87416 0.58192
 C2728 C 0.31490 0.88455 0.57512
 C2729 C 0.31703 0.90729 0.57676
 C2730 C 0.29972 0.91944 0.58585
 H2731 H 0.22171 0.85997 0.61142
 H2732 H 0.22815 0.94001 0.62022
 H2733 H 0.19482 0.92210 0.63161
 H2734 H 0.26474 0.93861 0.60380
 H2735 H 0.25769 0.85834 0.59552
 H2736 H 0.29464 0.85663 0.58033
 H2737 H 0.32811 0.87470 0.56868
 H2738 H 0.30104 0.93698 0.58709
 C2739 C 0.22213 0.37305 1.11060
 C2740 C 0.24222 0.38244 1.10480
 C2741 C 0.25585 0.39115 1.12141
 C2742 C 0.24884 0.39101 1.14342
 C2743 C 0.22855 0.38230 1.14900
 C2744 C 0.21490 0.37293 1.13278
 C2745 C 0.27622 0.39994 1.11576
 C2746 C 0.28290 0.40071 1.09359
 C2747 C 0.26890 0.39278 1.07688
 C2748 C 0.24878 0.38347 1.08259
 C2749 C 0.27527 0.39429 1.05470
 C2750 C 0.29545 0.40325 1.04911
 C2751 C 0.30995 0.41050 1.06559
 C2752 C 0.30338 0.40928 1.08788
 H2753 H 0.21176 0.36676 1.09759
 H2754 H 0.25907 0.39764 1.15637
 H2755 H 0.22413 0.38205 1.16633
 H2756 H 0.28679 0.40631 1.12860
 H2757 H 0.23820 0.37711 1.06975
 H2758 H 0.26461 0.38858 1.04164
 H2759 H 0.29965 0.40451 1.03178
 H2760 H 0.31433 0.41454 1.10087
 C2761 C 0.72073 1.10979 0.87852
 C2762 C 0.73983 1.10216 0.88857
 C2763 C 0.75356 1.11687 0.89986
 C2764 C 0.74754 1.13876 0.90167
 C2765 C 0.72819 1.14615 0.89214
 C2766 C 0.71466 1.13190 0.88005
 C2767 C 0.77307 1.10947 0.90921
 C2768 C 0.77870 1.08741 0.90797
 C2769 C 0.76459 1.07250 0.89746
 C2770 C 0.74533 1.08001 0.88758
 C2771 C 0.77004 1.05034 0.89700
 C2772 C 0.78936 1.04305 0.90680
 C2773 C 0.80376 1.05786 0.91687
 C2774 C 0.79827 1.08008 0.91717
 H2775 H 0.71021 1.09822 0.87023
 H2776 H 0.75787 1.15022 0.91035
 H2777 H 0.72453 1.16334 0.89334
 H2778 H 0.78377 1.12083 0.91759
 H2779 H 0.73462 1.06864 0.87921
 H2780 H 0.75931 1.03864 0.88920
 H2781 H 0.79294 1.02580 0.90660
 H2782 H 0.80937 1.09186 0.92428
 C2783 C 0.72335 0.62274 0.38247
 C2784 C 0.74303 0.61732 0.39306
 C2785 C 0.75829 0.63382 0.39807
 C2786 C 0.75348 0.65547 0.39262
 C2787 C 0.73399 0.66069 0.38184
 C2788 C 0.71878 0.64441 0.37645
 C2789 C 0.77827 0.62836 0.40805
 C2790 C 0.78334 0.60655 0.41274
 C2791 C 0.76797 0.59008 0.40785
 C2792 C 0.74785 0.59559 0.39827
 C2793 C 0.77315 0.56828 0.41218
 C2794 C 0.79358 0.56273 0.42069
 C2795 C 0.80915 0.57886 0.42532
 C2796 C 0.80376 0.60084 0.42168
 H2797 H 0.71167 0.61003 0.37875
 H2798 H 0.76500 0.66833 0.39629
 H2799 H 0.73111 0.67746 0.37718
 H2800 H 0.79004 0.64102 0.41173
 H2801 H 0.73617 0.58291 0.39440
 H2802 H 0.76155 0.55547 0.40860
 H2803 H 0.79732 0.54573 0.42357
 H2804 H 0.81575 0.61336 0.42501
 C2805 C 0.22774 1.13556 0.38296
 C2806 C 0.24511 1.12274 0.39088
 C2807 C 0.24313 1.09981 0.39136
 C2808 C 0.22381 1.09007 0.38422
 C2809 C 0.20707 1.10276 0.37548
 C2810 C 0.20894 1.12564 0.37413
 C2811 C 0.26065 1.08688 0.39843
 C2812 C 0.28043 1.09651 0.40455
 C2813 C 0.28251 1.11945 0.40400
 C2814 C 0.26480 1.13241 0.39738
 C2815 C 0.30233 1.12905 0.41004
 C2816 C 0.31977 1.11612 0.41693
 C2817 C 0.31777 1.09334 0.41786
 C2818 C 0.29814 1.08358 0.41133
 H2819 H 0.22976 1.15305 0.38189
 H2820 H 0.22188 1.07255 0.38473
 H2821 H 0.19250 1.09454 0.36978
 H2822 H 0.25902 1.06930 0.39878
 H2823 H 0.26648 1.14998 0.39690
 H2824 H 0.30429 1.14657 0.40962
 H2825 H 0.33485 1.12393 0.42180
 H2826 H 0.29646 1.06604 0.41220
 C2827 C 0.21147 0.60736 0.88933
 C2828 C 0.23222 0.60348 0.89855
 C2829 C 0.24559 0.62120 0.90469
 C2830 C 0.23799 0.64244 0.90178
 C2831 C 0.21717 0.64618 0.89333
 C2832 C 0.20341 0.62878 0.88712
 C2833 C 0.26634 0.61748 0.91374
 C2834 C 0.27385 0.59619 0.91709
 C2835 C 0.26029 0.57842 0.91144
 C2836 C 0.23964 0.58216 0.90212
 C2837 C 0.26774 0.55715 0.91497
 C2838 C 0.28866 0.55350 0.92328
 C2839 C 0.30259 0.57101 0.92824
 C2840 C 0.29487 0.59238 0.92558
 H2841 H 0.20121 0.59361 0.88519
 H2842 H 0.24809 0.65623 0.90621
 H2843 H 0.21219 0.66294 0.89106
 H2844 H 0.27663 0.63114 0.91818
 H2845 H 0.22937 0.56849 0.89765
 H2846 H 0.25754 0.54332 0.91094
 H2847 H 0.29417 0.53688 0.92546
 H2848 H 0.30553 0.60598 0.92920
 C2849 C 1.11036 1.28127 1.11646
 C2850 C 1.10360 1.26121 1.10770
 C2851 C 1.11931 1.24512 1.10257
 C2852 C 1.14147 1.24940 1.10616
 C2853 C 1.14805 1.26933 1.11499
 C2854 C 1.13261 1.28545 1.12033
 C2855 C 1.11263 1.22494 1.09412
 C2856 C 1.09041 1.22058 1.09081
 C2857 C 1.07468 1.23668 1.09585
 C2858 C 1.08137 1.25692 1.10419
 C2859 C 1.05249 1.23219 1.09261
 C2860 C 1.04591 1.21191 1.08458
 C2861 C 1.06139 1.19575 1.07955
 C2862 C 1.08367 1.20028 1.08269
 H2863 H 1.09830 1.29364 1.12023
 H2864 H 1.15373 1.23723 1.10238
 H2865 H 1.16524 1.27194 1.11811
 H2866 H 1.12471 1.21260 1.09026
 H2867 H 1.06929 1.26923 1.10813
 H2868 H 1.04020 1.24434 1.09634
 H2869 H 1.02868 1.20892 1.08209
 H2870 H 1.09576 1.18785 1.07921
 C2871 C 1.11898 0.78088 0.62462
 C2872 C 1.11109 0.76188 0.61464
 C2873 C 1.11034 0.76037 0.59133
 C2874 C 1.11779 0.77783 0.57843
 C2875 C 1.12565 0.79672 0.58853
 C2876 C 1.12611 0.79851 0.61169
 C2877 C 1.10206 0.74150 0.58133
 C2878 C 1.09464 0.72410 0.59436
 C2879 C 1.09565 0.72557 0.61767
 C2880 C 1.10384 0.74444 0.62765
 C2881 C 1.08843 0.70812 0.63065
 C2882 C 1.08027 0.68935 0.62067
 C2883 C 1.07900 0.68768 0.59751
 C2884 C 1.08623 0.70523 0.58446
 H2885 H 1.11960 0.78197 0.64251
 H2886 H 1.11737 0.77695 0.56055
 H2887 H 1.13092 0.81015 0.57824
 H2888 H 1.10138 0.74037 0.56344
 H2889 H 1.10450 0.74558 0.64554
 H2890 H 1.08922 0.70893 0.64853
 H2891 H 1.07525 0.67596 0.63114
 H2892 H 1.08513 0.70431 0.56660
 C2893 C 0.62474 1.26417 0.64500
 C2894 C 0.61699 1.24452 0.63605
 C2895 C 0.63112 1.22633 0.63459
 C2896 C 0.65243 1.22782 0.64278
 C2897 C 0.66007 1.24744 0.65131
 C2898 C 0.64651 1.26588 0.65201
 C2899 C 0.62400 1.20714 0.62442
 C2900 C 0.60293 1.20585 0.61557
 C2901 C 0.58852 1.22375 0.61756
 C2902 C 0.59564 1.24298 0.62778
 C2903 C 0.56727 1.22213 0.60911
 C2904 C 0.56042 1.20301 0.59871
 C2905 C 0.57482 1.18541 0.59624
 C2906 C 0.59606 1.18690 0.60470
 H2907 H 0.61429 1.27841 0.64534
 H2908 H 0.66341 1.21401 0.64195
 H2909 H 0.67688 1.24847 0.65675
 H2910 H 0.63497 1.19334 0.62306
 H2911 H 0.58472 1.25683 0.62898
 H2912 H 0.55595 1.23560 0.61059
 H2913 H 0.54391 1.20197 0.59240
 H2914 H 0.60706 1.17315 0.60311
 C2915 C 0.60928 0.77475 1.11762
 C2916 C 0.60475 0.75374 1.10972
 C2917 C 0.62210 0.73917 1.10534
 C2918 C 0.64364 0.74582 1.10900
 C2919 C 0.64801 0.76670 1.11691
 C2920 C 0.63093 0.78142 1.12124
 C2921 C 0.61767 0.71817 1.09744
 C2922 C 0.59608 0.71148 1.09394
 C2923 C 0.57871 0.72602 1.09836
 C2924 C 0.58315 0.74706 1.10614
 C2925 C 0.55715 0.71920 1.09503
 C2926 C 0.55280 0.69815 1.08755
 C2927 C 0.56992 0.68354 1.08313
 C2928 C 0.59158 0.69039 1.08625
 H2929 H 0.59598 0.78599 1.12070
 H2930 H 0.65714 0.73484 1.10585
 H2931 H 0.66480 0.77126 1.11990
 H2932 H 0.63101 0.70703 1.09410
 H2933 H 0.56981 0.75819 1.10952
 H2934 H 0.54363 0.73012 1.09829
 H2935 H 0.53600 0.69331 1.08505
 H2936 H 0.60488 0.67916 1.08313
 C2937 C 0.87087 1.26839 0.87833
 C2938 C 0.87505 1.24854 0.88895
 C2939 C 0.85781 1.23373 0.89274
 C2940 C 0.83653 1.23940 0.88636
 C2941 C 0.83248 1.25932 0.87590
 C2942 C 0.84966 1.27380 0.87150
 C2943 C 0.86220 1.21342 0.90250
 C2944 C 0.88365 1.20775 0.90840
 C2945 C 0.90072 1.22290 0.90510
 C2946 C 0.89630 1.24318 0.89550
 C2947 C 0.92210 1.21736 0.91097
 C2948 C 0.92675 1.19670 0.91923
 C2949 C 0.91013 1.18117 0.92187
 C2950 C 0.88846 1.18698 0.91695
 H2951 H 0.88414 1.27965 0.87528
 H2952 H 0.82308 1.22832 0.88920
 H2953 H 0.81601 1.26320 0.87074
 H2954 H 0.84905 1.20192 0.90510
 H2955 H 0.90949 1.25461 0.89271
 H2956 H 0.93532 1.22884 0.90873
 H2957 H 0.94349 1.19270 0.92327
 H2958 H 0.87556 1.17507 0.91887
 C2959 C 0.88286 0.78859 0.39628
 C2960 C 0.89325 0.76920 0.40265
 C2961 C 0.91627 0.76836 0.40393
 C2962 C 0.92850 0.78693 0.39871
 C2963 C 0.91804 0.80612 0.39222
 C2964 C 0.89516 0.80716 0.39096
 C2965 C 0.92669 0.74900 0.41038
 C2966 C 0.91437 0.73043 0.41551
 C2967 C 0.89134 0.73128 0.41406
 C2968 C 0.88094 0.75062 0.40765
 C2969 C 0.87904 0.71275 0.41914
 C2970 C 0.88937 0.69363 0.42587
 C2971 C 0.91223 0.69260 0.42768
 C2972 C 0.92466 0.71107 0.42224
 H2973 H 0.86522 0.78914 0.39507
 H2974 H 0.94615 0.78661 0.39961
 H2975 H 0.92785 0.82027 0.38837
 H2976 H 0.94434 0.74841 0.41144
 H2977 H 0.86328 0.75122 0.40661
 H2978 H 0.86140 0.71307 0.41799
 H2979 H 0.87944 0.67953 0.42959
 H2980 H 0.94228 0.71050 0.42371
 C2981 C 0.37631 1.28130 0.38767
 C2982 C 0.38732 1.26293 0.39582
 C2983 C 0.41039 1.26254 0.39604
 C2984 C 0.42202 1.28049 0.38794
 C2985 C 0.41093 1.29866 0.37972
 C2986 C 0.38801 1.29928 0.37957
 C2987 C 0.42143 1.24422 0.40430
 C2988 C 0.40968 1.22622 0.41220
 C2989 C 0.38661 1.22660 0.41180
 C2990 C 0.37559 1.24495 0.40367
 C2991 C 0.37490 1.20857 0.41948
 C2992 C 0.38588 1.19031 0.42753
 C2993 C 0.40881 1.18973 0.42824
 C2994 C 0.42062 1.20782 0.42047
 H2995 H 0.35863 1.28149 0.38734
 H2996 H 0.43970 1.28049 0.38797
 H2997 H 0.42028 1.31239 0.37374
 H2998 H 0.43912 1.24395 0.40453
 H2999 H 0.35790 1.24521 0.40343
 H3000 H 0.35722 1.20852 0.41914
 H3001 H 0.37635 1.17647 0.43293
 H3002 H 0.43829 1.20767 0.42106
 C3003 C 0.37776 0.78057 0.88827
 C3004 C 0.38884 0.76197 0.89565
 C3005 C 0.41191 0.76166 0.89593
 C3006 C 0.42347 0.77996 0.88852
 C3007 C 0.41228 0.79835 0.88089
 C3008 C 0.38937 0.79884 0.88082
 C3009 C 0.42298 0.74307 0.90351
 C3010 C 0.41124 0.72471 0.91055
 C3011 C 0.38817 0.72500 0.90991
 C3012 C 0.37714 0.74363 0.90258
 C3013 C 0.37644 0.70663 0.91661
 C3014 C 0.38738 0.68815 0.92408
 C3015 C 0.41030 0.68768 0.92526
 C3016 C 0.42216 0.70604 0.91826
 H3017 H 0.36007 0.78072 0.88792
 H3018 H 0.44115 0.78003 0.88855
 H3019 H 0.42151 0.81230 0.87523
 H3020 H 0.44067 0.74286 0.90385
 H3021 H 0.35944 0.74383 0.90221
 H3022 H 0.35877 0.70653 0.91601
 H3023 H 0.37782 0.67409 0.92881
 H3024 H 0.43982 0.70594 0.91915
 C3025 C 1.11973 0.71869 0.89369
 C3026 C 1.11020 0.73788 0.90154
 C3027 C 1.08743 0.73880 0.90509
 C3028 C 1.07463 0.72034 0.90091
 C3029 C 1.08434 0.70113 0.89337
 C3030 C 1.10697 0.70011 0.88972
 C3031 C 1.07787 0.75811 0.91278
 C3032 C 1.09087 0.77638 0.91715
 C3033 C 1.11370 0.77529 0.91386
 C3034 C 1.12319 0.75610 0.90595
 C3035 C 1.12671 0.79345 0.91856
 C3036 C 1.11719 0.81260 0.92633
 C3037 C 1.09452 0.81395 0.92936
 C3038 C 1.08143 0.79576 0.92477
 H3039 H 1.13712 0.71833 0.89047
 H3040 H 1.05716 0.72072 0.90362
 H3041 H 1.07417 0.68700 0.89065
 H3042 H 1.06038 0.75890 0.91540
 H3043 H 1.14068 0.75531 0.90332
 H3044 H 1.14422 0.79286 0.91616
 H3045 H 1.12750 0.82653 0.92959
 H3046 H 1.06394 0.79668 0.92731
 C3047 C 1.13156 0.22893 0.37703
 C3048 C 1.12202 0.24926 0.38170
 C3049 C 1.12202 0.26579 0.36538
 C3050 C 1.13169 0.26178 0.34479
 C3051 C 1.14079 0.24145 0.34017
 C3052 C 1.14064 0.22482 0.35611
 C3053 C 1.11219 0.28597 0.36980
 C3054 C 1.10233 0.28991 0.39035
 C3055 C 1.10236 0.27340 0.40668
 C3056 C 1.11215 0.25320 0.40224
 C3057 C 1.09283 0.27748 0.42734
 C3058 C 1.08385 0.29786 0.43198
 C3059 C 1.08389 0.31441 0.41596
 C3060 C 1.09283 0.31025 0.39501
 H3061 H 1.13118 0.21606 0.38929
 H3062 H 1.13189 0.27424 0.33211
 H3063 H 1.14775 0.23857 0.32396
 H3064 H 1.11223 0.29860 0.35727
 H3065 H 1.11211 0.24057 0.41478
 H3066 H 1.09270 0.26505 0.44005
 H3067 H 1.07709 0.30087 0.44825
 H3068 H 1.09317 0.32311 0.38273
 C3069 C 0.62299 0.72770 0.37196
 C3070 C 0.61289 0.74777 0.37642
 C3071 C 0.60809 0.76222 0.35888
 C3072 C 0.61306 0.75606 0.33711
 C3073 C 0.62304 0.73599 0.33280
 C3074 C 0.62836 0.72173 0.35017
 C3075 C 0.59871 0.78266 0.36344
 C3076 C 0.59413 0.78885 0.38534
 C3077 C 0.59854 0.77411 0.40277
 C3078 C 0.60779 0.75370 0.39820
 C3079 C 0.59401 0.78015 0.42461
 C3080 C 0.58587 0.80083 0.42931
 C3081 C 0.58200 0.81597 0.41231
 C3082 C 0.58572 0.80968 0.39023
 H3083 H 0.62673 0.71670 0.38547
 H3084 H 0.60947 0.76687 0.32342
 H3085 H 0.62710 0.73184 0.31589
 H3086 H 0.59529 0.79384 0.35000
 H3087 H 0.61136 0.74257 0.41166
 H3088 H 0.59713 0.76899 0.43814
 H3089 H 0.58279 0.80513 0.44640
 H3090 H 0.58287 0.82124 0.37699
 C3091 C 0.61685 0.22630 0.86485
 C3092 C 0.60812 0.24480 0.87518
 C3093 C 0.60347 0.24433 0.89810
 C3094 C 0.60722 0.22524 0.91019
 C3095 C 0.61623 0.20703 0.89986
 C3096 C 0.62140 0.20751 0.87723
 C3097 C 0.59558 0.26306 0.90867
 C3098 C 0.59244 0.28232 0.89666
 C3099 C 0.59682 0.28271 0.87368
 C3100 C 0.60457 0.26394 0.86309
 C3101 C 0.59349 0.30193 0.86169
 C3102 C 0.58588 0.32060 0.87232
 C3103 C 0.58161 0.32042 0.89515
 C3104 C 0.58501 0.30123 0.90726
 H3105 H 0.62105 0.22683 0.84744
 H3106 H 0.60367 0.22456 0.92773
 H3107 H 0.61952 0.19262 0.90963
 H3108 H 0.59217 0.26272 0.92627
 H3109 H 0.60811 0.26432 0.84551
 H3110 H 0.59676 0.30254 0.84409
 H3111 H 0.58346 0.33530 0.86274
 H3112 H 0.58152 0.30096 0.92484
 C3113 C 0.88378 0.71888 1.12139
 C3114 C 0.89540 0.73812 1.11728
 C3115 C 0.89628 0.75454 1.13368
 C3116 C 0.88575 0.75130 1.15398
 C3117 C 0.87450 0.73198 1.15804
 C3118 C 0.87338 0.71570 1.14180
 C3119 C 0.90751 0.77396 1.12947
 C3120 C 0.91774 0.77728 1.10902
 C3121 C 0.91719 0.76071 1.09277
 C3122 C 0.90613 0.74120 1.09706
 C3123 C 0.92714 0.76420 1.07222
 C3124 C 0.93660 0.78428 1.06740
 C3125 C 0.93663 0.80103 1.08318
 C3126 C 0.92776 0.79725 1.10420
 H3127 H 0.88317 0.70620 1.10895
 H3128 H 0.88627 0.76367 1.16673
 H3129 H 0.86656 0.72974 1.17388
 H3130 H 0.90794 0.78663 1.14195
 H3131 H 0.90554 0.72861 1.08452
 H3132 H 0.92694 0.75168 1.05961
 H3133 H 0.94333 0.78703 1.05107
 H3134 H 0.92749 0.81029 1.11628
 C3135 C 0.87739 0.21839 0.60830
 C3136 C 0.88917 0.23626 0.59996
 C3137 C 0.91094 0.23336 0.59271
 C3138 C 0.92039 0.21259 0.59349
 C3139 C 0.90872 0.19504 0.60215
 C3140 C 0.88729 0.19782 0.60993
 C3141 C 0.92307 0.25129 0.58522
 C3142 C 0.91376 0.27216 0.58493
 C3143 C 0.89189 0.27501 0.59191
 C3144 C 0.87976 0.25707 0.59937
 C3145 C 0.88247 0.29579 0.59127
 C3146 C 0.89447 0.31354 0.58358
 C3147 C 0.91620 0.31094 0.57669
 C3148 C 0.92588 0.29024 0.57760
 H3149 H 0.86097 0.22070 0.61456
 H3150 H 0.93700 0.21003 0.58793
 H3151 H 0.91662 0.17930 0.60329
 H3152 H 0.93979 0.24903 0.57980
 H3153 H 0.86307 0.25935 0.60488
 H3154 H 0.86574 0.29828 0.59651
 H3155 H 0.88676 0.32940 0.58289
 H3156 H 0.94257 0.28815 0.57203
 C3157 C 0.37646 0.73401 0.62084
 C3158 C 0.38398 0.75229 0.60928
 C3159 C 0.36972 0.77000 0.60540
 C3160 C 0.34822 0.76914 0.61320
 C3161 C 0.34089 0.75092 0.62477
 C3162 C 0.35489 0.73320 0.62867
 C3163 C 0.37721 0.78834 0.59397
 C3164 C 0.39888 0.78937 0.58669
 C3165 C 0.41319 0.77170 0.59060
 C3166 C 0.40558 0.75318 0.60170
 C3167 C 0.43501 0.77307 0.58376
 C3168 C 0.44271 0.79199 0.57365
 C3169 C 0.42861 0.80961 0.56985
 C3170 C 0.40663 0.80807 0.57608
 H3171 H 0.38729 0.72031 0.62350
 H3172 H 0.33711 0.78260 0.61045
 H3173 H 0.32428 0.75077 0.63087
 H3174 H 0.36628 0.80195 0.59106
 H3175 H 0.41655 0.73963 0.60474
 H3176 H 0.44620 0.75971 0.58665
 H3177 H 0.45973 0.79299 0.56895
 H3178 H 0.39581 0.82182 0.57350
 C3179 C 0.37256 0.22652 1.11734
 C3180 C 0.38434 0.24457 1.10968
 C3181 C 0.39224 0.26010 1.12495
 C3182 C 0.38854 0.25709 1.14763
 C3183 C 0.37684 0.23904 1.15510
 C3184 C 0.36858 0.22372 1.14005
 C3185 C 0.40346 0.27850 1.11731
 C3186 C 0.40681 0.28161 1.09459
 C3187 C 0.39923 0.26590 1.07934
 C3188 C 0.38810 0.24745 1.08699
 C3189 C 0.40260 0.26910 1.05665
 C3190 C 0.41295 0.28791 1.04907
 C3191 C 0.42018 0.30384 1.06403
 C3192 C 0.41727 0.30041 1.08684
 H3193 H 0.36650 0.21461 1.10564
 H3194 H 0.39450 0.26881 1.15956
 H3195 H 0.37382 0.23730 1.17266
 H3196 H 0.40933 0.29051 1.12902
 H3197 H 0.38210 0.23551 1.07528
 H3198 H 0.39700 0.25718 1.04474
 H3199 H 0.41524 0.29007 1.03145
 H3200 H 0.42249 0.31271 1.09853
 C3201 C 1.12163 1.12853 0.72970
 C3202 C 1.11393 1.11601 0.74750
 C3203 C 1.11658 1.09318 0.74732
 C3204 C 1.12720 1.08329 0.72947
 C3205 C 1.13522 1.09585 0.71201
 C3206 C 1.13256 1.11871 0.71169
 C3207 C 1.10862 1.08062 0.76500
 C3208 C 1.09830 1.09069 0.78303
 C3209 C 1.09610 1.11361 0.78336
 C3210 C 1.10383 1.12608 0.76561
 C3211 C 1.08612 1.12373 0.80145
 C3212 C 1.07797 1.11131 0.81887
 C3213 C 1.07943 1.08846 0.81855
 C3214 C 1.08997 1.07824 0.80066
 H3215 H 1.11996 1.14605 0.73057
 H3216 H 1.12930 1.06579 0.72898
 H3217 H 1.14276 1.08734 0.69834
 H3218 H 1.11049 1.06307 0.76473
 H3219 H 1.10196 1.14364 0.76588
 H3220 H 1.08453 1.14129 0.80209
 H3221 H 1.07045 1.11966 0.83268
 H3222 H 1.09119 1.06065 0.80021
 C3223 C 1.11443 0.62810 0.21680
 C3224 C 1.10753 0.61816 0.23666
 C3225 C 1.10742 0.59522 0.23842
 C3226 C 1.11413 0.58261 0.22046
 C3227 C 1.12139 0.59250 0.20107
 C3228 C 1.12202 0.61541 0.19884
 C3229 C 1.10078 0.58517 0.25815
 C3230 C 1.09449 0.59773 0.27641
 C3231 C 1.09475 0.62069 0.27481
 C3232 C 1.10115 0.63076 0.25495
 C3233 C 1.08862 0.63319 0.29317
 C3234 C 1.08209 0.62309 0.31280
 C3235 C 1.08147 0.60025 0.31455
 C3236 C 1.08790 0.58767 0.29623
 H3237 H 1.11499 0.64569 0.21596
 H3238 H 1.11388 0.56500 0.22142
 H3239 H 1.12586 0.58190 0.18752
 H3240 H 1.10066 0.56755 0.25934
 H3241 H 1.10131 0.64837 0.25378
 H3242 H 1.08884 0.65080 0.29234
 H3243 H 1.07761 0.63322 0.32673
 H3244 H 1.08734 0.57007 0.29724
 C3245 C 0.60739 1.12254 0.21357
 C3246 C 0.60089 1.11300 0.23356
 C3247 C 0.60085 1.09009 0.23573
 C3248 C 0.60742 1.07714 0.21783
 C3249 C 0.61413 1.08680 0.19803
 C3250 C 0.61414 1.10955 0.19574
 C3251 C 0.59442 1.08054 0.25578
 C3252 C 0.58822 1.09364 0.27373
 C3253 C 0.58841 1.11655 0.27154
 C3254 C 0.59467 1.12608 0.25147
 C3255 C 0.58236 1.12962 0.28949
 C3256 C 0.57605 1.12012 0.30944
 C3257 C 0.57558 1.09736 0.31181
 C3258 C 0.58180 1.08420 0.29385
 H3259 H 0.60770 1.14012 0.21204
 H3260 H 0.60751 1.05956 0.21918
 H3261 H 0.61921 1.07651 0.18444
 H3262 H 0.59435 1.06297 0.25744
 H3263 H 0.59478 1.14366 0.24982
 H3264 H 0.58254 1.14720 0.28813
 H3265 H 0.57171 1.13062 0.32312
 H3266 H 0.58131 1.06664 0.29543
 C3267 C 0.61687 0.62678 0.71697
 C3268 C 0.60888 0.61613 0.73579
 C3269 C 0.60645 0.59326 0.73566
 C3270 C 0.61202 0.58146 0.71663
 C3271 C 0.61990 0.59223 0.69789
 C3272 C 0.62237 0.61497 0.69786
 C3273 C 0.59849 0.58259 0.75453
 C3274 C 0.59286 0.59454 0.77347
 C3275 C 0.59524 0.61744 0.77350
 C3276 C 0.60330 0.62806 0.75471
 C3277 C 0.58948 0.62938 0.79235
 C3278 C 0.58136 0.61878 0.81101
 C3279 C 0.57893 0.59605 0.81122
 C3280 C 0.58480 0.58400 0.79238
 H3281 H 0.61908 0.64427 0.71731
 H3282 H 0.61022 0.56393 0.71620
 H3283 H 0.62383 0.58278 0.68331
 H3284 H 0.59664 0.56504 0.75446
 H3285 H 0.60515 0.64561 0.75478
 H3286 H 0.59125 0.64692 0.79266
 H3287 H 0.57722 0.62837 0.82545
 H3288 H 0.58279 0.56647 0.79235
 C3289 C 0.88459 0.87496 0.72033
 C3290 C 0.89646 0.87989 0.73948
 C3291 C 0.91902 0.88454 0.73797
 C3292 C 0.92938 0.88362 0.71729
 C3293 C 0.91749 0.87823 0.69834
 C3294 C 0.89502 0.87411 0.69973
 C3295 C 0.93075 0.89015 0.75708
 C3296 C 0.92019 0.89111 0.77768
 C3297 C 0.89776 0.88581 0.77916
 C3298 C 0.88608 0.88023 0.76010
 C3299 C 0.88716 0.88673 0.79963
 C3300 C 0.89834 0.89383 0.81831
 C3301 C 0.92036 0.89999 0.81693
 C3302 C 0.93145 0.89798 0.79670
 H3303 H 0.86729 0.87141 0.72143
 H3304 H 0.94667 0.88700 0.71579
 H3305 H 0.92576 0.87745 0.68253
 H3306 H 0.94796 0.89405 0.75589
 H3307 H 0.86883 0.87646 0.76126
 H3308 H 0.87004 0.88256 0.80108
 H3309 H 0.88961 0.89515 0.83384
 H3310 H 0.94840 0.90285 0.79557
 C3311 C 0.88315 0.39204 0.21751
 C3312 C 0.89306 0.39753 0.23770
 C3313 C 0.89823 0.38097 0.25311
 C3314 C 0.89340 0.35926 0.24813
 C3315 C 0.88380 0.35393 0.22795
 C3316 C 0.87870 0.37019 0.21244
 C3317 C 0.90819 0.38633 0.27324
 C3318 C 0.91308 0.40804 0.27821
 C3319 C 0.90798 0.42462 0.26281
 C3320 C 0.89804 0.41927 0.24264
 C3321 C 0.91273 0.44634 0.26796
 C3322 C 0.92200 0.45163 0.28835
 C3323 C 0.92688 0.43530 0.30386
 C3324 C 0.92264 0.41348 0.29855
 H3325 H 0.87942 0.40463 0.20553
 H3326 H 0.89719 0.34638 0.25976
 H3327 H 0.88031 0.33701 0.22442
 H3328 H 0.91208 0.37361 0.28505
 H3329 H 0.89412 0.43199 0.23085
 H3330 H 0.90900 0.45926 0.25636
 H3331 H 0.92525 0.46855 0.29211
 H3332 H 0.92610 0.40082 0.31055
 C3333 C 0.37953 0.88401 0.21639
 C3334 C 0.38924 0.89048 0.23642
 C3335 C 0.39427 0.87469 0.25267
 C3336 C 0.38939 0.85278 0.24869
 C3337 C 0.37962 0.84651 0.22884
 C3338 C 0.37465 0.86196 0.21241
 C3339 C 0.40395 0.88104 0.27269
 C3340 C 0.40847 0.90304 0.27683
 C3341 C 0.40334 0.91886 0.26064
 C3342 C 0.39391 0.91248 0.24050
 C3343 C 0.40753 0.94088 0.26499
 C3344 C 0.41642 0.94721 0.28526
 C3345 C 0.42156 0.93165 0.30149
 C3346 C 0.41774 0.90952 0.29705
 H3347 H 0.37600 0.89610 0.20384
 H3348 H 0.39299 0.84048 0.26101
 H3349 H 0.37569 0.82950 0.22647
 H3350 H 0.40777 0.86889 0.28512
 H3351 H 0.39000 0.92464 0.22811
 H3352 H 0.40371 0.95323 0.25279
 H3353 H 0.41935 0.96432 0.28828
 H3354 H 0.42141 0.89743 0.30958
 C3355 C 0.36359 0.37808 0.72145
 C3356 C 0.37682 0.38767 0.73762
 C3357 C 0.39976 0.38636 0.73585
 C3358 C 0.40907 0.37523 0.71800
 C3359 C 0.39580 0.36511 0.70230
 C3360 C 0.37281 0.36629 0.70374
 C3361 C 0.41299 0.39590 0.75213
 C3362 C 0.40350 0.40619 0.77048
 C3363 C 0.38051 0.40704 0.77239
 C3364 C 0.36735 0.39803 0.75587
 C3365 C 0.37097 0.41671 0.79095
 C3366 C 0.38403 0.42561 0.80745
 C3367 C 0.40693 0.42546 0.80558
 C3368 C 0.41658 0.41552 0.78704
 H3369 H 0.34605 0.37869 0.72360
 H3370 H 0.42663 0.37412 0.71629
 H3371 H 0.40372 0.35691 0.68864
 H3372 H 0.43061 0.39500 0.75069
 H3373 H 0.34973 0.39881 0.75737
 H3374 H 0.35340 0.41723 0.79282
 H3375 H 0.37610 0.43250 0.82184
 H3376 H 0.43419 0.41526 0.78538
 C3377 C 1.11662 0.89214 1.29278
 C3378 C 1.10569 0.89806 1.27338
 C3379 C 1.08310 0.89418 1.27133
 C3380 C 1.07196 0.88387 1.28866
 C3381 C 1.08307 0.87761 1.30789
 C3382 C 1.10556 0.88197 1.31046
 C3383 C 1.07211 0.90062 1.25198
 C3384 C 1.08362 0.91057 1.23459
 C3385 C 1.10637 0.91384 1.23658
 C3386 C 1.11720 0.90768 1.25594
 C3387 C 1.11802 0.92328 1.21916
 C3388 C 1.10725 0.92978 1.20000
 C3389 C 1.08453 0.92727 1.19791
 C3390 C 1.07281 0.91739 1.21526
 H3391 H 1.13409 0.89467 1.29351
 H3392 H 1.05463 0.88069 1.28740
 H3393 H 1.07370 0.87022 1.32105
 H3394 H 1.05471 0.89786 1.25046
 H3395 H 1.13463 0.91042 1.25746
 H3396 H 1.13550 0.92563 1.22034
 H3397 H 1.11683 0.93669 1.18670
 H3398 H 1.05531 0.91537 1.21391
 C3399 C 1.13511 0.36522 0.76740
 C3400 C 1.12227 0.37381 0.75025
 C3401 C 1.09957 0.37666 0.75341
 C3402 C 1.09015 0.37095 0.77372
 C3403 C 1.10301 0.36225 0.79062
 C3404 C 1.12556 0.35918 0.78761
 C3405 C 1.08667 0.38509 0.73622
 C3406 C 1.09618 0.39079 0.71592
 C3407 C 1.11890 0.38794 0.71283
 C3408 C 1.13176 0.37942 0.72995
 C3409 C 1.12848 0.39387 0.69269
 C3410 C 1.11581 0.40298 0.67592
 C3411 C 1.09328 0.40611 0.67885
 C3412 C 1.08345 0.39966 0.69878
 H3413 H 1.15243 0.36267 0.76482
 H3414 H 1.07281 0.37308 0.77648
 H3415 H 1.09532 0.35787 0.80612
 H3416 H 1.06927 0.38729 0.73868
 H3417 H 1.14916 0.37724 0.72751
 H3418 H 1.14584 0.39176 0.69001
 H3419 H 1.12363 0.40775 0.66060
 H3420 H 1.06610 0.40220 0.70115
 C3421 C 0.61263 0.88371 0.78292
 C3422 C 0.60892 0.89236 0.76177
 C3423 C 0.62672 0.89598 0.74733
 C3424 C 0.64792 0.89097 0.75431
 C3425 C 0.65149 0.88254 0.77542
 C3426 C 0.63393 0.87887 0.78989
 C3427 C 0.62307 0.90450 0.72615
 C3428 C 0.60183 0.90940 0.71918
 C3429 C 0.58403 0.90592 0.73367
 C3430 C 0.58769 0.89748 0.75488
 C3431 C 0.56281 0.91069 0.72659
 C3432 C 0.55918 0.91837 0.70519
 C3433 C 0.57671 0.92156 0.69056
 C3434 C 0.59806 0.91736 0.69778
 H3435 H 0.59905 0.88111 0.79409
 H3436 H 0.66175 0.89360 0.74346
 H3437 H 0.66802 0.87872 0.78042
 H3438 H 0.63673 0.90716 0.71507
 H3439 H 0.57403 0.89475 0.76594
 H3440 H 0.54899 0.90821 0.73748
 H3441 H 0.54260 0.92172 0.69999
 H3442 H 0.61162 0.91959 0.68649
 C3443 C 0.61822 0.37784 1.27676
 C3444 C 0.61274 0.38623 1.25590
 C3445 C 0.62937 0.39320 1.24139
 C3446 C 0.65116 0.39201 1.24815
 C3447 C 0.65654 0.38363 1.26891
 C3448 C 0.64023 0.37609 1.28358
 C3449 C 0.62398 0.40109 1.22032
 C3450 C 0.60210 0.40213 1.21358
 C3451 C 0.58542 0.39545 1.22823
 C3452 C 0.59083 0.38760 1.24930
 C3453 C 0.56358 0.39658 1.22149
 C3454 C 0.55829 0.40406 1.20036
 C3455 C 0.57473 0.41051 1.18552
 C3456 C 0.59665 0.40958 1.19234
 H3457 H 0.60509 0.37331 1.28780
 H3458 H 0.66414 0.39722 1.23719
 H3459 H 0.67369 0.38211 1.27278
 H3460 H 0.63679 0.40630 1.20913
 H3461 H 0.57802 0.38234 1.26046
 H3462 H 0.55058 0.39165 1.23255
 H3463 H 0.54127 0.40496 1.19567
 H3464 H 0.60951 0.41424 1.18099
 C3465 C 0.87367 1.11878 1.28031
 C3466 C 0.88419 1.11113 1.26129
 C3467 C 0.90715 1.11205 1.25976
 C3468 C 0.91917 1.12074 1.27733
 C3469 C 0.90858 1.12842 1.29626
 C3470 C 0.88561 1.12749 1.29821
 C3471 C 0.91766 1.10430 1.24070
 C3472 C 0.90542 1.09569 1.22316
 C3473 C 0.88241 1.09492 1.22472
 C3474 C 0.87196 1.10267 1.24373
 C3475 C 0.87016 1.08634 1.20725
 C3476 C 0.88060 1.07839 1.18843
 C3477 C 0.90346 1.07889 1.18672
 C3478 C 0.91580 1.08773 1.20411
 H3479 H 0.85601 1.11873 1.28052
 H3480 H 0.93682 1.12147 1.27651
 H3481 H 0.91867 1.13427 1.30966
 H3482 H 0.93531 1.10495 1.23953
 H3483 H 0.85431 1.10202 1.24489
 H3484 H 0.85252 1.08573 1.20816
 H3485 H 0.87074 1.07199 1.17508
 H3486 H 0.93345 1.08804 1.20296
 C3487 C 0.87201 0.60523 0.78460
 C3488 C 0.88366 0.59647 0.76670
 C3489 C 0.90572 0.59021 0.76951
 C3490 C 0.91554 0.59222 0.79032
 C3491 C 0.90399 0.60143 0.80788
 C3492 C 0.88234 0.60839 0.80502
 C3493 C 0.91782 0.58274 0.75134
 C3494 C 0.90823 0.58165 0.73034
 C3495 C 0.88603 0.58748 0.72763
 C3496 C 0.87388 0.59477 0.74583
 C3497 C 0.87637 0.58607 0.70670
 C3498 C 0.88855 0.57892 0.68861
 C3499 C 0.91062 0.57334 0.69110
 C3500 C 0.92046 0.57482 0.71196
 H3501 H 0.85540 0.61092 0.78228
 H3502 H 0.93238 0.58745 0.79281
 H3503 H 0.91219 0.60387 0.82354
 H3504 H 0.93480 0.57818 0.75347
 H3505 H 0.85696 0.59952 0.74366
 H3506 H 0.85939 0.59042 0.70432
 H3507 H 0.88075 0.57777 0.67258
 H3508 H 0.93745 0.57025 0.71391
 C3509 C 0.37633 1.11857 0.78129
 C3510 C 0.38189 1.10754 0.76168
 C3511 C 0.36636 1.10561 0.74450
 C3512 C 0.34553 1.11465 0.74726
 C3513 C 0.34005 1.12533 0.76688
 C3514 C 0.35532 1.12738 0.78409
 C3515 C 0.37188 1.09473 0.72483
 C3516 C 0.39279 1.08579 0.72205
 C3517 C 0.40825 1.08756 0.73933
 C3518 C 0.40269 1.09834 0.75902
 C3519 C 0.42922 1.07889 0.73646
 C3520 C 0.43508 1.06921 0.71644
 C3521 C 0.42003 1.06771 0.69899
 C3522 C 0.39871 1.07562 0.70205
 H3523 H 0.38813 1.11985 0.79457
 H3524 H 0.33342 1.11336 0.73428
 H3525 H 0.32382 1.13210 0.76862
 H3526 H 0.35998 1.09341 0.71163
 H3527 H 0.41463 1.09975 0.77218
 H3528 H 0.44126 1.08005 0.74952
 H3529 H 0.45159 1.06322 0.71437
 H3530 H 0.38713 1.07476 0.68854
 C3531 C 0.37696 0.61415 1.27618
 C3532 C 0.38722 0.60681 1.25678
 C3533 C 0.39753 0.62187 1.24260
 C3534 C 0.39794 0.64392 1.24837
 C3535 C 0.38806 0.65109 1.26788
 C3536 C 0.37709 0.63644 1.28205
 C3537 C 0.40724 0.61467 1.22288
 C3538 C 0.40713 0.59249 1.21735
 C3539 C 0.39738 0.57733 1.23187
 C3540 C 0.38738 0.58458 1.25141
 C3541 C 0.39773 0.55514 1.22656
 C3542 C 0.40739 0.54802 1.20692
 C3543 C 0.41669 0.56294 1.19199
 C3544 C 0.41653 0.58524 1.19747
 H3545 H 0.36960 0.60221 1.28704
 H3546 H 0.40577 0.65571 1.23768
 H3547 H 0.38818 0.66839 1.27114
 H3548 H 0.41492 0.62632 1.21187
 H3549 H 0.37970 0.57293 1.26241
 H3550 H 0.39053 0.54326 1.23761
 H3551 H 0.40765 0.53074 1.20349
 H3552 H 0.42330 0.59706 1.18609
 C3553 C 1.11798 1.26590 0.87073
 C3554 C 1.11028 1.24696 0.88107
 C3555 C 1.12525 1.23117 0.88869
 C3556 C 1.14762 1.23458 0.88590
 C3557 C 1.15520 1.25348 0.87572
 C3558 C 1.14059 1.26957 0.86793
 C3559 C 1.11765 1.21223 0.89902
 C3560 C 1.09522 1.20891 0.90192
 C3561 C 1.08018 1.22472 0.89439
 C3562 C 1.08780 1.24366 0.88402
 C3563 C 1.05776 1.22126 0.89731
 C3564 C 1.05030 1.20227 0.90750
 C3565 C 1.06513 1.18645 0.91501
 C3566 C 1.08760 1.18994 0.91216
 H3567 H 1.10619 1.27812 0.86583
 H3568 H 1.15932 1.22253 0.89148
 H3569 H 1.17262 1.25487 0.87325
 H3570 H 1.12919 1.20010 0.90481
 H3571 H 1.07627 1.25579 0.87823
 H3572 H 1.04599 1.23322 0.89168
 H3573 H 1.03291 1.19999 0.90966
 H3574 H 1.09917 1.17767 0.91755
 C3575 C 1.10732 0.79503 0.40154
 C3576 C 1.10319 0.77463 0.41112
 C3577 C 1.12076 0.76124 0.41773
 C3578 C 1.14214 0.76882 0.41541
 C3579 C 1.14616 0.78927 0.40622
 C3580 C 1.12888 0.80264 0.39874
 C3581 C 1.11669 0.74040 0.42631
 C3582 C 1.09521 0.73285 0.42851
 C3583 C 1.07761 0.74661 0.42269
 C3584 C 1.08170 0.76738 0.41403
 C3585 C 1.05616 0.73923 0.42521
 C3586 C 1.05216 0.71811 0.43259
 C3587 C 1.06950 0.70387 0.43748
 C3588 C 1.09104 0.71157 0.43591
 H3589 H 1.09359 0.80516 0.39691
 H3590 H 1.15583 0.75878 0.42040
 H3591 H 1.16303 0.79394 0.40394
 H3592 H 1.13023 0.72998 0.43098
 H3593 H 1.06816 0.77774 0.40922
 H3594 H 1.04248 0.74965 0.42110
 H3595 H 1.03540 0.71277 0.43416
 H3596 H 1.10456 0.70075 0.43955
 C3597 C 0.62688 1.27611 0.37873
 C3598 C 0.61406 1.25921 0.38727
 C3599 C 0.59120 1.26184 0.38900
 C3600 C 0.58157 1.28136 0.38193
 C3601 C 0.59448 1.29811 0.37333
 C3602 C 0.61724 1.29568 0.37176
 C3603 C 0.57841 1.24498 0.39781
 C3604 C 0.58823 1.22554 0.40495
 C3605 C 0.61111 1.22296 0.40300
 C3606 C 0.62383 1.23975 0.39415
 C3607 C 0.62099 1.20366 0.41010
 C3608 C 0.60845 1.18717 0.41946
 C3609 C 0.58576 1.18960 0.42190
 C3610 C 0.57566 1.20873 0.41428
 H3611 H 0.64438 1.27394 0.37724
 H3612 H 0.56409 1.28371 0.38310
 H3613 H 0.58671 1.31311 0.36816
 H3614 H 0.56088 1.24702 0.39924
 H3615 H 0.64136 1.23773 0.39276
 H3616 H 0.63846 1.20137 0.40859
 H3617 H 0.61653 1.17239 0.42481
 H3618 H 0.55817 1.21072 0.41612
 C3619 C 0.62296 0.77973 0.88623
 C3620 C 0.61125 0.76137 0.89331
 C3621 C 0.58818 0.76200 0.89396
 C3622 C 0.57724 0.78094 0.88723
 C3623 C 0.58902 0.79901 0.87983
 C3624 C 0.61193 0.79859 0.87933
 C3625 C 0.57646 0.74369 0.90121
 C3626 C 0.58751 0.72467 0.90759
 C3627 C 0.61057 0.72400 0.90656
 C3628 C 0.62226 0.74234 0.89953
 C3629 C 0.62163 0.70499 0.91262
 C3630 C 0.61006 0.68689 0.92004
 C3631 C 0.58716 0.68741 0.92174
 C3632 C 0.57594 0.70633 0.91515
 H3633 H 0.64063 0.77921 0.88559
 H3634 H 0.55959 0.78174 0.88756
 H3635 H 0.58023 0.81342 0.87461
 H3636 H 0.55878 0.74425 0.90185
 H3637 H 0.63994 0.74179 0.89889
 H3638 H 0.63926 0.70412 0.91171
 H3639 H 0.61910 0.67238 0.92447
 H3640 H 0.55831 0.70695 0.91640
 C3641 C 0.86827 1.28006 1.10716
 C3642 C 0.87835 1.26089 1.09950
 C3643 C 0.90134 1.25898 1.10010
 C3644 C 0.91386 1.27616 1.10828
 C3645 C 0.90375 1.29467 1.11678
 C3646 C 0.88080 1.29683 1.11678
 C3647 C 0.91147 1.23970 1.09313
 C3648 C 0.89889 1.22191 1.08632
 C3649 C 0.87589 1.22366 1.08592
 C3650 C 0.86578 1.24324 1.09217
 C3651 C 0.86337 1.20565 1.07964
 C3652 C 0.87350 1.18608 1.07390
 C3653 C 0.89640 1.18416 1.07400
 C3654 C 0.90898 1.20227 1.08023
 H3655 H 0.85061 1.28103 1.10727
 H3656 H 0.93150 1.27506 1.10867
 H3657 H 0.91408 1.30751 1.12311
 H3658 H 0.92911 1.23833 1.09361
 H3659 H 0.84813 1.24452 1.09190
 H3660 H 0.84572 1.20661 1.07942
 H3661 H 0.86333 1.17233 1.06961
 H3662 H 0.92663 1.20115 1.08017
 C3663 C 0.89239 0.78557 0.60909
 C3664 C 0.89628 0.76426 0.60181
 C3665 C 0.87850 0.75027 0.59745
 C3666 C 0.85714 0.75796 0.60015
 C3667 C 0.85341 0.77911 0.60770
 C3668 C 0.87096 0.79304 0.61251
 C3669 C 0.88235 0.72872 0.59091
 C3670 C 0.90377 0.72090 0.58897
 C3671 C 0.92155 0.73496 0.59313
 C3672 C 0.91770 0.75659 0.59935
 C3673 C 0.94293 0.72705 0.59136
 C3674 C 0.94668 0.70532 0.58586
 C3675 C 0.92915 0.69111 0.58195
 C3676 C 0.90770 0.69910 0.58332
 H3677 H 0.90606 0.79625 0.61242
 H3678 H 0.84331 0.74747 0.59691
 H3679 H 0.83675 0.78432 0.61046
 H3680 H 0.86871 0.71795 0.58772
 H3681 H 0.93135 0.76732 0.60270
 H3682 H 0.95674 0.73763 0.59440
 H3683 H 0.96336 0.69962 0.58455
 H3684 H 0.89407 0.68822 0.58054
 C3685 C 0.37412 1.26630 0.62993
 C3686 C 0.38081 1.24644 0.62082
 C3687 C 0.36515 1.23037 0.61574
 C3688 C 0.34308 1.23440 0.61990
 C3689 C 0.33650 1.25422 0.62890
 C3690 C 0.35185 1.27060 0.63405
 C3691 C 0.37177 1.21052 0.60659
 C3692 C 0.39390 1.20656 0.60246
 C3693 C 0.40962 1.22264 0.60751
 C3694 C 0.40296 1.24251 0.61660
 C3695 C 0.43176 1.21849 0.60352
 C3696 C 0.43829 1.19849 0.59480
 C3697 C 0.42276 1.18245 0.58980
 C3698 C 0.40058 1.18664 0.59355
 H3699 H 0.38636 1.27866 0.63278
 H3700 H 0.33088 1.22215 0.61630
 H3701 H 0.31933 1.25619 0.63254
 H3702 H 0.35974 1.19817 0.60272
 H3703 H 0.41500 1.25485 0.62048
 H3704 H 0.44401 1.23063 0.60726
 H3705 H 0.45548 1.19556 0.59189
 H3706 H 0.38857 1.17417 0.59001
 C3707 C 0.38220 0.77087 1.12517
 C3708 C 0.38742 0.75066 1.11566
 C3709 C 0.37083 0.73788 1.10600
 C3710 C 0.34943 0.74576 1.10547
 C3711 C 0.34444 0.76613 1.11433
 C3712 C 0.36066 0.77905 1.12449
 C3713 C 0.37589 0.71748 1.09692
 C3714 C 0.39749 0.70990 1.09686
 C3715 C 0.41421 0.72300 1.10587
 C3716 C 0.40906 0.74318 1.11541
 C3717 C 0.43584 0.71571 1.10519
 C3718 C 0.44087 0.69549 1.09599
 C3719 C 0.42434 0.68191 1.08759
 C3720 C 0.40262 0.68941 1.08796
 H3721 H 0.39523 0.78061 1.13210
 H3722 H 0.33648 0.73617 1.09816
 H3723 H 0.32754 0.77124 1.11401
 H3724 H 0.36306 0.70758 1.08977
 H3725 H 0.42189 0.75309 1.12253
 H3726 H 0.44891 0.72566 1.11175
 H3727 H 0.45781 0.69052 1.09542
 H3728 H 0.38963 0.67915 1.08176
 C3729 C 0.89106 0.71444 0.89108
 C3730 C 0.90237 0.73371 0.89574
 C3731 C 0.90663 0.74877 0.87856
 C3732 C 0.89991 0.74408 0.85694
 C3733 C 0.88903 0.72466 0.85238
 C3734 C 0.88442 0.70986 0.86942
 C3735 C 0.91739 0.76833 0.88328
 C3736 C 0.92392 0.77303 0.90495
 C3737 C 0.92015 0.75772 0.92201
 C3738 C 0.90945 0.73814 0.91729
 C3739 C 0.92663 0.76250 0.94368
 C3740 C 0.93579 0.78268 0.94860
 C3741 C 0.93881 0.79832 0.93192
 C3742 C 0.93344 0.79316 0.91000
 H3743 H 0.88773 0.70282 0.90415
 H3744 H 0.90310 0.75537 0.84356
 H3745 H 0.88406 0.72120 0.83556
 H3746 H 0.92037 0.78001 0.87017
 H3747 H 0.90633 0.72653 0.93043
 H3748 H 0.92401 0.75091 0.95692
 H3749 H 0.93998 0.78636 0.96559
 H3750 H 0.93553 0.80526 0.89712
 C3751 C 0.88577 0.22453 0.37668
 C3752 C 0.89389 0.24325 0.38698
 C3753 C 0.89399 0.24467 0.41031
 C3754 C 0.88572 0.22735 0.42290
 C3755 C 0.87749 0.20879 0.41247
 C3756 C 0.87759 0.20718 0.38931
 C3757 C 0.90229 0.26337 0.42061
 C3758 C 0.91027 0.28071 0.40784
 C3759 C 0.90993 0.27930 0.38451
 C3760 C 0.90182 0.26056 0.37424
 C3761 C 0.91764 0.29670 0.37178
 C3762 C 0.92561 0.31539 0.38202
 C3763 C 0.92623 0.31700 0.40520
 C3764 C 0.91852 0.29950 0.41802
 H3765 H 0.88554 0.22357 0.35878
 H3766 H 0.88562 0.22817 0.44080
 H3767 H 0.87132 0.19555 0.42250
 H3768 H 0.90244 0.26446 0.43851
 H3769 H 0.90164 0.25948 0.35633
 H3770 H 0.91735 0.29593 0.35388
 H3771 H 0.93101 0.32876 0.37172
 H3772 H 0.91909 0.30042 0.43591
 C3773 C 0.37962 0.73084 0.36417
 C3774 C 0.38753 0.74897 0.37580
 C3775 C 0.38550 0.74984 0.39904
 C3776 C 0.37507 0.73281 0.41018
 C3777 C 0.36674 0.71506 0.39848
 C3778 C 0.36902 0.71358 0.37527
 C3779 C 0.39384 0.76775 0.41074
 C3780 C 0.40374 0.78507 0.39940
 C3781 C 0.40514 0.78445 0.37607
 C3782 C 0.39722 0.76636 0.36446
 C3783 C 0.41440 0.80197 0.36468
 C3784 C 0.42246 0.81987 0.37624
 C3785 C 0.42187 0.82053 0.39952
 C3786 C 0.41226 0.80301 0.41098
 H3787 H 0.38091 0.73081 0.34631
 H3788 H 0.37336 0.73318 0.42802
 H3789 H 0.35936 0.70206 0.40793
 H3790 H 0.39248 0.76827 0.42862
 H3791 H 0.39854 0.76586 0.34657
 H3792 H 0.41531 0.80191 0.34679
 H3793 H 0.42905 0.83332 0.36682
 H3794 H 0.41170 0.80314 0.42889
 C3795 C 0.38498 0.22222 0.86400
 C3796 C 0.39388 0.24051 0.87471
 C3797 C 0.39428 0.24141 0.89807
 C3798 C 0.38596 0.22403 0.91035
 C3799 C 0.37622 0.20646 0.89968
 C3800 C 0.37509 0.20543 0.87637
 C3801 C 0.40232 0.25993 0.90886
 C3802 C 0.40924 0.27801 0.89661
 C3803 C 0.40872 0.27723 0.87324
 C3804 C 0.40139 0.25839 0.86244
 C3805 C 0.41517 0.29550 0.86105
 C3806 C 0.42198 0.31437 0.87187
 C3807 C 0.42278 0.31532 0.89512
 C3808 C 0.41635 0.29698 0.90738
 H3809 H 0.38406 0.22208 0.84611
 H3810 H 0.38633 0.22433 0.92826
 H3811 H 0.36967 0.19350 0.90983
 H3812 H 0.40257 0.26054 0.92678
 H3813 H 0.40092 0.25789 0.84451
 H3814 H 0.41471 0.29530 0.84314
 H3815 H 0.42642 0.32836 0.86196
 H3816 H 0.41705 0.29739 0.92528
 C3817 C 1.11618 0.71889 1.12400
 C3818 C 1.11081 0.73881 1.11377
 C3819 C 1.10905 0.73997 1.09048
 C3820 C 1.11262 0.72131 1.07781
 C3821 C 1.11867 0.70186 1.08793
 C3822 C 1.12099 0.70031 1.11114
 C3823 C 1.10399 0.75978 1.08012
 C3824 C 1.10095 0.77867 1.09271
 C3825 C 1.10296 0.77765 1.11600
 C3826 C 1.10777 0.75775 1.12638
 C3827 C 1.09993 0.79657 1.12855
 C3828 C 1.09434 0.81612 1.11822
 C3829 C 1.09178 0.81721 1.09513
 C3830 C 1.09555 0.79849 1.08240
 H3831 H 1.11810 0.71837 1.14180
 H3832 H 1.11108 0.72182 1.05996
 H3833 H 1.12116 0.68783 1.07740
 H3834 H 1.10252 0.76051 1.06226
 H3835 H 1.10925 0.75703 1.14424
 H3836 H 1.10151 0.79617 1.14639
 H3837 H 1.09160 0.83041 1.12833
 H3838 H 1.09339 0.79916 1.06462
 C3839 C 1.12491 0.22246 0.61733
 C3840 C 1.11563 0.24243 0.61100
 C3841 C 1.10793 0.25696 0.62736
 C3842 C 1.10950 0.25118 0.64974
 C3843 C 1.11882 0.23131 0.65590
 C3844 C 1.12676 0.21680 0.63981
 C3845 C 1.09896 0.27708 0.62110
 C3846 C 1.09761 0.28287 0.59868
 C3847 C 1.10519 0.26826 0.58233
 C3848 C 1.11410 0.24813 0.58858
 C3849 C 1.10386 0.27409 0.55996
 C3850 C 1.09521 0.29425 0.55380
 C3851 C 1.08772 0.30900 0.56987
 C3852 C 1.08893 0.30311 0.59235
 H3853 H 1.13067 0.21130 0.60473
 H3854 H 1.10371 0.26213 0.66250
 H3855 H 1.12026 0.22750 0.67332
 H3856 H 1.09313 0.28825 0.63367
 H3857 H 1.11998 0.23698 0.57601
 H3858 H 1.10951 0.26307 0.54720
 H3859 H 1.09419 0.29823 0.53639
 H3860 H 1.08349 0.31443 0.60493
 C3861 C 0.61896 0.71907 0.60321
 C3862 C 0.61089 0.73994 0.59839
 C3863 C 0.60617 0.75453 0.61584
 C3864 C 0.60954 0.74800 0.63777
 C3865 C 0.61752 0.72722 0.64241
 C3866 C 0.62231 0.71256 0.62524
 C3867 C 0.59823 0.77542 0.61111
 C3868 C 0.59494 0.78195 0.58915
 C3869 C 0.59958 0.76735 0.57169
 C3870 C 0.60749 0.74643 0.57642
 C3871 C 0.59634 0.77399 0.54976
 C3872 C 0.58877 0.79495 0.54515
 C3873 C 0.58423 0.80964 0.56236
 C3874 C 0.58726 0.80295 0.58437
 H3875 H 0.62240 0.70781 0.58986
 H3876 H 0.60607 0.75899 0.65133
 H3877 H 0.62025 0.72270 0.65950
 H3878 H 0.59467 0.78661 0.62451
 H3879 H 0.61108 0.73526 0.56302
 H3880 H 0.59973 0.76300 0.53618
 H3881 H 0.58632 0.79965 0.52807
 H3882 H 0.58408 0.81424 0.59776
 C3883 C 0.61668 0.21414 1.10256
 C3884 C 0.60619 0.23294 1.09485
 C3885 C 0.58324 0.23457 1.09599
 C3886 C 0.57122 0.21741 1.10509
 C3887 C 0.58179 0.19883 1.11308
 C3888 C 0.60473 0.19675 1.11188
 C3889 C 0.57274 0.25340 1.08819
 C3890 C 0.58500 0.27076 1.07963
 C3891 C 0.60800 0.26918 1.07883
 C3892 C 0.61842 0.25027 1.08631
 C3893 C 0.62028 0.28661 1.07069
 C3894 C 0.60992 0.30548 1.06334
 C3895 C 0.58703 0.30724 1.06372
 C3896 C 0.57465 0.28973 1.07195
 H3897 H 0.63434 0.21373 1.10224
 H3898 H 0.55358 0.21833 1.10603
 H3899 H 0.57173 0.18579 1.11941
 H3900 H 0.55510 0.25461 1.08898
 H3901 H 0.63607 0.24909 1.08560
 H3902 H 0.63793 0.28574 1.07016
 H3903 H 0.61992 0.31886 1.05763
 H3904 H 0.55701 0.29077 1.07221
 C3905 C 1.27051 1.11943 0.88279
 C3906 C 1.25079 1.11491 0.89363
 C3907 C 1.23512 1.13162 0.89648
 C3908 C 1.23964 1.15266 0.88880
 C3909 C 1.25949 1.15711 0.87844
 C3910 C 1.27495 1.14054 0.87528
 C3911 C 1.21520 1.12703 0.90690
 C3912 C 1.21076 1.10595 0.91454
 C3913 C 1.22666 1.08939 0.91213
 C3914 C 1.24655 1.09397 0.90171
 C3915 C 1.22220 1.06834 0.91973
 C3916 C 1.20185 1.06348 0.92877
 C3917 C 1.18566 1.07960 0.93052
 C3918 C 1.19041 1.10098 0.92394
 H3919 H 1.28262 1.10673 0.88060
 H3920 H 1.22788 1.16568 0.89091
 H3921 H 1.26282 1.17351 0.87281
 H3922 H 1.20309 1.13977 0.90882
 H3923 H 1.25862 1.08120 0.89968
 H3924 H 1.23423 1.05550 0.91816
 H3925 H 1.19851 1.04693 0.93392
 H3926 H 1.17791 1.11343 0.92508
 C3927 C 1.27952 0.62497 0.38319
 C3928 C 1.25902 0.61659 0.38918
 C3929 C 1.24366 0.61139 0.37256
 C3930 C 1.24911 0.61447 0.35028
 C3931 C 1.26948 0.62287 0.34447
 C3932 C 1.28487 0.62829 0.36080
 C3933 C 1.22305 0.60335 0.37846
 C3934 C 1.21754 0.60049 0.40078
 C3935 C 1.23293 0.60556 0.41741
 C3936 C 1.25358 0.61352 0.41151
 C3937 C 1.22733 0.60270 0.43970
 C3938 C 1.20664 0.59505 0.44549
 C3939 C 1.19113 0.59010 0.42913
 C3940 C 1.19679 0.59280 0.40674
 H3941 H 1.29131 0.62886 0.39593
 H3942 H 1.23752 0.61062 0.33734
 H3943 H 1.27301 0.62557 0.32715
 H3944 H 1.21126 0.59946 0.36569
 H3945 H 1.26534 0.61749 0.42428
 H3946 H 1.23894 0.60641 0.45266
 H3947 H 1.20283 0.59283 0.46283
 H3948 H 1.18490 0.58933 0.39397
 C3949 C 0.78150 1.12314 0.39145
 C3950 C 0.76052 1.11508 0.39585
 C3951 C 0.74570 1.11182 0.37823
 C3952 C 0.75212 1.11660 0.35654
 C3953 C 0.77305 1.12448 0.35230
 C3954 C 0.78792 1.12780 0.36966
 C3955 C 0.72470 1.10387 0.38256
 C3956 C 0.71831 1.09911 0.40428
 C3957 C 0.73316 1.10225 0.42189
 C3958 C 0.75417 1.11019 0.41756
 C3959 C 0.72670 1.09752 0.44358
 C3960 C 0.70562 1.09004 0.44785
 C3961 C 0.69064 1.08708 0.43052
 C3962 C 0.69719 1.09147 0.40871
 H3963 H 0.79295 1.12546 0.40490
 H3964 H 0.74097 1.11425 0.34285
 H3965 H 0.77758 1.12820 0.33540
 H3966 H 0.71333 1.10146 0.36904
 H3967 H 0.76553 1.11264 0.43108
 H3968 H 0.73789 1.09974 0.45726
 H3969 H 0.70102 1.08651 0.46476
 H3970 H 0.68567 1.08946 0.39526
 C3971 C 0.78335 0.61448 0.88657
 C3972 C 0.76255 0.61014 0.89530
 C3973 C 0.74729 0.62725 0.89774
 C3974 C 0.75310 0.64840 0.89141
 C3975 C 0.77377 0.65257 0.88268
 C3976 C 0.78914 0.63572 0.88018
 C3977 C 0.72642 0.62294 0.90625
 C3978 C 0.72048 0.60165 0.91207
 C3979 C 0.73577 0.58453 0.90963
 C3980 C 0.75674 0.58891 0.90145
 C3981 C 0.72969 0.56321 0.91500
 C3982 C 0.70851 0.55875 0.92215
 C3983 C 0.69313 0.57556 0.92441
 C3984 C 0.69931 0.59707 0.91974
 H3985 H 0.79511 0.60139 0.88496
 H3986 H 0.74159 0.66170 0.89307
 H3987 H 0.77765 0.66902 0.87760
 H3988 H 0.71471 0.63607 0.90802
 H3989 H 0.76840 0.57575 0.89954
 H3990 H 0.74119 0.54990 0.91325
 H3991 H 0.70402 0.54208 0.92574
 H3992 H 0.68740 0.61005 0.92123
 C3993 C 1.27546 0.88656 1.13312
 C3994 C 1.25806 0.89667 1.12194
 C3995 C 1.25897 0.89922 1.09870
 C3996 C 1.27738 0.89199 1.08709
 C3997 C 1.29441 0.88167 1.09826
 C3998 C 1.29349 0.87856 1.12127
 C3999 C 1.24129 0.90847 1.08734
 C4000 C 1.22253 0.91498 1.09886
 C4001 C 1.22171 0.91273 1.12213
 C4002 C 1.23951 0.90370 1.13353
 C4003 C 1.20293 0.91924 1.13358
 C4004 C 1.18503 0.92764 1.12211
 C4005 C 1.18553 0.92973 1.09895
 C4006 C 1.20445 0.92344 1.08744
 H4007 H 1.27456 0.88405 1.15084
 H4008 H 1.27841 0.89390 1.06931
 H4009 H 1.30827 0.87581 1.08886
 H4010 H 1.24196 0.91022 1.06951
 H4011 H 1.23875 0.90178 1.15134
 H4012 H 1.20198 0.91761 1.15140
 H4013 H 1.17056 0.93210 1.13134
 H4014 H 1.20509 0.92517 1.06961
 C4015 C 1.26850 0.37797 0.63108
 C4016 C 1.24937 0.38525 0.62069
 C4017 C 1.23070 0.37173 0.62041
 C4018 C 1.23131 0.35143 0.63093
 C4019 C 1.25049 0.34420 0.64092
 C4020 C 1.26930 0.35723 0.64076
 C4021 C 1.21184 0.37853 0.60931
 C4022 C 1.21138 0.39868 0.59849
 C4023 C 1.22991 0.41238 0.59904
 C4024 C 1.24882 0.40555 0.61010
 C4025 C 1.22913 0.43278 0.58865
 C4026 C 1.21006 0.43965 0.57809
 C4027 C 1.19175 0.42602 0.57737
 C4028 C 1.19252 0.40549 0.58739
 H4029 H 1.28306 0.38797 0.63069
 H4030 H 1.21712 0.34093 0.63097
 H4031 H 1.25082 0.32819 0.64841
 H4032 H 1.19757 0.36810 0.60900
 H4033 H 1.26310 0.41595 0.61037
 H4034 H 1.24312 0.44353 0.58900
 H4035 H 1.20948 0.45567 0.57064
 H4036 H 1.17817 0.39520 0.58717
 C4037 C 0.78182 0.88034 0.61724
 C4038 C 0.76348 0.89178 0.60971
 C4039 C 0.76394 0.91475 0.60871
 C4040 C 0.78280 0.92585 0.61543
 C4041 C 0.80112 0.91429 0.62272
 C4042 C 0.80090 0.89142 0.62351
 C4043 C 0.74567 0.92618 0.60080
 C4044 C 0.72705 0.91487 0.59367
 C4045 C 0.72668 0.89187 0.59476
 C4046 C 0.74480 0.88051 0.60290
 C4047 C 0.70824 0.88054 0.58746
 C4048 C 0.69039 0.89180 0.57890
 C4049 C 0.69054 0.91463 0.57754
 C4050 C 0.70888 0.92612 0.58520
 H4051 H 0.78125 0.86273 0.61818
 H4052 H 0.78349 0.94346 0.61477
 H4053 H 0.81565 0.92323 0.62729
 H4054 H 0.74603 0.94381 0.59996
 H4055 H 0.74448 0.86288 0.60365
 H4056 H 0.70767 0.86293 0.58827
 H4057 H 0.67630 0.88263 0.57345
 H4058 H 0.70917 0.94372 0.58412
 C4059 C 0.77677 0.37084 1.11517
 C4060 C 0.75853 0.38215 1.10688
 C4061 C 0.75822 0.40516 1.10732
 C4062 C 0.77614 0.41645 1.11596
 C4063 C 0.79413 0.40511 1.12423
 C4064 C 0.79464 0.38222 1.12405
 C4065 C 0.74001 0.41654 1.09920
 C4066 C 0.72204 0.40522 1.09061
 C4067 C 0.72237 0.38220 1.09014
 C4068 C 0.74057 0.37083 1.09827
 C4069 C 0.70445 0.37092 1.08151
 C4070 C 0.68642 0.38226 1.07331
 C4071 C 0.68588 0.40515 1.07357
 C4072 C 0.70377 0.41653 1.08242
 H4073 H 0.77687 0.35320 1.11510
 H4074 H 0.77623 0.43408 1.11635
 H4075 H 0.80779 0.41429 1.13065
 H4076 H 0.73983 0.43418 1.09957
 H4077 H 0.74075 0.35318 1.09791
 H4078 H 0.70436 0.35329 1.08109
 H4079 H 0.67274 0.37308 1.06693
 H4080 H 0.70361 0.43417 1.08257
 C4081 C 0.70736 1.10213 1.10889
 C4082 C 0.72830 1.09677 1.10122
 C4083 C 0.74315 1.11353 1.09574
 C4084 C 0.73678 1.13532 1.09793
 C4085 C 0.71596 1.14051 1.10565
 C4086 C 0.70106 1.12402 1.11126
 C4087 C 0.76416 1.10826 1.08830
 C4088 C 0.77058 1.08644 1.08635
 C4089 C 0.75573 1.06966 1.09177
 C4090 C 0.73467 1.07493 1.09910
 C4091 C 0.76229 1.04788 1.08990
 C4092 C 0.78339 1.04275 1.08288
 C4093 C 0.79829 1.05930 1.07751
 C4094 C 0.79170 1.08114 1.07924
 H4095 H 0.69594 1.08928 1.11292
 H4096 H 0.74797 1.14836 1.09387
 H4097 H 0.71164 1.15749 1.10764
 H4098 H 0.77555 1.12113 1.08415
 H4099 H 0.72330 1.06206 1.10331
 H4100 H 0.75112 1.03481 1.09394
 H4101 H 0.78803 1.02580 1.08146
 H4102 H 0.80316 1.09404 1.07545
 C4103 C 0.72151 0.61579 0.61985
 C4104 C 0.74030 0.60785 0.60937
 C4105 C 0.74190 0.60857 0.58606
 C4106 C 0.72466 0.61734 0.57367
 C4107 C 0.70600 0.62529 0.58427
 C4108 C 0.70422 0.62451 0.60742
 C4109 C 0.76070 0.60056 0.57556
 C4110 C 0.77794 0.59195 0.58811
 C4111 C 0.77631 0.59135 0.61144
 C4112 C 0.75751 0.59928 0.62190
 C4113 C 0.79354 0.58287 0.62397
 C4114 C 0.81226 0.57501 0.61354
 C4115 C 0.81410 0.57537 0.59036
 C4116 C 0.79681 0.58393 0.57774
 H4117 H 0.72046 0.61545 0.63775
 H4118 H 0.72558 0.61803 0.55579
 H4119 H 0.69282 0.63181 0.57435
 H4120 H 0.76193 0.60108 0.55768
 H4121 H 0.75629 0.59878 0.63979
 H4122 H 0.79260 0.58241 0.64185
 H4123 H 0.82548 0.56892 0.62369
 H4124 H 0.79796 0.58413 0.55985
 C4125 C 0.22207 1.11513 0.62227
 C4126 C 0.24223 1.10881 0.61333
 C4127 C 0.25822 1.12474 0.60871
 C4128 C 0.25372 1.14670 0.61299
 C4129 C 0.23369 1.15283 0.62208
 C4130 C 0.21770 1.13714 0.62693
 C4131 C 0.27853 1.11846 0.60010
 C4132 C 0.28312 1.09643 0.59622
 C4133 C 0.26712 1.08049 0.60080
 C4134 C 0.24674 1.08679 0.60921
 C4135 C 0.27186 1.05847 0.59707
 C4136 C 0.29232 1.05226 0.58905
 C4137 C 0.30837 1.06795 0.58450
 C4138 C 0.30358 1.09006 0.58806
 H4139 H 0.20978 1.10290 0.62563
 H4140 H 0.26581 1.15911 0.60961
 H4141 H 0.23090 1.16984 0.62578
 H4142 H 0.29081 1.13069 0.59662
 H4143 H 0.23449 1.07455 0.61278
 H4144 H 0.25979 1.04604 0.60044
 H4145 H 0.29557 1.03516 0.58623
 H4146 H 0.31595 1.10227 0.58491
 C4147 C 0.21701 0.60345 1.11710
 C4148 C 0.23592 0.59578 1.10665
 C4149 C 0.23648 0.59382 1.08336
 C4150 C 0.21792 0.59923 1.07096
 C4151 C 0.19919 0.60703 1.08150
 C4152 C 0.19864 0.60943 1.10461
 C4153 C 0.25563 0.58678 1.07284
 C4154 C 0.27425 0.58174 1.08533
 C4155 C 0.27355 0.58347 1.10866
 C4156 C 0.25442 0.59048 1.11915
 C4157 C 0.29206 0.57821 1.12116
 C4158 C 0.31108 0.57123 1.11068
 C4159 C 0.31201 0.56954 1.08754
 C4160 C 0.29356 0.57493 1.07491
 H4161 H 0.21686 0.60554 1.13490
 H4162 H 0.21800 0.59773 1.05311
 H4163 H 0.18515 0.61136 1.07156
 H4164 H 0.25610 0.58540 1.05496
 H4165 H 0.25398 0.59195 1.13702
 H4166 H 0.29181 0.57947 1.13903
 H4167 H 0.32521 0.56730 1.12067
 H4168 H 0.29415 0.57346 1.05706
 C4169 C 0.71958 0.86836 0.89565
 C4170 C 0.73873 0.87839 0.90328
 C4171 C 0.73901 0.90114 0.90695
 C4172 C 0.72002 0.91337 0.90343
 C4173 C 0.70122 0.90334 0.89537
 C4174 C 0.70097 0.88089 0.89108
 C4175 C 0.75839 0.91140 0.91346
 C4176 C 0.77760 0.89927 0.91611
 C4177 C 0.77725 0.87648 0.91277
 C4178 C 0.75782 0.86619 0.90646
 C4179 C 0.79643 0.86437 0.91563
 C4180 C 0.81576 0.87471 0.92178
 C4181 C 0.81631 0.89734 0.92499
 C4182 C 0.79719 0.90958 0.92203
 H4183 H 0.71950 0.85108 0.89205
 H4184 H 0.71990 0.93078 0.90621
 H4185 H 0.68699 0.91322 0.89184
 H4186 H 0.75862 0.92886 0.91608
 H4187 H 0.75764 0.84875 0.90367
 H4188 H 0.79648 0.84691 0.91315
 H4189 H 0.83038 0.86502 0.92393
 H4190 H 0.79750 0.92701 0.92474
 C4191 C 0.72445 0.38403 0.37919
 C4192 C 0.74466 0.38936 0.38863
 C4193 C 0.75945 0.37263 0.39446
 C4194 C 0.75353 0.35083 0.39120
 C4195 C 0.73328 0.34566 0.38199
 C4196 C 0.71868 0.36218 0.37570
 C4197 C 0.77994 0.37797 0.40327
 C4198 C 0.78579 0.39982 0.40645
 C4199 C 0.77077 0.41650 0.40108
 C4200 C 0.75034 0.41117 0.39218
 C4201 C 0.77650 0.43828 0.40450
 C4202 C 0.79708 0.44359 0.41273
 C4203 C 0.81244 0.42724 0.41760
 C4204 C 0.80652 0.40530 0.41465
 H4205 H 0.71314 0.39685 0.37462
 H4206 H 0.76461 0.33779 0.39563
 H4207 H 0.72918 0.32872 0.37932
 H4208 H 0.79138 0.36514 0.40751
 H4209 H 0.73894 0.42401 0.38786
 H4210 H 0.76512 0.45125 0.40068
 H4211 H 0.80099 0.46058 0.41529
 H4212 H 0.81822 0.39252 0.41815
 C4213 C 0.22074 0.88638 0.38459
 C4214 C 0.24010 0.89742 0.38959
 C4215 C 0.23972 0.92018 0.39302
 C4216 C 0.21996 0.93154 0.39097
 C4217 C 0.20074 0.92041 0.38581
 C4218 C 0.20096 0.89775 0.38279
 C4219 C 0.25903 0.93113 0.39862
 C4220 C 0.27866 0.91955 0.40095
 C4221 C 0.27900 0.89683 0.39711
 C4222 C 0.25977 0.88596 0.39137
 C4223 C 0.29851 0.88522 0.39953
 C4224 C 0.31738 0.89583 0.40644
 C4225 C 0.31714 0.91826 0.41091
 C4226 C 0.29784 0.93018 0.40763
 H4227 H 0.22107 0.86894 0.38190
 H4228 H 0.21934 0.94899 0.39348
 H4229 H 0.18562 0.92945 0.38449
 H4230 H 0.25872 0.94855 0.40149
 H4231 H 0.26005 0.86851 0.38865
 H4232 H 0.29908 0.86785 0.39651
 H4233 H 0.33219 0.88644 0.40860
 H4234 H 0.29757 0.94747 0.41117
 C4235 C 0.22999 0.37367 0.86225
 C4236 C 0.24997 0.38076 0.87108
 C4237 C 0.26756 0.36594 0.87306
 C4238 C 0.26501 0.34444 0.86584
 C4239 C 0.24505 0.33747 0.85736
 C4240 C 0.22729 0.35188 0.85577
 C4241 C 0.28729 0.37271 0.88254
 C4242 C 0.28970 0.39411 0.89018
 C4243 C 0.27223 0.40903 0.88797
 C4244 C 0.25249 0.40227 0.87843
 C4245 C 0.27481 0.43048 0.89538
 C4246 C 0.29451 0.43712 0.90481
 C4247 C 0.31191 0.42239 0.90721
 C4248 C 0.30935 0.40085 0.89994
 H4249 H 0.21630 0.38482 0.86125
 H4250 H 0.27834 0.33291 0.86712
 H4251 H 0.24335 0.32066 0.85228
 H4252 H 0.30070 0.36128 0.88415
 H4253 H 0.23906 0.41368 0.87690
 H4254 H 0.26163 0.44214 0.89382
 H4255 H 0.29616 0.45379 0.91037
 H4256 H 0.32281 0.38949 0.90146
   
