data_POSCAR
  _audit_creation_date              2014-09-24
  _audit_creation_method            'ToBaCCo'
  _symmetry_space_group_name_H-M    'P1'
  _symmetry_Int_Tables_number       1
  _symmetry_cell_setting            triclinic
  loop_
  _symmetry_equiv_pos_as_xyz
 x,y,z
_cell_length_a 50.3605
_cell_length_b 50.3595
_cell_length_c 50.3490
_cell_angle_alpha 90.030700
_cell_angle_beta 90.033400
_cell_angle_gamma 90.002700
loop_
  _atom_site_label
  _atom_site_type_symbol
  _atom_site_fract_x
  _atom_site_fract_y
  _atom_site_fract_z
O1 O 0.27254 1.02546 0.02540
 O2 O 0.27255 0.97382 -0.02636
 O3 O 0.27219 1.02555 -0.02631
 O4 O 0.27236 0.97376 0.02535
 O5 O 0.22844 0.97372 0.02536
 O6 O 0.22827 1.02544 -0.02624
 O7 O 0.22864 0.97371 -0.02636
 O8 O 0.22862 1.02541 0.02547
 Cu9 Cu 0.27684 0.99965 -0.00049
 Cu10 Cu 0.22406 0.99956 -0.00044
 C11 C 0.25060 1.03415 0.03418
 C12 C 0.25061 0.96503 -0.03510
 C13 C 0.25018 1.03424 -0.03497
 C14 C 0.25040 0.96501 0.03408
 O15 O 0.77296 0.52588 0.52567
 O16 O 0.77295 0.47425 0.47390
 O17 O 0.77262 0.52598 0.47393
 O18 O 0.77275 0.47415 0.52565
 O19 O 0.72884 0.47412 0.52565
 O20 O 0.72870 0.52590 0.47400
 O21 O 0.72904 0.47416 0.47390
 O22 O 0.72904 0.52586 0.52573
 Cu23 Cu 0.77725 0.50007 0.49978
 Cu24 Cu 0.72448 0.50000 0.49982
 C25 C 0.75102 0.53460 0.53444
 C26 C 0.75101 0.46549 0.46515
 C27 C 0.75062 0.53469 0.46524
 C28 C 0.75080 0.46539 0.53438
 O29 O 0.77121 0.97416 1.02687
 O30 O 0.77129 1.02584 0.97502
 O31 O 0.77154 1.02591 1.02676
 O32 O 0.77149 0.97411 0.97512
 O33 O 0.72758 0.97413 0.97505
 O34 O 0.72763 1.02599 1.02675
 O35 O 0.72738 1.02587 0.97501
 O36 O 0.72730 0.97425 1.02680
 Cu37 Cu 0.77581 1.00000 1.00095
 Cu38 Cu 0.72305 1.00006 1.00090
 C39 C 0.74922 0.96547 1.03558
 C40 C 0.74933 1.03457 0.96627
 C41 C 0.74961 1.03471 1.03547
 C42 C 0.74954 0.96538 0.96636
 O43 O 0.22731 0.47427 0.52591
 O44 O 0.22725 0.52584 0.47418
 O45 O 0.22761 0.47413 0.47419
 O46 O 0.22748 0.52597 0.52590
 O47 O 0.27140 0.52602 0.52592
 O48 O 0.27153 0.47424 0.47428
 O49 O 0.27116 0.52595 0.47420
 O50 O 0.27123 0.47433 0.52599
 Cu51 Cu 0.22298 0.50005 0.50004
 Cu52 Cu 0.27576 0.50015 0.50010
 C53 C 0.24926 0.46560 0.53469
 C54 C 0.24917 0.53461 0.46546
 C55 C 0.24961 0.46543 0.46552
 C56 C 0.24944 0.53473 0.53464
 O57 O 1.02546 0.22818 0.02519
 O58 O 0.97360 0.22828 -0.02649
 O59 O 1.02531 0.22802 -0.02651
 O60 O 0.97376 0.22789 0.02524
 O61 O 0.97371 0.27181 0.02539
 O62 O 1.02533 0.27194 -0.02643
 O63 O 0.97362 0.27219 -0.02634
 O64 O 1.02541 0.27210 0.02528
 Cu65 Cu 0.99953 0.22366 -0.00066
 Cu66 Cu 0.99951 0.27644 -0.00051
 C67 C 1.03419 0.25015 0.03394
 C68 C 0.96487 0.25027 -0.03514
 C69 C 1.03404 0.24998 -0.03520
 C70 C 0.96503 0.24981 0.03406
 O71 O 0.52601 0.72826 0.52588
 O72 O 0.47417 0.72828 0.47417
 O73 O 0.52592 0.72808 0.47413
 O74 O 0.47428 0.72791 0.52592
 O75 O 0.47419 0.77182 0.52606
 O76 O 0.52588 0.77200 0.47420
 O77 O 0.47414 0.77219 0.47431
 O78 O 0.52591 0.77218 0.52595
 Cu79 Cu 0.50010 0.72371 0.50001
 Cu80 Cu 0.50002 0.77647 0.50013
 C81 C 0.53469 0.75024 0.53465
 C82 C 0.46541 0.75026 0.46552
 C83 C 0.53462 0.75005 0.46541
 C84 C 0.46552 0.74982 0.53475
 O85 O 0.02607 0.77228 -0.02684
 O86 O -0.02582 0.77237 0.02480
 O87 O 0.02591 0.77256 0.02491
 O88 O -0.02568 0.77265 -0.02693
 O89 O -0.02579 0.72874 -0.02699
 O90 O 0.02586 0.72865 0.02491
 O91 O -0.02586 0.72846 0.02475
 O92 O 0.02596 0.72837 -0.02683
 Cu93 Cu 0.00013 0.77689 -0.00102
 Cu94 Cu 0.00004 0.72413 -0.00105
 C95 C 0.03478 0.75029 -0.03555
 C96 C -0.03459 0.75041 0.03349
 C97 C 0.03459 0.75061 0.03367
 C98 C -0.03447 0.75073 -0.03570
 O99 O 0.52601 0.22802 0.47426
 O100 O 0.47421 0.22804 0.52575
 O101 O 0.47430 0.22822 0.47403
 O102 O 0.52592 0.22837 0.52597
 O103 O 0.52583 0.27229 0.52589
 O104 O 0.47428 0.27214 0.47402
 O105 O 0.47412 0.27195 0.52573
 O106 O 0.52599 0.27194 0.47418
 Cu107 Cu 0.50011 0.22373 0.50001
 Cu108 Cu 0.50005 0.27652 0.49995
 C109 C 0.53475 0.24995 0.46553
 C110 C 0.46542 0.24998 0.53443
 C111 C 0.46558 0.25018 0.46527
 C112 C 0.53458 0.25038 0.53469
 O113 O 1.02541 0.02539 0.27302
 O114 O 0.97385 -0.02648 0.27304
 O115 O 1.02558 -0.02634 0.27272
 O116 O 0.97369 0.02524 0.27272
 O117 O 0.97369 0.02517 0.22880
 O118 O 1.02550 -0.02633 0.22879
 O119 O 0.97378 -0.02654 0.22912
 O120 O 1.02541 0.02539 0.22910
 Cu121 Cu 0.99964 -0.00055 0.27731
 Cu122 Cu 0.99960 -0.00058 0.22452
 C123 C 1.03411 0.03416 0.25108
 C124 C 0.96510 -0.03527 0.25111
 C125 C 1.03429 -0.03504 0.25073
 C126 C 0.96494 0.03390 0.25074
 O127 O 0.52588 0.52592 0.77327
 O128 O 0.47434 0.47415 0.77343
 O129 O 0.52606 0.47421 0.77302
 O130 O 0.47416 0.52588 0.77309
 O131 O 0.47407 0.52579 0.72917
 O132 O 0.52590 0.47418 0.72910
 O133 O 0.47419 0.47406 0.72951
 O134 O 0.52579 0.52589 0.72934
 Cu135 Cu 0.50012 0.50005 0.77763
 Cu136 Cu 0.49997 0.49998 0.72485
 C137 C 0.53455 0.53464 0.75130
 C138 C 0.46557 0.46535 0.75152
 C139 C 0.53473 0.46548 0.75102
 C140 C 0.46536 0.53456 0.75112
 O141 O 0.97376 1.02657 0.77139
 O142 O 1.02538 0.97465 0.77138
 O143 O 1.02549 1.02635 0.77160
 O144 O 0.97368 0.97484 0.77171
 O145 O 0.97357 0.97473 0.72778
 O146 O 1.02544 1.02632 0.72767
 O147 O 1.02527 0.97461 0.72746
 O148 O 0.97371 1.02647 0.72747
 Cu149 Cu 0.99958 1.00061 0.77595
 Cu150 Cu 0.99948 1.00053 0.72316
 C151 C 0.96503 1.03528 0.74941
 C152 C 1.03403 0.96587 0.74940
 C153 C 1.03423 1.03502 0.74963
 C154 C 0.96489 0.96607 0.74979
 O155 O 0.47439 0.52590 0.22699
 O156 O 0.52584 0.47405 0.22676
 O157 O 0.47412 0.47419 0.22719
 O158 O 0.52610 0.52579 0.22716
 O159 O 0.52620 0.52569 0.27108
 O160 O 0.47429 0.47416 0.27111
 O161 O 0.52601 0.47396 0.27069
 O162 O 0.47449 0.52587 0.27092
 Cu163 Cu 0.50010 0.49999 0.22260
 Cu164 Cu 0.50027 0.49991 0.27538
 C165 C 0.46574 0.53464 0.24897
 C166 C 0.53461 0.46525 0.24867
 C167 C 0.46543 0.46547 0.24918
 C168 C 0.53491 0.53445 0.24914
 O169 O 0.25025 0.18112 0.21302
 O170 O 0.27904 0.17337 0.24994
 O171 O 0.18094 0.21324 0.25099
 O172 O 0.17107 0.24767 0.27695
 O173 O 0.21314 0.25038 0.18081
 O174 O 0.24995 0.27932 0.17328
 O175 O 0.25088 0.28642 0.31866
 O176 O 0.21993 0.25179 0.32587
 O177 O 0.31841 0.25083 0.28650
 O178 O 0.32688 0.22105 0.24872
 O179 O 0.28634 0.31858 0.25080
 O180 O 0.24852 0.32696 0.22102
 O181 O 0.25080 0.31832 0.28680
 O182 O 0.22014 0.32637 0.24891
 O183 O 0.31827 0.28678 0.25078
 O184 O 0.32626 0.24872 0.22023
 O185 O 0.28663 0.25109 0.31848
 O186 O 0.25016 0.22035 0.32661
 O187 O 0.25039 0.21298 0.18106
 O188 O 0.27962 0.25006 0.17361
 O189 O 0.18120 0.25008 0.21266
 O190 O 0.17510 0.28123 0.24971
 O191 O 0.21279 0.18126 0.25032
 O192 O 0.24981 0.17372 0.27954
 Zr193 Zr 0.24879 0.20245 0.24895
 O194 O 0.27376 0.22515 0.27363
 Zr195 Zr 0.20223 0.24911 0.24882
 O196 O 0.22499 0.27370 0.27396
 Zr197 Zr 0.24897 0.24898 0.20227
 O198 O 0.27365 0.27393 0.22504
 Zr199 Zr 0.25066 0.25059 0.29728
 O200 O 0.22537 0.22566 0.27471
 Zr201 Zr 0.29716 0.25073 0.25051
 O202 O 0.27460 0.22552 0.22550
 Zr203 Zr 0.25042 0.29725 0.25070
 O204 O 0.22549 0.27469 0.22536
 O205 O 0.22419 0.22439 0.22419
 O206 O 0.27545 0.27557 0.27550
 C207 C 0.25089 0.18859 0.18860
 C208 C 0.18840 0.18881 0.25126
 C209 C 0.18873 0.25076 0.18826
 C210 C 0.25095 0.31082 0.31120
 C211 C 0.31100 0.25105 0.31092
 C212 C 0.31075 0.31116 0.25086
 H213 H 0.28484 0.21309 0.28443
 H214 H 0.28455 0.28494 0.21301
 H215 H 0.21284 0.21297 0.21290
 H216 H 0.21309 0.28452 0.28522
 H217 H 0.20630 0.23883 0.32010
 H218 H 0.17689 0.25788 0.29269
 H219 H 0.32286 0.26337 0.20761
 H220 H 0.29353 0.23763 0.17981
 H221 H 0.26405 0.20720 0.32221
 H222 H 0.23748 0.17999 0.29350
 H223 H 0.26230 0.32294 0.20762
 H224 H 0.23798 0.29354 0.17968
 H225 H 0.29334 0.17980 0.23809
 H226 H 0.32284 0.20764 0.26248
 H227 H 0.18050 0.29373 0.23553
 H228 H 0.20755 0.32288 0.26356
 O229 O 0.74966 0.81924 0.21306
 O230 O 0.72094 0.82693 0.25003
 O231 O 0.81905 0.78705 0.25090
 O232 O 0.82900 0.75258 0.27672
 O233 O 0.78668 0.75001 0.18064
 O234 O 0.74984 0.72106 0.17312
 O235 O 0.74926 0.71381 0.31852
 O236 O 0.78022 0.74843 0.32576
 O237 O 0.68164 0.74944 0.28651
 O238 O 0.67309 0.77924 0.24879
 O239 O 0.71366 0.68171 0.25063
 O240 O 0.75135 0.67332 0.22084
 O241 O 0.74928 0.68194 0.28660
 O242 O 0.77989 0.67399 0.24860
 O243 O 0.68172 0.71350 0.25072
 O244 O 0.67364 0.75158 0.22025
 O245 O 0.71349 0.74915 0.31845
 O246 O 0.75001 0.77989 0.32658
 O247 O 0.74943 0.78741 0.18103
 O248 O 0.72016 0.75033 0.17356
 O249 O 0.81870 0.75027 0.21246
 O250 O 0.82485 0.71903 0.24945
 O251 O 0.78721 0.81904 0.25033
 O252 O 0.75024 0.82655 0.27960
 Zr253 Zr 0.75119 0.79785 0.24895
 O254 O 0.72628 0.77513 0.27363
 Zr255 Zr 0.79774 0.75119 0.24866
 O256 O 0.77505 0.72658 0.27380
 Zr257 Zr 0.75089 0.75138 0.20217
 O258 O 0.72628 0.72640 0.22494
 Zr259 Zr 0.74942 0.74966 0.29720
 O260 O 0.77467 0.77460 0.27463
 Zr261 Zr 0.70282 0.74956 0.25049
 O262 O 0.72532 0.77480 0.22549
 Zr263 Zr 0.74957 0.70305 0.25053
 O264 O 0.77443 0.72563 0.22518
 O265 O 0.77573 0.77594 0.22411
 O266 O 0.72459 0.72469 0.27541
 C267 C 0.74897 0.81180 0.18862
 C268 C 0.81159 0.81148 0.25124
 C269 C 0.81111 0.74963 0.18806
 C270 C 0.74917 0.68941 0.31102
 C271 C 0.68910 0.74921 0.31093
 C272 C 0.68925 0.68912 0.25074
 H273 H 0.71522 0.78717 0.28446
 H274 H 0.71535 0.71540 0.21291
 H275 H 0.78706 0.78737 0.21283
 H276 H 0.78697 0.71576 0.28503
 H277 H 0.79384 0.76138 0.31998
 H278 H 0.82320 0.74240 0.29248
 H279 H 0.67703 0.73696 0.20758
 H280 H 0.70628 0.76277 0.17981
 H281 H 0.73609 0.79303 0.32224
 H282 H 0.76261 0.82026 0.29354
 H283 H 0.73764 0.67744 0.20739
 H284 H 0.76184 0.70685 0.17947
 H285 H 0.70661 0.82051 0.23818
 H286 H 0.67718 0.79265 0.26255
 H287 H 0.81946 0.70660 0.23521
 H288 H 0.79246 0.67739 0.26331
 O289 O 0.74978 0.18126 0.78723
 O290 O 0.72086 0.17343 0.75040
 O291 O 0.81919 0.21318 0.74898
 O292 O 0.82882 0.24757 0.72276
 O293 O 0.78706 0.25058 0.81908
 O294 O 0.75016 0.27960 0.82656
 O295 O 0.74972 0.28652 0.68139
 O296 O 0.78070 0.25090 0.67469
 O297 O 0.68176 0.25085 0.71343
 O298 O 0.67332 0.22093 0.75083
 O299 O 0.71372 0.31855 0.74921
 O300 O 0.75167 0.32682 0.77925
 O301 O 0.74941 0.31841 0.71328
 O302 O 0.77983 0.32656 0.75112
 O303 O 0.68182 0.28670 0.74927
 O304 O 0.67391 0.24851 0.77972
 O305 O 0.71355 0.25159 0.68148
 O306 O 0.74550 0.22120 0.67307
 O307 O 0.74980 0.21322 0.81911
 O308 O 0.72060 0.25020 0.82647
 O309 O 0.81894 0.25016 0.78716
 O310 O 0.82517 0.28089 0.74977
 O311 O 0.78738 0.18122 0.75038
 O312 O 0.74898 0.17297 0.72117
 Zr313 Zr 0.75127 0.20236 0.75116
 O314 O 0.72653 0.22515 0.72633
 Zr315 Zr 0.79781 0.24898 0.75104
 O316 O 0.77510 0.27374 0.72607
 Zr317 Zr 0.75117 0.24909 0.79772
 O318 O 0.72644 0.27394 0.77494
 Zr319 Zr 0.74942 0.25068 0.70274
 O320 O 0.77466 0.22540 0.72513
 Zr321 Zr 0.70298 0.25068 0.74944
 O322 O 0.72551 0.22556 0.77455
 Zr323 Zr 0.74969 0.29730 0.74936
 O324 O 0.77469 0.27469 0.77456
 O325 O 0.77589 0.22441 0.77582
 O326 O 0.72466 0.27563 0.72454
 C327 C 0.74923 0.18881 0.81164
 C328 C 0.81175 0.18875 0.74913
 C329 C 0.81145 0.25094 0.81157
 C330 C 0.74952 0.31092 0.68887
 C331 C 0.68917 0.25137 0.68902
 C332 C 0.68932 0.31109 0.74918
 H333 H 0.71576 0.21314 0.71511
 H334 H 0.71551 0.28493 0.78698
 H335 H 0.78725 0.21308 0.78718
 H336 H 0.78705 0.28453 0.71485
 H337 H 0.79257 0.23591 0.67926
 H338 H 0.82224 0.25645 0.70653
 H339 H 0.67722 0.26320 0.79234
 H340 H 0.70664 0.23783 0.82026
 H341 H 0.75610 0.20584 0.67905
 H342 H 0.76457 0.17527 0.70943
 H343 H 0.73753 0.32307 0.79234
 H344 H 0.76229 0.29371 0.82020
 H345 H 0.70669 0.17991 0.76238
 H346 H 0.67769 0.20746 0.73722
 H347 H 0.81982 0.29358 0.76380
 H348 H 0.79264 0.32286 0.73671
 O349 O 0.25044 0.81898 0.78733
 O350 O 0.27934 0.82678 0.75057
 O351 O 0.18103 0.78701 0.74900
 O352 O 0.17141 0.75255 0.72280
 O353 O 0.21310 0.74976 0.81921
 O354 O 0.25001 0.72069 0.82673
 O355 O 0.25057 0.71359 0.68160
 O356 O 0.21958 0.74914 0.67480
 O357 O 0.31850 0.74931 0.71368
 O358 O 0.32688 0.77932 0.75115
 O359 O 0.28651 0.68165 0.74948
 O360 O 0.24856 0.67344 0.77947
 O361 O 0.25085 0.68175 0.71351
 O362 O 0.22042 0.67364 0.75129
 O363 O 0.31842 0.71350 0.74955
 O364 O 0.32635 0.75171 0.77997
 O365 O 0.28672 0.74853 0.68169
 O366 O 0.25474 0.77891 0.67325
 O367 O 0.25039 0.78709 0.81925
 O368 O 0.27954 0.75014 0.82672
 O369 O 0.18125 0.75011 0.78722
 O370 O 0.17507 0.71929 0.74984
 O371 O 0.21284 0.81897 0.75044
 O372 O 0.25126 0.82716 0.72127
 Zr373 Zr 0.24895 0.79783 0.75128
 O374 O 0.27372 0.77502 0.72652
 Zr375 Zr 0.20240 0.75121 0.75113
 O376 O 0.22515 0.72643 0.72622
 Zr377 Zr 0.24902 0.75118 0.79789
 O378 O 0.27378 0.72631 0.77517
 Zr379 Zr 0.25084 0.74945 0.70292
 O380 O 0.22556 0.77475 0.72525
 Zr381 Zr 0.29726 0.74952 0.74967
 O382 O 0.27469 0.77467 0.77474
 Zr383 Zr 0.25054 0.70291 0.74957
 O384 O 0.22551 0.72555 0.77471
 O385 O 0.22432 0.77583 0.77593
 O386 O 0.27559 0.72453 0.72477
 C387 C 0.25097 0.81149 0.81174
 C388 C 0.18847 0.81143 0.74915
 C389 C 0.18870 0.74940 0.81165
 C390 C 0.25076 0.68920 0.68910
 C391 C 0.31109 0.74877 0.68925
 C392 C 0.31092 0.68911 0.74947
 H393 H 0.28449 0.78701 0.71531
 H394 H 0.28471 0.71535 0.78722
 H395 H 0.21295 0.78718 0.78726
 H396 H 0.21321 0.71561 0.71498
 H397 H 0.20768 0.76412 0.67934
 H398 H 0.17800 0.74365 0.70659
 H399 H 0.32299 0.73709 0.79263
 H400 H 0.29355 0.76243 0.82048
 H401 H 0.24406 0.79423 0.67916
 H402 H 0.23566 0.82486 0.70953
 H403 H 0.26269 0.67723 0.79260
 H404 H 0.23783 0.70662 0.82038
 H405 H 0.29353 0.82030 0.76254
 H406 H 0.32258 0.79271 0.73744
 H407 H 0.18039 0.70663 0.76392
 H408 H 0.20760 0.67733 0.73687
 O409 O 0.24961 0.31877 0.71333
 O410 O 0.22081 0.32654 0.75023
 O411 O 0.31885 0.28653 0.75137
 O412 O 0.32874 0.25206 0.77719
 O413 O 0.28662 0.24951 0.68104
 O414 O 0.24979 0.22061 0.67341
 O415 O 0.24885 0.21343 0.81876
 O416 O 0.27984 0.24802 0.82609
 O417 O 0.18139 0.24914 0.78656
 O418 O 0.17298 0.27899 0.74879
 O419 O 0.21338 0.18139 0.75085
 O420 O 0.25114 0.17294 0.72108
 O421 O 0.24890 0.18157 0.78684
 O422 O 0.27957 0.17351 0.74895
 O423 O 0.18150 0.21325 0.75085
 O424 O 0.17350 0.25126 0.72034
 O425 O 0.21314 0.24879 0.81859
 O426 O 0.24966 0.27950 0.82684
 O427 O 0.24942 0.28693 0.68131
 O428 O 0.22016 0.24989 0.67374
 O429 O 0.31857 0.24976 0.71293
 O430 O 0.32462 0.21853 0.74994
 O431 O 0.28704 0.31855 0.75069
 O432 O 0.25004 0.32616 0.77982
 Zr433 Zr 0.25103 0.29742 0.74922
 O434 O 0.22605 0.27476 0.77384
 Zr435 Zr 0.29754 0.25071 0.74906
 O436 O 0.27476 0.22614 0.77414
 Zr437 Zr 0.25080 0.25092 0.70245
 O438 O 0.22610 0.22601 0.72515
 Zr439 Zr 0.24912 0.24928 0.79746
 O440 O 0.27444 0.27418 0.77496
 Zr441 Zr 0.20263 0.24924 0.75061
 O442 O 0.22521 0.27442 0.72567
 Zr443 Zr 0.24932 0.20265 0.75078
 O444 O 0.27427 0.22518 0.72551
 O445 O 0.27561 0.27547 0.72445
 O446 O 0.22431 0.22435 0.77559
 C447 C 0.24896 0.31132 0.68890
 C448 C 0.31140 0.31096 0.75168
 C449 C 0.31103 0.24910 0.68853
 C450 C 0.24875 0.18905 0.81124
 C451 C 0.18879 0.24888 0.81099
 C452 C 0.18899 0.18887 0.75092
 H453 H 0.21498 0.28683 0.78464
 H454 H 0.21519 0.21502 0.71309
 H455 H 0.28698 0.28689 0.71320
 H456 H 0.28665 0.21530 0.78539
 H457 H 0.29349 0.26096 0.82036
 H458 H 0.32288 0.24192 0.79294
 H459 H 0.17691 0.23663 0.70767
 H460 H 0.20627 0.26233 0.67995
 H461 H 0.23574 0.29264 0.82248
 H462 H 0.26232 0.31985 0.79383
 H463 H 0.23738 0.17700 0.70767
 H464 H 0.26174 0.20637 0.67980
 H465 H 0.20652 0.32015 0.73832
 H466 H 0.17698 0.29234 0.76264
 H467 H 0.31924 0.20609 0.73569
 H468 H 0.29214 0.17694 0.76366
 O469 O 0.75086 0.68137 0.71337
 O470 O 0.77982 0.67356 0.75014
 O471 O 0.68147 0.71321 0.75177
 O472 O 0.67174 0.74761 0.77790
 O473 O 0.71346 0.75061 0.68161
 O474 O 0.75029 0.77969 0.67412
 O475 O 0.75091 0.78657 0.81930
 O476 O 0.71999 0.75093 0.82603
 O477 O 0.81887 0.75103 0.78713
 O478 O 0.82729 0.72112 0.74966
 O479 O 0.78669 0.81866 0.75151
 O480 O 0.74879 0.82695 0.72156
 O481 O 0.75109 0.81846 0.78744
 O482 O 0.72055 0.82652 0.74961
 O483 O 0.81866 0.78689 0.75137
 O484 O 0.82664 0.74874 0.72085
 O485 O 0.78713 0.75171 0.81913
 O486 O 0.75522 0.72125 0.82754
 O487 O 0.75076 0.71332 0.68151
 O488 O 0.77990 0.75034 0.67415
 O489 O 0.68161 0.75014 0.71356
 O490 O 0.67541 0.78092 0.75103
 O491 O 0.71331 0.68129 0.75026
 O492 O 0.75176 0.67307 0.77941
 Zr493 Zr 0.74938 0.70246 0.74946
 O494 O 0.77413 0.72526 0.77428
 Zr495 Zr 0.70277 0.74901 0.74966
 O496 O 0.72547 0.77377 0.77466
 Zr497 Zr 0.74936 0.74918 0.70293
 O498 O 0.77407 0.77406 0.72572
 Zr499 Zr 0.75122 0.75075 0.79792
 O500 O 0.72598 0.72546 0.77552
 Zr501 Zr 0.79759 0.75083 0.75116
 O502 O 0.77508 0.72568 0.72604
 Zr503 Zr 0.75079 0.79736 0.75135
 O504 O 0.72582 0.77474 0.72613
 O505 O 0.72470 0.72447 0.72484
 O506 O 0.77590 0.77574 0.77611
 C507 C 0.75137 0.68891 0.68898
 C508 C 0.68895 0.68880 0.75158
 C509 C 0.68907 0.75092 0.68914
 C510 C 0.75104 0.81097 0.81184
 C511 C 0.81149 0.75153 0.81155
 C512 C 0.81110 0.81125 0.75151
 H513 H 0.78493 0.71326 0.78547
 H514 H 0.78496 0.78507 0.71368
 H515 H 0.71334 0.71312 0.71349
 H516 H 0.71352 0.78454 0.78591
 H517 H 0.70812 0.73594 0.82145
 H518 H 0.67836 0.75632 0.79421
 H519 H 0.82328 0.76343 0.70825
 H520 H 0.79388 0.73799 0.68034
 H521 H 0.74457 0.70590 0.82158
 H522 H 0.73618 0.67533 0.79116
 H523 H 0.76283 0.82315 0.70837
 H524 H 0.73815 0.79377 0.68050
 H525 H 0.79398 0.68006 0.73816
 H526 H 0.82299 0.70766 0.76329
 H527 H 0.68065 0.79356 0.73692
 H528 H 0.70784 0.82288 0.76413
 O529 O 0.24933 0.68118 0.28668
 O530 O 0.22051 0.67328 0.24983
 O531 O 0.31875 0.71321 0.24852
 O532 O 0.32843 0.74765 0.22241
 O533 O 0.28650 0.75050 0.31863
 O534 O 0.24954 0.77952 0.32603
 O535 O 0.24929 0.78638 0.18091
 O536 O 0.28033 0.75084 0.17422
 O537 O 0.18135 0.75065 0.21281
 O538 O 0.17294 0.72064 0.25024
 O539 O 0.21319 0.81835 0.24867
 O540 O 0.25104 0.82670 0.27875
 O541 O 0.24888 0.81826 0.21281
 O542 O 0.27926 0.82647 0.25068
 O543 O 0.18132 0.78646 0.24866
 O544 O 0.17335 0.74829 0.27904
 O545 O 0.21319 0.75143 0.18091
 O546 O 0.24520 0.72105 0.17256
 O547 O 0.24927 0.71313 0.31857
 O548 O 0.22006 0.75005 0.32595
 O549 O 0.31842 0.75014 0.28675
 O550 O 0.32463 0.78093 0.24937
 O551 O 0.28699 0.68120 0.24990
 O552 O 0.24865 0.67287 0.22064
 Zr553 Zr 0.25086 0.70227 0.25063
 O554 O 0.22612 0.72499 0.22576
 Zr555 Zr 0.29734 0.74896 0.25060
 O556 O 0.27463 0.77366 0.22559
 Zr557 Zr 0.25064 0.74899 0.29721
 O558 O 0.22589 0.77378 0.27440
 Zr559 Zr 0.24902 0.75055 0.20224
 O560 O 0.27428 0.72534 0.22466
 Zr561 Zr 0.20251 0.75048 0.24885
 O562 O 0.22505 0.72542 0.27400
 Zr563 Zr 0.24917 0.79716 0.24887
 O564 O 0.27417 0.77462 0.27410
 O565 O 0.27542 0.72435 0.27534
 O566 O 0.22420 0.77546 0.22401
 C567 C 0.24873 0.68873 0.31107
 C568 C 0.31134 0.68878 0.24866
 C569 C 0.31090 0.75088 0.31115
 C570 C 0.24904 0.81076 0.18841
 C571 C 0.18881 0.75119 0.18841
 C572 C 0.18880 0.81085 0.24861
 H573 H 0.21539 0.71297 0.21453
 H574 H 0.21493 0.78474 0.28642
 H575 H 0.28678 0.71303 0.28670
 H576 H 0.28658 0.78447 0.21439
 H577 H 0.29224 0.73588 0.17881
 H578 H 0.32184 0.75642 0.20613
 H579 H 0.17668 0.76292 0.29172
 H580 H 0.20609 0.73771 0.31969
 H581 H 0.25588 0.70574 0.17852
 H582 H 0.26425 0.67518 0.20893
 H583 H 0.23693 0.82290 0.29185
 H584 H 0.26172 0.79360 0.31973
 H585 H 0.20629 0.67975 0.26175
 H586 H 0.17725 0.70726 0.23652
 H587 H 0.31929 0.79358 0.26344
 H588 H 0.29209 0.82281 0.23626
 O589 O 0.75048 0.31841 0.28638
 O590 O 0.77925 0.32605 0.24941
 O591 O 0.68110 0.28627 0.24848
 O592 O 0.67107 0.25181 0.22267
 O593 O 0.71341 0.24923 0.31872
 O594 O 0.75021 0.22028 0.32627
 O595 O 0.75077 0.21295 0.18088
 O596 O 0.71981 0.24761 0.17367
 O597 O 0.81838 0.24854 0.21292
 O598 O 0.82698 0.27837 0.25065
 O599 O 0.78631 0.18088 0.24875
 O600 O 0.74861 0.17253 0.27854
 O601 O 0.75074 0.18111 0.21280
 O602 O 0.72009 0.17319 0.25077
 O603 O 0.81828 0.21266 0.24868
 O604 O 0.82643 0.25071 0.27914
 O605 O 0.78654 0.24825 0.18098
 O606 O 0.75009 0.27900 0.17282
 O607 O 0.75067 0.28660 0.31838
 O608 O 0.77991 0.24950 0.32584
 O609 O 0.68140 0.24952 0.28690
 O610 O 0.67519 0.21829 0.24990
 O611 O 0.71298 0.31822 0.24909
 O612 O 0.74994 0.32573 0.21988
 Zr613 Zr 0.74896 0.29702 0.25048
 O614 O 0.77381 0.27427 0.22578
 Zr615 Zr 0.70234 0.25040 0.25072
 O616 O 0.72499 0.22575 0.22558
 Zr617 Zr 0.74919 0.25057 0.29723
 O618 O 0.77376 0.22557 0.27445
 Zr619 Zr 0.75063 0.24881 0.20221
 O620 O 0.72543 0.27380 0.22478
 Zr621 Zr 0.79723 0.24871 0.24893
 O622 O 0.77478 0.27398 0.27395
 Zr623 Zr 0.75043 0.20223 0.24886
 O624 O 0.72561 0.22484 0.27421
 O625 O 0.72438 0.27514 0.27529
 O626 O 0.77543 0.22385 0.22400
 C627 C 0.75117 0.31098 0.31081
 C628 C 0.68860 0.31068 0.24815
 C629 C 0.68899 0.24887 0.31128
 C630 C 0.75085 0.18856 0.18839
 C631 C 0.81091 0.24830 0.18851
 C632 C 0.81072 0.18829 0.24865
 H633 H 0.78488 0.28630 0.21496
 H634 H 0.78468 0.21456 0.28649
 H635 H 0.71306 0.28659 0.28657
 H636 H 0.71305 0.21493 0.21435
 H637 H 0.70622 0.26061 0.17944
 H638 H 0.67686 0.24163 0.20691
 H639 H 0.82301 0.23612 0.29183
 H640 H 0.79380 0.26194 0.31962
 H641 H 0.76399 0.29215 0.17719
 H642 H 0.73761 0.31945 0.20590
 H643 H 0.76235 0.17661 0.29198
 H644 H 0.73820 0.20606 0.31991
 H645 H 0.79354 0.31965 0.26130
 H646 H 0.82293 0.29176 0.23687
 H647 H 0.68057 0.20584 0.26413
 H648 H 0.70754 0.17659 0.23604
 C649 C 0.25175 0.15497 0.12110
 C650 C 0.25165 0.12814 0.12827
 C651 C 0.25162 0.12102 0.15512
 C652 C 0.25158 0.14065 0.17477
 C653 C 0.25067 0.05427 0.05436
 C654 C 0.25171 0.17465 0.14069
 C655 C 0.25140 0.10791 0.10807
 C656 C 0.25115 0.09098 0.09114
 C657 C 0.25086 0.07118 0.07130
 C658 C 0.25155 0.16773 0.16780
 H659 H 0.25177 0.16069 0.10036
 H660 H 0.25154 0.10030 0.16089
 H661 H 0.25143 0.13458 0.19540
 H662 H 0.25166 0.19526 0.13458
 C663 C 0.75222 0.62142 0.65535
 C664 C 0.75210 0.62859 0.62851
 C665 C 0.75207 0.65544 0.62139
 C666 C 0.75204 0.67508 0.64103
 C667 C 0.75110 0.55473 0.55459
 C668 C 0.75218 0.64101 0.67503
 C669 C 0.75184 0.60840 0.60828
 C670 C 0.75158 0.59148 0.59134
 C671 C 0.75129 0.57166 0.57152
 C672 C 0.75202 0.66811 0.66812
 H673 H 0.75224 0.60069 0.66107
 H674 H 0.75198 0.66121 0.60066
 H675 H 0.75188 0.69571 0.63496
 H676 H 0.75214 0.63490 0.69565
 C677 C 0.74803 0.84555 0.12119
 C678 C 0.74816 0.87238 0.12841
 C679 C 0.74823 0.87944 0.15529
 C680 C 0.74829 0.85978 0.17489
 C681 C 0.74912 0.94642 0.05465
 C682 C 0.74809 0.82584 0.14073
 C683 C 0.74840 0.89266 0.10825
 C684 C 0.74865 0.90962 0.09136
 C685 C 0.74894 0.92948 0.07157
 C686 C 0.74829 0.83270 0.16786
 H687 H 0.74798 0.83986 0.10043
 H688 H 0.74834 0.90016 0.16112
 H689 H 0.74848 0.86582 0.19554
 H690 H 0.74811 0.80523 0.13456
 C691 C 0.24828 0.37887 0.65554
 C692 C 0.24823 0.37175 0.62868
 C693 C 0.24809 0.34492 0.62147
 C694 C 0.24813 0.32525 0.64103
 C695 C 0.24920 0.44552 0.55484
 C696 C 0.24832 0.35924 0.67515
 C697 C 0.24849 0.39196 0.60851
 C698 C 0.24874 0.40886 0.59160
 C699 C 0.24903 0.42864 0.57178
 C700 C 0.24831 0.33216 0.66814
 H701 H 0.24840 0.39960 0.66132
 H702 H 0.24805 0.33921 0.60072
 H703 H 0.24815 0.30463 0.63489
 H704 H 0.24849 0.36531 0.69579
 C705 C 0.74844 0.15536 0.87922
 C706 C 0.74845 0.12850 0.87211
 C707 C 0.74840 0.12132 0.84526
 C708 C 0.74846 0.14090 0.82558
 C709 C 0.74928 0.05470 0.94610
 C710 C 0.74850 0.17499 0.85959
 C711 C 0.74866 0.10831 0.89236
 C712 C 0.74888 0.09140 0.90931
 C713 C 0.74913 0.07160 0.92915
 C714 C 0.74857 0.16801 0.83250
 H715 H 0.74848 0.16114 0.89996
 H716 H 0.74841 0.10058 0.83953
 H717 H 0.74855 0.13477 0.80496
 H718 H 0.74862 0.19562 0.86567
 C719 C 0.24797 0.62127 0.34462
 C720 C 0.24799 0.62845 0.37146
 C721 C 0.24792 0.65530 0.37860
 C722 C 0.24796 0.67493 0.35899
 C723 C 0.24906 0.55471 0.44532
 C724 C 0.24801 0.64085 0.32496
 C725 C 0.24825 0.60828 0.39167
 C726 C 0.24852 0.59139 0.40859
 C727 C 0.24885 0.57160 0.42840
 C728 C 0.24807 0.66794 0.33190
 H729 H 0.24802 0.60053 0.33888
 H730 H 0.24794 0.66107 0.39934
 H731 H 0.24804 0.69556 0.36508
 H732 H 0.24812 0.63473 0.30433
 C733 C 0.25168 0.84509 0.87926
 C734 C 0.25168 0.87193 0.87209
 C735 C 0.25178 0.87904 0.84524
 C736 C 0.25175 0.85941 0.82559
 C737 C 0.25069 0.94595 0.94586
 C738 C 0.25165 0.82541 0.85967
 C739 C 0.25142 0.89217 0.89228
 C740 C 0.25116 0.90913 0.90918
 C741 C 0.25087 0.92899 0.92896
 C742 C 0.25162 0.83233 0.83256
 H743 H 0.25160 0.83937 0.90000
 H744 H 0.25178 0.89977 0.83947
 H745 H 0.25170 0.86548 0.80496
 H746 H 0.25151 0.80480 0.86578
 C747 C 0.75215 0.34467 0.37827
 C748 C 0.75202 0.37150 0.37107
 C749 C 0.75195 0.37858 0.34421
 C750 C 0.75188 0.35893 0.32458
 C751 C 0.75109 0.44538 0.44497
 C752 C 0.75207 0.32497 0.35869
 C753 C 0.75179 0.39174 0.39126
 C754 C 0.75155 0.40867 0.40819
 C755 C 0.75127 0.42847 0.42802
 C756 C 0.75187 0.33186 0.33159
 H757 H 0.75220 0.33897 0.39902
 H758 H 0.75185 0.39930 0.33843
 H759 H 0.75169 0.36498 0.30395
 H760 H 0.75204 0.30437 0.36483
 C761 C 0.12123 0.25119 0.15466
 C762 C 0.12839 0.25122 0.12782
 C763 C 0.15523 0.25140 0.12069
 C764 C 0.17488 0.25144 0.14032
 C765 C 0.05439 0.25020 0.05403
 C766 C 0.14083 0.25122 0.17433
 C767 C 0.10818 0.25093 0.10760
 C768 C 0.09123 0.25066 0.09069
 C769 C 0.07136 0.25037 0.07092
 C770 C 0.16792 0.25129 0.16741
 H771 H 0.10050 0.25105 0.16039
 H772 H 0.16099 0.25143 0.09996
 H773 H 0.19551 0.25146 0.13424
 H774 H 0.13472 0.25107 0.19495
 C775 C 0.62151 0.75125 0.65563
 C776 C 0.62863 0.75144 0.62878
 C777 C 0.65547 0.75177 0.62163
 C778 C 0.67514 0.75180 0.64123
 C779 C 0.55482 0.75032 0.55481
 C780 C 0.64113 0.75128 0.67529
 C781 C 0.60842 0.75113 0.60856
 C782 C 0.59151 0.75084 0.59161
 C783 C 0.57172 0.75052 0.57176
 C784 C 0.66821 0.75149 0.66833
 H785 H 0.60078 0.75099 0.66139
 H786 H 0.66120 0.75191 0.60089
 H787 H 0.69575 0.75193 0.63513
 H788 H 0.63505 0.75101 0.69592
 C789 C 0.12107 0.74903 0.84499
 C790 C 0.12813 0.74897 0.87188
 C791 C 0.15497 0.74873 0.87910
 C792 C 0.17468 0.74867 0.85955
 C793 C 0.05392 0.75018 0.94546
 C794 C 0.14074 0.74897 0.82540
 C795 C 0.10785 0.74930 0.89203
 C796 C 0.09085 0.74961 0.90888
 C797 C 0.07093 0.74996 0.92861
 C798 C 0.16782 0.74886 0.83243
 H799 H 0.10036 0.74921 0.83917
 H800 H 0.16066 0.74869 0.89986
 H801 H 0.19529 0.74862 0.86572
 H802 H 0.13469 0.74914 0.80475
 C803 C 0.65565 0.24839 0.37886
 C804 C 0.62880 0.24859 0.37174
 C805 C 0.62158 0.24856 0.34491
 C806 C 0.64113 0.24847 0.32523
 C807 C 0.55493 0.24986 0.44548
 C808 C 0.67526 0.24830 0.35922
 C809 C 0.60864 0.24895 0.39196
 C810 C 0.59172 0.24928 0.40886
 C811 C 0.57189 0.24964 0.42862
 C812 C 0.66823 0.24839 0.33214
 H813 H 0.66144 0.24841 0.39959
 H814 H 0.60083 0.24871 0.33920
 H815 H 0.63498 0.24857 0.30462
 H816 H 0.69589 0.24827 0.36528
 C817 C 0.87855 0.74927 0.15434
 C818 C 0.87134 0.74927 0.12750
 C819 C 0.84447 0.74910 0.12042
 C820 C 0.82486 0.74903 0.14008
 C821 C 0.94522 0.75036 0.05359
 C822 C 0.85900 0.74920 0.17405
 C823 C 0.89151 0.74959 0.10724
 C824 C 0.90843 0.74987 0.09031
 C825 C 0.92827 0.75018 0.07050
 C826 C 0.83188 0.74914 0.16717
 H827 H 0.89930 0.74940 0.16005
 H828 H 0.83866 0.74911 0.09970
 H829 H 0.80422 0.74902 0.13403
 H830 H 0.86516 0.74931 0.19466
 C831 C 0.37850 0.24869 0.65502
 C832 C 0.37133 0.24870 0.62818
 C833 C 0.34449 0.24853 0.62101
 C834 C 0.32485 0.24847 0.64062
 C835 C 0.44524 0.24989 0.55449
 C836 C 0.35891 0.24863 0.67467
 C837 C 0.39152 0.24903 0.60799
 C838 C 0.40845 0.24935 0.59110
 C839 C 0.42828 0.24969 0.57135
 C840 C 0.33182 0.24858 0.66771
 H841 H 0.39924 0.24882 0.66077
 H842 H 0.33873 0.24854 0.60028
 H843 H 0.30422 0.24846 0.63452
 H844 H 0.36502 0.24875 0.69530
 C845 C 0.87900 0.25138 0.84509
 C846 C 0.87187 0.25152 0.87194
 C847 C 0.84503 0.25180 0.87909
 C848 C 0.82536 0.25182 0.85949
 C849 C 0.94579 0.25038 0.94582
 C850 C 0.85938 0.25139 0.82543
 C851 C 0.89209 0.25122 0.89215
 C852 C 0.90902 0.25092 0.90908
 C853 C 0.92885 0.25059 0.92889
 C854 C 0.83229 0.25154 0.83239
 H855 H 0.89973 0.25115 0.83934
 H856 H 0.83930 0.25192 0.89983
 H857 H 0.80475 0.25191 0.86559
 H858 H 0.86546 0.25114 0.80481
 C859 C 0.37842 0.75137 0.34472
 C860 C 0.37128 0.75147 0.37157
 C861 C 0.34444 0.75170 0.37870
 C862 C 0.32478 0.75171 0.35908
 C863 C 0.44523 0.75035 0.44541
 C864 C 0.35882 0.75138 0.32505
 C865 C 0.39150 0.75117 0.39179
 C866 C 0.40843 0.75088 0.40870
 C867 C 0.42828 0.75056 0.42850
 C868 C 0.33173 0.75149 0.33199
 H869 H 0.39916 0.75119 0.33898
 H870 H 0.33869 0.75178 0.39944
 H871 H 0.30416 0.75176 0.36517
 H872 H 0.36491 0.75117 0.30443
 C873 C 0.12084 0.15529 0.25246
 C874 C 0.12796 0.12844 0.25220
 C875 C 0.15481 0.12129 0.25200
 C876 C 0.17448 0.14089 0.25192
 C877 C 0.05419 0.05439 0.25116
 C878 C 0.14046 0.17495 0.25238
 C879 C 0.10774 0.10821 0.25194
 C880 C 0.09084 0.09126 0.25167
 C881 C 0.07106 0.07137 0.25136
 C882 C 0.16755 0.16799 0.25204
 H883 H 0.10011 0.16105 0.25261
 H884 H 0.16055 0.10056 0.25179
 H885 H 0.19509 0.13478 0.25162
 H886 H 0.13438 0.19557 0.25244
 C887 C 0.65538 0.62134 0.75169
 C888 C 0.62856 0.62852 0.75229
 C889 C 0.62144 0.65536 0.75298
 C890 C 0.64106 0.67498 0.75296
 C891 C 0.55466 0.55477 0.75133
 C892 C 0.67505 0.64091 0.75166
 C893 C 0.60834 0.60835 0.75203
 C894 C 0.59140 0.59146 0.75177
 C895 C 0.57158 0.57168 0.75149
 C896 C 0.66813 0.66800 0.75223
 H897 H 0.66110 0.60060 0.75115
 H898 H 0.60071 0.66112 0.75345
 H899 H 0.63498 0.69561 0.75337
 H900 H 0.69566 0.63480 0.75106
 C901 C 0.87931 0.15526 0.74782
 C902 C 0.87220 0.12840 0.74843
 C903 C 0.84536 0.12125 0.74895
 C904 C 0.82569 0.14084 0.74898
 C905 C 0.94602 0.05441 0.74934
 C906 C 0.85968 0.17490 0.74786
 C907 C 0.89243 0.10819 0.74867
 C908 C 0.90935 0.09125 0.74891
 C909 C 0.92913 0.07138 0.74918
 C910 C 0.83260 0.16794 0.74850
 H911 H 0.90004 0.16102 0.74742
 H912 H 0.83963 0.10051 0.74942
 H913 H 0.80508 0.13472 0.74952
 H914 H 0.86576 0.19552 0.74751
 C915 C 0.37891 0.65546 0.24741
 C916 C 0.37183 0.62860 0.24802
 C917 C 0.34502 0.62138 0.24851
 C918 C 0.32532 0.64092 0.24852
 C919 C 0.44567 0.55481 0.24897
 C920 C 0.35926 0.67505 0.24742
 C921 C 0.39207 0.60846 0.24828
 C922 C 0.40900 0.59156 0.24854
 C923 C 0.42879 0.57175 0.24882
 C924 C 0.33220 0.66803 0.24804
 H925 H 0.39963 0.66125 0.24703
 H926 H 0.33933 0.60063 0.24898
 H927 H 0.30472 0.63477 0.24903
 H928 H 0.36530 0.69569 0.24708
 C929 C 0.15484 0.87892 0.74892
 C930 C 0.12800 0.87175 0.74837
 C931 C 0.12090 0.84490 0.74775
 C932 C 0.14054 0.82526 0.74780
 C933 C 0.05414 0.94568 0.74931
 C934 C 0.17452 0.85934 0.74898
 C935 C 0.10776 0.89195 0.74861
 C936 C 0.09084 0.90888 0.74885
 C937 C 0.07103 0.92872 0.74913
 C938 C 0.16761 0.83224 0.74848
 H939 H 0.16056 0.89966 0.74941
 H940 H 0.10018 0.83912 0.74732
 H941 H 0.13447 0.80464 0.74745
 H942 H 0.19512 0.86546 0.74954
 C943 C 0.65511 0.37818 0.24735
 C944 C 0.62827 0.37103 0.24719
 C945 C 0.62111 0.34419 0.24695
 C946 C 0.64070 0.32454 0.24703
 C947 C 0.55465 0.44504 0.24849
 C948 C 0.67476 0.35858 0.24742
 C949 C 0.60810 0.39124 0.24750
 C950 C 0.59122 0.40819 0.24782
 C951 C 0.57149 0.42806 0.24822
 C952 C 0.66779 0.33149 0.24735
 H953 H 0.66086 0.39891 0.24753
 H954 H 0.60037 0.33845 0.24684
 H955 H 0.63460 0.30392 0.24700
 H956 H 0.69537 0.36467 0.24770
 C957 C 0.84527 0.87896 0.25203
 C958 C 0.87210 0.87177 0.25222
 C959 C 0.87919 0.84491 0.25245
 C960 C 0.85954 0.82528 0.25237
 C961 C 0.94606 0.94564 0.25119
 C962 C 0.82557 0.85938 0.25194
 C963 C 0.89236 0.89196 0.25196
 C964 C 0.90931 0.90887 0.25170
 C965 C 0.92914 0.92870 0.25139
 C966 C 0.83246 0.83227 0.25203
 H967 H 0.83956 0.89970 0.25184
 H968 H 0.89991 0.83912 0.25259
 H969 H 0.86560 0.80465 0.25240
 H970 H 0.80497 0.86552 0.25165
 C971 C 0.34500 0.37840 0.75261
 C972 C 0.37183 0.37121 0.75281
 C973 C 0.37895 0.34436 0.75303
 C974 C 0.35932 0.32474 0.75290
 C975 C 0.44552 0.44516 0.75167
 C976 C 0.32533 0.35883 0.75248
 C977 C 0.39203 0.39139 0.75255
 C978 C 0.40892 0.40833 0.75226
 C979 C 0.42867 0.42819 0.75191
 C980 C 0.33225 0.33173 0.75254
 H981 H 0.33928 0.39914 0.75243
 H982 H 0.39968 0.33859 0.75317
 H983 H 0.36539 0.30411 0.75292
 H984 H 0.30472 0.36496 0.75218
 C985 C 0.12115 0.24900 0.84420
 C986 C 0.12820 0.24890 0.87108
 C987 C 0.15501 0.24860 0.87835
 C988 C 0.17474 0.24850 0.85884
 C989 C 0.05417 0.24994 0.94468
 C990 C 0.14083 0.24890 0.82463
 C991 C 0.10793 0.24921 0.89119
 C992 C 0.09096 0.24948 0.90805
 C993 C 0.07111 0.24978 0.92780
 C994 C 0.16789 0.24872 0.83172
 H995 H 0.10044 0.24921 0.83836
 H996 H 0.16068 0.24850 0.89912
 H997 H 0.19534 0.24831 0.86503
 H998 H 0.13481 0.24903 0.80398
 C999 C 0.65549 0.74888 0.37845
 C1000 C 0.62864 0.74915 0.37129
 C1001 C 0.62153 0.74926 0.34442
 C1002 C 0.64115 0.74919 0.32478
 C1003 C 0.55475 0.75003 0.44523
 C1004 C 0.67516 0.74881 0.35886
 C1005 C 0.60841 0.74941 0.39150
 C1006 C 0.59148 0.74964 0.40844
 C1007 C 0.57167 0.74989 0.42828
 C1008 C 0.66824 0.74903 0.33175
 H1009 H 0.66123 0.74877 0.39920
 H1010 H 0.60080 0.74944 0.33864
 H1011 H 0.63507 0.74932 0.30414
 H1012 H 0.69578 0.74864 0.36498
 C1013 C 0.87920 0.75149 0.84478
 C1014 C 0.87220 0.75188 0.87167
 C1015 C 0.84539 0.75240 0.87894
 C1016 C 0.82563 0.75240 0.85942
 C1017 C 0.94643 0.75084 0.94526
 C1018 C 0.85949 0.75149 0.82522
 C1019 C 0.89252 0.75161 0.89179
 C1020 C 0.90953 0.75135 0.90864
 C1021 C 0.92945 0.75104 0.92838
 C1022 C 0.83243 0.75186 0.83229
 H1023 H 0.89989 0.75111 0.83894
 H1024 H 0.83976 0.75273 0.89970
 H1025 H 0.80504 0.75275 0.86561
 H1026 H 0.86547 0.75111 0.80457
 C1027 C 0.37862 0.25102 0.34431
 C1028 C 0.37155 0.25111 0.37118
 C1029 C 0.34472 0.25137 0.37838
 C1030 C 0.32502 0.25144 0.35882
 C1031 C 0.44548 0.25020 0.44507
 C1032 C 0.35896 0.25109 0.32469
 C1033 C 0.39181 0.25085 0.39136
 C1034 C 0.40875 0.25060 0.40828
 C1035 C 0.42857 0.25035 0.42812
 C1036 C 0.33189 0.25123 0.33170
 H1037 H 0.39934 0.25084 0.33852
 H1038 H 0.33903 0.25147 0.39913
 H1039 H 0.30441 0.25159 0.36496
 H1040 H 0.36500 0.25097 0.30406
 C1041 C 0.12127 0.75105 0.15483
 C1042 C 0.12840 0.75154 0.12799
 C1043 C 0.15525 0.75215 0.12086
 C1044 C 0.17490 0.75214 0.14048
 C1045 C 0.05467 0.75066 0.05390
 C1046 C 0.14087 0.75104 0.17451
 C1047 C 0.10821 0.75131 0.10775
 C1048 C 0.09131 0.75108 0.09078
 C1049 C 0.07155 0.75081 0.07089
 C1050 C 0.16796 0.75151 0.16757
 H1051 H 0.10054 0.75060 0.16057
 H1052 H 0.16099 0.75256 0.10013
 H1053 H 0.19552 0.75256 0.13440
 H1054 H 0.13479 0.75059 0.19513
 C1055 C 0.62156 0.25121 0.65561
 C1056 C 0.62863 0.25165 0.62875
 C1057 C 0.65546 0.25223 0.62156
 C1058 C 0.67516 0.25226 0.64113
 C1059 C 0.55470 0.25051 0.55487
 C1060 C 0.64122 0.25123 0.67523
 C1061 C 0.60838 0.25136 0.60856
 C1062 C 0.59144 0.25107 0.59165
 C1063 C 0.57161 0.25074 0.57182
 C1064 C 0.66829 0.25167 0.66823
 H1065 H 0.60085 0.25078 0.66140
 H1066 H 0.66115 0.25260 0.60081
 H1067 H 0.69576 0.25265 0.63499
 H1068 H 0.63518 0.25082 0.69587
 C1069 C 0.87843 0.24844 0.15504
 C1070 C 0.87128 0.24835 0.12819
 C1071 C 0.84444 0.24802 0.12102
 C1072 C 0.82479 0.24789 0.14061
 C1073 C 0.94496 0.24967 0.05424
 C1074 C 0.85883 0.24831 0.17469
 C1075 C 0.89146 0.24871 0.10799
 C1076 C 0.90835 0.24905 0.09105
 C1077 C 0.92810 0.24942 0.07120
 C1078 C 0.83174 0.24812 0.16771
 H1079 H 0.89916 0.24867 0.16080
 H1080 H 0.83869 0.24792 0.10028
 H1081 H 0.80417 0.24770 0.13450
 H1082 H 0.86492 0.24845 0.19532
 C1083 C 0.37870 0.74897 0.65583
 C1084 C 0.37161 0.74849 0.62896
 C1085 C 0.34477 0.74786 0.62178
 C1086 C 0.32508 0.74783 0.64135
 C1087 C 0.44542 0.74967 0.55495
 C1088 C 0.35906 0.74894 0.67546
 C1089 C 0.39184 0.74879 0.60875
 C1090 C 0.40876 0.74909 0.59180
 C1091 C 0.42854 0.74943 0.57193
 C1092 C 0.33198 0.74845 0.66847
 H1093 H 0.39942 0.74944 0.66162
 H1094 H 0.33905 0.74746 0.60103
 H1095 H 0.30448 0.74739 0.63521
 H1096 H 0.36512 0.74939 0.69609
 C1097 C 0.24846 0.15541 0.87869
 C1098 C 0.24872 0.12858 0.87146
 C1099 C 0.24875 0.12148 0.84460
 C1100 C 0.24866 0.14112 0.82500
 C1101 C 0.25003 0.05445 0.94498
 C1102 C 0.24836 0.17510 0.85913
 C1103 C 0.24907 0.10833 0.89160
 C1104 C 0.24940 0.09134 0.90844
 C1105 C 0.24978 0.07144 0.92815
 C1106 C 0.24854 0.16820 0.83202
 H1107 H 0.24841 0.16111 0.89944
 H1108 H 0.24893 0.10076 0.83880
 H1109 H 0.24875 0.13507 0.80436
 H1110 H 0.24822 0.19571 0.86528
 C1111 C 0.74928 0.62183 0.34449
 C1112 C 0.74925 0.62893 0.37136
 C1113 C 0.74899 0.65578 0.37853
 C1114 C 0.74887 0.67546 0.35895
 C1115 C 0.75048 0.55489 0.44513
 C1116 C 0.74916 0.64146 0.32485
 C1117 C 0.74958 0.60868 0.39155
 C1118 C 0.74990 0.59172 0.40845
 C1119 C 0.75025 0.57185 0.42824
 C1120 C 0.74902 0.66855 0.33183
 H1121 H 0.74945 0.60110 0.33870
 H1122 H 0.74893 0.66151 0.39928
 H1123 H 0.74871 0.69608 0.36508
 H1124 H 0.74924 0.63538 0.30422
 C1125 C 0.75108 0.15486 0.12090
 C1126 C 0.75083 0.12803 0.12810
 C1127 C 0.75078 0.12096 0.15497
 C1128 C 0.75088 0.14061 0.17459
 C1129 C 0.74971 0.05385 0.05446
 C1130 C 0.75118 0.17457 0.14047
 C1131 C 0.75051 0.10776 0.10793
 C1132 C 0.75022 0.09076 0.09107
 C1133 C 0.74990 0.07085 0.07133
 C1134 C 0.75101 0.16769 0.16758
 H1135 H 0.75115 0.16056 0.10015
 H1136 H 0.75060 0.10024 0.16076
 H1137 H 0.75078 0.13457 0.19522
 H1138 H 0.75134 0.19518 0.13434
 C1139 C 0.25058 0.62164 0.65558
 C1140 C 0.25053 0.62877 0.62872
 C1141 C 0.25071 0.65561 0.62157
 C1142 C 0.25086 0.67528 0.64118
 C1143 C 0.24948 0.55488 0.55479
 C1144 C 0.25073 0.64127 0.67524
 C1145 C 0.25021 0.60854 0.60851
 C1146 C 0.24993 0.59162 0.59157
 C1147 C 0.24964 0.57181 0.57173
 C1148 C 0.25081 0.66835 0.66828
 H1149 H 0.25047 0.60091 0.66134
 H1150 H 0.25070 0.66134 0.60083
 H1151 H 0.25097 0.69589 0.63507
 H1152 H 0.25073 0.63519 0.69586
 C1153 C 0.75098 0.84449 0.87941
 C1154 C 0.75075 0.87134 0.87229
 C1155 C 0.75079 0.87849 0.84544
 C1156 C 0.75096 0.85889 0.82576
 C1157 C 0.74961 0.94522 0.94622
 C1158 C 0.75115 0.82484 0.85978
 C1159 C 0.75041 0.89154 0.89252
 C1160 C 0.75011 0.90847 0.90946
 C1161 C 0.74980 0.92829 0.92929
 C1162 C 0.75108 0.83179 0.83269
 H1163 H 0.75098 0.83873 0.90014
 H1164 H 0.75065 0.89922 0.83970
 H1165 H 0.75095 0.86499 0.80514
 H1166 H 0.75129 0.80422 0.86586
 C1167 C 0.25126 0.34438 0.37875
 C1168 C 0.25097 0.37122 0.37161
 C1169 C 0.25090 0.37835 0.34476
 C1170 C 0.25099 0.35874 0.32510
 C1171 C 0.24974 0.44524 0.44541
 C1172 C 0.25135 0.32471 0.35914
 C1173 C 0.25064 0.39145 0.39182
 C1174 C 0.25033 0.40840 0.40873
 C1175 C 0.24997 0.42827 0.42852
 C1176 C 0.25115 0.33165 0.33204
 H1177 H 0.25134 0.33864 0.39949
 H1178 H 0.25070 0.39908 0.33901
 H1179 H 0.25087 0.36483 0.30448
 H1180 H 0.25152 0.30409 0.36523
 C1181 C 0.24917 0.84426 0.12090
 C1182 C 0.24930 0.87110 0.12806
 C1183 C 0.24918 0.87826 0.15491
 C1184 C 0.24902 0.85867 0.17456
 C1185 C 0.25038 0.94489 0.05420
 C1186 C 0.24900 0.82461 0.14050
 C1187 C 0.24963 0.89129 0.10786
 C1188 C 0.24992 0.90819 0.09093
 C1189 C 0.25022 0.92798 0.07112
 C1190 C 0.24899 0.83158 0.16759
 H1191 H 0.24923 0.83850 0.10016
 H1192 H 0.24925 0.89900 0.16066
 H1193 H 0.24897 0.86477 0.19518
 H1194 H 0.24893 0.80399 0.13440
 C1195 C 0.74968 0.37846 0.65531
 C1196 C 0.74976 0.37132 0.62845
 C1197 C 0.74960 0.34446 0.62131
 C1198 C 0.74946 0.32481 0.64092
 C1199 C 0.75077 0.44523 0.55453
 C1200 C 0.74953 0.35886 0.67497
 C1201 C 0.75007 0.39154 0.60822
 C1202 C 0.75034 0.40847 0.59129
 C1203 C 0.75061 0.42829 0.57146
 C1204 C 0.74948 0.33176 0.66803
 H1205 H 0.74977 0.39919 0.66107
 H1206 H 0.74964 0.33870 0.60057
 H1207 H 0.74936 0.30418 0.63482
 H1208 H 0.74951 0.36496 0.69560
 C1209 C 0.12147 0.15542 0.75091
 C1210 C 0.12859 0.12857 0.75076
 C1211 C 0.15542 0.12138 0.75086
 C1212 C 0.17510 0.14096 0.75099
 C1213 C 0.05446 0.05504 0.74968
 C1214 C 0.14109 0.17504 0.75104
 C1215 C 0.10835 0.10841 0.75044
 C1216 C 0.09137 0.09157 0.75015
 C1217 C 0.07146 0.07186 0.74985
 C1218 C 0.16817 0.16806 0.75102
 H1219 H 0.10074 0.16119 0.75086
 H1220 H 0.16114 0.10064 0.75078
 H1221 H 0.19571 0.13485 0.75102
 H1222 H 0.13501 0.19567 0.75110
 C1223 C 0.65584 0.62149 0.25057
 C1224 C 0.62897 0.62856 0.25047
 C1225 C 0.62178 0.65540 0.25066
 C1226 C 0.64134 0.67511 0.25083
 C1227 C 0.55511 0.55458 0.24922
 C1228 C 0.67546 0.64115 0.25075
 C1229 C 0.60879 0.60830 0.25010
 C1230 C 0.59187 0.59134 0.24978
 C1231 C 0.57205 0.57150 0.24943
 C1232 C 0.66846 0.66823 0.25081
 H1233 H 0.66164 0.60077 0.25046
 H1234 H 0.60103 0.66111 0.25061
 H1235 H 0.63520 0.69571 0.25092
 H1236 H 0.69609 0.63510 0.25078
 C1237 C 0.15525 0.87834 0.24890
 C1238 C 0.12842 0.87117 0.24905
 C1239 C 0.12128 0.84432 0.24883
 C1240 C 0.14089 0.82468 0.24857
 C1241 C 0.05447 0.94489 0.25062
 C1242 C 0.17492 0.85875 0.24865
 C1243 C 0.10820 0.89135 0.24952
 C1244 C 0.09126 0.90824 0.24993
 C1245 C 0.07142 0.92801 0.25036
 C1246 C 0.16797 0.83166 0.24856
 H1247 H 0.16099 0.89908 0.24904
 H1248 H 0.10055 0.83856 0.24891
 H1249 H 0.13481 0.80406 0.24847
 H1250 H 0.19553 0.86486 0.24860
 C1251 C 0.65578 0.37866 0.74936
 C1252 C 0.62893 0.37153 0.74951
 C1253 C 0.62179 0.34468 0.74936
 C1254 C 0.64139 0.32501 0.74915
 C1255 C 0.55493 0.44537 0.75090
 C1256 C 0.67544 0.35904 0.74916
 C1257 C 0.60871 0.39175 0.74992
 C1258 C 0.59176 0.40867 0.75028
 C1259 C 0.57190 0.42847 0.75066
 C1260 C 0.66849 0.33195 0.74912
 H1261 H 0.66154 0.39939 0.74945
 H1262 H 0.60105 0.33893 0.74945
 H1263 H 0.63529 0.30440 0.74908
 H1264 H 0.69606 0.36513 0.74909
 C1265 C 0.87813 0.15462 0.24886
 C1266 C 0.87092 0.12780 0.24908
 C1267 C 0.84406 0.12070 0.24894
 C1268 C 0.82446 0.14035 0.24869
 C1269 C 0.94476 0.05398 0.25063
 C1270 C 0.85858 0.17431 0.24861
 C1271 C 0.89108 0.10757 0.24955
 C1272 C 0.90799 0.09065 0.24995
 C1273 C 0.92781 0.07086 0.25038
 C1274 C 0.83148 0.16742 0.24860
 H1275 H 0.89888 0.16032 0.24894
 H1276 H 0.83827 0.09998 0.24908
 H1277 H 0.80382 0.13430 0.24865
 H1278 H 0.86473 0.19492 0.24850
 C1279 C 0.37843 0.65547 0.74968
 C1280 C 0.37127 0.62863 0.74981
 C1281 C 0.34441 0.62152 0.74965
 C1282 C 0.32477 0.64115 0.74945
 C1283 C 0.44518 0.55469 0.75105
 C1284 C 0.35884 0.67515 0.74949
 C1285 C 0.39148 0.60838 0.75019
 C1286 C 0.40840 0.59144 0.75052
 C1287 C 0.42824 0.57161 0.75086
 C1288 C 0.33173 0.66824 0.74943
 H1289 H 0.39917 0.66121 0.74978
 H1290 H 0.33864 0.60079 0.74973
 H1291 H 0.30414 0.63507 0.74938
 H1292 H 0.36496 0.69577 0.74943
 C1293 C 0.84436 0.87888 0.75147
 C1294 C 0.87122 0.87183 0.75128
 C1295 C 0.87848 0.84502 0.75136
 C1296 C 0.85896 0.82529 0.75153
 C1297 C 0.94478 0.94592 0.74992
 C1298 C 0.82478 0.85920 0.75164
 C1299 C 0.89133 0.89211 0.75089
 C1300 C 0.90818 0.90909 0.75054
 C1301 C 0.92791 0.92897 0.75016
 C1302 C 0.83184 0.83214 0.75160
 H1303 H 0.83853 0.89959 0.75144
 H1304 H 0.89923 0.83935 0.75123
 H1305 H 0.86513 0.80469 0.75154
 H1306 H 0.80414 0.86522 0.75174
 C1307 C 0.34425 0.37875 0.25074
 C1308 C 0.37111 0.37163 0.25061
 C1309 C 0.37826 0.34478 0.25076
 C1310 C 0.35867 0.32511 0.25094
 C1311 C 0.44519 0.44540 0.24928
 C1312 C 0.32460 0.35912 0.25092
 C1313 C 0.39134 0.39186 0.25022
 C1314 C 0.40830 0.40876 0.24988
 C1315 C 0.42819 0.42853 0.24951
 C1316 C 0.33157 0.33203 0.25095
 H1317 H 0.33849 0.39947 0.25065
 H1318 H 0.39900 0.33904 0.25068
 H1319 H 0.36478 0.30449 0.25100
 H1320 H 0.30398 0.36520 0.25097
   
